# Generated by pormake.
# Topology wnd, (6)-cn, num edge types: 1
# Building blocks:
#     Node 0, Type 0, BuildingBlock: KUMBOL_clean_sbu_1, # of connection points: 6
#     Node 1, Type 0, BuildingBlock: KUMBOL_clean_sbu_1, # of connection points: 6
#     Node 2, Type 0, BuildingBlock: KUMBOL_clean_sbu_1, # of connection points: 6
#     Node 3, Type 0, BuildingBlock: KUMBOL_clean_sbu_1, # of connection points: 6
#     Node 4, Type 0, BuildingBlock: KUMBOL_clean_sbu_1, # of connection points: 6
#     Node 5, Type 0, BuildingBlock: KUMBOL_clean_sbu_1, # of connection points: 6
#     Node 6, Type 0, BuildingBlock: KUMBOL_clean_sbu_1, # of connection points: 6
#     Node 7, Type 0, BuildingBlock: KUMBOL_clean_sbu_1, # of connection points: 6
#     Node 8, Type 0, BuildingBlock: KUMBOL_clean_sbu_1, # of connection points: 6
#     Node 9, Type 0, BuildingBlock: KUMBOL_clean_sbu_1, # of connection points: 6
#     Node 10, Type 0, BuildingBlock: KUMBOL_clean_sbu_1, # of connection points: 6
#     Node 11, Type 0, BuildingBlock: KUMBOL_clean_sbu_1, # of connection points: 6
#     Node 12, Type 0, BuildingBlock: KUMBOL_clean_sbu_1, # of connection points: 6
#     Node 13, Type 0, BuildingBlock: KUMBOL_clean_sbu_1, # of connection points: 6
#     Node 14, Type 0, BuildingBlock: KUMBOL_clean_sbu_1, # of connection points: 6
#     Node 15, Type 0, BuildingBlock: KUMBOL_clean_sbu_1, # of connection points: 6
#     Node 16, Type 0, BuildingBlock: KUMBOL_clean_sbu_1, # of connection points: 6
#     Node 17, Type 0, BuildingBlock: KUMBOL_clean_sbu_1, # of connection points: 6
#     Node 18, Type 0, BuildingBlock: KUMBOL_clean_sbu_1, # of connection points: 6
#     Node 19, Type 0, BuildingBlock: KUMBOL_clean_sbu_1, # of connection points: 6
#     Node 20, Type 0, BuildingBlock: KUMBOL_clean_sbu_1, # of connection points: 6
#     Node 21, Type 0, BuildingBlock: KUMBOL_clean_sbu_1, # of connection points: 6
#     Node 22, Type 0, BuildingBlock: KUMBOL_clean_sbu_1, # of connection points: 6
#     Node 23, Type 0, BuildingBlock: KUMBOL_clean_sbu_1, # of connection points: 6
#     Node 24, Type 0, BuildingBlock: KUMBOL_clean_sbu_1, # of connection points: 6
#     Node 25, Type 0, BuildingBlock: KUMBOL_clean_sbu_1, # of connection points: 6
#     Node 26, Type 0, BuildingBlock: KUMBOL_clean_sbu_1, # of connection points: 6
#     Node 27, Type 0, BuildingBlock: KUMBOL_clean_sbu_1, # of connection points: 6
#     Node 28, Type 0, BuildingBlock: KUMBOL_clean_sbu_1, # of connection points: 6
#     Node 29, Type 0, BuildingBlock: KUMBOL_clean_sbu_1, # of connection points: 6
#     Node 30, Type 0, BuildingBlock: KUMBOL_clean_sbu_1, # of connection points: 6
#     Node 31, Type 0, BuildingBlock: KUMBOL_clean_sbu_1, # of connection points: 6
#     Node 32, Type 0, BuildingBlock: KUMBOL_clean_sbu_1, # of connection points: 6
#     Node 33, Type 0, BuildingBlock: KUMBOL_clean_sbu_1, # of connection points: 6
#     Node 34, Type 0, BuildingBlock: KUMBOL_clean_sbu_1, # of connection points: 6
#     Node 35, Type 0, BuildingBlock: KUMBOL_clean_sbu_1, # of connection points: 6
#     Edge 36, Type (0, 0), BuildingBlock: TEMPAE_clean_linker_10, # of connection points: 2
#     Edge 37, Type (0, 0), BuildingBlock: TEMPAE_clean_linker_10, # of connection points: 2
#     Edge 38, Type (0, 0), BuildingBlock: TEMPAE_clean_linker_10, # of connection points: 2
#     Edge 39, Type (0, 0), BuildingBlock: TEMPAE_clean_linker_10, # of connection points: 2
#     Edge 40, Type (0, 0), BuildingBlock: TEMPAE_clean_linker_10, # of connection points: 2
#     Edge 41, Type (0, 0), BuildingBlock: TEMPAE_clean_linker_10, # of connection points: 2
#     Edge 42, Type (0, 0), BuildingBlock: TEMPAE_clean_linker_10, # of connection points: 2
#     Edge 43, Type (0, 0), BuildingBlock: TEMPAE_clean_linker_10, # of connection points: 2
#     Edge 44, Type (0, 0), BuildingBlock: TEMPAE_clean_linker_10, # of connection points: 2
#     Edge 45, Type (0, 0), BuildingBlock: TEMPAE_clean_linker_10, # of connection points: 2
#     Edge 46, Type (0, 0), BuildingBlock: TEMPAE_clean_linker_10, # of connection points: 2
#     Edge 47, Type (0, 0), BuildingBlock: TEMPAE_clean_linker_10, # of connection points: 2
#     Edge 48, Type (0, 0), BuildingBlock: TEMPAE_clean_linker_10, # of connection points: 2
#     Edge 49, Type (0, 0), BuildingBlock: TEMPAE_clean_linker_10, # of connection points: 2
#     Edge 50, Type (0, 0), BuildingBlock: TEMPAE_clean_linker_10, # of connection points: 2
#     Edge 51, Type (0, 0), BuildingBlock: TEMPAE_clean_linker_10, # of connection points: 2
#     Edge 52, Type (0, 0), BuildingBlock: TEMPAE_clean_linker_10, # of connection points: 2
#     Edge 53, Type (0, 0), BuildingBlock: TEMPAE_clean_linker_10, # of connection points: 2
#     Edge 54, Type (0, 0), BuildingBlock: TEMPAE_clean_linker_10, # of connection points: 2
#     Edge 55, Type (0, 0), BuildingBlock: TEMPAE_clean_linker_10, # of connection points: 2
#     Edge 56, Type (0, 0), BuildingBlock: TEMPAE_clean_linker_10, # of connection points: 2
#     Edge 57, Type (0, 0), BuildingBlock: TEMPAE_clean_linker_10, # of connection points: 2
#     Edge 58, Type (0, 0), BuildingBlock: TEMPAE_clean_linker_10, # of connection points: 2
#     Edge 59, Type (0, 0), BuildingBlock: TEMPAE_clean_linker_10, # of connection points: 2
#     Edge 60, Type (0, 0), BuildingBlock: TEMPAE_clean_linker_10, # of connection points: 2
#     Edge 61, Type (0, 0), BuildingBlock: TEMPAE_clean_linker_10, # of connection points: 2
#     Edge 62, Type (0, 0), BuildingBlock: TEMPAE_clean_linker_10, # of connection points: 2
#     Edge 63, Type (0, 0), BuildingBlock: TEMPAE_clean_linker_10, # of connection points: 2
#     Edge 64, Type (0, 0), BuildingBlock: TEMPAE_clean_linker_10, # of connection points: 2
#     Edge 65, Type (0, 0), BuildingBlock: TEMPAE_clean_linker_10, # of connection points: 2
#     Edge 66, Type (0, 0), BuildingBlock: TEMPAE_clean_linker_10, # of connection points: 2
#     Edge 67, Type (0, 0), BuildingBlock: TEMPAE_clean_linker_10, # of connection points: 2
#     Edge 68, Type (0, 0), BuildingBlock: TEMPAE_clean_linker_10, # of connection points: 2
#     Edge 69, Type (0, 0), BuildingBlock: TEMPAE_clean_linker_10, # of connection points: 2
#     Edge 70, Type (0, 0), BuildingBlock: TEMPAE_clean_linker_10, # of connection points: 2
#     Edge 71, Type (0, 0), BuildingBlock: TEMPAE_clean_linker_10, # of connection points: 2
#     Edge 72, Type (0, 0), BuildingBlock: TEMPAE_clean_linker_10, # of connection points: 2
#     Edge 73, Type (0, 0), BuildingBlock: TEMPAE_clean_linker_10, # of connection points: 2
#     Edge 74, Type (0, 0), BuildingBlock: TEMPAE_clean_linker_10, # of connection points: 2
#     Edge 75, Type (0, 0), BuildingBlock: TEMPAE_clean_linker_10, # of connection points: 2
#     Edge 76, Type (0, 0), BuildingBlock: TEMPAE_clean_linker_10, # of connection points: 2
#     Edge 77, Type (0, 0), BuildingBlock: TEMPAE_clean_linker_10, # of connection points: 2
#     Edge 78, Type (0, 0), BuildingBlock: TEMPAE_clean_linker_10, # of connection points: 2
#     Edge 79, Type (0, 0), BuildingBlock: TEMPAE_clean_linker_10, # of connection points: 2
#     Edge 80, Type (0, 0), BuildingBlock: TEMPAE_clean_linker_10, # of connection points: 2
#     Edge 81, Type (0, 0), BuildingBlock: TEMPAE_clean_linker_10, # of connection points: 2
#     Edge 82, Type (0, 0), BuildingBlock: TEMPAE_clean_linker_10, # of connection points: 2
#     Edge 83, Type (0, 0), BuildingBlock: TEMPAE_clean_linker_10, # of connection points: 2
#     Edge 84, Type (0, 0), BuildingBlock: TEMPAE_clean_linker_10, # of connection points: 2
#     Edge 85, Type (0, 0), BuildingBlock: TEMPAE_clean_linker_10, # of connection points: 2
#     Edge 86, Type (0, 0), BuildingBlock: TEMPAE_clean_linker_10, # of connection points: 2
#     Edge 87, Type (0, 0), BuildingBlock: TEMPAE_clean_linker_10, # of connection points: 2
#     Edge 88, Type (0, 0), BuildingBlock: TEMPAE_clean_linker_10, # of connection points: 2
#     Edge 89, Type (0, 0), BuildingBlock: TEMPAE_clean_linker_10, # of connection points: 2
#     Edge 90, Type (0, 0), BuildingBlock: TEMPAE_clean_linker_10, # of connection points: 2
#     Edge 91, Type (0, 0), BuildingBlock: TEMPAE_clean_linker_10, # of connection points: 2
#     Edge 92, Type (0, 0), BuildingBlock: TEMPAE_clean_linker_10, # of connection points: 2
#     Edge 93, Type (0, 0), BuildingBlock: TEMPAE_clean_linker_10, # of connection points: 2
#     Edge 94, Type (0, 0), BuildingBlock: TEMPAE_clean_linker_10, # of connection points: 2
#     Edge 95, Type (0, 0), BuildingBlock: TEMPAE_clean_linker_10, # of connection points: 2
#     Edge 96, Type (0, 0), BuildingBlock: TEMPAE_clean_linker_10, # of connection points: 2
#     Edge 97, Type (0, 0), BuildingBlock: TEMPAE_clean_linker_10, # of connection points: 2
#     Edge 98, Type (0, 0), BuildingBlock: TEMPAE_clean_linker_10, # of connection points: 2
#     Edge 99, Type (0, 0), BuildingBlock: TEMPAE_clean_linker_10, # of connection points: 2
#     Edge 100, Type (0, 0), BuildingBlock: TEMPAE_clean_linker_10, # of connection points: 2
#     Edge 101, Type (0, 0), BuildingBlock: TEMPAE_clean_linker_10, # of connection points: 2
#     Edge 102, Type (0, 0), BuildingBlock: TEMPAE_clean_linker_10, # of connection points: 2
#     Edge 103, Type (0, 0), BuildingBlock: TEMPAE_clean_linker_10, # of connection points: 2
#     Edge 104, Type (0, 0), BuildingBlock: TEMPAE_clean_linker_10, # of connection points: 2
#     Edge 105, Type (0, 0), BuildingBlock: TEMPAE_clean_linker_10, # of connection points: 2
#     Edge 106, Type (0, 0), BuildingBlock: TEMPAE_clean_linker_10, # of connection points: 2
#     Edge 107, Type (0, 0), BuildingBlock: TEMPAE_clean_linker_10, # of connection points: 2
#     Edge 108, Type (0, 0), BuildingBlock: TEMPAE_clean_linker_10, # of connection points: 2
#     Edge 109, Type (0, 0), BuildingBlock: TEMPAE_clean_linker_10, # of connection points: 2
#     Edge 110, Type (0, 0), BuildingBlock: TEMPAE_clean_linker_10, # of connection points: 2
#     Edge 111, Type (0, 0), BuildingBlock: TEMPAE_clean_linker_10, # of connection points: 2
#     Edge 112, Type (0, 0), BuildingBlock: TEMPAE_clean_linker_10, # of connection points: 2
#     Edge 113, Type (0, 0), BuildingBlock: TEMPAE_clean_linker_10, # of connection points: 2
#     Edge 114, Type (0, 0), BuildingBlock: TEMPAE_clean_linker_10, # of connection points: 2
#     Edge 115, Type (0, 0), BuildingBlock: TEMPAE_clean_linker_10, # of connection points: 2
#     Edge 116, Type (0, 0), BuildingBlock: TEMPAE_clean_linker_10, # of connection points: 2
#     Edge 117, Type (0, 0), BuildingBlock: TEMPAE_clean_linker_10, # of connection points: 2
#     Edge 118, Type (0, 0), BuildingBlock: TEMPAE_clean_linker_10, # of connection points: 2
#     Edge 119, Type (0, 0), BuildingBlock: TEMPAE_clean_linker_10, # of connection points: 2
#     Edge 120, Type (0, 0), BuildingBlock: TEMPAE_clean_linker_10, # of connection points: 2
#     Edge 121, Type (0, 0), BuildingBlock: TEMPAE_clean_linker_10, # of connection points: 2
#     Edge 122, Type (0, 0), BuildingBlock: TEMPAE_clean_linker_10, # of connection points: 2
#     Edge 123, Type (0, 0), BuildingBlock: TEMPAE_clean_linker_10, # of connection points: 2
#     Edge 124, Type (0, 0), BuildingBlock: TEMPAE_clean_linker_10, # of connection points: 2
#     Edge 125, Type (0, 0), BuildingBlock: TEMPAE_clean_linker_10, # of connection points: 2
#     Edge 126, Type (0, 0), BuildingBlock: TEMPAE_clean_linker_10, # of connection points: 2
#     Edge 127, Type (0, 0), BuildingBlock: TEMPAE_clean_linker_10, # of connection points: 2
#     Edge 128, Type (0, 0), BuildingBlock: TEMPAE_clean_linker_10, # of connection points: 2
#     Edge 129, Type (0, 0), BuildingBlock: TEMPAE_clean_linker_10, # of connection points: 2
#     Edge 130, Type (0, 0), BuildingBlock: TEMPAE_clean_linker_10, # of connection points: 2
#     Edge 131, Type (0, 0), BuildingBlock: TEMPAE_clean_linker_10, # of connection points: 2
#     Edge 132, Type (0, 0), BuildingBlock: TEMPAE_clean_linker_10, # of connection points: 2
#     Edge 133, Type (0, 0), BuildingBlock: TEMPAE_clean_linker_10, # of connection points: 2
#     Edge 134, Type (0, 0), BuildingBlock: TEMPAE_clean_linker_10, # of connection points: 2
#     Edge 135, Type (0, 0), BuildingBlock: TEMPAE_clean_linker_10, # of connection points: 2
#     Edge 136, Type (0, 0), BuildingBlock: TEMPAE_clean_linker_10, # of connection points: 2
#     Edge 137, Type (0, 0), BuildingBlock: TEMPAE_clean_linker_10, # of connection points: 2
#     Edge 138, Type (0, 0), BuildingBlock: TEMPAE_clean_linker_10, # of connection points: 2
#     Edge 139, Type (0, 0), BuildingBlock: TEMPAE_clean_linker_10, # of connection points: 2
#     Edge 140, Type (0, 0), BuildingBlock: TEMPAE_clean_linker_10, # of connection points: 2
#     Edge 141, Type (0, 0), BuildingBlock: TEMPAE_clean_linker_10, # of connection points: 2
#     Edge 142, Type (0, 0), BuildingBlock: TEMPAE_clean_linker_10, # of connection points: 2
#     Edge 143, Type (0, 0), BuildingBlock: TEMPAE_clean_linker_10, # of connection points: 2
# Relax obj value: 0.054
# Max RMSD: 0.163
# Mean RMSD: 0.163
data_MOF--net-wnd--node1-KUMBOL_clean_sbu_1--edge1-TEMPAE_clean_linker_10
_symmetry_space_group_name_H-M    P1
_symmetry_Int_Tables_number       1
_symmetry_cell_setting            triclinic
loop_
_symmetry_equiv_pos_as_xyz
'x, y, z'
_cell_length_a     39.971168
_cell_length_b     40.002705
_cell_length_c     164.27485
_cell_angle_alpha  89.973225
_cell_angle_beta   90.009926
_cell_angle_gamma 120.01211
loop_
_atom_site_label
_atom_site_type_symbol
_atom_site_fract_x
_atom_site_fract_y
_atom_site_fract_z
_atom_type_partial_charge
C0 C 0.42001 0.04796 0.03286 0.0
C1 C 0.36361 0.02542 0.04155 0.0
C2 C 0.40391 0.04221 0.04059 0.0
C3 C 0.33972 0.01382 0.03464 0.0
C4 C 0.39617 0.03709 0.02591 0.0
C5 C 0.35595 0.01966 0.02685 0.0
N6 N 0.45897 0.06429 0.03213 0.0
C7 C 0.47615 0.07211 0.02467 0.0
C8 C 0.41351 0.04428 0.01822 0.0
C9 C 0.45368 0.06229 0.0176 0.0
Gd10 Gd 0.52505 0.00642 0.05448 0.0
Gd11 Gd 0.49364 0.07815 0.04432 0.0
N12 N 0.42771 0.05284 0.04717 0.0
C13 C 0.34859 0.02109 0.04942 0.0
C14 C 0.41345 0.05086 0.05479 0.0
C15 C 0.37373 0.03444 0.05607 0.0
H16 H 0.43251 0.06264 0.05985 0.0
H17 H 0.36259 0.03249 0.06216 0.0
H18 H 0.57716 0.00977 0.03804 0.0
H19 H 0.50723 0.08596 0.02416 0.0
H20 H 0.64265 0.02248 0.03504 0.0
H21 H 0.3178 0.00835 0.05042 0.0
H22 H 0.30866 1.00063 0.03527 0.0
H23 H 0.52319 0.02166 0.07467 0.0
H24 H 0.3962 0.03639 0.01273 0.0
H25 H 0.46728 0.06836 0.01168 0.0
H26 H 0.70577 0.05237 0.06102 0.0
H27 H 0.33714 0.01086 0.02158 0.0
H28 H 0.63488 0.05494 0.08428 0.0
H29 H 0.56792 0.04138 0.08628 0.0
N30 N 0.56501 0.02641 0.066 0.0
C31 C 0.60154 0.03314 0.06479 0.0
C32 C 0.55265 0.0288 0.07362 0.0
C33 C 0.61554 0.0469 0.07911 0.0
C34 C 0.5778 0.03942 0.08026 0.0
C35 C 0.62778 0.04357 0.07132 0.0
H36 H 0.68584 0.05838 0.07485 0.0
N37 N 0.58777 0.02232 0.05067 0.0
C38 C 0.61296 0.03023 0.05694 0.0
C39 C 0.6614 0.03436 0.04752 0.0
C40 C 0.65065 0.03694 0.05551 0.0
C41 C 0.59777 0.01868 0.04292 0.0
C42 C 0.6348 0.02512 0.04121 0.0
O43 O 0.45176 0.01252 0.04332 0.0
O44 O 0.46346 0.99203 0.05534 0.0
O45 O 0.51466 0.95061 0.04973 0.0
O46 O 0.51304 0.95979 0.06284 0.0
O47 O 0.51089 0.08444 0.05759 0.0
O48 O 0.48985 0.02406 0.06272 0.0
O49 O 0.5712 0.07004 0.05466 0.0
O50 O 0.55678 0.09626 0.04361 0.0
O51 O 0.49807 0.1293 0.05004 0.0
O52 O 0.51156 0.12985 0.03722 0.0
O53 O 0.51332 1.00192 0.04058 0.0
O54 O 0.53089 0.06398 0.03663 0.0
C55 C 0.4421 0.98561 0.04891 0.0
C56 C 0.49499 0.05929 0.06347 0.0
C57 C 0.50168 0.89675 0.05882 0.0
C58 C 0.51265 0.84226 0.05703 0.0
C59 C 0.46721 0.83942 0.06721 0.0
C60 C 0.47517 0.87637 0.06505 0.0
C61 C 0.48586 0.82249 0.06326 0.0
C62 C 0.52042 0.8795 0.05476 0.0
C63 C 0.511 0.93668 0.05705 0.0
C64 C 0.67665 0.04688 0.06202 0.0
C65 C 0.66532 0.05037 0.0699 0.0
H66 H 0.6901 0.03945 0.04617 0.0
C67 C 0.58005 0.09842 0.04949 0.0
C68 C 0.52303 0.02886 0.03491 0.0
C69 C 0.493 0.17433 0.04151 0.0
C70 C 0.49888 0.2377 0.04249 0.0
C71 C 0.44652 0.18674 0.0347 0.0
C72 C 0.45997 0.16154 0.03665 0.0
C73 C 0.46574 0.22459 0.03763 0.0
C74 C 0.51255 0.21249 0.04439 0.0
C75 C 0.50895 0.14925 0.0433 0.0
H76 H 0.44677 0.82398 0.07203 0.0
H77 H 0.46066 0.88914 0.06827 0.0
H78 H 0.47964 0.79393 0.06511 0.0
H79 H 0.54145 0.89519 0.05003 0.0
H80 H 0.4212 0.17696 0.0309 0.0
H81 H 0.44489 0.13233 0.0343 0.0
H82 H 0.45491 0.24378 0.03607 0.0
H83 H 0.53821 0.2225 0.04813 0.0
C84 C 0.05902 0.40791 0.03604 0.0
C85 C 0.07048 0.37338 0.04682 0.0
C86 C 0.05423 0.39562 0.04411 0.0
C87 C 0.09224 0.36461 0.04141 0.0
C88 C 0.08017 0.3985 0.03055 0.0
C89 C 0.09694 0.377 0.0333 0.0
N90 N 0.04423 0.43044 0.03364 0.0
C91 C 0.04715 0.44223 0.02575 0.0
C92 C 0.0843 0.41152 0.0225 0.0
C93 C 0.06743 0.43321 0.02007 0.0
Gd94 Gd 0.07631 0.55165 0.05285 0.0
Gd95 Gd 0.00976 0.443 0.04348 0.0
N96 N 0.03317 0.40475 0.04924 0.0
C97 C 0.06378 0.35995 0.05485 0.0
C98 C 0.02382 0.38877 0.05683 0.0
C99 C 0.03977 0.3671 0.05983 0.0
H100 H 1.00295 0.39119 0.06049 0.0
H101 H 0.03284 0.35524 0.06592 0.0
H102 H 0.06716 0.60035 0.03735 0.0
H103 H 0.03352 0.45824 0.02385 0.0
H104 H 0.04993 0.65074 0.03505 0.0
H105 H 0.07583 0.34286 0.05717 0.0
H106 H 0.10514 0.34779 0.04341 0.0
H107 H 0.07713 0.54151 0.07332 0.0
H108 H 0.10029 0.40483 0.0181 0.0
H109 H 0.06995 0.44292 0.01383 0.0
H110 H 0.02389 0.68013 0.06182 0.0
H111 H 0.11361 0.3698 0.02919 0.0
H112 H 0.03832 0.61257 0.08438 0.0
H113 H 0.06042 0.56506 0.08557 0.0
N114 N 0.06025 0.57158 0.06505 0.0
C115 C 0.0498 0.59899 0.06431 0.0
C116 C 0.06528 0.56035 0.0726 0.0
C117 C 0.04438 0.60131 0.07893 0.0
C118 C 0.0567 0.5744 0.07962 0.0
C119 C 0.04152 0.61454 0.07122 0.0
H120 H 0.02529 0.65575 0.07549 0.0
N121 N 0.0577 0.59762 0.05013 0.0
C122 C 0.04947 0.61312 0.05664 0.0
C123 C 0.03999 0.65589 0.04776 0.0
C124 C 0.0402 0.64258 0.05563 0.0
C125 C 0.05881 0.61138 0.04247 0.0
C126 C 0.04946 0.64028 0.04115 0.0
O127 O 0.07578 0.47708 0.04172 0.0
O128 O 0.08789 0.50316 0.05409 0.0
O129 O 0.12934 0.5982 0.04721 0.0
O130 O 0.12912 0.58395 0.05978 0.0
O131 O 0.99937 0.44787 0.0567 0.0
O132 O 0.055 0.50017 0.06199 0.0
O133 O 0.01505 0.53649 0.05017 0.0
O134 O 0.97686 0.46931 0.04967 0.0
O135 O 0.95989 0.38491 0.04451 0.0
O136 O 0.97013 0.41748 0.0334 0.0
O137 O 0.07437 0.54252 0.03876 0.0
O138 O 0.01236 0.49278 0.03691 0.0
C139 C 0.10003 0.49312 0.04777 0.0
C140 C 0.02178 0.46696 0.06286 0.0
C141 C 0.1662 0.65043 0.05655 0.0
C142 C 0.21662 0.71892 0.05545 0.0
C143 C 0.16836 0.69803 0.06614 0.0
C144 C 0.1515 0.66016 0.06338 0.0
C145 C 0.20063 0.72715 0.06223 0.0
C146 C 0.19927 0.68031 0.05257 0.0
C147 C 0.14799 0.60889 0.05408 0.0
C148 C 0.03121 0.65759 0.06248 0.0
C149 C 0.03182 0.64356 0.07025 0.0
H150 H 0.03283 0.67834 0.04673 0.0
C151 C 0.98139 0.50433 0.05054 0.0
C152 C 0.0435 0.52238 0.03404 0.0
C153 C 0.90515 0.37895 0.03757 0.0
C154 C 0.83643 0.33489 0.03999 0.0
C155 C 0.85805 0.3987 0.03445 0.0
C156 C 0.89622 0.40682 0.03474 0.0
C157 C 0.82828 0.36294 0.03703 0.0
C158 C 0.87498 0.34293 0.04028 0.0
C159 C 0.94567 0.38734 0.03755 0.0
H160 H 0.15659 0.70476 0.07141 0.0
H161 H 0.12731 0.63836 0.06677 0.0
H162 H 0.21346 0.75638 0.06454 0.0
H163 H 0.21154 0.6736 0.04737 0.0
H164 H 0.85152 0.42021 0.03218 0.0
H165 H 0.91869 0.43497 0.03272 0.0
H166 H 0.79874 0.35706 0.03671 0.0
H167 H 0.88132 0.3211 0.04245 0.0
C168 C 0.66805 0.67191 0.03197 0.0
C169 C 0.7013 0.73154 0.03964 0.0
C170 C 0.68161 0.69094 0.0393 0.0
C171 C 0.70472 0.75263 0.03254 0.0
C172 C 0.67336 0.69293 0.02474 0.0
C173 C 0.69065 0.73335 0.02511 0.0
N174 N 0.65207 0.63294 0.03186 0.0
C175 C 0.64488 0.61376 0.02466 0.0
C176 C 0.6625 0.67277 0.01735 0.0
C177 C 0.64908 0.63309 0.0173 0.0
Gd178 Gd 0.5315 0.55138 0.05387 0.0
Gd179 Gd 0.64048 0.60253 0.04461 0.0
N180 N 0.67719 0.66957 0.04606 0.0
C181 C 0.71809 0.74954 0.04703 0.0
C182 C 0.69697 0.68676 0.05297 0.0
C183 C 0.71688 0.72704 0.05366 0.0
H184 H 0.69823 0.66931 0.05781 0.0
H185 H 0.7318 0.74078 0.05924 0.0
H186 H 0.49023 0.50204 0.03647 0.0
H187 H 0.63708 0.58385 0.02461 0.0
H188 H 0.45281 0.43509 0.03196 0.0
H189 H 0.73365 0.78071 0.04756 0.0
H190 H 0.7192 0.78387 0.03269 0.0
H191 H 0.54019 0.54805 0.07413 0.0
H192 H 0.66606 0.68779 0.01165 0.0
H193 H 0.64266 0.61752 0.0116 0.0
H194 H 0.42718 0.36208 0.05646 0.0
H195 H 0.69453 0.75003 0.01963 0.0
H196 H 0.48143 0.42958 0.08136 0.0
H197 H 0.52022 0.49882 0.08487 0.0
N198 N 0.51585 0.50714 0.0645 0.0
C199 C 0.49465 0.46929 0.06242 0.0
C200 C 0.52478 0.51796 0.07245 0.0
C201 C 0.49111 0.45108 0.07657 0.0
C202 C 0.51302 0.49012 0.07858 0.0
C203 C 0.48122 0.44025 0.06844 0.0
H204 H 0.4463 0.37888 0.07075 0.0
N205 N 0.49863 0.48827 0.04856 0.0
C206 C 0.48564 0.45961 0.05425 0.0
C207 C 0.45083 0.41174 0.04386 0.0
C208 C 0.46141 0.42063 0.05203 0.0
C209 C 0.48535 0.47977 0.04074 0.0
C210 C 0.46253 0.44151 0.03821 0.0
O211 O 0.60831 0.63691 0.0443 0.0
O212 O 0.56671 0.61506 0.05521 0.0
O213 O 0.4812 0.55248 0.04882 0.0
O214 O 0.4852 0.5458 0.06172 0.0
O215 O 0.63749 0.60282 0.05834 0.0
O216 O 0.57743 0.59122 0.06323 0.0
O217 O 0.56821 0.52396 0.05636 0.0
O218 O 0.60211 0.53762 0.04452 0.0
O219 O 0.6831 0.59323 0.0509 0.0
O220 O 0.68898 0.60576 0.03801 0.0
O221 O 0.54117 0.56482 0.04001 0.0
O222 O 0.59265 0.55643 0.03728 0.0
C223 C 0.58451 0.64011 0.0494 0.0
C224 C 0.61451 0.60147 0.06425 0.0
C225 C 0.439 0.56356 0.05743 0.0
C226 C 0.37661 0.56128 0.0559 0.0
C227 C 0.42635 0.60862 0.06483 0.0
C228 C 0.45087 0.59431 0.06291 0.0
C229 C 0.38966 0.59243 0.06133 0.0
C230 C 0.40147 0.54677 0.05397 0.0
C231 C 0.46394 0.54656 0.05582 0.0
C232 C 0.447 0.39188 0.05804 0.0
C233 C 0.45745 0.40153 0.0662 0.0
H234 H 0.43242 0.38214 0.04192 0.0
C235 C 0.58675 0.5156 0.05092 0.0
C236 C 0.56207 0.5575 0.03481 0.0
C237 C 0.70652 0.56111 0.04267 0.0
C238 C 0.74611 0.53055 0.04331 0.0
C239 C 0.68281 0.49708 0.03697 0.0
C240 C 0.67766 0.52842 0.0386 0.0
C241 C 0.71696 0.49821 0.03925 0.0
C242 C 0.74066 0.56192 0.0451 0.0
C243 C 0.70113 0.59441 0.0442 0.0
H244 H 0.43566 0.63217 0.06911 0.0
H245 H 0.47885 0.60683 0.06583 0.0
H246 H 0.3711 0.60389 0.06298 0.0
H247 H 0.3916 0.52246 0.04986 0.0
H248 H 0.66044 0.47202 0.03384 0.0
H249 H 0.65135 0.52729 0.03659 0.0
H250 H 0.72072 0.47383 0.03783 0.0
H251 H 0.76319 0.58709 0.04819 0.0
C252 C 0.04121 0.4096 0.47665 0.0
C253 C 0.01633 0.34836 0.46962 0.0
C254 C 0.03489 0.38895 0.4695 0.0
C255 C 1.00175 0.32866 0.47701 0.0
C256 C 0.02912 0.39007 0.48415 0.0
C257 C 0.00818 0.34949 0.48426 0.0
N258 N 0.0616 0.4488 0.47631 0.0
C259 C 0.07381 0.47016 0.48327 0.0
C260 C 0.03986 0.41188 0.49131 0.0
C261 C 0.06309 0.45199 0.49087 0.0
Gd262 Gd 0.01225 0.51921 0.45289 0.0
Gd263 Gd 0.07577 0.47572 0.46319 0.0
N264 N 0.04917 0.40887 0.46247 0.0
C265 C 0.01466 0.32906 0.46239 0.0
C266 C 0.05193 0.3908 0.45572 0.0
C267 C 0.03365 0.3505 0.45546 0.0
H268 H 0.06954 0.40762 0.4507 0.0
H269 H 0.03495 0.33608 0.45 0.0
H270 H 0.0267 0.57289 0.46995 0.0
H271 H 0.09185 0.50121 0.48295 0.0
H272 H 0.06091 0.64101 0.47392 0.0
H273 H 1.00079 0.29786 0.46221 0.0
H274 H 0.98682 0.29741 0.47721 0.0
H275 H 0.01247 0.51813 0.43254 0.0
H276 H 0.03137 0.39801 0.49721 0.0
H277 H 0.0724 0.46883 0.4964 0.0
H278 H 0.10196 0.70894 0.44859 0.0
H279 H 0.99806 0.33396 0.48996 0.0
H280 H 0.07133 0.63488 0.42406 0.0
H281 H 0.03694 0.56478 0.42121 0.0
N282 N 0.03422 0.56137 0.44174 0.0
C283 C 0.05258 0.59971 0.44345 0.0
C284 C 0.02827 0.54864 0.43388 0.0
C285 C 0.06111 0.61453 0.42907 0.0
C286 C 0.04176 0.57499 0.42743 0.0
C287 C 0.06655 0.62735 0.43714 0.0
H288 H 0.09563 0.68843 0.43431 0.0
N289 N 0.0425 0.58378 0.45747 0.0
C290 C 0.05689 0.61126 0.45153 0.0
C291 C 0.07749 0.6616 0.46166 0.0
C292 C 0.0749 0.65088 0.45348 0.0
C293 C 0.04218 0.59416 0.46537 0.0
C294 C 0.06056 0.63308 0.46761 0.0
O295 O 0.00966 0.43727 0.4638 0.0
O296 O 0.99142 0.45618 0.45237 0.0
O297 O 0.96267 0.52244 0.45761 0.0
O298 O 0.96223 0.50467 0.44527 0.0
O299 O 0.07011 0.46954 0.44945 0.0
O300 O 0.02634 0.48523 0.44347 0.0
O301 O 0.07683 0.5506 0.45052 0.0
O302 O 0.09701 0.53985 0.46269 0.0
O303 O 0.1286 0.48874 0.45682 0.0
O304 O 0.12348 0.47731 0.46977 0.0
O305 O 1.00696 0.50565 0.46674 0.0
O306 O 0.06843 0.52005 0.47 0.0
C307 C 0.98277 0.43316 0.45859 0.0
C308 C 0.05154 0.47263 0.44309 0.0
C309 C 0.92814 0.53818 0.44794 0.0
C310 C 0.87659 0.55483 0.44799 0.0
C311 C 0.93101 0.58718 0.43872 0.0
C312 C 0.94687 0.56563 0.44176 0.0
C313 C 0.8961 0.5817 0.44176 0.0
C314 C 0.89291 0.53316 0.45114 0.0
C315 C 0.94441 0.51373 0.4507 0.0
C316 C 0.08877 0.67847 0.44722 0.0
C317 C 0.08488 0.66677 0.43908 0.0
H318 H 0.09135 0.69173 0.46341 0.0
C319 C 0.10384 0.56036 0.45602 0.0
C320 C 0.03428 0.51348 0.47222 0.0
C321 C 0.18452 0.52285 0.46483 0.0
C322 C 0.25452 0.55337 0.4645 0.0
C323 C 0.22425 0.58932 0.46923 0.0
C324 C 0.18786 0.55711 0.46793 0.0
C325 C 0.25753 0.58761 0.46749 0.0
C326 C 0.21795 0.52099 0.46316 0.0
C327 C 0.14635 0.48883 0.46349 0.0
H328 H 0.94568 0.608 0.43392 0.0
H329 H 0.97352 0.5701 0.43914 0.0
H330 H 0.8842 0.59858 0.43924 0.0
H331 H 0.87788 0.51198 0.45588 0.0
H332 H 0.22657 0.61549 0.47167 0.0
H333 H 0.16243 0.55886 0.46942 0.0
H334 H 0.28562 0.61276 0.46857 0.0
H335 H 0.21557 0.49449 0.46085 0.0
C336 C 0.66947 0.67448 0.47206 0.0
C337 C 0.72583 0.70743 0.46337 0.0
C338 C 0.68568 0.68311 0.46437 0.0
C339 C 0.74966 0.7212 0.47027 0.0
C340 C 0.69297 0.69051 0.479 0.0
C341 C 0.73325 0.71283 0.47807 0.0
N342 N 0.63043 0.65354 0.47272 0.0
C343 C 0.61285 0.65076 0.48003 0.0
C344 C 0.67516 0.68525 0.4866 0.0
C345 C 0.6349 0.66605 0.48708 0.0
Gd346 Gd 0.55378 0.51597 0.45257 0.0
Gd347 Gd 0.59612 0.62762 0.46054 0.0
N348 N 0.66176 0.67011 0.45784 0.0
C349 C 0.74055 0.71852 0.45548 0.0
C350 C 0.67551 0.68344 0.45021 0.0
C351 C 0.71514 0.70709 0.44888 0.0
H352 H 0.65591 0.6755 0.44517 0.0
H353 H 0.72599 0.71668 0.44278 0.0
H354 H 0.49948 0.46366 0.46868 0.0
H355 H 0.58168 0.63611 0.48045 0.0
H356 H 0.43164 0.41732 0.47161 0.0
H357 H 0.77124 0.73712 0.45445 0.0
H358 H 0.78064 0.73958 0.46963 0.0
H359 H 0.55767 0.53284 0.4322 0.0
H360 H 0.69218 0.69719 0.49207 0.0
H361 H 0.62081 0.663 0.49288 0.0
H362 H 0.36812 0.39736 0.44589 0.0
H363 H 0.75183 0.72497 0.48333 0.0
H364 H 0.44338 0.46737 0.4228 0.0
H365 H 0.51279 0.51366 0.42074 0.0
N366 N 0.51391 0.50105 0.44105 0.0
C367 C 0.47614 0.47383 0.44224 0.0
C368 C 0.52735 0.51425 0.43338 0.0
C369 C 0.46289 0.47639 0.42795 0.0
C370 C 0.502 0.5027 0.42677 0.0
C371 C 0.44957 0.46121 0.43572 0.0
H372 H 0.38993 0.42376 0.43217 0.0
N373 N 0.4897 0.47166 0.45627 0.0
C374 C 0.46379 0.45865 0.45003 0.0
C375 C 0.41297 0.41651 0.45929 0.0
C376 C 0.42463 0.4309 0.45141 0.0
C377 C 0.47867 0.45634 0.46389 0.0
C378 C 0.44017 0.4291 0.46554 0.0
O379 O 0.63943 0.60946 0.45625 0.0
O380 O 0.60693 0.54654 0.46027 0.0
O381 O 0.54065 0.45662 0.45418 0.0
O382 O 0.58164 0.49226 0.44498 0.0
O383 O 0.57151 0.60582 0.44819 0.0
O384 O 0.59266 0.56627 0.44376 0.0
O385 O 0.51338 0.54026 0.452 0.0
O386 O 0.53476 0.58062 0.46302 0.0
O387 O 0.59446 0.67391 0.45383 0.0
O388 O 0.56938 0.65784 0.46581 0.0
O389 O 0.55716 0.52165 0.46669 0.0
O390 O 0.57838 0.5854 0.47089 0.0
C391 C 0.63888 0.57692 0.45793 0.0
C392 C 0.58968 0.59755 0.44271 0.0
C393 C 0.5837 0.43589 0.44949 0.0
C394 C 0.5798 0.37332 0.45169 0.0
C395 C 0.64032 0.4292 0.44755 0.0
C396 C 0.62294 0.45203 0.44749 0.0
C397 C 0.61894 0.39016 0.4496 0.0
C398 C 0.56223 0.39634 0.45166 0.0
C399 C 0.56361 0.4583 0.44842 0.0
C400 C 0.39826 0.41856 0.44492 0.0
C401 C 0.41068 0.43367 0.43711 0.0
H402 H 0.38316 0.39527 0.46058 0.0
C403 C 0.50828 0.56103 0.45753 0.0
C404 C 0.56549 0.54857 0.4724 0.0
C405 C 0.59438 0.72213 0.46212 0.0
C406 C 0.5907 0.7809 0.46194 0.0
C407 C 0.63776 0.77638 0.47056 0.0
C408 C 0.62479 0.73903 0.46776 0.0
C409 C 0.62082 0.79723 0.46769 0.0
C410 C 0.57734 0.74306 0.45922 0.0
C411 C 0.57801 0.68169 0.45979 0.0
H412 H 0.67038 0.44164 0.44587 0.0
H413 H 0.64002 0.48204 0.44571 0.0
H414 H 0.63294 0.37292 0.44951 0.0
H415 H 0.53172 0.38323 0.45307 0.0
H416 H 0.66079 0.78908 0.47501 0.0
H417 H 0.63799 0.72319 0.47011 0.0
H418 H 0.63103 0.82606 0.47003 0.0
H419 H 0.55379 0.72994 0.45488 0.0
C420 C 0.40462 0.04682 0.47027 0.0
C421 C 0.3682 0.05541 0.45946 0.0
C422 C 0.39242 0.04146 0.4622 0.0
C423 C 0.35791 0.07613 0.46482 0.0
C424 C 0.39379 0.06699 0.4757 0.0
C425 C 0.3707 0.08194 0.47291 0.0
N426 N 0.42754 0.03266 0.47277 0.0
C427 C 0.43892 0.03584 0.48068 0.0
C428 C 0.40638 0.07139 0.48379 0.0
C429 C 0.42879 0.05546 0.48631 0.0
Gd430 Gd 0.5516 0.06261 0.45416 0.0
Gd431 Gd 0.44303 1.00051 0.46289 0.0
N432 N 0.40312 0.02159 0.45711 0.0
C433 C 0.35431 0.04733 0.45147 0.0
C434 C 0.38619 0.01011 0.44966 0.0
C435 C 0.36273 0.0239 0.44661 0.0
H436 H 0.38941 0.98915 0.44619 0.0
H437 H 0.35045 0.01573 0.44058 0.0
H438 H 0.5902 0.04444 0.47092 0.0
H439 H 0.45531 0.02284 0.48266 0.0
H440 H 0.63147 0.01738 0.47402 0.0
H441 H 0.33576 0.05762 0.44912 0.0
H442 H 0.33963 0.08735 0.4628 0.0
H443 H 0.54015 0.05648 0.43381 0.0
H444 H 0.39858 0.08662 0.48816 0.0
H445 H 0.43813 0.0581 0.49258 0.0
H446 H 0.66229 0.98661 0.44795 0.0
H447 H 0.36224 0.0977 0.47699 0.0
H448 H 0.60369 0.0054 0.42431 0.0
H449 H 0.56117 0.03301 0.42214 0.0
N450 N 0.56784 0.03945 0.44262 0.0
C451 C 0.59115 0.02431 0.44397 0.0
C452 C 0.55726 0.04295 0.4349 0.0
C453 C 0.5937 0.01472 0.4295 0.0
C454 C 0.56963 0.03022 0.42825 0.0
C455 C 0.6051 0.012 0.43742 0.0
H456 H 0.64191 0.98898 0.43396 0.0
N457 N 0.58641 0.03228 0.45821 0.0
C458 C 0.60104 0.02105 0.45196 0.0
C459 C 0.63709 0.00523 0.4615 0.0
C460 C 0.62668 0.00716 0.45346 0.0
C461 C 0.59803 0.03205 0.46602 0.0
C462 C 0.62265 0.01768 0.4678 0.0
O463 O 0.47593 0.06681 0.46452 0.0
O464 O 0.51387 0.08853 0.45311 0.0
O465 O 0.60048 0.11429 0.45957 0.0
O466 O 0.5973 0.1053 0.44657 0.0
O467 O 0.45334 0.99546 0.44964 0.0
O468 O 0.50251 0.05526 0.44552 0.0
O469 O 0.5204 0.9987 0.45178 0.0
O470 O 0.48129 0.9735 0.46299 0.0
O471 O 0.39316 0.94531 0.45912 0.0
O472 O 0.40565 0.96022 0.47203 0.0
O473 O 0.54294 0.06237 0.46823 0.0
O474 O 0.48959 1.00298 0.4707 0.0
C475 C 0.49734 0.09462 0.45933 0.0
C476 C 0.46967 0.02251 0.4441 0.0
C477 C 0.6428 0.16858 0.4511 0.0
C478 C 0.7062 0.22732 0.45227 0.0
C479 C 0.65646 0.22632 0.44358 0.0
C480 C 0.63109 0.1879 0.44568 0.0
C481 C 0.69368 0.24592 0.44685 0.0
C482 C 0.68062 0.18845 0.45438 0.0
C483 C 0.61787 0.12672 0.45259 0.0
C484 C 0.64186 0.99646 0.44691 0.0
C485 C 0.63048 0.99807 0.43893 0.0
H486 H 0.65682 0.99486 0.4629 0.0
C487 C 0.5014 0.9707 0.45696 0.0
C488 C 0.52061 0.03379 0.47328 0.0
C489 C 0.34969 0.89775 0.46913 0.0
C490 C 0.30185 0.83007 0.46663 0.0
C491 C 0.30562 0.85867 0.47987 0.0
C492 C 0.33592 0.89378 0.47714 0.0
C493 C 0.28878 0.82698 0.47467 0.0
C494 C 0.33225 0.86568 0.46381 0.0
C495 C 0.38359 0.93476 0.46667 0.0
H496 H 0.64732 0.24091 0.43934 0.0
H497 H 0.60254 0.17311 0.44299 0.0
H498 H 0.71296 0.27563 0.44508 0.0
H499 H 0.69029 0.17358 0.45843 0.0
H500 H 0.29532 0.85594 0.48607 0.0
H501 H 0.34877 0.91784 0.48135 0.0
H502 H 0.26537 0.79983 0.47693 0.0
H503 H 0.34271 0.86808 0.45763 0.0
C504 C 0.48556 0.03216 0.94434 0.0
C505 C 0.43156 0.01558 0.95343 0.0
C506 C 0.47151 0.03082 0.95215 0.0
C507 C 0.40591 1.00046 0.94683 0.0
C508 C 0.45995 0.01827 0.93766 0.0
C509 C 0.42007 1.00184 0.93897 0.0
N510 N 0.52431 0.04808 0.94325 0.0
C511 C 0.53942 0.05378 0.93558 0.0
C512 C 0.47523 0.02209 0.92983 0.0
C513 C 0.51518 0.04043 0.92878 0.0
Gd514 Gd 0.61177 0.00538 0.96277 0.0
Gd515 Gd 0.56231 0.06904 0.95511 0.0
N516 N 0.49697 0.04538 0.95845 0.0
C517 C 0.4186 0.01679 0.96127 0.0
C518 C 0.48459 0.0482 0.96604 0.0
C519 C 0.44529 0.03369 0.96757 0.0
H520 H 0.50476 0.06207 0.97095 0.0
H521 H 0.43562 0.03558 0.97362 0.0
H522 H 0.67703 0.02254 0.94809 0.0
H523 H 0.57017 0.06989 0.9346 0.0
H524 H 0.74717 0.06478 0.94585 0.0
H525 H 0.38816 0.00546 0.96249 0.0
H526 H 0.37512 0.98832 0.94772 0.0
H527 H 0.60125 0.99467 0.98319 0.0
H528 H 0.45654 0.01198 0.92454 0.0
H529 H 0.52738 0.04484 0.92273 0.0
H530 H 0.79455 0.12609 0.97176 0.0
H531 H 0.39998 0.99077 0.93391 0.0
H532 H 0.70644 0.07974 0.99422 0.0
H533 H 0.63851 0.02728 0.99548 0.0
N534 N 0.64547 0.03162 0.97499 0.0
C535 C 0.68392 0.05705 0.97421 0.0
C536 C 0.62983 0.01919 0.98254 0.0
C537 C 0.68972 0.06629 0.98879 0.0
C538 C 0.6513 0.03696 0.98953 0.0
C539 C 0.7069 0.07576 0.98107 0.0
H540 H 0.76459 0.11669 0.98527 0.0
N541 N 0.67856 0.04133 0.96021 0.0
C542 C 0.7011 0.06165 0.96663 0.0
C543 C 0.75773 0.08784 0.95804 0.0
C544 C 0.74124 0.08601 0.96567 0.0
C545 C 0.69487 0.0405 0.95296 0.0
C546 C 0.73454 0.0644 0.9517 0.0
O547 O 0.5254 1.00401 0.95402 0.0
O548 O 0.5465 0.97655 0.96387 0.0
O549 O 0.60524 0.95407 0.95676 0.0
O550 O 0.62269 0.96431 0.96924 0.0
O551 O 0.56386 0.06245 0.96909 0.0
O552 O 0.57165 0.00935 0.97188 0.0
O553 O 0.64727 0.0659 0.95747 0.0
O554 O 0.61295 0.08913 0.96341 0.0
O555 O 0.55143 0.11561 0.95831 0.0
O556 O 0.59119 0.1242 0.94862 0.0
O557 O 0.58732 0.99849 0.9502 0.0
O558 O 0.59994 0.05772 0.94567 0.0
C559 C 0.51991 0.97578 0.95897 0.0
C560 C 0.56144 0.03485 0.97402 0.0
C561 C 0.57898 0.90054 0.96546 0.0
C562 C 0.54795 0.83044 0.96446 0.0
C563 C 0.5168 0.85997 0.97191 0.0
C564 C 0.54762 0.89648 0.97011 0.0
C565 C 0.51689 0.82715 0.96911 0.0
C566 C 0.57921 0.86743 0.96267 0.0
C567 C 0.61042 0.93943 0.96335 0.0
C568 C 0.76371 0.10686 0.97239 0.0
C569 C 0.74661 0.10164 0.98008 0.0
H570 H 0.78846 0.10635 0.95705 0.0
C571 C 0.64536 0.09547 0.96028 0.0
C572 C 0.60054 0.02491 0.94452 0.0
C573 C 0.55695 0.15941 0.948 0.0
C574 C 0.54061 0.21119 0.94692 0.0
C575 C 0.52734 0.16643 0.9357 0.0
C576 C 0.54253 0.14735 0.94012 0.0
C577 C 0.5265 0.19804 0.93903 0.0
C578 C 0.55546 0.19125 0.95146 0.0
C579 C 0.57328 0.13884 0.95264 0.0
H580 H 0.49279 0.85709 0.9755 0.0
H581 H 0.54696 0.92157 0.97236 0.0
H582 H 0.49279 0.79905 0.97067 0.0
H583 H 0.60319 0.87042 0.95903 0.0
H584 H 0.51627 0.15675 0.92962 0.0
H585 H 0.54309 0.12321 0.93733 0.0
H586 H 0.51445 0.21217 0.93543 0.0
H587 H 0.56647 0.20088 0.95755 0.0
C588 C 0.03778 0.47924 0.94242 0.0
C589 C 0.05584 0.44392 0.95176 0.0
C590 C 0.04176 0.46946 0.95033 0.0
C591 C 0.06565 0.42831 0.94514 0.0
C592 C 0.04757 0.46361 0.93576 0.0
C593 C 0.06143 0.43805 0.93716 0.0
N594 N 0.02499 0.5046 0.94125 0.0
C595 C 0.02038 0.51485 0.93359 0.0
C596 C 0.04328 0.4743 0.92788 0.0
C597 C 0.02954 0.49996 0.9268 0.0
Gd598 Gd 0.07958 0.6308 0.96346 0.0
Gd599 Gd 0.00879 0.52676 0.95296 0.0
N600 N 0.03276 0.48568 0.95662 0.0
C601 C 0.05968 0.43484 0.9598 0.0
C602 C 0.03438 0.47513 0.96444 0.0
C603 C 0.04854 0.45024 0.96617 0.0
H604 H 0.02388 0.48484 0.96937 0.0
H605 H 0.05029 0.4425 0.9724 0.0
H606 H 0.04296 0.662 0.94859 0.0
H607 H 0.00854 0.5336 0.93271 0.0
H608 H 0.01499 0.704 0.94722 0.0
H609 H 0.07055 0.41548 0.96115 0.0
H610 H 0.07656 0.4087 0.94612 0.0
H611 H 0.09245 0.62451 0.98339 0.0
H612 H 0.05035 0.4628 0.9226 0.0
H613 H 0.02569 0.50803 0.92073 0.0
H614 H 0.00994 0.74262 0.9746 0.0
H615 H 0.06914 0.42579 0.93211 0.0
H616 H 0.05427 0.69306 0.99601 0.0
H617 H 0.0823 0.65031 0.99626 0.0
N618 N 0.07051 0.65277 0.97598 0.0
C619 C 0.05552 0.67666 0.97568 0.0
C620 C 0.08012 0.64318 0.98323 0.0
C621 C 0.05882 0.68205 0.99034 0.0
C622 C 0.07457 0.6578 0.99051 0.0
C623 C 0.04905 0.69176 0.98288 0.0
H624 H 0.02763 0.72761 0.98788 0.0
N625 N 0.05101 0.6692 0.96134 0.0
C626 C 0.04585 0.68544 0.96815 0.0
C627 C 0.0182 0.71609 0.96005 0.0
C628 C 0.02902 0.7091 0.96769 0.0
C629 C 0.04024 0.67577 0.9539 0.0
C630 C 0.02376 0.69925 0.95314 0.0
O631 O 0.0728 0.54955 0.9515 0.0
O632 O 0.09372 0.58278 0.96342 0.0
O633 O 0.13056 0.67654 0.9575 0.0
O634 O 0.13265 0.66423 0.97025 0.0
O635 O 1.00442 0.53309 0.96704 0.0
O636 O 0.06632 0.57859 0.97077 0.0
O637 O 0.01414 0.60776 0.96465 0.0
O638 O 0.99819 0.57611 0.95274 0.0
O639 O 0.95593 0.47716 0.9577 0.0
O640 O 0.95759 0.49643 0.94541 0.0
O641 O 0.08599 0.62483 0.94992 0.0
O642 O 0.02771 0.57933 0.94428 0.0
C643 C 0.09999 0.56752 0.95694 0.0
C644 C 0.03122 0.55197 0.97272 0.0
C645 C 0.17758 0.72676 0.96569 0.0
C646 C 0.24241 0.78257 0.96506 0.0
C647 C 0.19095 0.78716 0.97189 0.0
C648 C 0.16496 0.74859 0.97003 0.0
C649 C 0.2295 0.80412 0.96943 0.0
C650 C 0.21635 0.74384 0.9632 0.0
C651 C 0.15155 0.68567 0.96407 0.0
C652 C 0.02282 0.72439 0.97484 0.0
C653 C 0.03283 0.71578 0.98241 0.0
H654 H 1.00508 0.734 0.95945 0.0
C655 C 0.98774 0.58729 0.95917 0.0
C656 C 0.06158 0.61222 0.9438 0.0
C657 C 0.91959 0.42881 0.94774 0.0
C658 C 0.86863 0.36064 0.94845 0.0
C659 C 0.91572 0.3829 0.93752 0.0
C660 C 0.93352 0.42024 0.94064 0.0
C661 C 0.88345 0.35335 0.94137 0.0
C662 C 0.8869 0.39852 0.95169 0.0
C663 C 0.93813 0.46942 0.95072 0.0
H664 H 0.18125 0.80388 0.9753 0.0
H665 H 0.13528 0.73573 0.97204 0.0
H666 H 0.24938 0.83399 0.97098 0.0
H667 H 0.22632 0.72696 0.9599 0.0
H668 H 0.92677 0.37692 0.93203 0.0
H669 H 0.95786 0.44246 0.93736 0.0
H670 H 0.86982 0.32458 0.93878 0.0
H671 H 0.87543 0.40446 0.95713 0.0
C672 C 0.59599 0.59853 0.9442 0.0
C673 C 0.62943 0.65192 0.95364 0.0
C674 C 0.60697 0.61191 0.95212 0.0
C675 C 0.64059 0.67811 0.94713 0.0
C676 C 0.60776 0.62478 0.93764 0.0
C677 C 0.62996 0.66458 0.93915 0.0
N678 N 0.57352 0.5599 0.94292 0.0
C679 C 0.56437 0.54549 0.9352 0.0
C680 C 0.59694 0.61024 0.92974 0.0
C681 C 0.5755 0.57041 0.92851 0.0
Gd682 Gd 0.44595 0.47575 0.96206 0.0
Gd683 Gd 0.55713 0.52071 0.95453 0.0
N684 N 0.59561 0.58588 0.95833 0.0
C685 C 0.64024 0.66445 0.96165 0.0
C686 C 0.60809 0.59794 0.96608 0.0
C687 C 0.62989 0.63731 0.96788 0.0
H688 H 0.60225 0.57748 0.97088 0.0
H689 H 0.63916 0.64668 0.97407 0.0
H690 H 0.4001 0.41596 0.94668 0.0
H691 H 0.54906 0.51478 0.93412 0.0
H692 H 0.36414 0.34546 0.94409 0.0
H693 H 0.65729 0.69493 0.96307 0.0
H694 H 0.65768 0.70892 0.94819 0.0
H695 H 0.43939 0.48712 0.98222 0.0
H696 H 0.60549 0.62946 0.92454 0.0
H697 H 0.56781 0.55885 0.92241 0.0
H698 H 0.35345 0.28992 0.97059 0.0
H699 H 0.63903 0.68516 0.93419 0.0
H700 H 0.39165 0.37588 0.99338 0.0
H701 H 0.41823 0.44637 0.99453 0.0
N702 N 0.42698 0.44041 0.97422 0.0
C703 C 0.4093 0.40142 0.97337 0.0
C704 C 0.42871 0.45649 0.98166 0.0
C705 C 0.40126 0.39365 0.98795 0.0
C706 C 0.41629 0.43343 0.98863 0.0
C707 C 0.39665 0.37701 0.98024 0.0
H708 H 0.36844 0.31762 0.98438 0.0
N709 N 0.4101 0.40988 0.95911 0.0
C710 C 0.40032 0.38566 0.9656 0.0
C711 C 0.36731 0.33082 0.95661 0.0
C712 C 0.37922 0.34535 0.96449 0.0
C713 C 0.39538 0.39612 0.95157 0.0
C714 C 0.37465 0.35636 0.95014 0.0
O715 O 0.52625 0.55449 0.95275 0.0
O716 O 0.4872 0.53962 0.964 0.0
O717 O 0.40828 0.48988 0.9551 0.0
O718 O 0.39321 0.46882 0.96737 0.0
O719 O 0.54921 0.51485 0.9685 0.0
O720 O 0.48979 0.50983 0.97186 0.0
O721 O 0.46804 0.43564 0.95774 0.0
O722 O 0.52872 0.46904 0.96268 0.0
O723 O 0.61767 0.53654 0.95632 0.0
O724 O 0.58129 0.4916 0.94757 0.0
O725 O 0.4621 0.49584 0.94922 0.0
O726 O 0.50852 0.48106 0.9455 0.0
C727 C 0.51005 0.56446 0.95848 0.0
C728 C 0.52438 0.51566 0.97379 0.0
C729 C 0.37735 0.51489 0.96315 0.0
C730 C 0.33511 0.54221 0.96262 0.0
C731 C 0.39749 0.57727 0.96931 0.0
C732 C 0.40467 0.54738 0.9675 0.0
C733 C 0.36294 0.57484 0.96685 0.0
C734 C 0.34236 0.51215 0.96079 0.0
C735 C 0.38512 0.48368 0.9612 0.0
C736 C 0.36924 0.32101 0.97131 0.0
C737 C 0.37785 0.3368 0.97917 0.0
H738 H 0.35106 0.30001 0.95551 0.0
C739 C 0.49996 0.43662 0.96009 0.0
C740 C 0.47639 0.48205 0.94392 0.0
C741 C 0.6484 0.50638 0.94866 0.0
C742 C 0.71502 0.51977 0.95041 0.0
C743 C 0.67459 0.47687 0.93966 0.0
C744 C 0.64414 0.48216 0.94207 0.0
C745 C 0.70972 0.49546 0.94379 0.0
C746 C 0.68427 0.52542 0.95284 0.0
C747 C 0.61541 0.51188 0.95087 0.0
H748 H 0.41865 0.60226 0.97266 0.0
H749 H 0.43135 0.54942 0.96953 0.0
H750 H 0.35764 0.59818 0.96835 0.0
H751 H 0.32103 0.48696 0.95749 0.0
H752 H 0.67094 0.45825 0.93455 0.0
H753 H 0.61725 0.4674 0.93872 0.0
H754 H 0.73297 0.49085 0.94181 0.0
H755 H 0.68823 0.54428 0.95793 0.0
C756 C 0.02945 0.47268 0.56235 0.0
C757 C 0.01262 0.4207 0.55273 0.0
C758 C 0.02926 0.46048 0.55441 0.0
C759 C 0.99647 0.39374 0.55908 0.0
C760 C 0.01287 0.44562 0.56872 0.0
C761 C 0.99627 0.40611 0.56704 0.0
N762 N 0.04519 0.5111 0.56381 0.0
C763 C 0.04778 0.52452 0.57156 0.0
C764 C 0.0138 0.45911 0.57663 0.0
C765 C 0.03164 0.49875 0.57806 0.0
Gd766 Gd 1.00542 0.5947 0.54473 0.0
Gd767 Gd 0.07277 0.55235 0.55262 0.0
N768 N 0.04565 0.48737 0.54837 0.0
C769 C 0.01322 0.40913 0.54473 0.0
C770 C 0.04843 0.47609 0.54066 0.0
C771 C 0.03151 0.43696 0.53869 0.0
H772 H 0.06458 0.49677 0.536 0.0
H773 H 0.03331 0.42833 0.53254 0.0
H774 H 0.99273 0.64199 0.55983 0.0
H775 H 0.06264 0.55509 0.57279 0.0
H776 H 0.01274 0.70943 0.56352 0.0
H777 H 1.00051 0.37884 0.54319 0.0
H778 H 0.98438 0.36321 0.55791 0.0
H779 H 0.01962 0.59614 0.52432 0.0
H780 H 1.00139 0.4392 0.58168 0.0
H781 H 0.03331 0.50951 0.58417 0.0
H782 H 0.08615 0.7834 0.5404 0.0
H783 H 0.98352 0.38488 0.57186 0.0
H784 H 0.0869 0.71339 0.5168 0.0
H785 H 0.05541 0.64366 0.51365 0.0
N786 N 0.03482 0.63742 0.53372 0.0
C787 C 0.04933 0.67549 0.53541 0.0
C788 C 0.03531 0.62597 0.52593 0.0
C789 C 0.07225 0.6924 0.52158 0.0
C790 C 0.0547 0.65311 0.51979 0.0
C791 C 0.06881 0.70404 0.52942 0.0
H792 H 0.09827 0.7654 0.52685 0.0
N793 N 0.02261 0.6574 0.54856 0.0
C794 C 0.04258 0.68575 0.54303 0.0
C795 C 0.04493 0.73321 0.55244 0.0
C796 C 0.05502 0.7246 0.54489 0.0
C797 C 0.01092 0.6652 0.55574 0.0
C798 C 0.02203 0.70326 0.55781 0.0
O799 O 0.00939 0.52239 0.55582 0.0
O800 O 0.98468 0.53094 0.54409 0.0
O801 O 0.94935 0.57889 0.54992 0.0
O802 O 0.96003 0.5911 0.537 0.0
O803 O 0.0708 0.55695 0.53854 0.0
O804 O 0.01313 0.55595 0.53594 0.0
O805 O 0.0674 0.63678 0.54876 0.0
O806 O 0.09671 0.60401 0.54432 0.0
O807 O 0.11754 0.53612 0.55152 0.0
O808 O 0.12319 0.5784 0.56042 0.0
O809 O 1.00393 0.58261 0.55813 0.0
O810 O 0.06563 0.59467 0.56123 0.0
C811 C 0.98213 0.50954 0.55034 0.0
C812 C 0.04211 0.55142 0.53357 0.0
C813 C 0.91083 0.59909 0.54292 0.0
C814 C 0.84636 0.59039 0.54387 0.0
C815 C 0.90073 0.653 0.54029 0.0
C816 C 0.92559 0.63802 0.54087 0.0
C817 C 0.86122 0.62929 0.54177 0.0
C818 C 0.87124 0.57538 0.54446 0.0
C819 C 0.93537 0.58163 0.54295 0.0
C820 C 0.076 0.75331 0.53907 0.0
C821 C 0.08293 0.74305 0.53135 0.0
H822 H 0.05364 0.76269 0.55408 0.0
C823 C 0.0988 0.63639 0.54652 0.0
C824 C 0.03356 0.59556 0.56309 0.0
C825 C 0.18131 0.57767 0.557 0.0
C826 C 0.23972 0.57178 0.55629 0.0
C827 C 0.24362 0.63084 0.56119 0.0
C828 C 0.20414 0.61549 0.55995 0.0
C829 C 0.26131 0.60947 0.55933 0.0
C830 C 0.19949 0.55588 0.55507 0.0
C831 C 0.13845 0.55901 0.55735 0.0
H832 H 0.91203 0.68293 0.53863 0.0
H833 H 0.95605 0.65655 0.53959 0.0
H834 H 0.84219 0.64117 0.54123 0.0
H835 H 0.85969 0.54516 0.54598 0.0
H836 H 0.2606 0.65902 0.56389 0.0
H837 H 0.19131 0.63277 0.56165 0.0
H838 H 0.29206 0.62228 0.5604 0.0
H839 H 0.18226 0.52623 0.55304 0.0
C840 C 0.60205 0.59492 0.56187 0.0
C841 C 0.65175 0.63783 0.5524 0.0
C842 C 0.61307 0.60947 0.55402 0.0
C843 C 0.67925 0.65049 0.55868 0.0
C844 C 0.62956 0.60822 0.56822 0.0
C845 C 0.66821 0.63568 0.56656 0.0
N846 N 0.56445 0.56812 0.56332 0.0
C847 C 0.55204 0.55599 0.57109 0.0
C848 C 0.61731 0.59403 0.57609 0.0
C849 C 0.57831 0.56817 0.57755 0.0
Gd850 Gd 0.47692 0.43818 0.54478 0.0
Gd851 Gd 0.52293 0.5508 0.55202 0.0
N852 N 0.58608 0.59605 0.54798 0.0
C853 C 0.66173 0.65271 0.54451 0.0
C854 C 0.59563 0.611 0.54029 0.0
C855 C 0.63355 0.63926 0.53844 0.0
H856 H 0.57406 0.60218 0.53559 0.0
H857 H 0.64096 0.6509 0.53234 0.0
H858 H 0.42304 0.38889 0.56053 0.0
H859 H 0.52186 0.53768 0.57246 0.0
H860 H 0.35364 0.35052 0.56412 0.0
H861 H 0.69109 0.67459 0.54304 0.0
H862 H 0.70912 0.67195 0.55752 0.0
H863 H 0.48041 0.4472 0.52407 0.0
H864 H 0.63754 0.60359 0.58113 0.0
H865 H 0.56833 0.55804 0.58367 0.0
H866 H 0.2884 0.34859 0.53938 0.0
H867 H 0.68971 0.64603 0.57135 0.0
H868 H 0.36568 0.40755 0.51569 0.0
H869 H 0.43574 0.43819 0.51296 0.0
N870 N 0.43738 0.42765 0.53333 0.0
C871 C 0.39868 0.4079 0.53485 0.0
C872 C 0.45053 0.43652 0.52551 0.0
C873 C 0.38545 0.41277 0.52068 0.0
C874 C 0.42498 0.43027 0.51912 0.0
C875 C 0.37172 0.40032 0.52858 0.0
H876 H 0.3109 0.3738 0.52558 0.0
N877 N 0.41231 0.40124 0.54859 0.0
C878 C 0.38577 0.39345 0.54264 0.0
C879 C 0.33438 0.3564 0.55221 0.0
C880 C 0.34596 0.37139 0.54434 0.0
C881 C 0.40142 0.38492 0.55611 0.0
C882 C 0.36226 0.36279 0.55809 0.0
O883 O 0.56201 0.52518 0.55327 0.0
O884 O 0.5419 0.47579 0.54367 0.0
O885 O 0.483 0.39323 0.55089 0.0
O886 O 0.4716 0.38938 0.53797 0.0
O887 O 0.51844 0.54106 0.5381 0.0
O888 O 0.51618 0.48238 0.53561 0.0
O889 O 0.43813 0.46091 0.54943 0.0
O890 O 0.47219 0.51959 0.54378 0.0
O891 O 0.53351 0.6095 0.55008 0.0
O892 O 0.49175 0.57228 0.55923 0.0
O893 O 0.50133 0.45695 0.55725 0.0
O894 O 0.48521 0.50191 0.5612 0.0
C895 C 0.56826 0.50255 0.54844 0.0
C896 C 0.5234 0.517 0.53331 0.0
C897 C 0.5135 0.36846 0.54267 0.0
C898 C 0.54352 0.32899 0.54457 0.0
C899 C 0.57806 0.39036 0.53746 0.0
C900 C 0.54664 0.39602 0.53851 0.0
C901 C 0.57664 0.35715 0.5405 0.0
C902 C 0.51185 0.33473 0.54562 0.0
C903 C 0.48131 0.37553 0.54412 0.0
C904 C 0.31914 0.36507 0.53817 0.0
C905 C 0.33198 0.37956 0.53032 0.0
H906 H 0.30404 0.33935 0.55376 0.0
C907 C 0.4398 0.49269 0.54682 0.0
C908 C 0.48727 0.4703 0.56268 0.0
C909 C 0.50148 0.63777 0.55786 0.0
C910 C 0.51641 0.7054 0.5572 0.0
C911 C 0.46514 0.65934 0.56603 0.0
C912 C 0.47222 0.63017 0.56353 0.0
C913 C 0.48714 0.69662 0.56295 0.0
C914 C 0.52341 0.67567 0.5546 0.0
C915 C 0.50933 0.60615 0.55573 0.0
H916 H 0.60359 0.41182 0.53429 0.0
H917 H 0.54837 0.42205 0.53612 0.0
H918 H 0.60123 0.35312 0.53956 0.0
H919 H 0.48631 0.31334 0.54882 0.0
H920 H 0.44258 0.65305 0.57042 0.0
H921 H 0.45483 0.6016 0.5661 0.0
H922 H 0.4811 0.71878 0.56502 0.0
H923 H 0.54618 0.68221 0.55023 0.0
C924 C 0.48533 0.03779 0.5642 0.0
C925 C 0.4531 0.05907 0.55474 0.0
C926 C 0.47664 0.04271 0.55625 0.0
C927 C 0.43821 0.07002 0.56131 0.0
C928 C 0.47047 0.04881 0.57081 0.0
C929 C 0.44675 0.06478 0.56932 0.0
N930 N 0.50916 0.02318 0.56546 0.0
C931 C 0.51876 0.01818 0.57316 0.0
C932 C 0.48023 0.04382 0.57872 0.0
C933 C 0.50445 0.0284 0.5799 0.0
Gd934 Gd 0.63582 0.07284 0.54355 0.0
Gd935 Gd 0.53035 0.00538 0.55384 0.0
N936 N 0.49225 0.03263 0.55001 0.0
C937 C 0.44535 0.06412 0.54667 0.0
C938 C 0.48286 0.03547 0.54215 0.0
C939 C 0.46001 0.05192 0.54036 0.0
H940 H 0.49195 0.02435 0.53723 0.0
H941 H 0.45327 0.05466 0.5341 0.0
H942 H 0.6796 0.05977 0.55986 0.0
H943 H 0.53683 0.00555 0.57412 0.0
H944 H 0.72111 0.03238 0.56285 0.0
H945 H 0.42761 0.0768 0.54526 0.0
H946 H 0.42014 0.08269 0.56026 0.0
H947 H 0.62517 0.06972 0.52331 0.0
H948 H 0.46929 0.05181 0.58396 0.0
H949 H 0.51197 0.02423 0.58599 0.0
H950 H 0.74439 0.99476 0.53668 0.0
H951 H 0.43514 0.07349 0.57432 0.0
H952 H 0.68753 0.01822 0.51327 0.0
H953 H 0.64614 0.04736 0.51137 0.0
N954 N 0.65299 0.05183 0.53185 0.0
C955 C 0.67697 0.03733 0.53303 0.0
C956 C 0.64235 0.05606 0.5242 0.0
C957 C 0.67815 0.0277 0.51853 0.0
C958 C 0.65464 0.04395 0.51743 0.0
C959 C 0.68984 0.02444 0.52639 0.0
H960 H 0.72412 0.9988 0.52276 0.0
N961 N 0.67504 0.04713 0.54726 0.0
C962 C 0.68848 0.0351 0.54093 0.0
C963 C 0.72432 0.01831 0.55032 0.0
C964 C 0.7131 0.0199 0.54232 0.0
C965 C 0.6874 0.04732 0.55499 0.0
C966 C 0.71172 0.03245 0.55667 0.0
O967 O 0.55571 0.06977 0.55529 0.0
O968 O 0.59232 0.09346 0.5437 0.0
O969 O 0.68705 0.12674 0.5478 0.0
O970 O 0.66874 0.11809 0.53504 0.0
O971 O 0.53759 1.00057 0.53992 0.0
O972 O 0.58395 0.06228 0.53647 0.0
O973 O 0.60978 0.00693 0.54269 0.0
O974 O 0.57654 0.98979 0.55458 0.0
O975 O 0.47941 0.95413 0.54897 0.0
O976 O 0.49658 0.95478 0.56139 0.0
O977 O 0.62955 0.08135 0.55686 0.0
O978 O 0.58257 0.02347 0.56248 0.0
C979 C 0.5745 0.09769 0.55002 0.0
C980 C 0.55669 0.02782 0.53439 0.0
C981 C 0.72589 0.17847 0.53789 0.0
C982 C 0.77632 0.24457 0.54068 0.0
C983 C 0.76404 0.22072 0.52681 0.0
C984 C 0.7349 0.18501 0.52955 0.0
C985 C 0.78457 0.2504 0.53233 0.0
C986 C 0.74702 0.20843 0.54351 0.0
C987 C 0.6934 0.14073 0.54042 0.0
C988 C 0.72563 0.0067 0.53572 0.0
C989 C 0.71405 0.00896 0.52779 0.0
H990 H 0.74318 0.00681 0.55164 0.0
C991 C 0.58956 0.98057 0.54821 0.0
C992 C 0.61468 0.05781 0.56309 0.0
C993 C 0.42899 0.9192 0.55866 0.0
C994 C 0.36015 0.86982 0.55769 0.0
C995 C 0.38246 0.91801 0.5684 0.0
C996 C 0.42021 0.93441 0.56552 0.0
C997 C 0.35269 0.88598 0.56454 0.0
C998 C 0.39853 0.88652 0.55473 0.0
C999 C 0.46995 0.9363 0.55594 0.0
H1000 H 0.77064 0.22544 0.52038 0.0
H1001 H 0.71928 0.1625 0.5251 0.0
H1002 H 0.80715 0.27807 0.53009 0.0
H1003 H 0.74044 0.20396 0.54995 0.0
H1004 H 0.37633 0.92997 0.57373 0.0
H1005 H 0.44255 0.95867 0.5688 0.0
H1006 H 0.32363 0.87342 0.56695 0.0
H1007 H 0.40467 0.87393 0.5495 0.0
C1008 C 0.06884 0.36091 0.36706 0.0
C1009 C 0.01707 0.35357 0.37599 0.0
C1010 C 0.05657 0.36738 0.37451 0.0
C1011 C 0.98983 0.33192 0.36996 0.0
C1012 C 0.04162 0.34049 0.36089 0.0
C1013 C 1.00207 0.32535 0.36244 0.0
N1014 N 0.10738 0.37604 0.36574 0.0
C1015 C 0.1205 0.37581 0.35809 0.0
C1016 C 0.05504 0.33688 0.35326 0.0
C1017 C 0.0947 0.35534 0.35181 0.0
Gd1018 Gd 0.19278 0.34398 0.38529 0.0
Gd1019 Gd 0.14742 0.40846 0.37693 0.0
N1020 N 0.08343 0.3876 0.38031 0.0
C1021 C 1.00629 0.36265 0.38341 0.0
C1022 C 0.07352 0.39836 0.38735 0.0
C1023 C 0.03474 0.38585 0.38904 0.0
H1024 H 0.09565 0.41702 0.3916 0.0
H1025 H 0.02685 0.39441 0.39463 0.0
H1026 H 0.24894 0.35396 0.36869 0.0
H1027 H 0.15056 0.39279 0.35665 0.0
H1028 H 0.31749 0.38301 0.36547 0.0
H1029 H 0.97625 0.35284 0.38475 0.0
H1030 H 0.95929 0.3207 0.37101 0.0
H1031 H 0.18871 0.3533 0.40545 0.0
H1032 H 0.0351 0.32143 0.34836 0.0
H1033 H 0.10539 0.35461 0.34581 0.0
H1034 H 0.38094 0.42611 0.39119 0.0
H1035 H 0.98077 0.30926 0.3578 0.0
H1036 H 0.30406 0.41072 0.41472 0.0
H1037 H 0.23368 0.38066 0.41699 0.0
N1038 N 0.23323 0.37044 0.39659 0.0
C1039 C 0.27167 0.38566 0.39522 0.0
C1040 C 0.21937 0.36761 0.40431 0.0
C1041 C 0.28446 0.39944 0.40959 0.0
C1042 C 0.24477 0.3826 0.4109 0.0
C1043 C 0.29834 0.4007 0.4017 0.0
H1044 H 0.3587 0.42714 0.40506 0.0
N1045 N 0.25787 0.37134 0.38116 0.0
C1046 C 0.28433 0.38631 0.3873 0.0
C1047 C 0.33602 0.40088 0.37779 0.0
C1048 C 0.32406 0.40135 0.38576 0.0
C1049 C 0.26944 0.36903 0.37345 0.0
C1050 C 0.30859 0.38459 0.37162 0.0
O1051 O 0.10589 0.34638 0.38114 0.0
O1052 O 0.14021 0.31781 0.37727 0.0
O1053 O 0.20833 0.29897 0.38355 0.0
O1054 O 0.16827 0.29356 0.39318 0.0
O1055 O 0.15979 0.41215 0.39036 0.0
O1056 O 0.15036 0.35153 0.39377 0.0
O1057 O 0.22224 0.40754 0.38832 0.0
O1058 O 0.21227 0.43348 0.37682 0.0
O1059 O 0.15725 0.46492 0.38139 0.0
O1060 O 0.14563 0.44842 0.36854 0.0
O1061 O 0.18764 0.34572 0.37127 0.0
O1062 O 0.19001 0.40386 0.36871 0.0
C1063 C 0.10748 0.31503 0.37945 0.0
C1064 C 0.14884 0.38338 0.39552 0.0
C1065 C 0.18272 0.24095 0.39214 0.0
C1066 C 0.19504 0.18688 0.39049 0.0
C1067 C 0.15731 0.18829 0.40194 0.0
C1068 C 0.16169 0.22329 0.39925 0.0
C1069 C 0.17376 0.17021 0.39761 0.0
C1070 C 0.19968 0.22256 0.38775 0.0
C1071 C 0.18665 0.27847 0.38956 0.0
C1072 C 0.35052 0.41554 0.39223 0.0
C1073 C 0.33781 0.41579 0.40016 0.0
H1074 H 0.36628 0.4122 0.37637 0.0
C1075 C 0.2344 0.43509 0.38289 0.0
C1076 C 0.19436 0.37482 0.36636 0.0
C1077 C 0.15501 0.51121 0.37172 0.0
C1078 C 0.17174 0.5777 0.37443 0.0
C1079 C 0.14688 0.54937 0.36119 0.0
C1080 C 0.14402 0.51492 0.36377 0.0
C1081 C 0.1607 0.58062 0.36647 0.0
C1082 C 0.16887 0.54289 0.3771 0.0
C1083 C 0.15296 0.47455 0.37403 0.0
H1084 H 0.14102 0.17508 0.40743 0.0
H1085 H 0.14854 0.23657 0.40277 0.0
H1086 H 0.16988 0.14296 0.39982 0.0
H1087 H 0.21607 0.23564 0.38226 0.0
H1088 H 0.13848 0.55189 0.35506 0.0
H1089 H 0.13331 0.49117 0.3595 0.0
H1090 H 0.16286 0.60729 0.36435 0.0
H1091 H 0.1777 0.54072 0.38322 0.0
C1092 C 0.69972 0.73781 0.36464 0.0
C1093 C 0.72835 0.7073 0.37258 0.0
C1094 C 0.70987 0.72945 0.37214 0.0
C1095 C 0.73601 0.69331 0.3654 0.0
C1096 C 0.7072 0.72363 0.35742 0.0
C1097 C 0.72539 0.70138 0.35785 0.0
N1098 N 0.683 0.76015 0.36439 0.0
C1099 C 0.67207 0.76859 0.35717 0.0
C1100 C 0.6962 0.73227 0.34998 0.0
C1101 C 0.67826 0.75457 0.34987 0.0
Gd1102 Gd 0.74003 0.88442 0.38783 0.0
Gd1103 Gd 0.67268 0.78121 0.37692 0.0
N1104 N 0.7029 0.74416 0.37898 0.0
C1105 C 0.73903 0.70021 0.38022 0.0
C1106 C 0.71303 0.73701 0.38643 0.0
C1107 C 0.73127 0.71512 0.38718 0.0
H1108 H 0.70821 0.74885 0.39181 0.0
H1109 H 0.73961 0.71006 0.39312 0.0
H1110 H 0.74143 0.93614 0.37138 0.0
H1111 H 0.65837 0.78603 0.35703 0.0
H1112 H 0.72067 0.98244 0.36776 0.0
H1113 H 0.75341 0.68347 0.38081 0.0
H1114 H 0.75023 0.6763 0.36563 0.0
H1115 H 0.72617 0.87046 0.40792 0.0
H1116 H 0.70136 0.72185 0.3443 0.0
H1117 H 0.66945 0.76116 0.34414 0.0
H1118 H 0.66831 1.00043 0.39255 0.0
H1119 H 0.7315 0.69038 0.35236 0.0
H1120 H 0.67459 0.93526 0.41649 0.0
H1121 H 0.69911 0.89045 0.41916 0.0
N1122 N 0.71558 0.90224 0.39893 0.0
C1123 C 0.70312 0.9276 0.39735 0.0
C1124 C 0.71475 0.88927 0.40665 0.0
C1125 C 0.68611 0.92628 0.41151 0.0
C1126 C 0.69981 0.90089 0.41304 0.0
C1127 C 0.68783 0.94014 0.40361 0.0
H1128 H 0.66291 0.97593 0.4065 0.0
N1129 N 0.71943 0.92731 0.38347 0.0
C1130 C 0.7053 0.94065 0.38941 0.0
C1131 C 0.69857 0.98236 0.37972 0.0
C1132 C 0.69356 0.96776 0.38764 0.0
C1133 C 0.72644 0.94322 0.37587 0.0
C1134 C 0.71557 0.97042 0.37384 0.0
O1135 O 0.73858 0.80753 0.37582 0.0
O1136 O 0.75656 0.83875 0.388 0.0
O1137 O 0.79487 0.93394 0.38359 0.0
O1138 O 0.78561 0.91881 0.39648 0.0
O1139 O 0.66528 0.78649 0.39044 0.0
O1140 O 0.72339 0.83115 0.39617 0.0
O1141 O 0.67532 0.85945 0.38899 0.0
O1142 O 0.65651 0.8275 0.37696 0.0
O1143 O 0.62288 0.72905 0.38183 0.0
O1144 O 0.6191 0.75343 0.37032 0.0
O1145 O 0.74605 0.87965 0.37377 0.0
O1146 O 0.68545 0.83301 0.36948 0.0
C1147 C 0.76514 0.82663 0.3814 0.0
C1148 C 0.68981 0.79796 0.39654 0.0
C1149 C 0.84749 0.97512 0.39303 0.0
C1150 C 0.90092 0.0422 0.39173 0.0
C1151 C 0.90324 0.99951 0.40198 0.0
C1152 C 0.86736 0.96969 0.39947 0.0
C1153 C 0.91976 0.03544 0.39819 0.0
C1154 C 0.86467 0.0116 0.38904 0.0
C1155 C 0.8083 0.94277 0.39096 0.0
C1156 C 0.67787 0.97996 0.39383 0.0
C1157 C 0.67489 0.96608 0.40179 0.0
H1158 H 0.69012 1.00338 0.37812 0.0
C1159 C 0.64869 0.84083 0.38349 0.0
C1160 C 0.72013 0.86159 0.36791 0.0
C1161 C 0.57201 0.68851 0.37259 0.0
C1162 C 0.5073 0.63274 0.37369 0.0
C1163 C 0.54486 0.64338 0.36135 0.0
C1164 C 0.57539 0.67663 0.36473 0.0
C1165 C 0.511 0.62152 0.36579 0.0
C1166 C 0.53782 0.66644 0.37706 0.0
C1167 C 0.60099 0.72651 0.3757 0.0
H1168 H 0.91818 0.99485 0.40696 0.0
H1169 H 0.85503 0.9422 0.4026 0.0
H1170 H 0.9475 0.05827 0.40034 0.0
H1171 H 0.84955 0.01648 0.38412 0.0
H1172 H 0.54726 0.63473 0.35524 0.0
H1173 H 0.60111 0.69362 0.36112 0.0
H1174 H 0.48747 0.5959 0.36304 0.0
H1175 H 0.53474 0.67573 0.38308 0.0
C1176 C 0.34689 1.00396 0.36528 0.0
C1177 C 0.37661 0.06203 0.37356 0.0
C1178 C 0.35456 0.02147 0.37289 0.0
C1179 C 0.3914 0.08459 0.36651 0.0
C1180 C 0.36147 0.02661 0.35819 0.0
C1181 C 0.38386 0.06694 0.35885 0.0
N1182 N 0.32461 0.96492 0.36478 0.0
C1183 C 0.31664 0.94662 0.35745 0.0
C1184 C 0.35302 0.00803 0.35063 0.0
C1185 C 0.33073 0.96785 0.35027 0.0
Gd1186 Gd 0.1977 0.89319 0.38662 0.0
Gd1187 Gd 0.30364 0.93199 0.37714 0.0
N1188 N 0.33882 0.99896 0.37961 0.0
C1189 C 0.38258 0.07883 0.38128 0.0
C1190 C 0.34431 0.01536 0.38712 0.0
C1191 C 0.36624 0.05536 0.38808 0.0
H1192 H 0.33106 0.9981 0.39236 0.0
H1193 H 0.37022 0.06806 0.39407 0.0
H1194 H 0.15756 0.8357 0.36997 0.0
H1195 H 0.30056 0.91556 0.35717 0.0
H1196 H 0.1212 0.76682 0.36678 0.0
H1197 H 0.39931 0.10987 0.38204 0.0
H1198 H 0.40842 0.11577 0.36691 0.0
H1199 H 0.2 0.89904 0.40687 0.0
H1200 H 0.36381 0.02438 0.34504 0.0
H1201 H 0.32488 0.9532 0.34449 0.0
H1202 H 0.09211 0.70476 0.39286 0.0
H1203 H 0.3953 0.08477 0.35347 0.0
H1204 H 0.13759 0.7846 0.41663 0.0
H1205 H 0.17654 0.85522 0.41872 0.0
N1206 N 0.1754 0.85365 0.39818 0.0
C1207 C 0.15345 0.81504 0.39689 0.0
C1208 C 0.18358 0.86824 0.40589 0.0
C1209 C 0.14796 0.80369 0.41141 0.0
C1210 C 0.17003 0.84353 0.41261 0.0
C1211 C 0.13939 0.78896 0.40348 0.0
H1212 H 0.1064 0.72865 0.40693 0.0
N1213 N 0.16004 0.82765 0.38273 0.0
C1214 C 0.14563 0.80161 0.38894 0.0
C1215 C 0.11538 0.74905 0.37931 0.0
C1216 C 0.12333 0.76163 0.38739 0.0
C1217 C 0.15002 0.81551 0.37488 0.0
C1218 C 0.12834 0.77617 0.37304 0.0
O1219 O 0.2766 0.97087 0.3755 0.0
O1220 O 0.24401 0.95447 0.38731 0.0
O1221 O 0.14721 0.89385 0.38156 0.0
O1222 O 0.16481 0.91208 0.39388 0.0
O1223 O 0.29647 0.91879 0.39053 0.0
O1224 O 0.24834 0.92867 0.39569 0.0
O1225 O 0.22483 0.85645 0.38912 0.0
O1226 O 0.25981 0.86777 0.37742 0.0
O1227 O 0.35205 0.93147 0.38304 0.0
O1228 O 0.33964 0.91584 0.37031 0.0
O1229 O 0.20562 0.90225 0.37243 0.0
O1230 O 0.25387 0.88861 0.37001 0.0
C1231 C 0.25594 0.97665 0.38096 0.0
C1232 C 0.28185 0.92911 0.3965 0.0
C1233 C 0.09746 0.88186 0.39117 0.0
C1234 C 0.02962 0.86582 0.39025 0.0
C1235 C 0.0503 0.83927 0.40115 0.0
C1236 C 0.08793 0.85839 0.39815 0.0
C1237 C 0.02139 0.843 0.39726 0.0
C1238 C 0.06787 0.88538 0.38719 0.0
C1239 C 0.1384 0.90399 0.38839 0.0
C1240 C 0.10938 0.73553 0.39393 0.0
C1241 C 0.11741 0.74915 0.40195 0.0
H1242 H 0.0985 0.71859 0.37787 0.0
C1243 C 0.24289 0.84653 0.38387 0.0
C1244 C 0.22586 0.89336 0.3673 0.0
C1245 C 0.40245 0.93465 0.37487 0.0
C1246 C 0.45714 0.92408 0.37542 0.0
C1247 C 0.46218 0.97914 0.36807 0.0
C1248 C 0.42409 0.96789 0.37016 0.0
C1249 C 0.47862 0.95722 0.37065 0.0
C1250 C 0.41914 0.91301 0.37756 0.0
C1251 C 0.36152 0.91973 0.3765 0.0
H1252 H 0.04354 0.82158 0.40656 0.0
H1253 H 0.10963 0.85517 0.40139 0.0
H1254 H 0.99234 0.8279 0.39972 0.0
H1255 H 0.07457 0.90336 0.38182 0.0
H1256 H 0.47884 1.0046 0.36438 0.0
H1257 H 0.41135 0.9846 0.36799 0.0
H1258 H 0.50803 0.966 0.36891 0.0
H1259 H 0.40227 0.88702 0.38113 0.0
C1260 C 0.70001 0.73639 0.80742 0.0
C1261 C 0.67358 0.68137 0.79827 0.0
C1262 C 0.69485 0.72162 0.79956 0.0
C1263 C 0.65796 0.65631 0.80495 0.0
C1264 C 0.68446 0.71124 0.81414 0.0
C1265 C 0.66345 0.67119 0.81286 0.0
N1266 N 0.7198 0.77531 0.8085 0.0
C1267 C 0.7268 0.79079 0.81612 0.0
C1268 C 0.69057 0.72707 0.82197 0.0
C1269 C 0.71213 0.76703 0.82296 0.0
Gd1270 Gd 0.68614 0.86038 0.78698 0.0
Gd1271 Gd 0.7442 0.81254 0.79667 0.0
N1272 N 0.7095 0.74663 0.79318 0.0
C1273 C 0.66834 0.66743 0.79029 0.0
C1274 C 0.70527 0.73299 0.78543 0.0
C1275 C 0.68444 0.69339 0.78385 0.0
H1276 H 0.71793 0.75224 0.78045 0.0
H1277 H 0.68098 0.68293 0.77766 0.0
H1278 H 0.70594 0.91884 0.80346 0.0
H1279 H 0.74513 0.82132 0.81696 0.0
H1280 H 0.7364 0.98772 0.80638 0.0
H1281 H 0.65212 0.63673 0.78905 0.0
H1282 H 0.64152 0.62534 0.80406 0.0
H1283 H 0.68553 0.85311 0.76661 0.0
H1284 H 0.67925 0.70871 0.82728 0.0
H1285 H 0.71798 0.77953 0.82898 0.0
H1286 H 0.77037 0.04786 0.78014 0.0
H1287 H 0.65125 0.65146 0.81794 0.0
H1288 H 0.74163 0.96721 0.75667 0.0
H1289 H 0.7091 0.89649 0.75472 0.0
N1290 N 0.70698 0.89882 0.77525 0.0
C1291 C 0.72449 0.93758 0.77647 0.0
C1292 C 0.70105 0.88392 0.76756 0.0
C1293 C 0.73211 0.94832 0.76193 0.0
C1294 C 0.71383 0.90842 0.7608 0.0
C1295 C 0.73729 0.96336 0.76982 0.0
H1296 H 0.76406 0.02338 0.76619 0.0
N1297 N 0.71747 0.92602 0.79073 0.0
C1298 C 0.72941 0.95153 0.7844 0.0
C1299 C 0.74886 1.00454 0.79381 0.0
C1300 C 0.74591 0.99151 0.7858 0.0
C1301 C 0.71883 0.93865 0.79851 0.0
C1302 C 0.73526 0.97799 0.80018 0.0
O1303 O 0.67758 0.78006 0.79727 0.0
O1304 O 0.66139 0.7971 0.78529 0.0
O1305 O 0.63375 0.85447 0.79268 0.0
O1306 O 0.64278 0.86455 0.77977 0.0
O1307 O 0.75489 0.83036 0.78355 0.0
O1308 O 0.69826 0.82216 0.77806 0.0
O1309 O 0.75079 0.89468 0.78555 0.0
O1310 O 0.77407 0.87829 0.79678 0.0
O1311 O 0.79336 0.80715 0.79207 0.0
O1312 O 0.78809 0.81798 0.80495 0.0
O1313 O 0.68401 0.85175 0.80113 0.0
O1314 O 0.74285 0.85782 0.80413 0.0
C1315 C 0.65247 0.77315 0.79138 0.0
C1316 C 0.73105 0.82108 0.7774 0.0
C1317 C 0.57878 0.84258 0.78452 0.0
C1318 C 0.51908 0.84616 0.7847 0.0
C1319 C 0.52069 0.79272 0.77799 0.0
C1320 C 0.55955 0.80822 0.78005 0.0
C1321 C 0.50069 0.81163 0.78023 0.0
C1322 C 0.55825 0.86137 0.78693 0.0
C1323 C 0.62098 0.86123 0.78594 0.0
C1324 C 0.75807 0.01713 0.77918 0.0
C1325 C 0.75428 1.00317 0.77122 0.0
H1326 H 0.76053 0.03489 0.79512 0.0
C1327 C 0.77784 0.90251 0.79093 0.0
C1328 C 0.71202 0.85862 0.80641 0.0
C1329 C 0.8437 0.81285 0.80163 0.0
C1330 C 0.91013 0.82882 0.79907 0.0
C1331 C 0.88111 0.80471 0.81231 0.0
C1332 C 0.84689 0.80214 0.80962 0.0
C1333 C 0.91259 0.81805 0.80708 0.0
C1334 C 0.87551 0.8261 0.79629 0.0
C1335 C 0.80838 0.81349 0.79936 0.0
H1336 H 0.50615 0.76627 0.7745 0.0
H1337 H 0.57487 0.79395 0.77798 0.0
H1338 H 0.47071 0.7993 0.77844 0.0
H1339 H 0.57302 0.88838 0.79024 0.0
H1340 H 0.88333 0.79665 0.81849 0.0
H1341 H 0.82297 0.79219 0.81385 0.0
H1342 H 0.93911 0.82011 0.8093 0.0
H1343 H 0.8737 0.835 0.79015 0.0
C1344 C 0.34202 0.00605 0.80747 0.0
C1345 C 0.39578 0.04535 0.79848 0.0
C1346 C 0.35614 0.01914 0.79969 0.0
C1347 C 0.42122 0.05676 0.80513 0.0
C1348 C 0.36719 0.01894 0.81422 0.0
C1349 C 0.40694 0.04367 0.81298 0.0
N1350 N 0.30344 0.982 0.80848 0.0
C1351 C 0.28784 0.97192 0.81609 0.0
C1352 C 0.35148 0.00763 0.82203 0.0
C1353 C 0.31155 0.98471 0.82297 0.0
Gd1354 Gd 0.22818 0.86051 0.78635 0.0
Gd1355 Gd 0.26606 0.96474 0.79658 0.0
N1356 N 0.33082 0.00762 0.79336 0.0
C1357 C 0.40842 0.06039 0.79067 0.0
C1358 C 0.34237 0.02505 0.78597 0.0
C1359 C 0.38141 0.05096 0.78444 0.0
H1360 H 0.32141 0.02048 0.78137 0.0
H1361 H 0.39048 0.0645 0.77853 0.0
H1362 H 0.17573 0.81577 0.80325 0.0
H1363 H 0.25689 0.95483 0.81687 0.0
H1364 H 0.10766 0.77727 0.80719 0.0
H1365 H 0.43861 0.08075 0.78949 0.0
H1366 H 0.45183 0.0766 0.8043 0.0
H1367 H 0.22864 0.87334 0.76626 0.0
H1368 H 0.36979 0.01732 0.82737 0.0
H1369 H 0.29897 0.97699 0.82899 0.0
H1370 H 0.03902 0.75352 0.782 0.0
H1371 H 0.42677 0.05362 0.81808 0.0
H1372 H 0.11171 0.81208 0.75779 0.0
H1373 H 0.18152 0.85391 0.75501 0.0
N1374 N 0.18578 0.84369 0.77531 0.0
C1375 C 0.14762 0.82047 0.77697 0.0
C1376 C 0.19819 0.85557 0.76755 0.0
C1377 C 0.13223 0.82073 0.76275 0.0
C1378 C 0.17161 0.84441 0.76116 0.0
C1379 C 0.11979 0.80838 0.77073 0.0
H1380 H 0.05878 0.77453 0.76789 0.0
N1381 N 0.16395 0.82275 0.79094 0.0
C1382 C 0.13638 0.80981 0.78501 0.0
C1383 C 0.08655 0.77499 0.79503 0.0
C1384 C 0.09696 0.78578 0.78692 0.0
C1385 C 0.15405 0.80982 0.79874 0.0
C1386 C 0.11528 0.78675 0.80095 0.0
O1387 O 0.30704 0.93969 0.79739 0.0
O1388 O 0.29119 0.90314 0.78583 0.0
O1389 O 0.22939 0.80861 0.79056 0.0
O1390 O 0.23753 0.82516 0.77773 0.0
O1391 O 0.2573 0.96115 0.78284 0.0
O1392 O 0.26794 0.91232 0.7782 0.0
O1393 O 0.19376 0.89066 0.78426 0.0
O1394 O 0.2023 0.92061 0.79648 0.0
O1395 O 0.25901 0.01347 0.79224 0.0
O1396 O 0.25367 0.99728 0.80508 0.0
O1397 O 0.241 0.86674 0.80021 0.0
O1398 O 0.22561 0.91272 0.80389 0.0
C1399 C 0.31346 0.91854 0.79214 0.0
C1400 C 0.26768 0.94513 0.77709 0.0
C1401 C 0.24024 0.76743 0.78097 0.0
C1402 C 0.22898 0.70178 0.78296 0.0
C1403 C 0.2667 0.74019 0.77144 0.0
C1404 C 0.2616 0.77061 0.77393 0.0
C1405 C 0.25046 0.70602 0.7759 0.0
C1406 C 0.22401 0.73277 0.78556 0.0
C1407 C 0.23492 0.80045 0.78319 0.0
C1408 C 0.06929 0.77277 0.78067 0.0
C1409 C 0.08058 0.78442 0.77262 0.0
H1410 H 0.05656 0.75676 0.79675 0.0
C1411 C 0.18158 0.90487 0.78994 0.0
C1412 C 0.23302 0.88541 0.80585 0.0
C1413 C 0.24596 0.05165 0.80231 0.0
C1414 C 0.2328 0.10364 0.79955 0.0
C1415 C 0.23835 0.08718 0.81349 0.0
C1416 C 0.24528 0.05837 0.81071 0.0
C1417 C 0.23215 0.10975 0.80795 0.0
C1418 C 0.23962 0.07447 0.79669 0.0
C1419 C 0.253 0.02049 0.79969 0.0
H1420 H 0.2832 0.74305 0.766 0.0
H1421 H 0.27451 0.79679 0.77032 0.0
H1422 H 0.25457 0.68262 0.77381 0.0
H1423 H 0.20726 0.72967 0.79098 0.0
H1424 H 0.23784 0.09207 0.81996 0.0
H1425 H 0.25013 0.04136 0.81519 0.0
H1426 H 0.22687 0.13216 0.8102 0.0
H1427 H 0.24007 0.06976 0.79021 0.0
C1428 C 0.08165 0.38828 0.80504 0.0
C1429 C 0.04742 0.40258 0.79465 0.0
C1430 C 0.06952 0.3856 0.797 0.0
C1431 C 0.03902 0.42338 0.80039 0.0
C1432 C 0.07252 0.40841 0.81085 0.0
C1433 C 0.05145 0.42621 0.80846 0.0
N1434 N 0.10311 0.37186 0.80714 0.0
C1435 C 0.11457 0.37273 0.81498 0.0
C1436 C 0.08516 0.41033 0.81888 0.0
C1437 C 0.10602 0.39213 0.82096 0.0
Gd1438 Gd 0.22176 0.39928 0.78698 0.0
Gd1439 Gd 0.11557 0.33983 0.7967 0.0
N1440 N 0.07827 0.36545 0.79155 0.0
C1441 C 0.03349 0.39724 0.78667 0.0
C1442 C 0.06146 0.35702 0.78405 0.0
C1443 C 0.03986 0.37365 0.78139 0.0
H1444 H 0.06302 0.33615 0.78023 0.0
H1445 H 0.02733 0.36746 0.77535 0.0
H1446 H 0.26381 0.3843 0.80366 0.0
H1447 H 0.12941 0.35765 0.81665 0.0
H1448 H 0.30212 0.35406 0.80683 0.0
H1449 H 0.0164 0.40979 0.78463 0.0
H1450 H 0.02234 0.43685 0.79867 0.0
H1451 H 0.21115 0.39376 0.76667 0.0
H1452 H 0.07869 0.42549 0.82352 0.0
H1453 H 0.11529 0.39281 0.82718 0.0
H1454 H 0.3259 0.31534 0.78092 0.0
H1455 H 0.04444 0.44208 0.81283 0.0
H1456 H 0.27042 0.33799 0.75725 0.0
H1457 H 0.23043 0.36841 0.75502 0.0
N1458 N 0.23814 0.37596 0.77548 0.0
C1459 C 0.26027 0.35951 0.77686 0.0
C1460 C 0.22757 0.37947 0.76776 0.0
C1461 C 0.2615 0.3485 0.76241 0.0
C1462 C 0.23885 0.36557 0.76113 0.0
C1463 C 0.2727 0.3455 0.77033 0.0
H1464 H 0.30613 0.31862 0.76694 0.0
N1465 N 0.25699 0.36923 0.79106 0.0
C1466 C 0.2701 0.35622 0.78484 0.0
C1467 C 0.30461 0.33853 0.7944 0.0
C1468 C 0.29391 0.34017 0.78637 0.0
C1469 C 0.26962 0.36992 0.79882 0.0
C1470 C 0.29267 0.35376 0.80064 0.0
O1471 O 0.15041 0.40617 0.79799 0.0
O1472 O 0.18162 0.42229 0.78583 0.0
O1473 O 0.26934 0.45304 0.79212 0.0
O1474 O 0.26697 0.44152 0.77923 0.0
O1475 O 0.12109 0.33099 0.7834 0.0
O1476 O 0.17103 0.38842 0.77833 0.0
O1477 O 0.19044 0.33532 0.78485 0.0
O1478 O 0.15203 0.3107 0.79618 0.0
O1479 O 0.06255 0.28636 0.79344 0.0
O1480 O 0.08081 0.30024 0.80618 0.0
O1481 O 0.21553 0.40053 0.80115 0.0
O1482 O 0.16341 0.34103 0.80374 0.0
C1483 C 0.16881 0.43178 0.7922 0.0
C1484 C 0.13769 0.35534 0.77737 0.0
C1485 C 0.31326 0.50557 0.78331 0.0
C1486 C 0.37739 0.56369 0.78437 0.0
C1487 C 0.32925 0.56193 0.77504 0.0
C1488 C 0.30299 0.52419 0.77741 0.0
C1489 C 0.36609 0.58156 0.77849 0.0
C1490 C 0.35079 0.52545 0.78677 0.0
C1491 C 0.28706 0.46417 0.78515 0.0
C1492 C 0.30705 0.32709 0.77986 0.0
C1493 C 0.29606 0.32924 0.77188 0.0
H1494 H 0.32301 0.32659 0.79582 0.0
C1495 C 0.17176 0.30758 0.79009 0.0
C1496 C 0.19414 0.37197 0.80629 0.0
C1497 C 0.0222 0.23958 0.80385 0.0
C1498 C 0.97247 0.17264 0.80167 0.0
C1499 C 0.98117 0.20141 0.81506 0.0
C1500 C 0.01121 0.2361 0.81208 0.0
C1501 C 0.96189 0.16982 0.80989 0.0
C1502 C 1.00261 0.20763 0.79862 0.0
C1503 C 0.05598 0.27561 0.80105 0.0
H1504 H 0.32118 0.57592 0.77043 0.0
H1505 H 0.27494 0.50921 0.7745 0.0
H1506 H 0.38608 0.61072 0.77648 0.0
H1507 H 0.35941 0.5111 0.7912 0.0
H1508 H 0.97297 0.19894 0.8214 0.0
H1509 H 0.02606 0.26014 0.81624 0.0
H1510 H 0.93867 0.14299 0.81232 0.0
H1511 H 0.01105 0.20968 0.79228 0.0
C1512 C 0.1473 0.36499 0.27551 0.0
C1513 C 0.0952 0.34689 0.2852 0.0
C1514 C 0.13491 0.36296 0.2835 0.0
C1515 C 0.0683 0.33258 0.2788 0.0
C1516 C 0.12034 0.35037 0.26908 0.0
C1517 C 0.0808 0.3341 0.27078 0.0
N1518 N 0.18572 0.3804 0.27406 0.0
C1519 C 0.19924 0.38314 0.26633 0.0
C1520 C 0.13396 0.35245 0.26114 0.0
C1521 C 0.17361 0.36906 0.25976 0.0
Gd1522 Gd 0.26214 0.3358 0.29606 0.0
Gd1523 Gd 0.22651 0.40318 0.28542 0.0
N1524 N 0.16166 0.37657 0.28958 0.0
C1525 C 0.08375 0.34609 0.29328 0.0
C1526 C 0.15076 0.37829 0.29736 0.0
C1527 C 0.11171 0.36226 0.29937 0.0
H1528 H 0.17192 0.39325 0.302 0.0
H1529 H 0.10327 0.36318 0.30559 0.0
H1530 H 0.33501 0.37946 0.28243 0.0
H1531 H 0.22988 0.39692 0.2652 0.0
H1532 H 0.40522 0.40646 0.28198 0.0
H1533 H 0.05355 0.33408 0.29484 0.0
H1534 H 0.03772 0.32043 0.27999 0.0
H1535 H 0.23622 0.31566 0.3156 0.0
H1536 H 0.11416 0.34153 0.25604 0.0
H1537 H 0.18446 0.37123 0.25363 0.0
H1538 H 0.43936 0.40001 0.30969 0.0
H1539 H 0.05965 0.32275 0.26592 0.0
H1540 H 0.33821 0.34735 0.32959 0.0
H1541 H 0.2675 0.31962 0.32884 0.0
N1542 N 0.28897 0.34088 0.30897 0.0
C1543 C 0.32786 0.35601 0.30923 0.0
C1544 C 0.26722 0.32803 0.31589 0.0
C1545 C 0.32472 0.34567 0.32377 0.0
C1546 C 0.28475 0.33006 0.32337 0.0
C1547 C 0.34682 0.35891 0.31665 0.0
H1548 H 0.40213 0.37714 0.3224 0.0
N1549 N 0.32981 0.36608 0.295 0.0
C1550 C 0.34885 0.36865 0.30204 0.0
C1551 C 0.40969 0.39818 0.2948 0.0
C1552 C 0.38935 0.38489 0.30213 0.0
C1553 C 0.34964 0.37944 0.28788 0.0
C1554 C 0.38972 0.39557 0.28765 0.0
O1555 O 0.19007 0.33835 0.28371 0.0
O1556 O 0.19931 0.31892 0.29607 0.0
O1557 O 0.26022 0.28737 0.28957 0.0
O1558 O 0.24178 0.28102 0.30214 0.0
O1559 O 0.2381 0.40931 0.29942 0.0
O1560 O 0.22212 0.34791 0.30329 0.0
O1561 O 0.30298 0.40158 0.29714 0.0
O1562 O 0.28971 0.42339 0.28536 0.0
O1563 O 0.22683 0.45543 0.28992 0.0
O1564 O 0.23719 0.44952 0.2771 0.0
O1565 O 0.25337 0.33132 0.28242 0.0
O1566 O 0.26508 0.38953 0.27702 0.0
C1567 C 0.17841 0.31244 0.2895 0.0
C1568 C 0.23039 0.38296 0.30516 0.0
C1569 C 0.26278 0.23908 0.2975 0.0
C1570 C 0.25501 0.17482 0.29693 0.0
C1571 C 0.30907 0.22615 0.30425 0.0
C1572 C 0.29633 0.25181 0.30218 0.0
C1573 C 0.2885 0.1878 0.30165 0.0
C1574 C 0.24217 0.20054 0.29486 0.0
C1575 C 0.24696 0.26444 0.29586 0.0
C1576 C 0.40828 0.38769 0.30951 0.0
C1577 C 0.38709 0.37473 0.31675 0.0
H1578 H 0.44081 0.41093 0.29462 0.0
C1579 C 0.31046 0.42957 0.2919 0.0
C1580 C 0.26674 0.35707 0.27656 0.0
C1581 C 0.23782 0.50886 0.28068 0.0
C1582 C 0.22814 0.56402 0.28337 0.0
C1583 C 0.26169 0.56251 0.27115 0.0
C1584 C 0.25692 0.52686 0.27342 0.0
C1585 C 0.24755 0.58096 0.27607 0.0
C1586 C 0.22308 0.52758 0.28569 0.0
C1587 C 0.23305 0.47034 0.28265 0.0
H1588 H 0.33476 0.23593 0.30793 0.0
H1589 H 0.31227 0.28127 0.30434 0.0
H1590 H 0.29859 0.16816 0.30334 0.0
H1591 H 0.21598 0.19044 0.29131 0.0
H1592 H 0.27642 0.57591 0.26553 0.0
H1593 H 0.26836 0.51336 0.26945 0.0
H1594 H 0.25151 0.60861 0.27412 0.0
H1595 H 0.20792 0.51406 0.29127 0.0
C1596 C 0.71112 0.81899 0.27674 0.0
C1597 C 0.73197 0.78539 0.28589 0.0
C1598 C 0.71638 0.80977 0.28461 0.0
C1599 C 0.74255 0.77095 0.27918 0.0
C1600 C 0.72201 0.80481 0.26999 0.0
C1601 C 0.73791 0.7809 0.27126 0.0
N1602 N 0.69548 0.84202 0.2757 0.0
C1603 C 0.68937 0.85153 0.26808 0.0
C1604 C 0.71631 0.81486 0.26217 0.0
C1605 C 0.69982 0.83823 0.26121 0.0
Gd1606 Gd 0.74428 0.96883 0.29698 0.0
Gd1607 Gd 0.67839 0.86282 0.28751 0.0
N1608 N 0.70594 0.82437 0.29098 0.0
C1609 C 0.73587 0.77571 0.29387 0.0
C1610 C 0.7079 0.81324 0.29875 0.0
C1611 C 0.72359 0.78955 0.30032 0.0
H1612 H 0.69626 0.82112 0.30379 0.0
H1613 H 0.7254 0.78126 0.30651 0.0
H1614 H 0.75167 0.02314 0.28049 0.0
H1615 H 0.67587 0.8689 0.26728 0.0
H1616 H 0.72207 0.06016 0.27544 0.0
H1617 H 0.74745 0.75686 0.29511 0.0
H1618 H 0.75424 0.75192 0.28006 0.0
H1619 H 0.72588 0.95601 0.31691 0.0
H1620 H 0.72427 0.80451 0.25683 0.0
H1621 H 0.69491 0.84581 0.25518 0.0
H1622 H 0.65083 0.06573 0.29838 0.0
H1623 H 0.74638 0.76964 0.26615 0.0
H1624 H 0.65836 0.00777 0.32336 0.0
H1625 H 0.69022 0.97063 0.32725 0.0
N1626 N 0.71288 0.98286 0.30729 0.0
C1627 C 0.69709 1.00476 0.30507 0.0
C1628 C 0.71137 0.97136 0.31515 0.0
C1629 C 0.6738 1.00117 0.3188 0.0
C1630 C 0.6916 0.98007 0.32102 0.0
C1631 C 0.67657 0.01399 0.31076 0.0
H1632 H 0.64352 0.04286 0.31252 0.0
N1633 N 0.72094 0.00786 0.29167 0.0
C1634 C 0.70072 0.01706 0.29702 0.0
C1635 C 0.69118 0.05412 0.2866 0.0
C1636 C 0.68466 0.03983 0.29457 0.0
C1637 C 0.73063 0.02506 0.28421 0.0
C1638 C 0.71499 0.0474 0.28146 0.0
O1639 O 0.74194 0.88972 0.28482 0.0
O1640 O 0.77002 0.92953 0.29589 0.0
O1641 O 0.79856 0.02107 0.29382 0.0
O1642 O 0.78517 1.00135 0.30647 0.0
O1643 O 0.67969 0.87027 0.3017 0.0
O1644 O 0.74141 0.91946 0.30371 0.0
O1645 O 0.67828 0.93593 0.29892 0.0
O1646 O 0.66117 0.90761 0.28661 0.0
O1647 O 0.62741 0.81271 0.29277 0.0
O1648 O 0.62661 0.82858 0.28032 0.0
O1649 O 0.75188 0.96305 0.28361 0.0
O1650 O 0.69289 0.91435 0.27883 0.0
C1651 C 0.77124 0.90906 0.28972 0.0
C1652 C 0.70982 0.89055 0.30659 0.0
C1653 C 0.8471 0.05887 0.30416 0.0
C1654 C 0.91235 0.11159 0.30148 0.0
C1655 C 0.88967 0.0945 0.31539 0.0
C1656 C 0.8541 0.06534 0.31256 0.0
C1657 C 0.91863 0.11755 0.30989 0.0
C1658 C 0.87654 0.08212 0.29859 0.0
C1659 C 0.80997 0.02635 0.30138 0.0
C1660 C 0.66359 0.04851 0.30018 0.0
C1661 C 0.65956 0.03562 0.30825 0.0
H1662 H 0.67938 0.07176 0.28448 0.0
C1663 C 0.65284 0.92093 0.29301 0.0
C1664 C 0.72678 0.9465 0.27769 0.0
C1665 C 0.59035 0.76154 0.28335 0.0
C1666 C 0.5382 0.69371 0.28413 0.0
C1667 C 0.58822 0.71385 0.27383 0.0
C1668 C 0.60591 0.75162 0.27671 0.0
C1669 C 0.5546 0.68517 0.27747 0.0
C1670 C 0.55625 0.73211 0.28711 0.0
C1671 C 0.60847 0.80276 0.28592 0.0
H1672 H 0.89484 0.09916 0.32187 0.0
H1673 H 0.83217 0.04764 0.31697 0.0
H1674 H 0.94617 0.14005 0.3122 0.0
H1675 H 0.87183 0.07726 0.2921 0.0
H1676 H 0.60046 0.70684 0.26868 0.0
H1677 H 0.63144 0.77318 0.27361 0.0
H1678 H 0.54123 0.65604 0.27508 0.0
H1679 H 0.54359 0.73911 0.29219 0.0
C1680 C 0.26248 0.93691 0.27702 0.0
C1681 C 0.30035 0.98645 0.28694 0.0
C1682 C 0.27505 0.94737 0.28498 0.0
C1683 C 0.31091 0.01489 0.28091 0.0
C1684 C 0.27345 0.96524 0.27091 0.0
C1685 C 0.29738 1.00433 0.27292 0.0
N1686 N 0.2389 0.89888 0.2753 0.0
C1687 C 0.22642 0.88707 0.26754 0.0
C1688 C 0.26004 0.9534 0.26297 0.0
C1689 C 0.23661 0.91412 0.26127 0.0
Gd1690 Gd 0.11673 0.81787 0.29622 0.0
Gd1691 Gd 0.22296 0.85568 0.28625 0.0
N1692 N 0.26348 0.91924 0.29074 0.0
C1693 C 0.31504 0.99563 0.29486 0.0
C1694 C 0.28036 0.9277 0.29823 0.0
C1695 C 0.30559 0.96602 0.30049 0.0
H1696 H 0.27577 0.90488 0.30233 0.0
H1697 H 0.3183 0.9726 0.3065 0.0
H1698 H 0.06714 0.74823 0.28331 0.0
H1699 H 0.2089 0.85676 0.26613 0.0
H1700 H 0.03052 0.67623 0.28288 0.0
H1701 H 0.33467 0.02527 0.29661 0.0
H1702 H 0.32993 0.0451 0.28233 0.0
H1703 H 0.11426 0.84691 0.31524 0.0
H1704 H 0.26787 0.97428 0.2581 0.0
H1705 H 0.22648 0.90464 0.25513 0.0
H1706 H 0.01081 0.64196 0.31124 0.0
H1707 H 0.30598 0.02656 0.26832 0.0
H1708 H 0.04951 0.74662 0.3301 0.0
H1709 H 0.08513 0.81772 0.32849 0.0
N1710 N 0.09322 0.79286 0.30928 0.0
C1711 C 0.07247 0.75384 0.30999 0.0
C1712 C 0.09806 0.81583 0.31583 0.0
C1713 C 0.06163 0.75924 0.32424 0.0
C1714 C 0.08174 0.79939 0.32335 0.0
C1715 C 0.05688 0.73587 0.3175 0.0
H1716 H 0.02399 0.68091 0.3237 0.0
N1717 N 0.0763 0.7509 0.29585 0.0
C1718 C 0.06419 0.73203 0.30302 0.0
C1719 C 0.03069 0.67107 0.29594 0.0
C1720 C 0.04124 0.69151 0.3033 0.0
C1721 C 0.0624 0.7318 0.28873 0.0
C1722 C 0.04053 0.69146 0.2886 0.0
O1723 O 0.19321 0.89049 0.28401 0.0
O1724 O 0.16476 0.87911 0.29621 0.0
O1725 O 0.06867 0.81695 0.28964 0.0
O1726 O 0.08842 0.84737 0.30106 0.0
O1727 O 0.21647 0.84456 0.3003 0.0
O1728 O 0.16709 0.8552 0.30429 0.0
O1729 O 0.14063 0.77604 0.29724 0.0
O1730 O 0.17956 0.79272 0.28597 0.0
O1731 O 0.27356 0.85164 0.29039 0.0
O1732 O 0.25909 0.84813 0.27751 0.0
O1733 O 0.12057 0.821 0.28231 0.0
O1734 O 0.17287 0.81553 0.27776 0.0
C1735 C 0.17545 0.89914 0.28954 0.0
C1736 C 0.19593 0.84962 0.30607 0.0
C1737 C 0.02342 0.82353 0.29789 0.0
C1738 C 0.96503 0.82795 0.29681 0.0
C1739 C 0.97237 0.79172 0.30788 0.0
C1740 C 0.00835 0.80039 0.30485 0.0
C1741 C 0.95084 0.80545 0.30391 0.0
C1742 C 1.00171 0.83735 0.29387 0.0
C1743 C 0.06312 0.83666 0.29526 0.0
C1744 C 0.02814 0.67313 0.31086 0.0
C1745 C 0.03567 0.69532 0.31795 0.0
H1746 H 0.0132 0.63987 0.29587 0.0
C1747 C 0.16252 0.76977 0.29213 0.0
C1748 C 0.13882 0.81318 0.27658 0.0
C1749 C 0.31616 0.84376 0.28061 0.0
C1750 C 0.38059 0.8515 0.28284 0.0
C1751 C 0.34488 0.82176 0.27041 0.0
C1752 C 0.31445 0.82647 0.27306 0.0
C1753 C 0.37757 0.83407 0.27524 0.0
C1754 C 0.34968 0.85661 0.28552 0.0
C1755 C 0.28299 0.8488 0.28295 0.0
H1756 H 0.96125 0.77456 0.31335 0.0
H1757 H 0.02466 0.7897 0.30807 0.0
H1758 H 0.92311 0.79871 0.30643 0.0
H1759 H 0.01334 0.8554 0.28851 0.0
H1760 H 0.34315 0.80852 0.26456 0.0
H1761 H 0.2894 0.81647 0.26915 0.0
H1762 H 0.40092 0.83027 0.27297 0.0
H1763 H 0.35168 0.87031 0.29133 0.0
C1764 C 0.70612 0.81427 0.89729 0.0
C1765 C 0.69047 0.76251 0.88764 0.0
C1766 C 0.70496 0.80199 0.88932 0.0
C1767 C 0.67719 0.73568 0.89405 0.0
C1768 C 0.69265 0.78734 0.90373 0.0
C1769 C 0.67836 0.74807 0.90207 0.0
N1770 N 0.71943 0.85238 0.89871 0.0
C1771 C 0.72084 0.86557 0.90644 0.0
C1772 C 0.69365 0.80065 0.91166 0.0
C1773 C 0.70785 0.83993 0.91301 0.0
Gd1774 Gd 0.67826 0.93365 0.8776 0.0
Gd1775 Gd 0.74259 0.89301 0.8873 0.0
N1776 N 0.71747 0.82855 0.8832 0.0
C1777 C 0.68999 0.75118 0.87956 0.0
C1778 C 0.71948 0.81793 0.87542 0.0
C1779 C 0.70498 0.77909 0.87344 0.0
H1780 H 0.73336 0.83928 0.87075 0.0
H1781 H 0.70608 0.77081 0.86722 0.0
H1782 H 0.70915 0.99787 0.89303 0.0
H1783 H 0.73288 0.896 0.90761 0.0
H1784 H 0.74476 0.06825 0.89483 0.0
H1785 H 0.67898 0.72112 0.87802 0.0
H1786 H 0.66593 0.70525 0.89287 0.0
H1787 H 0.66126 0.91708 0.85758 0.0
H1788 H 0.68361 0.78087 0.91677 0.0
H1789 H 0.7091 0.85053 0.91913 0.0
H1790 H 0.76502 0.11751 0.86755 0.0
H1791 H 0.66789 0.72699 0.90695 0.0
H1792 H 0.7117 0.02686 0.84562 0.0
H1793 H 0.67457 0.95553 0.84498 0.0
N1794 N 0.69057 0.96634 0.86521 0.0
C1795 C 0.70993 0.00555 0.86577 0.0
C1796 C 0.67777 0.94825 0.85789 0.0
C1797 C 0.70589 0.01019 0.85117 0.0
C1798 C 0.68499 0.96991 0.85077 0.0
C1799 C 0.71851 0.02851 0.85872 0.0
H1800 H 0.74576 0.08702 0.85408 0.0
N1801 N 0.71143 1.0001 0.88018 0.0
C1802 C 0.72045 0.02288 0.87343 0.0
C1803 C 0.74974 0.07983 0.88194 0.0
C1804 C 0.74029 0.06343 0.87415 0.0
C1805 C 0.71869 0.01588 0.88777 0.0
C1806 C 0.7385 0.05591 0.88878 0.0
O1807 O 0.67751 0.85481 0.88796 0.0
O1808 O 0.65412 0.86909 0.87644 0.0
O1809 O 0.62744 0.92576 0.88423 0.0
O1810 O 0.63264 0.93717 0.87132 0.0
O1811 O 0.74657 0.90462 0.8733 0.0
O1812 O 0.68623 0.89379 0.86936 0.0
O1813 O 0.74457 0.97143 0.8769 0.0
O1814 O 0.76432 0.95602 0.88863 0.0
O1815 O 0.7974 0.8986 0.88248 0.0
O1816 O 0.78611 0.89685 0.8955 0.0
O1817 O 0.67065 0.91681 0.89084 0.0
O1818 O 0.72975 0.93126 0.89589 0.0
C1819 C 0.65117 0.84501 0.88226 0.0
C1820 C 0.71982 0.89722 0.86763 0.0
C1821 C 0.57086 0.89469 0.87618 0.0
C1822 C 0.5013 0.86652 0.87721 0.0
C1823 C 0.52808 0.83424 0.86933 0.0
C1824 C 0.56528 0.86368 0.87122 0.0
C1825 C 0.49615 0.83565 0.87229 0.0
C1826 C 0.53871 0.89592 0.87922 0.0
C1827 C 0.61007 0.92699 0.87761 0.0
C1828 C 0.74969 0.08631 0.86711 0.0
C1829 C 0.73875 0.06892 0.85943 0.0
H1830 H 0.765 0.11087 0.88274 0.0
C1831 C 0.77132 0.97882 0.88241 0.0
C1832 C 0.6959 0.9296 0.89675 0.0
C1833 C 0.84786 0.90344 0.89215 0.0
C1834 C 0.90455 0.89537 0.8901 0.0
C1835 C 0.8972 0.92348 0.90264 0.0
C1836 C 0.86271 0.91971 0.89982 0.0
C1837 C 0.91786 0.91144 0.89786 0.0
C1838 C 0.86895 0.89099 0.88725 0.0
C1839 C 0.80943 0.89824 0.88985 0.0
H1840 H 0.52395 0.81081 0.8654 0.0
H1841 H 0.58974 0.86292 0.86862 0.0
H1842 H 0.46739 0.81302 0.87063 0.0
H1843 H 0.54273 0.92018 0.8829 0.0
H1844 H 0.90794 0.93571 0.9086 0.0
H1845 H 0.84741 0.92938 0.90373 0.0
H1846 H 0.94445 0.91446 0.90028 0.0
H1847 H 0.85786 0.87809 0.88135 0.0
C1848 C 0.26799 0.93253 0.89691 0.0
C1849 C 0.32128 0.97332 0.88788 0.0
C1850 C 0.28223 0.94493 0.88908 0.0
C1851 C 0.34578 0.98918 0.89463 0.0
C1852 C 0.29268 0.94856 0.90369 0.0
C1853 C 0.33156 0.97679 0.9025 0.0
N1854 N 0.23005 0.90536 0.89791 0.0
C1855 C 0.21477 0.89458 0.90555 0.0
C1856 C 0.27749 0.93613 0.91149 0.0
C1857 C 0.23835 0.90921 0.91242 0.0
Gd1858 Gd 0.15051 0.77642 0.87755 0.0
Gd1859 Gd 0.19347 0.88543 0.88582 0.0
N1860 N 0.2582 0.92845 0.88262 0.0
C1861 C 0.33462 0.98491 0.87993 0.0
C1862 C 0.27058 0.9411 0.87489 0.0
C1863 C 0.30907 0.96889 0.87341 0.0
H1864 H 0.25088 0.93029 0.86982 0.0
H1865 H 0.31887 0.97832 0.86725 0.0
H1866 H 0.10231 0.72656 0.89429 0.0
H1867 H 0.18423 0.87568 0.90646 0.0
H1868 H 0.03517 0.69178 0.89926 0.0
H1869 H 0.36443 0.00655 0.87876 0.0
H1870 H 0.37585 0.01099 0.89382 0.0
H1871 H 0.14601 0.78824 0.85755 0.0
H1872 H 0.29556 0.94772 0.91685 0.0
H1873 H 0.22613 0.90027 0.91845 0.0
H1874 H 0.96019 0.68625 0.87595 0.0
H1875 H 0.35087 0.98939 0.90765 0.0
H1876 H 0.02735 0.74074 0.85093 0.0
H1877 H 0.09652 0.77495 0.8471 0.0
N1878 N 0.10573 0.76426 0.86719 0.0
C1879 C 0.06788 0.74366 0.86937 0.0
C1880 C 0.11616 0.77451 0.85929 0.0
C1881 C 0.04907 0.74695 0.85554 0.0
C1882 C 0.08808 0.76642 0.85336 0.0
C1883 C 0.03851 0.73501 0.86361 0.0
H1884 H 0.97671 0.70784 0.86175 0.0
N1885 N 0.08775 0.74012 0.88282 0.0
C1886 C 0.05868 0.73174 0.87743 0.0
C1887 C 0.01132 0.69708 0.88789 0.0
C1888 C 0.01967 0.71044 0.87986 0.0
C1889 C 0.07962 0.7244 0.89042 0.0
C1890 C 0.04141 0.70353 0.89315 0.0
O1891 O 0.23875 0.86887 0.88332 0.0
O1892 O 0.20952 0.80193 0.88354 0.0
O1893 O 0.14012 0.71838 0.87992 0.0
O1894 O 0.16504 0.74679 0.86825 0.0
O1895 O 0.1868 0.87456 0.87186 0.0
O1896 O 0.19693 0.82318 0.87011 0.0
O1897 O 0.12035 0.81227 0.87572 0.0
O1898 O 0.13123 0.8424 0.88787 0.0
O1899 O 0.17528 0.92282 0.87971 0.0
O1900 O 0.1977 0.93508 0.89201 0.0
O1901 O 0.16639 0.78495 0.89075 0.0
O1902 O 0.15843 0.83567 0.89506 0.0
C1903 C 0.24005 0.83684 0.88412 0.0
C1904 C 0.19708 0.8538 0.86725 0.0
C1905 C 0.15651 0.68267 0.87033 0.0
C1906 C 0.1763 0.63472 0.87262 0.0
C1907 C 0.14877 0.6376 0.85963 0.0
C1908 C 0.14507 0.6685 0.86241 0.0
C1909 C 0.16448 0.62094 0.86468 0.0
C1910 C 0.17178 0.66538 0.87551 0.0
C1911 C 0.15424 0.71669 0.8729 0.0
C1912 C 0.99031 0.70242 0.87417 0.0
C1913 C 0.9997 0.71463 0.86608 0.0
H1914 H 0.98172 0.6806 0.89 0.0
C1915 C 0.10855 0.82589 0.88167 0.0
C1916 C 0.15921 0.80325 0.89647 0.0
C1917 C 0.16832 0.9705 0.8875 0.0
C1918 C 0.17361 0.03428 0.88767 0.0
C1919 C 0.12188 0.98055 0.89504 0.0
C1920 C 0.13554 0.95618 0.89249 0.0
C1921 C 0.14076 0.0193 0.89266 0.0
C1922 C 0.18727 0.00966 0.88507 0.0
C1923 C 0.18662 0.94709 0.88579 0.0
H1924 H 0.13981 0.62676 0.85351 0.0
H1925 H 0.1333 0.68144 0.85836 0.0
H1926 H 0.16755 0.59723 0.86237 0.0
H1927 H 0.1811 0.67639 0.88162 0.0
H1928 H 0.09677 0.96946 0.89895 0.0
H1929 H 0.12112 0.92648 0.89456 0.0
H1930 H 0.12984 0.03773 0.89475 0.0
H1931 H 0.21325 0.02125 0.8814 0.0
C1932 C 0.16511 0.39345 0.89626 0.0
C1933 C 0.13143 0.40969 0.88613 0.0
C1934 C 0.15438 0.39328 0.8882 0.0
C1935 C 0.11974 0.42628 0.89222 0.0
C1936 C 0.15392 0.41064 0.90237 0.0
C1937 C 0.13128 0.42714 0.9003 0.0
N1938 N 0.18658 0.37681 0.89812 0.0
C1939 C 0.1972 0.37564 0.90596 0.0
C1940 C 0.16535 0.41021 0.91041 0.0
C1941 C 0.18698 0.3925 0.91221 0.0
Gd1942 Gd 0.30573 0.40685 0.87669 0.0
Gd1943 Gd 0.20143 0.3482 0.88734 0.0
N1944 N 0.16548 0.37621 0.88246 0.0
C1945 C 0.11998 0.408 0.87803 0.0
C1946 C 0.15149 0.37165 0.87471 0.0
C1947 C 0.12966 0.38846 0.87232 0.0
H1948 H 0.15562 0.35393 0.87039 0.0
H1949 H 0.11946 0.38545 0.86611 0.0
H1950 H 0.33068 0.36299 0.89122 0.0
H1951 H 0.21272 0.36084 0.90742 0.0
H1952 H 0.36737 0.32902 0.89217 0.0
H1953 H 0.10262 0.42056 0.87618 0.0
H1954 H 0.10124 0.43803 0.89077 0.0
H1955 H 0.30056 0.42323 0.85683 0.0
H1956 H 0.15724 0.42303 0.91527 0.0
H1957 H 0.19543 0.39145 0.91842 0.0
H1958 H 0.40126 0.32118 0.86453 0.0
H1959 H 0.12209 0.44017 0.90492 0.0
H1960 H 0.35929 0.3755 0.84365 0.0
H1961 H 0.32316 0.41071 0.84379 0.0
N1962 N 0.32336 0.39482 0.86395 0.0
C1963 C 0.34378 0.37599 0.86405 0.0
C1964 C 0.31588 0.40733 0.85681 0.0
C1965 C 0.34943 0.38082 0.84939 0.0
C1966 C 0.32893 0.40063 0.84943 0.0
C1967 C 0.35719 0.3683 0.85674 0.0
H1968 H 0.38849 0.34242 0.85143 0.0
N1969 N 0.33696 0.37085 0.87844 0.0
C1970 C 0.35127 0.36418 0.87149 0.0
C1971 C 0.37804 0.33172 0.87927 0.0
C1972 C 0.37199 0.34417 0.87173 0.0
C1973 C 0.34281 0.35874 0.88579 0.0
C1974 C 0.36327 0.33895 0.88632 0.0
O1975 O 0.23513 0.41319 0.88879 0.0
O1976 O 0.26526 0.43133 0.87643 0.0
O1977 O 0.35179 0.45596 0.88308 0.0
O1978 O 0.35218 0.45387 0.86998 0.0
O1979 O 0.20669 0.34108 0.87336 0.0
O1980 O 0.25596 0.40075 0.86936 0.0
O1981 O 0.27562 0.3404 0.87615 0.0
O1982 O 0.24107 0.32441 0.88791 0.0
O1983 O 0.14838 0.29465 0.88342 0.0
O1984 O 0.16436 0.30643 0.8962 0.0
O1985 O 0.30279 0.41421 0.89021 0.0
O1986 O 0.25227 0.35921 0.89591 0.0
C1987 C 0.25047 0.43845 0.8829 0.0
C1988 C 0.22623 0.36706 0.8676 0.0
C1989 C 0.37358 0.5143 0.87596 0.0
C1990 C 0.41442 0.58372 0.87794 0.0
C1991 C 0.34907 0.55729 0.8727 0.0
C1992 C 0.34382 0.52022 0.8731 0.0
C1993 C 0.38407 0.58887 0.87509 0.0
C1994 C 0.40897 0.54613 0.87835 0.0
C1995 C 0.36752 0.47494 0.8764 0.0
C1996 C 0.38537 0.33657 0.86445 0.0
C1997 C 0.378 0.34858 0.85699 0.0
H1998 H 0.39364 0.31611 0.8797 0.0
C1999 C 0.25304 0.31427 0.88152 0.0
C2000 C 0.28768 0.39001 0.89631 0.0
C2001 C 0.10498 0.24648 0.89364 0.0
C2002 C 0.04103 0.18872 0.89165 0.0
C2003 C 0.07303 0.20155 0.90481 0.0
C2004 C 0.10434 0.235 0.90177 0.0
C2005 C 0.04174 0.17864 0.89982 0.0
C2006 C 0.07281 0.22317 0.88855 0.0
C2007 C 0.13927 0.28331 0.89093 0.0
H2008 H 0.32606 0.56158 0.87044 0.0
H2009 H 0.31665 0.49624 0.87108 0.0
H2010 H 0.38767 0.61749 0.87457 0.0
H2011 H 0.43199 0.54164 0.88055 0.0
H2012 H 0.073 0.19334 0.91109 0.0
H2013 H 0.1282 0.25201 0.90585 0.0
H2014 H 0.01766 0.15287 0.90239 0.0
H2015 H 0.07252 0.23152 0.88229 0.0
C2016 C 0.72594 0.68901 0.70328 0.0
C2017 C 0.68129 0.67368 0.71454 0.0
C2018 C 0.71941 0.69181 0.71152 0.0
C2019 C 0.65023 0.65126 0.7093 0.0
C2020 C 0.69481 0.66718 0.69797 0.0
C2021 C 0.65696 0.64805 0.70104 0.0
N2022 N 0.76301 0.7063 0.70055 0.0
C2023 C 0.77091 0.70463 0.69254 0.0
C2024 C 0.70276 0.66462 0.68976 0.0
C2025 C 0.74098 0.68366 0.68703 0.0
Gd2026 Gd 0.8583 0.67825 0.71928 0.0
Gd2027 Gd 0.81117 0.73989 0.71027 0.0
N2028 N 0.75013 0.71321 0.7165 0.0
C2029 C 0.67545 0.67954 0.72269 0.0
C2030 C 0.74411 0.72265 0.72411 0.0
C2031 C 0.70696 0.70496 0.72744 0.0
H2032 H 0.76744 0.74513 0.7275 0.0
H2033 H 0.70257 0.71175 0.73358 0.0
H2034 H 0.91446 0.69302 0.70261 0.0
H2035 H 0.80023 0.71968 0.69042 0.0
H2036 H 0.98315 0.72339 0.69924 0.0
H2037 H 0.64663 0.66614 0.72525 0.0
H2038 H 0.6208 0.63678 0.71154 0.0
H2039 H 0.85368 0.67736 0.7396 0.0
H2040 H 0.67963 0.64807 0.68549 0.0
H2041 H 0.74743 0.68216 0.68068 0.0
H2042 H 0.04702 0.76005 0.7251 0.0
H2043 H 0.63269 0.63079 0.69707 0.0
H2044 H 0.96891 0.7319 0.74902 0.0
H2045 H 0.89837 0.70017 0.7513 0.0
N2046 N 0.89852 0.69717 0.73077 0.0
C2047 C 0.9371 0.71386 0.72939 0.0
C2048 C 0.88443 0.69176 0.73851 0.0
C2049 C 0.94945 0.7222 0.74385 0.0
C2050 C 0.90965 0.70436 0.74517 0.0
C2051 C 0.96364 0.72693 0.7359 0.0
H2052 H 0.02418 0.7542 0.7392 0.0
N2053 N 0.92359 0.70555 0.71528 0.0
C2054 C 0.95003 0.71811 0.72141 0.0
C2055 C 1.00186 0.73751 0.71168 0.0
C2056 C 0.98987 0.73479 0.71977 0.0
C2057 C 0.93509 0.70601 0.70743 0.0
C2058 C 0.97428 0.72256 0.7055 0.0
O2059 O 0.78064 0.67433 0.70817 0.0
O2060 O 0.79652 0.66129 0.72029 0.0
O2061 O 0.85902 0.62737 0.71434 0.0
O2062 O 0.83907 0.62658 0.72651 0.0
O2063 O 0.82913 0.74972 0.72345 0.0
O2064 O 0.82264 0.69244 0.72836 0.0
O2065 O 0.89445 0.74259 0.72116 0.0
O2066 O 0.87674 0.7683 0.71046 0.0
O2067 O 0.81112 0.79272 0.71383 0.0
O2068 O 0.81312 0.77914 0.70097 0.0
O2069 O 0.84997 0.67883 0.70518 0.0
O2070 O 0.85653 0.73849 0.70269 0.0
C2071 C 0.77472 0.64924 0.71391 0.0
C2072 C 0.82348 0.72584 0.72947 0.0
C2073 C 0.86721 0.58726 0.7242 0.0
C2074 C 0.88068 0.53356 0.7234 0.0
C2075 C 0.89882 0.57419 0.73544 0.0
C2076 C 0.88444 0.59625 0.73196 0.0
C2077 C 0.89679 0.54303 0.73122 0.0
C2078 C 0.86569 0.55575 0.71987 0.0
C2079 C 0.84744 0.6081 0.72113 0.0
C2080 C 0.01637 0.74759 0.72624 0.0
C2081 C 1.00334 0.74402 0.73428 0.0
H2082 H 0.0322 0.75028 0.71016 0.0
C2083 C 0.90087 0.77102 0.71624 0.0
C2084 C 0.85693 0.70775 0.70012 0.0
C2085 C 0.81261 0.83821 0.7037 0.0
C2086 C 0.8337 0.90652 0.70529 0.0
C2087 C 0.79537 0.87105 0.69355 0.0
C2088 C 0.79436 0.83773 0.69637 0.0
C2089 C 0.81509 0.9053 0.69794 0.0
C2090 C 0.83187 0.87263 0.70826 0.0
C2091 C 0.81266 0.80304 0.70626 0.0
H2092 H 0.91133 0.58109 0.74147 0.0
H2093 H 0.88604 0.61987 0.73548 0.0
H2094 H 0.90804 0.52624 0.73408 0.0
H2095 H 0.85237 0.54813 0.71391 0.0
H2096 H 0.78117 0.87045 0.6879 0.0
H2097 H 0.77932 0.81151 0.6928 0.0
H2098 H 0.81595 0.93105 0.6956 0.0
H2099 H 0.84648 0.87344 0.71388 0.0
C2100 C 0.36328 0.07687 0.69541 0.0
C2101 C 0.38308 0.03511 0.7019 0.0
C2102 C 0.36936 0.06135 0.70239 0.0
C2103 C 0.39322 0.02686 0.69429 0.0
C2104 C 0.37057 0.06638 0.68771 0.0
C2105 C 0.38686 0.04241 0.6872 0.0
N2106 N 0.34702 0.09948 0.69616 0.0
C2107 C 0.33502 0.1106 0.68943 0.0
C2108 C 0.35949 0.07873 0.68078 0.0
C2109 C 0.34093 0.10024 0.68165 0.0
Gd2110 Gd 0.40696 0.21998 0.72017 0.0
Gd2111 Gd 0.33824 0.11494 0.70949 0.0
N2112 N 0.35828 0.06914 0.70959 0.0
C2113 C 0.38398 0.0163 0.70902 0.0
C2114 C 0.35465 0.04759 0.71628 0.0
C2115 C 0.3686 0.02175 0.71621 0.0
H2116 H 0.33941 0.04911 0.72152 0.0
H2117 H 0.36656 0.00533 0.72161 0.0
H2118 H 0.40006 0.26399 0.70306 0.0
H2119 H 0.32068 0.1273 0.69007 0.0
H2120 H 0.37057 0.30203 0.6988 0.0
H2121 H 0.39421 0.99582 0.70893 0.0
H2122 H 0.40429 0.00715 0.69379 0.0
H2123 H 0.3985 0.213 0.74046 0.0
H2124 H 0.36424 0.07102 0.67474 0.0
H2125 H 0.3315 0.10906 0.67632 0.0
H2126 H 0.32648 0.32887 0.7237 0.0
H2127 H 0.39322 0.0345 0.68133 0.0
H2128 H 0.34288 0.27494 0.74836 0.0
H2129 H 0.37203 0.23453 0.75151 0.0
N2130 N 0.38287 0.23936 0.73108 0.0
C2131 C 0.36743 0.2619 0.72922 0.0
C2132 C 0.38505 0.22985 0.73897 0.0
C2133 C 0.35403 0.26515 0.74347 0.0
C2134 C 0.37039 0.2423 0.74526 0.0
C2135 C 0.35266 0.27549 0.73538 0.0
H2136 H 0.32621 0.31019 0.73796 0.0
N2137 N 0.38039 0.25725 0.7153 0.0
C2138 C 0.36602 0.27098 0.72111 0.0
C2139 C 0.35145 0.30521 0.71087 0.0
C2140 C 0.35104 0.29517 0.71903 0.0
C2141 C 0.38385 0.26985 0.70746 0.0
C2142 C 0.36836 0.29286 0.70507 0.0
O2143 O 0.40375 0.13686 0.70898 0.0
O2144 O 0.42719 0.17709 0.7201 0.0
O2145 O 0.45872 0.27415 0.71636 0.0
O2146 O 0.45353 0.25211 0.7287 0.0
O2147 O 0.3445 0.11288 0.72319 0.0
O2148 O 0.39238 0.17036 0.72916 0.0
O2149 O 0.34281 0.1888 0.72287 0.0
O2150 O 0.32358 0.16231 0.71044 0.0
O2151 O 0.28614 0.07632 0.71626 0.0
O2152 O 0.28469 0.07925 0.70311 0.0
O2153 O 0.41367 0.21305 0.70629 0.0
O2154 O 0.35135 0.1694 0.70304 0.0
C2155 C 0.43242 0.16002 0.71387 0.0
C2156 C 0.36533 0.13317 0.72948 0.0
C2157 C 0.51245 0.31242 0.72584 0.0
C2158 C 0.56697 0.37813 0.72392 0.0
C2159 C 0.56548 0.33995 0.73556 0.0
C2160 C 0.53018 0.30941 0.73298 0.0
C2161 C 0.58371 0.37406 0.73108 0.0
C2162 C 0.53118 0.34709 0.72125 0.0
C2163 C 0.47407 0.27945 0.72356 0.0
C2164 C 0.33719 0.30951 0.72517 0.0
C2165 C 0.33741 0.29921 0.73331 0.0
H2166 H 0.34004 0.32358 0.70902 0.0
C2167 C 0.31578 0.17318 0.71735 0.0
C2168 C 0.38646 0.19424 0.70075 0.0
C2169 C 0.24194 0.02005 0.70916 0.0
C2170 C 0.17999 0.96146 0.71104 0.0
C2171 C 0.23412 0.95823 0.70516 0.0
C2172 C 0.25722 0.99815 0.70587 0.0
C2173 C 0.19575 0.93991 0.70774 0.0
C2174 C 0.20323 1.00171 0.7117 0.0
C2175 C 0.2656 0.06212 0.70967 0.0
H2176 H 0.57871 0.33722 0.74108 0.0
H2177 H 0.51667 0.28333 0.73662 0.0
H2178 H 0.61108 0.39752 0.73323 0.0
H2179 H 0.51791 0.35014 0.71576 0.0
H2180 H 0.24591 0.94146 0.70255 0.0
H2181 H 0.28677 0.01191 0.70375 0.0
H2182 H 0.17815 0.90889 0.70705 0.0
H2183 H 0.19131 0.01863 0.71419 0.0
C2184 C 1.00371 0.34246 0.70016 0.0
C2185 C 0.03477 0.39657 0.7095 0.0
C2186 C 0.01421 0.35643 0.70805 0.0
C2187 C 0.04428 0.4223 0.70294 0.0
C2188 C 0.01367 0.36824 0.69355 0.0
C2189 C 0.03383 0.40818 0.69499 0.0
N2190 N 0.98374 0.30365 0.69894 0.0
C2191 C 0.97482 0.28881 0.69127 0.0
C2192 C 1.00334 0.3531 0.68568 0.0
C2193 C 0.98416 0.3132 0.68453 0.0
Gd2194 Gd 0.86346 0.22246 0.72015 0.0
Gd2195 Gd 0.96975 0.26528 0.7106 0.0
N2196 N 1.00423 0.3308 0.71431 0.0
C2197 C 0.04553 0.40969 0.71748 0.0
C2198 C 0.01651 0.34356 0.72201 0.0
C2199 C 0.03672 0.38303 0.72376 0.0
H2200 H 0.01177 0.32365 0.72677 0.0
H2201 H 0.04595 0.39284 0.72992 0.0
H2202 H 0.81668 0.16933 0.70359 0.0
H2203 H 0.96185 0.25824 0.69032 0.0
H2204 H 0.77268 0.10147 0.70018 0.0
H2205 H 0.06135 0.44028 0.71885 0.0
H2206 H 0.06003 0.45321 0.70394 0.0
H2207 H 0.87303 0.22557 0.74053 0.0
H2208 H 0.01063 0.37195 0.68044 0.0
H2209 H 0.97706 0.30124 0.67847 0.0
H2210 H 0.75174 0.03471 0.72556 0.0
H2211 H 0.04166 0.42842 0.68999 0.0
H2212 H 0.80977 0.10987 0.74952 0.0
H2213 H 0.85192 0.17981 0.752 0.0
N2214 N 0.8449 0.18184 0.73155 0.0
C2215 C 0.82108 0.14357 0.73006 0.0
C2216 C 0.85561 0.19506 0.73932 0.0
C2217 C 0.8194 0.12977 0.74443 0.0
C2218 C 0.84328 0.16923 0.74586 0.0
C2219 C 0.80777 0.1165 0.73647 0.0
H2220 H 0.77269 0.05598 0.73962 0.0
N2221 N 0.82386 0.15812 0.71597 0.0
C2222 C 0.80998 0.13142 0.72207 0.0
C2223 C 0.77139 0.08124 0.71239 0.0
C2224 C 0.7842 0.09211 0.72039 0.0
C2225 C 0.80942 0.14796 0.70826 0.0
C2226 C 0.78352 0.10939 0.70633 0.0
O2227 O 0.93676 0.2987 0.70946 0.0
O2228 O 0.90451 0.2857 0.72157 0.0
O2229 O 0.8177 0.22986 0.71457 0.0
O2230 O 0.81839 0.22239 0.72758 0.0
O2231 O 0.96047 0.2475 0.72374 0.0
O2232 O 0.91421 0.25947 0.72904 0.0
O2233 O 0.88904 0.1833 0.72121 0.0
O2234 O 0.93281 0.2 0.71064 0.0
O2235 O 0.02355 0.26803 0.71501 0.0
O2236 O 1.00573 0.25672 0.70223 0.0
O2237 O 0.87157 0.23185 0.7061 0.0
O2238 O 0.92139 0.22081 0.70329 0.0
C2239 C 0.92036 0.30818 0.71529 0.0
C2240 C 0.94707 0.25869 0.72978 0.0
C2241 C 0.77546 0.24329 0.72266 0.0
C2242 C 0.71163 0.23869 0.72237 0.0
C2243 C 0.76682 0.29364 0.72874 0.0
C2244 C 0.79063 0.27853 0.72679 0.0
C2245 C 0.72775 0.27391 0.7266 0.0
C2246 C 0.73593 0.22362 0.72034 0.0
C2247 C 0.79933 0.22489 0.72141 0.0
C2248 C 0.77129 0.06506 0.72676 0.0
C2249 C 0.78314 0.07719 0.73477 0.0
H2250 H 0.7514 0.05137 0.71086 0.0
C2251 C 0.91074 0.1761 0.71637 0.0
C2252 C 0.89111 0.22246 0.70093 0.0
C2253 C 0.06481 0.25753 0.70528 0.0
C2254 C 0.1156 0.24206 0.708 0.0
C2255 C 0.10431 0.25578 0.69421 0.0
C2256 C 0.07472 0.26157 0.69697 0.0
C2257 C 0.12458 0.24604 0.69967 0.0
C2258 C 0.08549 0.24773 0.71085 0.0
C2259 C 0.03058 0.26008 0.70771 0.0
H2260 H 0.77855 0.32054 0.73206 0.0
H2261 H 0.82066 0.29394 0.72864 0.0
H2262 H 0.70999 0.28629 0.72825 0.0
H2263 H 0.72385 0.19608 0.71723 0.0
H2264 H 0.11143 0.25868 0.68779 0.0
H2265 H 0.05921 0.26877 0.69255 0.0
H2266 H 0.14752 0.24159 0.69739 0.0
H2267 H 0.07804 0.24411 0.71726 0.0
C2268 C 0.37568 0.07763 0.14226 0.0
C2269 C 0.35433 0.02041 0.13389 0.0
C2270 C 0.37064 0.06076 0.13461 0.0
C2271 C 0.3434 0.99741 0.14093 0.0
C2272 C 0.36482 0.05455 0.14933 0.0
C2273 C 0.34865 0.01441 0.14862 0.0
N2274 N 0.39099 0.1165 0.14279 0.0
C2275 C 0.39747 0.13426 0.15018 0.0
C2276 C 0.37075 0.07251 0.15693 0.0
C2277 C 0.38744 0.11255 0.15735 0.0
Gd2278 Gd 0.34685 0.19059 0.11913 0.0
Gd2279 Gd 0.40975 0.15014 0.13044 0.0
N2280 N 0.38055 0.08363 0.12787 0.0
C2281 C 0.34897 1.0043 0.12611 0.0
C2282 C 0.37608 0.06807 0.1203 0.0
C2283 C 0.35997 0.02827 0.11929 0.0
H2284 H 0.38499 0.08601 0.11502 0.0
H2285 H 0.35625 0.01614 0.11325 0.0
H2286 H 0.35869 0.24507 0.13597 0.0
H2287 H 0.4113 0.16534 0.15056 0.0
H2288 H 0.39083 0.3134 0.13969 0.0
H2289 H 0.33641 0.97343 0.12531 0.0
H2290 H 0.33074 0.96637 0.14048 0.0
H2291 H 0.35485 0.18821 0.09896 0.0
H2292 H 0.36288 0.05578 0.1625 0.0
H2293 H 0.39265 0.12666 0.1632 0.0
H2294 H 0.43333 0.37969 0.1142 0.0
H2295 H 0.34011 0.99625 0.15399 0.0
H2296 H 0.41218 0.30442 0.09008 0.0
H2297 H 0.38157 0.23424 0.0875 0.0
N2298 N 0.37116 0.23196 0.10791 0.0
C2299 C 0.38757 0.27034 0.10947 0.0
C2300 C 0.36874 0.2188 0.10016 0.0
C2301 C 0.40076 0.28436 0.09514 0.0
C2302 C 0.38358 0.24478 0.09366 0.0
C2303 C 0.40287 0.29761 0.10311 0.0
H2304 H 0.43125 0.35845 0.10008 0.0
N2305 N 0.37533 0.25531 0.12352 0.0
C2306 C 0.38978 0.28238 0.1175 0.0
C2307 C 0.408 0.33325 0.1274 0.0
C2308 C 0.40665 0.32205 0.11929 0.0
C2309 C 0.37407 0.2661 0.13134 0.0
C2310 C 0.3913 0.30511 0.13344 0.0
O2311 O 0.34391 0.11105 0.13083 0.0
O2312 O 0.32767 0.12783 0.11883 0.0
O2313 O 0.29455 0.19112 0.12333 0.0
O2314 O 0.30121 0.17991 0.11061 0.0
O2315 O 0.41882 0.16128 0.11695 0.0
O2316 O 0.36276 0.15347 0.11089 0.0
O2317 O 0.41175 0.22527 0.11771 0.0
O2318 O 0.43064 0.21415 0.13005 0.0
O2319 O 0.46262 0.15073 0.1261 0.0
O2320 O 0.45569 0.16332 0.13876 0.0
O2321 O 0.33792 0.17764 0.13297 0.0
O2322 O 0.39857 0.19228 0.13701 0.0
C2323 C 0.31802 0.10598 0.12528 0.0
C2324 C 0.39567 0.1525 0.11062 0.0
C2325 C 0.24177 0.17992 0.11386 0.0
C2326 C 0.18574 0.18844 0.1164 0.0
C2327 C 0.18882 0.15605 0.10415 0.0
C2328 C 0.2245 0.16118 0.10653 0.0
C2329 C 0.16958 0.16944 0.10903 0.0
C2330 C 0.22223 0.19386 0.11884 0.0
C2331 C 0.28006 0.18444 0.11601 0.0
C2332 C 0.42107 0.34919 0.11295 0.0
C2333 C 0.41959 0.33707 0.1049 0.0
H2334 H 0.42091 0.36345 0.12904 0.0
C2335 C 0.4378 0.23494 0.12341 0.0
C2336 C 0.36361 0.18464 0.13877 0.0
C2337 C 0.51481 0.16424 0.13596 0.0
C2338 C 0.57937 0.17563 0.13309 0.0
C2339 C 0.55735 0.16915 0.14705 0.0
C2340 C 0.52201 0.16367 0.14433 0.0
C2341 C 0.58592 0.17511 0.14147 0.0
C2342 C 0.54375 0.17024 0.13029 0.0
C2343 C 0.47734 0.15948 0.13342 0.0
H2344 H 0.17598 0.14157 0.09847 0.0
H2345 H 0.23855 0.15019 0.10259 0.0
H2346 H 0.1419 0.16517 0.10701 0.0
H2347 H 0.23508 0.20857 0.1245 0.0
H2348 H 0.56262 0.16881 0.1535 0.0
H2349 H 0.50027 0.15905 0.14883 0.0
H2350 H 0.61334 0.1794 0.14368 0.0
H2351 H 0.53877 0.1709 0.12382 0.0
C2352 C 1.00423 0.33547 0.14204 0.0
C2353 C 0.06091 0.36808 0.13338 0.0
C2354 C 0.02048 0.3456 0.1343 0.0
C2355 C 0.08467 0.38034 0.1403 0.0
C2356 C 0.02802 0.34846 0.149 0.0
C2357 C 0.06828 0.37071 0.14809 0.0
N2358 N 0.96524 0.31313 0.14277 0.0
C2359 C 0.94809 0.3042 0.15026 0.0
C2360 C 0.01062 0.33913 0.1567 0.0
C2361 C 0.97045 0.3174 0.15731 0.0
Gd2362 Gd 0.89247 0.1933 0.1198 0.0
Gd2363 Gd 0.93037 0.2961 0.13056 0.0
N2364 N 0.99679 0.33295 0.12768 0.0
C2365 C 0.07631 0.37776 0.12552 0.0
C2366 C 0.01165 0.34362 0.12004 0.0
C2367 C 0.05152 0.3657 0.11882 0.0
H2368 H 0.99315 0.33564 0.11486 0.0
H2369 H 0.06305 0.37366 0.11272 0.0
H2370 H 0.83757 0.14983 0.13654 0.0
H2371 H 0.91697 0.2876 0.15078 0.0
H2372 H 0.76907 0.11163 0.1401 0.0
H2373 H 0.10721 0.39494 0.12455 0.0
H2374 H 0.11579 0.39759 0.1397 0.0
H2375 H 0.89558 0.20256 0.09956 0.0
H2376 H 0.02789 0.34888 0.16219 0.0
H2377 H 0.95669 0.31058 0.16323 0.0
H2378 H 0.70361 0.0864 0.11446 0.0
H2379 H 0.087 0.38077 0.15337 0.0
H2380 H 0.7798 0.14079 0.09045 0.0
H2381 H 0.85001 0.1818 0.08801 0.0
N2382 N 0.85152 0.17433 0.10845 0.0
C2383 C 0.81313 0.15144 0.10993 0.0
C2384 C 0.86495 0.18512 0.10071 0.0
C2385 C 0.79965 0.14996 0.09555 0.0
C2386 C 0.83925 0.17318 0.09415 0.0
C2387 C 0.78612 0.13874 0.10351 0.0
H2388 H 0.72542 0.10531 0.10036 0.0
N2389 N 0.82755 0.1552 0.12402 0.0
C2390 C 0.80077 0.1416 0.11793 0.0
C2391 C 0.74959 0.10811 0.12775 0.0
C2392 C 0.76106 0.11809 0.11966 0.0
C2393 C 0.81658 0.14323 0.13184 0.0
C2394 C 0.77752 0.1204 0.13386 0.0
O2395 O 0.96939 0.26887 0.13121 0.0
O2396 O 0.95483 0.23795 0.11902 0.0
O2397 O 0.89396 0.14222 0.12441 0.0
O2398 O 0.90397 0.15785 0.11155 0.0
O2399 O 0.91733 0.2925 0.11715 0.0
O2400 O 0.92826 0.2461 0.11133 0.0
O2401 O 0.85581 0.22102 0.1182 0.0
O2402 O 0.86605 0.25316 0.13027 0.0
O2403 O 0.93054 0.34864 0.12609 0.0
O2404 O 0.91608 0.32858 0.13868 0.0
O2405 O 0.90458 0.19889 0.13376 0.0
O2406 O 0.8886 0.24425 0.13756 0.0
C2407 C 0.9772 0.25113 0.12538 0.0
C2408 C 0.92725 0.27893 0.11088 0.0
C2409 C 0.90591 0.10003 0.11537 0.0
C2410 C 0.89178 0.03324 0.11744 0.0
C2411 C 0.93556 0.07283 0.1067 0.0
C2412 C 0.93028 0.10352 0.10887 0.0
C2413 C 0.91645 0.038 0.11091 0.0
C2414 C 0.88664 0.06458 0.11973 0.0
C2415 C 0.90025 0.13333 0.11717 0.0
C2416 C 0.73415 0.10493 0.11326 0.0
C2417 C 0.74659 0.11545 0.10522 0.0
H2418 H 0.71937 0.09014 0.12933 0.0
C2419 C 0.84476 0.23659 0.12381 0.0
C2420 C 0.89578 0.21682 0.13945 0.0
C2421 C 0.91455 0.38628 0.13574 0.0
C2422 C 0.90372 0.43963 0.13269 0.0
C2423 C 0.90399 0.4208 0.14671 0.0
C2424 C 0.91118 0.39195 0.1441 0.0
C2425 C 0.90027 0.44453 0.14105 0.0
C2426 C 0.91069 0.41029 0.12999 0.0
C2427 C 0.92035 0.35409 0.13331 0.0
H2428 H 0.95443 0.07598 0.10167 0.0
H2429 H 0.94538 0.13017 0.10544 0.0
H2430 H 0.92081 0.01446 0.10905 0.0
H2431 H 0.8674 0.06117 0.1247 0.0
H2432 H 0.90123 0.42473 0.15315 0.0
H2433 H 0.91391 0.37391 0.14867 0.0
H2434 H 0.89459 0.46684 0.1432 0.0
H2435 H 0.91298 0.40623 0.12354 0.0
C2436 C 0.74832 0.69841 0.14253 0.0
C2437 C 0.70882 0.71722 0.13476 0.0
C2438 C 0.73408 0.70227 0.13513 0.0
C2439 C 0.69987 0.73029 0.14191 0.0
C2440 C 0.73769 0.70942 0.14979 0.0
C2441 C 0.71427 0.72638 0.14942 0.0
N2442 N 0.77095 0.682 0.14265 0.0
C2443 C 0.78159 0.67313 0.14986 0.0
C2444 C 0.74992 0.70194 0.1572 0.0
C2445 C 0.77125 0.68298 0.15723 0.0
Gd2446 Gd 0.89275 0.73559 0.11973 0.0
Gd2447 Gd 0.78815 0.66849 0.12991 0.0
N2448 N 0.74365 0.68974 0.12833 0.0
C2449 C 0.69226 0.71717 0.12724 0.0
C2450 C 0.72524 0.68661 0.12117 0.0
C2451 C 0.69965 0.70074 0.12047 0.0
H2452 H 0.72939 0.67211 0.11609 0.0
H2453 H 0.68505 0.69828 0.11478 0.0
H2454 H 0.93059 0.71905 0.13674 0.0
H2455 H 0.7981 0.65845 0.14992 0.0
H2456 H 0.96832 0.68836 0.1404 0.0
H2457 H 0.6724 0.72806 0.1267 0.0
H2458 H 0.68093 0.74238 0.14174 0.0
H2459 H 0.88156 0.72717 0.09951 0.0
H2460 H 0.74226 0.7098 0.16292 0.0
H2461 H 0.77995 0.67627 0.16295 0.0
H2462 H 0.99802 0.65235 0.11474 0.0
H2463 H 0.70623 0.73554 0.15493 0.0
H2464 H 0.94532 0.67503 0.09057 0.0
H2465 H 0.90336 0.70302 0.08802 0.0
N2466 N 0.90988 0.71177 0.10847 0.0
C2467 C 0.93295 0.69655 0.11003 0.0
C2468 C 0.89921 0.71427 0.1007 0.0
C2469 C 0.93559 0.68528 0.09565 0.0
C2470 C 0.91178 0.70094 0.09418 0.0
C2471 C 0.94645 0.68291 0.10364 0.0
H2472 H 0.9808 0.65659 0.10057 0.0
N2473 N 0.92707 0.70532 0.12417 0.0
C2474 C 0.94167 0.6931 0.11809 0.0
C2475 C 0.97403 0.6745 0.12801 0.0
C2476 C 0.9652 0.67701 0.11987 0.0
C2477 C 0.93776 0.70516 0.13205 0.0
C2478 C 0.96043 0.68885 0.13411 0.0
O2479 O 0.81085 0.73447 0.13018 0.0
O2480 O 0.8523 0.75869 0.11921 0.0
O2481 O 0.94535 0.78538 0.12441 0.0
O2482 O 0.93284 0.78022 0.11153 0.0
O2483 O 0.79063 0.66761 0.11609 0.0
O2484 O 0.84211 0.72591 0.11144 0.0
O2485 O 0.86177 0.67159 0.11709 0.0
O2486 O 0.83466 0.65271 0.12943 0.0
O2487 O 0.74345 0.61555 0.12421 0.0
O2488 O 0.75696 0.61655 0.13701 0.0
O2489 O 0.88578 0.74315 0.13352 0.0
O2490 O 0.84115 0.68143 0.1369 0.0
C2491 C 0.83273 0.76301 0.12511 0.0
C2492 C 0.80777 0.69427 0.11044 0.0
C2493 C 0.97972 0.84261 0.11634 0.0
C2494 C 0.04153 0.90283 0.11754 0.0
C2495 C 0.98777 0.90177 0.1104 0.0
C2496 C 0.96489 0.86227 0.11191 0.0
C2497 C 0.02591 0.92191 0.11315 0.0
C2498 C 0.01817 0.86315 0.11922 0.0
C2499 C 0.9574 0.80019 0.11721 0.0
C2500 C 0.97956 0.6644 0.11349 0.0
C2501 C 0.96997 0.66703 0.10541 0.0
H2502 H 0.99208 0.66241 0.12962 0.0
C2503 C 0.84544 0.64457 0.12257 0.0
C2504 C 0.86618 0.71656 0.13909 0.0
C2505 C 0.69435 0.56998 0.13294 0.0
C2506 C 0.63635 0.50742 0.13119 0.0
C2507 C 0.63836 0.55208 0.14146 0.0
C2508 C 0.67603 0.57887 0.13917 0.0
C2509 C 0.61856 0.51658 0.13749 0.0
C2510 C 0.67447 0.53411 0.12897 0.0
C2511 C 0.73514 0.59615 0.13101 0.0
H2512 H 0.97622 0.91669 0.10693 0.0
H2513 H 0.93604 0.84689 0.1094 0.0
H2514 H 0.04347 0.95238 0.11176 0.0
H2515 H 0.03032 0.84807 0.12245 0.0
H2516 H 0.62452 0.55874 0.14636 0.0
H2517 H 0.69107 0.60617 0.14237 0.0
H2518 H 0.58938 0.49603 0.13939 0.0
H2519 H 0.68861 0.52697 0.1242 0.0
C2520 C 0.81328 0.6901 0.61051 0.0
C2521 C 0.76327 0.67256 0.62068 0.0
C2522 C 0.8026 0.68829 0.61862 0.0
C2523 C 0.73522 0.65902 0.61451 0.0
C2524 C 0.78497 0.67526 0.60433 0.0
C2525 C 0.74591 0.65967 0.60639 0.0
N2526 N 0.85138 0.70677 0.60865 0.0
C2527 C 0.86319 0.70971 0.60074 0.0
C2528 C 0.79682 0.67742 0.59624 0.0
C2529 C 0.83613 0.69477 0.59444 0.0
Gd2530 Gd 0.93943 0.67112 0.62998 0.0
Gd2531 Gd 0.8947 0.73246 0.61956 0.0
N2532 N 0.83064 0.70326 0.62444 0.0
C2533 C 0.75334 0.67207 0.62886 0.0
C2534 C 0.8211 0.70583 0.63231 0.0
C2535 C 0.78244 0.68909 0.63469 0.0
H2536 H 0.84284 0.7222 0.63675 0.0
H2537 H 0.7752 0.69052 0.64098 0.0
H2538 H 0.00847 0.67758 0.61779 0.0
H2539 H 0.89353 0.72431 0.59924 0.0
H2540 H 0.08016 0.7137 0.61711 0.0
H2541 H 0.72344 0.65988 0.63069 0.0
H2542 H 0.70511 0.64833 0.61595 0.0
H2543 H 0.91394 0.65619 0.64977 0.0
H2544 H 0.77592 0.6663 0.59133 0.0
H2545 H 0.84563 0.69715 0.58819 0.0
H2546 H 0.11767 0.76603 0.64408 0.0
H2547 H 0.7238 0.64868 0.60172 0.0
H2548 H 0.01644 0.72218 0.66397 0.0
H2549 H 0.94582 0.67899 0.66316 0.0
N2550 N 0.96625 0.68721 0.6431 0.0
C2551 C 1.0054 0.70885 0.64346 0.0
C2552 C 0.94485 0.6753 0.65007 0.0
C2553 C 1.00275 0.71237 0.65808 0.0
C2554 C 0.96277 0.6879 0.65765 0.0
C2555 C 0.02473 0.72251 0.65094 0.0
H2556 H 0.08068 0.75569 0.65674 0.0
N2557 N 1.00655 0.69924 0.62938 0.0
C2558 C 0.02628 0.7149 0.63636 0.0
C2559 C 0.08656 0.73564 0.62935 0.0
C2560 C 0.06693 0.73444 0.6365 0.0
C2561 C 0.02503 0.6961 0.62274 0.0
C2562 C 0.06542 0.71529 0.62249 0.0
O2563 O 0.86498 0.66782 0.61735 0.0
O2564 O 0.87494 0.64758 0.6296 0.0
O2565 O 0.92882 0.61901 0.62367 0.0
O2566 O 0.93928 0.62434 0.63666 0.0
O2567 O 0.90855 0.73868 0.6334 0.0
O2568 O 0.89439 0.67744 0.63674 0.0
O2569 O 0.97622 0.73715 0.63031 0.0
O2570 O 0.95879 0.7586 0.61891 0.0
O2571 O 0.89197 0.78343 0.62401 0.0
O2572 O 0.90206 0.77736 0.6112 0.0
O2573 O 0.94574 0.6764 0.61625 0.0
O2574 O 0.93172 0.72145 0.61039 0.0
C2575 C 0.85401 0.64143 0.62303 0.0
C2576 C 0.90025 0.71138 0.6389 0.0
C2577 C 0.89633 0.56259 0.63157 0.0
C2578 C 0.86819 0.493 0.63051 0.0
C2579 C 0.83008 0.51997 0.63583 0.0
C2580 C 0.86141 0.55717 0.63479 0.0
C2581 C 0.83336 0.48797 0.63368 0.0
C2582 C 0.89973 0.5304 0.62947 0.0
C2583 C 0.9292 0.60164 0.63036 0.0
C2584 C 0.08639 0.75038 0.64385 0.0
C2585 C 0.0653 0.74444 0.65106 0.0
H2586 H 0.11782 0.75021 0.62919 0.0
C2587 C 0.98244 0.76398 0.62489 0.0
C2588 C 0.9441 0.69617 0.60997 0.0
C2589 C 0.90051 0.83565 0.61458 0.0
C2590 C 0.88946 0.89004 0.61708 0.0
C2591 C 0.92196 0.88804 0.60476 0.0
C2592 C 0.91844 0.85307 0.60717 0.0
C2593 C 0.90765 0.90638 0.60966 0.0
C2594 C 0.88587 0.85441 0.61959 0.0
C2595 C 0.89747 0.79798 0.61671 0.0
H2596 H 0.80325 0.51593 0.63833 0.0
H2597 H 0.85841 0.58164 0.63653 0.0
H2598 H 0.80885 0.45925 0.63455 0.0
H2599 H 0.92666 0.5344 0.62701 0.0
H2600 H 0.93585 0.901 0.59904 0.0
H2601 H 0.93 0.83968 0.6032 0.0
H2602 H 0.91062 0.93352 0.60762 0.0
H2603 H 0.87175 0.84146 0.6253 0.0
C2604 C 0.37053 0.14787 0.60863 0.0
C2605 C 0.39066 0.11238 0.61741 0.0
C2606 C 0.37658 0.13821 0.61639 0.0
C2607 C 0.39836 0.09642 0.61055 0.0
C2608 C 0.37836 0.132 0.60172 0.0
C2609 C 0.39222 0.1062 0.60272 0.0
N2610 N 0.35741 0.17315 0.60783 0.0
C2611 C 0.35053 0.18301 0.60032 0.0
C2612 C 0.37206 0.14256 0.59399 0.0
C2613 C 0.35799 0.16811 0.59329 0.0
Gd2614 Gd 0.41249 0.30097 0.62969 0.0
Gd2615 Gd 0.34444 0.19571 0.6199 0.0
N2616 N 0.36951 0.1547 0.62293 0.0
C2617 C 0.39666 0.10336 0.6253 0.0
C2618 C 0.37363 0.14442 0.63064 0.0
C2619 C 0.38781 0.11923 0.63194 0.0
H2620 H 0.36523 0.15449 0.63586 0.0
H2621 H 0.39138 0.11163 0.63807 0.0
H2622 H 0.37027 0.32485 0.6144 0.0
H2623 H 0.33806 0.20136 0.59972 0.0
H2624 H 0.33851 0.36282 0.61254 0.0
H2625 H 0.40756 0.08376 0.62633 0.0
H2626 H 0.4092 0.07658 0.61122 0.0
H2627 H 0.42527 0.2988 0.64969 0.0
H2628 H 0.37769 0.13095 0.58854 0.0
H2629 H 0.35244 0.17598 0.58735 0.0
H2630 H 0.32777 0.40112 0.63957 0.0
H2631 H 0.39839 0.09372 0.59748 0.0
H2632 H 0.37463 0.35767 0.66164 0.0
H2633 H 0.40848 0.32017 0.66236 0.0
N2634 N 0.39905 0.3214 0.64197 0.0
C2635 C 0.38133 0.34276 0.6414 0.0
C2636 C 0.40925 0.31373 0.64936 0.0
C2637 C 0.38151 0.34782 0.65608 0.0
C2638 C 0.4004 0.32649 0.65652 0.0
C2639 C 0.3719 0.35641 0.64846 0.0
H2640 H 0.34546 0.38848 0.65308 0.0
N2641 N 0.37893 0.33456 0.62708 0.0
C2642 C 0.3714 0.34996 0.63375 0.0
C2643 C 0.34045 0.37612 0.62528 0.0
C2644 C 0.35167 0.37086 0.63302 0.0
C2645 C 0.36696 0.33881 0.61957 0.0
C2646 C 0.348 0.35986 0.61854 0.0
O2647 O 0.40806 0.21951 0.61765 0.0
O2648 O 0.43437 0.2584 0.62886 0.0
O2649 O 0.46102 0.35401 0.62473 0.0
O2650 O 0.46462 0.33277 0.63668 0.0
O2651 O 0.34541 0.20171 0.63418 0.0
O2652 O 0.40707 0.25089 0.63659 0.0
O2653 O 0.34692 0.27139 0.63211 0.0
O2654 O 0.33026 0.24269 0.61989 0.0
O2655 O 0.29339 0.14557 0.62507 0.0
O2656 O 0.29116 0.16514 0.61301 0.0
O2657 O 0.41939 0.29503 0.61626 0.0
O2658 O 0.36127 0.24734 0.61103 0.0
C2659 C 0.43708 0.23913 0.62263 0.0
C2660 C 0.37494 0.22173 0.63925 0.0
C2661 C 0.51169 0.39722 0.63376 0.0
C2662 C 0.57813 0.45018 0.63295 0.0
C2663 C 0.53652 0.44758 0.64401 0.0
C2664 C 0.50622 0.41332 0.64088 0.0
C2665 C 0.57229 0.46594 0.64008 0.0
C2666 C 0.54772 0.41578 0.6298 0.0
C2667 C 0.48256 0.35852 0.63106 0.0
C2668 C 0.34287 0.38501 0.64003 0.0
C2669 C 0.35289 0.37775 0.64772 0.0
H2670 H 0.3252 0.39193 0.62447 0.0
C2671 C 0.32015 0.25194 0.62663 0.0
C2672 C 0.39471 0.28041 0.61024 0.0
C2673 C 0.25429 0.09752 0.61529 0.0
C2674 C 0.20408 0.02929 0.61626 0.0
C2675 C 0.24786 0.05195 0.60473 0.0
C2676 C 0.26626 0.08925 0.60788 0.0
C2677 C 0.21696 0.02218 0.60887 0.0
C2678 C 0.22286 0.0671 0.6195 0.0
C2679 C 0.2735 0.13794 0.61837 0.0
H2680 H 0.53241 0.45971 0.64955 0.0
H2681 H 0.47894 0.39893 0.64411 0.0
H2682 H 0.59554 0.49243 0.64261 0.0
H2683 H 0.55231 0.40314 0.62437 0.0
H2684 H 0.25741 0.04617 0.59901 0.0
H2685 H 0.28949 0.11163 0.60439 0.0
H2686 H 0.20288 0.9934 0.60628 0.0
H2687 H 0.21293 0.07282 0.62519 0.0
C2688 C 0.93257 0.25542 0.60892 0.0
C2689 C 0.97302 0.30955 0.61771 0.0
C2690 C 0.94521 0.27025 0.61664 0.0
C2691 C 0.98782 0.33372 0.61088 0.0
C2692 C 0.94772 0.27949 0.60203 0.0
C2693 C 0.97516 0.31874 0.60306 0.0
N2694 N 0.90636 0.21723 0.60813 0.0
C2695 C 0.89556 0.20093 0.60059 0.0
C2696 C 0.93538 0.26322 0.5943 0.0
C2697 C 0.90942 0.22371 0.59358 0.0
Gd2698 Gd 0.7768 0.13903 0.62974 0.0
Gd2699 Gd 0.8856 0.18135 0.62028 0.0
N2700 N 0.92968 0.24634 0.62313 0.0
C2701 C 0.98502 0.32335 0.62562 0.0
C2702 C 0.94263 0.25917 0.63081 0.0
C2703 C 0.96997 0.29794 0.63219 0.0
H2704 H 0.93268 0.2394 0.63585 0.0
H2705 H 0.97979 0.30805 0.63832 0.0
H2706 H 0.73881 0.08994 0.61213 0.0
H2707 H 0.87702 0.17018 0.5999 0.0
H2708 H 0.71206 0.02408 0.60693 0.0
H2709 H 1.00625 0.35337 0.6267 0.0
H2710 H 0.0091 0.36401 0.61158 0.0
H2711 H 0.76987 0.1329 0.6501 0.0
H2712 H 0.94633 0.28072 0.58886 0.0
H2713 H 0.90051 0.21066 0.58762 0.0
H2714 H 0.69249 0.94887 0.63101 0.0
H2715 H 0.98703 0.33767 0.59784 0.0
H2716 H 0.71808 0.01361 0.65669 0.0
H2717 H 0.74458 0.08177 0.66064 0.0
N2718 N 0.75558 0.09347 0.64029 0.0
C2719 C 0.73856 0.05583 0.63795 0.0
C2720 C 0.75775 0.10302 0.64832 0.0
C2721 C 0.72837 0.03573 0.65203 0.0
C2722 C 0.7437 0.07427 0.65429 0.0
C2723 C 0.72555 0.02604 0.64378 0.0
H2724 H 0.6999 0.96439 0.64561 0.0
N2725 N 0.74601 0.07633 0.62415 0.0
C2726 C 0.73413 0.04706 0.62967 0.0
C2727 C 0.71049 1.0002 0.61877 0.0
C2728 C 0.71683 0.00827 0.62709 0.0
C2729 C 0.73596 0.06804 0.61619 0.0
C2730 C 0.71917 0.03018 0.61331 0.0
O2731 O 0.86585 0.22521 0.62077 0.0
O2732 O 0.8144 0.20476 0.62996 0.0
O2733 O 0.72575 0.13854 0.62473 0.0
O2734 O 0.7342 0.13969 0.63769 0.0
O2735 O 0.87697 0.17408 0.63434 0.0
O2736 O 0.82294 0.17819 0.63842 0.0
O2737 O 0.80958 0.10611 0.63165 0.0
O2738 O 0.83787 0.12066 0.61943 0.0
O2739 O 0.93279 0.1763 0.62593 0.0
O2740 O 0.91868 0.16174 0.61334 0.0
O2741 O 0.79015 0.16332 0.61698 0.0
O2742 O 0.83442 0.14941 0.61142 0.0
C2743 C 0.84196 0.23121 0.62525 0.0
C2744 C 0.85683 0.18132 0.63985 0.0
C2745 C 0.70394 0.17316 0.63284 0.0
C2746 C 0.66152 0.19939 0.63017 0.0
C2747 C 0.7164 0.2332 0.6392 0.0
C2748 C 0.72616 0.20466 0.63801 0.0
C2749 C 0.68455 0.23088 0.63523 0.0
C2750 C 0.67118 0.17038 0.62898 0.0
C2751 C 0.71381 0.14239 0.63186 0.0
C2752 C 0.70544 0.97875 0.63289 0.0
C2753 C 0.70961 0.98759 0.64121 0.0
H2754 H 0.69723 0.97081 0.61654 0.0
C2755 C 0.82812 0.09931 0.6259 0.0
C2756 C 0.80407 0.15427 0.61068 0.0
C2757 C 0.98522 0.19124 0.61675 0.0
C2758 C 0.05342 0.2086 0.61813 0.0
C2759 C 0.03407 0.23748 0.60747 0.0
C2760 C 0.99583 0.21645 0.61004 0.0
C2761 C 0.06262 0.23359 0.61146 0.0
C2762 C 0.01448 0.18735 0.62082 0.0
C2763 C 0.94353 0.16807 0.61909 0.0
H2764 H 0.73342 0.25704 0.64327 0.0
H2765 H 0.75099 0.20714 0.64122 0.0
H2766 H 0.67721 0.25319 0.63629 0.0
H2767 H 0.65317 0.14576 0.62515 0.0
H2768 H 0.04156 0.25664 0.60228 0.0
H2769 H 0.97448 0.21952 0.60663 0.0
H2770 H 0.09215 0.25005 0.6093 0.0
H2771 H 1.00703 0.16784 0.62594 0.0
C2772 C 0.37571 0.15152 0.22934 0.0
C2773 C 0.35056 0.0955 0.22048 0.0
C2774 C 0.36883 0.13591 0.22153 0.0
C2775 C 0.33946 0.07122 0.22732 0.0
C2776 C 0.36499 0.12713 0.23621 0.0
C2777 C 0.34675 0.08698 0.23516 0.0
N2778 N 0.39248 0.19044 0.23022 0.0
C2779 C 0.40145 0.20692 0.23776 0.0
C2780 C 0.37295 0.14382 0.24397 0.0
C2781 C 0.39158 0.18389 0.24474 0.0
Gd2782 Gd 0.34182 0.27305 0.2114 0.0
Gd2783 Gd 0.40782 0.22636 0.21814 0.0
N2784 N 0.37937 0.16008 0.215 0.0
C2785 C 0.34383 0.0806 0.21257 0.0
C2786 C 0.37434 0.14559 0.20728 0.0
C2787 C 0.35608 0.10578 0.20595 0.0
H2788 H 0.38477 0.16421 0.20206 0.0
H2789 H 0.35177 0.09454 0.19981 0.0
H2790 H 0.3435 0.32398 0.22741 0.0
H2791 H 0.41709 0.23789 0.23846 0.0
H2792 H 0.37258 0.39265 0.23142 0.0
H2793 H 0.32973 0.04976 0.21152 0.0
H2794 H 0.32525 0.04016 0.2266 0.0
H2795 H 0.35169 0.273 0.19071 0.0
H2796 H 0.36528 0.12606 0.24939 0.0
H2797 H 0.39861 0.1971 0.25071 0.0
H2798 H 0.43715 0.46227 0.20716 0.0
H2799 H 0.33813 0.06783 0.24037 0.0
H2800 H 0.4246 0.38922 0.18311 0.0
H2801 H 0.3878 0.31949 0.17995 0.0
N2802 N 0.37213 0.31453 0.20024 0.0
C2803 C 0.38968 0.35295 0.20198 0.0
C2804 C 0.36974 0.30266 0.19236 0.0
C2805 C 0.40982 0.36862 0.18795 0.0
C2806 C 0.3893 0.32929 0.18616 0.0
C2807 C 0.40935 0.38097 0.1959 0.0
H2808 H 0.44243 0.44224 0.19328 0.0
N2809 N 0.36774 0.33692 0.21557 0.0
C2810 C 0.38661 0.36445 0.2098 0.0
C2811 C 0.39861 0.41404 0.21966 0.0
C2812 C 0.40321 0.40389 0.21175 0.0
C2813 C 0.36123 0.34639 0.22313 0.0
C2814 C 0.37712 0.38513 0.22535 0.0
O2815 O 0.34369 0.19122 0.22066 0.0
O2816 O 0.31506 0.20776 0.21042 0.0
O2817 O 0.28963 0.26534 0.21724 0.0
O2818 O 0.29935 0.27952 0.20445 0.0
O2819 O 0.40001 0.22822 0.20425 0.0
O2820 O 0.34527 0.23379 0.20203 0.0
O2821 O 0.40363 0.31229 0.21588 0.0
O2822 O 0.42684 0.27766 0.21004 0.0
O2823 O 0.45271 0.21343 0.21464 0.0
O2824 O 0.46452 0.25641 0.22388 0.0
O2825 O 0.33709 0.25127 0.22411 0.0
O2826 O 0.39847 0.26483 0.22755 0.0
C2827 C 0.31522 0.18234 0.21554 0.0
C2828 C 0.3713 0.22487 0.19957 0.0
C2829 C 0.23597 0.23625 0.20858 0.0
C2830 C 0.16633 0.20478 0.21021 0.0
C2831 C 0.19469 0.17331 0.20253 0.0
C2832 C 0.23144 0.20466 0.20397 0.0
C2833 C 0.16225 0.17319 0.20568 0.0
C2834 C 0.20332 0.23641 0.21163 0.0
C2835 C 0.27472 0.2683 0.21042 0.0
C2836 C 0.42384 0.43178 0.20576 0.0
C2837 C 0.42696 0.42036 0.19787 0.0
H2838 H 0.41098 0.44405 0.2214 0.0
C2839 C 0.43335 0.31018 0.21318 0.0
C2840 C 0.36531 0.26358 0.22937 0.0
C2841 C 0.50168 0.22433 0.22422 0.0
C2842 C 0.55424 0.20935 0.2242 0.0
C2843 C 0.52088 0.20648 0.23678 0.0
C2844 C 0.49729 0.21728 0.23263 0.0
C2845 C 0.54921 0.20265 0.23261 0.0
C2846 C 0.53028 0.22014 0.21999 0.0
C2847 C 0.47781 0.2374 0.21983 0.0
H2848 H 0.19132 0.14911 0.19896 0.0
H2849 H 0.25632 0.20428 0.20148 0.0
H2850 H 0.13387 0.14872 0.20446 0.0
H2851 H 0.20667 0.26074 0.21519 0.0
H2852 H 0.51736 0.20129 0.24327 0.0
H2853 H 0.47595 0.22053 0.23603 0.0
H2854 H 0.56735 0.19446 0.23597 0.0
H2855 H 0.53416 0.22566 0.2135 0.0
C2856 C 0.93923 0.262 0.23045 0.0
C2857 C 0.99253 0.29386 0.22094 0.0
C2858 C 0.95252 0.27097 0.22248 0.0
C2859 C 0.01873 0.30723 0.22747 0.0
C2860 C 0.96552 0.27535 0.23702 0.0
C2861 C 1.00527 0.29809 0.23548 0.0
N2862 N 0.9007 0.23925 0.23177 0.0
C2863 C 0.88648 0.22925 0.23949 0.0
C2864 C 0.95112 0.26509 0.24494 0.0
C2865 C 0.91141 0.24198 0.24618 0.0
Gd2866 Gd 0.81599 0.11399 0.21003 0.0
Gd2867 Gd 0.86081 0.21973 0.22022 0.0
N2868 N 0.92644 0.25718 0.21627 0.0
C2869 C 1.0051 0.303 0.21289 0.0
C2870 C 0.93863 0.26867 0.20846 0.0
C2871 C 0.97797 0.2908 0.20664 0.0
H2872 H 0.91862 0.26241 0.20357 0.0
H2873 H 0.9873 0.29911 0.20041 0.0
H2874 H 0.75543 0.07846 0.22632 0.0
H2875 H 0.85576 0.2122 0.24052 0.0
H2876 H 0.68623 0.04561 0.22912 0.0
H2877 H 0.03556 0.32036 0.21146 0.0
H2878 H 0.04951 0.32473 0.22638 0.0
H2879 H 0.82426 0.12176 0.18977 0.0
H2880 H 0.97039 0.27484 0.25014 0.0
H2881 H 0.89995 0.2341 0.25229 0.0
H2882 H 0.62826 0.02586 0.20275 0.0
H2883 H 0.02587 0.30854 0.24045 0.0
H2884 H 0.71132 0.07182 0.17947 0.0
H2885 H 0.78226 0.1054 0.17773 0.0
N2886 N 0.77831 0.10005 0.19823 0.0
C2887 C 0.73939 0.0803 0.19933 0.0
C2888 C 0.79368 0.10876 0.1906 0.0
C2889 C 0.7298 0.07954 0.18478 0.0
C2890 C 0.7698 0.09878 0.18377 0.0
C2891 C 0.71408 0.06991 0.19262 0.0
H2892 H 0.65417 0.04198 0.18884 0.0
N2893 N 0.74991 0.08151 0.21358 0.0
C2894 C 0.72478 0.07084 0.20721 0.0
C2895 C 0.67059 0.04247 0.2165 0.0
C2896 C 0.68447 0.05122 0.20852 0.0
C2897 C 0.73627 0.07192 0.22133 0.0
C2898 C 0.69664 0.05272 0.22293 0.0
O2899 O 0.89596 0.19072 0.22224 0.0
O2900 O 0.88116 0.15223 0.21089 0.0
O2901 O 0.81219 0.05925 0.21402 0.0
O2902 O 0.82686 0.08023 0.20148 0.0
O2903 O 0.85377 0.21452 0.20599 0.0
O2904 O 0.86321 0.16366 0.20352 0.0
O2905 O 0.7841 0.14802 0.20851 0.0
O2906 O 0.79798 0.17648 0.22089 0.0
O2907 O 0.85708 0.26995 0.21541 0.0
O2908 O 0.85181 0.25662 0.22835 0.0
O2909 O 0.82932 0.11763 0.22335 0.0
O2910 O 0.82413 0.16796 0.22898 0.0
C2911 C 0.90365 0.1703 0.21715 0.0
C2912 C 0.86185 0.19366 0.20088 0.0
C2913 C 0.82548 0.02063 0.20414 0.0
C2914 C 0.84066 0.96964 0.20674 0.0
C2915 C 0.83062 0.98398 0.19289 0.0
C2916 C 0.82381 0.01273 0.19576 0.0
C2917 C 0.83903 0.9626 0.19833 0.0
C2918 C 0.83399 0.9989 0.20968 0.0
C2919 C 0.82213 0.05411 0.20675 0.0
C2920 C 0.65927 0.04098 0.20185 0.0
C2921 C 0.67402 0.0502 0.19392 0.0
H2922 H 0.63986 0.02753 0.21775 0.0
C2923 C 0.77649 0.16541 0.2144 0.0
C2924 C 0.82289 0.13401 0.22961 0.0
C2925 C 0.84668 0.31256 0.2249 0.0
C2926 C 0.85494 0.37739 0.22293 0.0
C2927 C 0.82112 0.33915 0.23483 0.0
C2928 C 0.82675 0.30933 0.23218 0.0
C2929 C 0.83502 0.37278 0.23027 0.0
C2930 C 0.86109 0.34708 0.22024 0.0
C2931 C 0.85326 0.28008 0.22274 0.0
H2932 H 0.82959 0.97841 0.18643 0.0
H2933 H 0.81774 0.02921 0.19136 0.0
H2934 H 0.8444 0.94041 0.19597 0.0
H2935 H 0.83587 1.00491 0.21615 0.0
H2936 H 0.80596 0.33622 0.24048 0.0
H2937 H 0.81552 0.28357 0.2359 0.0
H2938 H 0.8304 0.3956 0.23253 0.0
H2939 H 0.87685 0.35035 0.21466 0.0
C2940 C 0.82564 0.71952 0.23018 0.0
C2941 C 0.79237 0.74054 0.22096 0.0
C2942 C 0.81662 0.72483 0.22227 0.0
C2943 C 0.7787 0.75217 0.22764 0.0
C2944 C 0.81231 0.73163 0.23689 0.0
C2945 C 0.78906 0.74821 0.23556 0.0
N2946 N 0.8474 0.70249 0.23133 0.0
C2947 C 0.85662 0.69645 0.23898 0.0
C2948 C 0.8224 0.72632 0.24475 0.0
C2949 C 0.84461 0.70861 0.24579 0.0
Gd2950 Gd 0.97298 0.74278 0.2108 0.0
Gd2951 Gd 0.86498 0.68236 0.21951 0.0
N2952 N 0.83063 0.71371 0.21588 0.0
C2953 C 0.78172 0.74322 0.21298 0.0
C2954 C 0.81891 0.7149 0.20813 0.0
C2955 C 0.79508 0.7304 0.20655 0.0
H2956 H 0.82595 0.70228 0.20314 0.0
H2957 H 0.78605 0.73132 0.20038 0.0
H2958 H 0.03108 0.74926 0.22601 0.0
H2959 H 0.87253 0.6815 0.23989 0.0
H2960 H 0.07427 0.72385 0.22948 0.0
H2961 H 0.76239 0.75423 0.21174 0.0
H2962 H 0.75998 0.76421 0.22674 0.0
H2963 H 0.959 0.72906 0.19065 0.0
H2964 H 0.81282 0.73537 0.25004 0.0
H2965 H 0.85205 0.70385 0.25185 0.0
H2966 H 0.06183 0.64222 0.20696 0.0
H2967 H 0.77845 0.75757 0.24064 0.0
H2968 H 0.99831 0.65233 0.18311 0.0
H2969 H 0.96674 0.69042 0.1799 0.0
N2970 N 0.98244 0.71035 0.19994 0.0
C2971 C 1.00214 0.69171 0.20173 0.0
C2972 C 0.97101 0.71118 0.19217 0.0
C2973 C 0.99421 0.66865 0.18788 0.0
C2974 C 0.97616 0.68993 0.18605 0.0
C2975 C 0.00818 0.66999 0.19576 0.0
H2976 H 0.03328 0.63395 0.19332 0.0
N2977 N 0.01073 0.71656 0.21514 0.0
C2978 C 0.01675 0.695 0.20955 0.0
C2979 C 0.05927 0.68767 0.21887 0.0
C2980 C 0.03984 0.67856 0.21141 0.0
C2981 C 0.03196 0.72803 0.22211 0.0
C2982 C 0.05661 0.71385 0.22407 0.0
O2983 O 0.89734 0.74635 0.22217 0.0
O2984 O 0.93822 0.77357 0.21126 0.0
O2985 O 0.02399 0.79493 0.21508 0.0
O2986 O 0.01524 0.78295 0.20221 0.0
O2987 O 0.87462 0.68545 0.20546 0.0
O2988 O 0.92817 0.74493 0.20313 0.0
O2989 O 0.93663 0.6764 0.20934 0.0
O2990 O 0.90101 0.65459 0.22099 0.0
O2991 O 0.81932 0.63091 0.21342 0.0
O2992 O 0.81566 0.6388 0.22629 0.0
O2993 O 0.96631 0.74617 0.22441 0.0
O2994 O 0.91286 0.68816 0.22832 0.0
C2995 C 0.91663 0.77514 0.21714 0.0
C2996 C 0.89604 0.71517 0.20058 0.0
C2997 C 0.04424 0.84824 0.2063 0.0
C2998 C 0.08585 0.91789 0.20818 0.0
C2999 C 0.02503 0.89258 0.20085 0.0
C3000 C 0.0176 0.85501 0.20208 0.0
C3001 C 0.05881 0.92379 0.20388 0.0
C3002 C 0.07857 0.87986 0.20931 0.0
C3003 C 0.03558 0.80826 0.20777 0.0
C3004 C 0.04469 0.65561 0.20558 0.0
C3005 C 0.02863 0.65108 0.1978 0.0
H3006 H 0.07816 0.67652 0.22045 0.0
C3007 C 0.92041 0.65012 0.21511 0.0
C3008 C 0.94708 0.71916 0.22986 0.0
C3009 C 0.777 0.57496 0.22131 0.0
C3010 C 0.71508 0.51365 0.22176 0.0
C3011 C 0.77406 0.51758 0.22698 0.0
C3012 C 0.79533 0.55664 0.22493 0.0
C3013 C 0.73438 0.49632 0.22545 0.0
C3014 C 0.73682 0.5532 0.21962 0.0
C3015 C 0.79856 0.61727 0.22 0.0
H3016 H 1.00445 0.89753 0.19756 0.0
H3017 H 0.99096 0.83122 0.19974 0.0
H3018 H 0.06399 0.95273 0.2028 0.0
H3019 H 0.09908 0.87487 0.21265 0.0
H3020 H 0.78832 0.50376 0.22987 0.0
H3021 H 0.82592 0.57276 0.22632 0.0
H3022 H 0.71866 0.46609 0.22714 0.0
H3023 H 0.72233 0.5673 0.21693 0.0
C3024 C 0.4411 0.13497 0.10382 0.0
C3025 C 0.40799 0.13892 0.10323 0.0
C3026 C 0.45316 0.12009 0.09746 0.0
C3027 C 0.43266 0.10966 0.09003 0.0
C3028 C 0.39969 0.11423 0.08922 0.0
C3029 C 0.38742 0.12831 0.09585 0.0
C3030 C 0.48818 0.11559 0.09873 0.0
C3031 C 0.37754 0.1044 0.08132 0.0
C3032 C 0.4928 0.11067 0.07184 0.0
C3033 C 0.48095 0.07137 0.07077 0.0
C3034 C 0.47644 0.12316 0.07785 0.0
C3035 C 0.44743 0.09591 0.08308 0.0
C3036 C 0.43562 0.05618 0.08214 0.0
C3037 C 0.45247 0.04438 0.07601 0.0
C3038 C 0.49042 0.16578 0.07861 0.0
C3039 C 0.4051 0.02612 0.08761 0.0
H3040 H 0.4577 0.14282 0.1094 0.0
H3041 H 0.36189 0.13099 0.09524 0.0
H3042 H 0.48069 0.08536 0.0975 0.0
H3043 H 0.51134 0.13432 0.0944 0.0
H3044 H 0.49987 0.12323 0.10502 0.0
H3045 H 0.35319 0.1103 0.08154 0.0
H3046 H 0.39716 0.12136 0.07627 0.0
H3047 H 0.36594 0.07345 0.07987 0.0
H3048 H 0.51469 0.13197 0.06785 0.0
H3049 H 0.44255 0.01396 0.07518 0.0
H3050 H 0.5046 0.17649 0.0846 0.0
H3051 H 0.46559 0.17088 0.07833 0.0
H3052 H 0.51134 0.18305 0.07376 0.0
H3053 H 0.41494 0.03194 0.09404 0.0
H3054 H 0.39833 0.9964 0.08601 0.0
H3055 H 0.37821 0.02767 0.08721 0.0
C3056 C 0.95508 0.29729 0.09638 0.0
C3057 C 0.94038 0.30492 0.10348 0.0
C3058 C 0.96965 0.32433 0.08986 0.0
C3059 C 0.97074 0.36039 0.09051 0.0
C3060 C 0.956 0.36804 0.09765 0.0
C3061 C 0.94052 0.34028 0.10387 0.0
C3062 C 0.98387 0.31433 0.08226 0.0
C3063 C 0.95662 0.40586 0.09877 0.0
C3064 C 0.03628 0.4462 0.07649 0.0
C3065 C 0.00966 0.44524 0.07078 0.0
C3066 C 0.02419 0.41892 0.08295 0.0
C3067 C 0.98476 0.38939 0.08362 0.0
C3068 C 0.95783 0.38916 0.07799 0.0
C3069 C 0.97038 0.41731 0.07183 0.0
C3070 C 0.05371 0.42128 0.08898 0.0
C3071 C 0.91568 0.35835 0.07831 0.0
H3072 H 0.95535 0.27041 0.09593 0.0
H3073 H 0.92924 0.34714 0.10921 0.0
H3074 H 0.96892 0.31724 0.07684 0.0
H3075 H 0.0152 0.33485 0.08147 0.0
H3076 H 0.97913 0.28451 0.08244 0.0
H3077 H 0.94684 0.40867 0.10493 0.0
H3078 H 0.98626 0.43043 0.09778 0.0
H3079 H 0.93756 0.4084 0.09421 0.0
H3080 H 0.06665 0.46718 0.07574 0.0
H3081 H 0.94933 0.41616 0.0675 0.0
H3082 H 0.05603 0.39484 0.08858 0.0
H3083 H 0.04436 0.42273 0.09527 0.0
H3084 H 0.08271 0.44683 0.08791 0.0
H3085 H 0.91288 0.32937 0.07785 0.0
H3086 H 0.89857 0.36141 0.07333 0.0
H3087 H 0.90286 0.35952 0.08421 0.0
C3088 C 0.63348 0.59371 0.0785 0.0
C3089 C 0.63482 0.61777 0.07215 0.0
C3090 C 0.66116 0.60802 0.08487 0.0
C3091 C 0.69323 0.64647 0.08451 0.0
C3092 C 0.69424 0.67056 0.07804 0.0
C3093 C 0.66368 0.65667 0.07239 0.0
C3094 C 0.65642 0.5809 0.09173 0.0
C3095 C 0.72883 0.70992 0.07641 0.0
C3096 C 0.76128 0.7046 0.10211 0.0
C3097 C 0.785 0.68824 0.10284 0.0
C3098 C 0.7307 0.69042 0.09641 0.0
C3099 C 0.72563 0.66136 0.09074 0.0
C3100 C 0.75211 0.64732 0.09101 0.0
C3101 C 0.78029 0.6598 0.09723 0.0
C3102 C 0.7026 0.70521 0.09679 0.0
C3103 C 0.75081 0.61848 0.08492 0.0
H3104 H 0.61158 0.56339 0.07838 0.0
H3105 H 0.66396 0.67589 0.06773 0.0
H3106 H 0.66781 0.56195 0.08978 0.0
H3107 H 0.67172 0.59643 0.09735 0.0
H3108 H 0.62533 0.56184 0.09319 0.0
H3109 H 0.71928 0.73136 0.07545 0.0
H3110 H 0.75115 0.72055 0.08123 0.0
H3111 H 0.7428 0.70852 0.07068 0.0
H3112 H 0.76466 0.72645 0.10646 0.0
H3113 H 0.79834 0.64676 0.09778 0.0
H3114 H 0.67274 0.68058 0.09754 0.0
H3115 H 0.70341 0.72025 0.09108 0.0
H3116 H 0.70915 0.72591 0.10186 0.0
H3117 H 0.73612 0.58932 0.08771 0.0
H3118 H 0.78057 0.62523 0.08333 0.0
H3119 H 0.73553 0.61774 0.07922 0.0
C3120 C 0.04983 0.41816 0.43531 0.0
C3121 C 0.05684 0.45614 0.43533 0.0
C3122 C 0.06529 0.40464 0.42931 0.0
C3123 C 0.08422 0.42788 0.42241 0.0
C3124 C 0.08729 0.465 0.4219 0.0
C3125 C 0.07485 0.47913 0.42848 0.0
C3126 C 0.0628 0.36623 0.43087 0.0
C3127 C 0.10457 0.49081 0.41458 0.0
C3128 C 0.157 0.41775 0.40873 0.0
C3129 C 0.13289 0.38804 0.40337 0.0
C3130 C 0.14179 0.42981 0.41512 0.0
C3131 C 0.10113 0.41365 0.41591 0.0
C3132 C 0.07668 0.38319 0.41053 0.0
C3133 C 0.09284 0.37007 0.40452 0.0
C3134 C 0.16979 0.46068 0.42083 0.0
C3135 C 0.03334 0.36536 0.41086 0.0
H3136 H 0.03321 0.39911 0.44022 0.0
H3137 H 0.08017 0.5085 0.42834 0.0
H3138 H 0.07869 0.35872 0.42639 0.0
H3139 H 0.07466 0.36657 0.437 0.0
H3140 H 0.03201 0.34308 0.43095 0.0
H3141 H 0.1344 0.51387 0.41606 0.0
H3142 H 0.10539 0.47496 0.40911 0.0
H3143 H 0.08783 0.50533 0.41309 0.0
H3144 H 0.18801 0.43232 0.40779 0.0
H3145 H 0.07402 0.34769 0.4003 0.0
H3146 H 0.15731 0.45799 0.42699 0.0
H3147 H 0.17765 0.48945 0.41833 0.0
H3148 H 0.1969 0.45953 0.42141 0.0
H3149 H 0.02186 0.34659 0.41629 0.0
H3150 H 0.01895 0.34725 0.40544 0.0
H3151 H 0.0253 0.38815 0.41134 0.0
C3152 C 0.63666 0.6291 0.43079 0.0
C3153 C 0.60478 0.62389 0.4354 0.0
C3154 C 0.65346 0.65844 0.42474 0.0
C3155 C 0.6381 0.68321 0.42319 0.0
C3156 C 0.60544 0.67733 0.42773 0.0
C3157 C 0.58936 0.64805 0.43368 0.0
C3158 C 0.68799 0.66325 0.42005 0.0
C3159 C 0.58732 0.70215 0.42632 0.0
C3160 C 0.69571 0.7798 0.41138 0.0
C3161 C 0.67837 0.76994 0.40364 0.0
C3162 C 0.68324 0.7521 0.4178 0.0
C3163 C 0.65373 0.71312 0.41642 0.0
C3164 C 0.63697 0.70305 0.40858 0.0
C3165 C 0.64881 0.73131 0.40245 0.0
C3166 C 0.70108 0.76468 0.42612 0.0
C3167 C 0.60598 0.66216 0.40664 0.0
H3168 H 0.64929 0.61123 0.43211 0.0
H3169 H 0.56464 0.64448 0.43712 0.0
H3170 H 0.68155 0.66014 0.41343 0.0
H3171 H 0.71285 0.69271 0.42103 0.0
H3172 H 0.69655 0.64185 0.42189 0.0
H3173 H 0.56328 0.69532 0.43062 0.0
H3174 H 0.6094 0.7331 0.42697 0.0
H3175 H 0.57589 0.69796 0.42002 0.0
H3176 H 0.71846 0.80918 0.41248 0.0
H3177 H 0.63503 0.72249 0.39658 0.0
H3178 H 0.71396 0.74701 0.42807 0.0
H3179 H 0.67838 0.75979 0.43063 0.0
H3180 H 0.72376 0.79565 0.42627 0.0
H3181 H 0.61619 0.64176 0.40819 0.0
H3182 H 0.59754 0.65832 0.40011 0.0
H3183 H 0.57988 0.65411 0.41036 0.0
C3184 C 0.34734 0.95711 0.40288 0.0
C3185 C 0.30782 0.94512 0.40385 0.0
C3186 C 0.37406 0.97282 0.40924 0.0
C3187 C 0.36142 0.97565 0.41708 0.0
C3188 C 0.32152 0.96321 0.41827 0.0
C3189 C 0.29532 0.94889 0.4116 0.0
C3190 C 0.41604 0.98594 0.40752 0.0
C3191 C 0.30635 0.96487 0.42656 0.0
C3192 C 0.42742 0.97481 0.43375 0.0
C3193 C 0.44846 0.01369 0.4362 0.0
C3194 C 0.39812 0.96207 0.42785 0.0
C3195 C 0.39008 0.98892 0.42399 0.0
C3196 C 0.41251 0.02862 0.42613 0.0
C3197 C 0.44129 0.04055 0.43224 0.0
C3198 C 0.37505 0.91949 0.4259 0.0
C3199 C 0.40541 0.0583 0.42207 0.0
H3200 H 0.35822 0.95524 0.39699 0.0
H3201 H 0.26516 0.93993 0.41251 0.0
H3202 H 0.43476 0.01595 0.40971 0.0
H3203 H 0.4247 0.96731 0.41084 0.0
H3204 H 0.42177 0.98485 0.40094 0.0
H3205 H 0.2744 0.94662 0.42689 0.0
H3206 H 0.31938 0.95541 0.43136 0.0
H3207 H 0.31418 0.99512 0.42787 0.0
H3208 H 0.43251 0.95373 0.43681 0.0
H3209 H 0.45663 0.0704 0.43422 0.0
H3210 H 0.3797 0.91454 0.41946 0.0
H3211 H 0.34373 0.90895 0.42667 0.0
H3212 H 0.38304 0.90199 0.42984 0.0
H3213 H 0.4083 0.05718 0.41537 0.0
H3214 H 0.42576 0.08805 0.42422 0.0
H3215 H 0.37543 0.05164 0.42334 0.0
C3216 C 0.62483 0.03541 0.92954 0.0
C3217 C 0.61653 0.01548 0.937 0.0
C3218 C 0.63854 0.02353 0.92272 0.0
C3219 C 0.64637 0.99254 0.92347 0.0
C3220 C 0.63885 0.97325 0.93101 0.0
C3221 C 0.62268 0.98371 0.93739 0.0
C3222 C 0.64369 0.04338 0.91464 0.0
C3223 C 0.64755 0.94095 0.93238 0.0
C3224 C 0.64528 0.92956 0.90578 0.0
C3225 C 0.68476 0.94381 0.90419 0.0
C3226 C 0.63261 0.94596 0.91177 0.0
C3227 C 0.65991 0.97789 0.91641 0.0
C3228 C 0.69992 0.99212 0.91495 0.0
C3229 C 0.71188 0.97486 0.90891 0.0
C3230 C 0.58973 0.92884 0.91313 0.0
C3231 C 0.73014 0.02571 0.91979 0.0
H3232 H 0.6197 0.05942 0.92894 0.0
H3233 H 0.61574 0.96683 0.94285 0.0
H3234 H 0.67384 0.0554 0.91248 0.0
H3235 H 0.62459 0.02203 0.91004 0.0
H3236 H 0.63676 0.067 0.91498 0.0
H3237 H 0.64372 0.93148 0.93884 0.0
H3238 H 0.62821 0.91568 0.92857 0.0
H3239 H 0.67771 0.95033 0.93056 0.0
H3240 H 0.62387 0.90554 0.90222 0.0
H3241 H 0.74237 0.98669 0.90767 0.0
H3242 H 0.58183 0.95172 0.9127 0.0
H3243 H 0.58188 0.91633 0.91933 0.0
H3244 H 0.57218 0.90578 0.90866 0.0
H3245 H 0.72585 0.05091 0.91912 0.0
H3246 H 0.75995 0.03425 0.91782 0.0
H3247 H 0.72704 0.01813 0.92635 0.0
C3248 C 0.11326 0.77509 0.90845 0.0
C3249 C 0.14707 0.78198 0.90441 0.0
C3250 C 0.09641 0.74632 0.91459 0.0
C3251 C 0.1137 0.72392 0.91676 0.0
C3252 C 0.14848 0.73181 0.91284 0.0
C3253 C 0.16459 0.76054 0.90679 0.0
C3254 C 0.05948 0.73914 0.9186 0.0
C3255 C 0.16836 0.70921 0.91489 0.0
C3256 C 0.10004 0.67881 0.93783 0.0
C3257 C 0.0728 0.63943 0.93661 0.0
C3258 C 0.11197 0.70627 0.93156 0.0
C3259 C 0.09773 0.69459 0.92358 0.0
C3260 C 0.07052 0.65487 0.92217 0.0
C3261 C 0.05782 0.62792 0.92871 0.0
C3262 C 0.14041 0.74803 0.9335 0.0
C3263 C 0.05532 0.64077 0.91372 0.0
H3264 H 0.09877 0.79048 0.9065 0.0
H3265 H 0.19041 0.76521 0.90363 0.0
H3266 H 0.03624 0.70911 0.91737 0.0
H3267 H 0.06342 0.74223 0.9253 0.0
H3268 H 0.04993 0.75928 0.9164 0.0
H3269 H 0.19475 0.71824 0.91117 0.0
H3270 H 0.17664 0.71304 0.92141 0.0
H3271 H 0.14826 0.67795 0.91389 0.0
H3272 H 0.11176 0.68884 0.94383 0.0
H3273 H 0.03697 0.59789 0.92759 0.0
H3274 H 0.12886 0.76671 0.93144 0.0
H3275 H 0.16789 0.75739 0.93019 0.0
H3276 H 0.14689 0.75292 0.94011 0.0
H3277 H 0.03913 0.65485 0.91153 0.0
H3278 H 0.03594 0.60896 0.9135 0.0
H3279 H 0.0797 0.64889 0.90944 0.0
C3280 C 0.44428 0.43294 0.93262 0.0
C3281 C 0.45474 0.46894 0.93607 0.0
C3282 C 0.41569 0.41685 0.92644 0.0
C3283 C 0.39758 0.43745 0.92354 0.0
C3284 C 0.40944 0.47452 0.92679 0.0
C3285 C 0.43749 0.48954 0.93299 0.0
C3286 C 0.40402 0.37729 0.92318 0.0
C3287 C 0.39188 0.49816 0.92386 0.0
C3288 C 0.35444 0.42088 0.90222 0.0
C3289 C 0.31421 0.39871 0.90353 0.0
C3290 C 0.38138 0.43194 0.90858 0.0
C3291 C 0.36845 0.42194 0.91669 0.0
C3292 C 0.32795 0.39955 0.91816 0.0
C3293 C 0.30135 0.3876 0.91157 0.0
C3294 C 0.42394 0.45533 0.90659 0.0
C3295 C 0.31274 0.3892 0.92674 0.0
H3296 H 0.4566 0.41635 0.93509 0.0
H3297 H 0.44519 0.51731 0.93564 0.0
H3298 H 0.37288 0.3574 0.92439 0.0
H3299 H 0.40808 0.37862 0.91648 0.0
H3300 H 0.42088 0.36505 0.92597 0.0
H3301 H 0.40454 0.52665 0.92694 0.0
H3302 H 0.39623 0.50309 0.9172 0.0
H3303 H 0.36027 0.48219 0.92497 0.0
H3304 H 0.36537 0.42958 0.89611 0.0
H3305 H 0.27068 0.3707 0.91276 0.0
H3306 H 0.43956 0.44157 0.90927 0.0
H3307 H 0.43637 0.48459 0.90928 0.0
H3308 H 0.42945 0.45845 0.89993 0.0
H3309 H 0.32552 0.37347 0.9298 0.0
H3310 H 0.28075 0.37111 0.92692 0.0
H3311 H 0.32151 0.41593 0.93029 0.0
C3312 C 0.93897 0.67421 0.59527 0.0
C3313 C 0.9613 0.69145 0.60224 0.0
C3314 C 0.95353 0.66195 0.58873 0.0
C3315 C 0.99017 0.664 0.58944 0.0
C3316 C 0.01286 0.68239 0.59644 0.0
C3317 C 0.99915 0.69803 0.60236 0.0
C3318 C 0.92868 0.64594 0.58124 0.0
C3319 C 0.05078 0.68407 0.59818 0.0
C3320 C 0.99802 0.58919 0.57603 0.0
C3321 C 0.02914 0.61228 0.57087 0.0
C3322 C 0.98615 0.60532 0.58225 0.0
C3323 C 1.00417 0.64613 0.58309 0.0
C3324 C 0.03612 0.66958 0.57792 0.0
C3325 C 0.04878 0.65233 0.57206 0.0
C3326 C 0.95349 0.57804 0.58773 0.0
C3327 C 0.05647 0.71308 0.57832 0.0
H3328 H 0.90975 0.66933 0.59499 0.0
H3329 H 0.01787 0.71434 0.60733 0.0
H3330 H 0.94512 0.64526 0.57586 0.0
H3331 H 0.90485 0.61626 0.58253 0.0
H3332 H 0.91509 0.66351 0.5797 0.0
H3333 H 0.05019 0.67324 0.60443 0.0
H3334 H 0.05764 0.66687 0.59392 0.0
H3335 H 0.07449 0.7146 0.59803 0.0
H3336 H 0.98215 0.55821 0.57505 0.0
H3337 H 0.07216 0.67047 0.56797 0.0
H3338 H 0.92557 0.57019 0.58477 0.0
H3339 H 0.95448 0.59084 0.59377 0.0
H3340 H 0.95411 0.55083 0.58865 0.0
H3341 H 0.03586 0.72337 0.57961 0.0
H3342 H 0.07203 0.72656 0.57257 0.0
H3343 H 0.0783 0.72338 0.58325 0.0
C3344 C 0.49423 0.42959 0.57327 0.0
C3345 C 0.47403 0.4477 0.57044 0.0
C3346 C 0.4793 0.40132 0.57943 0.0
C3347 C 0.44273 0.39013 0.5829 0.0
C3348 C 0.42252 0.40903 0.58023 0.0
C3349 C 0.43849 0.43778 0.57408 0.0
C3350 C 0.50256 0.38294 0.58211 0.0
C3351 C 0.38358 0.39823 0.58375 0.0
C3352 C 0.39197 0.2941 0.59497 0.0
C3353 C 0.40456 0.30685 0.60294 0.0
C3354 C 0.40389 0.32066 0.58835 0.0
C3355 C 0.42759 0.36107 0.58977 0.0
C3356 C 0.43934 0.3739 0.59782 0.0
C3357 C 0.42869 0.34693 0.60416 0.0
C3358 C 0.39205 0.30548 0.57982 0.0
C3359 C 0.46384 0.41637 0.59978 0.0
H3360 H 0.52166 0.43691 0.57049 0.0
H3361 H 0.4222 0.4508 0.5718 0.0
H3362 H 0.50903 0.38788 0.58871 0.0
H3363 H 0.48555 0.35127 0.58115 0.0
H3364 H 0.5303 0.39454 0.57875 0.0
H3365 H 0.37154 0.41555 0.58111 0.0
H3366 H 0.363 0.36721 0.5826 0.0
H3367 H 0.3859 0.40238 0.59045 0.0
H3368 H 0.37398 0.26352 0.59383 0.0
H3369 H 0.43885 0.35781 0.61022 0.0
H3370 H 0.41816 0.31305 0.57613 0.0
H3371 H 0.37705 0.3193 0.57687 0.0
H3372 H 0.3728 0.27365 0.57969 0.0
H3373 H 0.49276 0.42814 0.59695 0.0
H3374 H 0.46775 0.42189 0.60644 0.0
H3375 H 0.45043 0.43258 0.59723 0.0
C3376 C 0.78507 0.12457 0.59647 0.0
C3377 C 0.78039 0.14453 0.603 0.0
C3378 C 0.75775 0.1096 0.59005 0.0
C3379 C 0.72406 0.11313 0.5903 0.0
C3380 C 0.71962 0.13369 0.59681 0.0
C3381 C 0.74819 0.15008 0.60287 0.0
C3382 C 0.76474 0.0897 0.583 0.0
C3383 C 0.68399 0.13753 0.59755 0.0
C3384 C 0.66934 0.10992 0.57104 0.0
C3385 C 0.63873 0.07135 0.57072 0.0
C3386 C 0.69752 0.12317 0.57718 0.0
C3387 C 0.69468 0.09801 0.58352 0.0
C3388 C 0.66282 0.05955 0.58355 0.0
C3389 C 0.63549 0.04648 0.5771 0.0
C3390 C 0.73094 0.16416 0.57675 0.0
C3391 C 0.65787 0.03214 0.59035 0.0
H3392 H 0.80942 0.11974 0.59648 0.0
H3393 H 0.74393 0.16555 0.6078 0.0
H3394 H 0.74187 0.05887 0.58285 0.0
H3395 H 0.76317 0.10288 0.57717 0.0
H3396 H 0.79331 0.09144 0.5834 0.0
H3397 H 0.68347 0.15183 0.60331 0.0
H3398 H 0.6825 0.15455 0.59238 0.0
H3399 H 0.65765 0.10857 0.59729 0.0
H3400 H 0.67233 0.12994 0.56627 0.0
H3401 H 0.61229 0.01671 0.57695 0.0
H3402 H 0.75875 0.16431 0.57705 0.0
H3403 H 0.73007 0.18098 0.58202 0.0
H3404 H 0.73058 0.17917 0.57108 0.0
H3405 H 0.6822 0.02626 0.59029 0.0
H3406 H 0.63034 1.00427 0.58984 0.0
H3407 H 0.65856 0.04545 0.59632 0.0
C3408 C 0.78216 0.71002 0.74218 0.0
C3409 C 0.81315 0.7368 0.7374 0.0
C3410 C 0.76623 0.72244 0.7484 0.0
C3411 C 0.78139 0.76254 0.74987 0.0
C3412 C 0.81348 0.78944 0.74521 0.0
C3413 C 0.82902 0.77631 0.73915 0.0
C3414 C 0.73258 0.69266 0.7533 0.0
C3415 C 0.83098 0.83239 0.74649 0.0
C3416 C 0.72363 0.79887 0.76239 0.0
C3417 C 0.74281 0.80721 0.76992 0.0
C3418 C 0.73587 0.78468 0.75575 0.0
C3419 C 0.76663 0.77668 0.75676 0.0
C3420 C 0.78541 0.78446 0.76437 0.0
C3421 C 0.77431 0.80062 0.77065 0.0
C3422 C 0.71604 0.7784 0.74763 0.0
C3423 C 0.81743 0.77555 0.76596 0.0
H3424 H 0.76905 0.67955 0.74078 0.0
H3425 H 0.85281 0.79732 0.73547 0.0
H3426 H 0.73932 0.69728 0.7599 0.0
H3427 H 0.70691 0.69584 0.75223 0.0
H3428 H 0.72509 0.66273 0.7517 0.0
H3429 H 0.85444 0.84959 0.74207 0.0
H3430 H 0.80833 0.84055 0.74589 0.0
H3431 H 0.84302 0.84034 0.75272 0.0
H3432 H 0.69948 0.80372 0.76164 0.0
H3433 H 0.79 0.80676 0.77632 0.0
H3434 H 0.69952 0.74706 0.74627 0.0
H3435 H 0.73774 0.79247 0.74271 0.0
H3436 H 0.69586 0.78989 0.74751 0.0
H3437 H 0.80759 0.74504 0.76439 0.0
H3438 H 0.82705 0.78041 0.77241 0.0
H3439 H 0.84271 0.79394 0.76206 0.0
C3440 C 0.32199 0.98619 0.76751 0.0
C3441 C 0.28246 0.96744 0.76935 0.0
C3442 C 0.33816 0.01544 0.76151 0.0
C3443 C 0.31384 0.02397 0.75665 0.0
C3444 C 0.27326 1.00241 0.75807 0.0
C3445 C 0.25843 0.97575 0.76458 0.0
C3446 C 0.38156 0.03802 0.76062 0.0
C3447 C 0.24481 0.00723 0.75288 0.0
C3448 C 0.34365 0.11691 0.7442 0.0
C3449 C 0.35935 0.11044 0.73714 0.0
C3450 C 0.33074 0.09024 0.75077 0.0
C3451 C 0.33081 0.05467 0.75005 0.0
C3452 C 0.34718 0.04867 0.74291 0.0
C3453 C 0.36332 0.0776 0.7369 0.0
C3454 C 0.316 0.10017 0.75831 0.0
C3455 C 0.34615 0.01112 0.74112 0.0
H3456 H 0.3408 0.98023 0.77124 0.0
H3457 H 0.2278 0.96141 0.76596 0.0
H3458 H 0.39029 0.02727 0.75528 0.0
H3459 H 0.39194 0.06918 0.75968 0.0
H3460 H 0.39637 0.03474 0.76602 0.0
H3461 H 0.23558 0.02546 0.75618 0.0
H3462 H 0.25685 0.02055 0.74688 0.0
H3463 H 0.21844 0.9788 0.75183 0.0
H3464 H 0.34051 0.14227 0.74452 0.0
H3465 H 0.37807 0.07373 0.7318 0.0
H3466 H 0.31804 0.08513 0.7638 0.0
H3467 H 0.28535 0.09199 0.75737 0.0
H3468 H 0.3324 0.13179 0.75944 0.0
H3469 H 0.37613 0.01639 0.74073 0.0
H3470 H 0.33271 1.00029 0.73507 0.0
H3471 H 0.32974 0.98805 0.74564 0.0
C3472 C 1.00714 0.27057 0.73713 0.0
C3473 C 0.97237 0.27174 0.7373 0.0
C3474 C 0.03552 0.28768 0.74318 0.0
C3475 C 0.0285 0.30417 0.75011 0.0
C3476 C 0.9926 0.30358 0.75066 0.0
C3477 C 0.96539 0.28831 0.74417 0.0
C3478 C 0.07337 0.28825 0.74208 0.0
C3479 C 0.98286 0.31881 0.75814 0.0
C3480 C 0.08673 0.30438 0.76856 0.0
C3481 C 0.11482 0.34366 0.76956 0.0
C3482 C 0.05775 0.29186 0.76259 0.0
C3483 C 0.05762 0.31864 0.75698 0.0
C3484 C 0.08735 0.35804 0.75757 0.0
C3485 C 0.11518 0.37024 0.76393 0.0
C3486 C 0.02664 0.24978 0.76243 0.0
C3487 C 0.0896 0.3873 0.75148 0.0
H3488 H 0.01344 0.25766 0.73199 0.0
H3489 H 0.93889 0.28942 0.74447 0.0
H3490 H 0.09809 0.31746 0.74337 0.0
H3491 H 0.07506 0.2679 0.74642 0.0
H3492 H 0.07676 0.27986 0.73582 0.0
H3493 H 0.95306 0.31418 0.75791 0.0
H3494 H 0.98576 0.30443 0.76366 0.0
H3495 H 1.0035 0.35016 0.75878 0.0
H3496 H 0.08606 0.2832 0.77278 0.0
H3497 H 0.13636 0.40057 0.76462 0.0
H3498 H 0.02958 0.23578 0.75686 0.0
H3499 H 0.99764 0.2471 0.76225 0.0
H3500 H 0.02804 0.23365 0.7678 0.0
H3501 H 0.09087 0.37765 0.74521 0.0
H3502 H 0.11523 0.4163 0.75249 0.0
H3503 H 0.06319 0.38972 0.75188 0.0
C3504 C 0.30232 0.32501 0.27098 0.0
C3505 C 0.28504 0.34773 0.26949 0.0
C3506 C 0.31911 0.31402 0.26478 0.0
C3507 C 0.31688 0.32363 0.25659 0.0
C3508 C 0.29879 0.34587 0.25492 0.0
C3509 C 0.28398 0.35844 0.26138 0.0
C3510 C 0.33869 0.29133 0.26702 0.0
C3511 C 0.29384 0.35518 0.24626 0.0
C3512 C 0.38233 0.31299 0.24066 0.0
C3513 C 0.35731 0.27644 0.23735 0.0
C3514 C 0.36959 0.32893 0.24684 0.0
C3515 C 0.33106 0.30783 0.24986 0.0
C3516 C 0.30641 0.27029 0.24673 0.0
C3517 C 0.31974 0.2553 0.24058 0.0
C3518 C 0.39702 0.36889 0.24998 0.0
C3519 C 0.26534 0.24618 0.24972 0.0
H3520 H 0.30335 0.31594 0.27713 0.0
H3521 H 0.27028 0.37525 0.26003 0.0
H3522 H 0.32162 0.26143 0.26467 0.0
H3523 H 0.36777 0.30452 0.2642 0.0
H3524 H 0.34188 0.28991 0.27372 0.0
H3525 H 0.27999 0.37327 0.24592 0.0
H3526 H 0.32228 0.37049 0.24317 0.0
H3527 H 0.27575 0.328 0.24286 0.0
H3528 H 0.41094 0.3301 0.23807 0.0
H3529 H 0.29998 0.2272 0.23801 0.0
H3530 H 0.39978 0.36815 0.25669 0.0
H3531 H 0.38533 0.38829 0.24864 0.0
H3532 H 0.42617 0.38134 0.2472 0.0
H3533 H 0.26517 0.24042 0.25633 0.0
H3534 H 0.24941 0.21806 0.2465 0.0
H3535 H 0.24953 0.26215 0.24886 0.0
C3536 C 0.71107 0.97319 0.26509 0.0
C3537 C 0.73775 0.96875 0.26986 0.0
C3538 C 0.72367 1.00145 0.25884 0.0
C3539 C 0.76386 0.0263 0.25737 0.0
C3540 C 0.79064 0.02114 0.26207 0.0
C3541 C 0.77734 0.99232 0.2681 0.0
C3542 C 0.694 0.0051 0.25385 0.0
C3543 C 0.83367 0.04668 0.26086 0.0
C3544 C 0.80285 0.0707 0.23656 0.0
C3545 C 0.80941 0.10882 0.23717 0.0
C3546 C 0.7864 0.04369 0.24288 0.0
C3547 C 0.77824 0.05493 0.25042 0.0
C3548 C 0.7863 0.09372 0.25133 0.0
C3549 C 0.80083 0.11992 0.24465 0.0
C3550 C 0.77758 1.00273 0.24141 0.0
C3551 C 0.77975 0.10755 0.25938 0.0
H3552 H 0.68055 0.95581 0.26647 0.0
H3553 H 0.79834 0.98934 0.27174 0.0
H3554 H 0.69746 0.03414 0.25475 0.0
H3555 H 0.69854 1.00223 0.24728 0.0
H3556 H 0.66399 0.98299 0.2555 0.0
H3557 H 0.85076 0.04053 0.26533 0.0
H3558 H 0.84191 0.04261 0.25465 0.0
H3559 H 0.84176 0.07747 0.26142 0.0
H3560 H 0.80917 0.06088 0.23093 0.0
H3561 H 0.8056 0.1489 0.24531 0.0
H3562 H 0.74712 0.98202 0.24305 0.0
H3563 H 0.79621 0.99622 0.24533 0.0
H3564 H 0.78227 0.99761 0.23497 0.0
H3565 H 0.7484 0.09231 0.26078 0.0
H3566 H 0.79075 0.13914 0.25939 0.0
H3567 H 0.7942 0.10064 0.26434 0.0
C3568 C 0.97301 0.75391 0.24309 0.0
C3569 C 0.96731 0.72405 0.2378 0.0
C3570 C 0.99999 0.76581 0.24955 0.0
C3571 C 0.02477 0.74988 0.25037 0.0
C3572 C 0.01806 0.71871 0.24511 0.0
C3573 C 0.98846 0.70531 0.23917 0.0
C3574 C 1.00167 0.79597 0.25532 0.0
C3575 C 0.04311 0.70031 0.24543 0.0
C3576 C 0.1163 0.82005 0.26259 0.0
C3577 C 0.11667 0.79638 0.26885 0.0
C3578 C 0.08887 0.80472 0.25618 0.0
C3579 C 0.05753 0.76579 0.25658 0.0
C3580 C 0.05793 0.74238 0.26307 0.0
C3581 C 0.08966 0.7569 0.26845 0.0
C3582 C 0.09365 0.83124 0.24919 0.0
C3583 C 0.02364 0.70345 0.26511 0.0
H3584 H 0.95673 0.7686 0.2421 0.0
H3585 H 0.98412 0.68213 0.2351 0.0
H3586 H 0.01691 0.79775 0.26108 0.0
H3587 H 0.01628 0.82454 0.25226 0.0
H3588 H 0.97196 0.78963 0.25682 0.0
H3589 H 0.03925 0.68232 0.23999 0.0
H3590 H 0.07408 0.72261 0.24603 0.0
H3591 H 0.035 0.6806 0.2507 0.0
H3592 H 0.13741 0.85062 0.26269 0.0
H3593 H 0.09136 0.73759 0.27282 0.0
H3594 H 0.08478 0.85217 0.25118 0.0
H3595 H 0.07674 0.81555 0.24373 0.0
H3596 H 0.1246 0.8484 0.24744 0.0
H3597 H 0.01341 0.7047 0.27132 0.0
H3598 H 0.03263 0.6813 0.26528 0.0
H3599 H 0.99878 0.69408 0.26093 0.0
C3600 C 0.56209 0.04162 0.02234 0.0
C3601 C 0.52612 0.02117 0.0262 0.0
C3602 C 0.56526 0.04287 0.01379 0.0
C3603 C 0.53143 0.02476 0.00892 0.0
C3604 C 0.49488 1.00415 0.01283 0.0
C3605 C 0.49277 1.00186 0.02141 0.0
C3606 C 0.6049 0.06471 0.01001 0.0
C3607 C 0.4578 0.98608 0.00799 0.0
C3608 C 0.54872 0.06243 0.98687 0.0
C3609 C 0.54788 0.03154 0.98265 0.0
C3610 C 0.54134 0.06004 0.99534 0.0
C3611 C 0.53456 0.02658 0.99978 0.0
C3612 C 0.53273 0.99513 0.99547 0.0
C3613 C 0.53738 0.99731 0.98698 0.0
C3614 C 0.54256 0.09432 0.99946 0.0
C3615 C 0.52911 0.96026 0.99986 0.0
H3616 H 0.58783 0.05768 0.02602 0.0
H3617 H 0.46479 0.98741 0.02439 0.0
H3618 H 0.60747 0.04805 0.0049 0.0
H3619 H 0.6095 0.09248 0.00752 0.0
H3620 H 0.62815 0.07107 0.0145 0.0
H3621 H 0.43246 0.9796 0.01186 0.0
H3622 H 0.45951 0.00541 1.00295 0.0
H3623 H 0.45267 0.95861 0.00525 0.0
H3624 H 0.5562 0.08887 0.98363 0.0
H3625 H 0.53497 0.9725 0.98379 0.0
H3626 H 0.57305 0.11792 0.99993 0.0
H3627 H 0.52978 0.08765 0.00564 0.0
H3628 H 0.52702 0.10535 0.99571 0.0
H3629 H 0.55382 0.96958 0.00411 0.0
H3630 H 0.52887 0.93852 0.99562 0.0
H3631 H 0.50237 0.94614 0.00355 0.0
C3632 C 0.00846 0.5571 0.98661 0.0
C3633 C 0.02502 0.54125 0.9815 0.0
C3634 C 0.01289 0.55764 0.99517 0.0
C3635 C 0.03298 0.54043 0.99877 0.0
C3636 C 0.04833 0.52298 0.99361 0.0
C3637 C 0.04526 0.52472 0.98509 0.0
C3638 C 0.99749 0.57821 1.00031 0.0
C3639 C 0.06851 0.50281 0.99709 0.0
C3640 C 0.07309 0.55963 0.02077 0.0
C3641 C 0.04175 0.5308 0.02514 0.0
C3642 C 0.07039 0.56428 0.01226 0.0
C3643 C 0.03604 0.53857 0.00792 0.0
C3644 C 1.00451 0.50958 0.01234 0.0
C3645 C 1.00726 0.50712 0.02081 0.0
C3646 C 0.10502 0.59631 0.008 0.0
C3647 C 0.96777 0.48 0.00817 0.0
H3648 H 0.99446 0.57162 0.98389 0.0
H3649 H 0.05984 0.51412 0.98121 0.0
H3650 H 0.97123 0.55675 0.00359 0.0
H3651 H 0.01916 0.59663 0.00494 0.0
H3652 H 0.98979 0.59655 0.99658 0.0
H3653 H 0.07559 0.48758 0.99233 0.0
H3654 H 0.09571 0.5242 1.0001 0.0
H3655 H 0.05003 0.48153 1.00177 0.0
H3656 H 0.09979 0.57838 0.02395 0.0
H3657 H 0.98225 0.48489 0.024 0.0
H3658 H 0.09767 0.6039 1.00204 0.0
H3659 H 0.12673 0.58717 0.007 0.0
H3660 H 0.11881 0.62257 0.01188 0.0
H3661 H 0.94882 0.49244 0.00713 0.0
H3662 H 0.95143 0.45362 0.01194 0.0
H3663 H 0.97383 0.47126 1.00219 0.0
C3664 C 0.52697 0.55714 0.02179 0.0
C3665 C 0.55086 0.5469 0.02608 0.0
C3666 C 0.52154 0.55096 0.01328 0.0
C3667 C 0.54226 0.53637 0.00888 0.0
C3668 C 0.56572 0.52539 0.01327 0.0
C3669 C 0.56769 0.52863 0.02177 0.0
C3670 C 0.49435 0.56087 0.00896 0.0
C3671 C 0.59108 0.51225 0.00919 0.0
C3672 C 0.51569 0.48946 0.98784 0.0
C3673 C 0.53385 0.52121 0.9826 0.0
C3674 C 0.51697 0.49422 0.99635 0.0
C3675 C 0.53887 0.53167 0.99978 0.0
C3676 C 0.55899 0.56379 0.99447 0.0
C3677 C 0.55529 0.55822 0.98596 0.0
C3678 C 0.49449 0.4591 1.00166 0.0
C3679 C 0.58557 0.60415 0.99757 0.0
H3680 H 0.51311 0.57051 0.02504 0.0
H3681 H 0.58512 0.51909 0.02499 0.0
H3682 H 0.51122 0.58744 0.00529 0.0
H3683 H 0.47537 0.53729 0.00473 0.0
H3684 H 0.47601 0.56591 0.0133 0.0
H3685 H 0.58689 0.48541 0.01213 0.0
H3686 H 0.58621 0.50714 1.00256 0.0
H3687 H 0.6218 0.53465 0.01013 0.0
H3688 H 0.4992 0.46079 0.98525 0.0
H3689 H 0.56867 0.58305 0.98196 0.0
H3690 H 0.47535 0.46377 0.00584 0.0
H3691 H 0.51455 0.4542 0.00547 0.0
H3692 H 0.4767 0.4325 0.99806 0.0
H3693 H 0.58094 0.60817 0.00406 0.0
H3694 H 0.58229 0.62559 0.99387 0.0
H3695 H 0.61589 0.61074 0.99685 0.0
C3696 C 0.07134 0.54157 0.52053 0.0
C3697 C 0.03991 0.53918 0.52482 0.0
C3698 C 0.06923 0.53496 0.512 0.0
C3699 C 0.03554 0.52783 0.50753 0.0
C3700 C 1.0038 0.52511 0.51194 0.0
C3701 C 1.00557 0.52814 0.52045 0.0
C3702 C 0.10374 0.53612 0.508 0.0
C3703 C 0.96805 0.52112 0.50785 0.0
C3704 C 0.05472 0.55358 0.48484 0.0
C3705 C 0.02902 0.51867 0.48101 0.0
C3706 C 0.05607 0.55734 0.49339 0.0
C3707 C 0.03342 0.52445 0.49834 0.0
C3708 C 1.00717 0.48899 0.49444 0.0
C3709 C 1.00447 0.48696 0.48585 0.0
C3710 C 0.08245 0.59665 0.49701 0.0
C3711 C 0.98251 0.45244 0.4992 0.0
H3712 H 0.0978 0.54914 0.52378 0.0
H3713 H 0.98026 0.52477 0.52362 0.0
H3714 H 0.10112 0.53243 0.50131 0.0
H3715 H 0.13014 0.56399 0.50941 0.0
H3716 H 0.10804 0.51294 0.51061 0.0
H3717 H 0.9595 0.54077 0.51078 0.0
H3718 H 0.97176 0.52776 0.50126 0.0
H3719 H 0.94368 0.49132 0.50877 0.0
H3720 H 0.07432 0.57808 0.48114 0.0
H3721 H 0.98533 0.45962 0.48292 0.0
H3722 H 0.11087 0.5994 0.49839 0.0
H3723 H 0.07045 0.60117 0.50273 0.0
H3724 H 0.08755 0.62006 0.49267 0.0
H3725 H 0.97766 0.42663 0.49571 0.0
H3726 H 0.9537 0.44931 0.50026 0.0
H3727 H 0.99555 0.45238 0.50516 0.0
C3728 C 0.52683 0.5116 0.4847 0.0
C3729 C 0.56205 0.53895 0.48122 0.0
C3730 C 0.52181 0.50874 0.49323 0.0
C3731 C 0.55236 0.53455 0.49841 0.0
C3732 C 0.58822 0.56153 0.4949 0.0
C3733 C 0.59268 0.56306 0.4864 0.0
C3734 C 0.4835 0.47865 0.49672 0.0
C3735 C 0.62157 0.58977 0.50012 0.0
C3736 C 0.52631 0.55059 0.52001 0.0
C3737 C 0.53547 0.52677 0.52463 0.0
C3738 C 0.5323 0.55404 0.51149 0.0
C3739 C 0.54729 0.5328 0.50749 0.0
C3740 C 0.55789 0.50995 0.5122 0.0
C3741 C 0.55248 0.50777 0.52067 0.0
C3742 C 0.52172 0.57967 0.50673 0.0
C3743 C 0.57366 0.48654 0.50827 0.0
H3744 H 0.50262 0.49377 0.48078 0.0
H3745 H 0.61999 0.5843 0.48374 0.0
H3746 H 0.488 0.46031 0.50115 0.0
H3747 H 0.46995 0.49291 0.50006 0.0
H3748 H 0.46318 0.4598 0.49193 0.0
H3749 H 0.61343 0.60908 0.50333 0.0
H3750 H 0.62833 0.57426 0.50485 0.0
H3751 H 0.6481 0.60778 0.4965 0.0
H3752 H 0.51319 0.56536 0.52299 0.0
H3753 H 0.56019 0.48965 0.52418 0.0
H3754 H 0.49763 0.56188 0.50251 0.0
H3755 H 0.54662 0.60037 0.50298 0.0
H3756 H 0.51279 0.59615 0.51075 0.0
H3757 H 0.55172 0.46498 0.50407 0.0
H3758 H 0.58155 0.47106 0.51281 0.0
H3759 H 0.59959 0.50546 0.50458 0.0
C3760 C 0.53757 0.04946 0.52194 0.0
C3761 C 0.54553 0.02264 0.52567 0.0
C3762 C 0.53556 0.05166 0.51342 0.0
C3763 C 0.54417 0.0281 0.50839 0.0
C3764 C 0.55257 1.00105 0.51216 0.0
C3765 C 0.55202 0.99792 0.52073 0.0
C3766 C 0.52467 0.07972 0.50985 0.0
C3767 C 0.56334 0.97587 0.50728 0.0
C3768 C 0.50426 1.00088 0.48687 0.0
C3769 C 0.53008 0.03295 0.48213 0.0
C3770 C 0.50806 0.99968 0.49532 0.0
C3771 C 0.54088 0.02948 0.49927 0.0
C3772 C 0.569 0.06072 0.49447 0.0
C3773 C 0.56269 0.06265 0.48602 0.0
C3774 C 0.4759 0.96649 0.49996 0.0
C3775 C 0.60585 0.09253 0.49812 0.0
H3776 H 0.53359 0.06942 0.52572 0.0
H3777 H 0.55967 0.97817 0.52357 0.0
H3778 H 0.55112 0.10583 0.5077 0.0
H3779 H 0.50489 0.06686 0.50458 0.0
H3780 H 0.51049 0.08899 0.51443 0.0
H3781 H 0.53797 0.94635 0.50688 0.0
H3782 H 0.57324 0.987 0.50103 0.0
H3783 H 0.58658 0.97323 0.51039 0.0
H3784 H 0.47925 0.97691 0.48405 0.0
H3785 H 0.58341 0.08724 0.48249 0.0
H3786 H 0.47169 0.97535 0.5061 0.0
H3787 H 0.48295 0.94315 0.50067 0.0
H3788 H 0.44801 0.95418 0.49663 0.0
H3789 H 0.60414 0.11934 0.49846 0.0
H3790 H 0.6307 0.09881 0.49411 0.0
H3791 H 0.61181 0.08547 0.50429 0.0
C3792 C 0.26189 0.40441 0.31878 0.0
C3793 C 0.22858 0.39056 0.31397 0.0
C3794 C 0.25955 0.4012 0.32736 0.0
C3795 C 0.22308 0.38528 0.3313 0.0
C3796 C 0.18961 0.37319 0.32644 0.0
C3797 C 0.19262 0.37466 0.31788 0.0
C3798 C 0.29602 0.41353 0.33218 0.0
C3799 C 0.15047 0.35871 0.33028 0.0
C3800 C 0.19967 0.34421 0.35314 0.0
C3801 C 0.20752 0.37697 0.3577 0.0
C3802 C 0.20628 0.34665 0.34462 0.0
C3803 C 0.21988 0.38253 0.34047 0.0
C3804 C 0.22891 0.41578 0.34514 0.0
C3805 C 0.22404 0.41277 0.35363 0.0
C3806 C 0.19706 0.31006 0.34017 0.0
C3807 C 0.24242 0.45485 0.3413 0.0
H3808 H 0.28964 0.4153 0.3158 0.0
H3809 H 0.16653 0.36227 0.31425 0.0
H3810 H 0.30414 0.44079 0.33543 0.0
H3811 H 0.29137 0.39136 0.33681 0.0
H3812 H 0.3206 0.41847 0.32821 0.0
H3813 H 0.12775 0.35298 0.3257 0.0
H3814 H 0.14184 0.33168 0.33369 0.0
H3815 H 0.15194 0.38046 0.33468 0.0
H3816 H 0.18714 0.31641 0.35616 0.0
H3817 H 0.23111 0.43868 0.35704 0.0
H3818 H 0.20854 0.31524 0.33388 0.0
H3819 H 0.16524 0.29089 0.33993 0.0
H3820 H 0.20892 0.29428 0.34357 0.0
H3821 H 0.27424 0.4727 0.34196 0.0
H3822 H 0.22969 0.47029 0.34453 0.0
H3823 H 0.23493 0.45319 0.33476 0.0
C3824 C 0.71072 0.89251 0.35557 0.0
C3825 C 0.72784 0.87294 0.35919 0.0
C3826 C 0.7081 0.89447 0.34702 0.0
C3827 C 0.72054 0.8742 0.3419 0.0
C3828 C 0.73838 0.85483 0.34555 0.0
C3829 C 0.74231 0.85495 0.35411 0.0
C3830 C 0.69208 0.9184 0.34348 0.0
C3831 C 0.75244 0.83301 0.34043 0.0
C3832 C 0.67907 0.85548 0.32002 0.0
C3833 C 0.71132 0.88178 0.31548 0.0
C3834 C 0.68189 0.85143 0.32856 0.0
C3835 C 0.71728 0.87552 0.33275 0.0
C3836 C 0.74982 0.90166 0.32813 0.0
C3837 C 0.74677 0.90323 0.31964 0.0
C3838 C 0.64665 0.82162 0.33306 0.0
C3839 C 0.78835 0.92909 0.33199 0.0
H3840 H 0.69826 0.90539 0.35943 0.0
H3841 H 0.75439 0.83867 0.35686 0.0
H3842 H 0.7121 0.93836 0.33879 0.0
H3843 H 0.66404 0.89937 0.34047 0.0
H3844 H 0.68757 0.93564 0.3482 0.0
H3845 H 0.75963 0.81433 0.34418 0.0
H3846 H 0.73026 0.81482 0.33586 0.0
H3847 H 0.77881 0.85374 0.33707 0.0
H3848 H 0.65164 0.83835 0.31695 0.0
H3849 H 0.77254 0.92327 0.31632 0.0
H3850 H 0.63082 0.83541 0.33561 0.0
H3851 H 0.65466 0.80891 0.33818 0.0
H3852 H 0.62665 0.79802 0.32894 0.0
H3853 H 0.80194 0.95756 0.32887 0.0
H3854 H 0.80813 0.9174 0.3312 0.0
H3855 H 0.78623 0.93396 0.33857 0.0
C3856 C 0.17956 0.82326 0.32024 0.0
C3857 C 0.2057 0.85205 0.31493 0.0
C3858 C 0.18116 0.82901 0.32875 0.0
C3859 C 0.21049 0.86406 0.33217 0.0
C3860 C 0.23876 0.89202 0.32688 0.0
C3861 C 0.23529 0.88623 0.31837 0.0
C3862 C 0.15028 0.7982 0.33406 0.0
C3863 C 0.27357 0.92752 0.33019 0.0
C3864 C 0.19982 0.89929 0.35344 0.0
C3865 C 0.21568 0.88256 0.3585 0.0
C3866 C 0.19721 0.89297 0.34488 0.0
C3867 C 0.21211 0.87066 0.34127 0.0
C3868 C 0.22802 0.85384 0.3464 0.0
C3869 C 0.22786 0.85845 0.35487 0.0
C3870 C 0.17936 0.91096 0.33967 0.0
C3871 C 0.2468 0.8321 0.34299 0.0
H3872 H 0.15656 0.79673 0.31767 0.0
H3873 H 0.25507 0.90932 0.31445 0.0
H3874 H 0.16301 0.79071 0.33924 0.0
H3875 H 0.13231 0.80937 0.33674 0.0
H3876 H 0.13157 0.77131 0.33063 0.0
H3877 H 0.26553 0.94114 0.33511 0.0
H3878 H 0.29351 0.91866 0.33281 0.0
H3879 H 0.28941 0.94933 0.32537 0.0
H3880 H 0.19055 0.91811 0.3561 0.0
H3881 H 0.23971 0.84469 0.35866 0.0
H3882 H 0.15692 0.88877 0.33565 0.0
H3883 H 0.20178 0.93342 0.3357 0.0
H3884 H 0.16612 0.92453 0.34338 0.0
H3885 H 0.22449 0.80341 0.34073 0.0
H3886 H 0.26435 0.82753 0.34763 0.0
H3887 H 0.2658 0.848 0.33777 0.0
C3888 C 0.67926 0.86146 0.81964 0.0
C3889 C 0.71252 0.87021 0.81515 0.0
C3890 C 0.68135 0.86786 0.82819 0.0
C3891 C 0.71701 0.88111 0.83242 0.0
C3892 C 0.75053 0.89058 0.82783 0.0
C3893 C 0.74812 0.88714 0.81933 0.0
C3894 C 0.64523 0.85971 0.83272 0.0
C3895 C 0.78938 0.90307 0.83169 0.0
C3896 C 0.74115 0.92596 0.8538 0.0
C3897 C 0.72648 0.89343 0.85886 0.0
C3898 C 0.73705 0.92229 0.84525 0.0
C3899 C 0.71958 0.88515 0.84158 0.0
C3900 C 0.70711 0.85234 0.84668 0.0
C3901 C 0.70938 0.85682 0.85522 0.0
C3902 C 0.7507 0.95825 0.84017 0.0
C3903 C 0.69314 0.81252 0.84325 0.0
H3904 H 0.65167 0.84897 0.81654 0.0
H3905 H 0.77456 0.89536 0.81601 0.0
H3906 H 0.63456 0.83288 0.83634 0.0
H3907 H 0.65154 0.88356 0.83702 0.0
H3908 H 0.62184 0.856 0.82851 0.0
H3909 H 0.80938 0.93397 0.83028 0.0
H3910 H 0.78818 0.89898 0.83838 0.0
H3911 H 0.80223 0.88662 0.82897 0.0
H3912 H 0.75359 0.95429 0.85657 0.0
H3913 H 0.697 0.83139 0.85906 0.0
H3914 H 0.72797 0.95434 0.83575 0.0
H3915 H 0.77662 0.9639 0.83664 0.0
H3916 H 0.75854 0.98414 0.84395 0.0
H3917 H 0.67726 0.80761 0.83744 0.0
H3918 H 0.67437 0.78961 0.84763 0.0
H3919 H 0.71872 0.80937 0.84202 0.0
C3920 C 0.20285 0.88995 0.85399 0.0
C3921 C 0.20725 0.8623 0.85838 0.0
C3922 C 0.20929 0.89425 0.84546 0.0
C3923 C 0.21849 0.86901 0.8411 0.0
C3924 C 0.22328 0.8414 0.84558 0.0
C3925 C 0.21924 0.83962 0.85408 0.0
C3926 C 0.20559 0.92571 0.84122 0.0
C3927 C 0.23144 0.81221 0.84157 0.0
C3928 C 0.19252 0.85919 0.8184 0.0
C3929 C 0.22867 0.87413 0.81461 0.0
C3930 C 0.18863 0.85546 0.82694 0.0
C3931 C 0.22208 0.8705 0.83193 0.0
C3932 C 0.25876 0.88557 0.82809 0.0
C3933 C 0.26137 0.88576 0.81951 0.0
C3934 C 0.14855 0.83544 0.83055 0.0
C3935 C 0.29553 0.90269 0.83302 0.0
H3936 H 0.19407 0.90803 0.85718 0.0
H3937 H 0.22355 0.81842 0.8573 0.0
H3938 H 0.2212 0.93424 0.83532 0.0
H3939 H 0.17459 0.91557 0.84011 0.0
H3940 H 0.21683 0.9517 0.84516 0.0
H3941 H 0.21276 0.78319 0.84427 0.0
H3942 H 0.22679 0.80989 0.8349 0.0
H3943 H 0.26176 0.82002 0.84285 0.0
H3944 H 0.16711 0.85072 0.81468 0.0
H3945 H 0.28948 0.89811 0.81662 0.0
H3946 H 0.1412 0.8573 0.83265 0.0
H3947 H 0.14681 0.81744 0.83586 0.0
H3948 H 0.12649 0.81671 0.82601 0.0
H3949 H 0.29436 0.92005 0.83818 0.0
H3950 H 0.32136 0.92129 0.82925 0.0
H3951 H 0.29937 0.87919 0.83557 0.0
C3952 C 0.18101 0.33717 0.81962 0.0
C3953 C 0.20382 0.37134 0.81514 0.0
C3954 C 0.18333 0.33562 0.82811 0.0
C3955 C 0.21189 0.36803 0.83239 0.0
C3956 C 0.23737 0.40187 0.82788 0.0
C3957 C 0.23254 0.4034 0.81934 0.0
C3958 C 0.15399 0.29894 0.83234 0.0
C3959 C 0.27058 0.4361 0.83199 0.0
C3960 C 0.19955 0.381 0.85512 0.0
C3961 C 0.21528 0.36037 0.85885 0.0
C3962 C 0.19729 0.38277 0.84658 0.0
C3963 C 0.21411 0.36626 0.84155 0.0
C3964 C 0.23008 0.34535 0.8453 0.0
C3965 C 0.22957 0.34187 0.85388 0.0
C3966 C 0.17664 0.40216 0.84294 0.0
C3967 C 0.24867 0.32744 0.8403 0.0
H3968 H 0.15918 0.31147 0.81655 0.0
H3969 H 0.25105 0.42963 0.81599 0.0
H3970 H 0.15046 0.303 0.83889 0.0
H3971 H 0.12528 0.28702 0.82937 0.0
H3972 H 0.16288 0.27687 0.83171 0.0
H3973 H 0.28257 0.46243 0.82813 0.0
H3974 H 0.26208 0.44243 0.83796 0.0
H3975 H 0.29388 0.42929 0.83312 0.0
H3976 H 0.18967 0.39655 0.8589 0.0
H3977 H 0.24297 0.327 0.85672 0.0
H3978 H 0.15476 0.38259 0.83847 0.0
H3979 H 0.19746 0.42867 0.83963 0.0
H3980 H 0.16194 0.41019 0.84765 0.0
H3981 H 0.22597 0.30096 0.8373 0.0
H3982 H 0.26649 0.31928 0.84409 0.0
H3983 H 0.26717 0.34763 0.83546 0.0
C3984 C 0.87142 0.73957 0.6864 0.0
C3985 C 0.86643 0.7082 0.69123 0.0
C3986 C 0.87623 0.74049 0.67794 0.0
C3987 C 0.88011 0.71107 0.67404 0.0
C3988 C 0.87757 0.68025 0.67892 0.0
C3989 C 0.86996 0.67882 0.68739 0.0
C3990 C 0.8762 0.7731 0.67328 0.0
C3991 C 0.88374 0.64891 0.67541 0.0
C3992 C 0.85885 0.68895 0.65132 0.0
C3993 C 0.89353 0.71627 0.64763 0.0
C3994 C 0.85388 0.68761 0.65983 0.0
C3995 C 0.88534 0.71243 0.66491 0.0
C3996 C 0.92054 0.74038 0.66117 0.0
C3997 C 0.92377 0.74262 0.65258 0.0
C3998 C 0.81487 0.65921 0.66333 0.0
C3999 C 0.95559 0.76746 0.66611 0.0
H4000 H 0.86979 0.7633 0.68917 0.0
H4001 H 0.86716 0.65485 0.691 0.0
H4002 H 0.90578 0.79853 0.67331 0.0
H4003 H 0.8666 0.76536 0.66688 0.0
H4004 H 0.85698 0.78209 0.67625 0.0
H4005 H 0.86228 0.62039 0.67797 0.0
H4006 H 0.88193 0.64719 0.66869 0.0
H4007 H 0.9128 0.65444 0.67726 0.0
H4008 H 0.83551 0.66814 0.64752 0.0
H4009 H 0.951 0.76312 0.64978 0.0
H4010 H 0.80668 0.67282 0.66824 0.0
H4011 H 0.81603 0.63435 0.666 0.0
H4012 H 0.79188 0.64793 0.65861 0.0
H4013 H 0.95692 0.79573 0.66663 0.0
H4014 H 0.98252 0.77283 0.663 0.0
H4015 H 0.95516 0.75627 0.67231 0.0
C4016 C 0.34302 0.18842 0.65274 0.0
C4017 C 0.37596 0.21139 0.64805 0.0
C4018 C 0.34582 0.1846 0.66129 0.0
C4019 C 0.38225 0.20605 0.66538 0.0
C4020 C 0.41534 0.22912 0.66055 0.0
C4021 C 0.41201 0.22911 0.65205 0.0
C4022 C 0.30901 0.15805 0.66578 0.0
C4023 C 0.45461 0.25641 0.66414 0.0
C4024 C 0.37142 0.21987 0.68821 0.0
C4025 C 0.39237 0.20444 0.69193 0.0
C4026 C 0.36967 0.22247 0.67968 0.0
C4027 C 0.38604 0.20568 0.67457 0.0
C4028 C 0.40747 0.19008 0.67834 0.0
C4029 C 0.41134 0.19083 0.68692 0.0
C4030 C 0.34948 0.24277 0.67626 0.0
C4031 C 0.42546 0.17121 0.67343 0.0
H4032 H 0.31499 0.17395 0.6498 0.0
H4033 H 0.4383 0.24608 0.64858 0.0
H4034 H 0.31339 0.15445 0.6723 0.0
H4035 H 0.28878 0.16937 0.66527 0.0
H4036 H 0.29471 0.12918 0.66284 0.0
H4037 H 0.46664 0.28528 0.66124 0.0
H4038 H 0.45433 0.26038 0.67081 0.0
H4039 H 0.47484 0.24586 0.66266 0.0
H4040 H 0.35565 0.22946 0.692 0.0
H4041 H 0.42659 0.17777 0.68973 0.0
H4042 H 0.36018 0.25489 0.67011 0.0
H4043 H 0.35343 0.26663 0.68034 0.0
H4044 H 0.31802 0.22201 0.67589 0.0
H4045 H 0.40871 0.15741 0.66782 0.0
H4046 H 0.42788 0.14911 0.67707 0.0
H4047 H 0.45524 0.19324 0.67169 0.0
C4048 C 0.89249 0.22436 0.65173 0.0
C4049 C 0.86846 0.18729 0.64857 0.0
C4050 C 0.89657 0.23095 0.66023 0.0
C4051 C 0.87337 0.20049 0.6657 0.0
C4052 C 0.84887 0.16309 0.66247 0.0
C4053 C 0.84829 0.15679 0.65403 0.0
C4054 C 0.9267 0.2701 0.6633 0.0
C4055 C 0.82094 0.12999 0.66779 0.0
C4056 C 0.89676 0.19396 0.68788 0.0
C4057 C 0.88113 0.21368 0.6921 0.0
C4058 C 0.8967 0.19216 0.67937 0.0
C4059 C 0.8766 0.20649 0.67479 0.0
C4060 C 0.8582 0.22411 0.67901 0.0
C4061 C 0.86156 0.2284 0.6876 0.0
C4062 C 0.9187 0.17508 0.6753 0.0
C4063 C 0.83578 0.23955 0.67455 0.0
H4064 H 0.90761 0.24843 0.6476 0.0
H4065 H 0.8304 0.12803 0.65162 0.0
H4066 H 0.9148 0.28077 0.66807 0.0
H4067 H 0.95056 0.26742 0.66607 0.0
H4068 H 0.93897 0.29185 0.65834 0.0
H4069 H 0.795 0.13282 0.66878 0.0
H4070 H 0.81176 0.10164 0.66488 0.0
H4071 H 0.8328 0.12996 0.67387 0.0
H4072 H 0.9115 0.18179 0.69124 0.0
H4073 H 0.84959 0.24389 0.69073 0.0
H4074 H 0.93468 0.19238 0.6699 0.0
H4075 H 0.89826 0.14533 0.67321 0.0
H4076 H 0.93968 0.17361 0.67952 0.0
H4077 H 0.85492 0.27092 0.67346 0.0
H4078 H 0.81114 0.23615 0.6783 0.0
H4079 H 0.82454 0.22509 0.66861 0.0
C4080 C 0.39691 0.21039 0.18665 0.0
C4081 C 0.367 0.21122 0.19093 0.0
C4082 C 0.39369 0.20238 0.17821 0.0
C4083 C 0.3603 0.19649 0.17385 0.0
C4084 C 0.32955 0.19593 0.17825 0.0
C4085 C 0.33269 0.20155 0.1867 0.0
C4086 C 0.42684 0.2011 0.17413 0.0
C4087 C 0.29342 0.19096 0.17417 0.0
C4088 C 0.3799 0.22405 0.15138 0.0
C4089 C 0.35599 0.18893 0.14743 0.0
C4090 C 0.3803 0.22711 0.1599 0.0
C4091 C 0.35836 0.19357 0.16471 0.0
C4092 C 0.33394 0.15791 0.16072 0.0
C4093 C 0.33216 0.15634 0.15213 0.0
C4094 C 0.40518 0.26625 0.16374 0.0
C4095 C 0.31074 0.1209 0.16543 0.0
H4096 H 0.42323 0.21682 0.18984 0.0
H4097 H 0.30855 0.20057 0.18993 0.0
H4098 H 0.42235 0.19439 0.16754 0.0
H4099 H 0.45376 0.22928 0.17495 0.0
H4100 H 0.43155 0.17897 0.17716 0.0
H4101 H 0.28353 0.20941 0.17716 0.0
H4102 H 0.29735 0.19817 0.1676 0.0
H4103 H 0.26993 0.1606 0.17491 0.0
H4104 H 0.39921 0.24912 0.14778 0.0
H4105 H 0.31463 0.12886 0.1491 0.0
H4106 H 0.43218 0.26828 0.16606 0.0
H4107 H 0.39007 0.27063 0.16894 0.0
H4108 H 0.41324 0.29001 0.15928 0.0
H4109 H 0.32561 0.12075 0.17113 0.0
H4110 H 0.30514 0.09536 0.16173 0.0
H4111 H 0.28235 0.11765 0.16705 0.0
C4112 C 0.92468 0.21791 0.15305 0.0
C4113 C 0.89178 0.20613 0.14822 0.0
C4114 C 0.92294 0.22015 0.16162 0.0
C4115 C 0.8868 0.20779 0.16557 0.0
C4116 C 0.85302 0.19293 0.16066 0.0
C4117 C 0.85624 0.19378 0.15211 0.0
C4118 C 0.96035 0.23697 0.16633 0.0
C4119 C 0.81305 0.17644 0.16423 0.0
C4120 C 0.88894 0.18352 0.188 0.0
C4121 C 0.87343 0.20375 0.19208 0.0
C4122 C 0.89138 0.18304 0.1795 0.0
C4123 C 0.8841 0.2083 0.17476 0.0
C4124 C 0.8732 0.23285 0.17892 0.0
C4125 C 0.86651 0.22919 0.18747 0.0
C4126 C 0.89936 0.15306 0.17581 0.0
C4127 C 0.86741 0.26242 0.17442 0.0
H4128 H 0.95245 0.22869 0.15008 0.0
H4129 H 0.83073 0.18549 0.14842 0.0
H4130 H 0.95952 0.25222 0.1719 0.0
H4131 H 0.96587 0.21347 0.16812 0.0
H4132 H 0.98527 0.2574 0.16254 0.0
H4133 H 0.79227 0.15017 0.16083 0.0
H4134 H 0.8116 0.16877 0.17076 0.0
H4135 H 0.80325 0.19779 0.16353 0.0
H4136 H 0.89598 0.16459 0.19139 0.0
H4137 H 0.85549 0.24582 0.19048 0.0
H4138 H 0.92976 0.16112 0.17707 0.0
H4139 H 0.89391 0.14897 0.16918 0.0
H4140 H 0.88096 0.1247 0.17881 0.0
H4141 H 0.88332 0.27106 0.16856 0.0
H4142 H 0.877 0.28863 0.17822 0.0
H4143 H 0.83616 0.25033 0.17319 0.0
C4144 C 0.88794 0.69987 0.15194 0.0
C4145 C 0.8761 0.72312 0.14791 0.0
C4146 C 0.8903 0.69948 0.16049 0.0
C4147 C 0.87741 0.72045 0.16528 0.0
C4148 C 0.86499 0.7438 0.16118 0.0
C4149 C 0.86574 0.74579 0.15258 0.0
C4150 C 0.90585 0.6756 0.16428 0.0
C4151 C 0.84948 0.76585 0.16577 0.0
C4152 C 0.85834 0.68393 0.18754 0.0
C4153 C 0.88616 0.71638 0.19178 0.0
C4154 C 0.85373 0.68515 0.179 0.0
C4155 C 0.87868 0.71927 0.17448 0.0
C4156 C 0.90639 0.75215 0.17884 0.0
C4157 C 0.90831 0.75076 0.18735 0.0
C4158 C 0.82246 0.64906 0.17499 0.0
C4159 C 0.93593 0.78891 0.17468 0.0
H4160 H 0.89485 0.68127 0.14839 0.0
H4161 H 0.85521 0.76274 0.14951 0.0
H4162 H 0.9195 0.68712 0.17027 0.0
H4163 H 0.8818 0.64559 0.16512 0.0
H4164 H 0.9275 0.67439 0.16023 0.0
H4165 H 0.82734 0.76822 0.16213 0.0
H4166 H 0.83649 0.75216 0.1717 0.0
H4167 H 0.87334 0.79566 0.1669 0.0
H4168 H 0.84061 0.65729 0.19083 0.0
H4169 H 0.92955 0.77657 0.19049 0.0
H4170 H 0.82912 0.62542 0.17576 0.0
H4171 H 0.81885 0.65257 0.16842 0.0
H4172 H 0.79449 0.6397 0.17811 0.0
H4173 H 0.96459 0.80035 0.17764 0.0
H4174 H 0.92741 0.81121 0.17543 0.0
H4175 H 0.93949 0.78524 0.1681 0.0
C4176 C 0.56562 0.82658 0.05699 0.0
C4177 C 0.53252 0.82323 0.05328 0.0
C4178 C 0.57869 0.80071 0.0551 0.0
C4179 C 0.55798 0.77067 0.04941 0.0
C4180 C 0.52623 0.76911 0.04521 0.0
C4181 C 0.51375 0.79531 0.04723 0.0
C4182 C 0.61229 0.80317 0.05981 0.0
C4183 C 0.50317 0.73761 0.03912 0.0
C4184 C 0.59737 0.70412 0.04348 0.0
C4185 C 0.57828 0.67387 0.04908 0.0
C4186 C 0.59112 0.7359 0.04343 0.0
C4187 C 0.56478 0.73715 0.04905 0.0
C4188 C 0.54493 0.70629 0.05459 0.0
C4189 C 0.55198 0.67537 0.05454 0.0
C4190 C 0.61297 0.76828 0.03745 0.0
C4191 C 0.51609 0.70581 0.06061 0.0
H4192 H 0.57965 0.8477 0.06179 0.0
H4193 H 0.48775 0.79233 0.04447 0.0
H4194 H 0.60138 0.77934 0.06432 0.0
H4195 H 0.63231 0.79972 0.05568 0.0
H4196 H 0.62865 0.83099 0.06312 0.0
H4197 H 0.48452 0.74458 0.0353 0.0
H4198 H 0.5225 0.73261 0.03509 0.0
H4199 H 0.48435 0.71025 0.04241 0.0
H4200 H 0.61715 0.70306 0.03913 0.0
H4201 H 0.53665 0.65219 0.05887 0.0
H4202 H 0.63286 0.79505 0.04081 0.0
H4203 H 0.59265 0.77417 0.03399 0.0
H4204 H 0.63015 0.76172 0.03309 0.0
H4205 H 0.52924 0.73287 0.06421 0.0
H4206 H 0.50541 0.68118 0.06492 0.0
H4207 H 0.49099 0.70386 0.0573 0.0
C4208 C 0.24698 0.77807 0.0468 0.0
C4209 C 0.25147 0.75201 0.05175 0.0
C4210 C 0.27809 0.81549 0.04528 0.0
C4211 C 0.31473 0.82741 0.04882 0.0
C4212 C 0.31995 0.80033 0.05343 0.0
C4213 C 0.28822 0.76309 0.05488 0.0
C4214 C 0.27093 0.84324 0.04038 0.0
C4215 C 0.35842 0.81151 0.0573 0.0
C4216 C 0.4031 0.92204 0.04184 0.0
C4217 C 0.40687 0.94721 0.04816 0.0
C4218 C 0.3733 0.883 0.04194 0.0
C4219 C 0.34615 0.86907 0.04842 0.0
C4220 C 0.34927 0.89503 0.05465 0.0
C4221 C 0.37988 0.93349 0.05451 0.0
C4222 C 0.37184 0.85628 0.03529 0.0
C4223 C 0.32078 0.882 0.06161 0.0
H4224 H 0.21839 0.77001 0.04457 0.0
H4225 H 0.29157 0.74347 0.05891 0.0
H4226 H 0.27239 0.86605 0.04446 0.0
H4227 H 0.29358 0.85772 0.03567 0.0
H4228 H 0.24222 0.82861 0.03736 0.0
H4229 H 0.3592 0.78613 0.05983 0.0
H4230 H 0.38214 0.82613 0.05281 0.0
H4231 H 0.36419 0.83223 0.06233 0.0
H4232 H 0.4246 0.93238 0.03704 0.0
H4233 H 0.38314 0.95285 0.05946 0.0
H4234 H 0.34273 0.84117 0.03247 0.0
H4235 H 0.37715 0.83384 0.03795 0.0
H4236 H 0.39366 0.87185 0.03047 0.0
H4237 H 0.29083 0.86838 0.05922 0.0
H4238 H 0.32576 0.90625 0.06567 0.0
H4239 H 0.32304 0.85993 0.06528 0.0
C4240 C 0.16555 0.52159 0.05415 0.0
C4241 C 0.1407 0.50076 0.04769 0.0
C4242 C 0.20366 0.52866 0.05453 0.0
C4243 C 0.21764 0.51388 0.0484 0.0
C4244 C 0.19277 0.49271 0.04186 0.0
C4245 C 0.15485 0.4869 0.04152 0.0
C4246 C 0.22899 0.55204 0.06155 0.0
C4247 C 0.2061 0.4759 0.03525 0.0
C4248 C 0.32773 0.56753 0.04753 0.0
C4249 C 0.33677 0.54466 0.0525 0.0
C4250 C 0.28917 0.55638 0.04562 0.0
C4251 C 0.25855 0.52169 0.04889 0.0
C4252 C 0.26764 0.49741 0.05356 0.0
C4253 C 0.30663 0.50912 0.0553 0.0
C4254 C 0.28119 0.58322 0.0406 0.0
C4255 C 0.2361 0.46033 0.05721 0.0
H4256 H 0.15525 0.53257 0.05897 0.0
H4257 H 0.13628 0.47127 0.03647 0.0
H4258 H 0.23828 0.53447 0.06509 0.0
H4259 H 0.25547 0.57764 0.05922 0.0
H4260 H 0.21405 0.56215 0.06574 0.0
H4261 H 0.18371 0.46089 0.0305 0.0
H4262 H 0.23268 0.49903 0.03234 0.0
H4263 H 0.21347 0.45496 0.03795 0.0
H4264 H 0.35092 0.59516 0.04542 0.0
H4265 H 0.31341 0.4916 0.05925 0.0
H4266 H 0.26943 0.59729 0.04458 0.0
H4267 H 0.25919 0.56689 0.03586 0.0
H4268 H 0.3077 0.60609 0.03759 0.0
H4269 H 0.22172 0.46714 0.0622 0.0
H4270 H 0.2475 0.44223 0.05974 0.0
H4271 H 0.21373 0.44335 0.05259 0.0
C4272 C 0.80818 0.53694 0.44527 0.0
C4273 C 0.83896 0.55001 0.4508 0.0
C4274 C 0.77539 0.54013 0.44697 0.0
C4275 C 0.77338 0.55741 0.45435 0.0
C4276 C 0.80363 0.56907 0.46013 0.0
C4277 C 0.83606 0.56519 0.45828 0.0
C4278 C 0.74389 0.52686 0.44064 0.0
C4279 C 0.80261 0.58738 0.46808 0.0
C4280 C 0.70869 0.60285 0.45393 0.0
C4281 C 0.6745 0.57374 0.45745 0.0
C4282 C 0.74141 0.5984 0.45309 0.0
C4283 C 0.74008 0.56408 0.45585 0.0
C4284 C 0.70593 0.53509 0.4596 0.0
C4285 C 0.67373 0.54022 0.46034 0.0
C4286 C 0.77714 0.63007 0.44905 0.0
C4287 C 0.70308 0.49818 0.46268 0.0
H4288 H 0.81056 0.52565 0.43943 0.0
H4289 H 0.86008 0.57595 0.46251 0.0
H4290 H 0.71494 0.5109 0.4435 0.0
H4291 H 0.74589 0.55243 0.43753 0.0
H4292 H 0.74626 0.50805 0.43598 0.0
H4293 H 0.82698 0.59261 0.47214 0.0
H4294 H 0.80403 0.61536 0.46687 0.0
H4295 H 0.77504 0.56874 0.47131 0.0
H4296 H 0.70967 0.62876 0.45167 0.0
H4297 H 0.64763 0.51748 0.46311 0.0
H4298 H 0.78249 0.61922 0.44326 0.0
H4299 H 0.80271 0.63887 0.453 0.0
H4300 H 0.77452 0.6559 0.4477 0.0
H4301 H 0.70914 0.48341 0.45767 0.0
H4302 H 0.67415 0.47797 0.46526 0.0
H4303 H 0.72518 0.50488 0.46745 0.0
C4304 C 0.47509 0.14314 0.46084 0.0
C4305 C 0.50508 0.13471 0.46037 0.0
C4306 C 0.48258 0.18145 0.4601 0.0
C4307 C 0.52107 0.21205 0.45897 0.0
C4308 C 0.55159 0.2037 0.45898 0.0
C4309 C 0.54315 0.16523 0.45956 0.0
C4310 C 0.44907 0.18879 0.46003 0.0
C4311 C 0.59317 0.23519 0.45798 0.0
C4312 C 0.54731 0.30433 0.44731 0.0
C4313 C 0.55789 0.3314 0.4536 0.0
C4314 C 0.53296 0.26496 0.44899 0.0
C4315 C 0.52969 0.25238 0.45718 0.0
C4316 C 0.53883 0.27948 0.46356 0.0
C4317 C 0.55272 0.31868 0.46169 0.0
C4318 C 0.52335 0.2372 0.44199 0.0
C4319 C 0.53639 0.26756 0.47235 0.0
H4320 H 0.44564 0.11976 0.46127 0.0
H4321 H 0.56644 0.15886 0.45915 0.0
H4322 H 0.45515 0.21368 0.46398 0.0
H4323 H 0.44475 0.19615 0.45375 0.0
H4324 H 0.42181 0.16317 0.46209 0.0
H4325 H 0.61365 0.22491 0.45944 0.0
H4326 H 0.59814 0.24564 0.45159 0.0
H4327 H 0.59983 0.26015 0.46196 0.0
H4328 H 0.55167 0.31427 0.44105 0.0
H4329 H 0.56144 0.33972 0.46656 0.0
H4330 H 0.49469 0.21107 0.44294 0.0
H4331 H 0.54506 0.22769 0.44166 0.0
H4332 H 0.5231 0.25046 0.43606 0.0
H4333 H 0.5081 0.24146 0.47362 0.0
H4334 H 0.54036 0.29088 0.4766 0.0
H4335 H 0.55913 0.26006 0.47361 0.0
C4336 C 0.93127 0.36992 0.46475 0.0
C4337 C 0.9426 0.39967 0.45901 0.0
C4338 C 0.89306 0.33829 0.46487 0.0
C4339 C 0.86557 0.33643 0.45913 0.0
C4340 C 0.87685 0.36681 0.45344 0.0
C4341 C 0.91491 0.39778 0.45346 0.0
C4342 C 0.88223 0.30676 0.47108 0.0
C4343 C 0.84875 0.36659 0.44725 0.0
C4344 C 0.77593 0.24511 0.45187 0.0
C4345 C 0.74638 0.24922 0.45547 0.0
C4346 C 0.81512 0.2717 0.45351 0.0
C4347 C 0.82494 0.30306 0.45888 0.0
C4348 C 0.79499 0.30555 0.46295 0.0
C4349 C 0.75613 0.27884 0.46114 0.0
C4350 C 0.84599 0.26805 0.44898 0.0
C4351 C 0.80385 0.33821 0.46875 0.0
H4352 H 0.9522 0.37119 0.46911 0.0
H4353 H 0.92291 0.42069 0.44905 0.0
H4354 H 0.85593 0.30142 0.47444 0.0
H4355 H 0.87536 0.27951 0.46794 0.0
H4356 H 0.90584 0.31391 0.47552 0.0
H4357 H 0.86194 0.39274 0.44333 0.0
H4358 H 0.83805 0.34078 0.44329 0.0
H4359 H 0.82333 0.36487 0.45038 0.0
H4360 H 0.76845 0.22252 0.4474 0.0
H4361 H 0.73329 0.28222 0.46386 0.0
H4362 H 0.86927 0.27174 0.4532 0.0
H4363 H 0.85932 0.29123 0.44433 0.0
H4364 H 0.8342 0.23973 0.44586 0.0
H4365 H 0.82785 0.34334 0.4729 0.0
H4366 H 0.77824 0.33242 0.47245 0.0
H4367 H 0.81315 0.36513 0.46523 0.0
C4368 C 0.53935 0.40399 0.962 0.0
C4369 C 0.5056 0.40259 0.95907 0.0
C4370 C 0.54623 0.37303 0.96085 0.0
C4371 C 0.51886 0.33958 0.95661 0.0
C4372 C 0.48438 0.3377 0.95377 0.0
C4373 C 0.47823 0.36913 0.95502 0.0
C4374 C 0.58344 0.37672 0.96398 0.0
C4375 C 0.45435 0.30284 0.9492 0.0
C4376 C 0.55258 0.2787 0.94512 0.0
C4377 C 0.53959 0.2459 0.95009 0.0
C4378 C 0.54686 0.30954 0.94727 0.0
C4379 C 0.5275 0.30791 0.95461 0.0
C4380 C 0.51577 0.27568 0.95986 0.0
C4381 C 0.52205 0.24513 0.95755 0.0
C4382 C 0.56054 0.34342 0.94153 0.0
C4383 C 0.49554 0.27297 0.96779 0.0
H4384 H 0.56084 0.42962 0.96515 0.0
H4385 H 0.45231 0.36776 0.95266 0.0
H4386 H 0.57773 0.35024 0.96731 0.0
H4387 H 0.60258 0.38022 0.95877 0.0
H4388 H 0.59913 0.40194 0.96809 0.0
H4389 H 0.42818 0.3048 0.9478 0.0
H4390 H 0.46679 0.29984 0.94339 0.0
H4391 H 0.4456 0.27626 0.9528 0.0
H4392 H 0.56656 0.27981 0.93939 0.0
H4393 H 0.51174 0.21993 0.96143 0.0
H4394 H 0.58006 0.37071 0.94476 0.0
H4395 H 0.53545 0.3456 0.93933 0.0
H4396 H 0.57611 0.3409 0.93618 0.0
H4397 H 0.51326 0.29911 0.97152 0.0
H4398 H 0.48978 0.24708 0.97138 0.0
H4399 H 0.46765 0.27176 0.96656 0.0
C4400 C 0.79767 0.31461 0.94835 0.0
C4401 C 0.83362 0.32774 0.9521 0.0
C4402 C 0.76595 0.27802 0.95017 0.0
C4403 C 0.77036 0.25375 0.95584 0.0
C4404 C 0.80615 0.26777 0.95995 0.0
C4405 C 0.8374 0.30456 0.958 0.0
C4406 C 0.72841 0.26445 0.94567 0.0
C4407 C 0.81208 0.24306 0.96607 0.0
C4408 C 0.67925 0.16569 0.96392 0.0
C4409 C 0.67751 0.13574 0.95915 0.0
C4410 C 0.70951 0.20403 0.96301 0.0
C4411 C 0.73845 0.21293 0.95706 0.0
C4412 C 0.73666 0.18276 0.9522 0.0
C4413 C 0.70645 0.14455 0.95335 0.0
C4414 C 0.71053 0.23502 0.96842 0.0
C4415 C 0.76647 0.19088 0.9457 0.0
H4416 H 0.79499 0.3322 0.94365 0.0
H4417 H 0.86542 0.31431 0.96076 0.0
H4418 H 0.72298 0.24011 0.9416 0.0
H4419 H 0.70392 0.25359 0.95001 0.0
H4420 H 0.72868 0.28774 0.94193 0.0
H4421 H 0.84018 0.25935 0.96929 0.0
H4422 H 0.78847 0.23133 0.97063 0.0
H4423 H 0.81121 0.21808 0.96293 0.0
H4424 H 0.6571 0.15908 0.96846 0.0
H4425 H 0.70511 0.12165 0.94959 0.0
H4426 H 0.70827 0.25686 0.96467 0.0
H4427 H 0.73851 0.25019 0.9717 0.0
H4428 H 0.68674 0.22318 0.97296 0.0
H4429 H 0.76653 0.21161 0.9412 0.0
H4430 H 0.76103 0.1643 0.94244 0.0
H4431 H 0.7957 0.20445 0.94845 0.0
C4432 C 0.78344 0.57324 0.95167 0.0
C4433 C 0.75312 0.53815 0.95457 0.0
C4434 C 0.82214 0.58544 0.95372 0.0
C4435 C 0.83072 0.56181 0.95874 0.0
C4436 C 0.79984 0.52779 0.96216 0.0
C4437 C 0.76147 0.5163 0.96001 0.0
C4438 C 0.85397 0.62179 0.94989 0.0
C4439 C 0.80739 0.50155 0.9675 0.0
C4440 C 0.92145 0.55848 0.95332 0.0
C4441 C 0.94777 0.5812 0.95941 0.0
C4442 C 0.88362 0.552 0.95311 0.0
C4443 C 0.8712 0.56869 0.95913 0.0
C4444 C 0.89741 0.59151 0.96536 0.0
C4445 C 0.93545 0.59755 0.96542 0.0
C4446 C 0.85697 0.52729 0.94636 0.0
C4447 C 0.88537 0.60981 0.97189 0.0
H4448 H 0.7771 0.58977 0.94734 0.0
H4449 H 0.73811 0.48879 0.96213 0.0
H4450 H 0.87656 0.63918 0.95444 0.0
H4451 H 0.86792 0.61399 0.94499 0.0
H4452 H 0.84288 0.63987 0.94721 0.0
H4453 H 0.7809 0.48 0.97074 0.0
H4454 H 0.81789 0.48579 0.96368 0.0
H4455 H 0.83016 0.51853 0.97205 0.0
H4456 H 0.93039 0.54559 0.94863 0.0
H4457 H 0.95551 0.61521 0.97013 0.0
H4458 H 0.84733 0.54431 0.94272 0.0
H4459 H 0.83078 0.50236 0.94898 0.0
H4460 H 0.87099 0.51608 0.9422 0.0
H4461 H 0.87977 0.63183 0.96911 0.0
H4462 H 0.90783 0.62391 0.97667 0.0
H4463 H 0.85808 0.58779 0.97479 0.0
C4464 C 0.41297 0.53761 0.54697 0.0
C4465 C 0.40729 0.50032 0.54811 0.0
C4466 C 0.38286 0.54562 0.54822 0.0
C4467 C 0.3455 0.51532 0.55035 0.0
C4468 C 0.33937 0.47745 0.55133 0.0
C4469 C 0.3705 0.47065 0.55039 0.0
C4470 C 0.39131 0.58674 0.54739 0.0
C4471 C 0.29998 0.4441 0.55343 0.0
C4472 C 0.28216 0.54699 0.56134 0.0
C4473 C 0.26027 0.54973 0.55495 0.0
C4474 C 0.30875 0.53434 0.55997 0.0
C4475 C 0.31367 0.52393 0.55201 0.0
C4476 C 0.29005 0.5245 0.54561 0.0
C4477 C 0.26358 0.53741 0.54716 0.0
C4478 C 0.33326 0.53441 0.56698 0.0
C4479 C 0.29426 0.51356 0.53705 0.0
H4480 H 0.44124 0.56089 0.54522 0.0
H4481 H 0.36588 0.44199 0.55142 0.0
H4482 H 0.37213 0.58841 0.54273 0.0
H4483 H 0.3853 0.59658 0.55324 0.0
H4484 H 0.42183 0.60695 0.54567 0.0
H4485 H 0.2993 0.41599 0.55335 0.0
H4486 H 0.29131 0.4485 0.55957 0.0
H4487 H 0.27817 0.44271 0.54905 0.0
H4488 H 0.27971 0.55656 0.56737 0.0
H4489 H 0.24711 0.53992 0.54219 0.0
H4490 H 0.36392 0.55654 0.56589 0.0
H4491 H 0.33184 0.50607 0.56744 0.0
H4492 H 0.3241 0.54074 0.57289 0.0
H4493 H 0.32218 0.53613 0.53447 0.0
H4494 H 0.27059 0.51053 0.53301 0.0
H4495 H 0.29466 0.48602 0.53702 0.0
C4496 C 0.56019 0.77588 0.55974 0.0
C4497 C 0.53874 0.74602 0.5542 0.0
C4498 C 0.5733 0.81474 0.55776 0.0
C4499 C 0.56428 0.8242 0.55005 0.0
C4500 C 0.54481 0.79436 0.54423 0.0
C4501 C 0.53236 0.75564 0.54636 0.0
C4502 C 0.59425 0.84536 0.56415 0.0
C4503 C 0.53428 0.8029 0.53597 0.0
C4504 C 0.54811 0.9102 0.55094 0.0
C4505 C 0.58243 0.94033 0.54769 0.0
C4506 C 0.54122 0.87221 0.55134 0.0
C4507 C 0.56993 0.86387 0.54864 0.0
C4508 C 0.60441 0.89401 0.54514 0.0
C4509 C 0.60996 0.93175 0.54459 0.0
C4510 C 0.50351 0.84121 0.55491 0.0
C4511 C 0.63623 0.88689 0.54234 0.0
H4512 H 0.56489 0.76855 0.56583 0.0
H4513 H 0.51527 0.73265 0.5421 0.0
H4514 H 0.61984 0.87075 0.56148 0.0
H4515 H 0.57478 0.85539 0.56653 0.0
H4516 H 0.60384 0.83441 0.56934 0.0
H4517 H 0.52449 0.77807 0.53174 0.0
H4518 H 0.5106 0.80954 0.53666 0.0
H4519 H 0.55923 0.82858 0.53321 0.0
H4520 H 0.52653 0.91642 0.55328 0.0
H4521 H 0.6365 0.95474 0.54206 0.0
H4522 H 0.50906 0.83103 0.56077 0.0
H4523 H 0.48968 0.81599 0.55075 0.0
H4524 H 0.48287 0.85166 0.55603 0.0
H4525 H 0.64982 0.88174 0.54773 0.0
H4526 H 0.65897 0.91179 0.53889 0.0
H4527 H 0.6244 0.86069 0.53848 0.0
C4528 C 0.31593 0.79849 0.55746 0.0
C4529 C 0.327 0.83473 0.55409 0.0
C4530 C 0.27952 0.76621 0.55574 0.0
C4531 C 0.25337 0.76998 0.55051 0.0
C4532 C 0.26522 0.80627 0.54681 0.0
C4533 C 0.30171 0.83826 0.54871 0.0
C4534 C 0.26835 0.72837 0.55981 0.0
C4535 C 0.23868 0.81173 0.54113 0.0
C4536 C 0.16818 0.67651 0.54225 0.0
C4537 C 0.13761 0.67167 0.54726 0.0
C4538 C 0.20554 0.70883 0.54306 0.0
C4539 C 0.21313 0.73648 0.54924 0.0
C4540 C 0.18231 0.73153 0.55435 0.0
C4541 C 0.14486 0.69967 0.5532 0.0
C4542 C 0.23697 0.71315 0.53732 0.0
C4543 C 0.18909 0.75933 0.5612 0.0
H4544 H 0.33502 0.7959 0.56178 0.0
H4545 H 0.3098 0.86648 0.54626 0.0
H4546 H 0.24285 0.71964 0.56378 0.0
H4547 H 0.25998 0.70568 0.55511 0.0
H4548 H 0.29222 0.72976 0.56353 0.0
H4549 H 0.25335 0.84055 0.53817 0.0
H4550 H 0.22752 0.78913 0.53635 0.0
H4551 H 0.2134 0.80862 0.54458 0.0
H4552 H 0.16279 0.65507 0.53762 0.0
H4553 H 0.12152 0.69599 0.55713 0.0
H4554 H 0.25882 0.70937 0.54072 0.0
H4555 H 0.25198 0.74256 0.53464 0.0
H4556 H 0.22552 0.69167 0.53231 0.0
H4557 H 0.21081 0.75983 0.56549 0.0
H4558 H 0.16222 0.75148 0.56465 0.0
H4559 H 0.20094 0.789 0.55877 0.0
C4560 C 0.23189 0.017 0.38752 0.0
C4561 C 0.25129 0.0115 0.38096 0.0
C4562 C 0.22631 0.0489 0.3879 0.0
C4563 C 0.24015 0.07648 0.38154 0.0
C4564 C 0.25987 0.07134 0.37489 0.0
C4565 C 0.26536 0.03899 0.37468 0.0
C4566 C 0.20532 0.05291 0.39517 0.0
C4567 C 0.27494 0.0999 0.36797 0.0
C4568 C 0.18694 0.13328 0.38142 0.0
C4569 C 0.21135 0.16549 0.38617 0.0
C4570 C 0.19743 0.10565 0.37925 0.0
C4571 C 0.2331 0.11002 0.38197 0.0
C4572 C 0.25895 0.14393 0.38632 0.0
C4573 C 0.24771 0.17116 0.38839 0.0
C4574 C 0.16875 0.07005 0.37466 0.0
C4575 C 0.29704 0.14979 0.38943 0.0
H4576 H 0.2208 0.99618 0.39244 0.0
H4577 H 0.28045 0.03517 0.36961 0.0
H4578 H 0.22387 0.08086 0.39827 0.0
H4579 H 0.17879 0.05278 0.39313 0.0
H4580 H 0.19693 0.0293 0.39967 0.0
H4581 H 0.28893 0.09154 0.36316 0.0
H4582 H 0.25092 0.10233 0.3652 0.0
H4583 H 0.29627 0.12889 0.3703 0.0
H4584 H 0.15847 0.12836 0.37985 0.0
H4585 H 0.26627 0.19553 0.39223 0.0
H4586 H 0.15526 0.04515 0.37891 0.0
H4587 H 0.18342 0.06286 0.36981 0.0
H4588 H 0.14545 0.07369 0.37187 0.0
H4589 H 0.29171 0.12992 0.39461 0.0
H4590 H 0.31629 0.17985 0.39155 0.0
H4591 H 0.31216 0.14289 0.38463 0.0
C4592 C 0.07712 0.24721 0.38476 0.0
C4593 C 0.07307 0.27579 0.38069 0.0
C4594 C 0.04545 0.20995 0.38606 0.0
C4595 C 0.00872 0.19991 0.38282 0.0
C4596 C 1.00457 0.22837 0.3785 0.0
C4597 C 0.03652 0.26611 0.37766 0.0
C4598 C 0.05138 0.1814 0.39098 0.0
C4599 C 0.96653 0.21884 0.37466 0.0
C4600 C 0.94194 0.09047 0.38104 0.0
C4601 C 0.9202 0.082 0.38822 0.0
C4602 C 0.96913 0.12897 0.37892 0.0
C4603 C 0.975 0.15981 0.38412 0.0
C4604 C 0.95129 0.1514 0.39111 0.0
C4605 C 0.92437 0.11275 0.39307 0.0
C4606 C 0.99341 0.13638 0.37138 0.0
C4607 C 0.95648 0.18294 0.3969 0.0
H4608 H 0.10505 0.25407 0.38707 0.0
H4609 H 0.03309 0.28759 0.37438 0.0
H4610 H 0.03081 0.17047 0.39616 0.0
H4611 H 0.04549 0.15621 0.38715 0.0
H4612 H 0.0812 0.19427 0.39342 0.0
H4613 H 0.96874 0.24313 0.37097 0.0
H4614 H 0.95614 0.19305 0.3707 0.0
H4615 H 0.94447 0.21168 0.37947 0.0
H4616 H 0.9395 0.06686 0.37736 0.0
H4617 H 0.90816 0.10632 0.39871 0.0
H4618 H 0.02321 0.14414 0.37316 0.0
H4619 H 0.99534 0.16103 0.36788 0.0
H4620 H 0.98163 0.11064 0.36735 0.0
H4621 H 0.98451 0.19432 0.40012 0.0
H4622 H 0.93305 0.17244 0.40151 0.0
H4623 H 0.95726 0.20735 0.39353 0.0
C4624 C 0.81644 0.8167 0.38748 0.0
C4625 C 0.80373 0.83011 0.38097 0.0
C4626 C 0.8548 0.82447 0.38791 0.0
C4627 C 0.88171 0.84746 0.38182 0.0
C4628 C 0.86889 0.86102 0.3752 0.0
C4629 C 0.82986 0.85172 0.3748 0.0
C4630 C 0.8667 0.80876 0.39501 0.0
C4631 C 0.8967 0.88645 0.36872 0.0
C4632 C 0.98598 0.89373 0.38927 0.0
C4633 C 0.99704 0.86775 0.38635 0.0
C4634 C 0.94948 0.88911 0.38738 0.0
C4635 C 0.92314 0.85736 0.38254 0.0
C4636 C 0.93521 0.83242 0.3792 0.0
C4637 C 0.97194 0.83789 0.38116 0.0
C4638 C 0.93815 0.91671 0.39101 0.0
C4639 C 0.90818 0.79806 0.37409 0.0
H4640 H 0.79635 0.8005 0.39232 0.0
H4641 H 0.82024 0.86294 0.36988 0.0
H4642 H 0.88058 0.79243 0.39278 0.0
H4643 H 0.88826 0.83294 0.39879 0.0
H4644 H 0.8418 0.78941 0.39894 0.0
H4645 H 0.8824 0.89507 0.36403 0.0
H4646 H 0.92044 0.91291 0.37154 0.0
H4647 H 0.91003 0.87121 0.36568 0.0
H4648 H 1.005 0.91633 0.39344 0.0
H4649 H 0.98011 0.81728 0.37904 0.0
H4650 H 0.91645 0.90188 0.39588 0.0
H4651 H 0.92463 0.92619 0.38633 0.0
H4652 H 0.96331 0.94261 0.39367 0.0
H4653 H 0.88462 0.77639 0.37799 0.0
H4654 H 0.92321 0.78414 0.37118 0.0
H4655 H 0.89457 0.80672 0.36927 0.0
C4656 C 0.34052 0.87471 0.79124 0.0
C4657 C 0.34667 0.91177 0.79291 0.0
C4658 C 0.37134 0.86739 0.79065 0.0
C4659 C 0.40983 0.89812 0.79157 0.0
C4660 C 0.41625 0.93558 0.79346 0.0
C4661 C 0.38454 0.94188 0.79419 0.0
C4662 C 0.36257 0.82685 0.78874 0.0
C4663 C 0.45666 0.96939 0.79431 0.0
C4664 C 0.48559 0.86727 0.79473 0.0
C4665 C 0.49679 0.86593 0.78671 0.0
C4666 C 0.4586 0.87933 0.79647 0.0
C4667 C 0.44288 0.89096 0.79005 0.0
C4668 C 0.45592 0.89169 0.78198 0.0
C4669 C 0.48228 0.8788 0.78041 0.0
C4670 C 0.44505 0.87726 0.80512 0.0
C4671 C 0.44053 0.90423 0.77493 0.0
H4672 H 0.31131 0.85132 0.79023 0.0
H4673 H 0.38955 0.97067 0.79533 0.0
H4674 H 0.37358 0.82606 0.78258 0.0
H4675 H 0.37741 0.81761 0.79314 0.0
H4676 H 0.33109 0.80566 0.7889 0.0
H4677 H 0.45682 0.99581 0.79646 0.0
H4678 H 0.47364 0.96239 0.79862 0.0
H4679 H 0.47146 0.97564 0.78832 0.0
H4680 H 0.49632 0.85687 0.7996 0.0
H4681 H 0.49073 0.87766 0.77419 0.0
H4682 H 0.41454 0.85374 0.80564 0.0
H4683 H 0.44603 0.90455 0.80684 0.0
H4684 H 0.46273 0.87158 0.80952 0.0
H4685 H 0.4098 0.88234 0.77385 0.0
H4686 H 0.45694 0.90778 0.76923 0.0
H4687 H 0.44172 0.93192 0.77635 0.0
C4688 C 0.17838 0.63249 0.78416 0.0
C4689 C 0.21195 0.66412 0.78726 0.0
C4690 C 0.16805 0.59441 0.78629 0.0
C4691 C 0.19208 0.58777 0.79161 0.0
C4692 C 0.2245 0.61981 0.79522 0.0
C4693 C 0.23412 0.65761 0.79297 0.0
C4694 C 0.13345 0.56129 0.78223 0.0
C4695 C 0.25105 0.61426 0.80088 0.0
C4696 C 0.1586 0.48401 0.79848 0.0
C4697 C 0.17564 0.47202 0.79255 0.0
C4698 C 0.16373 0.52162 0.79833 0.0
C4699 C 0.18716 0.54814 0.79222 0.0
C4700 C 0.2055 0.53652 0.78642 0.0
C4701 C 0.19941 0.49883 0.78664 0.0
C4702 C 0.14354 0.53272 0.80461 0.0
C4703 C 0.23128 0.56377 0.77986 0.0
H4704 H 0.1617 0.63745 0.7796 0.0
H4705 H 0.26058 0.68199 0.79524 0.0
H4706 H 0.14343 0.54813 0.77758 0.0
H4707 H 0.11589 0.5385 0.78674 0.0
H4708 H 0.11479 0.57081 0.7792 0.0
H4709 H 0.27067 0.64115 0.80425 0.0
H4710 H 0.23422 0.59092 0.80533 0.0
H4711 H 0.26899 0.60557 0.79729 0.0
H4712 H 0.14095 0.46402 0.80316 0.0
H4713 H 0.21331 0.49036 0.78208 0.0
H4714 H 0.12227 0.53865 0.80157 0.0
H4715 H 0.1647 0.55962 0.80776 0.0
H4716 H 0.12814 0.50968 0.80922 0.0
H4717 H 0.215 0.57405 0.77615 0.0
H4718 H 0.24286 0.55006 0.77572 0.0
H4719 H 0.25596 0.58948 0.78268 0.0
C4720 C 0.58816 0.7314 0.78482 0.0
C4721 C 0.61329 0.73779 0.79137 0.0
C4722 C 0.55028 0.69996 0.7847 0.0
C4723 C 0.53706 0.67288 0.79116 0.0
C4724 C 0.56265 0.67819 0.79767 0.0
C4725 C 0.60025 0.71084 0.79776 0.0
C4726 C 0.52414 0.69624 0.77769 0.0
C4727 C 0.55021 0.64958 0.80458 0.0
C4728 C 0.4273 0.61872 0.79253 0.0
C4729 C 0.41724 0.58598 0.78777 0.0
C4730 C 0.46618 0.64566 0.79427 0.0
C4731 C 0.496 0.64011 0.79107 0.0
C4732 C 0.48583 0.60572 0.7867 0.0
C4733 C 0.44656 0.57904 0.78509 0.0
C4734 C 0.47531 0.68167 0.79897 0.0
C4735 C 0.51653 0.59857 0.78315 0.0
H4736 H 0.59794 0.75133 0.77975 0.0
H4737 H 0.61924 0.71531 0.80285 0.0
H4738 H 0.51311 0.66788 0.77466 0.0
H4739 H 0.49877 0.69761 0.78001 0.0
H4740 H 0.53902 0.71935 0.77307 0.0
H4741 H 0.57369 0.65727 0.80908 0.0
H4742 H 0.52495 0.64803 0.80774 0.0
H4743 H 0.541 0.62035 0.80215 0.0
H4744 H 0.40471 0.6243 0.79455 0.0
H4745 H 0.43895 0.55404 0.78131 0.0
H4746 H 0.48664 0.70658 0.79472 0.0
H4747 H 0.49798 0.68816 0.80359 0.0
H4748 H 0.44939 0.67901 0.80207 0.0
H4749 H 0.53023 0.61801 0.77787 0.0
H4750 H 0.50442 0.56829 0.78106 0.0
H4751 H 0.5396 0.60518 0.78769 0.0
C4752 C 0.17433 0.57474 0.28803 0.0
C4753 C 0.21361 0.58579 0.28819 0.0
C4754 C 0.16193 0.60105 0.29017 0.0
C4755 C 0.18946 0.63932 0.29251 0.0
C4756 C 0.22871 0.64934 0.29334 0.0
C4757 C 0.24025 0.62257 0.29115 0.0
C4758 C 0.11987 0.58901 0.28919 0.0
C4759 C 0.25928 0.68959 0.29578 0.0
C4760 C 0.175 0.72154 0.28522 0.0
C4761 C 0.16447 0.73345 0.29235 0.0
C4762 C 0.1822 0.69064 0.28521 0.0
C4763 C 0.17887 0.67052 0.29253 0.0
C4764 C 0.16719 0.68155 0.29975 0.0
C4765 C 0.15984 0.71273 0.29956 0.0
C4766 C 0.19464 0.68039 0.27735 0.0
C4767 C 0.1634 0.66103 0.30768 0.0
H4768 H 0.15369 0.54664 0.2856 0.0
H4769 H 0.2707 0.63142 0.29118 0.0
H4770 H 0.1097 0.599 0.29444 0.0
H4771 H 0.11621 0.60266 0.28363 0.0
H4772 H 0.10133 0.55721 0.28861 0.0
H4773 H 0.28689 0.69099 0.29746 0.0
H4774 H 0.26498 0.70963 0.29061 0.0
H4775 H 0.24934 0.7 0.30099 0.0
H4776 H 0.1784 0.73696 0.27957 0.0
H4777 H 0.15192 0.72177 0.30511 0.0
H4778 H 0.17522 0.64945 0.2759 0.0
H4779 H 0.22428 0.68498 0.27802 0.0
H4780 H 0.19451 0.69795 0.27213 0.0
H4781 H 0.14037 0.63036 0.30715 0.0
H4782 H 0.15628 0.67436 0.31284 0.0
H4783 H 0.19071 0.66134 0.30909 0.0
C4784 C 0.34667 0.49533 0.29812 0.0
C4785 C 0.34574 0.46788 0.29268 0.0
C4786 C 0.37668 0.53423 0.2978 0.0
C4787 C 0.40683 0.54577 0.292 0.0
C4788 C 0.40645 0.5176 0.2867 0.0
C4789 C 0.37556 0.47931 0.28699 0.0
C4790 C 0.37499 0.56327 0.30339 0.0
C4791 C 0.43807 0.5281 0.2805 0.0
C4792 C 0.46691 0.64816 0.28363 0.0
C4793 C 0.50224 0.66135 0.28767 0.0
C4794 C 0.43475 0.61164 0.28537 0.0
C4795 C 0.43813 0.58731 0.2912 0.0
C4796 C 0.47315 0.60152 0.29562 0.0
C4797 C 0.50475 0.6383 0.29379 0.0
C4798 C 0.39793 0.59814 0.28059 0.0
C4799 C 0.47819 0.57674 0.30187 0.0
H4800 H 0.32287 0.48677 0.30233 0.0
H4801 H 0.37421 0.45845 0.2826 0.0
H4802 H 0.40336 0.58167 0.30635 0.0
H4803 H 0.3682 0.58255 0.29976 0.0
H4804 H 0.35256 0.54918 0.30817 0.0
H4805 H 0.43525 0.50233 0.2773 0.0
H4806 H 0.43723 0.54797 0.2759 0.0
H4807 H 0.46678 0.54343 0.2835 0.0
H4808 H 0.46511 0.66555 0.27877 0.0
H4809 H 0.53227 0.64803 0.29679 0.0
H4810 H 0.3726 0.58575 0.28473 0.0
H4811 H 0.39398 0.575 0.27631 0.0
H4812 H 0.39825 0.62191 0.27702 0.0
H4813 H 0.45366 0.56449 0.30622 0.0
H4814 H 0.50555 0.59314 0.30534 0.0
H4815 H 0.47831 0.55214 0.29878 0.0
C4816 C 0.42918 0.83725 0.28902 0.0
C4817 C 0.41683 0.86399 0.2876 0.0
C4818 C 0.46739 0.84919 0.29135 0.0
C4819 C 0.49425 0.88905 0.29234 0.0
C4820 C 0.48112 0.91598 0.29157 0.0
C4821 C 0.44254 0.90315 0.2892 0.0
C4822 C 0.47975 0.81927 0.29202 0.0
C4823 C 0.50864 0.95867 0.29259 0.0
C4824 C 0.59448 0.91466 0.30048 0.0
C4825 C 0.61445 0.91851 0.29321 0.0
C4826 C 0.55566 0.90641 0.30036 0.0
C4827 C 0.53669 0.90245 0.2928 0.0
C4828 C 0.55769 0.90843 0.28548 0.0
C4829 C 0.59601 0.91627 0.28579 0.0
C4830 C 0.5344 0.90017 0.30829 0.0
C4831 C 0.53916 0.90481 0.27726 0.0
H4832 H 0.40946 0.80696 0.28777 0.0
H4833 H 0.43338 0.92404 0.28803 0.0
H4834 H 0.49794 0.82172 0.2867 0.0
H4835 H 0.4974 0.82412 0.29757 0.0
H4836 H 0.45464 0.78942 0.29219 0.0
H4837 H 0.49313 0.97511 0.29315 0.0
H4838 H 0.52712 0.96428 0.29804 0.0
H4839 H 0.52803 0.96972 0.28722 0.0
H4840 H 0.60851 0.91629 0.30623 0.0
H4841 H 0.61136 0.91971 0.28012 0.0
H4842 H 0.51155 0.86942 0.30882 0.0
H4843 H 0.51993 0.91767 0.30846 0.0
H4844 H 0.55395 0.90777 0.31363 0.0
H4845 H 0.51558 0.87463 0.27633 0.0
H4846 H 0.56013 0.91272 0.27218 0.0
H4847 H 0.52613 0.92359 0.27697 0.0
C4848 C 0.05919 0.83479 0.87373 0.0
C4849 C 0.07271 0.82851 0.88113 0.0
C4850 C 0.02869 0.84315 0.87356 0.0
C4851 C 0.01084 0.8445 0.88094 0.0
C4852 C 0.02315 0.83593 0.88835 0.0
C4853 C 0.05393 0.8284 0.88835 0.0
C4854 C 0.01697 0.85248 0.86553 0.0
C4855 C 1.00508 0.83656 0.89638 0.0
C4856 C 0.96882 0.91006 0.88465 0.0
C4857 C 0.92913 0.88357 0.88541 0.0
C4858 C 0.99537 0.89806 0.88262 0.0
C4859 C 0.98213 0.85847 0.88117 0.0
C4860 C 0.9417 0.83206 0.88116 0.0
C4861 C 0.91564 0.84486 0.88333 0.0
C4862 C 0.03796 0.92735 0.88279 0.0
C4863 C 0.9262 0.78976 0.87949 0.0
H4864 H 0.07367 0.83511 0.86813 0.0
H4865 H 0.06398 0.8232 0.89409 0.0
H4866 H 0.98505 0.83685 0.86492 0.0
H4867 H 0.02704 0.88382 0.86527 0.0
H4868 H 0.02951 0.84502 0.86028 0.0
H4869 H 0.01569 0.82619 0.9015 0.0
H4870 H 0.0118 0.86644 0.89776 0.0
H4871 H 0.97318 0.81825 0.89605 0.0
H4872 H 0.97948 0.94003 0.88624 0.0
H4873 H 0.88512 0.82411 0.88395 0.0
H4874 H 0.05231 0.92524 0.8772 0.0
H4875 H 0.05141 0.92105 0.88803 0.0
H4876 H 0.04361 0.9574 0.88339 0.0
H4877 H 0.94086 0.78587 0.87415 0.0
H4878 H 0.89454 0.7742 0.87838 0.0
H4879 H 0.93213 0.77637 0.88481 0.0
C4880 C 0.21105 0.24481 0.88504 0.0
C4881 C 0.24407 0.27344 0.88105 0.0
C4882 C 0.2024 0.20622 0.88527 0.0
C4883 C 0.228 0.1958 0.88163 0.0
C4884 C 0.2612 0.22446 0.87748 0.0
C4885 C 0.2684 0.26278 0.8771 0.0
C4886 C 0.16605 0.17674 0.88956 0.0
C4887 C 0.28964 0.21489 0.87363 0.0
C4888 C 0.21799 0.104 0.89097 0.0
C4889 C 0.19343 0.07583 0.8854 0.0
C4890 C 0.23171 0.1435 0.88954 0.0
C4891 C 0.22004 0.15508 0.88242 0.0
C4892 C 0.1967 0.12673 0.8766 0.0
C4893 C 0.18373 0.08746 0.87816 0.0
C4894 C 0.2569 0.17264 0.89586 0.0
C4895 C 0.18305 0.13746 0.869 0.0
H4896 H 0.19174 0.25259 0.88803 0.0
H4897 H 0.29366 0.28452 0.87394 0.0
H4898 H 0.14867 0.15185 0.88549 0.0
H4899 H 0.17375 0.16554 0.895 0.0
H4900 H 0.14779 0.18896 0.89155 0.0
H4901 H 0.31386 0.2403 0.87059 0.0
H4902 H 0.30176 0.20412 0.87836 0.0
H4903 H 0.2748 0.1915 0.86908 0.0
H4904 H 0.22527 0.09496 0.8966 0.0
H4905 H 0.16439 0.06562 0.8739 0.0
H4906 H 0.24015 0.18399 0.89904 0.0
H4907 H 0.28207 0.19751 0.89294 0.0
H4908 H 0.26758 0.15988 0.90048 0.0
H4909 H 0.16055 0.14477 0.87065 0.0
H4910 H 0.17053 0.11345 0.86452 0.0
H4911 H 0.20709 0.16327 0.86606 0.0
C4912 C 0.82699 0.03407 0.88929 0.0
C4913 C 0.80948 0.01467 0.88205 0.0
C4914 C 0.86516 0.06505 0.88938 0.0
C4915 C 0.88699 0.0766 0.88208 0.0
C4916 C 0.86902 0.05776 0.87469 0.0
C4917 C 0.83026 0.02729 0.87474 0.0
C4918 C 0.8826 0.0844 0.8974 0.0
C4919 C 0.89129 0.06837 0.8668 0.0
C4920 C 0.98008 0.17383 0.88415 0.0
C4921 C 1.00604 0.16218 0.8868 0.0
C4922 C 0.94181 0.14629 0.88193 0.0
C4923 C 0.92923 0.10628 0.88243 0.0
C4924 C 0.95643 0.09472 0.88445 0.0
C4925 C 0.99436 0.12273 0.88657 0.0
C4926 C 0.91395 0.1599 0.87971 0.0
C4927 C 0.94468 0.05257 0.88508 0.0
H4928 H 0.8109 0.02448 0.89494 0.0
H4929 H 0.81691 0.012 0.86915 0.0
H4930 H 0.90615 0.07871 0.89911 0.0
H4931 H 0.89547 0.11613 0.89684 0.0
H4932 H 0.86098 0.07398 0.9024 0.0
H4933 H 0.87224 0.05427 0.86147 0.0
H4934 H 0.90682 0.1001 0.86589 0.0
H4935 H 0.91335 0.05929 0.86704 0.0
H4936 H 0.98871 0.20417 0.88439 0.0
H4937 H 0.01426 0.11355 0.88865 0.0
H4938 H 0.8936 0.15386 0.88483 0.0
H4939 H 0.89651 0.14403 0.87432 0.0
H4940 H 0.92908 0.19136 0.8784 0.0
H4941 H 0.92638 0.03986 0.89056 0.0
H4942 H 0.97007 0.04839 0.88558 0.0
H4943 H 0.92731 0.03633 0.87972 0.0
C4944 C 0.92755 0.36808 0.72155 0.0
C4945 C 0.91748 0.34367 0.71478 0.0
C4946 C 0.92075 0.39935 0.72172 0.0
C4947 C 0.90212 0.4058 0.71504 0.0
C4948 C 0.89221 0.38133 0.70813 0.0
C4949 C 0.90055 0.3509 0.70803 0.0
C4950 C 0.93273 0.42494 0.72915 0.0
C4951 C 0.87146 0.38636 0.70098 0.0
C4952 C 0.85271 0.46244 0.72139 0.0
C4953 C 0.88048 0.50032 0.71925 0.0
C4954 C 0.85801 0.43097 0.7195 0.0
C4955 C 0.89228 0.43751 0.71552 0.0
C4956 C 0.91924 0.47548 0.71292 0.0
C4957 C 0.91303 0.50636 0.71482 0.0
C4958 C 0.82821 0.39108 0.72231 0.0
C4959 C 0.95627 0.48408 0.70872 0.0
H4960 H 0.94051 0.3624 0.72678 0.0
H4961 H 0.8921 0.33159 0.70284 0.0
H4962 H 0.95062 0.45567 0.72734 0.0
H4963 H 0.90673 0.42176 0.73229 0.0
H4964 H 0.94944 0.41787 0.73354 0.0
H4965 H 0.8663 0.36546 0.69602 0.0
H4966 H 0.84322 0.38241 0.703 0.0
H4967 H 0.88846 0.41607 0.69851 0.0
H4968 H 0.82792 0.45771 0.72496 0.0
H4969 H 0.93499 0.53567 0.71333 0.0
H4970 H 0.83998 0.38233 0.72749 0.0
H4971 H 0.82134 0.36971 0.71737 0.0
H4972 H 0.80105 0.38979 0.72432 0.0
H4973 H 0.97576 0.48158 0.71318 0.0
H4974 H 0.9715 0.5136 0.70608 0.0
H4975 H 0.95052 0.46288 0.7038 0.0
C4976 C 0.5849 0.44709 0.72229 0.0
C4977 C 0.58807 0.41559 0.71956 0.0
C4978 C 0.61259 0.48517 0.72012 0.0
C4979 C 0.64444 0.49193 0.71516 0.0
C4980 C 0.64622 0.45994 0.71195 0.0
C4981 C 0.61808 0.42217 0.71422 0.0
C4982 C 0.60952 0.51826 0.72371 0.0
C4983 C 0.6797 0.4656 0.70673 0.0
C4984 C 0.71399 0.59468 0.70762 0.0
C4985 C 0.74215 0.60857 0.71375 0.0
C4986 C 0.68193 0.55685 0.70795 0.0
C4987 C 0.67855 0.53192 0.71444 0.0
C4988 C 0.70776 0.54544 0.72047 0.0
C4989 C 0.73877 0.58345 0.72009 0.0
C4990 C 0.65134 0.5438 0.70144 0.0
C4991 C 0.70603 0.51994 0.72745 0.0
H4992 H 0.56223 0.4421 0.72657 0.0
H4993 H 0.62107 0.3979 0.71227 0.0
H4994 H 0.63165 0.53235 0.72855 0.0
H4995 H 0.61523 0.54039 0.71901 0.0
H4996 H 0.58063 0.50848 0.72643 0.0
H4997 H 0.67381 0.43844 0.70366 0.0
H4998 H 0.68643 0.48805 0.70204 0.0
H4999 H 0.70578 0.47564 0.71059 0.0
H5000 H 0.71671 0.61343 0.70261 0.0
H5001 H 0.76037 0.59354 0.72486 0.0
H5002 H 0.62336 0.53703 0.70423 0.0
H5003 H 0.6472 0.51696 0.69853 0.0
H5004 H 0.65876 0.56611 0.69666 0.0
H5005 H 0.68005 0.51187 0.73121 0.0
H5006 H 0.73193 0.53427 0.73143 0.0
H5007 H 0.70354 0.49283 0.72507 0.0
C5008 C 0.4799 0.13574 0.71319 0.0
C5009 C 0.47216 0.16624 0.71296 0.0
C5010 C 0.51823 0.14299 0.71411 0.0
C5011 C 0.54949 0.18161 0.7147 0.0
C5012 C 0.5416 0.21235 0.71404 0.0
C5013 C 0.50323 0.20426 0.71327 0.0
C5014 C 0.52495 0.10928 0.71496 0.0
C5015 C 0.57352 0.25398 0.71454 0.0
C5016 C 0.64225 0.21056 0.7266 0.0
C5017 C 0.66931 0.21814 0.7204 0.0
C5018 C 0.60291 0.19651 0.72485 0.0
C5019 C 0.58998 0.19039 0.71666 0.0
C5020 C 0.61692 0.19658 0.71038 0.0
C5021 C 0.65613 0.21 0.71232 0.0
C5022 C 0.5755 0.18994 0.73179 0.0
C5023 C 0.60479 0.19117 0.70156 0.0
H5024 H 0.45593 0.10631 0.71314 0.0
H5025 H 0.49731 0.22792 0.71317 0.0
H5026 H 0.54894 0.11311 0.71095 0.0
H5027 H 0.53353 0.10784 0.72132 0.0
H5028 H 0.49869 0.08142 0.71346 0.0
H5029 H 0.56308 0.27442 0.71316 0.0
H5030 H 0.58606 0.26029 0.72075 0.0
H5031 H 0.59708 0.25939 0.71023 0.0
H5032 H 0.65215 0.21661 0.73286 0.0
H5033 H 0.67687 0.21609 0.70749 0.0
H5034 H 0.54907 0.16122 0.73122 0.0
H5035 H 0.56639 0.21197 0.73157 0.0
H5036 H 0.58889 0.19175 0.73782 0.0
H5037 H 0.57855 0.16259 0.70064 0.0
H5038 H 0.62795 0.19356 0.69745 0.0
H5039 H 0.59734 0.21344 0.69979 0.0
C5040 C 0.12637 0.17471 0.12409 0.0
C5041 C 0.16308 0.20203 0.12119 0.0
C5042 C 0.09883 0.18529 0.12625 0.0
C5043 C 0.10795 0.22425 0.12543 0.0
C5044 C 0.14608 0.25248 0.12314 0.0
C5045 C 0.17318 0.24104 0.12104 0.0
C5046 C 0.05879 0.15407 0.12866 0.0
C5047 C 0.15718 0.29428 0.12219 0.0
C5048 C 0.02408 0.23676 0.11837 0.0
C5049 C 0.01259 0.24747 0.12553 0.0
C5050 C 0.05539 0.23012 0.11827 0.0
C5051 C 0.07611 0.23396 0.12554 0.0
C5052 C 0.06524 0.24551 0.13278 0.0
C5053 C 0.03374 0.25234 0.13269 0.0
C5054 C 0.06572 0.21812 0.11037 0.0
C5055 C 0.08604 0.24942 0.14069 0.0
H5056 H 0.11824 0.14446 0.12411 0.0
H5057 H 0.20121 0.26219 0.11866 0.0
H5058 H 0.04797 0.16351 0.13389 0.0
H5059 H 0.03866 0.14807 0.12349 0.0
H5060 H 0.05805 0.12676 0.13031 0.0
H5061 H 0.18893 0.31341 0.12161 0.0
H5062 H 0.14325 0.29761 0.11664 0.0
H5063 H 0.14677 0.30397 0.12745 0.0
H5064 H 0.00825 0.2331 0.11277 0.0
H5065 H 0.02503 0.26042 0.13826 0.0
H5066 H 0.06167 0.1887 0.111 0.0
H5067 H 0.09657 0.23797 0.10888 0.0
H5068 H 0.04781 0.21801 0.10519 0.0
H5069 H 0.07985 0.22047 0.14276 0.0
H5070 H 0.07702 0.26256 0.14555 0.0
H5071 H 0.11774 0.26727 0.13982 0.0
C5072 C 0.89094 0.98599 0.12754 0.0
C5073 C 0.87179 0.99467 0.12147 0.0
C5074 C 0.87942 0.94741 0.12956 0.0
C5075 C 0.84814 0.9166 0.12537 0.0
C5076 C 0.82691 0.92539 0.11968 0.0
C5077 C 0.83907 0.96422 0.11778 0.0
C5078 C 0.90323 0.9398 0.13561 0.0
C5079 C 0.79397 0.89383 0.11492 0.0
C5080 C 0.85973 0.8305 0.11997 0.0
C5081 C 0.83484 0.80153 0.12543 0.0
C5082 C 0.86419 0.86753 0.11996 0.0
C5083 C 0.84311 0.87669 0.12556 0.0
C5084 C 0.81759 0.84774 0.1311 0.0
C5085 C 0.81389 0.81055 0.131 0.0
C5086 C 0.89215 0.89705 0.11398 0.0
C5087 C 0.79435 0.85614 0.13713 0.0
H5088 H 0.91679 0.00936 0.13026 0.0
H5089 H 0.82479 0.97073 0.11293 0.0
H5090 H 0.88445 0.91506 0.13961 0.0
H5091 H 0.92274 0.93228 0.13228 0.0
H5092 H 0.92123 0.96548 0.13946 0.0
H5093 H 0.77659 0.90451 0.11174 0.0
H5094 H 0.80574 0.88229 0.11028 0.0
H5095 H 0.77472 0.86956 0.11897 0.0
H5096 H 0.87625 0.82442 0.11561 0.0
H5097 H 0.79472 0.78871 0.13528 0.0
H5098 H 0.91807 0.919 0.11729 0.0
H5099 H 0.87903 0.91229 0.11086 0.0
H5100 H 0.90163 0.88381 0.10924 0.0
H5101 H 0.81414 0.87901 0.14139 0.0
H5102 H 0.77421 0.83016 0.1407 0.0
H5103 H 0.77745 0.86722 0.13391 0.0
C5104 C 0.26899 0.03668 0.12829 0.0
C5105 C 0.27772 0.07367 0.12582 0.0
C5106 C 0.23098 0.00521 0.12773 0.0
C5107 C 0.20091 0.01128 0.12488 0.0
C5108 C 0.20945 0.04916 0.12284 0.0
C5109 C 0.24775 0.07963 0.1232 0.0
C5110 C 0.22347 0.96528 0.12979 0.0
C5111 C 0.17837 0.05746 0.11999 0.0
C5112 C 0.11131 0.93542 0.11388 0.0
C5113 C 0.08286 0.92466 0.11988 0.0
C5114 C 0.15031 0.96171 0.11559 0.0
C5115 C 0.16103 0.97817 0.12347 0.0
C5116 C 0.13255 0.96593 0.12966 0.0
C5117 C 0.09373 0.93914 0.12779 0.0
C5118 C 0.17968 0.97353 0.10883 0.0
C5119 C 0.14259 0.98306 0.13809 0.0
H5120 H 0.29204 0.03195 0.13028 0.0
H5121 H 0.25435 0.10827 0.12136 0.0
H5122 H 0.19833 0.95045 0.13394 0.0
H5123 H 0.21627 0.94784 0.12413 0.0
H5124 H 0.24892 0.96589 0.13267 0.0
H5125 H 0.18913 0.08891 0.11942 0.0
H5126 H 0.16731 0.04382 0.11397 0.0
H5127 H 0.15367 0.04489 0.1243 0.0
H5128 H 0.10275 0.92432 0.10775 0.0
H5129 H 0.07158 0.93106 0.1324 0.0
H5130 H 0.20548 0.97246 0.11095 0.0
H5131 H 0.18945 1.00375 0.107 0.0
H5132 H 0.16771 0.95479 0.10338 0.0
H5133 H 0.16838 0.98263 0.14045 0.0
H5134 H 0.11834 0.96742 0.14244 0.0
H5135 H 0.14985 0.01369 0.13784 0.0
C5136 C 0.83753 0.90553 0.6202 0.0
C5137 C 0.8746 0.91159 0.62184 0.0
C5138 C 0.82733 0.93353 0.62225 0.0
C5139 C 0.85494 0.96859 0.62599 0.0
C5140 C 0.89134 0.97335 0.62823 0.0
C5141 C 0.90079 0.94495 0.62609 0.0
C5142 C 0.78828 0.92715 0.6197 0.0
C5143 C 0.92167 0.01001 0.63225 0.0
C5144 C 0.85311 0.05923 0.61959 0.0
C5145 C 0.83525 0.06612 0.62623 0.0
C5146 C 0.85967 0.02788 0.6195 0.0
C5147 C 0.84831 1.00241 0.62624 0.0
C5148 C 0.83065 0.00937 0.63303 0.0
C5149 C 0.8242 0.04105 0.63294 0.0
C5150 C 0.87857 0.02191 0.6121 0.0
C5151 C 0.81825 0.9832 0.64036 0.0
H5152 H 0.81755 0.88027 0.61674 0.0
H5153 H 0.92977 0.95018 0.62719 0.0
H5154 H 0.77492 0.93516 0.62469 0.0
H5155 H 0.79182 0.94593 0.61442 0.0
H5156 H 0.76827 0.89668 0.61794 0.0
H5157 H 0.94572 0.00685 0.63478 0.0
H5158 H 0.93384 0.03373 0.6277 0.0
H5159 H 0.90879 0.0187 0.63722 0.0
H5160 H 0.86186 0.07831 0.61436 0.0
H5161 H 0.81046 0.04611 0.6381 0.0
H5162 H 0.85911 0.99318 0.60938 0.0
H5163 H 0.9056 0.02248 0.61389 0.0
H5164 H 0.88567 0.04431 0.60736 0.0
H5165 H 0.79392 0.95439 0.63867 0.0
H5166 H 0.80877 0.99473 0.64547 0.0
H5167 H 0.84227 0.97906 0.6425 0.0
C5168 C 0.13315 0.98545 0.61798 0.0
C5169 C 0.17094 0.99611 0.62029 0.0
C5170 C 0.10197 0.94852 0.61982 0.0
C5171 C 0.10892 0.92151 0.624 0.0
C5172 C 0.14678 0.93314 0.62677 0.0
C5173 C 0.17733 0.97026 0.62486 0.0
C5174 C 0.0621 0.93755 0.6168 0.0
C5175 C 0.15558 0.90534 0.63119 0.0
C5176 C 0.02381 0.82706 0.63183 0.0
C5177 C 0.01773 0.80215 0.6253 0.0
C5178 C 0.05336 0.86606 0.63152 0.0
C5179 C 0.07783 0.88005 0.62461 0.0
C5180 C 0.0724 0.85434 0.61813 0.0
C5181 C 0.04207 0.81591 0.61852 0.0
C5182 C 0.05736 0.89265 0.63843 0.0
C5183 C 0.09803 0.86763 0.61069 0.0
H5184 H 0.12835 0.00514 0.61429 0.0
H5185 H 0.20669 0.97822 0.62648 0.0
H5186 H 0.05414 0.91688 0.61167 0.0
H5187 H 0.04034 0.92296 0.62167 0.0
H5188 H 0.06049 0.96303 0.61464 0.0
H5189 H 0.18535 0.91991 0.63371 0.0
H5190 H 0.13477 0.89093 0.63623 0.0
H5191 H 0.15246 0.88247 0.62691 0.0
H5192 H 1.00421 0.81654 0.63698 0.0
H5193 H 0.03688 0.79664 0.61342 0.0
H5194 H 0.0511 0.91512 0.63618 0.0
H5195 H 0.08744 0.90773 0.64076 0.0
H5196 H 0.03741 0.87698 0.64354 0.0
H5197 H 0.0944 0.88983 0.6074 0.0
H5198 H 0.09138 0.84354 0.60643 0.0
H5199 H 0.12881 0.88115 0.61252 0.0
C5200 C 0.26777 0.26088 0.62073 0.0
C5201 C 0.28085 0.24702 0.6271 0.0
C5202 C 0.22914 0.25234 0.62031 0.0
C5203 C 0.20212 0.22777 0.62622 0.0
C5204 C 0.21514 0.21337 0.63265 0.0
C5205 C 0.25449 0.22362 0.63308 0.0
C5206 C 0.21715 0.26908 0.61342 0.0
C5207 C 0.18721 0.18589 0.63888 0.0
C5208 C 0.1105 0.23503 0.6274 0.0
C5209 C 0.08583 0.20607 0.62198 0.0
C5210 C 0.14752 0.24086 0.62923 0.0
C5211 C 0.16041 0.21727 0.62554 0.0
C5212 C 0.13458 0.18641 0.62044 0.0
C5213 C 0.09776 0.1814 0.61868 0.0
C5214 C 0.17397 0.27428 0.63462 0.0
C5215 C 0.14673 0.16033 0.61638 0.0
H5216 H 0.28778 0.27804 0.61597 0.0
H5217 H 0.26423 0.21177 0.63786 0.0
H5218 H 0.19641 0.24553 0.60939 0.0
H5219 H 0.20228 0.2841 0.61585 0.0
H5220 H 0.24215 0.28985 0.60968 0.0
H5221 H 0.20195 0.17842 0.64368 0.0
H5222 H 0.17115 0.19864 0.6418 0.0
H5223 H 0.1656 0.1589 0.63582 0.0
H5224 H 0.1018 0.2548 0.62978 0.0
H5225 H 0.07922 0.15966 0.61431 0.0
H5226 H 0.19784 0.29674 0.63091 0.0
H5227 H 0.18719 0.26473 0.63935 0.0
H5228 H 0.15858 0.28751 0.63767 0.0
H5229 H 0.16769 0.17638 0.61145 0.0
H5230 H 0.12178 0.13437 0.61367 0.0
H5231 H 0.16136 0.15089 0.6208 0.0
C5232 C 0.57695 0.16888 0.21715 0.0
C5233 C 0.585 0.20504 0.22008 0.0
C5234 C 0.60697 0.16178 0.21498 0.0
C5235 C 0.64601 0.19157 0.21577 0.0
C5236 C 0.65409 0.22884 0.21827 0.0
C5237 C 0.6235 0.23503 0.22045 0.0
C5238 C 0.59694 0.12159 0.21242 0.0
C5239 C 0.69515 0.26158 0.21916 0.0
C5240 C 0.72193 0.16513 0.22176 0.0
C5241 C 0.74097 0.16844 0.21438 0.0
C5242 C 0.69051 0.17153 0.22221 0.0
C5243 C 0.67811 0.1825 0.21513 0.0
C5244 C 0.69693 0.18541 0.2076 0.0
C5245 C 0.72778 0.1777 0.20729 0.0
C5246 C 0.67107 0.16726 0.23033 0.0
C5247 C 0.68514 0.1976 0.19994 0.0
H5248 H 0.54721 0.14552 0.21699 0.0
H5249 H 0.62976 0.26286 0.22282 0.0
H5250 H 0.61314 0.12262 0.20686 0.0
H5251 H 0.60552 0.10817 0.2173 0.0
H5252 H 0.56554 0.10284 0.21124 0.0
H5253 H 0.69658 0.28977 0.22011 0.0
H5254 H 0.70892 0.256 0.22445 0.0
H5255 H 0.71233 0.26364 0.21368 0.0
H5256 H 0.73183 0.15766 0.22725 0.0
H5257 H 0.74261 0.18054 0.20159 0.0
H5258 H 0.63954 0.14701 0.22979 0.0
H5259 H 0.67506 0.19556 0.2323 0.0
H5260 H 0.68277 0.15644 0.23515 0.0
H5261 H 0.65517 0.17559 0.19828 0.0
H5262 H 0.70447 0.2014 0.19474 0.0
H5263 H 0.68542 0.22516 0.20098 0.0
C5264 C 0.9196 0.59476 0.20742 0.0
C5265 C 0.91912 0.61225 0.21478 0.0
C5266 C 0.91264 0.55641 0.20725 0.0
C5267 C 0.90537 0.53521 0.21462 0.0
C5268 C 0.90674 0.55365 0.22208 0.0
C5269 C 0.9135 0.59163 0.22206 0.0
C5270 C 0.91127 0.53802 0.19916 0.0
C5271 C 0.89931 0.53268 0.23011 0.0
C5272 C 0.84172 0.42622 0.21654 0.0
C5273 C 0.86862 0.4146 0.21846 0.0
C5274 C 0.85346 0.46487 0.21466 0.0
C5275 C 0.89329 0.49301 0.21466 0.0
C5276 C 0.92077 0.48088 0.21593 0.0
C5277 C 0.90814 0.44183 0.21784 0.0
C5278 C 0.823 0.47613 0.21337 0.0
C5279 C 0.96347 0.50973 0.21592 0.0
H5280 H 0.92362 0.61032 0.20177 0.0
H5281 H 0.91342 0.605 0.2278 0.0
H5282 H 0.92785 0.5226 0.19942 0.0
H5283 H 0.88088 0.51637 0.1977 0.0
H5284 H 0.92296 0.55961 0.19416 0.0
H5285 H 0.90419 0.55192 0.2354 0.0
H5286 H 0.86898 0.50855 0.23033 0.0
H5287 H 0.91834 0.52004 0.23076 0.0
H5288 H 0.81115 0.40538 0.21706 0.0
H5289 H 0.92911 0.43327 0.21943 0.0
H5290 H 0.82883 0.49308 0.20768 0.0
H5291 H 0.82403 0.49484 0.21845 0.0
H5292 H 0.7934 0.45066 0.21306 0.0
H5293 H 0.9712 0.52963 0.21065 0.0
H5294 H 0.98114 0.49539 0.21571 0.0
H5295 H 0.97106 0.52751 0.22153 0.0
C5296 C 0.50525 0.33637 0.21316 0.0
C5297 C 0.47395 0.34261 0.21427 0.0
C5298 C 0.54369 0.36611 0.21436 0.0
C5299 C 0.55159 0.40393 0.2163 0.0
C5300 C 0.52017 0.41076 0.21715 0.0
C5301 C 0.48187 0.37991 0.21634 0.0
C5302 C 0.57583 0.35681 0.21367 0.0
C5303 C 0.52696 0.45069 0.21891 0.0
C5304 C 0.64802 0.46863 0.22692 0.0
C5305 C 0.67228 0.48986 0.22044 0.0
C5306 C 0.60854 0.44188 0.22571 0.0
C5307 C 0.59258 0.43564 0.21777 0.0
C5308 C 0.61659 0.45807 0.21123 0.0
C5309 C 0.65605 0.48503 0.21264 0.0
C5310 C 0.58429 0.41905 0.23289 0.0
C5311 C 0.60101 0.45242 0.20267 0.0
H5312 H 0.49977 0.30793 0.21146 0.0
H5313 H 0.45815 0.3852 0.21725 0.0
H5314 H 0.5959 0.37413 0.20871 0.0
H5315 H 0.59276 0.36462 0.2194 0.0
H5316 H 0.56483 0.32572 0.21241 0.0
H5317 H 0.49972 0.45178 0.21883 0.0
H5318 H 0.54073 0.46043 0.22496 0.0
H5319 H 0.54708 0.47143 0.21434 0.0
H5320 H 0.66027 0.47236 0.23297 0.0
H5321 H 0.6746 0.50104 0.20759 0.0
H5322 H 0.57463 0.388 0.23203 0.0
H5323 H 0.55799 0.42163 0.23333 0.0
H5324 H 0.60034 0.42876 0.23873 0.0
H5325 H 0.59514 0.42393 0.20036 0.0
H5326 H 0.62163 0.47513 0.19846 0.0
H5327 H 0.57326 0.45244 0.20258 0.0
C5328 C 0.58923 0.45961 0.05692 0.0
C5329 C 0.5784 0.47545 0.05055 0.0
C5330 C 0.58072 0.42099 0.0566 0.0
C5331 C 0.55926 0.39746 0.04995 0.0
C5332 C 0.54736 0.41334 0.04363 0.0
C5333 C 0.55819 0.45248 0.04388 0.0
C5334 C 0.59433 0.40524 0.06337 0.0
C5335 C 0.52219 0.38872 0.03671 0.0
C5336 C 0.5548 0.30529 0.04276 0.0
C5337 C 0.51835 0.27757 0.04564 0.0
C5338 C 0.5701 0.34457 0.04466 0.0
C5339 C 0.54831 0.356 0.04955 0.0
C5340 C 0.51321 0.32736 0.05308 0.0
C5341 C 0.49851 0.28856 0.05101 0.0
C5342 C 0.60836 0.37404 0.04104 0.0
C5343 C 0.48882 0.33695 0.05849 0.0
H5344 H 0.60487 0.47762 0.06207 0.0
H5345 H 0.54964 0.46487 0.039 0.0
H5346 H 0.56915 0.38069 0.06637 0.0
H5347 H 0.61256 0.39406 0.06082 0.0
H5348 H 0.61127 0.42744 0.06804 0.0
H5349 H 0.51442 0.40527 0.03243 0.0
H5350 H 0.53722 0.37629 0.03326 0.0
H5351 H 0.49514 0.36427 0.0392 0.0
H5352 H 0.57029 0.29653 0.03866 0.0
H5353 H 0.47054 0.26686 0.05333 0.0
H5354 H 0.62663 0.39556 0.0457 0.0
H5355 H 0.60337 0.38992 0.03608 0.0
H5356 H 0.6244 0.36043 0.03848 0.0
H5357 H 0.50434 0.36689 0.06084 0.0
H5358 H 0.47781 0.31674 0.06374 0.0
H5359 H 0.46335 0.33241 0.05493 0.0
C5360 C 0.77976 0.27221 0.03616 0.0
C5361 C 0.80379 0.29675 0.04228 0.0
C5362 C 0.74486 0.23883 0.03807 0.0
C5363 C 0.73348 0.23014 0.04632 0.0
C5364 C 0.75848 0.2541 0.05256 0.0
C5365 C 0.79354 0.28726 0.05046 0.0
C5366 C 0.71944 0.21369 0.03124 0.0
C5367 C 0.74744 0.24555 0.06142 0.0
C5368 C 0.62458 0.16951 0.04871 0.0
C5369 C 0.6194 0.1324 0.04959 0.0
C5370 C 0.66181 0.20198 0.04817 0.0
C5371 C 0.69454 0.197 0.04829 0.0
C5372 C 0.68938 0.15964 0.04942 0.0
C5373 C 0.65185 0.12792 0.05006 0.0
C5374 C 0.66606 0.24143 0.04717 0.0
C5375 C 0.72314 0.15261 0.04942 0.0
H5376 H 0.78778 0.2799 0.02984 0.0
H5377 H 0.8121 0.30663 0.05517 0.0
H5378 H 0.71186 0.18326 0.03224 0.0
H5379 H 0.69205 0.21441 0.03114 0.0
H5380 H 0.73355 0.22318 0.0252 0.0
H5381 H 0.77092 0.26576 0.06554 0.0
H5382 H 0.72127 0.24771 0.06263 0.0
H5383 H 0.74015 0.21559 0.06291 0.0
H5384 H 0.59944 0.17308 0.04837 0.0
H5385 H 0.648 0.09946 0.05046 0.0
H5386 H 0.67738 0.25278 0.04101 0.0
H5387 H 0.68718 0.26187 0.05165 0.0
H5388 H 0.63817 0.24084 0.04799 0.0
H5389 H 0.73268 0.15313 0.04306 0.0
H5390 H 0.7153 0.12413 0.05211 0.0
H5391 H 0.74801 0.17546 0.05284 0.0
C5392 C 0.90889 0.47592 0.05071 0.0
C5393 C 0.94621 0.50822 0.05116 0.0
C5394 C 0.87606 0.48032 0.05044 0.0
C5395 C 0.88061 0.51781 0.05067 0.0
C5396 C 0.91786 0.55018 0.05167 0.0
C5397 C 0.94997 0.54496 0.05179 0.0
C5398 C 0.83659 0.445 0.04955 0.0
C5399 C 0.92444 0.59076 0.05213 0.0
C5400 C 0.80637 0.53182 0.03909 0.0
C5401 C 0.78249 0.5314 0.04537 0.0
C5402 C 0.83885 0.52828 0.04078 0.0
C5403 C 0.84719 0.52349 0.04894 0.0
C5404 C 0.8237 0.52416 0.05533 0.0
C5405 C 0.79159 0.5283 0.05346 0.0
C5406 C 0.86388 0.52902 0.03382 0.0
C5407 C 0.83211 0.51983 0.0641 0.0
H5408 H 0.90529 0.44727 0.05034 0.0
H5409 H 0.97813 0.57014 0.05211 0.0
H5410 H 0.81603 0.44594 0.05395 0.0
H5411 H 0.82526 0.44448 0.04336 0.0
H5412 H 0.83727 0.41788 0.05053 0.0
H5413 H 0.9265 0.60202 0.04586 0.0
H5414 H 0.9004 0.59172 0.05528 0.0
H5415 H 0.95179 0.61039 0.05535 0.0
H5416 H 0.79923 0.5344 0.03284 0.0
H5417 H 0.77287 0.52784 0.05829 0.0
H5418 H 0.86401 0.50136 0.0336 0.0
H5419 H 0.89414 0.55243 0.03477 0.0
H5420 H 0.8538 0.53366 0.02784 0.0
H5421 H 0.82987 0.49129 0.06501 0.0
H5422 H 0.81192 0.52234 0.06837 0.0
H5423 H 0.86212 0.54217 0.06567 0.0
C5424 C 0.43771 0.52996 0.45429 0.0
C5425 C 0.47073 0.56002 0.45795 0.0
C5426 C 0.40148 0.52708 0.45509 0.0
C5427 C 0.39848 0.55622 0.45933 0.0
C5428 C 0.43206 0.58795 0.46265 0.0
C5429 C 0.46764 0.58902 0.46208 0.0
C5430 C 0.36646 0.49193 0.45168 0.0
C5431 C 0.43038 0.62067 0.46684 0.0
C5432 C 0.31091 0.56769 0.45578 0.0
C5433 C 0.28977 0.55155 0.4629 0.0
C5434 C 0.34603 0.56862 0.45444 0.0
C5435 C 0.36025 0.55338 0.46043 0.0
C5436 C 0.33831 0.53613 0.46754 0.0
C5437 C 0.30317 0.53541 0.4687 0.0
C5438 C 0.36812 0.58624 0.44668 0.0
C5439 C 0.35224 0.51895 0.47397 0.0
H5440 H 0.43979 0.50809 0.45091 0.0
H5441 H 0.49307 0.61281 0.4648 0.0
H5442 H 0.34475 0.49891 0.44927 0.0
H5443 H 0.37449 0.47831 0.44674 0.0
H5444 H 0.35256 0.47036 0.45662 0.0
H5445 H 0.45951 0.64457 0.46854 0.0
H5446 H 0.41642 0.63237 0.4628 0.0
H5447 H 0.41252 0.60986 0.47243 0.0
H5448 H 0.30009 0.57991 0.45131 0.0
H5449 H 0.28651 0.52295 0.4742 0.0
H5450 H 0.37228 0.56458 0.4433 0.0
H5451 H 0.39723 0.61074 0.44814 0.0
H5452 H 0.35304 0.59676 0.44264 0.0
H5453 H 0.35768 0.49681 0.4712 0.0
H5454 H 0.33113 0.50544 0.47902 0.0
H5455 H 0.38001 0.54172 0.47656 0.0
C5456 C 0.59811 0.84225 0.45668 0.0
C5457 C 0.57359 0.80381 0.45891 0.0
C5458 C 0.58351 0.86686 0.45516 0.0
C5459 C 0.54335 0.85262 0.45579 0.0
C5460 C 0.51799 0.81283 0.45724 0.0
C5461 C 0.53346 0.78874 0.45885 0.0
C5462 C 0.61136 0.90864 0.45341 0.0
C5463 C 0.47482 0.79631 0.4575 0.0
C5464 C 0.51515 0.92375 0.46387 0.0
C5465 C 0.50834 0.93802 0.45668 0.0
C5466 C 0.52608 0.89552 0.46363 0.0
C5467 C 0.52883 0.88029 0.45602 0.0
C5468 C 0.52061 0.89379 0.44875 0.0
C5469 C 0.51129 0.92319 0.44916 0.0
C5470 C 0.53646 0.88331 0.4715 0.0
C5471 C 0.5228 0.87842 0.4405 0.0
H5472 H 0.62905 0.85351 0.45646 0.0
H5473 H 0.51434 0.75876 0.46046 0.0
H5474 H 0.60363 0.91668 0.44754 0.0
H5475 H 0.60908 0.92662 0.45826 0.0
H5476 H 0.64181 0.91515 0.45306 0.0
H5477 H 0.4589 0.76424 0.45755 0.0
H5478 H 0.46695 0.80662 0.46305 0.0
H5479 H 0.46525 0.80646 0.45217 0.0
H5480 H 0.51377 0.93603 0.46966 0.0
H5481 H 0.50637 0.93468 0.44359 0.0
H5482 H 0.56699 0.89011 0.47126 0.0
H5483 H 0.51817 0.85167 0.47233 0.0
H5484 H 0.53282 0.89799 0.47688 0.0
H5485 H 0.55255 0.89585 0.43806 0.0
H5486 H 0.50293 0.8808 0.43611 0.0
H5487 H 0.51559 0.84782 0.4408 0.0
C5488 C 0.25012 0.78785 0.45695 0.0
C5489 C 0.28272 0.79516 0.46148 0.0
C5490 C 0.22334 0.75017 0.45442 0.0
C5491 C 0.22937 0.71917 0.45651 0.0
C5492 C 0.26455 0.72734 0.46029 0.0
C5493 C 0.29063 0.76522 0.46281 0.0
C5494 C 0.18654 0.74329 0.45041 0.0
C5495 C 0.27288 0.69563 0.46251 0.0
C5496 C 0.14347 0.62338 0.46301 0.0
C5497 C 0.13599 0.60074 0.45602 0.0
C5498 C 0.17277 0.66224 0.4631 0.0
C5499 C 0.19663 0.67845 0.45615 0.0
C5500 C 0.18949 0.65545 0.4491 0.0
C5501 C 0.15857 0.61706 0.44905 0.0
C5502 C 0.17799 0.68603 0.47063 0.0
C5503 C 0.21477 0.67125 0.44166 0.0
H5504 H 0.24379 0.81097 0.45602 0.0
H5505 H 0.31571 0.77086 0.4664 0.0
H5506 H 0.17531 0.71887 0.44606 0.0
H5507 H 0.16443 0.73618 0.45521 0.0
H5508 H 0.19075 0.76945 0.44714 0.0
H5509 H 0.30438 0.70694 0.46323 0.0
H5510 H 0.25877 0.68289 0.46841 0.0
H5511 H 0.26137 0.67235 0.45787 0.0
H5512 H 0.12562 0.61091 0.46837 0.0
H5513 H 0.15261 0.59949 0.44363 0.0
H5514 H 0.17687 0.71237 0.46899 0.0
H5515 H 0.20674 0.69549 0.47336 0.0
H5516 H 0.15546 0.66977 0.47529 0.0
H5517 H 0.2121 0.69542 0.43907 0.0
H5518 H 0.20702 0.64894 0.43687 0.0
H5519 H 0.24552 0.68295 0.44336 0.0
C5520 C 0.50981 0.61963 0.96559 0.0
C5521 C 0.5172 0.60454 0.95858 0.0
C5522 C 0.51691 0.65771 0.96577 0.0
C5523 C 0.5326 0.68156 0.95882 0.0
C5524 C 0.54032 0.66657 0.95172 0.0
C5525 C 0.532 0.62808 0.95165 0.0
C5526 C 0.50735 0.67235 0.97339 0.0
C5527 C 0.55739 0.69113 0.94422 0.0
C5528 C 0.51345 0.76507 0.95814 0.0
C5529 C 0.54717 0.7948 0.96167 0.0
C5530 C 0.50918 0.72859 0.95675 0.0
C5531 C 0.53942 0.72167 0.95895 0.0
C5532 C 0.57465 0.75235 0.96198 0.0
C5533 C 0.57816 0.78872 0.9633 0.0
C5534 C 0.47141 0.69687 0.95337 0.0
C5535 C 0.60774 0.74613 0.96425 0.0
H5536 H 0.49866 0.60177 0.97098 0.0
H5537 H 0.53695 0.6164 0.94614 0.0
H5538 H 0.53367 0.69805 0.97574 0.0
H5539 H 0.48593 0.68145 0.97197 0.0
H5540 H 0.49531 0.65015 0.97827 0.0
H5541 H 0.559 0.6743 0.939 0.0
H5542 H 0.54004 0.7045 0.94236 0.0
H5543 H 0.58697 0.71498 0.94558 0.0
H5544 H 0.48974 0.77 0.95674 0.0
H5545 H 0.6043 0.81171 0.96601 0.0
H5546 H 0.45575 0.675 0.95818 0.0
H5547 H 0.47669 0.68197 0.94826 0.0
H5548 H 0.4525 0.70797 0.95118 0.0
H5549 H 0.59945 0.72648 0.96957 0.0
H5550 H 0.63434 0.7736 0.9658 0.0
H5551 H 0.61433 0.73206 0.95917 0.0
C5552 C 0.31006 0.79874 0.96784 0.0
C5553 C 0.28339 0.80091 0.96267 0.0
C5554 C 0.34995 0.82228 0.96653 0.0
C5555 C 0.36316 0.84853 0.95991 0.0
C5556 C 0.33614 0.84835 0.9543 0.0
C5557 C 0.29644 0.82463 0.95578 0.0
C5558 C 0.37781 0.82153 0.97263 0.0
C5559 C 0.34904 0.87536 0.94709 0.0
C5560 C 0.45252 0.94543 0.96382 0.0
C5561 C 0.48072 0.94235 0.95943 0.0
C5562 C 0.41419 0.91513 0.96395 0.0
C5563 C 0.40405 0.8805 0.95971 0.0
C5564 C 0.43285 0.87689 0.95541 0.0
C5565 C 0.47107 0.90804 0.95533 0.0
C5566 C 0.38446 0.92046 0.96856 0.0
C5567 C 0.4234 0.84027 0.95094 0.0
H5568 H 0.2997 0.78028 0.97317 0.0
H5569 H 0.27556 0.82602 0.95179 0.0
H5570 H 0.40219 0.82118 0.96949 0.0
H5571 H 0.39016 0.84808 0.9764 0.0
H5572 H 0.36353 0.7961 0.97674 0.0
H5573 H 0.32529 0.86732 0.94263 0.0
H5574 H 0.35902 0.90521 0.94922 0.0
H5575 H 0.37368 0.87551 0.94395 0.0
H5576 H 0.46054 0.97158 0.96717 0.0
H5577 H 0.49329 0.90578 0.95201 0.0
H5578 H 0.36831 0.89622 0.97286 0.0
H5579 H 0.36324 0.92053 0.96421 0.0
H5580 H 0.39765 0.94788 0.97205 0.0
H5581 H 0.41723 0.8171 0.95541 0.0
H5582 H 0.44759 0.84404 0.94698 0.0
H5583 H 0.39715 0.83039 0.94714 0.0
C5584 C 0.16244 0.57936 0.96286 0.0
C5585 C 0.13413 0.56233 0.95681 0.0
C5586 C 0.19415 0.57348 0.96308 0.0
C5587 C 0.19734 0.54949 0.95716 0.0
C5588 C 0.16913 0.53251 0.95097 0.0
C5589 C 0.1382 0.53969 0.95079 0.0
C5590 C 0.22421 0.59289 0.96966 0.0
C5591 C 0.1711 0.50619 0.94464 0.0
C5592 C 0.29933 0.56806 0.95502 0.0
C5593 C 0.29857 0.53996 0.9602 0.0
C5594 C 0.26575 0.56979 0.95351 0.0
C5595 C 0.23091 0.54323 0.95743 0.0
C5596 C 0.22956 0.51344 0.96233 0.0
C5597 C 0.26355 0.512 0.96363 0.0
C5598 C 0.26806 0.60133 0.94808 0.0
C5599 C 0.19283 0.48457 0.96659 0.0
H5600 H 0.15989 0.59736 0.96747 0.0
H5601 H 0.11709 0.52722 0.94597 0.0
H5602 H 0.22605 0.57079 0.97341 0.0
H5603 H 0.25304 0.61136 0.96688 0.0
H5604 H 0.2177 0.61109 0.97373 0.0
H5605 H 0.15035 0.50004 0.93958 0.0
H5606 H 0.20064 0.51893 0.94207 0.0
H5607 H 0.16412 0.47838 0.94754 0.0
H5608 H 0.32653 0.58937 0.95233 0.0
H5609 H 0.2632 0.49031 0.96764 0.0
H5610 H 0.26441 0.62243 0.9518 0.0
H5611 H 0.24442 0.58912 0.94352 0.0
H5612 H 0.29614 0.61695 0.94482 0.0
H5613 H 0.18532 0.4995 0.97132 0.0
H5614 H 0.19564 0.46111 0.96954 0.0
H5615 H 0.16846 0.47157 0.9622 0.0
C5616 C 0.61488 0.47854 0.54986 0.0
C5617 C 0.60764 0.50859 0.54809 0.0
C5618 C 0.65276 0.48472 0.5496 0.0
C5619 C 0.68371 0.52183 0.54755 0.0
C5620 C 0.67615 0.55197 0.54568 0.0
C5621 C 0.63816 0.54475 0.54591 0.0
C5622 C 0.6597 0.45182 0.55154 0.0
C5623 C 0.70817 0.59215 0.54353 0.0
C5624 C 0.78901 0.56484 0.55291 0.0
C5625 C 0.80465 0.56556 0.54526 0.0
C5626 C 0.74888 0.54699 0.55398 0.0
C5627 C 0.7242 0.52988 0.54719 0.0
C5628 C 0.73999 0.52789 0.53961 0.0
C5629 C 0.78023 0.54592 0.53873 0.0
C5630 C 0.73323 0.5495 0.56217 0.0
C5631 C 0.71471 0.5104 0.53221 0.0
H5632 H 0.59103 0.45047 0.55154 0.0
H5633 H 0.63222 0.56723 0.54418 0.0
H5634 H 0.67378 0.44635 0.5463 0.0
H5635 H 0.67964 0.4596 0.5568 0.0
H5636 H 0.63249 0.42474 0.55299 0.0
H5637 H 0.724 0.60701 0.54915 0.0
H5638 H 0.72921 0.5913 0.53926 0.0
H5639 H 0.6969 0.60968 0.54068 0.0
H5640 H 0.80824 0.57996 0.55795 0.0
H5641 H 0.79269 0.5466 0.53282 0.0
H5642 H 0.70675 0.52194 0.56369 0.0
H5643 H 0.72533 0.57243 0.56198 0.0
H5644 H 0.75484 0.5566 0.56709 0.0
H5645 H 0.68869 0.48251 0.53376 0.0
H5646 H 0.73042 0.50562 0.52718 0.0
H5647 H 0.7047 0.53015 0.53 0.0
C5648 C 0.54948 0.13674 0.55693 0.0
C5649 C 0.56934 0.13185 0.55041 0.0
C5650 C 0.54202 0.16748 0.55707 0.0
C5651 C 0.55574 0.1946 0.55064 0.0
C5652 C 0.57715 0.19073 0.5442 0.0
C5653 C 0.58348 0.15929 0.54414 0.0
C5654 C 0.51882 0.17037 0.56401 0.0
C5655 C 0.5931 0.21965 0.53732 0.0
C5656 C 0.51323 0.25718 0.54477 0.0
C5657 C 0.54231 0.29342 0.54746 0.0
C5658 C 0.51587 0.22397 0.54624 0.0
C5659 C 0.54814 0.22734 0.55054 0.0
C5660 C 0.57576 0.2634 0.55385 0.0
C5661 C 0.57266 0.29611 0.55221 0.0
C5662 C 0.48562 0.18584 0.54271 0.0
C5663 C 0.61 0.26797 0.55865 0.0
H5664 H 0.53941 0.11639 0.56193 0.0
H5665 H 0.59928 0.15612 0.53912 0.0
H5666 H 0.53266 0.20029 0.5664 0.0
H5667 H 0.4897 0.16288 0.56177 0.0
H5668 H 0.51523 0.1505 0.56909 0.0
H5669 H 0.60982 0.21291 0.53287 0.0
H5670 H 0.5691 0.22026 0.53406 0.0
H5671 H 0.61226 0.24904 0.53978 0.0
H5672 H 0.48972 0.25517 0.54111 0.0
H5673 H 0.59479 0.32416 0.55439 0.0
H5674 H 0.47532 0.16282 0.5474 0.0
H5675 H 0.49851 0.17736 0.5377 0.0
H5676 H 0.46042 0.1872 0.54026 0.0
H5677 H 0.60065 0.2449 0.56331 0.0
H5678 H 0.62568 0.29646 0.56174 0.0
H5679 H 0.63038 0.26523 0.5545 0.0
C5680 C 0.93776 0.4477 0.54344 0.0
C5681 C 0.95103 0.46891 0.55065 0.0
C5682 C 0.90835 0.40895 0.54358 0.0
C5683 C 0.89087 0.39135 0.55109 0.0
C5684 C 0.9044 0.41271 0.55841 0.0
C5685 C 0.93491 0.45113 0.55811 0.0
C5686 C 0.89584 0.38691 0.53565 0.0
C5687 C 0.88677 0.39531 0.56654 0.0
C5688 C 0.79161 0.30741 0.54667 0.0
C5689 C 0.79958 0.27717 0.54617 0.0
C5690 C 0.82021 0.34435 0.54917 0.0
C5691 C 0.85767 0.35106 0.55105 0.0
C5692 C 0.86437 0.31951 0.55137 0.0
C5693 C 0.83512 0.28279 0.54892 0.0
C5694 C 0.8115 0.37695 0.549 0.0
C5695 C 0.90353 0.32525 0.55351 0.0
H5696 H 0.95089 0.46128 0.53769 0.0
H5697 H 0.94557 0.46759 0.56369 0.0
H5698 H 0.8976 0.36015 0.53611 0.0
H5699 H 0.86531 0.37821 0.53435 0.0
H5700 H 0.91388 0.40419 0.53043 0.0
H5701 H 0.8939 0.41787 0.57124 0.0
H5702 H 0.85488 0.37717 0.56609 0.0
H5703 H 0.89823 0.37661 0.56863 0.0
H5704 H 0.76411 0.30297 0.54445 0.0
H5705 H 0.84122 0.25931 0.54845 0.0
H5706 H 0.82507 0.39513 0.54355 0.0
H5707 H 0.82382 0.39562 0.55445 0.0
H5708 H 0.77993 0.36615 0.54877 0.0
H5709 H 0.92465 0.34304 0.54874 0.0
H5710 H 0.90335 0.29748 0.55405 0.0
H5711 H 0.91346 0.34098 0.55936 0.0
C5712 C 0.22464 0.64152 0.37886 0.0
C5713 C 0.18618 0.61205 0.37966 0.0
C5714 C 0.23596 0.6795 0.38117 0.0
C5715 C 0.2079 0.68798 0.38424 0.0
C5716 C 0.16994 0.65748 0.38583 0.0
C5717 C 0.1595 0.61975 0.38349 0.0
C5718 C 0.27687 0.71108 0.3795 0.0
C5719 C 0.13911 0.66512 0.38908 0.0
C5720 C 0.23804 0.78991 0.39128 0.0
C5721 C 0.23436 0.8063 0.38405 0.0
C5722 C 0.22993 0.75143 0.39147 0.0
C5723 C 0.2163 0.72865 0.38434 0.0
C5724 C 0.21117 0.74493 0.3771 0.0
C5725 C 0.22109 0.78382 0.37701 0.0
C5726 C 0.23655 0.73538 0.39923 0.0
C5727 C 0.19503 0.72124 0.36945 0.0
H5728 H 0.24505 0.6355 0.37577 0.0
H5729 H 0.12961 0.59691 0.38398 0.0
H5730 H 0.27734 0.72728 0.37398 0.0
H5731 H 0.28814 0.73188 0.38463 0.0
H5732 H 0.29651 0.69933 0.37848 0.0
H5733 H 0.11406 0.63847 0.39154 0.0
H5734 H 0.15069 0.68734 0.39393 0.0
H5735 H 0.12865 0.67617 0.38407 0.0
H5736 H 0.2481 0.80749 0.39674 0.0
H5737 H 0.21746 0.79643 0.37147 0.0
H5738 H 0.25866 0.72681 0.39818 0.0
H5739 H 0.20962 0.70906 0.40112 0.0
H5740 H 0.24643 0.7566 0.4043 0.0
H5741 H 0.21481 0.71127 0.36724 0.0
H5742 H 0.19092 0.73776 0.36449 0.0
H5743 H 0.16676 0.69519 0.37077 0.0
C5744 C 0.44485 0.62101 0.37975 0.0
C5745 C 0.47127 0.60842 0.37823 0.0
C5746 C 0.40683 0.59461 0.38222 0.0
C5747 C 0.39536 0.55503 0.3831 0.0
C5748 C 0.42332 0.54337 0.38232 0.0
C5749 C 0.46093 0.57024 0.37991 0.0
C5750 C 0.37817 0.60842 0.3832 0.0
C5751 C 0.41293 0.50198 0.38346 0.0
C5752 C 0.29495 0.47963 0.3905 0.0
C5753 C 0.27515 0.46639 0.3831 0.0
C5754 C 0.33391 0.50916 0.39068 0.0
C5755 C 0.35355 0.52515 0.38326 0.0
C5756 C 0.3336 0.51137 0.37578 0.0
C5757 C 0.29459 0.48253 0.3758 0.0
C5758 C 0.35383 0.52338 0.39878 0.0
C5759 C 0.35372 0.5265 0.3677 0.0
H5760 H 0.45306 0.65075 0.37848 0.0
H5761 H 0.48178 0.5609 0.37884 0.0
H5762 H 0.35897 0.5997 0.3778 0.0
H5763 H 0.35965 0.59497 0.38862 0.0
H5764 H 0.39275 0.64032 0.3838 0.0
H5765 H 0.43759 0.49726 0.38225 0.0
H5766 H 0.40333 0.49338 0.38982 0.0
H5767 H 0.38873 0.48308 0.37937 0.0
H5768 H 0.27983 0.46717 0.39616 0.0
H5769 H 0.27952 0.47186 0.37006 0.0
H5770 H 0.36473 0.5548 0.39937 0.0
H5771 H 0.37917 0.51919 0.39919 0.0
H5772 H 0.33429 0.5082 0.40398 0.0
H5773 H 0.36511 0.55805 0.3673 0.0
H5774 H 0.33422 0.51232 0.36244 0.0
H5775 H 0.37869 0.52168 0.36721 0.0
C5776 C 0.49226 0.90697 0.38556 0.0
C5777 C 0.47445 0.90079 0.37795 0.0
C5778 C 0.51513 0.89047 0.38745 0.0
C5779 C 0.51992 0.86731 0.38157 0.0
C5780 C 0.49871 0.85799 0.3742 0.0
C5781 C 0.47645 0.87525 0.37244 0.0
C5782 C 0.53691 0.90074 0.3954 0.0
C5783 C 0.50242 0.83276 0.36785 0.0
C5784 C 0.6195 0.87967 0.37924 0.0
C5785 C 0.61569 0.84721 0.38324 0.0
C5786 C 0.58877 0.88692 0.37889 0.0
C5787 C 0.55266 0.85988 0.38231 0.0
C5788 C 0.54819 0.82607 0.38612 0.0
C5789 C 0.58015 0.8204 0.38665 0.0
C5790 C 0.59507 0.92364 0.37488 0.0
C5791 C 0.50989 0.79599 0.3896 0.0
H5792 H 0.49018 0.92652 0.38983 0.0
H5793 H 0.46215 0.8703 0.36659 0.0
H5794 H 0.53586 0.87496 0.39818 0.0
H5795 H 0.56772 0.92224 0.39426 0.0
H5796 H 0.52516 0.91326 0.39982 0.0
H5797 H 0.4794 0.82302 0.36316 0.0
H5798 H 0.53085 0.84923 0.36477 0.0
H5799 H 0.50118 0.80704 0.37072 0.0
H5800 H 0.64651 0.89929 0.37632 0.0
H5801 H 0.57727 0.79485 0.3896 0.0
H5802 H 0.59148 0.94201 0.37946 0.0
H5803 H 0.57336 0.917 0.37002 0.0
H5804 H 0.62423 0.94048 0.37212 0.0
H5805 H 0.50409 0.80711 0.39529 0.0
H5806 H 0.50952 0.76865 0.39103 0.0
H5807 H 0.48602 0.78963 0.3853 0.0
C5808 C 0.12315 0.89493 0.78232 0.0
C5809 C 0.14084 0.89537 0.78972 0.0
C5810 C 0.08428 0.88576 0.78206 0.0
C5811 C 0.06248 0.87579 0.78936 0.0
C5812 C 0.08011 0.87511 0.7968 0.0
C5813 C 0.11922 0.8855 0.79691 0.0
C5814 C 0.06703 0.88779 0.77404 0.0
C5815 C 0.05758 0.86302 0.80468 0.0
C5816 C 0.97286 0.88179 0.79392 0.0
C5817 C 0.94464 0.8426 0.79389 0.0
C5818 C 0.01109 0.89374 0.79161 0.0
C5819 C 0.02113 0.86566 0.78937 0.0
C5820 C 0.99169 0.82658 0.78856 0.0
C5821 C 0.95374 0.81553 0.79083 0.0
C5822 C 0.04137 0.93585 0.79231 0.0
C5823 C 1.0009 0.79579 0.78612 0.0
H5824 H 0.13995 0.90245 0.77675 0.0
H5825 H 0.13266 0.88497 0.8026 0.0
H5826 H 0.03806 0.86207 0.77314 0.0
H5827 H 0.06328 0.91347 0.77403 0.0
H5828 H 0.08572 0.89018 0.7688 0.0
H5829 H 0.07513 0.86239 0.80986 0.0
H5830 H 0.04713 0.88327 0.80619 0.0
H5831 H 0.03182 0.83386 0.804 0.0
H5832 H 0.96578 0.90264 0.79639 0.0
H5833 H 0.93184 0.78519 0.79089 0.0
H5834 H 0.06128 0.94505 0.78702 0.0
H5835 H 0.05888 0.9403 0.79787 0.0
H5836 H 0.02826 0.95459 0.79271 0.0
H5837 H 0.01905 0.80471 0.78057 0.0
H5838 H 0.97444 0.76761 0.78494 0.0
H5839 H 0.01752 0.79188 0.79108 0.0
C5840 C 0.1891 0.11819 0.79159 0.0
C5841 C 0.22667 0.12896 0.79405 0.0
C5842 C 0.17989 0.14627 0.78916 0.0
C5843 C 0.20897 0.1857 0.78933 0.0
C5844 C 0.24772 0.19599 0.79098 0.0
C5845 C 0.25613 0.16735 0.7933 0.0
C5846 C 0.13837 0.13413 0.78731 0.0
C5847 C 0.27952 0.23757 0.79119 0.0
C5848 C 0.18832 0.26416 0.78239 0.0
C5849 C 0.17859 0.27469 0.78979 0.0
C5850 C 0.19784 0.23487 0.78208 0.0
C5851 C 0.19789 0.21601 0.78936 0.0
C5852 C 0.188 0.22657 0.79684 0.0
C5853 C 0.17815 0.25559 0.79695 0.0
C5854 C 0.20808 0.22437 0.774 0.0
C5855 C 0.18865 0.20779 0.80478 0.0
H5856 H 0.16632 0.0884 0.79228 0.0
H5857 H 0.28509 0.17543 0.7953 0.0
H5858 H 0.12548 0.14065 0.79263 0.0
H5859 H 0.13653 0.15044 0.78203 0.0
H5860 H 0.12089 0.10273 0.786 0.0
H5861 H 0.30863 0.24051 0.79158 0.0
H5862 H 0.2782 0.25262 0.78567 0.0
H5863 H 0.27544 0.2521 0.79653 0.0
H5864 H 0.18866 0.27899 0.77684 0.0
H5865 H 0.17131 0.26419 0.80269 0.0
H5866 H 0.18884 0.19315 0.77278 0.0
H5867 H 0.2381 0.22972 0.77417 0.0
H5868 H 0.20563 0.24118 0.76888 0.0
H5869 H 0.16839 0.17621 0.80447 0.0
H5870 H 0.18054 0.2196 0.81006 0.0
H5871 H 0.21798 0.21216 0.80587 0.0
C5872 C 0.96344 0.11157 0.79571 0.0
C5873 C 0.95086 0.13838 0.7965 0.0
C5874 C 0.93776 0.07359 0.79317 0.0
C5875 C 0.89873 0.06242 0.79155 0.0
C5876 C 0.88728 0.0907 0.79157 0.0
C5877 C 0.91354 0.12839 0.79406 0.0
C5878 C 0.95143 0.04462 0.79296 0.0
C5879 C 0.8462 0.08038 0.78993 0.0
C5880 C 0.82632 0.96215 0.78376 0.0
C5881 C 0.8106 0.94235 0.79107 0.0
C5882 C 0.85584 1.001 0.78378 0.0
C5883 C 0.86883 0.02072 0.79128 0.0
C5884 C 0.85244 1.00083 0.79867 0.0
C5885 C 0.82397 0.96168 0.79847 0.0
C5886 C 0.87282 0.02096 0.77579 0.0
C5887 C 0.86422 0.02116 0.8068 0.0
H5888 H 0.99238 0.11943 0.79766 0.0
H5889 H 0.90393 0.14924 0.79476 0.0
H5890 H 0.94053 0.02581 0.79842 0.0
H5891 H 0.93989 0.02578 0.78752 0.0
H5892 H 0.98347 0.05891 0.79291 0.0
H5893 H 0.84394 0.10614 0.7883 0.0
H5894 H 0.8336 0.05897 0.78496 0.0
H5895 H 0.82901 0.0674 0.79552 0.0
H5896 H 0.81553 0.94716 0.77802 0.0
H5897 H 0.81102 0.94658 0.80411 0.0
H5898 H 0.90467 0.03373 0.77588 0.0
H5899 H 0.86688 0.04498 0.77487 0.0
H5900 H 0.86087 1.00096 0.77052 0.0
H5901 H 0.89554 0.03273 0.80782 0.0
H5902 H 0.848 1.00176 0.81195 0.0
H5903 H 0.85914 0.04602 0.80683 0.0
C5904 C 0.21115 0.96575 0.29486 0.0
C5905 C 0.1824 0.93875 0.28976 0.0
C5906 C 0.21893 1.00393 0.29516 0.0
C5907 C 0.19577 0.01473 0.29059 0.0
C5908 C 0.16544 0.98695 0.28567 0.0
C5909 C 0.15962 0.94928 0.28518 0.0
C5910 C 0.2523 0.03281 0.30029 0.0
C5911 C 0.1391 0.99692 0.281 0.0
C5912 C 0.20447 0.10636 0.29923 0.0
C5913 C 0.23368 0.13419 0.2943 0.0
C5914 C 0.18919 0.06685 0.29766 0.0
C5915 C 0.2039 0.05525 0.29106 0.0
C5916 C 0.23134 0.08345 0.28572 0.0
C5917 C 0.24602 0.12272 0.28743 0.0
C5918 C 0.15967 0.03767 0.30344 0.0
C5919 C 0.24773 0.07236 0.27862 0.0
H5920 H 0.22786 0.95703 0.29857 0.0
H5921 H 0.13681 0.92787 0.28137 0.0
H5922 H 0.27441 0.05551 0.2963 0.0
H5923 H 0.24244 0.04724 0.30465 0.0
H5924 H 0.26617 0.01924 0.30379 0.0
H5925 H 0.11478 0.97116 0.27808 0.0
H5926 H 0.1271 0.0103 0.28512 0.0
H5927 H 0.15575 0.01839 0.2762 0.0
H5928 H 0.1951 0.11551 0.30455 0.0
H5929 H 0.26864 0.14452 0.28364 0.0
H5930 H 0.17367 0.02562 0.30737 0.0
H5931 H 0.13619 0.01326 0.30003 0.0
H5932 H 0.14679 0.05071 0.30742 0.0
H5933 H 0.26791 0.06309 0.28092 0.0
H5934 H 0.26371 0.09682 0.27433 0.0
H5935 H 0.2245 0.04773 0.27522 0.0
C5936 C 0.12059 0.26153 0.29678 0.0
C5937 C 0.13786 0.28041 0.28948 0.0
C5938 C 0.08172 0.23249 0.29704 0.0
C5939 C 0.05944 0.22175 0.28981 0.0
C5940 C 0.0768 0.24022 0.28237 0.0
C5941 C 0.1159 0.26934 0.2823 0.0
C5942 C 0.06432 0.21382 0.30513 0.0
C5943 C 0.054 0.22971 0.27455 0.0
C5944 C 0.96926 0.1251 0.29298 0.0
C5945 C 0.94407 0.13697 0.29597 0.0
C5946 C 1.00608 0.15236 0.29007 0.0
C5947 C 0.01768 0.19213 0.29026 0.0
C5948 C 0.99063 0.20352 0.2925 0.0
C5949 C 0.95411 0.17574 0.29535 0.0
C5950 C 0.03387 0.13897 0.28762 0.0
C5951 C 1.00159 0.24545 0.29278 0.0
H5952 H 0.13725 0.26999 0.30237 0.0
H5953 H 0.12921 0.28359 0.27662 0.0
H5954 H 0.04011 0.21875 0.30667 0.0
H5955 H 0.05235 0.18216 0.30474 0.0
H5956 H 0.08571 0.22527 0.31016 0.0
H5957 H 0.07242 0.24493 0.26921 0.0
H5958 H 0.0397 0.19812 0.2735 0.0
H5959 H 0.03089 0.23729 0.27499 0.0
H5960 H 0.96145 0.09504 0.29353 0.0
H5961 H 0.93453 0.18473 0.29773 0.0
H5962 H 0.05474 0.14504 0.29264 0.0
H5963 H 0.05067 0.15482 0.28216 0.0
H5964 H 0.01868 0.1075 0.28633 0.0
H5965 H 0.01997 0.25925 0.2982 0.0
H5966 H 0.97583 0.24906 0.29316 0.0
H5967 H 0.01855 0.26083 0.28732 0.0
C5968 C 0.95562 0.8807 0.29094 0.0
C5969 C 0.94105 0.84149 0.29269 0.0
C5970 C 0.9305 0.89421 0.28868 0.0
C5971 C 0.89026 0.86789 0.28829 0.0
C5972 C 0.87628 0.82791 0.28923 0.0
C5973 C 0.90189 0.8152 0.29138 0.0
C5974 C 0.94654 0.93683 0.28729 0.0
C5975 C 0.8338 0.79882 0.28871 0.0
C5976 C 0.82257 0.90069 0.29627 0.0
C5977 C 0.80369 0.90159 0.28918 0.0
C5978 C 0.85136 0.89054 0.29599 0.0
C5979 C 0.86227 0.88208 0.28839 0.0
C5980 C 0.84396 0.88395 0.28116 0.0
C5981 C 0.81454 0.89335 0.28166 0.0
C5982 C 0.86897 0.88734 0.30389 0.0
C5983 C 0.85548 0.87638 0.27292 0.0
H5984 H 0.98607 0.90107 0.29185 0.0
H5985 H 0.89088 0.78474 0.2925 0.0
H5986 H 0.93292 0.94164 0.28187 0.0
H5987 H 0.93975 0.94948 0.29261 0.0
H5988 H 0.97838 0.95241 0.28644 0.0
H5989 H 0.82794 0.7686 0.28888 0.0
H5990 H 0.81866 0.80322 0.2939 0.0
H5991 H 0.82163 0.80316 0.28302 0.0
H5992 H 0.81375 0.90644 0.3021 0.0
H5993 H 0.79998 0.89426 0.27616 0.0
H5994 H 0.90073 0.90682 0.30377 0.0
H5995 H 0.86345 0.85742 0.30465 0.0
H5996 H 0.85712 0.89475 0.30927 0.0
H5997 H 0.8834 0.90177 0.27111 0.0
H5998 H 0.83366 0.87149 0.26818 0.0
H5999 H 0.85975 0.85104 0.27306 0.0
C6000 C 0.30954 0.87374 0.88829 0.0
C6001 C 0.27875 0.84047 0.88487 0.0
C6002 C 0.34745 0.88049 0.88809 0.0
C6003 C 0.3547 0.85264 0.88451 0.0
C6004 C 0.32342 0.81756 0.88158 0.0
C6005 C 0.28579 0.81198 0.88173 0.0
C6006 C 0.37953 0.91847 0.8913 0.0
C6007 C 0.32997 0.78662 0.87795 0.0
C6008 C 0.44934 0.88079 0.87399 0.0
C6009 C 0.4672 0.8688 0.87967 0.0
C6010 C 0.41349 0.87752 0.87569 0.0
C6011 C 0.39499 0.86122 0.88318 0.0
C6012 C 0.41408 0.85107 0.88912 0.0
C6013 C 0.45018 0.85499 0.88728 0.0
C6014 C 0.39473 0.89012 0.86934 0.0
C6015 C 0.39572 0.83477 0.89726 0.0
H6016 H 0.30423 0.89487 0.89109 0.0
H6017 H 0.26218 0.78594 0.87913 0.0
H6018 H 0.40484 0.91651 0.89342 0.0
H6019 H 0.38929 0.94032 0.88636 0.0
H6020 H 0.36917 0.92907 0.89642 0.0
H6021 H 0.30241 0.75957 0.8767 0.0
H6022 H 0.34624 0.79718 0.87216 0.0
H6023 H 0.34767 0.77995 0.88213 0.0
H6024 H 0.46291 0.89156 0.86812 0.0
H6025 H 0.46437 0.84582 0.89163 0.0
H6026 H 0.38623 0.91014 0.87208 0.0
H6027 H 0.36804 0.86462 0.86705 0.0
H6028 H 0.41414 0.90473 0.86409 0.0
H6029 H 0.38756 0.85447 0.90029 0.0
H6030 H 0.41526 0.83034 0.90137 0.0
H6031 H 0.36883 0.80669 0.89637 0.0
C6032 C 0.23092 0.62381 0.87574 0.0
C6033 C 0.19359 0.61637 0.87758 0.0
C6034 C 0.24349 0.59828 0.87822 0.0
C6035 C 0.21776 0.56414 0.88249 0.0
C6036 C 0.18162 0.55887 0.88511 0.0
C6037 C 0.16991 0.58507 0.8826 0.0
C6038 C 0.28282 0.60591 0.87555 0.0
C6039 C 0.15312 0.52336 0.8897 0.0
C6040 C 0.2254 0.47689 0.87605 0.0
C6041 C 0.24301 0.471 0.88282 0.0
C6042 C 0.21574 0.50614 0.87604 0.0
C6043 C 0.22572 0.53139 0.88281 0.0
C6044 C 0.2439 0.52568 0.88965 0.0
C6045 C 0.25158 0.49495 0.88964 0.0
C6046 C 0.1944 0.50969 0.86881 0.0
C6047 C 0.25571 0.55227 0.89691 0.0
H6048 H 0.24918 0.64803 0.87183 0.0
H6049 H 0.14091 0.57918 0.88396 0.0
H6050 H 0.29694 0.59818 0.88043 0.0
H6051 H 0.27951 0.58778 0.87016 0.0
H6052 H 0.30202 0.63663 0.87384 0.0
H6053 H 0.1341 0.52946 0.8936 0.0
H6054 H 0.13459 0.50102 0.88521 0.0
H6055 H 0.16759 0.51163 0.89356 0.0
H6056 H 0.21803 0.45775 0.87085 0.0
H6057 H 0.26499 0.49006 0.89489 0.0
H6058 H 0.21245 0.53791 0.86576 0.0
H6059 H 0.16744 0.50864 0.87087 0.0
H6060 H 0.1867 0.48633 0.86428 0.0
H6061 H 0.27817 0.58176 0.89504 0.0
H6062 H 0.2674 0.54253 0.90194 0.0
H6063 H 0.23072 0.5543 0.89923 0.0
C6064 C 0.45177 0.64751 0.88485 0.0
C6065 C 0.45171 0.61805 0.88022 0.0
C6066 C 0.48571 0.68299 0.88595 0.0
C6067 C 0.52053 0.68904 0.88239 0.0
C6068 C 0.52133 0.65838 0.87826 0.0
C6069 C 0.48678 0.62316 0.87719 0.0
C6070 C 0.48375 0.71469 0.89053 0.0
C6071 C 0.55824 0.66359 0.87457 0.0
C6072 C 0.59234 0.79107 0.87566 0.0
C6073 C 0.61784 0.80498 0.88227 0.0
C6074 C 0.56048 0.75346 0.87566 0.0
C6075 C 0.55488 0.72851 0.88229 0.0
C6076 C 0.58106 0.74193 0.88889 0.0
C6077 C 0.61157 0.78027 0.88889 0.0
C6078 C 0.53228 0.74079 0.86865 0.0
C6079 C 0.57729 0.71576 0.89589 0.0
H6080 H 0.42484 0.64326 0.88737 0.0
H6081 H 0.48689 0.60042 0.87362 0.0
H6082 H 0.50656 0.7271 0.89527 0.0
H6083 H 0.489 0.73833 0.88626 0.0
H6084 H 0.45526 0.70428 0.89351 0.0
H6085 H 0.55503 0.63591 0.87235 0.0
H6086 H 0.56695 0.68397 0.86937 0.0
H6087 H 0.58201 0.67632 0.8791 0.0
H6088 H 0.59716 0.80952 0.87046 0.0
H6089 H 0.63042 0.79081 0.89413 0.0
H6090 H 0.5044 0.73722 0.87085 0.0
H6091 H 0.52643 0.71249 0.86624 0.0
H6092 H 0.54296 0.76197 0.86358 0.0
H6093 H 0.59632 0.73201 0.90108 0.0
H6094 H 0.58539 0.69444 0.89376 0.0
H6095 H 0.54706 0.69931 0.8981 0.0
C6096 C 0.88612 0.97482 0.70538 0.0
C6097 C 0.85561 0.94403 0.7095 0.0
C6098 C 0.90035 0.01297 0.70794 0.0
C6099 C 0.88336 0.02041 0.71476 0.0
C6100 C 0.85533 0.98912 0.71944 0.0
C6101 C 0.84169 0.95106 0.71674 0.0
C6102 C 0.93042 0.04534 0.70279 0.0
C6103 C 0.83693 0.99579 0.72681 0.0
C6104 C 0.92625 0.1259 0.72093 0.0
C6105 C 0.90375 0.13644 0.71626 0.0
C6106 C 0.9195 0.08782 0.72073 0.0
C6107 C 0.88914 0.05991 0.71584 0.0
C6108 C 0.86583 0.07059 0.71128 0.0
C6109 C 0.87405 0.10894 0.71142 0.0
C6110 C 0.94543 0.07778 0.72553 0.0
C6111 C 0.83257 0.04166 0.70613 0.0
H6112 H 0.89689 0.96919 0.69979 0.0
H6113 H 0.81804 0.92714 0.71992 0.0
H6114 H 0.91633 0.05817 0.69912 0.0
H6115 H 0.95255 0.06855 0.70667 0.0
H6116 H 0.94504 0.03507 0.69856 0.0
H6117 H 0.82298 0.96985 0.73079 0.0
H6118 H 0.85852 0.02066 0.73044 0.0
H6119 H 0.81447 1.00256 0.7248 0.0
H6120 H 0.94942 0.14754 0.72464 0.0
H6121 H 0.85753 0.11759 0.70766 0.0
H6122 H 0.9635 0.07196 0.72129 0.0
H6123 H 0.92798 0.05112 0.72914 0.0
H6124 H 0.96484 0.10144 0.72971 0.0
H6125 H 0.84311 0.02891 0.7015 0.0
H6126 H 0.81744 0.05476 0.70293 0.0
H6127 H 0.81136 0.01774 0.71002 0.0
C6128 C 0.96484 0.80697 0.7097 0.0
C6129 C 0.94025 0.80394 0.71605 0.0
C6130 C 1.00371 0.83606 0.70973 0.0
C6131 C 0.01768 0.86377 0.71608 0.0
C6132 C 0.99237 0.86151 0.72237 0.0
C6133 C 0.95394 0.83098 0.72236 0.0
C6134 C 0.03008 0.83635 0.70311 0.0
C6135 C 1.00608 0.89089 0.72914 0.0
C6136 C 0.1255 0.90921 0.71875 0.0
C6137 C 0.13911 0.94136 0.71364 0.0
C6138 C 0.08592 0.88529 0.72015 0.0
C6139 C 0.05931 0.89362 0.71627 0.0
C6140 C 0.07308 0.92792 0.71164 0.0
C6141 C 0.11303 0.95155 0.71037 0.0
C6142 C 0.0728 0.84907 0.72509 0.0
C6143 C 0.04557 0.93813 0.70754 0.0
H6144 H 0.95389 0.78577 0.70485 0.0
H6145 H 0.93455 0.82825 0.72726 0.0
H6146 H 0.0436 0.86432 0.69983 0.0
H6147 H 0.05372 0.83319 0.70586 0.0
H6148 H 0.01457 0.81269 0.69863 0.0
H6149 H 0.9824 0.88586 0.73339 0.0
H6150 H 0.02934 0.88996 0.73264 0.0
H6151 H 0.01853 0.92036 0.72655 0.0
H6152 H 0.14583 0.90175 0.72137 0.0
H6153 H 0.12364 0.97659 0.70644 0.0
H6154 H 0.06541 0.82488 0.72083 0.0
H6155 H 0.04673 0.84184 0.72875 0.0
H6156 H 0.09589 0.85155 0.72924 0.0
H6157 H 0.0314 0.91836 0.70233 0.0
H6158 H 0.06059 0.96827 0.70523 0.0
H6159 H 0.02246 0.93439 0.71182 0.0
C6160 C 0.2618 0.17761 0.71075 0.0
C6161 C 0.28234 0.17965 0.71783 0.0
C6162 C 0.232 0.18645 0.7109 0.0
C6163 C 0.22191 0.19714 0.71834 0.0
C6164 C 0.2417 0.19807 0.72557 0.0
C6165 C 0.27173 0.18936 0.72522 0.0
C6166 C 0.21233 0.18583 0.703 0.0
C6167 C 0.23122 0.20827 0.73365 0.0
C6168 C 0.1785 0.2604 0.71423 0.0
C6169 C 0.13938 0.23289 0.71343 0.0
C6170 C 0.20548 0.24957 0.71653 0.0
C6171 C 0.19293 0.21034 0.71824 0.0
C6172 C 0.15279 0.18317 0.71834 0.0
C6173 C 0.12636 0.19471 0.71583 0.0
C6174 C 0.24773 0.27963 0.71647 0.0
C6175 C 0.13806 0.1413 0.72036 0.0
H6176 H 0.26974 0.17019 0.70501 0.0
H6177 H 0.28713 0.19046 0.73074 0.0
H6178 H 0.18072 0.16601 0.70351 0.0
H6179 H 0.21703 0.21509 0.70167 0.0
H6180 H 0.22325 0.17646 0.69776 0.0
H6181 H 0.25075 0.20972 0.73862 0.0
H6182 H 0.23231 0.23647 0.73327 0.0
H6183 H 0.20113 0.1863 0.73526 0.0
H6184 H 0.18842 0.28986 0.71232 0.0
H6185 H 0.09605 0.17332 0.71513 0.0
H6186 H 0.26339 0.27173 0.71199 0.0
H6187 H 0.25994 0.2806 0.72256 0.0
H6188 H 0.25284 0.3089 0.71497 0.0
H6189 H 0.14231 0.12677 0.71503 0.0
H6190 H 0.10679 0.12597 0.72188 0.0
H6191 H 0.15432 0.13855 0.72554 0.0
C6192 C 0.7848 0.22007 0.11601 0.0
C6193 C 0.80457 0.22872 0.12347 0.0
C6194 C 0.74594 0.21052 0.11564 0.0
C6195 C 0.72653 0.20972 0.1229 0.0
C6196 C 0.74642 0.21839 0.13044 0.0
C6197 C 0.78528 0.22803 0.13062 0.0
C6198 C 0.72602 0.20187 0.10747 0.0
C6199 C 0.72647 0.21685 0.13836 0.0
C6200 C 0.63812 0.21966 0.12527 0.0
C6201 C 0.61085 0.18196 0.12755 0.0
C6202 C 0.67536 0.22865 0.12283 0.0
C6203 C 0.68524 0.19922 0.1228 0.0
C6204 C 0.6563 0.16043 0.12421 0.0
C6205 C 0.61931 0.15225 0.12658 0.0
C6206 C 0.7052 0.27018 0.12115 0.0
C6207 C 0.66547 0.12819 0.12407 0.0
H6208 H 0.79976 0.22079 0.11045 0.0
H6209 H 0.80028 0.23414 0.13641 0.0
H6210 H 0.6966 0.17629 0.10781 0.0
H6211 H 0.72289 0.22679 0.10557 0.0
H6212 H 0.74263 0.1967 0.1027 0.0
H6213 H 0.74593 0.2239 0.1437 0.0
H6214 H 0.71562 0.23751 0.13817 0.0
H6215 H 0.70115 0.18757 0.13925 0.0
H6216 H 0.63148 0.24261 0.12611 0.0
H6217 H 0.59807 0.12316 0.12841 0.0
H6218 H 0.72301 0.27227 0.11579 0.0
H6219 H 0.72489 0.28216 0.12646 0.0
H6220 H 0.69171 0.28824 0.12006 0.0
H6221 H 0.6807 0.12945 0.11835 0.0
H6222 H 0.63911 0.09929 0.12455 0.0
H6223 H 0.68503 0.13174 0.1292 0.0
C6224 C 0.92745 0.50544 0.12755 0.0
C6225 C 0.89995 0.46621 0.12708 0.0
C6226 C 0.91857 0.53344 0.12499 0.0
C6227 C 0.88139 0.52175 0.12182 0.0
C6228 C 0.85524 0.48205 0.12041 0.0
C6229 C 0.86477 0.45452 0.12312 0.0
C6230 C 0.94734 0.5753 0.1266 0.0
C6231 C 0.81563 0.46845 0.11689 0.0
C6232 C 0.84338 0.58669 0.1288 0.0
C6233 C 0.85039 0.61037 0.12199 0.0
C6234 C 0.85177 0.55663 0.12866 0.0
C6235 C 0.86776 0.55017 0.12154 0.0
C6236 C 0.87335 0.57288 0.11452 0.0
C6237 C 0.86411 0.60242 0.1148 0.0
C6238 C 0.84501 0.53282 0.13627 0.0
C6239 C 0.89043 0.56697 0.10683 0.0
H6240 H 0.95454 0.51424 0.13067 0.0
H6241 H 0.84342 0.42405 0.12284 0.0
H6242 H 0.94868 0.59314 0.12134 0.0
H6243 H 0.93789 0.5853 0.13197 0.0
H6244 H 0.97677 0.58009 0.12782 0.0
H6245 H 0.8024 0.43842 0.11456 0.0
H6246 H 0.79653 0.46921 0.1217 0.0
H6247 H 0.81688 0.48765 0.11188 0.0
H6248 H 0.83236 0.5923 0.13435 0.0
H6249 H 0.86858 0.61993 0.10944 0.0
H6250 H 0.87303 0.53758 0.13866 0.0
H6251 H 0.82698 0.50164 0.13484 0.0
H6252 H 0.83046 0.54017 0.14113 0.0
H6253 H 0.92081 0.5746 0.10796 0.0
H6254 H 0.89005 0.58494 0.10171 0.0
H6255 H 0.87439 0.53618 0.10499 0.0
C6256 C 0.57854 0.45946 0.12364 0.0
C6257 C 0.6144 0.4697 0.12707 0.0
C6258 C 0.55281 0.42127 0.12141 0.0
C6259 C 0.56314 0.39263 0.1227 0.0
C6260 C 0.60103 0.40364 0.12534 0.0
C6261 C 0.6264 0.44229 0.12752 0.0
C6262 C 0.51317 0.4111 0.11846 0.0
C6263 C 0.61356 0.37407 0.12648 0.0
C6264 C 0.48257 0.29647 0.13034 0.0
C6265 C 0.47107 0.27439 0.12323 0.0
C6266 C 0.51254 0.33495 0.1302 0.0
C6267 C 0.5324 0.35129 0.12281 0.0
C6268 C 0.52144 0.32869 0.11563 0.0
C6269 C 0.49022 0.29066 0.11589 0.0
C6270 C 0.52222 0.35841 0.13794 0.0
C6271 C 0.54201 0.34464 0.10765 0.0
H6272 H 0.56971 0.48099 0.12317 0.0
H6273 H 0.65442 0.45041 0.13011 0.0
H6274 H 0.50451 0.39104 0.11322 0.0
H6275 H 0.49207 0.39636 0.12344 0.0
H6276 H 0.51168 0.43703 0.1166 0.0
H6277 H 0.64538 0.38778 0.12718 0.0
H6278 H 0.59961 0.35669 0.13201 0.0
H6279 H 0.60425 0.35393 0.12122 0.0
H6280 H 0.46714 0.28406 0.13598 0.0
H6281 H 0.48097 0.27349 0.11037 0.0
H6282 H 0.51875 0.38397 0.13696 0.0
H6283 H 0.5528 0.36916 0.13963 0.0
H6284 H 0.50355 0.3415 0.14312 0.0
H6285 H 0.53118 0.36257 0.10481 0.0
H6286 H 0.53682 0.32121 0.10331 0.0
H6287 H 0.57361 0.36321 0.10857 0.0
C6288 C 0.87698 0.30032 0.62045 0.0
C6289 C 0.84718 0.27086 0.62506 0.0
C6290 C 0.88378 0.33829 0.62055 0.0
C6291 C 0.85902 0.3469 0.62509 0.0
C6292 C 0.82727 0.31689 0.62932 0.0
C6293 C 0.82226 0.27955 0.62937 0.0
C6294 C 0.91835 0.36912 0.616 0.0
C6295 C 0.79815 0.32335 0.63387 0.0
C6296 C 0.89013 0.44618 0.63366 0.0
C6297 C 0.8712 0.45882 0.6284 0.0
C6298 C 0.88805 0.41048 0.63241 0.0
C6299 C 0.86683 0.38729 0.6257 0.0
C6300 C 0.84962 0.40116 0.62011 0.0
C6301 C 0.85177 0.43675 0.62157 0.0
C6302 C 0.90658 0.39649 0.6385 0.0
C6303 C 0.82707 0.37742 0.61287 0.0
H6304 H 0.89531 0.294 0.61675 0.0
H6305 H 0.79864 0.25721 0.6328 0.0
H6306 H 0.91289 0.3917 0.6135 0.0
H6307 H 0.94312 0.38327 0.62027 0.0
H6308 H 0.9269 0.35663 0.61092 0.0
H6309 H 0.76894 0.3038 0.63136 0.0
H6310 H 0.79788 0.31569 0.64037 0.0
H6311 H 0.80338 0.35324 0.63351 0.0
H6312 H 0.90497 0.46339 0.63897 0.0
H6313 H 0.83725 0.44684 0.61752 0.0
H6314 H 0.92478 0.38684 0.63532 0.0
H6315 H 0.88373 0.37123 0.64184 0.0
H6316 H 0.9247 0.41915 0.64299 0.0
H6317 H 0.84442 0.36765 0.60939 0.0
H6318 H 0.81851 0.39377 0.60871 0.0
H6319 H 0.80058 0.35126 0.61501 0.0
C6320 C 0.79526 0.58843 0.61622 0.0
C6321 C 0.8132 0.61028 0.62319 0.0
C6322 C 0.75652 0.55828 0.61646 0.0
C6323 C 0.7349 0.55121 0.62374 0.0
C6324 C 0.75283 0.57421 0.6307 0.0
C6325 C 0.79192 0.60277 0.63039 0.0
C6326 C 0.7388 0.53399 0.60897 0.0
C6327 C 0.73056 0.56912 0.63848 0.0
C6328 C 0.62608 0.50506 0.62473 0.0
C6329 C 0.61599 0.47077 0.62884 0.0
C6330 C 0.66431 0.53004 0.62234 0.0
C6331 C 0.69328 0.52065 0.62417 0.0
C6332 C 0.68244 0.4842 0.62767 0.0
C6333 C 0.64377 0.45964 0.63002 0.0
C6334 C 0.67401 0.56826 0.61868 0.0
C6335 C 0.71216 0.47248 0.6295 0.0
H6336 H 0.8118 0.59439 0.61064 0.0
H6337 H 0.80563 0.6201 0.63575 0.0
H6338 H 0.7258 0.50292 0.6105 0.0
H6339 H 0.71523 0.5384 0.60665 0.0
H6340 H 0.76031 0.54114 0.60402 0.0
H6341 H 0.74834 0.59055 0.6432 0.0
H6342 H 0.70491 0.57212 0.63721 0.0
H6343 H 0.71997 0.53973 0.64096 0.0
H6344 H 0.60439 0.51345 0.62383 0.0
H6345 H 0.63576 0.4329 0.6332 0.0
H6346 H 0.69697 0.57744 0.61401 0.0
H6347 H 0.68462 0.59008 0.62361 0.0
H6348 H 0.64834 0.56741 0.61585 0.0
H6349 H 0.73249 0.47975 0.62432 0.0
H6350 H 0.69854 0.4411 0.63081 0.0
H6351 H 0.72934 0.48863 0.63489 0.0
C6352 C 0.6294 0.22387 0.62093 0.0
C6353 C 0.62624 0.19661 0.62668 0.0
C6354 C 0.59755 0.22821 0.61904 0.0
C6355 C 0.56208 0.20527 0.62315 0.0
C6356 C 0.55812 0.17584 0.62854 0.0
C6357 C 0.59036 0.17178 0.63023 0.0
C6358 C 0.60267 0.25924 0.6131 0.0
C6359 C 0.52069 0.15064 0.63299 0.0
C6360 C 0.50018 0.2499 0.62808 0.0
C6361 C 0.47045 0.2325 0.62232 0.0
C6362 C 0.53059 0.24195 0.62826 0.0
C6363 C 0.53099 0.21533 0.62263 0.0
C6364 C 0.50167 0.19838 0.61666 0.0
C6365 C 0.47219 0.20776 0.61648 0.0
C6366 C 0.56203 0.26164 0.63457 0.0
C6367 C 0.50061 0.16941 0.61063 0.0
H6368 H 0.65735 0.24314 0.61823 0.0
H6369 H 0.58823 0.15105 0.63475 0.0
H6370 H 0.57827 0.24785 0.60873 0.0
H6371 H 0.60274 0.28332 0.61647 0.0
H6372 H 0.63014 0.27091 0.60964 0.0
H6373 H 0.52101 0.12652 0.63627 0.0
H6374 H 0.51559 0.16833 0.63748 0.0
H6375 H 0.49604 0.1385 0.62867 0.0
H6376 H 0.4996 0.26958 0.63254 0.0
H6377 H 0.45024 0.19517 0.61182 0.0
H6378 H 0.59068 0.27716 0.63155 0.0
H6379 H 0.56228 0.23975 0.63868 0.0
H6380 H 0.55821 0.28262 0.63831 0.0
H6381 H 0.48055 0.16454 0.6055 0.0
H6382 H 0.49067 0.14144 0.61377 0.0
H6383 H 0.52977 0.17886 0.60812 0.0
C6384 C 0.96787 0.1943 0.2239 0.0
C6385 C 0.94255 0.17454 0.21745 0.0
C6386 C 1.00609 0.20183 0.22382 0.0
C6387 C 0.01883 0.18824 0.21725 0.0
C6388 C 0.99287 0.16658 0.21094 0.0
C6389 C 0.95512 0.1602 0.21109 0.0
C6390 C 0.03299 0.22511 0.23065 0.0
C6391 C 1.00519 0.15074 0.20392 0.0
C6392 C 0.12313 0.23292 0.21071 0.0
C6393 C 0.13158 0.20455 0.21326 0.0
C6394 C 0.08705 0.22924 0.21242 0.0
C6395 C 0.05933 0.19668 0.21683 0.0
C6396 C 0.06905 0.16969 0.21997 0.0
C6397 C 0.10505 0.17377 0.21807 0.0
C6398 C 0.07764 0.2587 0.20903 0.0
C6399 C 0.04057 0.13516 0.22487 0.0
H6400 H 0.95806 0.20435 0.22897 0.0
H6401 H 0.93568 0.14447 0.20613 0.0
H6402 H 0.04928 0.21127 0.23291 0.0
H6403 H 0.05444 0.25413 0.22834 0.0
H6404 H 0.01728 0.2288 0.23583 0.0
H6405 H 0.98107 0.1334 0.19965 0.0
H6406 H 0.02889 0.17484 0.20049 0.0
H6407 H 0.01648 0.13226 0.20626 0.0
H6408 H 0.14385 0.25672 0.207 0.0
H6409 H 0.11202 0.15218 0.22011 0.0
H6410 H 0.06546 0.26885 0.21387 0.0
H6411 H 0.05533 0.24516 0.20421 0.0
H6412 H 0.10339 0.28406 0.20638 0.0
H6413 H 0.02696 0.14399 0.22966 0.0
H6414 H 0.05443 0.12013 0.22781 0.0
H6415 H 0.01718 0.11438 0.22082 0.0
C6416 C 0.88563 0.95909 0.21553 0.0
C6417 C 0.84885 0.94505 0.21213 0.0
C6418 C 0.89792 0.93338 0.21814 0.0
C6419 C 0.87304 0.89309 0.21713 0.0
C6420 C 0.83468 0.87918 0.21442 0.0
C6421 C 0.82298 0.90532 0.21203 0.0
C6422 C 0.9386 0.94939 0.22126 0.0
C6423 C 0.80713 0.83677 0.21322 0.0
C6424 C 0.91489 0.83053 0.21052 0.0
C6425 C 0.9095 0.80811 0.21747 0.0
C6426 C 0.90443 0.8592 0.21046 0.0
C6427 C 0.88843 0.86594 0.21755 0.0
C6428 C 0.88429 0.8444 0.2247 0.0
C6429 C 0.89488 0.81575 0.22457 0.0
C6430 C 0.90894 0.88112 0.20266 0.0
C6431 C 0.86788 0.85096 0.23241 0.0
H6432 H 0.90575 0.98992 0.21555 0.0
H6433 H 0.79459 0.89463 0.20936 0.0
H6434 H 0.9393 0.93202 0.22646 0.0
H6435 H 0.95695 0.94797 0.21636 0.0
H6436 H 0.95137 0.97995 0.22321 0.0
H6437 H 0.77713 0.83033 0.21202 0.0
H6438 H 0.81695 0.82624 0.20801 0.0
H6439 H 0.80702 0.8207 0.2187 0.0
H6440 H 0.9259 0.82467 0.205 0.0
H6441 H 0.89119 0.79891 0.23001 0.0
H6442 H 0.92653 0.91263 0.20377 0.0
H6443 H 0.88016 0.87507 0.20048 0.0
H6444 H 0.92293 0.87327 0.19777 0.0
H6445 H 0.88477 0.88179 0.23421 0.0
H6446 H 0.86804 0.8329 0.23754 0.0
H6447 H 0.83771 0.84418 0.23138 0.0
C6448 C 0.15816 0.95877 0.20919 0.0
C6449 C 0.12136 0.95206 0.21134 0.0
C6450 C 0.19139 0.99462 0.21082 0.0
C6451 C 0.18758 0.02414 0.21473 0.0
C6452 C 0.15079 0.01619 0.21751 0.0
C6453 C 0.11817 0.98035 0.21575 0.0
C6454 C 0.23023 1.00182 0.20788 0.0
C6455 C 0.14541 0.0464 0.22187 0.0
C6456 C 0.27609 0.11683 0.22197 0.0
C6457 C 0.28232 0.142 0.21543 0.0
C6458 C 0.24587 0.07822 0.2218 0.0
C6459 C 0.22081 0.06454 0.215 0.0
C6460 C 0.22671 0.08994 0.20843 0.0
C6461 C 0.25745 0.12818 0.20871 0.0
C6462 C 0.24091 0.0521 0.22889 0.0
C6463 C 0.20032 0.07677 0.20111 0.0
H6464 H 0.16074 0.93693 0.20579 0.0
H6465 H 0.08978 0.97495 0.21755 0.0
H6466 H 0.24064 0.02336 0.20288 0.0
H6467 H 0.25181 0.01407 0.21286 0.0
H6468 H 0.229 0.97506 0.20562 0.0
H6469 H 0.11626 0.03399 0.22465 0.0
H6470 H 0.16745 0.06052 0.22671 0.0
H6471 H 0.1492 0.06913 0.21748 0.0
H6472 H 0.29476 0.12732 0.22725 0.0
H6473 H 0.26223 0.14714 0.2036 0.0
H6474 H 0.24714 0.0293 0.22688 0.0
H6475 H 0.21066 0.03743 0.23112 0.0
H6476 H 0.26049 0.06806 0.23404 0.0
H6477 H 0.19835 0.05031 0.19848 0.0
H6478 H 0.21032 0.09918 0.19628 0.0
H6479 H 0.17077 0.06947 0.203 0.0
loop_
_geom_bond_atom_site_label_1
_geom_bond_atom_site_label_2
_geom_bond_distance
_geom_bond_site_symmetry_2
_ccdc_geom_bond_type
C0 C2 1.422 . S
C0 C4 1.415 . S
C0 N6 1.369 . S
C1 C2 1.421 . S
C1 C3 1.417 . S
C1 C13 1.422 . S
C2 C0 1.422 . S
C2 C1 1.421 . S
C2 N12 1.359 . S
C3 C1 1.417 . S
C3 C5 1.329 . S
C3 H22 0.930 . S
C4 C0 1.415 . S
C4 C5 1.437 . S
C4 C8 1.413 . S
C5 C3 1.329 . S
C5 C4 1.437 . S
C5 H27 0.929 . S
N6 C0 1.369 . S
N6 C7 1.338 . S
N6 Gd11 2.622 . S
C7 N6 1.338 . S
C7 C9 1.378 . S
C7 H19 0.929 . S
C8 C4 1.413 . S
C8 C9 1.348 . S
C8 H24 0.931 . S
C9 C7 1.378 . S
C9 C8 1.348 . S
C9 H25 0.930 . S
Gd10 N30 2.622 . S
Gd10 N37 2.570 . S
Gd10 O44 2.353 1_545 S
Gd10 O45 2.468 1_545 S
Gd10 O46 2.427 1_545 S
Gd10 O48 2.388 . S
Gd10 O49 2.386 . S
Gd10 O53 2.307 . S
Gd10 C63 2.805 1_545 S
Gd11 N6 2.622 . S
Gd11 N12 2.570 . S
Gd11 O43 2.386 . S
Gd11 O47 2.307 . S
Gd11 O50 2.353 . S
Gd11 O51 2.468 . S
Gd11 O52 2.427 . S
Gd11 O54 2.388 . S
Gd11 C75 2.805 . S
N12 C2 1.359 . S
N12 Gd11 2.570 . S
N12 C14 1.343 . S
C13 C1 1.422 . S
C13 C15 1.321 . S
C13 H21 0.931 . S
C14 N12 1.343 . S
C14 C15 1.390 . S
C14 H16 0.931 . S
C15 C13 1.321 . S
C15 C14 1.390 . S
C15 H17 0.930 . S
H16 C14 0.931 . S
H17 C15 0.930 . S
H18 C41 0.931 . S
H19 C7 0.929 . S
H20 C42 0.930 . S
H21 C13 0.931 . S
H22 C3 0.930 . S
H23 C32 0.929 . S
H24 C8 0.931 . S
H25 C9 0.930 . S
H26 C64 0.930 . S
H27 C5 0.929 . S
H28 C33 0.931 . S
H29 C34 0.930 . S
N30 Gd10 2.622 . S
N30 C31 1.369 . S
N30 C32 1.338 . S
C31 N30 1.369 . S
C31 C35 1.415 . S
C31 C38 1.422 . S
C32 H23 0.929 . S
C32 N30 1.338 . S
C32 C34 1.378 . S
C33 H28 0.931 . S
C33 C34 1.348 . S
C33 C35 1.413 . S
C34 H29 0.930 . S
C34 C32 1.378 . S
C34 C33 1.348 . S
C35 C31 1.415 . S
C35 C33 1.413 . S
C35 C65 1.437 . S
H36 C65 0.929 . S
N37 Gd10 2.570 . S
N37 C38 1.359 . S
N37 C41 1.343 . S
C38 C31 1.422 . S
C38 N37 1.359 . S
C38 C40 1.421 . S
C39 C40 1.422 . S
C39 C42 1.321 . S
C39 H66 0.931 . S
C40 C38 1.421 . S
C40 C39 1.422 . S
C40 C64 1.417 . S
C41 H18 0.931 . S
C41 N37 1.343 . S
C41 C42 1.390 . S
C42 H20 0.930 . S
C42 C39 1.321 . S
C42 C41 1.390 . S
O43 Gd11 2.386 . S
O43 C55 1.265 1_545 S
O44 Gd10 2.353 1_565 S
O44 C55 1.242 . S
O45 Gd10 2.468 1_565 S
O45 C63 1.263 . S
O46 Gd10 2.427 1_565 S
O46 C63 1.252 . S
O47 Gd11 2.307 . S
O47 C56 1.261 . S
O48 Gd10 2.388 . S
O48 C56 1.252 . S
O49 Gd10 2.386 . S
O49 C67 1.265 . S
O50 Gd11 2.353 . S
O50 C67 1.242 . S
O51 Gd11 2.468 . S
O51 C75 1.263 . S
O52 Gd11 2.427 . S
O52 C75 1.252 . S
O53 Gd10 2.307 . S
O53 C68 1.261 . S
O54 Gd11 2.388 . S
O54 C68 1.252 . S
C55 O43 1.265 1_565 S
C55 O44 1.242 . S
C56 O47 1.261 . S
C56 O48 1.252 . S
C57 C60 1.394 . S
C57 C62 1.370 . S
C57 C63 1.500 . S
C58 C61 1.383 . S
C58 C62 1.395 . S
C59 C60 1.396 . S
C59 C61 1.365 . S
C59 H76 0.929 . S
C60 C57 1.394 . S
C60 C59 1.396 . S
C60 H77 0.930 . S
C61 C58 1.383 . S
C61 C59 1.365 . S
C61 H78 0.931 . S
C62 C57 1.370 . S
C62 C58 1.395 . S
C62 H79 0.930 . S
C63 Gd10 2.805 1_565 S
C63 O45 1.263 . S
C63 O46 1.252 . S
C63 C57 1.500 . S
C64 H26 0.930 . S
C64 C40 1.417 . S
C64 C65 1.329 . S
C65 C35 1.437 . S
C65 H36 0.929 . S
C65 C64 1.329 . S
H66 C39 0.931 . S
C67 O49 1.265 . S
C67 O50 1.242 . S
C68 O53 1.261 . S
C68 O54 1.252 . S
C69 C72 1.394 . S
C69 C74 1.370 . S
C69 C75 1.500 . S
C70 C73 1.383 . S
C70 C74 1.395 . S
C71 C72 1.396 . S
C71 C73 1.365 . S
C71 H80 0.929 . S
C72 C69 1.394 . S
C72 C71 1.396 . S
C72 H81 0.930 . S
C73 C70 1.383 . S
C73 C71 1.365 . S
C73 H82 0.931 . S
C74 C69 1.370 . S
C74 C70 1.395 . S
C74 H83 0.930 . S
C75 Gd11 2.805 . S
C75 O51 1.263 . S
C75 O52 1.252 . S
C75 C69 1.500 . S
H76 C59 0.929 . S
H77 C60 0.930 . S
H78 C61 0.931 . S
H79 C62 0.930 . S
H80 C71 0.929 . S
H81 C72 0.930 . S
H82 C73 0.931 . S
H83 C74 0.930 . S
C84 C86 1.422 . S
C84 C88 1.415 . S
C84 N90 1.369 . S
C85 C86 1.421 . S
C85 C87 1.417 . S
C85 C97 1.422 . S
C86 C84 1.422 . S
C86 C85 1.421 . S
C86 N96 1.359 . S
C87 C85 1.417 . S
C87 C89 1.329 . S
C87 H106 0.930 . S
C88 C84 1.415 . S
C88 C89 1.437 . S
C88 C92 1.413 . S
C89 C87 1.329 . S
C89 C88 1.437 . S
C89 H111 0.929 . S
N90 C84 1.369 . S
N90 C91 1.338 . S
N90 Gd95 2.622 1_455 S
C91 N90 1.338 . S
C91 C93 1.378 . S
C91 H103 0.929 . S
C92 C88 1.413 . S
C92 C93 1.348 . S
C92 H108 0.931 . S
C93 C91 1.378 . S
C93 C92 1.348 . S
C93 H109 0.930 . S
Gd94 N114 2.622 . S
Gd94 N121 2.570 . S
Gd94 O128 2.353 . S
Gd94 O129 2.468 . S
Gd94 O130 2.427 . S
Gd94 O132 2.388 . S
Gd94 O133 2.386 1_455 S
Gd94 O137 2.307 . S
Gd94 C147 2.805 . S
Gd95 N90 2.622 1_655 S
Gd95 N96 2.570 1_655 S
Gd95 O127 2.386 1_655 S
Gd95 O131 2.307 1_655 S
Gd95 O134 2.353 . S
Gd95 O135 2.468 . S
Gd95 O136 2.427 . S
Gd95 O138 2.388 1_655 S
Gd95 C159 2.805 . S
N96 C86 1.359 . S
N96 Gd95 2.570 1_455 S
N96 C98 1.343 . S
C97 C85 1.422 . S
C97 C99 1.321 . S
C97 H105 0.931 . S
C98 N96 1.343 . S
C98 C99 1.390 . S
C98 H100 0.934 . S
C99 C97 1.321 . S
C99 C98 1.390 . S
C99 H101 0.930 . S
H100 C98 0.934 . S
H101 C99 0.930 . S
H102 C125 0.931 . S
H103 C91 0.929 . S
H104 C126 0.930 . S
H105 C97 0.931 . S
H106 C87 0.930 . S
H107 C116 0.929 . S
H108 C92 0.931 . S
H109 C93 0.930 . S
H110 C148 0.930 . S
H111 C89 0.929 . S
H112 C117 0.916 1_655 S
H113 C118 0.930 . S
N114 Gd94 2.622 . S
N114 C115 1.369 . S
N114 C116 1.338 . S
C115 N114 1.369 . S
C115 C119 1.415 . S
C115 C122 1.422 . S
C116 H107 0.929 . S
C116 N114 1.338 . S
C116 C118 1.378 . S
C117 H112 0.916 1_455 S
C117 C118 1.368 . S
C117 C119 1.409 . S
C118 H113 0.930 . S
C118 C116 1.378 . S
C118 C117 1.368 . S
C119 C115 1.415 . S
C119 C117 1.409 . S
C119 C149 1.437 1_455 S
H120 C149 0.929 . S
N121 Gd94 2.570 . S
N121 C122 1.359 . S
N121 C125 1.343 . S
C122 C115 1.422 . S
C122 N121 1.359 . S
C122 C124 1.421 . S
C123 C124 1.422 . S
C123 C126 1.321 . S
C123 H150 0.931 1_455 S
C124 C122 1.421 . S
C124 C123 1.422 . S
C124 C148 1.417 1_455 S
C125 H102 0.931 . S
C125 N121 1.343 . S
C125 C126 1.390 . S
C126 H104 0.930 . S
C126 C123 1.321 . S
C126 C125 1.390 . S
O127 Gd95 2.386 1_455 S
O127 C139 1.265 . S
O128 Gd94 2.353 . S
O128 C139 1.242 . S
O129 Gd94 2.468 . S
O129 C147 1.263 . S
O130 Gd94 2.427 . S
O130 C147 1.252 . S
O131 Gd95 2.307 1_455 S
O131 C140 1.261 . S
O132 Gd94 2.388 . S
O132 C140 1.252 . S
O133 Gd94 2.386 1_655 S
O133 C151 1.265 . S
O134 Gd95 2.353 . S
O134 C151 1.242 . S
O135 Gd95 2.468 . S
O135 C159 1.263 . S
O136 Gd95 2.427 . S
O136 C159 1.252 . S
O137 Gd94 2.307 . S
O137 C152 1.261 . S
O138 Gd95 2.388 1_455 S
O138 C152 1.252 . S
C139 O127 1.265 . S
C139 O128 1.242 . S
C140 O131 1.261 . S
C140 O132 1.252 . S
C141 C144 1.394 . S
C141 C146 1.370 . S
C141 C147 1.500 . S
C142 C145 1.383 . S
C142 C146 1.395 . S
C143 C144 1.396 . S
C143 C145 1.365 . S
C143 H160 0.929 . S
C144 C141 1.394 . S
C144 C143 1.396 . S
C144 H161 0.930 . S
C145 C142 1.383 . S
C145 C143 1.365 . S
C145 H162 0.931 . S
C146 C141 1.370 . S
C146 C142 1.395 . S
C146 H163 0.930 . S
C147 Gd94 2.805 . S
C147 O129 1.263 . S
C147 O130 1.252 . S
C147 C141 1.500 . S
C148 H110 0.930 . S
C148 C124 1.417 1_655 S
C148 C149 1.329 . S
C149 C119 1.437 1_655 S
C149 H120 0.929 . S
C149 C148 1.329 . S
H150 C123 0.931 1_655 S
C151 O133 1.265 . S
C151 O134 1.242 . S
C152 O137 1.261 . S
C152 O138 1.252 . S
C153 C156 1.394 . S
C153 C158 1.370 . S
C153 C159 1.500 . S
C154 C157 1.383 . S
C154 C158 1.395 . S
C155 C156 1.396 . S
C155 C157 1.365 . S
C155 H164 0.929 . S
C156 C153 1.394 . S
C156 C155 1.396 . S
C156 H165 0.930 . S
C157 C154 1.383 . S
C157 C155 1.365 . S
C157 H166 0.931 . S
C158 C153 1.370 . S
C158 C154 1.395 . S
C158 H167 0.930 . S
C159 Gd95 2.805 . S
C159 O135 1.263 . S
C159 O136 1.252 . S
C159 C153 1.500 . S
H160 C143 0.929 . S
H161 C144 0.930 . S
H162 C145 0.931 . S
H163 C146 0.930 . S
H164 C155 0.929 . S
H165 C156 0.930 . S
H166 C157 0.931 . S
H167 C158 0.930 . S
C168 C170 1.422 . S
C168 C172 1.415 . S
C168 N174 1.369 . S
C169 C170 1.421 . S
C169 C171 1.417 . S
C169 C181 1.422 . S
C170 C168 1.422 . S
C170 C169 1.421 . S
C170 N180 1.359 . S
C171 C169 1.417 . S
C171 C173 1.329 . S
C171 H190 0.930 . S
C172 C168 1.415 . S
C172 C173 1.437 . S
C172 C176 1.413 . S
C173 C171 1.329 . S
C173 C172 1.437 . S
C173 H195 0.929 . S
N174 C168 1.369 . S
N174 C175 1.338 . S
N174 Gd179 2.622 . S
C175 N174 1.338 . S
C175 C177 1.378 . S
C175 H187 0.929 . S
C176 C172 1.413 . S
C176 C177 1.348 . S
C176 H192 0.931 . S
C177 C175 1.378 . S
C177 C176 1.348 . S
C177 H193 0.930 . S
Gd178 N198 2.622 . S
Gd178 N205 2.570 . S
Gd178 O212 2.353 . S
Gd178 O213 2.468 . S
Gd178 O214 2.427 . S
Gd178 O216 2.388 . S
Gd178 O217 2.386 . S
Gd178 O221 2.307 . S
Gd178 C231 2.805 . S
Gd179 N174 2.622 . S
Gd179 N180 2.570 . S
Gd179 O211 2.386 . S
Gd179 O215 2.307 . S
Gd179 O218 2.353 . S
Gd179 O219 2.468 . S
Gd179 O220 2.427 . S
Gd179 O222 2.388 . S
Gd179 C243 2.805 . S
N180 C170 1.359 . S
N180 Gd179 2.570 . S
N180 C182 1.343 . S
C181 C169 1.422 . S
C181 C183 1.321 . S
C181 H189 0.931 . S
C182 N180 1.343 . S
C182 C183 1.390 . S
C182 H184 0.931 . S
C183 C181 1.321 . S
C183 C182 1.390 . S
C183 H185 0.930 . S
H184 C182 0.931 . S
H185 C183 0.930 . S
H186 C209 0.931 . S
H187 C175 0.929 . S
H188 C210 0.930 . S
H189 C181 0.931 . S
H190 C171 0.930 . S
H191 C200 0.929 . S
H192 C176 0.931 . S
H193 C177 0.930 . S
H194 C232 0.930 . S
H195 C173 0.929 . S
H196 C201 0.931 . S
H197 C202 0.930 . S
N198 Gd178 2.622 . S
N198 C199 1.369 . S
N198 C200 1.338 . S
C199 N198 1.369 . S
C199 C203 1.415 . S
C199 C206 1.422 . S
C200 H191 0.929 . S
C200 N198 1.338 . S
C200 C202 1.378 . S
C201 H196 0.931 . S
C201 C202 1.348 . S
C201 C203 1.413 . S
C202 H197 0.930 . S
C202 C200 1.378 . S
C202 C201 1.348 . S
C203 C199 1.415 . S
C203 C201 1.413 . S
C203 C233 1.437 . S
H204 C233 0.929 . S
N205 Gd178 2.570 . S
N205 C206 1.359 . S
N205 C209 1.343 . S
C206 C199 1.422 . S
C206 N205 1.359 . S
C206 C208 1.421 . S
C207 C208 1.422 . S
C207 C210 1.321 . S
C207 H234 0.931 . S
C208 C206 1.421 . S
C208 C207 1.422 . S
C208 C232 1.417 . S
C209 H186 0.931 . S
C209 N205 1.343 . S
C209 C210 1.390 . S
C210 H188 0.930 . S
C210 C207 1.321 . S
C210 C209 1.390 . S
O211 Gd179 2.386 . S
O211 C223 1.265 . S
O212 Gd178 2.353 . S
O212 C223 1.242 . S
O213 Gd178 2.468 . S
O213 C231 1.263 . S
O214 Gd178 2.427 . S
O214 C231 1.252 . S
O215 Gd179 2.307 . S
O215 C224 1.261 . S
O216 Gd178 2.388 . S
O216 C224 1.252 . S
O217 Gd178 2.386 . S
O217 C235 1.265 . S
O218 Gd179 2.353 . S
O218 C235 1.242 . S
O219 Gd179 2.468 . S
O219 C243 1.263 . S
O220 Gd179 2.427 . S
O220 C243 1.252 . S
O221 Gd178 2.307 . S
O221 C236 1.261 . S
O222 Gd179 2.388 . S
O222 C236 1.252 . S
C223 O211 1.265 . S
C223 O212 1.242 . S
C224 O215 1.261 . S
C224 O216 1.252 . S
C225 C228 1.394 . S
C225 C230 1.370 . S
C225 C231 1.500 . S
C226 C229 1.383 . S
C226 C230 1.395 . S
C227 C228 1.396 . S
C227 C229 1.365 . S
C227 H244 0.929 . S
C228 C225 1.394 . S
C228 C227 1.396 . S
C228 H245 0.930 . S
C229 C226 1.383 . S
C229 C227 1.365 . S
C229 H246 0.931 . S
C230 C225 1.370 . S
C230 C226 1.395 . S
C230 H247 0.930 . S
C231 Gd178 2.805 . S
C231 O213 1.263 . S
C231 O214 1.252 . S
C231 C225 1.500 . S
C232 H194 0.930 . S
C232 C208 1.417 . S
C232 C233 1.329 . S
C233 C203 1.437 . S
C233 H204 0.929 . S
C233 C232 1.329 . S
H234 C207 0.931 . S
C235 O217 1.265 . S
C235 O218 1.242 . S
C236 O221 1.261 . S
C236 O222 1.252 . S
C237 C240 1.394 . S
C237 C242 1.370 . S
C237 C243 1.500 . S
C238 C241 1.383 . S
C238 C242 1.395 . S
C239 C240 1.396 . S
C239 C241 1.365 . S
C239 H248 0.929 . S
C240 C237 1.394 . S
C240 C239 1.396 . S
C240 H249 0.930 . S
C241 C238 1.383 . S
C241 C239 1.365 . S
C241 H250 0.931 . S
C242 C237 1.370 . S
C242 C238 1.395 . S
C242 H251 0.930 . S
C243 Gd179 2.805 . S
C243 O219 1.263 . S
C243 O220 1.252 . S
C243 C237 1.500 . S
H244 C227 0.929 . S
H245 C228 0.930 . S
H246 C229 0.931 . S
H247 C230 0.930 . S
H248 C239 0.929 . S
H249 C240 0.930 . S
H250 C241 0.931 . S
H251 C242 0.930 . S
C252 C254 1.422 . S
C252 C256 1.415 . S
C252 N258 1.369 . S
C253 C254 1.421 . S
C253 C255 1.417 . S
C253 C265 1.422 . S
C254 C252 1.422 . S
C254 C253 1.421 . S
C254 N264 1.359 . S
C255 C253 1.417 . S
C255 C257 1.329 . S
C255 H274 0.930 . S
C256 C252 1.415 . S
C256 C257 1.437 . S
C256 C260 1.413 . S
C257 C255 1.329 . S
C257 C256 1.437 . S
C257 H279 0.929 . S
N258 C252 1.369 . S
N258 C259 1.338 . S
N258 Gd263 2.622 . S
C259 N258 1.338 . S
C259 C261 1.378 . S
C259 H271 0.929 . S
C260 C256 1.413 . S
C260 C261 1.348 . S
C260 H276 0.931 . S
C261 C259 1.378 . S
C261 C260 1.348 . S
C261 H277 0.930 . S
Gd262 N282 2.622 . S
Gd262 N289 2.570 . S
Gd262 O296 2.353 1_455 S
Gd262 O297 2.468 1_455 S
Gd262 O298 2.427 1_455 S
Gd262 O300 2.388 . S
Gd262 O301 2.386 . S
Gd262 O305 2.307 . S
Gd262 C315 2.805 1_455 S
Gd263 N258 2.622 . S
Gd263 N264 2.570 . S
Gd263 O295 2.386 . S
Gd263 O299 2.307 . S
Gd263 O302 2.353 . S
Gd263 O303 2.468 . S
Gd263 O304 2.427 . S
Gd263 O306 2.388 . S
Gd263 C327 2.805 . S
N264 C254 1.359 . S
N264 Gd263 2.570 . S
N264 C266 1.343 . S
C265 C253 1.422 . S
C265 C267 1.321 . S
C265 H273 0.931 . S
C266 N264 1.343 . S
C266 C267 1.390 . S
C266 H268 0.931 . S
C267 C265 1.321 . S
C267 C266 1.390 . S
C267 H269 0.930 . S
H268 C266 0.931 . S
H269 C267 0.930 . S
H270 C293 0.931 . S
H271 C259 0.929 . S
H272 C294 0.930 . S
H273 C265 0.931 . S
H274 C255 0.930 . S
H275 C284 0.929 . S
H276 C260 0.931 . S
H277 C261 0.930 . S
H278 C316 0.930 . S
H279 C257 0.929 . S
H280 C285 0.931 . S
H281 C286 0.930 . S
N282 Gd262 2.622 . S
N282 C283 1.369 . S
N282 C284 1.338 . S
C283 N282 1.369 . S
C283 C287 1.415 . S
C283 C290 1.422 . S
C284 H275 0.929 . S
C284 N282 1.338 . S
C284 C286 1.378 . S
C285 H280 0.931 . S
C285 C286 1.348 . S
C285 C287 1.413 . S
C286 H281 0.930 . S
C286 C284 1.378 . S
C286 C285 1.348 . S
C287 C283 1.415 . S
C287 C285 1.413 . S
C287 C317 1.437 . S
H288 C317 0.929 . S
N289 Gd262 2.570 . S
N289 C290 1.359 . S
N289 C293 1.343 . S
C290 C283 1.422 . S
C290 N289 1.359 . S
C290 C292 1.421 . S
C291 C292 1.422 . S
C291 C294 1.321 . S
C291 H318 0.931 . S
C292 C290 1.421 . S
C292 C291 1.422 . S
C292 C316 1.417 . S
C293 H270 0.931 . S
C293 N289 1.343 . S
C293 C294 1.390 . S
C294 H272 0.930 . S
C294 C291 1.321 . S
C294 C293 1.390 . S
O295 Gd263 2.386 . S
O295 C307 1.265 1_455 S
O296 Gd262 2.353 1_655 S
O296 C307 1.242 . S
O297 Gd262 2.468 1_655 S
O297 C315 1.263 . S
O298 Gd262 2.427 1_655 S
O298 C315 1.252 . S
O299 Gd263 2.307 . S
O299 C308 1.261 . S
O300 Gd262 2.388 . S
O300 C308 1.252 . S
O301 Gd262 2.386 . S
O301 C319 1.265 . S
O302 Gd263 2.353 . S
O302 C319 1.242 . S
O303 Gd263 2.468 . S
O303 C327 1.263 . S
O304 Gd263 2.427 . S
O304 C327 1.252 . S
O305 Gd262 2.307 . S
O305 C320 1.261 . S
O306 Gd263 2.388 . S
O306 C320 1.252 . S
C307 O295 1.265 1_655 S
C307 O296 1.242 . S
C308 O299 1.261 . S
C308 O300 1.252 . S
C309 C312 1.394 . S
C309 C314 1.370 . S
C309 C315 1.500 . S
C310 C313 1.383 . S
C310 C314 1.395 . S
C311 C312 1.396 . S
C311 C313 1.365 . S
C311 H328 0.929 . S
C312 C309 1.394 . S
C312 C311 1.396 . S
C312 H329 0.930 . S
C313 C310 1.383 . S
C313 C311 1.365 . S
C313 H330 0.931 . S
C314 C309 1.370 . S
C314 C310 1.395 . S
C314 H331 0.930 . S
C315 Gd262 2.805 1_655 S
C315 O297 1.263 . S
C315 O298 1.252 . S
C315 C309 1.500 . S
C316 H278 0.930 . S
C316 C292 1.417 . S
C316 C317 1.329 . S
C317 C287 1.437 . S
C317 H288 0.929 . S
C317 C316 1.329 . S
H318 C291 0.931 . S
C319 O301 1.265 . S
C319 O302 1.242 . S
C320 O305 1.261 . S
C320 O306 1.252 . S
C321 C324 1.394 . S
C321 C326 1.370 . S
C321 C327 1.500 . S
C322 C325 1.383 . S
C322 C326 1.395 . S
C323 C324 1.396 . S
C323 C325 1.365 . S
C323 H332 0.929 . S
C324 C321 1.394 . S
C324 C323 1.396 . S
C324 H333 0.930 . S
C325 C322 1.383 . S
C325 C323 1.365 . S
C325 H334 0.931 . S
C326 C321 1.370 . S
C326 C322 1.395 . S
C326 H335 0.930 . S
C327 Gd263 2.805 . S
C327 O303 1.263 . S
C327 O304 1.252 . S
C327 C321 1.500 . S
H328 C311 0.929 . S
H329 C312 0.930 . S
H330 C313 0.931 . S
H331 C314 0.930 . S
H332 C323 0.929 . S
H333 C324 0.930 . S
H334 C325 0.931 . S
H335 C326 0.930 . S
C336 C338 1.422 . S
C336 C340 1.415 . S
C336 N342 1.369 . S
C337 C338 1.421 . S
C337 C339 1.417 . S
C337 C349 1.422 . S
C338 C336 1.422 . S
C338 C337 1.421 . S
C338 N348 1.359 . S
C339 C337 1.417 . S
C339 C341 1.329 . S
C339 H358 0.930 . S
C340 C336 1.415 . S
C340 C341 1.437 . S
C340 C344 1.413 . S
C341 C339 1.329 . S
C341 C340 1.437 . S
C341 H363 0.929 . S
N342 C336 1.369 . S
N342 C343 1.338 . S
N342 Gd347 2.622 . S
C343 N342 1.338 . S
C343 C345 1.378 . S
C343 H355 0.929 . S
C344 C340 1.413 . S
C344 C345 1.348 . S
C344 H360 0.931 . S
C345 C343 1.378 . S
C345 C344 1.348 . S
C345 H361 0.930 . S
Gd346 N366 2.622 . S
Gd346 N373 2.570 . S
Gd346 O380 2.353 . S
Gd346 O381 2.468 . S
Gd346 O382 2.427 . S
Gd346 O384 2.388 . S
Gd346 O385 2.386 . S
Gd346 O389 2.307 . S
Gd346 C399 2.805 . S
Gd347 N342 2.622 . S
Gd347 N348 2.570 . S
Gd347 O379 2.386 . S
Gd347 O383 2.307 . S
Gd347 O386 2.353 . S
Gd347 O387 2.468 . S
Gd347 O388 2.427 . S
Gd347 O390 2.388 . S
Gd347 C411 2.805 . S
N348 C338 1.359 . S
N348 Gd347 2.570 . S
N348 C350 1.343 . S
C349 C337 1.422 . S
C349 C351 1.321 . S
C349 H357 0.931 . S
C350 N348 1.343 . S
C350 C351 1.390 . S
C350 H352 0.931 . S
C351 C349 1.321 . S
C351 C350 1.390 . S
C351 H353 0.930 . S
H352 C350 0.931 . S
H353 C351 0.930 . S
H354 C377 0.931 . S
H355 C343 0.929 . S
H356 C378 0.930 . S
H357 C349 0.931 . S
H358 C339 0.930 . S
H359 C368 0.929 . S
H360 C344 0.931 . S
H361 C345 0.930 . S
H362 C400 0.930 . S
H363 C341 0.929 . S
H364 C369 0.931 . S
H365 C370 0.930 . S
N366 Gd346 2.622 . S
N366 C367 1.369 . S
N366 C368 1.338 . S
C367 N366 1.369 . S
C367 C371 1.415 . S
C367 C374 1.422 . S
C368 H359 0.929 . S
C368 N366 1.338 . S
C368 C370 1.378 . S
C369 H364 0.931 . S
C369 C370 1.348 . S
C369 C371 1.413 . S
C370 H365 0.930 . S
C370 C368 1.378 . S
C370 C369 1.348 . S
C371 C367 1.415 . S
C371 C369 1.413 . S
C371 C401 1.437 . S
H372 C401 0.929 . S
N373 Gd346 2.570 . S
N373 C374 1.359 . S
N373 C377 1.343 . S
C374 C367 1.422 . S
C374 N373 1.359 . S
C374 C376 1.421 . S
C375 C376 1.422 . S
C375 C378 1.321 . S
C375 H402 0.931 . S
C376 C374 1.421 . S
C376 C375 1.422 . S
C376 C400 1.417 . S
C377 H354 0.931 . S
C377 N373 1.343 . S
C377 C378 1.390 . S
C378 H356 0.930 . S
C378 C375 1.321 . S
C378 C377 1.390 . S
O379 Gd347 2.386 . S
O379 C391 1.265 . S
O380 Gd346 2.353 . S
O380 C391 1.242 . S
O381 Gd346 2.468 . S
O381 C399 1.263 . S
O382 Gd346 2.427 . S
O382 C399 1.252 . S
O383 Gd347 2.307 . S
O383 C392 1.261 . S
O384 Gd346 2.388 . S
O384 C392 1.252 . S
O385 Gd346 2.386 . S
O385 C403 1.265 . S
O386 Gd347 2.353 . S
O386 C403 1.242 . S
O387 Gd347 2.468 . S
O387 C411 1.263 . S
O388 Gd347 2.427 . S
O388 C411 1.252 . S
O389 Gd346 2.307 . S
O389 C404 1.261 . S
O390 Gd347 2.388 . S
O390 C404 1.252 . S
C391 O379 1.265 . S
C391 O380 1.242 . S
C392 O383 1.261 . S
C392 O384 1.252 . S
C393 C396 1.394 . S
C393 C398 1.370 . S
C393 C399 1.500 . S
C394 C397 1.383 . S
C394 C398 1.395 . S
C395 C396 1.396 . S
C395 C397 1.365 . S
C395 H412 0.929 . S
C396 C393 1.394 . S
C396 C395 1.396 . S
C396 H413 0.930 . S
C397 C394 1.383 . S
C397 C395 1.365 . S
C397 H414 0.931 . S
C398 C393 1.370 . S
C398 C394 1.395 . S
C398 H415 0.930 . S
C399 Gd346 2.805 . S
C399 O381 1.263 . S
C399 O382 1.252 . S
C399 C393 1.500 . S
C400 H362 0.930 . S
C400 C376 1.417 . S
C400 C401 1.329 . S
C401 C371 1.437 . S
C401 H372 0.929 . S
C401 C400 1.329 . S
H402 C375 0.931 . S
C403 O385 1.265 . S
C403 O386 1.242 . S
C404 O389 1.261 . S
C404 O390 1.252 . S
C405 C408 1.394 . S
C405 C410 1.370 . S
C405 C411 1.500 . S
C406 C409 1.383 . S
C406 C410 1.395 . S
C407 C408 1.396 . S
C407 C409 1.365 . S
C407 H416 0.929 . S
C408 C405 1.394 . S
C408 C407 1.396 . S
C408 H417 0.930 . S
C409 C406 1.383 . S
C409 C407 1.365 . S
C409 H418 0.931 . S
C410 C405 1.370 . S
C410 C406 1.395 . S
C410 H419 0.930 . S
C411 Gd347 2.805 . S
C411 O387 1.263 . S
C411 O388 1.252 . S
C411 C405 1.500 . S
H412 C395 0.929 . S
H413 C396 0.930 . S
H414 C397 0.931 . S
H415 C398 0.930 . S
H416 C407 0.929 . S
H417 C408 0.930 . S
H418 C409 0.931 . S
H419 C410 0.930 . S
C420 C422 1.422 . S
C420 C424 1.415 . S
C420 N426 1.369 . S
C421 C422 1.421 . S
C421 C423 1.417 . S
C421 C433 1.422 . S
C422 C420 1.422 . S
C422 C421 1.421 . S
C422 N432 1.359 . S
C423 C421 1.417 . S
C423 C425 1.329 . S
C423 H442 0.930 . S
C424 C420 1.415 . S
C424 C425 1.437 . S
C424 C428 1.413 . S
C425 C423 1.329 . S
C425 C424 1.437 . S
C425 H447 0.929 . S
N426 C420 1.369 . S
N426 C427 1.338 . S
N426 Gd431 2.622 1_545 S
C427 N426 1.338 . S
C427 C429 1.378 . S
C427 H439 0.929 . S
C428 C424 1.413 . S
C428 C429 1.348 . S
C428 H444 0.931 . S
C429 C427 1.378 . S
C429 C428 1.348 . S
C429 H445 0.930 . S
Gd430 N450 2.622 . S
Gd430 N457 2.570 . S
Gd430 O464 2.353 . S
Gd430 O465 2.468 . S
Gd430 O466 2.427 . S
Gd430 O468 2.388 . S
Gd430 O469 2.386 1_545 S
Gd430 O473 2.307 . S
Gd430 C483 2.805 . S
Gd431 N426 2.622 1_565 S
Gd431 N432 2.570 1_565 S
Gd431 O463 2.386 1_565 S
Gd431 O467 2.307 1_565 S
Gd431 O470 2.353 . S
Gd431 O471 2.468 . S
Gd431 O472 2.427 . S
Gd431 O474 2.388 1_565 S
Gd431 C495 2.805 . S
N432 C422 1.359 . S
N432 Gd431 2.570 1_545 S
N432 C434 1.343 . S
C433 C421 1.422 . S
C433 C435 1.321 . S
C433 H441 0.931 . S
C434 N432 1.343 . S
C434 C435 1.390 . S
C434 H436 0.934 . S
C435 C433 1.321 . S
C435 C434 1.390 . S
C435 H437 0.930 . S
H436 C434 0.934 . S
H437 C435 0.930 . S
H438 C461 0.931 . S
H439 C427 0.929 . S
H440 C462 0.930 . S
H441 C433 0.931 . S
H442 C423 0.930 . S
H443 C452 0.929 . S
H444 C428 0.931 . S
H445 C429 0.930 . S
H446 C484 0.930 . S
H447 C425 0.929 . S
H448 C453 0.916 1_565 S
H449 C454 0.930 . S
N450 Gd430 2.622 . S
N450 C451 1.369 . S
N450 C452 1.338 . S
C451 N450 1.369 . S
C451 C455 1.415 . S
C451 C458 1.422 . S
C452 H443 0.929 . S
C452 N450 1.338 . S
C452 C454 1.378 . S
C453 H448 0.916 1_545 S
C453 C454 1.368 . S
C453 C455 1.409 . S
C454 H449 0.930 . S
C454 C452 1.378 . S
C454 C453 1.368 . S
C455 C451 1.415 . S
C455 C453 1.409 . S
C455 C485 1.437 1_545 S
H456 C485 0.929 . S
N457 Gd430 2.570 . S
N457 C458 1.359 . S
N457 C461 1.343 . S
C458 C451 1.422 . S
C458 N457 1.359 . S
C458 C460 1.421 . S
C459 C460 1.422 . S
C459 C462 1.321 . S
C459 H486 0.931 1_545 S
C460 C458 1.421 . S
C460 C459 1.422 . S
C460 C484 1.417 1_545 S
C461 H438 0.931 . S
C461 N457 1.343 . S
C461 C462 1.390 . S
C462 H440 0.930 . S
C462 C459 1.321 . S
C462 C461 1.390 . S
O463 Gd431 2.386 1_545 S
O463 C475 1.265 . S
O464 Gd430 2.353 . S
O464 C475 1.242 . S
O465 Gd430 2.468 . S
O465 C483 1.263 . S
O466 Gd430 2.427 . S
O466 C483 1.252 . S
O467 Gd431 2.307 1_545 S
O467 C476 1.261 . S
O468 Gd430 2.388 . S
O468 C476 1.252 . S
O469 Gd430 2.386 1_565 S
O469 C487 1.265 . S
O470 Gd431 2.353 . S
O470 C487 1.242 . S
O471 Gd431 2.468 . S
O471 C495 1.263 . S
O472 Gd431 2.427 . S
O472 C495 1.252 . S
O473 Gd430 2.307 . S
O473 C488 1.261 . S
O474 Gd431 2.388 1_545 S
O474 C488 1.252 . S
C475 O463 1.265 . S
C475 O464 1.242 . S
C476 O467 1.261 . S
C476 O468 1.252 . S
C477 C480 1.394 . S
C477 C482 1.370 . S
C477 C483 1.500 . S
C478 C481 1.383 . S
C478 C482 1.395 . S
C479 C480 1.396 . S
C479 C481 1.365 . S
C479 H496 0.929 . S
C480 C477 1.394 . S
C480 C479 1.396 . S
C480 H497 0.930 . S
C481 C478 1.383 . S
C481 C479 1.365 . S
C481 H498 0.931 . S
C482 C477 1.370 . S
C482 C478 1.395 . S
C482 H499 0.930 . S
C483 Gd430 2.805 . S
C483 O465 1.263 . S
C483 O466 1.252 . S
C483 C477 1.500 . S
C484 H446 0.930 . S
C484 C460 1.417 1_565 S
C484 C485 1.329 . S
C485 C455 1.437 1_565 S
C485 H456 0.929 . S
C485 C484 1.329 . S
H486 C459 0.931 1_565 S
C487 O469 1.265 . S
C487 O470 1.242 . S
C488 O473 1.261 . S
C488 O474 1.252 . S
C489 C492 1.394 . S
C489 C494 1.370 . S
C489 C495 1.500 . S
C490 C493 1.383 . S
C490 C494 1.395 . S
C491 C492 1.396 . S
C491 C493 1.365 . S
C491 H500 0.929 . S
C492 C489 1.394 . S
C492 C491 1.396 . S
C492 H501 0.930 . S
C493 C490 1.383 . S
C493 C491 1.365 . S
C493 H502 0.931 . S
C494 C489 1.370 . S
C494 C490 1.395 . S
C494 H503 0.930 . S
C495 Gd431 2.805 . S
C495 O471 1.263 . S
C495 O472 1.252 . S
C495 C489 1.500 . S
H496 C479 0.929 . S
H497 C480 0.930 . S
H498 C481 0.931 . S
H499 C482 0.930 . S
H500 C491 0.929 . S
H501 C492 0.930 . S
H502 C493 0.931 . S
H503 C494 0.930 . S
C504 C506 1.422 . S
C504 C508 1.415 . S
C504 N510 1.369 . S
C505 C506 1.421 . S
C505 C507 1.417 1_545 S
C505 C517 1.422 . S
C506 C504 1.422 . S
C506 C505 1.421 . S
C506 N516 1.359 . S
C507 C505 1.417 1_565 S
C507 C509 1.329 . S
C507 H526 0.930 . S
C508 C504 1.415 . S
C508 C509 1.437 1_545 S
C508 C512 1.420 . S
C509 C507 1.329 . S
C509 C508 1.437 1_565 S
C509 H531 0.929 . S
N510 C504 1.369 . S
N510 C511 1.338 . S
N510 Gd515 2.622 . S
C511 N510 1.338 . S
C511 C513 1.378 . S
C511 H523 0.929 . S
C512 C508 1.420 . S
C512 C513 1.345 . S
C512 H528 0.928 1_545 S
C513 C511 1.378 . S
C513 C512 1.345 . S
C513 H529 0.930 . S
Gd514 N534 2.622 1_565 S
Gd514 N541 2.570 1_565 S
Gd514 O548 2.353 . S
Gd514 O549 2.468 . S
Gd514 O550 2.427 . S
Gd514 O552 2.388 1_565 S
Gd514 O553 2.386 1_565 S
Gd514 O557 2.307 1_565 S
Gd514 C567 2.805 . S
Gd515 N510 2.622 . S
Gd515 N516 2.570 . S
Gd515 O547 2.386 1_545 S
Gd515 O551 2.307 . S
Gd515 O554 2.353 . S
Gd515 O555 2.468 . S
Gd515 O556 2.427 . S
Gd515 O558 2.388 . S
Gd515 C579 2.805 . S
N516 C506 1.359 . S
N516 Gd515 2.570 . S
N516 C518 1.343 . S
C517 C505 1.422 . S
C517 C519 1.321 . S
C517 H525 0.931 1_545 S
C518 N516 1.343 . S
C518 C519 1.390 . S
C518 H520 0.931 . S
C519 C517 1.321 . S
C519 C518 1.390 . S
C519 H521 0.930 . S
H520 C518 0.931 . S
H521 C519 0.930 . S
H522 C545 0.932 . S
H523 C511 0.929 . S
H524 C546 0.930 . S
H525 C517 0.931 1_565 S
H526 C507 0.930 . S
H527 C536 0.929 . S
H528 C512 0.928 1_565 S
H529 C513 0.930 . S
H530 C568 0.930 . S
H531 C509 0.929 . S
H532 C537 0.931 . S
H533 C538 0.930 . S
N534 Gd514 2.622 1_545 S
N534 C535 1.369 . S
N534 C536 1.338 . S
C535 N534 1.369 . S
C535 C539 1.415 . S
C535 C542 1.422 . S
C536 H527 0.929 . S
C536 N534 1.338 . S
C536 C538 1.378 . S
C537 H532 0.931 . S
C537 C538 1.348 . S
C537 C539 1.413 . S
C538 H533 0.930 . S
C538 C536 1.378 . S
C538 C537 1.348 . S
C539 C535 1.415 . S
C539 C537 1.413 . S
C539 C569 1.437 . S
H540 C569 0.929 . S
N541 Gd514 2.570 1_545 S
N541 C542 1.359 . S
N541 C545 1.343 . S
C542 C535 1.422 . S
C542 N541 1.359 . S
C542 C544 1.421 . S
C543 C544 1.422 . S
C543 C546 1.321 . S
C543 H570 0.931 . S
C544 C542 1.421 . S
C544 C543 1.422 . S
C544 C568 1.417 . S
C545 H522 0.932 . S
C545 N541 1.343 . S
C545 C546 1.390 . S
C546 H524 0.930 . S
C546 C543 1.321 . S
C546 C545 1.390 . S
O547 Gd515 2.386 1_565 S
O547 C559 1.265 . S
O548 Gd514 2.353 . S
O548 C559 1.242 . S
O549 Gd514 2.468 . S
O549 C567 1.263 . S
O550 Gd514 2.427 . S
O550 C567 1.252 . S
O551 Gd515 2.307 . S
O551 C560 1.261 . S
O552 Gd514 2.388 1_545 S
O552 C560 1.252 . S
O553 Gd514 2.386 1_545 S
O553 C571 1.265 . S
O554 Gd515 2.353 . S
O554 C571 1.242 . S
O555 Gd515 2.468 . S
O555 C579 1.263 . S
O556 Gd515 2.427 . S
O556 C579 1.252 . S
O557 Gd514 2.307 1_545 S
O557 C572 1.261 . S
O558 Gd515 2.388 . S
O558 C572 1.252 . S
C559 O547 1.265 . S
C559 O548 1.242 . S
C560 O551 1.261 . S
C560 O552 1.252 . S
C561 C564 1.394 . S
C561 C566 1.370 . S
C561 C567 1.500 . S
C562 C565 1.383 . S
C562 C566 1.395 . S
C563 C564 1.396 . S
C563 C565 1.365 . S
C563 H580 0.929 . S
C564 C561 1.394 . S
C564 C563 1.396 . S
C564 H581 0.930 . S
C565 C562 1.383 . S
C565 C563 1.365 . S
C565 H582 0.931 . S
C566 C561 1.370 . S
C566 C562 1.395 . S
C566 H583 0.930 . S
C567 Gd514 2.805 . S
C567 O549 1.263 . S
C567 O550 1.252 . S
C567 C561 1.500 . S
C568 H530 0.930 . S
C568 C544 1.417 . S
C568 C569 1.329 . S
C569 C539 1.437 . S
C569 H540 0.929 . S
C569 C568 1.329 . S
H570 C543 0.931 . S
C571 O553 1.265 . S
C571 O554 1.242 . S
C572 O557 1.261 . S
C572 O558 1.252 . S
C573 C576 1.394 . S
C573 C578 1.370 . S
C573 C579 1.500 . S
C574 C577 1.383 . S
C574 C578 1.395 . S
C575 C576 1.396 . S
C575 C577 1.365 . S
C575 H584 0.929 . S
C576 C573 1.394 . S
C576 C575 1.396 . S
C576 H585 0.930 . S
C577 C574 1.383 . S
C577 C575 1.365 . S
C577 H586 0.931 . S
C578 C573 1.370 . S
C578 C574 1.395 . S
C578 H587 0.930 . S
C579 Gd515 2.805 . S
C579 O555 1.263 . S
C579 O556 1.252 . S
C579 C573 1.500 . S
H580 C563 0.929 . S
H581 C564 0.930 . S
H582 C565 0.931 . S
H583 C566 0.930 . S
H584 C575 0.929 . S
H585 C576 0.930 . S
H586 C577 0.931 . S
H587 C578 0.930 . S
C588 C590 1.422 . S
C588 C592 1.415 . S
C588 N594 1.369 . S
C589 C590 1.421 . S
C589 C591 1.417 . S
C589 C601 1.422 . S
C590 C588 1.422 . S
C590 C589 1.421 . S
C590 N600 1.359 . S
C591 C589 1.417 . S
C591 C593 1.329 . S
C591 H610 0.930 . S
C592 C588 1.415 . S
C592 C593 1.437 . S
C592 C596 1.413 . S
C593 C591 1.329 . S
C593 C592 1.437 . S
C593 H615 0.929 . S
N594 C588 1.369 . S
N594 C595 1.338 . S
N594 Gd599 2.622 . S
C595 N594 1.338 . S
C595 C597 1.378 . S
C595 H607 0.929 . S
C596 C592 1.413 . S
C596 C597 1.348 . S
C596 H612 0.931 . S
C597 C595 1.378 . S
C597 C596 1.348 . S
C597 H613 0.930 . S
Gd598 N618 2.622 . S
Gd598 N625 2.570 . S
Gd598 O632 2.353 . S
Gd598 O633 2.468 . S
Gd598 O634 2.427 . S
Gd598 O636 2.388 . S
Gd598 O637 2.386 . S
Gd598 O641 2.307 . S
Gd598 C651 2.805 . S
Gd599 N594 2.622 . S
Gd599 N600 2.570 . S
Gd599 O631 2.386 . S
Gd599 O635 2.307 . S
Gd599 O638 2.353 1_455 S
Gd599 O639 2.468 1_455 S
Gd599 O640 2.427 1_455 S
Gd599 O642 2.388 . S
Gd599 C663 2.805 1_455 S
N600 C590 1.359 . S
N600 Gd599 2.570 . S
N600 C602 1.343 . S
C601 C589 1.422 . S
C601 C603 1.321 . S
C601 H609 0.931 . S
C602 N600 1.343 . S
C602 C603 1.390 . S
C602 H604 0.931 . S
C603 C601 1.321 . S
C603 C602 1.390 . S
C603 H605 0.930 . S
H604 C602 0.931 . S
H605 C603 0.930 . S
H606 C629 0.931 . S
H607 C595 0.929 . S
H608 C630 0.930 . S
H609 C601 0.931 . S
H610 C591 0.930 . S
H611 C620 0.929 . S
H612 C596 0.931 . S
H613 C597 0.930 . S
H614 C652 0.930 . S
H615 C593 0.929 . S
H616 C621 0.931 . S
H617 C622 0.930 . S
N618 Gd598 2.622 . S
N618 C619 1.369 . S
N618 C620 1.338 . S
C619 N618 1.369 . S
C619 C623 1.415 . S
C619 C626 1.422 . S
C620 H611 0.929 . S
C620 N618 1.338 . S
C620 C622 1.378 . S
C621 H616 0.931 . S
C621 C622 1.348 . S
C621 C623 1.413 . S
C622 H617 0.930 . S
C622 C620 1.378 . S
C622 C621 1.348 . S
C623 C619 1.415 . S
C623 C621 1.413 . S
C623 C653 1.437 . S
H624 C653 0.929 . S
N625 Gd598 2.570 . S
N625 C626 1.359 . S
N625 C629 1.343 . S
C626 C619 1.422 . S
C626 N625 1.359 . S
C626 C628 1.421 . S
C627 C628 1.422 . S
C627 C630 1.321 . S
C627 H654 0.931 . S
C628 C626 1.421 . S
C628 C627 1.422 . S
C628 C652 1.417 . S
C629 H606 0.931 . S
C629 N625 1.343 . S
C629 C630 1.390 . S
C630 H608 0.930 . S
C630 C627 1.321 . S
C630 C629 1.390 . S
O631 Gd599 2.386 . S
O631 C643 1.265 . S
O632 Gd598 2.353 . S
O632 C643 1.242 . S
O633 Gd598 2.468 . S
O633 C651 1.263 . S
O634 Gd598 2.427 . S
O634 C651 1.252 . S
O635 Gd599 2.307 . S
O635 C644 1.261 . S
O636 Gd598 2.388 . S
O636 C644 1.252 . S
O637 Gd598 2.386 . S
O637 C655 1.265 1_455 S
O638 Gd599 2.353 1_655 S
O638 C655 1.242 . S
O639 Gd599 2.468 1_655 S
O639 C663 1.263 . S
O640 Gd599 2.427 1_655 S
O640 C663 1.252 . S
O641 Gd598 2.307 . S
O641 C656 1.261 . S
O642 Gd599 2.388 . S
O642 C656 1.252 . S
C643 O631 1.265 . S
C643 O632 1.242 . S
C644 O635 1.261 . S
C644 O636 1.252 . S
C645 C648 1.394 . S
C645 C650 1.370 . S
C645 C651 1.500 . S
C646 C649 1.383 . S
C646 C650 1.395 . S
C647 C648 1.396 . S
C647 C649 1.365 . S
C647 H664 0.929 . S
C648 C645 1.394 . S
C648 C647 1.396 . S
C648 H665 0.930 . S
C649 C646 1.383 . S
C649 C647 1.365 . S
C649 H666 0.931 . S
C650 C645 1.370 . S
C650 C646 1.395 . S
C650 H667 0.930 . S
C651 Gd598 2.805 . S
C651 O633 1.263 . S
C651 O634 1.252 . S
C651 C645 1.500 . S
C652 H614 0.930 . S
C652 C628 1.417 . S
C652 C653 1.329 . S
C653 C623 1.437 . S
C653 H624 0.929 . S
C653 C652 1.329 . S
H654 C627 0.931 . S
C655 O637 1.265 1_655 S
C655 O638 1.242 . S
C656 O641 1.261 . S
C656 O642 1.252 . S
C657 C660 1.394 . S
C657 C662 1.370 . S
C657 C663 1.500 . S
C658 C661 1.383 . S
C658 C662 1.395 . S
C659 C660 1.396 . S
C659 C661 1.365 . S
C659 H668 0.929 . S
C660 C657 1.394 . S
C660 C659 1.396 . S
C660 H669 0.930 . S
C661 C658 1.383 . S
C661 C659 1.365 . S
C661 H670 0.931 . S
C662 C657 1.370 . S
C662 C658 1.395 . S
C662 H671 0.930 . S
C663 Gd599 2.805 1_655 S
C663 O639 1.263 . S
C663 O640 1.252 . S
C663 C657 1.500 . S
H664 C647 0.929 . S
H665 C648 0.930 . S
H666 C649 0.931 . S
H667 C650 0.930 . S
H668 C659 0.929 . S
H669 C660 0.930 . S
H670 C661 0.931 . S
H671 C662 0.930 . S
C672 C674 1.422 . S
C672 C676 1.415 . S
C672 N678 1.369 . S
C673 C674 1.421 . S
C673 C675 1.417 . S
C673 C685 1.422 . S
C674 C672 1.422 . S
C674 C673 1.421 . S
C674 N684 1.359 . S
C675 C673 1.417 . S
C675 C677 1.329 . S
C675 H694 0.930 . S
C676 C672 1.415 . S
C676 C677 1.437 . S
C676 C680 1.413 . S
C677 C675 1.329 . S
C677 C676 1.437 . S
C677 H699 0.929 . S
N678 C672 1.369 . S
N678 C679 1.338 . S
N678 Gd683 2.622 . S
C679 N678 1.338 . S
C679 C681 1.378 . S
C679 H691 0.929 . S
C680 C676 1.413 . S
C680 C681 1.348 . S
C680 H696 0.931 . S
C681 C679 1.378 . S
C681 C680 1.348 . S
C681 H697 0.930 . S
Gd682 N702 2.622 . S
Gd682 N709 2.570 . S
Gd682 O716 2.353 . S
Gd682 O717 2.468 . S
Gd682 O718 2.427 . S
Gd682 O720 2.388 . S
Gd682 O721 2.386 . S
Gd682 O725 2.307 . S
Gd682 C735 2.805 . S
Gd683 N678 2.622 . S
Gd683 N684 2.570 . S
Gd683 O715 2.386 . S
Gd683 O719 2.307 . S
Gd683 O722 2.353 . S
Gd683 O723 2.468 . S
Gd683 O724 2.427 . S
Gd683 O726 2.388 . S
Gd683 C747 2.805 . S
N684 C674 1.359 . S
N684 Gd683 2.570 . S
N684 C686 1.343 . S
C685 C673 1.422 . S
C685 C687 1.321 . S
C685 H693 0.931 . S
C686 N684 1.343 . S
C686 C687 1.390 . S
C686 H688 0.931 . S
C687 C685 1.321 . S
C687 C686 1.390 . S
C687 H689 0.930 . S
H688 C686 0.931 . S
H689 C687 0.930 . S
H690 C713 0.931 . S
H691 C679 0.929 . S
H692 C714 0.930 . S
H693 C685 0.931 . S
H694 C675 0.930 . S
H695 C704 0.929 . S
H696 C680 0.931 . S
H697 C681 0.930 . S
H698 C736 0.930 . S
H699 C677 0.929 . S
H700 C705 0.931 . S
H701 C706 0.930 . S
N702 Gd682 2.622 . S
N702 C703 1.369 . S
N702 C704 1.338 . S
C703 N702 1.369 . S
C703 C707 1.415 . S
C703 C710 1.422 . S
C704 H695 0.929 . S
C704 N702 1.338 . S
C704 C706 1.378 . S
C705 H700 0.931 . S
C705 C706 1.348 . S
C705 C707 1.413 . S
C706 H701 0.930 . S
C706 C704 1.378 . S
C706 C705 1.348 . S
C707 C703 1.415 . S
C707 C705 1.413 . S
C707 C737 1.437 . S
H708 C737 0.929 . S
N709 Gd682 2.570 . S
N709 C710 1.359 . S
N709 C713 1.343 . S
C710 C703 1.422 . S
C710 N709 1.359 . S
C710 C712 1.421 . S
C711 C712 1.422 . S
C711 C714 1.321 . S
C711 H738 0.931 . S
C712 C710 1.421 . S
C712 C711 1.422 . S
C712 C736 1.417 . S
C713 H690 0.931 . S
C713 N709 1.343 . S
C713 C714 1.390 . S
C714 H692 0.930 . S
C714 C711 1.321 . S
C714 C713 1.390 . S
O715 Gd683 2.386 . S
O715 C727 1.265 . S
O716 Gd682 2.353 . S
O716 C727 1.242 . S
O717 Gd682 2.468 . S
O717 C735 1.263 . S
O718 Gd682 2.427 . S
O718 C735 1.252 . S
O719 Gd683 2.307 . S
O719 C728 1.261 . S
O720 Gd682 2.388 . S
O720 C728 1.252 . S
O721 Gd682 2.386 . S
O721 C739 1.265 . S
O722 Gd683 2.353 . S
O722 C739 1.242 . S
O723 Gd683 2.468 . S
O723 C747 1.263 . S
O724 Gd683 2.427 . S
O724 C747 1.252 . S
O725 Gd682 2.307 . S
O725 C740 1.261 . S
O726 Gd683 2.388 . S
O726 C740 1.252 . S
C727 O715 1.265 . S
C727 O716 1.242 . S
C728 O719 1.261 . S
C728 O720 1.252 . S
C729 C732 1.394 . S
C729 C734 1.370 . S
C729 C735 1.500 . S
C730 C733 1.383 . S
C730 C734 1.395 . S
C731 C732 1.396 . S
C731 C733 1.365 . S
C731 H748 0.929 . S
C732 C729 1.394 . S
C732 C731 1.396 . S
C732 H749 0.930 . S
C733 C730 1.383 . S
C733 C731 1.365 . S
C733 H750 0.931 . S
C734 C729 1.370 . S
C734 C730 1.395 . S
C734 H751 0.930 . S
C735 Gd682 2.805 . S
C735 O717 1.263 . S
C735 O718 1.252 . S
C735 C729 1.500 . S
C736 H698 0.930 . S
C736 C712 1.417 . S
C736 C737 1.329 . S
C737 C707 1.437 . S
C737 H708 0.929 . S
C737 C736 1.329 . S
H738 C711 0.931 . S
C739 O721 1.265 . S
C739 O722 1.242 . S
C740 O725 1.261 . S
C740 O726 1.252 . S
C741 C744 1.394 . S
C741 C746 1.370 . S
C741 C747 1.500 . S
C742 C745 1.383 . S
C742 C746 1.395 . S
C743 C744 1.396 . S
C743 C745 1.365 . S
C743 H752 0.929 . S
C744 C741 1.394 . S
C744 C743 1.396 . S
C744 H753 0.930 . S
C745 C742 1.383 . S
C745 C743 1.365 . S
C745 H754 0.931 . S
C746 C741 1.370 . S
C746 C742 1.395 . S
C746 H755 0.930 . S
C747 Gd683 2.805 . S
C747 O723 1.263 . S
C747 O724 1.252 . S
C747 C741 1.500 . S
H748 C731 0.929 . S
H749 C732 0.930 . S
H750 C733 0.931 . S
H751 C734 0.930 . S
H752 C743 0.929 . S
H753 C744 0.930 . S
H754 C745 0.931 . S
H755 C746 0.930 . S
C756 C758 1.422 . S
C756 C760 1.415 . S
C756 N762 1.369 . S
C757 C758 1.421 . S
C757 C759 1.417 1_455 S
C757 C769 1.422 . S
C758 C756 1.422 . S
C758 C757 1.421 . S
C758 N768 1.359 . S
C759 C757 1.417 1_655 S
C759 C761 1.329 . S
C759 H778 0.930 . S
C760 C756 1.415 . S
C760 C761 1.437 1_455 S
C760 C764 1.420 . S
C761 C759 1.329 . S
C761 C760 1.437 1_655 S
C761 H783 0.929 . S
N762 C756 1.369 . S
N762 C763 1.338 . S
N762 Gd767 2.622 . S
C763 N762 1.338 . S
C763 C765 1.378 . S
C763 H775 0.929 . S
C764 C760 1.420 . S
C764 C765 1.345 . S
C764 H780 0.928 1_455 S
C765 C763 1.378 . S
C765 C764 1.345 . S
C765 H781 0.930 . S
Gd766 N786 2.622 1_655 S
Gd766 N793 2.570 1_655 S
Gd766 O800 2.353 . S
Gd766 O801 2.468 . S
Gd766 O802 2.427 . S
Gd766 O804 2.388 1_655 S
Gd766 O805 2.386 1_655 S
Gd766 O809 2.307 1_655 S
Gd766 C819 2.805 . S
Gd767 N762 2.622 . S
Gd767 N768 2.570 . S
Gd767 O799 2.386 1_455 S
Gd767 O803 2.307 . S
Gd767 O806 2.353 . S
Gd767 O807 2.468 . S
Gd767 O808 2.427 . S
Gd767 O810 2.388 . S
Gd767 C831 2.805 . S
N768 C758 1.359 . S
N768 Gd767 2.570 . S
N768 C770 1.343 . S
C769 C757 1.422 . S
C769 C771 1.321 . S
C769 H777 0.931 1_455 S
C770 N768 1.343 . S
C770 C771 1.390 . S
C770 H772 0.931 . S
C771 C769 1.321 . S
C771 C770 1.390 . S
C771 H773 0.930 . S
H772 C770 0.931 . S
H773 C771 0.930 . S
H774 C797 0.932 . S
H775 C763 0.929 . S
H776 C798 0.930 . S
H777 C769 0.931 1_655 S
H778 C759 0.930 . S
H779 C788 0.929 . S
H780 C764 0.928 1_655 S
H781 C765 0.930 . S
H782 C820 0.930 . S
H783 C761 0.929 . S
H784 C789 0.931 . S
H785 C790 0.930 . S
N786 Gd766 2.622 1_455 S
N786 C787 1.369 . S
N786 C788 1.338 . S
C787 N786 1.369 . S
C787 C791 1.415 . S
C787 C794 1.422 . S
C788 H779 0.929 . S
C788 N786 1.338 . S
C788 C790 1.378 . S
C789 H784 0.931 . S
C789 C790 1.348 . S
C789 C791 1.413 . S
C790 H785 0.930 . S
C790 C788 1.378 . S
C790 C789 1.348 . S
C791 C787 1.415 . S
C791 C789 1.413 . S
C791 C821 1.437 . S
H792 C821 0.929 . S
N793 Gd766 2.570 1_455 S
N793 C794 1.359 . S
N793 C797 1.343 . S
C794 C787 1.422 . S
C794 N793 1.359 . S
C794 C796 1.421 . S
C795 C796 1.422 . S
C795 C798 1.321 . S
C795 H822 0.931 . S
C796 C794 1.421 . S
C796 C795 1.422 . S
C796 C820 1.417 . S
C797 H774 0.932 . S
C797 N793 1.343 . S
C797 C798 1.390 . S
C798 H776 0.930 . S
C798 C795 1.321 . S
C798 C797 1.390 . S
O799 Gd767 2.386 1_655 S
O799 C811 1.265 . S
O800 Gd766 2.353 . S
O800 C811 1.242 . S
O801 Gd766 2.468 . S
O801 C819 1.263 . S
O802 Gd766 2.427 . S
O802 C819 1.252 . S
O803 Gd767 2.307 . S
O803 C812 1.261 . S
O804 Gd766 2.388 1_455 S
O804 C812 1.252 . S
O805 Gd766 2.386 1_455 S
O805 C823 1.265 . S
O806 Gd767 2.353 . S
O806 C823 1.242 . S
O807 Gd767 2.468 . S
O807 C831 1.263 . S
O808 Gd767 2.427 . S
O808 C831 1.252 . S
O809 Gd766 2.307 1_455 S
O809 C824 1.261 . S
O810 Gd767 2.388 . S
O810 C824 1.252 . S
C811 O799 1.265 . S
C811 O800 1.242 . S
C812 O803 1.261 . S
C812 O804 1.252 . S
C813 C816 1.394 . S
C813 C818 1.370 . S
C813 C819 1.500 . S
C814 C817 1.383 . S
C814 C818 1.395 . S
C815 C816 1.396 . S
C815 C817 1.365 . S
C815 H832 0.929 . S
C816 C813 1.394 . S
C816 C815 1.396 . S
C816 H833 0.930 . S
C817 C814 1.383 . S
C817 C815 1.365 . S
C817 H834 0.931 . S
C818 C813 1.370 . S
C818 C814 1.395 . S
C818 H835 0.930 . S
C819 Gd766 2.805 . S
C819 O801 1.263 . S
C819 O802 1.252 . S
C819 C813 1.500 . S
C820 H782 0.930 . S
C820 C796 1.417 . S
C820 C821 1.329 . S
C821 C791 1.437 . S
C821 H792 0.929 . S
C821 C820 1.329 . S
H822 C795 0.931 . S
C823 O805 1.265 . S
C823 O806 1.242 . S
C824 O809 1.261 . S
C824 O810 1.252 . S
C825 C828 1.394 . S
C825 C830 1.370 . S
C825 C831 1.500 . S
C826 C829 1.383 . S
C826 C830 1.395 . S
C827 C828 1.396 . S
C827 C829 1.365 . S
C827 H836 0.929 . S
C828 C825 1.394 . S
C828 C827 1.396 . S
C828 H837 0.930 . S
C829 C826 1.383 . S
C829 C827 1.365 . S
C829 H838 0.931 . S
C830 C825 1.370 . S
C830 C826 1.395 . S
C830 H839 0.930 . S
C831 Gd767 2.805 . S
C831 O807 1.263 . S
C831 O808 1.252 . S
C831 C825 1.500 . S
H832 C815 0.929 . S
H833 C816 0.930 . S
H834 C817 0.931 . S
H835 C818 0.930 . S
H836 C827 0.929 . S
H837 C828 0.930 . S
H838 C829 0.931 . S
H839 C830 0.930 . S
C840 C842 1.422 . S
C840 C844 1.415 . S
C840 N846 1.369 . S
C841 C842 1.421 . S
C841 C843 1.417 . S
C841 C853 1.422 . S
C842 C840 1.422 . S
C842 C841 1.421 . S
C842 N852 1.359 . S
C843 C841 1.417 . S
C843 C845 1.329 . S
C843 H862 0.930 . S
C844 C840 1.415 . S
C844 C845 1.437 . S
C844 C848 1.413 . S
C845 C843 1.329 . S
C845 C844 1.437 . S
C845 H867 0.929 . S
N846 C840 1.369 . S
N846 C847 1.338 . S
N846 Gd851 2.622 . S
C847 N846 1.338 . S
C847 C849 1.378 . S
C847 H859 0.929 . S
C848 C844 1.413 . S
C848 C849 1.348 . S
C848 H864 0.931 . S
C849 C847 1.378 . S
C849 C848 1.348 . S
C849 H865 0.930 . S
Gd850 N870 2.622 . S
Gd850 N877 2.570 . S
Gd850 O884 2.353 . S
Gd850 O885 2.468 . S
Gd850 O886 2.427 . S
Gd850 O888 2.388 . S
Gd850 O889 2.386 . S
Gd850 O893 2.307 . S
Gd850 C903 2.805 . S
Gd851 N846 2.622 . S
Gd851 N852 2.570 . S
Gd851 O883 2.386 . S
Gd851 O887 2.307 . S
Gd851 O890 2.353 . S
Gd851 O891 2.468 . S
Gd851 O892 2.427 . S
Gd851 O894 2.388 . S
Gd851 C915 2.805 . S
N852 C842 1.359 . S
N852 Gd851 2.570 . S
N852 C854 1.343 . S
C853 C841 1.422 . S
C853 C855 1.321 . S
C853 H861 0.931 . S
C854 N852 1.343 . S
C854 C855 1.390 . S
C854 H856 0.931 . S
C855 C853 1.321 . S
C855 C854 1.390 . S
C855 H857 0.930 . S
H856 C854 0.931 . S
H857 C855 0.930 . S
H858 C881 0.931 . S
H859 C847 0.929 . S
H860 C882 0.930 . S
H861 C853 0.931 . S
H862 C843 0.930 . S
H863 C872 0.929 . S
H864 C848 0.931 . S
H865 C849 0.930 . S
H866 C904 0.930 . S
H867 C845 0.929 . S
H868 C873 0.931 . S
H869 C874 0.930 . S
N870 Gd850 2.622 . S
N870 C871 1.369 . S
N870 C872 1.338 . S
C871 N870 1.369 . S
C871 C875 1.415 . S
C871 C878 1.422 . S
C872 H863 0.929 . S
C872 N870 1.338 . S
C872 C874 1.378 . S
C873 H868 0.931 . S
C873 C874 1.348 . S
C873 C875 1.413 . S
C874 H869 0.930 . S
C874 C872 1.378 . S
C874 C873 1.348 . S
C875 C871 1.415 . S
C875 C873 1.413 . S
C875 C905 1.437 . S
H876 C905 0.929 . S
N877 Gd850 2.570 . S
N877 C878 1.359 . S
N877 C881 1.343 . S
C878 C871 1.422 . S
C878 N877 1.359 . S
C878 C880 1.421 . S
C879 C880 1.422 . S
C879 C882 1.321 . S
C879 H906 0.931 . S
C880 C878 1.421 . S
C880 C879 1.422 . S
C880 C904 1.417 . S
C881 H858 0.931 . S
C881 N877 1.343 . S
C881 C882 1.390 . S
C882 H860 0.930 . S
C882 C879 1.321 . S
C882 C881 1.390 . S
O883 Gd851 2.386 . S
O883 C895 1.265 . S
O884 Gd850 2.353 . S
O884 C895 1.242 . S
O885 Gd850 2.468 . S
O885 C903 1.263 . S
O886 Gd850 2.427 . S
O886 C903 1.252 . S
O887 Gd851 2.307 . S
O887 C896 1.261 . S
O888 Gd850 2.388 . S
O888 C896 1.252 . S
O889 Gd850 2.386 . S
O889 C907 1.265 . S
O890 Gd851 2.353 . S
O890 C907 1.242 . S
O891 Gd851 2.468 . S
O891 C915 1.263 . S
O892 Gd851 2.427 . S
O892 C915 1.252 . S
O893 Gd850 2.307 . S
O893 C908 1.261 . S
O894 Gd851 2.388 . S
O894 C908 1.252 . S
C895 O883 1.265 . S
C895 O884 1.242 . S
C896 O887 1.261 . S
C896 O888 1.252 . S
C897 C900 1.394 . S
C897 C902 1.370 . S
C897 C903 1.500 . S
C898 C901 1.383 . S
C898 C902 1.395 . S
C899 C900 1.396 . S
C899 C901 1.365 . S
C899 H916 0.929 . S
C900 C897 1.394 . S
C900 C899 1.396 . S
C900 H917 0.930 . S
C901 C898 1.383 . S
C901 C899 1.365 . S
C901 H918 0.931 . S
C902 C897 1.370 . S
C902 C898 1.395 . S
C902 H919 0.930 . S
C903 Gd850 2.805 . S
C903 O885 1.263 . S
C903 O886 1.252 . S
C903 C897 1.500 . S
C904 H866 0.930 . S
C904 C880 1.417 . S
C904 C905 1.329 . S
C905 C875 1.437 . S
C905 H876 0.929 . S
C905 C904 1.329 . S
H906 C879 0.931 . S
C907 O889 1.265 . S
C907 O890 1.242 . S
C908 O893 1.261 . S
C908 O894 1.252 . S
C909 C912 1.394 . S
C909 C914 1.370 . S
C909 C915 1.500 . S
C910 C913 1.383 . S
C910 C914 1.395 . S
C911 C912 1.396 . S
C911 C913 1.365 . S
C911 H920 0.929 . S
C912 C909 1.394 . S
C912 C911 1.396 . S
C912 H921 0.930 . S
C913 C910 1.383 . S
C913 C911 1.365 . S
C913 H922 0.931 . S
C914 C909 1.370 . S
C914 C910 1.395 . S
C914 H923 0.930 . S
C915 Gd851 2.805 . S
C915 O891 1.263 . S
C915 O892 1.252 . S
C915 C909 1.500 . S
H916 C899 0.929 . S
H917 C900 0.930 . S
H918 C901 0.931 . S
H919 C902 0.930 . S
H920 C911 0.929 . S
H921 C912 0.930 . S
H922 C913 0.931 . S
H923 C914 0.930 . S
C924 C926 1.422 . S
C924 C928 1.415 . S
C924 N930 1.369 . S
C925 C926 1.421 . S
C925 C927 1.417 . S
C925 C937 1.422 . S
C926 C924 1.422 . S
C926 C925 1.421 . S
C926 N936 1.359 . S
C927 C925 1.417 . S
C927 C929 1.329 . S
C927 H946 0.930 . S
C928 C924 1.415 . S
C928 C929 1.437 . S
C928 C932 1.413 . S
C929 C927 1.329 . S
C929 C928 1.437 . S
C929 H951 0.929 . S
N930 C924 1.369 . S
N930 C931 1.338 . S
N930 Gd935 2.622 . S
C931 N930 1.338 . S
C931 C933 1.378 . S
C931 H943 0.929 . S
C932 C928 1.413 . S
C932 C933 1.348 . S
C932 H948 0.931 . S
C933 C931 1.378 . S
C933 C932 1.348 . S
C933 H949 0.930 . S
Gd934 N954 2.622 . S
Gd934 N961 2.570 . S
Gd934 O968 2.353 . S
Gd934 O969 2.468 . S
Gd934 O970 2.427 . S
Gd934 O972 2.388 . S
Gd934 O973 2.386 . S
Gd934 O977 2.307 . S
Gd934 C987 2.805 . S
Gd935 N930 2.622 . S
Gd935 N936 2.570 . S
Gd935 O967 2.386 . S
Gd935 O971 2.307 . S
Gd935 O974 2.353 1_545 S
Gd935 O975 2.468 1_545 S
Gd935 O976 2.427 1_545 S
Gd935 O978 2.388 . S
Gd935 C999 2.805 1_545 S
N936 C926 1.359 . S
N936 Gd935 2.570 . S
N936 C938 1.343 . S
C937 C925 1.422 . S
C937 C939 1.321 . S
C937 H945 0.931 . S
C938 N936 1.343 . S
C938 C939 1.390 . S
C938 H940 0.931 . S
C939 C937 1.321 . S
C939 C938 1.390 . S
C939 H941 0.930 . S
H940 C938 0.931 . S
H941 C939 0.930 . S
H942 C965 0.931 . S
H943 C931 0.929 . S
H944 C966 0.930 . S
H945 C937 0.931 . S
H946 C927 0.930 . S
H947 C956 0.929 . S
H948 C932 0.931 . S
H949 C933 0.930 . S
H950 C988 0.930 . S
H951 C929 0.929 . S
H952 C957 0.931 . S
H953 C958 0.930 . S
N954 Gd934 2.622 . S
N954 C955 1.369 . S
N954 C956 1.338 . S
C955 N954 1.369 . S
C955 C959 1.415 . S
C955 C962 1.422 . S
C956 H947 0.929 . S
C956 N954 1.338 . S
C956 C958 1.378 . S
C957 H952 0.931 . S
C957 C958 1.348 . S
C957 C959 1.413 . S
C958 H953 0.930 . S
C958 C956 1.378 . S
C958 C957 1.348 . S
C959 C955 1.415 . S
C959 C957 1.413 . S
C959 C989 1.437 . S
H960 C989 0.929 . S
N961 Gd934 2.570 . S
N961 C962 1.359 . S
N961 C965 1.343 . S
C962 C955 1.422 . S
C962 N961 1.359 . S
C962 C964 1.421 . S
C963 C964 1.422 . S
C963 C966 1.321 . S
C963 H990 0.931 . S
C964 C962 1.421 . S
C964 C963 1.422 . S
C964 C988 1.417 . S
C965 H942 0.931 . S
C965 N961 1.343 . S
C965 C966 1.390 . S
C966 H944 0.930 . S
C966 C963 1.321 . S
C966 C965 1.390 . S
O967 Gd935 2.386 . S
O967 C979 1.265 . S
O968 Gd934 2.353 . S
O968 C979 1.242 . S
O969 Gd934 2.468 . S
O969 C987 1.263 . S
O970 Gd934 2.427 . S
O970 C987 1.252 . S
O971 Gd935 2.307 . S
O971 C980 1.261 . S
O972 Gd934 2.388 . S
O972 C980 1.252 . S
O973 Gd934 2.386 . S
O973 C991 1.265 1_545 S
O974 Gd935 2.353 1_565 S
O974 C991 1.242 . S
O975 Gd935 2.468 1_565 S
O975 C999 1.263 . S
O976 Gd935 2.427 1_565 S
O976 C999 1.252 . S
O977 Gd934 2.307 . S
O977 C992 1.261 . S
O978 Gd935 2.388 . S
O978 C992 1.252 . S
C979 O967 1.265 . S
C979 O968 1.242 . S
C980 O971 1.261 . S
C980 O972 1.252 . S
C981 C984 1.394 . S
C981 C986 1.370 . S
C981 C987 1.500 . S
C982 C985 1.383 . S
C982 C986 1.395 . S
C983 C984 1.396 . S
C983 C985 1.365 . S
C983 H1000 0.929 . S
C984 C981 1.394 . S
C984 C983 1.396 . S
C984 H1001 0.930 . S
C985 C982 1.383 . S
C985 C983 1.365 . S
C985 H1002 0.931 . S
C986 C981 1.370 . S
C986 C982 1.395 . S
C986 H1003 0.930 . S
C987 Gd934 2.805 . S
C987 O969 1.263 . S
C987 O970 1.252 . S
C987 C981 1.500 . S
C988 H950 0.930 . S
C988 C964 1.417 . S
C988 C989 1.329 . S
C989 C959 1.437 . S
C989 H960 0.929 . S
C989 C988 1.329 . S
H990 C963 0.931 . S
C991 O973 1.265 1_565 S
C991 O974 1.242 . S
C992 O977 1.261 . S
C992 O978 1.252 . S
C993 C996 1.394 . S
C993 C998 1.370 . S
C993 C999 1.500 . S
C994 C997 1.383 . S
C994 C998 1.395 . S
C995 C996 1.396 . S
C995 C997 1.365 . S
C995 H1004 0.929 . S
C996 C993 1.394 . S
C996 C995 1.396 . S
C996 H1005 0.930 . S
C997 C994 1.383 . S
C997 C995 1.365 . S
C997 H1006 0.931 . S
C998 C993 1.370 . S
C998 C994 1.395 . S
C998 H1007 0.930 . S
C999 Gd935 2.805 1_565 S
C999 O975 1.263 . S
C999 O976 1.252 . S
C999 C993 1.500 . S
H1000 C983 0.929 . S
H1001 C984 0.930 . S
H1002 C985 0.931 . S
H1003 C986 0.930 . S
H1004 C995 0.929 . S
H1005 C996 0.930 . S
H1006 C997 0.931 . S
H1007 C998 0.930 . S
C1008 C1010 1.422 . S
C1008 C1012 1.415 . S
C1008 N1014 1.369 . S
C1009 C1010 1.421 . S
C1009 C1011 1.417 1_455 S
C1009 C1021 1.422 . S
C1010 C1008 1.422 . S
C1010 C1009 1.421 . S
C1010 N1020 1.359 . S
C1011 C1009 1.417 1_655 S
C1011 C1013 1.329 1_655 S
C1011 H1030 0.930 . S
C1012 C1008 1.415 . S
C1012 C1013 1.437 . S
C1012 C1016 1.413 . S
C1013 C1011 1.329 1_455 S
C1013 C1012 1.437 . S
C1013 H1035 0.929 1_455 S
N1014 C1008 1.369 . S
N1014 C1015 1.338 . S
N1014 Gd1019 2.622 . S
C1015 N1014 1.338 . S
C1015 C1017 1.378 . S
C1015 H1027 0.929 . S
C1016 C1012 1.413 . S
C1016 C1017 1.348 . S
C1016 H1032 0.931 . S
C1017 C1015 1.378 . S
C1017 C1016 1.348 . S
C1017 H1033 0.930 . S
Gd1018 N1038 2.622 . S
Gd1018 N1045 2.570 . S
Gd1018 O1052 2.353 . S
Gd1018 O1053 2.468 . S
Gd1018 O1054 2.427 . S
Gd1018 O1056 2.388 . S
Gd1018 O1057 2.386 . S
Gd1018 O1061 2.307 . S
Gd1018 C1071 2.805 . S
Gd1019 N1014 2.622 . S
Gd1019 N1020 2.570 . S
Gd1019 O1051 2.386 . S
Gd1019 O1055 2.307 . S
Gd1019 O1058 2.353 . S
Gd1019 O1059 2.468 . S
Gd1019 O1060 2.427 . S
Gd1019 O1062 2.388 . S
Gd1019 C1083 2.805 . S
N1020 C1010 1.359 . S
N1020 Gd1019 2.570 . S
N1020 C1022 1.343 . S
C1021 C1009 1.422 . S
C1021 C1023 1.321 . S
C1021 H1029 0.931 1_455 S
C1022 N1020 1.343 . S
C1022 C1023 1.390 . S
C1022 H1024 0.931 . S
C1023 C1021 1.321 . S
C1023 C1022 1.390 . S
C1023 H1025 0.930 . S
H1024 C1022 0.931 . S
H1025 C1023 0.930 . S
H1026 C1049 0.931 . S
H1027 C1015 0.929 . S
H1028 C1050 0.930 . S
H1029 C1021 0.931 1_655 S
H1030 C1011 0.930 . S
H1031 C1040 0.929 . S
H1032 C1016 0.931 . S
H1033 C1017 0.930 . S
H1034 C1072 0.930 . S
H1035 C1013 0.929 1_655 S
H1036 C1041 0.931 . S
H1037 C1042 0.930 . S
N1038 Gd1018 2.622 . S
N1038 C1039 1.369 . S
N1038 C1040 1.338 . S
C1039 N1038 1.369 . S
C1039 C1043 1.415 . S
C1039 C1046 1.422 . S
C1040 H1031 0.929 . S
C1040 N1038 1.338 . S
C1040 C1042 1.378 . S
C1041 H1036 0.931 . S
C1041 C1042 1.348 . S
C1041 C1043 1.413 . S
C1042 H1037 0.930 . S
C1042 C1040 1.378 . S
C1042 C1041 1.348 . S
C1043 C1039 1.415 . S
C1043 C1041 1.413 . S
C1043 C1073 1.437 . S
H1044 C1073 0.929 . S
N1045 Gd1018 2.570 . S
N1045 C1046 1.359 . S
N1045 C1049 1.343 . S
C1046 C1039 1.422 . S
C1046 N1045 1.359 . S
C1046 C1048 1.421 . S
C1047 C1048 1.422 . S
C1047 C1050 1.321 . S
C1047 H1074 0.931 . S
C1048 C1046 1.421 . S
C1048 C1047 1.422 . S
C1048 C1072 1.417 . S
C1049 H1026 0.931 . S
C1049 N1045 1.343 . S
C1049 C1050 1.390 . S
C1050 H1028 0.930 . S
C1050 C1047 1.321 . S
C1050 C1049 1.390 . S
O1051 Gd1019 2.386 . S
O1051 C1063 1.265 . S
O1052 Gd1018 2.353 . S
O1052 C1063 1.242 . S
O1053 Gd1018 2.468 . S
O1053 C1071 1.263 . S
O1054 Gd1018 2.427 . S
O1054 C1071 1.252 . S
O1055 Gd1019 2.307 . S
O1055 C1064 1.261 . S
O1056 Gd1018 2.388 . S
O1056 C1064 1.252 . S
O1057 Gd1018 2.386 . S
O1057 C1075 1.265 . S
O1058 Gd1019 2.353 . S
O1058 C1075 1.242 . S
O1059 Gd1019 2.468 . S
O1059 C1083 1.263 . S
O1060 Gd1019 2.427 . S
O1060 C1083 1.252 . S
O1061 Gd1018 2.307 . S
O1061 C1076 1.261 . S
O1062 Gd1019 2.388 . S
O1062 C1076 1.252 . S
C1063 O1051 1.265 . S
C1063 O1052 1.242 . S
C1064 O1055 1.261 . S
C1064 O1056 1.252 . S
C1065 C1068 1.394 . S
C1065 C1070 1.370 . S
C1065 C1071 1.500 . S
C1066 C1069 1.383 . S
C1066 C1070 1.395 . S
C1067 C1068 1.396 . S
C1067 C1069 1.365 . S
C1067 H1084 0.929 . S
C1068 C1065 1.394 . S
C1068 C1067 1.396 . S
C1068 H1085 0.930 . S
C1069 C1066 1.383 . S
C1069 C1067 1.365 . S
C1069 H1086 0.931 . S
C1070 C1065 1.370 . S
C1070 C1066 1.395 . S
C1070 H1087 0.930 . S
C1071 Gd1018 2.805 . S
C1071 O1053 1.263 . S
C1071 O1054 1.252 . S
C1071 C1065 1.500 . S
C1072 H1034 0.930 . S
C1072 C1048 1.417 . S
C1072 C1073 1.329 . S
C1073 C1043 1.437 . S
C1073 H1044 0.929 . S
C1073 C1072 1.329 . S
H1074 C1047 0.931 . S
C1075 O1057 1.265 . S
C1075 O1058 1.242 . S
C1076 O1061 1.261 . S
C1076 O1062 1.252 . S
C1077 C1080 1.394 . S
C1077 C1082 1.370 . S
C1077 C1083 1.500 . S
C1078 C1081 1.383 . S
C1078 C1082 1.395 . S
C1079 C1080 1.396 . S
C1079 C1081 1.365 . S
C1079 H1088 0.929 . S
C1080 C1077 1.394 . S
C1080 C1079 1.396 . S
C1080 H1089 0.930 . S
C1081 C1078 1.383 . S
C1081 C1079 1.365 . S
C1081 H1090 0.931 . S
C1082 C1077 1.370 . S
C1082 C1078 1.395 . S
C1082 H1091 0.930 . S
C1083 Gd1019 2.805 . S
C1083 O1059 1.263 . S
C1083 O1060 1.252 . S
C1083 C1077 1.500 . S
H1084 C1067 0.929 . S
H1085 C1068 0.930 . S
H1086 C1069 0.931 . S
H1087 C1070 0.930 . S
H1088 C1079 0.929 . S
H1089 C1080 0.930 . S
H1090 C1081 0.931 . S
H1091 C1082 0.930 . S
C1092 C1094 1.422 . S
C1092 C1096 1.415 . S
C1092 N1098 1.369 . S
C1093 C1094 1.421 . S
C1093 C1095 1.417 . S
C1093 C1105 1.422 . S
C1094 C1092 1.422 . S
C1094 C1093 1.421 . S
C1094 N1104 1.359 . S
C1095 C1093 1.417 . S
C1095 C1097 1.329 . S
C1095 H1114 0.930 . S
C1096 C1092 1.415 . S
C1096 C1097 1.437 . S
C1096 C1100 1.413 . S
C1097 C1095 1.329 . S
C1097 C1096 1.437 . S
C1097 H1119 0.929 . S
N1098 C1092 1.369 . S
N1098 C1099 1.338 . S
N1098 Gd1103 2.622 . S
C1099 N1098 1.338 . S
C1099 C1101 1.378 . S
C1099 H1111 0.929 . S
C1100 C1096 1.413 . S
C1100 C1101 1.348 . S
C1100 H1116 0.931 . S
C1101 C1099 1.378 . S
C1101 C1100 1.348 . S
C1101 H1117 0.930 . S
Gd1102 N1122 2.622 . S
Gd1102 N1129 2.570 . S
Gd1102 O1136 2.353 . S
Gd1102 O1137 2.468 . S
Gd1102 O1138 2.427 . S
Gd1102 O1140 2.388 . S
Gd1102 O1141 2.386 . S
Gd1102 O1145 2.307 . S
Gd1102 C1155 2.805 . S
Gd1103 N1098 2.622 . S
Gd1103 N1104 2.570 . S
Gd1103 O1135 2.386 . S
Gd1103 O1139 2.307 . S
Gd1103 O1142 2.353 . S
Gd1103 O1143 2.468 . S
Gd1103 O1144 2.427 . S
Gd1103 O1146 2.388 . S
Gd1103 C1167 2.805 . S
N1104 C1094 1.359 . S
N1104 Gd1103 2.570 . S
N1104 C1106 1.343 . S
C1105 C1093 1.422 . S
C1105 C1107 1.321 . S
C1105 H1113 0.931 . S
C1106 N1104 1.343 . S
C1106 C1107 1.390 . S
C1106 H1108 0.931 . S
C1107 C1105 1.321 . S
C1107 C1106 1.390 . S
C1107 H1109 0.930 . S
H1108 C1106 0.931 . S
H1109 C1107 0.930 . S
H1110 C1133 0.931 . S
H1111 C1099 0.929 . S
H1112 C1134 0.930 . S
H1113 C1105 0.931 . S
H1114 C1095 0.930 . S
H1115 C1124 0.929 . S
H1116 C1100 0.931 . S
H1117 C1101 0.930 . S
H1118 C1156 0.930 1_545 S
H1119 C1097 0.929 . S
H1120 C1125 0.931 . S
H1121 C1126 0.930 . S
N1122 Gd1102 2.622 . S
N1122 C1123 1.369 . S
N1122 C1124 1.338 . S
C1123 N1122 1.369 . S
C1123 C1127 1.415 . S
C1123 C1130 1.422 . S
C1124 H1115 0.929 . S
C1124 N1122 1.338 . S
C1124 C1126 1.378 . S
C1125 H1120 0.931 . S
C1125 C1126 1.348 . S
C1125 C1127 1.413 . S
C1126 H1121 0.930 . S
C1126 C1124 1.378 . S
C1126 C1125 1.348 . S
C1127 C1123 1.415 . S
C1127 C1125 1.413 . S
C1127 C1157 1.437 . S
H1128 C1157 0.929 . S
N1129 Gd1102 2.570 . S
N1129 C1130 1.359 . S
N1129 C1133 1.343 . S
C1130 C1123 1.422 . S
C1130 N1129 1.359 . S
C1130 C1132 1.421 . S
C1131 C1132 1.422 . S
C1131 C1134 1.321 . S
C1131 H1158 0.931 1_565 S
C1132 C1130 1.421 . S
C1132 C1131 1.422 . S
C1132 C1156 1.417 . S
C1133 H1110 0.931 . S
C1133 N1129 1.343 . S
C1133 C1134 1.390 . S
C1134 H1112 0.930 . S
C1134 C1131 1.321 . S
C1134 C1133 1.390 . S
O1135 Gd1103 2.386 . S
O1135 C1147 1.265 . S
O1136 Gd1102 2.353 . S
O1136 C1147 1.242 . S
O1137 Gd1102 2.468 . S
O1137 C1155 1.263 . S
O1138 Gd1102 2.427 . S
O1138 C1155 1.252 . S
O1139 Gd1103 2.307 . S
O1139 C1148 1.261 . S
O1140 Gd1102 2.388 . S
O1140 C1148 1.252 . S
O1141 Gd1102 2.386 . S
O1141 C1159 1.265 . S
O1142 Gd1103 2.353 . S
O1142 C1159 1.242 . S
O1143 Gd1103 2.468 . S
O1143 C1167 1.263 . S
O1144 Gd1103 2.427 . S
O1144 C1167 1.252 . S
O1145 Gd1102 2.307 . S
O1145 C1160 1.261 . S
O1146 Gd1103 2.388 . S
O1146 C1160 1.252 . S
C1147 O1135 1.265 . S
C1147 O1136 1.242 . S
C1148 O1139 1.261 . S
C1148 O1140 1.252 . S
C1149 C1152 1.394 1_565 S
C1149 C1154 1.370 1_565 S
C1149 C1155 1.500 . S
C1150 C1153 1.383 . S
C1150 C1154 1.395 . S
C1151 C1152 1.396 . S
C1151 C1153 1.365 . S
C1151 H1168 0.929 . S
C1152 C1149 1.394 1_545 S
C1152 C1151 1.396 . S
C1152 H1169 0.930 1_545 S
C1153 C1150 1.383 . S
C1153 C1151 1.365 . S
C1153 H1170 0.931 . S
C1154 C1149 1.370 1_545 S
C1154 C1150 1.395 . S
C1154 H1171 0.930 . S
C1155 Gd1102 2.805 . S
C1155 O1137 1.263 . S
C1155 O1138 1.252 . S
C1155 C1149 1.500 . S
C1156 H1118 0.930 1_565 S
C1156 C1132 1.417 . S
C1156 C1157 1.329 . S
C1157 C1127 1.437 . S
C1157 H1128 0.929 . S
C1157 C1156 1.329 . S
H1158 C1131 0.931 1_545 S
C1159 O1141 1.265 . S
C1159 O1142 1.242 . S
C1160 O1145 1.261 . S
C1160 O1146 1.252 . S
C1161 C1164 1.394 . S
C1161 C1166 1.370 . S
C1161 C1167 1.500 . S
C1162 C1165 1.383 . S
C1162 C1166 1.395 . S
C1163 C1164 1.396 . S
C1163 C1165 1.365 . S
C1163 H1172 0.929 . S
C1164 C1161 1.394 . S
C1164 C1163 1.396 . S
C1164 H1173 0.930 . S
C1165 C1162 1.383 . S
C1165 C1163 1.365 . S
C1165 H1174 0.931 . S
C1166 C1161 1.370 . S
C1166 C1162 1.395 . S
C1166 H1175 0.930 . S
C1167 Gd1103 2.805 . S
C1167 O1143 1.263 . S
C1167 O1144 1.252 . S
C1167 C1161 1.500 . S
H1168 C1151 0.929 . S
H1169 C1152 0.930 1_565 S
H1170 C1153 0.931 . S
H1171 C1154 0.930 . S
H1172 C1163 0.929 . S
H1173 C1164 0.930 . S
H1174 C1165 0.931 . S
H1175 C1166 0.930 . S
C1176 C1178 1.422 1_565 S
C1176 C1180 1.415 1_565 S
C1176 N1182 1.369 . S
C1177 C1178 1.421 . S
C1177 C1179 1.417 . S
C1177 C1189 1.422 . S
C1178 C1176 1.422 1_545 S
C1178 C1177 1.421 . S
C1178 N1188 1.359 1_545 S
C1179 C1177 1.417 . S
C1179 C1181 1.329 . S
C1179 H1198 0.930 . S
C1180 C1176 1.415 1_545 S
C1180 C1181 1.437 . S
C1180 C1184 1.413 . S
C1181 C1179 1.329 . S
C1181 C1180 1.437 . S
C1181 H1203 0.929 . S
N1182 C1176 1.369 . S
N1182 C1183 1.338 . S
N1182 Gd1187 2.622 . S
C1183 N1182 1.338 . S
C1183 C1185 1.378 . S
C1183 H1195 0.929 . S
C1184 C1180 1.413 . S
C1184 C1185 1.348 1_545 S
C1184 H1200 0.931 . S
C1185 C1183 1.378 . S
C1185 C1184 1.348 1_565 S
C1185 H1201 0.930 . S
Gd1186 N1206 2.622 . S
Gd1186 N1213 2.570 . S
Gd1186 O1220 2.353 . S
Gd1186 O1221 2.468 . S
Gd1186 O1222 2.427 . S
Gd1186 O1224 2.388 . S
Gd1186 O1225 2.386 . S
Gd1186 O1229 2.307 . S
Gd1186 C1239 2.805 . S
Gd1187 N1182 2.622 . S
Gd1187 N1188 2.570 . S
Gd1187 O1219 2.386 . S
Gd1187 O1223 2.307 . S
Gd1187 O1226 2.353 . S
Gd1187 O1227 2.468 . S
Gd1187 O1228 2.427 . S
Gd1187 O1230 2.388 . S
Gd1187 C1251 2.805 . S
N1188 C1178 1.359 1_565 S
N1188 Gd1187 2.570 . S
N1188 C1190 1.343 . S
C1189 C1177 1.422 . S
C1189 C1191 1.321 . S
C1189 H1197 0.931 . S
C1190 N1188 1.343 . S
C1190 C1191 1.390 1_565 S
C1190 H1192 0.931 . S
C1191 C1189 1.321 . S
C1191 C1190 1.390 1_545 S
C1191 H1193 0.930 . S
H1192 C1190 0.931 . S
H1193 C1191 0.930 . S
H1194 C1217 0.931 . S
H1195 C1183 0.929 . S
H1196 C1218 0.930 . S
H1197 C1189 0.931 . S
H1198 C1179 0.930 . S
H1199 C1208 0.929 . S
H1200 C1184 0.931 . S
H1201 C1185 0.930 . S
H1202 C1240 0.930 . S
H1203 C1181 0.929 . S
H1204 C1209 0.931 . S
H1205 C1210 0.930 . S
N1206 Gd1186 2.622 . S
N1206 C1207 1.369 . S
N1206 C1208 1.338 . S
C1207 N1206 1.369 . S
C1207 C1211 1.415 . S
C1207 C1214 1.422 . S
C1208 H1199 0.929 . S
C1208 N1206 1.338 . S
C1208 C1210 1.378 . S
C1209 H1204 0.931 . S
C1209 C1210 1.348 . S
C1209 C1211 1.413 . S
C1210 H1205 0.930 . S
C1210 C1208 1.378 . S
C1210 C1209 1.348 . S
C1211 C1207 1.415 . S
C1211 C1209 1.413 . S
C1211 C1241 1.437 . S
H1212 C1241 0.929 . S
N1213 Gd1186 2.570 . S
N1213 C1214 1.359 . S
N1213 C1217 1.343 . S
C1214 C1207 1.422 . S
C1214 N1213 1.359 . S
C1214 C1216 1.421 . S
C1215 C1216 1.422 . S
C1215 C1218 1.321 . S
C1215 H1242 0.931 . S
C1216 C1214 1.421 . S
C1216 C1215 1.422 . S
C1216 C1240 1.417 . S
C1217 H1194 0.931 . S
C1217 N1213 1.343 . S
C1217 C1218 1.390 . S
C1218 H1196 0.930 . S
C1218 C1215 1.321 . S
C1218 C1217 1.390 . S
O1219 Gd1187 2.386 . S
O1219 C1231 1.265 . S
O1220 Gd1186 2.353 . S
O1220 C1231 1.242 . S
O1221 Gd1186 2.468 . S
O1221 C1239 1.263 . S
O1222 Gd1186 2.427 . S
O1222 C1239 1.252 . S
O1223 Gd1187 2.307 . S
O1223 C1232 1.261 . S
O1224 Gd1186 2.388 . S
O1224 C1232 1.252 . S
O1225 Gd1186 2.386 . S
O1225 C1243 1.265 . S
O1226 Gd1187 2.353 . S
O1226 C1243 1.242 . S
O1227 Gd1187 2.468 . S
O1227 C1251 1.263 . S
O1228 Gd1187 2.427 . S
O1228 C1251 1.252 . S
O1229 Gd1186 2.307 . S
O1229 C1244 1.261 . S
O1230 Gd1187 2.388 . S
O1230 C1244 1.252 . S
C1231 O1219 1.265 . S
C1231 O1220 1.242 . S
C1232 O1223 1.261 . S
C1232 O1224 1.252 . S
C1233 C1236 1.394 . S
C1233 C1238 1.370 . S
C1233 C1239 1.500 . S
C1234 C1237 1.383 . S
C1234 C1238 1.395 . S
C1235 C1236 1.396 . S
C1235 C1237 1.365 . S
C1235 H1252 0.929 . S
C1236 C1233 1.394 . S
C1236 C1235 1.396 . S
C1236 H1253 0.930 . S
C1237 C1234 1.383 . S
C1237 C1235 1.365 . S
C1237 H1254 0.931 1_455 S
C1238 C1233 1.370 . S
C1238 C1234 1.395 . S
C1238 H1255 0.930 . S
C1239 Gd1186 2.805 . S
C1239 O1221 1.263 . S
C1239 O1222 1.252 . S
C1239 C1233 1.500 . S
C1240 H1202 0.930 . S
C1240 C1216 1.417 . S
C1240 C1241 1.329 . S
C1241 C1211 1.437 . S
C1241 H1212 0.929 . S
C1241 C1240 1.329 . S
H1242 C1215 0.931 . S
C1243 O1225 1.265 . S
C1243 O1226 1.242 . S
C1244 O1229 1.261 . S
C1244 O1230 1.252 . S
C1245 C1248 1.394 . S
C1245 C1250 1.370 . S
C1245 C1251 1.500 . S
C1246 C1249 1.383 . S
C1246 C1250 1.395 . S
C1247 C1248 1.396 . S
C1247 C1249 1.365 . S
C1247 H1256 0.929 . S
C1248 C1245 1.394 . S
C1248 C1247 1.396 . S
C1248 H1257 0.930 . S
C1249 C1246 1.383 . S
C1249 C1247 1.365 . S
C1249 H1258 0.931 . S
C1250 C1245 1.370 . S
C1250 C1246 1.395 . S
C1250 H1259 0.930 . S
C1251 Gd1187 2.805 . S
C1251 O1227 1.263 . S
C1251 O1228 1.252 . S
C1251 C1245 1.500 . S
H1252 C1235 0.929 . S
H1253 C1236 0.930 . S
H1254 C1237 0.931 1_655 S
H1255 C1238 0.930 . S
H1256 C1247 0.929 . S
H1257 C1248 0.930 . S
H1258 C1249 0.931 . S
H1259 C1250 0.930 . S
C1260 C1262 1.422 . S
C1260 C1264 1.415 . S
C1260 N1266 1.369 . S
C1261 C1262 1.421 . S
C1261 C1263 1.417 . S
C1261 C1273 1.422 . S
C1262 C1260 1.422 . S
C1262 C1261 1.421 . S
C1262 N1272 1.359 . S
C1263 C1261 1.417 . S
C1263 C1265 1.329 . S
C1263 H1282 0.930 . S
C1264 C1260 1.415 . S
C1264 C1265 1.437 . S
C1264 C1268 1.413 . S
C1265 C1263 1.329 . S
C1265 C1264 1.437 . S
C1265 H1287 0.929 . S
N1266 C1260 1.369 . S
N1266 C1267 1.338 . S
N1266 Gd1271 2.622 . S
C1267 N1266 1.338 . S
C1267 C1269 1.378 . S
C1267 H1279 0.929 . S
C1268 C1264 1.413 . S
C1268 C1269 1.348 . S
C1268 H1284 0.931 . S
C1269 C1267 1.378 . S
C1269 C1268 1.348 . S
C1269 H1285 0.930 . S
Gd1270 N1290 2.622 . S
Gd1270 N1297 2.570 . S
Gd1270 O1304 2.353 . S
Gd1270 O1305 2.468 . S
Gd1270 O1306 2.427 . S
Gd1270 O1308 2.388 . S
Gd1270 O1309 2.386 . S
Gd1270 O1313 2.307 . S
Gd1270 C1323 2.805 . S
Gd1271 N1266 2.622 . S
Gd1271 N1272 2.570 . S
Gd1271 O1303 2.386 . S
Gd1271 O1307 2.307 . S
Gd1271 O1310 2.353 . S
Gd1271 O1311 2.468 . S
Gd1271 O1312 2.427 . S
Gd1271 O1314 2.388 . S
Gd1271 C1335 2.805 . S
N1272 C1262 1.359 . S
N1272 Gd1271 2.570 . S
N1272 C1274 1.343 . S
C1273 C1261 1.422 . S
C1273 C1275 1.321 . S
C1273 H1281 0.931 . S
C1274 N1272 1.343 . S
C1274 C1275 1.390 . S
C1274 H1276 0.931 . S
C1275 C1273 1.321 . S
C1275 C1274 1.390 . S
C1275 H1277 0.930 . S
H1276 C1274 0.931 . S
H1277 C1275 0.930 . S
H1278 C1301 0.931 . S
H1279 C1267 0.929 . S
H1280 C1302 0.923 1_545 S
H1281 C1273 0.931 . S
H1282 C1263 0.930 . S
H1283 C1292 0.929 . S
H1284 C1268 0.931 . S
H1285 C1269 0.930 . S
H1286 C1324 0.930 . S
H1287 C1265 0.929 . S
H1288 C1293 0.931 . S
H1289 C1294 0.930 . S
N1290 Gd1270 2.622 . S
N1290 C1291 1.369 . S
N1290 C1292 1.338 . S
C1291 N1290 1.369 . S
C1291 C1295 1.415 . S
C1291 C1298 1.422 . S
C1292 H1283 0.929 . S
C1292 N1290 1.338 . S
C1292 C1294 1.378 . S
C1293 H1288 0.931 . S
C1293 C1294 1.348 . S
C1293 C1295 1.413 . S
C1294 H1289 0.930 . S
C1294 C1292 1.378 . S
C1294 C1293 1.348 . S
C1295 C1291 1.415 . S
C1295 C1293 1.413 . S
C1295 C1325 1.437 1_565 S
H1296 C1325 0.929 . S
N1297 Gd1270 2.570 . S
N1297 C1298 1.359 . S
N1297 C1301 1.343 . S
C1298 C1291 1.422 . S
C1298 N1297 1.359 . S
C1298 C1300 1.421 1_565 S
C1299 C1300 1.422 . S
C1299 C1302 1.309 1_545 S
C1299 H1326 0.931 . S
C1300 C1298 1.421 1_545 S
C1300 C1299 1.422 . S
C1300 C1324 1.417 . S
C1301 H1278 0.931 . S
C1301 N1297 1.343 . S
C1301 C1302 1.410 . S
C1302 H1280 0.923 1_565 S
C1302 C1299 1.309 1_565 S
C1302 C1301 1.410 . S
O1303 Gd1271 2.386 . S
O1303 C1315 1.265 . S
O1304 Gd1270 2.353 . S
O1304 C1315 1.242 . S
O1305 Gd1270 2.468 . S
O1305 C1323 1.263 . S
O1306 Gd1270 2.427 . S
O1306 C1323 1.252 . S
O1307 Gd1271 2.307 . S
O1307 C1316 1.261 . S
O1308 Gd1270 2.388 . S
O1308 C1316 1.252 . S
O1309 Gd1270 2.386 . S
O1309 C1327 1.265 . S
O1310 Gd1271 2.353 . S
O1310 C1327 1.242 . S
O1311 Gd1271 2.468 . S
O1311 C1335 1.263 . S
O1312 Gd1271 2.427 . S
O1312 C1335 1.252 . S
O1313 Gd1270 2.307 . S
O1313 C1328 1.261 . S
O1314 Gd1271 2.388 . S
O1314 C1328 1.252 . S
C1315 O1303 1.265 . S
C1315 O1304 1.242 . S
C1316 O1307 1.261 . S
C1316 O1308 1.252 . S
C1317 C1320 1.394 . S
C1317 C1322 1.370 . S
C1317 C1323 1.500 . S
C1318 C1321 1.383 . S
C1318 C1322 1.395 . S
C1319 C1320 1.396 . S
C1319 C1321 1.365 . S
C1319 H1336 0.929 . S
C1320 C1317 1.394 . S
C1320 C1319 1.396 . S
C1320 H1337 0.930 . S
C1321 C1318 1.383 . S
C1321 C1319 1.365 . S
C1321 H1338 0.931 . S
C1322 C1317 1.370 . S
C1322 C1318 1.395 . S
C1322 H1339 0.930 . S
C1323 Gd1270 2.805 . S
C1323 O1305 1.263 . S
C1323 O1306 1.252 . S
C1323 C1317 1.500 . S
C1324 H1286 0.930 . S
C1324 C1300 1.417 . S
C1324 C1325 1.329 . S
C1325 C1295 1.437 1_545 S
C1325 H1296 0.929 . S
C1325 C1324 1.329 . S
H1326 C1299 0.931 . S
C1327 O1309 1.265 . S
C1327 O1310 1.242 . S
C1328 O1313 1.261 . S
C1328 O1314 1.252 . S
C1329 C1332 1.394 . S
C1329 C1334 1.370 . S
C1329 C1335 1.500 . S
C1330 C1333 1.383 . S
C1330 C1334 1.395 . S
C1331 C1332 1.396 . S
C1331 C1333 1.365 . S
C1331 H1340 0.929 . S
C1332 C1329 1.394 . S
C1332 C1331 1.396 . S
C1332 H1341 0.930 . S
C1333 C1330 1.383 . S
C1333 C1331 1.365 . S
C1333 H1342 0.931 . S
C1334 C1329 1.370 . S
C1334 C1330 1.395 . S
C1334 H1343 0.930 . S
C1335 Gd1271 2.805 . S
C1335 O1311 1.263 . S
C1335 O1312 1.252 . S
C1335 C1329 1.500 . S
H1336 C1319 0.929 . S
H1337 C1320 0.930 . S
H1338 C1321 0.931 . S
H1339 C1322 0.930 . S
H1340 C1331 0.929 . S
H1341 C1332 0.930 . S
H1342 C1333 0.931 . S
H1343 C1334 0.930 . S
C1344 C1346 1.421 1_565 S
C1344 C1348 1.415 1_565 S
C1344 N1350 1.370 . S
C1345 C1346 1.421 . S
C1345 C1347 1.417 . S
C1345 C1357 1.422 . S
C1346 C1344 1.421 1_545 S
C1346 C1345 1.421 . S
C1346 N1356 1.359 . S
C1347 C1345 1.417 . S
C1347 C1349 1.329 . S
C1347 H1366 0.930 . S
C1348 C1344 1.415 1_545 S
C1348 C1349 1.437 . S
C1348 C1352 1.413 1_545 S
C1349 C1347 1.329 . S
C1349 C1348 1.437 . S
C1349 H1371 0.929 . S
N1350 C1344 1.370 . S
N1350 C1351 1.338 . S
N1350 Gd1355 2.622 . S
C1351 N1350 1.338 . S
C1351 C1353 1.378 . S
C1351 H1363 0.929 . S
C1352 C1348 1.413 1_565 S
C1352 C1353 1.348 . S
C1352 H1368 0.931 1_565 S
C1353 C1351 1.378 . S
C1353 C1352 1.348 . S
C1353 H1369 0.930 . S
Gd1354 N1374 2.622 . S
Gd1354 N1381 2.570 . S
Gd1354 O1388 2.353 . S
Gd1354 O1389 2.468 . S
Gd1354 O1390 2.427 . S
Gd1354 O1392 2.388 . S
Gd1354 O1393 2.386 . S
Gd1354 O1397 2.307 . S
Gd1354 C1407 2.805 . S
Gd1355 N1350 2.622 . S
Gd1355 N1356 2.570 1_565 S
Gd1355 O1387 2.386 . S
Gd1355 O1391 2.307 . S
Gd1355 O1394 2.353 . S
Gd1355 O1395 2.468 1_565 S
Gd1355 O1396 2.427 . S
Gd1355 O1398 2.388 . S
Gd1355 C1419 2.805 1_565 S
N1356 C1346 1.359 . S
N1356 Gd1355 2.570 1_545 S
N1356 C1358 1.343 . S
C1357 C1345 1.422 . S
C1357 C1359 1.321 . S
C1357 H1365 0.931 . S
C1358 N1356 1.343 . S
C1358 C1359 1.390 . S
C1358 H1360 0.931 . S
C1359 C1357 1.321 . S
C1359 C1358 1.390 . S
C1359 H1361 0.930 . S
H1360 C1358 0.931 . S
H1361 C1359 0.930 . S
H1362 C1385 0.931 . S
H1363 C1351 0.929 . S
H1364 C1386 0.930 . S
H1365 C1357 0.931 . S
H1366 C1347 0.930 . S
H1367 C1376 0.929 . S
H1368 C1352 0.931 1_545 S
H1369 C1353 0.930 . S
H1370 C1408 0.930 . S
H1371 C1349 0.929 . S
H1372 C1377 0.931 . S
H1373 C1378 0.930 . S
N1374 Gd1354 2.622 . S
N1374 C1375 1.369 . S
N1374 C1376 1.338 . S
C1375 N1374 1.369 . S
C1375 C1379 1.415 . S
C1375 C1382 1.422 . S
C1376 H1367 0.929 . S
C1376 N1374 1.338 . S
C1376 C1378 1.378 . S
C1377 H1372 0.931 . S
C1377 C1378 1.348 . S
C1377 C1379 1.413 . S
C1378 H1373 0.930 . S
C1378 C1376 1.378 . S
C1378 C1377 1.348 . S
C1379 C1375 1.415 . S
C1379 C1377 1.413 . S
C1379 C1409 1.437 . S
H1380 C1409 0.929 . S
N1381 Gd1354 2.570 . S
N1381 C1382 1.359 . S
N1381 C1385 1.343 . S
C1382 C1375 1.422 . S
C1382 N1381 1.359 . S
C1382 C1384 1.421 . S
C1383 C1384 1.422 . S
C1383 C1386 1.321 . S
C1383 H1410 0.931 . S
C1384 C1382 1.421 . S
C1384 C1383 1.422 . S
C1384 C1408 1.417 . S
C1385 H1362 0.931 . S
C1385 N1381 1.343 . S
C1385 C1386 1.390 . S
C1386 H1364 0.930 . S
C1386 C1383 1.321 . S
C1386 C1385 1.390 . S
O1387 Gd1355 2.386 . S
O1387 C1399 1.265 . S
O1388 Gd1354 2.353 . S
O1388 C1399 1.242 . S
O1389 Gd1354 2.468 . S
O1389 C1407 1.263 . S
O1390 Gd1354 2.427 . S
O1390 C1407 1.252 . S
O1391 Gd1355 2.307 . S
O1391 C1400 1.261 . S
O1392 Gd1354 2.388 . S
O1392 C1400 1.252 . S
O1393 Gd1354 2.386 . S
O1393 C1411 1.265 . S
O1394 Gd1355 2.353 . S
O1394 C1411 1.242 . S
O1395 Gd1355 2.468 1_545 S
O1395 C1419 1.263 . S
O1396 Gd1355 2.427 . S
O1396 C1419 1.252 1_565 S
O1397 Gd1354 2.307 . S
O1397 C1412 1.261 . S
O1398 Gd1355 2.388 . S
O1398 C1412 1.252 . S
C1399 O1387 1.265 . S
C1399 O1388 1.242 . S
C1400 O1391 1.261 . S
C1400 O1392 1.252 . S
C1401 C1404 1.394 . S
C1401 C1406 1.370 . S
C1401 C1407 1.500 . S
C1402 C1405 1.383 . S
C1402 C1406 1.395 . S
C1403 C1404 1.396 . S
C1403 C1405 1.365 . S
C1403 H1420 0.929 . S
C1404 C1401 1.394 . S
C1404 C1403 1.396 . S
C1404 H1421 0.930 . S
C1405 C1402 1.383 . S
C1405 C1403 1.365 . S
C1405 H1422 0.931 . S
C1406 C1401 1.370 . S
C1406 C1402 1.395 . S
C1406 H1423 0.930 . S
C1407 Gd1354 2.805 . S
C1407 O1389 1.263 . S
C1407 O1390 1.252 . S
C1407 C1401 1.500 . S
C1408 H1370 0.930 . S
C1408 C1384 1.417 . S
C1408 C1409 1.329 . S
C1409 C1379 1.437 . S
C1409 H1380 0.929 . S
C1409 C1408 1.329 . S
H1410 C1383 0.931 . S
C1411 O1393 1.265 . S
C1411 O1394 1.242 . S
C1412 O1397 1.261 . S
C1412 O1398 1.252 . S
C1413 C1416 1.394 . S
C1413 C1418 1.370 . S
C1413 C1419 1.500 . S
C1414 C1417 1.383 . S
C1414 C1418 1.395 . S
C1415 C1416 1.396 . S
C1415 C1417 1.365 . S
C1415 H1424 0.929 . S
C1416 C1413 1.394 . S
C1416 C1415 1.396 . S
C1416 H1425 0.930 . S
C1417 C1414 1.383 . S
C1417 C1415 1.365 . S
C1417 H1426 0.931 . S
C1418 C1413 1.370 . S
C1418 C1414 1.395 . S
C1418 H1427 0.930 . S
C1419 Gd1355 2.805 1_545 S
C1419 O1395 1.263 . S
C1419 O1396 1.252 1_545 S
C1419 C1413 1.500 . S
H1420 C1403 0.929 . S
H1421 C1404 0.930 . S
H1422 C1405 0.931 . S
H1423 C1406 0.930 . S
H1424 C1415 0.929 . S
H1425 C1416 0.930 . S
H1426 C1417 0.931 . S
H1427 C1418 0.930 . S
C1428 C1430 1.422 . S
C1428 C1432 1.415 . S
C1428 N1434 1.369 . S
C1429 C1430 1.421 . S
C1429 C1431 1.417 . S
C1429 C1441 1.422 . S
C1430 C1428 1.422 . S
C1430 C1429 1.421 . S
C1430 N1440 1.359 . S
C1431 C1429 1.417 . S
C1431 C1433 1.329 . S
C1431 H1450 0.930 . S
C1432 C1428 1.415 . S
C1432 C1433 1.437 . S
C1432 C1436 1.413 . S
C1433 C1431 1.329 . S
C1433 C1432 1.437 . S
C1433 H1455 0.929 . S
N1434 C1428 1.369 . S
N1434 C1435 1.338 . S
N1434 Gd1439 2.622 . S
C1435 N1434 1.338 . S
C1435 C1437 1.378 . S
C1435 H1447 0.929 . S
C1436 C1432 1.413 . S
C1436 C1437 1.348 . S
C1436 H1452 0.931 . S
C1437 C1435 1.378 . S
C1437 C1436 1.348 . S
C1437 H1453 0.930 . S
Gd1438 N1458 2.622 . S
Gd1438 N1465 2.570 . S
Gd1438 O1472 2.353 . S
Gd1438 O1473 2.468 . S
Gd1438 O1474 2.427 . S
Gd1438 O1476 2.388 . S
Gd1438 O1477 2.386 . S
Gd1438 O1481 2.307 . S
Gd1438 C1491 2.805 . S
Gd1439 N1434 2.622 . S
Gd1439 N1440 2.570 . S
Gd1439 O1471 2.386 . S
Gd1439 O1475 2.307 . S
Gd1439 O1478 2.353 . S
Gd1439 O1479 2.468 . S
Gd1439 O1480 2.427 . S
Gd1439 O1482 2.388 . S
Gd1439 C1503 2.805 . S
N1440 C1430 1.359 . S
N1440 Gd1439 2.570 . S
N1440 C1442 1.343 . S
C1441 C1429 1.422 . S
C1441 C1443 1.321 . S
C1441 H1449 0.931 . S
C1442 N1440 1.343 . S
C1442 C1443 1.390 . S
C1442 H1444 0.931 . S
C1443 C1441 1.321 . S
C1443 C1442 1.390 . S
C1443 H1445 0.930 . S
H1444 C1442 0.931 . S
H1445 C1443 0.930 . S
H1446 C1469 0.931 . S
H1447 C1435 0.929 . S
H1448 C1470 0.930 . S
H1449 C1441 0.931 . S
H1450 C1431 0.930 . S
H1451 C1460 0.929 . S
H1452 C1436 0.931 . S
H1453 C1437 0.930 . S
H1454 C1492 0.930 . S
H1455 C1433 0.929 . S
H1456 C1461 0.931 . S
H1457 C1462 0.930 . S
N1458 Gd1438 2.622 . S
N1458 C1459 1.369 . S
N1458 C1460 1.338 . S
C1459 N1458 1.369 . S
C1459 C1463 1.415 . S
C1459 C1466 1.422 . S
C1460 H1451 0.929 . S
C1460 N1458 1.338 . S
C1460 C1462 1.378 . S
C1461 H1456 0.931 . S
C1461 C1462 1.348 . S
C1461 C1463 1.413 . S
C1462 H1457 0.930 . S
C1462 C1460 1.378 . S
C1462 C1461 1.348 . S
C1463 C1459 1.415 . S
C1463 C1461 1.413 . S
C1463 C1493 1.437 . S
H1464 C1493 0.929 . S
N1465 Gd1438 2.570 . S
N1465 C1466 1.359 . S
N1465 C1469 1.343 . S
C1466 C1459 1.422 . S
C1466 N1465 1.359 . S
C1466 C1468 1.421 . S
C1467 C1468 1.422 . S
C1467 C1470 1.321 . S
C1467 H1494 0.931 . S
C1468 C1466 1.421 . S
C1468 C1467 1.422 . S
C1468 C1492 1.417 . S
C1469 H1446 0.931 . S
C1469 N1465 1.343 . S
C1469 C1470 1.390 . S
C1470 H1448 0.930 . S
C1470 C1467 1.321 . S
C1470 C1469 1.390 . S
O1471 Gd1439 2.386 . S
O1471 C1483 1.265 . S
O1472 Gd1438 2.353 . S
O1472 C1483 1.242 . S
O1473 Gd1438 2.468 . S
O1473 C1491 1.263 . S
O1474 Gd1438 2.427 . S
O1474 C1491 1.252 . S
O1475 Gd1439 2.307 . S
O1475 C1484 1.261 . S
O1476 Gd1438 2.388 . S
O1476 C1484 1.252 . S
O1477 Gd1438 2.386 . S
O1477 C1495 1.265 . S
O1478 Gd1439 2.353 . S
O1478 C1495 1.242 . S
O1479 Gd1439 2.468 . S
O1479 C1503 1.263 . S
O1480 Gd1439 2.427 . S
O1480 C1503 1.252 . S
O1481 Gd1438 2.307 . S
O1481 C1496 1.261 . S
O1482 Gd1439 2.388 . S
O1482 C1496 1.252 . S
C1483 O1471 1.265 . S
C1483 O1472 1.242 . S
C1484 O1475 1.261 . S
C1484 O1476 1.252 . S
C1485 C1488 1.394 . S
C1485 C1490 1.370 . S
C1485 C1491 1.500 . S
C1486 C1489 1.383 . S
C1486 C1490 1.395 . S
C1487 C1488 1.396 . S
C1487 C1489 1.365 . S
C1487 H1504 0.929 . S
C1488 C1485 1.394 . S
C1488 C1487 1.396 . S
C1488 H1505 0.930 . S
C1489 C1486 1.383 . S
C1489 C1487 1.365 . S
C1489 H1506 0.931 . S
C1490 C1485 1.370 . S
C1490 C1486 1.395 . S
C1490 H1507 0.930 . S
C1491 Gd1438 2.805 . S
C1491 O1473 1.263 . S
C1491 O1474 1.252 . S
C1491 C1485 1.500 . S
C1492 H1454 0.930 . S
C1492 C1468 1.417 . S
C1492 C1493 1.329 . S
C1493 C1463 1.437 . S
C1493 H1464 0.929 . S
C1493 C1492 1.329 . S
H1494 C1467 0.931 . S
C1495 O1477 1.265 . S
C1495 O1478 1.242 . S
C1496 O1481 1.261 . S
C1496 O1482 1.252 . S
C1497 C1500 1.394 . S
C1497 C1502 1.370 . S
C1497 C1503 1.500 . S
C1498 C1501 1.383 . S
C1498 C1502 1.395 1_655 S
C1499 C1500 1.396 1_655 S
C1499 C1501 1.365 . S
C1499 H1508 0.929 . S
C1500 C1497 1.394 . S
C1500 C1499 1.396 1_455 S
C1500 H1509 0.930 . S
C1501 C1498 1.383 . S
C1501 C1499 1.365 . S
C1501 H1510 0.931 . S
C1502 C1497 1.370 . S
C1502 C1498 1.395 1_455 S
C1502 H1511 0.930 . S
C1503 Gd1439 2.805 . S
C1503 O1479 1.263 . S
C1503 O1480 1.252 . S
C1503 C1497 1.500 . S
H1504 C1487 0.929 . S
H1505 C1488 0.930 . S
H1506 C1489 0.931 . S
H1507 C1490 0.930 . S
H1508 C1499 0.929 . S
H1509 C1500 0.930 . S
H1510 C1501 0.931 . S
H1511 C1502 0.930 . S
C1512 C1514 1.422 . S
C1512 C1516 1.415 . S
C1512 N1518 1.369 . S
C1513 C1514 1.421 . S
C1513 C1515 1.417 . S
C1513 C1525 1.422 . S
C1514 C1512 1.422 . S
C1514 C1513 1.421 . S
C1514 N1524 1.359 . S
C1515 C1513 1.417 . S
C1515 C1517 1.329 . S
C1515 H1534 0.930 . S
C1516 C1512 1.415 . S
C1516 C1517 1.437 . S
C1516 C1520 1.413 . S
C1517 C1515 1.329 . S
C1517 C1516 1.437 . S
C1517 H1539 0.929 . S
N1518 C1512 1.369 . S
N1518 C1519 1.338 . S
N1518 Gd1523 2.622 . S
C1519 N1518 1.338 . S
C1519 C1521 1.378 . S
C1519 H1531 0.929 . S
C1520 C1516 1.413 . S
C1520 C1521 1.348 . S
C1520 H1536 0.931 . S
C1521 C1519 1.378 . S
C1521 C1520 1.348 . S
C1521 H1537 0.930 . S
Gd1522 N1542 2.622 . S
Gd1522 N1549 2.570 . S
Gd1522 O1556 2.353 . S
Gd1522 O1557 2.468 . S
Gd1522 O1558 2.427 . S
Gd1522 O1560 2.388 . S
Gd1522 O1561 2.386 . S
Gd1522 O1565 2.307 . S
Gd1522 C1575 2.805 . S
Gd1523 N1518 2.622 . S
Gd1523 N1524 2.570 . S
Gd1523 O1555 2.386 . S
Gd1523 O1559 2.307 . S
Gd1523 O1562 2.353 . S
Gd1523 O1563 2.468 . S
Gd1523 O1564 2.427 . S
Gd1523 O1566 2.388 . S
Gd1523 C1587 2.805 . S
N1524 C1514 1.359 . S
N1524 Gd1523 2.570 . S
N1524 C1526 1.343 . S
C1525 C1513 1.422 . S
C1525 C1527 1.321 . S
C1525 H1533 0.931 . S
C1526 N1524 1.343 . S
C1526 C1527 1.390 . S
C1526 H1528 0.931 . S
C1527 C1525 1.321 . S
C1527 C1526 1.390 . S
C1527 H1529 0.930 . S
H1528 C1526 0.931 . S
H1529 C1527 0.930 . S
H1530 C1553 0.931 . S
H1531 C1519 0.929 . S
H1532 C1554 0.930 . S
H1533 C1525 0.931 . S
H1534 C1515 0.930 . S
H1535 C1544 0.929 . S
H1536 C1520 0.931 . S
H1537 C1521 0.930 . S
H1538 C1576 0.930 . S
H1539 C1517 0.929 . S
H1540 C1545 0.931 . S
H1541 C1546 0.930 . S
N1542 Gd1522 2.622 . S
N1542 C1543 1.369 . S
N1542 C1544 1.338 . S
C1543 N1542 1.369 . S
C1543 C1547 1.415 . S
C1543 C1550 1.422 . S
C1544 H1535 0.929 . S
C1544 N1542 1.338 . S
C1544 C1546 1.378 . S
C1545 H1540 0.931 . S
C1545 C1546 1.348 . S
C1545 C1547 1.413 . S
C1546 H1541 0.930 . S
C1546 C1544 1.378 . S
C1546 C1545 1.348 . S
C1547 C1543 1.415 . S
C1547 C1545 1.413 . S
C1547 C1577 1.437 . S
H1548 C1577 0.929 . S
N1549 Gd1522 2.570 . S
N1549 C1550 1.359 . S
N1549 C1553 1.343 . S
C1550 C1543 1.422 . S
C1550 N1549 1.359 . S
C1550 C1552 1.421 . S
C1551 C1552 1.422 . S
C1551 C1554 1.321 . S
C1551 H1578 0.931 . S
C1552 C1550 1.421 . S
C1552 C1551 1.422 . S
C1552 C1576 1.417 . S
C1553 H1530 0.931 . S
C1553 N1549 1.343 . S
C1553 C1554 1.390 . S
C1554 H1532 0.930 . S
C1554 C1551 1.321 . S
C1554 C1553 1.390 . S
O1555 Gd1523 2.386 . S
O1555 C1567 1.265 . S
O1556 Gd1522 2.353 . S
O1556 C1567 1.242 . S
O1557 Gd1522 2.468 . S
O1557 C1575 1.263 . S
O1558 Gd1522 2.427 . S
O1558 C1575 1.252 . S
O1559 Gd1523 2.307 . S
O1559 C1568 1.261 . S
O1560 Gd1522 2.388 . S
O1560 C1568 1.252 . S
O1561 Gd1522 2.386 . S
O1561 C1579 1.265 . S
O1562 Gd1523 2.353 . S
O1562 C1579 1.242 . S
O1563 Gd1523 2.468 . S
O1563 C1587 1.263 . S
O1564 Gd1523 2.427 . S
O1564 C1587 1.252 . S
O1565 Gd1522 2.307 . S
O1565 C1580 1.261 . S
O1566 Gd1523 2.388 . S
O1566 C1580 1.252 . S
C1567 O1555 1.265 . S
C1567 O1556 1.242 . S
C1568 O1559 1.261 . S
C1568 O1560 1.252 . S
C1569 C1572 1.394 . S
C1569 C1574 1.370 . S
C1569 C1575 1.500 . S
C1570 C1573 1.383 . S
C1570 C1574 1.395 . S
C1571 C1572 1.396 . S
C1571 C1573 1.365 . S
C1571 H1588 0.929 . S
C1572 C1569 1.394 . S
C1572 C1571 1.396 . S
C1572 H1589 0.930 . S
C1573 C1570 1.383 . S
C1573 C1571 1.365 . S
C1573 H1590 0.931 . S
C1574 C1569 1.370 . S
C1574 C1570 1.395 . S
C1574 H1591 0.930 . S
C1575 Gd1522 2.805 . S
C1575 O1557 1.263 . S
C1575 O1558 1.252 . S
C1575 C1569 1.500 . S
C1576 H1538 0.930 . S
C1576 C1552 1.417 . S
C1576 C1577 1.329 . S
C1577 C1547 1.437 . S
C1577 H1548 0.929 . S
C1577 C1576 1.329 . S
H1578 C1551 0.931 . S
C1579 O1561 1.265 . S
C1579 O1562 1.242 . S
C1580 O1565 1.261 . S
C1580 O1566 1.252 . S
C1581 C1584 1.394 . S
C1581 C1586 1.370 . S
C1581 C1587 1.500 . S
C1582 C1585 1.383 . S
C1582 C1586 1.395 . S
C1583 C1584 1.396 . S
C1583 C1585 1.365 . S
C1583 H1592 0.929 . S
C1584 C1581 1.394 . S
C1584 C1583 1.396 . S
C1584 H1593 0.930 . S
C1585 C1582 1.383 . S
C1585 C1583 1.365 . S
C1585 H1594 0.931 . S
C1586 C1581 1.370 . S
C1586 C1582 1.395 . S
C1586 H1595 0.930 . S
C1587 Gd1523 2.805 . S
C1587 O1563 1.263 . S
C1587 O1564 1.252 . S
C1587 C1581 1.500 . S
H1588 C1571 0.929 . S
H1589 C1572 0.930 . S
H1590 C1573 0.931 . S
H1591 C1574 0.930 . S
H1592 C1583 0.929 . S
H1593 C1584 0.930 . S
H1594 C1585 0.931 . S
H1595 C1586 0.930 . S
C1596 C1598 1.422 . S
C1596 C1600 1.415 . S
C1596 N1602 1.369 . S
C1597 C1598 1.421 . S
C1597 C1599 1.417 . S
C1597 C1609 1.422 . S
C1598 C1596 1.422 . S
C1598 C1597 1.421 . S
C1598 N1608 1.359 . S
C1599 C1597 1.417 . S
C1599 C1601 1.329 . S
C1599 H1618 0.930 . S
C1600 C1596 1.415 . S
C1600 C1601 1.437 . S
C1600 C1604 1.413 . S
C1601 C1599 1.329 . S
C1601 C1600 1.437 . S
C1601 H1623 0.929 . S
N1602 C1596 1.369 . S
N1602 C1603 1.338 . S
N1602 Gd1607 2.622 . S
C1603 N1602 1.338 . S
C1603 C1605 1.378 . S
C1603 H1615 0.929 . S
C1604 C1600 1.413 . S
C1604 C1605 1.348 . S
C1604 H1620 0.931 . S
C1605 C1603 1.378 . S
C1605 C1604 1.348 . S
C1605 H1621 0.930 . S
Gd1606 N1626 2.622 . S
Gd1606 N1633 2.570 1_565 S
Gd1606 O1640 2.353 . S
Gd1606 O1641 2.468 1_565 S
Gd1606 O1642 2.427 . S
Gd1606 O1644 2.388 . S
Gd1606 O1645 2.386 . S
Gd1606 O1649 2.307 . S
Gd1606 C1659 2.805 1_565 S
Gd1607 N1602 2.622 . S
Gd1607 N1608 2.570 . S
Gd1607 O1639 2.386 . S
Gd1607 O1643 2.307 . S
Gd1607 O1646 2.353 . S
Gd1607 O1647 2.468 . S
Gd1607 O1648 2.427 . S
Gd1607 O1650 2.388 . S
Gd1607 C1671 2.805 . S
N1608 C1598 1.359 . S
N1608 Gd1607 2.570 . S
N1608 C1610 1.343 . S
C1609 C1597 1.422 . S
C1609 C1611 1.321 . S
C1609 H1617 0.931 . S
C1610 N1608 1.343 . S
C1610 C1611 1.390 . S
C1610 H1612 0.931 . S
C1611 C1609 1.321 . S
C1611 C1610 1.390 . S
C1611 H1613 0.930 . S
H1612 C1610 0.931 . S
H1613 C1611 0.930 . S
H1614 C1637 0.931 . S
H1615 C1603 0.929 . S
H1616 C1638 0.930 . S
H1617 C1609 0.931 . S
H1618 C1599 0.930 . S
H1619 C1628 0.929 . S
H1620 C1604 0.931 . S
H1621 C1605 0.930 . S
H1622 C1660 0.930 . S
H1623 C1601 0.929 . S
H1624 C1629 0.931 1_545 S
H1625 C1630 0.930 . S
N1626 Gd1606 2.622 . S
N1626 C1627 1.387 . S
N1626 C1628 1.338 . S
C1627 N1626 1.387 . S
C1627 C1631 1.405 1_565 S
C1627 C1634 1.415 1_565 S
C1628 H1619 0.929 . S
C1628 N1626 1.338 . S
C1628 C1630 1.378 . S
C1629 H1624 0.931 1_565 S
C1629 C1630 1.348 . S
C1629 C1631 1.413 1_565 S
C1630 H1625 0.930 . S
C1630 C1628 1.378 . S
C1630 C1629 1.348 . S
C1631 C1627 1.405 1_545 S
C1631 C1629 1.413 1_545 S
C1631 C1661 1.437 . S
H1632 C1661 0.929 . S
N1633 Gd1606 2.570 1_545 S
N1633 C1634 1.359 . S
N1633 C1637 1.343 . S
C1634 C1627 1.415 1_545 S
C1634 N1633 1.359 . S
C1634 C1636 1.421 . S
C1635 C1636 1.422 . S
C1635 C1638 1.321 . S
C1635 H1662 0.931 . S
C1636 C1634 1.421 . S
C1636 C1635 1.422 . S
C1636 C1660 1.417 . S
C1637 H1614 0.931 . S
C1637 N1633 1.343 . S
C1637 C1638 1.390 . S
C1638 H1616 0.930 . S
C1638 C1635 1.321 . S
C1638 C1637 1.390 . S
O1639 Gd1607 2.386 . S
O1639 C1651 1.265 . S
O1640 Gd1606 2.353 . S
O1640 C1651 1.242 . S
O1641 Gd1606 2.468 1_545 S
O1641 C1659 1.263 . S
O1642 Gd1606 2.427 . S
O1642 C1659 1.252 1_565 S
O1643 Gd1607 2.307 . S
O1643 C1652 1.261 . S
O1644 Gd1606 2.388 . S
O1644 C1652 1.252 . S
O1645 Gd1606 2.386 . S
O1645 C1663 1.265 . S
O1646 Gd1607 2.353 . S
O1646 C1663 1.242 . S
O1647 Gd1607 2.468 . S
O1647 C1671 1.263 . S
O1648 Gd1607 2.427 . S
O1648 C1671 1.252 . S
O1649 Gd1606 2.307 . S
O1649 C1664 1.261 . S
O1650 Gd1607 2.388 . S
O1650 C1664 1.252 . S
C1651 O1639 1.265 . S
C1651 O1640 1.242 . S
C1652 O1643 1.261 . S
C1652 O1644 1.252 . S
C1653 C1656 1.394 . S
C1653 C1658 1.370 . S
C1653 C1659 1.500 . S
C1654 C1657 1.383 . S
C1654 C1658 1.395 . S
C1655 C1656 1.396 . S
C1655 C1657 1.365 . S
C1655 H1672 0.929 . S
C1656 C1653 1.394 . S
C1656 C1655 1.396 . S
C1656 H1673 0.930 . S
C1657 C1654 1.383 . S
C1657 C1655 1.365 . S
C1657 H1674 0.931 . S
C1658 C1653 1.370 . S
C1658 C1654 1.395 . S
C1658 H1675 0.930 . S
C1659 Gd1606 2.805 1_545 S
C1659 O1641 1.263 . S
C1659 O1642 1.252 1_545 S
C1659 C1653 1.500 . S
C1660 H1622 0.930 . S
C1660 C1636 1.417 . S
C1660 C1661 1.329 . S
C1661 C1631 1.437 . S
C1661 H1632 0.929 . S
C1661 C1660 1.329 . S
H1662 C1635 0.931 . S
C1663 O1645 1.265 . S
C1663 O1646 1.242 . S
C1664 O1649 1.261 . S
C1664 O1650 1.252 . S
C1665 C1668 1.394 . S
C1665 C1670 1.370 . S
C1665 C1671 1.500 . S
C1666 C1669 1.383 . S
C1666 C1670 1.395 . S
C1667 C1668 1.396 . S
C1667 C1669 1.365 . S
C1667 H1676 0.929 . S
C1668 C1665 1.394 . S
C1668 C1667 1.396 . S
C1668 H1677 0.930 . S
C1669 C1666 1.383 . S
C1669 C1667 1.365 . S
C1669 H1678 0.931 . S
C1670 C1665 1.370 . S
C1670 C1666 1.395 . S
C1670 H1679 0.930 . S
C1671 Gd1607 2.805 . S
C1671 O1647 1.263 . S
C1671 O1648 1.252 . S
C1671 C1665 1.500 . S
H1672 C1655 0.929 . S
H1673 C1656 0.930 . S
H1674 C1657 0.931 . S
H1675 C1658 0.930 . S
H1676 C1667 0.929 . S
H1677 C1668 0.930 . S
H1678 C1669 0.931 . S
H1679 C1670 0.930 . S
C1680 C1682 1.422 . S
C1680 C1684 1.415 . S
C1680 N1686 1.369 . S
C1681 C1682 1.421 1_545 S
C1681 C1683 1.417 . S
C1681 C1693 1.422 . S
C1682 C1680 1.422 . S
C1682 C1681 1.421 1_565 S
C1682 N1692 1.359 . S
C1683 C1681 1.417 . S
C1683 C1685 1.329 . S
C1683 H1702 0.930 . S
C1684 C1680 1.415 . S
C1684 C1685 1.437 1_565 S
C1684 C1688 1.413 . S
C1685 C1683 1.329 . S
C1685 C1684 1.437 1_545 S
C1685 H1707 0.929 . S
N1686 C1680 1.369 . S
N1686 C1687 1.338 . S
N1686 Gd1691 2.622 . S
C1687 N1686 1.338 . S
C1687 C1689 1.378 . S
C1687 H1699 0.929 . S
C1688 C1684 1.413 . S
C1688 C1689 1.348 . S
C1688 H1704 0.931 . S
C1689 C1687 1.378 . S
C1689 C1688 1.348 . S
C1689 H1705 0.930 . S
Gd1690 N1710 2.622 . S
Gd1690 N1717 2.570 . S
Gd1690 O1724 2.353 . S
Gd1690 O1725 2.468 . S
Gd1690 O1726 2.427 . S
Gd1690 O1728 2.388 . S
Gd1690 O1729 2.386 . S
Gd1690 O1733 2.307 . S
Gd1690 C1743 2.805 . S
Gd1691 N1686 2.622 . S
Gd1691 N1692 2.570 . S
Gd1691 O1723 2.386 . S
Gd1691 O1727 2.307 . S
Gd1691 O1730 2.353 . S
Gd1691 O1731 2.468 . S
Gd1691 O1732 2.427 . S
Gd1691 O1734 2.388 . S
Gd1691 C1755 2.805 . S
N1692 C1682 1.359 . S
N1692 Gd1691 2.570 . S
N1692 C1694 1.343 . S
C1693 C1681 1.422 . S
C1693 C1695 1.299 1_545 S
C1693 H1701 0.931 . S
C1694 N1692 1.343 . S
C1694 C1695 1.417 . S
C1694 H1696 0.931 . S
C1695 C1693 1.299 1_565 S
C1695 C1694 1.417 . S
C1695 H1697 0.926 1_565 S
H1696 C1694 0.931 . S
H1697 C1695 0.926 1_545 S
H1698 C1721 0.931 . S
H1699 C1687 0.929 . S
H1700 C1722 0.930 . S
H1701 C1693 0.931 . S
H1702 C1683 0.930 . S
H1703 C1712 0.929 . S
H1704 C1688 0.931 . S
H1705 C1689 0.930 . S
H1706 C1744 0.930 . S
H1707 C1685 0.929 . S
H1708 C1713 0.931 . S
H1709 C1714 0.930 . S
N1710 Gd1690 2.622 . S
N1710 C1711 1.369 . S
N1710 C1712 1.338 . S
C1711 N1710 1.369 . S
C1711 C1715 1.415 . S
C1711 C1718 1.422 . S
C1712 H1703 0.929 . S
C1712 N1710 1.338 . S
C1712 C1714 1.378 . S
C1713 H1708 0.931 . S
C1713 C1714 1.348 . S
C1713 C1715 1.413 . S
C1714 H1709 0.930 . S
C1714 C1712 1.378 . S
C1714 C1713 1.348 . S
C1715 C1711 1.415 . S
C1715 C1713 1.413 . S
C1715 C1745 1.437 . S
H1716 C1745 0.929 . S
N1717 Gd1690 2.570 . S
N1717 C1718 1.359 . S
N1717 C1721 1.343 . S
C1718 C1711 1.422 . S
C1718 N1717 1.359 . S
C1718 C1720 1.421 . S
C1719 C1720 1.422 . S
C1719 C1722 1.321 . S
C1719 H1746 0.931 . S
C1720 C1718 1.421 . S
C1720 C1719 1.422 . S
C1720 C1744 1.417 . S
C1721 H1698 0.931 . S
C1721 N1717 1.343 . S
C1721 C1722 1.390 . S
C1722 H1700 0.930 . S
C1722 C1719 1.321 . S
C1722 C1721 1.390 . S
O1723 Gd1691 2.386 . S
O1723 C1735 1.265 . S
O1724 Gd1690 2.353 . S
O1724 C1735 1.242 . S
O1725 Gd1690 2.468 . S
O1725 C1743 1.263 . S
O1726 Gd1690 2.427 . S
O1726 C1743 1.252 . S
O1727 Gd1691 2.307 . S
O1727 C1736 1.261 . S
O1728 Gd1690 2.388 . S
O1728 C1736 1.252 . S
O1729 Gd1690 2.386 . S
O1729 C1747 1.265 . S
O1730 Gd1691 2.353 . S
O1730 C1747 1.242 . S
O1731 Gd1691 2.468 . S
O1731 C1755 1.263 . S
O1732 Gd1691 2.427 . S
O1732 C1755 1.252 . S
O1733 Gd1690 2.307 . S
O1733 C1748 1.261 . S
O1734 Gd1691 2.388 . S
O1734 C1748 1.252 . S
C1735 O1723 1.265 . S
C1735 O1724 1.242 . S
C1736 O1727 1.261 . S
C1736 O1728 1.252 . S
C1737 C1740 1.394 . S
C1737 C1742 1.370 . S
C1737 C1743 1.500 . S
C1738 C1741 1.383 . S
C1738 C1742 1.395 1_655 S
C1739 C1740 1.396 1_655 S
C1739 C1741 1.365 . S
C1739 H1756 0.929 . S
C1740 C1737 1.394 . S
C1740 C1739 1.396 1_455 S
C1740 H1757 0.930 . S
C1741 C1738 1.383 . S
C1741 C1739 1.365 . S
C1741 H1758 0.931 . S
C1742 C1737 1.370 . S
C1742 C1738 1.395 1_455 S
C1742 H1759 0.930 . S
C1743 Gd1690 2.805 . S
C1743 O1725 1.263 . S
C1743 O1726 1.252 . S
C1743 C1737 1.500 . S
C1744 H1706 0.930 . S
C1744 C1720 1.417 . S
C1744 C1745 1.329 . S
C1745 C1715 1.437 . S
C1745 H1716 0.929 . S
C1745 C1744 1.329 . S
H1746 C1719 0.931 . S
C1747 O1729 1.265 . S
C1747 O1730 1.242 . S
C1748 O1733 1.261 . S
C1748 O1734 1.252 . S
C1749 C1752 1.394 . S
C1749 C1754 1.370 . S
C1749 C1755 1.500 . S
C1750 C1753 1.383 . S
C1750 C1754 1.395 . S
C1751 C1752 1.396 . S
C1751 C1753 1.365 . S
C1751 H1760 0.929 . S
C1752 C1749 1.394 . S
C1752 C1751 1.396 . S
C1752 H1761 0.930 . S
C1753 C1750 1.383 . S
C1753 C1751 1.365 . S
C1753 H1762 0.931 . S
C1754 C1749 1.370 . S
C1754 C1750 1.395 . S
C1754 H1763 0.930 . S
C1755 Gd1691 2.805 . S
C1755 O1731 1.263 . S
C1755 O1732 1.252 . S
C1755 C1749 1.500 . S
H1756 C1739 0.929 . S
H1757 C1740 0.930 . S
H1758 C1741 0.931 . S
H1759 C1742 0.930 . S
H1760 C1751 0.929 . S
H1761 C1752 0.930 . S
H1762 C1753 0.931 . S
H1763 C1754 0.930 . S
C1764 C1766 1.422 . S
C1764 C1768 1.415 . S
C1764 N1770 1.369 . S
C1765 C1766 1.421 . S
C1765 C1767 1.417 . S
C1765 C1777 1.422 . S
C1766 C1764 1.422 . S
C1766 C1765 1.421 . S
C1766 N1776 1.359 . S
C1767 C1765 1.417 . S
C1767 C1769 1.329 . S
C1767 H1786 0.930 . S
C1768 C1764 1.415 . S
C1768 C1769 1.437 . S
C1768 C1772 1.413 . S
C1769 C1767 1.329 . S
C1769 C1768 1.437 . S
C1769 H1791 0.929 . S
N1770 C1764 1.369 . S
N1770 C1771 1.338 . S
N1770 Gd1775 2.622 . S
C1771 N1770 1.338 . S
C1771 C1773 1.378 . S
C1771 H1783 0.929 . S
C1772 C1768 1.413 . S
C1772 C1773 1.348 . S
C1772 H1788 0.931 . S
C1773 C1771 1.378 . S
C1773 C1772 1.348 . S
C1773 H1789 0.930 . S
Gd1774 N1794 2.622 . S
Gd1774 N1801 2.570 . S
Gd1774 O1808 2.353 . S
Gd1774 O1809 2.468 . S
Gd1774 O1810 2.427 . S
Gd1774 O1812 2.388 . S
Gd1774 O1813 2.386 . S
Gd1774 O1817 2.307 . S
Gd1774 C1827 2.805 . S
Gd1775 N1770 2.622 . S
Gd1775 N1776 2.570 . S
Gd1775 O1807 2.386 . S
Gd1775 O1811 2.307 . S
Gd1775 O1814 2.353 . S
Gd1775 O1815 2.468 . S
Gd1775 O1816 2.427 . S
Gd1775 O1818 2.388 . S
Gd1775 C1839 2.805 . S
N1776 C1766 1.359 . S
N1776 Gd1775 2.570 . S
N1776 C1778 1.343 . S
C1777 C1765 1.422 . S
C1777 C1779 1.321 . S
C1777 H1785 0.931 . S
C1778 N1776 1.343 . S
C1778 C1779 1.390 . S
C1778 H1780 0.931 . S
C1779 C1777 1.321 . S
C1779 C1778 1.390 . S
C1779 H1781 0.930 . S
H1780 C1778 0.931 . S
H1781 C1779 0.930 . S
H1782 C1805 0.931 . S
H1783 C1771 0.929 . S
H1784 C1806 0.930 . S
H1785 C1777 0.931 . S
H1786 C1767 0.930 . S
H1787 C1796 0.929 . S
H1788 C1772 0.931 . S
H1789 C1773 0.930 . S
H1790 C1828 0.930 . S
H1791 C1769 0.929 . S
H1792 C1797 0.931 . S
H1793 C1798 0.930 . S
N1794 Gd1774 2.622 . S
N1794 C1795 1.369 . S
N1794 C1796 1.338 . S
C1795 N1794 1.369 . S
C1795 C1799 1.415 1_565 S
C1795 C1802 1.422 1_565 S
C1796 H1787 0.929 . S
C1796 N1794 1.338 . S
C1796 C1798 1.378 . S
C1797 H1792 0.931 . S
C1797 C1798 1.348 1_545 S
C1797 C1799 1.413 . S
C1798 H1793 0.930 . S
C1798 C1796 1.378 . S
C1798 C1797 1.348 1_565 S
C1799 C1795 1.415 1_545 S
C1799 C1797 1.413 . S
C1799 C1829 1.437 . S
H1800 C1829 0.929 . S
N1801 Gd1774 2.570 . S
N1801 C1802 1.359 1_565 S
N1801 C1805 1.343 . S
C1802 C1795 1.422 1_545 S
C1802 N1801 1.359 1_545 S
C1802 C1804 1.421 . S
C1803 C1804 1.422 . S
C1803 C1806 1.321 . S
C1803 H1830 0.931 . S
C1804 C1802 1.421 . S
C1804 C1803 1.422 . S
C1804 C1828 1.417 . S
C1805 H1782 0.931 . S
C1805 N1801 1.343 . S
C1805 C1806 1.390 1_565 S
C1806 H1784 0.930 . S
C1806 C1803 1.321 . S
C1806 C1805 1.390 1_545 S
O1807 Gd1775 2.386 . S
O1807 C1819 1.265 . S
O1808 Gd1774 2.353 . S
O1808 C1819 1.242 . S
O1809 Gd1774 2.468 . S
O1809 C1827 1.263 . S
O1810 Gd1774 2.427 . S
O1810 C1827 1.252 . S
O1811 Gd1775 2.307 . S
O1811 C1820 1.261 . S
O1812 Gd1774 2.388 . S
O1812 C1820 1.252 . S
O1813 Gd1774 2.386 . S
O1813 C1831 1.265 . S
O1814 Gd1775 2.353 . S
O1814 C1831 1.242 . S
O1815 Gd1775 2.468 . S
O1815 C1839 1.263 . S
O1816 Gd1775 2.427 . S
O1816 C1839 1.252 . S
O1817 Gd1774 2.307 . S
O1817 C1832 1.261 . S
O1818 Gd1775 2.388 . S
O1818 C1832 1.252 . S
C1819 O1807 1.265 . S
C1819 O1808 1.242 . S
C1820 O1811 1.261 . S
C1820 O1812 1.252 . S
C1821 C1824 1.394 . S
C1821 C1826 1.370 . S
C1821 C1827 1.500 . S
C1822 C1825 1.383 . S
C1822 C1826 1.395 . S
C1823 C1824 1.396 . S
C1823 C1825 1.365 . S
C1823 H1840 0.929 . S
C1824 C1821 1.394 . S
C1824 C1823 1.396 . S
C1824 H1841 0.930 . S
C1825 C1822 1.383 . S
C1825 C1823 1.365 . S
C1825 H1842 0.931 . S
C1826 C1821 1.370 . S
C1826 C1822 1.395 . S
C1826 H1843 0.930 . S
C1827 Gd1774 2.805 . S
C1827 O1809 1.263 . S
C1827 O1810 1.252 . S
C1827 C1821 1.500 . S
C1828 H1790 0.930 . S
C1828 C1804 1.417 . S
C1828 C1829 1.329 . S
C1829 C1799 1.437 . S
C1829 H1800 0.929 . S
C1829 C1828 1.329 . S
H1830 C1803 0.931 . S
C1831 O1813 1.265 . S
C1831 O1814 1.242 . S
C1832 O1817 1.261 . S
C1832 O1818 1.252 . S
C1833 C1836 1.394 . S
C1833 C1838 1.370 . S
C1833 C1839 1.500 . S
C1834 C1837 1.383 . S
C1834 C1838 1.395 . S
C1835 C1836 1.396 . S
C1835 C1837 1.365 . S
C1835 H1844 0.929 . S
C1836 C1833 1.394 . S
C1836 C1835 1.396 . S
C1836 H1845 0.930 . S
C1837 C1834 1.383 . S
C1837 C1835 1.365 . S
C1837 H1846 0.931 . S
C1838 C1833 1.370 . S
C1838 C1834 1.395 . S
C1838 H1847 0.930 . S
C1839 Gd1775 2.805 . S
C1839 O1815 1.263 . S
C1839 O1816 1.252 . S
C1839 C1833 1.500 . S
H1840 C1823 0.929 . S
H1841 C1824 0.930 . S
H1842 C1825 0.931 . S
H1843 C1826 0.930 . S
H1844 C1835 0.929 . S
H1845 C1836 0.930 . S
H1846 C1837 0.931 . S
H1847 C1838 0.930 . S
C1848 C1850 1.422 . S
C1848 C1852 1.415 . S
C1848 N1854 1.369 . S
C1849 C1850 1.421 . S
C1849 C1851 1.417 . S
C1849 C1861 1.422 . S
C1850 C1848 1.422 . S
C1850 C1849 1.421 . S
C1850 N1860 1.359 . S
C1851 C1849 1.417 . S
C1851 C1853 1.329 . S
C1851 H1870 0.930 1_565 S
C1852 C1848 1.415 . S
C1852 C1853 1.437 . S
C1852 C1856 1.413 . S
C1853 C1851 1.329 . S
C1853 C1852 1.437 . S
C1853 H1875 0.929 . S
N1854 C1848 1.369 . S
N1854 C1855 1.338 . S
N1854 Gd1859 2.622 . S
C1855 N1854 1.338 . S
C1855 C1857 1.378 . S
C1855 H1867 0.929 . S
C1856 C1852 1.413 . S
C1856 C1857 1.348 . S
C1856 H1872 0.931 . S
C1857 C1855 1.378 . S
C1857 C1856 1.348 . S
C1857 H1873 0.930 . S
Gd1858 N1878 2.622 . S
Gd1858 N1885 2.570 . S
Gd1858 O1892 2.353 . S
Gd1858 O1893 2.468 . S
Gd1858 O1894 2.427 . S
Gd1858 O1896 2.388 . S
Gd1858 O1897 2.386 . S
Gd1858 O1901 2.307 . S
Gd1858 C1911 2.805 . S
Gd1859 N1854 2.622 . S
Gd1859 N1860 2.570 . S
Gd1859 O1891 2.386 . S
Gd1859 O1895 2.307 . S
Gd1859 O1898 2.353 . S
Gd1859 O1899 2.468 . S
Gd1859 O1900 2.427 . S
Gd1859 O1902 2.388 . S
Gd1859 C1923 2.805 . S
N1860 C1850 1.359 . S
N1860 Gd1859 2.570 . S
N1860 C1862 1.343 . S
C1861 C1849 1.422 . S
C1861 C1863 1.321 . S
C1861 H1869 0.931 1_565 S
C1862 N1860 1.343 . S
C1862 C1863 1.390 . S
C1862 H1864 0.931 . S
C1863 C1861 1.321 . S
C1863 C1862 1.390 . S
C1863 H1865 0.930 . S
H1864 C1862 0.931 . S
H1865 C1863 0.930 . S
H1866 C1889 0.931 . S
H1867 C1855 0.929 . S
H1868 C1890 0.930 . S
H1869 C1861 0.931 1_545 S
H1870 C1851 0.930 1_545 S
H1871 C1880 0.929 . S
H1872 C1856 0.931 . S
H1873 C1857 0.930 . S
H1874 C1912 0.951 . S
H1875 C1853 0.929 . S
H1876 C1881 0.931 . S
H1877 C1882 0.930 . S
N1878 Gd1858 2.622 . S
N1878 C1879 1.369 . S
N1878 C1880 1.338 . S
C1879 N1878 1.369 . S
C1879 C1883 1.415 . S
C1879 C1886 1.422 . S
C1880 H1871 0.929 . S
C1880 N1878 1.338 . S
C1880 C1882 1.378 . S
C1881 H1876 0.931 . S
C1881 C1882 1.348 . S
C1881 C1883 1.413 . S
C1882 H1877 0.930 . S
C1882 C1880 1.378 . S
C1882 C1881 1.348 . S
C1883 C1879 1.415 . S
C1883 C1881 1.413 . S
C1883 C1913 1.437 . S
H1884 C1913 0.929 1_655 S
N1885 Gd1858 2.570 . S
N1885 C1886 1.359 . S
N1885 C1889 1.343 . S
C1886 C1879 1.422 . S
C1886 N1885 1.359 . S
C1886 C1888 1.421 . S
C1887 C1888 1.422 . S
C1887 C1890 1.321 . S
C1887 H1914 0.931 1_455 S
C1888 C1886 1.421 . S
C1888 C1887 1.422 . S
C1888 C1912 1.402 1_455 S
C1889 H1866 0.931 . S
C1889 N1885 1.343 . S
C1889 C1890 1.390 . S
C1890 H1868 0.930 . S
C1890 C1887 1.321 . S
C1890 C1889 1.390 . S
O1891 Gd1859 2.386 . S
O1891 C1903 1.265 . S
O1892 Gd1858 2.353 . S
O1892 C1903 1.242 . S
O1893 Gd1858 2.468 . S
O1893 C1911 1.263 . S
O1894 Gd1858 2.427 . S
O1894 C1911 1.252 . S
O1895 Gd1859 2.307 . S
O1895 C1904 1.261 . S
O1896 Gd1858 2.388 . S
O1896 C1904 1.252 . S
O1897 Gd1858 2.386 . S
O1897 C1915 1.265 . S
O1898 Gd1859 2.353 . S
O1898 C1915 1.242 . S
O1899 Gd1859 2.468 . S
O1899 C1923 1.263 . S
O1900 Gd1859 2.427 . S
O1900 C1923 1.252 . S
O1901 Gd1858 2.307 . S
O1901 C1916 1.261 . S
O1902 Gd1859 2.388 . S
O1902 C1916 1.252 . S
C1903 O1891 1.265 . S
C1903 O1892 1.242 . S
C1904 O1895 1.261 . S
C1904 O1896 1.252 . S
C1905 C1908 1.394 . S
C1905 C1910 1.370 . S
C1905 C1911 1.500 . S
C1906 C1909 1.383 . S
C1906 C1910 1.395 . S
C1907 C1908 1.396 . S
C1907 C1909 1.365 . S
C1907 H1924 0.929 . S
C1908 C1905 1.394 . S
C1908 C1907 1.396 . S
C1908 H1925 0.930 . S
C1909 C1906 1.383 . S
C1909 C1907 1.365 . S
C1909 H1926 0.931 . S
C1910 C1905 1.370 . S
C1910 C1906 1.395 . S
C1910 H1927 0.930 . S
C1911 Gd1858 2.805 . S
C1911 O1893 1.263 . S
C1911 O1894 1.252 . S
C1911 C1905 1.500 . S
C1912 H1874 0.951 . S
C1912 C1888 1.402 1_655 S
C1912 C1913 1.325 1_655 S
C1913 C1883 1.437 . S
C1913 H1884 0.929 1_455 S
C1913 C1912 1.325 1_455 S
H1914 C1887 0.931 1_655 S
C1915 O1897 1.265 . S
C1915 O1898 1.242 . S
C1916 O1901 1.261 . S
C1916 O1902 1.252 . S
C1917 C1920 1.394 1_565 S
C1917 C1922 1.370 1_565 S
C1917 C1923 1.500 . S
C1918 C1921 1.383 . S
C1918 C1922 1.395 . S
C1919 C1920 1.396 . S
C1919 C1921 1.365 . S
C1919 H1928 0.929 . S
C1920 C1917 1.394 1_545 S
C1920 C1919 1.396 . S
C1920 H1929 0.930 1_545 S
C1921 C1918 1.383 . S
C1921 C1919 1.365 . S
C1921 H1930 0.931 . S
C1922 C1917 1.370 1_545 S
C1922 C1918 1.395 . S
C1922 H1931 0.930 . S
C1923 Gd1859 2.805 . S
C1923 O1899 1.263 . S
C1923 O1900 1.252 . S
C1923 C1917 1.500 . S
H1924 C1907 0.929 . S
H1925 C1908 0.930 . S
H1926 C1909 0.931 . S
H1927 C1910 0.930 . S
H1928 C1919 0.929 . S
H1929 C1920 0.930 1_565 S
H1930 C1921 0.931 . S
H1931 C1922 0.930 . S
C1932 C1934 1.422 . S
C1932 C1936 1.415 . S
C1932 N1938 1.369 . S
C1933 C1934 1.421 . S
C1933 C1935 1.417 . S
C1933 C1945 1.422 . S
C1934 C1932 1.422 . S
C1934 C1933 1.421 . S
C1934 N1944 1.359 . S
C1935 C1933 1.417 . S
C1935 C1937 1.329 . S
C1935 H1954 0.930 . S
C1936 C1932 1.415 . S
C1936 C1937 1.437 . S
C1936 C1940 1.413 . S
C1937 C1935 1.329 . S
C1937 C1936 1.437 . S
C1937 H1959 0.929 . S
N1938 C1932 1.369 . S
N1938 C1939 1.338 . S
N1938 Gd1943 2.622 . S
C1939 N1938 1.338 . S
C1939 C1941 1.378 . S
C1939 H1951 0.929 . S
C1940 C1936 1.413 . S
C1940 C1941 1.348 . S
C1940 H1956 0.931 . S
C1941 C1939 1.378 . S
C1941 C1940 1.348 . S
C1941 H1957 0.930 . S
Gd1942 N1962 2.622 . S
Gd1942 N1969 2.570 . S
Gd1942 O1976 2.353 . S
Gd1942 O1977 2.468 . S
Gd1942 O1978 2.427 . S
Gd1942 O1980 2.388 . S
Gd1942 O1981 2.386 . S
Gd1942 O1985 2.307 . S
Gd1942 C1995 2.805 . S
Gd1943 N1938 2.622 . S
Gd1943 N1944 2.570 . S
Gd1943 O1975 2.386 . S
Gd1943 O1979 2.307 . S
Gd1943 O1982 2.353 . S
Gd1943 O1983 2.468 . S
Gd1943 O1984 2.427 . S
Gd1943 O1986 2.388 . S
Gd1943 C2007 2.805 . S
N1944 C1934 1.359 . S
N1944 Gd1943 2.570 . S
N1944 C1946 1.343 . S
C1945 C1933 1.422 . S
C1945 C1947 1.321 . S
C1945 H1953 0.931 . S
C1946 N1944 1.343 . S
C1946 C1947 1.390 . S
C1946 H1948 0.931 . S
C1947 C1945 1.321 . S
C1947 C1946 1.390 . S
C1947 H1949 0.930 . S
H1948 C1946 0.931 . S
H1949 C1947 0.930 . S
H1950 C1973 0.931 . S
H1951 C1939 0.929 . S
H1952 C1974 0.930 . S
H1953 C1945 0.931 . S
H1954 C1935 0.930 . S
H1955 C1964 0.929 . S
H1956 C1940 0.931 . S
H1957 C1941 0.930 . S
H1958 C1996 0.930 . S
H1959 C1937 0.929 . S
H1960 C1965 0.931 . S
H1961 C1966 0.930 . S
N1962 Gd1942 2.622 . S
N1962 C1963 1.369 . S
N1962 C1964 1.338 . S
C1963 N1962 1.369 . S
C1963 C1967 1.415 . S
C1963 C1970 1.422 . S
C1964 H1955 0.929 . S
C1964 N1962 1.338 . S
C1964 C1966 1.378 . S
C1965 H1960 0.931 . S
C1965 C1966 1.348 . S
C1965 C1967 1.413 . S
C1966 H1961 0.930 . S
C1966 C1964 1.378 . S
C1966 C1965 1.348 . S
C1967 C1963 1.415 . S
C1967 C1965 1.413 . S
C1967 C1997 1.437 . S
H1968 C1997 0.929 . S
N1969 Gd1942 2.570 . S
N1969 C1970 1.359 . S
N1969 C1973 1.343 . S
C1970 C1963 1.422 . S
C1970 N1969 1.359 . S
C1970 C1972 1.421 . S
C1971 C1972 1.422 . S
C1971 C1974 1.321 . S
C1971 H1998 0.931 . S
C1972 C1970 1.421 . S
C1972 C1971 1.422 . S
C1972 C1996 1.417 . S
C1973 H1950 0.931 . S
C1973 N1969 1.343 . S
C1973 C1974 1.390 . S
C1974 H1952 0.930 . S
C1974 C1971 1.321 . S
C1974 C1973 1.390 . S
O1975 Gd1943 2.386 . S
O1975 C1987 1.265 . S
O1976 Gd1942 2.353 . S
O1976 C1987 1.242 . S
O1977 Gd1942 2.468 . S
O1977 C1995 1.263 . S
O1978 Gd1942 2.427 . S
O1978 C1995 1.252 . S
O1979 Gd1943 2.307 . S
O1979 C1988 1.261 . S
O1980 Gd1942 2.388 . S
O1980 C1988 1.252 . S
O1981 Gd1942 2.386 . S
O1981 C1999 1.265 . S
O1982 Gd1943 2.353 . S
O1982 C1999 1.242 . S
O1983 Gd1943 2.468 . S
O1983 C2007 1.263 . S
O1984 Gd1943 2.427 . S
O1984 C2007 1.252 . S
O1985 Gd1942 2.307 . S
O1985 C2000 1.261 . S
O1986 Gd1943 2.388 . S
O1986 C2000 1.252 . S
C1987 O1975 1.265 . S
C1987 O1976 1.242 . S
C1988 O1979 1.261 . S
C1988 O1980 1.252 . S
C1989 C1992 1.394 . S
C1989 C1994 1.370 . S
C1989 C1995 1.500 . S
C1990 C1993 1.383 . S
C1990 C1994 1.395 . S
C1991 C1992 1.396 . S
C1991 C1993 1.365 . S
C1991 H2008 0.929 . S
C1992 C1989 1.394 . S
C1992 C1991 1.396 . S
C1992 H2009 0.930 . S
C1993 C1990 1.383 . S
C1993 C1991 1.365 . S
C1993 H2010 0.931 . S
C1994 C1989 1.370 . S
C1994 C1990 1.395 . S
C1994 H2011 0.930 . S
C1995 Gd1942 2.805 . S
C1995 O1977 1.263 . S
C1995 O1978 1.252 . S
C1995 C1989 1.500 . S
C1996 H1958 0.930 . S
C1996 C1972 1.417 . S
C1996 C1997 1.329 . S
C1997 C1967 1.437 . S
C1997 H1968 0.929 . S
C1997 C1996 1.329 . S
H1998 C1971 0.931 . S
C1999 O1981 1.265 . S
C1999 O1982 1.242 . S
C2000 O1985 1.261 . S
C2000 O1986 1.252 . S
C2001 C2004 1.394 . S
C2001 C2006 1.370 . S
C2001 C2007 1.500 . S
C2002 C2005 1.383 . S
C2002 C2006 1.395 . S
C2003 C2004 1.396 . S
C2003 C2005 1.365 . S
C2003 H2012 0.929 . S
C2004 C2001 1.394 . S
C2004 C2003 1.396 . S
C2004 H2013 0.930 . S
C2005 C2002 1.383 . S
C2005 C2003 1.365 . S
C2005 H2014 0.931 1_455 S
C2006 C2001 1.370 . S
C2006 C2002 1.395 . S
C2006 H2015 0.930 . S
C2007 Gd1943 2.805 . S
C2007 O1983 1.263 . S
C2007 O1984 1.252 . S
C2007 C2001 1.500 . S
H2008 C1991 0.929 . S
H2009 C1992 0.930 . S
H2010 C1993 0.931 . S
H2011 C1994 0.930 . S
H2012 C2003 0.929 . S
H2013 C2004 0.930 . S
H2014 C2005 0.931 1_655 S
H2015 C2006 0.930 . S
C2016 C2018 1.422 . S
C2016 C2020 1.415 . S
C2016 N2022 1.369 . S
C2017 C2018 1.421 . S
C2017 C2019 1.417 . S
C2017 C2029 1.422 . S
C2018 C2016 1.422 . S
C2018 C2017 1.421 . S
C2018 N2028 1.359 . S
C2019 C2017 1.417 . S
C2019 C2021 1.329 . S
C2019 H2038 0.930 . S
C2020 C2016 1.415 . S
C2020 C2021 1.437 . S
C2020 C2024 1.413 . S
C2021 C2019 1.329 . S
C2021 C2020 1.437 . S
C2021 H2043 0.929 . S
N2022 C2016 1.369 . S
N2022 C2023 1.338 . S
N2022 Gd2027 2.622 . S
C2023 N2022 1.338 . S
C2023 C2025 1.378 . S
C2023 H2035 0.929 . S
C2024 C2020 1.413 . S
C2024 C2025 1.348 . S
C2024 H2040 0.931 . S
C2025 C2023 1.378 . S
C2025 C2024 1.348 . S
C2025 H2041 0.930 . S
Gd2026 N2046 2.622 . S
Gd2026 N2053 2.570 . S
Gd2026 O2060 2.353 . S
Gd2026 O2061 2.468 . S
Gd2026 O2062 2.427 . S
Gd2026 O2064 2.388 . S
Gd2026 O2065 2.386 . S
Gd2026 O2069 2.307 . S
Gd2026 C2079 2.805 . S
Gd2027 N2022 2.622 . S
Gd2027 N2028 2.570 . S
Gd2027 O2059 2.386 . S
Gd2027 O2063 2.307 . S
Gd2027 O2066 2.353 . S
Gd2027 O2067 2.468 . S
Gd2027 O2068 2.427 . S
Gd2027 O2070 2.388 . S
Gd2027 C2091 2.805 . S
N2028 C2018 1.359 . S
N2028 Gd2027 2.570 . S
N2028 C2030 1.343 . S
C2029 C2017 1.422 . S
C2029 C2031 1.321 . S
C2029 H2037 0.931 . S
C2030 N2028 1.343 . S
C2030 C2031 1.390 . S
C2030 H2032 0.931 . S
C2031 C2029 1.321 . S
C2031 C2030 1.390 . S
C2031 H2033 0.930 . S
H2032 C2030 0.931 . S
H2033 C2031 0.930 . S
H2034 C2057 0.931 . S
H2035 C2023 0.929 . S
H2036 C2058 0.923 1_455 S
H2037 C2029 0.931 . S
H2038 C2019 0.930 . S
H2039 C2048 0.929 . S
H2040 C2024 0.931 . S
H2041 C2025 0.930 . S
H2042 C2080 0.930 . S
H2043 C2021 0.929 . S
H2044 C2049 0.931 . S
H2045 C2050 0.930 . S
N2046 Gd2026 2.622 . S
N2046 C2047 1.369 . S
N2046 C2048 1.338 . S
C2047 N2046 1.369 . S
C2047 C2051 1.415 . S
C2047 C2054 1.422 . S
C2048 H2039 0.929 . S
C2048 N2046 1.338 . S
C2048 C2050 1.378 . S
C2049 H2044 0.931 . S
C2049 C2050 1.348 . S
C2049 C2051 1.413 . S
C2050 H2045 0.930 . S
C2050 C2048 1.378 . S
C2050 C2049 1.348 . S
C2051 C2047 1.415 . S
C2051 C2049 1.413 . S
C2051 C2081 1.437 1_655 S
H2052 C2081 0.929 . S
N2053 Gd2026 2.570 . S
N2053 C2054 1.359 . S
N2053 C2057 1.343 . S
C2054 C2047 1.422 . S
C2054 N2053 1.359 . S
C2054 C2056 1.421 1_655 S
C2055 C2056 1.422 . S
C2055 C2058 1.309 1_455 S
C2055 H2082 0.931 . S
C2056 C2054 1.421 1_455 S
C2056 C2055 1.422 . S
C2056 C2080 1.417 . S
C2057 H2034 0.931 . S
C2057 N2053 1.343 . S
C2057 C2058 1.410 . S
C2058 H2036 0.923 1_655 S
C2058 C2055 1.309 1_655 S
C2058 C2057 1.410 . S
O2059 Gd2027 2.386 . S
O2059 C2071 1.265 . S
O2060 Gd2026 2.353 . S
O2060 C2071 1.242 . S
O2061 Gd2026 2.468 . S
O2061 C2079 1.263 . S
O2062 Gd2026 2.427 . S
O2062 C2079 1.252 . S
O2063 Gd2027 2.307 . S
O2063 C2072 1.261 . S
O2064 Gd2026 2.388 . S
O2064 C2072 1.252 . S
O2065 Gd2026 2.386 . S
O2065 C2083 1.265 . S
O2066 Gd2027 2.353 . S
O2066 C2083 1.242 . S
O2067 Gd2027 2.468 . S
O2067 C2091 1.263 . S
O2068 Gd2027 2.427 . S
O2068 C2091 1.252 . S
O2069 Gd2026 2.307 . S
O2069 C2084 1.261 . S
O2070 Gd2027 2.388 . S
O2070 C2084 1.252 . S
C2071 O2059 1.265 . S
C2071 O2060 1.242 . S
C2072 O2063 1.261 . S
C2072 O2064 1.252 . S
C2073 C2076 1.394 . S
C2073 C2078 1.370 . S
C2073 C2079 1.500 . S
C2074 C2077 1.383 . S
C2074 C2078 1.395 . S
C2075 C2076 1.396 . S
C2075 C2077 1.365 . S
C2075 H2092 0.929 . S
C2076 C2073 1.394 . S
C2076 C2075 1.396 . S
C2076 H2093 0.930 . S
C2077 C2074 1.383 . S
C2077 C2075 1.365 . S
C2077 H2094 0.931 . S
C2078 C2073 1.370 . S
C2078 C2074 1.395 . S
C2078 H2095 0.930 . S
C2079 Gd2026 2.805 . S
C2079 O2061 1.263 . S
C2079 O2062 1.252 . S
C2079 C2073 1.500 . S
C2080 H2042 0.930 . S
C2080 C2056 1.417 . S
C2080 C2081 1.329 . S
C2081 C2051 1.437 1_455 S
C2081 H2052 0.929 . S
C2081 C2080 1.329 . S
H2082 C2055 0.931 . S
C2083 O2065 1.265 . S
C2083 O2066 1.242 . S
C2084 O2069 1.261 . S
C2084 O2070 1.252 . S
C2085 C2088 1.394 . S
C2085 C2090 1.370 . S
C2085 C2091 1.500 . S
C2086 C2089 1.383 . S
C2086 C2090 1.395 . S
C2087 C2088 1.396 . S
C2087 C2089 1.365 . S
C2087 H2096 0.929 . S
C2088 C2085 1.394 . S
C2088 C2087 1.396 . S
C2088 H2097 0.930 . S
C2089 C2086 1.383 . S
C2089 C2087 1.365 . S
C2089 H2098 0.931 . S
C2090 C2085 1.370 . S
C2090 C2086 1.395 . S
C2090 H2099 0.930 . S
C2091 Gd2027 2.805 . S
C2091 O2067 1.263 . S
C2091 O2068 1.252 . S
C2091 C2085 1.500 . S
H2092 C2075 0.929 . S
H2093 C2076 0.930 . S
H2094 C2077 0.931 . S
H2095 C2078 0.930 . S
H2096 C2087 0.929 . S
H2097 C2088 0.930 . S
H2098 C2089 0.931 . S
H2099 C2090 0.930 . S
C2100 C2102 1.422 . S
C2100 C2104 1.415 . S
C2100 N2106 1.369 . S
C2101 C2102 1.421 . S
C2101 C2103 1.417 . S
C2101 C2113 1.422 . S
C2102 C2100 1.422 . S
C2102 C2101 1.421 . S
C2102 N2112 1.359 . S
C2103 C2101 1.417 . S
C2103 C2105 1.329 . S
C2103 H2122 0.930 . S
C2104 C2100 1.415 . S
C2104 C2105 1.437 . S
C2104 C2108 1.413 . S
C2105 C2103 1.329 . S
C2105 C2104 1.437 . S
C2105 H2127 0.929 . S
N2106 C2100 1.369 . S
N2106 C2107 1.338 . S
N2106 Gd2111 2.622 . S
C2107 N2106 1.338 . S
C2107 C2109 1.378 . S
C2107 H2119 0.929 . S
C2108 C2104 1.413 . S
C2108 C2109 1.348 . S
C2108 H2124 0.931 . S
C2109 C2107 1.378 . S
C2109 C2108 1.348 . S
C2109 H2125 0.930 . S
Gd2110 N2130 2.622 . S
Gd2110 N2137 2.570 . S
Gd2110 O2144 2.353 . S
Gd2110 O2145 2.468 . S
Gd2110 O2146 2.427 . S
Gd2110 O2148 2.388 . S
Gd2110 O2149 2.386 . S
Gd2110 O2153 2.307 . S
Gd2110 C2163 2.805 . S
Gd2111 N2106 2.622 . S
Gd2111 N2112 2.570 . S
Gd2111 O2143 2.386 . S
Gd2111 O2147 2.307 . S
Gd2111 O2150 2.353 . S
Gd2111 O2151 2.468 . S
Gd2111 O2152 2.427 . S
Gd2111 O2154 2.388 . S
Gd2111 C2175 2.805 . S
N2112 C2102 1.359 . S
N2112 Gd2111 2.570 . S
N2112 C2114 1.343 . S
C2113 C2101 1.422 . S
C2113 C2115 1.321 . S
C2113 H2121 0.931 . S
C2114 N2112 1.343 . S
C2114 C2115 1.390 . S
C2114 H2116 0.931 . S
C2115 C2113 1.321 . S
C2115 C2114 1.390 . S
C2115 H2117 0.930 . S
H2116 C2114 0.931 . S
H2117 C2115 0.930 . S
H2118 C2141 0.931 . S
H2119 C2107 0.929 . S
H2120 C2142 0.930 . S
H2121 C2113 0.931 . S
H2122 C2103 0.930 . S
H2123 C2132 0.929 . S
H2124 C2108 0.931 . S
H2125 C2109 0.930 . S
H2126 C2164 0.930 . S
H2127 C2105 0.929 . S
H2128 C2133 0.931 . S
H2129 C2134 0.930 . S
N2130 Gd2110 2.622 . S
N2130 C2131 1.369 . S
N2130 C2132 1.338 . S
C2131 N2130 1.369 . S
C2131 C2135 1.415 . S
C2131 C2138 1.422 . S
C2132 H2123 0.929 . S
C2132 N2130 1.338 . S
C2132 C2134 1.378 . S
C2133 H2128 0.931 . S
C2133 C2134 1.348 . S
C2133 C2135 1.413 . S
C2134 H2129 0.930 . S
C2134 C2132 1.378 . S
C2134 C2133 1.348 . S
C2135 C2131 1.415 . S
C2135 C2133 1.413 . S
C2135 C2165 1.437 . S
H2136 C2165 0.929 . S
N2137 Gd2110 2.570 . S
N2137 C2138 1.359 . S
N2137 C2141 1.343 . S
C2138 C2131 1.422 . S
C2138 N2137 1.359 . S
C2138 C2140 1.421 . S
C2139 C2140 1.422 . S
C2139 C2142 1.321 . S
C2139 H2166 0.931 . S
C2140 C2138 1.421 . S
C2140 C2139 1.422 . S
C2140 C2164 1.417 . S
C2141 H2118 0.931 . S
C2141 N2137 1.343 . S
C2141 C2142 1.390 . S
C2142 H2120 0.930 . S
C2142 C2139 1.321 . S
C2142 C2141 1.390 . S
O2143 Gd2111 2.386 . S
O2143 C2155 1.265 . S
O2144 Gd2110 2.353 . S
O2144 C2155 1.242 . S
O2145 Gd2110 2.468 . S
O2145 C2163 1.263 . S
O2146 Gd2110 2.427 . S
O2146 C2163 1.252 . S
O2147 Gd2111 2.307 . S
O2147 C2156 1.261 . S
O2148 Gd2110 2.388 . S
O2148 C2156 1.252 . S
O2149 Gd2110 2.386 . S
O2149 C2167 1.265 . S
O2150 Gd2111 2.353 . S
O2150 C2167 1.242 . S
O2151 Gd2111 2.468 . S
O2151 C2175 1.263 . S
O2152 Gd2111 2.427 . S
O2152 C2175 1.252 . S
O2153 Gd2110 2.307 . S
O2153 C2168 1.261 . S
O2154 Gd2111 2.388 . S
O2154 C2168 1.252 . S
C2155 O2143 1.265 . S
C2155 O2144 1.242 . S
C2156 O2147 1.261 . S
C2156 O2148 1.252 . S
C2157 C2160 1.394 . S
C2157 C2162 1.370 . S
C2157 C2163 1.500 . S
C2158 C2161 1.383 . S
C2158 C2162 1.395 . S
C2159 C2160 1.396 . S
C2159 C2161 1.365 . S
C2159 H2176 0.929 . S
C2160 C2157 1.394 . S
C2160 C2159 1.396 . S
C2160 H2177 0.930 . S
C2161 C2158 1.383 . S
C2161 C2159 1.365 . S
C2161 H2178 0.931 . S
C2162 C2157 1.370 . S
C2162 C2158 1.395 . S
C2162 H2179 0.930 . S
C2163 Gd2110 2.805 . S
C2163 O2145 1.263 . S
C2163 O2146 1.252 . S
C2163 C2157 1.500 . S
C2164 H2126 0.930 . S
C2164 C2140 1.417 . S
C2164 C2165 1.329 . S
C2165 C2135 1.437 . S
C2165 H2136 0.929 . S
C2165 C2164 1.329 . S
H2166 C2139 0.931 . S
C2167 O2149 1.265 . S
C2167 O2150 1.242 . S
C2168 O2153 1.261 . S
C2168 O2154 1.252 . S
C2169 C2172 1.394 . S
C2169 C2174 1.370 . S
C2169 C2175 1.500 . S
C2170 C2173 1.383 . S
C2170 C2174 1.395 1_565 S
C2171 C2172 1.396 1_565 S
C2171 C2173 1.365 . S
C2171 H2180 0.929 . S
C2172 C2169 1.394 . S
C2172 C2171 1.396 1_545 S
C2172 H2181 0.930 . S
C2173 C2170 1.383 . S
C2173 C2171 1.365 . S
C2173 H2182 0.931 . S
C2174 C2169 1.370 . S
C2174 C2170 1.395 1_545 S
C2174 H2183 0.930 . S
C2175 Gd2111 2.805 . S
C2175 O2151 1.263 . S
C2175 O2152 1.252 . S
C2175 C2169 1.500 . S
H2176 C2159 0.929 . S
H2177 C2160 0.930 . S
H2178 C2161 0.931 . S
H2179 C2162 0.930 . S
H2180 C2171 0.929 . S
H2181 C2172 0.930 . S
H2182 C2173 0.931 . S
H2183 C2174 0.930 . S
C2184 C2186 1.421 1_655 S
C2184 C2188 1.415 1_655 S
C2184 N2190 1.370 . S
C2185 C2186 1.421 . S
C2185 C2187 1.417 . S
C2185 C2197 1.422 . S
C2186 C2184 1.421 1_455 S
C2186 C2185 1.421 . S
C2186 N2196 1.359 . S
C2187 C2185 1.417 . S
C2187 C2189 1.329 . S
C2187 H2206 0.930 . S
C2188 C2184 1.415 1_455 S
C2188 C2189 1.437 . S
C2188 C2192 1.413 1_455 S
C2189 C2187 1.329 . S
C2189 C2188 1.437 . S
C2189 H2211 0.929 . S
N2190 C2184 1.370 . S
N2190 C2191 1.338 . S
N2190 Gd2195 2.622 . S
C2191 N2190 1.338 . S
C2191 C2193 1.378 . S
C2191 H2203 0.929 . S
C2192 C2188 1.413 1_655 S
C2192 C2193 1.348 . S
C2192 H2208 0.931 1_655 S
C2193 C2191 1.378 . S
C2193 C2192 1.348 . S
C2193 H2209 0.930 . S
Gd2194 N2214 2.622 . S
Gd2194 N2221 2.570 . S
Gd2194 O2228 2.353 . S
Gd2194 O2229 2.468 . S
Gd2194 O2230 2.427 . S
Gd2194 O2232 2.388 . S
Gd2194 O2233 2.386 . S
Gd2194 O2237 2.307 . S
Gd2194 C2247 2.805 . S
Gd2195 N2190 2.622 . S
Gd2195 N2196 2.570 1_655 S
Gd2195 O2227 2.386 . S
Gd2195 O2231 2.307 . S
Gd2195 O2234 2.353 . S
Gd2195 O2235 2.468 1_655 S
Gd2195 O2236 2.427 . S
Gd2195 O2238 2.388 . S
Gd2195 C2259 2.805 1_655 S
N2196 C2186 1.359 . S
N2196 Gd2195 2.570 1_455 S
N2196 C2198 1.343 . S
C2197 C2185 1.422 . S
C2197 C2199 1.321 . S
C2197 H2205 0.931 . S
C2198 N2196 1.343 . S
C2198 C2199 1.390 . S
C2198 H2200 0.931 . S
C2199 C2197 1.321 . S
C2199 C2198 1.390 . S
C2199 H2201 0.930 . S
H2200 C2198 0.931 . S
H2201 C2199 0.930 . S
H2202 C2225 0.931 . S
H2203 C2191 0.929 . S
H2204 C2226 0.930 . S
H2205 C2197 0.931 . S
H2206 C2187 0.930 . S
H2207 C2216 0.929 . S
H2208 C2192 0.931 1_455 S
H2209 C2193 0.930 . S
H2210 C2248 0.930 . S
H2211 C2189 0.929 . S
H2212 C2217 0.931 . S
H2213 C2218 0.930 . S
N2214 Gd2194 2.622 . S
N2214 C2215 1.369 . S
N2214 C2216 1.338 . S
C2215 N2214 1.369 . S
C2215 C2219 1.415 . S
C2215 C2222 1.422 . S
C2216 H2207 0.929 . S
C2216 N2214 1.338 . S
C2216 C2218 1.378 . S
C2217 H2212 0.931 . S
C2217 C2218 1.348 . S
C2217 C2219 1.413 . S
C2218 H2213 0.930 . S
C2218 C2216 1.378 . S
C2218 C2217 1.348 . S
C2219 C2215 1.415 . S
C2219 C2217 1.413 . S
C2219 C2249 1.437 . S
H2220 C2249 0.929 . S
N2221 Gd2194 2.570 . S
N2221 C2222 1.359 . S
N2221 C2225 1.343 . S
C2222 C2215 1.422 . S
C2222 N2221 1.359 . S
C2222 C2224 1.421 . S
C2223 C2224 1.422 . S
C2223 C2226 1.321 . S
C2223 H2250 0.931 . S
C2224 C2222 1.421 . S
C2224 C2223 1.422 . S
C2224 C2248 1.417 . S
C2225 H2202 0.931 . S
C2225 N2221 1.343 . S
C2225 C2226 1.390 . S
C2226 H2204 0.930 . S
C2226 C2223 1.321 . S
C2226 C2225 1.390 . S
O2227 Gd2195 2.386 . S
O2227 C2239 1.265 . S
O2228 Gd2194 2.353 . S
O2228 C2239 1.242 . S
O2229 Gd2194 2.468 . S
O2229 C2247 1.263 . S
O2230 Gd2194 2.427 . S
O2230 C2247 1.252 . S
O2231 Gd2195 2.307 . S
O2231 C2240 1.261 . S
O2232 Gd2194 2.388 . S
O2232 C2240 1.252 . S
O2233 Gd2194 2.386 . S
O2233 C2251 1.265 . S
O2234 Gd2195 2.353 . S
O2234 C2251 1.242 . S
O2235 Gd2195 2.468 1_455 S
O2235 C2259 1.263 . S
O2236 Gd2195 2.427 . S
O2236 C2259 1.252 1_655 S
O2237 Gd2194 2.307 . S
O2237 C2252 1.261 . S
O2238 Gd2195 2.388 . S
O2238 C2252 1.252 . S
C2239 O2227 1.265 . S
C2239 O2228 1.242 . S
C2240 O2231 1.261 . S
C2240 O2232 1.252 . S
C2241 C2244 1.394 . S
C2241 C2246 1.370 . S
C2241 C2247 1.500 . S
C2242 C2245 1.383 . S
C2242 C2246 1.395 . S
C2243 C2244 1.396 . S
C2243 C2245 1.365 . S
C2243 H2260 0.929 . S
C2244 C2241 1.394 . S
C2244 C2243 1.396 . S
C2244 H2261 0.930 . S
C2245 C2242 1.383 . S
C2245 C2243 1.365 . S
C2245 H2262 0.931 . S
C2246 C2241 1.370 . S
C2246 C2242 1.395 . S
C2246 H2263 0.930 . S
C2247 Gd2194 2.805 . S
C2247 O2229 1.263 . S
C2247 O2230 1.252 . S
C2247 C2241 1.500 . S
C2248 H2210 0.930 . S
C2248 C2224 1.417 . S
C2248 C2249 1.329 . S
C2249 C2219 1.437 . S
C2249 H2220 0.929 . S
C2249 C2248 1.329 . S
H2250 C2223 0.931 . S
C2251 O2233 1.265 . S
C2251 O2234 1.242 . S
C2252 O2237 1.261 . S
C2252 O2238 1.252 . S
C2253 C2256 1.394 . S
C2253 C2258 1.370 . S
C2253 C2259 1.500 . S
C2254 C2257 1.383 . S
C2254 C2258 1.395 . S
C2255 C2256 1.396 . S
C2255 C2257 1.365 . S
C2255 H2264 0.929 . S
C2256 C2253 1.394 . S
C2256 C2255 1.396 . S
C2256 H2265 0.930 . S
C2257 C2254 1.383 . S
C2257 C2255 1.365 . S
C2257 H2266 0.931 . S
C2258 C2253 1.370 . S
C2258 C2254 1.395 . S
C2258 H2267 0.930 . S
C2259 Gd2195 2.805 1_455 S
C2259 O2235 1.263 . S
C2259 O2236 1.252 1_455 S
C2259 C2253 1.500 . S
H2260 C2243 0.929 . S
H2261 C2244 0.930 . S
H2262 C2245 0.931 . S
H2263 C2246 0.930 . S
H2264 C2255 0.929 . S
H2265 C2256 0.930 . S
H2266 C2257 0.931 . S
H2267 C2258 0.930 . S
C2268 C2270 1.422 . S
C2268 C2272 1.415 . S
C2268 N2274 1.369 . S
C2269 C2270 1.421 . S
C2269 C2271 1.417 1_545 S
C2269 C2281 1.422 . S
C2270 C2268 1.422 . S
C2270 C2269 1.421 . S
C2270 N2280 1.359 . S
C2271 C2269 1.417 1_565 S
C2271 C2273 1.329 1_565 S
C2271 H2290 0.930 . S
C2272 C2268 1.415 . S
C2272 C2273 1.437 . S
C2272 C2276 1.413 . S
C2273 C2271 1.329 1_545 S
C2273 C2272 1.437 . S
C2273 H2295 0.929 1_545 S
N2274 C2268 1.369 . S
N2274 C2275 1.338 . S
N2274 Gd2279 2.622 . S
C2275 N2274 1.338 . S
C2275 C2277 1.378 . S
C2275 H2287 0.929 . S
C2276 C2272 1.413 . S
C2276 C2277 1.348 . S
C2276 H2292 0.931 . S
C2277 C2275 1.378 . S
C2277 C2276 1.348 . S
C2277 H2293 0.930 . S
Gd2278 N2298 2.622 . S
Gd2278 N2305 2.570 . S
Gd2278 O2312 2.353 . S
Gd2278 O2313 2.468 . S
Gd2278 O2314 2.427 . S
Gd2278 O2316 2.388 . S
Gd2278 O2317 2.386 . S
Gd2278 O2321 2.307 . S
Gd2278 C2331 2.805 . S
Gd2279 N2274 2.622 . S
Gd2279 N2280 2.570 . S
Gd2279 O2311 2.386 . S
Gd2279 O2315 2.307 . S
Gd2279 O2318 2.353 . S
Gd2279 O2319 2.468 . S
Gd2279 O2320 2.427 . S
Gd2279 O2322 2.388 . S
Gd2279 C2343 2.805 . S
N2280 C2270 1.359 . S
N2280 Gd2279 2.570 . S
N2280 C2282 1.343 . S
C2281 C2269 1.422 . S
C2281 C2283 1.321 . S
C2281 H2289 0.931 1_545 S
C2282 N2280 1.343 . S
C2282 C2283 1.390 . S
C2282 H2284 0.931 . S
C2283 C2281 1.321 . S
C2283 C2282 1.390 . S
C2283 H2285 0.930 . S
H2284 C2282 0.931 . S
H2285 C2283 0.930 . S
H2286 C2309 0.931 . S
H2287 C2275 0.929 . S
H2288 C2310 0.930 . S
H2289 C2281 0.931 1_565 S
H2290 C2271 0.930 . S
H2291 C2300 0.929 . S
H2292 C2276 0.931 . S
H2293 C2277 0.930 . S
H2294 C2332 0.930 . S
H2295 C2273 0.929 1_565 S
H2296 C2301 0.931 . S
H2297 C2302 0.930 . S
N2298 Gd2278 2.622 . S
N2298 C2299 1.369 . S
N2298 C2300 1.338 . S
C2299 N2298 1.369 . S
C2299 C2303 1.415 . S
C2299 C2306 1.422 . S
C2300 H2291 0.929 . S
C2300 N2298 1.338 . S
C2300 C2302 1.378 . S
C2301 H2296 0.931 . S
C2301 C2302 1.348 . S
C2301 C2303 1.413 . S
C2302 H2297 0.930 . S
C2302 C2300 1.378 . S
C2302 C2301 1.348 . S
C2303 C2299 1.415 . S
C2303 C2301 1.413 . S
C2303 C2333 1.437 . S
H2304 C2333 0.929 . S
N2305 Gd2278 2.570 . S
N2305 C2306 1.359 . S
N2305 C2309 1.343 . S
C2306 C2299 1.422 . S
C2306 N2305 1.359 . S
C2306 C2308 1.421 . S
C2307 C2308 1.422 . S
C2307 C2310 1.321 . S
C2307 H2334 0.931 . S
C2308 C2306 1.421 . S
C2308 C2307 1.422 . S
C2308 C2332 1.417 . S
C2309 H2286 0.931 . S
C2309 N2305 1.343 . S
C2309 C2310 1.390 . S
C2310 H2288 0.930 . S
C2310 C2307 1.321 . S
C2310 C2309 1.390 . S
O2311 Gd2279 2.386 . S
O2311 C2323 1.265 . S
O2312 Gd2278 2.353 . S
O2312 C2323 1.242 . S
O2313 Gd2278 2.468 . S
O2313 C2331 1.263 . S
O2314 Gd2278 2.427 . S
O2314 C2331 1.252 . S
O2315 Gd2279 2.307 . S
O2315 C2324 1.261 . S
O2316 Gd2278 2.388 . S
O2316 C2324 1.252 . S
O2317 Gd2278 2.386 . S
O2317 C2335 1.265 . S
O2318 Gd2279 2.353 . S
O2318 C2335 1.242 . S
O2319 Gd2279 2.468 . S
O2319 C2343 1.263 . S
O2320 Gd2279 2.427 . S
O2320 C2343 1.252 . S
O2321 Gd2278 2.307 . S
O2321 C2336 1.261 . S
O2322 Gd2279 2.388 . S
O2322 C2336 1.252 . S
C2323 O2311 1.265 . S
C2323 O2312 1.242 . S
C2324 O2315 1.261 . S
C2324 O2316 1.252 . S
C2325 C2328 1.394 . S
C2325 C2330 1.370 . S
C2325 C2331 1.500 . S
C2326 C2329 1.383 . S
C2326 C2330 1.395 . S
C2327 C2328 1.396 . S
C2327 C2329 1.365 . S
C2327 H2344 0.929 . S
C2328 C2325 1.394 . S
C2328 C2327 1.396 . S
C2328 H2345 0.930 . S
C2329 C2326 1.383 . S
C2329 C2327 1.365 . S
C2329 H2346 0.931 . S
C2330 C2325 1.370 . S
C2330 C2326 1.395 . S
C2330 H2347 0.930 . S
C2331 Gd2278 2.805 . S
C2331 O2313 1.263 . S
C2331 O2314 1.252 . S
C2331 C2325 1.500 . S
C2332 H2294 0.930 . S
C2332 C2308 1.417 . S
C2332 C2333 1.329 . S
C2333 C2303 1.437 . S
C2333 H2304 0.929 . S
C2333 C2332 1.329 . S
H2334 C2307 0.931 . S
C2335 O2317 1.265 . S
C2335 O2318 1.242 . S
C2336 O2321 1.261 . S
C2336 O2322 1.252 . S
C2337 C2340 1.394 . S
C2337 C2342 1.370 . S
C2337 C2343 1.500 . S
C2338 C2341 1.383 . S
C2338 C2342 1.395 . S
C2339 C2340 1.396 . S
C2339 C2341 1.365 . S
C2339 H2348 0.929 . S
C2340 C2337 1.394 . S
C2340 C2339 1.396 . S
C2340 H2349 0.930 . S
C2341 C2338 1.383 . S
C2341 C2339 1.365 . S
C2341 H2350 0.931 . S
C2342 C2337 1.370 . S
C2342 C2338 1.395 . S
C2342 H2351 0.930 . S
C2343 Gd2279 2.805 . S
C2343 O2319 1.263 . S
C2343 O2320 1.252 . S
C2343 C2337 1.500 . S
H2344 C2327 0.929 . S
H2345 C2328 0.930 . S
H2346 C2329 0.931 . S
H2347 C2330 0.930 . S
H2348 C2339 0.929 . S
H2349 C2340 0.930 . S
H2350 C2341 0.931 . S
H2351 C2342 0.930 . S
C2352 C2354 1.422 1_655 S
C2352 C2356 1.415 1_655 S
C2352 N2358 1.369 . S
C2353 C2354 1.421 . S
C2353 C2355 1.417 . S
C2353 C2365 1.422 . S
C2354 C2352 1.422 1_455 S
C2354 C2353 1.421 . S
C2354 N2364 1.359 1_455 S
C2355 C2353 1.417 . S
C2355 C2357 1.329 . S
C2355 H2374 0.930 . S
C2356 C2352 1.415 1_455 S
C2356 C2357 1.437 . S
C2356 C2360 1.413 . S
C2357 C2355 1.329 . S
C2357 C2356 1.437 . S
C2357 H2379 0.929 . S
N2358 C2352 1.369 . S
N2358 C2359 1.338 . S
N2358 Gd2363 2.622 . S
C2359 N2358 1.338 . S
C2359 C2361 1.378 . S
C2359 H2371 0.929 . S
C2360 C2356 1.413 . S
C2360 C2361 1.348 1_455 S
C2360 H2376 0.931 . S
C2361 C2359 1.378 . S
C2361 C2360 1.348 1_655 S
C2361 H2377 0.930 . S
Gd2362 N2382 2.622 . S
Gd2362 N2389 2.570 . S
Gd2362 O2396 2.353 . S
Gd2362 O2397 2.468 . S
Gd2362 O2398 2.427 . S
Gd2362 O2400 2.388 . S
Gd2362 O2401 2.386 . S
Gd2362 O2405 2.307 . S
Gd2362 C2415 2.805 . S
Gd2363 N2358 2.622 . S
Gd2363 N2364 2.570 . S
Gd2363 O2395 2.386 . S
Gd2363 O2399 2.307 . S
Gd2363 O2402 2.353 . S
Gd2363 O2403 2.468 . S
Gd2363 O2404 2.427 . S
Gd2363 O2406 2.388 . S
Gd2363 C2427 2.805 . S
N2364 C2354 1.359 1_655 S
N2364 Gd2363 2.570 . S
N2364 C2366 1.343 . S
C2365 C2353 1.422 . S
C2365 C2367 1.321 . S
C2365 H2373 0.931 . S
C2366 N2364 1.343 . S
C2366 C2367 1.390 1_655 S
C2366 H2368 0.931 . S
C2367 C2365 1.321 . S
C2367 C2366 1.390 1_455 S
C2367 H2369 0.930 . S
H2368 C2366 0.931 . S
H2369 C2367 0.930 . S
H2370 C2393 0.931 . S
H2371 C2359 0.929 . S
H2372 C2394 0.930 . S
H2373 C2365 0.931 . S
H2374 C2355 0.930 . S
H2375 C2384 0.929 . S
H2376 C2360 0.931 . S
H2377 C2361 0.930 . S
H2378 C2416 0.930 . S
H2379 C2357 0.929 . S
H2380 C2385 0.931 . S
H2381 C2386 0.930 . S
N2382 Gd2362 2.622 . S
N2382 C2383 1.369 . S
N2382 C2384 1.338 . S
C2383 N2382 1.369 . S
C2383 C2387 1.415 . S
C2383 C2390 1.422 . S
C2384 H2375 0.929 . S
C2384 N2382 1.338 . S
C2384 C2386 1.378 . S
C2385 H2380 0.931 . S
C2385 C2386 1.348 . S
C2385 C2387 1.413 . S
C2386 H2381 0.930 . S
C2386 C2384 1.378 . S
C2386 C2385 1.348 . S
C2387 C2383 1.415 . S
C2387 C2385 1.413 . S
C2387 C2417 1.437 . S
H2388 C2417 0.929 . S
N2389 Gd2362 2.570 . S
N2389 C2390 1.359 . S
N2389 C2393 1.343 . S
C2390 C2383 1.422 . S
C2390 N2389 1.359 . S
C2390 C2392 1.421 . S
C2391 C2392 1.422 . S
C2391 C2394 1.321 . S
C2391 H2418 0.931 . S
C2392 C2390 1.421 . S
C2392 C2391 1.422 . S
C2392 C2416 1.417 . S
C2393 H2370 0.931 . S
C2393 N2389 1.343 . S
C2393 C2394 1.390 . S
C2394 H2372 0.930 . S
C2394 C2391 1.321 . S
C2394 C2393 1.390 . S
O2395 Gd2363 2.386 . S
O2395 C2407 1.265 . S
O2396 Gd2362 2.353 . S
O2396 C2407 1.242 . S
O2397 Gd2362 2.468 . S
O2397 C2415 1.263 . S
O2398 Gd2362 2.427 . S
O2398 C2415 1.252 . S
O2399 Gd2363 2.307 . S
O2399 C2408 1.261 . S
O2400 Gd2362 2.388 . S
O2400 C2408 1.252 . S
O2401 Gd2362 2.386 . S
O2401 C2419 1.265 . S
O2402 Gd2363 2.353 . S
O2402 C2419 1.242 . S
O2403 Gd2363 2.468 . S
O2403 C2427 1.263 . S
O2404 Gd2363 2.427 . S
O2404 C2427 1.252 . S
O2405 Gd2362 2.307 . S
O2405 C2420 1.261 . S
O2406 Gd2363 2.388 . S
O2406 C2420 1.252 . S
C2407 O2395 1.265 . S
C2407 O2396 1.242 . S
C2408 O2399 1.261 . S
C2408 O2400 1.252 . S
C2409 C2412 1.394 . S
C2409 C2414 1.370 . S
C2409 C2415 1.500 . S
C2410 C2413 1.383 . S
C2410 C2414 1.395 . S
C2411 C2412 1.396 . S
C2411 C2413 1.365 . S
C2411 H2428 0.929 . S
C2412 C2409 1.394 . S
C2412 C2411 1.396 . S
C2412 H2429 0.930 . S
C2413 C2410 1.383 . S
C2413 C2411 1.365 . S
C2413 H2430 0.931 1_545 S
C2414 C2409 1.370 . S
C2414 C2410 1.395 . S
C2414 H2431 0.930 . S
C2415 Gd2362 2.805 . S
C2415 O2397 1.263 . S
C2415 O2398 1.252 . S
C2415 C2409 1.500 . S
C2416 H2378 0.930 . S
C2416 C2392 1.417 . S
C2416 C2417 1.329 . S
C2417 C2387 1.437 . S
C2417 H2388 0.929 . S
C2417 C2416 1.329 . S
H2418 C2391 0.931 . S
C2419 O2401 1.265 . S
C2419 O2402 1.242 . S
C2420 O2405 1.261 . S
C2420 O2406 1.252 . S
C2421 C2424 1.394 . S
C2421 C2426 1.370 . S
C2421 C2427 1.500 . S
C2422 C2425 1.383 . S
C2422 C2426 1.395 . S
C2423 C2424 1.396 . S
C2423 C2425 1.365 . S
C2423 H2432 0.929 . S
C2424 C2421 1.394 . S
C2424 C2423 1.396 . S
C2424 H2433 0.930 . S
C2425 C2422 1.383 . S
C2425 C2423 1.365 . S
C2425 H2434 0.931 . S
C2426 C2421 1.370 . S
C2426 C2422 1.395 . S
C2426 H2435 0.930 . S
C2427 Gd2363 2.805 . S
C2427 O2403 1.263 . S
C2427 O2404 1.252 . S
C2427 C2421 1.500 . S
H2428 C2411 0.929 . S
H2429 C2412 0.930 . S
H2430 C2413 0.931 1_565 S
H2431 C2414 0.930 . S
H2432 C2423 0.929 . S
H2433 C2424 0.930 . S
H2434 C2425 0.931 . S
H2435 C2426 0.930 . S
C2436 C2438 1.422 . S
C2436 C2440 1.415 . S
C2436 N2442 1.369 . S
C2437 C2438 1.421 . S
C2437 C2439 1.417 . S
C2437 C2449 1.422 . S
C2438 C2436 1.422 . S
C2438 C2437 1.421 . S
C2438 N2448 1.359 . S
C2439 C2437 1.417 . S
C2439 C2441 1.329 . S
C2439 H2458 0.930 . S
C2440 C2436 1.415 . S
C2440 C2441 1.437 . S
C2440 C2444 1.413 . S
C2441 C2439 1.329 . S
C2441 C2440 1.437 . S
C2441 H2463 0.929 . S
N2442 C2436 1.369 . S
N2442 C2443 1.338 . S
N2442 Gd2447 2.622 . S
C2443 N2442 1.338 . S
C2443 C2445 1.378 . S
C2443 H2455 0.929 . S
C2444 C2440 1.413 . S
C2444 C2445 1.348 . S
C2444 H2460 0.931 . S
C2445 C2443 1.378 . S
C2445 C2444 1.348 . S
C2445 H2461 0.930 . S
Gd2446 N2466 2.622 . S
Gd2446 N2473 2.570 . S
Gd2446 O2480 2.353 . S
Gd2446 O2481 2.468 . S
Gd2446 O2482 2.427 . S
Gd2446 O2484 2.388 . S
Gd2446 O2485 2.386 . S
Gd2446 O2489 2.307 . S
Gd2446 C2499 2.805 . S
Gd2447 N2442 2.622 . S
Gd2447 N2448 2.570 . S
Gd2447 O2479 2.386 . S
Gd2447 O2483 2.307 . S
Gd2447 O2486 2.353 . S
Gd2447 O2487 2.468 . S
Gd2447 O2488 2.427 . S
Gd2447 O2490 2.388 . S
Gd2447 C2511 2.805 . S
N2448 C2438 1.359 . S
N2448 Gd2447 2.570 . S
N2448 C2450 1.343 . S
C2449 C2437 1.422 . S
C2449 C2451 1.321 . S
C2449 H2457 0.931 . S
C2450 N2448 1.343 . S
C2450 C2451 1.390 . S
C2450 H2452 0.931 . S
C2451 C2449 1.321 . S
C2451 C2450 1.390 . S
C2451 H2453 0.930 . S
H2452 C2450 0.931 . S
H2453 C2451 0.930 . S
H2454 C2477 0.931 . S
H2455 C2443 0.929 . S
H2456 C2478 0.930 . S
H2457 C2449 0.931 . S
H2458 C2439 0.930 . S
H2459 C2468 0.929 . S
H2460 C2444 0.931 . S
H2461 C2445 0.930 . S
H2462 C2500 0.930 1_455 S
H2463 C2441 0.929 . S
H2464 C2469 0.931 . S
H2465 C2470 0.930 . S
N2466 Gd2446 2.622 . S
N2466 C2467 1.369 . S
N2466 C2468 1.338 . S
C2467 N2466 1.369 . S
C2467 C2471 1.415 . S
C2467 C2474 1.422 . S
C2468 H2459 0.929 . S
C2468 N2466 1.338 . S
C2468 C2470 1.378 . S
C2469 H2464 0.931 . S
C2469 C2470 1.348 . S
C2469 C2471 1.413 . S
C2470 H2465 0.930 . S
C2470 C2468 1.378 . S
C2470 C2469 1.348 . S
C2471 C2467 1.415 . S
C2471 C2469 1.413 . S
C2471 C2501 1.437 . S
H2472 C2501 0.929 . S
N2473 Gd2446 2.570 . S
N2473 C2474 1.359 . S
N2473 C2477 1.343 . S
C2474 C2467 1.422 . S
C2474 N2473 1.359 . S
C2474 C2476 1.421 . S
C2475 C2476 1.422 . S
C2475 C2478 1.321 . S
C2475 H2502 0.931 1_655 S
C2476 C2474 1.421 . S
C2476 C2475 1.422 . S
C2476 C2500 1.417 . S
C2477 H2454 0.931 . S
C2477 N2473 1.343 . S
C2477 C2478 1.390 . S
C2478 H2456 0.930 . S
C2478 C2475 1.321 . S
C2478 C2477 1.390 . S
O2479 Gd2447 2.386 . S
O2479 C2491 1.265 . S
O2480 Gd2446 2.353 . S
O2480 C2491 1.242 . S
O2481 Gd2446 2.468 . S
O2481 C2499 1.263 . S
O2482 Gd2446 2.427 . S
O2482 C2499 1.252 . S
O2483 Gd2447 2.307 . S
O2483 C2492 1.261 . S
O2484 Gd2446 2.388 . S
O2484 C2492 1.252 . S
O2485 Gd2446 2.386 . S
O2485 C2503 1.265 . S
O2486 Gd2447 2.353 . S
O2486 C2503 1.242 . S
O2487 Gd2447 2.468 . S
O2487 C2511 1.263 . S
O2488 Gd2447 2.427 . S
O2488 C2511 1.252 . S
O2489 Gd2446 2.307 . S
O2489 C2504 1.261 . S
O2490 Gd2447 2.388 . S
O2490 C2504 1.252 . S
C2491 O2479 1.265 . S
C2491 O2480 1.242 . S
C2492 O2483 1.261 . S
C2492 O2484 1.252 . S
C2493 C2496 1.394 1_655 S
C2493 C2498 1.370 1_655 S
C2493 C2499 1.500 . S
C2494 C2497 1.383 . S
C2494 C2498 1.395 . S
C2495 C2496 1.396 . S
C2495 C2497 1.365 . S
C2495 H2512 0.929 . S
C2496 C2493 1.394 1_455 S
C2496 C2495 1.396 . S
C2496 H2513 0.930 1_455 S
C2497 C2494 1.383 . S
C2497 C2495 1.365 . S
C2497 H2514 0.931 . S
C2498 C2493 1.370 1_455 S
C2498 C2494 1.395 . S
C2498 H2515 0.930 . S
C2499 Gd2446 2.805 . S
C2499 O2481 1.263 . S
C2499 O2482 1.252 . S
C2499 C2493 1.500 . S
C2500 H2462 0.930 1_655 S
C2500 C2476 1.417 . S
C2500 C2501 1.329 . S
C2501 C2471 1.437 . S
C2501 H2472 0.929 . S
C2501 C2500 1.329 . S
H2502 C2475 0.931 1_455 S
C2503 O2485 1.265 . S
C2503 O2486 1.242 . S
C2504 O2489 1.261 . S
C2504 O2490 1.252 . S
C2505 C2508 1.394 . S
C2505 C2510 1.370 . S
C2505 C2511 1.500 . S
C2506 C2509 1.383 . S
C2506 C2510 1.395 . S
C2507 C2508 1.396 . S
C2507 C2509 1.365 . S
C2507 H2516 0.929 . S
C2508 C2505 1.394 . S
C2508 C2507 1.396 . S
C2508 H2517 0.930 . S
C2509 C2506 1.383 . S
C2509 C2507 1.365 . S
C2509 H2518 0.931 . S
C2510 C2505 1.370 . S
C2510 C2506 1.395 . S
C2510 H2519 0.930 . S
C2511 Gd2447 2.805 . S
C2511 O2487 1.263 . S
C2511 O2488 1.252 . S
C2511 C2505 1.500 . S
H2512 C2495 0.929 . S
H2513 C2496 0.930 1_655 S
H2514 C2497 0.931 . S
H2515 C2498 0.930 . S
H2516 C2507 0.929 . S
H2517 C2508 0.930 . S
H2518 C2509 0.931 . S
H2519 C2510 0.930 . S
C2520 C2522 1.422 . S
C2520 C2524 1.415 . S
C2520 N2526 1.369 . S
C2521 C2522 1.421 . S
C2521 C2523 1.417 . S
C2521 C2533 1.422 . S
C2522 C2520 1.422 . S
C2522 C2521 1.421 . S
C2522 N2532 1.359 . S
C2523 C2521 1.417 . S
C2523 C2525 1.329 . S
C2523 H2542 0.930 . S
C2524 C2520 1.415 . S
C2524 C2525 1.437 . S
C2524 C2528 1.413 . S
C2525 C2523 1.329 . S
C2525 C2524 1.437 . S
C2525 H2547 0.929 . S
N2526 C2520 1.369 . S
N2526 C2527 1.338 . S
N2526 Gd2531 2.622 . S
C2527 N2526 1.338 . S
C2527 C2529 1.378 . S
C2527 H2539 0.929 . S
C2528 C2524 1.413 . S
C2528 C2529 1.348 . S
C2528 H2544 0.931 . S
C2529 C2527 1.378 . S
C2529 C2528 1.348 . S
C2529 H2545 0.930 . S
Gd2530 N2550 2.622 . S
Gd2530 N2557 2.570 . S
Gd2530 O2564 2.353 . S
Gd2530 O2565 2.468 . S
Gd2530 O2566 2.427 . S
Gd2530 O2568 2.388 . S
Gd2530 O2569 2.386 . S
Gd2530 O2573 2.307 . S
Gd2530 C2583 2.805 . S
Gd2531 N2526 2.622 . S
Gd2531 N2532 2.570 . S
Gd2531 O2563 2.386 . S
Gd2531 O2567 2.307 . S
Gd2531 O2570 2.353 . S
Gd2531 O2571 2.468 . S
Gd2531 O2572 2.427 . S
Gd2531 O2574 2.388 . S
Gd2531 C2595 2.805 . S
N2532 C2522 1.359 . S
N2532 Gd2531 2.570 . S
N2532 C2534 1.343 . S
C2533 C2521 1.422 . S
C2533 C2535 1.321 . S
C2533 H2541 0.931 . S
C2534 N2532 1.343 . S
C2534 C2535 1.390 . S
C2534 H2536 0.931 . S
C2535 C2533 1.321 . S
C2535 C2534 1.390 . S
C2535 H2537 0.930 . S
H2536 C2534 0.931 . S
H2537 C2535 0.930 . S
H2538 C2561 0.931 . S
H2539 C2527 0.929 . S
H2540 C2562 0.930 . S
H2541 C2533 0.931 . S
H2542 C2523 0.930 . S
H2543 C2552 0.929 . S
H2544 C2528 0.931 . S
H2545 C2529 0.930 . S
H2546 C2584 0.930 . S
H2547 C2525 0.929 . S
H2548 C2553 0.931 . S
H2549 C2554 0.930 . S
N2550 Gd2530 2.622 . S
N2550 C2551 1.369 . S
N2550 C2552 1.338 . S
C2551 N2550 1.369 . S
C2551 C2555 1.415 1_655 S
C2551 C2558 1.422 1_655 S
C2552 H2543 0.929 . S
C2552 N2550 1.338 . S
C2552 C2554 1.378 . S
C2553 H2548 0.931 . S
C2553 C2554 1.348 1_455 S
C2553 C2555 1.413 . S
C2554 H2549 0.930 . S
C2554 C2552 1.378 . S
C2554 C2553 1.348 1_655 S
C2555 C2551 1.415 1_455 S
C2555 C2553 1.413 . S
C2555 C2585 1.437 . S
H2556 C2585 0.929 . S
N2557 Gd2530 2.570 . S
N2557 C2558 1.359 1_655 S
N2557 C2561 1.343 . S
C2558 C2551 1.422 1_455 S
C2558 N2557 1.359 1_455 S
C2558 C2560 1.421 . S
C2559 C2560 1.422 . S
C2559 C2562 1.321 . S
C2559 H2586 0.931 . S
C2560 C2558 1.421 . S
C2560 C2559 1.422 . S
C2560 C2584 1.417 . S
C2561 H2538 0.931 . S
C2561 N2557 1.343 . S
C2561 C2562 1.390 1_655 S
C2562 H2540 0.930 . S
C2562 C2559 1.321 . S
C2562 C2561 1.390 1_455 S
O2563 Gd2531 2.386 . S
O2563 C2575 1.265 . S
O2564 Gd2530 2.353 . S
O2564 C2575 1.242 . S
O2565 Gd2530 2.468 . S
O2565 C2583 1.263 . S
O2566 Gd2530 2.427 . S
O2566 C2583 1.252 . S
O2567 Gd2531 2.307 . S
O2567 C2576 1.261 . S
O2568 Gd2530 2.388 . S
O2568 C2576 1.252 . S
O2569 Gd2530 2.386 . S
O2569 C2587 1.265 . S
O2570 Gd2531 2.353 . S
O2570 C2587 1.242 . S
O2571 Gd2531 2.468 . S
O2571 C2595 1.263 . S
O2572 Gd2531 2.427 . S
O2572 C2595 1.252 . S
O2573 Gd2530 2.307 . S
O2573 C2588 1.261 . S
O2574 Gd2531 2.388 . S
O2574 C2588 1.252 . S
C2575 O2563 1.265 . S
C2575 O2564 1.242 . S
C2576 O2567 1.261 . S
C2576 O2568 1.252 . S
C2577 C2580 1.394 . S
C2577 C2582 1.370 . S
C2577 C2583 1.500 . S
C2578 C2581 1.383 . S
C2578 C2582 1.395 . S
C2579 C2580 1.396 . S
C2579 C2581 1.365 . S
C2579 H2596 0.929 . S
C2580 C2577 1.394 . S
C2580 C2579 1.396 . S
C2580 H2597 0.930 . S
C2581 C2578 1.383 . S
C2581 C2579 1.365 . S
C2581 H2598 0.931 . S
C2582 C2577 1.370 . S
C2582 C2578 1.395 . S
C2582 H2599 0.930 . S
C2583 Gd2530 2.805 . S
C2583 O2565 1.263 . S
C2583 O2566 1.252 . S
C2583 C2577 1.500 . S
C2584 H2546 0.930 . S
C2584 C2560 1.417 . S
C2584 C2585 1.329 . S
C2585 C2555 1.437 . S
C2585 H2556 0.929 . S
C2585 C2584 1.329 . S
H2586 C2559 0.931 . S
C2587 O2569 1.265 . S
C2587 O2570 1.242 . S
C2588 O2573 1.261 . S
C2588 O2574 1.252 . S
C2589 C2592 1.394 . S
C2589 C2594 1.370 . S
C2589 C2595 1.500 . S
C2590 C2593 1.383 . S
C2590 C2594 1.395 . S
C2591 C2592 1.396 . S
C2591 C2593 1.365 . S
C2591 H2600 0.929 . S
C2592 C2589 1.394 . S
C2592 C2591 1.396 . S
C2592 H2601 0.930 . S
C2593 C2590 1.383 . S
C2593 C2591 1.365 . S
C2593 H2602 0.931 . S
C2594 C2589 1.370 . S
C2594 C2590 1.395 . S
C2594 H2603 0.930 . S
C2595 Gd2531 2.805 . S
C2595 O2571 1.263 . S
C2595 O2572 1.252 . S
C2595 C2589 1.500 . S
H2596 C2579 0.929 . S
H2597 C2580 0.930 . S
H2598 C2581 0.931 . S
H2599 C2582 0.930 . S
H2600 C2591 0.929 . S
H2601 C2592 0.930 . S
H2602 C2593 0.931 . S
H2603 C2594 0.930 . S
C2604 C2606 1.422 . S
C2604 C2608 1.415 . S
C2604 N2610 1.369 . S
C2605 C2606 1.421 . S
C2605 C2607 1.417 . S
C2605 C2617 1.422 . S
C2606 C2604 1.422 . S
C2606 C2605 1.421 . S
C2606 N2616 1.359 . S
C2607 C2605 1.417 . S
C2607 C2609 1.329 . S
C2607 H2626 0.930 . S
C2608 C2604 1.415 . S
C2608 C2609 1.437 . S
C2608 C2612 1.413 . S
C2609 C2607 1.329 . S
C2609 C2608 1.437 . S
C2609 H2631 0.929 . S
N2610 C2604 1.369 . S
N2610 C2611 1.338 . S
N2610 Gd2615 2.622 . S
C2611 N2610 1.338 . S
C2611 C2613 1.378 . S
C2611 H2623 0.929 . S
C2612 C2608 1.413 . S
C2612 C2613 1.348 . S
C2612 H2628 0.931 . S
C2613 C2611 1.378 . S
C2613 C2612 1.348 . S
C2613 H2629 0.930 . S
Gd2614 N2634 2.622 . S
Gd2614 N2641 2.570 . S
Gd2614 O2648 2.353 . S
Gd2614 O2649 2.468 . S
Gd2614 O2650 2.427 . S
Gd2614 O2652 2.388 . S
Gd2614 O2653 2.386 . S
Gd2614 O2657 2.307 . S
Gd2614 C2667 2.805 . S
Gd2615 N2610 2.622 . S
Gd2615 N2616 2.570 . S
Gd2615 O2647 2.386 . S
Gd2615 O2651 2.307 . S
Gd2615 O2654 2.353 . S
Gd2615 O2655 2.468 . S
Gd2615 O2656 2.427 . S
Gd2615 O2658 2.388 . S
Gd2615 C2679 2.805 . S
N2616 C2606 1.359 . S
N2616 Gd2615 2.570 . S
N2616 C2618 1.343 . S
C2617 C2605 1.422 . S
C2617 C2619 1.321 . S
C2617 H2625 0.931 . S
C2618 N2616 1.343 . S
C2618 C2619 1.390 . S
C2618 H2620 0.931 . S
C2619 C2617 1.321 . S
C2619 C2618 1.390 . S
C2619 H2621 0.930 . S
H2620 C2618 0.931 . S
H2621 C2619 0.930 . S
H2622 C2645 0.931 . S
H2623 C2611 0.929 . S
H2624 C2646 0.930 . S
H2625 C2617 0.931 . S
H2626 C2607 0.930 . S
H2627 C2636 0.929 . S
H2628 C2612 0.931 . S
H2629 C2613 0.930 . S
H2630 C2668 0.930 . S
H2631 C2609 0.929 . S
H2632 C2637 0.931 . S
H2633 C2638 0.930 . S
N2634 Gd2614 2.622 . S
N2634 C2635 1.369 . S
N2634 C2636 1.338 . S
C2635 N2634 1.369 . S
C2635 C2639 1.415 . S
C2635 C2642 1.422 . S
C2636 H2627 0.929 . S
C2636 N2634 1.338 . S
C2636 C2638 1.378 . S
C2637 H2632 0.931 . S
C2637 C2638 1.348 . S
C2637 C2639 1.413 . S
C2638 H2633 0.930 . S
C2638 C2636 1.378 . S
C2638 C2637 1.348 . S
C2639 C2635 1.415 . S
C2639 C2637 1.413 . S
C2639 C2669 1.437 . S
H2640 C2669 0.929 . S
N2641 Gd2614 2.570 . S
N2641 C2642 1.359 . S
N2641 C2645 1.343 . S
C2642 C2635 1.422 . S
C2642 N2641 1.359 . S
C2642 C2644 1.421 . S
C2643 C2644 1.422 . S
C2643 C2646 1.321 . S
C2643 H2670 0.931 . S
C2644 C2642 1.421 . S
C2644 C2643 1.422 . S
C2644 C2668 1.417 . S
C2645 H2622 0.931 . S
C2645 N2641 1.343 . S
C2645 C2646 1.390 . S
C2646 H2624 0.930 . S
C2646 C2643 1.321 . S
C2646 C2645 1.390 . S
O2647 Gd2615 2.386 . S
O2647 C2659 1.265 . S
O2648 Gd2614 2.353 . S
O2648 C2659 1.242 . S
O2649 Gd2614 2.468 . S
O2649 C2667 1.263 . S
O2650 Gd2614 2.427 . S
O2650 C2667 1.252 . S
O2651 Gd2615 2.307 . S
O2651 C2660 1.261 . S
O2652 Gd2614 2.388 . S
O2652 C2660 1.252 . S
O2653 Gd2614 2.386 . S
O2653 C2671 1.265 . S
O2654 Gd2615 2.353 . S
O2654 C2671 1.242 . S
O2655 Gd2615 2.468 . S
O2655 C2679 1.263 . S
O2656 Gd2615 2.427 . S
O2656 C2679 1.252 . S
O2657 Gd2614 2.307 . S
O2657 C2672 1.261 . S
O2658 Gd2615 2.388 . S
O2658 C2672 1.252 . S
C2659 O2647 1.265 . S
C2659 O2648 1.242 . S
C2660 O2651 1.261 . S
C2660 O2652 1.252 . S
C2661 C2664 1.394 . S
C2661 C2666 1.370 . S
C2661 C2667 1.500 . S
C2662 C2665 1.383 . S
C2662 C2666 1.395 . S
C2663 C2664 1.396 . S
C2663 C2665 1.365 . S
C2663 H2680 0.929 . S
C2664 C2661 1.394 . S
C2664 C2663 1.396 . S
C2664 H2681 0.930 . S
C2665 C2662 1.383 . S
C2665 C2663 1.365 . S
C2665 H2682 0.931 . S
C2666 C2661 1.370 . S
C2666 C2662 1.395 . S
C2666 H2683 0.930 . S
C2667 Gd2614 2.805 . S
C2667 O2649 1.263 . S
C2667 O2650 1.252 . S
C2667 C2661 1.500 . S
C2668 H2630 0.930 . S
C2668 C2644 1.417 . S
C2668 C2669 1.329 . S
C2669 C2639 1.437 . S
C2669 H2640 0.929 . S
C2669 C2668 1.329 . S
H2670 C2643 0.931 . S
C2671 O2653 1.265 . S
C2671 O2654 1.242 . S
C2672 O2657 1.261 . S
C2672 O2658 1.252 . S
C2673 C2676 1.394 . S
C2673 C2678 1.370 . S
C2673 C2679 1.500 . S
C2674 C2677 1.383 . S
C2674 C2678 1.395 . S
C2675 C2676 1.396 . S
C2675 C2677 1.365 . S
C2675 H2684 0.929 . S
C2676 C2673 1.394 . S
C2676 C2675 1.396 . S
C2676 H2685 0.930 . S
C2677 C2674 1.383 . S
C2677 C2675 1.365 . S
C2677 H2686 0.931 1_545 S
C2678 C2673 1.370 . S
C2678 C2674 1.395 . S
C2678 H2687 0.930 . S
C2679 Gd2615 2.805 . S
C2679 O2655 1.263 . S
C2679 O2656 1.252 . S
C2679 C2673 1.500 . S
H2680 C2663 0.929 . S
H2681 C2664 0.930 . S
H2682 C2665 0.931 . S
H2683 C2666 0.930 . S
H2684 C2675 0.929 . S
H2685 C2676 0.930 . S
H2686 C2677 0.931 1_565 S
H2687 C2678 0.930 . S
C2688 C2690 1.422 . S
C2688 C2692 1.415 . S
C2688 N2694 1.369 . S
C2689 C2690 1.421 . S
C2689 C2691 1.417 . S
C2689 C2701 1.422 . S
C2690 C2688 1.422 . S
C2690 C2689 1.421 . S
C2690 N2700 1.359 . S
C2691 C2689 1.417 . S
C2691 C2693 1.329 . S
C2691 H2710 0.930 1_655 S
C2692 C2688 1.415 . S
C2692 C2693 1.437 . S
C2692 C2696 1.413 . S
C2693 C2691 1.329 . S
C2693 C2692 1.437 . S
C2693 H2715 0.929 . S
N2694 C2688 1.369 . S
N2694 C2695 1.338 . S
N2694 Gd2699 2.622 . S
C2695 N2694 1.338 . S
C2695 C2697 1.378 . S
C2695 H2707 0.929 . S
C2696 C2692 1.413 . S
C2696 C2697 1.348 . S
C2696 H2712 0.931 . S
C2697 C2695 1.378 . S
C2697 C2696 1.348 . S
C2697 H2713 0.930 . S
Gd2698 N2718 2.622 . S
Gd2698 N2725 2.570 . S
Gd2698 O2732 2.353 . S
Gd2698 O2733 2.468 . S
Gd2698 O2734 2.427 . S
Gd2698 O2736 2.388 . S
Gd2698 O2737 2.386 . S
Gd2698 O2741 2.307 . S
Gd2698 C2751 2.805 . S
Gd2699 N2694 2.622 . S
Gd2699 N2700 2.570 . S
Gd2699 O2731 2.386 . S
Gd2699 O2735 2.307 . S
Gd2699 O2738 2.353 . S
Gd2699 O2739 2.468 . S
Gd2699 O2740 2.427 . S
Gd2699 O2742 2.388 . S
Gd2699 C2763 2.805 . S
N2700 C2690 1.359 . S
N2700 Gd2699 2.570 . S
N2700 C2702 1.343 . S
C2701 C2689 1.422 . S
C2701 C2703 1.321 . S
C2701 H2709 0.931 1_655 S
C2702 N2700 1.343 . S
C2702 C2703 1.390 . S
C2702 H2704 0.931 . S
C2703 C2701 1.321 . S
C2703 C2702 1.390 . S
C2703 H2705 0.930 . S
H2704 C2702 0.931 . S
H2705 C2703 0.930 . S
H2706 C2729 0.931 . S
H2707 C2695 0.929 . S
H2708 C2730 0.930 . S
H2709 C2701 0.931 1_455 S
H2710 C2691 0.930 1_455 S
H2711 C2720 0.929 . S
H2712 C2696 0.931 . S
H2713 C2697 0.930 . S
H2714 C2752 0.951 . S
H2715 C2693 0.929 . S
H2716 C2721 0.931 . S
H2717 C2722 0.930 . S
N2718 Gd2698 2.622 . S
N2718 C2719 1.369 . S
N2718 C2720 1.338 . S
C2719 N2718 1.369 . S
C2719 C2723 1.415 . S
C2719 C2726 1.422 . S
C2720 H2711 0.929 . S
C2720 N2718 1.338 . S
C2720 C2722 1.378 . S
C2721 H2716 0.931 . S
C2721 C2722 1.348 . S
C2721 C2723 1.413 . S
C2722 H2717 0.930 . S
C2722 C2720 1.378 . S
C2722 C2721 1.348 . S
C2723 C2719 1.415 . S
C2723 C2721 1.413 . S
C2723 C2753 1.437 . S
H2724 C2753 0.929 1_565 S
N2725 Gd2698 2.570 . S
N2725 C2726 1.359 . S
N2725 C2729 1.343 . S
C2726 C2719 1.422 . S
C2726 N2725 1.359 . S
C2726 C2728 1.421 . S
C2727 C2728 1.422 . S
C2727 C2730 1.321 . S
C2727 H2754 0.931 1_545 S
C2728 C2726 1.421 . S
C2728 C2727 1.422 . S
C2728 C2752 1.402 1_545 S
C2729 H2706 0.931 . S
C2729 N2725 1.343 . S
C2729 C2730 1.390 . S
C2730 H2708 0.930 . S
C2730 C2727 1.321 . S
C2730 C2729 1.390 . S
O2731 Gd2699 2.386 . S
O2731 C2743 1.265 . S
O2732 Gd2698 2.353 . S
O2732 C2743 1.242 . S
O2733 Gd2698 2.468 . S
O2733 C2751 1.263 . S
O2734 Gd2698 2.427 . S
O2734 C2751 1.252 . S
O2735 Gd2699 2.307 . S
O2735 C2744 1.261 . S
O2736 Gd2698 2.388 . S
O2736 C2744 1.252 . S
O2737 Gd2698 2.386 . S
O2737 C2755 1.265 . S
O2738 Gd2699 2.353 . S
O2738 C2755 1.242 . S
O2739 Gd2699 2.468 . S
O2739 C2763 1.263 . S
O2740 Gd2699 2.427 . S
O2740 C2763 1.252 . S
O2741 Gd2698 2.307 . S
O2741 C2756 1.261 . S
O2742 Gd2699 2.388 . S
O2742 C2756 1.252 . S
C2743 O2731 1.265 . S
C2743 O2732 1.242 . S
C2744 O2735 1.261 . S
C2744 O2736 1.252 . S
C2745 C2748 1.394 . S
C2745 C2750 1.370 . S
C2745 C2751 1.500 . S
C2746 C2749 1.383 . S
C2746 C2750 1.395 . S
C2747 C2748 1.396 . S
C2747 C2749 1.365 . S
C2747 H2764 0.929 . S
C2748 C2745 1.394 . S
C2748 C2747 1.396 . S
C2748 H2765 0.930 . S
C2749 C2746 1.383 . S
C2749 C2747 1.365 . S
C2749 H2766 0.931 . S
C2750 C2745 1.370 . S
C2750 C2746 1.395 . S
C2750 H2767 0.930 . S
C2751 Gd2698 2.805 . S
C2751 O2733 1.263 . S
C2751 O2734 1.252 . S
C2751 C2745 1.500 . S
C2752 H2714 0.951 . S
C2752 C2728 1.402 1_565 S
C2752 C2753 1.325 1_565 S
C2753 C2723 1.437 . S
C2753 H2724 0.929 1_545 S
C2753 C2752 1.325 1_545 S
H2754 C2727 0.931 1_565 S
C2755 O2737 1.265 . S
C2755 O2738 1.242 . S
C2756 O2741 1.261 . S
C2756 O2742 1.252 . S
C2757 C2760 1.394 1_655 S
C2757 C2762 1.370 1_655 S
C2757 C2763 1.500 . S
C2758 C2761 1.383 . S
C2758 C2762 1.395 . S
C2759 C2760 1.396 . S
C2759 C2761 1.365 . S
C2759 H2768 0.929 . S
C2760 C2757 1.394 1_455 S
C2760 C2759 1.396 . S
C2760 H2769 0.930 1_455 S
C2761 C2758 1.383 . S
C2761 C2759 1.365 . S
C2761 H2770 0.931 . S
C2762 C2757 1.370 1_455 S
C2762 C2758 1.395 . S
C2762 H2771 0.930 . S
C2763 Gd2699 2.805 . S
C2763 O2739 1.263 . S
C2763 O2740 1.252 . S
C2763 C2757 1.500 . S
H2764 C2747 0.929 . S
H2765 C2748 0.930 . S
H2766 C2749 0.931 . S
H2767 C2750 0.930 . S
H2768 C2759 0.929 . S
H2769 C2760 0.930 1_655 S
H2770 C2761 0.931 . S
H2771 C2762 0.930 . S
C2772 C2774 1.422 . S
C2772 C2776 1.415 . S
C2772 N2778 1.369 . S
C2773 C2774 1.421 . S
C2773 C2775 1.417 . S
C2773 C2785 1.422 . S
C2774 C2772 1.422 . S
C2774 C2773 1.421 . S
C2774 N2784 1.359 . S
C2775 C2773 1.417 . S
C2775 C2777 1.329 . S
C2775 H2794 0.930 . S
C2776 C2772 1.415 . S
C2776 C2777 1.437 . S
C2776 C2780 1.413 . S
C2777 C2775 1.329 . S
C2777 C2776 1.437 . S
C2777 H2799 0.929 . S
N2778 C2772 1.369 . S
N2778 C2779 1.338 . S
N2778 Gd2783 2.622 . S
C2779 N2778 1.338 . S
C2779 C2781 1.378 . S
C2779 H2791 0.929 . S
C2780 C2776 1.413 . S
C2780 C2781 1.348 . S
C2780 H2796 0.931 . S
C2781 C2779 1.378 . S
C2781 C2780 1.348 . S
C2781 H2797 0.930 . S
Gd2782 N2802 2.622 . S
Gd2782 N2809 2.570 . S
Gd2782 O2816 2.353 . S
Gd2782 O2817 2.468 . S
Gd2782 O2818 2.427 . S
Gd2782 O2820 2.388 . S
Gd2782 O2821 2.386 . S
Gd2782 O2825 2.307 . S
Gd2782 C2835 2.805 . S
Gd2783 N2778 2.622 . S
Gd2783 N2784 2.570 . S
Gd2783 O2815 2.386 . S
Gd2783 O2819 2.307 . S
Gd2783 O2822 2.353 . S
Gd2783 O2823 2.468 . S
Gd2783 O2824 2.427 . S
Gd2783 O2826 2.388 . S
Gd2783 C2847 2.805 . S
N2784 C2774 1.359 . S
N2784 Gd2783 2.570 . S
N2784 C2786 1.343 . S
C2785 C2773 1.422 . S
C2785 C2787 1.321 . S
C2785 H2793 0.931 . S
C2786 N2784 1.343 . S
C2786 C2787 1.390 . S
C2786 H2788 0.931 . S
C2787 C2785 1.321 . S
C2787 C2786 1.390 . S
C2787 H2789 0.930 . S
H2788 C2786 0.931 . S
H2789 C2787 0.930 . S
H2790 C2813 0.931 . S
H2791 C2779 0.929 . S
H2792 C2814 0.930 . S
H2793 C2785 0.931 . S
H2794 C2775 0.930 . S
H2795 C2804 0.929 . S
H2796 C2780 0.931 . S
H2797 C2781 0.930 . S
H2798 C2836 0.930 . S
H2799 C2777 0.929 . S
H2800 C2805 0.931 . S
H2801 C2806 0.930 . S
N2802 Gd2782 2.622 . S
N2802 C2803 1.369 . S
N2802 C2804 1.338 . S
C2803 N2802 1.369 . S
C2803 C2807 1.415 . S
C2803 C2810 1.422 . S
C2804 H2795 0.929 . S
C2804 N2802 1.338 . S
C2804 C2806 1.378 . S
C2805 H2800 0.931 . S
C2805 C2806 1.348 . S
C2805 C2807 1.413 . S
C2806 H2801 0.930 . S
C2806 C2804 1.378 . S
C2806 C2805 1.348 . S
C2807 C2803 1.415 . S
C2807 C2805 1.413 . S
C2807 C2837 1.437 . S
H2808 C2837 0.929 . S
N2809 Gd2782 2.570 . S
N2809 C2810 1.359 . S
N2809 C2813 1.343 . S
C2810 C2803 1.422 . S
C2810 N2809 1.359 . S
C2810 C2812 1.421 . S
C2811 C2812 1.422 . S
C2811 C2814 1.321 . S
C2811 H2838 0.931 . S
C2812 C2810 1.421 . S
C2812 C2811 1.422 . S
C2812 C2836 1.417 . S
C2813 H2790 0.931 . S
C2813 N2809 1.343 . S
C2813 C2814 1.390 . S
C2814 H2792 0.930 . S
C2814 C2811 1.321 . S
C2814 C2813 1.390 . S
O2815 Gd2783 2.386 . S
O2815 C2827 1.265 . S
O2816 Gd2782 2.353 . S
O2816 C2827 1.242 . S
O2817 Gd2782 2.468 . S
O2817 C2835 1.263 . S
O2818 Gd2782 2.427 . S
O2818 C2835 1.252 . S
O2819 Gd2783 2.307 . S
O2819 C2828 1.261 . S
O2820 Gd2782 2.388 . S
O2820 C2828 1.252 . S
O2821 Gd2782 2.386 . S
O2821 C2839 1.265 . S
O2822 Gd2783 2.353 . S
O2822 C2839 1.242 . S
O2823 Gd2783 2.468 . S
O2823 C2847 1.263 . S
O2824 Gd2783 2.427 . S
O2824 C2847 1.252 . S
O2825 Gd2782 2.307 . S
O2825 C2840 1.261 . S
O2826 Gd2783 2.388 . S
O2826 C2840 1.252 . S
C2827 O2815 1.265 . S
C2827 O2816 1.242 . S
C2828 O2819 1.261 . S
C2828 O2820 1.252 . S
C2829 C2832 1.394 . S
C2829 C2834 1.370 . S
C2829 C2835 1.500 . S
C2830 C2833 1.383 . S
C2830 C2834 1.395 . S
C2831 C2832 1.396 . S
C2831 C2833 1.365 . S
C2831 H2848 0.929 . S
C2832 C2829 1.394 . S
C2832 C2831 1.396 . S
C2832 H2849 0.930 . S
C2833 C2830 1.383 . S
C2833 C2831 1.365 . S
C2833 H2850 0.931 . S
C2834 C2829 1.370 . S
C2834 C2830 1.395 . S
C2834 H2851 0.930 . S
C2835 Gd2782 2.805 . S
C2835 O2817 1.263 . S
C2835 O2818 1.252 . S
C2835 C2829 1.500 . S
C2836 H2798 0.930 . S
C2836 C2812 1.417 . S
C2836 C2837 1.329 . S
C2837 C2807 1.437 . S
C2837 H2808 0.929 . S
C2837 C2836 1.329 . S
H2838 C2811 0.931 . S
C2839 O2821 1.265 . S
C2839 O2822 1.242 . S
C2840 O2825 1.261 . S
C2840 O2826 1.252 . S
C2841 C2844 1.394 . S
C2841 C2846 1.370 . S
C2841 C2847 1.500 . S
C2842 C2845 1.383 . S
C2842 C2846 1.395 . S
C2843 C2844 1.396 . S
C2843 C2845 1.365 . S
C2843 H2852 0.929 . S
C2844 C2841 1.394 . S
C2844 C2843 1.396 . S
C2844 H2853 0.930 . S
C2845 C2842 1.383 . S
C2845 C2843 1.365 . S
C2845 H2854 0.931 . S
C2846 C2841 1.370 . S
C2846 C2842 1.395 . S
C2846 H2855 0.930 . S
C2847 Gd2783 2.805 . S
C2847 O2823 1.263 . S
C2847 O2824 1.252 . S
C2847 C2841 1.500 . S
H2848 C2831 0.929 . S
H2849 C2832 0.930 . S
H2850 C2833 0.931 . S
H2851 C2834 0.930 . S
H2852 C2843 0.929 . S
H2853 C2844 0.930 . S
H2854 C2845 0.931 . S
H2855 C2846 0.930 . S
C2856 C2858 1.422 . S
C2856 C2860 1.415 . S
C2856 N2862 1.369 . S
C2857 C2858 1.421 1_455 S
C2857 C2859 1.417 . S
C2857 C2869 1.422 . S
C2858 C2856 1.422 . S
C2858 C2857 1.421 1_655 S
C2858 N2868 1.359 . S
C2859 C2857 1.417 . S
C2859 C2861 1.329 . S
C2859 H2878 0.930 . S
C2860 C2856 1.415 . S
C2860 C2861 1.437 1_655 S
C2860 C2864 1.413 . S
C2861 C2859 1.329 . S
C2861 C2860 1.437 1_455 S
C2861 H2883 0.929 . S
N2862 C2856 1.369 . S
N2862 C2863 1.338 . S
N2862 Gd2867 2.622 . S
C2863 N2862 1.338 . S
C2863 C2865 1.378 . S
C2863 H2875 0.929 . S
C2864 C2860 1.413 . S
C2864 C2865 1.348 . S
C2864 H2880 0.931 . S
C2865 C2863 1.378 . S
C2865 C2864 1.348 . S
C2865 H2881 0.930 . S
Gd2866 N2886 2.622 . S
Gd2866 N2893 2.570 . S
Gd2866 O2900 2.353 . S
Gd2866 O2901 2.468 . S
Gd2866 O2902 2.427 . S
Gd2866 O2904 2.388 . S
Gd2866 O2905 2.386 . S
Gd2866 O2909 2.307 . S
Gd2866 C2919 2.805 . S
Gd2867 N2862 2.622 . S
Gd2867 N2868 2.570 . S
Gd2867 O2899 2.386 . S
Gd2867 O2903 2.307 . S
Gd2867 O2906 2.353 . S
Gd2867 O2907 2.468 . S
Gd2867 O2908 2.427 . S
Gd2867 O2910 2.388 . S
Gd2867 C2931 2.805 . S
N2868 C2858 1.359 . S
N2868 Gd2867 2.570 . S
N2868 C2870 1.343 . S
C2869 C2857 1.422 . S
C2869 C2871 1.299 1_455 S
C2869 H2877 0.931 . S
C2870 N2868 1.343 . S
C2870 C2871 1.417 . S
C2870 H2872 0.931 . S
C2871 C2869 1.299 1_655 S
C2871 C2870 1.417 . S
C2871 H2873 0.926 1_655 S
H2872 C2870 0.931 . S
H2873 C2871 0.926 1_455 S
H2874 C2897 0.931 . S
H2875 C2863 0.929 . S
H2876 C2898 0.930 . S
H2877 C2869 0.931 . S
H2878 C2859 0.930 . S
H2879 C2888 0.929 . S
H2880 C2864 0.931 . S
H2881 C2865 0.930 . S
H2882 C2920 0.930 . S
H2883 C2861 0.929 . S
H2884 C2889 0.931 . S
H2885 C2890 0.930 . S
N2886 Gd2866 2.622 . S
N2886 C2887 1.369 . S
N2886 C2888 1.338 . S
C2887 N2886 1.369 . S
C2887 C2891 1.415 . S
C2887 C2894 1.422 . S
C2888 H2879 0.929 . S
C2888 N2886 1.338 . S
C2888 C2890 1.378 . S
C2889 H2884 0.931 . S
C2889 C2890 1.348 . S
C2889 C2891 1.413 . S
C2890 H2885 0.930 . S
C2890 C2888 1.378 . S
C2890 C2889 1.348 . S
C2891 C2887 1.415 . S
C2891 C2889 1.413 . S
C2891 C2921 1.437 . S
H2892 C2921 0.929 . S
N2893 Gd2866 2.570 . S
N2893 C2894 1.359 . S
N2893 C2897 1.343 . S
C2894 C2887 1.422 . S
C2894 N2893 1.359 . S
C2894 C2896 1.421 . S
C2895 C2896 1.422 . S
C2895 C2898 1.321 . S
C2895 H2922 0.931 . S
C2896 C2894 1.421 . S
C2896 C2895 1.422 . S
C2896 C2920 1.417 . S
C2897 H2874 0.931 . S
C2897 N2893 1.343 . S
C2897 C2898 1.390 . S
C2898 H2876 0.930 . S
C2898 C2895 1.321 . S
C2898 C2897 1.390 . S
O2899 Gd2867 2.386 . S
O2899 C2911 1.265 . S
O2900 Gd2866 2.353 . S
O2900 C2911 1.242 . S
O2901 Gd2866 2.468 . S
O2901 C2919 1.263 . S
O2902 Gd2866 2.427 . S
O2902 C2919 1.252 . S
O2903 Gd2867 2.307 . S
O2903 C2912 1.261 . S
O2904 Gd2866 2.388 . S
O2904 C2912 1.252 . S
O2905 Gd2866 2.386 . S
O2905 C2923 1.265 . S
O2906 Gd2867 2.353 . S
O2906 C2923 1.242 . S
O2907 Gd2867 2.468 . S
O2907 C2931 1.263 . S
O2908 Gd2867 2.427 . S
O2908 C2931 1.252 . S
O2909 Gd2866 2.307 . S
O2909 C2924 1.261 . S
O2910 Gd2867 2.388 . S
O2910 C2924 1.252 . S
C2911 O2899 1.265 . S
C2911 O2900 1.242 . S
C2912 O2903 1.261 . S
C2912 O2904 1.252 . S
C2913 C2916 1.394 . S
C2913 C2918 1.370 . S
C2913 C2919 1.500 . S
C2914 C2917 1.383 . S
C2914 C2918 1.395 1_565 S
C2915 C2916 1.396 1_565 S
C2915 C2917 1.365 . S
C2915 H2932 0.929 . S
C2916 C2913 1.394 . S
C2916 C2915 1.396 1_545 S
C2916 H2933 0.930 . S
C2917 C2914 1.383 . S
C2917 C2915 1.365 . S
C2917 H2934 0.931 . S
C2918 C2913 1.370 . S
C2918 C2914 1.395 1_545 S
C2918 H2935 0.930 . S
C2919 Gd2866 2.805 . S
C2919 O2901 1.263 . S
C2919 O2902 1.252 . S
C2919 C2913 1.500 . S
C2920 H2882 0.930 . S
C2920 C2896 1.417 . S
C2920 C2921 1.329 . S
C2921 C2891 1.437 . S
C2921 H2892 0.929 . S
C2921 C2920 1.329 . S
H2922 C2895 0.931 . S
C2923 O2905 1.265 . S
C2923 O2906 1.242 . S
C2924 O2909 1.261 . S
C2924 O2910 1.252 . S
C2925 C2928 1.394 . S
C2925 C2930 1.370 . S
C2925 C2931 1.500 . S
C2926 C2929 1.383 . S
C2926 C2930 1.395 . S
C2927 C2928 1.396 . S
C2927 C2929 1.365 . S
C2927 H2936 0.929 . S
C2928 C2925 1.394 . S
C2928 C2927 1.396 . S
C2928 H2937 0.930 . S
C2929 C2926 1.383 . S
C2929 C2927 1.365 . S
C2929 H2938 0.931 . S
C2930 C2925 1.370 . S
C2930 C2926 1.395 . S
C2930 H2939 0.930 . S
C2931 Gd2867 2.805 . S
C2931 O2907 1.263 . S
C2931 O2908 1.252 . S
C2931 C2925 1.500 . S
H2932 C2915 0.929 . S
H2933 C2916 0.930 . S
H2934 C2917 0.931 . S
H2935 C2918 0.930 . S
H2936 C2927 0.929 . S
H2937 C2928 0.930 . S
H2938 C2929 0.931 . S
H2939 C2930 0.930 . S
C2940 C2942 1.422 . S
C2940 C2944 1.415 . S
C2940 N2946 1.369 . S
C2941 C2942 1.421 . S
C2941 C2943 1.417 . S
C2941 C2953 1.422 . S
C2942 C2940 1.422 . S
C2942 C2941 1.421 . S
C2942 N2952 1.359 . S
C2943 C2941 1.417 . S
C2943 C2945 1.329 . S
C2943 H2962 0.930 . S
C2944 C2940 1.415 . S
C2944 C2945 1.437 . S
C2944 C2948 1.413 . S
C2945 C2943 1.329 . S
C2945 C2944 1.437 . S
C2945 H2967 0.929 . S
N2946 C2940 1.369 . S
N2946 C2947 1.338 . S
N2946 Gd2951 2.622 . S
C2947 N2946 1.338 . S
C2947 C2949 1.378 . S
C2947 H2959 0.929 . S
C2948 C2944 1.413 . S
C2948 C2949 1.348 . S
C2948 H2964 0.931 . S
C2949 C2947 1.378 . S
C2949 C2948 1.348 . S
C2949 H2965 0.930 . S
Gd2950 N2970 2.622 . S
Gd2950 N2977 2.570 1_655 S
Gd2950 O2984 2.353 . S
Gd2950 O2985 2.468 1_655 S
Gd2950 O2986 2.427 . S
Gd2950 O2988 2.388 . S
Gd2950 O2989 2.386 . S
Gd2950 O2993 2.307 . S
Gd2950 C3003 2.805 1_655 S
Gd2951 N2946 2.622 . S
Gd2951 N2952 2.570 . S
Gd2951 O2983 2.386 . S
Gd2951 O2987 2.307 . S
Gd2951 O2990 2.353 . S
Gd2951 O2991 2.468 . S
Gd2951 O2992 2.427 . S
Gd2951 O2994 2.388 . S
Gd2951 C3015 2.805 . S
N2952 C2942 1.359 . S
N2952 Gd2951 2.570 . S
N2952 C2954 1.343 . S
C2953 C2941 1.422 . S
C2953 C2955 1.321 . S
C2953 H2961 0.931 . S
C2954 N2952 1.343 . S
C2954 C2955 1.390 . S
C2954 H2956 0.931 . S
C2955 C2953 1.321 . S
C2955 C2954 1.390 . S
C2955 H2957 0.930 . S
H2956 C2954 0.931 . S
H2957 C2955 0.930 . S
H2958 C2981 0.931 . S
H2959 C2947 0.929 . S
H2960 C2982 0.930 . S
H2961 C2953 0.931 . S
H2962 C2943 0.930 . S
H2963 C2972 0.929 . S
H2964 C2948 0.931 . S
H2965 C2949 0.930 . S
H2966 C3004 0.930 . S
H2967 C2945 0.929 . S
H2968 C2973 0.931 1_455 S
H2969 C2974 0.930 . S
N2970 Gd2950 2.622 . S
N2970 C2971 1.387 . S
N2970 C2972 1.338 . S
C2971 N2970 1.387 . S
C2971 C2975 1.405 1_655 S
C2971 C2978 1.415 1_655 S
C2972 H2963 0.929 . S
C2972 N2970 1.338 . S
C2972 C2974 1.378 . S
C2973 H2968 0.931 1_655 S
C2973 C2974 1.348 . S
C2973 C2975 1.413 1_655 S
C2974 H2969 0.930 . S
C2974 C2972 1.378 . S
C2974 C2973 1.348 . S
C2975 C2971 1.405 1_455 S
C2975 C2973 1.413 1_455 S
C2975 C3005 1.437 . S
H2976 C3005 0.929 . S
N2977 Gd2950 2.570 1_455 S
N2977 C2978 1.359 . S
N2977 C2981 1.343 . S
C2978 C2971 1.415 1_455 S
C2978 N2977 1.359 . S
C2978 C2980 1.421 . S
C2979 C2980 1.422 . S
C2979 C2982 1.321 . S
C2979 H3006 0.931 . S
C2980 C2978 1.421 . S
C2980 C2979 1.422 . S
C2980 C3004 1.417 . S
C2981 H2958 0.931 . S
C2981 N2977 1.343 . S
C2981 C2982 1.390 . S
C2982 H2960 0.930 . S
C2982 C2979 1.321 . S
C2982 C2981 1.390 . S
O2983 Gd2951 2.386 . S
O2983 C2995 1.265 . S
O2984 Gd2950 2.353 . S
O2984 C2995 1.242 . S
O2985 Gd2950 2.468 1_455 S
O2985 C3003 1.263 . S
O2986 Gd2950 2.427 . S
O2986 C3003 1.252 1_655 S
O2987 Gd2951 2.307 . S
O2987 C2996 1.261 . S
O2988 Gd2950 2.388 . S
O2988 C2996 1.252 . S
O2989 Gd2950 2.386 . S
O2989 C3007 1.265 . S
O2990 Gd2951 2.353 . S
O2990 C3007 1.242 . S
O2991 Gd2951 2.468 . S
O2991 C3015 1.263 . S
O2992 Gd2951 2.427 . S
O2992 C3015 1.252 . S
O2993 Gd2950 2.307 . S
O2993 C3008 1.261 . S
O2994 Gd2951 2.388 . S
O2994 C3008 1.252 . S
C2995 O2983 1.265 . S
C2995 O2984 1.242 . S
C2996 O2987 1.261 . S
C2996 O2988 1.252 . S
C2997 C3000 1.394 . S
C2997 C3002 1.370 . S
C2997 C3003 1.500 . S
C2998 C3001 1.383 . S
C2998 C3002 1.395 . S
C2999 C3000 1.396 . S
C2999 C3001 1.365 . S
C2999 H3016 0.929 . S
C3000 C2997 1.394 . S
C3000 C2999 1.396 . S
C3000 H3017 0.930 . S
C3001 C2998 1.383 . S
C3001 C2999 1.365 . S
C3001 H3018 0.931 . S
C3002 C2997 1.370 . S
C3002 C2998 1.395 . S
C3002 H3019 0.930 . S
C3003 Gd2950 2.805 1_455 S
C3003 O2985 1.263 . S
C3003 O2986 1.252 1_455 S
C3003 C2997 1.500 . S
C3004 H2966 0.930 . S
C3004 C2980 1.417 . S
C3004 C3005 1.329 . S
C3005 C2975 1.437 . S
C3005 H2976 0.929 . S
C3005 C3004 1.329 . S
H3006 C2979 0.931 . S
C3007 O2989 1.265 . S
C3007 O2990 1.242 . S
C3008 O2993 1.261 . S
C3008 O2994 1.252 . S
C3009 C3012 1.394 . S
C3009 C3014 1.370 . S
C3009 C3015 1.500 . S
C3010 C3013 1.383 . S
C3010 C3014 1.395 . S
C3011 C3012 1.396 . S
C3011 C3013 1.365 . S
C3011 H3020 0.929 . S
C3012 C3009 1.394 . S
C3012 C3011 1.396 . S
C3012 H3021 0.930 . S
C3013 C3010 1.383 . S
C3013 C3011 1.365 . S
C3013 H3022 0.931 . S
C3014 C3009 1.370 . S
C3014 C3010 1.395 . S
C3014 H3023 0.930 . S
C3015 Gd2951 2.805 . S
C3015 O2991 1.263 . S
C3015 O2992 1.252 . S
C3015 C3009 1.500 . S
H3016 C2999 0.929 . S
H3017 C3000 0.930 . S
H3018 C3001 0.931 . S
H3019 C3002 0.930 . S
H3020 C3011 0.929 . S
H3021 C3012 0.930 . S
H3022 C3013 0.931 . S
H3023 C3014 0.930 . S
C3024 C3025 1.391 . S
C3024 C3026 1.394 . S
C3024 H3040 0.931 . S
C3025 C3024 1.391 . S
C3025 C3029 1.376 . S
C3026 C3024 1.394 . S
C3026 C3027 1.369 . S
C3026 C3030 1.531 . S
C3027 C3026 1.369 . S
C3027 C3028 1.410 . S
C3027 C3035 1.503 . S
C3028 C3027 1.410 . S
C3028 C3029 1.392 . S
C3028 C3031 1.511 . S
C3029 C3025 1.376 . S
C3029 C3028 1.392 . S
C3029 H3041 0.929 . S
C3030 C3026 1.531 . S
C3030 H3042 0.960 . S
C3030 H3043 0.962 . S
C3030 H3044 0.960 . S
C3031 C3028 1.511 . S
C3031 H3045 0.961 . S
C3031 H3046 0.961 . S
C3031 H3047 0.961 . S
C3032 C3033 1.370 . S
C3032 C3034 1.363 . S
C3032 H3048 0.931 . S
C3033 C3032 1.370 . S
C3033 C3037 1.408 . S
C3034 C3032 1.363 . S
C3034 C3035 1.370 . S
C3034 C3038 1.524 . S
C3035 C3027 1.503 . S
C3035 C3034 1.370 . S
C3035 C3036 1.403 . S
C3036 C3035 1.403 . S
C3036 C3037 1.404 . S
C3036 C3039 1.539 . S
C3037 C3033 1.408 . S
C3037 C3036 1.404 . S
C3037 H3049 0.930 . S
C3038 C3034 1.524 . S
C3038 H3050 0.956 . S
C3038 H3051 0.961 . S
C3038 H3052 0.961 . S
C3039 C3036 1.539 . S
C3039 H3053 0.958 . S
C3039 H3054 0.961 . S
C3039 H3055 0.960 . S
H3040 C3024 0.931 . S
H3041 C3029 0.929 . S
H3042 C3030 0.960 . S
H3043 C3030 0.962 . S
H3044 C3030 0.960 . S
H3045 C3031 0.961 . S
H3046 C3031 0.961 . S
H3047 C3031 0.961 . S
H3048 C3032 0.931 . S
H3049 C3037 0.930 . S
H3050 C3038 0.956 . S
H3051 C3038 0.961 . S
H3052 C3038 0.961 . S
H3053 C3039 0.958 . S
H3054 C3039 0.961 . S
H3055 C3039 0.960 . S
C3056 C3057 1.391 . S
C3056 C3058 1.394 . S
C3056 H3072 0.931 . S
C3057 C3056 1.391 . S
C3057 C3061 1.376 . S
C3058 C3056 1.394 . S
C3058 C3059 1.369 . S
C3058 C3062 1.531 . S
C3059 C3058 1.369 . S
C3059 C3060 1.410 . S
C3059 C3067 1.503 . S
C3060 C3059 1.410 . S
C3060 C3061 1.392 . S
C3060 C3063 1.511 . S
C3061 C3057 1.376 . S
C3061 C3060 1.392 . S
C3061 H3073 0.929 . S
C3062 C3058 1.531 . S
C3062 H3074 0.960 . S
C3062 H3075 0.962 . S
C3062 H3076 0.960 . S
C3063 C3060 1.511 . S
C3063 H3077 0.961 . S
C3063 H3078 0.961 . S
C3063 H3079 0.961 . S
C3064 C3065 1.370 1_455 S
C3064 C3066 1.363 1_455 S
C3064 H3080 0.931 . S
C3065 C3064 1.370 1_655 S
C3065 C3069 1.408 . S
C3066 C3064 1.363 1_655 S
C3066 C3067 1.370 . S
C3066 C3070 1.524 1_655 S
C3067 C3059 1.503 . S
C3067 C3066 1.370 . S
C3067 C3068 1.403 . S
C3068 C3067 1.403 . S
C3068 C3069 1.404 . S
C3068 C3071 1.539 . S
C3069 C3065 1.408 . S
C3069 C3068 1.404 . S
C3069 H3081 0.930 . S
C3070 C3066 1.524 1_455 S
C3070 H3082 0.956 . S
C3070 H3083 0.961 . S
C3070 H3084 0.961 . S
C3071 C3068 1.539 . S
C3071 H3085 0.958 . S
C3071 H3086 0.961 . S
C3071 H3087 0.960 . S
H3072 C3056 0.931 . S
H3073 C3061 0.929 . S
H3074 C3062 0.960 . S
H3075 C3062 0.962 . S
H3076 C3062 0.960 . S
H3077 C3063 0.961 . S
H3078 C3063 0.961 . S
H3079 C3063 0.961 . S
H3080 C3064 0.931 . S
H3081 C3069 0.930 . S
H3082 C3070 0.956 . S
H3083 C3070 0.961 . S
H3084 C3070 0.961 . S
H3085 C3071 0.958 . S
H3086 C3071 0.961 . S
H3087 C3071 0.960 . S
C3088 C3089 1.391 . S
C3088 C3090 1.394 . S
C3088 H3104 0.931 . S
C3089 C3088 1.391 . S
C3089 C3093 1.376 . S
C3090 C3088 1.394 . S
C3090 C3091 1.369 . S
C3090 C3094 1.531 . S
C3091 C3090 1.369 . S
C3091 C3092 1.410 . S
C3091 C3099 1.503 . S
C3092 C3091 1.410 . S
C3092 C3093 1.392 . S
C3092 C3095 1.511 . S
C3093 C3089 1.376 . S
C3093 C3092 1.392 . S
C3093 H3105 0.929 . S
C3094 C3090 1.531 . S
C3094 H3106 0.960 . S
C3094 H3107 0.962 . S
C3094 H3108 0.960 . S
C3095 C3092 1.511 . S
C3095 H3109 0.961 . S
C3095 H3110 0.961 . S
C3095 H3111 0.961 . S
C3096 C3097 1.370 . S
C3096 C3098 1.363 . S
C3096 H3112 0.931 . S
C3097 C3096 1.370 . S
C3097 C3101 1.408 . S
C3098 C3096 1.363 . S
C3098 C3099 1.370 . S
C3098 C3102 1.524 . S
C3099 C3091 1.503 . S
C3099 C3098 1.370 . S
C3099 C3100 1.403 . S
C3100 C3099 1.403 . S
C3100 C3101 1.404 . S
C3100 C3103 1.539 . S
C3101 C3097 1.408 . S
C3101 C3100 1.404 . S
C3101 H3113 0.930 . S
C3102 C3098 1.524 . S
C3102 H3114 0.956 . S
C3102 H3115 0.961 . S
C3102 H3116 0.961 . S
C3103 C3100 1.539 . S
C3103 H3117 0.958 . S
C3103 H3118 0.961 . S
C3103 H3119 0.960 . S
H3104 C3088 0.931 . S
H3105 C3093 0.929 . S
H3106 C3094 0.960 . S
H3107 C3094 0.962 . S
H3108 C3094 0.960 . S
H3109 C3095 0.961 . S
H3110 C3095 0.961 . S
H3111 C3095 0.961 . S
H3112 C3096 0.931 . S
H3113 C3101 0.930 . S
H3114 C3102 0.956 . S
H3115 C3102 0.961 . S
H3116 C3102 0.961 . S
H3117 C3103 0.958 . S
H3118 C3103 0.961 . S
H3119 C3103 0.960 . S
C3120 C3121 1.391 . S
C3120 C3122 1.394 . S
C3120 H3136 0.931 . S
C3121 C3120 1.391 . S
C3121 C3125 1.376 . S
C3122 C3120 1.394 . S
C3122 C3123 1.369 . S
C3122 C3126 1.531 . S
C3123 C3122 1.369 . S
C3123 C3124 1.410 . S
C3123 C3131 1.503 . S
C3124 C3123 1.410 . S
C3124 C3125 1.392 . S
C3124 C3127 1.511 . S
C3125 C3121 1.376 . S
C3125 C3124 1.392 . S
C3125 H3137 0.929 . S
C3126 C3122 1.531 . S
C3126 H3138 0.960 . S
C3126 H3139 0.962 . S
C3126 H3140 0.960 . S
C3127 C3124 1.511 . S
C3127 H3141 0.961 . S
C3127 H3142 0.961 . S
C3127 H3143 0.961 . S
C3128 C3129 1.370 . S
C3128 C3130 1.363 . S
C3128 H3144 0.931 . S
C3129 C3128 1.370 . S
C3129 C3133 1.408 . S
C3130 C3128 1.363 . S
C3130 C3131 1.370 . S
C3130 C3134 1.524 . S
C3131 C3123 1.503 . S
C3131 C3130 1.370 . S
C3131 C3132 1.403 . S
C3132 C3131 1.403 . S
C3132 C3133 1.404 . S
C3132 C3135 1.539 . S
C3133 C3129 1.408 . S
C3133 C3132 1.404 . S
C3133 H3145 0.930 . S
C3134 C3130 1.524 . S
C3134 H3146 0.956 . S
C3134 H3147 0.961 . S
C3134 H3148 0.961 . S
C3135 C3132 1.539 . S
C3135 H3149 0.958 . S
C3135 H3150 0.961 . S
C3135 H3151 0.960 . S
H3136 C3120 0.931 . S
H3137 C3125 0.929 . S
H3138 C3126 0.960 . S
H3139 C3126 0.962 . S
H3140 C3126 0.960 . S
H3141 C3127 0.961 . S
H3142 C3127 0.961 . S
H3143 C3127 0.961 . S
H3144 C3128 0.931 . S
H3145 C3133 0.930 . S
H3146 C3134 0.956 . S
H3147 C3134 0.961 . S
H3148 C3134 0.961 . S
H3149 C3135 0.958 . S
H3150 C3135 0.961 . S
H3151 C3135 0.960 . S
C3152 C3153 1.391 . S
C3152 C3154 1.394 . S
C3152 H3168 0.931 . S
C3153 C3152 1.391 . S
C3153 C3157 1.376 . S
C3154 C3152 1.394 . S
C3154 C3155 1.369 . S
C3154 C3158 1.531 . S
C3155 C3154 1.369 . S
C3155 C3156 1.410 . S
C3155 C3163 1.503 . S
C3156 C3155 1.410 . S
C3156 C3157 1.392 . S
C3156 C3159 1.511 . S
C3157 C3153 1.376 . S
C3157 C3156 1.392 . S
C3157 H3169 0.929 . S
C3158 C3154 1.531 . S
C3158 H3170 0.960 . S
C3158 H3171 0.962 . S
C3158 H3172 0.960 . S
C3159 C3156 1.511 . S
C3159 H3173 0.961 . S
C3159 H3174 0.961 . S
C3159 H3175 0.961 . S
C3160 C3161 1.370 . S
C3160 C3162 1.363 . S
C3160 H3176 0.931 . S
C3161 C3160 1.370 . S
C3161 C3165 1.408 . S
C3162 C3160 1.363 . S
C3162 C3163 1.370 . S
C3162 C3166 1.524 . S
C3163 C3155 1.503 . S
C3163 C3162 1.370 . S
C3163 C3164 1.403 . S
C3164 C3163 1.403 . S
C3164 C3165 1.404 . S
C3164 C3167 1.539 . S
C3165 C3161 1.408 . S
C3165 C3164 1.404 . S
C3165 H3177 0.930 . S
C3166 C3162 1.524 . S
C3166 H3178 0.956 . S
C3166 H3179 0.961 . S
C3166 H3180 0.961 . S
C3167 C3164 1.539 . S
C3167 H3181 0.958 . S
C3167 H3182 0.961 . S
C3167 H3183 0.960 . S
H3168 C3152 0.931 . S
H3169 C3157 0.929 . S
H3170 C3158 0.960 . S
H3171 C3158 0.962 . S
H3172 C3158 0.960 . S
H3173 C3159 0.961 . S
H3174 C3159 0.961 . S
H3175 C3159 0.961 . S
H3176 C3160 0.931 . S
H3177 C3165 0.930 . S
H3178 C3166 0.956 . S
H3179 C3166 0.961 . S
H3180 C3166 0.961 . S
H3181 C3167 0.958 . S
H3182 C3167 0.961 . S
H3183 C3167 0.960 . S
C3184 C3185 1.391 . S
C3184 C3186 1.394 . S
C3184 H3200 0.931 . S
C3185 C3184 1.391 . S
C3185 C3189 1.376 . S
C3186 C3184 1.394 . S
C3186 C3187 1.369 . S
C3186 C3190 1.531 . S
C3187 C3186 1.369 . S
C3187 C3188 1.410 . S
C3187 C3195 1.503 . S
C3188 C3187 1.410 . S
C3188 C3189 1.392 . S
C3188 C3191 1.511 . S
C3189 C3185 1.376 . S
C3189 C3188 1.392 . S
C3189 H3201 0.929 . S
C3190 C3186 1.531 . S
C3190 H3202 0.960 . S
C3190 H3203 0.962 . S
C3190 H3204 0.960 . S
C3191 C3188 1.511 . S
C3191 H3205 0.961 . S
C3191 H3206 0.961 . S
C3191 H3207 0.961 . S
C3192 C3193 1.370 . S
C3192 C3194 1.363 . S
C3192 H3208 0.931 . S
C3193 C3192 1.370 . S
C3193 C3197 1.408 1_565 S
C3194 C3192 1.363 . S
C3194 C3195 1.370 . S
C3194 C3198 1.524 . S
C3195 C3187 1.503 . S
C3195 C3194 1.370 . S
C3195 C3196 1.403 1_565 S
C3196 C3195 1.403 1_545 S
C3196 C3197 1.404 . S
C3196 C3199 1.539 . S
C3197 C3193 1.408 1_545 S
C3197 C3196 1.404 . S
C3197 H3209 0.930 . S
C3198 C3194 1.524 . S
C3198 H3210 0.956 . S
C3198 H3211 0.961 . S
C3198 H3212 0.961 . S
C3199 C3196 1.539 . S
C3199 H3213 0.958 . S
C3199 H3214 0.961 . S
C3199 H3215 0.960 . S
H3200 C3184 0.931 . S
H3201 C3189 0.929 . S
H3202 C3190 0.960 . S
H3203 C3190 0.962 . S
H3204 C3190 0.960 . S
H3205 C3191 0.961 . S
H3206 C3191 0.961 . S
H3207 C3191 0.961 . S
H3208 C3192 0.931 . S
H3209 C3197 0.930 . S
H3210 C3198 0.956 . S
H3211 C3198 0.961 . S
H3212 C3198 0.961 . S
H3213 C3199 0.958 . S
H3214 C3199 0.961 . S
H3215 C3199 0.960 . S
C3216 C3217 1.391 . S
C3216 C3218 1.394 . S
C3216 H3232 0.952 . S
C3217 C3216 1.391 . S
C3217 C3221 1.376 . S
C3218 C3216 1.394 . S
C3218 C3219 1.369 . S
C3218 C3222 1.531 . S
C3219 C3218 1.369 . S
C3219 C3220 1.410 . S
C3219 C3227 1.503 . S
C3220 C3219 1.410 . S
C3220 C3221 1.392 . S
C3220 C3223 1.511 . S
C3221 C3217 1.376 . S
C3221 C3220 1.392 . S
C3221 H3233 0.929 . S
C3222 C3218 1.531 . S
C3222 H3234 0.960 . S
C3222 H3235 0.962 . S
C3222 H3236 0.960 . S
C3223 C3220 1.511 . S
C3223 H3237 0.961 . S
C3223 H3238 0.961 . S
C3223 H3239 0.961 . S
C3224 C3225 1.370 . S
C3224 C3226 1.363 . S
C3224 H3240 0.931 . S
C3225 C3224 1.370 . S
C3225 C3229 1.408 . S
C3226 C3224 1.363 . S
C3226 C3227 1.370 . S
C3226 C3230 1.524 . S
C3227 C3219 1.503 . S
C3227 C3226 1.370 . S
C3227 C3228 1.403 . S
C3228 C3227 1.403 . S
C3228 C3229 1.404 . S
C3228 C3231 1.539 1_565 S
C3229 C3225 1.408 . S
C3229 C3228 1.404 . S
C3229 H3241 0.930 . S
C3230 C3226 1.524 . S
C3230 H3242 0.956 . S
C3230 H3243 0.961 . S
C3230 H3244 0.961 . S
C3231 C3228 1.539 1_545 S
C3231 H3245 0.958 . S
C3231 H3246 0.961 . S
C3231 H3247 0.960 . S
H3232 C3216 0.952 . S
H3233 C3221 0.929 . S
H3234 C3222 0.960 . S
H3235 C3222 0.962 . S
H3236 C3222 0.960 . S
H3237 C3223 0.961 . S
H3238 C3223 0.961 . S
H3239 C3223 0.961 . S
H3240 C3224 0.931 . S
H3241 C3229 0.930 . S
H3242 C3230 0.956 . S
H3243 C3230 0.961 . S
H3244 C3230 0.961 . S
H3245 C3231 0.958 . S
H3246 C3231 0.961 . S
H3247 C3231 0.960 . S
C3248 C3249 1.391 . S
C3248 C3250 1.394 . S
C3248 H3264 0.931 . S
C3249 C3248 1.391 . S
C3249 C3253 1.376 . S
C3250 C3248 1.394 . S
C3250 C3251 1.369 . S
C3250 C3254 1.531 . S
C3251 C3250 1.369 . S
C3251 C3252 1.410 . S
C3251 C3259 1.503 . S
C3252 C3251 1.410 . S
C3252 C3253 1.392 . S
C3252 C3255 1.511 . S
C3253 C3249 1.376 . S
C3253 C3252 1.392 . S
C3253 H3265 0.929 . S
C3254 C3250 1.531 . S
C3254 H3266 0.960 . S
C3254 H3267 0.962 . S
C3254 H3268 0.960 . S
C3255 C3252 1.511 . S
C3255 H3269 0.961 . S
C3255 H3270 0.961 . S
C3255 H3271 0.961 . S
C3256 C3257 1.370 . S
C3256 C3258 1.363 . S
C3256 H3272 0.931 . S
C3257 C3256 1.370 . S
C3257 C3261 1.408 . S
C3258 C3256 1.363 . S
C3258 C3259 1.370 . S
C3258 C3262 1.524 . S
C3259 C3251 1.503 . S
C3259 C3258 1.370 . S
C3259 C3260 1.403 . S
C3260 C3259 1.403 . S
C3260 C3261 1.404 . S
C3260 C3263 1.539 . S
C3261 C3257 1.408 . S
C3261 C3260 1.404 . S
C3261 H3273 0.930 . S
C3262 C3258 1.524 . S
C3262 H3274 0.956 . S
C3262 H3275 0.961 . S
C3262 H3276 0.961 . S
C3263 C3260 1.539 . S
C3263 H3277 0.958 . S
C3263 H3278 0.961 . S
C3263 H3279 0.960 . S
H3264 C3248 0.931 . S
H3265 C3253 0.929 . S
H3266 C3254 0.960 . S
H3267 C3254 0.962 . S
H3268 C3254 0.960 . S
H3269 C3255 0.961 . S
H3270 C3255 0.961 . S
H3271 C3255 0.961 . S
H3272 C3256 0.931 . S
H3273 C3261 0.930 . S
H3274 C3262 0.956 . S
H3275 C3262 0.961 . S
H3276 C3262 0.961 . S
H3277 C3263 0.958 . S
H3278 C3263 0.961 . S
H3279 C3263 0.960 . S
C3280 C3281 1.391 . S
C3280 C3282 1.394 . S
C3280 H3296 0.931 . S
C3281 C3280 1.391 . S
C3281 C3285 1.376 . S
C3282 C3280 1.394 . S
C3282 C3283 1.369 . S
C3282 C3286 1.531 . S
C3283 C3282 1.369 . S
C3283 C3284 1.410 . S
C3283 C3291 1.503 . S
C3284 C3283 1.410 . S
C3284 C3285 1.392 . S
C3284 C3287 1.511 . S
C3285 C3281 1.376 . S
C3285 C3284 1.392 . S
C3285 H3297 0.929 . S
C3286 C3282 1.531 . S
C3286 H3298 0.960 . S
C3286 H3299 0.962 . S
C3286 H3300 0.960 . S
C3287 C3284 1.511 . S
C3287 H3301 0.961 . S
C3287 H3302 0.961 . S
C3287 H3303 0.961 . S
C3288 C3289 1.370 . S
C3288 C3290 1.363 . S
C3288 H3304 0.931 . S
C3289 C3288 1.370 . S
C3289 C3293 1.408 . S
C3290 C3288 1.363 . S
C3290 C3291 1.370 . S
C3290 C3294 1.524 . S
C3291 C3283 1.503 . S
C3291 C3290 1.370 . S
C3291 C3292 1.403 . S
C3292 C3291 1.403 . S
C3292 C3293 1.404 . S
C3292 C3295 1.539 . S
C3293 C3289 1.408 . S
C3293 C3292 1.404 . S
C3293 H3305 0.930 . S
C3294 C3290 1.524 . S
C3294 H3306 0.956 . S
C3294 H3307 0.961 . S
C3294 H3308 0.961 . S
C3295 C3292 1.539 . S
C3295 H3309 0.958 . S
C3295 H3310 0.961 . S
C3295 H3311 0.960 . S
H3296 C3280 0.931 . S
H3297 C3285 0.929 . S
H3298 C3286 0.960 . S
H3299 C3286 0.962 . S
H3300 C3286 0.960 . S
H3301 C3287 0.961 . S
H3302 C3287 0.961 . S
H3303 C3287 0.961 . S
H3304 C3288 0.931 . S
H3305 C3293 0.930 . S
H3306 C3294 0.956 . S
H3307 C3294 0.961 . S
H3308 C3294 0.961 . S
H3309 C3295 0.958 . S
H3310 C3295 0.961 . S
H3311 C3295 0.960 . S
C3312 C3313 1.391 . S
C3312 C3314 1.394 . S
C3312 H3328 0.931 . S
C3313 C3312 1.391 . S
C3313 C3317 1.376 . S
C3314 C3312 1.394 . S
C3314 C3315 1.369 . S
C3314 C3318 1.531 . S
C3315 C3314 1.369 . S
C3315 C3316 1.410 . S
C3315 C3323 1.503 . S
C3316 C3315 1.410 . S
C3316 C3317 1.392 . S
C3316 C3319 1.511 . S
C3317 C3313 1.376 . S
C3317 C3316 1.392 . S
C3317 H3329 0.929 . S
C3318 C3314 1.531 . S
C3318 H3330 0.960 . S
C3318 H3331 0.962 . S
C3318 H3332 0.960 . S
C3319 C3316 1.511 . S
C3319 H3333 0.961 . S
C3319 H3334 0.961 . S
C3319 H3335 0.961 1_655 S
C3320 C3321 1.370 . S
C3320 C3322 1.363 . S
C3320 H3336 0.931 . S
C3321 C3320 1.370 . S
C3321 C3325 1.408 1_655 S
C3322 C3320 1.363 . S
C3322 C3323 1.370 . S
C3322 C3326 1.524 . S
C3323 C3315 1.503 . S
C3323 C3322 1.370 . S
C3323 C3324 1.403 . S
C3324 C3323 1.403 . S
C3324 C3325 1.404 1_655 S
C3324 C3327 1.539 1_655 S
C3325 C3321 1.408 1_455 S
C3325 C3324 1.404 1_455 S
C3325 H3337 0.930 . S
C3326 C3322 1.524 . S
C3326 H3338 0.956 . S
C3326 H3339 0.961 . S
C3326 H3340 0.961 . S
C3327 C3324 1.539 1_455 S
C3327 H3341 0.958 . S
C3327 H3342 0.961 . S
C3327 H3343 0.960 . S
H3328 C3312 0.931 . S
H3329 C3317 0.929 . S
H3330 C3318 0.960 . S
H3331 C3318 0.962 . S
H3332 C3318 0.960 . S
H3333 C3319 0.961 . S
H3334 C3319 0.961 . S
H3335 C3319 0.961 1_455 S
H3336 C3320 0.931 . S
H3337 C3325 0.930 . S
H3338 C3326 0.956 . S
H3339 C3326 0.961 . S
H3340 C3326 0.961 . S
H3341 C3327 0.958 . S
H3342 C3327 0.961 . S
H3343 C3327 0.960 . S
C3344 C3345 1.391 . S
C3344 C3346 1.394 . S
C3344 H3360 0.931 . S
C3345 C3344 1.391 . S
C3345 C3349 1.376 . S
C3346 C3344 1.394 . S
C3346 C3347 1.369 . S
C3346 C3350 1.531 . S
C3347 C3346 1.369 . S
C3347 C3348 1.410 . S
C3347 C3355 1.503 . S
C3348 C3347 1.410 . S
C3348 C3349 1.392 . S
C3348 C3351 1.511 . S
C3349 C3345 1.376 . S
C3349 C3348 1.392 . S
C3349 H3361 0.929 . S
C3350 C3346 1.531 . S
C3350 H3362 0.960 . S
C3350 H3363 0.962 . S
C3350 H3364 0.960 . S
C3351 C3348 1.511 . S
C3351 H3365 0.961 . S
C3351 H3366 0.961 . S
C3351 H3367 0.961 . S
C3352 C3353 1.370 . S
C3352 C3354 1.363 . S
C3352 H3368 0.931 . S
C3353 C3352 1.370 . S
C3353 C3357 1.408 . S
C3354 C3352 1.363 . S
C3354 C3355 1.370 . S
C3354 C3358 1.524 . S
C3355 C3347 1.503 . S
C3355 C3354 1.370 . S
C3355 C3356 1.403 . S
C3356 C3355 1.403 . S
C3356 C3357 1.404 . S
C3356 C3359 1.539 . S
C3357 C3353 1.408 . S
C3357 C3356 1.404 . S
C3357 H3369 0.930 . S
C3358 C3354 1.524 . S
C3358 H3370 0.956 . S
C3358 H3371 0.961 . S
C3358 H3372 0.961 . S
C3359 C3356 1.539 . S
C3359 H3373 0.958 . S
C3359 H3374 0.961 . S
C3359 H3375 0.960 . S
H3360 C3344 0.931 . S
H3361 C3349 0.929 . S
H3362 C3350 0.960 . S
H3363 C3350 0.962 . S
H3364 C3350 0.960 . S
H3365 C3351 0.961 . S
H3366 C3351 0.961 . S
H3367 C3351 0.961 . S
H3368 C3352 0.931 . S
H3369 C3357 0.930 . S
H3370 C3358 0.956 . S
H3371 C3358 0.961 . S
H3372 C3358 0.961 . S
H3373 C3359 0.958 . S
H3374 C3359 0.961 . S
H3375 C3359 0.960 . S
C3376 C3377 1.391 . S
C3376 C3378 1.394 . S
C3376 H3392 0.931 . S
C3377 C3376 1.391 . S
C3377 C3381 1.376 . S
C3378 C3376 1.394 . S
C3378 C3379 1.369 . S
C3378 C3382 1.531 . S
C3379 C3378 1.369 . S
C3379 C3380 1.410 . S
C3379 C3387 1.503 . S
C3380 C3379 1.410 . S
C3380 C3381 1.392 . S
C3380 C3383 1.511 . S
C3381 C3377 1.376 . S
C3381 C3380 1.392 . S
C3381 H3393 0.929 . S
C3382 C3378 1.531 . S
C3382 H3394 0.960 . S
C3382 H3395 0.962 . S
C3382 H3396 0.960 . S
C3383 C3380 1.511 . S
C3383 H3397 0.961 . S
C3383 H3398 0.961 . S
C3383 H3399 0.961 . S
C3384 C3385 1.370 . S
C3384 C3386 1.363 . S
C3384 H3400 0.931 . S
C3385 C3384 1.370 . S
C3385 C3389 1.408 . S
C3386 C3384 1.363 . S
C3386 C3387 1.370 . S
C3386 C3390 1.524 . S
C3387 C3379 1.503 . S
C3387 C3386 1.370 . S
C3387 C3388 1.403 . S
C3388 C3387 1.403 . S
C3388 C3389 1.404 . S
C3388 C3391 1.539 . S
C3389 C3385 1.408 . S
C3389 C3388 1.404 . S
C3389 H3401 0.930 . S
C3390 C3386 1.524 . S
C3390 H3402 0.956 . S
C3390 H3403 0.961 . S
C3390 H3404 0.961 . S
C3391 C3388 1.539 . S
C3391 H3405 0.958 . S
C3391 H3406 0.961 . S
C3391 H3407 0.960 . S
H3392 C3376 0.931 . S
H3393 C3381 0.929 . S
H3394 C3382 0.960 . S
H3395 C3382 0.962 . S
H3396 C3382 0.960 . S
H3397 C3383 0.961 . S
H3398 C3383 0.961 . S
H3399 C3383 0.961 . S
H3400 C3384 0.931 . S
H3401 C3389 0.930 . S
H3402 C3390 0.956 . S
H3403 C3390 0.961 . S
H3404 C3390 0.961 . S
H3405 C3391 0.958 . S
H3406 C3391 0.961 . S
H3407 C3391 0.960 . S
C3408 C3409 1.391 . S
C3408 C3410 1.394 . S
C3408 H3424 0.931 . S
C3409 C3408 1.391 . S
C3409 C3413 1.376 . S
C3410 C3408 1.394 . S
C3410 C3411 1.369 . S
C3410 C3414 1.531 . S
C3411 C3410 1.369 . S
C3411 C3412 1.410 . S
C3411 C3419 1.503 . S
C3412 C3411 1.410 . S
C3412 C3413 1.392 . S
C3412 C3415 1.511 . S
C3413 C3409 1.376 . S
C3413 C3412 1.392 . S
C3413 H3425 0.929 . S
C3414 C3410 1.531 . S
C3414 H3426 0.960 . S
C3414 H3427 0.962 . S
C3414 H3428 0.960 . S
C3415 C3412 1.511 . S
C3415 H3429 0.961 . S
C3415 H3430 0.961 . S
C3415 H3431 0.961 . S
C3416 C3417 1.370 . S
C3416 C3418 1.363 . S
C3416 H3432 0.931 . S
C3417 C3416 1.370 . S
C3417 C3421 1.408 . S
C3418 C3416 1.363 . S
C3418 C3419 1.370 . S
C3418 C3422 1.524 . S
C3419 C3411 1.503 . S
C3419 C3418 1.370 . S
C3419 C3420 1.403 . S
C3420 C3419 1.403 . S
C3420 C3421 1.404 . S
C3420 C3423 1.539 . S
C3421 C3417 1.408 . S
C3421 C3420 1.404 . S
C3421 H3433 0.930 . S
C3422 C3418 1.524 . S
C3422 H3434 0.956 . S
C3422 H3435 0.961 . S
C3422 H3436 0.961 . S
C3423 C3420 1.539 . S
C3423 H3437 0.958 . S
C3423 H3438 0.961 . S
C3423 H3439 0.960 . S
H3424 C3408 0.931 . S
H3425 C3413 0.929 . S
H3426 C3414 0.960 . S
H3427 C3414 0.962 . S
H3428 C3414 0.960 . S
H3429 C3415 0.961 . S
H3430 C3415 0.961 . S
H3431 C3415 0.961 . S
H3432 C3416 0.931 . S
H3433 C3421 0.930 . S
H3434 C3422 0.956 . S
H3435 C3422 0.961 . S
H3436 C3422 0.961 . S
H3437 C3423 0.958 . S
H3438 C3423 0.961 . S
H3439 C3423 0.960 . S
C3440 C3441 1.391 . S
C3440 C3442 1.394 1_565 S
C3440 H3456 0.931 . S
C3441 C3440 1.391 . S
C3441 C3445 1.376 . S
C3442 C3440 1.394 1_545 S
C3442 C3443 1.369 . S
C3442 C3446 1.531 . S
C3443 C3442 1.369 . S
C3443 C3444 1.410 1_545 S
C3443 C3451 1.503 . S
C3444 C3443 1.410 1_565 S
C3444 C3445 1.392 . S
C3444 C3447 1.511 . S
C3445 C3441 1.376 . S
C3445 C3444 1.392 . S
C3445 H3457 0.929 . S
C3446 C3442 1.531 . S
C3446 H3458 0.960 . S
C3446 H3459 0.962 . S
C3446 H3460 0.960 . S
C3447 C3444 1.511 . S
C3447 H3461 0.961 . S
C3447 H3462 0.961 1_565 S
C3447 H3463 0.961 . S
C3448 C3449 1.370 . S
C3448 C3450 1.363 . S
C3448 H3464 0.931 . S
C3449 C3448 1.370 . S
C3449 C3453 1.408 . S
C3450 C3448 1.363 . S
C3450 C3451 1.370 . S
C3450 C3454 1.524 . S
C3451 C3443 1.503 . S
C3451 C3450 1.370 . S
C3451 C3452 1.403 . S
C3452 C3451 1.403 . S
C3452 C3453 1.404 . S
C3452 C3455 1.539 . S
C3453 C3449 1.408 . S
C3453 C3452 1.404 . S
C3453 H3465 0.930 . S
C3454 C3450 1.524 . S
C3454 H3466 0.956 . S
C3454 H3467 0.961 . S
C3454 H3468 0.961 . S
C3455 C3452 1.539 . S
C3455 H3469 0.958 . S
C3455 H3470 0.961 . S
C3455 H3471 0.960 1_545 S
H3456 C3440 0.931 . S
H3457 C3445 0.929 . S
H3458 C3446 0.960 . S
H3459 C3446 0.962 . S
H3460 C3446 0.960 . S
H3461 C3447 0.961 . S
H3462 C3447 0.961 1_545 S
H3463 C3447 0.961 . S
H3464 C3448 0.931 . S
H3465 C3453 0.930 . S
H3466 C3454 0.956 . S
H3467 C3454 0.961 . S
H3468 C3454 0.961 . S
H3469 C3455 0.958 . S
H3470 C3455 0.961 . S
H3471 C3455 0.960 1_565 S
C3472 C3473 1.391 . S
C3472 C3474 1.394 1_655 S
C3472 H3488 0.934 . S
C3473 C3472 1.391 . S
C3473 C3477 1.376 . S
C3474 C3472 1.394 1_455 S
C3474 C3475 1.369 . S
C3474 C3478 1.531 . S
C3475 C3474 1.369 . S
C3475 C3476 1.410 1_455 S
C3475 C3483 1.503 . S
C3476 C3475 1.410 1_655 S
C3476 C3477 1.392 . S
C3476 C3479 1.511 . S
C3477 C3473 1.376 . S
C3477 C3476 1.392 . S
C3477 H3489 0.929 . S
C3478 C3474 1.531 . S
C3478 H3490 0.960 . S
C3478 H3491 0.962 . S
C3478 H3492 0.960 . S
C3479 C3476 1.511 . S
C3479 H3493 0.961 . S
C3479 H3494 0.961 . S
C3479 H3495 0.961 . S
C3480 C3481 1.370 . S
C3480 C3482 1.363 . S
C3480 H3496 0.931 . S
C3481 C3480 1.370 . S
C3481 C3485 1.408 . S
C3482 C3480 1.363 . S
C3482 C3483 1.370 . S
C3482 C3486 1.524 . S
C3483 C3475 1.503 . S
C3483 C3482 1.370 . S
C3483 C3484 1.403 . S
C3484 C3483 1.403 . S
C3484 C3485 1.404 . S
C3484 C3487 1.539 . S
C3485 C3481 1.408 . S
C3485 C3484 1.404 . S
C3485 H3497 0.930 . S
C3486 C3482 1.524 . S
C3486 H3498 0.956 . S
C3486 H3499 0.961 . S
C3486 H3500 0.961 . S
C3487 C3484 1.539 . S
C3487 H3501 0.958 . S
C3487 H3502 0.961 . S
C3487 H3503 0.960 . S
H3488 C3472 0.934 . S
H3489 C3477 0.929 . S
H3490 C3478 0.960 . S
H3491 C3478 0.962 . S
H3492 C3478 0.960 . S
H3493 C3479 0.961 . S
H3494 C3479 0.961 . S
H3495 C3479 0.961 . S
H3496 C3480 0.931 . S
H3497 C3485 0.930 . S
H3498 C3486 0.956 . S
H3499 C3486 0.961 . S
H3500 C3486 0.961 . S
H3501 C3487 0.958 . S
H3502 C3487 0.961 . S
H3503 C3487 0.960 . S
C3504 C3505 1.391 . S
C3504 C3506 1.394 . S
C3504 H3520 0.931 . S
C3505 C3504 1.391 . S
C3505 C3509 1.376 . S
C3506 C3504 1.394 . S
C3506 C3507 1.369 . S
C3506 C3510 1.531 . S
C3507 C3506 1.369 . S
C3507 C3508 1.410 . S
C3507 C3515 1.503 . S
C3508 C3507 1.410 . S
C3508 C3509 1.392 . S
C3508 C3511 1.511 . S
C3509 C3505 1.376 . S
C3509 C3508 1.392 . S
C3509 H3521 0.929 . S
C3510 C3506 1.531 . S
C3510 H3522 0.960 . S
C3510 H3523 0.962 . S
C3510 H3524 0.960 . S
C3511 C3508 1.511 . S
C3511 H3525 0.961 . S
C3511 H3526 0.961 . S
C3511 H3527 0.961 . S
C3512 C3513 1.370 . S
C3512 C3514 1.363 . S
C3512 H3528 0.931 . S
C3513 C3512 1.370 . S
C3513 C3517 1.408 . S
C3514 C3512 1.363 . S
C3514 C3515 1.370 . S
C3514 C3518 1.524 . S
C3515 C3507 1.503 . S
C3515 C3514 1.370 . S
C3515 C3516 1.403 . S
C3516 C3515 1.403 . S
C3516 C3517 1.404 . S
C3516 C3519 1.539 . S
C3517 C3513 1.408 . S
C3517 C3516 1.404 . S
C3517 H3529 0.930 . S
C3518 C3514 1.524 . S
C3518 H3530 0.956 . S
C3518 H3531 0.961 . S
C3518 H3532 0.961 . S
C3519 C3516 1.539 . S
C3519 H3533 0.958 . S
C3519 H3534 0.961 . S
C3519 H3535 0.960 . S
H3520 C3504 0.931 . S
H3521 C3509 0.929 . S
H3522 C3510 0.960 . S
H3523 C3510 0.962 . S
H3524 C3510 0.960 . S
H3525 C3511 0.961 . S
H3526 C3511 0.961 . S
H3527 C3511 0.961 . S
H3528 C3512 0.931 . S
H3529 C3517 0.930 . S
H3530 C3518 0.956 . S
H3531 C3518 0.961 . S
H3532 C3518 0.961 . S
H3533 C3519 0.958 . S
H3534 C3519 0.961 . S
H3535 C3519 0.960 . S
C3536 C3537 1.391 . S
C3536 C3538 1.394 1_565 S
C3536 H3552 0.931 . S
C3537 C3536 1.391 . S
C3537 C3541 1.376 . S
C3538 C3536 1.394 1_545 S
C3538 C3539 1.369 . S
C3538 C3542 1.531 . S
C3539 C3538 1.369 . S
C3539 C3540 1.410 . S
C3539 C3547 1.503 . S
C3540 C3539 1.410 . S
C3540 C3541 1.392 1_545 S
C3540 C3543 1.511 . S
C3541 C3537 1.376 . S
C3541 C3540 1.392 1_565 S
C3541 H3553 0.929 . S
C3542 C3538 1.531 . S
C3542 H3554 0.960 . S
C3542 H3555 0.962 . S
C3542 H3556 0.960 . S
C3543 C3540 1.511 . S
C3543 H3557 0.961 . S
C3543 H3558 0.961 . S
C3543 H3559 0.961 . S
C3544 C3545 1.370 . S
C3544 C3546 1.363 . S
C3544 H3560 0.931 . S
C3545 C3544 1.370 . S
C3545 C3549 1.408 . S
C3546 C3544 1.363 . S
C3546 C3547 1.370 . S
C3546 C3550 1.524 . S
C3547 C3539 1.503 . S
C3547 C3546 1.370 . S
C3547 C3548 1.403 . S
C3548 C3547 1.403 . S
C3548 C3549 1.404 . S
C3548 C3551 1.539 . S
C3549 C3545 1.408 . S
C3549 C3548 1.404 . S
C3549 H3561 0.930 . S
C3550 C3546 1.524 . S
C3550 H3562 0.956 1_545 S
C3550 H3563 0.961 1_545 S
C3550 H3564 0.961 . S
C3551 C3548 1.539 . S
C3551 H3565 0.958 . S
C3551 H3566 0.961 . S
C3551 H3567 0.960 . S
H3552 C3536 0.931 . S
H3553 C3541 0.929 . S
H3554 C3542 0.960 . S
H3555 C3542 0.962 . S
H3556 C3542 0.960 . S
H3557 C3543 0.961 . S
H3558 C3543 0.961 . S
H3559 C3543 0.961 . S
H3560 C3544 0.931 . S
H3561 C3549 0.930 . S
H3562 C3550 0.956 1_565 S
H3563 C3550 0.961 1_565 S
H3564 C3550 0.961 . S
H3565 C3551 0.958 . S
H3566 C3551 0.961 . S
H3567 C3551 0.960 . S
C3568 C3569 1.391 . S
C3568 C3570 1.394 . S
C3568 H3584 0.931 . S
C3569 C3568 1.391 . S
C3569 C3573 1.376 . S
C3570 C3568 1.394 . S
C3570 C3571 1.369 1_655 S
C3570 C3574 1.531 . S
C3571 C3570 1.369 1_455 S
C3571 C3572 1.410 . S
C3571 C3579 1.503 . S
C3572 C3571 1.410 . S
C3572 C3573 1.392 1_455 S
C3572 C3575 1.511 . S
C3573 C3569 1.376 . S
C3573 C3572 1.392 1_655 S
C3573 H3585 0.929 . S
C3574 C3570 1.531 . S
C3574 H3586 0.956 1_655 S
C3574 H3587 0.962 1_655 S
C3574 H3588 0.960 . S
C3575 C3572 1.511 . S
C3575 H3589 0.961 . S
C3575 H3590 0.961 . S
C3575 H3591 0.961 . S
C3576 C3577 1.370 . S
C3576 C3578 1.363 . S
C3576 H3592 0.931 . S
C3577 C3576 1.370 . S
C3577 C3581 1.408 . S
C3578 C3576 1.363 . S
C3578 C3579 1.370 . S
C3578 C3582 1.524 . S
C3579 C3571 1.503 . S
C3579 C3578 1.370 . S
C3579 C3580 1.403 . S
C3580 C3579 1.403 . S
C3580 C3581 1.404 . S
C3580 C3583 1.539 . S
C3581 C3577 1.408 . S
C3581 C3580 1.404 . S
C3581 H3593 0.930 . S
C3582 C3578 1.524 . S
C3582 H3594 0.956 . S
C3582 H3595 0.961 . S
C3582 H3596 0.961 . S
C3583 C3580 1.539 . S
C3583 H3597 0.958 1_455 S
C3583 H3598 0.961 . S
C3583 H3599 0.960 1_455 S
H3584 C3568 0.931 . S
H3585 C3573 0.929 . S
H3586 C3574 0.956 1_455 S
H3587 C3574 0.962 1_455 S
H3588 C3574 0.960 . S
H3589 C3575 0.961 . S
H3590 C3575 0.961 . S
H3591 C3575 0.961 . S
H3592 C3576 0.931 . S
H3593 C3581 0.930 . S
H3594 C3582 0.956 . S
H3595 C3582 0.961 . S
H3596 C3582 0.961 . S
H3597 C3583 0.958 1_655 S
H3598 C3583 0.961 . S
H3599 C3583 0.960 1_655 S
C3600 C3601 1.391 . S
C3600 C3602 1.394 . S
C3600 H3616 0.931 . S
C3601 C3600 1.391 . S
C3601 C3605 1.376 . S
C3602 C3600 1.394 . S
C3602 C3603 1.369 . S
C3602 C3606 1.531 . S
C3603 C3602 1.369 . S
C3603 C3604 1.410 . S
C3603 C3611 1.503 1_554 S
C3604 C3603 1.410 . S
C3604 C3605 1.392 . S
C3604 C3607 1.511 1_545 S
C3605 C3601 1.376 . S
C3605 C3604 1.392 . S
C3605 H3617 0.929 1_545 S
C3606 C3602 1.531 . S
C3606 H3618 0.960 1_554 S
C3606 H3619 0.962 . S
C3606 H3620 0.960 . S
C3607 C3604 1.511 1_565 S
C3607 H3621 0.961 . S
C3607 H3622 0.861 1_554 S
C3607 H3623 0.961 . S
C3608 C3609 1.370 . S
C3608 C3610 1.363 . S
C3608 H3624 0.931 . S
C3609 C3608 1.370 . S
C3609 C3613 1.408 . S
C3610 C3608 1.363 . S
C3610 C3611 1.370 . S
C3610 C3614 1.524 . S
C3611 C3603 1.503 1_556 S
C3611 C3610 1.370 . S
C3611 C3612 1.403 . S
C3612 C3611 1.403 . S
C3612 C3613 1.404 . S
C3612 C3615 1.539 1_545 S
C3613 C3609 1.408 . S
C3613 C3612 1.404 . S
C3613 H3625 0.930 1_545 S
C3614 C3610 1.524 . S
C3614 H3626 0.956 1_556 S
C3614 H3627 0.961 1_556 S
C3614 H3628 0.961 . S
C3615 C3612 1.539 1_565 S
C3615 H3629 0.958 . S
C3615 H3630 0.961 . S
C3615 H3631 0.960 . S
H3616 C3600 0.931 . S
H3617 C3605 0.929 1_565 S
H3618 C3606 0.960 1_556 S
H3619 C3606 0.962 . S
H3620 C3606 0.960 . S
H3621 C3607 0.961 . S
H3622 C3607 0.861 1_556 S
H3623 C3607 0.961 . S
H3624 C3608 0.931 . S
H3625 C3613 0.930 1_565 S
H3626 C3614 0.956 1_554 S
H3627 C3614 0.961 1_554 S
H3628 C3614 0.961 . S
H3629 C3615 0.958 . S
H3630 C3615 0.961 . S
H3631 C3615 0.960 . S
C3632 C3633 1.417 . S
C3632 C3634 1.395 . S
C3632 H3648 0.904 1_455 S
C3633 C3632 1.417 . S
C3633 C3637 1.376 . S
C3634 C3632 1.395 . S
C3634 C3635 1.369 . S
C3634 C3638 1.531 1_455 S
C3635 C3634 1.369 . S
C3635 C3636 1.410 . S
C3635 C3643 1.503 1_556 S
C3636 C3635 1.410 . S
C3636 C3637 1.392 . S
C3636 C3639 1.511 . S
C3637 C3633 1.376 . S
C3637 C3636 1.392 . S
C3637 H3649 0.929 . S
C3638 C3634 1.531 1_655 S
C3638 H3650 0.960 1_556 S
C3638 H3651 0.962 . S
C3638 H3652 0.960 . S
C3639 C3636 1.511 . S
C3639 H3653 0.961 . S
C3639 H3654 0.872 1_556 S
C3639 H3655 0.961 . S
C3640 C3641 1.370 . S
C3640 C3642 1.363 . S
C3640 H3656 0.931 . S
C3641 C3640 1.370 . S
C3641 C3645 1.408 . S
C3642 C3640 1.363 . S
C3642 C3643 1.370 . S
C3642 C3646 1.524 . S
C3643 C3635 1.503 1_554 S
C3643 C3642 1.370 . S
C3643 C3644 1.403 . S
C3644 C3643 1.403 . S
C3644 C3645 1.404 . S
C3644 C3647 1.539 1_455 S
C3645 C3641 1.408 . S
C3645 C3644 1.404 . S
C3645 H3657 0.930 1_455 S
C3646 C3642 1.524 . S
C3646 H3658 0.956 1_554 S
C3646 H3659 0.961 1_554 S
C3646 H3660 0.961 . S
C3647 C3644 1.539 1_655 S
C3647 H3661 0.958 . S
C3647 H3662 0.961 . S
C3647 H3663 0.960 . S
H3648 C3632 0.904 1_655 S
H3649 C3637 0.929 . S
H3650 C3638 0.960 1_554 S
H3651 C3638 0.962 . S
H3652 C3638 0.960 . S
H3653 C3639 0.961 . S
H3654 C3639 0.872 1_554 S
H3655 C3639 0.961 . S
H3656 C3640 0.931 . S
H3657 C3645 0.930 1_655 S
H3658 C3646 0.956 1_556 S
H3659 C3646 0.961 1_556 S
H3660 C3646 0.961 . S
H3661 C3647 0.958 . S
H3662 C3647 0.961 . S
H3663 C3647 0.960 . S
C3664 C3665 1.391 . S
C3664 C3666 1.394 . S
C3664 H3680 0.931 . S
C3665 C3664 1.391 . S
C3665 C3669 1.376 . S
C3666 C3664 1.394 . S
C3666 C3667 1.369 . S
C3666 C3670 1.531 . S
C3667 C3666 1.369 . S
C3667 C3668 1.410 . S
C3667 C3675 1.503 1_554 S
C3668 C3667 1.410 . S
C3668 C3669 1.392 . S
C3668 C3671 1.511 . S
C3669 C3665 1.376 . S
C3669 C3668 1.392 . S
C3669 H3681 0.929 . S
C3670 C3666 1.531 . S
C3670 H3682 0.960 1_554 S
C3670 H3683 0.962 . S
C3670 H3684 0.960 . S
C3671 C3668 1.511 . S
C3671 H3685 0.961 . S
C3671 H3686 0.993 . S
C3671 H3687 0.961 . S
C3672 C3673 1.370 . S
C3672 C3674 1.363 . S
C3672 H3688 0.931 . S
C3673 C3672 1.370 . S
C3673 C3677 1.408 . S
C3674 C3672 1.363 . S
C3674 C3675 1.370 . S
C3674 C3678 1.524 . S
C3675 C3667 1.503 1_556 S
C3675 C3674 1.370 . S
C3675 C3676 1.403 . S
C3676 C3675 1.403 . S
C3676 C3677 1.404 . S
C3676 C3679 1.539 . S
C3677 C3673 1.408 . S
C3677 C3676 1.404 . S
C3677 H3689 0.930 . S
C3678 C3674 1.524 . S
C3678 H3690 0.956 . S
C3678 H3691 0.952 . S
C3678 H3692 0.961 . S
C3679 C3676 1.539 . S
C3679 H3693 0.958 . S
C3679 H3694 0.961 . S
C3679 H3695 0.960 1_556 S
H3680 C3664 0.931 . S
H3681 C3669 0.929 . S
H3682 C3670 0.960 1_556 S
H3683 C3670 0.962 . S
H3684 C3670 0.960 . S
H3685 C3671 0.961 . S
H3686 C3671 0.993 . S
H3687 C3671 0.961 . S
H3688 C3672 0.931 . S
H3689 C3677 0.930 . S
H3690 C3678 0.956 . S
H3691 C3678 0.952 . S
H3692 C3678 0.961 . S
H3693 C3679 0.958 . S
H3694 C3679 0.961 . S
H3695 C3679 0.960 1_554 S
C3696 C3697 1.391 . S
C3696 C3698 1.394 . S
C3696 H3712 0.931 . S
C3697 C3696 1.391 . S
C3697 C3701 1.376 . S
C3698 C3696 1.394 . S
C3698 C3699 1.369 . S
C3698 C3702 1.531 . S
C3699 C3698 1.369 . S
C3699 C3700 1.410 . S
C3699 C3707 1.503 . S
C3700 C3699 1.410 . S
C3700 C3701 1.392 . S
C3700 C3703 1.511 1_455 S
C3701 C3697 1.376 . S
C3701 C3700 1.392 . S
C3701 H3713 0.929 . S
C3702 C3698 1.531 . S
C3702 H3714 0.960 . S
C3702 H3715 0.962 . S
C3702 H3716 0.960 . S
C3703 C3700 1.511 1_655 S
C3703 H3717 0.961 . S
C3703 H3718 0.961 . S
C3703 H3719 0.961 . S
C3704 C3705 1.370 . S
C3704 C3706 1.363 . S
C3704 H3720 0.931 . S
C3705 C3704 1.370 . S
C3705 C3709 1.408 1_455 S
C3706 C3704 1.363 . S
C3706 C3707 1.370 . S
C3706 C3710 1.524 . S
C3707 C3699 1.503 . S
C3707 C3706 1.370 . S
C3707 C3708 1.403 . S
C3708 C3707 1.403 . S
C3708 C3709 1.404 1_455 S
C3708 C3711 1.539 1_455 S
C3709 C3705 1.408 1_655 S
C3709 C3708 1.404 1_655 S
C3709 H3721 0.930 . S
C3710 C3706 1.524 . S
C3710 H3722 0.956 . S
C3710 H3723 0.961 . S
C3710 H3724 0.961 . S
C3711 C3708 1.539 1_655 S
C3711 H3725 0.958 . S
C3711 H3726 0.961 . S
C3711 H3727 0.960 . S
H3712 C3696 0.931 . S
H3713 C3701 0.929 . S
H3714 C3702 0.960 . S
H3715 C3702 0.962 . S
H3716 C3702 0.960 . S
H3717 C3703 0.961 . S
H3718 C3703 0.961 . S
H3719 C3703 0.961 . S
H3720 C3704 0.931 . S
H3721 C3709 0.930 . S
H3722 C3710 0.956 . S
H3723 C3710 0.961 . S
H3724 C3710 0.961 . S
H3725 C3711 0.958 . S
H3726 C3711 0.961 . S
H3727 C3711 0.960 . S
C3728 C3729 1.391 . S
C3728 C3730 1.394 . S
C3728 H3744 0.931 . S
C3729 C3728 1.391 . S
C3729 C3733 1.376 . S
C3730 C3728 1.394 . S
C3730 C3731 1.369 . S
C3730 C3734 1.531 . S
C3731 C3730 1.369 . S
C3731 C3732 1.410 . S
C3731 C3739 1.503 . S
C3732 C3731 1.410 . S
C3732 C3733 1.392 . S
C3732 C3735 1.511 . S
C3733 C3729 1.376 . S
C3733 C3732 1.392 . S
C3733 H3745 0.929 . S
C3734 C3730 1.531 . S
C3734 H3746 0.960 . S
C3734 H3747 0.962 . S
C3734 H3748 0.960 . S
C3735 C3732 1.511 . S
C3735 H3749 0.961 . S
C3735 H3750 0.961 . S
C3735 H3751 0.961 . S
C3736 C3737 1.370 . S
C3736 C3738 1.363 . S
C3736 H3752 0.931 . S
C3737 C3736 1.370 . S
C3737 C3741 1.408 . S
C3738 C3736 1.363 . S
C3738 C3739 1.370 . S
C3738 C3742 1.524 . S
C3739 C3731 1.503 . S
C3739 C3738 1.370 . S
C3739 C3740 1.403 . S
C3740 C3739 1.403 . S
C3740 C3741 1.404 . S
C3740 C3743 1.539 . S
C3741 C3737 1.408 . S
C3741 C3740 1.404 . S
C3741 H3753 0.930 . S
C3742 C3738 1.524 . S
C3742 H3754 0.956 . S
C3742 H3755 0.961 . S
C3742 H3756 0.961 . S
C3743 C3740 1.539 . S
C3743 H3757 0.958 . S
C3743 H3758 0.961 . S
C3743 H3759 0.960 . S
H3744 C3728 0.931 . S
H3745 C3733 0.929 . S
H3746 C3734 0.960 . S
H3747 C3734 0.962 . S
H3748 C3734 0.960 . S
H3749 C3735 0.961 . S
H3750 C3735 0.961 . S
H3751 C3735 0.961 . S
H3752 C3736 0.931 . S
H3753 C3741 0.930 . S
H3754 C3742 0.956 . S
H3755 C3742 0.961 . S
H3756 C3742 0.961 . S
H3757 C3743 0.958 . S
H3758 C3743 0.961 . S
H3759 C3743 0.960 . S
C3760 C3761 1.391 . S
C3760 C3762 1.394 . S
C3760 H3776 0.931 . S
C3761 C3760 1.391 . S
C3761 C3765 1.376 . S
C3762 C3760 1.394 . S
C3762 C3763 1.369 . S
C3762 C3766 1.531 . S
C3763 C3762 1.369 . S
C3763 C3764 1.410 . S
C3763 C3771 1.503 . S
C3764 C3763 1.410 . S
C3764 C3765 1.392 . S
C3764 C3767 1.511 1_545 S
C3765 C3761 1.376 . S
C3765 C3764 1.392 . S
C3765 H3777 0.929 1_545 S
C3766 C3762 1.531 . S
C3766 H3778 0.960 . S
C3766 H3779 0.962 . S
C3766 H3780 0.960 . S
C3767 C3764 1.511 1_565 S
C3767 H3781 0.961 . S
C3767 H3782 0.961 . S
C3767 H3783 0.961 . S
C3768 C3769 1.370 . S
C3768 C3770 1.363 . S
C3768 H3784 0.931 . S
C3769 C3768 1.370 . S
C3769 C3773 1.408 . S
C3770 C3768 1.363 . S
C3770 C3771 1.370 . S
C3770 C3774 1.524 . S
C3771 C3763 1.503 . S
C3771 C3770 1.370 . S
C3771 C3772 1.403 . S
C3772 C3771 1.403 . S
C3772 C3773 1.404 . S
C3772 C3775 1.539 . S
C3773 C3769 1.408 . S
C3773 C3772 1.404 . S
C3773 H3785 0.930 . S
C3774 C3770 1.524 . S
C3774 H3786 0.956 . S
C3774 H3787 0.961 1_545 S
C3774 H3788 0.961 1_545 S
C3775 C3772 1.539 . S
C3775 H3789 0.958 . S
C3775 H3790 0.961 . S
C3775 H3791 0.960 . S
H3776 C3760 0.931 . S
H3777 C3765 0.929 1_565 S
H3778 C3766 0.960 . S
H3779 C3766 0.962 . S
H3780 C3766 0.960 . S
H3781 C3767 0.961 . S
H3782 C3767 0.961 . S
H3783 C3767 0.961 . S
H3784 C3768 0.931 . S
H3785 C3773 0.930 . S
H3786 C3774 0.956 . S
H3787 C3774 0.961 1_565 S
H3788 C3774 0.961 1_565 S
H3789 C3775 0.958 . S
H3790 C3775 0.961 . S
H3791 C3775 0.960 . S
C3792 C3793 1.391 . S
C3792 C3794 1.394 . S
C3792 H3808 0.931 . S
C3793 C3792 1.391 . S
C3793 C3797 1.376 . S
C3794 C3792 1.394 . S
C3794 C3795 1.369 . S
C3794 C3798 1.531 . S
C3795 C3794 1.369 . S
C3795 C3796 1.410 . S
C3795 C3803 1.503 . S
C3796 C3795 1.410 . S
C3796 C3797 1.392 . S
C3796 C3799 1.511 . S
C3797 C3793 1.376 . S
C3797 C3796 1.392 . S
C3797 H3809 0.929 . S
C3798 C3794 1.531 . S
C3798 H3810 0.960 . S
C3798 H3811 0.962 . S
C3798 H3812 0.960 . S
C3799 C3796 1.511 . S
C3799 H3813 0.961 . S
C3799 H3814 0.961 . S
C3799 H3815 0.961 . S
C3800 C3801 1.370 . S
C3800 C3802 1.363 . S
C3800 H3816 0.931 . S
C3801 C3800 1.370 . S
C3801 C3805 1.408 . S
C3802 C3800 1.363 . S
C3802 C3803 1.370 . S
C3802 C3806 1.524 . S
C3803 C3795 1.503 . S
C3803 C3802 1.370 . S
C3803 C3804 1.403 . S
C3804 C3803 1.403 . S
C3804 C3805 1.404 . S
C3804 C3807 1.539 . S
C3805 C3801 1.408 . S
C3805 C3804 1.404 . S
C3805 H3817 0.930 . S
C3806 C3802 1.524 . S
C3806 H3818 0.956 . S
C3806 H3819 0.961 . S
C3806 H3820 0.961 . S
C3807 C3804 1.539 . S
C3807 H3821 0.958 . S
C3807 H3822 0.961 . S
C3807 H3823 0.960 . S
H3808 C3792 0.931 . S
H3809 C3797 0.929 . S
H3810 C3798 0.960 . S
H3811 C3798 0.962 . S
H3812 C3798 0.960 . S
H3813 C3799 0.961 . S
H3814 C3799 0.961 . S
H3815 C3799 0.961 . S
H3816 C3800 0.931 . S
H3817 C3805 0.930 . S
H3818 C3806 0.956 . S
H3819 C3806 0.961 . S
H3820 C3806 0.961 . S
H3821 C3807 0.958 . S
H3822 C3807 0.961 . S
H3823 C3807 0.960 . S
C3824 C3825 1.391 . S
C3824 C3826 1.394 . S
C3824 H3840 0.931 . S
C3825 C3824 1.391 . S
C3825 C3829 1.376 . S
C3826 C3824 1.394 . S
C3826 C3827 1.369 . S
C3826 C3830 1.531 . S
C3827 C3826 1.369 . S
C3827 C3828 1.410 . S
C3827 C3835 1.503 . S
C3828 C3827 1.410 . S
C3828 C3829 1.392 . S
C3828 C3831 1.511 . S
C3829 C3825 1.376 . S
C3829 C3828 1.392 . S
C3829 H3841 0.929 . S
C3830 C3826 1.531 . S
C3830 H3842 0.960 . S
C3830 H3843 0.962 . S
C3830 H3844 0.960 . S
C3831 C3828 1.511 . S
C3831 H3845 0.961 . S
C3831 H3846 0.961 . S
C3831 H3847 0.961 . S
C3832 C3833 1.370 . S
C3832 C3834 1.363 . S
C3832 H3848 0.931 . S
C3833 C3832 1.370 . S
C3833 C3837 1.408 . S
C3834 C3832 1.363 . S
C3834 C3835 1.370 . S
C3834 C3838 1.524 . S
C3835 C3827 1.503 . S
C3835 C3834 1.370 . S
C3835 C3836 1.403 . S
C3836 C3835 1.403 . S
C3836 C3837 1.404 . S
C3836 C3839 1.539 . S
C3837 C3833 1.408 . S
C3837 C3836 1.404 . S
C3837 H3849 0.930 . S
C3838 C3834 1.524 . S
C3838 H3850 0.956 . S
C3838 H3851 0.961 . S
C3838 H3852 0.961 . S
C3839 C3836 1.539 . S
C3839 H3853 0.958 . S
C3839 H3854 0.961 . S
C3839 H3855 0.960 . S
H3840 C3824 0.931 . S
H3841 C3829 0.929 . S
H3842 C3830 0.960 . S
H3843 C3830 0.962 . S
H3844 C3830 0.960 . S
H3845 C3831 0.961 . S
H3846 C3831 0.961 . S
H3847 C3831 0.961 . S
H3848 C3832 0.931 . S
H3849 C3837 0.930 . S
H3850 C3838 0.956 . S
H3851 C3838 0.961 . S
H3852 C3838 0.961 . S
H3853 C3839 0.958 . S
H3854 C3839 0.961 . S
H3855 C3839 0.960 . S
C3856 C3857 1.391 . S
C3856 C3858 1.394 . S
C3856 H3872 0.931 . S
C3857 C3856 1.391 . S
C3857 C3861 1.376 . S
C3858 C3856 1.394 . S
C3858 C3859 1.369 . S
C3858 C3862 1.531 . S
C3859 C3858 1.369 . S
C3859 C3860 1.410 . S
C3859 C3867 1.503 . S
C3860 C3859 1.410 . S
C3860 C3861 1.392 . S
C3860 C3863 1.511 . S
C3861 C3857 1.376 . S
C3861 C3860 1.392 . S
C3861 H3873 0.929 . S
C3862 C3858 1.531 . S
C3862 H3874 0.960 . S
C3862 H3875 0.962 . S
C3862 H3876 0.960 . S
C3863 C3860 1.511 . S
C3863 H3877 0.961 . S
C3863 H3878 0.961 . S
C3863 H3879 0.961 . S
C3864 C3865 1.370 . S
C3864 C3866 1.363 . S
C3864 H3880 0.931 . S
C3865 C3864 1.370 . S
C3865 C3869 1.408 . S
C3866 C3864 1.363 . S
C3866 C3867 1.370 . S
C3866 C3870 1.524 . S
C3867 C3859 1.503 . S
C3867 C3866 1.370 . S
C3867 C3868 1.403 . S
C3868 C3867 1.403 . S
C3868 C3869 1.404 . S
C3868 C3871 1.539 . S
C3869 C3865 1.408 . S
C3869 C3868 1.404 . S
C3869 H3881 0.930 . S
C3870 C3866 1.524 . S
C3870 H3882 0.956 . S
C3870 H3883 0.961 . S
C3870 H3884 0.961 . S
C3871 C3868 1.539 . S
C3871 H3885 0.958 . S
C3871 H3886 0.961 . S
C3871 H3887 0.960 . S
H3872 C3856 0.931 . S
H3873 C3861 0.929 . S
H3874 C3862 0.960 . S
H3875 C3862 0.962 . S
H3876 C3862 0.960 . S
H3877 C3863 0.961 . S
H3878 C3863 0.961 . S
H3879 C3863 0.961 . S
H3880 C3864 0.931 . S
H3881 C3869 0.930 . S
H3882 C3870 0.956 . S
H3883 C3870 0.961 . S
H3884 C3870 0.961 . S
H3885 C3871 0.958 . S
H3886 C3871 0.961 . S
H3887 C3871 0.960 . S
C3888 C3889 1.391 . S
C3888 C3890 1.394 . S
C3888 H3904 0.931 . S
C3889 C3888 1.391 . S
C3889 C3893 1.376 . S
C3890 C3888 1.394 . S
C3890 C3891 1.369 . S
C3890 C3894 1.531 . S
C3891 C3890 1.369 . S
C3891 C3892 1.410 . S
C3891 C3899 1.503 . S
C3892 C3891 1.410 . S
C3892 C3893 1.392 . S
C3892 C3895 1.511 . S
C3893 C3889 1.376 . S
C3893 C3892 1.392 . S
C3893 H3905 0.929 . S
C3894 C3890 1.531 . S
C3894 H3906 0.960 . S
C3894 H3907 0.962 . S
C3894 H3908 0.960 . S
C3895 C3892 1.511 . S
C3895 H3909 0.961 . S
C3895 H3910 0.961 . S
C3895 H3911 0.961 . S
C3896 C3897 1.370 . S
C3896 C3898 1.363 . S
C3896 H3912 0.931 . S
C3897 C3896 1.370 . S
C3897 C3901 1.408 . S
C3898 C3896 1.363 . S
C3898 C3899 1.370 . S
C3898 C3902 1.524 . S
C3899 C3891 1.503 . S
C3899 C3898 1.370 . S
C3899 C3900 1.403 . S
C3900 C3899 1.403 . S
C3900 C3901 1.404 . S
C3900 C3903 1.539 . S
C3901 C3897 1.408 . S
C3901 C3900 1.404 . S
C3901 H3913 0.930 . S
C3902 C3898 1.524 . S
C3902 H3914 0.956 . S
C3902 H3915 0.961 . S
C3902 H3916 0.961 . S
C3903 C3900 1.539 . S
C3903 H3917 0.958 . S
C3903 H3918 0.961 . S
C3903 H3919 0.960 . S
H3904 C3888 0.931 . S
H3905 C3893 0.929 . S
H3906 C3894 0.960 . S
H3907 C3894 0.962 . S
H3908 C3894 0.960 . S
H3909 C3895 0.961 . S
H3910 C3895 0.961 . S
H3911 C3895 0.961 . S
H3912 C3896 0.931 . S
H3913 C3901 0.930 . S
H3914 C3902 0.956 . S
H3915 C3902 0.961 . S
H3916 C3902 0.961 . S
H3917 C3903 0.958 . S
H3918 C3903 0.961 . S
H3919 C3903 0.960 . S
C3920 C3921 1.391 . S
C3920 C3922 1.394 . S
C3920 H3936 0.931 . S
C3921 C3920 1.391 . S
C3921 C3925 1.376 . S
C3922 C3920 1.394 . S
C3922 C3923 1.369 . S
C3922 C3926 1.531 . S
C3923 C3922 1.369 . S
C3923 C3924 1.410 . S
C3923 C3931 1.503 . S
C3924 C3923 1.410 . S
C3924 C3925 1.392 . S
C3924 C3927 1.511 . S
C3925 C3921 1.376 . S
C3925 C3924 1.392 . S
C3925 H3937 0.929 . S
C3926 C3922 1.531 . S
C3926 H3938 0.960 . S
C3926 H3939 0.962 . S
C3926 H3940 0.960 . S
C3927 C3924 1.511 . S
C3927 H3941 0.961 . S
C3927 H3942 0.961 . S
C3927 H3943 0.961 . S
C3928 C3929 1.370 . S
C3928 C3930 1.363 . S
C3928 H3944 0.931 . S
C3929 C3928 1.370 . S
C3929 C3933 1.408 . S
C3930 C3928 1.363 . S
C3930 C3931 1.370 . S
C3930 C3934 1.524 . S
C3931 C3923 1.503 . S
C3931 C3930 1.370 . S
C3931 C3932 1.403 . S
C3932 C3931 1.403 . S
C3932 C3933 1.404 . S
C3932 C3935 1.539 . S
C3933 C3929 1.408 . S
C3933 C3932 1.404 . S
C3933 H3945 0.930 . S
C3934 C3930 1.524 . S
C3934 H3946 0.956 . S
C3934 H3947 0.961 . S
C3934 H3948 0.961 . S
C3935 C3932 1.539 . S
C3935 H3949 0.958 . S
C3935 H3950 0.961 . S
C3935 H3951 0.960 . S
H3936 C3920 0.931 . S
H3937 C3925 0.929 . S
H3938 C3926 0.960 . S
H3939 C3926 0.962 . S
H3940 C3926 0.960 . S
H3941 C3927 0.961 . S
H3942 C3927 0.961 . S
H3943 C3927 0.961 . S
H3944 C3928 0.931 . S
H3945 C3933 0.930 . S
H3946 C3934 0.956 . S
H3947 C3934 0.961 . S
H3948 C3934 0.961 . S
H3949 C3935 0.958 . S
H3950 C3935 0.961 . S
H3951 C3935 0.960 . S
C3952 C3953 1.391 . S
C3952 C3954 1.394 . S
C3952 H3968 0.931 . S
C3953 C3952 1.391 . S
C3953 C3957 1.376 . S
C3954 C3952 1.394 . S
C3954 C3955 1.369 . S
C3954 C3958 1.531 . S
C3955 C3954 1.369 . S
C3955 C3956 1.410 . S
C3955 C3963 1.503 . S
C3956 C3955 1.410 . S
C3956 C3957 1.392 . S
C3956 C3959 1.511 . S
C3957 C3953 1.376 . S
C3957 C3956 1.392 . S
C3957 H3969 0.929 . S
C3958 C3954 1.531 . S
C3958 H3970 0.960 . S
C3958 H3971 0.962 . S
C3958 H3972 0.960 . S
C3959 C3956 1.511 . S
C3959 H3973 0.961 . S
C3959 H3974 0.961 . S
C3959 H3975 0.961 . S
C3960 C3961 1.370 . S
C3960 C3962 1.363 . S
C3960 H3976 0.931 . S
C3961 C3960 1.370 . S
C3961 C3965 1.408 . S
C3962 C3960 1.363 . S
C3962 C3963 1.370 . S
C3962 C3966 1.524 . S
C3963 C3955 1.503 . S
C3963 C3962 1.370 . S
C3963 C3964 1.403 . S
C3964 C3963 1.403 . S
C3964 C3965 1.404 . S
C3964 C3967 1.539 . S
C3965 C3961 1.408 . S
C3965 C3964 1.404 . S
C3965 H3977 0.930 . S
C3966 C3962 1.524 . S
C3966 H3978 0.956 . S
C3966 H3979 0.961 . S
C3966 H3980 0.961 . S
C3967 C3964 1.539 . S
C3967 H3981 0.958 . S
C3967 H3982 0.961 . S
C3967 H3983 0.960 . S
H3968 C3952 0.931 . S
H3969 C3957 0.929 . S
H3970 C3958 0.960 . S
H3971 C3958 0.962 . S
H3972 C3958 0.960 . S
H3973 C3959 0.961 . S
H3974 C3959 0.961 . S
H3975 C3959 0.961 . S
H3976 C3960 0.931 . S
H3977 C3965 0.930 . S
H3978 C3966 0.956 . S
H3979 C3966 0.961 . S
H3980 C3966 0.961 . S
H3981 C3967 0.958 . S
H3982 C3967 0.961 . S
H3983 C3967 0.960 . S
C3984 C3985 1.391 . S
C3984 C3986 1.394 . S
C3984 H4000 0.931 . S
C3985 C3984 1.391 . S
C3985 C3989 1.376 . S
C3986 C3984 1.394 . S
C3986 C3987 1.369 . S
C3986 C3990 1.531 . S
C3987 C3986 1.369 . S
C3987 C3988 1.410 . S
C3987 C3995 1.503 . S
C3988 C3987 1.410 . S
C3988 C3989 1.392 . S
C3988 C3991 1.511 . S
C3989 C3985 1.376 . S
C3989 C3988 1.392 . S
C3989 H4001 0.929 . S
C3990 C3986 1.531 . S
C3990 H4002 0.960 . S
C3990 H4003 0.962 . S
C3990 H4004 0.960 . S
C3991 C3988 1.511 . S
C3991 H4005 0.961 . S
C3991 H4006 0.961 . S
C3991 H4007 0.961 . S
C3992 C3993 1.370 . S
C3992 C3994 1.363 . S
C3992 H4008 0.931 . S
C3993 C3992 1.370 . S
C3993 C3997 1.408 . S
C3994 C3992 1.363 . S
C3994 C3995 1.370 . S
C3994 C3998 1.524 . S
C3995 C3987 1.503 . S
C3995 C3994 1.370 . S
C3995 C3996 1.403 . S
C3996 C3995 1.403 . S
C3996 C3997 1.404 . S
C3996 C3999 1.539 . S
C3997 C3993 1.408 . S
C3997 C3996 1.404 . S
C3997 H4009 0.930 . S
C3998 C3994 1.524 . S
C3998 H4010 0.956 . S
C3998 H4011 0.961 . S
C3998 H4012 0.961 . S
C3999 C3996 1.539 . S
C3999 H4013 0.958 . S
C3999 H4014 0.961 . S
C3999 H4015 0.960 . S
H4000 C3984 0.931 . S
H4001 C3989 0.929 . S
H4002 C3990 0.960 . S
H4003 C3990 0.962 . S
H4004 C3990 0.960 . S
H4005 C3991 0.961 . S
H4006 C3991 0.961 . S
H4007 C3991 0.961 . S
H4008 C3992 0.931 . S
H4009 C3997 0.930 . S
H4010 C3998 0.956 . S
H4011 C3998 0.961 . S
H4012 C3998 0.961 . S
H4013 C3999 0.958 . S
H4014 C3999 0.961 . S
H4015 C3999 0.960 . S
C4016 C4017 1.391 . S
C4016 C4018 1.394 . S
C4016 H4032 0.931 . S
C4017 C4016 1.391 . S
C4017 C4021 1.376 . S
C4018 C4016 1.394 . S
C4018 C4019 1.369 . S
C4018 C4022 1.531 . S
C4019 C4018 1.369 . S
C4019 C4020 1.410 . S
C4019 C4027 1.503 . S
C4020 C4019 1.410 . S
C4020 C4021 1.392 . S
C4020 C4023 1.511 . S
C4021 C4017 1.376 . S
C4021 C4020 1.392 . S
C4021 H4033 0.929 . S
C4022 C4018 1.531 . S
C4022 H4034 0.960 . S
C4022 H4035 0.962 . S
C4022 H4036 0.960 . S
C4023 C4020 1.511 . S
C4023 H4037 0.961 . S
C4023 H4038 0.961 . S
C4023 H4039 0.961 . S
C4024 C4025 1.370 . S
C4024 C4026 1.363 . S
C4024 H4040 0.931 . S
C4025 C4024 1.370 . S
C4025 C4029 1.408 . S
C4026 C4024 1.363 . S
C4026 C4027 1.370 . S
C4026 C4030 1.524 . S
C4027 C4019 1.503 . S
C4027 C4026 1.370 . S
C4027 C4028 1.403 . S
C4028 C4027 1.403 . S
C4028 C4029 1.404 . S
C4028 C4031 1.539 . S
C4029 C4025 1.408 . S
C4029 C4028 1.404 . S
C4029 H4041 0.930 . S
C4030 C4026 1.524 . S
C4030 H4042 0.956 . S
C4030 H4043 0.961 . S
C4030 H4044 0.961 . S
C4031 C4028 1.539 . S
C4031 H4045 0.958 . S
C4031 H4046 0.961 . S
C4031 H4047 0.960 . S
H4032 C4016 0.931 . S
H4033 C4021 0.929 . S
H4034 C4022 0.960 . S
H4035 C4022 0.962 . S
H4036 C4022 0.960 . S
H4037 C4023 0.961 . S
H4038 C4023 0.961 . S
H4039 C4023 0.961 . S
H4040 C4024 0.931 . S
H4041 C4029 0.930 . S
H4042 C4030 0.956 . S
H4043 C4030 0.961 . S
H4044 C4030 0.961 . S
H4045 C4031 0.958 . S
H4046 C4031 0.961 . S
H4047 C4031 0.960 . S
C4048 C4049 1.391 . S
C4048 C4050 1.394 . S
C4048 H4064 0.931 . S
C4049 C4048 1.391 . S
C4049 C4053 1.376 . S
C4050 C4048 1.394 . S
C4050 C4051 1.369 . S
C4050 C4054 1.531 . S
C4051 C4050 1.369 . S
C4051 C4052 1.410 . S
C4051 C4059 1.503 . S
C4052 C4051 1.410 . S
C4052 C4053 1.392 . S
C4052 C4055 1.511 . S
C4053 C4049 1.376 . S
C4053 C4052 1.392 . S
C4053 H4065 0.929 . S
C4054 C4050 1.531 . S
C4054 H4066 0.960 . S
C4054 H4067 0.962 . S
C4054 H4068 0.960 . S
C4055 C4052 1.511 . S
C4055 H4069 0.961 . S
C4055 H4070 0.961 . S
C4055 H4071 0.961 . S
C4056 C4057 1.370 . S
C4056 C4058 1.363 . S
C4056 H4072 0.931 . S
C4057 C4056 1.370 . S
C4057 C4061 1.408 . S
C4058 C4056 1.363 . S
C4058 C4059 1.370 . S
C4058 C4062 1.524 . S
C4059 C4051 1.503 . S
C4059 C4058 1.370 . S
C4059 C4060 1.403 . S
C4060 C4059 1.403 . S
C4060 C4061 1.404 . S
C4060 C4063 1.539 . S
C4061 C4057 1.408 . S
C4061 C4060 1.404 . S
C4061 H4073 0.930 . S
C4062 C4058 1.524 . S
C4062 H4074 0.956 . S
C4062 H4075 0.961 . S
C4062 H4076 0.961 . S
C4063 C4060 1.539 . S
C4063 H4077 0.958 . S
C4063 H4078 0.961 . S
C4063 H4079 0.960 . S
H4064 C4048 0.931 . S
H4065 C4053 0.929 . S
H4066 C4054 0.960 . S
H4067 C4054 0.962 . S
H4068 C4054 0.960 . S
H4069 C4055 0.961 . S
H4070 C4055 0.961 . S
H4071 C4055 0.961 . S
H4072 C4056 0.931 . S
H4073 C4061 0.930 . S
H4074 C4062 0.956 . S
H4075 C4062 0.961 . S
H4076 C4062 0.961 . S
H4077 C4063 0.958 . S
H4078 C4063 0.961 . S
H4079 C4063 0.960 . S
C4080 C4081 1.391 . S
C4080 C4082 1.394 . S
C4080 H4096 0.931 . S
C4081 C4080 1.391 . S
C4081 C4085 1.376 . S
C4082 C4080 1.394 . S
C4082 C4083 1.369 . S
C4082 C4086 1.531 . S
C4083 C4082 1.369 . S
C4083 C4084 1.410 . S
C4083 C4091 1.503 . S
C4084 C4083 1.410 . S
C4084 C4085 1.392 . S
C4084 C4087 1.511 . S
C4085 C4081 1.376 . S
C4085 C4084 1.392 . S
C4085 H4097 0.929 . S
C4086 C4082 1.531 . S
C4086 H4098 0.960 . S
C4086 H4099 0.962 . S
C4086 H4100 0.960 . S
C4087 C4084 1.511 . S
C4087 H4101 0.961 . S
C4087 H4102 0.961 . S
C4087 H4103 0.961 . S
C4088 C4089 1.370 . S
C4088 C4090 1.363 . S
C4088 H4104 0.931 . S
C4089 C4088 1.370 . S
C4089 C4093 1.408 . S
C4090 C4088 1.363 . S
C4090 C4091 1.370 . S
C4090 C4094 1.524 . S
C4091 C4083 1.503 . S
C4091 C4090 1.370 . S
C4091 C4092 1.403 . S
C4092 C4091 1.403 . S
C4092 C4093 1.404 . S
C4092 C4095 1.539 . S
C4093 C4089 1.408 . S
C4093 C4092 1.404 . S
C4093 H4105 0.930 . S
C4094 C4090 1.524 . S
C4094 H4106 0.956 . S
C4094 H4107 0.961 . S
C4094 H4108 0.961 . S
C4095 C4092 1.539 . S
C4095 H4109 0.958 . S
C4095 H4110 0.961 . S
C4095 H4111 0.960 . S
H4096 C4080 0.931 . S
H4097 C4085 0.929 . S
H4098 C4086 0.960 . S
H4099 C4086 0.962 . S
H4100 C4086 0.960 . S
H4101 C4087 0.961 . S
H4102 C4087 0.961 . S
H4103 C4087 0.961 . S
H4104 C4088 0.931 . S
H4105 C4093 0.930 . S
H4106 C4094 0.956 . S
H4107 C4094 0.961 . S
H4108 C4094 0.961 . S
H4109 C4095 0.958 . S
H4110 C4095 0.961 . S
H4111 C4095 0.960 . S
C4112 C4113 1.391 . S
C4112 C4114 1.394 . S
C4112 H4128 0.931 . S
C4113 C4112 1.391 . S
C4113 C4117 1.376 . S
C4114 C4112 1.394 . S
C4114 C4115 1.369 . S
C4114 C4118 1.531 . S
C4115 C4114 1.369 . S
C4115 C4116 1.410 . S
C4115 C4123 1.503 . S
C4116 C4115 1.410 . S
C4116 C4117 1.392 . S
C4116 C4119 1.511 . S
C4117 C4113 1.376 . S
C4117 C4116 1.392 . S
C4117 H4129 0.929 . S
C4118 C4114 1.531 . S
C4118 H4130 0.960 . S
C4118 H4131 0.962 . S
C4118 H4132 0.960 . S
C4119 C4116 1.511 . S
C4119 H4133 0.961 . S
C4119 H4134 0.961 . S
C4119 H4135 0.961 . S
C4120 C4121 1.370 . S
C4120 C4122 1.363 . S
C4120 H4136 0.931 . S
C4121 C4120 1.370 . S
C4121 C4125 1.408 . S
C4122 C4120 1.363 . S
C4122 C4123 1.370 . S
C4122 C4126 1.524 . S
C4123 C4115 1.503 . S
C4123 C4122 1.370 . S
C4123 C4124 1.403 . S
C4124 C4123 1.403 . S
C4124 C4125 1.404 . S
C4124 C4127 1.539 . S
C4125 C4121 1.408 . S
C4125 C4124 1.404 . S
C4125 H4137 0.930 . S
C4126 C4122 1.524 . S
C4126 H4138 0.956 . S
C4126 H4139 0.961 . S
C4126 H4140 0.961 . S
C4127 C4124 1.539 . S
C4127 H4141 0.958 . S
C4127 H4142 0.961 . S
C4127 H4143 0.960 . S
H4128 C4112 0.931 . S
H4129 C4117 0.929 . S
H4130 C4118 0.960 . S
H4131 C4118 0.962 . S
H4132 C4118 0.960 . S
H4133 C4119 0.961 . S
H4134 C4119 0.961 . S
H4135 C4119 0.961 . S
H4136 C4120 0.931 . S
H4137 C4125 0.930 . S
H4138 C4126 0.956 . S
H4139 C4126 0.961 . S
H4140 C4126 0.961 . S
H4141 C4127 0.958 . S
H4142 C4127 0.961 . S
H4143 C4127 0.960 . S
C4144 C4145 1.391 . S
C4144 C4146 1.394 . S
C4144 H4160 0.931 . S
C4145 C4144 1.391 . S
C4145 C4149 1.376 . S
C4146 C4144 1.394 . S
C4146 C4147 1.369 . S
C4146 C4150 1.531 . S
C4147 C4146 1.369 . S
C4147 C4148 1.410 . S
C4147 C4155 1.503 . S
C4148 C4147 1.410 . S
C4148 C4149 1.392 . S
C4148 C4151 1.511 . S
C4149 C4145 1.376 . S
C4149 C4148 1.392 . S
C4149 H4161 0.929 . S
C4150 C4146 1.531 . S
C4150 H4162 0.960 . S
C4150 H4163 0.962 . S
C4150 H4164 0.960 . S
C4151 C4148 1.511 . S
C4151 H4165 0.961 . S
C4151 H4166 0.961 . S
C4151 H4167 0.961 . S
C4152 C4153 1.370 . S
C4152 C4154 1.363 . S
C4152 H4168 0.931 . S
C4153 C4152 1.370 . S
C4153 C4157 1.408 . S
C4154 C4152 1.363 . S
C4154 C4155 1.370 . S
C4154 C4158 1.524 . S
C4155 C4147 1.503 . S
C4155 C4154 1.370 . S
C4155 C4156 1.403 . S
C4156 C4155 1.403 . S
C4156 C4157 1.404 . S
C4156 C4159 1.539 . S
C4157 C4153 1.408 . S
C4157 C4156 1.404 . S
C4157 H4169 0.930 . S
C4158 C4154 1.524 . S
C4158 H4170 0.956 . S
C4158 H4171 0.961 . S
C4158 H4172 0.961 . S
C4159 C4156 1.539 . S
C4159 H4173 0.958 . S
C4159 H4174 0.961 . S
C4159 H4175 0.960 . S
H4160 C4144 0.931 . S
H4161 C4149 0.929 . S
H4162 C4150 0.960 . S
H4163 C4150 0.962 . S
H4164 C4150 0.960 . S
H4165 C4151 0.961 . S
H4166 C4151 0.961 . S
H4167 C4151 0.961 . S
H4168 C4152 0.931 . S
H4169 C4157 0.930 . S
H4170 C4158 0.956 . S
H4171 C4158 0.961 . S
H4172 C4158 0.961 . S
H4173 C4159 0.958 . S
H4174 C4159 0.961 . S
H4175 C4159 0.960 . S
C4176 C4177 1.391 . S
C4176 C4178 1.394 . S
C4176 H4192 0.931 . S
C4177 C4176 1.391 . S
C4177 C4181 1.376 . S
C4178 C4176 1.394 . S
C4178 C4179 1.369 . S
C4178 C4182 1.531 . S
C4179 C4178 1.369 . S
C4179 C4180 1.410 . S
C4179 C4187 1.503 . S
C4180 C4179 1.410 . S
C4180 C4181 1.392 . S
C4180 C4183 1.511 . S
C4181 C4177 1.376 . S
C4181 C4180 1.392 . S
C4181 H4193 0.929 . S
C4182 C4178 1.531 . S
C4182 H4194 0.960 . S
C4182 H4195 0.962 . S
C4182 H4196 0.960 . S
C4183 C4180 1.511 . S
C4183 H4197 0.961 . S
C4183 H4198 0.961 . S
C4183 H4199 0.961 . S
C4184 C4185 1.370 . S
C4184 C4186 1.363 . S
C4184 H4200 0.931 . S
C4185 C4184 1.370 . S
C4185 C4189 1.408 . S
C4186 C4184 1.363 . S
C4186 C4187 1.370 . S
C4186 C4190 1.524 . S
C4187 C4179 1.503 . S
C4187 C4186 1.370 . S
C4187 C4188 1.403 . S
C4188 C4187 1.403 . S
C4188 C4189 1.404 . S
C4188 C4191 1.539 . S
C4189 C4185 1.408 . S
C4189 C4188 1.404 . S
C4189 H4201 0.930 . S
C4190 C4186 1.524 . S
C4190 H4202 0.956 . S
C4190 H4203 0.961 . S
C4190 H4204 0.961 . S
C4191 C4188 1.539 . S
C4191 H4205 0.958 . S
C4191 H4206 0.961 . S
C4191 H4207 0.960 . S
H4192 C4176 0.931 . S
H4193 C4181 0.929 . S
H4194 C4182 0.960 . S
H4195 C4182 0.962 . S
H4196 C4182 0.960 . S
H4197 C4183 0.961 . S
H4198 C4183 0.961 . S
H4199 C4183 0.961 . S
H4200 C4184 0.931 . S
H4201 C4189 0.930 . S
H4202 C4190 0.956 . S
H4203 C4190 0.961 . S
H4204 C4190 0.961 . S
H4205 C4191 0.958 . S
H4206 C4191 0.961 . S
H4207 C4191 0.960 . S
C4208 C4209 1.391 . S
C4208 C4210 1.394 . S
C4208 H4224 0.931 . S
C4209 C4208 1.391 . S
C4209 C4213 1.376 . S
C4210 C4208 1.394 . S
C4210 C4211 1.369 . S
C4210 C4214 1.531 . S
C4211 C4210 1.369 . S
C4211 C4212 1.410 . S
C4211 C4219 1.503 . S
C4212 C4211 1.410 . S
C4212 C4213 1.392 . S
C4212 C4215 1.511 . S
C4213 C4209 1.376 . S
C4213 C4212 1.392 . S
C4213 H4225 0.929 . S
C4214 C4210 1.531 . S
C4214 H4226 0.960 . S
C4214 H4227 0.962 . S
C4214 H4228 0.960 . S
C4215 C4212 1.511 . S
C4215 H4229 0.961 . S
C4215 H4230 0.961 . S
C4215 H4231 0.961 . S
C4216 C4217 1.370 . S
C4216 C4218 1.363 . S
C4216 H4232 0.931 . S
C4217 C4216 1.370 . S
C4217 C4221 1.408 . S
C4218 C4216 1.363 . S
C4218 C4219 1.370 . S
C4218 C4222 1.524 . S
C4219 C4211 1.503 . S
C4219 C4218 1.370 . S
C4219 C4220 1.403 . S
C4220 C4219 1.403 . S
C4220 C4221 1.404 . S
C4220 C4223 1.539 . S
C4221 C4217 1.408 . S
C4221 C4220 1.404 . S
C4221 H4233 0.930 . S
C4222 C4218 1.524 . S
C4222 H4234 0.956 . S
C4222 H4235 0.961 . S
C4222 H4236 0.961 . S
C4223 C4220 1.539 . S
C4223 H4237 0.958 . S
C4223 H4238 0.961 . S
C4223 H4239 0.960 . S
H4224 C4208 0.931 . S
H4225 C4213 0.929 . S
H4226 C4214 0.960 . S
H4227 C4214 0.962 . S
H4228 C4214 0.960 . S
H4229 C4215 0.961 . S
H4230 C4215 0.961 . S
H4231 C4215 0.961 . S
H4232 C4216 0.931 . S
H4233 C4221 0.930 . S
H4234 C4222 0.956 . S
H4235 C4222 0.961 . S
H4236 C4222 0.961 . S
H4237 C4223 0.958 . S
H4238 C4223 0.961 . S
H4239 C4223 0.960 . S
C4240 C4241 1.391 . S
C4240 C4242 1.394 . S
C4240 H4256 0.931 . S
C4241 C4240 1.391 . S
C4241 C4245 1.376 . S
C4242 C4240 1.394 . S
C4242 C4243 1.369 . S
C4242 C4246 1.531 . S
C4243 C4242 1.369 . S
C4243 C4244 1.410 . S
C4243 C4251 1.503 . S
C4244 C4243 1.410 . S
C4244 C4245 1.392 . S
C4244 C4247 1.511 . S
C4245 C4241 1.376 . S
C4245 C4244 1.392 . S
C4245 H4257 0.929 . S
C4246 C4242 1.531 . S
C4246 H4258 0.960 . S
C4246 H4259 0.962 . S
C4246 H4260 0.960 . S
C4247 C4244 1.511 . S
C4247 H4261 0.961 . S
C4247 H4262 0.961 . S
C4247 H4263 0.961 . S
C4248 C4249 1.370 . S
C4248 C4250 1.363 . S
C4248 H4264 0.931 . S
C4249 C4248 1.370 . S
C4249 C4253 1.408 . S
C4250 C4248 1.363 . S
C4250 C4251 1.370 . S
C4250 C4254 1.524 . S
C4251 C4243 1.503 . S
C4251 C4250 1.370 . S
C4251 C4252 1.403 . S
C4252 C4251 1.403 . S
C4252 C4253 1.404 . S
C4252 C4255 1.539 . S
C4253 C4249 1.408 . S
C4253 C4252 1.404 . S
C4253 H4265 0.930 . S
C4254 C4250 1.524 . S
C4254 H4266 0.956 . S
C4254 H4267 0.961 . S
C4254 H4268 0.961 . S
C4255 C4252 1.539 . S
C4255 H4269 0.958 . S
C4255 H4270 0.961 . S
C4255 H4271 0.960 . S
H4256 C4240 0.931 . S
H4257 C4245 0.929 . S
H4258 C4246 0.960 . S
H4259 C4246 0.962 . S
H4260 C4246 0.960 . S
H4261 C4247 0.961 . S
H4262 C4247 0.961 . S
H4263 C4247 0.961 . S
H4264 C4248 0.931 . S
H4265 C4253 0.930 . S
H4266 C4254 0.956 . S
H4267 C4254 0.961 . S
H4268 C4254 0.961 . S
H4269 C4255 0.958 . S
H4270 C4255 0.961 . S
H4271 C4255 0.960 . S
C4272 C4273 1.391 . S
C4272 C4274 1.394 . S
C4272 H4288 0.931 . S
C4273 C4272 1.391 . S
C4273 C4277 1.376 . S
C4274 C4272 1.394 . S
C4274 C4275 1.369 . S
C4274 C4278 1.531 . S
C4275 C4274 1.369 . S
C4275 C4276 1.410 . S
C4275 C4283 1.503 . S
C4276 C4275 1.410 . S
C4276 C4277 1.392 . S
C4276 C4279 1.511 . S
C4277 C4273 1.376 . S
C4277 C4276 1.392 . S
C4277 H4289 0.929 . S
C4278 C4274 1.531 . S
C4278 H4290 0.960 . S
C4278 H4291 0.962 . S
C4278 H4292 0.960 . S
C4279 C4276 1.511 . S
C4279 H4293 0.961 . S
C4279 H4294 0.961 . S
C4279 H4295 0.961 . S
C4280 C4281 1.370 . S
C4280 C4282 1.363 . S
C4280 H4296 0.931 . S
C4281 C4280 1.370 . S
C4281 C4285 1.408 . S
C4282 C4280 1.363 . S
C4282 C4283 1.370 . S
C4282 C4286 1.524 . S
C4283 C4275 1.503 . S
C4283 C4282 1.370 . S
C4283 C4284 1.403 . S
C4284 C4283 1.403 . S
C4284 C4285 1.404 . S
C4284 C4287 1.539 . S
C4285 C4281 1.408 . S
C4285 C4284 1.404 . S
C4285 H4297 0.930 . S
C4286 C4282 1.524 . S
C4286 H4298 0.956 . S
C4286 H4299 0.961 . S
C4286 H4300 0.961 . S
C4287 C4284 1.539 . S
C4287 H4301 0.958 . S
C4287 H4302 0.961 . S
C4287 H4303 0.960 . S
H4288 C4272 0.931 . S
H4289 C4277 0.929 . S
H4290 C4278 0.960 . S
H4291 C4278 0.962 . S
H4292 C4278 0.960 . S
H4293 C4279 0.961 . S
H4294 C4279 0.961 . S
H4295 C4279 0.961 . S
H4296 C4280 0.931 . S
H4297 C4285 0.930 . S
H4298 C4286 0.956 . S
H4299 C4286 0.961 . S
H4300 C4286 0.961 . S
H4301 C4287 0.958 . S
H4302 C4287 0.961 . S
H4303 C4287 0.960 . S
C4304 C4305 1.391 . S
C4304 C4306 1.394 . S
C4304 H4320 0.931 . S
C4305 C4304 1.391 . S
C4305 C4309 1.376 . S
C4306 C4304 1.394 . S
C4306 C4307 1.369 . S
C4306 C4310 1.531 . S
C4307 C4306 1.369 . S
C4307 C4308 1.410 . S
C4307 C4315 1.503 . S
C4308 C4307 1.410 . S
C4308 C4309 1.392 . S
C4308 C4311 1.511 . S
C4309 C4305 1.376 . S
C4309 C4308 1.392 . S
C4309 H4321 0.929 . S
C4310 C4306 1.531 . S
C4310 H4322 0.960 . S
C4310 H4323 0.962 . S
C4310 H4324 0.960 . S
C4311 C4308 1.511 . S
C4311 H4325 0.961 . S
C4311 H4326 0.961 . S
C4311 H4327 0.961 . S
C4312 C4313 1.370 . S
C4312 C4314 1.363 . S
C4312 H4328 0.931 . S
C4313 C4312 1.370 . S
C4313 C4317 1.408 . S
C4314 C4312 1.363 . S
C4314 C4315 1.370 . S
C4314 C4318 1.524 . S
C4315 C4307 1.503 . S
C4315 C4314 1.370 . S
C4315 C4316 1.403 . S
C4316 C4315 1.403 . S
C4316 C4317 1.404 . S
C4316 C4319 1.539 . S
C4317 C4313 1.408 . S
C4317 C4316 1.404 . S
C4317 H4329 0.930 . S
C4318 C4314 1.524 . S
C4318 H4330 0.956 . S
C4318 H4331 0.961 . S
C4318 H4332 0.961 . S
C4319 C4316 1.539 . S
C4319 H4333 0.958 . S
C4319 H4334 0.961 . S
C4319 H4335 0.960 . S
H4320 C4304 0.931 . S
H4321 C4309 0.929 . S
H4322 C4310 0.960 . S
H4323 C4310 0.962 . S
H4324 C4310 0.960 . S
H4325 C4311 0.961 . S
H4326 C4311 0.961 . S
H4327 C4311 0.961 . S
H4328 C4312 0.931 . S
H4329 C4317 0.930 . S
H4330 C4318 0.956 . S
H4331 C4318 0.961 . S
H4332 C4318 0.961 . S
H4333 C4319 0.958 . S
H4334 C4319 0.961 . S
H4335 C4319 0.960 . S
C4336 C4337 1.391 . S
C4336 C4338 1.394 . S
C4336 H4352 0.931 . S
C4337 C4336 1.391 . S
C4337 C4341 1.376 . S
C4338 C4336 1.394 . S
C4338 C4339 1.369 . S
C4338 C4342 1.531 . S
C4339 C4338 1.369 . S
C4339 C4340 1.410 . S
C4339 C4347 1.503 . S
C4340 C4339 1.410 . S
C4340 C4341 1.392 . S
C4340 C4343 1.511 . S
C4341 C4337 1.376 . S
C4341 C4340 1.392 . S
C4341 H4353 0.929 . S
C4342 C4338 1.531 . S
C4342 H4354 0.960 . S
C4342 H4355 0.962 . S
C4342 H4356 0.960 . S
C4343 C4340 1.511 . S
C4343 H4357 0.961 . S
C4343 H4358 0.961 . S
C4343 H4359 0.961 . S
C4344 C4345 1.370 . S
C4344 C4346 1.363 . S
C4344 H4360 0.931 . S
C4345 C4344 1.370 . S
C4345 C4349 1.408 . S
C4346 C4344 1.363 . S
C4346 C4347 1.370 . S
C4346 C4350 1.524 . S
C4347 C4339 1.503 . S
C4347 C4346 1.370 . S
C4347 C4348 1.403 . S
C4348 C4347 1.403 . S
C4348 C4349 1.404 . S
C4348 C4351 1.539 . S
C4349 C4345 1.408 . S
C4349 C4348 1.404 . S
C4349 H4361 0.930 . S
C4350 C4346 1.524 . S
C4350 H4362 0.956 . S
C4350 H4363 0.961 . S
C4350 H4364 0.961 . S
C4351 C4348 1.539 . S
C4351 H4365 0.958 . S
C4351 H4366 0.961 . S
C4351 H4367 0.960 . S
H4352 C4336 0.931 . S
H4353 C4341 0.929 . S
H4354 C4342 0.960 . S
H4355 C4342 0.962 . S
H4356 C4342 0.960 . S
H4357 C4343 0.961 . S
H4358 C4343 0.961 . S
H4359 C4343 0.961 . S
H4360 C4344 0.931 . S
H4361 C4349 0.930 . S
H4362 C4350 0.956 . S
H4363 C4350 0.961 . S
H4364 C4350 0.961 . S
H4365 C4351 0.958 . S
H4366 C4351 0.961 . S
H4367 C4351 0.960 . S
C4368 C4369 1.391 . S
C4368 C4370 1.394 . S
C4368 H4384 0.931 . S
C4369 C4368 1.391 . S
C4369 C4373 1.376 . S
C4370 C4368 1.394 . S
C4370 C4371 1.369 . S
C4370 C4374 1.531 . S
C4371 C4370 1.369 . S
C4371 C4372 1.410 . S
C4371 C4379 1.503 . S
C4372 C4371 1.410 . S
C4372 C4373 1.392 . S
C4372 C4375 1.511 . S
C4373 C4369 1.376 . S
C4373 C4372 1.392 . S
C4373 H4385 0.929 . S
C4374 C4370 1.531 . S
C4374 H4386 0.960 . S
C4374 H4387 0.962 . S
C4374 H4388 0.960 . S
C4375 C4372 1.511 . S
C4375 H4389 0.961 . S
C4375 H4390 0.961 . S
C4375 H4391 0.961 . S
C4376 C4377 1.370 . S
C4376 C4378 1.363 . S
C4376 H4392 0.931 . S
C4377 C4376 1.370 . S
C4377 C4381 1.408 . S
C4378 C4376 1.363 . S
C4378 C4379 1.370 . S
C4378 C4382 1.524 . S
C4379 C4371 1.503 . S
C4379 C4378 1.370 . S
C4379 C4380 1.403 . S
C4380 C4379 1.403 . S
C4380 C4381 1.404 . S
C4380 C4383 1.539 . S
C4381 C4377 1.408 . S
C4381 C4380 1.404 . S
C4381 H4393 0.930 . S
C4382 C4378 1.524 . S
C4382 H4394 0.956 . S
C4382 H4395 0.961 . S
C4382 H4396 0.961 . S
C4383 C4380 1.539 . S
C4383 H4397 0.958 . S
C4383 H4398 0.961 . S
C4383 H4399 0.960 . S
H4384 C4368 0.931 . S
H4385 C4373 0.929 . S
H4386 C4374 0.960 . S
H4387 C4374 0.962 . S
H4388 C4374 0.960 . S
H4389 C4375 0.961 . S
H4390 C4375 0.961 . S
H4391 C4375 0.961 . S
H4392 C4376 0.931 . S
H4393 C4381 0.930 . S
H4394 C4382 0.956 . S
H4395 C4382 0.961 . S
H4396 C4382 0.961 . S
H4397 C4383 0.958 . S
H4398 C4383 0.961 . S
H4399 C4383 0.960 . S
C4400 C4401 1.391 . S
C4400 C4402 1.394 . S
C4400 H4416 0.931 . S
C4401 C4400 1.391 . S
C4401 C4405 1.376 . S
C4402 C4400 1.394 . S
C4402 C4403 1.369 . S
C4402 C4406 1.531 . S
C4403 C4402 1.369 . S
C4403 C4404 1.410 . S
C4403 C4411 1.503 . S
C4404 C4403 1.410 . S
C4404 C4405 1.392 . S
C4404 C4407 1.511 . S
C4405 C4401 1.376 . S
C4405 C4404 1.392 . S
C4405 H4417 0.929 . S
C4406 C4402 1.531 . S
C4406 H4418 0.960 . S
C4406 H4419 0.962 . S
C4406 H4420 0.960 . S
C4407 C4404 1.511 . S
C4407 H4421 0.961 . S
C4407 H4422 0.961 . S
C4407 H4423 0.961 . S
C4408 C4409 1.370 . S
C4408 C4410 1.363 . S
C4408 H4424 0.931 . S
C4409 C4408 1.370 . S
C4409 C4413 1.408 . S
C4410 C4408 1.363 . S
C4410 C4411 1.370 . S
C4410 C4414 1.524 . S
C4411 C4403 1.503 . S
C4411 C4410 1.370 . S
C4411 C4412 1.403 . S
C4412 C4411 1.403 . S
C4412 C4413 1.404 . S
C4412 C4415 1.539 . S
C4413 C4409 1.408 . S
C4413 C4412 1.404 . S
C4413 H4425 0.930 . S
C4414 C4410 1.524 . S
C4414 H4426 0.956 . S
C4414 H4427 0.961 . S
C4414 H4428 0.961 . S
C4415 C4412 1.539 . S
C4415 H4429 0.958 . S
C4415 H4430 0.961 . S
C4415 H4431 0.960 . S
H4416 C4400 0.931 . S
H4417 C4405 0.929 . S
H4418 C4406 0.960 . S
H4419 C4406 0.962 . S
H4420 C4406 0.960 . S
H4421 C4407 0.961 . S
H4422 C4407 0.961 . S
H4423 C4407 0.961 . S
H4424 C4408 0.931 . S
H4425 C4413 0.930 . S
H4426 C4414 0.956 . S
H4427 C4414 0.961 . S
H4428 C4414 0.961 . S
H4429 C4415 0.958 . S
H4430 C4415 0.961 . S
H4431 C4415 0.960 . S
C4432 C4433 1.391 . S
C4432 C4434 1.394 . S
C4432 H4448 0.931 . S
C4433 C4432 1.391 . S
C4433 C4437 1.376 . S
C4434 C4432 1.394 . S
C4434 C4435 1.369 . S
C4434 C4438 1.531 . S
C4435 C4434 1.369 . S
C4435 C4436 1.410 . S
C4435 C4443 1.503 . S
C4436 C4435 1.410 . S
C4436 C4437 1.392 . S
C4436 C4439 1.511 . S
C4437 C4433 1.376 . S
C4437 C4436 1.392 . S
C4437 H4449 0.929 . S
C4438 C4434 1.531 . S
C4438 H4450 0.960 . S
C4438 H4451 0.962 . S
C4438 H4452 0.960 . S
C4439 C4436 1.511 . S
C4439 H4453 0.961 . S
C4439 H4454 0.961 . S
C4439 H4455 0.961 . S
C4440 C4441 1.370 . S
C4440 C4442 1.363 . S
C4440 H4456 0.931 . S
C4441 C4440 1.370 . S
C4441 C4445 1.408 . S
C4442 C4440 1.363 . S
C4442 C4443 1.370 . S
C4442 C4446 1.524 . S
C4443 C4435 1.503 . S
C4443 C4442 1.370 . S
C4443 C4444 1.403 . S
C4444 C4443 1.403 . S
C4444 C4445 1.404 . S
C4444 C4447 1.539 . S
C4445 C4441 1.408 . S
C4445 C4444 1.404 . S
C4445 H4457 0.930 . S
C4446 C4442 1.524 . S
C4446 H4458 0.956 . S
C4446 H4459 0.961 . S
C4446 H4460 0.961 . S
C4447 C4444 1.539 . S
C4447 H4461 0.958 . S
C4447 H4462 0.961 . S
C4447 H4463 0.960 . S
H4448 C4432 0.931 . S
H4449 C4437 0.929 . S
H4450 C4438 0.960 . S
H4451 C4438 0.962 . S
H4452 C4438 0.960 . S
H4453 C4439 0.961 . S
H4454 C4439 0.961 . S
H4455 C4439 0.961 . S
H4456 C4440 0.931 . S
H4457 C4445 0.930 . S
H4458 C4446 0.956 . S
H4459 C4446 0.961 . S
H4460 C4446 0.961 . S
H4461 C4447 0.958 . S
H4462 C4447 0.961 . S
H4463 C4447 0.960 . S
C4464 C4465 1.391 . S
C4464 C4466 1.394 . S
C4464 H4480 0.931 . S
C4465 C4464 1.391 . S
C4465 C4469 1.376 . S
C4466 C4464 1.394 . S
C4466 C4467 1.369 . S
C4466 C4470 1.531 . S
C4467 C4466 1.369 . S
C4467 C4468 1.410 . S
C4467 C4475 1.503 . S
C4468 C4467 1.410 . S
C4468 C4469 1.392 . S
C4468 C4471 1.511 . S
C4469 C4465 1.376 . S
C4469 C4468 1.392 . S
C4469 H4481 0.929 . S
C4470 C4466 1.531 . S
C4470 H4482 0.960 . S
C4470 H4483 0.962 . S
C4470 H4484 0.960 . S
C4471 C4468 1.511 . S
C4471 H4485 0.961 . S
C4471 H4486 0.961 . S
C4471 H4487 0.961 . S
C4472 C4473 1.370 . S
C4472 C4474 1.363 . S
C4472 H4488 0.931 . S
C4473 C4472 1.370 . S
C4473 C4477 1.408 . S
C4474 C4472 1.363 . S
C4474 C4475 1.370 . S
C4474 C4478 1.524 . S
C4475 C4467 1.503 . S
C4475 C4474 1.370 . S
C4475 C4476 1.403 . S
C4476 C4475 1.403 . S
C4476 C4477 1.404 . S
C4476 C4479 1.539 . S
C4477 C4473 1.408 . S
C4477 C4476 1.404 . S
C4477 H4489 0.930 . S
C4478 C4474 1.524 . S
C4478 H4490 0.956 . S
C4478 H4491 0.961 . S
C4478 H4492 0.961 . S
C4479 C4476 1.539 . S
C4479 H4493 0.958 . S
C4479 H4494 0.961 . S
C4479 H4495 0.960 . S
H4480 C4464 0.931 . S
H4481 C4469 0.929 . S
H4482 C4470 0.960 . S
H4483 C4470 0.962 . S
H4484 C4470 0.960 . S
H4485 C4471 0.961 . S
H4486 C4471 0.961 . S
H4487 C4471 0.961 . S
H4488 C4472 0.931 . S
H4489 C4477 0.930 . S
H4490 C4478 0.956 . S
H4491 C4478 0.961 . S
H4492 C4478 0.961 . S
H4493 C4479 0.958 . S
H4494 C4479 0.961 . S
H4495 C4479 0.960 . S
C4496 C4497 1.391 . S
C4496 C4498 1.394 . S
C4496 H4512 0.931 . S
C4497 C4496 1.391 . S
C4497 C4501 1.376 . S
C4498 C4496 1.394 . S
C4498 C4499 1.369 . S
C4498 C4502 1.531 . S
C4499 C4498 1.369 . S
C4499 C4500 1.410 . S
C4499 C4507 1.503 . S
C4500 C4499 1.410 . S
C4500 C4501 1.392 . S
C4500 C4503 1.511 . S
C4501 C4497 1.376 . S
C4501 C4500 1.392 . S
C4501 H4513 0.929 . S
C4502 C4498 1.531 . S
C4502 H4514 0.960 . S
C4502 H4515 0.962 . S
C4502 H4516 0.960 . S
C4503 C4500 1.511 . S
C4503 H4517 0.961 . S
C4503 H4518 0.961 . S
C4503 H4519 0.961 . S
C4504 C4505 1.370 . S
C4504 C4506 1.363 . S
C4504 H4520 0.931 . S
C4505 C4504 1.370 . S
C4505 C4509 1.408 . S
C4506 C4504 1.363 . S
C4506 C4507 1.370 . S
C4506 C4510 1.524 . S
C4507 C4499 1.503 . S
C4507 C4506 1.370 . S
C4507 C4508 1.403 . S
C4508 C4507 1.403 . S
C4508 C4509 1.404 . S
C4508 C4511 1.539 . S
C4509 C4505 1.408 . S
C4509 C4508 1.404 . S
C4509 H4521 0.930 . S
C4510 C4506 1.524 . S
C4510 H4522 0.956 . S
C4510 H4523 0.961 . S
C4510 H4524 0.961 . S
C4511 C4508 1.539 . S
C4511 H4525 0.958 . S
C4511 H4526 0.961 . S
C4511 H4527 0.960 . S
H4512 C4496 0.931 . S
H4513 C4501 0.929 . S
H4514 C4502 0.960 . S
H4515 C4502 0.962 . S
H4516 C4502 0.960 . S
H4517 C4503 0.961 . S
H4518 C4503 0.961 . S
H4519 C4503 0.961 . S
H4520 C4504 0.931 . S
H4521 C4509 0.930 . S
H4522 C4510 0.956 . S
H4523 C4510 0.961 . S
H4524 C4510 0.961 . S
H4525 C4511 0.958 . S
H4526 C4511 0.961 . S
H4527 C4511 0.960 . S
C4528 C4529 1.391 . S
C4528 C4530 1.394 . S
C4528 H4544 0.931 . S
C4529 C4528 1.391 . S
C4529 C4533 1.376 . S
C4530 C4528 1.394 . S
C4530 C4531 1.369 . S
C4530 C4534 1.531 . S
C4531 C4530 1.369 . S
C4531 C4532 1.410 . S
C4531 C4539 1.503 . S
C4532 C4531 1.410 . S
C4532 C4533 1.392 . S
C4532 C4535 1.511 . S
C4533 C4529 1.376 . S
C4533 C4532 1.392 . S
C4533 H4545 0.929 . S
C4534 C4530 1.531 . S
C4534 H4546 0.960 . S
C4534 H4547 0.962 . S
C4534 H4548 0.960 . S
C4535 C4532 1.511 . S
C4535 H4549 0.961 . S
C4535 H4550 0.961 . S
C4535 H4551 0.961 . S
C4536 C4537 1.370 . S
C4536 C4538 1.363 . S
C4536 H4552 0.931 . S
C4537 C4536 1.370 . S
C4537 C4541 1.408 . S
C4538 C4536 1.363 . S
C4538 C4539 1.370 . S
C4538 C4542 1.524 . S
C4539 C4531 1.503 . S
C4539 C4538 1.370 . S
C4539 C4540 1.403 . S
C4540 C4539 1.403 . S
C4540 C4541 1.404 . S
C4540 C4543 1.539 . S
C4541 C4537 1.408 . S
C4541 C4540 1.404 . S
C4541 H4553 0.930 . S
C4542 C4538 1.524 . S
C4542 H4554 0.956 . S
C4542 H4555 0.961 . S
C4542 H4556 0.961 . S
C4543 C4540 1.539 . S
C4543 H4557 0.958 . S
C4543 H4558 0.961 . S
C4543 H4559 0.960 . S
H4544 C4528 0.931 . S
H4545 C4533 0.929 . S
H4546 C4534 0.960 . S
H4547 C4534 0.962 . S
H4548 C4534 0.960 . S
H4549 C4535 0.961 . S
H4550 C4535 0.961 . S
H4551 C4535 0.961 . S
H4552 C4536 0.931 . S
H4553 C4541 0.930 . S
H4554 C4542 0.956 . S
H4555 C4542 0.961 . S
H4556 C4542 0.961 . S
H4557 C4543 0.958 . S
H4558 C4543 0.961 . S
H4559 C4543 0.960 . S
C4560 C4561 1.387 1_545 S
C4560 C4562 1.403 . S
C4560 H4576 0.926 1_545 S
C4561 C4560 1.387 1_565 S
C4561 C4565 1.376 1_565 S
C4562 C4560 1.403 . S
C4562 C4563 1.369 . S
C4562 C4566 1.531 . S
C4563 C4562 1.369 . S
C4563 C4564 1.410 . S
C4563 C4571 1.503 . S
C4564 C4563 1.410 . S
C4564 C4565 1.392 . S
C4564 C4567 1.511 . S
C4565 C4561 1.376 1_545 S
C4565 C4564 1.392 . S
C4565 H4577 0.929 . S
C4566 C4562 1.531 . S
C4566 H4578 0.960 . S
C4566 H4579 0.962 . S
C4566 H4580 0.960 . S
C4567 C4564 1.511 . S
C4567 H4581 0.961 . S
C4567 H4582 0.961 . S
C4567 H4583 0.961 . S
C4568 C4569 1.370 . S
C4568 C4570 1.363 . S
C4568 H4584 0.931 . S
C4569 C4568 1.370 . S
C4569 C4573 1.408 . S
C4570 C4568 1.363 . S
C4570 C4571 1.370 . S
C4570 C4574 1.524 . S
C4571 C4563 1.503 . S
C4571 C4570 1.370 . S
C4571 C4572 1.403 . S
C4572 C4571 1.403 . S
C4572 C4573 1.404 . S
C4572 C4575 1.539 . S
C4573 C4569 1.408 . S
C4573 C4572 1.404 . S
C4573 H4585 0.930 . S
C4574 C4570 1.524 . S
C4574 H4586 0.956 . S
C4574 H4587 0.961 . S
C4574 H4588 0.961 . S
C4575 C4572 1.539 . S
C4575 H4589 0.958 . S
C4575 H4590 0.961 . S
C4575 H4591 0.960 . S
H4576 C4560 0.926 1_565 S
H4577 C4565 0.929 . S
H4578 C4566 0.960 . S
H4579 C4566 0.962 . S
H4580 C4566 0.960 . S
H4581 C4567 0.961 . S
H4582 C4567 0.961 . S
H4583 C4567 0.961 . S
H4584 C4568 0.931 . S
H4585 C4573 0.930 . S
H4586 C4574 0.956 . S
H4587 C4574 0.961 . S
H4588 C4574 0.961 . S
H4589 C4575 0.958 . S
H4590 C4575 0.961 . S
H4591 C4575 0.960 . S
C4592 C4593 1.391 . S
C4592 C4594 1.394 . S
C4592 H4608 0.931 . S
C4593 C4592 1.391 . S
C4593 C4597 1.376 . S
C4594 C4592 1.394 . S
C4594 C4595 1.369 . S
C4594 C4598 1.531 . S
C4595 C4594 1.369 . S
C4595 C4596 1.410 . S
C4595 C4603 1.503 1_455 S
C4596 C4595 1.410 . S
C4596 C4597 1.392 . S
C4596 C4599 1.511 1_455 S
C4597 C4593 1.376 . S
C4597 C4596 1.392 . S
C4597 H4609 0.929 . S
C4598 C4594 1.531 . S
C4598 H4610 0.960 . S
C4598 H4611 0.962 . S
C4598 H4612 0.960 . S
C4599 C4596 1.511 1_655 S
C4599 H4613 0.961 . S
C4599 H4614 0.961 . S
C4599 H4615 0.961 . S
C4600 C4601 1.370 . S
C4600 C4602 1.363 . S
C4600 H4616 0.931 . S
C4601 C4600 1.370 . S
C4601 C4605 1.408 . S
C4602 C4600 1.363 . S
C4602 C4603 1.370 . S
C4602 C4606 1.524 1_655 S
C4603 C4595 1.503 1_655 S
C4603 C4602 1.370 . S
C4603 C4604 1.403 . S
C4604 C4603 1.403 . S
C4604 C4605 1.404 . S
C4604 C4607 1.539 . S
C4605 C4601 1.408 . S
C4605 C4604 1.404 . S
C4605 H4617 0.930 . S
C4606 C4602 1.524 1_455 S
C4606 H4618 0.956 . S
C4606 H4619 0.961 . S
C4606 H4620 0.961 . S
C4607 C4604 1.539 . S
C4607 H4621 0.958 . S
C4607 H4622 0.961 . S
C4607 H4623 0.960 . S
H4608 C4592 0.931 . S
H4609 C4597 0.929 . S
H4610 C4598 0.960 . S
H4611 C4598 0.962 . S
H4612 C4598 0.960 . S
H4613 C4599 0.961 . S
H4614 C4599 0.961 . S
H4615 C4599 0.961 . S
H4616 C4600 0.931 . S
H4617 C4605 0.930 . S
H4618 C4606 0.956 . S
H4619 C4606 0.961 . S
H4620 C4606 0.961 . S
H4621 C4607 0.958 . S
H4622 C4607 0.961 . S
H4623 C4607 0.960 . S
C4624 C4625 1.391 . S
C4624 C4626 1.394 . S
C4624 H4640 0.931 . S
C4625 C4624 1.391 . S
C4625 C4629 1.376 . S
C4626 C4624 1.394 . S
C4626 C4627 1.369 . S
C4626 C4630 1.531 . S
C4627 C4626 1.369 . S
C4627 C4628 1.410 . S
C4627 C4635 1.503 . S
C4628 C4627 1.410 . S
C4628 C4629 1.392 . S
C4628 C4631 1.511 . S
C4629 C4625 1.376 . S
C4629 C4628 1.392 . S
C4629 H4641 0.929 . S
C4630 C4626 1.531 . S
C4630 H4642 0.960 . S
C4630 H4643 0.962 . S
C4630 H4644 0.960 . S
C4631 C4628 1.511 . S
C4631 H4645 0.961 . S
C4631 H4646 0.961 . S
C4631 H4647 0.961 . S
C4632 C4633 1.370 . S
C4632 C4634 1.363 . S
C4632 H4648 0.931 . S
C4633 C4632 1.370 . S
C4633 C4637 1.408 . S
C4634 C4632 1.363 . S
C4634 C4635 1.370 . S
C4634 C4638 1.524 . S
C4635 C4627 1.503 . S
C4635 C4634 1.370 . S
C4635 C4636 1.403 . S
C4636 C4635 1.403 . S
C4636 C4637 1.404 . S
C4636 C4639 1.539 . S
C4637 C4633 1.408 . S
C4637 C4636 1.404 . S
C4637 H4649 0.930 . S
C4638 C4634 1.524 . S
C4638 H4650 0.956 . S
C4638 H4651 0.961 . S
C4638 H4652 0.961 . S
C4639 C4636 1.539 . S
C4639 H4653 0.958 . S
C4639 H4654 0.961 . S
C4639 H4655 0.960 . S
H4640 C4624 0.931 . S
H4641 C4629 0.929 . S
H4642 C4630 0.960 . S
H4643 C4630 0.962 . S
H4644 C4630 0.960 . S
H4645 C4631 0.961 . S
H4646 C4631 0.961 . S
H4647 C4631 0.961 . S
H4648 C4632 0.931 . S
H4649 C4637 0.930 . S
H4650 C4638 0.956 . S
H4651 C4638 0.961 . S
H4652 C4638 0.961 . S
H4653 C4639 0.958 . S
H4654 C4639 0.961 . S
H4655 C4639 0.960 . S
C4656 C4657 1.391 . S
C4656 C4658 1.394 . S
C4656 H4672 0.931 . S
C4657 C4656 1.391 . S
C4657 C4661 1.376 . S
C4658 C4656 1.394 . S
C4658 C4659 1.369 . S
C4658 C4662 1.531 . S
C4659 C4658 1.369 . S
C4659 C4660 1.410 . S
C4659 C4667 1.503 . S
C4660 C4659 1.410 . S
C4660 C4661 1.392 . S
C4660 C4663 1.511 . S
C4661 C4657 1.376 . S
C4661 C4660 1.392 . S
C4661 H4673 0.929 . S
C4662 C4658 1.531 . S
C4662 H4674 0.960 . S
C4662 H4675 0.962 . S
C4662 H4676 0.960 . S
C4663 C4660 1.511 . S
C4663 H4677 0.961 . S
C4663 H4678 0.961 . S
C4663 H4679 0.961 . S
C4664 C4665 1.370 . S
C4664 C4666 1.363 . S
C4664 H4680 0.931 . S
C4665 C4664 1.370 . S
C4665 C4669 1.408 . S
C4666 C4664 1.363 . S
C4666 C4667 1.370 . S
C4666 C4670 1.524 . S
C4667 C4659 1.503 . S
C4667 C4666 1.370 . S
C4667 C4668 1.403 . S
C4668 C4667 1.403 . S
C4668 C4669 1.404 . S
C4668 C4671 1.539 . S
C4669 C4665 1.408 . S
C4669 C4668 1.404 . S
C4669 H4681 0.930 . S
C4670 C4666 1.524 . S
C4670 H4682 0.956 . S
C4670 H4683 0.961 . S
C4670 H4684 0.961 . S
C4671 C4668 1.539 . S
C4671 H4685 0.958 . S
C4671 H4686 0.961 . S
C4671 H4687 0.960 . S
H4672 C4656 0.931 . S
H4673 C4661 0.929 . S
H4674 C4662 0.960 . S
H4675 C4662 0.962 . S
H4676 C4662 0.960 . S
H4677 C4663 0.961 . S
H4678 C4663 0.961 . S
H4679 C4663 0.961 . S
H4680 C4664 0.931 . S
H4681 C4669 0.930 . S
H4682 C4670 0.956 . S
H4683 C4670 0.961 . S
H4684 C4670 0.961 . S
H4685 C4671 0.958 . S
H4686 C4671 0.961 . S
H4687 C4671 0.960 . S
C4688 C4689 1.391 . S
C4688 C4690 1.394 . S
C4688 H4704 0.931 . S
C4689 C4688 1.391 . S
C4689 C4693 1.376 . S
C4690 C4688 1.394 . S
C4690 C4691 1.369 . S
C4690 C4694 1.531 . S
C4691 C4690 1.369 . S
C4691 C4692 1.410 . S
C4691 C4699 1.503 . S
C4692 C4691 1.410 . S
C4692 C4693 1.392 . S
C4692 C4695 1.511 . S
C4693 C4689 1.376 . S
C4693 C4692 1.392 . S
C4693 H4705 0.929 . S
C4694 C4690 1.531 . S
C4694 H4706 0.960 . S
C4694 H4707 0.962 . S
C4694 H4708 0.960 . S
C4695 C4692 1.511 . S
C4695 H4709 0.961 . S
C4695 H4710 0.961 . S
C4695 H4711 0.961 . S
C4696 C4697 1.370 . S
C4696 C4698 1.363 . S
C4696 H4712 0.931 . S
C4697 C4696 1.370 . S
C4697 C4701 1.408 . S
C4698 C4696 1.363 . S
C4698 C4699 1.370 . S
C4698 C4702 1.524 . S
C4699 C4691 1.503 . S
C4699 C4698 1.370 . S
C4699 C4700 1.403 . S
C4700 C4699 1.403 . S
C4700 C4701 1.404 . S
C4700 C4703 1.539 . S
C4701 C4697 1.408 . S
C4701 C4700 1.404 . S
C4701 H4713 0.930 . S
C4702 C4698 1.524 . S
C4702 H4714 0.956 . S
C4702 H4715 0.961 . S
C4702 H4716 0.961 . S
C4703 C4700 1.539 . S
C4703 H4717 0.958 . S
C4703 H4718 0.961 . S
C4703 H4719 0.960 . S
H4704 C4688 0.931 . S
H4705 C4693 0.929 . S
H4706 C4694 0.960 . S
H4707 C4694 0.962 . S
H4708 C4694 0.960 . S
H4709 C4695 0.961 . S
H4710 C4695 0.961 . S
H4711 C4695 0.961 . S
H4712 C4696 0.931 . S
H4713 C4701 0.930 . S
H4714 C4702 0.956 . S
H4715 C4702 0.961 . S
H4716 C4702 0.961 . S
H4717 C4703 0.958 . S
H4718 C4703 0.961 . S
H4719 C4703 0.960 . S
C4720 C4721 1.391 . S
C4720 C4722 1.394 . S
C4720 H4736 0.931 . S
C4721 C4720 1.391 . S
C4721 C4725 1.376 . S
C4722 C4720 1.394 . S
C4722 C4723 1.369 . S
C4722 C4726 1.531 . S
C4723 C4722 1.369 . S
C4723 C4724 1.410 . S
C4723 C4731 1.503 . S
C4724 C4723 1.410 . S
C4724 C4725 1.392 . S
C4724 C4727 1.511 . S
C4725 C4721 1.376 . S
C4725 C4724 1.392 . S
C4725 H4737 0.929 . S
C4726 C4722 1.531 . S
C4726 H4738 0.960 . S
C4726 H4739 0.962 . S
C4726 H4740 0.960 . S
C4727 C4724 1.511 . S
C4727 H4741 0.961 . S
C4727 H4742 0.961 . S
C4727 H4743 0.961 . S
C4728 C4729 1.370 . S
C4728 C4730 1.363 . S
C4728 H4744 0.931 . S
C4729 C4728 1.370 . S
C4729 C4733 1.408 . S
C4730 C4728 1.363 . S
C4730 C4731 1.370 . S
C4730 C4734 1.524 . S
C4731 C4723 1.503 . S
C4731 C4730 1.370 . S
C4731 C4732 1.403 . S
C4732 C4731 1.403 . S
C4732 C4733 1.404 . S
C4732 C4735 1.539 . S
C4733 C4729 1.408 . S
C4733 C4732 1.404 . S
C4733 H4745 0.930 . S
C4734 C4730 1.524 . S
C4734 H4746 0.956 . S
C4734 H4747 0.961 . S
C4734 H4748 0.961 . S
C4735 C4732 1.539 . S
C4735 H4749 0.958 . S
C4735 H4750 0.961 . S
C4735 H4751 0.960 . S
H4736 C4720 0.931 . S
H4737 C4725 0.929 . S
H4738 C4726 0.960 . S
H4739 C4726 0.962 . S
H4740 C4726 0.960 . S
H4741 C4727 0.961 . S
H4742 C4727 0.961 . S
H4743 C4727 0.961 . S
H4744 C4728 0.931 . S
H4745 C4733 0.930 . S
H4746 C4734 0.956 . S
H4747 C4734 0.961 . S
H4748 C4734 0.961 . S
H4749 C4735 0.958 . S
H4750 C4735 0.961 . S
H4751 C4735 0.960 . S
C4752 C4753 1.391 . S
C4752 C4754 1.394 . S
C4752 H4768 0.931 . S
C4753 C4752 1.391 . S
C4753 C4757 1.376 . S
C4754 C4752 1.394 . S
C4754 C4755 1.369 . S
C4754 C4758 1.531 . S
C4755 C4754 1.369 . S
C4755 C4756 1.410 . S
C4755 C4763 1.503 . S
C4756 C4755 1.410 . S
C4756 C4757 1.392 . S
C4756 C4759 1.511 . S
C4757 C4753 1.376 . S
C4757 C4756 1.392 . S
C4757 H4769 0.929 . S
C4758 C4754 1.531 . S
C4758 H4770 0.960 . S
C4758 H4771 0.962 . S
C4758 H4772 0.960 . S
C4759 C4756 1.511 . S
C4759 H4773 0.961 . S
C4759 H4774 0.961 . S
C4759 H4775 0.961 . S
C4760 C4761 1.370 . S
C4760 C4762 1.363 . S
C4760 H4776 0.931 . S
C4761 C4760 1.370 . S
C4761 C4765 1.408 . S
C4762 C4760 1.363 . S
C4762 C4763 1.370 . S
C4762 C4766 1.524 . S
C4763 C4755 1.503 . S
C4763 C4762 1.370 . S
C4763 C4764 1.403 . S
C4764 C4763 1.403 . S
C4764 C4765 1.404 . S
C4764 C4767 1.539 . S
C4765 C4761 1.408 . S
C4765 C4764 1.404 . S
C4765 H4777 0.930 . S
C4766 C4762 1.524 . S
C4766 H4778 0.956 . S
C4766 H4779 0.961 . S
C4766 H4780 0.961 . S
C4767 C4764 1.539 . S
C4767 H4781 0.958 . S
C4767 H4782 0.961 . S
C4767 H4783 0.960 . S
H4768 C4752 0.931 . S
H4769 C4757 0.929 . S
H4770 C4758 0.960 . S
H4771 C4758 0.962 . S
H4772 C4758 0.960 . S
H4773 C4759 0.961 . S
H4774 C4759 0.961 . S
H4775 C4759 0.961 . S
H4776 C4760 0.931 . S
H4777 C4765 0.930 . S
H4778 C4766 0.956 . S
H4779 C4766 0.961 . S
H4780 C4766 0.961 . S
H4781 C4767 0.958 . S
H4782 C4767 0.961 . S
H4783 C4767 0.960 . S
C4784 C4785 1.391 . S
C4784 C4786 1.394 . S
C4784 H4800 0.931 . S
C4785 C4784 1.391 . S
C4785 C4789 1.376 . S
C4786 C4784 1.394 . S
C4786 C4787 1.369 . S
C4786 C4790 1.531 . S
C4787 C4786 1.369 . S
C4787 C4788 1.410 . S
C4787 C4795 1.503 . S
C4788 C4787 1.410 . S
C4788 C4789 1.392 . S
C4788 C4791 1.511 . S
C4789 C4785 1.376 . S
C4789 C4788 1.392 . S
C4789 H4801 0.929 . S
C4790 C4786 1.531 . S
C4790 H4802 0.960 . S
C4790 H4803 0.962 . S
C4790 H4804 0.960 . S
C4791 C4788 1.511 . S
C4791 H4805 0.961 . S
C4791 H4806 0.961 . S
C4791 H4807 0.961 . S
C4792 C4793 1.370 . S
C4792 C4794 1.363 . S
C4792 H4808 0.931 . S
C4793 C4792 1.370 . S
C4793 C4797 1.408 . S
C4794 C4792 1.363 . S
C4794 C4795 1.370 . S
C4794 C4798 1.524 . S
C4795 C4787 1.503 . S
C4795 C4794 1.370 . S
C4795 C4796 1.403 . S
C4796 C4795 1.403 . S
C4796 C4797 1.404 . S
C4796 C4799 1.539 . S
C4797 C4793 1.408 . S
C4797 C4796 1.404 . S
C4797 H4809 0.930 . S
C4798 C4794 1.524 . S
C4798 H4810 0.956 . S
C4798 H4811 0.961 . S
C4798 H4812 0.961 . S
C4799 C4796 1.539 . S
C4799 H4813 0.958 . S
C4799 H4814 0.961 . S
C4799 H4815 0.960 . S
H4800 C4784 0.931 . S
H4801 C4789 0.929 . S
H4802 C4790 0.960 . S
H4803 C4790 0.962 . S
H4804 C4790 0.960 . S
H4805 C4791 0.961 . S
H4806 C4791 0.961 . S
H4807 C4791 0.961 . S
H4808 C4792 0.931 . S
H4809 C4797 0.930 . S
H4810 C4798 0.956 . S
H4811 C4798 0.961 . S
H4812 C4798 0.961 . S
H4813 C4799 0.958 . S
H4814 C4799 0.961 . S
H4815 C4799 0.960 . S
C4816 C4817 1.391 . S
C4816 C4818 1.394 . S
C4816 H4832 0.931 . S
C4817 C4816 1.391 . S
C4817 C4821 1.376 . S
C4818 C4816 1.394 . S
C4818 C4819 1.369 . S
C4818 C4822 1.531 . S
C4819 C4818 1.369 . S
C4819 C4820 1.410 . S
C4819 C4827 1.503 . S
C4820 C4819 1.410 . S
C4820 C4821 1.392 . S
C4820 C4823 1.511 . S
C4821 C4817 1.376 . S
C4821 C4820 1.392 . S
C4821 H4833 0.929 . S
C4822 C4818 1.531 . S
C4822 H4834 0.960 . S
C4822 H4835 0.962 . S
C4822 H4836 0.960 . S
C4823 C4820 1.511 . S
C4823 H4837 0.961 . S
C4823 H4838 0.961 . S
C4823 H4839 0.961 . S
C4824 C4825 1.370 . S
C4824 C4826 1.363 . S
C4824 H4840 0.931 . S
C4825 C4824 1.370 . S
C4825 C4829 1.408 . S
C4826 C4824 1.363 . S
C4826 C4827 1.370 . S
C4826 C4830 1.524 . S
C4827 C4819 1.503 . S
C4827 C4826 1.370 . S
C4827 C4828 1.403 . S
C4828 C4827 1.403 . S
C4828 C4829 1.404 . S
C4828 C4831 1.539 . S
C4829 C4825 1.408 . S
C4829 C4828 1.404 . S
C4829 H4841 0.930 . S
C4830 C4826 1.524 . S
C4830 H4842 0.956 . S
C4830 H4843 0.961 . S
C4830 H4844 0.961 . S
C4831 C4828 1.539 . S
C4831 H4845 0.958 . S
C4831 H4846 0.961 . S
C4831 H4847 0.960 . S
H4832 C4816 0.931 . S
H4833 C4821 0.929 . S
H4834 C4822 0.960 . S
H4835 C4822 0.962 . S
H4836 C4822 0.960 . S
H4837 C4823 0.961 . S
H4838 C4823 0.961 . S
H4839 C4823 0.961 . S
H4840 C4824 0.931 . S
H4841 C4829 0.930 . S
H4842 C4830 0.956 . S
H4843 C4830 0.961 . S
H4844 C4830 0.961 . S
H4845 C4831 0.958 . S
H4846 C4831 0.961 . S
H4847 C4831 0.960 . S
C4848 C4849 1.391 . S
C4848 C4850 1.394 . S
C4848 H4864 0.931 . S
C4849 C4848 1.391 . S
C4849 C4853 1.376 . S
C4850 C4848 1.394 . S
C4850 C4851 1.369 . S
C4850 C4854 1.531 . S
C4851 C4850 1.369 . S
C4851 C4852 1.410 . S
C4851 C4859 1.503 1_455 S
C4852 C4851 1.410 . S
C4852 C4853 1.392 . S
C4852 C4855 1.511 1_455 S
C4853 C4849 1.376 . S
C4853 C4852 1.392 . S
C4853 H4865 0.929 . S
C4854 C4850 1.531 . S
C4854 H4866 0.954 1_455 S
C4854 H4867 0.962 . S
C4854 H4868 0.960 . S
C4855 C4852 1.511 1_655 S
C4855 H4869 0.961 1_655 S
C4855 H4870 0.961 . S
C4855 H4871 0.961 . S
C4856 C4857 1.370 . S
C4856 C4858 1.363 . S
C4856 H4872 0.931 . S
C4857 C4856 1.370 . S
C4857 C4861 1.408 . S
C4858 C4856 1.363 . S
C4858 C4859 1.370 . S
C4858 C4862 1.524 1_655 S
C4859 C4851 1.503 1_655 S
C4859 C4858 1.370 . S
C4859 C4860 1.403 . S
C4860 C4859 1.403 . S
C4860 C4861 1.404 . S
C4860 C4863 1.539 . S
C4861 C4857 1.408 . S
C4861 C4860 1.404 . S
C4861 H4873 0.930 . S
C4862 C4858 1.524 1_455 S
C4862 H4874 0.956 . S
C4862 H4875 0.961 . S
C4862 H4876 0.961 . S
C4863 C4860 1.539 . S
C4863 H4877 0.958 . S
C4863 H4878 0.961 . S
C4863 H4879 0.960 . S
H4864 C4848 0.931 . S
H4865 C4853 0.929 . S
H4866 C4854 0.954 1_655 S
H4867 C4854 0.962 . S
H4868 C4854 0.960 . S
H4869 C4855 0.961 1_455 S
H4870 C4855 0.961 . S
H4871 C4855 0.961 . S
H4872 C4856 0.931 . S
H4873 C4861 0.930 . S
H4874 C4862 0.956 . S
H4875 C4862 0.961 . S
H4876 C4862 0.961 . S
H4877 C4863 0.958 . S
H4878 C4863 0.961 . S
H4879 C4863 0.960 . S
C4880 C4881 1.391 . S
C4880 C4882 1.394 . S
C4880 H4896 0.931 . S
C4881 C4880 1.391 . S
C4881 C4885 1.376 . S
C4882 C4880 1.394 . S
C4882 C4883 1.369 . S
C4882 C4886 1.531 . S
C4883 C4882 1.369 . S
C4883 C4884 1.410 . S
C4883 C4891 1.503 . S
C4884 C4883 1.410 . S
C4884 C4885 1.392 . S
C4884 C4887 1.511 . S
C4885 C4881 1.376 . S
C4885 C4884 1.392 . S
C4885 H4897 0.929 . S
C4886 C4882 1.531 . S
C4886 H4898 0.960 . S
C4886 H4899 0.962 . S
C4886 H4900 0.960 . S
C4887 C4884 1.511 . S
C4887 H4901 0.961 . S
C4887 H4902 0.961 . S
C4887 H4903 0.961 . S
C4888 C4889 1.370 . S
C4888 C4890 1.363 . S
C4888 H4904 0.931 . S
C4889 C4888 1.370 . S
C4889 C4893 1.408 . S
C4890 C4888 1.363 . S
C4890 C4891 1.370 . S
C4890 C4894 1.524 . S
C4891 C4883 1.503 . S
C4891 C4890 1.370 . S
C4891 C4892 1.403 . S
C4892 C4891 1.403 . S
C4892 C4893 1.404 . S
C4892 C4895 1.539 . S
C4893 C4889 1.408 . S
C4893 C4892 1.404 . S
C4893 H4905 0.930 . S
C4894 C4890 1.524 . S
C4894 H4906 0.956 . S
C4894 H4907 0.961 . S
C4894 H4908 0.961 . S
C4895 C4892 1.539 . S
C4895 H4909 0.958 . S
C4895 H4910 0.961 . S
C4895 H4911 0.960 . S
H4896 C4880 0.931 . S
H4897 C4885 0.929 . S
H4898 C4886 0.960 . S
H4899 C4886 0.962 . S
H4900 C4886 0.960 . S
H4901 C4887 0.961 . S
H4902 C4887 0.961 . S
H4903 C4887 0.961 . S
H4904 C4888 0.931 . S
H4905 C4893 0.930 . S
H4906 C4894 0.956 . S
H4907 C4894 0.961 . S
H4908 C4894 0.961 . S
H4909 C4895 0.958 . S
H4910 C4895 0.961 . S
H4911 C4895 0.960 . S
C4912 C4913 1.391 1_545 S
C4912 C4914 1.394 . S
C4912 H4928 0.931 . S
C4913 C4912 1.391 1_565 S
C4913 C4917 1.376 . S
C4914 C4912 1.394 . S
C4914 C4915 1.369 . S
C4914 C4918 1.531 . S
C4915 C4914 1.369 . S
C4915 C4916 1.410 . S
C4915 C4923 1.503 . S
C4916 C4915 1.410 . S
C4916 C4917 1.392 1_545 S
C4916 C4919 1.511 . S
C4917 C4913 1.376 . S
C4917 C4916 1.392 1_565 S
C4917 H4929 0.929 . S
C4918 C4914 1.531 . S
C4918 H4930 0.960 . S
C4918 H4931 0.962 . S
C4918 H4932 0.960 . S
C4919 C4916 1.511 . S
C4919 H4933 0.961 . S
C4919 H4934 0.961 . S
C4919 H4935 0.961 . S
C4920 C4921 1.370 . S
C4920 C4922 1.363 . S
C4920 H4936 0.931 . S
C4921 C4920 1.370 . S
C4921 C4925 1.408 . S
C4922 C4920 1.363 . S
C4922 C4923 1.370 . S
C4922 C4926 1.524 . S
C4923 C4915 1.503 . S
C4923 C4922 1.370 . S
C4923 C4924 1.403 . S
C4924 C4923 1.403 . S
C4924 C4925 1.404 . S
C4924 C4927 1.539 . S
C4925 C4921 1.408 . S
C4925 C4924 1.404 . S
C4925 H4937 0.930 1_655 S
C4926 C4922 1.524 . S
C4926 H4938 0.956 . S
C4926 H4939 0.961 . S
C4926 H4940 0.961 . S
C4927 C4924 1.539 . S
C4927 H4941 0.958 . S
C4927 H4942 0.961 . S
C4927 H4943 0.960 . S
H4928 C4912 0.931 . S
H4929 C4917 0.929 . S
H4930 C4918 0.960 . S
H4931 C4918 0.962 . S
H4932 C4918 0.960 . S
H4933 C4919 0.961 . S
H4934 C4919 0.961 . S
H4935 C4919 0.961 . S
H4936 C4920 0.931 . S
H4937 C4925 0.930 1_455 S
H4938 C4926 0.956 . S
H4939 C4926 0.961 . S
H4940 C4926 0.961 . S
H4941 C4927 0.958 . S
H4942 C4927 0.961 . S
H4943 C4927 0.960 . S
C4944 C4945 1.391 . S
C4944 C4946 1.394 . S
C4944 H4960 0.931 . S
C4945 C4944 1.391 . S
C4945 C4949 1.376 . S
C4946 C4944 1.394 . S
C4946 C4947 1.369 . S
C4946 C4950 1.531 . S
C4947 C4946 1.369 . S
C4947 C4948 1.410 . S
C4947 C4955 1.503 . S
C4948 C4947 1.410 . S
C4948 C4949 1.392 . S
C4948 C4951 1.511 . S
C4949 C4945 1.376 . S
C4949 C4948 1.392 . S
C4949 H4961 0.929 . S
C4950 C4946 1.531 . S
C4950 H4962 0.960 . S
C4950 H4963 0.962 . S
C4950 H4964 0.960 . S
C4951 C4948 1.511 . S
C4951 H4965 0.961 . S
C4951 H4966 0.961 . S
C4951 H4967 0.961 . S
C4952 C4953 1.370 . S
C4952 C4954 1.363 . S
C4952 H4968 0.931 . S
C4953 C4952 1.370 . S
C4953 C4957 1.408 . S
C4954 C4952 1.363 . S
C4954 C4955 1.370 . S
C4954 C4958 1.524 . S
C4955 C4947 1.503 . S
C4955 C4954 1.370 . S
C4955 C4956 1.403 . S
C4956 C4955 1.403 . S
C4956 C4957 1.404 . S
C4956 C4959 1.539 . S
C4957 C4953 1.408 . S
C4957 C4956 1.404 . S
C4957 H4969 0.930 . S
C4958 C4954 1.524 . S
C4958 H4970 0.956 . S
C4958 H4971 0.961 . S
C4958 H4972 0.961 . S
C4959 C4956 1.539 . S
C4959 H4973 0.958 . S
C4959 H4974 0.961 . S
C4959 H4975 0.960 . S
H4960 C4944 0.931 . S
H4961 C4949 0.929 . S
H4962 C4950 0.960 . S
H4963 C4950 0.962 . S
H4964 C4950 0.960 . S
H4965 C4951 0.961 . S
H4966 C4951 0.961 . S
H4967 C4951 0.961 . S
H4968 C4952 0.931 . S
H4969 C4957 0.930 . S
H4970 C4958 0.956 . S
H4971 C4958 0.961 . S
H4972 C4958 0.961 . S
H4973 C4959 0.958 . S
H4974 C4959 0.961 . S
H4975 C4959 0.960 . S
C4976 C4977 1.391 . S
C4976 C4978 1.394 . S
C4976 H4992 0.931 . S
C4977 C4976 1.391 . S
C4977 C4981 1.376 . S
C4978 C4976 1.394 . S
C4978 C4979 1.369 . S
C4978 C4982 1.531 . S
C4979 C4978 1.369 . S
C4979 C4980 1.410 . S
C4979 C4987 1.503 . S
C4980 C4979 1.410 . S
C4980 C4981 1.392 . S
C4980 C4983 1.511 . S
C4981 C4977 1.376 . S
C4981 C4980 1.392 . S
C4981 H4993 0.929 . S
C4982 C4978 1.531 . S
C4982 H4994 0.960 . S
C4982 H4995 0.962 . S
C4982 H4996 0.960 . S
C4983 C4980 1.511 . S
C4983 H4997 0.961 . S
C4983 H4998 0.961 . S
C4983 H4999 0.961 . S
C4984 C4985 1.370 . S
C4984 C4986 1.363 . S
C4984 H5000 0.931 . S
C4985 C4984 1.370 . S
C4985 C4989 1.408 . S
C4986 C4984 1.363 . S
C4986 C4987 1.370 . S
C4986 C4990 1.524 . S
C4987 C4979 1.503 . S
C4987 C4986 1.370 . S
C4987 C4988 1.403 . S
C4988 C4987 1.403 . S
C4988 C4989 1.404 . S
C4988 C4991 1.539 . S
C4989 C4985 1.408 . S
C4989 C4988 1.404 . S
C4989 H5001 0.930 . S
C4990 C4986 1.524 . S
C4990 H5002 0.956 . S
C4990 H5003 0.961 . S
C4990 H5004 0.961 . S
C4991 C4988 1.539 . S
C4991 H5005 0.958 . S
C4991 H5006 0.961 . S
C4991 H5007 0.960 . S
H4992 C4976 0.931 . S
H4993 C4981 0.929 . S
H4994 C4982 0.960 . S
H4995 C4982 0.962 . S
H4996 C4982 0.960 . S
H4997 C4983 0.961 . S
H4998 C4983 0.961 . S
H4999 C4983 0.961 . S
H5000 C4984 0.931 . S
H5001 C4989 0.930 . S
H5002 C4990 0.956 . S
H5003 C4990 0.961 . S
H5004 C4990 0.961 . S
H5005 C4991 0.958 . S
H5006 C4991 0.961 . S
H5007 C4991 0.960 . S
C5008 C5009 1.391 . S
C5008 C5010 1.394 . S
C5008 H5024 0.931 . S
C5009 C5008 1.391 . S
C5009 C5013 1.376 . S
C5010 C5008 1.394 . S
C5010 C5011 1.369 . S
C5010 C5014 1.531 . S
C5011 C5010 1.369 . S
C5011 C5012 1.410 . S
C5011 C5019 1.503 . S
C5012 C5011 1.410 . S
C5012 C5013 1.392 . S
C5012 C5015 1.511 . S
C5013 C5009 1.376 . S
C5013 C5012 1.392 . S
C5013 H5025 0.929 . S
C5014 C5010 1.531 . S
C5014 H5026 0.960 . S
C5014 H5027 0.962 . S
C5014 H5028 0.960 . S
C5015 C5012 1.511 . S
C5015 H5029 0.961 . S
C5015 H5030 0.961 . S
C5015 H5031 0.961 . S
C5016 C5017 1.370 . S
C5016 C5018 1.363 . S
C5016 H5032 0.931 . S
C5017 C5016 1.370 . S
C5017 C5021 1.408 . S
C5018 C5016 1.363 . S
C5018 C5019 1.370 . S
C5018 C5022 1.524 . S
C5019 C5011 1.503 . S
C5019 C5018 1.370 . S
C5019 C5020 1.403 . S
C5020 C5019 1.403 . S
C5020 C5021 1.404 . S
C5020 C5023 1.539 . S
C5021 C5017 1.408 . S
C5021 C5020 1.404 . S
C5021 H5033 0.930 . S
C5022 C5018 1.524 . S
C5022 H5034 0.956 . S
C5022 H5035 0.961 . S
C5022 H5036 0.961 . S
C5023 C5020 1.539 . S
C5023 H5037 0.958 . S
C5023 H5038 0.961 . S
C5023 H5039 0.960 . S
H5024 C5008 0.931 . S
H5025 C5013 0.929 . S
H5026 C5014 0.960 . S
H5027 C5014 0.962 . S
H5028 C5014 0.960 . S
H5029 C5015 0.961 . S
H5030 C5015 0.961 . S
H5031 C5015 0.961 . S
H5032 C5016 0.931 . S
H5033 C5021 0.930 . S
H5034 C5022 0.956 . S
H5035 C5022 0.961 . S
H5036 C5022 0.961 . S
H5037 C5023 0.958 . S
H5038 C5023 0.961 . S
H5039 C5023 0.960 . S
C5040 C5041 1.391 . S
C5040 C5042 1.394 . S
C5040 H5056 0.931 . S
C5041 C5040 1.391 . S
C5041 C5045 1.376 . S
C5042 C5040 1.394 . S
C5042 C5043 1.369 . S
C5042 C5046 1.531 . S
C5043 C5042 1.369 . S
C5043 C5044 1.410 . S
C5043 C5051 1.503 . S
C5044 C5043 1.410 . S
C5044 C5045 1.392 . S
C5044 C5047 1.511 . S
C5045 C5041 1.376 . S
C5045 C5044 1.392 . S
C5045 H5057 0.929 . S
C5046 C5042 1.531 . S
C5046 H5058 0.960 . S
C5046 H5059 0.962 . S
C5046 H5060 0.960 . S
C5047 C5044 1.511 . S
C5047 H5061 0.961 . S
C5047 H5062 0.961 . S
C5047 H5063 0.961 . S
C5048 C5049 1.370 1_455 S
C5048 C5050 1.363 . S
C5048 H5064 0.931 1_455 S
C5049 C5048 1.370 1_655 S
C5049 C5053 1.408 1_655 S
C5050 C5048 1.363 . S
C5050 C5051 1.370 . S
C5050 C5054 1.524 . S
C5051 C5043 1.503 . S
C5051 C5050 1.370 . S
C5051 C5052 1.403 . S
C5052 C5051 1.403 . S
C5052 C5053 1.404 . S
C5052 C5055 1.539 . S
C5053 C5049 1.408 1_455 S
C5053 C5052 1.404 . S
C5053 H5065 0.930 1_455 S
C5054 C5050 1.524 . S
C5054 H5066 0.956 . S
C5054 H5067 0.961 . S
C5054 H5068 0.961 . S
C5055 C5052 1.539 . S
C5055 H5069 0.958 . S
C5055 H5070 0.961 . S
C5055 H5071 0.960 . S
H5056 C5040 0.931 . S
H5057 C5045 0.929 . S
H5058 C5046 0.960 . S
H5059 C5046 0.962 . S
H5060 C5046 0.960 . S
H5061 C5047 0.961 . S
H5062 C5047 0.961 . S
H5063 C5047 0.961 . S
H5064 C5048 0.931 1_655 S
H5065 C5053 0.930 1_655 S
H5066 C5054 0.956 . S
H5067 C5054 0.961 . S
H5068 C5054 0.961 . S
H5069 C5055 0.958 . S
H5070 C5055 0.961 . S
H5071 C5055 0.960 . S
C5072 C5073 1.391 . S
C5072 C5074 1.394 . S
C5072 H5088 0.931 . S
C5073 C5072 1.391 . S
C5073 C5077 1.376 . S
C5074 C5072 1.394 . S
C5074 C5075 1.369 . S
C5074 C5078 1.531 . S
C5075 C5074 1.369 . S
C5075 C5076 1.410 . S
C5075 C5083 1.503 . S
C5076 C5075 1.410 . S
C5076 C5077 1.392 . S
C5076 C5079 1.511 . S
C5077 C5073 1.376 . S
C5077 C5076 1.392 . S
C5077 H5089 0.929 . S
C5078 C5074 1.531 . S
C5078 H5090 0.960 . S
C5078 H5091 0.962 . S
C5078 H5092 0.960 . S
C5079 C5076 1.511 . S
C5079 H5093 0.961 . S
C5079 H5094 0.961 . S
C5079 H5095 0.961 . S
C5080 C5081 1.370 . S
C5080 C5082 1.363 . S
C5080 H5096 0.931 . S
C5081 C5080 1.370 . S
C5081 C5085 1.408 . S
C5082 C5080 1.363 . S
C5082 C5083 1.370 . S
C5082 C5086 1.524 . S
C5083 C5075 1.503 . S
C5083 C5082 1.370 . S
C5083 C5084 1.403 . S
C5084 C5083 1.403 . S
C5084 C5085 1.404 . S
C5084 C5087 1.539 . S
C5085 C5081 1.408 . S
C5085 C5084 1.404 . S
C5085 H5097 0.930 . S
C5086 C5082 1.524 . S
C5086 H5098 0.956 . S
C5086 H5099 0.961 . S
C5086 H5100 0.961 . S
C5087 C5084 1.539 . S
C5087 H5101 0.958 . S
C5087 H5102 0.961 . S
C5087 H5103 0.960 . S
H5088 C5072 0.931 . S
H5089 C5077 0.929 . S
H5090 C5078 0.960 . S
H5091 C5078 0.962 . S
H5092 C5078 0.960 . S
H5093 C5079 0.961 . S
H5094 C5079 0.961 . S
H5095 C5079 0.961 . S
H5096 C5080 0.931 . S
H5097 C5085 0.930 . S
H5098 C5086 0.956 . S
H5099 C5086 0.961 . S
H5100 C5086 0.961 . S
H5101 C5087 0.958 . S
H5102 C5087 0.961 . S
H5103 C5087 0.960 . S
C5104 C5105 1.391 . S
C5104 C5106 1.394 . S
C5104 H5120 0.931 . S
C5105 C5104 1.391 . S
C5105 C5109 1.376 . S
C5106 C5104 1.394 . S
C5106 C5107 1.369 . S
C5106 C5110 1.531 1_545 S
C5107 C5106 1.369 . S
C5107 C5108 1.410 . S
C5107 C5115 1.503 1_545 S
C5108 C5107 1.410 . S
C5108 C5109 1.392 . S
C5108 C5111 1.511 . S
C5109 C5105 1.376 . S
C5109 C5108 1.392 . S
C5109 H5121 0.929 . S
C5110 C5106 1.531 1_565 S
C5110 H5122 0.960 . S
C5110 H5123 0.962 . S
C5110 H5124 0.960 . S
C5111 C5108 1.511 . S
C5111 H5125 0.961 . S
C5111 H5126 0.961 . S
C5111 H5127 0.961 . S
C5112 C5113 1.370 . S
C5112 C5114 1.363 . S
C5112 H5128 0.931 . S
C5113 C5112 1.370 . S
C5113 C5117 1.408 . S
C5114 C5112 1.363 . S
C5114 C5115 1.370 . S
C5114 C5118 1.524 . S
C5115 C5107 1.503 1_565 S
C5115 C5114 1.370 . S
C5115 C5116 1.403 . S
C5116 C5115 1.403 . S
C5116 C5117 1.404 . S
C5116 C5119 1.539 . S
C5117 C5113 1.408 . S
C5117 C5116 1.404 . S
C5117 H5129 0.930 . S
C5118 C5114 1.524 . S
C5118 H5130 0.956 . S
C5118 H5131 0.961 1_565 S
C5118 H5132 0.961 . S
C5119 C5116 1.539 . S
C5119 H5133 0.958 . S
C5119 H5134 0.961 . S
C5119 H5135 0.960 1_565 S
H5120 C5104 0.931 . S
H5121 C5109 0.929 . S
H5122 C5110 0.960 . S
H5123 C5110 0.962 . S
H5124 C5110 0.960 . S
H5125 C5111 0.961 . S
H5126 C5111 0.961 . S
H5127 C5111 0.961 . S
H5128 C5112 0.931 . S
H5129 C5117 0.930 . S
H5130 C5118 0.956 . S
H5131 C5118 0.961 1_545 S
H5132 C5118 0.961 . S
H5133 C5119 0.958 . S
H5134 C5119 0.961 . S
H5135 C5119 0.960 1_545 S
C5136 C5137 1.391 . S
C5136 C5138 1.394 . S
C5136 H5152 0.931 . S
C5137 C5136 1.391 . S
C5137 C5141 1.376 . S
C5138 C5136 1.394 . S
C5138 C5139 1.369 . S
C5138 C5142 1.531 . S
C5139 C5138 1.369 . S
C5139 C5140 1.410 . S
C5139 C5147 1.503 1_565 S
C5140 C5139 1.410 . S
C5140 C5141 1.392 . S
C5140 C5143 1.511 1_565 S
C5141 C5137 1.376 . S
C5141 C5140 1.392 . S
C5141 H5153 0.929 . S
C5142 C5138 1.531 . S
C5142 H5154 0.960 . S
C5142 H5155 0.962 . S
C5142 H5156 0.960 . S
C5143 C5140 1.511 1_545 S
C5143 H5157 0.961 . S
C5143 H5158 0.961 . S
C5143 H5159 0.961 . S
C5144 C5145 1.370 . S
C5144 C5146 1.363 . S
C5144 H5160 0.931 . S
C5145 C5144 1.370 . S
C5145 C5149 1.408 . S
C5146 C5144 1.363 . S
C5146 C5147 1.370 . S
C5146 C5150 1.524 . S
C5147 C5139 1.503 1_545 S
C5147 C5146 1.370 . S
C5147 C5148 1.403 . S
C5148 C5147 1.403 . S
C5148 C5149 1.404 . S
C5148 C5151 1.539 . S
C5149 C5145 1.408 . S
C5149 C5148 1.404 . S
C5149 H5161 0.930 . S
C5150 C5146 1.524 . S
C5150 H5162 0.956 . S
C5150 H5163 0.961 . S
C5150 H5164 0.961 . S
C5151 C5148 1.539 . S
C5151 H5165 0.958 1_545 S
C5151 H5166 0.961 . S
C5151 H5167 0.960 1_545 S
H5152 C5136 0.931 . S
H5153 C5141 0.929 . S
H5154 C5142 0.960 . S
H5155 C5142 0.962 . S
H5156 C5142 0.960 . S
H5157 C5143 0.961 . S
H5158 C5143 0.961 . S
H5159 C5143 0.961 . S
H5160 C5144 0.931 . S
H5161 C5149 0.930 . S
H5162 C5150 0.956 . S
H5163 C5150 0.961 . S
H5164 C5150 0.961 . S
H5165 C5151 0.958 1_565 S
H5166 C5151 0.961 . S
H5167 C5151 0.960 1_565 S
C5168 C5169 1.391 . S
C5168 C5170 1.394 . S
C5168 H5184 0.931 . S
C5169 C5168 1.391 . S
C5169 C5173 1.376 . S
C5170 C5168 1.394 . S
C5170 C5171 1.369 . S
C5170 C5174 1.531 . S
C5171 C5170 1.369 . S
C5171 C5172 1.410 . S
C5171 C5179 1.503 . S
C5172 C5171 1.410 . S
C5172 C5173 1.392 . S
C5172 C5175 1.511 . S
C5173 C5169 1.376 . S
C5173 C5172 1.392 . S
C5173 H5185 0.929 . S
C5174 C5170 1.531 . S
C5174 H5186 0.960 . S
C5174 H5187 0.962 . S
C5174 H5188 0.960 . S
C5175 C5172 1.511 . S
C5175 H5189 0.961 . S
C5175 H5190 0.961 . S
C5175 H5191 0.961 . S
C5176 C5177 1.370 . S
C5176 C5178 1.363 1_655 S
C5176 H5192 0.931 . S
C5177 C5176 1.370 . S
C5177 C5181 1.408 1_655 S
C5178 C5176 1.363 1_455 S
C5178 C5179 1.370 . S
C5178 C5182 1.524 . S
C5179 C5171 1.503 . S
C5179 C5178 1.370 . S
C5179 C5180 1.403 . S
C5180 C5179 1.403 . S
C5180 C5181 1.404 . S
C5180 C5183 1.539 . S
C5181 C5177 1.408 1_455 S
C5181 C5180 1.404 . S
C5181 H5193 0.930 . S
C5182 C5178 1.524 . S
C5182 H5194 0.956 . S
C5182 H5195 0.961 . S
C5182 H5196 0.961 . S
C5183 C5180 1.539 . S
C5183 H5197 0.958 . S
C5183 H5198 0.961 . S
C5183 H5199 0.960 . S
H5184 C5168 0.931 . S
H5185 C5173 0.929 . S
H5186 C5174 0.960 . S
H5187 C5174 0.962 . S
H5188 C5174 0.960 . S
H5189 C5175 0.961 . S
H5190 C5175 0.961 . S
H5191 C5175 0.961 . S
H5192 C5176 0.931 . S
H5193 C5181 0.930 . S
H5194 C5182 0.956 . S
H5195 C5182 0.961 . S
H5196 C5182 0.961 . S
H5197 C5183 0.958 . S
H5198 C5183 0.961 . S
H5199 C5183 0.960 . S
C5200 C5201 1.391 . S
C5200 C5202 1.394 . S
C5200 H5216 0.931 . S
C5201 C5200 1.391 . S
C5201 C5205 1.376 . S
C5202 C5200 1.394 . S
C5202 C5203 1.369 . S
C5202 C5206 1.531 . S
C5203 C5202 1.369 . S
C5203 C5204 1.410 . S
C5203 C5211 1.503 . S
C5204 C5203 1.410 . S
C5204 C5205 1.392 . S
C5204 C5207 1.511 . S
C5205 C5201 1.376 . S
C5205 C5204 1.392 . S
C5205 H5217 0.929 . S
C5206 C5202 1.531 . S
C5206 H5218 0.960 . S
C5206 H5219 0.962 . S
C5206 H5220 0.960 . S
C5207 C5204 1.511 . S
C5207 H5221 0.961 . S
C5207 H5222 0.961 . S
C5207 H5223 0.961 . S
C5208 C5209 1.370 . S
C5208 C5210 1.363 . S
C5208 H5224 0.931 . S
C5209 C5208 1.370 . S
C5209 C5213 1.408 . S
C5210 C5208 1.363 . S
C5210 C5211 1.370 . S
C5210 C5214 1.524 . S
C5211 C5203 1.503 . S
C5211 C5210 1.370 . S
C5211 C5212 1.403 . S
C5212 C5211 1.403 . S
C5212 C5213 1.404 . S
C5212 C5215 1.539 . S
C5213 C5209 1.408 . S
C5213 C5212 1.404 . S
C5213 H5225 0.930 . S
C5214 C5210 1.524 . S
C5214 H5226 0.956 . S
C5214 H5227 0.961 . S
C5214 H5228 0.961 . S
C5215 C5212 1.539 . S
C5215 H5229 0.958 . S
C5215 H5230 0.961 . S
C5215 H5231 0.960 . S
H5216 C5200 0.931 . S
H5217 C5205 0.929 . S
H5218 C5206 0.960 . S
H5219 C5206 0.962 . S
H5220 C5206 0.960 . S
H5221 C5207 0.961 . S
H5222 C5207 0.961 . S
H5223 C5207 0.961 . S
H5224 C5208 0.931 . S
H5225 C5213 0.930 . S
H5226 C5214 0.956 . S
H5227 C5214 0.961 . S
H5228 C5214 0.961 . S
H5229 C5215 0.958 . S
H5230 C5215 0.961 . S
H5231 C5215 0.960 . S
C5232 C5233 1.391 . S
C5232 C5234 1.394 . S
C5232 H5248 0.931 . S
C5233 C5232 1.391 . S
C5233 C5237 1.376 . S
C5234 C5232 1.394 . S
C5234 C5235 1.369 . S
C5234 C5238 1.531 . S
C5235 C5234 1.369 . S
C5235 C5236 1.410 . S
C5235 C5243 1.503 . S
C5236 C5235 1.410 . S
C5236 C5237 1.392 . S
C5236 C5239 1.511 . S
C5237 C5233 1.376 . S
C5237 C5236 1.392 . S
C5237 H5249 0.929 . S
C5238 C5234 1.531 . S
C5238 H5250 0.960 . S
C5238 H5251 0.962 . S
C5238 H5252 0.960 . S
C5239 C5236 1.511 . S
C5239 H5253 0.961 . S
C5239 H5254 0.961 . S
C5239 H5255 0.961 . S
C5240 C5241 1.370 . S
C5240 C5242 1.363 . S
C5240 H5256 0.931 . S
C5241 C5240 1.370 . S
C5241 C5245 1.408 . S
C5242 C5240 1.363 . S
C5242 C5243 1.370 . S
C5242 C5246 1.524 . S
C5243 C5235 1.503 . S
C5243 C5242 1.370 . S
C5243 C5244 1.403 . S
C5244 C5243 1.403 . S
C5244 C5245 1.404 . S
C5244 C5247 1.539 . S
C5245 C5241 1.408 . S
C5245 C5244 1.404 . S
C5245 H5257 0.930 . S
C5246 C5242 1.524 . S
C5246 H5258 0.956 . S
C5246 H5259 0.961 . S
C5246 H5260 0.961 . S
C5247 C5244 1.539 . S
C5247 H5261 0.958 . S
C5247 H5262 0.961 . S
C5247 H5263 0.960 . S
H5248 C5232 0.931 . S
H5249 C5237 0.929 . S
H5250 C5238 0.960 . S
H5251 C5238 0.962 . S
H5252 C5238 0.960 . S
H5253 C5239 0.961 . S
H5254 C5239 0.961 . S
H5255 C5239 0.961 . S
H5256 C5240 0.931 . S
H5257 C5245 0.930 . S
H5258 C5246 0.956 . S
H5259 C5246 0.961 . S
H5260 C5246 0.961 . S
H5261 C5247 0.958 . S
H5262 C5247 0.961 . S
H5263 C5247 0.960 . S
C5264 C5265 1.391 . S
C5264 C5266 1.394 . S
C5264 H5280 0.931 . S
C5265 C5264 1.391 . S
C5265 C5269 1.376 . S
C5266 C5264 1.394 . S
C5266 C5267 1.369 . S
C5266 C5270 1.531 . S
C5267 C5266 1.369 . S
C5267 C5268 1.410 . S
C5267 C5275 1.503 . S
C5268 C5267 1.410 . S
C5268 C5269 1.392 . S
C5268 C5271 1.511 . S
C5269 C5265 1.376 . S
C5269 C5268 1.392 . S
C5269 H5281 0.929 . S
C5270 C5266 1.531 . S
C5270 H5282 0.960 . S
C5270 H5283 0.962 . S
C5270 H5284 0.960 . S
C5271 C5268 1.511 . S
C5271 H5285 0.961 . S
C5271 H5286 0.961 . S
C5271 H5287 0.961 . S
C5272 C5273 1.370 . S
C5272 C5274 1.363 . S
C5272 H5288 0.931 . S
C5273 C5272 1.370 . S
C5273 C5277 1.408 . S
C5274 C5272 1.363 . S
C5274 C5275 1.370 . S
C5274 C5278 1.524 . S
C5275 C5267 1.503 . S
C5275 C5274 1.370 . S
C5275 C5276 1.403 . S
C5276 C5275 1.403 . S
C5276 C5277 1.404 . S
C5276 C5279 1.539 . S
C5277 C5273 1.408 . S
C5277 C5276 1.404 . S
C5277 H5289 0.930 . S
C5278 C5274 1.524 . S
C5278 H5290 0.956 . S
C5278 H5291 0.961 . S
C5278 H5292 0.961 . S
C5279 C5276 1.539 . S
C5279 H5293 0.958 . S
C5279 H5294 0.961 . S
C5279 H5295 0.960 . S
H5280 C5264 0.931 . S
H5281 C5269 0.929 . S
H5282 C5270 0.960 . S
H5283 C5270 0.962 . S
H5284 C5270 0.960 . S
H5285 C5271 0.961 . S
H5286 C5271 0.961 . S
H5287 C5271 0.961 . S
H5288 C5272 0.931 . S
H5289 C5277 0.930 . S
H5290 C5278 0.956 . S
H5291 C5278 0.961 . S
H5292 C5278 0.961 . S
H5293 C5279 0.958 . S
H5294 C5279 0.961 . S
H5295 C5279 0.960 . S
C5296 C5297 1.391 . S
C5296 C5298 1.394 . S
C5296 H5312 0.931 . S
C5297 C5296 1.391 . S
C5297 C5301 1.376 . S
C5298 C5296 1.394 . S
C5298 C5299 1.369 . S
C5298 C5302 1.531 . S
C5299 C5298 1.369 . S
C5299 C5300 1.410 . S
C5299 C5307 1.503 . S
C5300 C5299 1.410 . S
C5300 C5301 1.392 . S
C5300 C5303 1.511 . S
C5301 C5297 1.376 . S
C5301 C5300 1.392 . S
C5301 H5313 0.929 . S
C5302 C5298 1.531 . S
C5302 H5314 0.960 . S
C5302 H5315 0.962 . S
C5302 H5316 0.960 . S
C5303 C5300 1.511 . S
C5303 H5317 0.961 . S
C5303 H5318 0.961 . S
C5303 H5319 0.961 . S
C5304 C5305 1.370 . S
C5304 C5306 1.363 . S
C5304 H5320 0.931 . S
C5305 C5304 1.370 . S
C5305 C5309 1.408 . S
C5306 C5304 1.363 . S
C5306 C5307 1.370 . S
C5306 C5310 1.524 . S
C5307 C5299 1.503 . S
C5307 C5306 1.370 . S
C5307 C5308 1.403 . S
C5308 C5307 1.403 . S
C5308 C5309 1.404 . S
C5308 C5311 1.539 . S
C5309 C5305 1.408 . S
C5309 C5308 1.404 . S
C5309 H5321 0.930 . S
C5310 C5306 1.524 . S
C5310 H5322 0.956 . S
C5310 H5323 0.961 . S
C5310 H5324 0.961 . S
C5311 C5308 1.539 . S
C5311 H5325 0.958 . S
C5311 H5326 0.961 . S
C5311 H5327 0.960 . S
H5312 C5296 0.931 . S
H5313 C5301 0.929 . S
H5314 C5302 0.960 . S
H5315 C5302 0.962 . S
H5316 C5302 0.960 . S
H5317 C5303 0.961 . S
H5318 C5303 0.961 . S
H5319 C5303 0.961 . S
H5320 C5304 0.931 . S
H5321 C5309 0.930 . S
H5322 C5310 0.956 . S
H5323 C5310 0.961 . S
H5324 C5310 0.961 . S
H5325 C5311 0.958 . S
H5326 C5311 0.961 . S
H5327 C5311 0.960 . S
C5328 C5329 1.391 . S
C5328 C5330 1.394 . S
C5328 H5344 0.931 . S
C5329 C5328 1.391 . S
C5329 C5333 1.376 . S
C5330 C5328 1.394 . S
C5330 C5331 1.369 . S
C5330 C5334 1.531 . S
C5331 C5330 1.369 . S
C5331 C5332 1.410 . S
C5331 C5339 1.503 . S
C5332 C5331 1.410 . S
C5332 C5333 1.392 . S
C5332 C5335 1.511 . S
C5333 C5329 1.376 . S
C5333 C5332 1.392 . S
C5333 H5345 0.929 . S
C5334 C5330 1.531 . S
C5334 H5346 0.960 . S
C5334 H5347 0.962 . S
C5334 H5348 0.960 . S
C5335 C5332 1.511 . S
C5335 H5349 0.961 . S
C5335 H5350 0.961 . S
C5335 H5351 0.961 . S
C5336 C5337 1.370 . S
C5336 C5338 1.363 . S
C5336 H5352 0.931 . S
C5337 C5336 1.370 . S
C5337 C5341 1.408 . S
C5338 C5336 1.363 . S
C5338 C5339 1.370 . S
C5338 C5342 1.524 . S
C5339 C5331 1.503 . S
C5339 C5338 1.370 . S
C5339 C5340 1.403 . S
C5340 C5339 1.403 . S
C5340 C5341 1.404 . S
C5340 C5343 1.539 . S
C5341 C5337 1.408 . S
C5341 C5340 1.404 . S
C5341 H5353 0.930 . S
C5342 C5338 1.524 . S
C5342 H5354 0.956 . S
C5342 H5355 0.961 . S
C5342 H5356 0.961 . S
C5343 C5340 1.539 . S
C5343 H5357 0.958 . S
C5343 H5358 0.961 . S
C5343 H5359 0.960 . S
H5344 C5328 0.931 . S
H5345 C5333 0.929 . S
H5346 C5334 0.960 . S
H5347 C5334 0.962 . S
H5348 C5334 0.960 . S
H5349 C5335 0.961 . S
H5350 C5335 0.961 . S
H5351 C5335 0.961 . S
H5352 C5336 0.931 . S
H5353 C5341 0.930 . S
H5354 C5342 0.956 . S
H5355 C5342 0.961 . S
H5356 C5342 0.961 . S
H5357 C5343 0.958 . S
H5358 C5343 0.961 . S
H5359 C5343 0.960 . S
C5360 C5361 1.391 . S
C5360 C5362 1.394 . S
C5360 H5376 0.931 . S
C5361 C5360 1.391 . S
C5361 C5365 1.376 . S
C5362 C5360 1.394 . S
C5362 C5363 1.369 . S
C5362 C5366 1.531 . S
C5363 C5362 1.369 . S
C5363 C5364 1.410 . S
C5363 C5371 1.503 . S
C5364 C5363 1.410 . S
C5364 C5365 1.392 . S
C5364 C5367 1.511 . S
C5365 C5361 1.376 . S
C5365 C5364 1.392 . S
C5365 H5377 0.929 . S
C5366 C5362 1.531 . S
C5366 H5378 0.960 . S
C5366 H5379 0.962 . S
C5366 H5380 0.960 . S
C5367 C5364 1.511 . S
C5367 H5381 0.961 . S
C5367 H5382 0.961 . S
C5367 H5383 0.961 . S
C5368 C5369 1.370 . S
C5368 C5370 1.363 . S
C5368 H5384 0.931 . S
C5369 C5368 1.370 . S
C5369 C5373 1.408 . S
C5370 C5368 1.363 . S
C5370 C5371 1.370 . S
C5370 C5374 1.524 . S
C5371 C5363 1.503 . S
C5371 C5370 1.370 . S
C5371 C5372 1.403 . S
C5372 C5371 1.403 . S
C5372 C5373 1.404 . S
C5372 C5375 1.539 . S
C5373 C5369 1.408 . S
C5373 C5372 1.404 . S
C5373 H5385 0.930 . S
C5374 C5370 1.524 . S
C5374 H5386 0.956 . S
C5374 H5387 0.961 . S
C5374 H5388 0.961 . S
C5375 C5372 1.539 . S
C5375 H5389 0.958 . S
C5375 H5390 0.961 . S
C5375 H5391 0.960 . S
H5376 C5360 0.931 . S
H5377 C5365 0.929 . S
H5378 C5366 0.960 . S
H5379 C5366 0.962 . S
H5380 C5366 0.960 . S
H5381 C5367 0.961 . S
H5382 C5367 0.961 . S
H5383 C5367 0.961 . S
H5384 C5368 0.931 . S
H5385 C5373 0.930 . S
H5386 C5374 0.956 . S
H5387 C5374 0.961 . S
H5388 C5374 0.961 . S
H5389 C5375 0.958 . S
H5390 C5375 0.961 . S
H5391 C5375 0.960 . S
C5392 C5393 1.391 . S
C5392 C5394 1.394 . S
C5392 H5408 0.931 . S
C5393 C5392 1.391 . S
C5393 C5397 1.376 . S
C5394 C5392 1.394 . S
C5394 C5395 1.369 . S
C5394 C5398 1.531 . S
C5395 C5394 1.369 . S
C5395 C5396 1.410 . S
C5395 C5403 1.503 . S
C5396 C5395 1.410 . S
C5396 C5397 1.392 . S
C5396 C5399 1.511 . S
C5397 C5393 1.376 . S
C5397 C5396 1.392 . S
C5397 H5409 0.929 . S
C5398 C5394 1.531 . S
C5398 H5410 0.960 . S
C5398 H5411 0.962 . S
C5398 H5412 0.960 . S
C5399 C5396 1.511 . S
C5399 H5413 0.961 . S
C5399 H5414 0.961 . S
C5399 H5415 0.961 . S
C5400 C5401 1.370 . S
C5400 C5402 1.363 . S
C5400 H5416 0.931 . S
C5401 C5400 1.370 . S
C5401 C5405 1.408 . S
C5402 C5400 1.363 . S
C5402 C5403 1.370 . S
C5402 C5406 1.524 . S
C5403 C5395 1.503 . S
C5403 C5402 1.370 . S
C5403 C5404 1.403 . S
C5404 C5403 1.403 . S
C5404 C5405 1.404 . S
C5404 C5407 1.539 . S
C5405 C5401 1.408 . S
C5405 C5404 1.404 . S
C5405 H5417 0.930 . S
C5406 C5402 1.524 . S
C5406 H5418 0.956 . S
C5406 H5419 0.961 . S
C5406 H5420 0.961 . S
C5407 C5404 1.539 . S
C5407 H5421 0.958 . S
C5407 H5422 0.961 . S
C5407 H5423 0.960 . S
H5408 C5392 0.931 . S
H5409 C5397 0.929 . S
H5410 C5398 0.960 . S
H5411 C5398 0.962 . S
H5412 C5398 0.960 . S
H5413 C5399 0.961 . S
H5414 C5399 0.961 . S
H5415 C5399 0.961 . S
H5416 C5400 0.931 . S
H5417 C5405 0.930 . S
H5418 C5406 0.956 . S
H5419 C5406 0.961 . S
H5420 C5406 0.961 . S
H5421 C5407 0.958 . S
H5422 C5407 0.961 . S
H5423 C5407 0.960 . S
C5424 C5425 1.391 . S
C5424 C5426 1.394 . S
C5424 H5440 0.931 . S
C5425 C5424 1.391 . S
C5425 C5429 1.376 . S
C5426 C5424 1.394 . S
C5426 C5427 1.369 . S
C5426 C5430 1.531 . S
C5427 C5426 1.369 . S
C5427 C5428 1.410 . S
C5427 C5435 1.503 . S
C5428 C5427 1.410 . S
C5428 C5429 1.392 . S
C5428 C5431 1.511 . S
C5429 C5425 1.376 . S
C5429 C5428 1.392 . S
C5429 H5441 0.929 . S
C5430 C5426 1.531 . S
C5430 H5442 0.960 . S
C5430 H5443 0.962 . S
C5430 H5444 0.960 . S
C5431 C5428 1.511 . S
C5431 H5445 0.961 . S
C5431 H5446 0.961 . S
C5431 H5447 0.961 . S
C5432 C5433 1.370 . S
C5432 C5434 1.363 . S
C5432 H5448 0.931 . S
C5433 C5432 1.370 . S
C5433 C5437 1.408 . S
C5434 C5432 1.363 . S
C5434 C5435 1.370 . S
C5434 C5438 1.524 . S
C5435 C5427 1.503 . S
C5435 C5434 1.370 . S
C5435 C5436 1.403 . S
C5436 C5435 1.403 . S
C5436 C5437 1.404 . S
C5436 C5439 1.539 . S
C5437 C5433 1.408 . S
C5437 C5436 1.404 . S
C5437 H5449 0.930 . S
C5438 C5434 1.524 . S
C5438 H5450 0.956 . S
C5438 H5451 0.961 . S
C5438 H5452 0.961 . S
C5439 C5436 1.539 . S
C5439 H5453 0.958 . S
C5439 H5454 0.961 . S
C5439 H5455 0.960 . S
H5440 C5424 0.931 . S
H5441 C5429 0.929 . S
H5442 C5430 0.960 . S
H5443 C5430 0.962 . S
H5444 C5430 0.960 . S
H5445 C5431 0.961 . S
H5446 C5431 0.961 . S
H5447 C5431 0.961 . S
H5448 C5432 0.931 . S
H5449 C5437 0.930 . S
H5450 C5438 0.956 . S
H5451 C5438 0.961 . S
H5452 C5438 0.961 . S
H5453 C5439 0.958 . S
H5454 C5439 0.961 . S
H5455 C5439 0.960 . S
C5456 C5457 1.391 . S
C5456 C5458 1.394 . S
C5456 H5472 0.931 . S
C5457 C5456 1.391 . S
C5457 C5461 1.376 . S
C5458 C5456 1.394 . S
C5458 C5459 1.369 . S
C5458 C5462 1.531 . S
C5459 C5458 1.369 . S
C5459 C5460 1.410 . S
C5459 C5467 1.503 . S
C5460 C5459 1.410 . S
C5460 C5461 1.392 . S
C5460 C5463 1.511 . S
C5461 C5457 1.376 . S
C5461 C5460 1.392 . S
C5461 H5473 0.929 . S
C5462 C5458 1.531 . S
C5462 H5474 0.960 . S
C5462 H5475 0.962 . S
C5462 H5476 0.960 . S
C5463 C5460 1.511 . S
C5463 H5477 0.961 . S
C5463 H5478 0.961 . S
C5463 H5479 0.961 . S
C5464 C5465 1.370 . S
C5464 C5466 1.363 . S
C5464 H5480 0.931 . S
C5465 C5464 1.370 . S
C5465 C5469 1.408 . S
C5466 C5464 1.363 . S
C5466 C5467 1.370 . S
C5466 C5470 1.524 . S
C5467 C5459 1.503 . S
C5467 C5466 1.370 . S
C5467 C5468 1.403 . S
C5468 C5467 1.403 . S
C5468 C5469 1.404 . S
C5468 C5471 1.539 . S
C5469 C5465 1.408 . S
C5469 C5468 1.404 . S
C5469 H5481 0.930 . S
C5470 C5466 1.524 . S
C5470 H5482 0.956 . S
C5470 H5483 0.961 . S
C5470 H5484 0.961 . S
C5471 C5468 1.539 . S
C5471 H5485 0.958 . S
C5471 H5486 0.961 . S
C5471 H5487 0.960 . S
H5472 C5456 0.931 . S
H5473 C5461 0.929 . S
H5474 C5462 0.960 . S
H5475 C5462 0.962 . S
H5476 C5462 0.960 . S
H5477 C5463 0.961 . S
H5478 C5463 0.961 . S
H5479 C5463 0.961 . S
H5480 C5464 0.931 . S
H5481 C5469 0.930 . S
H5482 C5470 0.956 . S
H5483 C5470 0.961 . S
H5484 C5470 0.961 . S
H5485 C5471 0.958 . S
H5486 C5471 0.961 . S
H5487 C5471 0.960 . S
C5488 C5489 1.391 . S
C5488 C5490 1.394 . S
C5488 H5504 0.931 . S
C5489 C5488 1.391 . S
C5489 C5493 1.376 . S
C5490 C5488 1.394 . S
C5490 C5491 1.369 . S
C5490 C5494 1.531 . S
C5491 C5490 1.369 . S
C5491 C5492 1.410 . S
C5491 C5499 1.503 . S
C5492 C5491 1.410 . S
C5492 C5493 1.392 . S
C5492 C5495 1.511 . S
C5493 C5489 1.376 . S
C5493 C5492 1.392 . S
C5493 H5505 0.929 . S
C5494 C5490 1.531 . S
C5494 H5506 0.960 . S
C5494 H5507 0.962 . S
C5494 H5508 0.960 . S
C5495 C5492 1.511 . S
C5495 H5509 0.961 . S
C5495 H5510 0.961 . S
C5495 H5511 0.961 . S
C5496 C5497 1.370 . S
C5496 C5498 1.363 . S
C5496 H5512 0.931 . S
C5497 C5496 1.370 . S
C5497 C5501 1.408 . S
C5498 C5496 1.363 . S
C5498 C5499 1.370 . S
C5498 C5502 1.524 . S
C5499 C5491 1.503 . S
C5499 C5498 1.370 . S
C5499 C5500 1.403 . S
C5500 C5499 1.403 . S
C5500 C5501 1.404 . S
C5500 C5503 1.539 . S
C5501 C5497 1.408 . S
C5501 C5500 1.404 . S
C5501 H5513 0.930 . S
C5502 C5498 1.524 . S
C5502 H5514 0.956 . S
C5502 H5515 0.961 . S
C5502 H5516 0.961 . S
C5503 C5500 1.539 . S
C5503 H5517 0.958 . S
C5503 H5518 0.961 . S
C5503 H5519 0.960 . S
H5504 C5488 0.931 . S
H5505 C5493 0.929 . S
H5506 C5494 0.960 . S
H5507 C5494 0.962 . S
H5508 C5494 0.960 . S
H5509 C5495 0.961 . S
H5510 C5495 0.961 . S
H5511 C5495 0.961 . S
H5512 C5496 0.931 . S
H5513 C5501 0.930 . S
H5514 C5502 0.956 . S
H5515 C5502 0.961 . S
H5516 C5502 0.961 . S
H5517 C5503 0.958 . S
H5518 C5503 0.961 . S
H5519 C5503 0.960 . S
C5520 C5521 1.391 . S
C5520 C5522 1.394 . S
C5520 H5536 0.931 . S
C5521 C5520 1.391 . S
C5521 C5525 1.376 . S
C5522 C5520 1.394 . S
C5522 C5523 1.369 . S
C5522 C5526 1.531 . S
C5523 C5522 1.369 . S
C5523 C5524 1.410 . S
C5523 C5531 1.503 . S
C5524 C5523 1.410 . S
C5524 C5525 1.392 . S
C5524 C5527 1.511 . S
C5525 C5521 1.376 . S
C5525 C5524 1.392 . S
C5525 H5537 0.929 . S
C5526 C5522 1.531 . S
C5526 H5538 0.960 . S
C5526 H5539 0.962 . S
C5526 H5540 0.960 . S
C5527 C5524 1.511 . S
C5527 H5541 0.961 . S
C5527 H5542 0.961 . S
C5527 H5543 0.961 . S
C5528 C5529 1.370 . S
C5528 C5530 1.363 . S
C5528 H5544 0.931 . S
C5529 C5528 1.370 . S
C5529 C5533 1.408 . S
C5530 C5528 1.363 . S
C5530 C5531 1.370 . S
C5530 C5534 1.524 . S
C5531 C5523 1.503 . S
C5531 C5530 1.370 . S
C5531 C5532 1.403 . S
C5532 C5531 1.403 . S
C5532 C5533 1.404 . S
C5532 C5535 1.539 . S
C5533 C5529 1.408 . S
C5533 C5532 1.404 . S
C5533 H5545 0.930 . S
C5534 C5530 1.524 . S
C5534 H5546 0.956 . S
C5534 H5547 0.961 . S
C5534 H5548 0.961 . S
C5535 C5532 1.539 . S
C5535 H5549 0.958 . S
C5535 H5550 0.961 . S
C5535 H5551 0.960 . S
H5536 C5520 0.931 . S
H5537 C5525 0.929 . S
H5538 C5526 0.960 . S
H5539 C5526 0.962 . S
H5540 C5526 0.960 . S
H5541 C5527 0.961 . S
H5542 C5527 0.961 . S
H5543 C5527 0.961 . S
H5544 C5528 0.931 . S
H5545 C5533 0.930 . S
H5546 C5534 0.956 . S
H5547 C5534 0.961 . S
H5548 C5534 0.961 . S
H5549 C5535 0.958 . S
H5550 C5535 0.961 . S
H5551 C5535 0.960 . S
C5552 C5553 1.391 . S
C5552 C5554 1.394 . S
C5552 H5568 0.931 . S
C5553 C5552 1.391 . S
C5553 C5557 1.376 . S
C5554 C5552 1.394 . S
C5554 C5555 1.369 . S
C5554 C5558 1.531 . S
C5555 C5554 1.369 . S
C5555 C5556 1.410 . S
C5555 C5563 1.503 . S
C5556 C5555 1.410 . S
C5556 C5557 1.392 . S
C5556 C5559 1.511 . S
C5557 C5553 1.376 . S
C5557 C5556 1.392 . S
C5557 H5569 0.929 . S
C5558 C5554 1.531 . S
C5558 H5570 0.960 . S
C5558 H5571 0.962 . S
C5558 H5572 0.960 . S
C5559 C5556 1.511 . S
C5559 H5573 0.961 . S
C5559 H5574 0.961 . S
C5559 H5575 0.961 . S
C5560 C5561 1.370 . S
C5560 C5562 1.363 . S
C5560 H5576 0.931 . S
C5561 C5560 1.370 . S
C5561 C5565 1.408 . S
C5562 C5560 1.363 . S
C5562 C5563 1.370 . S
C5562 C5566 1.524 . S
C5563 C5555 1.503 . S
C5563 C5562 1.370 . S
C5563 C5564 1.403 . S
C5564 C5563 1.403 . S
C5564 C5565 1.404 . S
C5564 C5567 1.539 . S
C5565 C5561 1.408 . S
C5565 C5564 1.404 . S
C5565 H5577 0.930 . S
C5566 C5562 1.524 . S
C5566 H5578 0.956 . S
C5566 H5579 0.961 . S
C5566 H5580 0.961 . S
C5567 C5564 1.539 . S
C5567 H5581 0.958 . S
C5567 H5582 0.961 . S
C5567 H5583 0.960 . S
H5568 C5552 0.931 . S
H5569 C5557 0.929 . S
H5570 C5558 0.960 . S
H5571 C5558 0.962 . S
H5572 C5558 0.960 . S
H5573 C5559 0.961 . S
H5574 C5559 0.961 . S
H5575 C5559 0.961 . S
H5576 C5560 0.931 . S
H5577 C5565 0.930 . S
H5578 C5566 0.956 . S
H5579 C5566 0.961 . S
H5580 C5566 0.961 . S
H5581 C5567 0.958 . S
H5582 C5567 0.961 . S
H5583 C5567 0.960 . S
C5584 C5585 1.391 . S
C5584 C5586 1.394 . S
C5584 H5600 0.931 . S
C5585 C5584 1.391 . S
C5585 C5589 1.376 . S
C5586 C5584 1.394 . S
C5586 C5587 1.369 . S
C5586 C5590 1.531 . S
C5587 C5586 1.369 . S
C5587 C5588 1.410 . S
C5587 C5595 1.503 . S
C5588 C5587 1.410 . S
C5588 C5589 1.392 . S
C5588 C5591 1.511 . S
C5589 C5585 1.376 . S
C5589 C5588 1.392 . S
C5589 H5601 0.929 . S
C5590 C5586 1.531 . S
C5590 H5602 0.960 . S
C5590 H5603 0.962 . S
C5590 H5604 0.960 . S
C5591 C5588 1.511 . S
C5591 H5605 0.961 . S
C5591 H5606 0.961 . S
C5591 H5607 0.961 . S
C5592 C5593 1.370 . S
C5592 C5594 1.363 . S
C5592 H5608 0.931 . S
C5593 C5592 1.370 . S
C5593 C5597 1.408 . S
C5594 C5592 1.363 . S
C5594 C5595 1.370 . S
C5594 C5598 1.524 . S
C5595 C5587 1.503 . S
C5595 C5594 1.370 . S
C5595 C5596 1.403 . S
C5596 C5595 1.403 . S
C5596 C5597 1.404 . S
C5596 C5599 1.539 . S
C5597 C5593 1.408 . S
C5597 C5596 1.404 . S
C5597 H5609 0.930 . S
C5598 C5594 1.524 . S
C5598 H5610 0.956 . S
C5598 H5611 0.961 . S
C5598 H5612 0.961 . S
C5599 C5596 1.539 . S
C5599 H5613 0.958 . S
C5599 H5614 0.961 . S
C5599 H5615 0.960 . S
H5600 C5584 0.931 . S
H5601 C5589 0.929 . S
H5602 C5590 0.960 . S
H5603 C5590 0.962 . S
H5604 C5590 0.960 . S
H5605 C5591 0.961 . S
H5606 C5591 0.961 . S
H5607 C5591 0.961 . S
H5608 C5592 0.931 . S
H5609 C5597 0.930 . S
H5610 C5598 0.956 . S
H5611 C5598 0.961 . S
H5612 C5598 0.961 . S
H5613 C5599 0.958 . S
H5614 C5599 0.961 . S
H5615 C5599 0.960 . S
C5616 C5617 1.391 . S
C5616 C5618 1.394 . S
C5616 H5632 0.931 . S
C5617 C5616 1.391 . S
C5617 C5621 1.376 . S
C5618 C5616 1.394 . S
C5618 C5619 1.369 . S
C5618 C5622 1.531 . S
C5619 C5618 1.369 . S
C5619 C5620 1.410 . S
C5619 C5627 1.503 . S
C5620 C5619 1.410 . S
C5620 C5621 1.392 . S
C5620 C5623 1.511 . S
C5621 C5617 1.376 . S
C5621 C5620 1.392 . S
C5621 H5633 0.929 . S
C5622 C5618 1.531 . S
C5622 H5634 0.960 . S
C5622 H5635 0.962 . S
C5622 H5636 0.960 . S
C5623 C5620 1.511 . S
C5623 H5637 0.961 . S
C5623 H5638 0.961 . S
C5623 H5639 0.961 . S
C5624 C5625 1.370 . S
C5624 C5626 1.363 . S
C5624 H5640 0.931 . S
C5625 C5624 1.370 . S
C5625 C5629 1.408 . S
C5626 C5624 1.363 . S
C5626 C5627 1.370 . S
C5626 C5630 1.524 . S
C5627 C5619 1.503 . S
C5627 C5626 1.370 . S
C5627 C5628 1.403 . S
C5628 C5627 1.403 . S
C5628 C5629 1.404 . S
C5628 C5631 1.539 . S
C5629 C5625 1.408 . S
C5629 C5628 1.404 . S
C5629 H5641 0.930 . S
C5630 C5626 1.524 . S
C5630 H5642 0.956 . S
C5630 H5643 0.961 . S
C5630 H5644 0.961 . S
C5631 C5628 1.539 . S
C5631 H5645 0.958 . S
C5631 H5646 0.961 . S
C5631 H5647 0.960 . S
H5632 C5616 0.931 . S
H5633 C5621 0.929 . S
H5634 C5622 0.960 . S
H5635 C5622 0.962 . S
H5636 C5622 0.960 . S
H5637 C5623 0.961 . S
H5638 C5623 0.961 . S
H5639 C5623 0.961 . S
H5640 C5624 0.931 . S
H5641 C5629 0.930 . S
H5642 C5630 0.956 . S
H5643 C5630 0.961 . S
H5644 C5630 0.961 . S
H5645 C5631 0.958 . S
H5646 C5631 0.961 . S
H5647 C5631 0.960 . S
C5648 C5649 1.391 . S
C5648 C5650 1.394 . S
C5648 H5664 0.931 . S
C5649 C5648 1.391 . S
C5649 C5653 1.376 . S
C5650 C5648 1.394 . S
C5650 C5651 1.369 . S
C5650 C5654 1.531 . S
C5651 C5650 1.369 . S
C5651 C5652 1.410 . S
C5651 C5659 1.503 . S
C5652 C5651 1.410 . S
C5652 C5653 1.392 . S
C5652 C5655 1.511 . S
C5653 C5649 1.376 . S
C5653 C5652 1.392 . S
C5653 H5665 0.929 . S
C5654 C5650 1.531 . S
C5654 H5666 0.960 . S
C5654 H5667 0.962 . S
C5654 H5668 0.960 . S
C5655 C5652 1.511 . S
C5655 H5669 0.961 . S
C5655 H5670 0.961 . S
C5655 H5671 0.961 . S
C5656 C5657 1.370 . S
C5656 C5658 1.363 . S
C5656 H5672 0.931 . S
C5657 C5656 1.370 . S
C5657 C5661 1.408 . S
C5658 C5656 1.363 . S
C5658 C5659 1.370 . S
C5658 C5662 1.524 . S
C5659 C5651 1.503 . S
C5659 C5658 1.370 . S
C5659 C5660 1.403 . S
C5660 C5659 1.403 . S
C5660 C5661 1.404 . S
C5660 C5663 1.539 . S
C5661 C5657 1.408 . S
C5661 C5660 1.404 . S
C5661 H5673 0.930 . S
C5662 C5658 1.524 . S
C5662 H5674 0.956 . S
C5662 H5675 0.961 . S
C5662 H5676 0.961 . S
C5663 C5660 1.539 . S
C5663 H5677 0.958 . S
C5663 H5678 0.961 . S
C5663 H5679 0.960 . S
H5664 C5648 0.931 . S
H5665 C5653 0.929 . S
H5666 C5654 0.960 . S
H5667 C5654 0.962 . S
H5668 C5654 0.960 . S
H5669 C5655 0.961 . S
H5670 C5655 0.961 . S
H5671 C5655 0.961 . S
H5672 C5656 0.931 . S
H5673 C5661 0.930 . S
H5674 C5662 0.956 . S
H5675 C5662 0.961 . S
H5676 C5662 0.961 . S
H5677 C5663 0.958 . S
H5678 C5663 0.961 . S
H5679 C5663 0.960 . S
C5680 C5681 1.391 . S
C5680 C5682 1.394 . S
C5680 H5696 0.931 . S
C5681 C5680 1.391 . S
C5681 C5685 1.376 . S
C5682 C5680 1.394 . S
C5682 C5683 1.369 . S
C5682 C5686 1.531 . S
C5683 C5682 1.369 . S
C5683 C5684 1.410 . S
C5683 C5691 1.503 . S
C5684 C5683 1.410 . S
C5684 C5685 1.392 . S
C5684 C5687 1.511 . S
C5685 C5681 1.376 . S
C5685 C5684 1.392 . S
C5685 H5697 0.929 . S
C5686 C5682 1.531 . S
C5686 H5698 0.960 . S
C5686 H5699 0.962 . S
C5686 H5700 0.960 . S
C5687 C5684 1.511 . S
C5687 H5701 0.961 . S
C5687 H5702 0.961 . S
C5687 H5703 0.961 . S
C5688 C5689 1.370 . S
C5688 C5690 1.363 . S
C5688 H5704 0.931 . S
C5689 C5688 1.370 . S
C5689 C5693 1.408 . S
C5690 C5688 1.363 . S
C5690 C5691 1.370 . S
C5690 C5694 1.524 . S
C5691 C5683 1.503 . S
C5691 C5690 1.370 . S
C5691 C5692 1.403 . S
C5692 C5691 1.403 . S
C5692 C5693 1.404 . S
C5692 C5695 1.539 . S
C5693 C5689 1.408 . S
C5693 C5692 1.404 . S
C5693 H5705 0.930 . S
C5694 C5690 1.524 . S
C5694 H5706 0.956 . S
C5694 H5707 0.961 . S
C5694 H5708 0.961 . S
C5695 C5692 1.539 . S
C5695 H5709 0.958 . S
C5695 H5710 0.961 . S
C5695 H5711 0.960 . S
H5696 C5680 0.931 . S
H5697 C5685 0.929 . S
H5698 C5686 0.960 . S
H5699 C5686 0.962 . S
H5700 C5686 0.960 . S
H5701 C5687 0.961 . S
H5702 C5687 0.961 . S
H5703 C5687 0.961 . S
H5704 C5688 0.931 . S
H5705 C5693 0.930 . S
H5706 C5694 0.956 . S
H5707 C5694 0.961 . S
H5708 C5694 0.961 . S
H5709 C5695 0.958 . S
H5710 C5695 0.961 . S
H5711 C5695 0.960 . S
C5712 C5713 1.391 . S
C5712 C5714 1.394 . S
C5712 H5728 0.931 . S
C5713 C5712 1.391 . S
C5713 C5717 1.376 . S
C5714 C5712 1.394 . S
C5714 C5715 1.369 . S
C5714 C5718 1.531 . S
C5715 C5714 1.369 . S
C5715 C5716 1.410 . S
C5715 C5723 1.503 . S
C5716 C5715 1.410 . S
C5716 C5717 1.392 . S
C5716 C5719 1.511 . S
C5717 C5713 1.376 . S
C5717 C5716 1.392 . S
C5717 H5729 0.929 . S
C5718 C5714 1.531 . S
C5718 H5730 0.960 . S
C5718 H5731 0.962 . S
C5718 H5732 0.960 . S
C5719 C5716 1.511 . S
C5719 H5733 0.961 . S
C5719 H5734 0.961 . S
C5719 H5735 0.961 . S
C5720 C5721 1.370 . S
C5720 C5722 1.363 . S
C5720 H5736 0.931 . S
C5721 C5720 1.370 . S
C5721 C5725 1.408 . S
C5722 C5720 1.363 . S
C5722 C5723 1.370 . S
C5722 C5726 1.524 . S
C5723 C5715 1.503 . S
C5723 C5722 1.370 . S
C5723 C5724 1.403 . S
C5724 C5723 1.403 . S
C5724 C5725 1.404 . S
C5724 C5727 1.539 . S
C5725 C5721 1.408 . S
C5725 C5724 1.404 . S
C5725 H5737 0.930 . S
C5726 C5722 1.524 . S
C5726 H5738 0.956 . S
C5726 H5739 0.961 . S
C5726 H5740 0.961 . S
C5727 C5724 1.539 . S
C5727 H5741 0.958 . S
C5727 H5742 0.961 . S
C5727 H5743 0.960 . S
H5728 C5712 0.931 . S
H5729 C5717 0.929 . S
H5730 C5718 0.960 . S
H5731 C5718 0.962 . S
H5732 C5718 0.960 . S
H5733 C5719 0.961 . S
H5734 C5719 0.961 . S
H5735 C5719 0.961 . S
H5736 C5720 0.931 . S
H5737 C5725 0.930 . S
H5738 C5726 0.956 . S
H5739 C5726 0.961 . S
H5740 C5726 0.961 . S
H5741 C5727 0.958 . S
H5742 C5727 0.961 . S
H5743 C5727 0.960 . S
C5744 C5745 1.391 . S
C5744 C5746 1.394 . S
C5744 H5760 0.931 . S
C5745 C5744 1.391 . S
C5745 C5749 1.376 . S
C5746 C5744 1.394 . S
C5746 C5747 1.369 . S
C5746 C5750 1.531 . S
C5747 C5746 1.369 . S
C5747 C5748 1.410 . S
C5747 C5755 1.503 . S
C5748 C5747 1.410 . S
C5748 C5749 1.392 . S
C5748 C5751 1.511 . S
C5749 C5745 1.376 . S
C5749 C5748 1.392 . S
C5749 H5761 0.929 . S
C5750 C5746 1.531 . S
C5750 H5762 0.960 . S
C5750 H5763 0.962 . S
C5750 H5764 0.960 . S
C5751 C5748 1.511 . S
C5751 H5765 0.961 . S
C5751 H5766 0.961 . S
C5751 H5767 0.961 . S
C5752 C5753 1.370 . S
C5752 C5754 1.363 . S
C5752 H5768 0.931 . S
C5753 C5752 1.370 . S
C5753 C5757 1.408 . S
C5754 C5752 1.363 . S
C5754 C5755 1.370 . S
C5754 C5758 1.524 . S
C5755 C5747 1.503 . S
C5755 C5754 1.370 . S
C5755 C5756 1.403 . S
C5756 C5755 1.403 . S
C5756 C5757 1.404 . S
C5756 C5759 1.539 . S
C5757 C5753 1.408 . S
C5757 C5756 1.404 . S
C5757 H5769 0.930 . S
C5758 C5754 1.524 . S
C5758 H5770 0.956 . S
C5758 H5771 0.961 . S
C5758 H5772 0.961 . S
C5759 C5756 1.539 . S
C5759 H5773 0.958 . S
C5759 H5774 0.961 . S
C5759 H5775 0.960 . S
H5760 C5744 0.931 . S
H5761 C5749 0.929 . S
H5762 C5750 0.960 . S
H5763 C5750 0.962 . S
H5764 C5750 0.960 . S
H5765 C5751 0.961 . S
H5766 C5751 0.961 . S
H5767 C5751 0.961 . S
H5768 C5752 0.931 . S
H5769 C5757 0.930 . S
H5770 C5758 0.956 . S
H5771 C5758 0.961 . S
H5772 C5758 0.961 . S
H5773 C5759 0.958 . S
H5774 C5759 0.961 . S
H5775 C5759 0.960 . S
C5776 C5777 1.391 . S
C5776 C5778 1.394 . S
C5776 H5792 0.931 . S
C5777 C5776 1.391 . S
C5777 C5781 1.376 . S
C5778 C5776 1.394 . S
C5778 C5779 1.369 . S
C5778 C5782 1.531 . S
C5779 C5778 1.369 . S
C5779 C5780 1.410 . S
C5779 C5787 1.503 . S
C5780 C5779 1.410 . S
C5780 C5781 1.392 . S
C5780 C5783 1.511 . S
C5781 C5777 1.376 . S
C5781 C5780 1.392 . S
C5781 H5793 0.929 . S
C5782 C5778 1.531 . S
C5782 H5794 0.960 . S
C5782 H5795 0.962 . S
C5782 H5796 0.960 . S
C5783 C5780 1.511 . S
C5783 H5797 0.961 . S
C5783 H5798 0.961 . S
C5783 H5799 0.961 . S
C5784 C5785 1.370 . S
C5784 C5786 1.363 . S
C5784 H5800 0.931 . S
C5785 C5784 1.370 . S
C5785 C5789 1.408 . S
C5786 C5784 1.363 . S
C5786 C5787 1.370 . S
C5786 C5790 1.524 . S
C5787 C5779 1.503 . S
C5787 C5786 1.370 . S
C5787 C5788 1.403 . S
C5788 C5787 1.403 . S
C5788 C5789 1.404 . S
C5788 C5791 1.539 . S
C5789 C5785 1.408 . S
C5789 C5788 1.404 . S
C5789 H5801 0.930 . S
C5790 C5786 1.524 . S
C5790 H5802 0.956 . S
C5790 H5803 0.961 . S
C5790 H5804 0.961 . S
C5791 C5788 1.539 . S
C5791 H5805 0.958 . S
C5791 H5806 0.961 . S
C5791 H5807 0.960 . S
H5792 C5776 0.931 . S
H5793 C5781 0.929 . S
H5794 C5782 0.960 . S
H5795 C5782 0.962 . S
H5796 C5782 0.960 . S
H5797 C5783 0.961 . S
H5798 C5783 0.961 . S
H5799 C5783 0.961 . S
H5800 C5784 0.931 . S
H5801 C5789 0.930 . S
H5802 C5790 0.956 . S
H5803 C5790 0.961 . S
H5804 C5790 0.961 . S
H5805 C5791 0.958 . S
H5806 C5791 0.961 . S
H5807 C5791 0.960 . S
C5808 C5809 1.391 . S
C5808 C5810 1.394 . S
C5808 H5824 0.931 . S
C5809 C5808 1.391 . S
C5809 C5813 1.376 . S
C5810 C5808 1.394 . S
C5810 C5811 1.369 . S
C5810 C5814 1.531 . S
C5811 C5810 1.369 . S
C5811 C5812 1.410 . S
C5811 C5819 1.503 . S
C5812 C5811 1.410 . S
C5812 C5813 1.392 . S
C5812 C5815 1.511 . S
C5813 C5809 1.376 . S
C5813 C5812 1.392 . S
C5813 H5825 0.929 . S
C5814 C5810 1.531 . S
C5814 H5826 0.960 . S
C5814 H5827 0.962 . S
C5814 H5828 0.960 . S
C5815 C5812 1.511 . S
C5815 H5829 0.961 . S
C5815 H5830 0.961 . S
C5815 H5831 0.961 . S
C5816 C5817 1.370 . S
C5816 C5818 1.363 . S
C5816 H5832 0.931 . S
C5817 C5816 1.370 . S
C5817 C5821 1.408 . S
C5818 C5816 1.363 . S
C5818 C5819 1.370 1_655 S
C5818 C5822 1.524 1_655 S
C5819 C5811 1.503 . S
C5819 C5818 1.370 1_455 S
C5819 C5820 1.403 1_455 S
C5820 C5819 1.403 1_655 S
C5820 C5821 1.404 . S
C5820 C5823 1.539 . S
C5821 C5817 1.408 . S
C5821 C5820 1.404 . S
C5821 H5833 0.930 . S
C5822 C5818 1.524 1_455 S
C5822 H5834 0.956 . S
C5822 H5835 0.961 . S
C5822 H5836 0.961 . S
C5823 C5820 1.539 . S
C5823 H5837 0.958 . S
C5823 H5838 0.961 . S
C5823 H5839 0.960 1_655 S
H5824 C5808 0.931 . S
H5825 C5813 0.929 . S
H5826 C5814 0.960 . S
H5827 C5814 0.962 . S
H5828 C5814 0.960 . S
H5829 C5815 0.961 . S
H5830 C5815 0.961 . S
H5831 C5815 0.961 . S
H5832 C5816 0.931 . S
H5833 C5821 0.930 . S
H5834 C5822 0.956 . S
H5835 C5822 0.961 . S
H5836 C5822 0.961 . S
H5837 C5823 0.958 . S
H5838 C5823 0.961 . S
H5839 C5823 0.960 1_455 S
C5840 C5841 1.391 . S
C5840 C5842 1.394 . S
C5840 H5856 0.931 . S
C5841 C5840 1.391 . S
C5841 C5845 1.376 . S
C5842 C5840 1.394 . S
C5842 C5843 1.369 . S
C5842 C5846 1.531 . S
C5843 C5842 1.369 . S
C5843 C5844 1.410 . S
C5843 C5851 1.503 . S
C5844 C5843 1.410 . S
C5844 C5845 1.392 . S
C5844 C5847 1.511 . S
C5845 C5841 1.376 . S
C5845 C5844 1.392 . S
C5845 H5857 0.929 . S
C5846 C5842 1.531 . S
C5846 H5858 0.960 . S
C5846 H5859 0.962 . S
C5846 H5860 0.960 . S
C5847 C5844 1.511 . S
C5847 H5861 0.961 . S
C5847 H5862 0.961 . S
C5847 H5863 0.961 . S
C5848 C5849 1.370 . S
C5848 C5850 1.363 . S
C5848 H5864 0.931 . S
C5849 C5848 1.370 . S
C5849 C5853 1.408 . S
C5850 C5848 1.363 . S
C5850 C5851 1.370 . S
C5850 C5854 1.524 . S
C5851 C5843 1.503 . S
C5851 C5850 1.370 . S
C5851 C5852 1.403 . S
C5852 C5851 1.403 . S
C5852 C5853 1.404 . S
C5852 C5855 1.539 . S
C5853 C5849 1.408 . S
C5853 C5852 1.404 . S
C5853 H5865 0.930 . S
C5854 C5850 1.524 . S
C5854 H5866 0.956 . S
C5854 H5867 0.961 . S
C5854 H5868 0.961 . S
C5855 C5852 1.539 . S
C5855 H5869 0.958 . S
C5855 H5870 0.961 . S
C5855 H5871 0.960 . S
H5856 C5840 0.931 . S
H5857 C5845 0.929 . S
H5858 C5846 0.960 . S
H5859 C5846 0.962 . S
H5860 C5846 0.960 . S
H5861 C5847 0.961 . S
H5862 C5847 0.961 . S
H5863 C5847 0.961 . S
H5864 C5848 0.931 . S
H5865 C5853 0.930 . S
H5866 C5854 0.956 . S
H5867 C5854 0.961 . S
H5868 C5854 0.961 . S
H5869 C5855 0.958 . S
H5870 C5855 0.961 . S
H5871 C5855 0.960 . S
C5872 C5873 1.391 . S
C5872 C5874 1.394 . S
C5872 H5888 0.931 . S
C5873 C5872 1.391 . S
C5873 C5877 1.376 . S
C5874 C5872 1.394 . S
C5874 C5875 1.369 . S
C5874 C5878 1.531 . S
C5875 C5874 1.369 . S
C5875 C5876 1.410 . S
C5875 C5883 1.503 . S
C5876 C5875 1.410 . S
C5876 C5877 1.392 . S
C5876 C5879 1.511 . S
C5877 C5873 1.376 . S
C5877 C5876 1.392 . S
C5877 H5889 0.929 . S
C5878 C5874 1.531 . S
C5878 H5890 0.960 . S
C5878 H5891 0.962 . S
C5878 H5892 0.960 . S
C5879 C5876 1.511 . S
C5879 H5893 0.961 . S
C5879 H5894 0.961 . S
C5879 H5895 0.961 . S
C5880 C5881 1.370 . S
C5880 C5882 1.363 1_565 S
C5880 H5896 0.931 . S
C5881 C5880 1.370 . S
C5881 C5885 1.408 . S
C5882 C5880 1.363 1_545 S
C5882 C5883 1.370 . S
C5882 C5886 1.524 . S
C5883 C5875 1.503 . S
C5883 C5882 1.370 . S
C5883 C5884 1.403 . S
C5884 C5883 1.403 . S
C5884 C5885 1.404 1_545 S
C5884 C5887 1.539 . S
C5885 C5881 1.408 . S
C5885 C5884 1.404 1_565 S
C5885 H5897 0.930 . S
C5886 C5882 1.524 . S
C5886 H5898 0.956 . S
C5886 H5899 0.961 . S
C5886 H5900 0.961 . S
C5887 C5884 1.539 . S
C5887 H5901 0.958 . S
C5887 H5902 0.961 . S
C5887 H5903 0.960 . S
H5888 C5872 0.931 . S
H5889 C5877 0.929 . S
H5890 C5878 0.960 . S
H5891 C5878 0.962 . S
H5892 C5878 0.960 . S
H5893 C5879 0.961 . S
H5894 C5879 0.961 . S
H5895 C5879 0.961 . S
H5896 C5880 0.931 . S
H5897 C5885 0.930 . S
H5898 C5886 0.956 . S
H5899 C5886 0.961 . S
H5900 C5886 0.961 . S
H5901 C5887 0.958 . S
H5902 C5887 0.961 . S
H5903 C5887 0.960 . S
C5904 C5905 1.391 . S
C5904 C5906 1.394 1_565 S
C5904 H5920 0.931 . S
C5905 C5904 1.391 . S
C5905 C5909 1.376 . S
C5906 C5904 1.394 1_545 S
C5906 C5907 1.369 . S
C5906 C5910 1.531 . S
C5907 C5906 1.369 . S
C5907 C5908 1.410 1_545 S
C5907 C5915 1.503 . S
C5908 C5907 1.410 1_565 S
C5908 C5909 1.392 . S
C5908 C5911 1.511 1_565 S
C5909 C5905 1.376 . S
C5909 C5908 1.392 . S
C5909 H5921 0.929 . S
C5910 C5906 1.531 . S
C5910 H5922 0.960 . S
C5910 H5923 0.962 . S
C5910 H5924 0.960 . S
C5911 C5908 1.511 1_545 S
C5911 H5925 0.961 1_545 S
C5911 H5926 0.961 . S
C5911 H5927 0.961 . S
C5912 C5913 1.370 . S
C5912 C5914 1.363 . S
C5912 H5928 0.931 . S
C5913 C5912 1.370 . S
C5913 C5917 1.408 . S
C5914 C5912 1.363 . S
C5914 C5915 1.370 . S
C5914 C5918 1.524 . S
C5915 C5907 1.503 . S
C5915 C5914 1.370 . S
C5915 C5916 1.403 . S
C5916 C5915 1.403 . S
C5916 C5917 1.404 . S
C5916 C5919 1.539 . S
C5917 C5913 1.408 . S
C5917 C5916 1.404 . S
C5917 H5929 0.930 . S
C5918 C5914 1.524 . S
C5918 H5930 0.956 . S
C5918 H5931 0.961 . S
C5918 H5932 0.961 . S
C5919 C5916 1.539 . S
C5919 H5933 0.958 . S
C5919 H5934 0.961 . S
C5919 H5935 0.960 . S
H5920 C5904 0.931 . S
H5921 C5909 0.929 . S
H5922 C5910 0.960 . S
H5923 C5910 0.962 . S
H5924 C5910 0.960 . S
H5925 C5911 0.961 1_565 S
H5926 C5911 0.961 . S
H5927 C5911 0.961 . S
H5928 C5912 0.931 . S
H5929 C5917 0.930 . S
H5930 C5918 0.956 . S
H5931 C5918 0.961 . S
H5932 C5918 0.961 . S
H5933 C5919 0.958 . S
H5934 C5919 0.961 . S
H5935 C5919 0.960 . S
C5936 C5937 1.391 . S
C5936 C5938 1.394 . S
C5936 H5952 0.931 . S
C5937 C5936 1.391 . S
C5937 C5941 1.376 . S
C5938 C5936 1.394 . S
C5938 C5939 1.369 . S
C5938 C5942 1.531 . S
C5939 C5938 1.369 . S
C5939 C5940 1.410 . S
C5939 C5947 1.503 . S
C5940 C5939 1.410 . S
C5940 C5941 1.392 . S
C5940 C5943 1.511 . S
C5941 C5937 1.376 . S
C5941 C5940 1.392 . S
C5941 H5953 0.929 . S
C5942 C5938 1.531 . S
C5942 H5954 0.960 . S
C5942 H5955 0.962 . S
C5942 H5956 0.960 . S
C5943 C5940 1.511 . S
C5943 H5957 0.961 . S
C5943 H5958 0.961 . S
C5943 H5959 0.961 . S
C5944 C5945 1.370 . S
C5944 C5946 1.363 . S
C5944 H5960 0.931 . S
C5945 C5944 1.370 . S
C5945 C5949 1.408 . S
C5946 C5944 1.363 . S
C5946 C5947 1.370 1_655 S
C5946 C5950 1.524 1_655 S
C5947 C5939 1.503 . S
C5947 C5946 1.370 1_455 S
C5947 C5948 1.403 1_455 S
C5948 C5947 1.403 1_655 S
C5948 C5949 1.404 . S
C5948 C5951 1.539 . S
C5949 C5945 1.408 . S
C5949 C5948 1.404 . S
C5949 H5961 0.930 . S
C5950 C5946 1.524 1_455 S
C5950 H5962 0.956 . S
C5950 H5963 0.961 . S
C5950 H5964 0.961 . S
C5951 C5948 1.539 . S
C5951 H5965 0.958 . S
C5951 H5966 0.961 . S
C5951 H5967 0.960 1_655 S
H5952 C5936 0.931 . S
H5953 C5941 0.929 . S
H5954 C5942 0.960 . S
H5955 C5942 0.962 . S
H5956 C5942 0.960 . S
H5957 C5943 0.961 . S
H5958 C5943 0.961 . S
H5959 C5943 0.961 . S
H5960 C5944 0.931 . S
H5961 C5949 0.930 . S
H5962 C5950 0.956 . S
H5963 C5950 0.961 . S
H5964 C5950 0.961 . S
H5965 C5951 0.958 . S
H5966 C5951 0.961 . S
H5967 C5951 0.960 1_455 S
C5968 C5969 1.391 . S
C5968 C5970 1.394 . S
C5968 H5984 0.931 . S
C5969 C5968 1.391 . S
C5969 C5973 1.376 . S
C5970 C5968 1.394 . S
C5970 C5971 1.369 . S
C5970 C5974 1.531 . S
C5971 C5970 1.369 . S
C5971 C5972 1.410 . S
C5971 C5979 1.503 . S
C5972 C5971 1.410 . S
C5972 C5973 1.392 . S
C5972 C5975 1.511 . S
C5973 C5969 1.376 . S
C5973 C5972 1.392 . S
C5973 H5985 0.929 . S
C5974 C5970 1.531 . S
C5974 H5986 0.960 . S
C5974 H5987 0.962 . S
C5974 H5988 0.960 . S
C5975 C5972 1.511 . S
C5975 H5989 0.961 . S
C5975 H5990 0.961 . S
C5975 H5991 0.961 . S
C5976 C5977 1.370 . S
C5976 C5978 1.363 . S
C5976 H5992 0.931 . S
C5977 C5976 1.370 . S
C5977 C5981 1.408 . S
C5978 C5976 1.363 . S
C5978 C5979 1.370 . S
C5978 C5982 1.524 . S
C5979 C5971 1.503 . S
C5979 C5978 1.370 . S
C5979 C5980 1.403 . S
C5980 C5979 1.403 . S
C5980 C5981 1.404 . S
C5980 C5983 1.539 . S
C5981 C5977 1.408 . S
C5981 C5980 1.404 . S
C5981 H5993 0.930 . S
C5982 C5978 1.524 . S
C5982 H5994 0.956 . S
C5982 H5995 0.961 . S
C5982 H5996 0.961 . S
C5983 C5980 1.539 . S
C5983 H5997 0.958 . S
C5983 H5998 0.961 . S
C5983 H5999 0.960 . S
H5984 C5968 0.931 . S
H5985 C5973 0.929 . S
H5986 C5974 0.960 . S
H5987 C5974 0.962 . S
H5988 C5974 0.960 . S
H5989 C5975 0.961 . S
H5990 C5975 0.961 . S
H5991 C5975 0.961 . S
H5992 C5976 0.931 . S
H5993 C5981 0.930 . S
H5994 C5982 0.956 . S
H5995 C5982 0.961 . S
H5996 C5982 0.961 . S
H5997 C5983 0.958 . S
H5998 C5983 0.961 . S
H5999 C5983 0.960 . S
C6000 C6001 1.391 . S
C6000 C6002 1.394 . S
C6000 H6016 0.931 . S
C6001 C6000 1.391 . S
C6001 C6005 1.376 . S
C6002 C6000 1.394 . S
C6002 C6003 1.369 . S
C6002 C6006 1.531 . S
C6003 C6002 1.369 . S
C6003 C6004 1.410 . S
C6003 C6011 1.503 . S
C6004 C6003 1.410 . S
C6004 C6005 1.392 . S
C6004 C6007 1.511 . S
C6005 C6001 1.376 . S
C6005 C6004 1.392 . S
C6005 H6017 0.929 . S
C6006 C6002 1.531 . S
C6006 H6018 0.960 . S
C6006 H6019 0.962 . S
C6006 H6020 0.960 . S
C6007 C6004 1.511 . S
C6007 H6021 0.961 . S
C6007 H6022 0.961 . S
C6007 H6023 0.961 . S
C6008 C6009 1.370 . S
C6008 C6010 1.363 . S
C6008 H6024 0.931 . S
C6009 C6008 1.370 . S
C6009 C6013 1.408 . S
C6010 C6008 1.363 . S
C6010 C6011 1.370 . S
C6010 C6014 1.524 . S
C6011 C6003 1.503 . S
C6011 C6010 1.370 . S
C6011 C6012 1.403 . S
C6012 C6011 1.403 . S
C6012 C6013 1.404 . S
C6012 C6015 1.539 . S
C6013 C6009 1.408 . S
C6013 C6012 1.404 . S
C6013 H6025 0.930 . S
C6014 C6010 1.524 . S
C6014 H6026 0.956 . S
C6014 H6027 0.961 . S
C6014 H6028 0.961 . S
C6015 C6012 1.539 . S
C6015 H6029 0.958 . S
C6015 H6030 0.961 . S
C6015 H6031 0.960 . S
H6016 C6000 0.931 . S
H6017 C6005 0.929 . S
H6018 C6006 0.960 . S
H6019 C6006 0.962 . S
H6020 C6006 0.960 . S
H6021 C6007 0.961 . S
H6022 C6007 0.961 . S
H6023 C6007 0.961 . S
H6024 C6008 0.931 . S
H6025 C6013 0.930 . S
H6026 C6014 0.956 . S
H6027 C6014 0.961 . S
H6028 C6014 0.961 . S
H6029 C6015 0.958 . S
H6030 C6015 0.961 . S
H6031 C6015 0.960 . S
C6032 C6033 1.391 . S
C6032 C6034 1.394 . S
C6032 H6048 0.931 . S
C6033 C6032 1.391 . S
C6033 C6037 1.376 . S
C6034 C6032 1.394 . S
C6034 C6035 1.369 . S
C6034 C6038 1.531 . S
C6035 C6034 1.369 . S
C6035 C6036 1.410 . S
C6035 C6043 1.503 . S
C6036 C6035 1.410 . S
C6036 C6037 1.392 . S
C6036 C6039 1.511 . S
C6037 C6033 1.376 . S
C6037 C6036 1.392 . S
C6037 H6049 0.929 . S
C6038 C6034 1.531 . S
C6038 H6050 0.960 . S
C6038 H6051 0.962 . S
C6038 H6052 0.960 . S
C6039 C6036 1.511 . S
C6039 H6053 0.961 . S
C6039 H6054 0.961 . S
C6039 H6055 0.961 . S
C6040 C6041 1.370 . S
C6040 C6042 1.363 . S
C6040 H6056 0.931 . S
C6041 C6040 1.370 . S
C6041 C6045 1.408 . S
C6042 C6040 1.363 . S
C6042 C6043 1.370 . S
C6042 C6046 1.524 . S
C6043 C6035 1.503 . S
C6043 C6042 1.370 . S
C6043 C6044 1.403 . S
C6044 C6043 1.403 . S
C6044 C6045 1.404 . S
C6044 C6047 1.539 . S
C6045 C6041 1.408 . S
C6045 C6044 1.404 . S
C6045 H6057 0.930 . S
C6046 C6042 1.524 . S
C6046 H6058 0.956 . S
C6046 H6059 0.961 . S
C6046 H6060 0.961 . S
C6047 C6044 1.539 . S
C6047 H6061 0.958 . S
C6047 H6062 0.961 . S
C6047 H6063 0.960 . S
H6048 C6032 0.931 . S
H6049 C6037 0.929 . S
H6050 C6038 0.960 . S
H6051 C6038 0.962 . S
H6052 C6038 0.960 . S
H6053 C6039 0.961 . S
H6054 C6039 0.961 . S
H6055 C6039 0.961 . S
H6056 C6040 0.931 . S
H6057 C6045 0.930 . S
H6058 C6046 0.956 . S
H6059 C6046 0.961 . S
H6060 C6046 0.961 . S
H6061 C6047 0.958 . S
H6062 C6047 0.961 . S
H6063 C6047 0.960 . S
C6064 C6065 1.391 . S
C6064 C6066 1.394 . S
C6064 H6080 0.931 . S
C6065 C6064 1.391 . S
C6065 C6069 1.376 . S
C6066 C6064 1.394 . S
C6066 C6067 1.369 . S
C6066 C6070 1.531 . S
C6067 C6066 1.369 . S
C6067 C6068 1.410 . S
C6067 C6075 1.503 . S
C6068 C6067 1.410 . S
C6068 C6069 1.392 . S
C6068 C6071 1.511 . S
C6069 C6065 1.376 . S
C6069 C6068 1.392 . S
C6069 H6081 0.929 . S
C6070 C6066 1.531 . S
C6070 H6082 0.960 . S
C6070 H6083 0.962 . S
C6070 H6084 0.960 . S
C6071 C6068 1.511 . S
C6071 H6085 0.961 . S
C6071 H6086 0.961 . S
C6071 H6087 0.961 . S
C6072 C6073 1.370 . S
C6072 C6074 1.363 . S
C6072 H6088 0.931 . S
C6073 C6072 1.370 . S
C6073 C6077 1.408 . S
C6074 C6072 1.363 . S
C6074 C6075 1.370 . S
C6074 C6078 1.524 . S
C6075 C6067 1.503 . S
C6075 C6074 1.370 . S
C6075 C6076 1.403 . S
C6076 C6075 1.403 . S
C6076 C6077 1.404 . S
C6076 C6079 1.539 . S
C6077 C6073 1.408 . S
C6077 C6076 1.404 . S
C6077 H6089 0.930 . S
C6078 C6074 1.524 . S
C6078 H6090 0.956 . S
C6078 H6091 0.961 . S
C6078 H6092 0.961 . S
C6079 C6076 1.539 . S
C6079 H6093 0.958 . S
C6079 H6094 0.961 . S
C6079 H6095 0.960 . S
H6080 C6064 0.931 . S
H6081 C6069 0.929 . S
H6082 C6070 0.960 . S
H6083 C6070 0.962 . S
H6084 C6070 0.960 . S
H6085 C6071 0.961 . S
H6086 C6071 0.961 . S
H6087 C6071 0.961 . S
H6088 C6072 0.931 . S
H6089 C6077 0.930 . S
H6090 C6078 0.956 . S
H6091 C6078 0.961 . S
H6092 C6078 0.961 . S
H6093 C6079 0.958 . S
H6094 C6079 0.961 . S
H6095 C6079 0.960 . S
C6096 C6097 1.391 . S
C6096 C6098 1.394 . S
C6096 H6112 0.931 . S
C6097 C6096 1.391 . S
C6097 C6101 1.376 . S
C6098 C6096 1.394 . S
C6098 C6099 1.369 1_565 S
C6098 C6102 1.531 1_565 S
C6099 C6098 1.369 1_545 S
C6099 C6100 1.410 1_545 S
C6099 C6107 1.503 . S
C6100 C6099 1.410 1_565 S
C6100 C6101 1.392 . S
C6100 C6103 1.515 . S
C6101 C6097 1.376 . S
C6101 C6100 1.392 . S
C6101 H6113 0.929 . S
C6102 C6098 1.531 1_545 S
C6102 H6114 0.960 . S
C6102 H6115 0.962 . S
C6102 H6116 0.960 1_545 S
C6103 C6100 1.515 . S
C6103 H6117 0.965 . S
C6103 H6118 0.955 1_565 S
C6103 H6119 0.958 . S
C6104 C6105 1.370 . S
C6104 C6106 1.363 . S
C6104 H6120 0.931 . S
C6105 C6104 1.370 . S
C6105 C6109 1.408 . S
C6106 C6104 1.363 . S
C6106 C6107 1.370 . S
C6106 C6110 1.524 . S
C6107 C6099 1.503 . S
C6107 C6106 1.370 . S
C6107 C6108 1.403 . S
C6108 C6107 1.403 . S
C6108 C6109 1.404 . S
C6108 C6111 1.539 . S
C6109 C6105 1.408 . S
C6109 C6108 1.404 . S
C6109 H6121 0.930 . S
C6110 C6106 1.524 . S
C6110 H6122 0.956 . S
C6110 H6123 0.961 . S
C6110 H6124 0.961 . S
C6111 C6108 1.539 . S
C6111 H6125 0.958 . S
C6111 H6126 0.961 . S
C6111 H6127 0.960 . S
H6112 C6096 0.931 . S
H6113 C6101 0.929 . S
H6114 C6102 0.960 . S
H6115 C6102 0.962 . S
H6116 C6102 0.960 1_565 S
H6117 C6103 0.965 . S
H6118 C6103 0.955 1_545 S
H6119 C6103 0.958 . S
H6120 C6104 0.931 . S
H6121 C6109 0.930 . S
H6122 C6110 0.956 . S
H6123 C6110 0.961 . S
H6124 C6110 0.961 . S
H6125 C6111 0.958 . S
H6126 C6111 0.961 . S
H6127 C6111 0.960 . S
C6128 C6129 1.391 . S
C6128 C6130 1.394 1_655 S
C6128 H6144 0.931 . S
C6129 C6128 1.391 . S
C6129 C6133 1.376 . S
C6130 C6128 1.394 1_455 S
C6130 C6131 1.369 . S
C6130 C6134 1.531 . S
C6131 C6130 1.369 . S
C6131 C6132 1.410 1_455 S
C6131 C6139 1.503 . S
C6132 C6131 1.410 1_655 S
C6132 C6133 1.392 . S
C6132 C6135 1.511 1_655 S
C6133 C6129 1.376 . S
C6133 C6132 1.392 . S
C6133 H6145 0.929 . S
C6134 C6130 1.531 . S
C6134 H6146 0.960 . S
C6134 H6147 0.962 . S
C6134 H6148 0.960 . S
C6135 C6132 1.511 1_455 S
C6135 H6149 0.961 1_455 S
C6135 H6150 0.961 . S
C6135 H6151 0.977 . S
C6136 C6137 1.370 . S
C6136 C6138 1.363 . S
C6136 H6152 0.931 . S
C6137 C6136 1.370 . S
C6137 C6141 1.408 . S
C6138 C6136 1.363 . S
C6138 C6139 1.370 . S
C6138 C6142 1.524 . S
C6139 C6131 1.503 . S
C6139 C6138 1.370 . S
C6139 C6140 1.403 . S
C6140 C6139 1.403 . S
C6140 C6141 1.404 . S
C6140 C6143 1.539 . S
C6141 C6137 1.408 . S
C6141 C6140 1.404 . S
C6141 H6153 0.930 . S
C6142 C6138 1.524 . S
C6142 H6154 0.956 . S
C6142 H6155 0.961 . S
C6142 H6156 0.961 . S
C6143 C6140 1.539 . S
C6143 H6157 0.958 . S
C6143 H6158 0.961 . S
C6143 H6159 0.960 . S
H6144 C6128 0.931 . S
H6145 C6133 0.929 . S
H6146 C6134 0.960 . S
H6147 C6134 0.962 . S
H6148 C6134 0.960 . S
H6149 C6135 0.961 1_655 S
H6150 C6135 0.961 . S
H6151 C6135 0.977 . S
H6152 C6136 0.931 . S
H6153 C6141 0.930 . S
H6154 C6142 0.956 . S
H6155 C6142 0.961 . S
H6156 C6142 0.961 . S
H6157 C6143 0.958 . S
H6158 C6143 0.961 . S
H6159 C6143 0.960 . S
C6160 C6161 1.391 . S
C6160 C6162 1.394 . S
C6160 H6176 0.931 . S
C6161 C6160 1.391 . S
C6161 C6165 1.376 . S
C6162 C6160 1.394 . S
C6162 C6163 1.369 . S
C6162 C6166 1.531 . S
C6163 C6162 1.369 . S
C6163 C6164 1.410 . S
C6163 C6171 1.503 . S
C6164 C6163 1.410 . S
C6164 C6165 1.392 . S
C6164 C6167 1.511 . S
C6165 C6161 1.376 . S
C6165 C6164 1.392 . S
C6165 H6177 0.929 . S
C6166 C6162 1.531 . S
C6166 H6178 0.960 . S
C6166 H6179 0.962 . S
C6166 H6180 0.960 . S
C6167 C6164 1.511 . S
C6167 H6181 0.961 . S
C6167 H6182 0.961 . S
C6167 H6183 0.961 . S
C6168 C6169 1.370 . S
C6168 C6170 1.363 . S
C6168 H6184 0.931 . S
C6169 C6168 1.370 . S
C6169 C6173 1.408 . S
C6170 C6168 1.363 . S
C6170 C6171 1.370 . S
C6170 C6174 1.524 . S
C6171 C6163 1.503 . S
C6171 C6170 1.370 . S
C6171 C6172 1.403 . S
C6172 C6171 1.403 . S
C6172 C6173 1.404 . S
C6172 C6175 1.539 . S
C6173 C6169 1.408 . S
C6173 C6172 1.404 . S
C6173 H6185 0.930 . S
C6174 C6170 1.524 . S
C6174 H6186 0.956 . S
C6174 H6187 0.961 . S
C6174 H6188 0.961 . S
C6175 C6172 1.539 . S
C6175 H6189 0.958 . S
C6175 H6190 0.961 . S
C6175 H6191 0.960 . S
H6176 C6160 0.931 . S
H6177 C6165 0.929 . S
H6178 C6166 0.960 . S
H6179 C6166 0.962 . S
H6180 C6166 0.960 . S
H6181 C6167 0.961 . S
H6182 C6167 0.961 . S
H6183 C6167 0.961 . S
H6184 C6168 0.931 . S
H6185 C6173 0.930 . S
H6186 C6174 0.956 . S
H6187 C6174 0.961 . S
H6188 C6174 0.961 . S
H6189 C6175 0.958 . S
H6190 C6175 0.961 . S
H6191 C6175 0.960 . S
C6192 C6193 1.391 . S
C6192 C6194 1.394 . S
C6192 H6208 0.931 . S
C6193 C6192 1.391 . S
C6193 C6197 1.376 . S
C6194 C6192 1.394 . S
C6194 C6195 1.369 . S
C6194 C6198 1.531 . S
C6195 C6194 1.369 . S
C6195 C6196 1.410 . S
C6195 C6203 1.503 . S
C6196 C6195 1.410 . S
C6196 C6197 1.392 . S
C6196 C6199 1.511 . S
C6197 C6193 1.376 . S
C6197 C6196 1.392 . S
C6197 H6209 0.929 . S
C6198 C6194 1.531 . S
C6198 H6210 0.960 . S
C6198 H6211 0.962 . S
C6198 H6212 0.960 . S
C6199 C6196 1.511 . S
C6199 H6213 0.961 . S
C6199 H6214 0.961 . S
C6199 H6215 0.961 . S
C6200 C6201 1.370 . S
C6200 C6202 1.363 . S
C6200 H6216 0.931 . S
C6201 C6200 1.370 . S
C6201 C6205 1.408 . S
C6202 C6200 1.363 . S
C6202 C6203 1.370 . S
C6202 C6206 1.524 . S
C6203 C6195 1.503 . S
C6203 C6202 1.370 . S
C6203 C6204 1.403 . S
C6204 C6203 1.403 . S
C6204 C6205 1.404 . S
C6204 C6207 1.539 . S
C6205 C6201 1.408 . S
C6205 C6204 1.404 . S
C6205 H6217 0.930 . S
C6206 C6202 1.524 . S
C6206 H6218 0.956 . S
C6206 H6219 0.961 . S
C6206 H6220 0.961 . S
C6207 C6204 1.539 . S
C6207 H6221 0.958 . S
C6207 H6222 0.961 . S
C6207 H6223 0.960 . S
H6208 C6192 0.931 . S
H6209 C6197 0.929 . S
H6210 C6198 0.960 . S
H6211 C6198 0.962 . S
H6212 C6198 0.960 . S
H6213 C6199 0.961 . S
H6214 C6199 0.961 . S
H6215 C6199 0.961 . S
H6216 C6200 0.931 . S
H6217 C6205 0.930 . S
H6218 C6206 0.956 . S
H6219 C6206 0.961 . S
H6220 C6206 0.961 . S
H6221 C6207 0.958 . S
H6222 C6207 0.961 . S
H6223 C6207 0.960 . S
C6224 C6225 1.391 . S
C6224 C6226 1.394 . S
C6224 H6240 0.931 . S
C6225 C6224 1.391 . S
C6225 C6229 1.376 . S
C6226 C6224 1.394 . S
C6226 C6227 1.369 . S
C6226 C6230 1.531 . S
C6227 C6226 1.369 . S
C6227 C6228 1.410 . S
C6227 C6235 1.503 . S
C6228 C6227 1.410 . S
C6228 C6229 1.392 . S
C6228 C6231 1.511 . S
C6229 C6225 1.376 . S
C6229 C6228 1.392 . S
C6229 H6241 0.929 . S
C6230 C6226 1.531 . S
C6230 H6242 0.960 . S
C6230 H6243 0.962 . S
C6230 H6244 0.960 . S
C6231 C6228 1.511 . S
C6231 H6245 0.961 . S
C6231 H6246 0.961 . S
C6231 H6247 0.961 . S
C6232 C6233 1.370 . S
C6232 C6234 1.363 . S
C6232 H6248 0.931 . S
C6233 C6232 1.370 . S
C6233 C6237 1.408 . S
C6234 C6232 1.363 . S
C6234 C6235 1.370 . S
C6234 C6238 1.524 . S
C6235 C6227 1.503 . S
C6235 C6234 1.370 . S
C6235 C6236 1.403 . S
C6236 C6235 1.403 . S
C6236 C6237 1.404 . S
C6236 C6239 1.539 . S
C6237 C6233 1.408 . S
C6237 C6236 1.404 . S
C6237 H6249 0.930 . S
C6238 C6234 1.524 . S
C6238 H6250 0.956 . S
C6238 H6251 0.961 . S
C6238 H6252 0.961 . S
C6239 C6236 1.539 . S
C6239 H6253 0.958 . S
C6239 H6254 0.961 . S
C6239 H6255 0.960 . S
H6240 C6224 0.931 . S
H6241 C6229 0.929 . S
H6242 C6230 0.960 . S
H6243 C6230 0.962 . S
H6244 C6230 0.960 . S
H6245 C6231 0.961 . S
H6246 C6231 0.961 . S
H6247 C6231 0.961 . S
H6248 C6232 0.931 . S
H6249 C6237 0.930 . S
H6250 C6238 0.956 . S
H6251 C6238 0.961 . S
H6252 C6238 0.961 . S
H6253 C6239 0.958 . S
H6254 C6239 0.961 . S
H6255 C6239 0.960 . S
C6256 C6257 1.391 . S
C6256 C6258 1.394 . S
C6256 H6272 0.931 . S
C6257 C6256 1.391 . S
C6257 C6261 1.376 . S
C6258 C6256 1.394 . S
C6258 C6259 1.369 . S
C6258 C6262 1.531 . S
C6259 C6258 1.369 . S
C6259 C6260 1.410 . S
C6259 C6267 1.503 . S
C6260 C6259 1.410 . S
C6260 C6261 1.392 . S
C6260 C6263 1.511 . S
C6261 C6257 1.376 . S
C6261 C6260 1.392 . S
C6261 H6273 0.929 . S
C6262 C6258 1.531 . S
C6262 H6274 0.960 . S
C6262 H6275 0.962 . S
C6262 H6276 0.960 . S
C6263 C6260 1.511 . S
C6263 H6277 0.961 . S
C6263 H6278 0.961 . S
C6263 H6279 0.961 . S
C6264 C6265 1.370 . S
C6264 C6266 1.363 . S
C6264 H6280 0.931 . S
C6265 C6264 1.370 . S
C6265 C6269 1.408 . S
C6266 C6264 1.363 . S
C6266 C6267 1.370 . S
C6266 C6270 1.524 . S
C6267 C6259 1.503 . S
C6267 C6266 1.370 . S
C6267 C6268 1.403 . S
C6268 C6267 1.403 . S
C6268 C6269 1.404 . S
C6268 C6271 1.539 . S
C6269 C6265 1.408 . S
C6269 C6268 1.404 . S
C6269 H6281 0.930 . S
C6270 C6266 1.524 . S
C6270 H6282 0.956 . S
C6270 H6283 0.961 . S
C6270 H6284 0.961 . S
C6271 C6268 1.539 . S
C6271 H6285 0.958 . S
C6271 H6286 0.961 . S
C6271 H6287 0.960 . S
H6272 C6256 0.931 . S
H6273 C6261 0.929 . S
H6274 C6262 0.960 . S
H6275 C6262 0.962 . S
H6276 C6262 0.960 . S
H6277 C6263 0.961 . S
H6278 C6263 0.961 . S
H6279 C6263 0.961 . S
H6280 C6264 0.931 . S
H6281 C6269 0.930 . S
H6282 C6270 0.956 . S
H6283 C6270 0.961 . S
H6284 C6270 0.961 . S
H6285 C6271 0.958 . S
H6286 C6271 0.961 . S
H6287 C6271 0.960 . S
C6288 C6289 1.391 . S
C6288 C6290 1.394 . S
C6288 H6304 0.931 . S
C6289 C6288 1.391 . S
C6289 C6293 1.376 . S
C6290 C6288 1.394 . S
C6290 C6291 1.369 . S
C6290 C6294 1.531 . S
C6291 C6290 1.369 . S
C6291 C6292 1.410 . S
C6291 C6299 1.503 . S
C6292 C6291 1.410 . S
C6292 C6293 1.392 . S
C6292 C6295 1.511 . S
C6293 C6289 1.376 . S
C6293 C6292 1.392 . S
C6293 H6305 0.929 . S
C6294 C6290 1.531 . S
C6294 H6306 0.960 . S
C6294 H6307 0.962 . S
C6294 H6308 0.960 . S
C6295 C6292 1.511 . S
C6295 H6309 0.961 . S
C6295 H6310 0.961 . S
C6295 H6311 0.961 . S
C6296 C6297 1.370 . S
C6296 C6298 1.363 . S
C6296 H6312 0.931 . S
C6297 C6296 1.370 . S
C6297 C6301 1.408 . S
C6298 C6296 1.363 . S
C6298 C6299 1.370 . S
C6298 C6302 1.524 . S
C6299 C6291 1.503 . S
C6299 C6298 1.370 . S
C6299 C6300 1.403 . S
C6300 C6299 1.403 . S
C6300 C6301 1.404 . S
C6300 C6303 1.539 . S
C6301 C6297 1.408 . S
C6301 C6300 1.404 . S
C6301 H6313 0.930 . S
C6302 C6298 1.524 . S
C6302 H6314 0.956 . S
C6302 H6315 0.961 . S
C6302 H6316 0.961 . S
C6303 C6300 1.539 . S
C6303 H6317 0.958 . S
C6303 H6318 0.961 . S
C6303 H6319 0.960 . S
H6304 C6288 0.931 . S
H6305 C6293 0.929 . S
H6306 C6294 0.960 . S
H6307 C6294 0.962 . S
H6308 C6294 0.960 . S
H6309 C6295 0.961 . S
H6310 C6295 0.961 . S
H6311 C6295 0.961 . S
H6312 C6296 0.931 . S
H6313 C6301 0.930 . S
H6314 C6302 0.956 . S
H6315 C6302 0.961 . S
H6316 C6302 0.961 . S
H6317 C6303 0.958 . S
H6318 C6303 0.961 . S
H6319 C6303 0.960 . S
C6320 C6321 1.391 . S
C6320 C6322 1.394 . S
C6320 H6336 0.931 . S
C6321 C6320 1.391 . S
C6321 C6325 1.376 . S
C6322 C6320 1.394 . S
C6322 C6323 1.369 . S
C6322 C6326 1.531 . S
C6323 C6322 1.369 . S
C6323 C6324 1.410 . S
C6323 C6331 1.503 . S
C6324 C6323 1.410 . S
C6324 C6325 1.392 . S
C6324 C6327 1.511 . S
C6325 C6321 1.376 . S
C6325 C6324 1.392 . S
C6325 H6337 0.929 . S
C6326 C6322 1.531 . S
C6326 H6338 0.960 . S
C6326 H6339 0.962 . S
C6326 H6340 0.960 . S
C6327 C6324 1.511 . S
C6327 H6341 0.961 . S
C6327 H6342 0.961 . S
C6327 H6343 0.961 . S
C6328 C6329 1.370 . S
C6328 C6330 1.363 . S
C6328 H6344 0.931 . S
C6329 C6328 1.370 . S
C6329 C6333 1.408 . S
C6330 C6328 1.363 . S
C6330 C6331 1.370 . S
C6330 C6334 1.524 . S
C6331 C6323 1.503 . S
C6331 C6330 1.370 . S
C6331 C6332 1.403 . S
C6332 C6331 1.403 . S
C6332 C6333 1.404 . S
C6332 C6335 1.539 . S
C6333 C6329 1.408 . S
C6333 C6332 1.404 . S
C6333 H6345 0.930 . S
C6334 C6330 1.524 . S
C6334 H6346 0.956 . S
C6334 H6347 0.961 . S
C6334 H6348 0.961 . S
C6335 C6332 1.539 . S
C6335 H6349 0.958 . S
C6335 H6350 0.961 . S
C6335 H6351 0.960 . S
H6336 C6320 0.931 . S
H6337 C6325 0.929 . S
H6338 C6326 0.960 . S
H6339 C6326 0.962 . S
H6340 C6326 0.960 . S
H6341 C6327 0.961 . S
H6342 C6327 0.961 . S
H6343 C6327 0.961 . S
H6344 C6328 0.931 . S
H6345 C6333 0.930 . S
H6346 C6334 0.956 . S
H6347 C6334 0.961 . S
H6348 C6334 0.961 . S
H6349 C6335 0.958 . S
H6350 C6335 0.961 . S
H6351 C6335 0.960 . S
C6352 C6353 1.391 . S
C6352 C6354 1.394 . S
C6352 H6368 0.931 . S
C6353 C6352 1.391 . S
C6353 C6357 1.376 . S
C6354 C6352 1.394 . S
C6354 C6355 1.369 . S
C6354 C6358 1.531 . S
C6355 C6354 1.369 . S
C6355 C6356 1.410 . S
C6355 C6363 1.503 . S
C6356 C6355 1.410 . S
C6356 C6357 1.392 . S
C6356 C6359 1.511 . S
C6357 C6353 1.376 . S
C6357 C6356 1.392 . S
C6357 H6369 0.929 . S
C6358 C6354 1.531 . S
C6358 H6370 0.960 . S
C6358 H6371 0.962 . S
C6358 H6372 0.960 . S
C6359 C6356 1.511 . S
C6359 H6373 0.961 . S
C6359 H6374 0.961 . S
C6359 H6375 0.961 . S
C6360 C6361 1.370 . S
C6360 C6362 1.363 . S
C6360 H6376 0.931 . S
C6361 C6360 1.370 . S
C6361 C6365 1.408 . S
C6362 C6360 1.363 . S
C6362 C6363 1.370 . S
C6362 C6366 1.524 . S
C6363 C6355 1.503 . S
C6363 C6362 1.370 . S
C6363 C6364 1.403 . S
C6364 C6363 1.403 . S
C6364 C6365 1.404 . S
C6364 C6367 1.539 . S
C6365 C6361 1.408 . S
C6365 C6364 1.404 . S
C6365 H6377 0.930 . S
C6366 C6362 1.524 . S
C6366 H6378 0.956 . S
C6366 H6379 0.961 . S
C6366 H6380 0.961 . S
C6367 C6364 1.539 . S
C6367 H6381 0.958 . S
C6367 H6382 0.961 . S
C6367 H6383 0.960 . S
H6368 C6352 0.931 . S
H6369 C6357 0.929 . S
H6370 C6358 0.960 . S
H6371 C6358 0.962 . S
H6372 C6358 0.960 . S
H6373 C6359 0.961 . S
H6374 C6359 0.961 . S
H6375 C6359 0.961 . S
H6376 C6360 0.931 . S
H6377 C6365 0.930 . S
H6378 C6366 0.956 . S
H6379 C6366 0.961 . S
H6380 C6366 0.961 . S
H6381 C6367 0.958 . S
H6382 C6367 0.961 . S
H6383 C6367 0.960 . S
C6384 C6385 1.391 . S
C6384 C6386 1.394 1_655 S
C6384 H6400 0.931 . S
C6385 C6384 1.391 . S
C6385 C6389 1.376 . S
C6386 C6384 1.394 1_455 S
C6386 C6387 1.369 . S
C6386 C6390 1.531 . S
C6387 C6386 1.369 . S
C6387 C6388 1.410 1_455 S
C6387 C6395 1.503 . S
C6388 C6387 1.410 1_655 S
C6388 C6389 1.392 . S
C6388 C6391 1.511 1_655 S
C6389 C6385 1.376 . S
C6389 C6388 1.392 . S
C6389 H6401 0.929 . S
C6390 C6386 1.531 . S
C6390 H6402 0.960 . S
C6390 H6403 0.962 . S
C6390 H6404 0.960 . S
C6391 C6388 1.511 1_455 S
C6391 H6405 0.961 1_455 S
C6391 H6406 0.961 . S
C6391 H6407 0.961 . S
C6392 C6393 1.370 . S
C6392 C6394 1.363 . S
C6392 H6408 0.931 . S
C6393 C6392 1.370 . S
C6393 C6397 1.408 . S
C6394 C6392 1.363 . S
C6394 C6395 1.370 . S
C6394 C6398 1.524 . S
C6395 C6387 1.503 . S
C6395 C6394 1.370 . S
C6395 C6396 1.403 . S
C6396 C6395 1.403 . S
C6396 C6397 1.404 . S
C6396 C6399 1.539 . S
C6397 C6393 1.408 . S
C6397 C6396 1.404 . S
C6397 H6409 0.930 . S
C6398 C6394 1.524 . S
C6398 H6410 0.956 . S
C6398 H6411 0.961 . S
C6398 H6412 0.961 . S
C6399 C6396 1.539 . S
C6399 H6413 0.958 . S
C6399 H6414 0.961 . S
C6399 H6415 0.960 . S
H6400 C6384 0.931 . S
H6401 C6389 0.929 . S
H6402 C6390 0.960 . S
H6403 C6390 0.962 . S
H6404 C6390 0.960 . S
H6405 C6391 0.961 1_655 S
H6406 C6391 0.961 . S
H6407 C6391 0.961 . S
H6408 C6392 0.931 . S
H6409 C6397 0.930 . S
H6410 C6398 0.956 . S
H6411 C6398 0.961 . S
H6412 C6398 0.961 . S
H6413 C6399 0.958 . S
H6414 C6399 0.961 . S
H6415 C6399 0.960 . S
C6416 C6417 1.391 . S
C6416 C6418 1.394 . S
C6416 H6432 0.931 . S
C6417 C6416 1.391 . S
C6417 C6421 1.376 . S
C6418 C6416 1.394 . S
C6418 C6419 1.369 . S
C6418 C6422 1.531 . S
C6419 C6418 1.369 . S
C6419 C6420 1.410 . S
C6419 C6427 1.503 . S
C6420 C6419 1.410 . S
C6420 C6421 1.392 . S
C6420 C6423 1.511 . S
C6421 C6417 1.376 . S
C6421 C6420 1.392 . S
C6421 H6433 0.929 . S
C6422 C6418 1.531 . S
C6422 H6434 0.960 . S
C6422 H6435 0.962 . S
C6422 H6436 0.960 . S
C6423 C6420 1.511 . S
C6423 H6437 0.961 . S
C6423 H6438 0.961 . S
C6423 H6439 0.961 . S
C6424 C6425 1.370 . S
C6424 C6426 1.363 . S
C6424 H6440 0.931 . S
C6425 C6424 1.370 . S
C6425 C6429 1.408 . S
C6426 C6424 1.363 . S
C6426 C6427 1.370 . S
C6426 C6430 1.524 . S
C6427 C6419 1.503 . S
C6427 C6426 1.370 . S
C6427 C6428 1.403 . S
C6428 C6427 1.403 . S
C6428 C6429 1.404 . S
C6428 C6431 1.539 . S
C6429 C6425 1.408 . S
C6429 C6428 1.404 . S
C6429 H6441 0.930 . S
C6430 C6426 1.524 . S
C6430 H6442 0.956 . S
C6430 H6443 0.961 . S
C6430 H6444 0.961 . S
C6431 C6428 1.539 . S
C6431 H6445 0.958 . S
C6431 H6446 0.961 . S
C6431 H6447 0.960 . S
H6432 C6416 0.931 . S
H6433 C6421 0.929 . S
H6434 C6422 0.960 . S
H6435 C6422 0.962 . S
H6436 C6422 0.960 . S
H6437 C6423 0.961 . S
H6438 C6423 0.961 . S
H6439 C6423 0.961 . S
H6440 C6424 0.931 . S
H6441 C6429 0.930 . S
H6442 C6430 0.956 . S
H6443 C6430 0.961 . S
H6444 C6430 0.961 . S
H6445 C6431 0.958 . S
H6446 C6431 0.961 . S
H6447 C6431 0.960 . S
C6448 C6449 1.391 . S
C6448 C6450 1.394 . S
C6448 H6464 0.931 . S
C6449 C6448 1.391 . S
C6449 C6453 1.376 . S
C6450 C6448 1.394 . S
C6450 C6451 1.369 1_565 S
C6450 C6454 1.531 . S
C6451 C6450 1.369 1_545 S
C6451 C6452 1.410 1_545 S
C6451 C6459 1.503 . S
C6452 C6451 1.410 1_565 S
C6452 C6453 1.392 . S
C6452 C6455 1.511 1_565 S
C6453 C6449 1.376 . S
C6453 C6452 1.392 . S
C6453 H6465 0.929 . S
C6454 C6450 1.531 . S
C6454 H6466 0.960 1_565 S
C6454 H6467 0.962 . S
C6454 H6468 0.960 . S
C6455 C6452 1.511 1_545 S
C6455 H6469 0.961 . S
C6455 H6470 0.961 . S
C6455 H6471 0.961 . S
C6456 C6457 1.370 . S
C6456 C6458 1.363 . S
C6456 H6472 0.931 . S
C6457 C6456 1.370 . S
C6457 C6461 1.408 . S
C6458 C6456 1.363 . S
C6458 C6459 1.370 . S
C6458 C6462 1.524 . S
C6459 C6451 1.503 . S
C6459 C6458 1.370 . S
C6459 C6460 1.403 . S
C6460 C6459 1.403 . S
C6460 C6461 1.404 . S
C6460 C6463 1.539 . S
C6461 C6457 1.408 . S
C6461 C6460 1.404 . S
C6461 H6473 0.930 . S
C6462 C6458 1.524 . S
C6462 H6474 0.956 . S
C6462 H6475 0.961 . S
C6462 H6476 0.961 . S
C6463 C6460 1.539 . S
C6463 H6477 0.958 . S
C6463 H6478 0.961 . S
C6463 H6479 0.960 . S
H6464 C6448 0.931 . S
H6465 C6453 0.929 . S
H6466 C6454 0.960 1_545 S
H6467 C6454 0.962 . S
H6468 C6454 0.960 . S
H6469 C6455 0.961 . S
H6470 C6455 0.961 . S
H6471 C6455 0.961 . S
H6472 C6456 0.931 . S
H6473 C6461 0.930 . S
H6474 C6462 0.956 . S
H6475 C6462 0.961 . S
H6476 C6462 0.961 . S
H6477 C6463 0.958 . S
H6478 C6463 0.961 . S
H6479 C6463 0.960 . S
C3025 C2324 1.869 . S
C3033 C56 1.884 . S
C3057 C2408 1.900 . S
C3065 C140 1.893 1_655 S
C3089 C224 1.886 . S
C3097 C2492 1.893 . S
C3121 C308 1.877 . S
C3129 C1064 1.881 . S
C3153 C392 1.893 . S
C3161 C1148 1.885 . S
C3185 C1232 1.872 . S
C3193 C476 1.884 1_565 S
C3217 C572 1.872 1_565 S
C3225 C1832 1.882 . S
C3249 C1916 1.877 . S
C3257 C656 1.895 . S
C3281 C740 1.877 . S
C3289 C2000 1.893 . S
C3313 C2588 1.876 . S
C3321 C824 1.883 1_655 S
C3345 C908 1.888 . S
C3353 C2672 1.882 . S
C3377 C2756 1.869 . S
C3385 C992 1.888 . S
C3409 C2072 1.894 . S
C3417 C1316 1.886 . S
C3441 C1400 1.886 . S
C3449 C2156 1.884 . S
C3473 C2240 1.868 . S
C3481 C1484 1.884 . S
C3505 C1580 1.893 . S
C3513 C2840 1.896 . S
C3537 C1664 1.872 . S
C3545 C2924 1.892 . S
C3569 C3008 1.884 . S
C3577 C1748 1.881 . S
C3601 C68 1.812 . S
C3609 C560 1.766 . S
C3633 C644 1.809 . S
C3641 C152 1.764 . S
C3665 C236 1.755 . S
C3673 C728 1.789 . S
C3697 C812 1.766 . S
C3705 C320 1.787 . S
C3729 C404 1.804 . S
C3737 C896 1.769 . S
C3761 C980 1.742 . S
C3769 C488 1.791 . S
C3793 C1568 1.809 . S
C3801 C1076 1.766 . S
C3825 C1160 1.805 . S
C3833 C1652 1.766 . S
C3857 C1736 1.795 . S
C3865 C1244 1.769 . S
C3889 C1328 1.753 . S
C3897 C1820 1.792 . S
C3921 C1904 1.796 . S
C3929 C1412 1.771 . S
C3953 C1496 1.785 . S
C3961 C1988 1.773 . S
C3985 C2084 1.759 . S
C3993 C2576 1.785 . S
C4017 C2660 1.792 . S
C4025 C2168 1.775 . S
C4049 C2744 1.751 . S
C4057 C2252 1.791 . S
C4081 C2828 1.770 . S
C4089 C2336 1.783 . S
C4113 C2420 1.740 . S
C4121 C2912 1.794 . S
C4145 C2504 1.809 . S
C4153 C2996 1.766 . S
C4177 C58 1.519 . S
C4185 C223 1.728 . S
C4209 C142 1.514 . S
C4217 C55 1.736 . S
C4241 C139 1.740 . S
C4249 C226 1.543 . S
C4273 C310 1.571 . S
C4281 C391 1.724 . S
C4305 C475 1.719 . S
C4313 C394 1.573 . S
C4337 C307 1.711 . S
C4345 C478 1.566 . S
C4369 C739 1.723 . S
C4377 C574 1.570 . S
C4401 C658 1.512 . S
C4409 C571 1.736 . S
C4433 C742 1.587 . S
C4441 C655 1.729 . S
C4465 C907 1.720 . S
C4473 C826 1.572 . S
C4497 C910 1.555 . S
C4505 C991 1.734 . S
C4529 C994 1.509 . S
C4537 C823 1.736 . S
C4561 C1231 1.741 . S
C4569 C1066 1.547 . S
C4593 C1063 1.740 . S
C4601 C1150 1.539 . S
C4625 C1147 1.729 . S
C4633 C1234 1.569 1_655 S
C4657 C1399 1.734 . S
C4665 C1318 1.534 . S
C4689 C1402 1.515 . S
C4697 C1483 1.728 . S
C4721 C1315 1.741 . S
C4729 C1486 1.544 . S
C4753 C1582 1.596 . S
C4761 C1747 1.726 . S
C4785 C1579 1.726 . S
C4793 C1666 1.567 . S
C4817 C1750 1.503 . S
C4825 C1663 1.735 . S
C4849 C1915 1.735 . S
C4857 C1834 1.557 . S
C4881 C1999 1.714 . S
C4889 C1918 1.573 . S
C4913 C1831 1.718 . S
C4921 C2002 1.550 1_655 S
C4945 C2239 1.730 . S
C4953 C2074 1.568 . S
C4977 C2158 1.513 . S
C4985 C2071 1.729 . S
C5009 C2155 1.720 . S
C5017 C2242 1.573 . S
C5041 C2326 1.596 . S
C5049 C2407 1.728 . S
C5073 C2410 1.578 1_565 S
C5081 C2491 1.733 . S
C5105 C2323 1.716 . S
C5113 C2494 1.573 . S
C5137 C2590 1.593 . S
C5145 C2755 1.728 . S
C5169 C2674 1.511 1_565 S
C5177 C2587 1.737 . S
C5201 C2671 1.724 . S
C5209 C2758 1.542 . S
C5233 C2842 1.595 . S
C5241 C2923 1.724 . S
C5265 C3007 1.737 . S
C5273 C2926 1.551 . S
C5297 C2839 1.717 . S
C5305 C3010 1.573 . S
C5329 C235 1.047 . S
C5337 C70 0.989 . S
C5361 C154 0.970 . S
C5369 C67 1.062 . S
C5393 C151 1.051 . S
C5401 C238 0.995 . S
C5425 C403 1.076 . S
C5433 C322 0.931 . S
C5457 C406 1.030 . S
C5465 C487 1.063 . S
C5489 C490 1.011 . S
C5497 C319 1.066 . S
C5521 C727 1.065 . S
C5529 C562 0.955 . S
C5553 C646 0.976 . S
C5561 C559 1.067 . S
C5585 C643 1.071 . S
C5593 C730 0.945 . S
C5617 C895 1.079 . S
C5625 C814 0.932 . S
C5649 C979 1.061 . S
C5657 C898 0.977 . S
C5681 C811 1.050 . S
C5689 C982 0.984 . S
C5713 C1078 0.907 . S
C5721 C1243 1.068 . S
C5745 C1162 0.886 . S
C5753 C1075 1.071 . S
C5777 C1246 0.965 . S
C5785 C1159 1.070 . S
C5809 C1411 1.050 . S
C5817 C1330 0.977 . S
C5841 C1414 0.884 . S
C5849 C1495 1.072 . S
C5873 C1498 0.890 . S
C5881 C1327 1.071 . S
C5905 C1735 1.048 . S
C5913 C1570 0.995 . S
C5937 C1567 1.057 . S
C5945 C1654 0.970 . S
C5969 C1738 1.036 . S
C5977 C1651 1.060 . S
C6001 C1903 1.051 . S
C6009 C1822 0.991 . S
C6033 C1906 1.006 . S
C6041 C1987 1.064 . S
C6065 C1990 1.015 . S
C6073 C1819 1.060 . S
C6097 C2086 0.955 . S
C6105 C2251 1.063 . S
C6129 C2083 1.081 . S
C6137 C2170 0.937 . S
C6161 C2167 1.072 . S
C6169 C2254 0.967 . S
C6193 C2419 1.054 . S
C6201 C2338 0.965 . S
C6225 C2422 1.034 . S
C6233 C2503 1.059 . S
C6257 C2506 1.023 . S
C6265 C2335 1.064 . S
C6289 C2743 1.053 . S
C6297 C2578 0.989 . S
C6321 C2575 1.080 . S
C6329 C2662 0.937 . S
C6353 C2746 1.011 . S
C6361 C2659 1.061 . S
C6385 C2911 1.060 . S
C6393 C2830 0.979 . S
C6417 C2914 1.038 . S
C6425 C2995 1.059 . S
C6449 C2998 0.891 . S
C6457 C2827 1.073 . S
