# Generated by pormake.
# Topology cag, (4)-cn, num edge types: 1
# Building blocks:
#     Node 0, Type 0, BuildingBlock: ICAMEG_clean_sbu_1, # of connection points: 4
#     Node 1, Type 0, BuildingBlock: ICAMEG_clean_sbu_1, # of connection points: 4
#     Node 2, Type 0, BuildingBlock: ICAMEG_clean_sbu_1, # of connection points: 4
#     Node 3, Type 0, BuildingBlock: ICAMEG_clean_sbu_1, # of connection points: 4
#     Node 4, Type 0, BuildingBlock: ICAMEG_clean_sbu_1, # of connection points: 4
#     Node 5, Type 0, BuildingBlock: ICAMEG_clean_sbu_1, # of connection points: 4
#     Node 6, Type 0, BuildingBlock: ICAMEG_clean_sbu_1, # of connection points: 4
#     Node 7, Type 0, BuildingBlock: ICAMEG_clean_sbu_1, # of connection points: 4
#     Node 8, Type 0, BuildingBlock: ICAMEG_clean_sbu_1, # of connection points: 4
#     Node 9, Type 0, BuildingBlock: ICAMEG_clean_sbu_1, # of connection points: 4
#     Node 10, Type 0, BuildingBlock: ICAMEG_clean_sbu_1, # of connection points: 4
#     Node 11, Type 0, BuildingBlock: ICAMEG_clean_sbu_1, # of connection points: 4
#     Node 12, Type 0, BuildingBlock: ICAMEG_clean_sbu_1, # of connection points: 4
#     Node 13, Type 0, BuildingBlock: ICAMEG_clean_sbu_1, # of connection points: 4
#     Node 14, Type 0, BuildingBlock: ICAMEG_clean_sbu_1, # of connection points: 4
#     Node 15, Type 0, BuildingBlock: ICAMEG_clean_sbu_1, # of connection points: 4
#     Edge 16, Type (0, 0), BuildingBlock: OJICUG_clean_linker_0, # of connection points: 2
#     Edge 17, Type (0, 0), BuildingBlock: OJICUG_clean_linker_0, # of connection points: 2
#     Edge 18, Type (0, 0), BuildingBlock: OJICUG_clean_linker_0, # of connection points: 2
#     Edge 19, Type (0, 0), BuildingBlock: OJICUG_clean_linker_0, # of connection points: 2
#     Edge 20, Type (0, 0), BuildingBlock: OJICUG_clean_linker_0, # of connection points: 2
#     Edge 21, Type (0, 0), BuildingBlock: OJICUG_clean_linker_0, # of connection points: 2
#     Edge 22, Type (0, 0), BuildingBlock: OJICUG_clean_linker_0, # of connection points: 2
#     Edge 23, Type (0, 0), BuildingBlock: OJICUG_clean_linker_0, # of connection points: 2
#     Edge 24, Type (0, 0), BuildingBlock: OJICUG_clean_linker_0, # of connection points: 2
#     Edge 25, Type (0, 0), BuildingBlock: OJICUG_clean_linker_0, # of connection points: 2
#     Edge 26, Type (0, 0), BuildingBlock: OJICUG_clean_linker_0, # of connection points: 2
#     Edge 27, Type (0, 0), BuildingBlock: OJICUG_clean_linker_0, # of connection points: 2
#     Edge 28, Type (0, 0), BuildingBlock: OJICUG_clean_linker_0, # of connection points: 2
#     Edge 29, Type (0, 0), BuildingBlock: OJICUG_clean_linker_0, # of connection points: 2
#     Edge 30, Type (0, 0), BuildingBlock: OJICUG_clean_linker_0, # of connection points: 2
#     Edge 31, Type (0, 0), BuildingBlock: OJICUG_clean_linker_0, # of connection points: 2
#     Edge 32, Type (0, 0), BuildingBlock: OJICUG_clean_linker_0, # of connection points: 2
#     Edge 33, Type (0, 0), BuildingBlock: OJICUG_clean_linker_0, # of connection points: 2
#     Edge 34, Type (0, 0), BuildingBlock: OJICUG_clean_linker_0, # of connection points: 2
#     Edge 35, Type (0, 0), BuildingBlock: OJICUG_clean_linker_0, # of connection points: 2
#     Edge 36, Type (0, 0), BuildingBlock: OJICUG_clean_linker_0, # of connection points: 2
#     Edge 37, Type (0, 0), BuildingBlock: OJICUG_clean_linker_0, # of connection points: 2
#     Edge 38, Type (0, 0), BuildingBlock: OJICUG_clean_linker_0, # of connection points: 2
#     Edge 39, Type (0, 0), BuildingBlock: OJICUG_clean_linker_0, # of connection points: 2
#     Edge 40, Type (0, 0), BuildingBlock: OJICUG_clean_linker_0, # of connection points: 2
#     Edge 41, Type (0, 0), BuildingBlock: OJICUG_clean_linker_0, # of connection points: 2
#     Edge 42, Type (0, 0), BuildingBlock: OJICUG_clean_linker_0, # of connection points: 2
#     Edge 43, Type (0, 0), BuildingBlock: OJICUG_clean_linker_0, # of connection points: 2
#     Edge 44, Type (0, 0), BuildingBlock: OJICUG_clean_linker_0, # of connection points: 2
#     Edge 45, Type (0, 0), BuildingBlock: OJICUG_clean_linker_0, # of connection points: 2
#     Edge 46, Type (0, 0), BuildingBlock: OJICUG_clean_linker_0, # of connection points: 2
#     Edge 47, Type (0, 0), BuildingBlock: OJICUG_clean_linker_0, # of connection points: 2
# Relax obj value: 0.157
# Max RMSD: 0.210
# Mean RMSD: 0.207
data_MOF--net-cag--node1-ICAMEG_clean_sbu_1--edge1-OJICUG_clean_linker_0
_symmetry_space_group_name_H-M    P1
_symmetry_Int_Tables_number       1
_symmetry_cell_setting            triclinic
loop_
_symmetry_equiv_pos_as_xyz
'x, y, z'
_cell_length_a     32.877228
_cell_length_b     38.540715
_cell_length_c     33.154664
_cell_angle_alpha  90.152436
_cell_angle_beta   89.947734
_cell_angle_gamma 90.055159
loop_
_atom_site_label
_atom_site_type_symbol
_atom_site_fract_x
_atom_site_fract_y
_atom_site_fract_z
_atom_type_partial_charge
Co0 Co 0.37457 0.14971 0.05714 0.0
Co1 Co 0.38274 0.10219 0.14481 0.0
O2 O 0.35934 0.14157 0.1141 0.0
C3 C 0.35826 0.2234 0.08928 0.0
O4 O 0.34988 0.21296 0.12599 0.0
C5 C 0.2994 0.11477 0.18293 0.0
O6 O 0.29146 0.13984 0.15744 0.0
O7 O 0.36299 0.06879 0.10196 0.0
O8 O 0.38023 0.09872 0.04684 0.0
H9 H 0.46202 0.99129 0.15658 0.0
H10 H 0.29635 0.17742 0.09008 0.0
O11 O 0.36947 0.20173 0.06239 0.0
H12 H 0.25794 0.10983 0.96981 0.0
H13 H 0.36747 0.20699 0.92069 0.0
H14 H 0.43869 0.12052 1.00411 0.0
H15 H 0.32962 0.11435 0.99037 0.0
H16 H 0.34596 0.19635 0.99078 0.0
O17 O 0.33075 0.09562 0.17779 0.0
H18 H 0.43384 0.04216 0.12147 0.0
H19 H 0.37929 0.07718 0.23046 0.0
H20 H 0.46089 0.13012 0.93399 0.0
H21 H 0.22449 0.17424 0.07023 0.0
H22 H 0.4252 0.17363 0.89175 0.0
H23 H 0.20471 0.14023 1.00963 0.0
O24 O 0.43262 0.1527 0.07374 0.0
H25 H 0.37767 0.20833 0.23489 0.0
H26 H 0.45899 0.10726 0.19321 0.0
H27 H 0.48655 0.14762 0.24368 0.0
H28 H 0.44568 0.19855 0.26526 0.0
H29 H 0.35182 0.16789 0.18405 0.0
H30 H 0.40648 0.02647 0.26654 0.0
H31 H 0.44837 0.98316 0.22964 0.0
O32 O 0.43669 0.10754 0.11615 0.0
C33 C 0.3699 0.07051 0.06393 0.0
C34 C 0.44391 1.01003 0.17302 0.0
C35 C 0.41265 0.02973 0.2347 0.0
N36 N 0.40508 0.06278 0.17383 0.0
C37 C 0.42795 0.03896 0.15332 0.0
C38 C 0.39714 0.05832 0.21401 0.0
C39 C 0.43619 1.00546 0.21399 0.0
C40 C 0.28835 0.16289 0.06353 0.0
N41 N 0.31759 0.14644 0.0413 0.0
C42 C 0.24741 0.16101 0.0525 0.0
C43 C 0.23631 0.14188 0.01855 0.0
C44 C 0.26614 0.12481 0.99624 0.0
C45 C 0.30677 0.12733 1.00818 0.0
C46 C 0.38323 0.18793 0.93877 0.0
C47 C 0.42283 0.13937 0.98589 0.0
C48 C 0.37128 0.18186 0.97856 0.0
N49 N 0.39089 0.15767 1.00155 0.0
C50 C 0.43562 0.14475 0.94621 0.0
C51 C 0.41561 0.16919 0.92255 0.0
C52 C 0.45325 0.13116 0.09459 0.0
C53 C 0.39567 0.18607 0.22604 0.0
C54 C 0.44093 0.1293 0.20208 0.0
C55 C 0.45674 0.1521 0.23089 0.0
C56 C 0.43383 0.18064 0.24299 0.0
N57 N 0.40317 0.13441 0.1858 0.0
C58 C 0.38091 0.16271 0.19726 0.0
Co59 Co 0.1456 0.87085 0.55377 0.0
Co60 Co 0.13915 0.9182 0.64233 0.0
O61 O 0.16188 0.87888 0.61062 0.0
C62 C 0.16113 0.79687 0.58488 0.0
O63 O 0.17009 0.80695 0.62165 0.0
C64 C 0.2239 0.90708 0.67784 0.0
O65 O 0.23164 0.8817 0.65252 0.0
O66 O 0.15746 0.95165 0.59934 0.0
O67 O 0.14068 0.92183 0.54381 0.0
H68 H 0.05934 0.02863 0.65708 0.0
H69 H 0.22371 0.84246 0.58573 0.0
O70 O 0.14991 0.81884 0.55851 0.0
H71 H 0.26188 0.90894 0.46489 0.0
H72 H 0.15006 0.81358 0.41681 0.0
H73 H 0.0812 0.90072 0.50191 0.0
H74 H 0.19036 0.90536 0.48636 0.0
H75 H 0.17268 0.82397 0.48663 0.0
O76 O 0.19186 0.92543 0.67361 0.0
H77 H 0.08696 0.97793 0.62086 0.0
H78 H 0.1447 0.94321 0.72804 0.0
H79 H 0.05791 0.89138 0.43207 0.0
H80 H 0.29539 0.84467 0.56496 0.0
H81 H 0.0924 0.84753 0.38899 0.0
H82 H 0.31505 0.87812 0.50405 0.0
O83 O 0.08762 0.86846 0.5711 0.0
H84 H 0.14848 0.81226 0.73158 0.0
H85 H 0.06446 0.91245 0.69315 0.0
H86 H 0.03905 0.87182 0.74425 0.0
H87 H 0.0813 0.82134 0.76419 0.0
H88 H 0.17216 0.85296 0.68014 0.0
H89 H 0.11809 0.99377 0.7652 0.0
H90 H 0.07489 0.03683 0.72978 0.0
O91 O 0.08458 0.91255 0.61534 0.0
C92 C 0.15072 0.94998 0.56132 0.0
C93 C 0.07803 1.00999 0.67288 0.0
C94 C 0.11109 0.99047 0.73353 0.0
N95 N 0.11726 0.95746 0.67226 0.0
C96 C 0.09367 0.98115 0.65255 0.0
C97 C 0.12625 0.96196 0.71223 0.0
C98 C 0.08681 0.0146 0.71365 0.0
C99 C 0.23165 0.85675 0.55905 0.0
N100 N 0.20243 0.87343 0.53718 0.0
C101 C 0.2725 0.85808 0.5475 0.0
C102 C 0.28352 0.87689 0.51339 0.0
C103 C 0.25372 0.8942 0.49144 0.0
C104 C 0.2132 0.89224 0.5039 0.0
C105 C 0.13481 0.83279 0.43526 0.0
C106 C 0.09654 0.88172 0.48332 0.0
C107 C 0.14739 0.83872 0.47491 0.0
N108 N 0.12843 0.8631 0.49837 0.0
C109 C 0.08314 0.87649 0.4438 0.0
C110 C 0.10248 0.85186 0.41967 0.0
C111 C 0.06753 0.88959 0.59318 0.0
C112 C 0.12989 0.83431 0.72343 0.0
C113 C 0.08306 0.89057 0.70126 0.0
C114 C 0.06849 0.86763 0.73045 0.0
C115 C 0.09218 0.83935 0.74163 0.0
N116 N 0.12035 0.88583 0.68373 0.0
C117 C 0.1434 0.8578 0.69432 0.0
Co118 Co 0.36949 0.86873 0.96113 0.0
Co119 Co 0.38297 0.9188 0.8761 0.0
O120 O 0.35795 0.87933 0.90431 0.0
C121 C 0.38344 0.79242 0.96243 0.0
O122 O 0.41858 0.79877 0.97981 0.0
C123 C 0.30037 0.90846 0.83638 0.0
O124 O 0.29166 0.88293 0.86099 0.0
O125 O 0.36359 0.95108 0.9202 0.0
O126 O 0.37589 0.9191 0.97526 0.0
H127 H 0.46641 0.02797 0.87105 0.0
H128 H 0.29524 0.83866 0.92424 0.0
O129 O 0.36222 0.81766 0.949 0.0
H130 H 0.24595 0.90922 0.03844 0.0
H131 H 0.34706 0.80873 0.09458 0.0
H132 H 0.43183 0.8922 0.01954 0.0
H133 H 0.3192 0.90528 0.02361 0.0
H134 H 0.33195 0.82225 0.02356 0.0
O135 O 0.33175 0.92738 0.84265 0.0
H136 H 0.43614 0.97636 0.90301 0.0
H137 H 0.38118 0.94746 0.7919 0.0
H138 H 0.448 0.8794 0.09056 0.0
H139 H 0.22173 0.84133 0.93845 0.0
H140 H 0.40547 0.83738 0.12857 0.0
H141 H 0.1966 0.87684 0.9959 0.0
O142 O 0.4288 0.86602 0.94802 0.0
H143 H 0.37731 0.8139 0.78412 0.0
H144 H 0.45884 0.91473 0.82652 0.0
H145 H 0.48556 0.8755 0.7745 0.0
H146 H 0.44457 0.82475 0.75247 0.0
H147 H 0.35219 0.8531 0.83656 0.0
H148 H 0.41042 0.99901 0.75898 0.0
H149 H 0.45359 0.03959 0.79852 0.0
O150 O 0.43587 0.91098 0.90541 0.0
C151 C 0.36829 0.94812 0.95848 0.0
C152 C 0.44777 1.01041 0.85346 0.0
C153 C 0.41624 0.99421 0.7906 0.0
N154 N 0.40709 0.95873 0.84939 0.0
C155 C 0.43065 0.98106 0.87136 0.0
C156 C 0.39956 0.96514 0.80952 0.0
C157 C 0.4405 0.01695 0.81279 0.0
C158 C 0.28462 0.85415 0.94933 0.0
N159 N 0.31163 0.87198 0.97288 0.0
C160 C 0.24291 0.85559 0.95719 0.0
C161 C 0.22883 0.87554 0.9894 0.0
C162 C 0.25649 0.89376 0.01323 0.0
C163 C 0.29798 0.89168 1.00446 0.0
C164 C 0.36583 0.82708 0.07834 0.0
C165 C 0.41321 0.87383 0.03583 0.0
C166 C 0.35743 0.83486 0.0381 0.0
N167 N 0.3811 0.85793 0.01728 0.0
C168 C 0.42249 0.86672 0.07607 0.0
C169 C 0.39861 0.84315 0.09739 0.0
C170 C 0.45081 0.88719 0.9278 0.0
C171 C 0.39524 0.8362 0.79302 0.0
C172 C 0.44055 0.8929 0.81731 0.0
C173 C 0.45597 0.87067 0.7877 0.0
C174 C 0.433 0.84222 0.77537 0.0
N175 N 0.40302 0.8874 0.83404 0.0
C176 C 0.38086 0.85896 0.82262 0.0
Co177 Co 0.14603 0.15286 0.46818 0.0
Co178 Co 0.1387 0.10617 0.3792 0.0
O179 O 0.16163 0.14541 0.41098 0.0
C180 C 0.16122 0.22747 0.43844 0.0
O181 O 0.17057 0.21816 0.40148 0.0
C182 C 0.22256 0.11832 0.3416 0.0
O183 O 0.23039 0.14413 0.3663 0.0
O184 O 0.15772 0.07241 0.42158 0.0
O185 O 0.1415 0.10183 0.47755 0.0
H186 H 0.05923 0.99541 0.36454 0.0
H187 H 0.22368 0.18149 0.43505 0.0
O188 O 0.14993 0.20494 0.46416 0.0
H189 H 0.26363 0.11494 0.55514 0.0
H190 H 0.15191 0.20889 0.60579 0.0
H191 H 0.0825 0.12211 0.52061 0.0
H192 H 0.19183 0.11831 0.53476 0.0
H193 H 0.17372 0.19927 0.53554 0.0
O194 O 0.19103 0.09946 0.34696 0.0
H195 H 0.08702 0.04603 0.40082 0.0
H196 H 0.14332 0.08172 0.29318 0.0
H197 H 0.06005 0.13066 0.59089 0.0
H198 H 0.29562 0.17949 0.45473 0.0
H199 H 0.09482 0.17433 0.63401 0.0
H200 H 0.31618 0.14603 0.51526 0.0
O201 O 0.0878 0.15504 0.45177 0.0
H202 H 0.14523 0.21342 0.29168 0.0
H203 H 0.06345 0.11149 0.32925 0.0
H204 H 0.0369 0.15228 0.27904 0.0
H205 H 0.07802 0.20364 0.2595 0.0
H206 H 0.17007 0.17255 0.34224 0.0
H207 H 0.11656 0.03124 0.25596 0.0
H208 H 0.07398 0.98774 0.29158 0.0
O209 O 0.0845 0.11127 0.4071 0.0
C210 C 0.15127 0.07381 0.45967 0.0
C211 C 0.07765 0.01425 0.34866 0.0
C212 C 0.10991 0.03431 0.28775 0.0
N213 N 0.11663 0.06698 0.34921 0.0
C214 C 0.09338 0.04305 0.36902 0.0
C215 C 0.12517 0.06277 0.30909 0.0
C216 C 0.08599 1.00993 0.30774 0.0
C217 C 0.232 0.16721 0.4616 0.0
N218 N 0.20311 0.15044 0.4839 0.0
C219 C 0.273 0.16599 0.47252 0.0
C220 C 0.28453 0.14716 0.50641 0.0
C221 C 0.25508 0.12972 0.52877 0.0
C222 C 0.21438 0.13157 0.51692 0.0
C223 C 0.13654 0.18975 0.58732 0.0
C224 C 0.09796 0.14103 0.53921 0.0
C225 C 0.14865 0.18426 0.54743 0.0
N226 N 0.12954 0.15999 0.52394 0.0
C227 C 0.08504 0.14582 0.57898 0.0
C228 C 0.10453 0.17034 0.60314 0.0
C229 C 0.06758 0.13389 0.42982 0.0
C230 C 0.12716 0.19095 0.2996 0.0
C231 C 0.08164 0.13368 0.32125 0.0
C232 C 0.06639 0.15674 0.29259 0.0
C233 C 0.08944 0.18552 0.28164 0.0
N234 N 0.11901 0.13875 0.33846 0.0
C235 C 0.14137 0.16733 0.32818 0.0
Co236 Co 0.70864 0.89584 0.9053 0.0
Co237 Co 0.69454 0.86205 1.00035 0.0
O238 O 0.72208 0.86205 0.94766 0.0
C239 C 0.70142 0.85189 0.83132 0.0
O240 O 0.66351 0.86221 0.82791 0.0
C241 C 0.7823 0.84249 0.0184 0.0
O242 O 0.79444 0.85394 0.98319 0.0
O243 O 0.70925 0.91213 1.00805 0.0
O244 O 0.69729 0.93311 0.94608 0.0
H245 H 0.60152 0.91225 0.10566 0.0
H246 H 0.78737 0.85837 0.90008 0.0
O247 O 0.72157 0.85965 0.863 0.0
H248 H 0.82381 0.9824 0.9056 0.0
H249 H 0.72877 0.95737 0.77245 0.0
H250 H 0.6424 0.94687 0.89349 0.0
H251 H 0.75205 0.96414 0.90703 0.0
H252 H 0.74663 0.91637 0.82648 0.0
O253 O 0.74547 0.84666 0.02941 0.0
H254 H 0.63626 0.9099 0.03978 0.0
H255 H 0.69481 0.81603 0.07311 0.0
H256 H 0.6236 0.98845 0.84031 0.0
H257 H 0.85956 0.8755 0.89772 0.0
H258 H 0.66687 0.99383 0.77918 0.0
H259 H 0.87823 0.93792 0.90066 0.0
O260 O 0.65002 0.88135 0.90771 0.0
H261 H 0.7217 0.73848 0.95877 0.0
H262 H 0.61968 0.81933 0.01376 0.0
H263 H 0.60123 0.75805 1.00327 0.0
H264 H 0.65261 0.71699 0.97596 0.0
H265 H 0.73845 0.80012 0.96881 0.0
H266 H 0.66106 0.81761 0.13949 0.0
H267 H 0.61385 0.86587 0.15607 0.0
O268 O 0.64174 0.87562 0.97459 0.0
C269 C 0.70369 0.93746 0.98373 0.0
C270 C 0.62196 0.89104 0.09876 0.0
C271 C 0.65543 0.83797 0.11777 0.0
N272 N 0.66743 0.8628 0.05246 0.0
C273 C 0.64165 0.88952 0.06146 0.0
C274 C 0.67462 0.83731 0.08018 0.0
C275 C 0.62892 0.86504 0.12704 0.0
C276 C 0.79516 0.8856 0.90114 0.0
N277 N 0.76537 0.91018 0.90399 0.0
C278 C 0.83614 0.89514 0.89991 0.0
C279 C 0.8466 0.93015 0.90161 0.0
C280 C 0.81609 0.9551 0.90447 0.0
C281 C 0.77545 0.94459 0.90563 0.0
C282 C 0.70963 0.95523 0.79891 0.0
C283 C 0.66137 0.94901 0.86699 0.0
C284 C 0.71951 0.93196 0.82958 0.0
N285 N 0.69534 0.92889 0.86301 0.0
C286 C 0.6506 0.97265 0.83698 0.0
C287 C 0.6749 0.97567 0.8027 0.0
C288 C 0.62739 0.87844 0.939 0.0
C289 C 0.69907 0.75608 0.9708 0.0
C290 C 0.64199 0.80187 1.00131 0.0
C291 C 0.63146 0.76707 0.99567 0.0
C292 C 0.66029 0.74405 0.98039 0.0
N293 N 0.68018 0.8135 0.99217 0.0
C294 C 0.70845 0.79108 0.97675 0.0
Co295 Co 0.81196 0.11764 0.39861 0.0
Co296 Co 0.82064 0.15632 0.49232 0.0
O297 O 0.79443 0.15282 0.43867 0.0
C298 C 0.78336 0.17875 0.34703 0.0
O299 O 0.772 0.19731 0.37829 0.0
C300 C 0.73221 0.17667 0.50822 0.0
O301 O 0.72069 0.16735 0.47191 0.0
O302 O 0.80749 0.10645 0.50266 0.0
O303 O 0.82226 0.08303 0.44238 0.0
H304 H 0.91193 0.11364 0.60307 0.0
H305 H 0.72818 0.14969 0.39598 0.0
O306 O 0.80175 0.14991 0.35172 0.0
H307 H 0.70564 0.02362 0.39086 0.0
H308 H 0.80795 0.05298 0.2661 0.0
H309 H 0.87965 0.06683 0.39574 0.0
H310 H 0.77494 0.04717 0.39524 0.0
H311 H 0.78365 0.09513 0.31663 0.0
O312 O 0.76863 0.17134 0.5197 0.0
H313 H 0.87905 0.11181 0.53631 0.0
H314 H 0.81718 0.20609 0.56191 0.0
H315 H 0.90451 0.02397 0.34625 0.0
H316 H 0.65866 0.12741 0.3907 0.0
H317 H 0.86862 0.01687 0.28085 0.0
H318 H 0.64673 0.06382 0.38813 0.0
O319 O 0.86939 0.13461 0.40254 0.0
H320 H 0.79053 0.27742 0.44392 0.0
H321 H 0.89389 0.20124 0.50438 0.0
H322 H 0.91076 0.26236 0.49099 0.0
H323 H 0.85869 0.30111 0.46091 0.0
H324 H 0.77542 0.21602 0.45695 0.0
H325 H 0.84905 0.20868 0.62908 0.0
H326 H 0.89699 0.16233 0.65 0.0
O327 O 0.87468 0.14289 0.46918 0.0
C328 C 0.81463 0.08025 0.47995 0.0
C329 C 0.89116 0.13403 0.59427 0.0
C330 C 0.85582 0.18733 0.6089 0.0
N331 N 0.84631 0.15885 0.54506 0.0
C332 C 0.8725 0.13318 0.55646 0.0
C333 C 0.83771 0.18563 0.57086 0.0
C334 C 0.88273 0.16134 0.62061 0.0
C335 C 0.72385 0.12217 0.39412 0.0
N336 N 0.75627 0.10004 0.39506 0.0
C337 C 0.68407 0.10959 0.39149 0.0
C338 C 0.67738 0.07394 0.39016 0.0
C339 C 0.71039 0.0514 0.39171 0.0
C340 C 0.7497 0.06497 0.39433 0.0
C341 C 0.8238 0.05581 0.29452 0.0
C342 C 0.86366 0.06376 0.36749 0.0
C343 C 0.81034 0.0798 0.32322 0.0
N344 N 0.83017 0.08348 0.35925 0.0
C345 C 0.87796 0.03949 0.33952 0.0
C346 C 0.85784 0.03555 0.30282 0.0
C347 C 0.8906 0.13907 0.43442 0.0
C348 C 0.81347 0.26085 0.45714 0.0
C349 C 0.87131 0.21764 0.49069 0.0
C350 C 0.88093 0.25238 0.48343 0.0
C351 C 0.85171 0.27411 0.46661 0.0
N352 N 0.83362 0.2048 0.48165 0.0
C353 C 0.80499 0.22596 0.46478 0.0
Co354 Co 0.71104 0.12188 0.12145 0.0
Co355 Co 0.69784 0.15554 0.02605 0.0
O356 O 0.72487 0.15547 0.07893 0.0
C357 C 0.70258 0.16645 0.19481 0.0
O358 O 0.66471 0.1559 0.19797 0.0
C359 C 0.78574 0.17537 1.00873 0.0
O360 O 0.79737 0.1649 0.04449 0.0
O361 O 0.71165 0.10524 0.01864 0.0
O362 O 0.70033 0.08438 0.08084 0.0
H363 H 0.60462 0.1059 0.92062 0.0
H364 H 0.78949 0.15984 0.12723 0.0
O365 O 0.72322 0.15843 0.16351 0.0
H366 H 0.82667 0.036 0.12285 0.0
H367 H 0.72986 0.06165 0.25522 0.0
H368 H 0.6453 0.07016 0.13288 0.0
H369 H 0.75482 0.05385 0.12053 0.0
H370 H 0.74808 0.10238 0.20095 0.0
O371 O 0.74925 0.17028 0.99715 0.0
H372 H 0.63887 0.10825 0.98669 0.0
H373 H 0.69962 0.20108 0.95283 0.0
H374 H 0.62623 0.0288 0.18627 0.0
H375 H 0.86173 0.14313 0.13045 0.0
H376 H 0.66858 0.02443 0.24806 0.0
H377 H 0.88078 0.08081 0.12811 0.0
O378 O 0.6523 0.13587 0.11845 0.0
H379 H 0.72639 0.27889 0.06802 0.0
H380 H 0.62427 0.19927 1.01076 0.0
H381 H 0.6068 0.26079 0.02062 0.0
H382 H 0.65826 0.30125 0.04902 0.0
H383 H 0.74213 0.21705 0.05866 0.0
H384 H 0.66642 0.19946 0.88625 0.0
H385 H 0.61834 0.15173 0.86984 0.0
O386 O 0.64471 0.14267 0.05161 0.0
C387 C 0.70608 0.07998 0.0431 0.0
C388 C 0.62545 0.12687 0.92744 0.0
C389 C 0.6602 0.17933 0.90812 0.0
N390 N 0.67114 0.15482 0.97376 0.0
C391 C 0.64487 0.12839 0.96485 0.0
C392 C 0.67909 0.18 0.94583 0.0
C393 C 0.63319 0.15257 0.89895 0.0
C394 C 0.79744 0.13265 0.12641 0.0
N395 N 0.76783 0.10789 0.1234 0.0
C396 C 0.83846 0.12335 0.12814 0.0
C397 C 0.84912 0.08839 0.12676 0.0
C398 C 0.81879 0.06325 0.12373 0.0
C399 C 0.77811 0.07354 0.12207 0.0
C400 C 0.71114 0.06335 0.22847 0.0
C401 C 0.66388 0.06845 0.15967 0.0
C402 C 0.7212 0.08647 0.19767 0.0
N403 N 0.6975 0.08901 0.16389 0.0
C404 C 0.65296 0.04494 0.18979 0.0
C405 C 0.67674 0.04249 0.22444 0.0
C406 C 0.63003 0.13922 0.08703 0.0
C407 C 0.70373 0.26156 0.0555 0.0
C408 C 0.64657 0.21644 0.02377 0.0
C409 C 0.63661 0.25139 0.02901 0.0
C410 C 0.66549 0.27408 0.0449 0.0
N411 N 0.68426 0.20432 0.03386 0.0
C412 C 0.71254 0.22642 0.04991 0.0
Co413 Co 0.81194 0.90321 0.62805 0.0
Co414 Co 0.82036 0.86473 0.53413 0.0
O415 O 0.79441 0.86804 0.58795 0.0
C416 C 0.78382 0.84176 0.67942 0.0
O417 O 0.77277 0.82322 0.64803 0.0
C418 C 0.7319 0.84422 0.51871 0.0
O419 O 0.72054 0.85345 0.5551 0.0
O420 O 0.80719 0.91461 0.52401 0.0
O421 O 0.82186 0.93799 0.58434 0.0
H422 H 0.91126 0.90781 0.42303 0.0
H423 H 0.72834 0.87064 0.63114 0.0
O424 O 0.80206 0.87073 0.6749 0.0
H425 H 0.70508 0.99657 0.63664 0.0
H426 H 0.8078 0.96759 0.76071 0.0
H427 H 0.87928 0.95449 0.63073 0.0
H428 H 0.77451 0.97343 0.63177 0.0
H429 H 0.78376 0.92531 0.71022 0.0
O430 O 0.76825 0.84969 0.507 0.0
H431 H 0.87863 0.90943 0.48997 0.0
H432 H 0.8166 0.81515 0.46436 0.0
H433 H 0.90393 0.99746 0.6802 0.0
H434 H 0.65873 0.8925 0.63693 0.0
H435 H 0.86815 1.00419 0.74577 0.0
H436 H 0.64643 0.95601 0.63969 0.0
O437 O 0.86954 0.88666 0.62366 0.0
H438 H 0.79043 0.74344 0.58227 0.0
H439 H 0.8935 0.81992 0.52138 0.0
H440 H 0.91042 0.75879 0.53445 0.0
H441 H 0.85849 0.7199 0.56475 0.0
H442 H 0.77528 0.80486 0.56957 0.0
H443 H 0.84822 0.81277 0.39701 0.0
H444 H 0.89611 0.85923 0.376 0.0
O445 O 0.87443 0.8782 0.557 0.0
C446 C 0.81429 0.94079 0.54677 0.0
C447 C 0.89051 0.88737 0.43186 0.0
C448 C 0.85507 0.83407 0.41723 0.0
N449 N 0.84581 0.86237 0.48123 0.0
C450 C 0.87199 0.8881 0.46978 0.0
C451 C 0.8371 0.83566 0.45538 0.0
C452 C 0.88196 0.86013 0.40548 0.0
C453 C 0.72386 0.89813 0.63308 0.0
N454 N 0.75615 0.92046 0.63198 0.0
C455 C 0.68403 0.91047 0.63601 0.0
C456 C 0.67713 0.94608 0.63744 0.0
C457 C 0.70999 0.96882 0.63571 0.0
C458 C 0.74937 0.95549 0.63281 0.0
C459 C 0.82363 0.96491 0.73223 0.0
C460 C 0.86337 0.95738 0.65908 0.0
C461 C 0.81031 0.94085 0.70356 0.0
N462 N 0.83008 0.93738 0.66742 0.0
C463 C 0.87754 0.98171 0.68703 0.0
C464 C 0.85748 0.98545 0.72383 0.0
C465 C 0.89056 0.88227 0.5916 0.0
C466 C 0.81331 0.76009 0.56897 0.0
C467 C 0.871 0.80346 0.53519 0.0
C468 C 0.88064 0.76871 0.54225 0.0
C469 C 0.8515 0.7469 0.5592 0.0
N470 N 0.83337 0.81623 0.54454 0.0
C471 C 0.80482 0.79499 0.56151 0.0
Co472 Co 0.87537 0.65058 0.05936 0.0
Co473 Co 0.88379 0.60291 0.14712 0.0
O474 O 0.86033 0.6423 0.11643 0.0
C475 C 0.85852 0.72408 0.09168 0.0
O476 O 0.85 0.71348 0.12829 0.0
C477 C 0.80039 0.61504 0.18542 0.0
O478 O 0.79237 0.6404 0.16036 0.0
O479 O 0.8644 0.56959 0.10407 0.0
O480 O 0.88077 0.59963 0.04875 0.0
H481 H 0.96363 0.49227 0.15847 0.0
H482 H 0.7971 0.67776 0.09314 0.0
O483 O 0.87038 0.7026 0.06486 0.0
H484 H 0.75839 0.61173 0.97184 0.0
H485 H 0.86799 0.70856 0.9233 0.0
H486 H 0.93892 0.62123 1.00576 0.0
H487 H 0.83012 0.61598 0.99227 0.0
H488 H 0.84674 0.69769 0.99342 0.0
O489 O 0.8317 0.59593 0.17987 0.0
H490 H 0.93544 0.54329 0.12365 0.0
H491 H 0.87992 0.57732 0.23259 0.0
H492 H 0.96082 0.63106 0.93559 0.0
H493 H 0.72524 0.67486 0.07343 0.0
H494 H 0.92528 0.675 0.89384 0.0
H495 H 0.70528 0.64165 1.01229 0.0
O496 O 0.93361 0.65333 0.07561 0.0
H497 H 0.87797 0.709 0.23727 0.0
H498 H 0.95939 0.60769 0.19662 0.0
H499 H 0.98645 0.64794 0.24746 0.0
H500 H 0.94553 0.699 0.26852 0.0
H501 H 0.85263 0.66867 0.18608 0.0
H502 H 0.90709 0.52644 0.26835 0.0
H503 H 0.94948 0.48357 0.23134 0.0
O504 O 0.93787 0.60867 0.11878 0.0
C505 C 0.87085 0.57139 0.06597 0.0
C506 C 0.9453 0.51083 0.17496 0.0
C507 C 0.91348 0.52996 0.23659 0.0
N508 N 0.90621 0.56344 0.176 0.0
C509 C 0.92935 0.53985 0.15543 0.0
C510 C 0.89798 0.55865 0.21607 0.0
C511 C 0.9373 0.50593 0.21582 0.0
C512 C 0.78907 0.66359 0.06635 0.0
N513 N 0.81827 0.64747 0.04375 0.0
C514 C 0.7481 0.66186 0.0554 0.0
C515 C 0.73691 0.64318 0.02116 0.0
C516 C 0.76667 0.62638 0.99849 0.0
C517 C 0.80733 0.62874 1.01036 0.0
C518 C 0.88369 0.68931 0.94117 0.0
C519 C 0.92313 0.64028 0.98776 0.0
C520 C 0.87191 0.68312 0.98099 0.0
N521 N 0.89144 0.6587 1.00372 0.0
C522 C 0.93575 0.64578 0.94805 0.0
C523 C 0.91582 0.67047 0.92466 0.0
C524 C 0.95431 0.63199 0.0967 0.0
C525 C 0.896 0.6867 0.22862 0.0
C526 C 0.94133 0.62981 0.20522 0.0
C527 C 0.95685 0.65254 0.23425 0.0
C528 C 0.93391 0.68114 0.24607 0.0
N529 N 0.90383 0.63505 0.18842 0.0
C530 C 0.88153 0.66341 0.19963 0.0
Co531 Co 0.64683 0.36919 0.557 0.0
Co532 Co 0.64012 0.41625 0.64573 0.0
O533 O 0.66251 0.3767 0.61413 0.0
C534 C 0.66099 0.29466 0.58724 0.0
O535 O 0.67023 0.30412 0.62416 0.0
C536 C 0.72359 0.40311 0.68347 0.0
O537 O 0.73104 0.37731 0.65865 0.0
O538 O 0.65976 0.44966 0.60311 0.0
O539 O 0.64285 0.42023 0.54736 0.0
H540 H 0.56245 0.52786 0.65976 0.0
H541 H 0.72412 0.33997 0.58992 0.0
O542 O 0.65015 0.31711 0.56129 0.0
H543 H 0.76481 0.40608 0.46962 0.0
H544 H 0.65206 0.31266 0.41963 0.0
H545 H 0.58358 0.40013 0.50458 0.0
H546 H 0.69299 0.40336 0.49026 0.0
H547 H 0.67398 0.32238 0.4898 0.0
O548 O 0.69254 0.42247 0.67801 0.0
H549 H 0.58943 0.47678 0.62378 0.0
H550 H 0.64505 0.44104 0.7316 0.0
H551 H 0.56102 0.39148 0.43439 0.0
H552 H 0.79606 0.34133 0.56999 0.0
H553 H 0.59533 0.34747 0.39139 0.0
H554 H 0.81699 0.37456 0.50935 0.0
O555 O 0.58863 0.36743 0.5736 0.0
H556 H 0.64462 0.30919 0.73371 0.0
H557 H 0.5648 0.412 0.69587 0.0
H558 H 0.53747 0.37169 0.74628 0.0
H559 H 0.5776 0.31989 0.76595 0.0
H560 H 0.67024 0.34961 0.68295 0.0
H561 H 0.61909 0.49196 0.76852 0.0
H562 H 0.57725 0.53573 0.73266 0.0
O563 O 0.58582 0.41154 0.61786 0.0
C564 C 0.6532 0.4482 0.56503 0.0
C565 C 0.58053 0.50891 0.67575 0.0
C566 C 0.61241 0.48881 0.73675 0.0
N567 N 0.61865 0.45578 0.6755 0.0
C568 C 0.59581 0.47986 0.65556 0.0
C569 C 0.62723 0.4601 0.71559 0.0
C570 C 0.58891 0.51334 0.71663 0.0
C571 C 0.7326 0.35417 0.56334 0.0
N572 N 0.70392 0.37117 0.54112 0.0
C573 C 0.7736 0.35502 0.55227 0.0
C574 C 0.78534 0.37372 0.51831 0.0
C575 C 0.7561 0.39141 0.49605 0.0
C576 C 0.7154 0.38992 0.50804 0.0
C577 C 0.6369 0.33195 0.43805 0.0
C578 C 0.59884 0.38106 0.48603 0.0
C579 C 0.64907 0.3375 0.47789 0.0
N580 N 0.63023 0.36196 0.50131 0.0
C581 C 0.58585 0.37622 0.44631 0.0
C582 C 0.60508 0.3515 0.42222 0.0
C583 C 0.56864 0.3888 0.59546 0.0
C584 C 0.62698 0.33186 0.72572 0.0
C585 C 0.58256 0.38961 0.70391 0.0
C586 C 0.56687 0.36682 0.73269 0.0
C587 C 0.58936 0.3378 0.74372 0.0
N588 N 0.61983 0.38403 0.68665 0.0
C589 C 0.64164 0.35522 0.69702 0.0
Co590 Co 0.87489 0.36896 0.96841 0.0
Co591 Co 0.88337 0.41679 0.88069 0.0
O592 O 0.86006 0.37723 0.91133 0.0
C593 C 0.85951 0.29523 0.93588 0.0
O594 O 0.85106 0.30568 0.89921 0.0
C595 C 0.80006 0.40432 0.84236 0.0
O596 O 0.79208 0.37889 0.8674 0.0
O597 O 0.86377 0.45004 0.92374 0.0
O598 O 0.87959 0.41993 0.97915 0.0
H599 H 0.96267 0.52786 0.86929 0.0
H600 H 0.7973 0.34077 0.93434 0.0
O601 O 0.87065 0.31691 0.96278 0.0
H602 H 0.75682 0.40631 0.05546 0.0
H603 H 0.86737 0.3107 0.10432 0.0
H604 H 0.9378 0.39884 0.02232 0.0
H605 H 0.82873 0.40306 0.03527 0.0
H606 H 0.84641 0.32147 0.03414 0.0
O607 O 0.83133 0.4235 0.8479 0.0
H608 H 0.93462 0.47675 0.90416 0.0
H609 H 0.8797 0.44223 0.7952 0.0
H610 H 0.95941 0.38913 0.09255 0.0
H611 H 0.72528 0.34265 0.95381 0.0
H612 H 0.92412 0.34477 0.13407 0.0
H613 H 0.70444 0.3756 0.01487 0.0
O614 O 0.93327 0.36685 0.95244 0.0
H615 H 0.87824 0.31083 0.7903 0.0
H616 H 0.95934 0.41221 0.83167 0.0
H617 H 0.98677 0.37211 0.78086 0.0
H618 H 0.94601 0.32103 0.75942 0.0
H619 H 0.85252 0.35101 0.84148 0.0
H620 H 0.90675 0.4932 0.75937 0.0
H621 H 0.94876 0.53637 0.79637 0.0
O622 O 0.93732 0.41141 0.90912 0.0
C623 C 0.86999 0.44821 0.96187 0.0
C624 C 0.9445 0.50918 0.85281 0.0
C625 C 0.91303 0.48977 0.79115 0.0
N626 N 0.90567 0.45636 0.85181 0.0
C627 C 0.92863 0.48011 0.87237 0.0
C628 C 0.8976 0.46103 0.8117 0.0
C629 C 0.93664 0.51396 0.81191 0.0
C630 C 0.78888 0.35484 0.96109 0.0
N631 N 0.81767 0.37139 0.98378 0.0
C632 C 0.74782 0.35599 0.9719 0.0
C633 C 0.73613 0.37453 1.0061 0.0
C634 C 0.76549 0.39177 0.02884 0.0
C635 C 0.80625 0.38998 0.01711 0.0
C636 C 0.88296 0.33013 0.08655 0.0
C637 C 0.92211 0.37962 0.04023 0.0
C638 C 0.87134 0.33627 0.0467 0.0
N639 N 0.89073 0.36092 0.0241 0.0
C640 C 0.93457 0.37418 0.07997 0.0
C641 C 0.91479 0.34926 0.10323 0.0
C642 C 0.95387 0.38834 0.93137 0.0
C643 C 0.89619 0.33316 0.79909 0.0
C644 C 0.94133 0.39009 0.82289 0.0
C645 C 0.95707 0.36744 0.79388 0.0
C646 C 0.93422 0.33883 0.78186 0.0
N647 N 0.9037 0.38476 0.83945 0.0
C648 C 0.8815 0.35637 0.82806 0.0
Co649 Co 0.64768 0.65097 0.47102 0.0
Co650 Co 0.64034 0.60392 0.38225 0.0
O651 O 0.66306 0.64339 0.41379 0.0
C652 C 0.66141 0.72553 0.44051 0.0
O653 O 0.67036 0.71609 0.4035 0.0
C654 C 0.724 0.61656 0.34447 0.0
O655 O 0.73168 0.6423 0.3693 0.0
O656 O 0.65965 0.57039 0.42483 0.0
O657 O 0.64366 0.59996 0.48076 0.0
H658 H 0.56162 0.49272 0.36838 0.0
H659 H 0.7247 0.68043 0.43761 0.0
O660 O 0.65101 0.70303 0.46662 0.0
H661 H 0.76618 0.61413 0.5574 0.0
H662 H 0.65384 0.7076 0.60828 0.0
H663 H 0.58465 0.62009 0.52393 0.0
H664 H 0.69423 0.61677 0.53734 0.0
H665 H 0.67532 0.69784 0.53795 0.0
O666 O 0.69272 0.59741 0.34992 0.0
H667 H 0.58907 0.54366 0.4043 0.0
H668 H 0.64509 0.57907 0.29638 0.0
H669 H 0.56254 0.62878 0.5943 0.0
H670 H 0.79678 0.67915 0.45697 0.0
H671 H 0.5972 0.67281 0.63699 0.0
H672 H 0.8181 0.64583 0.51734 0.0
O673 O 0.58939 0.65273 0.45485 0.0
H674 H 0.646 0.71085 0.29413 0.0
H675 H 0.5651 0.60856 0.33221 0.0
H676 H 0.53821 0.64899 0.28179 0.0
H677 H 0.57888 0.70054 0.262 0.0
H678 H 0.67118 0.67033 0.34491 0.0
H679 H 0.61866 0.52827 0.25953 0.0
H680 H 0.57639 0.48474 0.29547 0.0
O681 O 0.58609 0.60894 0.41019 0.0
C682 C 0.65347 0.5719 0.46297 0.0
C683 C 0.5799 0.51156 0.35235 0.0
C684 C 0.612 0.53147 0.2913 0.0
N685 N 0.61852 0.56449 0.35253 0.0
C686 C 0.59543 0.54054 0.37251 0.0
C687 C 0.62708 0.56011 0.31243 0.0
C688 C 0.58825 0.50708 0.31146 0.0
C689 C 0.73338 0.66618 0.46408 0.0
N690 N 0.70484 0.64905 0.48646 0.0
C691 C 0.77444 0.66538 0.47482 0.0
C692 C 0.7864 0.64663 0.50863 0.0
C693 C 0.7573 0.62884 0.53108 0.0
C694 C 0.71652 0.63027 0.51942 0.0
C695 C 0.63853 0.6883 0.59 0.0
C696 C 0.60007 0.63917 0.54235 0.0
C697 C 0.65045 0.68273 0.55007 0.0
N698 N 0.63141 0.65825 0.52681 0.0
C699 C 0.58733 0.64403 0.58217 0.0
C700 C 0.60676 0.66877 0.60609 0.0
C701 C 0.56918 0.6316 0.43289 0.0
C702 C 0.62812 0.68831 0.30218 0.0
C703 C 0.58308 0.63085 0.32413 0.0
C704 C 0.56764 0.6537 0.29534 0.0
C705 C 0.59045 0.68258 0.28424 0.0
N706 N 0.62039 0.63623 0.34134 0.0
C707 C 0.64251 0.66489 0.33089 0.0
Co708 Co 0.21175 0.39941 0.9056 0.0
Co709 Co 0.19851 0.36553 1.00075 0.0
O710 O 0.22541 0.36554 0.94777 0.0
C711 C 0.20318 0.35519 0.83191 0.0
O712 O 0.16538 0.36584 0.82876 0.0
C713 C 0.28601 0.3443 0.01741 0.0
O714 O 0.29775 0.35486 0.98169 0.0
O715 O 0.2136 0.41555 1.00837 0.0
O716 O 0.2013 0.43679 0.94656 0.0
H717 H 0.10702 0.41605 0.10716 0.0
H718 H 0.29005 0.36139 0.89948 0.0
O719 O 0.22378 0.36307 0.86326 0.0
H720 H 0.32771 0.48517 0.90425 0.0
H721 H 0.23059 0.46038 0.77224 0.0
H722 H 0.14598 0.45102 0.89462 0.0
H723 H 0.25579 0.4674 0.90663 0.0
H724 H 0.24878 0.41937 0.82616 0.0
O725 O 0.24967 0.34982 0.02923 0.0
H726 H 0.14094 0.41356 0.04087 0.0
H727 H 0.1994 0.31948 0.07351 0.0
H728 H 0.12692 0.49266 0.84159 0.0
H729 H 0.36236 0.37802 0.8962 0.0
H730 H 0.1693 0.49746 0.77978 0.0
H731 H 0.38164 0.44032 0.89874 0.0
O732 O 0.153 0.38536 0.90869 0.0
H733 H 0.22386 0.24207 0.95739 0.0
H734 H 0.12388 0.32293 0.01588 0.0
H735 H 0.10481 0.26181 1.00536 0.0
H736 H 0.15517 0.22073 0.9763 0.0
H737 H 0.24122 0.30353 0.96747 0.0
H738 H 0.1665 0.32121 0.14029 0.0
H739 H 0.11973 0.36964 0.15742 0.0
O740 O 0.14554 0.37937 0.97562 0.0
C741 C 0.20801 0.44098 0.98419 0.0
C742 C 0.12726 0.39477 0.10002 0.0
C743 C 0.16071 0.34158 0.11865 0.0
N744 N 0.17203 0.36636 0.05318 0.0
C745 C 0.14649 0.39317 0.06249 0.0
C746 C 0.17943 0.34085 0.08082 0.0
C747 C 0.13445 0.36875 0.12823 0.0
C748 C 0.29811 0.38857 0.90041 0.0
N749 N 0.26859 0.41336 0.90357 0.0
C750 C 0.33916 0.39782 0.89864 0.0
C751 C 0.34996 0.43277 0.90012 0.0
C752 C 0.31972 0.45793 0.90329 0.0
C753 C 0.279 0.44769 0.90499 0.0
C754 C 0.21186 0.45851 0.79901 0.0
C755 C 0.16459 0.45294 0.86784 0.0
C756 C 0.22192 0.43524 0.82962 0.0
N757 N 0.19824 0.4325 0.86343 0.0
C758 C 0.15367 0.4766 0.83792 0.0
C759 C 0.17746 0.47929 0.80326 0.0
C760 C 0.13076 0.38243 0.94023 0.0
C761 C 0.20167 0.25968 0.97021 0.0
C762 C 0.14573 0.30548 1.00266 0.0
C763 C 0.13486 0.27076 0.99702 0.0
C764 C 0.16312 0.24773 0.98075 0.0
N765 N 0.18373 0.31704 0.9926 0.0
C766 C 0.21141 0.2946 0.97621 0.0
Co767 Co 0.31354 0.61888 0.39987 0.0
Co768 Co 0.32218 0.65704 0.49382 0.0
O769 O 0.29626 0.65401 0.44003 0.0
C770 C 0.28572 0.68049 0.34891 0.0
O771 O 0.27474 0.69892 0.38041 0.0
C772 C 0.23384 0.67786 0.50903 0.0
O773 O 0.22251 0.66783 0.47293 0.0
O774 O 0.30819 0.60728 0.50383 0.0
O775 O 0.32321 0.58401 0.4435 0.0
H776 H 0.41204 0.61303 0.60501 0.0
H777 H 0.23005 0.6516 0.3969 0.0
O778 O 0.3039 0.6515 0.35322 0.0
H779 H 0.20627 0.52573 0.39092 0.0
H780 H 0.30941 0.55498 0.26688 0.0
H781 H 0.38052 0.56736 0.39704 0.0
H782 H 0.27577 0.54875 0.39593 0.0
H783 H 0.28543 0.59712 0.31758 0.0
O784 O 0.2702 0.6727 0.52083 0.0
H785 H 0.37956 0.61173 0.53805 0.0
H786 H 0.31909 0.70669 0.56352 0.0
H787 H 0.40504 0.5245 0.34739 0.0
H788 H 0.16037 0.62987 0.39095 0.0
H789 H 0.36945 0.51814 0.28173 0.0
H790 H 0.1478 0.56638 0.38796 0.0
O791 O 0.37118 0.63528 0.40423 0.0
H792 H 0.29422 0.77866 0.44596 0.0
H793 H 0.39618 0.70099 0.5062 0.0
H794 H 0.41415 0.76192 0.49299 0.0
H795 H 0.3628 0.8014 0.463 0.0
H796 H 0.27799 0.71741 0.45882 0.0
H797 H 0.35059 0.70878 0.63089 0.0
H798 H 0.39762 0.66182 0.65198 0.0
O799 O 0.37615 0.64298 0.47098 0.0
C800 C 0.31529 0.58113 0.48101 0.0
C801 C 0.39166 0.63369 0.59615 0.0
C802 C 0.35713 0.68739 0.6107 0.0
N803 N 0.34753 0.65914 0.54673 0.0
C804 C 0.37323 0.63313 0.55822 0.0
C805 C 0.33923 0.68597 0.57254 0.0
C806 C 0.38353 0.66105 0.6225 0.0
C807 C 0.22547 0.62413 0.39485 0.0
N808 N 0.25766 0.60176 0.39592 0.0
C809 C 0.18559 0.61186 0.39184 0.0
C810 C 0.17854 0.57626 0.39028 0.0
C811 C 0.2113 0.55347 0.39197 0.0
C812 C 0.25072 0.56674 0.39496 0.0
C813 C 0.32514 0.55749 0.29541 0.0
C814 C 0.36466 0.56462 0.36867 0.0
C815 C 0.31185 0.58147 0.3242 0.0
N816 N 0.33153 0.58475 0.36038 0.0
C817 C 0.37877 0.54035 0.34061 0.0
C818 C 0.35882 0.53682 0.30376 0.0
C819 C 0.39225 0.63917 0.4363 0.0
C820 C 0.31685 0.76175 0.45912 0.0
C821 C 0.37391 0.71772 0.49255 0.0
C822 C 0.38415 0.75234 0.4854 0.0
C823 C 0.35534 0.77448 0.46862 0.0
N824 N 0.33601 0.70538 0.48342 0.0
C825 C 0.30776 0.72695 0.46665 0.0
Co826 Co 0.21221 0.62441 0.12374 0.0
Co827 Co 0.1992 0.65849 0.029 0.0
O828 O 0.22579 0.65854 0.08194 0.0
C829 C 0.20328 0.66825 0.1977 0.0
O830 O 0.16562 0.6572 0.20107 0.0
C831 C 0.28787 0.67408 1.01134 0.0
O832 O 0.29972 0.65438 0.0413 0.0
O833 O 0.21508 0.6087 0.02088 0.0
O834 O 0.20229 0.58719 0.08251 0.0
H835 H 0.1097 0.60792 0.92103 0.0
H836 H 0.29011 0.66318 0.12932 0.0
O837 O 0.2238 0.6607 0.16619 0.0
H838 H 0.32904 0.53972 0.12526 0.0
H839 H 0.23096 0.563 0.25679 0.0
H840 H 0.14686 0.57222 0.13421 0.0
H841 H 0.25693 0.55682 0.12285 0.0
H842 H 0.24904 0.60441 0.20317 0.0
O843 O 0.25036 0.67556 1.00194 0.0
H844 H 0.14305 0.61 0.98756 0.0
H845 H 0.19958 0.70561 0.95726 0.0
H846 H 0.12794 0.53017 0.18693 0.0
H847 H 0.36258 0.64721 0.13271 0.0
H848 H 0.17007 0.52544 0.24882 0.0
H849 H 0.3825 0.58508 0.13051 0.0
O850 O 0.1533 0.63798 0.1205 0.0
H851 H 0.22419 0.78204 0.07134 0.0
H852 H 0.12347 0.70017 0.01589 0.0
H853 H 0.10393 0.76111 0.02716 0.0
H854 H 0.15465 0.80266 0.05476 0.0
H855 H 0.24204 0.72068 0.06044 0.0
H856 H 0.16719 0.70436 0.89026 0.0
H857 H 0.12169 0.65534 0.87183 0.0
O858 O 0.14624 0.64354 0.05348 0.0
C859 C 0.20924 0.58315 0.04489 0.0
C860 C 0.12941 0.62945 0.92872 0.0
C861 C 0.16174 0.68353 0.91143 0.0
N862 N 0.17322 0.65791 0.97639 0.0
C863 C 0.14834 0.6308 0.96639 0.0
C864 C 0.18019 0.684 0.94936 0.0
C865 C 0.13619 0.65604 0.90112 0.0
C866 C 0.29844 0.63606 0.12874 0.0
N867 N 0.26917 0.61098 0.12581 0.0
C868 C 0.33958 0.62719 0.13048 0.0
C869 C 0.35074 0.59234 0.12917 0.0
C870 C 0.32077 0.56688 0.12615 0.0
C871 C 0.27994 0.57674 0.12447 0.0
C872 C 0.21235 0.56484 0.22997 0.0
C873 C 0.16536 0.57033 0.16103 0.0
C874 C 0.22234 0.58834 0.19953 0.0
N875 N 0.1988 0.59103 0.16567 0.0
C876 C 0.15451 0.54644 0.19078 0.0
C877 C 0.17817 0.54379 0.22549 0.0
C878 C 0.13123 0.6404 0.08881 0.0
C879 C 0.20179 0.76419 0.05934 0.0
C880 C 0.14539 0.71782 0.02864 0.0
C881 C 0.1343 0.75243 0.03464 0.0
C882 C 0.16277 0.77574 0.05007 0.0
N883 N 0.18374 0.70666 0.03767 0.0
C884 C 0.21174 0.72937 0.05302 0.0
Co885 Co 0.31295 0.40381 0.62832 0.0
Co886 Co 0.32155 0.36547 0.53439 0.0
O887 O 0.29546 0.36868 0.58817 0.0
C888 C 0.2844 0.34256 0.6798 0.0
O889 O 0.27298 0.32404 0.64852 0.0
C890 C 0.23316 0.34473 0.51863 0.0
O891 O 0.22164 0.35376 0.55504 0.0
O892 O 0.30819 0.41533 0.52434 0.0
O893 O 0.32302 0.43859 0.58468 0.0
H894 H 0.4124 0.409 0.42349 0.0
H895 H 0.22922 0.37144 0.63081 0.0
O896 O 0.30296 0.37136 0.67511 0.0
H897 H 0.20636 0.49739 0.63712 0.0
H898 H 0.30902 0.46798 0.76116 0.0
H899 H 0.38042 0.45496 0.63113 0.0
H900 H 0.27572 0.47411 0.63237 0.0
H901 H 0.28477 0.42589 0.71053 0.0
O902 O 0.26955 0.3503 0.5071 0.0
H903 H 0.37968 0.41042 0.49039 0.0
H904 H 0.31818 0.31592 0.46458 0.0
H905 H 0.40521 0.49777 0.68071 0.0
H906 H 0.15966 0.39343 0.63646 0.0
H907 H 0.36948 0.50445 0.74631 0.0
H908 H 0.14756 0.45696 0.63963 0.0
O909 O 0.37048 0.38713 0.62407 0.0
H910 H 0.29209 0.24414 0.5826 0.0
H911 H 0.3949 0.32088 0.52172 0.0
H912 H 0.41207 0.25982 0.53489 0.0
H913 H 0.36027 0.2208 0.56519 0.0
H914 H 0.27667 0.3055 0.56977 0.0
H915 H 0.3499 0.31373 0.39726 0.0
H916 H 0.39757 0.3604 0.37638 0.0
O917 O 0.37559 0.37907 0.55738 0.0
C918 C 0.31529 0.44147 0.54716 0.0
C919 C 0.39175 0.38847 0.43227 0.0
C920 C 0.35662 0.33504 0.41752 0.0
N921 N 0.34712 0.36324 0.48154 0.0
C922 C 0.37318 0.38909 0.47016 0.0
C923 C 0.3386 0.33652 0.45564 0.0
C924 C 0.38338 0.36122 0.40583 0.0
C925 C 0.22483 0.39892 0.63295 0.0
N926 N 0.2572 0.42117 0.63216 0.0
C927 C 0.18503 0.41135 0.63579 0.0
C928 C 0.17824 0.44696 0.63745 0.0
C929 C 0.21118 0.46963 0.63602 0.0
C930 C 0.25053 0.45622 0.63319 0.0
C931 C 0.32481 0.46533 0.73266 0.0
C932 C 0.3645 0.45784 0.65947 0.0
C933 C 0.31138 0.44138 0.70391 0.0
N934 N 0.33113 0.43792 0.66776 0.0
C935 C 0.37876 0.48208 0.68749 0.0
C936 C 0.35873 0.48579 0.72431 0.0
C937 C 0.39161 0.38291 0.59207 0.0
C938 C 0.3149 0.26084 0.56928 0.0
C939 C 0.37244 0.30436 0.5355 0.0
C940 C 0.38223 0.26965 0.54263 0.0
C941 C 0.35317 0.24777 0.55958 0.0
N942 N 0.33474 0.31702 0.54479 0.0
C943 C 0.30626 0.29571 0.56176 0.0
C944 C 0.31669 0.27798 0.09639 0.0
C945 C 0.3463 0.25871 0.07552 0.0
H946 H 0.27468 0.32046 0.09466 0.0
C947 C 0.36018 0.27125 0.03807 0.0
H948 H 0.30522 0.26911 0.12522 0.0
C949 C 0.34283 0.30079 0.02059 0.0
C950 C 0.31082 0.3184 0.0399 0.0
H951 H 0.38315 0.2572 0.02123 0.0
H952 H 0.35279 0.30843 0.99075 0.0
C953 C 0.29903 0.30739 0.07872 0.0
C954 C 0.17652 0.72084 0.51372 0.0
C955 C 0.20857 0.70295 0.53241 0.0
H956 H 0.13601 0.76426 0.51593 0.0
C957 C 0.22009 0.71305 0.5717 0.0
H958 H 0.16674 0.71386 0.48358 0.0
C959 C 0.20233 0.74202 0.5904 0.0
C960 C 0.1728 0.7617 0.57015 0.0
H961 H 0.24442 0.69968 0.58722 0.0
H962 H 0.21373 0.75028 0.61953 0.0
C963 C 0.15898 0.7499 0.53229 0.0
C964 C 0.32525 0.75131 0.95081 0.0
C965 C 0.36322 0.75818 0.96857 0.0
H966 H 0.27231 0.71917 0.94955 0.0
C967 C 0.37864 0.73419 0.99668 0.0
H968 H 0.31243 0.76904 0.92895 0.0
C969 C 0.35532 0.70551 1.00889 0.0
C970 C 0.31611 0.70005 0.99313 0.0
H971 H 0.40773 0.73863 1.01111 0.0
H972 H 0.36718 0.68872 0.03222 0.0
C973 C 0.30212 0.72262 0.9628 0.0
C974 C 0.21989 0.31113 0.45469 0.0
C975 C 0.20802 0.32024 0.49422 0.0
H976 H 0.21401 0.27504 0.40562 0.0
C977 C 0.17576 0.30189 0.51204 0.0
H978 H 0.24436 0.3249 0.4398 0.0
C979 C 0.15836 0.27328 0.49236 0.0
C980 C 0.17258 0.26238 0.45426 0.0
H981 H 0.16569 0.30811 0.54232 0.0
H982 H 0.13522 0.25851 0.50806 0.0
C983 C 0.20231 0.28259 0.43489 0.0
C984 C 0.81462 0.77733 0.09802 0.0
C985 C 0.84547 0.75905 0.07772 0.0
H986 H 0.77065 0.8183 0.09539 0.0
C987 C 0.8594 0.77196 0.04047 0.0
H988 H 0.80303 0.76812 0.12665 0.0
C989 C 0.84099 0.80086 0.02259 0.0
C990 C 0.80784 0.81739 0.0413 0.0
H991 H 0.88326 0.75863 0.02406 0.0
H992 H 0.85109 0.80879 0.99291 0.0
C993 C 0.79589 0.80606 0.07993 0.0
C994 C 0.71887 0.21059 0.57189 0.0
C995 C 0.70709 0.20131 0.53241 0.0
H996 H 0.71313 0.24701 0.62064 0.0
C997 C 0.67506 0.21969 0.51436 0.0
H998 H 0.74317 0.1968 0.58694 0.0
C999 C 0.65785 0.24851 0.53375 0.0
C1000 C 0.67203 0.25957 0.57178 0.0
H1001 H 0.66508 0.21334 0.4841 0.0
H1002 H 0.63493 0.26331 0.51786 0.0
C1003 C 0.70147 0.23933 0.5914 0.0
C1004 C 0.81735 0.2409 0.92911 0.0
C1005 C 0.84733 0.25996 0.94973 0.0
H1006 H 0.77464 0.19887 0.93133 0.0
C1007 C 0.86117 0.24742 0.98715 0.0
H1008 H 0.80588 0.24978 0.90032 0.0
C1009 C 0.8434 0.21814 1.0049 0.0
C1010 C 0.81099 0.2008 0.98589 0.0
H1011 H 0.88441 0.26133 1.0038 0.0
H1012 H 0.85333 0.21054 0.03474 0.0
C1013 C 0.79928 0.21175 0.94706 0.0
C1014 C 0.6751 0.80076 0.51307 0.0
C1015 C 0.70684 0.81939 0.49473 0.0
H1016 H 0.63543 0.75676 0.50999 0.0
C1017 C 0.71847 0.81016 0.45517 0.0
H1018 H 0.66525 0.80706 0.54339 0.0
C1019 C 0.70126 0.78122 0.43587 0.0
C1020 C 0.67218 0.76073 0.45578 0.0
H1021 H 0.74254 0.82414 0.4399 0.0
H1022 H 0.71282 0.77358 0.40656 0.0
C1023 C 0.6581 0.77174 0.49389 0.0
C1024 C 0.36479 1.00523 0.05343 0.0
C1025 C 0.36748 0.03887 0.03744 0.0
H1026 H 0.36389 0.95061 0.04158 0.0
C1027 C 0.36959 0.04223 0.99498 0.0
H1028 H 0.36365 1.00138 0.08576 0.0
C1029 C 0.36862 0.01315 0.96942 0.0
C1030 C 0.36655 0.9795 0.98537 0.0
H1031 H 0.37256 0.06748 0.98114 0.0
H1032 H 0.3706 0.01706 0.93714 0.0
C1033 C 0.36481 0.97602 0.02783 0.0
C1034 C 0.1525 0.97899 0.49295 0.0
C1035 C 0.15303 0.98178 0.53552 0.0
H1036 H 0.15257 1.00519 0.43579 0.0
C1037 C 0.15388 0.01513 0.55254 0.0
H1038 H 0.15088 0.9539 0.4784 0.0
C1039 C 0.15351 0.04465 0.52784 0.0
C1040 C 0.15347 0.04187 0.48527 0.0
H1041 H 0.15367 0.0185 0.58498 0.0
H1042 H 0.15265 0.06973 0.54245 0.0
C1043 C 0.1533 1.00853 0.46823 0.0
C1044 C 0.70337 1.00212 0.97212 0.0
C1045 C 0.70421 0.97387 0.99916 0.0
H1046 H 0.70398 0.05735 0.9644 0.0
C1047 C 0.70517 0.98101 0.04069 0.0
H1048 H 0.70184 0.99786 0.93988 0.0
C1049 C 0.70543 0.01534 0.05474 0.0
C1050 C 0.70559 0.04357 0.02767 0.0
H1051 H 0.7053 0.9601 0.06245 0.0
H1052 H 0.7055 0.01961 0.08701 0.0
C1053 C 0.70449 0.03643 0.98615 0.0
C1054 C 0.81453 0.03941 0.53914 0.0
C1055 C 0.8147 0.04464 0.49729 0.0
H1056 H 0.81574 1.00296 0.5874 0.0
C1057 C 0.81551 0.01527 0.47177 0.0
H1058 H 0.81461 0.06127 0.55974 0.0
C1059 C 0.81483 0.98164 0.48761 0.0
C1060 C 0.81447 0.9764 0.52946 0.0
H1061 H 0.81669 0.01807 0.43936 0.0
H1062 H 0.81516 0.95978 0.46701 0.0
C1063 C 0.81498 1.00578 0.55499 0.0
C1064 C 0.86811 0.51348 0.97181 0.0
C1065 C 0.86781 0.47994 0.98817 0.0
H1066 H 0.87065 0.56801 0.98298 0.0
C1067 C 0.86769 0.47682 0.03071 0.0
H1068 H 0.86888 0.51713 0.93943 0.0
C1069 C 0.86742 0.50615 0.056 0.0
C1070 C 0.8684 0.53968 0.03964 0.0
H1071 H 0.86838 0.45158 0.04483 0.0
H1072 H 0.86759 0.50249 0.08838 0.0
C1073 C 0.86896 0.5428 0.99709 0.0
C1074 C 0.65658 0.51343 0.55614 0.0
C1075 C 0.65584 0.48004 0.53923 0.0
H1076 H 0.65512 0.56804 0.54584 0.0
C1077 C 0.65539 0.47718 0.49665 0.0
H1078 H 0.6563 0.51686 0.58858 0.0
C1079 C 0.65603 0.50666 0.47183 0.0
C1080 C 0.65599 0.54005 0.48875 0.0
H1081 H 0.65388 0.45207 0.48216 0.0
H1082 H 0.6553 0.50323 0.4394 0.0
C1083 C 0.65609 0.54291 0.53133 0.0
C1084 C 0.20907 0.51842 0.05584 0.0
C1085 C 0.20948 0.54685 0.02906 0.0
H1086 H 0.2089 0.46314 0.06306 0.0
C1087 C 0.20908 0.53999 0.98745 0.0
H1088 H 0.20862 0.52246 0.08815 0.0
C1089 C 0.20823 0.50575 0.97308 0.0
C1090 C 0.20866 0.47732 0.99988 0.0
H1091 H 0.2088 0.56106 0.9659 0.0
H1092 H 0.20715 0.50169 0.9408 0.0
C1093 C 0.20909 0.4842 0.04148 0.0
C1094 C 0.31583 0.51619 0.4725 0.0
C1095 C 0.31521 0.54547 0.49817 0.0
H1096 H 0.3155 0.46071 0.46747 0.0
C1097 C 0.31533 0.54009 0.53999 0.0
H1098 H 0.3168 0.51911 0.4401 0.0
C1099 C 0.31594 0.50641 0.55566 0.0
C1100 C 0.31529 0.47713 0.53 0.0
H1101 H 0.31558 0.56189 0.56069 0.0
H1102 H 0.31699 0.5035 0.58806 0.0
C1103 C 0.3153 0.48251 0.48817 0.0
C1104 C 0.5654 0.12056 0.12224 0.0
C1105 C 0.58484 0.13808 0.09051 0.0
H1106 H 0.50913 0.10288 0.14725 0.0
C1107 C 0.56049 0.1529 0.06013 0.0
H1108 H 0.58307 0.10835 0.1458 0.0
C1109 C 0.51806 0.151 0.06178 0.0
C1110 C 0.49854 0.13314 0.09315 0.0
H1111 H 0.57409 0.16598 0.03475 0.0
H1112 H 0.50059 0.16302 0.03792 0.0
C1113 C 0.52283 0.11751 0.12308 0.0
C1114 C 0.95906 0.86902 0.56148 0.0
C1115 C 0.93586 0.88323 0.59327 0.0
H1116 H 0.01819 0.85915 0.53685 0.0
C1117 C 0.95647 0.90004 0.62484 0.0
H1118 H 0.94451 0.85668 0.53603 0.0
C1119 C 0.99903 0.90287 0.6243 0.0
C1120 C 0.02222 0.88774 0.59305 0.0
H1121 H 0.93972 0.91187 0.64942 0.0
H1122 H 0.01359 0.91696 0.64847 0.0
C1123 C 1.00157 0.87068 0.56172 0.0
C1124 C 0.51467 0.8687 0.96358 0.0
C1125 C 0.49598 0.88449 0.93033 0.0
H1126 H 0.57016 0.8556 0.99301 0.0
C1127 C 0.52103 0.89786 0.89948 0.0
H1128 H 0.49654 0.85842 0.98809 0.0
C1129 C 0.56351 0.89487 0.9014 0.0
C1130 C 0.58221 0.87959 0.935 0.0
H1131 H 0.50796 0.91063 0.87367 0.0
H1132 H 0.58169 0.90535 0.87704 0.0
C1133 C 0.55713 0.86688 0.96621 0.0
C1134 C 0.99884 0.12029 0.39965 0.0
C1135 C 0.02228 0.13521 0.43081 0.0
H1136 H 0.93932 0.11089 0.37534 0.0
C1137 C 1.00186 0.15145 0.4629 0.0
H1138 H 0.01323 0.10684 0.37488 0.0
C1139 C 0.95933 0.15251 0.46393 0.0
C1140 C 0.93588 0.13852 0.4322 0.0
H1141 H 0.01871 0.16279 0.48772 0.0
H1142 H 0.94497 0.16424 0.48988 0.0
C1143 C 0.95626 0.12251 0.39992 0.0
C1144 C 0.06158 0.65102 0.06004 0.0
C1145 C 0.08597 0.6387 0.0919 0.0
H1146 H 1.00161 0.65945 0.03695 0.0
C1147 C 0.06653 0.62349 0.12521 0.0
H1148 H 0.07513 0.66202 0.03331 0.0
C1149 C 0.02396 0.62048 0.12633 0.0
C1150 C 0.99962 0.63387 0.095 0.0
H1151 H 0.0842 0.61316 0.14997 0.0
H1152 H 0.01028 0.60777 0.15191 0.0
C1153 C 0.01912 0.64928 0.06192 0.0
C1154 C 0.50278 0.37107 0.56287 0.0
C1155 C 0.52332 0.38751 0.59473 0.0
H1156 H 0.44582 0.35788 0.53636 0.0
C1157 C 0.49998 0.40246 0.62597 0.0
H1158 H 0.51953 0.35969 0.53799 0.0
C1159 C 0.45739 0.4 0.62603 0.0
C1160 C 0.43691 0.38373 0.594 0.0
H1161 H 0.51446 0.41607 0.65055 0.0
H1162 H 0.44054 0.41161 0.65067 0.0
C1163 C 0.46026 0.36979 0.56216 0.0
C1164 C 0.0661 0.3989 0.90377 0.0
C1165 C 0.08553 0.38338 0.93682 0.0
H1166 H 1.00979 0.41428 0.87709 0.0
C1167 C 0.06113 0.37002 0.96815 0.0
H1168 H 0.08377 0.40998 0.8794 0.0
C1169 C 0.01867 0.37119 0.96607 0.0
C1170 C 0.99917 0.38696 0.93327 0.0
H1171 H 0.07469 0.35864 0.99462 0.0
H1172 H 1.00115 0.36029 0.99066 0.0
C1173 C 0.0235 0.40128 0.90243 0.0
C1174 C 0.50038 0.61874 0.40231 0.0
C1175 C 0.52387 0.63323 0.43371 0.0
H1176 H 0.44086 0.61039 0.37747 0.0
C1177 C 0.50352 0.64962 0.46573 0.0
H1178 H 0.51469 0.60519 0.37758 0.0
C1179 C 0.46102 0.65134 0.46643 0.0
C1180 C 0.43754 0.63788 0.43443 0.0
H1181 H 0.5204 0.66065 0.49073 0.0
H1182 H 0.4467 0.66321 0.49233 0.0
C1183 C 0.45784 0.62164 0.40225 0.0
C1184 C 0.26983 0.08375 0.24378 0.0
C1185 C 0.27874 0.11472 0.22308 0.0
H1186 H 0.2441 0.06044 0.29713 0.0
C1187 C 0.27035 0.14644 0.24246 0.0
H1188 H 0.27632 0.05891 0.22986 0.0
C1189 C 0.25382 0.14731 0.28146 0.0
C1190 C 0.244 0.11648 0.3019 0.0
H1191 H 0.27744 0.17078 0.22774 0.0
H1192 H 0.24765 0.17228 0.29523 0.0
C1193 C 0.25173 0.08464 0.28238 0.0
C1194 C 0.27049 0.94044 0.77645 0.0
C1195 C 0.28056 0.90919 0.79591 0.0
H1196 H 0.24365 0.9644 0.72411 0.0
C1197 C 0.2736 0.87779 0.77532 0.0
H1198 H 0.27584 0.96505 0.79138 0.0
C1199 C 0.25708 0.87749 0.73636 0.0
C1200 C 0.24586 0.90854 0.71721 0.0
H1201 H 0.28159 0.85328 0.78913 0.0
H1202 H 0.25187 0.85272 0.72171 0.0
C1203 C 0.25239 0.94007 0.73787 0.0
C1204 C 0.7033 0.8298 0.75964 0.0
C1205 C 0.72409 0.84081 0.79449 0.0
H1206 H 0.70641 0.82024 0.69585 0.0
C1207 C 0.76639 0.84634 0.79187 0.0
H1208 H 0.67077 0.82538 0.76051 0.0
C1209 C 0.78655 0.84415 0.75473 0.0
C1210 C 0.76527 0.83521 0.7195 0.0
H1211 H 0.78353 0.85497 0.8179 0.0
H1212 H 0.81842 0.85123 0.75318 0.0
C1213 C 0.72379 0.82664 0.72261 0.0
C1214 C 0.72347 0.19286 0.3034 0.0
C1215 C 0.7651 0.18501 0.30683 0.0
H1216 H 0.67076 0.19298 0.26516 0.0
C1217 C 0.78687 0.17627 0.27181 0.0
H1218 H 0.70574 0.19909 0.33001 0.0
C1219 C 0.76708 0.17348 0.23457 0.0
C1220 C 0.72469 0.17824 0.23166 0.0
H1221 H 0.81886 0.16973 0.27363 0.0
H1222 H 0.78462 0.16497 0.20874 0.0
C1223 C 0.70337 0.18914 0.26627 0.0
C1224 C 0.75316 0.58361 0.28461 0.0
C1225 C 0.74519 0.61521 0.30457 0.0
H1226 H 0.77787 0.55856 0.2317 0.0
C1227 C 0.75464 0.64629 0.28448 0.0
H1228 H 0.74582 0.55922 0.29907 0.0
C1229 C 0.77109 0.64591 0.24542 0.0
C1230 C 0.77975 0.61444 0.22561 0.0
H1231 H 0.7483 0.6711 0.29858 0.0
H1232 H 0.77791 0.67044 0.23101 0.0
C1233 C 0.77117 0.58322 0.24594 0.0
C1234 C 0.75398 0.37324 0.74342 0.0
C1235 C 0.74477 0.40436 0.72334 0.0
H1236 H 0.77709 0.34899 0.79683 0.0
C1237 C 0.75297 0.43593 0.74331 0.0
H1238 H 0.74746 0.34847 0.72932 0.0
C1239 C 0.77099 0.43624 0.78194 0.0
C1240 C 0.77935 0.40498 0.80224 0.0
H1241 H 0.74582 0.46035 0.72886 0.0
H1242 H 0.77789 0.46087 0.79617 0.0
C1243 C 0.77044 0.37355 0.78245 0.0
C1244 C 0.28765 0.3451 0.75501 0.0
C1245 C 0.26595 0.33638 0.71998 0.0
H1246 H 0.28526 0.35649 0.81806 0.0
C1247 C 0.22425 0.32869 0.72335 0.0
H1248 H 0.31969 0.35154 0.75324 0.0
C1249 C 0.20404 0.33253 0.76044 0.0
C1250 C 0.22532 0.34338 0.79507 0.0
H1251 H 0.20657 0.3225 0.69672 0.0
H1252 H 0.1714 0.32878 0.76151 0.0
C1253 C 0.26775 0.348 0.79221 0.0
C1254 C 0.28834 0.67874 0.27369 0.0
C1255 C 0.26686 0.68691 0.30905 0.0
H1256 H 0.28548 0.66787 0.21057 0.0
C1257 C 0.22503 0.69416 0.30626 0.0
H1258 H 0.32047 0.67265 0.27504 0.0
C1259 C 0.20449 0.69038 0.26938 0.0
C1260 C 0.22557 0.68006 0.2344 0.0
H1261 H 0.20754 0.6999 0.33317 0.0
H1262 H 0.1718 0.69374 0.26873 0.0
C1263 C 0.2681 0.67594 0.2367 0.0
loop_
_geom_bond_atom_site_label_1
_geom_bond_atom_site_label_2
_geom_bond_distance
_geom_bond_site_symmetry_2
_ccdc_geom_bond_type
Co0 O2 2.143 . S
Co0 O8 2.074 . S
Co0 O11 2.093 . S
Co0 O24 2.097 . S
Co0 N41 2.151 . S
Co0 N49 2.214 1_554 S
Co1 O2 2.160 . S
Co1 O7 2.058 . S
Co1 O17 2.057 . S
Co1 O32 2.037 . S
Co1 N36 2.145 . S
Co1 N57 2.257 . S
O2 Co0 2.143 . S
O2 Co1 2.160 . S
C3 O4 1.278 . S
C3 O11 1.224 . S
O4 C3 1.278 . S
C5 O6 1.245 . S
C5 O17 1.232 . S
O6 C5 1.245 . S
O7 Co1 2.058 . S
O7 C33 1.269 . S
O8 Co0 2.074 . S
O8 C33 1.257 . S
H9 C34 0.930 . S
H10 C40 0.930 . S
O11 Co0 2.093 . S
O11 C3 1.224 . S
H12 C44 0.929 . S
H13 C46 0.930 . S
H14 C47 0.930 . S
H15 C45 0.929 . S
H16 C48 0.928 . S
O17 Co1 2.057 . S
O17 C5 1.232 . S
H18 C37 0.929 . S
H19 C38 0.929 . S
H20 C50 0.931 . S
H21 C42 0.929 . S
H22 C51 0.930 . S
H23 C43 0.931 . S
O24 Co0 2.097 . S
O24 C52 1.214 . S
H25 C53 0.929 . S
H26 C54 0.929 . S
H27 C55 0.930 . S
H28 C56 0.929 . S
H29 C58 0.930 . S
H30 C35 0.930 . S
H31 C39 0.930 . S
O32 Co1 2.037 . S
O32 C52 1.234 . S
C33 O7 1.269 . S
C33 O8 1.257 . S
C34 H9 0.930 . S
C34 C37 1.388 . S
C34 C39 1.418 . S
C35 H30 0.930 . S
C35 C38 1.404 . S
C35 C39 1.353 . S
N36 Co1 2.145 . S
N36 C37 1.397 . S
N36 C38 1.334 . S
C37 H18 0.929 . S
C37 C34 1.388 . S
C37 N36 1.397 . S
C38 H19 0.929 . S
C38 C35 1.404 . S
C38 N36 1.334 . S
C39 H31 0.930 . S
C39 C34 1.418 . S
C39 C35 1.353 . S
C40 H10 0.930 . S
C40 N41 1.330 . S
C40 C42 1.446 . S
N41 Co0 2.151 . S
N41 C40 1.330 . S
N41 C45 1.418 1_554 S
C42 H21 0.929 . S
C42 C40 1.446 . S
C42 C43 1.332 1_554 S
C43 H23 0.931 . S
C43 C42 1.332 1_556 S
C43 C44 1.267 . S
C44 H12 0.929 . S
C44 C43 1.267 . S
C44 C45 1.251 . S
C45 H15 0.929 . S
C45 N41 1.418 1_556 S
C45 C44 1.251 . S
C46 H13 0.930 . S
C46 C48 1.406 . S
C46 C51 1.261 . S
C47 H14 0.930 . S
C47 N49 1.325 . S
C47 C50 1.357 . S
C48 H16 0.928 . S
C48 C46 1.406 . S
C48 N49 1.261 . S
N49 Co0 2.214 1_556 S
N49 C47 1.325 . S
N49 C48 1.261 . S
C50 H20 0.931 . S
C50 C47 1.357 . S
C50 C51 1.312 . S
C51 H22 0.930 . S
C51 C46 1.261 . S
C51 C50 1.312 . S
C52 O24 1.214 . S
C52 O32 1.234 . S
C53 H25 0.929 . S
C53 C56 1.391 . S
C53 C58 1.391 . S
C54 H26 0.929 . S
C54 C55 1.390 . S
C54 N57 1.391 . S
C55 H27 0.930 . S
C55 C54 1.390 . S
C55 C56 1.392 . S
C56 H28 0.929 . S
C56 C53 1.391 . S
C56 C55 1.392 . S
N57 Co1 2.257 . S
N57 C54 1.391 . S
N57 C58 1.388 . S
C58 H29 0.930 . S
C58 C53 1.391 . S
C58 N57 1.388 . S
Co59 O61 2.143 . S
Co59 O67 2.074 . S
Co59 O70 2.093 . S
Co59 O83 2.097 . S
Co59 N100 2.151 . S
Co59 N108 2.214 . S
Co60 O61 2.160 . S
Co60 O66 2.058 . S
Co60 O76 2.057 . S
Co60 O91 2.037 . S
Co60 N95 2.145 . S
Co60 N116 2.257 . S
O61 Co59 2.143 . S
O61 Co60 2.160 . S
C62 O63 1.278 . S
C62 O70 1.224 . S
O63 C62 1.278 . S
C64 O65 1.245 . S
C64 O76 1.232 . S
O65 C64 1.245 . S
O66 Co60 2.058 . S
O66 C92 1.269 . S
O67 Co59 2.074 . S
O67 C92 1.257 . S
H68 C93 0.930 . S
H69 C99 0.930 . S
O70 Co59 2.093 . S
O70 C62 1.224 . S
H71 C103 0.929 . S
H72 C105 0.930 . S
H73 C106 0.930 . S
H74 C104 0.929 . S
H75 C107 0.928 . S
O76 Co60 2.057 . S
O76 C64 1.232 . S
H77 C96 0.929 . S
H78 C97 0.929 . S
H79 C109 0.931 . S
H80 C101 0.929 . S
H81 C110 0.930 . S
H82 C102 0.931 . S
O83 Co59 2.097 . S
O83 C111 1.214 . S
H84 C112 0.929 . S
H85 C113 0.929 . S
H86 C114 0.930 . S
H87 C115 0.929 . S
H88 C117 0.930 . S
H89 C94 0.930 . S
H90 C98 0.930 . S
O91 Co60 2.037 . S
O91 C111 1.234 . S
C92 O66 1.269 . S
C92 O67 1.257 . S
C93 H68 0.930 . S
C93 C96 1.388 . S
C93 C98 1.418 . S
C94 H89 0.930 . S
C94 C97 1.404 . S
C94 C98 1.353 . S
N95 Co60 2.145 . S
N95 C96 1.397 . S
N95 C97 1.334 . S
C96 H77 0.929 . S
C96 C93 1.388 . S
C96 N95 1.397 . S
C97 H78 0.929 . S
C97 C94 1.404 . S
C97 N95 1.334 . S
C98 H90 0.930 . S
C98 C93 1.418 . S
C98 C94 1.353 . S
C99 H69 0.930 . S
C99 N100 1.330 . S
C99 C101 1.446 . S
N100 Co59 2.151 . S
N100 C99 1.330 . S
N100 C104 1.418 . S
C101 H80 0.929 . S
C101 C99 1.446 . S
C101 C102 1.332 . S
C102 H82 0.931 . S
C102 C101 1.332 . S
C102 C103 1.267 . S
C103 H71 0.929 . S
C103 C102 1.267 . S
C103 C104 1.251 . S
C104 H74 0.929 . S
C104 N100 1.418 . S
C104 C103 1.251 . S
C105 H72 0.930 . S
C105 C107 1.406 . S
C105 C110 1.261 . S
C106 H73 0.930 . S
C106 N108 1.325 . S
C106 C109 1.357 . S
C107 H75 0.928 . S
C107 C105 1.406 . S
C107 N108 1.261 . S
N108 Co59 2.214 . S
N108 C106 1.325 . S
N108 C107 1.261 . S
C109 H79 0.931 . S
C109 C106 1.357 . S
C109 C110 1.312 . S
C110 H81 0.930 . S
C110 C105 1.261 . S
C110 C109 1.312 . S
C111 O83 1.214 . S
C111 O91 1.234 . S
C112 H84 0.929 . S
C112 C115 1.391 . S
C112 C117 1.391 . S
C113 H85 0.929 . S
C113 C114 1.390 . S
C113 N116 1.391 . S
C114 H86 0.930 . S
C114 C113 1.390 . S
C114 C115 1.392 . S
C115 H87 0.929 . S
C115 C112 1.391 . S
C115 C114 1.392 . S
N116 Co60 2.257 . S
N116 C113 1.391 . S
N116 C117 1.388 . S
C117 H88 0.930 . S
C117 C112 1.391 . S
C117 N116 1.388 . S
Co118 O120 2.143 . S
Co118 O126 2.074 . S
Co118 O129 2.093 . S
Co118 O142 2.097 . S
Co118 N159 2.151 . S
Co118 N167 2.214 1_556 S
Co119 O120 2.160 . S
Co119 O125 2.058 . S
Co119 O135 2.057 . S
Co119 O150 2.037 . S
Co119 N154 2.145 . S
Co119 N175 2.257 . S
O120 Co118 2.143 . S
O120 Co119 2.160 . S
C121 O122 1.278 . S
C121 O129 1.224 . S
O122 C121 1.278 . S
C123 O124 1.245 . S
C123 O135 1.232 . S
O124 C123 1.245 . S
O125 Co119 2.058 . S
O125 C151 1.269 . S
O126 Co118 2.074 . S
O126 C151 1.257 . S
H127 C152 0.930 . S
H128 C158 0.930 . S
O129 Co118 2.093 . S
O129 C121 1.224 . S
H130 C162 0.929 . S
H131 C164 0.930 . S
H132 C165 0.930 . S
H133 C163 0.929 . S
H134 C166 0.928 . S
O135 Co119 2.057 . S
O135 C123 1.232 . S
H136 C155 0.929 . S
H137 C156 0.929 . S
H138 C168 0.931 . S
H139 C160 0.929 . S
H140 C169 0.930 . S
H141 C161 0.931 . S
O142 Co118 2.097 . S
O142 C170 1.214 . S
H143 C171 0.929 . S
H144 C172 0.929 . S
H145 C173 0.930 . S
H146 C174 0.929 . S
H147 C176 0.930 . S
H148 C153 0.930 . S
H149 C157 0.930 . S
O150 Co119 2.037 . S
O150 C170 1.234 . S
C151 O125 1.269 . S
C151 O126 1.257 . S
C152 H127 0.930 . S
C152 C155 1.388 . S
C152 C157 1.418 . S
C153 H148 0.930 . S
C153 C156 1.404 . S
C153 C157 1.353 . S
N154 Co119 2.145 . S
N154 C155 1.397 . S
N154 C156 1.334 . S
C155 H136 0.929 . S
C155 C152 1.388 . S
C155 N154 1.397 . S
C156 H137 0.929 . S
C156 C153 1.404 . S
C156 N154 1.334 . S
C157 H149 0.930 . S
C157 C152 1.418 . S
C157 C153 1.353 . S
C158 H128 0.930 . S
C158 N159 1.330 . S
C158 C160 1.446 . S
N159 Co118 2.151 . S
N159 C158 1.330 . S
N159 C163 1.418 1_556 S
C160 H139 0.929 . S
C160 C158 1.446 . S
C160 C161 1.332 1_556 S
C161 H141 0.931 . S
C161 C160 1.332 1_554 S
C161 C162 1.267 . S
C162 H130 0.929 . S
C162 C161 1.267 . S
C162 C163 1.251 . S
C163 H133 0.929 . S
C163 N159 1.418 1_554 S
C163 C162 1.251 . S
C164 H131 0.930 . S
C164 C166 1.406 . S
C164 C169 1.261 . S
C165 H132 0.930 . S
C165 N167 1.325 . S
C165 C168 1.357 . S
C166 H134 0.928 . S
C166 C164 1.406 . S
C166 N167 1.261 . S
N167 Co118 2.214 1_554 S
N167 C165 1.325 . S
N167 C166 1.261 . S
C168 H138 0.931 . S
C168 C165 1.357 . S
C168 C169 1.312 . S
C169 H140 0.930 . S
C169 C164 1.261 . S
C169 C168 1.312 . S
C170 O142 1.214 . S
C170 O150 1.234 . S
C171 H143 0.929 . S
C171 C174 1.391 . S
C171 C176 1.391 . S
C172 H144 0.929 . S
C172 C173 1.390 . S
C172 N175 1.391 . S
C173 H145 0.930 . S
C173 C172 1.390 . S
C173 C174 1.392 . S
C174 H146 0.929 . S
C174 C171 1.391 . S
C174 C173 1.392 . S
N175 Co119 2.257 . S
N175 C172 1.391 . S
N175 C176 1.388 . S
C176 H147 0.930 . S
C176 C171 1.391 . S
C176 N175 1.388 . S
Co177 O179 2.143 . S
Co177 O185 2.074 . S
Co177 O188 2.093 . S
Co177 O201 2.097 . S
Co177 N218 2.151 . S
Co177 N226 2.214 . S
Co178 O179 2.160 . S
Co178 O184 2.058 . S
Co178 O194 2.057 . S
Co178 O209 2.037 . S
Co178 N213 2.145 . S
Co178 N234 2.257 . S
O179 Co177 2.143 . S
O179 Co178 2.160 . S
C180 O181 1.278 . S
C180 O188 1.224 . S
O181 C180 1.278 . S
C182 O183 1.245 . S
C182 O194 1.232 . S
O183 C182 1.245 . S
O184 Co178 2.058 . S
O184 C210 1.269 . S
O185 Co177 2.074 . S
O185 C210 1.257 . S
H186 C211 0.930 . S
H187 C217 0.930 . S
O188 Co177 2.093 . S
O188 C180 1.224 . S
H189 C221 0.929 . S
H190 C223 0.930 . S
H191 C224 0.930 . S
H192 C222 0.929 . S
H193 C225 0.928 . S
O194 Co178 2.057 . S
O194 C182 1.232 . S
H195 C214 0.929 . S
H196 C215 0.929 . S
H197 C227 0.931 . S
H198 C219 0.929 . S
H199 C228 0.930 . S
H200 C220 0.931 . S
O201 Co177 2.097 . S
O201 C229 1.214 . S
H202 C230 0.929 . S
H203 C231 0.929 . S
H204 C232 0.930 . S
H205 C233 0.929 . S
H206 C235 0.930 . S
H207 C212 0.930 . S
H208 C216 0.930 . S
O209 Co178 2.037 . S
O209 C229 1.234 . S
C210 O184 1.269 . S
C210 O185 1.257 . S
C211 H186 0.930 . S
C211 C214 1.388 . S
C211 C216 1.418 . S
C212 H207 0.930 . S
C212 C215 1.404 . S
C212 C216 1.353 . S
N213 Co178 2.145 . S
N213 C214 1.397 . S
N213 C215 1.334 . S
C214 H195 0.929 . S
C214 C211 1.388 . S
C214 N213 1.397 . S
C215 H196 0.929 . S
C215 C212 1.404 . S
C215 N213 1.334 . S
C216 H208 0.930 . S
C216 C211 1.418 . S
C216 C212 1.353 . S
C217 H187 0.930 . S
C217 N218 1.330 . S
C217 C219 1.446 . S
N218 Co177 2.151 . S
N218 C217 1.330 . S
N218 C222 1.418 . S
C219 H198 0.929 . S
C219 C217 1.446 . S
C219 C220 1.332 . S
C220 H200 0.931 . S
C220 C219 1.332 . S
C220 C221 1.267 . S
C221 H189 0.929 . S
C221 C220 1.267 . S
C221 C222 1.251 . S
C222 H192 0.929 . S
C222 N218 1.418 . S
C222 C221 1.251 . S
C223 H190 0.930 . S
C223 C225 1.406 . S
C223 C228 1.261 . S
C224 H191 0.930 . S
C224 N226 1.325 . S
C224 C227 1.357 . S
C225 H193 0.928 . S
C225 C223 1.406 . S
C225 N226 1.261 . S
N226 Co177 2.214 . S
N226 C224 1.325 . S
N226 C225 1.261 . S
C227 H197 0.931 . S
C227 C224 1.357 . S
C227 C228 1.312 . S
C228 H199 0.930 . S
C228 C223 1.261 . S
C228 C227 1.312 . S
C229 O201 1.214 . S
C229 O209 1.234 . S
C230 H202 0.929 . S
C230 C233 1.391 . S
C230 C235 1.391 . S
C231 H203 0.929 . S
C231 C232 1.390 . S
C231 N234 1.391 . S
C232 H204 0.930 . S
C232 C231 1.390 . S
C232 C233 1.392 . S
C233 H205 0.929 . S
C233 C230 1.391 . S
C233 C232 1.392 . S
N234 Co178 2.257 . S
N234 C231 1.391 . S
N234 C235 1.388 . S
C235 H206 0.930 . S
C235 C230 1.391 . S
C235 N234 1.388 . S
Co236 O238 2.143 . S
Co236 O244 2.074 . S
Co236 O247 2.093 . S
Co236 O260 2.097 . S
Co236 N277 2.151 . S
Co236 N285 2.214 . S
Co237 O238 2.160 . S
Co237 O243 2.058 . S
Co237 O253 2.057 . S
Co237 O268 2.037 . S
Co237 N272 2.145 1_556 S
Co237 N293 2.257 . S
O238 Co236 2.143 . S
O238 Co237 2.160 . S
C239 O240 1.278 . S
C239 O247 1.224 . S
O240 C239 1.278 . S
C241 O242 1.245 . S
C241 O253 1.232 . S
O242 C241 1.245 . S
O243 Co237 2.058 . S
O243 C269 1.269 . S
O244 Co236 2.074 . S
O244 C269 1.257 . S
H245 C270 0.930 . S
H246 C276 0.930 . S
O247 Co236 2.093 . S
O247 C239 1.224 . S
H248 C280 0.929 . S
H249 C282 0.930 . S
H250 C283 0.930 . S
H251 C281 0.929 . S
H252 C284 0.928 . S
O253 Co237 2.057 . S
O253 C241 1.232 . S
H254 C273 0.929 . S
H255 C274 0.929 . S
H256 C286 0.931 . S
H257 C278 0.929 . S
H258 C287 0.930 . S
H259 C279 0.931 . S
O260 Co236 2.097 . S
O260 C288 1.214 . S
H261 C289 0.929 . S
H262 C290 0.929 . S
H263 C291 0.930 . S
H264 C292 0.929 . S
H265 C294 0.930 . S
H266 C271 0.930 . S
H267 C275 0.930 . S
O268 Co237 2.037 . S
O268 C288 1.234 . S
C269 O243 1.269 . S
C269 O244 1.257 . S
C270 H245 0.930 . S
C270 C273 1.388 . S
C270 C275 1.418 . S
C271 H266 0.930 . S
C271 C274 1.404 . S
C271 C275 1.353 . S
N272 Co237 2.145 1_554 S
N272 C273 1.397 . S
N272 C274 1.334 . S
C273 H254 0.929 . S
C273 C270 1.388 . S
C273 N272 1.397 . S
C274 H255 0.929 . S
C274 C271 1.404 . S
C274 N272 1.334 . S
C275 H267 0.930 . S
C275 C270 1.418 . S
C275 C271 1.353 . S
C276 H246 0.930 . S
C276 N277 1.330 . S
C276 C278 1.446 . S
N277 Co236 2.151 . S
N277 C276 1.330 . S
N277 C281 1.418 . S
C278 H257 0.929 . S
C278 C276 1.446 . S
C278 C279 1.332 . S
C279 H259 0.931 . S
C279 C278 1.332 . S
C279 C280 1.267 . S
C280 H248 0.929 . S
C280 C279 1.267 . S
C280 C281 1.251 . S
C281 H251 0.929 . S
C281 N277 1.418 . S
C281 C280 1.251 . S
C282 H249 0.930 . S
C282 C284 1.406 1_545 S
C282 C287 1.261 . S
C283 H250 0.930 . S
C283 N285 1.325 . S
C283 C286 1.357 1_565 S
C284 H252 0.928 . S
C284 C282 1.406 1_565 S
C284 N285 1.261 . S
N285 Co236 2.214 . S
N285 C283 1.325 . S
N285 C284 1.261 . S
C286 H256 0.931 . S
C286 C283 1.357 1_545 S
C286 C287 1.312 . S
C287 H258 0.930 . S
C287 C282 1.261 . S
C287 C286 1.312 . S
C288 O260 1.214 . S
C288 O268 1.234 . S
C289 H261 0.929 . S
C289 C292 1.391 . S
C289 C294 1.391 . S
C290 H262 0.929 . S
C290 C291 1.390 . S
C290 N293 1.391 . S
C291 H263 0.930 . S
C291 C290 1.390 . S
C291 C292 1.392 . S
C292 H264 0.929 . S
C292 C289 1.391 . S
C292 C291 1.392 . S
N293 Co237 2.257 . S
N293 C290 1.391 . S
N293 C294 1.388 . S
C294 H265 0.930 . S
C294 C289 1.391 . S
C294 N293 1.388 . S
Co295 O297 2.143 . S
Co295 O303 2.074 . S
Co295 O306 2.093 . S
Co295 O319 2.097 . S
Co295 N336 2.151 . S
Co295 N344 2.214 . S
Co296 O297 2.160 . S
Co296 O302 2.058 . S
Co296 O312 2.057 . S
Co296 O327 2.037 . S
Co296 N331 2.145 . S
Co296 N352 2.257 . S
O297 Co295 2.143 . S
O297 Co296 2.160 . S
C298 O299 1.278 . S
C298 O306 1.224 . S
O299 C298 1.278 . S
C300 O301 1.245 . S
C300 O312 1.232 . S
O301 C300 1.245 . S
O302 Co296 2.058 . S
O302 C328 1.269 . S
O303 Co295 2.074 . S
O303 C328 1.257 . S
H304 C329 0.930 . S
H305 C335 0.930 . S
O306 Co295 2.093 . S
O306 C298 1.224 . S
H307 C339 0.929 . S
H308 C341 0.930 . S
H309 C342 0.930 . S
H310 C340 0.929 . S
H311 C343 0.928 . S
O312 Co296 2.057 . S
O312 C300 1.232 . S
H313 C332 0.929 . S
H314 C333 0.929 . S
H315 C345 0.931 . S
H316 C337 0.929 . S
H317 C346 0.930 . S
H318 C338 0.931 . S
O319 Co295 2.097 . S
O319 C347 1.214 . S
H320 C348 0.929 . S
H321 C349 0.929 . S
H322 C350 0.930 . S
H323 C351 0.929 . S
H324 C353 0.930 . S
H325 C330 0.930 . S
H326 C334 0.930 . S
O327 Co296 2.037 . S
O327 C347 1.234 . S
C328 O302 1.269 . S
C328 O303 1.257 . S
C329 H304 0.930 . S
C329 C332 1.388 . S
C329 C334 1.418 . S
C330 H325 0.930 . S
C330 C333 1.404 . S
C330 C334 1.353 . S
N331 Co296 2.145 . S
N331 C332 1.397 . S
N331 C333 1.334 . S
C332 H313 0.929 . S
C332 C329 1.388 . S
C332 N331 1.397 . S
C333 H314 0.929 . S
C333 C330 1.404 . S
C333 N331 1.334 . S
C334 H326 0.930 . S
C334 C329 1.418 . S
C334 C330 1.353 . S
C335 H305 0.930 . S
C335 N336 1.330 . S
C335 C337 1.446 . S
N336 Co295 2.151 . S
N336 C335 1.330 . S
N336 C340 1.418 . S
C337 H316 0.929 . S
C337 C335 1.446 . S
C337 C338 1.332 . S
C338 H318 0.931 . S
C338 C337 1.332 . S
C338 C339 1.267 . S
C339 H307 0.929 . S
C339 C338 1.267 . S
C339 C340 1.251 . S
C340 H310 0.929 . S
C340 N336 1.418 . S
C340 C339 1.251 . S
C341 H308 0.930 . S
C341 C343 1.406 1_565 S
C341 C346 1.261 . S
C342 H309 0.930 . S
C342 N344 1.325 . S
C342 C345 1.357 1_545 S
C343 H311 0.928 . S
C343 C341 1.406 1_545 S
C343 N344 1.261 . S
N344 Co295 2.214 . S
N344 C342 1.325 . S
N344 C343 1.261 . S
C345 H315 0.931 . S
C345 C342 1.357 1_565 S
C345 C346 1.312 . S
C346 H317 0.930 . S
C346 C341 1.261 . S
C346 C345 1.312 . S
C347 O319 1.214 . S
C347 O327 1.234 . S
C348 H320 0.929 . S
C348 C351 1.391 . S
C348 C353 1.391 . S
C349 H321 0.929 . S
C349 C350 1.390 . S
C349 N352 1.391 . S
C350 H322 0.930 . S
C350 C349 1.390 . S
C350 C351 1.392 . S
C351 H323 0.929 . S
C351 C348 1.391 . S
C351 C350 1.392 . S
N352 Co296 2.257 . S
N352 C349 1.391 . S
N352 C353 1.388 . S
C353 H324 0.930 . S
C353 C348 1.391 . S
C353 N352 1.388 . S
Co354 O356 2.143 . S
Co354 O362 2.074 . S
Co354 O365 2.093 . S
Co354 O378 2.097 . S
Co354 N395 2.151 . S
Co354 N403 2.214 . S
Co355 O356 2.160 . S
Co355 O361 2.058 . S
Co355 O371 2.057 . S
Co355 O386 2.037 . S
Co355 N390 2.145 1_554 S
Co355 N411 2.257 . S
O356 Co354 2.143 . S
O356 Co355 2.160 . S
C357 O358 1.278 . S
C357 O365 1.224 . S
O358 C357 1.278 . S
C359 O360 1.245 . S
C359 O371 1.232 . S
O360 C359 1.245 . S
O361 Co355 2.058 . S
O361 C387 1.269 . S
O362 Co354 2.074 . S
O362 C387 1.257 . S
H363 C388 0.930 . S
H364 C394 0.930 . S
O365 Co354 2.093 . S
O365 C357 1.224 . S
H366 C398 0.929 . S
H367 C400 0.930 . S
H368 C401 0.930 . S
H369 C399 0.929 . S
H370 C402 0.928 . S
O371 Co355 2.057 . S
O371 C359 1.232 . S
H372 C391 0.929 . S
H373 C392 0.929 . S
H374 C404 0.931 . S
H375 C396 0.929 . S
H376 C405 0.930 . S
H377 C397 0.931 . S
O378 Co354 2.097 . S
O378 C406 1.214 . S
H379 C407 0.929 . S
H380 C408 0.929 . S
H381 C409 0.930 . S
H382 C410 0.929 . S
H383 C412 0.930 . S
H384 C389 0.930 . S
H385 C393 0.930 . S
O386 Co355 2.037 . S
O386 C406 1.234 . S
C387 O361 1.269 . S
C387 O362 1.257 . S
C388 H363 0.930 . S
C388 C391 1.388 . S
C388 C393 1.418 . S
C389 H384 0.930 . S
C389 C392 1.404 . S
C389 C393 1.353 . S
N390 Co355 2.145 1_556 S
N390 C391 1.397 . S
N390 C392 1.334 . S
C391 H372 0.929 . S
C391 C388 1.388 . S
C391 N390 1.397 . S
C392 H373 0.929 . S
C392 C389 1.404 . S
C392 N390 1.334 . S
C393 H385 0.930 . S
C393 C388 1.418 . S
C393 C389 1.353 . S
C394 H364 0.930 . S
C394 N395 1.330 . S
C394 C396 1.446 . S
N395 Co354 2.151 . S
N395 C394 1.330 . S
N395 C399 1.418 . S
C396 H375 0.929 . S
C396 C394 1.446 . S
C396 C397 1.332 . S
C397 H377 0.931 . S
C397 C396 1.332 . S
C397 C398 1.267 . S
C398 H366 0.929 . S
C398 C397 1.267 . S
C398 C399 1.251 . S
C399 H369 0.929 . S
C399 N395 1.418 . S
C399 C398 1.251 . S
C400 H367 0.930 . S
C400 C402 1.406 1_565 S
C400 C405 1.261 . S
C401 H368 0.930 . S
C401 N403 1.325 . S
C401 C404 1.357 1_545 S
C402 H370 0.928 . S
C402 C400 1.406 1_545 S
C402 N403 1.261 . S
N403 Co354 2.214 . S
N403 C401 1.325 . S
N403 C402 1.261 . S
C404 H374 0.931 . S
C404 C401 1.357 1_565 S
C404 C405 1.312 . S
C405 H376 0.930 . S
C405 C400 1.261 . S
C405 C404 1.312 . S
C406 O378 1.214 . S
C406 O386 1.234 . S
C407 H379 0.929 . S
C407 C410 1.391 . S
C407 C412 1.391 . S
C408 H380 0.929 . S
C408 C409 1.390 . S
C408 N411 1.391 . S
C409 H381 0.930 . S
C409 C408 1.390 . S
C409 C410 1.392 . S
C410 H382 0.929 . S
C410 C407 1.391 . S
C410 C409 1.392 . S
N411 Co355 2.257 . S
N411 C408 1.391 . S
N411 C412 1.388 . S
C412 H383 0.930 . S
C412 C407 1.391 . S
C412 N411 1.388 . S
Co413 O415 2.143 . S
Co413 O421 2.074 . S
Co413 O424 2.093 . S
Co413 O437 2.097 . S
Co413 N454 2.151 . S
Co413 N462 2.214 . S
Co414 O415 2.160 . S
Co414 O420 2.058 . S
Co414 O430 2.057 . S
Co414 O445 2.037 . S
Co414 N449 2.145 . S
Co414 N470 2.257 . S
O415 Co413 2.143 . S
O415 Co414 2.160 . S
C416 O417 1.278 . S
C416 O424 1.224 . S
O417 C416 1.278 . S
C418 O419 1.245 . S
C418 O430 1.232 . S
O419 C418 1.245 . S
O420 Co414 2.058 . S
O420 C446 1.269 . S
O421 Co413 2.074 . S
O421 C446 1.257 . S
H422 C447 0.930 . S
H423 C453 0.930 . S
O424 Co413 2.093 . S
O424 C416 1.224 . S
H425 C457 0.929 . S
H426 C459 0.930 . S
H427 C460 0.930 . S
H428 C458 0.929 . S
H429 C461 0.928 . S
O430 Co414 2.057 . S
O430 C418 1.232 . S
H431 C450 0.929 . S
H432 C451 0.929 . S
H433 C463 0.931 . S
H434 C455 0.929 . S
H435 C464 0.930 . S
H436 C456 0.931 . S
O437 Co413 2.097 . S
O437 C465 1.214 . S
H438 C466 0.929 . S
H439 C467 0.929 . S
H440 C468 0.930 . S
H441 C469 0.929 . S
H442 C471 0.930 . S
H443 C448 0.930 . S
H444 C452 0.930 . S
O445 Co414 2.037 . S
O445 C465 1.234 . S
C446 O420 1.269 . S
C446 O421 1.257 . S
C447 H422 0.930 . S
C447 C450 1.388 . S
C447 C452 1.418 . S
C448 H443 0.930 . S
C448 C451 1.404 . S
C448 C452 1.353 . S
N449 Co414 2.145 . S
N449 C450 1.397 . S
N449 C451 1.334 . S
C450 H431 0.929 . S
C450 C447 1.388 . S
C450 N449 1.397 . S
C451 H432 0.929 . S
C451 C448 1.404 . S
C451 N449 1.334 . S
C452 H444 0.930 . S
C452 C447 1.418 . S
C452 C448 1.353 . S
C453 H423 0.930 . S
C453 N454 1.330 . S
C453 C455 1.446 . S
N454 Co413 2.151 . S
N454 C453 1.330 . S
N454 C458 1.418 . S
C455 H434 0.929 . S
C455 C453 1.446 . S
C455 C456 1.332 . S
C456 H436 0.931 . S
C456 C455 1.332 . S
C456 C457 1.267 . S
C457 H425 0.929 . S
C457 C456 1.267 . S
C457 C458 1.251 . S
C458 H428 0.929 . S
C458 N454 1.418 . S
C458 C457 1.251 . S
C459 H426 0.930 . S
C459 C461 1.406 1_545 S
C459 C464 1.261 . S
C460 H427 0.930 . S
C460 N462 1.325 . S
C460 C463 1.357 1_565 S
C461 H429 0.928 . S
C461 C459 1.406 1_565 S
C461 N462 1.261 . S
N462 Co413 2.214 . S
N462 C460 1.325 . S
N462 C461 1.261 . S
C463 H433 0.931 . S
C463 C460 1.357 1_545 S
C463 C464 1.312 . S
C464 H435 0.930 . S
C464 C459 1.261 . S
C464 C463 1.312 . S
C465 O437 1.214 . S
C465 O445 1.234 . S
C466 H438 0.929 . S
C466 C469 1.391 . S
C466 C471 1.391 . S
C467 H439 0.929 . S
C467 C468 1.390 . S
C467 N470 1.391 . S
C468 H440 0.930 . S
C468 C467 1.390 . S
C468 C469 1.392 . S
C469 H441 0.929 . S
C469 C466 1.391 . S
C469 C468 1.392 . S
N470 Co414 2.257 . S
N470 C467 1.391 . S
N470 C471 1.388 . S
C471 H442 0.930 . S
C471 C466 1.391 . S
C471 N470 1.388 . S
Co472 O474 2.143 . S
Co472 O480 2.074 . S
Co472 O483 2.093 . S
Co472 O496 2.097 . S
Co472 N513 2.151 . S
Co472 N521 2.214 1_554 S
Co473 O474 2.160 . S
Co473 O479 2.058 . S
Co473 O489 2.057 . S
Co473 O504 2.037 . S
Co473 N508 2.145 . S
Co473 N529 2.257 . S
O474 Co472 2.143 . S
O474 Co473 2.160 . S
C475 O476 1.278 . S
C475 O483 1.224 . S
O476 C475 1.278 . S
C477 O478 1.245 . S
C477 O489 1.232 . S
O478 C477 1.245 . S
O479 Co473 2.058 . S
O479 C505 1.269 . S
O480 Co472 2.074 . S
O480 C505 1.257 . S
H481 C506 0.930 . S
H482 C512 0.930 . S
O483 Co472 2.093 . S
O483 C475 1.224 . S
H484 C516 0.929 . S
H485 C518 0.930 . S
H486 C519 0.930 . S
H487 C517 0.929 . S
H488 C520 0.928 . S
O489 Co473 2.057 . S
O489 C477 1.232 . S
H490 C509 0.929 . S
H491 C510 0.929 . S
H492 C522 0.931 . S
H493 C514 0.929 . S
H494 C523 0.930 . S
H495 C515 0.931 . S
O496 Co472 2.097 . S
O496 C524 1.214 . S
H497 C525 0.929 . S
H498 C526 0.929 . S
H499 C527 0.930 . S
H500 C528 0.929 . S
H501 C530 0.930 . S
H502 C507 0.930 . S
H503 C511 0.930 . S
O504 Co473 2.037 . S
O504 C524 1.234 . S
C505 O479 1.269 . S
C505 O480 1.257 . S
C506 H481 0.930 . S
C506 C509 1.388 . S
C506 C511 1.418 . S
C507 H502 0.930 . S
C507 C510 1.404 . S
C507 C511 1.353 . S
N508 Co473 2.145 . S
N508 C509 1.397 . S
N508 C510 1.334 . S
C509 H490 0.929 . S
C509 C506 1.388 . S
C509 N508 1.397 . S
C510 H491 0.929 . S
C510 C507 1.404 . S
C510 N508 1.334 . S
C511 H503 0.930 . S
C511 C506 1.418 . S
C511 C507 1.353 . S
C512 H482 0.930 . S
C512 N513 1.330 . S
C512 C514 1.446 . S
N513 Co472 2.151 . S
N513 C512 1.330 . S
N513 C517 1.418 1_554 S
C514 H493 0.929 . S
C514 C512 1.446 . S
C514 C515 1.332 1_554 S
C515 H495 0.931 . S
C515 C514 1.332 1_556 S
C515 C516 1.267 . S
C516 H484 0.929 . S
C516 C515 1.267 . S
C516 C517 1.251 . S
C517 H487 0.929 . S
C517 N513 1.418 1_556 S
C517 C516 1.251 . S
C518 H485 0.930 . S
C518 C520 1.406 . S
C518 C523 1.261 . S
C519 H486 0.930 . S
C519 N521 1.325 . S
C519 C522 1.357 . S
C520 H488 0.928 . S
C520 C518 1.406 . S
C520 N521 1.261 . S
N521 Co472 2.214 1_556 S
N521 C519 1.325 . S
N521 C520 1.261 . S
C522 H492 0.931 . S
C522 C519 1.357 . S
C522 C523 1.312 . S
C523 H494 0.930 . S
C523 C518 1.261 . S
C523 C522 1.312 . S
C524 O496 1.214 . S
C524 O504 1.234 . S
C525 H497 0.929 . S
C525 C528 1.391 . S
C525 C530 1.391 . S
C526 H498 0.929 . S
C526 C527 1.390 . S
C526 N529 1.391 . S
C527 H499 0.930 . S
C527 C526 1.390 . S
C527 C528 1.392 . S
C528 H500 0.929 . S
C528 C525 1.391 . S
C528 C527 1.392 . S
N529 Co473 2.257 . S
N529 C526 1.391 . S
N529 C530 1.388 . S
C530 H501 0.930 . S
C530 C525 1.391 . S
C530 N529 1.388 . S
Co531 O533 2.143 . S
Co531 O539 2.074 . S
Co531 O542 2.093 . S
Co531 O555 2.097 . S
Co531 N572 2.151 . S
Co531 N580 2.214 . S
Co532 O533 2.160 . S
Co532 O538 2.058 . S
Co532 O548 2.057 . S
Co532 O563 2.037 . S
Co532 N567 2.145 . S
Co532 N588 2.257 . S
O533 Co531 2.143 . S
O533 Co532 2.160 . S
C534 O535 1.278 . S
C534 O542 1.224 . S
O535 C534 1.278 . S
C536 O537 1.245 . S
C536 O548 1.232 . S
O537 C536 1.245 . S
O538 Co532 2.058 . S
O538 C564 1.269 . S
O539 Co531 2.074 . S
O539 C564 1.257 . S
H540 C565 0.930 . S
H541 C571 0.930 . S
O542 Co531 2.093 . S
O542 C534 1.224 . S
H543 C575 0.929 . S
H544 C577 0.930 . S
H545 C578 0.930 . S
H546 C576 0.929 . S
H547 C579 0.928 . S
O548 Co532 2.057 . S
O548 C536 1.232 . S
H549 C568 0.929 . S
H550 C569 0.929 . S
H551 C581 0.931 . S
H552 C573 0.929 . S
H553 C582 0.930 . S
H554 C574 0.931 . S
O555 Co531 2.097 . S
O555 C583 1.214 . S
H556 C584 0.929 . S
H557 C585 0.929 . S
H558 C586 0.930 . S
H559 C587 0.929 . S
H560 C589 0.930 . S
H561 C566 0.930 . S
H562 C570 0.930 . S
O563 Co532 2.037 . S
O563 C583 1.234 . S
C564 O538 1.269 . S
C564 O539 1.257 . S
C565 H540 0.930 . S
C565 C568 1.388 . S
C565 C570 1.418 . S
C566 H561 0.930 . S
C566 C569 1.404 . S
C566 C570 1.353 . S
N567 Co532 2.145 . S
N567 C568 1.397 . S
N567 C569 1.334 . S
C568 H549 0.929 . S
C568 C565 1.388 . S
C568 N567 1.397 . S
C569 H550 0.929 . S
C569 C566 1.404 . S
C569 N567 1.334 . S
C570 H562 0.930 . S
C570 C565 1.418 . S
C570 C566 1.353 . S
C571 H541 0.930 . S
C571 N572 1.330 . S
C571 C573 1.446 . S
N572 Co531 2.151 . S
N572 C571 1.330 . S
N572 C576 1.418 . S
C573 H552 0.929 . S
C573 C571 1.446 . S
C573 C574 1.332 . S
C574 H554 0.931 . S
C574 C573 1.332 . S
C574 C575 1.267 . S
C575 H543 0.929 . S
C575 C574 1.267 . S
C575 C576 1.251 . S
C576 H546 0.929 . S
C576 N572 1.418 . S
C576 C575 1.251 . S
C577 H544 0.930 . S
C577 C579 1.406 . S
C577 C582 1.261 . S
C578 H545 0.930 . S
C578 N580 1.325 . S
C578 C581 1.357 . S
C579 H547 0.928 . S
C579 C577 1.406 . S
C579 N580 1.261 . S
N580 Co531 2.214 . S
N580 C578 1.325 . S
N580 C579 1.261 . S
C581 H551 0.931 . S
C581 C578 1.357 . S
C581 C582 1.312 . S
C582 H553 0.930 . S
C582 C577 1.261 . S
C582 C581 1.312 . S
C583 O555 1.214 . S
C583 O563 1.234 . S
C584 H556 0.929 . S
C584 C587 1.391 . S
C584 C589 1.391 . S
C585 H557 0.929 . S
C585 C586 1.390 . S
C585 N588 1.391 . S
C586 H558 0.930 . S
C586 C585 1.390 . S
C586 C587 1.392 . S
C587 H559 0.929 . S
C587 C584 1.391 . S
C587 C586 1.392 . S
N588 Co532 2.257 . S
N588 C585 1.391 . S
N588 C589 1.388 . S
C589 H560 0.930 . S
C589 C584 1.391 . S
C589 N588 1.388 . S
Co590 O592 2.143 . S
Co590 O598 2.074 . S
Co590 O601 2.093 . S
Co590 O614 2.097 . S
Co590 N631 2.151 . S
Co590 N639 2.214 1_556 S
Co591 O592 2.160 . S
Co591 O597 2.058 . S
Co591 O607 2.057 . S
Co591 O622 2.037 . S
Co591 N626 2.145 . S
Co591 N647 2.257 . S
O592 Co590 2.143 . S
O592 Co591 2.160 . S
C593 O594 1.278 . S
C593 O601 1.224 . S
O594 C593 1.278 . S
C595 O596 1.245 . S
C595 O607 1.232 . S
O596 C595 1.245 . S
O597 Co591 2.058 . S
O597 C623 1.269 . S
O598 Co590 2.074 . S
O598 C623 1.257 . S
H599 C624 0.930 . S
H600 C630 0.930 . S
O601 Co590 2.093 . S
O601 C593 1.224 . S
H602 C634 0.929 . S
H603 C636 0.930 . S
H604 C637 0.930 . S
H605 C635 0.929 . S
H606 C638 0.928 . S
O607 Co591 2.057 . S
O607 C595 1.232 . S
H608 C627 0.929 . S
H609 C628 0.929 . S
H610 C640 0.931 . S
H611 C632 0.929 . S
H612 C641 0.930 . S
H613 C633 0.931 . S
O614 Co590 2.097 . S
O614 C642 1.214 . S
H615 C643 0.929 . S
H616 C644 0.929 . S
H617 C645 0.930 . S
H618 C646 0.929 . S
H619 C648 0.930 . S
H620 C625 0.930 . S
H621 C629 0.930 . S
O622 Co591 2.037 . S
O622 C642 1.234 . S
C623 O597 1.269 . S
C623 O598 1.257 . S
C624 H599 0.930 . S
C624 C627 1.388 . S
C624 C629 1.418 . S
C625 H620 0.930 . S
C625 C628 1.404 . S
C625 C629 1.353 . S
N626 Co591 2.145 . S
N626 C627 1.397 . S
N626 C628 1.334 . S
C627 H608 0.929 . S
C627 C624 1.388 . S
C627 N626 1.397 . S
C628 H609 0.929 . S
C628 C625 1.404 . S
C628 N626 1.334 . S
C629 H621 0.930 . S
C629 C624 1.418 . S
C629 C625 1.353 . S
C630 H600 0.930 . S
C630 N631 1.330 . S
C630 C632 1.446 . S
N631 Co590 2.151 . S
N631 C630 1.330 . S
N631 C635 1.418 1_556 S
C632 H611 0.929 . S
C632 C630 1.446 . S
C632 C633 1.332 1_556 S
C633 H613 0.931 . S
C633 C632 1.332 1_554 S
C633 C634 1.267 . S
C634 H602 0.929 . S
C634 C633 1.267 . S
C634 C635 1.251 . S
C635 H605 0.929 . S
C635 N631 1.418 1_554 S
C635 C634 1.251 . S
C636 H603 0.930 . S
C636 C638 1.406 . S
C636 C641 1.261 . S
C637 H604 0.930 . S
C637 N639 1.325 . S
C637 C640 1.357 . S
C638 H606 0.928 . S
C638 C636 1.406 . S
C638 N639 1.261 . S
N639 Co590 2.214 1_554 S
N639 C637 1.325 . S
N639 C638 1.261 . S
C640 H610 0.931 . S
C640 C637 1.357 . S
C640 C641 1.312 . S
C641 H612 0.930 . S
C641 C636 1.261 . S
C641 C640 1.312 . S
C642 O614 1.214 . S
C642 O622 1.234 . S
C643 H615 0.929 . S
C643 C646 1.391 . S
C643 C648 1.391 . S
C644 H616 0.929 . S
C644 C645 1.390 . S
C644 N647 1.391 . S
C645 H617 0.930 . S
C645 C644 1.390 . S
C645 C646 1.392 . S
C646 H618 0.929 . S
C646 C643 1.391 . S
C646 C645 1.392 . S
N647 Co591 2.257 . S
N647 C644 1.391 . S
N647 C648 1.388 . S
C648 H619 0.930 . S
C648 C643 1.391 . S
C648 N647 1.388 . S
Co649 O651 2.143 . S
Co649 O657 2.074 . S
Co649 O660 2.093 . S
Co649 O673 2.097 . S
Co649 N690 2.151 . S
Co649 N698 2.214 . S
Co650 O651 2.160 . S
Co650 O656 2.058 . S
Co650 O666 2.057 . S
Co650 O681 2.037 . S
Co650 N685 2.145 . S
Co650 N706 2.257 . S
O651 Co649 2.143 . S
O651 Co650 2.160 . S
C652 O653 1.278 . S
C652 O660 1.224 . S
O653 C652 1.278 . S
C654 O655 1.245 . S
C654 O666 1.232 . S
O655 C654 1.245 . S
O656 Co650 2.058 . S
O656 C682 1.269 . S
O657 Co649 2.074 . S
O657 C682 1.257 . S
H658 C683 0.930 . S
H659 C689 0.930 . S
O660 Co649 2.093 . S
O660 C652 1.224 . S
H661 C693 0.929 . S
H662 C695 0.930 . S
H663 C696 0.930 . S
H664 C694 0.929 . S
H665 C697 0.928 . S
O666 Co650 2.057 . S
O666 C654 1.232 . S
H667 C686 0.929 . S
H668 C687 0.929 . S
H669 C699 0.931 . S
H670 C691 0.929 . S
H671 C700 0.930 . S
H672 C692 0.931 . S
O673 Co649 2.097 . S
O673 C701 1.214 . S
H674 C702 0.929 . S
H675 C703 0.929 . S
H676 C704 0.930 . S
H677 C705 0.929 . S
H678 C707 0.930 . S
H679 C684 0.930 . S
H680 C688 0.930 . S
O681 Co650 2.037 . S
O681 C701 1.234 . S
C682 O656 1.269 . S
C682 O657 1.257 . S
C683 H658 0.930 . S
C683 C686 1.388 . S
C683 C688 1.418 . S
C684 H679 0.930 . S
C684 C687 1.404 . S
C684 C688 1.353 . S
N685 Co650 2.145 . S
N685 C686 1.397 . S
N685 C687 1.334 . S
C686 H667 0.929 . S
C686 C683 1.388 . S
C686 N685 1.397 . S
C687 H668 0.929 . S
C687 C684 1.404 . S
C687 N685 1.334 . S
C688 H680 0.930 . S
C688 C683 1.418 . S
C688 C684 1.353 . S
C689 H659 0.930 . S
C689 N690 1.330 . S
C689 C691 1.446 . S
N690 Co649 2.151 . S
N690 C689 1.330 . S
N690 C694 1.418 . S
C691 H670 0.929 . S
C691 C689 1.446 . S
C691 C692 1.332 . S
C692 H672 0.931 . S
C692 C691 1.332 . S
C692 C693 1.267 . S
C693 H661 0.929 . S
C693 C692 1.267 . S
C693 C694 1.251 . S
C694 H664 0.929 . S
C694 N690 1.418 . S
C694 C693 1.251 . S
C695 H662 0.930 . S
C695 C697 1.406 . S
C695 C700 1.261 . S
C696 H663 0.930 . S
C696 N698 1.325 . S
C696 C699 1.357 . S
C697 H665 0.928 . S
C697 C695 1.406 . S
C697 N698 1.261 . S
N698 Co649 2.214 . S
N698 C696 1.325 . S
N698 C697 1.261 . S
C699 H669 0.931 . S
C699 C696 1.357 . S
C699 C700 1.312 . S
C700 H671 0.930 . S
C700 C695 1.261 . S
C700 C699 1.312 . S
C701 O673 1.214 . S
C701 O681 1.234 . S
C702 H674 0.929 . S
C702 C705 1.391 . S
C702 C707 1.391 . S
C703 H675 0.929 . S
C703 C704 1.390 . S
C703 N706 1.391 . S
C704 H676 0.930 . S
C704 C703 1.390 . S
C704 C705 1.392 . S
C705 H677 0.929 . S
C705 C702 1.391 . S
C705 C704 1.392 . S
N706 Co650 2.257 . S
N706 C703 1.391 . S
N706 C707 1.388 . S
C707 H678 0.930 . S
C707 C702 1.391 . S
C707 N706 1.388 . S
Co708 O710 2.143 . S
Co708 O716 2.074 . S
Co708 O719 2.093 . S
Co708 O732 2.097 . S
Co708 N749 2.151 . S
Co708 N757 2.214 . S
Co709 O710 2.160 . S
Co709 O715 2.058 . S
Co709 O725 2.057 . S
Co709 O740 2.037 . S
Co709 N744 2.145 1_556 S
Co709 N765 2.257 . S
O710 Co708 2.143 . S
O710 Co709 2.160 . S
C711 O712 1.278 . S
C711 O719 1.224 . S
O712 C711 1.278 . S
C713 O714 1.245 . S
C713 O725 1.232 . S
O714 C713 1.245 . S
O715 Co709 2.058 . S
O715 C741 1.269 . S
O716 Co708 2.074 . S
O716 C741 1.257 . S
H717 C742 0.930 . S
H718 C748 0.930 . S
O719 Co708 2.093 . S
O719 C711 1.224 . S
H720 C752 0.929 . S
H721 C754 0.930 . S
H722 C755 0.930 . S
H723 C753 0.929 . S
H724 C756 0.928 . S
O725 Co709 2.057 . S
O725 C713 1.232 . S
H726 C745 0.929 . S
H727 C746 0.929 . S
H728 C758 0.931 . S
H729 C750 0.929 . S
H730 C759 0.930 . S
H731 C751 0.931 . S
O732 Co708 2.097 . S
O732 C760 1.214 . S
H733 C761 0.929 . S
H734 C762 0.929 . S
H735 C763 0.930 . S
H736 C764 0.929 . S
H737 C766 0.930 . S
H738 C743 0.930 . S
H739 C747 0.930 . S
O740 Co709 2.037 . S
O740 C760 1.234 . S
C741 O715 1.269 . S
C741 O716 1.257 . S
C742 H717 0.930 . S
C742 C745 1.388 . S
C742 C747 1.418 . S
C743 H738 0.930 . S
C743 C746 1.404 . S
C743 C747 1.353 . S
N744 Co709 2.145 1_554 S
N744 C745 1.397 . S
N744 C746 1.334 . S
C745 H726 0.929 . S
C745 C742 1.388 . S
C745 N744 1.397 . S
C746 H727 0.929 . S
C746 C743 1.404 . S
C746 N744 1.334 . S
C747 H739 0.930 . S
C747 C742 1.418 . S
C747 C743 1.353 . S
C748 H718 0.930 . S
C748 N749 1.330 . S
C748 C750 1.446 . S
N749 Co708 2.151 . S
N749 C748 1.330 . S
N749 C753 1.418 . S
C750 H729 0.929 . S
C750 C748 1.446 . S
C750 C751 1.332 . S
C751 H731 0.931 . S
C751 C750 1.332 . S
C751 C752 1.267 . S
C752 H720 0.929 . S
C752 C751 1.267 . S
C752 C753 1.251 . S
C753 H723 0.929 . S
C753 N749 1.418 . S
C753 C752 1.251 . S
C754 H721 0.930 . S
C754 C756 1.406 . S
C754 C759 1.261 . S
C755 H722 0.930 . S
C755 N757 1.325 . S
C755 C758 1.357 . S
C756 H724 0.928 . S
C756 C754 1.406 . S
C756 N757 1.261 . S
N757 Co708 2.214 . S
N757 C755 1.325 . S
N757 C756 1.261 . S
C758 H728 0.931 . S
C758 C755 1.357 . S
C758 C759 1.312 . S
C759 H730 0.930 . S
C759 C754 1.261 . S
C759 C758 1.312 . S
C760 O732 1.214 . S
C760 O740 1.234 . S
C761 H733 0.929 . S
C761 C764 1.391 . S
C761 C766 1.391 . S
C762 H734 0.929 . S
C762 C763 1.390 . S
C762 N765 1.391 . S
C763 H735 0.930 . S
C763 C762 1.390 . S
C763 C764 1.392 . S
C764 H736 0.929 . S
C764 C761 1.391 . S
C764 C763 1.392 . S
N765 Co709 2.257 . S
N765 C762 1.391 . S
N765 C766 1.388 . S
C766 H737 0.930 . S
C766 C761 1.391 . S
C766 N765 1.388 . S
Co767 O769 2.143 . S
Co767 O775 2.074 . S
Co767 O778 2.093 . S
Co767 O791 2.097 . S
Co767 N808 2.151 . S
Co767 N816 2.214 . S
Co768 O769 2.160 . S
Co768 O774 2.058 . S
Co768 O784 2.057 . S
Co768 O799 2.037 . S
Co768 N803 2.145 . S
Co768 N824 2.257 . S
O769 Co767 2.143 . S
O769 Co768 2.160 . S
C770 O771 1.278 . S
C770 O778 1.224 . S
O771 C770 1.278 . S
C772 O773 1.245 . S
C772 O784 1.232 . S
O773 C772 1.245 . S
O774 Co768 2.058 . S
O774 C800 1.269 . S
O775 Co767 2.074 . S
O775 C800 1.257 . S
H776 C801 0.930 . S
H777 C807 0.930 . S
O778 Co767 2.093 . S
O778 C770 1.224 . S
H779 C811 0.929 . S
H780 C813 0.930 . S
H781 C814 0.930 . S
H782 C812 0.929 . S
H783 C815 0.928 . S
O784 Co768 2.057 . S
O784 C772 1.232 . S
H785 C804 0.929 . S
H786 C805 0.929 . S
H787 C817 0.931 . S
H788 C809 0.929 . S
H789 C818 0.930 . S
H790 C810 0.931 . S
O791 Co767 2.097 . S
O791 C819 1.214 . S
H792 C820 0.929 . S
H793 C821 0.929 . S
H794 C822 0.930 . S
H795 C823 0.929 . S
H796 C825 0.930 . S
H797 C802 0.930 . S
H798 C806 0.930 . S
O799 Co768 2.037 . S
O799 C819 1.234 . S
C800 O774 1.269 . S
C800 O775 1.257 . S
C801 H776 0.930 . S
C801 C804 1.388 . S
C801 C806 1.418 . S
C802 H797 0.930 . S
C802 C805 1.404 . S
C802 C806 1.353 . S
N803 Co768 2.145 . S
N803 C804 1.397 . S
N803 C805 1.334 . S
C804 H785 0.929 . S
C804 C801 1.388 . S
C804 N803 1.397 . S
C805 H786 0.929 . S
C805 C802 1.404 . S
C805 N803 1.334 . S
C806 H798 0.930 . S
C806 C801 1.418 . S
C806 C802 1.353 . S
C807 H777 0.930 . S
C807 N808 1.330 . S
C807 C809 1.446 . S
N808 Co767 2.151 . S
N808 C807 1.330 . S
N808 C812 1.418 . S
C809 H788 0.929 . S
C809 C807 1.446 . S
C809 C810 1.332 . S
C810 H790 0.931 . S
C810 C809 1.332 . S
C810 C811 1.267 . S
C811 H779 0.929 . S
C811 C810 1.267 . S
C811 C812 1.251 . S
C812 H782 0.929 . S
C812 N808 1.418 . S
C812 C811 1.251 . S
C813 H780 0.930 . S
C813 C815 1.406 . S
C813 C818 1.261 . S
C814 H781 0.930 . S
C814 N816 1.325 . S
C814 C817 1.357 . S
C815 H783 0.928 . S
C815 C813 1.406 . S
C815 N816 1.261 . S
N816 Co767 2.214 . S
N816 C814 1.325 . S
N816 C815 1.261 . S
C817 H787 0.931 . S
C817 C814 1.357 . S
C817 C818 1.312 . S
C818 H789 0.930 . S
C818 C813 1.261 . S
C818 C817 1.312 . S
C819 O791 1.214 . S
C819 O799 1.234 . S
C820 H792 0.929 . S
C820 C823 1.391 . S
C820 C825 1.391 . S
C821 H793 0.929 . S
C821 C822 1.390 . S
C821 N824 1.391 . S
C822 H794 0.930 . S
C822 C821 1.390 . S
C822 C823 1.392 . S
C823 H795 0.929 . S
C823 C820 1.391 . S
C823 C822 1.392 . S
N824 Co768 2.257 . S
N824 C821 1.391 . S
N824 C825 1.388 . S
C825 H796 0.930 . S
C825 C820 1.391 . S
C825 N824 1.388 . S
Co826 O828 2.143 . S
Co826 O834 2.074 . S
Co826 O837 2.093 . S
Co826 O850 2.097 . S
Co826 N867 2.151 . S
Co826 N875 2.214 . S
Co827 O828 2.160 . S
Co827 O833 2.058 . S
Co827 O843 2.057 . S
Co827 O858 2.037 . S
Co827 N862 2.145 1_554 S
Co827 N883 2.257 . S
O828 Co826 2.143 . S
O828 Co827 2.160 . S
C829 O830 1.278 . S
C829 O837 1.224 . S
O830 C829 1.278 . S
C831 O832 1.245 . S
C831 O843 1.232 . S
O832 C831 1.245 . S
O833 Co827 2.058 . S
O833 C859 1.269 . S
O834 Co826 2.074 . S
O834 C859 1.257 . S
H835 C860 0.930 . S
H836 C866 0.930 . S
O837 Co826 2.093 . S
O837 C829 1.224 . S
H838 C870 0.929 . S
H839 C872 0.930 . S
H840 C873 0.930 . S
H841 C871 0.929 . S
H842 C874 0.928 . S
O843 Co827 2.057 . S
O843 C831 1.232 . S
H844 C863 0.929 . S
H845 C864 0.929 . S
H846 C876 0.931 . S
H847 C868 0.929 . S
H848 C877 0.930 . S
H849 C869 0.931 . S
O850 Co826 2.097 . S
O850 C878 1.214 . S
H851 C879 0.929 . S
H852 C880 0.929 . S
H853 C881 0.930 . S
H854 C882 0.929 . S
H855 C884 0.930 . S
H856 C861 0.930 . S
H857 C865 0.930 . S
O858 Co827 2.037 . S
O858 C878 1.234 . S
C859 O833 1.269 . S
C859 O834 1.257 . S
C860 H835 0.930 . S
C860 C863 1.388 . S
C860 C865 1.418 . S
C861 H856 0.930 . S
C861 C864 1.404 . S
C861 C865 1.353 . S
N862 Co827 2.145 1_556 S
N862 C863 1.397 . S
N862 C864 1.334 . S
C863 H844 0.929 . S
C863 C860 1.388 . S
C863 N862 1.397 . S
C864 H845 0.929 . S
C864 C861 1.404 . S
C864 N862 1.334 . S
C865 H857 0.930 . S
C865 C860 1.418 . S
C865 C861 1.353 . S
C866 H836 0.930 . S
C866 N867 1.330 . S
C866 C868 1.446 . S
N867 Co826 2.151 . S
N867 C866 1.330 . S
N867 C871 1.418 . S
C868 H847 0.929 . S
C868 C866 1.446 . S
C868 C869 1.332 . S
C869 H849 0.931 . S
C869 C868 1.332 . S
C869 C870 1.267 . S
C870 H838 0.929 . S
C870 C869 1.267 . S
C870 C871 1.251 . S
C871 H841 0.929 . S
C871 N867 1.418 . S
C871 C870 1.251 . S
C872 H839 0.930 . S
C872 C874 1.406 . S
C872 C877 1.261 . S
C873 H840 0.930 . S
C873 N875 1.325 . S
C873 C876 1.357 . S
C874 H842 0.928 . S
C874 C872 1.406 . S
C874 N875 1.261 . S
N875 Co826 2.214 . S
N875 C873 1.325 . S
N875 C874 1.261 . S
C876 H846 0.931 . S
C876 C873 1.357 . S
C876 C877 1.312 . S
C877 H848 0.930 . S
C877 C872 1.261 . S
C877 C876 1.312 . S
C878 O850 1.214 . S
C878 O858 1.234 . S
C879 H851 0.929 . S
C879 C882 1.391 . S
C879 C884 1.391 . S
C880 H852 0.929 . S
C880 C881 1.390 . S
C880 N883 1.391 . S
C881 H853 0.930 . S
C881 C880 1.390 . S
C881 C882 1.392 . S
C882 H854 0.929 . S
C882 C879 1.391 . S
C882 C881 1.392 . S
N883 Co827 2.257 . S
N883 C880 1.391 . S
N883 C884 1.388 . S
C884 H855 0.930 . S
C884 C879 1.391 . S
C884 N883 1.388 . S
Co885 O887 2.143 . S
Co885 O893 2.074 . S
Co885 O896 2.093 . S
Co885 O909 2.097 . S
Co885 N926 2.151 . S
Co885 N934 2.214 . S
Co886 O887 2.160 . S
Co886 O892 2.058 . S
Co886 O902 2.057 . S
Co886 O917 2.037 . S
Co886 N921 2.145 . S
Co886 N942 2.257 . S
O887 Co885 2.143 . S
O887 Co886 2.160 . S
C888 O889 1.278 . S
C888 O896 1.224 . S
O889 C888 1.278 . S
C890 O891 1.245 . S
C890 O902 1.232 . S
O891 C890 1.245 . S
O892 Co886 2.058 . S
O892 C918 1.269 . S
O893 Co885 2.074 . S
O893 C918 1.257 . S
H894 C919 0.930 . S
H895 C925 0.930 . S
O896 Co885 2.093 . S
O896 C888 1.224 . S
H897 C929 0.929 . S
H898 C931 0.930 . S
H899 C932 0.930 . S
H900 C930 0.929 . S
H901 C933 0.928 . S
O902 Co886 2.057 . S
O902 C890 1.232 . S
H903 C922 0.929 . S
H904 C923 0.929 . S
H905 C935 0.931 . S
H906 C927 0.929 . S
H907 C936 0.930 . S
H908 C928 0.931 . S
O909 Co885 2.097 . S
O909 C937 1.214 . S
H910 C938 0.929 . S
H911 C939 0.929 . S
H912 C940 0.930 . S
H913 C941 0.929 . S
H914 C943 0.930 . S
H915 C920 0.930 . S
H916 C924 0.930 . S
O917 Co886 2.037 . S
O917 C937 1.234 . S
C918 O892 1.269 . S
C918 O893 1.257 . S
C919 H894 0.930 . S
C919 C922 1.388 . S
C919 C924 1.418 . S
C920 H915 0.930 . S
C920 C923 1.404 . S
C920 C924 1.353 . S
N921 Co886 2.145 . S
N921 C922 1.397 . S
N921 C923 1.334 . S
C922 H903 0.929 . S
C922 C919 1.388 . S
C922 N921 1.397 . S
C923 H904 0.929 . S
C923 C920 1.404 . S
C923 N921 1.334 . S
C924 H916 0.930 . S
C924 C919 1.418 . S
C924 C920 1.353 . S
C925 H895 0.930 . S
C925 N926 1.330 . S
C925 C927 1.446 . S
N926 Co885 2.151 . S
N926 C925 1.330 . S
N926 C930 1.418 . S
C927 H906 0.929 . S
C927 C925 1.446 . S
C927 C928 1.332 . S
C928 H908 0.931 . S
C928 C927 1.332 . S
C928 C929 1.267 . S
C929 H897 0.929 . S
C929 C928 1.267 . S
C929 C930 1.251 . S
C930 H900 0.929 . S
C930 N926 1.418 . S
C930 C929 1.251 . S
C931 H898 0.930 . S
C931 C933 1.406 . S
C931 C936 1.261 . S
C932 H899 0.930 . S
C932 N934 1.325 . S
C932 C935 1.357 . S
C933 H901 0.928 . S
C933 C931 1.406 . S
C933 N934 1.261 . S
N934 Co885 2.214 . S
N934 C932 1.325 . S
N934 C933 1.261 . S
C935 H905 0.931 . S
C935 C932 1.357 . S
C935 C936 1.312 . S
C936 H907 0.930 . S
C936 C931 1.261 . S
C936 C935 1.312 . S
C937 O909 1.214 . S
C937 O917 1.234 . S
C938 H910 0.929 . S
C938 C941 1.391 . S
C938 C943 1.391 . S
C939 H911 0.929 . S
C939 C940 1.390 . S
C939 N942 1.391 . S
C940 H912 0.930 . S
C940 C939 1.390 . S
C940 C941 1.392 . S
C941 H913 0.929 . S
C941 C938 1.391 . S
C941 C940 1.392 . S
N942 Co886 2.257 . S
N942 C939 1.391 . S
N942 C943 1.388 . S
C943 H914 0.930 . S
C943 C938 1.391 . S
C943 N942 1.388 . S
C944 C945 1.387 . S
C944 H948 0.950 . S
C944 C953 1.390 . S
C945 C944 1.387 . S
C945 C947 1.387 1_554 S
H946 C953 0.950 . S
C947 C945 1.387 1_556 S
C947 C949 1.390 . S
C947 H951 0.950 . S
H948 C944 0.950 . S
C949 C947 1.390 . S
C949 C950 1.387 . S
C949 H952 0.950 . S
C950 C949 1.387 . S
C950 C953 1.387 1_556 S
H951 C947 0.950 . S
H952 C949 0.950 . S
C953 C944 1.390 . S
C953 H946 0.950 . S
C953 C950 1.387 1_554 S
C954 C955 1.387 . S
C954 H958 0.950 . S
C954 C963 1.390 . S
C955 C954 1.387 . S
C955 C957 1.387 . S
H956 C963 0.950 . S
C957 C955 1.387 . S
C957 C959 1.390 . S
C957 H961 0.950 . S
H958 C954 0.950 . S
C959 C957 1.390 . S
C959 C960 1.387 . S
C959 H962 0.950 . S
C960 C959 1.387 . S
C960 C963 1.387 . S
H961 C957 0.950 . S
H962 C959 0.950 . S
C963 C954 1.390 . S
C963 H956 0.950 . S
C963 C960 1.387 . S
C964 C965 1.387 . S
C964 H968 0.950 . S
C964 C973 1.390 1_556 S
C965 C964 1.387 . S
C965 C967 1.387 . S
H966 C973 0.950 . S
C967 C965 1.387 . S
C967 C969 1.390 . S
C967 H971 0.950 . S
H968 C964 0.950 . S
C969 C967 1.390 . S
C969 C970 1.387 1_556 S
C969 H972 0.950 . S
C970 C969 1.387 1_554 S
C970 C973 1.387 . S
H971 C967 0.950 . S
H972 C969 0.950 . S
C973 C964 1.390 1_554 S
C973 H966 0.950 . S
C973 C970 1.387 . S
C974 C975 1.387 . S
C974 H978 0.950 . S
C974 C983 1.390 . S
C975 C974 1.387 . S
C975 C977 1.387 . S
H976 C983 0.950 . S
C977 C975 1.387 . S
C977 C979 1.390 . S
C977 H981 0.950 . S
H978 C974 0.950 . S
C979 C977 1.390 . S
C979 C980 1.387 . S
C979 H982 0.950 . S
C980 C979 1.387 . S
C980 C983 1.387 . S
H981 C977 0.950 . S
H982 C979 0.950 . S
C983 C974 1.390 . S
C983 H976 0.950 . S
C983 C980 1.387 . S
C984 C985 1.387 . S
C984 H988 0.950 . S
C984 C993 1.390 . S
C985 C984 1.387 . S
C985 C987 1.387 1_554 S
H986 C993 0.950 . S
C987 C985 1.387 1_556 S
C987 C989 1.390 . S
C987 H991 0.950 . S
H988 C984 0.950 . S
C989 C987 1.390 . S
C989 C990 1.387 . S
C989 H992 0.950 . S
C990 C989 1.387 . S
C990 C993 1.387 1_556 S
H991 C987 0.950 . S
H992 C989 0.950 . S
C993 C984 1.390 . S
C993 H986 0.950 . S
C993 C990 1.387 1_554 S
C994 C995 1.387 . S
C994 H998 0.950 . S
C994 C1003 1.390 . S
C995 C994 1.387 . S
C995 C997 1.387 . S
H996 C1003 0.950 . S
C997 C995 1.387 . S
C997 C999 1.390 . S
C997 H1001 0.950 . S
H998 C994 0.950 . S
C999 C997 1.390 . S
C999 C1000 1.387 . S
C999 H1002 0.950 . S
C1000 C999 1.387 . S
C1000 C1003 1.387 . S
H1001 C997 0.950 . S
H1002 C999 0.950 . S
C1003 C994 1.390 . S
C1003 H996 0.950 . S
C1003 C1000 1.387 . S
C1004 C1005 1.387 . S
C1004 H1008 0.950 . S
C1004 C1013 1.390 . S
C1005 C1004 1.387 . S
C1005 C1007 1.387 1_556 S
H1006 C1013 0.950 . S
C1007 C1005 1.387 1_554 S
C1007 C1009 1.390 . S
C1007 H1011 0.950 . S
H1008 C1004 0.950 . S
C1009 C1007 1.390 . S
C1009 C1010 1.387 . S
C1009 H1012 0.950 . S
C1010 C1009 1.387 . S
C1010 C1013 1.387 1_554 S
H1011 C1007 0.950 . S
H1012 C1009 0.950 . S
C1013 C1004 1.390 . S
C1013 H1006 0.950 . S
C1013 C1010 1.387 1_556 S
C1014 C1015 1.387 . S
C1014 H1018 0.950 . S
C1014 C1023 1.390 . S
C1015 C1014 1.387 . S
C1015 C1017 1.387 . S
H1016 C1023 0.950 . S
C1017 C1015 1.387 . S
C1017 C1019 1.390 . S
C1017 H1021 0.950 . S
H1018 C1014 0.950 . S
C1019 C1017 1.390 . S
C1019 C1020 1.387 . S
C1019 H1022 0.950 . S
C1020 C1019 1.387 . S
C1020 C1023 1.387 . S
H1021 C1017 0.950 . S
H1022 C1019 0.950 . S
C1023 C1014 1.390 . S
C1023 H1016 0.950 . S
C1023 C1020 1.387 . S
C1024 C1025 1.387 . S
C1024 H1028 0.950 . S
C1024 C1033 1.390 1_544 S
C1025 C1024 1.387 . S
C1025 C1027 1.387 . S
H1026 C1033 0.950 . S
C1027 C1025 1.387 . S
C1027 C1029 1.390 1_544 S
C1027 H1031 0.950 . S
H1028 C1024 0.950 . S
C1029 C1027 1.390 1_566 S
C1029 C1030 1.387 . S
C1029 H1032 0.950 . S
C1030 C1029 1.387 . S
C1030 C1033 1.387 . S
H1031 C1027 0.950 . S
H1032 C1029 0.950 . S
C1033 C1024 1.390 1_566 S
C1033 H1026 0.950 . S
C1033 C1030 1.387 . S
C1034 C1035 1.387 . S
C1034 H1038 0.950 . S
C1034 C1043 1.390 1_565 S
C1035 C1034 1.387 . S
C1035 C1037 1.387 . S
H1036 C1043 0.950 . S
C1037 C1035 1.387 . S
C1037 C1039 1.390 1_565 S
C1037 H1041 0.950 . S
H1038 C1034 0.950 . S
C1039 C1037 1.390 1_545 S
C1039 C1040 1.387 . S
C1039 H1042 0.950 . S
C1040 C1039 1.387 . S
C1040 C1043 1.387 . S
H1041 C1037 0.950 . S
H1042 C1039 0.950 . S
C1043 C1034 1.390 1_545 S
C1043 H1036 0.950 . S
C1043 C1040 1.387 . S
C1044 C1045 1.387 . S
C1044 H1048 0.950 . S
C1044 C1053 1.390 1_566 S
C1045 C1044 1.387 . S
C1045 C1047 1.387 . S
H1046 C1053 0.950 . S
C1047 C1045 1.387 . S
C1047 C1049 1.390 1_566 S
C1047 H1051 0.950 . S
H1048 C1044 0.950 . S
C1049 C1047 1.390 1_544 S
C1049 C1050 1.387 . S
C1049 H1052 0.950 . S
C1050 C1049 1.387 . S
C1050 C1053 1.387 . S
H1051 C1047 0.950 . S
H1052 C1049 0.950 . S
C1053 C1044 1.390 1_544 S
C1053 H1046 0.950 . S
C1053 C1050 1.387 . S
C1054 C1055 1.387 . S
C1054 H1058 0.950 . S
C1054 C1063 1.390 1_545 S
C1055 C1054 1.387 . S
C1055 C1057 1.387 . S
H1056 C1063 0.950 . S
C1057 C1055 1.387 . S
C1057 C1059 1.390 1_545 S
C1057 H1061 0.950 . S
H1058 C1054 0.950 . S
C1059 C1057 1.390 1_565 S
C1059 C1060 1.387 . S
C1059 H1062 0.950 . S
C1060 C1059 1.387 . S
C1060 C1063 1.387 . S
H1061 C1057 0.950 . S
H1062 C1059 0.950 . S
C1063 C1054 1.390 1_565 S
C1063 H1056 0.950 . S
C1063 C1060 1.387 . S
C1064 C1065 1.387 . S
C1064 H1068 0.950 . S
C1064 C1073 1.390 1_556 S
C1065 C1064 1.387 . S
C1065 C1067 1.387 . S
H1066 C1073 0.950 . S
C1067 C1065 1.387 . S
C1067 C1069 1.390 1_556 S
C1067 H1071 0.950 . S
H1068 C1064 0.950 . S
C1069 C1067 1.390 1_554 S
C1069 C1070 1.387 . S
C1069 H1072 0.950 . S
C1070 C1069 1.387 . S
C1070 C1073 1.387 . S
H1071 C1067 0.950 . S
H1072 C1069 0.950 . S
C1073 C1064 1.390 1_554 S
C1073 H1066 0.950 . S
C1073 C1070 1.387 . S
C1074 C1075 1.387 . S
C1074 H1078 0.950 . S
C1074 C1083 1.390 . S
C1075 C1074 1.387 . S
C1075 C1077 1.387 . S
H1076 C1083 0.950 . S
C1077 C1075 1.387 . S
C1077 C1079 1.390 . S
C1077 H1081 0.950 . S
H1078 C1074 0.950 . S
C1079 C1077 1.390 . S
C1079 C1080 1.387 . S
C1079 H1082 0.950 . S
C1080 C1079 1.387 . S
C1080 C1083 1.387 . S
H1081 C1077 0.950 . S
H1082 C1079 0.950 . S
C1083 C1074 1.390 . S
C1083 H1076 0.950 . S
C1083 C1080 1.387 . S
C1084 C1085 1.387 . S
C1084 H1088 0.950 . S
C1084 C1093 1.390 1_554 S
C1085 C1084 1.387 . S
C1085 C1087 1.387 . S
H1086 C1093 0.950 . S
C1087 C1085 1.387 . S
C1087 C1089 1.390 1_554 S
C1087 H1091 0.950 . S
H1088 C1084 0.950 . S
C1089 C1087 1.390 1_556 S
C1089 C1090 1.387 . S
C1089 H1092 0.950 . S
C1090 C1089 1.387 . S
C1090 C1093 1.387 . S
H1091 C1087 0.950 . S
H1092 C1089 0.950 . S
C1093 C1084 1.390 1_556 S
C1093 H1086 0.950 . S
C1093 C1090 1.387 . S
C1094 C1095 1.387 . S
C1094 H1098 0.950 . S
C1094 C1103 1.390 . S
C1095 C1094 1.387 . S
C1095 C1097 1.387 . S
H1096 C1103 0.950 . S
C1097 C1095 1.387 . S
C1097 C1099 1.390 . S
C1097 H1101 0.950 . S
H1098 C1094 0.950 . S
C1099 C1097 1.390 . S
C1099 C1100 1.387 . S
C1099 H1102 0.950 . S
C1100 C1099 1.387 . S
C1100 C1103 1.387 . S
H1101 C1097 0.950 . S
H1102 C1099 0.950 . S
C1103 C1094 1.390 . S
C1103 H1096 0.950 . S
C1103 C1100 1.387 . S
C1104 C1105 1.387 . S
C1104 H1108 0.950 . S
C1104 C1113 1.390 . S
C1105 C1104 1.387 . S
C1105 C1107 1.387 . S
H1106 C1113 0.950 . S
C1107 C1105 1.387 . S
C1107 C1109 1.390 . S
C1107 H1111 0.950 . S
H1108 C1104 0.950 . S
C1109 C1107 1.390 . S
C1109 C1110 1.387 . S
C1109 H1112 0.950 . S
C1110 C1109 1.387 . S
C1110 C1113 1.387 . S
H1111 C1107 0.950 . S
H1112 C1109 0.950 . S
C1113 C1104 1.390 . S
C1113 H1106 0.950 . S
C1113 C1110 1.387 . S
C1114 C1115 1.387 . S
C1114 H1118 0.950 . S
C1114 C1123 1.390 . S
C1115 C1114 1.387 . S
C1115 C1117 1.387 . S
H1116 C1123 0.950 . S
C1117 C1115 1.387 . S
C1117 C1119 1.390 . S
C1117 H1121 0.950 . S
H1118 C1114 0.950 . S
C1119 C1117 1.390 . S
C1119 C1120 1.387 1_655 S
C1119 H1122 0.950 1_655 S
C1120 C1119 1.387 1_455 S
C1120 C1123 1.387 1_455 S
H1121 C1117 0.950 . S
H1122 C1119 0.950 1_455 S
C1123 C1114 1.390 . S
C1123 H1116 0.950 . S
C1123 C1120 1.387 1_655 S
C1124 C1125 1.387 . S
C1124 H1128 0.950 . S
C1124 C1133 1.390 . S
C1125 C1124 1.387 . S
C1125 C1127 1.387 . S
H1126 C1133 0.950 . S
C1127 C1125 1.387 . S
C1127 C1129 1.390 . S
C1127 H1131 0.950 . S
H1128 C1124 0.950 . S
C1129 C1127 1.390 . S
C1129 C1130 1.387 . S
C1129 H1132 0.950 . S
C1130 C1129 1.387 . S
C1130 C1133 1.387 . S
H1131 C1127 0.950 . S
H1132 C1129 0.950 . S
C1133 C1124 1.390 . S
C1133 H1126 0.950 . S
C1133 C1130 1.387 . S
C1134 C1135 1.387 1_655 S
C1134 H1138 0.950 1_655 S
C1134 C1143 1.390 . S
C1135 C1134 1.387 1_455 S
C1135 C1137 1.387 1_455 S
H1136 C1143 0.950 . S
C1137 C1135 1.387 1_655 S
C1137 C1139 1.390 . S
C1137 H1141 0.939 1_655 S
H1138 C1134 0.950 1_455 S
C1139 C1137 1.390 . S
C1139 C1140 1.387 . S
C1139 H1142 0.950 . S
C1140 C1139 1.387 . S
C1140 C1143 1.387 . S
H1141 C1137 0.939 1_455 S
H1142 C1139 0.950 . S
C1143 C1134 1.390 . S
C1143 H1136 0.950 . S
C1143 C1140 1.387 . S
C1144 C1145 1.387 . S
C1144 H1148 0.950 . S
C1144 C1153 1.390 . S
C1145 C1144 1.387 . S
C1145 C1147 1.387 . S
H1146 C1153 0.950 1_655 S
C1147 C1145 1.387 . S
C1147 C1149 1.390 . S
C1147 H1151 0.950 . S
H1148 C1144 0.950 . S
C1149 C1147 1.390 . S
C1149 C1150 1.387 1_455 S
C1149 H1152 0.950 1_455 S
C1150 C1149 1.387 1_655 S
C1150 C1153 1.387 1_655 S
H1151 C1147 0.950 . S
H1152 C1149 0.950 1_655 S
C1153 C1144 1.390 . S
C1153 H1146 0.950 1_455 S
C1153 C1150 1.387 1_455 S
C1154 C1155 1.387 . S
C1154 H1158 0.950 . S
C1154 C1163 1.390 . S
C1155 C1154 1.387 . S
C1155 C1157 1.387 . S
H1156 C1163 0.950 . S
C1157 C1155 1.387 . S
C1157 C1159 1.390 . S
C1157 H1161 0.950 . S
H1158 C1154 0.950 . S
C1159 C1157 1.390 . S
C1159 C1160 1.387 . S
C1159 H1162 0.950 . S
C1160 C1159 1.387 . S
C1160 C1163 1.387 . S
H1161 C1157 0.950 . S
H1162 C1159 0.950 . S
C1163 C1154 1.390 . S
C1163 H1156 0.950 . S
C1163 C1160 1.387 . S
C1164 C1165 1.387 . S
C1164 H1168 0.950 . S
C1164 C1173 1.390 . S
C1165 C1164 1.387 . S
C1165 C1167 1.387 . S
H1166 C1173 0.950 1_655 S
C1167 C1165 1.387 . S
C1167 C1169 1.390 . S
C1167 H1171 0.950 . S
H1168 C1164 0.950 . S
C1169 C1167 1.390 . S
C1169 C1170 1.387 1_455 S
C1169 H1172 0.950 1_455 S
C1170 C1169 1.387 1_655 S
C1170 C1173 1.387 1_655 S
H1171 C1167 0.950 . S
H1172 C1169 0.950 1_655 S
C1173 C1164 1.390 . S
C1173 H1166 0.950 1_455 S
C1173 C1170 1.387 1_455 S
C1174 C1175 1.387 . S
C1174 H1178 0.950 . S
C1174 C1183 1.390 . S
C1175 C1174 1.387 . S
C1175 C1177 1.387 . S
H1176 C1183 0.950 . S
C1177 C1175 1.387 . S
C1177 C1179 1.390 . S
C1177 H1181 0.950 . S
H1178 C1174 0.950 . S
C1179 C1177 1.390 . S
C1179 C1180 1.387 . S
C1179 H1182 0.950 . S
C1180 C1179 1.387 . S
C1180 C1183 1.387 . S
H1181 C1177 0.950 . S
H1182 C1179 0.950 . S
C1183 C1174 1.390 . S
C1183 H1176 0.950 . S
C1183 C1180 1.387 . S
C1184 C1185 1.387 . S
C1184 H1188 0.950 . S
C1184 C1193 1.390 . S
C1185 C1184 1.387 . S
C1185 C1187 1.387 . S
H1186 C1193 0.950 . S
C1187 C1185 1.387 . S
C1187 C1189 1.390 . S
C1187 H1191 0.950 . S
H1188 C1184 0.950 . S
C1189 C1187 1.390 . S
C1189 C1190 1.387 . S
C1189 H1192 0.950 . S
C1190 C1189 1.387 . S
C1190 C1193 1.387 . S
H1191 C1187 0.950 . S
H1192 C1189 0.950 . S
C1193 C1184 1.390 . S
C1193 H1186 0.950 . S
C1193 C1190 1.387 . S
C1194 C1195 1.387 . S
C1194 H1198 0.950 . S
C1194 C1203 1.390 . S
C1195 C1194 1.387 . S
C1195 C1197 1.387 . S
H1196 C1203 0.950 . S
C1197 C1195 1.387 . S
C1197 C1199 1.390 . S
C1197 H1201 0.950 . S
H1198 C1194 0.950 . S
C1199 C1197 1.390 . S
C1199 C1200 1.387 . S
C1199 H1202 0.950 . S
C1200 C1199 1.387 . S
C1200 C1203 1.387 . S
H1201 C1197 0.950 . S
H1202 C1199 0.950 . S
C1203 C1194 1.390 . S
C1203 H1196 0.950 . S
C1203 C1200 1.387 . S
C1204 C1205 1.387 . S
C1204 H1208 0.950 . S
C1204 C1213 1.390 . S
C1205 C1204 1.387 . S
C1205 C1207 1.387 . S
H1206 C1213 0.950 . S
C1207 C1205 1.387 . S
C1207 C1209 1.390 . S
C1207 H1211 0.950 . S
H1208 C1204 0.950 . S
C1209 C1207 1.390 . S
C1209 C1210 1.387 . S
C1209 H1212 0.950 . S
C1210 C1209 1.387 . S
C1210 C1213 1.387 . S
H1211 C1207 0.950 . S
H1212 C1209 0.950 . S
C1213 C1204 1.390 . S
C1213 H1206 0.950 . S
C1213 C1210 1.387 . S
C1214 C1215 1.387 . S
C1214 H1218 0.950 . S
C1214 C1223 1.390 . S
C1215 C1214 1.387 . S
C1215 C1217 1.387 . S
H1216 C1223 0.950 . S
C1217 C1215 1.387 . S
C1217 C1219 1.390 . S
C1217 H1221 0.950 . S
H1218 C1214 0.950 . S
C1219 C1217 1.390 . S
C1219 C1220 1.387 . S
C1219 H1222 0.950 . S
C1220 C1219 1.387 . S
C1220 C1223 1.387 . S
H1221 C1217 0.950 . S
H1222 C1219 0.950 . S
C1223 C1214 1.390 . S
C1223 H1216 0.950 . S
C1223 C1220 1.387 . S
C1224 C1225 1.387 . S
C1224 H1228 0.950 . S
C1224 C1233 1.390 . S
C1225 C1224 1.387 . S
C1225 C1227 1.387 . S
H1226 C1233 0.950 . S
C1227 C1225 1.387 . S
C1227 C1229 1.390 . S
C1227 H1231 0.950 . S
H1228 C1224 0.950 . S
C1229 C1227 1.390 . S
C1229 C1230 1.387 . S
C1229 H1232 0.950 . S
C1230 C1229 1.387 . S
C1230 C1233 1.387 . S
H1231 C1227 0.950 . S
H1232 C1229 0.950 . S
C1233 C1224 1.390 . S
C1233 H1226 0.950 . S
C1233 C1230 1.387 . S
C1234 C1235 1.387 . S
C1234 H1238 0.950 . S
C1234 C1243 1.390 . S
C1235 C1234 1.387 . S
C1235 C1237 1.387 . S
H1236 C1243 0.950 . S
C1237 C1235 1.387 . S
C1237 C1239 1.390 . S
C1237 H1241 0.950 . S
H1238 C1234 0.950 . S
C1239 C1237 1.390 . S
C1239 C1240 1.387 . S
C1239 H1242 0.950 . S
C1240 C1239 1.387 . S
C1240 C1243 1.387 . S
H1241 C1237 0.950 . S
H1242 C1239 0.950 . S
C1243 C1234 1.390 . S
C1243 H1236 0.950 . S
C1243 C1240 1.387 . S
C1244 C1245 1.387 . S
C1244 H1248 0.950 . S
C1244 C1253 1.390 . S
C1245 C1244 1.387 . S
C1245 C1247 1.387 . S
H1246 C1253 0.950 . S
C1247 C1245 1.387 . S
C1247 C1249 1.390 . S
C1247 H1251 0.950 . S
H1248 C1244 0.950 . S
C1249 C1247 1.390 . S
C1249 C1250 1.387 . S
C1249 H1252 0.950 . S
C1250 C1249 1.387 . S
C1250 C1253 1.387 . S
H1251 C1247 0.950 . S
H1252 C1249 0.950 . S
C1253 C1244 1.390 . S
C1253 H1246 0.950 . S
C1253 C1250 1.387 . S
C1254 C1255 1.387 . S
C1254 H1258 0.950 . S
C1254 C1263 1.390 . S
C1255 C1254 1.387 . S
C1255 C1257 1.387 . S
H1256 C1263 0.950 . S
C1257 C1255 1.387 . S
C1257 C1259 1.390 . S
C1257 H1261 0.950 . S
H1258 C1254 0.950 . S
C1259 C1257 1.390 . S
C1259 C1260 1.387 . S
C1259 H1262 0.950 . S
C1260 C1259 1.387 . S
C1260 C1263 1.387 . S
H1261 C1257 0.950 . S
H1262 C1259 0.950 . S
C1263 C1254 1.390 . S
C1263 H1256 0.950 . S
C1263 C1260 1.387 . S
C945 C3 1.616 . S
C950 C713 1.620 . S
C955 C772 1.619 . S
C960 C62 1.617 . S
C965 C121 1.615 . S
C970 C831 1.619 . S
C975 C890 1.620 . S
C980 C180 1.616 . S
C985 C475 1.616 . S
C990 C241 1.620 . S
C995 C300 1.620 . S
C1000 C534 1.616 . S
C1005 C593 1.616 . S
C1010 C359 1.620 . S
C1015 C418 1.618 . S
C1020 C652 1.616 . S
C1025 C33 1.801 . S
C1030 C151 1.801 . S
C1035 C92 1.801 . S
C1040 C210 1.801 . S
C1045 C269 1.649 . S
C1050 C387 1.649 . S
C1055 C328 1.649 . S
C1060 C446 1.649 . S
C1065 C623 1.804 . S
C1070 C505 1.804 . S
C1075 C564 1.801 . S
C1080 C682 1.801 . S
C1085 C859 1.652 . S
C1090 C741 1.652 . S
C1095 C800 1.652 . S
C1100 C918 1.652 . S
C1105 C406 1.663 . S
C1110 C52 1.674 . S
C1115 C465 1.662 . S
C1120 C111 1.674 . S
C1125 C170 1.673 . S
C1130 C288 1.661 . S
C1135 C229 1.674 . S
C1140 C347 1.663 . S
C1145 C878 1.661 . S
C1150 C524 1.673 . S
C1155 C583 1.673 . S
C1160 C937 1.661 . S
C1165 C760 1.663 . S
C1170 C642 1.675 . S
C1175 C701 1.675 . S
C1180 C819 1.663 . S
C1185 C5 1.788 . S
C1190 C182 1.788 . S
C1195 C123 1.788 . S
C1200 C64 1.788 . S
C1205 C239 1.342 . S
C1210 C416 1.342 . S
C1215 C298 1.342 . S
C1220 C357 1.342 . S
C1225 C654 1.788 . S
C1230 C477 1.788 . S
C1235 C536 1.787 . S
C1240 C595 1.787 . S
C1245 C888 1.341 . S
C1250 C711 1.341 . S
C1255 C770 1.341 . S
C1260 C829 1.341 . S
