# Generated by pormake.
# Topology wiu, (6)-cn, num edge types: 1
# Building blocks:
#     Node 0, Type 0, BuildingBlock: CUKXOW_clean_sbu_0, # of connection points: 6
#     Node 1, Type 0, BuildingBlock: CUKXOW_clean_sbu_0, # of connection points: 6
#     Node 2, Type 0, BuildingBlock: CUKXOW_clean_sbu_0, # of connection points: 6
#     Node 3, Type 0, BuildingBlock: CUKXOW_clean_sbu_0, # of connection points: 6
#     Node 4, Type 0, BuildingBlock: CUKXOW_clean_sbu_0, # of connection points: 6
#     Node 5, Type 0, BuildingBlock: CUKXOW_clean_sbu_0, # of connection points: 6
#     Node 6, Type 0, BuildingBlock: CUKXOW_clean_sbu_0, # of connection points: 6
#     Node 7, Type 0, BuildingBlock: CUKXOW_clean_sbu_0, # of connection points: 6
#     Node 8, Type 0, BuildingBlock: CUKXOW_clean_sbu_0, # of connection points: 6
#     Node 9, Type 0, BuildingBlock: CUKXOW_clean_sbu_0, # of connection points: 6
#     Node 10, Type 0, BuildingBlock: CUKXOW_clean_sbu_0, # of connection points: 6
#     Node 11, Type 0, BuildingBlock: CUKXOW_clean_sbu_0, # of connection points: 6
#     Node 12, Type 0, BuildingBlock: CUKXOW_clean_sbu_0, # of connection points: 6
#     Node 13, Type 0, BuildingBlock: CUKXOW_clean_sbu_0, # of connection points: 6
#     Node 14, Type 0, BuildingBlock: CUKXOW_clean_sbu_0, # of connection points: 6
#     Node 15, Type 0, BuildingBlock: CUKXOW_clean_sbu_0, # of connection points: 6
#     Edge 16, Type (0, 0), BuildingBlock: UVAHIK_clean_linker_0, # of connection points: 2
#     Edge 17, Type (0, 0), BuildingBlock: UVAHIK_clean_linker_0, # of connection points: 2
#     Edge 18, Type (0, 0), BuildingBlock: UVAHIK_clean_linker_0, # of connection points: 2
#     Edge 19, Type (0, 0), BuildingBlock: UVAHIK_clean_linker_0, # of connection points: 2
#     Edge 20, Type (0, 0), BuildingBlock: UVAHIK_clean_linker_0, # of connection points: 2
#     Edge 21, Type (0, 0), BuildingBlock: UVAHIK_clean_linker_0, # of connection points: 2
#     Edge 22, Type (0, 0), BuildingBlock: UVAHIK_clean_linker_0, # of connection points: 2
#     Edge 23, Type (0, 0), BuildingBlock: UVAHIK_clean_linker_0, # of connection points: 2
#     Edge 24, Type (0, 0), BuildingBlock: UVAHIK_clean_linker_0, # of connection points: 2
#     Edge 25, Type (0, 0), BuildingBlock: UVAHIK_clean_linker_0, # of connection points: 2
#     Edge 26, Type (0, 0), BuildingBlock: UVAHIK_clean_linker_0, # of connection points: 2
#     Edge 27, Type (0, 0), BuildingBlock: UVAHIK_clean_linker_0, # of connection points: 2
#     Edge 28, Type (0, 0), BuildingBlock: UVAHIK_clean_linker_0, # of connection points: 2
#     Edge 29, Type (0, 0), BuildingBlock: UVAHIK_clean_linker_0, # of connection points: 2
#     Edge 30, Type (0, 0), BuildingBlock: UVAHIK_clean_linker_0, # of connection points: 2
#     Edge 31, Type (0, 0), BuildingBlock: UVAHIK_clean_linker_0, # of connection points: 2
#     Edge 32, Type (0, 0), BuildingBlock: UVAHIK_clean_linker_0, # of connection points: 2
#     Edge 33, Type (0, 0), BuildingBlock: UVAHIK_clean_linker_0, # of connection points: 2
#     Edge 34, Type (0, 0), BuildingBlock: UVAHIK_clean_linker_0, # of connection points: 2
#     Edge 35, Type (0, 0), BuildingBlock: UVAHIK_clean_linker_0, # of connection points: 2
#     Edge 36, Type (0, 0), BuildingBlock: UVAHIK_clean_linker_0, # of connection points: 2
#     Edge 37, Type (0, 0), BuildingBlock: UVAHIK_clean_linker_0, # of connection points: 2
#     Edge 38, Type (0, 0), BuildingBlock: UVAHIK_clean_linker_0, # of connection points: 2
#     Edge 39, Type (0, 0), BuildingBlock: UVAHIK_clean_linker_0, # of connection points: 2
#     Edge 40, Type (0, 0), BuildingBlock: UVAHIK_clean_linker_0, # of connection points: 2
#     Edge 41, Type (0, 0), BuildingBlock: UVAHIK_clean_linker_0, # of connection points: 2
#     Edge 42, Type (0, 0), BuildingBlock: UVAHIK_clean_linker_0, # of connection points: 2
#     Edge 43, Type (0, 0), BuildingBlock: UVAHIK_clean_linker_0, # of connection points: 2
#     Edge 44, Type (0, 0), BuildingBlock: UVAHIK_clean_linker_0, # of connection points: 2
#     Edge 45, Type (0, 0), BuildingBlock: UVAHIK_clean_linker_0, # of connection points: 2
#     Edge 46, Type (0, 0), BuildingBlock: UVAHIK_clean_linker_0, # of connection points: 2
#     Edge 47, Type (0, 0), BuildingBlock: UVAHIK_clean_linker_0, # of connection points: 2
#     Edge 48, Type (0, 0), BuildingBlock: UVAHIK_clean_linker_0, # of connection points: 2
#     Edge 49, Type (0, 0), BuildingBlock: UVAHIK_clean_linker_0, # of connection points: 2
#     Edge 50, Type (0, 0), BuildingBlock: UVAHIK_clean_linker_0, # of connection points: 2
#     Edge 51, Type (0, 0), BuildingBlock: UVAHIK_clean_linker_0, # of connection points: 2
#     Edge 52, Type (0, 0), BuildingBlock: UVAHIK_clean_linker_0, # of connection points: 2
#     Edge 53, Type (0, 0), BuildingBlock: UVAHIK_clean_linker_0, # of connection points: 2
#     Edge 54, Type (0, 0), BuildingBlock: UVAHIK_clean_linker_0, # of connection points: 2
#     Edge 55, Type (0, 0), BuildingBlock: UVAHIK_clean_linker_0, # of connection points: 2
#     Edge 56, Type (0, 0), BuildingBlock: UVAHIK_clean_linker_0, # of connection points: 2
#     Edge 57, Type (0, 0), BuildingBlock: UVAHIK_clean_linker_0, # of connection points: 2
#     Edge 58, Type (0, 0), BuildingBlock: UVAHIK_clean_linker_0, # of connection points: 2
#     Edge 59, Type (0, 0), BuildingBlock: UVAHIK_clean_linker_0, # of connection points: 2
#     Edge 60, Type (0, 0), BuildingBlock: UVAHIK_clean_linker_0, # of connection points: 2
#     Edge 61, Type (0, 0), BuildingBlock: UVAHIK_clean_linker_0, # of connection points: 2
#     Edge 62, Type (0, 0), BuildingBlock: UVAHIK_clean_linker_0, # of connection points: 2
#     Edge 63, Type (0, 0), BuildingBlock: UVAHIK_clean_linker_0, # of connection points: 2
# Relax obj value: 0.183
# Max RMSD: 0.249
# Mean RMSD: 0.249
data_MOF--net-wiu--node1-CUKXOW_clean_sbu_0--edge1-UVAHIK_clean_linker_0
_symmetry_space_group_name_H-M    P1
_symmetry_Int_Tables_number       1
_symmetry_cell_setting            triclinic
loop_
_symmetry_equiv_pos_as_xyz
'x, y, z'
_cell_length_a     34.020828
_cell_length_b     34.063927
_cell_length_c     86.515003
_cell_angle_alpha  90.021863
_cell_angle_beta   90.008241
_cell_angle_gamma 89.917034
loop_
_atom_site_label
_atom_site_type_symbol
_atom_site_fract_x
_atom_site_fract_y
_atom_site_fract_z
_atom_type_partial_charge
Tb0 Tb 0.33763 0.07015 0.09089 0.0
C1 C 0.38535 0.11938 0.06704 0.0
Tb2 Tb 0.30022 0.09113 0.06054 0.0
O3 O 0.38614 0.03694 0.08126 0.0
O4 O 0.33457 0.04248 0.06859 0.0
O5 O 0.37818 0.11424 0.08201 0.0
C6 C 0.26924 0.09044 0.03221 0.0
O7 O 0.3601 0.10873 0.0562 0.0
C8 C 0.30071 0.14815 0.08114 0.0
C9 C 0.24892 0.04461 0.08533 0.0
O10 O 0.26022 0.11509 0.04306 0.0
O11 O 0.29549 0.06612 0.03734 0.0
O12 O 0.30355 0.15363 0.06632 0.0
O13 O 0.29536 0.11198 0.08369 0.0
O14 O 0.24993 0.06097 0.07137 0.0
O15 O 0.28026 0.04337 0.09441 0.0
C16 C 0.355 0.06432 0.12069 0.0
O17 O 0.34776 0.03501 0.11152 0.0
O18 O 0.35299 0.09706 0.11302 0.0
C19 C 0.37073 0.03181 0.06771 0.0
Tb20 Tb 0.70053 0.58533 0.33947 0.0
C21 C 0.6548 0.63946 0.31701 0.0
Tb22 Tb 0.67237 0.5524 0.30961 0.0
O23 O 0.73723 0.63146 0.3298 0.0
O24 O 0.72489 0.58199 0.31661 0.0
O25 O 0.65967 0.63029 0.33178 0.0
C26 C 0.66683 0.52131 0.28135 0.0
O27 O 0.66258 0.61444 0.30573 0.0
C28 C 0.61791 0.55505 0.33128 0.0
C29 C 0.71685 0.49537 0.33302 0.0
O30 O 0.63794 0.53515 0.2894 0.0
O31 O 0.69908 0.52485 0.28919 0.0
O32 O 0.61117 0.55872 0.31661 0.0
O33 O 0.65394 0.54686 0.33317 0.0
O34 O 0.69484 0.49775 0.3203 0.0
O35 O 0.7253 0.52675 0.3414 0.0
C36 C 0.70909 0.59948 0.36948 0.0
O37 O 0.73736 0.59063 0.36 0.0
O38 O 0.67603 0.60101 0.362 0.0
C39 C 0.73927 0.61671 0.31599 0.0
Tb40 Tb 0.17594 0.93955 0.59123 0.0
C41 C 0.12861 0.89299 0.5664 0.0
Tb42 Tb 0.21387 0.92177 0.56081 0.0
O43 O 0.12689 0.97262 0.58203 0.0
O44 O 0.17889 0.96948 0.56937 0.0
O45 O 0.13557 0.89641 0.58146 0.0
C46 C 0.24642 0.9236 0.53276 0.0
O47 O 0.15417 0.90466 0.55585 0.0
C48 C 0.21366 0.86285 0.58056 0.0
C49 C 0.26332 0.96901 0.58599 0.0
O50 O 0.2551 0.89878 0.54358 0.0
O51 O 0.21966 0.94749 0.53777 0.0
O52 O 0.21058 0.85886 0.56568 0.0
O53 O 0.2189 0.89879 0.58366 0.0
O54 O 0.2631 0.95272 0.57201 0.0
O55 O 0.23183 0.96908 0.59499 0.0
C56 C 0.15886 0.94052 0.62117 0.0
O57 O 0.16471 0.90906 0.613 0.0
O58 O 0.16206 0.97133 0.61243 0.0
C59 C 0.14253 0.97967 0.56864 0.0
Tb60 Tb 0.81934 0.43392 0.8388 0.0
C61 C 0.86642 0.38427 0.81511 0.0
Tb62 Tb 0.84458 0.47106 0.80937 0.0
O63 O 0.78414 0.38738 0.8287 0.0
O64 O 0.79333 0.43885 0.81621 0.0
O65 O 0.86206 0.39171 0.83007 0.0
C66 C 0.84911 0.50476 0.78155 0.0
O67 O 0.85628 0.41005 0.80441 0.0
C68 C 0.90017 0.46786 0.83061 0.0
C69 C 0.8 0.52431 0.834 0.0
O70 O 0.87857 0.49349 0.78988 0.0
O71 O 0.81676 0.49722 0.78887 0.0
O72 O 0.90638 0.46572 0.81586 0.0
O73 O 0.86401 0.47464 0.83284 0.0
O74 O 0.82029 0.52367 0.82084 0.0
O75 O 0.79378 0.49198 0.84215 0.0
C76 C 0.81141 0.41611 0.8685 0.0
O77 O 0.78288 0.42539 0.85922 0.0
O78 O 0.84447 0.41623 0.86099 0.0
C79 C 0.78042 0.40358 0.81522 0.0
Tb80 Tb 0.72838 0.92508 0.94907 0.0
C81 C 0.7766 0.97339 0.92389 0.0
Tb82 Tb 0.68945 0.9427 0.91847 0.0
O83 O 0.7292 0.86212 0.94372 0.0
O84 O 0.73369 0.90348 0.92605 0.0
O85 O 0.77577 0.95953 0.93827 0.0
C86 C 0.6698 0.9456 0.88881 0.0
O87 O 0.74599 0.97073 0.91446 0.0
C88 C 0.6556 0.98097 0.94158 0.0
C89 C 0.6448 0.89205 0.94279 0.0
O90 O 0.67777 0.97581 0.89743 0.0
O91 O 0.67271 0.91362 0.89692 0.0
O92 O 0.64006 0.9747 0.92812 0.0
O93 O 0.69205 0.9716 0.94053 0.0
O94 O 0.65131 0.89708 0.92778 0.0
O95 O 0.66974 0.90415 0.95348 0.0
C96 C 0.75747 0.92868 0.97766 0.0
O97 O 0.77384 0.91047 0.96615 0.0
O98 O 0.72513 0.94493 0.97301 0.0
C99 C 0.73075 0.86721 0.92884 0.0
Tb100 Tb 0.34843 0.48716 0.70167 0.0
C101 C 0.29529 0.52108 0.67488 0.0
Tb102 Tb 0.34757 0.44298 0.67178 0.0
O103 O 0.40841 0.50883 0.6976 0.0
O104 O 0.37118 0.49699 0.67916 0.0
O105 O 0.30534 0.52401 0.68967 0.0
C106 C 0.34699 0.42012 0.64241 0.0
O107 O 0.30738 0.4914 0.6661 0.0
C108 C 0.3197 0.40162 0.69519 0.0
C109 C 0.41317 0.42429 0.69577 0.0
O110 O 0.37733 0.43406 0.64967 0.0
O111 O 0.3172 0.41848 0.65177 0.0
O112 O 0.33669 0.38736 0.68305 0.0
O113 O 0.31461 0.43851 0.69314 0.0
O114 O 0.4047 0.42556 0.6808 0.0
O115 O 0.39035 0.4407 0.70635 0.0
C116 C 0.33377 0.5119 0.7303 0.0
O117 O 0.32992 0.47615 0.72541 0.0
O118 O 0.34535 0.53402 0.71898 0.0
C119 C 0.40595 0.50665 0.68263 0.0
Tb120 Tb 0.79431 0.09844 0.44909 0.0
C121 C 0.74141 0.04752 0.42628 0.0
Tb122 Tb 0.8281 0.07436 0.41851 0.0
O123 O 0.79648 0.16061 0.44263 0.0
O124 O 0.78773 0.118 0.42585 0.0
O125 O 0.74446 0.06416 0.44015 0.0
C126 C 0.84246 0.07256 0.38839 0.0
O127 O 0.77081 0.04677 0.41626 0.0
C128 C 0.86084 0.03554 0.4417 0.0
C129 C 0.88023 0.12206 0.44124 0.0
O130 O 0.83852 0.04175 0.39712 0.0
O131 O 0.83884 0.10414 0.39665 0.0
O132 O 0.87598 0.03981 0.42803 0.0
O133 O 0.82515 0.04767 0.44104 0.0
O134 O 0.87172 0.11664 0.42644 0.0
O135 O 0.85524 0.11322 0.45236 0.0
C136 C 0.76842 0.10438 0.47802 0.0
O137 O 0.80402 0.09601 0.47396 0.0
O138 O 0.74686 0.10902 0.46581 0.0
C139 C 0.79352 0.1542 0.42791 0.0
Tb140 Tb 0.17761 0.53333 0.20223 0.0
C141 C 0.22631 0.48893 0.17615 0.0
Tb142 Tb 0.18985 0.57444 0.17178 0.0
O143 O 0.11434 0.52766 0.1981 0.0
O144 O 0.15343 0.52805 0.17955 0.0
O145 O 0.21384 0.48845 0.19073 0.0
C146 C 0.18988 0.59521 0.14221 0.0
O147 O 0.22092 0.51968 0.16698 0.0
C148 C 0.22743 0.60946 0.19473 0.0
C149 C 0.1371 0.61403 0.19667 0.0
O150 O 0.22112 0.5901 0.15061 0.0
O151 O 0.15874 0.58915 0.15051 0.0
O152 O 0.21781 0.62571 0.18173 0.0
O153 O 0.22123 0.5725 0.19336 0.0
O154 O 0.14188 0.60853 0.1816 0.0
O155 O 0.15225 0.59009 0.20711 0.0
C156 C 0.18507 0.50541 0.23085 0.0
O157 O 0.16874 0.4869 0.21942 0.0
O158 O 0.19761 0.5392 0.22608 0.0
C159 C 0.11733 0.52812 0.18313 0.0
Tb160 Tb 0.83221 0.58927 0.59132 0.0
C161 C 0.84862 0.65447 0.56693 0.0
Tb162 Tb 0.78823 0.5875 0.56132 0.0
O163 O 0.88827 0.57949 0.58011 0.0
O164 O 0.83777 0.55543 0.57019 0.0
O165 O 0.84748 0.64655 0.58195 0.0
C166 C 0.765 0.57041 0.5327 0.0
O167 O 0.83338 0.63058 0.55647 0.0
C168 C 0.76641 0.64443 0.58023 0.0
C169 C 0.75484 0.53579 0.58862 0.0
O170 O 0.7426 0.58468 0.54347 0.0
O171 O 0.8001 0.56525 0.53815 0.0
O172 O 0.7647 0.64705 0.56524 0.0
O173 O 0.77732 0.61013 0.58367 0.0
O174 O 0.75183 0.54489 0.57372 0.0
O175 O 0.78468 0.5483 0.59725 0.0
C176 C 0.85468 0.59178 0.6207 0.0
O177 O 0.85923 0.56193 0.61152 0.0
O178 O 0.83789 0.62038 0.61328 0.0
C179 C 0.87457 0.56131 0.56813 0.0
Tb180 Tb 0.18697 0.08198 0.84118 0.0
C181 C 0.12314 0.10533 0.81696 0.0
Tb182 Tb 0.18211 0.03755 0.81143 0.0
O183 O 0.20134 0.13687 0.83005 0.0
O184 O 0.21898 0.08449 0.81954 0.0
O185 O 0.13107 0.10296 0.83198 0.0
C186 C 0.19403 1.00709 0.78344 0.0
O187 O 0.14499 0.08755 0.80641 0.0
C188 C 0.1246 0.02237 0.83102 0.0
C189 C 0.23339 1.00034 0.83817 0.0
O190 O 0.17355 0.99108 0.79436 0.0
O191 O 0.2082 0.04018 0.78831 0.0
O192 O 0.12067 0.0214 0.81608 0.0
O193 O 0.1602 0.02918 0.83416 0.0
O194 O 0.22212 0.99761 0.82351 0.0
O195 O 0.22441 0.03135 0.84682 0.0
C196 C 0.18897 0.1054 0.87046 0.0
O197 O 0.15785 0.09281 0.86331 0.0
O198 O 0.21874 0.10519 0.86106 0.0
C199 C 0.21632 0.12172 0.81767 0.0
Tb200 Tb 0.68937 0.43524 0.09064 0.0
C201 C 0.66618 0.37084 0.06676 0.0
Tb202 Tb 0.73062 0.43329 0.06004 0.0
O203 O 0.63303 0.44801 0.08014 0.0
O204 O 0.68397 0.4684 0.06936 0.0
O205 O 0.66918 0.37904 0.08172 0.0
C206 C 0.75365 0.44822 0.03123 0.0
O207 O 0.68226 0.39322 0.05598 0.0
C208 C 0.74977 0.37466 0.07845 0.0
C209 C 0.76945 0.48352 0.08672 0.0
O210 O 0.71878 0.45464 0.03672 0.0
O211 O 0.77583 0.43392 0.04205 0.0
O212 O 0.75029 0.37254 0.06343 0.0
O213 O 0.74178 0.40962 0.08228 0.0
O214 O 0.77094 0.47314 0.07193 0.0
O215 O 0.73949 0.47381 0.09581 0.0
C216 C 0.66817 0.43551 0.12018 0.0
O217 O 0.66493 0.46507 0.11079 0.0
O218 O 0.68313 0.40565 0.11292 0.0
C219 C 0.64673 0.46463 0.06783 0.0
Tb220 Tb 0.33746 0.93435 0.34227 0.0
C221 C 0.40729 0.91799 0.32029 0.0
Tb222 Tb 0.34047 0.97712 0.31217 0.0
O223 O 0.3297 0.87817 0.33094 0.0
O224 O 0.30672 0.92821 0.32041 0.0
O225 O 0.39675 0.92029 0.335 0.0
C226 C 0.32799 0.9995 0.28309 0.0
O227 O 0.38521 0.93201 0.30895 0.0
C228 C 0.39464 1.00063 0.33194 0.0
C229 C 0.28579 0.01258 0.33817 0.0
O230 O 0.33752 0.02272 0.29437 0.0
O231 O 0.32497 0.96394 0.28825 0.0
O232 O 0.39856 1.0025 0.317 0.0
O233 O 0.3602 0.98893 0.33494 0.0
O234 O 0.29565 0.01384 0.3233 0.0
O235 O 0.2981 0.98386 0.34739 0.0
C236 C 0.3324 0.91049 0.37145 0.0
O237 O 0.36424 0.92279 0.36477 0.0
O238 O 0.30351 0.91122 0.36164 0.0
C239 C 0.31306 0.89148 0.31858 0.0
Tb240 Tb 0.23884 0.41707 0.45189 0.0
C241 C 0.2777 0.46981 0.42601 0.0
Tb242 Tb 0.195 0.42584 0.42219 0.0
O243 O 0.25444 0.356 0.44679 0.0
O244 O 0.24692 0.39624 0.42888 0.0
O245 O 0.28026 0.45672 0.44043 0.0
C246 C 0.17214 0.43169 0.3929 0.0
O247 O 0.24662 0.46235 0.41719 0.0
C248 C 0.15557 0.45382 0.44614 0.0
C249 C 0.17048 0.35961 0.44504 0.0
O250 O 0.17567 0.46082 0.40249 0.0
O251 O 0.18092 0.39908 0.39988 0.0
O252 O 0.14015 0.44046 0.43353 0.0
O253 O 0.19284 0.45577 0.44424 0.0
O254 O 0.17295 0.36961 0.43025 0.0
O255 O 0.18831 0.37984 0.45608 0.0
C256 C 0.26786 0.4272 0.48022 0.0
O257 O 0.28444 0.40719 0.46928 0.0
O258 O 0.23503 0.44178 0.4752 0.0
C259 C 0.2531 0.36032 0.43186 0.0
Tb260 Tb 0.84196 0.98564 0.19815 0.0
C261 C 0.79272 0.02443 0.17124 0.0
Tb262 Tb 0.83395 0.9399 0.16885 0.0
O263 O 0.90441 0.99645 0.19335 0.0
O264 O 0.86432 0.99131 0.17526 0.0
O265 O 0.80542 0.02791 0.18568 0.0
C266 C 0.83154 0.91666 0.13954 0.0
O267 O 0.79916 0.99219 0.16296 0.0
C268 C 0.80109 0.90336 0.1924 0.0
C269 C 0.89369 0.91239 0.19402 0.0
O270 O 0.80126 0.9213 0.14849 0.0
O271 O 0.86348 0.92442 0.1472 0.0
O272 O 0.81333 0.88664 0.17986 0.0
O273 O 0.80216 0.94065 0.19045 0.0
O274 O 0.88743 0.91502 0.17888 0.0
O275 O 0.87288 0.93263 0.20416 0.0
C276 C 0.83195 0.01985 0.22562 0.0
O277 O 0.81089 0.99129 0.22023 0.0
O278 O 0.85826 0.02935 0.2155 0.0
C279 C 0.90034 0.99537 0.17843 0.0
Tb280 Tb 0.27933 0.59486 0.95186 0.0
C281 C 0.24062 0.54289 0.92568 0.0
Tb282 Tb 0.3227 0.58794 0.92192 0.0
O283 O 0.26398 0.65627 0.94726 0.0
O284 O 0.27084 0.61679 0.92906 0.0
O285 O 0.23843 0.55498 0.94025 0.0
C286 C 0.3448 0.5842 0.89251 0.0
O287 O 0.27128 0.55129 0.91677 0.0
C288 C 0.36272 0.55868 0.94544 0.0
C289 C 0.34817 0.65203 0.94562 0.0
O290 O 0.3423 0.5545 0.90186 0.0
O291 O 0.33543 0.61623 0.89979 0.0
O292 O 0.37781 0.5724 0.93284 0.0
O293 O 0.32537 0.55693 0.94371 0.0
O294 O 0.34524 0.64346 0.93068 0.0
O295 O 0.33015 0.63121 0.95641 0.0
C296 C 0.24984 0.58437 0.98007 0.0
O297 O 0.23323 0.60405 0.96905 0.0
O298 O 0.28298 0.57018 0.97519 0.0
C299 C 0.26485 0.65255 0.93231 0.0
Tb300 Tb 0.66532 0.04145 0.69924 0.0
C301 C 0.71134 0.99178 0.67388 0.0
Tb302 Tb 0.68662 0.08118 0.66962 0.0
O303 O 0.60279 0.04583 0.69361 0.0
O304 O 0.64423 0.03868 0.67602 0.0
O305 O 0.69578 0.992 0.68798 0.0
C306 C 0.69533 0.10074 0.64018 0.0
O307 O 0.71186 0.02358 0.66509 0.0
C308 C 0.72572 0.11185 0.69305 0.0
C309 C 0.63786 0.12738 0.69394 0.0
O310 O 0.72319 0.08872 0.64927 0.0
O311 O 0.66229 0.10234 0.6477 0.0
O312 O 0.72052 0.1285 0.67975 0.0
O313 O 0.71463 0.07592 0.69181 0.0
O314 O 0.64255 0.12121 0.67889 0.0
O315 O 0.64814 0.10103 0.7044 0.0
C316 C 0.66573 1.00808 0.72717 0.0
O317 O 0.64189 0.99912 0.71603 0.0
O318 O 0.68935 0.03532 0.7225 0.0
C319 C 0.60808 0.04405 0.67876 0.0
C320 C 0.43507 0.13107 0.04639 0.0
C321 C 0.42482 0.13162 0.06215 0.0
C322 C 0.47312 0.14043 0.04175 0.0
C323 C 0.57327 0.16134 0.0566 0.0
H324 H 0.56445 0.25399 0.03085 0.0
C325 C 0.63922 0.30486 0.07303 0.0
C326 C 0.64975 0.33291 0.06194 0.0
C327 C 0.62528 0.26831 0.06844 0.0
C328 C 0.56825 0.22752 0.03763 0.0
H329 H 0.44676 0.14071 0.08542 0.0
H330 H 0.5126 0.1586 0.07731 0.0
H331 H 0.51202 0.20623 0.03082 0.0
H332 H 0.6557 0.34413 0.03731 0.0
H333 H 0.63075 0.28031 0.02933 0.0
H334 H 0.62807 0.18472 0.06443 0.0
C335 C 0.49155 0.14997 0.06855 0.0
C336 C 0.53807 0.20003 0.0376 0.0
C337 C 0.45358 0.14057 0.07319 0.0
C338 C 0.64722 0.32331 0.04616 0.0
C339 C 0.6333 0.28669 0.04156 0.0
C340 C 0.60355 0.18882 0.0566 0.0
C341 C 0.5015 0.15057 0.05278 0.0
C342 C 0.53893 0.16858 0.04806 0.0
C343 C 0.62163 0.25907 0.05265 0.0
C344 C 0.59957 0.2237 0.04809 0.0
H345 H 0.41378 0.12335 0.03759 0.0
H346 H 0.48011 0.14073 0.02953 0.0
H347 H 0.57492 0.13665 0.06447 0.0
H348 H 0.64147 0.31113 0.08528 0.0
H349 H 0.61567 0.24798 0.07728 0.0
C350 C 0.62584 0.69158 0.30038 0.0
C351 C 0.64892 0.68072 0.31306 0.0
C352 C 0.61884 0.73123 0.29738 0.0
C353 C 0.6082 0.8166 0.3214 0.0
H354 H 0.56499 0.85982 0.28363 0.0
C355 C 0.47819 0.91617 0.32647 0.0
C356 C 0.44732 0.90561 0.3166 0.0
C357 C 0.51658 0.90527 0.32299 0.0
C358 C 0.57714 0.84834 0.29427 0.0
H359 H 0.68782 0.70171 0.3311 0.0
H360 H 0.67668 0.77088 0.32561 0.0
H361 H 0.61316 0.80668 0.28224 0.0
H362 H 0.43185 0.87732 0.29506 0.0
H363 H 0.49828 0.85432 0.28973 0.0
H364 H 0.57018 0.85475 0.33359 0.0
C365 C 0.66241 0.74912 0.31841 0.0
C366 C 0.60484 0.81808 0.29346 0.0
C367 C 0.66837 0.70963 0.32168 0.0
C368 C 0.45536 0.88519 0.30292 0.0
C369 C 0.4936 0.8728 0.29974 0.0
C370 C 0.58045 0.84636 0.32222 0.0
C371 C 0.63571 0.76035 0.30685 0.0
C372 C 0.61855 0.80023 0.30707 0.0
C373 C 0.52454 0.88178 0.30998 0.0
C374 C 0.56257 0.86071 0.30871 0.0
H375 H 0.61152 0.6695 0.29334 0.0
H376 H 0.59795 0.73879 0.28842 0.0
H377 H 0.61792 0.8036 0.33217 0.0
H378 H 0.4727 0.93279 0.33691 0.0
H379 H 0.53973 0.91379 0.33089 0.0
C380 C 0.07881 0.88553 0.54543 0.0
C381 C 0.08874 0.88291 0.56119 0.0
C382 C 0.04029 0.87905 0.54058 0.0
C383 C 0.93876 0.86354 0.55506 0.0
H384 H 0.94276 0.7712 0.52896 0.0
C385 C 0.87319 0.72184 0.5725 0.0
C386 C 0.8624 0.69312 0.56171 0.0
C387 C 0.88574 0.75858 0.56752 0.0
C388 C 0.94023 0.79769 0.53582 0.0
H389 H 0.06584 0.87301 0.58427 0.0
H390 H 0.99915 0.86019 0.57578 0.0
H391 H 0.99711 0.81668 0.52879 0.0
H392 H 0.85383 0.68111 0.53725 0.0
H393 H 0.87636 0.74524 0.5286 0.0
H394 H 0.8834 0.84224 0.56318 0.0
C395 C 0.02086 0.86823 0.56719 0.0
C396 C 0.97156 0.82388 0.53571 0.0
C397 C 0.05929 0.87467 0.57203 0.0
C398 C 0.86268 0.70242 0.54586 0.0
C399 C 0.87518 0.73923 0.54088 0.0
C400 C 0.90732 0.83738 0.55513 0.0
C401 C 0.01109 0.86988 0.55141 0.0
C402 C 0.97257 0.85485 0.5464 0.0
C403 C 0.88769 0.76736 0.55165 0.0
C404 C 0.90968 0.80239 0.54659 0.0
H405 H 0.10069 0.89274 0.53679 0.0
H406 H 0.03348 0.88033 0.52835 0.0
H407 H 0.93855 0.88797 0.56308 0.0
H408 H 0.87258 0.71583 0.58479 0.0
H409 H 0.89595 0.7793 0.57612 0.0
C410 C 0.07794 0.12706 0.79597 0.0
C411 C 0.08603 0.12313 0.81184 0.0
C412 C 0.04182 0.14169 0.79103 0.0
C413 C 0.94195 0.16846 0.80483 0.0
H414 H 0.95847 0.26149 0.7799 0.0
C415 C 0.88621 0.31568 0.8212 0.0
C416 C 0.87788 0.34462 0.81017 0.0
C417 C 0.89689 0.2781 0.81653 0.0
C418 C 0.9526 0.23497 0.7864 0.0
H419 H 0.0623 0.13018 0.83495 0.0
H420 H 0.9999 0.1571 0.82637 0.0
H421 H 1.00859 0.21109 0.7806 0.0
H422 H 0.8716 0.35632 0.78558 0.0
H423 H 0.89133 0.29062 0.77745 0.0
H424 H 0.88749 0.1945 0.81177 0.0
C425 C 0.02106 0.14803 0.81772 0.0
C426 C 0.98146 0.20602 0.78684 0.0
C427 C 0.05715 0.13343 0.82266 0.0
C428 C 0.87868 0.33481 0.79437 0.0
C429 C 0.88948 0.29715 0.78969 0.0
C430 C 0.91309 0.19748 0.80441 0.0
C431 C 0.01318 0.15262 0.80186 0.0
C432 C 0.97765 0.17414 0.797 0.0
C433 C 0.8995 0.26875 0.80074 0.0
C434 C 0.91978 0.23233 0.79618 0.0
H435 H 0.09952 0.11896 0.78733 0.0
H436 H 0.03651 0.14507 0.77875 0.0
H437 H 0.93795 0.14349 0.81241 0.0
H438 H 0.88529 0.32216 0.83345 0.0
H439 H 0.90527 0.25704 0.82532 0.0
C440 C 0.57641 0.87047 0.93716 0.0
C441 C 0.60597 0.87864 0.94797 0.0
C442 C 0.53865 0.86126 0.94213 0.0
C443 C 0.49186 0.81156 0.97315 0.0
H444 H 0.40002 0.83464 0.94819 0.0
C445 C 0.37246 0.69736 0.96611 0.0
C446 C 0.36752 0.68857 0.95034 0.0
C447 C 0.38973 0.7326 0.97061 0.0
C448 C 0.42512 0.8284 0.9555 0.0
H449 H 0.61888 0.88492 0.97249 0.0
H450 H 0.55296 0.86785 0.98109 0.0
H451 H 0.45645 0.87881 0.94745 0.0
H452 H 0.37488 0.71047 0.92697 0.0
H453 H 0.40633 0.77114 0.93478 0.0
H454 H 0.46248 0.75927 0.98003 0.0
C455 C 0.55912 0.86878 0.96881 0.0
C456 C 0.45727 0.85362 0.95509 0.0
C457 C 0.59691 0.878 0.96384 0.0
C458 C 0.37894 0.71612 0.93919 0.0
C459 C 0.39615 0.7513 0.94369 0.0
C460 C 0.45981 0.78629 0.97351 0.0
C461 C 0.52978 0.86005 0.95799 0.0
C462 C 0.49191 0.84362 0.96297 0.0
C463 C 0.40229 0.75961 0.95943 0.0
C464 C 0.42755 0.79296 0.96373 0.0
H465 H 0.58231 0.87123 0.92486 0.0
H466 H 0.51676 0.85366 0.93354 0.0
H467 H 0.51819 0.80328 0.9794 0.0
H468 H 0.36344 0.67685 0.97499 0.0
H469 H 0.3942 0.7383 0.98281 0.0
C470 C 0.62865 0.17584 0.71526 0.0
C471 C 0.62781 0.16704 0.69936 0.0
C472 C 0.62295 0.21421 0.72038 0.0
C473 C 0.61477 0.31714 0.7067 0.0
H474 H 0.52131 0.31858 0.73227 0.0
C475 C 0.47911 0.3962 0.68992 0.0
C476 C 0.45107 0.40805 0.70083 0.0
C477 C 0.51478 0.3804 0.69475 0.0
C478 C 0.54821 0.31946 0.72558 0.0
H479 H 0.62123 0.19167 0.67638 0.0
H480 H 0.60965 0.25819 0.68532 0.0
H481 H 0.56224 0.2606 0.73184 0.0
H482 H 0.43942 0.41542 0.72537 0.0
H483 H 0.50166 0.38719 0.73377 0.0
H484 H 0.59841 0.37481 0.69934 0.0
C485 C 0.61587 0.23566 0.69381 0.0
C486 C 0.57174 0.28604 0.72533 0.0
C487 C 0.62161 0.19738 0.68869 0.0
C488 C 0.46019 0.40581 0.71666 0.0
C489 C 0.49593 0.39002 0.7215 0.0
C490 C 0.59126 0.35065 0.70698 0.0
C491 C 0.61624 0.2444 0.70969 0.0
C492 C 0.6031 0.28348 0.71485 0.0
C493 C 0.5231 0.37617 0.71059 0.0
C494 C 0.55592 0.35055 0.71536 0.0
H495 H 0.63399 0.15319 0.72379 0.0
H496 H 0.62313 0.2202 0.73268 0.0
H497 H 0.63958 0.31609 0.69886 0.0
H498 H 0.47326 0.39832 0.67764 0.0
H499 H 0.53478 0.36934 0.68603 0.0
C500 C 0.15193 0.30912 0.46461 0.0
C501 C 0.15321 0.32152 0.44912 0.0
C502 C 0.13742 0.27208 0.46835 0.0
C503 C 0.10278 0.17838 0.4508 0.0
H504 H 0.01408 0.19439 0.47818 0.0
C505 C 0.94914 0.14029 0.43458 0.0
C506 C 0.92081 0.13124 0.44576 0.0
C507 C 0.98797 0.14685 0.43895 0.0
C508 C 0.03928 0.18847 0.47088 0.0
H509 H 0.14208 0.30425 0.42536 0.0
H510 H 0.11534 0.2406 0.4319 0.0
H511 H 0.06875 0.23938 0.47913 0.0
H512 H 0.91136 0.11949 0.47022 0.0
H513 H 0.97907 0.13142 0.47778 0.0
H514 H 0.071 0.12965 0.44149 0.0
C515 C 0.12637 0.25893 0.44116 0.0
C516 C 0.0708 0.21436 0.47144 0.0
C517 C 0.14084 0.29585 0.43743 0.0
C518 C 0.93229 0.12747 0.46133 0.0
C519 C 0.97114 0.13372 0.46568 0.0
C520 C 0.07112 0.15254 0.45019 0.0
C521 C 0.12396 0.24688 0.45667 0.0
C522 C 0.10109 0.21145 0.46049 0.0
C523 C 0.99917 0.14424 0.45458 0.0
C524 C 0.03778 0.15951 0.45935 0.0
H525 H 0.16188 0.32805 0.47387 0.0
H526 H 0.13581 0.26352 0.4804 0.0
H527 H 0.12651 0.1749 0.44256 0.0
H528 H 0.94128 0.14283 0.42249 0.0
H529 H 1.00879 0.15579 0.43017 0.0
C530 C 0.11438 0.65757 0.21804 0.0
C531 C 0.11988 0.651 0.20212 0.0
C532 C 0.10183 0.69411 0.22335 0.0
C533 C 0.08905 0.79718 0.21133 0.0
H534 H 0.98648 0.78837 0.2305 0.0
C535 C 0.95757 0.87851 0.18987 0.0
C536 C 0.92743 0.8902 0.19989 0.0
C537 C 0.99052 0.8593 0.19566 0.0
C538 C 0.01561 0.79188 0.22564 0.0
H539 H 0.11732 0.67761 0.17935 0.0
H540 H 0.09458 0.74092 0.18858 0.0
H541 H 0.03113 0.73284 0.23118 0.0
H542 H 0.90827 0.89191 0.22386 0.0
H543 H 0.96576 0.85763 0.2339 0.0
H544 H 0.07196 0.85509 0.20457 0.0
C545 C 0.10071 0.71809 0.19697 0.0
C546 C 0.04121 0.76003 0.22605 0.0
C547 C 0.11289 0.68159 0.19165 0.0
C548 C 0.93103 0.88296 0.21584 0.0
C549 C 0.96395 0.86364 0.22162 0.0
C550 C 0.06348 0.82906 0.21094 0.0
C551 C 0.09505 0.72463 0.21284 0.0
C552 C 0.07668 0.76154 0.21783 0.0
C553 C 0.99382 0.8514 0.21157 0.0
C554 C 0.02543 0.82539 0.21703 0.0
H555 H 0.11996 0.6346 0.22641 0.0
H556 H 0.09714 0.69847 0.23562 0.0
H557 H 0.11676 0.79906 0.2052 0.0
H558 H 0.9558 0.88423 0.17757 0.0
H559 H 0.01273 0.84931 0.18759 0.0
C560 C 0.43821 0.03077 0.05615 0.0
C561 C 0.39729 0.02685 0.05381 0.0
C562 C 0.46527 0.02666 0.04406 0.0
C563 C 0.47952 0.98289 1.005 0.0
H564 H 0.5723 0.049 1.00436 0.0
C565 C 0.58852 0.97956 0.95342 0.0
C566 C 0.62924 0.98556 0.95555 0.0
C567 C 0.56151 0.98384 0.96552 0.0
C568 C 0.547 0.02977 1.00443 0.0
H569 H 0.35344 0.0145 0.03639 0.0
H570 H 0.40102 1.00689 0.01501 0.0
H571 H 0.52174 0.05946 0.02396 0.0
H572 H 0.67279 1.00177 0.97259 0.0
H573 H 0.62541 1.00908 0.99403 0.0
H574 H 0.50484 0.95293 0.98558 0.0
C575 C 0.41194 0.01358 0.02646 0.0
C576 C 0.51763 0.03591 0.01571 0.0
C577 C 0.38445 0.01824 0.03871 0.0
C578 C 0.64196 0.99625 0.97046 0.0
C579 C 0.61452 1.00085 0.98273 0.0
C580 C 0.50894 0.97666 0.99375 0.0
C581 C 0.45294 0.01789 0.02896 0.0
C582 C 0.48329 0.01256 0.01624 0.0
C583 C 0.57366 0.99464 0.98045 0.0
C584 C 0.54326 1.00008 0.99317 0.0
H585 H 0.44981 0.03741 0.06752 0.0
H586 H 0.49622 0.02966 0.04671 0.0
H587 H 0.45416 0.96373 1.00507 0.0
H588 H 0.57701 0.97133 0.94221 0.0
H589 H 0.53069 0.97943 0.96296 0.0
C590 C 0.73776 0.63307 0.28685 0.0
C591 C 0.7471 0.64287 0.30224 0.0
C592 C 0.74152 0.66124 0.27485 0.0
C593 C 0.75026 0.77121 0.26867 0.0
H594 H 0.78458 0.74245 0.22756 0.0
C595 C 0.79361 0.88864 0.22138 0.0
C596 C 0.78637 0.87925 0.20579 0.0
C597 C 0.78651 0.8608 0.23325 0.0
C598 C 0.77444 0.75124 0.23891 0.0
H599 H 0.76902 0.69003 0.31672 0.0
H600 H 0.77611 0.73771 0.29622 0.0
H601 H 0.7766 0.69177 0.24719 0.0
H602 H 0.76467 0.83333 0.19073 0.0
H603 H 0.75136 0.78615 0.21106 0.0
H604 H 0.74832 0.83072 0.26041 0.0
C605 C 0.76495 0.70894 0.29325 0.0
C606 C 0.76982 0.72184 0.25025 0.0
C607 C 0.76129 0.68109 0.30509 0.0
C608 C 0.77055 0.84191 0.20256 0.0
C609 C 0.76338 0.81438 0.2143 0.0
C610 C 0.75492 0.80062 0.25733 0.0
C611 C 0.75465 0.69999 0.2779 0.0
C612 C 0.75788 0.7312 0.26541 0.0
C613 C 0.77211 0.82272 0.22987 0.0
C614 C 0.76715 0.7913 0.2422 0.0
H615 H 0.72648 0.60417 0.28415 0.0
H616 H 0.7331 0.65289 0.26324 0.0
H617 H 0.74022 0.77998 0.28003 0.0
H618 H 0.80681 0.91645 0.22437 0.0
H619 H 0.79396 0.86863 0.24502 0.0
C620 C 0.0752 0.98716 0.55729 0.0
C621 C 0.11625 0.98704 0.55482 0.0
C622 C 0.04836 0.992 0.54515 0.0
C623 C 0.03783 0.0279 0.50441 0.0
H624 H 0.93817 0.97293 0.50667 0.0
C625 C 0.92818 0.02676 0.45292 0.0
C626 C 0.88724 0.02894 0.45552 0.0
C627 C 0.95505 0.02238 0.46508 0.0
C628 C 0.96553 0.989 0.5059 0.0
H629 H 0.16057 0.99349 0.53711 0.0
H630 H 0.11358 1.00168 0.51565 0.0
H631 H 0.98781 0.9624 0.5266 0.0
H632 H 0.84296 0.02714 0.47343 0.0
H633 H 0.89013 0.01902 0.49491 0.0
H634 H 0.0156 0.05414 0.48359 0.0
C635 C 0.10226 0.99781 0.52724 0.0
C636 C 0.99433 0.98293 0.5174 0.0
C637 C 0.12946 0.99275 0.53955 0.0
C638 C 0.87408 0.02588 0.47091 0.0
C639 C 0.90129 0.02102 0.48322 0.0
C640 C 1.00909 0.03383 0.49287 0.0
C641 C 0.06107 0.99719 0.52983 0.0
C642 C 0.03105 1.00239 0.51696 0.0
C643 C 0.94239 0.01953 0.4805 0.0
C644 C 0.97235 0.01447 0.49337 0.0
H645 H 0.0633 0.98304 0.56878 0.0
H646 H 0.01734 0.99216 0.54793 0.0
H647 H 0.06515 0.04403 0.50362 0.0
H648 H 0.93994 0.02893 0.44132 0.0
H649 H 0.98603 0.02071 0.46229 0.0
C650 C 0.75182 0.34248 0.80393 0.0
C651 C 0.77022 0.37894 0.80129 0.0
C652 C 0.74679 0.31484 0.79208 0.0
C653 C 0.78673 0.28355 0.7539 0.0
H654 H 0.69422 0.21714 0.75312 0.0
C655 C 0.75757 0.17172 0.70404 0.0
C656 C 0.73718 0.1364 0.70688 0.0
C657 C 0.76276 0.20029 0.71557 0.0
C658 C 0.72062 0.23485 0.75325 0.0
H659 H 0.79685 0.41489 0.78354 0.0
H660 H 0.78824 0.36629 0.76265 0.0
H661 H 0.69896 0.27023 0.77194 0.0
H662 H 0.70682 0.10418 0.72476 0.0
H663 H 0.71642 0.15336 0.74503 0.0
H664 H 0.80853 0.248 0.73528 0.0
C665 C 0.77777 0.35917 0.77412 0.0
C666 C 0.7233 0.26571 0.76407 0.0
C667 C 0.78238 0.38736 0.78608 0.0
C668 C 0.72331 0.13017 0.72202 0.0
C669 C 0.72828 0.15907 0.73365 0.0
C670 C 0.7841 0.25259 0.74308 0.0
C671 C 0.76016 0.32218 0.77698 0.0
C672 C 0.75646 0.29062 0.76467 0.0
C673 C 0.74762 0.19503 0.73056 0.0
C674 C 0.75101 0.22752 0.74254 0.0
H675 H 0.74212 0.33459 0.81544 0.0
H676 H 0.73359 0.2869 0.79499 0.0
H677 H 0.81307 0.30136 0.75405 0.0
H678 H 0.76849 0.17813 0.69255 0.0
H679 H 0.77735 0.22737 0.71245 0.0
C680 C 0.28455 0.38713 0.72107 0.0
C681 C 0.30818 0.37546 0.70851 0.0
C682 C 0.27422 0.3599 0.73283 0.0
C683 C 0.26992 0.25023 0.7406 0.0
H684 H 0.2628 0.28122 0.78351 0.0
C685 C 0.2496 0.13516 0.7913 0.0
C686 C 0.22667 0.14721 0.80401 0.0
C687 C 0.25959 0.16216 0.77941 0.0
C688 C 0.26415 0.27184 0.77157 0.0
H689 H 0.34003 0.32581 0.69894 0.0
H690 H 0.32273 0.27975 0.719 0.0
H691 H 0.27795 0.33026 0.7639 0.0
H692 H 0.19523 0.19712 0.81358 0.0
H693 H 0.2117 0.24266 0.79327 0.0
H694 H 0.25609 0.19179 0.74828 0.0
C695 C 0.31116 0.30929 0.71982 0.0
C696 C 0.27286 0.3003 0.76024 0.0
C697 C 0.3214 0.33618 0.70824 0.0
C698 C 0.21344 0.18649 0.8042 0.0
C699 C 0.22323 0.21309 0.79247 0.0
C700 C 0.26117 0.22175 0.75194 0.0
C701 C 0.28706 0.32025 0.73229 0.0
C702 C 0.27604 0.29012 0.74451 0.0
C703 C 0.24696 0.20189 0.77992 0.0
C704 C 0.25796 0.23195 0.76767 0.0
H705 H 0.27364 0.41695 0.72172 0.0
H706 H 0.2555 0.36978 0.74217 0.0
H707 H 0.27134 0.24086 0.72866 0.0
H708 H 0.26045 0.10531 0.7907 0.0
H709 H 0.27797 0.15207 0.77 0.0
C710 C 0.31455 0.82504 0.30621 0.0
C711 C 0.30207 0.86453 0.30542 0.0
C712 C 0.30505 0.79773 0.29467 0.0
C713 C 0.27207 0.78786 0.25359 0.0
H714 H 0.25161 0.68005 0.26559 0.0
C715 C 0.22056 0.674 0.20822 0.0
C716 C 0.23312 0.63453 0.20895 0.0
C717 C 0.22744 0.70052 0.22028 0.0
C718 C 0.25772 0.7098 0.26193 0.0
H719 H 0.26947 0.9058 0.29138 0.0
H720 H 0.25288 0.85799 0.27097 0.0
H721 H 0.26489 0.7295 0.28533 0.0
H722 H 0.2625 0.59226 0.2236 0.0
H723 H 0.2754 0.63901 0.24483 0.0
H724 H 0.26536 0.76825 0.23021 0.0
C725 C 0.27038 0.84827 0.2807 0.0
C726 C 0.26533 0.73848 0.27333 0.0
C727 C 0.27985 0.87587 0.29243 0.0
C728 C 0.25218 0.62222 0.22257 0.0
C729 C 0.25955 0.64924 0.23476 0.0
C730 C 0.26459 0.75919 0.24219 0.0
C731 C 0.28259 0.80849 0.28169 0.0
C732 C 0.27274 0.77813 0.2694 0.0
C733 C 0.24791 0.68922 0.23368 0.0
C734 C 0.2571 0.71953 0.24609 0.0
H735 H 0.33202 0.81488 0.31588 0.0
H736 H 0.316 0.76803 0.29587 0.0
H737 H 0.27826 0.8176 0.24992 0.0
H738 H 0.20526 0.68488 0.1981 0.0
H739 H 0.21654 0.73022 0.219 0.0
C740 C 0.09093 0.45086 0.45983 0.0
C741 C 0.1303 0.46383 0.45994 0.0
C742 C 0.06454 0.46048 0.47169 0.0
C743 C 0.04625 0.53199 0.50375 0.0
H744 H 0.96527 0.45744 0.51525 0.0
C745 C 0.94031 0.56283 0.55513 0.0
C746 C 0.90117 0.54916 0.55499 0.0
C747 C 0.96739 0.55231 0.54362 0.0
C748 C 0.98719 0.479 0.51209 0.0
H749 H 0.17248 0.49739 0.47317 0.0
H750 H 0.12622 0.51434 0.49416 0.0
H751 H 0.01517 0.43904 0.49636 0.0
H752 H 0.86036 0.513 0.54217 0.0
H753 H 0.90759 0.4949 0.52173 0.0
H754 H 0.01817 0.57205 0.51938 0.0
C755 C 0.11578 0.49662 0.48463 0.0
C756 C 0.0162 0.46834 0.50119 0.0
C757 C 0.14258 0.48665 0.47263 0.0
C758 C 0.88999 0.52442 0.5427 0.0
C759 C 0.91741 0.51376 0.53103 0.0
C760 C 0.01719 0.54268 0.51462 0.0
C761 C 0.07612 0.48371 0.48434 0.0
C762 C 0.04631 0.49464 0.49673 0.0
C763 C 0.95675 0.52761 0.53128 0.0
C764 C 0.98703 0.5164 0.51907 0.0
H765 H 0.08 0.43322 0.45034 0.0
H766 H 0.03451 0.45035 0.47067 0.0
H767 H 0.06818 0.55352 0.50056 0.0
H768 H 0.95047 0.58183 0.56434 0.0
H769 H 0.99716 0.56314 0.54467 0.0
C770 C 0.5813 0.46027 0.05476 0.0
C771 C 0.62016 0.47467 0.05443 0.0
C772 C 0.55403 0.46928 0.04314 0.0
C773 C 0.53226 0.54032 0.01119 0.0
H774 H 0.45332 0.46318 1.00011 0.0
C775 C 0.42717 0.56415 0.9591 0.0
C776 C 0.38823 0.54995 0.95929 0.0
C777 C 0.45391 0.55563 0.97095 0.0
C778 C 0.47465 0.48541 1.00317 0.0
H779 H 0.66036 0.51035 0.04113 0.0
H780 H 0.61267 0.526 0.02052 0.0
H781 H 0.5041 0.44661 0.01891 0.0
H782 H 0.34717 0.51546 0.97267 0.0
H783 H 0.39408 0.50043 0.99368 0.0
H784 H 0.50286 0.57908 0.99542 0.0
C785 C 0.60328 0.50768 0.03004 0.0
C786 C 0.50416 0.47585 0.01402 0.0
C787 C 0.63093 0.49845 0.04181 0.0
C788 C 0.37672 0.52711 0.97208 0.0
C789 C 0.4039 0.51824 0.98407 0.0
C790 C 0.50277 0.54987 1.00033 0.0
C791 C 0.56419 0.4932 0.03051 0.0
C792 C 0.53359 0.50312 0.01829 0.0
C793 C 0.44314 0.53234 0.98368 0.0
C794 C 0.47339 0.52258 0.99605 0.0
H795 H 0.57148 0.4419 0.06422 0.0
H796 H 0.52446 0.45799 0.04431 0.0
H797 H 0.5536 0.56256 0.01423 0.0
H798 H 0.4375 0.5819 0.94954 0.0
H799 H 0.48361 0.56665 0.96986 0.0
C800 C 0.30492 0.21939 0.08808 0.0
C801 C 0.29798 0.18047 0.09271 0.0
C802 C 0.30117 0.25056 0.09856 0.0
C803 C 0.25407 0.27894 0.13571 0.0
H804 H 0.32483 0.36772 0.13281 0.0
C805 C 0.23885 0.4155 0.17615 0.0
C806 C 0.24285 0.45242 0.169 0.0
C807 C 0.24917 0.38079 0.16828 0.0
C808 C 0.30454 0.34338 0.13374 0.0
H809 H 0.28188 0.14377 0.11213 0.0
H810 H 0.27547 0.19827 0.13055 0.0
H811 H 0.33561 0.31035 0.11656 0.0
H812 H 0.26238 0.48136 0.14802 0.0
H813 H 0.28019 0.42154 0.13446 0.0
H814 H 0.22264 0.31236 0.15275 0.0
C815 C 0.28356 0.20474 0.11872 0.0
C816 C 0.31075 0.31031 0.12437 0.0
C817 C 0.28749 0.17342 0.10819 0.0
C818 C 0.2589 0.45364 0.154 0.0
C819 C 0.26934 0.41911 0.14619 0.0
C820 C 0.24782 0.31211 0.14509 0.0
C821 C 0.29027 0.24386 0.11404 0.0
C822 C 0.28526 0.2778 0.125 0.0
C823 C 0.26404 0.38203 0.15306 0.0
C824 C 0.27259 0.34516 0.14408 0.0
H825 H 0.31296 0.22591 0.07625 0.0
H826 H 0.30601 0.28012 0.09439 0.0
H827 H 0.23356 0.25474 0.13647 0.0
H828 H 0.22642 0.41323 0.18764 0.0
H829 H 0.2451 0.35292 0.17407 0.0
C830 C 0.54694 0.55935 0.33836 0.0
C831 C 0.58573 0.55085 0.34287 0.0
C832 C 0.51538 0.55322 0.34843 0.0
C833 C 0.48685 0.53819 0.38953 0.0
H834 H 0.39354 0.49323 0.37092 0.0
C835 C 0.35061 0.48457 0.42535 0.0
C836 C 0.31311 0.48767 0.41852 0.0
C837 C 0.38469 0.49483 0.41708 0.0
C838 C 0.41898 0.50641 0.37634 0.0
H839 H 0.62183 0.5304 0.36185 0.0
H840 H 0.56631 0.5195 0.37961 0.0
H841 H 0.45118 0.50524 0.35512 0.0
H842 H 0.28238 0.50641 0.39784 0.0
H843 H 0.34119 0.52526 0.3837 0.0
H844 H 0.4543 0.53925 0.41082 0.0
C845 C 0.56045 0.53104 0.36818 0.0
C846 C 0.45231 0.51322 0.36723 0.0
C847 C 0.59229 0.53717 0.358 0.0
C848 C 0.31061 0.50332 0.4035 0.0
C849 C 0.34458 0.51376 0.39529 0.0
C850 C 0.45329 0.53144 0.39869 0.0
C851 C 0.5214 0.53831 0.3634 0.0
C852 C 0.48667 0.52961 0.37359 0.0
C853 C 0.38229 0.50862 0.40174 0.0
C854 C 0.41862 0.51579 0.3922 0.0
H855 H 0.54077 0.57036 0.32686 0.0
H856 H 0.48604 0.56013 0.3444 0.0
H857 H 0.51261 0.55103 0.39485 0.0
H858 H 0.35389 0.47237 0.43684 0.0
H859 H 0.41302 0.49024 0.42249 0.0
C860 C 0.22753 0.83445 0.60714 0.0
C861 C 0.21726 0.82921 0.59152 0.0
C862 C 0.23244 0.80185 0.61699 0.0
C863 C 0.25339 0.69438 0.61545 0.0
H864 H 0.21847 0.69364 0.65808 0.0
C865 C 0.26369 0.55229 0.65154 0.0
C866 C 0.27608 0.55529 0.66702 0.0
C867 C 0.25286 0.58576 0.64309 0.0
C868 C 0.22878 0.69337 0.64625 0.0
H869 H 0.20321 0.7856 0.57415 0.0
H870 H 0.21155 0.72928 0.59115 0.0
H871 H 0.20786 0.75207 0.64215 0.0
H872 H 0.28497 0.59635 0.68586 0.0
H873 H 0.26647 0.65459 0.67114 0.0
H874 H 0.27486 0.63626 0.61945 0.0
C875 C 0.21644 0.75834 0.59585 0.0
C876 C 0.22268 0.72702 0.63709 0.0
C877 C 0.21141 0.79076 0.58608 0.0
C878 C 0.27532 0.59265 0.67402 0.0
C879 C 0.2647 0.62625 0.66552 0.0
C880 C 0.2596 0.66094 0.62458 0.0
C881 C 0.22749 0.76321 0.61141 0.0
C882 C 0.23465 0.72793 0.6215 0.0
C883 C 0.25436 0.6235 0.64977 0.0
C884 C 0.24719 0.65964 0.64011 0.0
H885 H 0.23247 0.86366 0.61168 0.0
H886 H 0.24116 0.80689 0.62886 0.0
H887 H 0.2639 0.69408 0.60364 0.0
H888 H 0.26365 0.52413 0.64572 0.0
H889 H 0.24404 0.58202 0.63116 0.0
C890 C 0.92547 0.47981 0.85784 0.0
C891 C 0.93241 0.47023 0.84226 0.0
C892 C 0.95702 0.48332 0.86833 0.0
C893 C 0.03118 0.51189 0.88555 0.0
H894 H 0.1223 0.44443 0.8808 0.0
C895 C 0.16827 0.52577 0.92564 0.0
C896 C 0.20517 0.52494 0.91825 0.0
C897 C 0.13386 0.51511 0.91767 0.0
C898 C 0.09726 0.46374 0.88225 0.0
H899 H 0.97788 0.45644 0.82558 0.0
H900 H 0.03226 0.46296 0.84355 0.0
H901 H 0.06434 0.43348 0.86486 0.0
H902 H 0.23447 0.51052 0.89671 0.0
H903 H 0.17495 0.49171 0.88296 0.0
H904 H 0.06442 0.5423 0.90291 0.0
C905 C 1.00272 0.46724 0.8479 0.0
C906 C 0.06386 0.45749 0.87306 0.0
C907 C 0.97139 0.46378 0.83749 0.0
C908 C 0.20677 0.51144 0.90287 0.0
C909 C 0.17246 0.50054 0.89495 0.0
C910 C 0.06462 0.51806 0.89481 0.0
C911 C 0.99621 0.47717 0.86348 0.0
C912 C 0.03049 0.48188 0.87434 0.0
C913 C 0.13533 0.50298 0.90211 0.0
C914 C 0.09845 0.49448 0.89312 0.0
H915 H 0.89578 0.48497 0.86188 0.0
H916 H 0.95064 0.49065 0.88024 0.0
H917 H 1.0064 0.5316 0.88683 0.0
H918 H 0.16565 0.53616 0.93743 0.0
H919 H 0.10598 0.51687 0.92367 0.0
C920 C 0.76643 0.56236 0.85513 0.0
C921 C 0.78709 0.56244 0.84102 0.0
C922 C 0.75764 0.59738 0.86287 0.0
C923 C 0.78785 0.70252 0.86585 0.0
H924 H 0.69442 0.70893 0.89139 0.0
C925 C 0.74567 0.84219 0.90194 0.0
C926 C 0.73415 0.83491 0.9173 0.0
C927 C 0.75037 0.81104 0.8914 0.0
C928 C 0.72077 0.70762 0.88438 0.0
H929 H 0.81379 0.60034 0.82388 0.0
H930 H 0.79759 0.66176 0.83723 0.0
H931 H 0.70462 0.65197 0.87488 0.0
H932 H 0.71789 0.78933 0.93351 0.0
H933 H 0.72546 0.73533 0.91518 0.0
H934 H 0.80361 0.75862 0.87539 0.0
C935 C 0.78878 0.63427 0.84245 0.0
C936 C 0.72677 0.67475 0.8749 0.0
C937 C 0.79775 0.59898 0.83468 0.0
C938 C 0.72679 0.79596 0.92177 0.0
C939 C 0.73096 0.76498 0.91122 0.0
C940 C 0.7816 0.73568 0.87525 0.0
C941 C 0.76889 0.634 0.85678 0.0
C942 C 0.76083 0.67115 0.86571 0.0
C943 C 0.74304 0.77196 0.8959 0.0
C944 C 0.74833 0.73833 0.88488 0.0
H945 H 0.75777 0.53502 0.86052 0.0
H946 H 0.74303 0.59544 0.87396 0.0
H947 H 0.81463 0.70093 0.85912 0.0
H948 H 0.75159 0.87189 0.89814 0.0
H949 H 0.75943 0.81758 0.87968 0.0
C950 C 0.43587 0.5065 0.65588 0.0
C951 C 0.44049 0.50638 0.67202 0.0
C952 C 0.46883 0.50494 0.64606 0.0
C953 C 0.57587 0.47893 0.64575 0.0
H954 H 0.57894 0.54313 0.60881 0.0
C955 C 0.72083 0.51276 0.61287 0.0
C956 C 0.71983 0.51903 0.59677 0.0
C957 C 0.68618 0.50587 0.62124 0.0
C958 C 0.57848 0.52444 0.61893 0.0
H959 H 0.48339 0.50462 0.69051 0.0
H960 H 0.54056 0.50244 0.67356 0.0
H961 H 0.5199 0.54247 0.62477 0.0
H962 H 0.68111 0.52055 0.57686 0.0
H963 H 0.621 0.50772 0.59138 0.0
H964 H 0.63458 0.46122 0.64001 0.0
C965 C 0.51162 0.50318 0.66836 0.0
C966 C 0.54446 0.52412 0.62814 0.0
C967 C 0.47876 0.50488 0.67812 0.0
C968 C 0.6833 0.5158 0.5892 0.0
C969 C 0.6486 0.50896 0.5976 0.0
C970 C 0.60986 0.47921 0.63654 0.0
C971 C 0.50727 0.50313 0.65216 0.0
C972 C 0.54277 0.50176 0.64181 0.0
C973 C 0.64933 0.50501 0.61382 0.0
C974 C 0.61194 0.50233 0.62306 0.0
H975 H 0.40678 0.50785 0.65082 0.0
H976 H 0.46411 0.50465 0.63369 0.0
H977 H 0.57557 0.46066 0.65599 0.0
H978 H 0.7482 0.51517 0.61919 0.0
H979 H 0.68821 0.50325 0.63369 0.0
C980 C 0.77242 0.17842 0.40147 0.0
C981 C 0.78839 0.18583 0.41619 0.0
C982 C 0.76522 0.20947 0.39108 0.0
C983 C 0.7527 0.31894 0.39091 0.0
H984 H 0.76356 0.30941 0.34645 0.0
C985 C 0.75443 0.45552 0.35242 0.0
C986 C 0.72925 0.45648 0.33949 0.0
C987 C 0.76188 0.42052 0.36033 0.0
C988 C 0.76009 0.3124 0.35884 0.0
H989 H 0.81098 0.2313 0.43122 0.0
H990 H 0.7998 0.28478 0.41318 0.0
H991 H 0.77657 0.25239 0.36304 0.0
H992 H 0.69391 0.42017 0.32432 0.0
H993 H 0.70761 0.35843 0.33813 0.0
H994 H 0.73712 0.37893 0.3868 0.0
C995 C 0.79138 0.25544 0.40969 0.0
C996 C 0.76747 0.27967 0.36839 0.0
C997 C 0.79819 0.22462 0.42006 0.0
C998 C 0.71348 0.42067 0.33419 0.0
C999 C 0.72128 0.38527 0.34212 0.0
C1000 C 0.74579 0.35152 0.38143 0.0
C1001 C 0.774 0.24864 0.39514 0.0
C1002 C 0.76447 0.28261 0.38463 0.0
C1003 C 0.74469 0.38505 0.35557 0.0
C1004 C 0.74989 0.34897 0.36529 0.0
H1005 H 0.76453 0.14881 0.39815 0.0
H1006 H 0.75171 0.20283 0.38006 0.0
H1007 H 0.74867 0.32241 0.40325 0.0
H1008 H 0.76761 0.48219 0.35683 0.0
H1009 H 0.7807 0.42139 0.37043 0.0
C1010 C 0.84269 0.48332 0.08956 0.0
C1011 C 0.80606 0.49827 0.09424 0.0
C1012 C 0.87671 0.48999 0.09834 0.0
C1013 C 0.90899 0.52763 0.13784 0.0
H1014 H 0.0116 0.50522 0.12072 0.0
C1015 C 0.08775 0.52755 0.15622 0.0
C1016 C 0.08316 0.52563 0.17233 0.0
C1017 C 0.05486 0.52719 0.14634 0.0
C1018 C 0.98355 0.51243 0.12585 0.0
H1019 H 0.77697 0.5338 0.1115 0.0
H1020 H 0.83635 0.54891 0.12598 0.0
H1021 H 0.95511 0.50438 0.10415 0.0
H1022 H 0.04028 0.51911 0.19061 0.0
H1023 H 0.98393 0.51473 0.17374 0.0
H1024 H 0.93775 0.53944 0.15917 0.0
C1025 C 0.8391 0.5299 0.11603 0.0
C1026 C 0.95028 0.51098 0.11622 0.0
C1027 C 0.80474 0.52193 0.10752 0.0
C1028 C 0.04498 0.5214 0.17826 0.0
C1029 C 0.01225 0.51951 0.16842 0.0
C1030 C 0.94237 0.53052 0.14732 0.0
C1031 C 0.87574 0.51302 0.11194 0.0
C1032 C 0.91204 0.51771 0.12204 0.0
C1033 C 0.01621 0.52311 0.15221 0.0
C1034 C 0.98044 0.52213 0.14167 0.0
H1035 H 0.84473 0.46416 0.07959 0.0
H1036 H 0.90329 0.47537 0.09465 0.0
H1037 H 0.88074 0.53263 0.14319 0.0
H1038 H 0.11676 0.52944 0.1512 0.0
H1039 H 0.06021 0.53051 0.1341 0.0
C1040 C 0.75854 0.67199 0.60711 0.0
C1041 C 0.76301 0.67805 0.59113 0.0
C1042 C 0.75578 0.70402 0.61731 0.0
C1043 C 0.78088 0.80943 0.62086 0.0
H1044 H 0.6989 0.81323 0.65193 0.0
C1045 C 0.73977 0.95429 0.65148 0.0
C1046 C 0.72468 0.9541 0.66664 0.0
C1047 C 0.74765 0.91925 0.64361 0.0
C1048 C 0.72249 0.81251 0.64355 0.0
H1049 H 0.76862 0.72242 0.57335 0.0
H1050 H 0.76431 0.77814 0.59108 0.0
H1051 H 0.70623 0.75485 0.63576 0.0
H1052 H 0.7074 0.9161 0.68553 0.0
H1053 H 0.72226 0.85475 0.67195 0.0
H1054 H 0.79765 0.8666 0.62863 0.0
C1055 C 0.76279 0.74872 0.59578 0.0
C1056 C 0.72657 0.77896 0.6342 0.0
C1057 C 0.76494 0.71677 0.58559 0.0
C1058 C 0.71906 0.91754 0.6739 0.0
C1059 C 0.7272 0.88226 0.66601 0.0
C1060 C 0.77715 0.8427 0.6303 0.0
C1061 C 0.75806 0.74285 0.61179 0.0
C1062 C 0.75536 0.77728 0.62253 0.0
C1063 C 0.7411 0.88255 0.65063 0.0
C1064 C 0.74738 0.84523 0.6416 0.0
H1065 H 0.75695 0.64246 0.61171 0.0
H1066 H 0.75243 0.69838 0.62956 0.0
H1067 H 0.80389 0.80889 0.61221 0.0
H1068 H 0.74442 0.98165 0.64538 0.0
H1069 H 0.75759 0.92116 0.63175 0.0
C1070 C 0.85059 0.98271 0.92466 0.0
C1071 C 0.81431 0.98806 0.91711 0.0
C1072 C 0.88622 0.99104 0.91705 0.0
C1073 C 0.92754 0.04088 0.88174 0.0
H1074 H 0.01394 0.96784 0.88711 0.0
C1075 C 0.05261 0.02557 0.8369 0.0
C1076 C 0.09142 0.02138 0.84222 0.0
C1077 C 0.02092 0.02485 0.84723 0.0
C1078 C 0.9903 0.98882 0.8856 0.0
H1079 H 0.78753 1.00796 0.89571 0.0
H1080 H 0.84872 0.02176 0.88258 0.0
H1081 H 0.95518 0.96159 0.90315 0.0
H1082 H 0.12743 0.01316 0.8626 0.0
H1083 H 0.07183 0.01125 0.88072 0.0
H1084 H 0.96217 0.06723 0.86383 0.0
C1085 C 0.8501 0.01166 0.89443 0.0
C1086 C 0.95652 0.98534 0.89486 0.0
C1087 C 0.81469 1.00346 0.902 0.0
C1088 C 0.09783 0.01643 0.85816 0.0
C1089 C 0.06597 0.01517 0.86852 0.0
C1090 C 0.96108 0.04409 0.87241 0.0
C1091 C 0.88654 1.005 0.90169 0.0
C1092 C 0.92426 0.01092 0.8929 0.0
C1093 C 0.02704 0.01945 0.86318 0.0
C1094 C 0.9927 0.01775 0.87402 0.0
H1095 H 0.85161 0.97078 0.93625 0.0
H1096 H 0.91353 0.98605 0.92317 0.0
H1097 H 0.90397 0.06184 0.88007 0.0
H1098 H 0.04669 0.02965 0.8247 0.0
H1099 H 0.99143 0.02785 0.84266 0.0
C1100 C 0.77756 0.09707 0.17035 0.0
C1101 C 0.77729 0.06 0.16311 0.0
C1102 C 0.77039 0.13148 0.16184 0.0
C1103 C 0.77748 0.16819 0.1216 0.0
H1104 H 0.72256 0.25967 0.1373 0.0
C1105 C 0.74807 0.30205 0.08249 0.0
C1106 C 0.75097 0.33989 0.08884 0.0
C1107 C 0.74897 0.26875 0.09195 0.0
C1108 C 0.7384 0.23457 0.13279 0.0
H1109 H 0.76671 0.03036 0.1413 0.0
H1110 H 0.75368 0.08993 0.12663 0.0
H1111 H 0.72638 0.2001 0.15304 0.0
H1112 H 0.75696 0.3725 0.11017 0.0
H1113 H 0.75925 0.3142 0.12682 0.0
H1114 H 0.79012 0.20243 0.10152 0.0
C1115 C 0.76031 0.09256 0.13883 0.0
C1116 C 0.7405 0.20029 0.14183 0.0
C1117 C 0.76741 0.05823 0.14732 0.0
C1118 C 0.7545 0.34371 0.10496 0.0
C1119 C 0.75564 0.31023 0.11448 0.0
C1120 C 0.77552 0.20235 0.11263 0.0
C1121 C 0.76282 0.1298 0.14585 0.0
C1122 C 0.75989 0.16649 0.13631 0.0
C1123 C 0.7532 0.27218 0.10809 0.0
C1124 C 0.75575 0.23605 0.11801 0.0
H1125 H 0.78518 0.09979 0.18246 0.0
H1126 H 0.7727 0.15952 0.16766 0.0
H1127 H 0.79354 0.14324 0.11708 0.0
H1128 H 0.74472 0.29808 0.07013 0.0
H1129 H 0.74603 0.24022 0.08656 0.0
C1130 C 0.66809 0.05519 0.4243 0.0
C1131 C 0.70238 0.03415 0.42057 0.0
C1132 C 0.63291 0.04863 0.41617 0.0
C1133 C 0.59823 1.00535 0.37859 0.0
H1134 H 0.4954 0.03094 0.39497 0.0
C1135 C 0.46462 0.01747 0.33784 0.0
C1136 C 0.42729 1.00631 0.34317 0.0
C1137 C 0.49654 0.0202 0.34801 0.0
C1138 C 0.52374 0.02313 0.39018 0.0
H1139 H 0.72584 0.98775 0.40618 0.0
H1140 H 0.66437 0.97429 0.39284 0.0
H1141 H 0.55246 0.0329 0.41188 0.0
H1142 H 0.39374 0.99154 0.36356 0.0
H1143 H 0.44968 0.99411 0.38127 0.0
H1144 H 0.56954 0.99368 0.35714 0.0
C1145 C 0.66467 0.99734 0.40144 0.0
C1146 C 0.55684 0.02485 0.3999 0.0
C1147 C 0.69998 1.00457 0.4093 0.0
C1148 C 0.42234 0.99921 0.35904 0.0
C1149 C 0.45449 1.00128 0.36923 0.0
C1150 C 0.56518 1.00299 0.36898 0.0
C1151 C 0.63086 0.0203 0.40428 0.0
C1152 C 0.5948 0.01637 0.39424 0.0
C1153 C 0.49233 0.01137 0.36385 0.0
C1154 C 0.52737 0.01241 0.3745 0.0
H1155 H 0.66908 0.07863 0.43275 0.0
H1156 H 0.60801 0.06732 0.41873 0.0
H1157 H 0.62665 0.99924 0.37352 0.0
H1158 H 0.46939 0.0236 0.3257 0.0
H1159 H 0.52459 0.02932 0.34334 0.0
C1160 C 0.2526 0.3325 0.40466 0.0
C1161 C 0.25145 0.32686 0.42075 0.0
C1162 C 0.25087 0.3002 0.3945 0.0
C1163 C 0.27074 0.22442 0.37642 0.0
H1164 H 0.2044 0.13579 0.38677 0.0
C1165 C 0.26715 0.08453 0.3378 0.0
C1166 C 0.26837 0.04829 0.34564 0.0
C1167 C 0.25942 0.11967 0.34581 0.0
C1168 C 0.22337 0.16008 0.38371 0.0
H1169 H 0.24699 0.28285 0.43874 0.0
H1170 H 0.24418 0.22704 0.42124 0.0
H1171 H 0.20254 0.19473 0.40272 0.0
H1172 H 0.26005 0.02094 0.36804 0.0
H1173 H 0.24661 0.08159 0.38185 0.0
H1174 H 0.29216 0.18946 0.35759 0.0
C1175 C 0.24614 0.25621 0.41633 0.0
C1176 C 0.22229 0.19405 0.39291 0.0
C1177 C 0.24817 0.28832 0.42642 0.0
C1178 C 0.25927 0.04807 0.36152 0.0
C1179 C 0.25147 0.08311 0.3695 0.0
C1180 C 0.27188 0.19037 0.36723 0.0
C1181 C 0.24757 0.2615 0.4002 0.0
C1182 C 0.24644 0.22655 0.38957 0.0
C1183 C 0.2525 0.11965 0.36188 0.0
C1184 C 0.24866 0.15736 0.37086 0.0
H1185 H 0.25509 0.36183 0.39993 0.0
H1186 H 0.25174 0.30558 0.38217 0.0
H1187 H 0.29005 0.24856 0.37352 0.0
H1188 H 0.27417 0.08611 0.32561 0.0
H1189 H 0.25977 0.14701 0.33943 0.0
C1190 C 0.97222 0.99139 0.17237 0.0
C1191 C 0.9334 0.99637 0.16716 0.0
C1192 C 1.00386 0.99266 0.162 0.0
C1193 C 0.0348 0.03171 0.12415 0.0
H1194 H 0.11988 0.95673 0.12841 0.0
C1195 C 0.17443 0.03887 0.08487 0.0
C1196 C 0.2107 0.03126 0.09213 0.0
C1197 C 0.13868 0.03098 0.0925 0.0
C1198 C 0.09671 0.97829 0.12711 0.0
H1199 H 0.89732 1.00643 0.14693 0.0
H1200 H 0.95283 1.00937 0.12876 0.0
H1201 H 0.06181 0.95079 0.14466 0.0
H1202 H 0.2372 1.00812 0.11308 0.0
H1203 H 0.17593 0.99523 0.12625 0.0
H1204 H 0.07024 0.06008 0.10697 0.0
C1205 C 0.95873 1.00441 0.14091 0.0
C1206 C 0.06321 0.97473 0.13645 0.0
C1207 C 0.92692 1.00255 0.15129 0.0
C1208 C 0.21008 0.01434 0.10699 0.0
C1209 C 0.17459 1.00665 0.11458 0.0
C1210 C 0.06859 0.03557 0.1149 0.0
C1211 C 0.99768 0.99942 0.14613 0.0
C1212 C 0.03199 1.0017 0.13528 0.0
C1213 C 0.1382 0.01528 0.1076 0.0
C1214 C 0.10045 1.00927 0.1164 0.0
H1215 H 0.97821 0.9864 0.18451 0.0
H1216 H 0.03336 0.98906 0.1665 0.0
H1217 H 0.01148 0.05318 0.12299 0.0
H1218 H 0.17357 0.05201 0.07348 0.0
H1219 H 0.11143 0.03757 0.08658 0.0
C1220 C 0.25069 0.92812 0.83842 0.0
C1221 C 0.2494 0.96463 0.84608 0.0
C1222 C 0.25787 0.89323 0.84663 0.0
C1223 C 0.29278 0.85375 0.88476 0.0
H1224 H 0.22642 0.76506 0.87446 0.0
C1225 C 0.26919 0.72473 0.92719 0.0
C1226 C 0.26599 0.68632 0.92137 0.0
C1227 C 0.2708 0.75707 0.91721 0.0
C1228 C 0.24565 0.78925 0.87739 0.0
H1229 H 0.25681 0.99268 0.86841 0.0
H1230 H 0.26927 0.93234 0.88259 0.0
H1231 H 0.22433 0.82407 0.85852 0.0
H1232 H 0.26189 0.6518 0.90044 0.0
H1233 H 0.26476 0.70839 0.88289 0.0
H1234 H 0.3136 0.81918 0.90377 0.0
C1235 C 0.26493 0.93049 0.87021 0.0
C1236 C 0.24449 0.82326 0.8682 0.0
C1237 C 0.25769 0.96533 0.86203 0.0
C1238 C 0.26442 0.68102 0.90527 0.0
C1239 C 0.26583 0.71353 0.89523 0.0
C1240 C 0.29389 0.8198 0.89394 0.0
C1241 C 0.26412 0.89374 0.86273 0.0
C1242 C 0.26766 0.85629 0.87185 0.0
C1243 C 0.26909 0.7521 0.90107 0.0
C1244 C 0.26992 0.7872 0.89055 0.0
H1245 H 0.2444 0.92618 0.82618 0.0
H1246 H 0.25775 0.86571 0.84037 0.0
H1247 H 0.31165 0.8781 0.88782 0.0
H1248 H 0.27061 0.72989 0.93953 0.0
H1249 H 0.2727 0.78614 0.92222 0.0
C1250 C 0.53664 0.04845 0.67198 0.0
C1251 C 0.57553 0.0412 0.66729 0.0
C1252 C 0.50528 0.04434 0.6616 0.0
C1253 C 0.47571 0.9947 0.6253 0.0
H1254 H 0.38856 0.06799 0.62694 0.0
C1255 C 0.33752 0.97723 0.58571 0.0
C1256 C 0.30085 0.98429 0.59275 0.0
C1257 C 0.37278 0.98736 0.59326 0.0
C1258 C 0.41239 0.04694 0.62638 0.0
H1259 H 0.612 0.0243 0.64788 0.0
H1260 H 0.55705 0.01685 0.62967 0.0
H1261 H 0.44635 0.07918 0.64293 0.0
H1262 H 0.27305 1.00878 0.61319 0.0
H1263 H 0.33367 0.0259 0.6262 0.0
H1264 H 0.4413 0.96194 0.60901 0.0
C1265 C 0.55082 0.0256 0.64146 0.0
C1266 C 0.44571 0.05344 0.63558 0.0
C1267 C 0.58236 0.03008 0.65185 0.0
C1268 C 0.30052 1.00289 0.60729 0.0
C1269 C 0.33557 0.01299 0.61479 0.0
C1270 C 0.44221 0.98806 0.61613 0.0
C1271 C 0.51176 0.03261 0.6462 0.0
C1272 C 0.47764 0.02712 0.63539 0.0
C1273 C 0.37236 1.00496 0.60803 0.0
C1274 C 0.40969 0.01373 0.61672 0.0
H1275 H 0.53032 0.05702 0.68378 0.0
H1276 H 0.47572 0.04952 0.66579 0.0
H1277 H 0.49952 0.97359 0.6249 0.0
H1278 H 0.33909 0.96282 0.57457 0.0
H1279 H 0.4004 0.9811 0.58755 0.0
C1280 C 0.26665 0.06321 1.00557 0.0
C1281 C 0.25491 0.09199 0.0162 0.0
C1282 C 0.25587 0.06627 0.99006 0.0
C1283 C 0.25436 0.09487 0.95719 0.0
H1284 H 0.15224 0.13186 0.94353 0.0
C1285 C 0.22677 0.1276 0.8934 0.0
C1286 C 0.19183 0.11269 0.88715 0.0
C1287 C 0.23192 0.12939 0.90938 0.0
C1288 C 0.18084 0.12135 0.94717 0.0
H1289 H 0.22188 0.14586 0.01923 0.0
H1290 H 0.20356 0.15171 0.99201 0.0
H1291 H 0.16497 0.12331 0.97113 0.0
H1292 H 0.13411 0.08964 0.89251 0.0
H1293 H 0.14333 0.09196 0.92051 0.0
H1294 H 0.27 0.09166 0.93335 0.0
C1295 C 0.22061 0.12649 0.99566 0.0
C1296 C 0.18823 0.11678 0.96298 0.0
C1297 C 0.23123 0.12327 0.01121 0.0
C1298 C 0.1613 0.10137 0.8971 0.0
C1299 C 0.16657 0.10283 0.91311 0.0
C1300 C 0.24695 0.09931 0.94145 0.0
C1301 C 0.23341 0.09837 0.98486 0.0
C1302 C 0.22505 0.1033 0.96814 0.0
C1303 C 0.20238 0.11586 0.91941 0.0
C1304 C 0.21015 0.11261 0.93624 0.0
H1305 H 0.28474 0.03867 0.00918 0.0
H1306 H 0.26552 0.04369 0.9821 0.0
H1307 H 0.28325 0.08504 0.96077 0.0
H1308 H 0.25062 0.13679 0.88594 0.0
H1309 H 0.25949 0.14044 0.91386 0.0
C1310 C 0.68064 0.41211 0.14698 0.0
C1311 C 0.66083 0.43747 0.13687 0.0
C1312 C 0.67773 0.41745 0.16295 0.0
C1313 C 0.65115 0.4951 0.19132 0.0
H1314 H 0.66306 0.41043 0.22093 0.0
C1315 C 0.62948 0.51451 0.25684 0.0
C1316 C 0.66355 0.5066 0.26544 0.0
C1317 C 0.62697 0.50295 0.24141 0.0
C1318 C 0.65973 0.43422 0.21272 0.0
H1319 H 0.62046 0.48643 0.13525 0.0
H1320 H 0.61324 0.49437 0.16307 0.0
H1321 H 0.65983 0.39535 0.19331 0.0
H1322 H 0.7211 0.47933 0.26503 0.0
H1323 H 0.71618 0.45796 0.23796 0.0
H1324 H 0.64982 0.53368 0.21086 0.0
C1325 C 0.63259 0.47153 0.15883 0.0
C1326 C 0.6581 0.42573 0.19692 0.0
C1327 C 0.63633 0.46679 0.14288 0.0
C1328 C 0.69459 0.48578 0.25857 0.0
C1329 C 0.69173 0.47346 0.24319 0.0
C1330 C 0.65192 0.5034 0.20709 0.0
C1331 C 0.65423 0.44777 0.16909 0.0
C1332 C 0.65404 0.45613 0.18599 0.0
C1333 C 0.65815 0.48257 0.23447 0.0
C1334 C 0.65648 0.4731 0.21787 0.0
H1335 H 0.69992 0.38939 0.14254 0.0
H1336 H 0.69522 0.39883 0.1704 0.0
H1337 H 0.64914 0.51948 0.18333 0.0
H1338 H 0.60517 0.53058 0.26191 0.0
H1339 H 0.60083 0.5102 0.23484 0.0
C1340 C 0.25 0.95128 0.50622 0.0
C1341 C 0.26126 0.92229 0.51683 0.0
C1342 C 0.26105 0.94828 0.49075 0.0
C1343 C 0.26305 0.92022 0.45781 0.0
H1344 H 0.36482 0.88152 0.44451 0.0
C1345 C 0.29249 0.88896 0.39395 0.0
C1346 C 0.32818 0.90301 0.38808 0.0
C1347 C 0.28647 0.88686 0.40988 0.0
C1348 C 0.33633 0.89252 0.44805 0.0
H1349 H 0.29371 0.86806 0.51986 0.0
H1350 H 0.31244 0.86228 0.4927 0.0
H1351 H 0.35153 0.88996 0.47205 0.0
H1352 H 0.38624 0.92429 0.39402 0.0
H1353 H 0.37549 0.92151 0.42189 0.0
H1354 H 0.24816 0.92416 0.43391 0.0
C1355 C 0.2956 0.88766 0.49634 0.0
C1356 C 0.3286 0.89702 0.46382 0.0
C1357 C 0.28476 0.89085 0.51186 0.0
C1358 C 0.35846 0.91323 0.39832 0.0
C1359 C 0.35233 0.91148 0.41427 0.0
C1360 C 0.27081 0.91591 0.44209 0.0
C1361 C 0.28326 0.916 0.48556 0.0
C1362 C 0.29191 0.91112 0.46886 0.0
C1363 C 0.31589 0.89922 0.42021 0.0
C1364 C 0.30752 0.90205 0.43701 0.0
H1365 H 0.23205 0.97594 0.50983 0.0
H1366 H 0.25178 0.97105 0.4828 0.0
H1367 H 0.23424 0.93051 0.46129 0.0
H1368 H 0.26881 0.88065 0.38625 0.0
H1369 H 0.25838 0.87643 0.41409 0.0
C1370 C 0.83962 0.61516 0.64728 0.0
C1371 C 0.86146 0.59076 0.63744 0.0
C1372 C 0.84159 0.6101 0.66329 0.0
C1373 C 0.86959 0.53383 0.69198 0.0
H1374 H 0.85033 0.61752 0.72146 0.0
C1375 C 0.88797 0.51679 0.75776 0.0
C1376 C 0.85231 0.52045 0.76579 0.0
C1377 C 0.89077 0.52893 0.74241 0.0
C1378 C 0.85568 0.59402 0.71328 0.0
H1379 H 0.90445 0.54399 0.63636 0.0
H1380 H 0.91001 0.5367 0.66428 0.0
H1381 H 0.85539 0.63298 0.6939 0.0
H1382 H 0.79208 0.54089 0.76445 0.0
H1383 H 0.79741 0.56335 0.73752 0.0
H1384 H 0.87119 0.49527 0.71151 0.0
C1385 C 0.88984 0.55847 0.65978 0.0
C1386 C 0.85839 0.6027 0.69751 0.0
C1387 C 0.88707 0.56288 0.64378 0.0
C1388 C 0.81984 0.53775 0.75844 0.0
C1389 C 0.8229 0.55068 0.74314 0.0
C1390 C 0.86775 0.52539 0.70772 0.0
C1391 C 0.86612 0.58107 0.66974 0.0
C1392 C 0.86516 0.57264 0.68663 0.0
C1393 C 0.85821 0.54569 0.73499 0.0
C1394 C 0.86054 0.55533 0.71844 0.0
H1395 H 0.81943 0.63672 0.64259 0.0
H1396 H 0.82253 0.6278 0.67049 0.0
H1397 H 0.87369 0.50965 0.68402 0.0
H1398 H 0.91341 0.50348 0.76318 0.0
H1399 H 0.91822 0.52483 0.73626 0.0
C1400 C 0.86328 0.90769 0.11368 0.0
C1401 C 0.82912 0.91099 0.12272 0.0
C1402 C 0.86066 0.90765 0.09753 0.0
C1403 C 0.80318 0.9506 0.06751 0.0
H1404 H 0.83414 0.86636 0.03991 0.0
C1405 C 0.74734 0.94436 1.00536 0.0
C1406 C 0.77142 0.92875 0.99374 0.0
C1407 C 0.7591 0.94293 0.02077 0.0
C1408 C 0.82609 0.89051 0.04741 0.0
H1409 H 0.76555 0.9154 0.12213 0.0
H1410 H 0.76115 0.9162 0.09398 0.0
H1411 H 0.84678 0.86048 0.0677 0.0
H1412 H 0.82692 0.90006 0.98891 0.0
H1413 H 0.84825 0.89853 0.01595 0.0
H1414 H 0.78296 0.98111 0.0475 0.0
C1415 C 0.78978 0.9134 0.09936 0.0
C1416 C 0.83317 0.88697 0.06329 0.0
C1417 C 0.79232 0.91278 0.11543 0.0
C1418 C 0.80784 0.91224 0.99772 0.0
C1419 C 0.81987 0.91115 0.01319 0.0
C1420 C 0.7967 0.95446 0.05168 0.0
C1421 C 0.82392 0.91161 0.09031 0.0
C1422 C 0.82079 0.91659 0.07344 0.0
C1423 C 0.7955 0.92632 0.02491 0.0
C1424 C 0.80699 0.924 0.04147 0.0
H1425 H 0.89199 0.90638 0.11907 0.0
H1426 H 0.88731 0.9063 0.0907 0.0
H1427 H 0.79392 0.97403 0.07517 0.0
H1428 H 0.71895 0.95699 1.00259 0.0
H1429 H 0.73911 0.95408 0.02947 0.0
C1430 C 0.35525 0.54386 0.86897 0.0
C1431 C 0.35134 0.581 0.87577 0.0
C1432 C 0.35683 0.54003 0.85295 0.0
C1433 C 0.32777 0.59181 0.81732 0.0
H1434 H 0.38774 0.50822 0.79801 0.0
C1435 C 0.33764 0.56308 0.75092 0.0
C1436 C 0.33184 0.52377 0.74661 0.0
C1437 C 0.34043 0.57328 0.76655 0.0
C1438 C 0.37078 0.53162 0.80328 0.0
H1439 H 0.34751 0.64348 0.87135 0.0
H1440 H 0.35137 0.63698 0.84322 0.0
H1441 H 0.39596 0.5212 0.82552 0.0
H1442 H 0.32302 0.46452 0.75506 0.0
H1443 H 0.32831 0.48229 0.78231 0.0
H1444 H 0.30293 0.60221 0.79489 0.0
C1445 C 0.35238 0.6107 0.85025 0.0
C1446 C 0.37539 0.53902 0.81902 0.0
C1447 C 0.35052 0.61448 0.86633 0.0
C1448 C 0.32756 0.49505 0.7581 0.0
C1449 C 0.33084 0.50514 0.77366 0.0
C1450 C 0.32353 0.58468 0.8015 0.0
C1451 C 0.35487 0.57335 0.84337 0.0
C1452 C 0.35329 0.5686 0.82632 0.0
C1453 C 0.33801 0.54419 0.778 0.0
C1454 C 0.34437 0.55394 0.79444 0.0
H1455 H 0.35569 0.51756 0.87601 0.0
H1456 H 0.35808 0.51077 0.84808 0.0
H1457 H 0.30994 0.61452 0.82259 0.0
H1458 H 0.34106 0.58571 0.74224 0.0
H1459 H 0.34596 0.60359 0.76965 0.0
C1460 C 0.73274 0.09063 0.61605 0.0
C1461 C 0.70029 0.10727 0.62355 0.0
C1462 C 0.73756 0.09514 0.6002 0.0
C1463 C 0.68476 0.12341 0.56425 0.0
H1464 H 0.79148 0.12341 0.54868 0.0
C1465 C 0.72049 0.09803 0.49967 0.0
C1466 C 0.75628 0.11207 0.49394 0.0
C1467 C 0.7112 0.10282 0.51531 0.0
C1468 C 0.76137 0.12444 0.55269 0.0
H1469 H 0.64743 0.14189 0.62061 0.0
H1470 H 0.65692 0.15189 0.59282 0.0
H1471 H 0.7804 0.12432 0.57609 0.0
H1472 H 0.80905 0.14462 0.49933 0.0
H1473 H 0.79168 0.15607 0.52615 0.0
H1474 H 0.66585 0.12598 0.54071 0.0
C1475 C 0.67806 0.13425 0.59909 0.0
C1476 C 0.755 0.124 0.56856 0.0
C1477 C 0.67274 0.12885 0.61499 0.0
C1478 C 0.78158 0.13292 0.50368 0.0
C1479 C 0.77169 0.13908 0.51909 0.0
C1480 C 0.69114 0.125 0.54829 0.0
C1481 C 0.71061 0.1174 0.59149 0.0
C1482 C 0.71669 0.12228 0.57458 0.0
C1483 C 0.73706 0.12289 0.52531 0.0
C1484 C 0.7296 0.12471 0.54227 0.0
H1485 H 0.75404 0.07328 0.62239 0.0
H1486 H 0.76224 0.08054 0.59477 0.0
H1487 H 0.65481 0.12195 0.56842 0.0
H1488 H 0.70064 0.08185 0.49223 0.0
H1489 H 0.6845 0.08947 0.5196 0.0
C1490 C 0.16194 0.40263 0.36671 0.0
C1491 C 0.165 0.43584 0.37623 0.0
C1492 C 0.15921 0.40687 0.35067 0.0
C1493 C 0.14189 0.48149 0.31982 0.0
H1494 H 0.20382 0.41016 0.29468 0.0
C1495 C 0.1938 0.52004 0.25874 0.0
C1496 C 0.18431 0.49296 0.24711 0.0
C1497 C 0.18916 0.51006 0.27426 0.0
C1498 C 0.18612 0.43 0.30157 0.0
H1499 H 0.16686 0.49938 0.37665 0.0
H1500 H 0.16334 0.5069 0.34878 0.0
H1501 H 0.19765 0.39836 0.32242 0.0
H1502 H 0.16403 0.43388 0.24241 0.0
H1503 H 0.15695 0.41596 0.26977 0.0
H1504 H 0.13207 0.5141 0.29902 0.0
C1505 C 0.16197 0.47756 0.35356 0.0
C1506 C 0.18234 0.42319 0.31744 0.0
C1507 C 0.16424 0.4733 0.36956 0.0
C1508 C 0.17155 0.45521 0.25122 0.0
C1509 C 0.16751 0.44498 0.2668 0.0
C1510 C 0.1462 0.48858 0.30404 0.0
C1511 C 0.15992 0.44441 0.34388 0.0
C1512 C 0.1607 0.44925 0.3268 0.0
C1513 C 0.17552 0.47266 0.27841 0.0
C1514 C 0.16883 0.46325 0.29485 0.0
H1515 H 0.16242 0.37339 0.37164 0.0
H1516 H 0.15703 0.38073 0.3436 0.0
H1517 H 0.12421 0.50163 0.32657 0.0
H1518 H 0.20369 0.54936 0.25586 0.0
H1519 H 0.19595 0.5317 0.28304 0.0
C1520 C 0.68023 0.6084 0.39575 0.0
C1521 C 0.71321 0.60188 0.38635 0.0
C1522 C 0.68368 0.60682 0.41183 0.0
C1523 C 0.75718 0.60855 0.44347 0.0
H1524 H 0.67704 0.55248 0.46647 0.0
C1525 C 0.78379 0.55753 0.50546 0.0
C1526 C 0.75473 0.56772 0.51624 0.0
C1527 C 0.77634 0.56082 0.48967 0.0
C1528 C 0.69945 0.56845 0.46019 0.0
H1529 H 0.77565 0.58936 0.38621 0.0
H1530 H 0.78169 0.58602 0.4142 0.0
H1531 H 0.66878 0.56291 0.4387 0.0
H1532 H 0.69453 0.58723 0.51915 0.0
H1533 H 0.68129 0.59262 0.49138 0.0
H1534 H 0.7882 0.61334 0.46488 0.0
C1535 C 0.75327 0.59301 0.40927 0.0
C1536 C 0.69467 0.57462 0.44433 0.0
C1537 C 0.74983 0.59474 0.39323 0.0
C1538 C 0.71738 0.57918 0.51101 0.0
C1539 C 0.70982 0.58224 0.49517 0.0
C1540 C 0.76206 0.60212 0.45926 0.0
C1541 C 0.72017 0.59858 0.41876 0.0
C1542 C 0.72373 0.59437 0.43577 0.0
C1543 C 0.73964 0.57415 0.48439 0.0
C1544 C 0.73349 0.58162 0.46773 0.0
H1545 H 0.65163 0.61393 0.39067 0.0
H1546 H 0.65775 0.61178 0.41883 0.0
H1547 H 0.77971 0.62458 0.43729 0.0
H1548 H 0.81281 0.54847 0.50921 0.0
H1549 H 0.7996 0.55375 0.48158 0.0
C1550 C 0.14408 0.97624 0.64549 0.0
C1551 C 0.15634 0.94177 0.63808 0.0
C1552 C 0.14694 0.97966 0.66151 0.0
C1553 C 0.16643 0.92344 0.6977 0.0
H1554 H 0.19774 0.02632 0.71233 0.0
C1555 C 0.22119 0.01041 0.75675 0.0
C1556 C 0.19555 0.99306 0.76741 0.0
C1557 C 0.21926 1.00024 0.74114 0.0
C1558 C 0.18971 0.99718 0.70847 0.0
H1559 H 0.17994 0.8833 0.64142 0.0
H1560 H 0.18645 0.88966 0.66938 0.0
H1561 H 0.18715 0.01594 0.685 0.0
H1562 H 0.14873 0.95071 0.7704 0.0
H1563 H 0.14406 0.93413 0.74312 0.0
H1564 H 0.17089 0.90431 0.72117 0.0
C1565 C 0.17366 0.91378 0.66296 0.0
C1566 C 0.18274 0.99141 0.69277 0.0
C1567 C 0.17005 0.91011 0.64694 0.0
C1568 C 0.16895 0.96437 0.76237 0.0
C1569 C 0.16647 0.95472 0.74672 0.0
C1570 C 0.17403 0.92906 0.71343 0.0
C1571 C 0.16301 0.94898 0.6704 0.0
C1572 C 0.17054 0.95462 0.68718 0.0
C1573 C 0.19104 0.97314 0.73585 0.0
C1574 C 0.18543 0.96612 0.71903 0.0
H1575 H 0.13314 1.00092 0.63886 0.0
H1576 H 0.1373 1.00674 0.66687 0.0
H1577 H 0.15686 0.89476 0.69385 0.0
H1578 H 0.24216 0.03242 0.76043 0.0
H1579 H 0.23937 0.01426 0.73317 0.0
C1580 C 0.84065 0.40649 0.89466 0.0
C1581 C 0.80742 0.41217 0.88532 0.0
C1582 C 0.83718 0.40737 0.91075 0.0
C1583 C 0.76389 0.40338 0.94249 0.0
H1584 H 0.84158 0.46375 0.96511 0.0
C1585 C 0.73475 0.45838 1.00382 0.0
C1586 C 0.7639 0.4497 0.01476 0.0
C1587 C 0.74248 0.45394 0.98809 0.0
C1588 C 0.81989 0.44657 0.95894 0.0
H1589 H 0.7445 0.4221 0.88526 0.0
H1590 H 0.73842 0.42425 0.91324 0.0
H1591 H 0.85051 0.45215 0.93746 0.0
H1592 H 0.82446 0.43169 0.01802 0.0
H1593 H 0.8382 0.42443 0.99037 0.0
H1594 H 0.73279 0.39874 0.96388 0.0
C1595 C 0.76707 0.41848 0.90828 0.0
C1596 C 0.82506 0.43971 0.94314 0.0
C1597 C 0.77054 0.41743 0.89224 0.0
C1598 C 0.80154 0.43857 0.00975 0.0
C1599 C 0.80939 0.43444 0.99398 0.0
C1600 C 0.75858 0.41054 0.95821 0.0
C1601 C 0.80042 0.41406 0.91772 0.0
C1602 C 0.79683 0.41846 0.93471 0.0
C1603 C 0.77956 0.44104 0.98306 0.0
C1604 C 0.78624 0.43262 0.96652 0.0
H1605 H 0.86943 0.4024 0.88955 0.0
H1606 H 0.86331 0.40333 0.91773 0.0
H1607 H 0.74202 0.38623 0.9364 0.0
H1608 H 0.70551 0.4671 0.00741 0.0
H1609 H 0.7192 0.45983 0.97986 0.0
C1610 C 0.33451 0.04916 0.26205 0.0
C1611 C 0.32738 1.01031 0.26666 0.0
C1612 C 0.33887 0.05825 0.24639 0.0
C1613 C 0.36965 0.01238 0.21027 0.0
H1614 H 0.31718 0.09936 0.18998 0.0
C1615 C 0.35828 0.02381 0.14447 0.0
C1616 C 0.35953 0.06094 0.13751 0.0
C1617 C 0.35836 0.02033 0.16051 0.0
C1618 C 0.33264 0.07541 0.19555 0.0
H1619 H 0.31755 0.95079 0.25869 0.0
H1620 H 0.32518 0.96664 0.23136 0.0
H1621 H 0.30713 0.08846 0.21763 0.0
H1622 H 0.36312 0.12355 0.14168 0.0
H1623 H 0.36393 0.11749 0.16988 0.0
H1624 H 0.3952 0.99915 0.18832 0.0
C1625 C 0.32781 0.98996 0.23981 0.0
C1626 C 0.3267 0.0691 0.21134 0.0
C1627 C 0.32316 0.98097 0.25541 0.0
C1628 C 0.36216 0.09457 0.14682 0.0
C1629 C 0.36232 0.0911 0.16292 0.0
C1630 C 0.37582 0.01883 0.19456 0.0
C1631 C 0.33651 0.0285 0.23518 0.0
C1632 C 0.34452 0.03703 0.21874 0.0
C1633 C 0.35984 0.05393 0.16993 0.0
C1634 C 0.35674 0.0499 0.18694 0.0
H1635 H 0.33792 0.07226 0.27056 0.0
H1636 H 0.34558 0.08817 0.2431 0.0
H1637 H 0.38442 0.98793 0.2158 0.0
H1638 H 0.35604 0.99743 0.13752 0.0
H1639 H 0.35581 0.9913 0.16551 0.0
C1640 C 0.31062 0.39749 0.61917 0.0
C1641 C 0.34457 0.41394 0.62564 0.0
C1642 C 0.30566 0.39669 0.60317 0.0
C1643 C 0.35709 0.41117 0.56566 0.0
H1644 H 0.25173 0.43648 0.55175 0.0
C1645 C 0.2647 0.45577 0.50667 0.0
C1646 C 0.28179 0.42926 0.49626 0.0
C1647 C 0.27556 0.45536 0.52223 0.0
C1648 C 0.28148 0.42995 0.55539 0.0
H1649 H 0.40072 0.44105 0.62066 0.0
H1650 H 0.39173 0.44063 0.59267 0.0
H1651 H 0.265 0.43118 0.57916 0.0
H1652 H 0.32409 0.38213 0.49367 0.0
H1653 H 0.34204 0.38023 0.52093 0.0
H1654 H 0.37383 0.41159 0.54183 0.0
C1655 C 0.36918 0.42768 0.59987 0.0
C1656 C 0.28894 0.42613 0.57115 0.0
C1657 C 0.37432 0.42803 0.61589 0.0
C1658 C 0.31065 0.40301 0.50151 0.0
C1659 C 0.32106 0.40212 0.51712 0.0
C1660 C 0.34971 0.41542 0.54985 0.0
C1661 C 0.33433 0.41288 0.59334 0.0
C1662 C 0.32674 0.41642 0.57649 0.0
C1663 C 0.30319 0.42788 0.52772 0.0
C1664 C 0.31174 0.42474 0.54452 0.0
H1665 H 0.28738 0.38621 0.62648 0.0
H1666 H 0.27892 0.38415 0.59852 0.0
H1667 H 0.38651 0.40345 0.56936 0.0
H1668 H 0.24258 0.4765 0.50282 0.0
H1669 H 0.2619 0.47628 0.52998 0.0
C1670 C 0.85464 0.03706 0.36367 0.0
C1671 C 0.84577 0.07204 0.37148 0.0
C1672 C 0.85504 0.03617 0.34754 0.0
C1673 C 0.80951 0.08111 0.31436 0.0
H1674 H 0.89618 0.03661 0.29104 0.0
C1675 C 0.86156 0.05759 0.24724 0.0
C1676 C 0.83053 0.03467 0.24154 0.0
C1677 C 0.86321 0.06728 0.2629 0.0
C1678 C 0.87193 0.04939 0.29742 0.0
H1679 H 0.83071 0.13354 0.36879 0.0
H1680 H 0.83056 0.1317 0.34051 0.0
H1681 H 0.90144 0.04278 0.31916 0.0
H1682 H 0.77592 1.00556 0.24733 0.0
H1683 H 0.77833 0.02338 0.27476 0.0
H1684 H 0.77948 0.08644 0.29266 0.0
C1685 C 0.83751 0.10518 0.34687 0.0
C1686 C 0.87486 0.05267 0.31345 0.0
C1687 C 0.83782 0.10624 0.36299 0.0
C1688 C 0.8001 0.0233 0.25151 0.0
C1689 C 0.80143 0.03354 0.26713 0.0
C1690 C 0.8063 0.07717 0.29835 0.0
C1691 C 0.84588 0.07009 0.33904 0.0
C1692 C 0.8436 0.06837 0.32204 0.0
C1693 C 0.83352 0.05474 0.273 0.0
C1694 C 0.83745 0.06115 0.28978 0.0
H1695 H 0.86079 1.01034 0.37002 0.0
H1696 H 0.86134 1.00873 0.34171 0.0
H1697 H 0.78495 0.09307 0.32081 0.0
H1698 H 0.88539 0.06666 0.23976 0.0
H1699 H 0.88808 0.08387 0.26718 0.0
C1700 C 0.22422 0.61264 0.11778 0.0
C1701 C 0.18988 0.60071 0.1254 0.0
C1702 C 0.22544 0.61371 0.10166 0.0
C1703 C 0.20741 0.63141 0.06723 0.0
H1704 H 0.18942 0.5307 0.04743 0.0
C1705 C 0.20695 0.60968 1.00107 0.0
C1706 C 0.23592 0.58314 0.99611 0.0
C1707 C 0.19673 0.61181 0.01666 0.0
C1708 C 0.1942 0.55898 0.05284 0.0
H1709 H 0.12969 0.58132 0.12239 0.0
H1710 H 0.13227 0.58211 0.09409 0.0
H1711 H 0.17942 0.53752 0.07539 0.0
H1712 H 0.27577 0.53689 1.00322 0.0
H1713 H 0.25688 0.53977 0.03055 0.0
H1714 H 0.2222 0.65287 0.04469 0.0
C1715 C 0.15793 0.59108 0.10061 0.0
C1716 C 0.18833 0.56293 0.06873 0.0
C1717 C 0.15644 0.59083 0.11673 0.0
C1718 C 0.25332 0.55755 0.00682 0.0
C1719 C 0.2425 0.55913 0.02238 0.0
C1720 C 0.21245 0.62767 0.05129 0.0
C1721 C 0.19258 0.60208 0.09299 0.0
C1722 C 0.19546 0.59902 0.07605 0.0
C1723 C 0.21475 0.58685 0.02743 0.0
C1724 C 0.20644 0.59129 0.04404 0.0
H1725 H 0.25035 0.62031 0.12427 0.0
H1726 H 0.25252 0.62207 0.09596 0.0
H1727 H 0.21308 0.65946 0.0727 0.0
H1728 H 0.19323 0.6298 0.993 0.0
H1729 H 0.17517 0.63329 0.02036 0.0
C1730 C 0.66355 0.98352 0.86446 0.0
C1731 C 0.66126 0.94746 0.87219 0.0
C1732 C 0.65769 0.98545 0.84855 0.0
C1733 C 0.6618 0.92457 0.81338 0.0
H1734 H 0.61683 0.01838 0.79507 0.0
C1735 C 0.63868 0.96239 0.74714 0.0
C1736 C 0.66323 0.99394 0.74317 0.0
C1737 C 0.63429 0.95145 0.76264 0.0
C1738 C 0.62902 0.99187 0.80007 0.0
H1739 H 0.65021 0.8852 0.86956 0.0
H1740 H 0.639 0.8886 0.84164 0.0
H1741 H 0.61367 1.00918 0.82301 0.0
H1742 H 0.70287 0.03838 0.75204 0.0
H1743 H 0.69435 0.01984 0.7791 0.0
H1744 H 0.67718 0.90771 0.79022 0.0
C1745 C 0.646 0.91532 0.84784 0.0
C1746 C 0.62757 0.98669 0.81603 0.0
C1747 C 0.65218 0.91337 0.86381 0.0
C1748 C 0.68386 0.01388 0.75481 0.0
C1749 C 0.67893 1.00343 0.77024 0.0
C1750 C 0.66271 0.92955 0.79734 0.0
C1751 C 0.64901 0.95138 0.84001 0.0
C1752 C 0.64515 0.95366 0.82294 0.0
C1753 C 0.65386 0.97248 0.77426 0.0
C1754 C 0.64733 0.96376 0.79069 0.0
H1755 H 0.67076 1.0102 0.87066 0.0
H1756 H 0.66113 0.01359 0.84289 0.0
H1757 H 0.67589 0.89896 0.81831 0.0
H1758 H 0.6225 0.94664 0.73832 0.0
H1759 H 0.6148 0.92748 0.76561 0.0
loop_
_geom_bond_atom_site_label_1
_geom_bond_atom_site_label_2
_geom_bond_distance
_geom_bond_site_symmetry_2
_ccdc_geom_bond_type
Tb0 O3 2.453 . S
Tb0 O4 2.596 . S
Tb0 O5 2.374 . S
Tb0 O13 2.343 . S
Tb0 O15 2.353 . S
Tb0 O17 2.427 . S
Tb0 O18 2.513 . S
C1 O5 1.251 . S
C1 O7 1.263 . S
Tb2 O4 2.343 . S
Tb2 O7 2.353 . S
Tb2 O10 2.427 . S
Tb2 O11 2.513 . S
Tb2 O12 2.453 . S
Tb2 O13 2.596 . S
Tb2 O14 2.374 . S
O3 Tb0 2.453 . S
O3 C19 1.245 . S
O4 Tb0 2.596 . S
O4 Tb2 2.343 . S
O4 C19 1.259 . S
O5 Tb0 2.374 . S
O5 C1 1.251 . S
C6 O10 1.275 . S
C6 O11 1.246 . S
O7 C1 1.263 . S
O7 Tb2 2.353 . S
C8 O12 1.245 . S
C8 O13 1.259 . S
C9 O14 1.250 . S
C9 O15 1.263 . S
O10 Tb2 2.427 . S
O10 C6 1.275 . S
O11 Tb2 2.513 . S
O11 C6 1.246 . S
O12 Tb2 2.453 . S
O12 C8 1.245 . S
O13 Tb0 2.343 . S
O13 Tb2 2.596 . S
O13 C8 1.259 . S
O14 Tb2 2.374 . S
O14 C9 1.250 . S
O15 Tb0 2.353 . S
O15 C9 1.263 . S
C16 O17 1.275 . S
C16 O18 1.246 . S
O17 Tb0 2.427 . S
O17 C16 1.275 . S
O18 Tb0 2.513 . S
O18 C16 1.246 . S
C19 O3 1.245 . S
C19 O4 1.259 . S
Tb20 O23 2.453 . S
Tb20 O24 2.596 . S
Tb20 O25 2.374 . S
Tb20 O33 2.343 . S
Tb20 O35 2.353 . S
Tb20 O37 2.427 . S
Tb20 O38 2.513 . S
C21 O25 1.251 . S
C21 O27 1.263 . S
Tb22 O24 2.343 . S
Tb22 O27 2.353 . S
Tb22 O30 2.427 . S
Tb22 O31 2.513 . S
Tb22 O32 2.453 . S
Tb22 O33 2.596 . S
Tb22 O34 2.374 . S
O23 Tb20 2.453 . S
O23 C39 1.245 . S
O24 Tb20 2.596 . S
O24 Tb22 2.343 . S
O24 C39 1.259 . S
O25 Tb20 2.374 . S
O25 C21 1.251 . S
C26 O30 1.275 . S
C26 O31 1.246 . S
O27 C21 1.263 . S
O27 Tb22 2.353 . S
C28 O32 1.245 . S
C28 O33 1.259 . S
C29 O34 1.250 . S
C29 O35 1.263 . S
O30 Tb22 2.427 . S
O30 C26 1.275 . S
O31 Tb22 2.513 . S
O31 C26 1.246 . S
O32 Tb22 2.453 . S
O32 C28 1.245 . S
O33 Tb20 2.343 . S
O33 Tb22 2.596 . S
O33 C28 1.259 . S
O34 Tb22 2.374 . S
O34 C29 1.250 . S
O35 Tb20 2.353 . S
O35 C29 1.263 . S
C36 O37 1.275 . S
C36 O38 1.246 . S
O37 Tb20 2.427 . S
O37 C36 1.275 . S
O38 Tb20 2.513 . S
O38 C36 1.246 . S
C39 O23 1.245 . S
C39 O24 1.259 . S
Tb40 O43 2.453 . S
Tb40 O44 2.596 . S
Tb40 O45 2.374 . S
Tb40 O53 2.343 . S
Tb40 O55 2.353 . S
Tb40 O57 2.427 . S
Tb40 O58 2.513 . S
C41 O45 1.251 . S
C41 O47 1.263 . S
Tb42 O44 2.343 . S
Tb42 O47 2.353 . S
Tb42 O50 2.427 . S
Tb42 O51 2.513 . S
Tb42 O52 2.453 . S
Tb42 O53 2.596 . S
Tb42 O54 2.374 . S
O43 Tb40 2.453 . S
O43 C59 1.245 . S
O44 Tb40 2.596 . S
O44 Tb42 2.343 . S
O44 C59 1.259 . S
O45 Tb40 2.374 . S
O45 C41 1.251 . S
C46 O50 1.275 . S
C46 O51 1.246 . S
O47 C41 1.263 . S
O47 Tb42 2.353 . S
C48 O52 1.245 . S
C48 O53 1.259 . S
C49 O54 1.250 . S
C49 O55 1.263 . S
O50 Tb42 2.427 . S
O50 C46 1.275 . S
O51 Tb42 2.513 . S
O51 C46 1.246 . S
O52 Tb42 2.453 . S
O52 C48 1.245 . S
O53 Tb40 2.343 . S
O53 Tb42 2.596 . S
O53 C48 1.259 . S
O54 Tb42 2.374 . S
O54 C49 1.250 . S
O55 Tb40 2.353 . S
O55 C49 1.263 . S
C56 O57 1.275 . S
C56 O58 1.246 . S
O57 Tb40 2.427 . S
O57 C56 1.275 . S
O58 Tb40 2.513 . S
O58 C56 1.246 . S
C59 O43 1.245 . S
C59 O44 1.259 . S
Tb60 O63 2.453 . S
Tb60 O64 2.596 . S
Tb60 O65 2.374 . S
Tb60 O73 2.343 . S
Tb60 O75 2.353 . S
Tb60 O77 2.427 . S
Tb60 O78 2.513 . S
C61 O65 1.251 . S
C61 O67 1.263 . S
Tb62 O64 2.343 . S
Tb62 O67 2.353 . S
Tb62 O70 2.427 . S
Tb62 O71 2.513 . S
Tb62 O72 2.453 . S
Tb62 O73 2.596 . S
Tb62 O74 2.374 . S
O63 Tb60 2.453 . S
O63 C79 1.245 . S
O64 Tb60 2.596 . S
O64 Tb62 2.343 . S
O64 C79 1.259 . S
O65 Tb60 2.374 . S
O65 C61 1.251 . S
C66 O70 1.275 . S
C66 O71 1.246 . S
O67 C61 1.263 . S
O67 Tb62 2.353 . S
C68 O72 1.245 . S
C68 O73 1.259 . S
C69 O74 1.250 . S
C69 O75 1.263 . S
O70 Tb62 2.427 . S
O70 C66 1.275 . S
O71 Tb62 2.513 . S
O71 C66 1.246 . S
O72 Tb62 2.453 . S
O72 C68 1.245 . S
O73 Tb60 2.343 . S
O73 Tb62 2.596 . S
O73 C68 1.259 . S
O74 Tb62 2.374 . S
O74 C69 1.250 . S
O75 Tb60 2.353 . S
O75 C69 1.263 . S
C76 O77 1.275 . S
C76 O78 1.246 . S
O77 Tb60 2.427 . S
O77 C76 1.275 . S
O78 Tb60 2.513 . S
O78 C76 1.246 . S
C79 O63 1.245 . S
C79 O64 1.259 . S
Tb80 O83 2.453 . S
Tb80 O84 2.596 . S
Tb80 O85 2.374 . S
Tb80 O93 2.343 . S
Tb80 O95 2.353 . S
Tb80 O97 2.427 . S
Tb80 O98 2.513 . S
C81 O85 1.251 . S
C81 O87 1.263 . S
Tb82 O84 2.343 . S
Tb82 O87 2.353 . S
Tb82 O90 2.427 . S
Tb82 O91 2.513 . S
Tb82 O92 2.453 . S
Tb82 O93 2.596 . S
Tb82 O94 2.374 . S
O83 Tb80 2.453 . S
O83 C99 1.245 . S
O84 Tb80 2.596 . S
O84 Tb82 2.343 . S
O84 C99 1.259 . S
O85 Tb80 2.374 . S
O85 C81 1.251 . S
C86 O90 1.275 . S
C86 O91 1.246 . S
O87 C81 1.263 . S
O87 Tb82 2.353 . S
C88 O92 1.245 . S
C88 O93 1.259 . S
C89 O94 1.250 . S
C89 O95 1.263 . S
O90 Tb82 2.427 . S
O90 C86 1.275 . S
O91 Tb82 2.513 . S
O91 C86 1.246 . S
O92 Tb82 2.453 . S
O92 C88 1.245 . S
O93 Tb80 2.343 . S
O93 Tb82 2.596 . S
O93 C88 1.259 . S
O94 Tb82 2.374 . S
O94 C89 1.250 . S
O95 Tb80 2.353 . S
O95 C89 1.263 . S
C96 O97 1.275 . S
C96 O98 1.246 . S
O97 Tb80 2.427 . S
O97 C96 1.275 . S
O98 Tb80 2.513 . S
O98 C96 1.246 . S
C99 O83 1.245 . S
C99 O84 1.259 . S
Tb100 O103 2.453 . S
Tb100 O104 2.596 . S
Tb100 O105 2.374 . S
Tb100 O113 2.343 . S
Tb100 O115 2.353 . S
Tb100 O117 2.427 . S
Tb100 O118 2.513 . S
C101 O105 1.251 . S
C101 O107 1.263 . S
Tb102 O104 2.343 . S
Tb102 O107 2.353 . S
Tb102 O110 2.427 . S
Tb102 O111 2.513 . S
Tb102 O112 2.453 . S
Tb102 O113 2.596 . S
Tb102 O114 2.374 . S
O103 Tb100 2.453 . S
O103 C119 1.245 . S
O104 Tb100 2.596 . S
O104 Tb102 2.343 . S
O104 C119 1.259 . S
O105 Tb100 2.374 . S
O105 C101 1.251 . S
C106 O110 1.275 . S
C106 O111 1.246 . S
O107 C101 1.263 . S
O107 Tb102 2.353 . S
C108 O112 1.245 . S
C108 O113 1.259 . S
C109 O114 1.250 . S
C109 O115 1.263 . S
O110 Tb102 2.427 . S
O110 C106 1.275 . S
O111 Tb102 2.513 . S
O111 C106 1.246 . S
O112 Tb102 2.453 . S
O112 C108 1.245 . S
O113 Tb100 2.343 . S
O113 Tb102 2.596 . S
O113 C108 1.259 . S
O114 Tb102 2.374 . S
O114 C109 1.250 . S
O115 Tb100 2.353 . S
O115 C109 1.263 . S
C116 O117 1.275 . S
C116 O118 1.246 . S
O117 Tb100 2.427 . S
O117 C116 1.275 . S
O118 Tb100 2.513 . S
O118 C116 1.246 . S
C119 O103 1.245 . S
C119 O104 1.259 . S
Tb120 O123 2.453 . S
Tb120 O124 2.596 . S
Tb120 O125 2.374 . S
Tb120 O133 2.343 . S
Tb120 O135 2.353 . S
Tb120 O137 2.427 . S
Tb120 O138 2.513 . S
C121 O125 1.251 . S
C121 O127 1.263 . S
Tb122 O124 2.343 . S
Tb122 O127 2.353 . S
Tb122 O130 2.427 . S
Tb122 O131 2.513 . S
Tb122 O132 2.453 . S
Tb122 O133 2.596 . S
Tb122 O134 2.374 . S
O123 Tb120 2.453 . S
O123 C139 1.245 . S
O124 Tb120 2.596 . S
O124 Tb122 2.343 . S
O124 C139 1.259 . S
O125 Tb120 2.374 . S
O125 C121 1.251 . S
C126 O130 1.275 . S
C126 O131 1.246 . S
O127 C121 1.263 . S
O127 Tb122 2.353 . S
C128 O132 1.245 . S
C128 O133 1.259 . S
C129 O134 1.250 . S
C129 O135 1.263 . S
O130 Tb122 2.427 . S
O130 C126 1.275 . S
O131 Tb122 2.513 . S
O131 C126 1.246 . S
O132 Tb122 2.453 . S
O132 C128 1.245 . S
O133 Tb120 2.343 . S
O133 Tb122 2.596 . S
O133 C128 1.259 . S
O134 Tb122 2.374 . S
O134 C129 1.250 . S
O135 Tb120 2.353 . S
O135 C129 1.263 . S
C136 O137 1.275 . S
C136 O138 1.246 . S
O137 Tb120 2.427 . S
O137 C136 1.275 . S
O138 Tb120 2.513 . S
O138 C136 1.246 . S
C139 O123 1.245 . S
C139 O124 1.259 . S
Tb140 O143 2.453 . S
Tb140 O144 2.596 . S
Tb140 O145 2.374 . S
Tb140 O153 2.343 . S
Tb140 O155 2.353 . S
Tb140 O157 2.427 . S
Tb140 O158 2.513 . S
C141 O145 1.251 . S
C141 O147 1.263 . S
Tb142 O144 2.343 . S
Tb142 O147 2.353 . S
Tb142 O150 2.427 . S
Tb142 O151 2.513 . S
Tb142 O152 2.453 . S
Tb142 O153 2.596 . S
Tb142 O154 2.374 . S
O143 Tb140 2.453 . S
O143 C159 1.245 . S
O144 Tb140 2.596 . S
O144 Tb142 2.343 . S
O144 C159 1.259 . S
O145 Tb140 2.374 . S
O145 C141 1.251 . S
C146 O150 1.275 . S
C146 O151 1.246 . S
O147 C141 1.263 . S
O147 Tb142 2.353 . S
C148 O152 1.245 . S
C148 O153 1.259 . S
C149 O154 1.250 . S
C149 O155 1.263 . S
O150 Tb142 2.427 . S
O150 C146 1.275 . S
O151 Tb142 2.513 . S
O151 C146 1.246 . S
O152 Tb142 2.453 . S
O152 C148 1.245 . S
O153 Tb140 2.343 . S
O153 Tb142 2.596 . S
O153 C148 1.259 . S
O154 Tb142 2.374 . S
O154 C149 1.250 . S
O155 Tb140 2.353 . S
O155 C149 1.263 . S
C156 O157 1.275 . S
C156 O158 1.246 . S
O157 Tb140 2.427 . S
O157 C156 1.275 . S
O158 Tb140 2.513 . S
O158 C156 1.246 . S
C159 O143 1.245 . S
C159 O144 1.259 . S
Tb160 O163 2.453 . S
Tb160 O164 2.596 . S
Tb160 O165 2.374 . S
Tb160 O173 2.343 . S
Tb160 O175 2.353 . S
Tb160 O177 2.427 . S
Tb160 O178 2.513 . S
C161 O165 1.251 . S
C161 O167 1.263 . S
Tb162 O164 2.343 . S
Tb162 O167 2.353 . S
Tb162 O170 2.427 . S
Tb162 O171 2.513 . S
Tb162 O172 2.453 . S
Tb162 O173 2.596 . S
Tb162 O174 2.374 . S
O163 Tb160 2.453 . S
O163 C179 1.245 . S
O164 Tb160 2.596 . S
O164 Tb162 2.343 . S
O164 C179 1.259 . S
O165 Tb160 2.374 . S
O165 C161 1.251 . S
C166 O170 1.275 . S
C166 O171 1.246 . S
O167 C161 1.263 . S
O167 Tb162 2.353 . S
C168 O172 1.245 . S
C168 O173 1.259 . S
C169 O174 1.250 . S
C169 O175 1.263 . S
O170 Tb162 2.427 . S
O170 C166 1.275 . S
O171 Tb162 2.513 . S
O171 C166 1.246 . S
O172 Tb162 2.453 . S
O172 C168 1.245 . S
O173 Tb160 2.343 . S
O173 Tb162 2.596 . S
O173 C168 1.259 . S
O174 Tb162 2.374 . S
O174 C169 1.250 . S
O175 Tb160 2.353 . S
O175 C169 1.263 . S
C176 O177 1.275 . S
C176 O178 1.246 . S
O177 Tb160 2.427 . S
O177 C176 1.275 . S
O178 Tb160 2.513 . S
O178 C176 1.246 . S
C179 O163 1.245 . S
C179 O164 1.259 . S
Tb180 O183 2.453 . S
Tb180 O184 2.596 . S
Tb180 O185 2.374 . S
Tb180 O193 2.343 . S
Tb180 O195 2.353 . S
Tb180 O197 2.427 . S
Tb180 O198 2.513 . S
C181 O185 1.251 . S
C181 O187 1.263 . S
Tb182 O184 2.343 . S
Tb182 O187 2.353 . S
Tb182 O190 2.427 . S
Tb182 O191 2.513 . S
Tb182 O192 2.453 . S
Tb182 O193 2.596 . S
Tb182 O194 2.374 1_545 S
O183 Tb180 2.453 . S
O183 C199 1.245 . S
O184 Tb180 2.596 . S
O184 Tb182 2.343 . S
O184 C199 1.259 . S
O185 Tb180 2.374 . S
O185 C181 1.251 . S
C186 O190 1.275 . S
C186 O191 1.246 . S
O187 C181 1.263 . S
O187 Tb182 2.353 . S
C188 O192 1.245 . S
C188 O193 1.259 . S
C189 O194 1.250 . S
C189 O195 1.263 1_565 S
O190 Tb182 2.427 . S
O190 C186 1.275 . S
O191 Tb182 2.513 . S
O191 C186 1.246 . S
O192 Tb182 2.453 . S
O192 C188 1.245 . S
O193 Tb180 2.343 . S
O193 Tb182 2.596 . S
O193 C188 1.259 . S
O194 Tb182 2.374 1_565 S
O194 C189 1.250 . S
O195 Tb180 2.353 . S
O195 C189 1.263 1_545 S
C196 O197 1.275 . S
C196 O198 1.246 . S
O197 Tb180 2.427 . S
O197 C196 1.275 . S
O198 Tb180 2.513 . S
O198 C196 1.246 . S
C199 O183 1.245 . S
C199 O184 1.259 . S
Tb200 O203 2.453 . S
Tb200 O204 2.596 . S
Tb200 O205 2.374 . S
Tb200 O213 2.343 . S
Tb200 O215 2.353 . S
Tb200 O217 2.427 . S
Tb200 O218 2.513 . S
C201 O205 1.251 . S
C201 O207 1.263 . S
Tb202 O204 2.343 . S
Tb202 O207 2.353 . S
Tb202 O210 2.427 . S
Tb202 O211 2.513 . S
Tb202 O212 2.453 . S
Tb202 O213 2.596 . S
Tb202 O214 2.374 . S
O203 Tb200 2.453 . S
O203 C219 1.245 . S
O204 Tb200 2.596 . S
O204 Tb202 2.343 . S
O204 C219 1.259 . S
O205 Tb200 2.374 . S
O205 C201 1.251 . S
C206 O210 1.275 . S
C206 O211 1.246 . S
O207 C201 1.263 . S
O207 Tb202 2.353 . S
C208 O212 1.245 . S
C208 O213 1.259 . S
C209 O214 1.250 . S
C209 O215 1.263 . S
O210 Tb202 2.427 . S
O210 C206 1.275 . S
O211 Tb202 2.513 . S
O211 C206 1.246 . S
O212 Tb202 2.453 . S
O212 C208 1.245 . S
O213 Tb200 2.343 . S
O213 Tb202 2.596 . S
O213 C208 1.259 . S
O214 Tb202 2.374 . S
O214 C209 1.250 . S
O215 Tb200 2.353 . S
O215 C209 1.263 . S
C216 O217 1.275 . S
C216 O218 1.246 . S
O217 Tb200 2.427 . S
O217 C216 1.275 . S
O218 Tb200 2.513 . S
O218 C216 1.246 . S
C219 O203 1.245 . S
C219 O204 1.259 . S
Tb220 O223 2.453 . S
Tb220 O224 2.596 . S
Tb220 O225 2.374 . S
Tb220 O233 2.343 . S
Tb220 O235 2.353 . S
Tb220 O237 2.427 . S
Tb220 O238 2.513 . S
C221 O225 1.251 . S
C221 O227 1.263 . S
Tb222 O224 2.343 . S
Tb222 O227 2.353 . S
Tb222 O230 2.427 . S
Tb222 O231 2.513 . S
Tb222 O232 2.453 . S
Tb222 O233 2.596 . S
Tb222 O234 2.374 1_565 S
O223 Tb220 2.453 . S
O223 C239 1.245 . S
O224 Tb220 2.596 . S
O224 Tb222 2.343 . S
O224 C239 1.259 . S
O225 Tb220 2.374 . S
O225 C221 1.251 . S
C226 O230 1.275 . S
C226 O231 1.246 . S
O227 C221 1.263 . S
O227 Tb222 2.353 . S
C228 O232 1.245 . S
C228 O233 1.259 . S
C229 O234 1.250 . S
C229 O235 1.263 1_545 S
O230 Tb222 2.427 . S
O230 C226 1.275 . S
O231 Tb222 2.513 . S
O231 C226 1.246 . S
O232 Tb222 2.453 . S
O232 C228 1.245 . S
O233 Tb220 2.343 . S
O233 Tb222 2.596 . S
O233 C228 1.259 . S
O234 Tb222 2.374 1_545 S
O234 C229 1.250 . S
O235 Tb220 2.353 . S
O235 C229 1.263 1_565 S
C236 O237 1.275 . S
C236 O238 1.246 . S
O237 Tb220 2.427 . S
O237 C236 1.275 . S
O238 Tb220 2.513 . S
O238 C236 1.246 . S
C239 O223 1.245 . S
C239 O224 1.259 . S
Tb240 O243 2.453 . S
Tb240 O244 2.596 . S
Tb240 O245 2.374 . S
Tb240 O253 2.343 . S
Tb240 O255 2.353 . S
Tb240 O257 2.427 . S
Tb240 O258 2.513 . S
C241 O245 1.251 . S
C241 O247 1.263 . S
Tb242 O244 2.343 . S
Tb242 O247 2.353 . S
Tb242 O250 2.427 . S
Tb242 O251 2.513 . S
Tb242 O252 2.453 . S
Tb242 O253 2.596 . S
Tb242 O254 2.374 . S
O243 Tb240 2.453 . S
O243 C259 1.245 . S
O244 Tb240 2.596 . S
O244 Tb242 2.343 . S
O244 C259 1.259 . S
O245 Tb240 2.374 . S
O245 C241 1.251 . S
C246 O250 1.275 . S
C246 O251 1.246 . S
O247 C241 1.263 . S
O247 Tb242 2.353 . S
C248 O252 1.245 . S
C248 O253 1.259 . S
C249 O254 1.250 . S
C249 O255 1.263 . S
O250 Tb242 2.427 . S
O250 C246 1.275 . S
O251 Tb242 2.513 . S
O251 C246 1.246 . S
O252 Tb242 2.453 . S
O252 C248 1.245 . S
O253 Tb240 2.343 . S
O253 Tb242 2.596 . S
O253 C248 1.259 . S
O254 Tb242 2.374 . S
O254 C249 1.250 . S
O255 Tb240 2.353 . S
O255 C249 1.263 . S
C256 O257 1.275 . S
C256 O258 1.246 . S
O257 Tb240 2.427 . S
O257 C256 1.275 . S
O258 Tb240 2.513 . S
O258 C256 1.246 . S
C259 O243 1.245 . S
C259 O244 1.259 . S
Tb260 O263 2.453 . S
Tb260 O264 2.596 . S
Tb260 O265 2.374 1_565 S
Tb260 O273 2.343 . S
Tb260 O275 2.353 . S
Tb260 O277 2.427 . S
Tb260 O278 2.513 . S
C261 O265 1.251 . S
C261 O267 1.263 1_545 S
Tb262 O264 2.343 . S
Tb262 O267 2.353 . S
Tb262 O270 2.427 . S
Tb262 O271 2.513 . S
Tb262 O272 2.453 . S
Tb262 O273 2.596 . S
Tb262 O274 2.374 . S
O263 Tb260 2.453 . S
O263 C279 1.245 . S
O264 Tb260 2.596 . S
O264 Tb262 2.343 . S
O264 C279 1.259 . S
O265 Tb260 2.374 1_545 S
O265 C261 1.251 . S
C266 O270 1.275 . S
C266 O271 1.246 . S
O267 C261 1.263 1_565 S
O267 Tb262 2.353 . S
C268 O272 1.245 . S
C268 O273 1.259 . S
C269 O274 1.250 . S
C269 O275 1.263 . S
O270 Tb262 2.427 . S
O270 C266 1.275 . S
O271 Tb262 2.513 . S
O271 C266 1.246 . S
O272 Tb262 2.453 . S
O272 C268 1.245 . S
O273 Tb260 2.343 . S
O273 Tb262 2.596 . S
O273 C268 1.259 . S
O274 Tb262 2.374 . S
O274 C269 1.250 . S
O275 Tb260 2.353 . S
O275 C269 1.263 . S
C276 O277 1.275 . S
C276 O278 1.246 . S
O277 Tb260 2.427 . S
O277 C276 1.275 . S
O278 Tb260 2.513 . S
O278 C276 1.246 . S
C279 O263 1.245 . S
C279 O264 1.259 . S
Tb280 O283 2.453 . S
Tb280 O284 2.596 . S
Tb280 O285 2.374 . S
Tb280 O293 2.343 . S
Tb280 O295 2.353 . S
Tb280 O297 2.427 . S
Tb280 O298 2.513 . S
C281 O285 1.251 . S
C281 O287 1.263 . S
Tb282 O284 2.343 . S
Tb282 O287 2.353 . S
Tb282 O290 2.427 . S
Tb282 O291 2.513 . S
Tb282 O292 2.453 . S
Tb282 O293 2.596 . S
Tb282 O294 2.374 . S
O283 Tb280 2.453 . S
O283 C299 1.245 . S
O284 Tb280 2.596 . S
O284 Tb282 2.343 . S
O284 C299 1.259 . S
O285 Tb280 2.374 . S
O285 C281 1.251 . S
C286 O290 1.275 . S
C286 O291 1.246 . S
O287 C281 1.263 . S
O287 Tb282 2.353 . S
C288 O292 1.245 . S
C288 O293 1.259 . S
C289 O294 1.250 . S
C289 O295 1.263 . S
O290 Tb282 2.427 . S
O290 C286 1.275 . S
O291 Tb282 2.513 . S
O291 C286 1.246 . S
O292 Tb282 2.453 . S
O292 C288 1.245 . S
O293 Tb280 2.343 . S
O293 Tb282 2.596 . S
O293 C288 1.259 . S
O294 Tb282 2.374 . S
O294 C289 1.250 . S
O295 Tb280 2.353 . S
O295 C289 1.263 . S
C296 O297 1.275 . S
C296 O298 1.246 . S
O297 Tb280 2.427 . S
O297 C296 1.275 . S
O298 Tb280 2.513 . S
O298 C296 1.246 . S
C299 O283 1.245 . S
C299 O284 1.259 . S
Tb300 O303 2.453 . S
Tb300 O304 2.596 . S
Tb300 O305 2.374 1_545 S
Tb300 O313 2.343 . S
Tb300 O315 2.353 . S
Tb300 O317 2.427 . S
Tb300 O318 2.513 . S
C301 O305 1.251 . S
C301 O307 1.263 1_565 S
Tb302 O304 2.343 . S
Tb302 O307 2.353 . S
Tb302 O310 2.427 . S
Tb302 O311 2.513 . S
Tb302 O312 2.453 . S
Tb302 O313 2.596 . S
Tb302 O314 2.374 . S
O303 Tb300 2.453 . S
O303 C319 1.245 . S
O304 Tb300 2.596 . S
O304 Tb302 2.343 . S
O304 C319 1.259 . S
O305 Tb300 2.374 1_565 S
O305 C301 1.251 . S
C306 O310 1.275 . S
C306 O311 1.246 . S
O307 C301 1.263 1_545 S
O307 Tb302 2.353 . S
C308 O312 1.245 . S
C308 O313 1.259 . S
C309 O314 1.250 . S
C309 O315 1.263 . S
O310 Tb302 2.427 . S
O310 C306 1.275 . S
O311 Tb302 2.513 . S
O311 C306 1.246 . S
O312 Tb302 2.453 . S
O312 C308 1.245 . S
O313 Tb300 2.343 . S
O313 Tb302 2.596 . S
O313 C308 1.259 . S
O314 Tb302 2.374 . S
O314 C309 1.250 . S
O315 Tb300 2.353 . S
O315 C309 1.263 . S
C316 O317 1.275 . S
C316 O318 1.246 . S
O317 Tb300 2.427 . S
O317 C316 1.275 . S
O318 Tb300 2.513 . S
O318 C316 1.246 . S
C319 O303 1.245 . S
C319 O304 1.259 . S
C320 C321 1.349 . S
C320 C322 1.327 . S
C320 H345 0.950 . S
C321 C320 1.349 . S
C321 C337 1.349 . S
C322 C320 1.327 . S
C322 C341 1.429 . S
C322 H346 0.950 . S
C323 C340 1.574 . S
C323 C342 1.368 . S
C323 H347 0.949 . S
H324 C328 0.949 . S
C325 C326 1.349 . S
C325 C327 1.327 . S
C325 H348 0.950 . S
C326 C325 1.349 . S
C326 C338 1.349 . S
C327 C325 1.327 . S
C327 C343 1.429 . S
C327 H349 0.950 . S
C328 H324 0.949 . S
C328 C336 1.574 . S
C328 C344 1.368 . S
H329 C337 0.950 . S
H330 C335 0.950 . S
H331 C336 0.949 . S
H332 C338 0.950 . S
H333 C339 0.950 . S
H334 C340 0.949 . S
C335 H330 0.950 . S
C335 C337 1.327 . S
C335 C341 1.429 . S
C336 C328 1.574 . S
C336 H331 0.949 . S
C336 C342 1.368 . S
C337 C321 1.349 . S
C337 H329 0.950 . S
C337 C335 1.327 . S
C338 C326 1.349 . S
C338 H332 0.950 . S
C338 C339 1.327 . S
C339 H333 0.950 . S
C339 C338 1.327 . S
C339 C343 1.429 . S
C340 C323 1.574 . S
C340 H334 0.949 . S
C340 C344 1.368 . S
C341 C322 1.429 . S
C341 C335 1.429 . S
C341 C342 1.523 . S
C342 C323 1.368 . S
C342 C336 1.368 . S
C342 C341 1.523 . S
C343 C327 1.429 . S
C343 C339 1.429 . S
C343 C344 1.523 . S
C344 C328 1.368 . S
C344 C340 1.368 . S
C344 C343 1.523 . S
H345 C320 0.950 . S
H346 C322 0.950 . S
H347 C323 0.949 . S
H348 C325 0.950 . S
H349 C327 0.950 . S
C350 C351 1.349 . S
C350 C352 1.327 . S
C350 H375 0.950 . S
C351 C350 1.349 . S
C351 C367 1.349 . S
C352 C350 1.327 . S
C352 C371 1.429 . S
C352 H376 0.950 . S
C353 C370 1.574 . S
C353 C372 1.368 . S
C353 H377 0.949 . S
H354 C358 0.949 . S
C355 C356 1.349 . S
C355 C357 1.327 . S
C355 H378 0.950 . S
C356 C355 1.349 . S
C356 C368 1.349 . S
C357 C355 1.327 . S
C357 C373 1.429 . S
C357 H379 0.950 . S
C358 H354 0.949 . S
C358 C366 1.574 . S
C358 C374 1.368 . S
H359 C367 0.950 . S
H360 C365 0.950 . S
H361 C366 0.949 . S
H362 C368 0.950 . S
H363 C369 0.950 . S
H364 C370 0.949 . S
C365 H360 0.950 . S
C365 C367 1.327 . S
C365 C371 1.429 . S
C366 C358 1.574 . S
C366 H361 0.949 . S
C366 C372 1.368 . S
C367 C351 1.349 . S
C367 H359 0.950 . S
C367 C365 1.327 . S
C368 C356 1.349 . S
C368 H362 0.950 . S
C368 C369 1.327 . S
C369 H363 0.950 . S
C369 C368 1.327 . S
C369 C373 1.429 . S
C370 C353 1.574 . S
C370 H364 0.949 . S
C370 C374 1.368 . S
C371 C352 1.429 . S
C371 C365 1.429 . S
C371 C372 1.523 . S
C372 C353 1.368 . S
C372 C366 1.368 . S
C372 C371 1.523 . S
C373 C357 1.429 . S
C373 C369 1.429 . S
C373 C374 1.523 . S
C374 C358 1.368 . S
C374 C370 1.368 . S
C374 C373 1.523 . S
H375 C350 0.950 . S
H376 C352 0.950 . S
H377 C353 0.949 . S
H378 C355 0.950 . S
H379 C357 0.950 . S
C380 C381 1.349 . S
C380 C382 1.327 . S
C380 H405 0.950 . S
C381 C380 1.349 . S
C381 C397 1.349 . S
C382 C380 1.327 . S
C382 C401 1.429 . S
C382 H406 0.950 . S
C383 C400 1.574 1_455 S
C383 C402 1.368 . S
C383 H407 0.949 . S
H384 C388 0.949 . S
C385 C386 1.349 . S
C385 C387 1.327 . S
C385 H408 0.950 . S
C386 C385 1.349 . S
C386 C398 1.349 . S
C387 C385 1.327 . S
C387 C403 1.429 . S
C387 H409 0.950 . S
C388 H384 0.949 . S
C388 C396 1.574 1_655 S
C388 C404 1.368 . S
H389 C397 0.950 . S
H390 C395 0.950 . S
H391 C396 0.949 . S
H392 C398 0.950 . S
H393 C399 0.950 . S
H394 C400 0.949 . S
C395 H390 0.950 . S
C395 C397 1.327 . S
C395 C401 1.429 . S
C396 C388 1.574 1_455 S
C396 H391 0.949 . S
C396 C402 1.368 . S
C397 C381 1.349 . S
C397 H389 0.950 . S
C397 C395 1.327 . S
C398 C386 1.349 . S
C398 H392 0.950 . S
C398 C399 1.327 . S
C399 H393 0.950 . S
C399 C398 1.327 . S
C399 C403 1.429 . S
C400 C383 1.574 1_655 S
C400 H394 0.949 . S
C400 C404 1.368 . S
C401 C382 1.429 . S
C401 C395 1.429 . S
C401 C402 1.523 . S
C402 C383 1.368 . S
C402 C396 1.368 . S
C402 C401 1.523 . S
C403 C387 1.429 . S
C403 C399 1.429 . S
C403 C404 1.523 . S
C404 C388 1.368 . S
C404 C400 1.368 . S
C404 C403 1.523 . S
H405 C380 0.950 . S
H406 C382 0.950 . S
H407 C383 0.949 . S
H408 C385 0.950 . S
H409 C387 0.950 . S
C410 C411 1.349 . S
C410 C412 1.327 . S
C410 H435 0.950 . S
C411 C410 1.349 . S
C411 C427 1.349 . S
C412 C410 1.327 . S
C412 C431 1.429 . S
C412 H436 0.950 . S
C413 C430 1.574 . S
C413 C432 1.368 . S
C413 H437 0.949 . S
H414 C418 0.949 . S
C415 C416 1.349 . S
C415 C417 1.327 . S
C415 H438 0.950 . S
C416 C415 1.349 . S
C416 C428 1.349 . S
C417 C415 1.327 . S
C417 C433 1.429 . S
C417 H439 0.950 . S
C418 H414 0.949 . S
C418 C426 1.574 . S
C418 C434 1.368 . S
H419 C427 0.950 . S
H420 C425 0.950 . S
H421 C426 0.949 . S
H422 C428 0.950 . S
H423 C429 0.950 . S
H424 C430 0.949 . S
C425 H420 0.950 . S
C425 C427 1.327 . S
C425 C431 1.429 . S
C426 C418 1.574 . S
C426 H421 0.949 . S
C426 C432 1.368 1_655 S
C427 C411 1.349 . S
C427 H419 0.950 . S
C427 C425 1.327 . S
C428 C416 1.349 . S
C428 H422 0.950 . S
C428 C429 1.327 . S
C429 H423 0.950 . S
C429 C428 1.327 . S
C429 C433 1.429 . S
C430 C413 1.574 . S
C430 H424 0.949 . S
C430 C434 1.368 1_455 S
C431 C412 1.429 . S
C431 C425 1.429 . S
C431 C432 1.523 . S
C432 C413 1.368 . S
C432 C426 1.368 1_455 S
C432 C431 1.523 . S
C433 C417 1.429 . S
C433 C429 1.429 . S
C433 C434 1.523 . S
C434 C418 1.368 . S
C434 C430 1.368 1_655 S
C434 C433 1.523 . S
H435 C410 0.950 . S
H436 C412 0.950 . S
H437 C413 0.949 . S
H438 C415 0.950 . S
H439 C417 0.950 . S
C440 C441 1.349 . S
C440 C442 1.327 . S
C440 H465 0.950 . S
C441 C440 1.349 . S
C441 C457 1.349 . S
C442 C440 1.327 . S
C442 C461 1.429 . S
C442 H466 0.950 . S
C443 C460 1.574 . S
C443 C462 1.368 . S
C443 H467 0.949 . S
H444 C448 0.949 . S
C445 C446 1.349 . S
C445 C447 1.327 . S
C445 H468 0.950 . S
C446 C445 1.349 . S
C446 C458 1.349 . S
C447 C445 1.327 . S
C447 C463 1.429 . S
C447 H469 0.950 . S
C448 H444 0.949 . S
C448 C456 1.574 . S
C448 C464 1.368 . S
H449 C457 0.950 . S
H450 C455 0.950 . S
H451 C456 0.949 . S
H452 C458 0.950 . S
H453 C459 0.950 . S
H454 C460 0.949 . S
C455 H450 0.950 . S
C455 C457 1.327 . S
C455 C461 1.429 . S
C456 C448 1.574 . S
C456 H451 0.949 . S
C456 C462 1.368 . S
C457 C441 1.349 . S
C457 H449 0.950 . S
C457 C455 1.327 . S
C458 C446 1.349 . S
C458 H452 0.950 . S
C458 C459 1.327 . S
C459 H453 0.950 . S
C459 C458 1.327 . S
C459 C463 1.429 . S
C460 C443 1.574 . S
C460 H454 0.949 . S
C460 C464 1.368 . S
C461 C442 1.429 . S
C461 C455 1.429 . S
C461 C462 1.523 . S
C462 C443 1.368 . S
C462 C456 1.368 . S
C462 C461 1.523 . S
C463 C447 1.429 . S
C463 C459 1.429 . S
C463 C464 1.523 . S
C464 C448 1.368 . S
C464 C460 1.368 . S
C464 C463 1.523 . S
H465 C440 0.950 . S
H466 C442 0.950 . S
H467 C443 0.949 . S
H468 C445 0.950 . S
H469 C447 0.950 . S
C470 C471 1.349 . S
C470 C472 1.327 . S
C470 H495 0.950 . S
C471 C470 1.349 . S
C471 C487 1.349 . S
C472 C470 1.327 . S
C472 C491 1.429 . S
C472 H496 0.950 . S
C473 C490 1.574 . S
C473 C492 1.368 . S
C473 H497 0.949 . S
H474 C478 0.949 . S
C475 C476 1.349 . S
C475 C477 1.327 . S
C475 H498 0.950 . S
C476 C475 1.349 . S
C476 C488 1.349 . S
C477 C475 1.327 . S
C477 C493 1.429 . S
C477 H499 0.950 . S
C478 H474 0.949 . S
C478 C486 1.574 . S
C478 C494 1.368 . S
H479 C487 0.950 . S
H480 C485 0.950 . S
H481 C486 0.949 . S
H482 C488 0.950 . S
H483 C489 0.950 . S
H484 C490 0.949 . S
C485 H480 0.950 . S
C485 C487 1.327 . S
C485 C491 1.429 . S
C486 C478 1.574 . S
C486 H481 0.949 . S
C486 C492 1.368 . S
C487 C471 1.349 . S
C487 H479 0.950 . S
C487 C485 1.327 . S
C488 C476 1.349 . S
C488 H482 0.950 . S
C488 C489 1.327 . S
C489 H483 0.950 . S
C489 C488 1.327 . S
C489 C493 1.429 . S
C490 C473 1.574 . S
C490 H484 0.949 . S
C490 C494 1.368 . S
C491 C472 1.429 . S
C491 C485 1.429 . S
C491 C492 1.523 . S
C492 C473 1.368 . S
C492 C486 1.368 . S
C492 C491 1.523 . S
C493 C477 1.429 . S
C493 C489 1.429 . S
C493 C494 1.523 . S
C494 C478 1.368 . S
C494 C490 1.368 . S
C494 C493 1.523 . S
H495 C470 0.950 . S
H496 C472 0.950 . S
H497 C473 0.949 . S
H498 C475 0.950 . S
H499 C477 0.950 . S
C500 C501 1.349 . S
C500 C502 1.327 . S
C500 H525 0.950 . S
C501 C500 1.349 . S
C501 C517 1.349 . S
C502 C500 1.327 . S
C502 C521 1.429 . S
C502 H526 0.950 . S
C503 C520 1.574 1_455 S
C503 C522 1.368 . S
C503 H527 0.949 . S
H504 C508 0.949 . S
C505 C506 1.349 . S
C505 C507 1.327 . S
C505 H528 0.950 . S
C506 C505 1.349 . S
C506 C518 1.349 . S
C507 C505 1.327 . S
C507 C523 1.429 . S
C507 H529 0.950 . S
C508 H504 0.949 . S
C508 C516 1.574 1_655 S
C508 C524 1.368 . S
H509 C517 0.950 . S
H510 C515 0.950 . S
H511 C516 0.949 . S
H512 C518 0.950 . S
H513 C519 0.950 . S
H514 C520 0.949 . S
C515 H510 0.950 . S
C515 C517 1.327 . S
C515 C521 1.429 . S
C516 C508 1.574 1_455 S
C516 H511 0.949 . S
C516 C522 1.368 . S
C517 C501 1.349 . S
C517 H509 0.950 . S
C517 C515 1.327 . S
C518 C506 1.349 . S
C518 H512 0.950 . S
C518 C519 1.327 . S
C519 H513 0.950 . S
C519 C518 1.327 . S
C519 C523 1.429 . S
C520 C503 1.574 1_655 S
C520 H514 0.949 . S
C520 C524 1.368 . S
C521 C502 1.429 . S
C521 C515 1.429 . S
C521 C522 1.523 . S
C522 C503 1.368 . S
C522 C516 1.368 . S
C522 C521 1.523 . S
C523 C507 1.429 . S
C523 C519 1.429 . S
C523 C524 1.523 . S
C524 C508 1.368 . S
C524 C520 1.368 . S
C524 C523 1.523 . S
H525 C500 0.950 . S
H526 C502 0.950 . S
H527 C503 0.949 . S
H528 C505 0.950 . S
H529 C507 0.950 . S
C530 C531 1.349 . S
C530 C532 1.327 . S
C530 H555 0.950 . S
C531 C530 1.349 . S
C531 C547 1.349 . S
C532 C530 1.327 . S
C532 C551 1.429 . S
C532 H556 0.950 . S
C533 C550 1.574 . S
C533 C552 1.368 1_655 S
C533 H557 0.949 . S
H534 C538 0.949 . S
C535 C536 1.349 . S
C535 C537 1.327 . S
C535 H558 0.950 . S
C536 C535 1.349 . S
C536 C548 1.349 . S
C537 C535 1.327 . S
C537 C553 1.429 . S
C537 H559 0.950 . S
C538 H534 0.949 . S
C538 C546 1.574 . S
C538 C554 1.368 1_455 S
H539 C547 0.950 . S
H540 C545 0.950 . S
H541 C546 0.949 . S
H542 C548 0.950 . S
H543 C549 0.950 . S
H544 C550 0.949 . S
C545 H540 0.950 . S
C545 C547 1.327 . S
C545 C551 1.429 . S
C546 C538 1.574 . S
C546 H541 0.949 . S
C546 C552 1.368 . S
C547 C531 1.349 . S
C547 H539 0.950 . S
C547 C545 1.327 . S
C548 C536 1.349 . S
C548 H542 0.950 . S
C548 C549 1.327 . S
C549 H543 0.950 . S
C549 C548 1.327 . S
C549 C553 1.429 . S
C550 C533 1.574 . S
C550 H544 0.949 . S
C550 C554 1.368 . S
C551 C532 1.429 . S
C551 C545 1.429 . S
C551 C552 1.523 . S
C552 C533 1.368 1_455 S
C552 C546 1.368 . S
C552 C551 1.523 . S
C553 C537 1.429 . S
C553 C549 1.429 . S
C553 C554 1.523 . S
C554 C538 1.368 1_655 S
C554 C550 1.368 . S
C554 C553 1.523 . S
H555 C530 0.950 . S
H556 C532 0.950 . S
H557 C533 0.949 . S
H558 C535 0.950 . S
H559 C537 0.950 . S
C560 C561 1.349 . S
C560 C562 1.327 . S
C560 H585 0.950 . S
C561 C560 1.349 . S
C561 C577 1.349 . S
C562 C560 1.327 . S
C562 C581 1.429 . S
C562 H586 0.950 . S
C563 C580 1.595 . S
C563 C582 1.348 1_566 S
C563 H587 0.949 . S
H564 C568 0.949 . S
C565 C566 1.349 . S
C565 C567 1.327 . S
C565 H588 0.950 . S
C566 C565 1.349 . S
C566 C578 1.349 . S
C567 C565 1.327 . S
C567 C583 1.429 . S
C567 H589 0.950 . S
C568 H564 0.949 . S
C568 C576 1.595 . S
C568 C584 1.348 1_544 S
H569 C577 0.950 . S
H570 C575 0.950 1_565 S
H571 C576 0.949 . S
H572 C578 0.950 . S
H573 C579 0.950 1_545 S
H574 C580 0.949 . S
C575 H570 0.950 1_545 S
C575 C577 1.327 . S
C575 C581 1.429 . S
C576 C568 1.595 . S
C576 H571 0.949 . S
C576 C582 1.368 . S
C577 C561 1.349 . S
C577 H569 0.950 . S
C577 C575 1.327 . S
C578 C566 1.349 . S
C578 H572 0.950 . S
C578 C579 1.327 . S
C579 H573 0.950 1_565 S
C579 C578 1.327 . S
C579 C583 1.429 . S
C580 C563 1.595 . S
C580 H574 0.949 . S
C580 C584 1.368 . S
C581 C562 1.429 . S
C581 C575 1.429 . S
C581 C582 1.523 . S
C582 C563 1.348 1_544 S
C582 C576 1.368 . S
C582 C581 1.523 . S
C583 C567 1.429 . S
C583 C579 1.429 . S
C583 C584 1.523 . S
C584 C568 1.348 1_566 S
C584 C580 1.368 . S
C584 C583 1.523 . S
H585 C560 0.950 . S
H586 C562 0.950 . S
H587 C563 0.949 . S
H588 C565 0.950 . S
H589 C567 0.950 . S
C590 C591 1.349 . S
C590 C592 1.327 . S
C590 H615 0.950 . S
C591 C590 1.349 . S
C591 C607 1.349 . S
C592 C590 1.327 . S
C592 C611 1.429 . S
C592 H616 0.950 . S
C593 C610 1.574 . S
C593 C612 1.368 . S
C593 H617 0.949 . S
H594 C598 0.949 . S
C595 C596 1.349 . S
C595 C597 1.327 . S
C595 H618 0.950 . S
C596 C595 1.349 . S
C596 C608 1.349 . S
C597 C595 1.327 . S
C597 C613 1.429 . S
C597 H619 0.950 . S
C598 H594 0.949 . S
C598 C606 1.574 . S
C598 C614 1.368 . S
H599 C607 0.950 . S
H600 C605 0.950 . S
H601 C606 0.949 . S
H602 C608 0.950 . S
H603 C609 0.950 . S
H604 C610 0.949 . S
C605 H600 0.950 . S
C605 C607 1.327 . S
C605 C611 1.429 . S
C606 C598 1.574 . S
C606 H601 0.949 . S
C606 C612 1.368 . S
C607 C591 1.349 . S
C607 H599 0.950 . S
C607 C605 1.327 . S
C608 C596 1.349 . S
C608 H602 0.950 . S
C608 C609 1.327 . S
C609 H603 0.950 . S
C609 C608 1.327 . S
C609 C613 1.429 . S
C610 C593 1.574 . S
C610 H604 0.949 . S
C610 C614 1.368 . S
C611 C592 1.429 . S
C611 C605 1.429 . S
C611 C612 1.523 . S
C612 C593 1.368 . S
C612 C606 1.368 . S
C612 C611 1.523 . S
C613 C597 1.429 . S
C613 C609 1.429 . S
C613 C614 1.523 . S
C614 C598 1.368 . S
C614 C610 1.368 . S
C614 C613 1.523 . S
H615 C590 0.950 . S
H616 C592 0.950 . S
H617 C593 0.949 . S
H618 C595 0.950 . S
H619 C597 0.950 . S
C620 C621 1.349 . S
C620 C622 1.327 . S
C620 H645 0.950 . S
C621 C620 1.349 . S
C621 C637 1.349 . S
C622 C620 1.327 . S
C622 C641 1.429 . S
C622 H646 0.950 . S
C623 C640 1.574 . S
C623 C642 1.368 1_545 S
C623 H647 0.949 . S
H624 C628 0.949 . S
C625 C626 1.349 . S
C625 C627 1.327 . S
C625 H648 0.950 . S
C626 C625 1.349 . S
C626 C638 1.349 . S
C627 C625 1.327 . S
C627 C643 1.429 . S
C627 H649 0.950 . S
C628 H624 0.949 . S
C628 C636 1.574 . S
C628 C644 1.368 1_565 S
H629 C637 0.950 . S
H630 C635 0.950 1_545 S
H631 C636 0.949 . S
H632 C638 0.950 . S
H633 C639 0.950 1_565 S
H634 C640 0.949 . S
C635 H630 0.950 1_565 S
C635 C637 1.327 . S
C635 C641 1.429 . S
C636 C628 1.574 . S
C636 H631 0.949 . S
C636 C642 1.368 1_655 S
C637 C621 1.349 . S
C637 H629 0.950 . S
C637 C635 1.327 . S
C638 C626 1.349 . S
C638 H632 0.950 . S
C638 C639 1.327 . S
C639 H633 0.950 1_545 S
C639 C638 1.327 . S
C639 C643 1.429 . S
C640 C623 1.574 . S
C640 H634 0.949 . S
C640 C644 1.368 1_455 S
C641 C622 1.429 . S
C641 C635 1.429 . S
C641 C642 1.523 . S
C642 C623 1.368 1_565 S
C642 C636 1.368 1_455 S
C642 C641 1.523 . S
C643 C627 1.429 . S
C643 C639 1.429 . S
C643 C644 1.523 . S
C644 C628 1.368 1_545 S
C644 C640 1.368 1_655 S
C644 C643 1.523 . S
H645 C620 0.950 . S
H646 C622 0.950 . S
H647 C623 0.949 . S
H648 C625 0.950 . S
H649 C627 0.950 . S
C650 C651 1.349 . S
C650 C652 1.327 . S
C650 H675 0.950 . S
C651 C650 1.349 . S
C651 C667 1.349 . S
C652 C650 1.327 . S
C652 C671 1.429 . S
C652 H676 0.950 . S
C653 C670 1.574 . S
C653 C672 1.368 . S
C653 H677 0.949 . S
H654 C658 0.949 . S
C655 C656 1.349 . S
C655 C657 1.327 . S
C655 H678 0.950 . S
C656 C655 1.349 . S
C656 C668 1.349 . S
C657 C655 1.327 . S
C657 C673 1.429 . S
C657 H679 0.950 . S
C658 H654 0.949 . S
C658 C666 1.574 . S
C658 C674 1.368 . S
H659 C667 0.950 . S
H660 C665 0.950 . S
H661 C666 0.949 . S
H662 C668 0.950 . S
H663 C669 0.950 . S
H664 C670 0.949 . S
C665 H660 0.950 . S
C665 C667 1.327 . S
C665 C671 1.429 . S
C666 C658 1.574 . S
C666 H661 0.949 . S
C666 C672 1.368 . S
C667 C651 1.349 . S
C667 H659 0.950 . S
C667 C665 1.327 . S
C668 C656 1.349 . S
C668 H662 0.950 . S
C668 C669 1.327 . S
C669 H663 0.950 . S
C669 C668 1.327 . S
C669 C673 1.429 . S
C670 C653 1.574 . S
C670 H664 0.949 . S
C670 C674 1.368 . S
C671 C652 1.429 . S
C671 C665 1.429 . S
C671 C672 1.523 . S
C672 C653 1.368 . S
C672 C666 1.368 . S
C672 C671 1.523 . S
C673 C657 1.429 . S
C673 C669 1.429 . S
C673 C674 1.523 . S
C674 C658 1.368 . S
C674 C670 1.368 . S
C674 C673 1.523 . S
H675 C650 0.950 . S
H676 C652 0.950 . S
H677 C653 0.949 . S
H678 C655 0.950 . S
H679 C657 0.950 . S
C680 C681 1.349 . S
C680 C682 1.327 . S
C680 H705 0.950 . S
C681 C680 1.349 . S
C681 C697 1.349 . S
C682 C680 1.327 . S
C682 C701 1.429 . S
C682 H706 0.950 . S
C683 C700 1.574 . S
C683 C702 1.368 . S
C683 H707 0.949 . S
H684 C688 0.949 . S
C685 C686 1.349 . S
C685 C687 1.327 . S
C685 H708 0.950 . S
C686 C685 1.349 . S
C686 C698 1.349 . S
C687 C685 1.327 . S
C687 C703 1.429 . S
C687 H709 0.950 . S
C688 H684 0.949 . S
C688 C696 1.574 . S
C688 C704 1.368 . S
H689 C697 0.950 . S
H690 C695 0.950 . S
H691 C696 0.949 . S
H692 C698 0.950 . S
H693 C699 0.950 . S
H694 C700 0.949 . S
C695 H690 0.950 . S
C695 C697 1.327 . S
C695 C701 1.429 . S
C696 C688 1.574 . S
C696 H691 0.949 . S
C696 C702 1.368 . S
C697 C681 1.349 . S
C697 H689 0.950 . S
C697 C695 1.327 . S
C698 C686 1.349 . S
C698 H692 0.950 . S
C698 C699 1.327 . S
C699 H693 0.950 . S
C699 C698 1.327 . S
C699 C703 1.429 . S
C700 C683 1.574 . S
C700 H694 0.949 . S
C700 C704 1.368 . S
C701 C682 1.429 . S
C701 C695 1.429 . S
C701 C702 1.523 . S
C702 C683 1.368 . S
C702 C696 1.368 . S
C702 C701 1.523 . S
C703 C687 1.429 . S
C703 C699 1.429 . S
C703 C704 1.523 . S
C704 C688 1.368 . S
C704 C700 1.368 . S
C704 C703 1.523 . S
H705 C680 0.950 . S
H706 C682 0.950 . S
H707 C683 0.949 . S
H708 C685 0.950 . S
H709 C687 0.950 . S
C710 C711 1.349 . S
C710 C712 1.327 . S
C710 H735 0.950 . S
C711 C710 1.349 . S
C711 C727 1.349 . S
C712 C710 1.327 . S
C712 C731 1.429 . S
C712 H736 0.950 . S
C713 C730 1.574 . S
C713 C732 1.368 . S
C713 H737 0.949 . S
H714 C718 0.949 . S
C715 C716 1.349 . S
C715 C717 1.327 . S
C715 H738 0.950 . S
C716 C715 1.349 . S
C716 C728 1.349 . S
C717 C715 1.327 . S
C717 C733 1.429 . S
C717 H739 0.950 . S
C718 H714 0.949 . S
C718 C726 1.574 . S
C718 C734 1.368 . S
H719 C727 0.950 . S
H720 C725 0.950 . S
H721 C726 0.949 . S
H722 C728 0.950 . S
H723 C729 0.950 . S
H724 C730 0.949 . S
C725 H720 0.950 . S
C725 C727 1.327 . S
C725 C731 1.429 . S
C726 C718 1.574 . S
C726 H721 0.949 . S
C726 C732 1.368 . S
C727 C711 1.349 . S
C727 H719 0.950 . S
C727 C725 1.327 . S
C728 C716 1.349 . S
C728 H722 0.950 . S
C728 C729 1.327 . S
C729 H723 0.950 . S
C729 C728 1.327 . S
C729 C733 1.429 . S
C730 C713 1.574 . S
C730 H724 0.949 . S
C730 C734 1.368 . S
C731 C712 1.429 . S
C731 C725 1.429 . S
C731 C732 1.523 . S
C732 C713 1.368 . S
C732 C726 1.368 . S
C732 C731 1.523 . S
C733 C717 1.429 . S
C733 C729 1.429 . S
C733 C734 1.523 . S
C734 C718 1.368 . S
C734 C730 1.368 . S
C734 C733 1.523 . S
H735 C710 0.950 . S
H736 C712 0.950 . S
H737 C713 0.949 . S
H738 C715 0.950 . S
H739 C717 0.950 . S
C740 C741 1.349 . S
C740 C742 1.327 . S
C740 H765 0.950 . S
C741 C740 1.349 . S
C741 C757 1.349 . S
C742 C740 1.327 . S
C742 C761 1.429 . S
C742 H766 0.950 . S
C743 C760 1.575 1_455 S
C743 C762 1.368 . S
C743 H767 0.949 . S
H744 C748 0.949 . S
C745 C746 1.349 . S
C745 C747 1.327 . S
C745 H768 0.950 . S
C746 C745 1.349 . S
C746 C758 1.349 . S
C747 C745 1.327 . S
C747 C763 1.429 . S
C747 H769 0.950 . S
C748 H744 0.949 . S
C748 C756 1.575 1_655 S
C748 C764 1.368 . S
H749 C757 0.950 . S
H750 C755 0.950 . S
H751 C756 0.949 . S
H752 C758 0.950 . S
H753 C759 0.950 . S
H754 C760 0.949 . S
C755 H750 0.950 . S
C755 C757 1.327 . S
C755 C761 1.429 . S
C756 C748 1.575 1_455 S
C756 H751 0.949 . S
C756 C762 1.367 . S
C757 C741 1.349 . S
C757 H749 0.950 . S
C757 C755 1.327 . S
C758 C746 1.349 . S
C758 H752 0.950 . S
C758 C759 1.327 . S
C759 H753 0.950 . S
C759 C758 1.327 . S
C759 C763 1.429 . S
C760 C743 1.575 1_655 S
C760 H754 0.949 . S
C760 C764 1.367 . S
C761 C742 1.429 . S
C761 C755 1.429 . S
C761 C762 1.523 . S
C762 C743 1.368 . S
C762 C756 1.367 . S
C762 C761 1.523 . S
C763 C747 1.429 . S
C763 C759 1.429 . S
C763 C764 1.523 . S
C764 C748 1.368 . S
C764 C760 1.367 . S
C764 C763 1.523 . S
H765 C740 0.950 . S
H766 C742 0.950 . S
H767 C743 0.949 . S
H768 C745 0.950 . S
H769 C747 0.950 . S
C770 C771 1.349 . S
C770 C772 1.327 . S
C770 H795 0.950 . S
C771 C770 1.349 . S
C771 C787 1.349 . S
C772 C770 1.327 . S
C772 C791 1.429 . S
C772 H796 0.950 . S
C773 C790 1.574 1_554 S
C773 C792 1.368 . S
C773 H797 0.949 . S
H774 C778 0.949 . S
C775 C776 1.349 . S
C775 C777 1.327 . S
C775 H798 0.950 . S
C776 C775 1.349 . S
C776 C788 1.349 . S
C777 C775 1.327 . S
C777 C793 1.429 . S
C777 H799 0.950 . S
C778 H774 0.949 . S
C778 C786 1.574 1_556 S
C778 C794 1.368 . S
H779 C787 0.950 . S
H780 C785 0.950 . S
H781 C786 0.949 . S
H782 C788 0.950 . S
H783 C789 0.950 . S
H784 C790 0.949 . S
C785 H780 0.950 . S
C785 C787 1.327 . S
C785 C791 1.429 . S
C786 C778 1.574 1_554 S
C786 H781 0.949 . S
C786 C792 1.368 . S
C787 C771 1.349 . S
C787 H779 0.950 . S
C787 C785 1.327 . S
C788 C776 1.349 . S
C788 H782 0.950 . S
C788 C789 1.327 . S
C789 H783 0.950 . S
C789 C788 1.327 . S
C789 C793 1.429 . S
C790 C773 1.574 1_556 S
C790 H784 0.949 . S
C790 C794 1.368 . S
C791 C772 1.429 . S
C791 C785 1.429 . S
C791 C792 1.523 . S
C792 C773 1.368 . S
C792 C786 1.368 . S
C792 C791 1.523 . S
C793 C777 1.429 . S
C793 C789 1.429 . S
C793 C794 1.523 . S
C794 C778 1.368 . S
C794 C790 1.368 . S
C794 C793 1.523 . S
H795 C770 0.950 . S
H796 C772 0.950 . S
H797 C773 0.949 . S
H798 C775 0.950 . S
H799 C777 0.950 . S
C800 C801 1.349 . S
C800 C802 1.327 . S
C800 H825 0.950 . S
C801 C800 1.349 . S
C801 C817 1.349 . S
C802 C800 1.327 . S
C802 C821 1.429 . S
C802 H826 0.950 . S
C803 C820 1.574 . S
C803 C822 1.368 . S
C803 H827 0.949 . S
H804 C808 0.949 . S
C805 C806 1.349 . S
C805 C807 1.327 . S
C805 H828 0.950 . S
C806 C805 1.349 . S
C806 C818 1.349 . S
C807 C805 1.327 . S
C807 C823 1.429 . S
C807 H829 0.950 . S
C808 H804 0.949 . S
C808 C816 1.574 . S
C808 C824 1.368 . S
H809 C817 0.950 . S
H810 C815 0.950 . S
H811 C816 0.949 . S
H812 C818 0.950 . S
H813 C819 0.950 . S
H814 C820 0.949 . S
C815 H810 0.950 . S
C815 C817 1.327 . S
C815 C821 1.429 . S
C816 C808 1.574 . S
C816 H811 0.949 . S
C816 C822 1.368 . S
C817 C801 1.349 . S
C817 H809 0.950 . S
C817 C815 1.327 . S
C818 C806 1.349 . S
C818 H812 0.950 . S
C818 C819 1.327 . S
C819 H813 0.950 . S
C819 C818 1.327 . S
C819 C823 1.429 . S
C820 C803 1.574 . S
C820 H814 0.949 . S
C820 C824 1.368 . S
C821 C802 1.429 . S
C821 C815 1.429 . S
C821 C822 1.523 . S
C822 C803 1.368 . S
C822 C816 1.368 . S
C822 C821 1.523 . S
C823 C807 1.429 . S
C823 C819 1.429 . S
C823 C824 1.523 . S
C824 C808 1.368 . S
C824 C820 1.368 . S
C824 C823 1.523 . S
H825 C800 0.950 . S
H826 C802 0.950 . S
H827 C803 0.949 . S
H828 C805 0.950 . S
H829 C807 0.950 . S
C830 C831 1.349 . S
C830 C832 1.327 . S
C830 H855 0.950 . S
C831 C830 1.349 . S
C831 C847 1.349 . S
C832 C830 1.327 . S
C832 C851 1.429 . S
C832 H856 0.950 . S
C833 C850 1.574 . S
C833 C852 1.368 . S
C833 H857 0.949 . S
H834 C838 0.949 . S
C835 C836 1.349 . S
C835 C837 1.327 . S
C835 H858 0.950 . S
C836 C835 1.349 . S
C836 C848 1.349 . S
C837 C835 1.327 . S
C837 C853 1.429 . S
C837 H859 0.950 . S
C838 H834 0.949 . S
C838 C846 1.574 . S
C838 C854 1.368 . S
H839 C847 0.950 . S
H840 C845 0.950 . S
H841 C846 0.949 . S
H842 C848 0.950 . S
H843 C849 0.950 . S
H844 C850 0.949 . S
C845 H840 0.950 . S
C845 C847 1.327 . S
C845 C851 1.429 . S
C846 C838 1.574 . S
C846 H841 0.949 . S
C846 C852 1.368 . S
C847 C831 1.349 . S
C847 H839 0.950 . S
C847 C845 1.327 . S
C848 C836 1.349 . S
C848 H842 0.950 . S
C848 C849 1.327 . S
C849 H843 0.950 . S
C849 C848 1.327 . S
C849 C853 1.429 . S
C850 C833 1.574 . S
C850 H844 0.949 . S
C850 C854 1.368 . S
C851 C832 1.429 . S
C851 C845 1.429 . S
C851 C852 1.523 . S
C852 C833 1.368 . S
C852 C846 1.368 . S
C852 C851 1.523 . S
C853 C837 1.429 . S
C853 C849 1.429 . S
C853 C854 1.523 . S
C854 C838 1.368 . S
C854 C850 1.368 . S
C854 C853 1.523 . S
H855 C830 0.950 . S
H856 C832 0.950 . S
H857 C833 0.949 . S
H858 C835 0.950 . S
H859 C837 0.950 . S
C860 C861 1.349 . S
C860 C862 1.327 . S
C860 H885 0.950 . S
C861 C860 1.349 . S
C861 C877 1.349 . S
C862 C860 1.327 . S
C862 C881 1.429 . S
C862 H886 0.950 . S
C863 C880 1.574 . S
C863 C882 1.368 . S
C863 H887 0.949 . S
H864 C868 0.949 . S
C865 C866 1.349 . S
C865 C867 1.327 . S
C865 H888 0.950 . S
C866 C865 1.349 . S
C866 C878 1.349 . S
C867 C865 1.327 . S
C867 C883 1.429 . S
C867 H889 0.950 . S
C868 H864 0.949 . S
C868 C876 1.574 . S
C868 C884 1.368 . S
H869 C877 0.950 . S
H870 C875 0.950 . S
H871 C876 0.949 . S
H872 C878 0.950 . S
H873 C879 0.950 . S
H874 C880 0.949 . S
C875 H870 0.950 . S
C875 C877 1.327 . S
C875 C881 1.429 . S
C876 C868 1.574 . S
C876 H871 0.949 . S
C876 C882 1.368 . S
C877 C861 1.349 . S
C877 H869 0.950 . S
C877 C875 1.327 . S
C878 C866 1.349 . S
C878 H872 0.950 . S
C878 C879 1.327 . S
C879 H873 0.950 . S
C879 C878 1.327 . S
C879 C883 1.429 . S
C880 C863 1.574 . S
C880 H874 0.949 . S
C880 C884 1.368 . S
C881 C862 1.429 . S
C881 C875 1.429 . S
C881 C882 1.523 . S
C882 C863 1.368 . S
C882 C876 1.368 . S
C882 C881 1.523 . S
C883 C867 1.429 . S
C883 C879 1.429 . S
C883 C884 1.523 . S
C884 C868 1.368 . S
C884 C880 1.368 . S
C884 C883 1.523 . S
H885 C860 0.950 . S
H886 C862 0.950 . S
H887 C863 0.949 . S
H888 C865 0.950 . S
H889 C867 0.950 . S
C890 C891 1.349 . S
C890 C892 1.327 . S
C890 H915 0.950 . S
C891 C890 1.349 . S
C891 C907 1.349 . S
C892 C890 1.327 . S
C892 C911 1.429 1_655 S
C892 H916 0.950 1_655 S
C893 C910 1.574 . S
C893 C912 1.368 . S
C893 H917 0.949 . S
H894 C898 0.949 . S
C895 C896 1.349 . S
C895 C897 1.327 . S
C895 H918 0.950 . S
C896 C895 1.349 . S
C896 C908 1.349 . S
C897 C895 1.327 . S
C897 C913 1.429 . S
C897 H919 0.950 . S
C898 H894 0.949 . S
C898 C906 1.574 . S
C898 C914 1.368 . S
H899 C907 0.950 . S
H900 C905 0.950 . S
H901 C906 0.949 . S
H902 C908 0.950 . S
H903 C909 0.950 . S
H904 C910 0.949 . S
C905 H900 0.950 . S
C905 C907 1.327 . S
C905 C911 1.429 1_655 S
C906 C898 1.574 . S
C906 H901 0.949 . S
C906 C912 1.368 . S
C907 C891 1.349 . S
C907 H899 0.950 . S
C907 C905 1.327 . S
C908 C896 1.349 . S
C908 H902 0.950 . S
C908 C909 1.327 . S
C909 H903 0.950 . S
C909 C908 1.327 . S
C909 C913 1.429 . S
C910 C893 1.574 . S
C910 H904 0.949 . S
C910 C914 1.368 . S
C911 C892 1.429 1_455 S
C911 C905 1.429 1_455 S
C911 C912 1.523 . S
C912 C893 1.368 . S
C912 C906 1.368 . S
C912 C911 1.523 . S
C913 C897 1.429 . S
C913 C909 1.429 . S
C913 C914 1.523 . S
C914 C898 1.368 . S
C914 C910 1.368 . S
C914 C913 1.523 . S
H915 C890 0.950 . S
H916 C892 0.950 1_455 S
H917 C893 0.949 . S
H918 C895 0.950 . S
H919 C897 0.950 . S
C920 C921 1.349 . S
C920 C922 1.327 . S
C920 H945 0.950 . S
C921 C920 1.349 . S
C921 C937 1.349 . S
C922 C920 1.327 . S
C922 C941 1.429 . S
C922 H946 0.950 . S
C923 C940 1.574 . S
C923 C942 1.368 . S
C923 H947 0.949 . S
H924 C928 0.949 . S
C925 C926 1.349 . S
C925 C927 1.327 . S
C925 H948 0.950 . S
C926 C925 1.349 . S
C926 C938 1.349 . S
C927 C925 1.327 . S
C927 C943 1.429 . S
C927 H949 0.950 . S
C928 H924 0.949 . S
C928 C936 1.574 . S
C928 C944 1.368 . S
H929 C937 0.950 . S
H930 C935 0.950 . S
H931 C936 0.949 . S
H932 C938 0.950 . S
H933 C939 0.950 . S
H934 C940 0.949 . S
C935 H930 0.950 . S
C935 C937 1.327 . S
C935 C941 1.429 . S
C936 C928 1.574 . S
C936 H931 0.949 . S
C936 C942 1.368 . S
C937 C921 1.349 . S
C937 H929 0.950 . S
C937 C935 1.327 . S
C938 C926 1.349 . S
C938 H932 0.950 . S
C938 C939 1.327 . S
C939 H933 0.950 . S
C939 C938 1.327 . S
C939 C943 1.429 . S
C940 C923 1.574 . S
C940 H934 0.949 . S
C940 C944 1.368 . S
C941 C922 1.429 . S
C941 C935 1.429 . S
C941 C942 1.523 . S
C942 C923 1.368 . S
C942 C936 1.368 . S
C942 C941 1.523 . S
C943 C927 1.429 . S
C943 C939 1.429 . S
C943 C944 1.523 . S
C944 C928 1.368 . S
C944 C940 1.368 . S
C944 C943 1.523 . S
H945 C920 0.950 . S
H946 C922 0.950 . S
H947 C923 0.949 . S
H948 C925 0.950 . S
H949 C927 0.950 . S
C950 C951 1.349 . S
C950 C952 1.327 . S
C950 H975 0.950 . S
C951 C950 1.349 . S
C951 C967 1.349 . S
C952 C950 1.327 . S
C952 C971 1.429 . S
C952 H976 0.950 . S
C953 C970 1.574 . S
C953 C972 1.368 . S
C953 H977 0.949 . S
H954 C958 0.949 . S
C955 C956 1.349 . S
C955 C957 1.327 . S
C955 H978 0.950 . S
C956 C955 1.349 . S
C956 C968 1.349 . S
C957 C955 1.327 . S
C957 C973 1.429 . S
C957 H979 0.950 . S
C958 H954 0.949 . S
C958 C966 1.574 . S
C958 C974 1.368 . S
H959 C967 0.950 . S
H960 C965 0.950 . S
H961 C966 0.949 . S
H962 C968 0.950 . S
H963 C969 0.950 . S
H964 C970 0.949 . S
C965 H960 0.950 . S
C965 C967 1.327 . S
C965 C971 1.429 . S
C966 C958 1.574 . S
C966 H961 0.949 . S
C966 C972 1.368 . S
C967 C951 1.349 . S
C967 H959 0.950 . S
C967 C965 1.327 . S
C968 C956 1.349 . S
C968 H962 0.950 . S
C968 C969 1.327 . S
C969 H963 0.950 . S
C969 C968 1.327 . S
C969 C973 1.429 . S
C970 C953 1.574 . S
C970 H964 0.949 . S
C970 C974 1.368 . S
C971 C952 1.429 . S
C971 C965 1.429 . S
C971 C972 1.523 . S
C972 C953 1.368 . S
C972 C966 1.368 . S
C972 C971 1.523 . S
C973 C957 1.429 . S
C973 C969 1.429 . S
C973 C974 1.523 . S
C974 C958 1.368 . S
C974 C970 1.368 . S
C974 C973 1.523 . S
H975 C950 0.950 . S
H976 C952 0.950 . S
H977 C953 0.949 . S
H978 C955 0.950 . S
H979 C957 0.950 . S
C980 C981 1.349 . S
C980 C982 1.327 . S
C980 H1005 0.950 . S
C981 C980 1.349 . S
C981 C997 1.349 . S
C982 C980 1.327 . S
C982 C1001 1.429 . S
C982 H1006 0.950 . S
C983 C1000 1.574 . S
C983 C1002 1.368 . S
C983 H1007 0.949 . S
H984 C988 0.949 . S
C985 C986 1.349 . S
C985 C987 1.327 . S
C985 H1008 0.950 . S
C986 C985 1.349 . S
C986 C998 1.349 . S
C987 C985 1.327 . S
C987 C1003 1.429 . S
C987 H1009 0.950 . S
C988 H984 0.949 . S
C988 C996 1.574 . S
C988 C1004 1.368 . S
H989 C997 0.950 . S
H990 C995 0.950 . S
H991 C996 0.949 . S
H992 C998 0.950 . S
H993 C999 0.950 . S
H994 C1000 0.949 . S
C995 H990 0.950 . S
C995 C997 1.327 . S
C995 C1001 1.429 . S
C996 C988 1.574 . S
C996 H991 0.949 . S
C996 C1002 1.368 . S
C997 C981 1.349 . S
C997 H989 0.950 . S
C997 C995 1.327 . S
C998 C986 1.349 . S
C998 H992 0.950 . S
C998 C999 1.327 . S
C999 H993 0.950 . S
C999 C998 1.327 . S
C999 C1003 1.429 . S
C1000 C983 1.574 . S
C1000 H994 0.949 . S
C1000 C1004 1.368 . S
C1001 C982 1.429 . S
C1001 C995 1.429 . S
C1001 C1002 1.523 . S
C1002 C983 1.368 . S
C1002 C996 1.368 . S
C1002 C1001 1.523 . S
C1003 C987 1.429 . S
C1003 C999 1.429 . S
C1003 C1004 1.523 . S
C1004 C988 1.368 . S
C1004 C1000 1.368 . S
C1004 C1003 1.523 . S
H1005 C980 0.950 . S
H1006 C982 0.950 . S
H1007 C983 0.949 . S
H1008 C985 0.950 . S
H1009 C987 0.950 . S
C1010 C1011 1.349 . S
C1010 C1012 1.327 . S
C1010 H1035 0.950 . S
C1011 C1010 1.349 . S
C1011 C1027 1.349 . S
C1012 C1010 1.327 . S
C1012 C1031 1.429 . S
C1012 H1036 0.950 . S
C1013 C1030 1.574 . S
C1013 C1032 1.368 . S
C1013 H1037 0.949 . S
H1014 C1018 0.949 . S
C1015 C1016 1.349 . S
C1015 C1017 1.327 . S
C1015 H1038 0.950 . S
C1016 C1015 1.349 . S
C1016 C1028 1.349 . S
C1017 C1015 1.327 . S
C1017 C1033 1.429 1_455 S
C1017 H1039 0.950 1_455 S
C1018 H1014 0.949 . S
C1018 C1026 1.574 . S
C1018 C1034 1.368 . S
H1019 C1027 0.950 . S
H1020 C1025 0.950 . S
H1021 C1026 0.949 . S
H1022 C1028 0.950 . S
H1023 C1029 0.950 . S
H1024 C1030 0.949 . S
C1025 H1020 0.950 . S
C1025 C1027 1.327 . S
C1025 C1031 1.429 . S
C1026 C1018 1.574 . S
C1026 H1021 0.949 . S
C1026 C1032 1.368 . S
C1027 C1011 1.349 . S
C1027 H1019 0.950 . S
C1027 C1025 1.327 . S
C1028 C1016 1.349 . S
C1028 H1022 0.950 . S
C1028 C1029 1.327 . S
C1029 H1023 0.950 . S
C1029 C1028 1.327 . S
C1029 C1033 1.429 1_455 S
C1030 C1013 1.574 . S
C1030 H1024 0.949 . S
C1030 C1034 1.368 . S
C1031 C1012 1.429 . S
C1031 C1025 1.429 . S
C1031 C1032 1.523 . S
C1032 C1013 1.368 . S
C1032 C1026 1.368 . S
C1032 C1031 1.523 . S
C1033 C1017 1.429 1_655 S
C1033 C1029 1.429 1_655 S
C1033 C1034 1.523 . S
C1034 C1018 1.368 . S
C1034 C1030 1.368 . S
C1034 C1033 1.523 . S
H1035 C1010 0.950 . S
H1036 C1012 0.950 . S
H1037 C1013 0.949 . S
H1038 C1015 0.950 . S
H1039 C1017 0.950 1_655 S
C1040 C1041 1.349 . S
C1040 C1042 1.327 . S
C1040 H1065 0.950 . S
C1041 C1040 1.349 . S
C1041 C1057 1.349 . S
C1042 C1040 1.327 . S
C1042 C1061 1.429 . S
C1042 H1066 0.950 . S
C1043 C1060 1.574 . S
C1043 C1062 1.368 . S
C1043 H1067 0.949 . S
H1044 C1048 0.949 . S
C1045 C1046 1.349 . S
C1045 C1047 1.327 . S
C1045 H1068 0.950 . S
C1046 C1045 1.349 . S
C1046 C1058 1.349 . S
C1047 C1045 1.327 . S
C1047 C1063 1.429 . S
C1047 H1069 0.950 . S
C1048 H1044 0.949 . S
C1048 C1056 1.574 . S
C1048 C1064 1.368 . S
H1049 C1057 0.950 . S
H1050 C1055 0.950 . S
H1051 C1056 0.949 . S
H1052 C1058 0.950 . S
H1053 C1059 0.950 . S
H1054 C1060 0.949 . S
C1055 H1050 0.950 . S
C1055 C1057 1.327 . S
C1055 C1061 1.429 . S
C1056 C1048 1.574 . S
C1056 H1051 0.949 . S
C1056 C1062 1.368 . S
C1057 C1041 1.349 . S
C1057 H1049 0.950 . S
C1057 C1055 1.327 . S
C1058 C1046 1.349 . S
C1058 H1052 0.950 . S
C1058 C1059 1.327 . S
C1059 H1053 0.950 . S
C1059 C1058 1.327 . S
C1059 C1063 1.429 . S
C1060 C1043 1.574 . S
C1060 H1054 0.949 . S
C1060 C1064 1.368 . S
C1061 C1042 1.429 . S
C1061 C1055 1.429 . S
C1061 C1062 1.523 . S
C1062 C1043 1.368 . S
C1062 C1056 1.368 . S
C1062 C1061 1.523 . S
C1063 C1047 1.429 . S
C1063 C1059 1.429 . S
C1063 C1064 1.523 . S
C1064 C1048 1.368 . S
C1064 C1060 1.368 . S
C1064 C1063 1.523 . S
H1065 C1040 0.950 . S
H1066 C1042 0.950 . S
H1067 C1043 0.949 . S
H1068 C1045 0.950 . S
H1069 C1047 0.950 . S
C1070 C1071 1.349 . S
C1070 C1072 1.327 . S
C1070 H1095 0.950 . S
C1071 C1070 1.349 . S
C1071 C1087 1.349 . S
C1072 C1070 1.327 . S
C1072 C1091 1.429 . S
C1072 H1096 0.950 . S
C1073 C1090 1.574 . S
C1073 C1092 1.368 . S
C1073 H1097 0.949 . S
H1074 C1078 0.949 1_545 S
C1075 C1076 1.349 1_565 S
C1075 C1077 1.327 . S
C1075 H1098 0.950 . S
C1076 C1075 1.349 1_545 S
C1076 C1088 1.349 . S
C1077 C1075 1.327 . S
C1077 C1093 1.429 1_455 S
C1077 H1099 0.950 1_455 S
C1078 H1074 0.949 1_565 S
C1078 C1086 1.574 . S
C1078 C1094 1.368 . S
H1079 C1087 0.950 . S
H1080 C1085 0.950 . S
H1081 C1086 0.936 1_545 S
H1082 C1088 0.950 . S
H1083 C1089 0.950 . S
H1084 C1090 0.949 . S
C1085 H1080 0.950 . S
C1085 C1087 1.327 . S
C1085 C1091 1.429 . S
C1086 C1078 1.574 . S
C1086 H1081 0.936 1_565 S
C1086 C1092 1.368 . S
C1087 C1071 1.349 . S
C1087 H1079 0.950 . S
C1087 C1085 1.327 . S
C1088 C1076 1.349 . S
C1088 H1082 0.950 . S
C1088 C1089 1.327 . S
C1089 H1083 0.950 . S
C1089 C1088 1.327 . S
C1089 C1093 1.429 1_445 S
C1090 C1073 1.574 . S
C1090 H1084 0.949 . S
C1090 C1094 1.368 . S
C1091 C1072 1.429 . S
C1091 C1085 1.429 . S
C1091 C1092 1.523 . S
C1092 C1073 1.368 . S
C1092 C1086 1.368 . S
C1092 C1091 1.523 . S
C1093 C1077 1.429 1_655 S
C1093 C1089 1.429 1_665 S
C1093 C1094 1.523 . S
C1094 C1078 1.368 . S
C1094 C1090 1.368 . S
C1094 C1093 1.523 . S
H1095 C1070 0.950 . S
H1096 C1072 0.950 . S
H1097 C1073 0.949 . S
H1098 C1075 0.950 . S
H1099 C1077 0.950 1_655 S
C1100 C1101 1.349 . S
C1100 C1102 1.327 . S
C1100 H1125 0.950 . S
C1101 C1100 1.349 . S
C1101 C1117 1.349 . S
C1102 C1100 1.327 . S
C1102 C1121 1.429 . S
C1102 H1126 0.950 . S
C1103 C1120 1.574 . S
C1103 C1122 1.368 . S
C1103 H1127 0.949 . S
H1104 C1108 0.949 . S
C1105 C1106 1.349 . S
C1105 C1107 1.327 . S
C1105 H1128 0.950 . S
C1106 C1105 1.349 . S
C1106 C1118 1.349 . S
C1107 C1105 1.327 . S
C1107 C1123 1.429 . S
C1107 H1129 0.950 . S
C1108 H1104 0.949 . S
C1108 C1116 1.574 . S
C1108 C1124 1.368 . S
H1109 C1117 0.950 . S
H1110 C1115 0.950 . S
H1111 C1116 0.949 . S
H1112 C1118 0.950 . S
H1113 C1119 0.950 . S
H1114 C1120 0.949 . S
C1115 H1110 0.950 . S
C1115 C1117 1.327 . S
C1115 C1121 1.429 . S
C1116 C1108 1.574 . S
C1116 H1111 0.949 . S
C1116 C1122 1.368 . S
C1117 C1101 1.349 . S
C1117 H1109 0.950 . S
C1117 C1115 1.327 . S
C1118 C1106 1.349 . S
C1118 H1112 0.950 . S
C1118 C1119 1.327 . S
C1119 H1113 0.950 . S
C1119 C1118 1.327 . S
C1119 C1123 1.429 . S
C1120 C1103 1.574 . S
C1120 H1114 0.949 . S
C1120 C1124 1.368 . S
C1121 C1102 1.429 . S
C1121 C1115 1.429 . S
C1121 C1122 1.523 . S
C1122 C1103 1.368 . S
C1122 C1116 1.368 . S
C1122 C1121 1.523 . S
C1123 C1107 1.429 . S
C1123 C1119 1.429 . S
C1123 C1124 1.523 . S
C1124 C1108 1.368 . S
C1124 C1120 1.368 . S
C1124 C1123 1.523 . S
H1125 C1100 0.950 . S
H1126 C1102 0.950 . S
H1127 C1103 0.949 . S
H1128 C1105 0.950 . S
H1129 C1107 0.950 . S
C1130 C1131 1.349 . S
C1130 C1132 1.327 . S
C1130 H1155 0.950 . S
C1131 C1130 1.349 . S
C1131 C1147 1.349 . S
C1132 C1130 1.327 . S
C1132 C1151 1.429 . S
C1132 H1156 0.950 . S
C1133 C1150 1.574 . S
C1133 C1152 1.368 . S
C1133 H1157 0.949 . S
H1134 C1138 0.949 1_565 S
C1135 C1136 1.349 1_545 S
C1135 C1137 1.327 . S
C1135 H1158 0.950 . S
C1136 C1135 1.349 1_565 S
C1136 C1148 1.349 . S
C1137 C1135 1.327 . S
C1137 C1153 1.429 . S
C1137 H1159 0.950 . S
C1138 H1134 0.949 1_545 S
C1138 C1146 1.574 . S
C1138 C1154 1.368 . S
H1139 C1147 0.950 . S
H1140 C1145 0.950 . S
H1141 C1146 0.949 . S
H1142 C1148 0.950 . S
H1143 C1149 0.950 . S
H1144 C1150 0.949 . S
C1145 H1140 0.950 . S
C1145 C1147 1.327 . S
C1145 C1151 1.429 . S
C1146 C1138 1.574 . S
C1146 H1141 0.949 . S
C1146 C1152 1.368 . S
C1147 C1131 1.349 . S
C1147 H1139 0.950 . S
C1147 C1145 1.327 . S
C1148 C1136 1.349 . S
C1148 H1142 0.950 . S
C1148 C1149 1.327 . S
C1149 H1143 0.950 . S
C1149 C1148 1.327 . S
C1149 C1153 1.429 1_565 S
C1150 C1133 1.574 . S
C1150 H1144 0.949 . S
C1150 C1154 1.368 . S
C1151 C1132 1.429 . S
C1151 C1145 1.429 . S
C1151 C1152 1.523 . S
C1152 C1133 1.368 . S
C1152 C1146 1.368 . S
C1152 C1151 1.523 . S
C1153 C1137 1.429 . S
C1153 C1149 1.429 1_545 S
C1153 C1154 1.523 . S
C1154 C1138 1.368 . S
C1154 C1150 1.368 . S
C1154 C1153 1.523 . S
H1155 C1130 0.950 . S
H1156 C1132 0.950 . S
H1157 C1133 0.949 . S
H1158 C1135 0.950 . S
H1159 C1137 0.950 . S
C1160 C1161 1.349 . S
C1160 C1162 1.327 . S
C1160 H1185 0.950 . S
C1161 C1160 1.349 . S
C1161 C1177 1.349 . S
C1162 C1160 1.327 . S
C1162 C1181 1.429 . S
C1162 H1186 0.950 . S
C1163 C1180 1.574 . S
C1163 C1182 1.368 . S
C1163 H1187 0.949 . S
H1164 C1168 0.949 . S
C1165 C1166 1.349 . S
C1165 C1167 1.327 . S
C1165 H1188 0.950 . S
C1166 C1165 1.349 . S
C1166 C1178 1.349 . S
C1167 C1165 1.327 . S
C1167 C1183 1.429 . S
C1167 H1189 0.950 . S
C1168 H1164 0.949 . S
C1168 C1176 1.574 . S
C1168 C1184 1.368 . S
H1169 C1177 0.950 . S
H1170 C1175 0.950 . S
H1171 C1176 0.949 . S
H1172 C1178 0.950 . S
H1173 C1179 0.950 . S
H1174 C1180 0.949 . S
C1175 H1170 0.950 . S
C1175 C1177 1.327 . S
C1175 C1181 1.429 . S
C1176 C1168 1.574 . S
C1176 H1171 0.949 . S
C1176 C1182 1.368 . S
C1177 C1161 1.349 . S
C1177 H1169 0.950 . S
C1177 C1175 1.327 . S
C1178 C1166 1.349 . S
C1178 H1172 0.950 . S
C1178 C1179 1.327 . S
C1179 H1173 0.950 . S
C1179 C1178 1.327 . S
C1179 C1183 1.429 . S
C1180 C1163 1.574 . S
C1180 H1174 0.949 . S
C1180 C1184 1.368 . S
C1181 C1162 1.429 . S
C1181 C1175 1.429 . S
C1181 C1182 1.523 . S
C1182 C1163 1.368 . S
C1182 C1176 1.368 . S
C1182 C1181 1.523 . S
C1183 C1167 1.429 . S
C1183 C1179 1.429 . S
C1183 C1184 1.523 . S
C1184 C1168 1.368 . S
C1184 C1180 1.368 . S
C1184 C1183 1.523 . S
H1185 C1160 0.950 . S
H1186 C1162 0.950 . S
H1187 C1163 0.949 . S
H1188 C1165 0.950 . S
H1189 C1167 0.950 . S
C1190 C1191 1.349 1_545 S
C1190 C1192 1.327 . S
C1190 H1215 0.950 . S
C1191 C1190 1.349 1_565 S
C1191 C1207 1.349 . S
C1192 C1190 1.327 . S
C1192 C1211 1.429 1_655 S
C1192 H1216 0.950 1_655 S
C1193 C1210 1.574 . S
C1193 C1212 1.368 . S
C1193 H1217 0.949 1_545 S
H1194 C1198 0.949 . S
C1195 C1196 1.349 . S
C1195 C1197 1.327 . S
C1195 H1218 0.950 . S
C1196 C1195 1.349 . S
C1196 C1208 1.349 . S
C1197 C1195 1.327 . S
C1197 C1213 1.429 . S
C1197 H1219 0.950 . S
C1198 H1194 0.949 . S
C1198 C1206 1.574 . S
C1198 C1214 1.368 . S
H1199 C1207 0.950 . S
H1200 C1205 0.950 . S
H1201 C1206 0.949 . S
H1202 C1208 0.950 . S
H1203 C1209 0.950 . S
H1204 C1210 0.949 . S
C1205 H1200 0.950 . S
C1205 C1207 1.327 . S
C1205 C1211 1.429 1_665 S
C1206 C1198 1.574 . S
C1206 H1201 0.949 . S
C1206 C1212 1.368 . S
C1207 C1191 1.349 . S
C1207 H1199 0.950 . S
C1207 C1205 1.327 . S
C1208 C1196 1.349 . S
C1208 H1202 0.950 . S
C1208 C1209 1.327 . S
C1209 H1203 0.950 . S
C1209 C1208 1.327 . S
C1209 C1213 1.429 . S
C1210 C1193 1.574 . S
C1210 H1204 0.949 . S
C1210 C1214 1.368 . S
C1211 C1192 1.429 1_455 S
C1211 C1205 1.429 1_445 S
C1211 C1212 1.523 . S
C1212 C1193 1.368 . S
C1212 C1206 1.368 . S
C1212 C1211 1.523 . S
C1213 C1197 1.429 . S
C1213 C1209 1.429 . S
C1213 C1214 1.523 . S
C1214 C1198 1.368 . S
C1214 C1210 1.368 . S
C1214 C1213 1.523 . S
H1215 C1190 0.950 . S
H1216 C1192 0.950 1_455 S
H1217 C1193 0.949 1_565 S
H1218 C1195 0.950 . S
H1219 C1197 0.950 . S
C1220 C1221 1.349 . S
C1220 C1222 1.327 . S
C1220 H1245 0.950 . S
C1221 C1220 1.349 . S
C1221 C1237 1.349 . S
C1222 C1220 1.327 . S
C1222 C1241 1.429 . S
C1222 H1246 0.950 . S
C1223 C1240 1.574 . S
C1223 C1242 1.368 . S
C1223 H1247 0.949 . S
H1224 C1228 0.949 . S
C1225 C1226 1.349 . S
C1225 C1227 1.327 . S
C1225 H1248 0.950 . S
C1226 C1225 1.349 . S
C1226 C1238 1.349 . S
C1227 C1225 1.327 . S
C1227 C1243 1.429 . S
C1227 H1249 0.950 . S
C1228 H1224 0.949 . S
C1228 C1236 1.574 . S
C1228 C1244 1.368 . S
H1229 C1237 0.950 . S
H1230 C1235 0.950 . S
H1231 C1236 0.949 . S
H1232 C1238 0.950 . S
H1233 C1239 0.950 . S
H1234 C1240 0.949 . S
C1235 H1230 0.950 . S
C1235 C1237 1.327 . S
C1235 C1241 1.429 . S
C1236 C1228 1.574 . S
C1236 H1231 0.949 . S
C1236 C1242 1.368 . S
C1237 C1221 1.349 . S
C1237 H1229 0.950 . S
C1237 C1235 1.327 . S
C1238 C1226 1.349 . S
C1238 H1232 0.950 . S
C1238 C1239 1.327 . S
C1239 H1233 0.950 . S
C1239 C1238 1.327 . S
C1239 C1243 1.429 . S
C1240 C1223 1.574 . S
C1240 H1234 0.949 . S
C1240 C1244 1.368 . S
C1241 C1222 1.429 . S
C1241 C1235 1.429 . S
C1241 C1242 1.523 . S
C1242 C1223 1.368 . S
C1242 C1236 1.368 . S
C1242 C1241 1.523 . S
C1243 C1227 1.429 . S
C1243 C1239 1.429 . S
C1243 C1244 1.523 . S
C1244 C1228 1.368 . S
C1244 C1240 1.368 . S
C1244 C1243 1.523 . S
H1245 C1220 0.950 . S
H1246 C1222 0.950 . S
H1247 C1223 0.949 . S
H1248 C1225 0.950 . S
H1249 C1227 0.950 . S
C1250 C1251 1.349 1_565 S
C1250 C1252 1.327 . S
C1250 H1275 0.950 . S
C1251 C1250 1.349 1_545 S
C1251 C1267 1.349 . S
C1252 C1250 1.327 . S
C1252 C1271 1.429 . S
C1252 H1276 0.950 . S
C1253 C1270 1.574 . S
C1253 C1272 1.368 . S
C1253 H1277 0.949 1_565 S
H1254 C1258 0.949 . S
C1255 C1256 1.349 . S
C1255 C1257 1.327 . S
C1255 H1278 0.950 . S
C1256 C1255 1.349 . S
C1256 C1268 1.349 . S
C1257 C1255 1.327 . S
C1257 C1273 1.429 . S
C1257 H1279 0.950 . S
C1258 H1254 0.949 . S
C1258 C1266 1.574 . S
C1258 C1274 1.368 . S
H1259 C1267 0.950 . S
H1260 C1265 0.950 . S
H1261 C1266 0.949 . S
H1262 C1268 0.950 . S
H1263 C1269 0.950 . S
H1264 C1270 0.949 1_545 S
C1265 H1260 0.950 . S
C1265 C1267 1.327 . S
C1265 C1271 1.429 1_545 S
C1266 C1258 1.574 . S
C1266 H1261 0.949 . S
C1266 C1272 1.368 . S
C1267 C1251 1.349 . S
C1267 H1259 0.950 . S
C1267 C1265 1.327 . S
C1268 C1256 1.349 . S
C1268 H1262 0.950 . S
C1268 C1269 1.327 . S
C1269 H1263 0.950 . S
C1269 C1268 1.327 . S
C1269 C1273 1.429 . S
C1270 C1253 1.574 . S
C1270 H1264 0.949 1_565 S
C1270 C1274 1.368 . S
C1271 C1252 1.429 . S
C1271 C1265 1.429 1_565 S
C1271 C1272 1.523 . S
C1272 C1253 1.368 . S
C1272 C1266 1.368 . S
C1272 C1271 1.523 . S
C1273 C1257 1.429 . S
C1273 C1269 1.429 . S
C1273 C1274 1.523 . S
C1274 C1258 1.368 . S
C1274 C1270 1.368 . S
C1274 C1273 1.523 . S
H1275 C1250 0.950 . S
H1276 C1252 0.950 . S
H1277 C1253 0.949 1_545 S
H1278 C1255 0.950 . S
H1279 C1257 0.950 . S
C1280 C1281 1.349 . S
C1280 C1282 1.327 1_554 S
C1280 H1305 0.950 . S
C1281 C1280 1.349 . S
C1281 C1297 1.349 1_554 S
C1282 C1280 1.327 1_556 S
C1282 C1301 1.429 . S
C1282 H1306 0.950 . S
C1283 C1300 1.574 . S
C1283 C1302 1.368 . S
C1283 H1307 0.949 . S
H1284 C1288 0.949 . S
C1285 C1286 1.349 . S
C1285 C1287 1.327 . S
C1285 H1308 0.950 . S
C1286 C1285 1.349 . S
C1286 C1298 1.349 . S
C1287 C1285 1.327 . S
C1287 C1303 1.429 . S
C1287 H1309 0.950 . S
C1288 H1284 0.949 . S
C1288 C1296 1.574 . S
C1288 C1304 1.368 . S
H1289 C1297 0.950 . S
H1290 C1295 0.950 . S
H1291 C1296 0.949 . S
H1292 C1298 0.950 . S
H1293 C1299 0.950 . S
H1294 C1300 0.949 . S
C1295 H1290 0.950 . S
C1295 C1297 1.327 . S
C1295 C1301 1.429 . S
C1296 C1288 1.574 . S
C1296 H1291 0.949 . S
C1296 C1302 1.368 . S
C1297 C1281 1.349 1_556 S
C1297 H1289 0.950 . S
C1297 C1295 1.327 . S
C1298 C1286 1.349 . S
C1298 H1292 0.950 . S
C1298 C1299 1.327 . S
C1299 H1293 0.950 . S
C1299 C1298 1.327 . S
C1299 C1303 1.429 . S
C1300 C1283 1.574 . S
C1300 H1294 0.949 . S
C1300 C1304 1.368 . S
C1301 C1282 1.429 . S
C1301 C1295 1.429 . S
C1301 C1302 1.523 . S
C1302 C1283 1.368 . S
C1302 C1296 1.368 . S
C1302 C1301 1.523 . S
C1303 C1287 1.429 . S
C1303 C1299 1.429 . S
C1303 C1304 1.523 . S
C1304 C1288 1.368 . S
C1304 C1300 1.368 . S
C1304 C1303 1.523 . S
H1305 C1280 0.950 . S
H1306 C1282 0.950 . S
H1307 C1283 0.949 . S
H1308 C1285 0.950 . S
H1309 C1287 0.950 . S
C1310 C1311 1.349 . S
C1310 C1312 1.327 . S
C1310 H1335 0.950 . S
C1311 C1310 1.349 . S
C1311 C1327 1.349 . S
C1312 C1310 1.327 . S
C1312 C1331 1.429 . S
C1312 H1336 0.950 . S
C1313 C1330 1.574 . S
C1313 C1332 1.368 . S
C1313 H1337 0.949 . S
H1314 C1318 0.949 . S
C1315 C1316 1.349 . S
C1315 C1317 1.327 . S
C1315 H1338 0.950 . S
C1316 C1315 1.349 . S
C1316 C1328 1.349 . S
C1317 C1315 1.327 . S
C1317 C1333 1.429 . S
C1317 H1339 0.950 . S
C1318 H1314 0.949 . S
C1318 C1326 1.574 . S
C1318 C1334 1.368 . S
H1319 C1327 0.950 . S
H1320 C1325 0.950 . S
H1321 C1326 0.949 . S
H1322 C1328 0.950 . S
H1323 C1329 0.950 . S
H1324 C1330 0.949 . S
C1325 H1320 0.950 . S
C1325 C1327 1.327 . S
C1325 C1331 1.429 . S
C1326 C1318 1.574 . S
C1326 H1321 0.949 . S
C1326 C1332 1.368 . S
C1327 C1311 1.349 . S
C1327 H1319 0.950 . S
C1327 C1325 1.327 . S
C1328 C1316 1.349 . S
C1328 H1322 0.950 . S
C1328 C1329 1.327 . S
C1329 H1323 0.950 . S
C1329 C1328 1.327 . S
C1329 C1333 1.429 . S
C1330 C1313 1.574 . S
C1330 H1324 0.949 . S
C1330 C1334 1.368 . S
C1331 C1312 1.429 . S
C1331 C1325 1.429 . S
C1331 C1332 1.523 . S
C1332 C1313 1.368 . S
C1332 C1326 1.368 . S
C1332 C1331 1.523 . S
C1333 C1317 1.429 . S
C1333 C1329 1.429 . S
C1333 C1334 1.523 . S
C1334 C1318 1.368 . S
C1334 C1330 1.368 . S
C1334 C1333 1.523 . S
H1335 C1310 0.950 . S
H1336 C1312 0.950 . S
H1337 C1313 0.949 . S
H1338 C1315 0.950 . S
H1339 C1317 0.950 . S
C1340 C1341 1.349 . S
C1340 C1342 1.327 . S
C1340 H1365 0.950 . S
C1341 C1340 1.349 . S
C1341 C1357 1.349 . S
C1342 C1340 1.327 . S
C1342 C1361 1.429 . S
C1342 H1366 0.950 . S
C1343 C1360 1.574 . S
C1343 C1362 1.368 . S
C1343 H1367 0.949 . S
H1344 C1348 0.949 . S
C1345 C1346 1.349 . S
C1345 C1347 1.327 . S
C1345 H1368 0.950 . S
C1346 C1345 1.349 . S
C1346 C1358 1.349 . S
C1347 C1345 1.327 . S
C1347 C1363 1.429 . S
C1347 H1369 0.950 . S
C1348 H1344 0.949 . S
C1348 C1356 1.574 . S
C1348 C1364 1.368 . S
H1349 C1357 0.950 . S
H1350 C1355 0.950 . S
H1351 C1356 0.949 . S
H1352 C1358 0.950 . S
H1353 C1359 0.950 . S
H1354 C1360 0.949 . S
C1355 H1350 0.950 . S
C1355 C1357 1.327 . S
C1355 C1361 1.429 . S
C1356 C1348 1.574 . S
C1356 H1351 0.949 . S
C1356 C1362 1.368 . S
C1357 C1341 1.349 . S
C1357 H1349 0.950 . S
C1357 C1355 1.327 . S
C1358 C1346 1.349 . S
C1358 H1352 0.950 . S
C1358 C1359 1.327 . S
C1359 H1353 0.950 . S
C1359 C1358 1.327 . S
C1359 C1363 1.429 . S
C1360 C1343 1.574 . S
C1360 H1354 0.949 . S
C1360 C1364 1.368 . S
C1361 C1342 1.429 . S
C1361 C1355 1.429 . S
C1361 C1362 1.523 . S
C1362 C1343 1.368 . S
C1362 C1356 1.368 . S
C1362 C1361 1.523 . S
C1363 C1347 1.429 . S
C1363 C1359 1.429 . S
C1363 C1364 1.523 . S
C1364 C1348 1.368 . S
C1364 C1360 1.368 . S
C1364 C1363 1.523 . S
H1365 C1340 0.950 . S
H1366 C1342 0.950 . S
H1367 C1343 0.949 . S
H1368 C1345 0.950 . S
H1369 C1347 0.950 . S
C1370 C1371 1.349 . S
C1370 C1372 1.327 . S
C1370 H1395 0.950 . S
C1371 C1370 1.349 . S
C1371 C1387 1.349 . S
C1372 C1370 1.327 . S
C1372 C1391 1.429 . S
C1372 H1396 0.950 . S
C1373 C1390 1.574 . S
C1373 C1392 1.368 . S
C1373 H1397 0.949 . S
H1374 C1378 0.949 . S
C1375 C1376 1.349 . S
C1375 C1377 1.327 . S
C1375 H1398 0.950 . S
C1376 C1375 1.349 . S
C1376 C1388 1.349 . S
C1377 C1375 1.327 . S
C1377 C1393 1.429 . S
C1377 H1399 0.950 . S
C1378 H1374 0.949 . S
C1378 C1386 1.574 . S
C1378 C1394 1.368 . S
H1379 C1387 0.950 . S
H1380 C1385 0.950 . S
H1381 C1386 0.949 . S
H1382 C1388 0.950 . S
H1383 C1389 0.950 . S
H1384 C1390 0.949 . S
C1385 H1380 0.950 . S
C1385 C1387 1.327 . S
C1385 C1391 1.429 . S
C1386 C1378 1.574 . S
C1386 H1381 0.949 . S
C1386 C1392 1.368 . S
C1387 C1371 1.349 . S
C1387 H1379 0.950 . S
C1387 C1385 1.327 . S
C1388 C1376 1.349 . S
C1388 H1382 0.950 . S
C1388 C1389 1.327 . S
C1389 H1383 0.950 . S
C1389 C1388 1.327 . S
C1389 C1393 1.429 . S
C1390 C1373 1.574 . S
C1390 H1384 0.949 . S
C1390 C1394 1.368 . S
C1391 C1372 1.429 . S
C1391 C1385 1.429 . S
C1391 C1392 1.523 . S
C1392 C1373 1.368 . S
C1392 C1386 1.368 . S
C1392 C1391 1.523 . S
C1393 C1377 1.429 . S
C1393 C1389 1.429 . S
C1393 C1394 1.523 . S
C1394 C1378 1.368 . S
C1394 C1390 1.368 . S
C1394 C1393 1.523 . S
H1395 C1370 0.950 . S
H1396 C1372 0.950 . S
H1397 C1373 0.949 . S
H1398 C1375 0.950 . S
H1399 C1377 0.950 . S
C1400 C1401 1.349 . S
C1400 C1402 1.327 . S
C1400 H1425 0.950 . S
C1401 C1400 1.349 . S
C1401 C1417 1.349 . S
C1402 C1400 1.327 . S
C1402 C1421 1.429 . S
C1402 H1426 0.950 . S
C1403 C1420 1.574 . S
C1403 C1422 1.368 . S
C1403 H1427 0.949 . S
H1404 C1408 0.949 . S
C1405 C1406 1.349 . S
C1405 C1407 1.327 1_556 S
C1405 H1428 0.950 . S
C1406 C1405 1.349 . S
C1406 C1418 1.349 1_556 S
C1407 C1405 1.327 1_554 S
C1407 C1423 1.429 . S
C1407 H1429 0.950 . S
C1408 H1404 0.949 . S
C1408 C1416 1.574 . S
C1408 C1424 1.368 . S
H1409 C1417 0.950 . S
H1410 C1415 0.950 . S
H1411 C1416 0.949 . S
H1412 C1418 0.950 . S
H1413 C1419 0.950 . S
H1414 C1420 0.949 . S
C1415 H1410 0.950 . S
C1415 C1417 1.327 . S
C1415 C1421 1.429 . S
C1416 C1408 1.574 . S
C1416 H1411 0.949 . S
C1416 C1422 1.368 . S
C1417 C1401 1.349 . S
C1417 H1409 0.950 . S
C1417 C1415 1.327 . S
C1418 C1406 1.349 1_554 S
C1418 H1412 0.950 . S
C1418 C1419 1.327 . S
C1419 H1413 0.950 . S
C1419 C1418 1.327 . S
C1419 C1423 1.429 . S
C1420 C1403 1.574 . S
C1420 H1414 0.949 . S
C1420 C1424 1.368 . S
C1421 C1402 1.429 . S
C1421 C1415 1.429 . S
C1421 C1422 1.523 . S
C1422 C1403 1.368 . S
C1422 C1416 1.368 . S
C1422 C1421 1.523 . S
C1423 C1407 1.429 . S
C1423 C1419 1.429 . S
C1423 C1424 1.523 . S
C1424 C1408 1.368 . S
C1424 C1420 1.368 . S
C1424 C1423 1.523 . S
H1425 C1400 0.950 . S
H1426 C1402 0.950 . S
H1427 C1403 0.949 . S
H1428 C1405 0.950 . S
H1429 C1407 0.950 . S
C1430 C1431 1.349 . S
C1430 C1432 1.327 . S
C1430 H1455 0.950 . S
C1431 C1430 1.349 . S
C1431 C1447 1.349 . S
C1432 C1430 1.327 . S
C1432 C1451 1.429 . S
C1432 H1456 0.950 . S
C1433 C1450 1.574 . S
C1433 C1452 1.368 . S
C1433 H1457 0.949 . S
H1434 C1438 0.949 . S
C1435 C1436 1.349 . S
C1435 C1437 1.327 . S
C1435 H1458 0.950 . S
C1436 C1435 1.349 . S
C1436 C1448 1.349 . S
C1437 C1435 1.327 . S
C1437 C1453 1.429 . S
C1437 H1459 0.950 . S
C1438 H1434 0.949 . S
C1438 C1446 1.574 . S
C1438 C1454 1.368 . S
H1439 C1447 0.950 . S
H1440 C1445 0.950 . S
H1441 C1446 0.949 . S
H1442 C1448 0.950 . S
H1443 C1449 0.950 . S
H1444 C1450 0.949 . S
C1445 H1440 0.950 . S
C1445 C1447 1.327 . S
C1445 C1451 1.429 . S
C1446 C1438 1.574 . S
C1446 H1441 0.949 . S
C1446 C1452 1.368 . S
C1447 C1431 1.349 . S
C1447 H1439 0.950 . S
C1447 C1445 1.327 . S
C1448 C1436 1.349 . S
C1448 H1442 0.950 . S
C1448 C1449 1.327 . S
C1449 H1443 0.950 . S
C1449 C1448 1.327 . S
C1449 C1453 1.429 . S
C1450 C1433 1.574 . S
C1450 H1444 0.949 . S
C1450 C1454 1.368 . S
C1451 C1432 1.429 . S
C1451 C1445 1.429 . S
C1451 C1452 1.523 . S
C1452 C1433 1.368 . S
C1452 C1446 1.368 . S
C1452 C1451 1.523 . S
C1453 C1437 1.429 . S
C1453 C1449 1.429 . S
C1453 C1454 1.523 . S
C1454 C1438 1.368 . S
C1454 C1450 1.368 . S
C1454 C1453 1.523 . S
H1455 C1430 0.950 . S
H1456 C1432 0.950 . S
H1457 C1433 0.949 . S
H1458 C1435 0.950 . S
H1459 C1437 0.950 . S
C1460 C1461 1.349 . S
C1460 C1462 1.327 . S
C1460 H1485 0.950 . S
C1461 C1460 1.349 . S
C1461 C1477 1.349 . S
C1462 C1460 1.327 . S
C1462 C1481 1.429 . S
C1462 H1486 0.950 . S
C1463 C1480 1.574 . S
C1463 C1482 1.368 . S
C1463 H1487 0.949 . S
H1464 C1468 0.949 . S
C1465 C1466 1.349 . S
C1465 C1467 1.327 . S
C1465 H1488 0.950 . S
C1466 C1465 1.349 . S
C1466 C1478 1.349 . S
C1467 C1465 1.327 . S
C1467 C1483 1.429 . S
C1467 H1489 0.950 . S
C1468 H1464 0.949 . S
C1468 C1476 1.574 . S
C1468 C1484 1.368 . S
H1469 C1477 0.950 . S
H1470 C1475 0.950 . S
H1471 C1476 0.949 . S
H1472 C1478 0.950 . S
H1473 C1479 0.950 . S
H1474 C1480 0.949 . S
C1475 H1470 0.950 . S
C1475 C1477 1.327 . S
C1475 C1481 1.429 . S
C1476 C1468 1.574 . S
C1476 H1471 0.949 . S
C1476 C1482 1.368 . S
C1477 C1461 1.349 . S
C1477 H1469 0.950 . S
C1477 C1475 1.327 . S
C1478 C1466 1.349 . S
C1478 H1472 0.950 . S
C1478 C1479 1.327 . S
C1479 H1473 0.950 . S
C1479 C1478 1.327 . S
C1479 C1483 1.429 . S
C1480 C1463 1.574 . S
C1480 H1474 0.949 . S
C1480 C1484 1.368 . S
C1481 C1462 1.429 . S
C1481 C1475 1.429 . S
C1481 C1482 1.523 . S
C1482 C1463 1.368 . S
C1482 C1476 1.368 . S
C1482 C1481 1.523 . S
C1483 C1467 1.429 . S
C1483 C1479 1.429 . S
C1483 C1484 1.523 . S
C1484 C1468 1.368 . S
C1484 C1480 1.368 . S
C1484 C1483 1.523 . S
H1485 C1460 0.950 . S
H1486 C1462 0.950 . S
H1487 C1463 0.949 . S
H1488 C1465 0.950 . S
H1489 C1467 0.950 . S
C1490 C1491 1.349 . S
C1490 C1492 1.327 . S
C1490 H1515 0.950 . S
C1491 C1490 1.349 . S
C1491 C1507 1.349 . S
C1492 C1490 1.327 . S
C1492 C1511 1.429 . S
C1492 H1516 0.950 . S
C1493 C1510 1.574 . S
C1493 C1512 1.368 . S
C1493 H1517 0.949 . S
H1494 C1498 0.949 . S
C1495 C1496 1.349 . S
C1495 C1497 1.327 . S
C1495 H1518 0.950 . S
C1496 C1495 1.349 . S
C1496 C1508 1.349 . S
C1497 C1495 1.327 . S
C1497 C1513 1.429 . S
C1497 H1519 0.950 . S
C1498 H1494 0.949 . S
C1498 C1506 1.574 . S
C1498 C1514 1.368 . S
H1499 C1507 0.950 . S
H1500 C1505 0.950 . S
H1501 C1506 0.949 . S
H1502 C1508 0.950 . S
H1503 C1509 0.950 . S
H1504 C1510 0.949 . S
C1505 H1500 0.950 . S
C1505 C1507 1.327 . S
C1505 C1511 1.429 . S
C1506 C1498 1.574 . S
C1506 H1501 0.949 . S
C1506 C1512 1.368 . S
C1507 C1491 1.349 . S
C1507 H1499 0.950 . S
C1507 C1505 1.327 . S
C1508 C1496 1.349 . S
C1508 H1502 0.950 . S
C1508 C1509 1.327 . S
C1509 H1503 0.950 . S
C1509 C1508 1.327 . S
C1509 C1513 1.429 . S
C1510 C1493 1.574 . S
C1510 H1504 0.949 . S
C1510 C1514 1.368 . S
C1511 C1492 1.429 . S
C1511 C1505 1.429 . S
C1511 C1512 1.523 . S
C1512 C1493 1.368 . S
C1512 C1506 1.368 . S
C1512 C1511 1.523 . S
C1513 C1497 1.429 . S
C1513 C1509 1.429 . S
C1513 C1514 1.523 . S
C1514 C1498 1.368 . S
C1514 C1510 1.368 . S
C1514 C1513 1.523 . S
H1515 C1490 0.950 . S
H1516 C1492 0.950 . S
H1517 C1493 0.949 . S
H1518 C1495 0.950 . S
H1519 C1497 0.950 . S
C1520 C1521 1.349 . S
C1520 C1522 1.327 . S
C1520 H1545 0.950 . S
C1521 C1520 1.349 . S
C1521 C1537 1.349 . S
C1522 C1520 1.327 . S
C1522 C1541 1.429 . S
C1522 H1546 0.950 . S
C1523 C1540 1.574 . S
C1523 C1542 1.368 . S
C1523 H1547 0.949 . S
H1524 C1528 0.949 . S
C1525 C1526 1.349 . S
C1525 C1527 1.327 . S
C1525 H1548 0.950 . S
C1526 C1525 1.349 . S
C1526 C1538 1.349 . S
C1527 C1525 1.327 . S
C1527 C1543 1.429 . S
C1527 H1549 0.950 . S
C1528 H1524 0.949 . S
C1528 C1536 1.574 . S
C1528 C1544 1.368 . S
H1529 C1537 0.950 . S
H1530 C1535 0.950 . S
H1531 C1536 0.949 . S
H1532 C1538 0.950 . S
H1533 C1539 0.950 . S
H1534 C1540 0.949 . S
C1535 H1530 0.950 . S
C1535 C1537 1.327 . S
C1535 C1541 1.429 . S
C1536 C1528 1.574 . S
C1536 H1531 0.949 . S
C1536 C1542 1.368 . S
C1537 C1521 1.349 . S
C1537 H1529 0.950 . S
C1537 C1535 1.327 . S
C1538 C1526 1.349 . S
C1538 H1532 0.950 . S
C1538 C1539 1.327 . S
C1539 H1533 0.950 . S
C1539 C1538 1.327 . S
C1539 C1543 1.429 . S
C1540 C1523 1.574 . S
C1540 H1534 0.949 . S
C1540 C1544 1.368 . S
C1541 C1522 1.429 . S
C1541 C1535 1.429 . S
C1541 C1542 1.523 . S
C1542 C1523 1.368 . S
C1542 C1536 1.368 . S
C1542 C1541 1.523 . S
C1543 C1527 1.429 . S
C1543 C1539 1.429 . S
C1543 C1544 1.523 . S
C1544 C1528 1.368 . S
C1544 C1540 1.368 . S
C1544 C1543 1.523 . S
H1545 C1520 0.950 . S
H1546 C1522 0.950 . S
H1547 C1523 0.949 . S
H1548 C1525 0.950 . S
H1549 C1527 0.950 . S
C1550 C1551 1.349 . S
C1550 C1552 1.327 . S
C1550 H1575 0.950 . S
C1551 C1550 1.349 . S
C1551 C1567 1.349 . S
C1552 C1550 1.327 . S
C1552 C1571 1.429 . S
C1552 H1576 0.950 . S
C1553 C1570 1.574 . S
C1553 C1572 1.368 . S
C1553 H1577 0.949 . S
H1554 C1558 0.949 . S
C1555 C1556 1.349 1_565 S
C1555 C1557 1.327 . S
C1555 H1578 0.950 . S
C1556 C1555 1.349 1_545 S
C1556 C1568 1.349 . S
C1557 C1555 1.327 . S
C1557 C1573 1.429 . S
C1557 H1579 0.950 . S
C1558 H1554 0.949 . S
C1558 C1566 1.574 . S
C1558 C1574 1.368 . S
H1559 C1567 0.950 . S
H1560 C1565 0.950 . S
H1561 C1566 0.949 . S
H1562 C1568 0.950 . S
H1563 C1569 0.950 . S
H1564 C1570 0.949 . S
C1565 H1560 0.950 . S
C1565 C1567 1.327 . S
C1565 C1571 1.429 . S
C1566 C1558 1.574 . S
C1566 H1561 0.949 . S
C1566 C1572 1.368 . S
C1567 C1551 1.349 . S
C1567 H1559 0.950 . S
C1567 C1565 1.327 . S
C1568 C1556 1.349 . S
C1568 H1562 0.950 . S
C1568 C1569 1.327 . S
C1569 H1563 0.950 . S
C1569 C1568 1.327 . S
C1569 C1573 1.429 1_545 S
C1570 C1553 1.574 . S
C1570 H1564 0.949 . S
C1570 C1574 1.368 . S
C1571 C1552 1.429 . S
C1571 C1565 1.429 . S
C1571 C1572 1.523 . S
C1572 C1553 1.368 . S
C1572 C1566 1.368 . S
C1572 C1571 1.523 . S
C1573 C1557 1.429 . S
C1573 C1569 1.429 1_565 S
C1573 C1574 1.523 . S
C1574 C1558 1.368 . S
C1574 C1570 1.368 . S
C1574 C1573 1.523 . S
H1575 C1550 0.950 . S
H1576 C1552 0.950 . S
H1577 C1553 0.949 . S
H1578 C1555 0.950 . S
H1579 C1557 0.950 . S
C1580 C1581 1.349 . S
C1580 C1582 1.327 . S
C1580 H1605 0.950 . S
C1581 C1580 1.349 . S
C1581 C1597 1.349 . S
C1582 C1580 1.327 . S
C1582 C1601 1.429 . S
C1582 H1606 0.950 . S
C1583 C1600 1.574 . S
C1583 C1602 1.368 . S
C1583 H1607 0.949 . S
H1584 C1588 0.949 . S
C1585 C1586 1.349 1_556 S
C1585 C1587 1.327 . S
C1585 H1608 0.950 . S
C1586 C1585 1.349 1_554 S
C1586 C1598 1.349 . S
C1587 C1585 1.327 . S
C1587 C1603 1.429 . S
C1587 H1609 0.950 . S
C1588 H1584 0.949 . S
C1588 C1596 1.574 . S
C1588 C1604 1.368 . S
H1589 C1597 0.950 . S
H1590 C1595 0.950 . S
H1591 C1596 0.949 . S
H1592 C1598 0.950 . S
H1593 C1599 0.950 . S
H1594 C1600 0.949 . S
C1595 H1590 0.950 . S
C1595 C1597 1.327 . S
C1595 C1601 1.429 . S
C1596 C1588 1.574 . S
C1596 H1591 0.949 . S
C1596 C1602 1.368 . S
C1597 C1581 1.349 . S
C1597 H1589 0.950 . S
C1597 C1595 1.327 . S
C1598 C1586 1.349 . S
C1598 H1592 0.950 . S
C1598 C1599 1.327 1_554 S
C1599 H1593 0.950 . S
C1599 C1598 1.327 1_556 S
C1599 C1603 1.429 . S
C1600 C1583 1.574 . S
C1600 H1594 0.949 . S
C1600 C1604 1.368 . S
C1601 C1582 1.429 . S
C1601 C1595 1.429 . S
C1601 C1602 1.523 . S
C1602 C1583 1.368 . S
C1602 C1596 1.368 . S
C1602 C1601 1.523 . S
C1603 C1587 1.429 . S
C1603 C1599 1.429 . S
C1603 C1604 1.523 . S
C1604 C1588 1.368 . S
C1604 C1600 1.368 . S
C1604 C1603 1.523 . S
H1605 C1580 0.950 . S
H1606 C1582 0.950 . S
H1607 C1583 0.949 . S
H1608 C1585 0.950 . S
H1609 C1587 0.950 . S
C1610 C1611 1.349 1_545 S
C1610 C1612 1.327 . S
C1610 H1635 0.950 . S
C1611 C1610 1.349 1_565 S
C1611 C1627 1.349 . S
C1612 C1610 1.327 . S
C1612 C1631 1.429 . S
C1612 H1636 0.950 . S
C1613 C1630 1.574 . S
C1613 C1632 1.368 . S
C1613 H1637 0.949 1_545 S
H1614 C1618 0.949 . S
C1615 C1616 1.349 . S
C1615 C1617 1.327 . S
C1615 H1638 0.950 . S
C1616 C1615 1.349 . S
C1616 C1628 1.349 . S
C1617 C1615 1.327 . S
C1617 C1633 1.429 . S
C1617 H1639 0.950 . S
C1618 H1614 0.949 . S
C1618 C1626 1.574 . S
C1618 C1634 1.368 . S
H1619 C1627 0.950 . S
H1620 C1625 0.950 . S
H1621 C1626 0.949 . S
H1622 C1628 0.950 . S
H1623 C1629 0.950 . S
H1624 C1630 0.949 . S
C1625 H1620 0.950 . S
C1625 C1627 1.327 . S
C1625 C1631 1.429 1_565 S
C1626 C1618 1.574 . S
C1626 H1621 0.949 . S
C1626 C1632 1.368 . S
C1627 C1611 1.349 . S
C1627 H1619 0.950 . S
C1627 C1625 1.327 . S
C1628 C1616 1.349 . S
C1628 H1622 0.950 . S
C1628 C1629 1.327 . S
C1629 H1623 0.950 . S
C1629 C1628 1.327 . S
C1629 C1633 1.429 . S
C1630 C1613 1.574 . S
C1630 H1624 0.949 . S
C1630 C1634 1.368 . S
C1631 C1612 1.429 . S
C1631 C1625 1.429 1_545 S
C1631 C1632 1.523 . S
C1632 C1613 1.368 . S
C1632 C1626 1.368 . S
C1632 C1631 1.523 . S
C1633 C1617 1.429 . S
C1633 C1629 1.429 . S
C1633 C1634 1.523 . S
C1634 C1618 1.368 . S
C1634 C1630 1.368 . S
C1634 C1633 1.523 . S
H1635 C1610 0.950 . S
H1636 C1612 0.950 . S
H1637 C1613 0.949 1_565 S
H1638 C1615 0.950 . S
H1639 C1617 0.950 . S
C1640 C1641 1.349 . S
C1640 C1642 1.327 . S
C1640 H1665 0.950 . S
C1641 C1640 1.349 . S
C1641 C1657 1.349 . S
C1642 C1640 1.327 . S
C1642 C1661 1.429 . S
C1642 H1666 0.950 . S
C1643 C1660 1.574 . S
C1643 C1662 1.368 . S
C1643 H1667 0.949 . S
H1644 C1648 0.949 . S
C1645 C1646 1.349 . S
C1645 C1647 1.327 . S
C1645 H1668 0.950 . S
C1646 C1645 1.349 . S
C1646 C1658 1.349 . S
C1647 C1645 1.327 . S
C1647 C1663 1.429 . S
C1647 H1669 0.950 . S
C1648 H1644 0.949 . S
C1648 C1656 1.574 . S
C1648 C1664 1.368 . S
H1649 C1657 0.950 . S
H1650 C1655 0.950 . S
H1651 C1656 0.949 . S
H1652 C1658 0.950 . S
H1653 C1659 0.950 . S
H1654 C1660 0.949 . S
C1655 H1650 0.950 . S
C1655 C1657 1.327 . S
C1655 C1661 1.429 . S
C1656 C1648 1.574 . S
C1656 H1651 0.949 . S
C1656 C1662 1.368 . S
C1657 C1641 1.349 . S
C1657 H1649 0.950 . S
C1657 C1655 1.327 . S
C1658 C1646 1.349 . S
C1658 H1652 0.950 . S
C1658 C1659 1.327 . S
C1659 H1653 0.950 . S
C1659 C1658 1.327 . S
C1659 C1663 1.429 . S
C1660 C1643 1.574 . S
C1660 H1654 0.949 . S
C1660 C1664 1.368 . S
C1661 C1642 1.429 . S
C1661 C1655 1.429 . S
C1661 C1662 1.523 . S
C1662 C1643 1.368 . S
C1662 C1656 1.368 . S
C1662 C1661 1.523 . S
C1663 C1647 1.429 . S
C1663 C1659 1.429 . S
C1663 C1664 1.523 . S
C1664 C1648 1.368 . S
C1664 C1660 1.368 . S
C1664 C1663 1.523 . S
H1665 C1640 0.950 . S
H1666 C1642 0.950 . S
H1667 C1643 0.949 . S
H1668 C1645 0.950 . S
H1669 C1647 0.950 . S
C1670 C1671 1.349 . S
C1670 C1672 1.327 . S
C1670 H1695 0.950 . S
C1671 C1670 1.349 . S
C1671 C1687 1.349 . S
C1672 C1670 1.327 . S
C1672 C1691 1.429 . S
C1672 H1696 0.950 . S
C1673 C1690 1.574 . S
C1673 C1692 1.368 . S
C1673 H1697 0.949 . S
H1674 C1678 0.949 1_565 S
C1675 C1676 1.349 1_545 S
C1675 C1677 1.327 . S
C1675 H1698 0.950 . S
C1676 C1675 1.349 1_565 S
C1676 C1688 1.349 . S
C1677 C1675 1.327 . S
C1677 C1693 1.429 . S
C1677 H1699 0.950 . S
C1678 H1674 0.949 1_545 S
C1678 C1686 1.574 . S
C1678 C1694 1.368 . S
H1679 C1687 0.950 . S
H1680 C1685 0.950 . S
H1681 C1686 0.949 . S
H1682 C1688 0.950 . S
H1683 C1689 0.950 . S
H1684 C1690 0.949 . S
C1685 H1680 0.950 . S
C1685 C1687 1.327 . S
C1685 C1691 1.429 . S
C1686 C1678 1.574 . S
C1686 H1681 0.949 . S
C1686 C1692 1.368 . S
C1687 C1671 1.349 . S
C1687 H1679 0.950 . S
C1687 C1685 1.327 . S
C1688 C1676 1.349 . S
C1688 H1682 0.950 . S
C1688 C1689 1.327 . S
C1689 H1683 0.950 . S
C1689 C1688 1.327 . S
C1689 C1693 1.429 1_565 S
C1690 C1673 1.574 . S
C1690 H1684 0.949 . S
C1690 C1694 1.368 . S
C1691 C1672 1.429 . S
C1691 C1685 1.429 . S
C1691 C1692 1.523 . S
C1692 C1673 1.368 . S
C1692 C1686 1.368 . S
C1692 C1691 1.523 . S
C1693 C1677 1.429 . S
C1693 C1689 1.429 1_545 S
C1693 C1694 1.523 . S
C1694 C1678 1.368 . S
C1694 C1690 1.368 . S
C1694 C1693 1.523 . S
H1695 C1670 0.950 . S
H1696 C1672 0.950 . S
H1697 C1673 0.949 . S
H1698 C1675 0.950 . S
H1699 C1677 0.950 . S
C1700 C1701 1.349 . S
C1700 C1702 1.327 . S
C1700 H1725 0.950 . S
C1701 C1700 1.349 . S
C1701 C1717 1.349 . S
C1702 C1700 1.327 . S
C1702 C1721 1.429 . S
C1702 H1726 0.950 . S
C1703 C1720 1.574 . S
C1703 C1722 1.368 . S
C1703 H1727 0.949 . S
H1704 C1708 0.949 . S
C1705 C1706 1.349 1_554 S
C1705 C1707 1.327 . S
C1705 H1728 0.950 . S
C1706 C1705 1.349 1_556 S
C1706 C1718 1.349 . S
C1707 C1705 1.327 . S
C1707 C1723 1.429 . S
C1707 H1729 0.950 . S
C1708 H1704 0.949 . S
C1708 C1716 1.574 . S
C1708 C1724 1.368 . S
H1709 C1717 0.950 . S
H1710 C1715 0.950 . S
H1711 C1716 0.949 . S
H1712 C1718 0.950 . S
H1713 C1719 0.950 . S
H1714 C1720 0.949 . S
C1715 H1710 0.950 . S
C1715 C1717 1.327 . S
C1715 C1721 1.429 . S
C1716 C1708 1.574 . S
C1716 H1711 0.949 . S
C1716 C1722 1.368 . S
C1717 C1701 1.349 . S
C1717 H1709 0.950 . S
C1717 C1715 1.327 . S
C1718 C1706 1.349 . S
C1718 H1712 0.950 . S
C1718 C1719 1.327 1_556 S
C1719 H1713 0.950 . S
C1719 C1718 1.327 1_554 S
C1719 C1723 1.429 . S
C1720 C1703 1.574 . S
C1720 H1714 0.949 . S
C1720 C1724 1.368 . S
C1721 C1702 1.429 . S
C1721 C1715 1.429 . S
C1721 C1722 1.523 . S
C1722 C1703 1.368 . S
C1722 C1716 1.368 . S
C1722 C1721 1.523 . S
C1723 C1707 1.429 . S
C1723 C1719 1.429 . S
C1723 C1724 1.523 . S
C1724 C1708 1.368 . S
C1724 C1720 1.368 . S
C1724 C1723 1.523 . S
H1725 C1700 0.950 . S
H1726 C1702 0.950 . S
H1727 C1703 0.949 . S
H1728 C1705 0.950 . S
H1729 C1707 0.950 . S
C1730 C1731 1.349 . S
C1730 C1732 1.327 . S
C1730 H1755 0.950 . S
C1731 C1730 1.349 . S
C1731 C1747 1.349 . S
C1732 C1730 1.327 . S
C1732 C1751 1.429 . S
C1732 H1756 0.950 . S
C1733 C1750 1.574 . S
C1733 C1752 1.368 . S
C1733 H1757 0.949 . S
H1734 C1738 0.949 1_545 S
C1735 C1736 1.349 1_565 S
C1735 C1737 1.327 . S
C1735 H1758 0.950 . S
C1736 C1735 1.349 1_545 S
C1736 C1748 1.349 . S
C1737 C1735 1.327 . S
C1737 C1753 1.429 . S
C1737 H1759 0.950 . S
C1738 H1734 0.949 1_565 S
C1738 C1746 1.574 . S
C1738 C1754 1.368 . S
H1739 C1747 0.950 . S
H1740 C1745 0.950 . S
H1741 C1746 0.949 . S
H1742 C1748 0.950 . S
H1743 C1749 0.950 . S
H1744 C1750 0.949 . S
C1745 H1740 0.950 . S
C1745 C1747 1.327 . S
C1745 C1751 1.429 . S
C1746 C1738 1.574 . S
C1746 H1741 0.949 . S
C1746 C1752 1.368 . S
C1747 C1731 1.349 . S
C1747 H1739 0.950 . S
C1747 C1745 1.327 . S
C1748 C1736 1.349 . S
C1748 H1742 0.950 . S
C1748 C1749 1.327 . S
C1749 H1743 0.950 . S
C1749 C1748 1.327 . S
C1749 C1753 1.429 1_545 S
C1750 C1733 1.574 . S
C1750 H1744 0.949 . S
C1750 C1754 1.368 . S
C1751 C1732 1.429 . S
C1751 C1745 1.429 . S
C1751 C1752 1.523 . S
C1752 C1733 1.368 . S
C1752 C1746 1.368 . S
C1752 C1751 1.523 . S
C1753 C1737 1.429 . S
C1753 C1749 1.429 1_565 S
C1753 C1754 1.523 . S
C1754 C1738 1.368 . S
C1754 C1750 1.368 . S
C1754 C1753 1.523 . S
H1755 C1730 0.950 . S
H1756 C1732 0.950 . S
H1757 C1733 0.949 . S
H1758 C1735 0.950 . S
H1759 C1737 0.950 . S
C321 C1 0.377 . S
C326 C201 0.377 . S
C351 C21 0.377 . S
C356 C221 0.377 . S
C381 C41 0.377 . S
C386 C161 0.377 . S
C411 C181 0.377 . S
C416 C61 0.377 . S
C441 C89 0.377 . S
C446 C289 0.377 . S
C471 C309 0.377 . S
C476 C109 0.377 . S
C501 C249 0.377 . S
C506 C129 0.377 . S
C531 C149 0.377 . S
C536 C269 0.377 . S
C561 C19 2.380 . S
C566 C88 2.380 . S
C591 C39 2.380 . S
C596 C268 2.380 . S
C621 C59 2.380 . S
C626 C128 2.380 . S
C651 C79 2.380 . S
C656 C308 2.380 . S
C681 C108 2.380 . S
C686 C199 2.380 . S
C711 C239 2.380 . S
C716 C148 2.380 . S
C741 C248 2.380 . S
C746 C179 2.380 . S
C771 C219 2.380 . S
C776 C288 2.380 . S
C801 C8 1.152 . S
C806 C141 1.240 . S
C831 C28 1.152 . S
C836 C241 1.240 . S
C861 C48 1.152 . S
C866 C101 1.240 . S
C891 C68 1.152 . S
C896 C281 1.240 . S
C921 C69 1.240 . S
C926 C99 1.152 . S
C951 C119 1.152 . S
C956 C169 1.240 . S
C981 C139 1.152 . S
C986 C29 1.240 . S
C1011 C209 1.240 . S
C1016 C159 1.152 . S
C1041 C168 1.152 . S
C1046 C301 1.240 . S
C1071 C81 1.240 . S
C1076 C188 1.152 . S
C1101 C261 1.240 . S
C1106 C208 1.152 . S
C1131 C121 1.240 . S
C1136 C228 1.152 . S
C1161 C259 1.152 . S
C1166 C229 1.240 . S
C1191 C279 1.152 . S
C1196 C9 1.240 . S
C1221 C189 1.240 . S
C1226 C299 1.152 . S
C1251 C319 1.152 . S
C1256 C49 1.240 . S
C1281 C6 1.773 . S
C1286 C196 1.723 . S
C1311 C216 1.723 . S
C1316 C26 1.773 . S
C1341 C46 1.773 . S
C1346 C236 1.723 . S
C1371 C176 1.723 . S
C1376 C66 1.773 . S
C1401 C266 1.723 . S
C1406 C96 1.773 . S
C1431 C286 1.723 . S
C1436 C116 1.773 . S
C1461 C306 1.723 . S
C1466 C136 1.773 . S
C1491 C246 1.723 . S
C1496 C156 1.773 . S
C1521 C36 1.723 . S
C1526 C166 1.773 . S
C1551 C56 1.723 . S
C1556 C186 1.773 . S
C1581 C76 1.723 . S
C1586 C206 1.773 . S
C1611 C226 1.773 . S
C1616 C16 1.723 . S
C1641 C106 1.723 . S
C1646 C256 1.773 . S
C1671 C126 1.723 . S
C1676 C276 1.773 . S
C1701 C146 1.723 . S
C1706 C296 1.773 . S
C1731 C86 1.723 . S
C1736 C316 1.773 . S
