# Generated by pormake.
# Topology ukb, (4)-cn, num edge types: 1
# Building blocks:
#     Node 0, Type 0, BuildingBlock: UXUYUI_clean_sbu_0, # of connection points: 4
#     Node 1, Type 0, BuildingBlock: UXUYUI_clean_sbu_0, # of connection points: 4
#     Node 2, Type 0, BuildingBlock: UXUYUI_clean_sbu_0, # of connection points: 4
#     Node 3, Type 0, BuildingBlock: UXUYUI_clean_sbu_0, # of connection points: 4
#     Node 4, Type 0, BuildingBlock: UXUYUI_clean_sbu_0, # of connection points: 4
#     Node 5, Type 0, BuildingBlock: UXUYUI_clean_sbu_0, # of connection points: 4
#     Node 6, Type 0, BuildingBlock: UXUYUI_clean_sbu_0, # of connection points: 4
#     Node 7, Type 0, BuildingBlock: UXUYUI_clean_sbu_0, # of connection points: 4
#     Node 8, Type 0, BuildingBlock: UXUYUI_clean_sbu_0, # of connection points: 4
#     Node 9, Type 0, BuildingBlock: UXUYUI_clean_sbu_0, # of connection points: 4
#     Node 10, Type 0, BuildingBlock: UXUYUI_clean_sbu_0, # of connection points: 4
#     Node 11, Type 0, BuildingBlock: UXUYUI_clean_sbu_0, # of connection points: 4
#     Node 12, Type 0, BuildingBlock: UXUYUI_clean_sbu_0, # of connection points: 4
#     Node 13, Type 0, BuildingBlock: UXUYUI_clean_sbu_0, # of connection points: 4
#     Node 14, Type 0, BuildingBlock: UXUYUI_clean_sbu_0, # of connection points: 4
#     Node 15, Type 0, BuildingBlock: UXUYUI_clean_sbu_0, # of connection points: 4
#     Edge 16, Type (0, 0), BuildingBlock: TEMPAE_clean_linker_10, # of connection points: 2
#     Edge 17, Type (0, 0), BuildingBlock: TEMPAE_clean_linker_10, # of connection points: 2
#     Edge 18, Type (0, 0), BuildingBlock: TEMPAE_clean_linker_10, # of connection points: 2
#     Edge 19, Type (0, 0), BuildingBlock: TEMPAE_clean_linker_10, # of connection points: 2
#     Edge 20, Type (0, 0), BuildingBlock: TEMPAE_clean_linker_10, # of connection points: 2
#     Edge 21, Type (0, 0), BuildingBlock: TEMPAE_clean_linker_10, # of connection points: 2
#     Edge 22, Type (0, 0), BuildingBlock: TEMPAE_clean_linker_10, # of connection points: 2
#     Edge 23, Type (0, 0), BuildingBlock: TEMPAE_clean_linker_10, # of connection points: 2
#     Edge 24, Type (0, 0), BuildingBlock: TEMPAE_clean_linker_10, # of connection points: 2
#     Edge 25, Type (0, 0), BuildingBlock: TEMPAE_clean_linker_10, # of connection points: 2
#     Edge 26, Type (0, 0), BuildingBlock: TEMPAE_clean_linker_10, # of connection points: 2
#     Edge 27, Type (0, 0), BuildingBlock: TEMPAE_clean_linker_10, # of connection points: 2
#     Edge 28, Type (0, 0), BuildingBlock: TEMPAE_clean_linker_10, # of connection points: 2
#     Edge 29, Type (0, 0), BuildingBlock: TEMPAE_clean_linker_10, # of connection points: 2
#     Edge 30, Type (0, 0), BuildingBlock: TEMPAE_clean_linker_10, # of connection points: 2
#     Edge 31, Type (0, 0), BuildingBlock: TEMPAE_clean_linker_10, # of connection points: 2
#     Edge 32, Type (0, 0), BuildingBlock: TEMPAE_clean_linker_10, # of connection points: 2
#     Edge 33, Type (0, 0), BuildingBlock: TEMPAE_clean_linker_10, # of connection points: 2
#     Edge 34, Type (0, 0), BuildingBlock: TEMPAE_clean_linker_10, # of connection points: 2
#     Edge 35, Type (0, 0), BuildingBlock: TEMPAE_clean_linker_10, # of connection points: 2
#     Edge 36, Type (0, 0), BuildingBlock: TEMPAE_clean_linker_10, # of connection points: 2
#     Edge 37, Type (0, 0), BuildingBlock: TEMPAE_clean_linker_10, # of connection points: 2
#     Edge 38, Type (0, 0), BuildingBlock: TEMPAE_clean_linker_10, # of connection points: 2
#     Edge 39, Type (0, 0), BuildingBlock: TEMPAE_clean_linker_10, # of connection points: 2
#     Edge 40, Type (0, 0), BuildingBlock: TEMPAE_clean_linker_10, # of connection points: 2
#     Edge 41, Type (0, 0), BuildingBlock: TEMPAE_clean_linker_10, # of connection points: 2
#     Edge 42, Type (0, 0), BuildingBlock: TEMPAE_clean_linker_10, # of connection points: 2
#     Edge 43, Type (0, 0), BuildingBlock: TEMPAE_clean_linker_10, # of connection points: 2
#     Edge 44, Type (0, 0), BuildingBlock: TEMPAE_clean_linker_10, # of connection points: 2
#     Edge 45, Type (0, 0), BuildingBlock: TEMPAE_clean_linker_10, # of connection points: 2
#     Edge 46, Type (0, 0), BuildingBlock: TEMPAE_clean_linker_10, # of connection points: 2
#     Edge 47, Type (0, 0), BuildingBlock: TEMPAE_clean_linker_10, # of connection points: 2
# Relax obj value: 0.234
# Max RMSD: 0.198
# Mean RMSD: 0.198
data_MOF--net-ukb--node1-UXUYUI_clean_sbu_0--edge1-TEMPAE_clean_linker_10
_symmetry_space_group_name_H-M    P1
_symmetry_Int_Tables_number       1
_symmetry_cell_setting            triclinic
loop_
_symmetry_equiv_pos_as_xyz
'x, y, z'
_cell_length_a     61.353821
_cell_length_b     61.357548
_cell_length_c     58.892176
_cell_angle_alpha  90.004128
_cell_angle_beta   89.994889
_cell_angle_gamma 89.9982
loop_
_atom_site_label
_atom_site_type_symbol
_atom_site_fract_x
_atom_site_fract_y
_atom_site_fract_z
_atom_type_partial_charge
Li0 Li 0.50733 0.22644 0.16476 0.0
Li1 Li 0.51267 0.24378 0.2026 0.0
Li2 Li 0.52436 0.20497 0.19556 0.0
Li3 Li 0.48723 0.21502 0.19713 0.0
C4 C 0.54789 0.24926 0.17395 0.0
N5 N 0.57298 0.28443 0.16072 0.0
C6 C 0.53833 0.26678 0.1625 0.0
C7 C 0.5702 0.24962 0.17866 0.0
C8 C 0.55129 0.2844 0.15595 0.0
C9 C 0.58261 0.26755 0.17184 0.0
C10 C 0.4661 0.25205 0.18686 0.0
C11 C 0.44122 0.27537 0.2073 0.0
N12 N 0.42437 0.26724 0.19491 0.0
C13 C 0.44851 0.24391 0.17436 0.0
C14 C 0.46241 0.26787 0.20352 0.0
C15 C 0.42755 0.25179 0.17869 0.0
C16 C 0.4882 0.23211 0.12166 0.0
N17 N 0.50761 0.23081 0.13265 0.0
C18 C 0.52689 0.23471 0.0976 0.0
C19 C 0.52679 0.23181 0.12112 0.0
C20 C 0.50704 0.23633 0.0858 0.0
C21 C 0.48751 0.23488 0.09816 0.0
H22 H 0.47321 0.23079 0.13111 0.0
H23 H 0.54206 0.2303 0.13014 0.0
C24 C 0.5345 0.26699 0.23638 0.0
N25 N 0.52198 0.26953 0.21755 0.0
C26 C 0.54438 0.28502 0.24651 0.0
C27 C 0.52789 0.30802 0.21793 0.0
C28 C 0.51827 0.28953 0.20839 0.0
C29 C 0.54145 0.30583 0.23703 0.0
H30 H 0.53745 0.25082 0.24302 0.0
H31 H 0.50841 0.29104 0.19325 0.0
C32 C 0.50955 0.18251 0.15782 0.0
N33 N 0.52657 0.15549 0.12468 0.0
C34 C 0.4965 0.16655 0.14773 0.0
C35 C 0.53126 0.18479 0.15093 0.0
C36 C 0.5054 0.15303 0.13105 0.0
C37 C 0.53955 0.17096 0.13419 0.0
C38 C 0.49729 0.21191 0.24019 0.0
C39 C 0.49492 0.18989 0.24571 0.0
C40 C 0.487 0.22779 0.25338 0.0
C41 C 0.48191 0.18408 0.26423 0.0
C42 C 0.47419 0.22132 0.27181 0.0
N43 N 0.47191 0.19978 0.27677 0.0
C44 C 0.56452 0.19077 0.21283 0.0
C45 C 0.54108 0.16211 0.20135 0.0
C46 C 0.5804 0.17581 0.21956 0.0
N47 N 0.54543 0.18371 0.20378 0.0
C48 C 0.55659 0.14658 0.20764 0.0
C49 C 0.5766 0.15334 0.2169 0.0
H50 H 0.56727 0.20804 0.21507 0.0
H51 H 0.52557 0.15692 0.19453 0.0
C52 C 0.44488 0.21337 0.21976 0.0
N53 N 0.46011 0.20259 0.20722 0.0
C54 C 0.42618 0.20256 0.22732 0.0
C55 C 0.43968 0.16954 0.20991 0.0
C56 C 0.45783 0.18106 0.20231 0.0
C57 C 0.42363 0.18034 0.22253 0.0
H58 H 0.44739 0.23019 0.22439 0.0
H59 H 0.47041 0.17265 0.19297 0.0
O60 O 0.53541 0.23205 0.18097 0.0
O61 O 0.48683 0.24489 0.18259 0.0
O62 O 0.50083 0.19603 0.17396 0.0
O63 O 0.50946 0.21788 0.2218 0.0
H64 H 0.52104 0.26686 0.15889 0.0
H65 H 0.57786 0.23621 0.18753 0.0
H66 H 0.54409 0.2981 0.14715 0.0
H67 H 0.5999 0.26806 0.1754 0.0
H68 H 0.43815 0.28758 0.22017 0.0
H69 H 0.4509 0.23131 0.1618 0.0
H70 H 0.4757 0.27417 0.21361 0.0
H71 H 0.4138 0.24554 0.16922 0.0
H72 H 0.54235 0.23589 0.08882 0.0
H73 H 0.47184 0.23557 0.08975 0.0
H74 H 0.55496 0.28255 0.261 0.0
H75 H 0.52509 0.32378 0.2102 0.0
H76 H 0.47961 0.16468 0.15267 0.0
H77 H 0.54166 0.19706 0.15837 0.0
H78 H 0.49547 0.14061 0.12313 0.0
H79 H 0.55632 0.17255 0.12874 0.0
H80 H 0.50279 0.17743 0.2356 0.0
H81 H 0.48867 0.2449 0.24925 0.0
H82 H 0.47973 0.16709 0.26859 0.0
H83 H 0.46599 0.23341 0.28209 0.0
H84 H 0.59533 0.18181 0.2271 0.0
H85 H 0.55297 0.12948 0.20509 0.0
H86 H 0.41422 0.21124 0.23738 0.0
H87 H 0.43824 0.15233 0.20607 0.0
Li88 Li 0.29378 0.52654 0.69125 0.0
Li89 Li 0.28526 0.48686 0.69414 0.0
Li90 Li 0.27136 0.50752 0.66157 0.0
Li91 Li 0.25687 0.51257 0.69838 0.0
C92 C 0.3111 0.49545 0.65064 0.0
N93 N 0.32602 0.48161 0.60878 0.0
C94 C 0.3111 0.47327 0.64523 0.0
C95 C 0.31865 0.5106 0.63475 0.0
C96 C 0.31875 0.4666 0.62399 0.0
C97 C 0.32612 0.50328 0.61368 0.0
C98 C 0.29253 0.50071 0.73602 0.0
C99 C 0.2914 0.47638 0.76814 0.0
N100 N 0.31282 0.48055 0.77224 0.0
C101 C 0.31448 0.5049 0.74064 0.0
C102 C 0.28083 0.48647 0.74995 0.0
C103 C 0.32446 0.4945 0.759 0.0
C104 C 0.31026 0.56175 0.71594 0.0
N105 N 0.31465 0.54832 0.69818 0.0
C106 C 0.34925 0.56534 0.69247 0.0
C107 C 0.33372 0.54969 0.68653 0.0
C108 C 0.34511 0.5796 0.71065 0.0
C109 C 0.32529 0.57763 0.72245 0.0
H110 H 0.29522 0.55986 0.7253 0.0
H111 H 0.33697 0.5385 0.67278 0.0
C112 C 0.28707 0.44158 0.70655 0.0
N113 N 0.29844 0.46038 0.70358 0.0
C114 C 0.29787 0.42255 0.71325 0.0
C115 C 0.33171 0.44273 0.71362 0.0
C116 C 0.32033 0.46122 0.70677 0.0
C117 C 0.32054 0.42297 0.71684 0.0
H118 H 0.2697 0.4413 0.70355 0.0
H119 H 0.32895 0.47637 0.70402 0.0
C120 C 0.24939 0.55009 0.67681 0.0
N121 N 0.21441 0.57839 0.67891 0.0
C122 C 0.2324 0.54839 0.66109 0.0
C123 C 0.24867 0.56629 0.69348 0.0
C124 C 0.21487 0.56287 0.66243 0.0
C125 C 0.2308 0.58038 0.69433 0.0
C126 C 0.23566 0.47768 0.68321 0.0
C127 C 0.22027 0.47892 0.66576 0.0
C128 C 0.22983 0.46852 0.70407 0.0
C129 C 0.19917 0.47117 0.66958 0.0
C130 C 0.20855 0.461 0.70723 0.0
N131 N 0.19379 0.46247 0.69007 0.0
C132 C 0.26162 0.48714 0.61974 0.0
C133 C 0.26766 0.52526 0.6176 0.0
C134 C 0.25807 0.4861 0.59635 0.0
N135 N 0.26617 0.50654 0.62982 0.0
C136 C 0.26421 0.52498 0.59418 0.0
C137 C 0.25926 0.50521 0.58326 0.0
H138 H 0.26077 0.47249 0.62992 0.0
H139 H 0.27164 0.54038 0.62607 0.0
C140 C 0.23413 0.52799 0.73659 0.0
N141 N 0.23119 0.5207 0.71501 0.0
C142 C 0.21692 0.53766 0.7484 0.0
C143 C 0.19372 0.53136 0.71591 0.0
C144 C 0.21138 0.5219 0.70472 0.0
C145 C 0.19651 0.53986 0.73785 0.0
H146 H 0.25011 0.52722 0.74429 0.0
H147 H 0.20952 0.51671 0.68734 0.0
O148 O 0.30296 0.50237 0.67103 0.0
O149 O 0.28258 0.51036 0.71783 0.0
O150 O 0.2665 0.53582 0.67603 0.0
O151 O 0.25642 0.48508 0.67975 0.0
H152 H 0.30501 0.46134 0.65717 0.0
H153 H 0.31833 0.52787 0.63846 0.0
H154 H 0.31878 0.44949 0.61955 0.0
H155 H 0.33187 0.51483 0.60116 0.0
H156 H 0.28258 0.46522 0.779 0.0
H157 H 0.32381 0.51581 0.72998 0.0
H158 H 0.26379 0.48321 0.74672 0.0
H159 H 0.34148 0.49746 0.76268 0.0
H160 H 0.36428 0.56635 0.68287 0.0
H161 H 0.32162 0.58797 0.73686 0.0
H162 H 0.28864 0.40764 0.71526 0.0
H163 H 0.34909 0.444 0.71657 0.0
H164 H 0.23255 0.5358 0.64824 0.0
H165 H 0.26162 0.56778 0.70583 0.0
H166 H 0.20154 0.56164 0.65048 0.0
H167 H 0.22993 0.59286 0.70728 0.0
H168 H 0.22446 0.48603 0.64953 0.0
H169 H 0.24156 0.46738 0.71771 0.0
H170 H 0.18705 0.47214 0.65628 0.0
H171 H 0.20378 0.45399 0.72334 0.0
H172 H 0.25416 0.47055 0.58866 0.0
H173 H 0.26568 0.54002 0.58469 0.0
H174 H 0.21972 0.54391 0.76535 0.0
H175 H 0.17839 0.53309 0.70698 0.0
Li176 Li 0.97294 0.30014 0.19329 0.0
Li177 Li 0.01063 0.28727 0.19678 0.0
Li178 Li 0.98875 0.2782 0.16366 0.0
Li179 Li 0.98128 0.26171 0.20075 0.0
C180 C 0.99618 0.32929 0.17141 0.0
N181 N 0.9909 0.37392 0.16825 0.0
C182 C 0.0101 0.34327 0.18328 0.0
C183 C 0.97958 0.33802 0.15792 0.0
C184 C 0.00717 0.36579 0.18144 0.0
C185 C 0.97716 0.36062 0.15657 0.0
C186 C 0.98167 0.28099 0.24126 0.0
C187 C 0.98686 0.25803 0.27407 0.0
N188 N 0.96851 0.26653 0.28352 0.0
C189 C 0.96292 0.28958 0.25135 0.0
C190 C 0.99382 0.26518 0.25275 0.0
C191 C 0.95652 0.28203 0.27272 0.0
C192 C 0.93169 0.31993 0.19452 0.0
N193 N 0.95288 0.32274 0.20047 0.0
C194 C 0.94455 0.35679 0.21818 0.0
C195 C 0.95951 0.34061 0.21225 0.0
C196 C 0.92244 0.3543 0.21239 0.0
C197 C 0.91614 0.33553 0.20036 0.0
H198 H 0.92676 0.30532 0.18567 0.0
H199 H 0.9764 0.34219 0.21722 0.0
C200 C 0.05347 0.30251 0.19071 0.0
N201 N 0.03897 0.29552 0.20656 0.0
C202 C 0.07334 0.31152 0.1974 0.0
C203 C 0.06336 0.30507 0.23655 0.0
C204 C 0.04363 0.29628 0.2291 0.0
C205 C 0.07825 0.31334 0.22062 0.0
H206 H 0.04917 0.30196 0.17291 0.0
H207 H 0.03167 0.29095 0.24135 0.0
C208 C 0.94821 0.26575 0.16164 0.0
N209 N 0.92584 0.24827 0.12523 0.0
C210 C 0.94557 0.24319 0.1598 0.0
C211 C 0.93938 0.27943 0.14504 0.0
C212 C 0.9342 0.23467 0.14125 0.0
C213 C 0.92817 0.27027 0.12673 0.0
C214 C 0.02864 0.252 0.18086 0.0
C215 C 0.04083 0.25573 0.1612 0.0
C216 C 0.03855 0.24252 0.1998 0.0
C217 C 0.06288 0.25004 0.16089 0.0
C218 C 0.06064 0.23709 0.19882 0.0
N219 N 0.07225 0.24094 0.17955 0.0
C220 C 0.98921 0.28954 0.11698 0.0
C221 C 0.98979 0.25162 0.12466 0.0
C222 C 0.98898 0.28558 0.09365 0.0
N223 N 0.98939 0.27265 0.13189 0.0
C224 C 0.98967 0.2469 0.10146 0.0
C225 C 0.98914 0.26402 0.08564 0.0
H226 H 0.98924 0.30609 0.12317 0.0
H227 H 0.99002 0.23852 0.13695 0.0
C228 C 0.95098 0.23886 0.22681 0.0
N229 N 0.97017 0.23655 0.21555 0.0
C230 C 0.94131 0.22099 0.23736 0.0
C231 C 0.97078 0.19838 0.22359 0.0
C232 C 0.98021 0.21686 0.21375 0.0
C233 C 0.95113 0.20045 0.23561 0.0
H234 H 0.94302 0.25457 0.2273 0.0
H235 H 0.99524 0.21544 0.20427 0.0
O236 O 0.99866 0.30717 0.17311 0.0
O237 O 0.98806 0.28797 0.22023 0.0
O238 O 0.95981 0.27437 0.17931 0.0
O239 O 0.00716 0.25787 0.18167 0.0
H240 H 0.02288 0.33687 0.19399 0.0
H241 H 0.96842 0.32747 0.14891 0.0
H242 H 0.01779 0.37679 0.19058 0.0
H243 H 0.9643 0.36759 0.14632 0.0
H244 H 0.99601 0.24569 0.28307 0.0
H245 H 0.9533 0.3018 0.24272 0.0
H246 H 0.00831 0.25827 0.24513 0.0
H247 H 0.94199 0.28846 0.28069 0.0
H248 H 0.95024 0.37102 0.2273 0.0
H249 H 0.89925 0.33256 0.19602 0.0
H250 H 0.08444 0.31763 0.1846 0.0
H251 H 0.06637 0.30647 0.25461 0.0
H252 H 0.9524 0.23235 0.1724 0.0
H253 H 0.94141 0.29691 0.14613 0.0
H254 H 0.93211 0.21724 0.13955 0.0
H255 H 0.92139 0.28065 0.11367 0.0
H256 H 0.03342 0.26317 0.14644 0.0
H257 H 0.02932 0.23955 0.21514 0.0
H258 H 0.07256 0.25293 0.14583 0.0
H259 H 0.06857 0.22985 0.21339 0.0
H260 H 0.98892 0.29924 0.082 0.0
H261 H 0.98966 0.23005 0.09598 0.0
H262 H 0.92592 0.22304 0.24615 0.0
H263 H 0.97862 0.18266 0.22177 0.0
Li264 Li 0.20014 0.97217 0.68997 0.0
Li265 Li 0.21113 0.00937 0.69584 0.0
Li266 Li 0.22284 0.99042 0.66198 0.0
Li267 Li 0.23776 0.98095 0.69822 0.0
C268 C 0.17168 0.0051 0.67283 0.0
N269 N 0.12946 0.0203 0.67679 0.0
C270 C 0.15987 0.00147 0.69277 0.0
C271 C 0.162 0.01641 0.65489 0.0
C272 C 0.13856 0.0093 0.69445 0.0
C273 C 0.14063 0.02397 0.65721 0.0
C274 C 0.21887 0.99205 0.73894 0.0
C275 C 0.24037 0.01605 0.76239 0.0
N276 N 0.23252 0.00594 0.78124 0.0
C277 C 0.21101 0.9819 0.75853 0.0
C278 C 0.23366 0.00928 0.74085 0.0
C279 C 0.2181 0.98915 0.77977 0.0
C280 C 0.18301 0.93778 0.71392 0.0
N281 N 0.17855 0.95078 0.69587 0.0
C282 C 0.14438 0.93293 0.69007 0.0
C283 C 0.15985 0.94851 0.6837 0.0
C284 C 0.14836 0.91953 0.709 0.0
C285 C 0.16813 0.92195 0.72077 0.0
H286 H 0.19816 0.93982 0.72307 0.0
H287 H 0.1568 0.95897 0.66926 0.0
C288 C 0.20612 0.05557 0.69773 0.0
N289 N 0.20071 0.03628 0.70763 0.0
C290 C 0.1963 0.07493 0.70505 0.0
C291 C 0.17592 0.05411 0.73271 0.0
C292 C 0.1863 0.03531 0.72513 0.0
C293 C 0.18062 0.07414 0.72238 0.0
H294 H 0.21755 0.0558 0.68374 0.0
H295 H 0.18229 0.0198 0.73273 0.0
C296 C 0.22045 0.94502 0.65948 0.0
N297 N 0.20837 0.91345 0.62845 0.0
C298 C 0.23218 0.92555 0.65795 0.0
C299 C 0.20256 0.94843 0.64519 0.0
C300 C 0.22582 0.9098 0.64216 0.0
C301 C 0.19672 0.93228 0.62963 0.0
C302 C 0.26125 0.01131 0.67315 0.0
C303 C 0.27232 0.99285 0.66533 0.0
C304 C 0.2712 0.03174 0.67168 0.0
C305 C 0.29317 0.99517 0.65614 0.0
C306 C 0.29208 0.03338 0.66238 0.0
N307 N 0.30255 0.01522 0.65487 0.0
C308 C 0.22073 0.01068 0.61898 0.0
C309 C 0.24152 0.97811 0.61981 0.0
C310 C 0.22446 0.01292 0.59567 0.0
N311 N 0.22906 0.99335 0.63044 0.0
C312 C 0.24538 0.97954 0.59654 0.0
C313 C 0.23667 0.99703 0.58418 0.0
H314 H 0.21108 0.02267 0.62794 0.0
H315 H 0.2484 0.96474 0.62933 0.0
C316 C 0.26273 0.94747 0.71498 0.0
N317 N 0.26246 0.96954 0.71345 0.0
C318 C 0.28045 0.93684 0.72472 0.0
C319 C 0.29703 0.97192 0.73203 0.0
C320 C 0.27901 0.98192 0.72184 0.0
C321 C 0.29795 0.94907 0.7332 0.0
H322 H 0.24919 0.93812 0.70841 0.0
H323 H 0.27836 0.99948 0.72036 0.0
O324 O 0.19264 0.99773 0.67078 0.0
O325 O 0.21201 0.98504 0.71807 0.0
O326 O 0.2266 0.96056 0.67489 0.0
O327 O 0.24081 0.00958 0.68227 0.0
H328 H 0.1671 0.99274 0.70684 0.0
H329 H 0.17091 0.01932 0.63931 0.0
H330 H 0.12926 0.00664 0.70981 0.0
H331 H 0.13294 0.03276 0.64345 0.0
H332 H 0.25182 0.02936 0.76412 0.0
H333 H 0.19952 0.96856 0.75733 0.0
H334 H 0.23991 0.01739 0.72592 0.0
H335 H 0.21214 0.98145 0.79508 0.0
H336 H 0.12933 0.93169 0.68055 0.0
H337 H 0.17216 0.91165 0.7351 0.0
H338 H 0.20021 0.09016 0.69668 0.0
H339 H 0.164 0.05296 0.74624 0.0
H340 H 0.24613 0.92267 0.66881 0.0
H341 H 0.19333 0.9634 0.64596 0.0
H342 H 0.23478 0.89466 0.6408 0.0
H343 H 0.18293 0.93472 0.61847 0.0
H344 H 0.26497 0.97688 0.66639 0.0
H345 H 0.26285 0.04618 0.67769 0.0
H346 H 0.30192 0.98102 0.65004 0.0
H347 H 0.29998 0.0491 0.66115 0.0
H348 H 0.21748 0.02663 0.58665 0.0
H349 H 0.25517 0.96716 0.5883 0.0
H350 H 0.28045 0.9192 0.72564 0.0
H351 H 0.31029 0.98184 0.73838 0.0
Li352 Li 0.48756 0.28118 0.80339 0.0
Li353 Li 0.52431 0.2955 0.80904 0.0
Li354 Li 0.51802 0.25684 0.80203 0.0
Li355 Li 0.50757 0.27356 0.83806 0.0
C356 C 0.5199 0.27414 0.76164 0.0
N357 N 0.53746 0.25696 0.72231 0.0
C358 C 0.54051 0.28077 0.75425 0.0
C359 C 0.50818 0.25884 0.74897 0.0
C360 C 0.54911 0.27189 0.73432 0.0
C361 C 0.51736 0.25032 0.72916 0.0
C362 C 0.49925 0.32419 0.82777 0.0
C363 C 0.51593 0.35681 0.84268 0.0
N364 N 0.50395 0.369 0.82798 0.0
C365 C 0.48714 0.33706 0.81277 0.0
C366 C 0.51377 0.33414 0.84285 0.0
C367 C 0.48973 0.35968 0.81317 0.0
C368 C 0.44471 0.29581 0.8077 0.0
N369 N 0.45958 0.2889 0.79219 0.0
C370 C 0.43652 0.30001 0.76163 0.0
C371 C 0.45572 0.29037 0.76952 0.0
C372 C 0.42144 0.30843 0.77729 0.0
C373 C 0.4254 0.30566 0.80059 0.0
H374 H 0.44844 0.2948 0.82562 0.0
H375 H 0.46804 0.28519 0.75757 0.0
C376 C 0.56257 0.32114 0.81339 0.0
N377 N 0.54324 0.31918 0.80232 0.0
C378 C 0.57693 0.33793 0.80779 0.0
C379 C 0.55124 0.35033 0.77946 0.0
C380 C 0.53732 0.33337 0.7857 0.0
C381 C 0.57142 0.35266 0.79046 0.0
H382 H 0.56704 0.30941 0.82623 0.0
H383 H 0.52191 0.33126 0.77705 0.0
C384 C 0.46968 0.24594 0.81901 0.0
N385 N 0.42624 0.23417 0.81808 0.0
C386 C 0.45667 0.24882 0.83826 0.0
C387 C 0.46065 0.23698 0.79933 0.0
C388 C 0.43473 0.24277 0.83744 0.0
C389 C 0.43863 0.23117 0.79918 0.0
C390 C 0.54838 0.26291 0.84329 0.0
C391 C 0.55265 0.24061 0.84533 0.0
C392 C 0.55466 0.27708 0.8607 0.0
C393 C 0.56313 0.23286 0.86479 0.0
C394 C 0.56504 0.26868 0.87992 0.0
N395 N 0.56903 0.24693 0.88154 0.0
C396 C 0.55282 0.23449 0.78335 0.0
C397 C 0.52073 0.21301 0.78478 0.0
C398 C 0.56458 0.21717 0.77424 0.0
N399 N 0.53136 0.23212 0.78846 0.0
C400 C 0.53192 0.19515 0.77568 0.0
C401 C 0.55422 0.19707 0.77053 0.0
H402 H 0.56085 0.24987 0.78663 0.0
H403 H 0.5037 0.21152 0.78923 0.0
C404 C 0.50299 0.28563 0.8843 0.0
N405 N 0.50517 0.26855 0.86981 0.0
C406 C 0.5027 0.28213 0.90771 0.0
C407 C 0.5061 0.24343 0.90079 0.0
C408 C 0.50639 0.2477 0.87751 0.0
C409 C 0.50448 0.26082 0.91621 0.0
H410 H 0.50168 0.30199 0.87771 0.0
H411 H 0.50799 0.23443 0.86554 0.0
O412 O 0.51141 0.28226 0.78138 0.0
O413 O 0.49731 0.30197 0.82733 0.0
O414 O 0.49107 0.25216 0.81932 0.0
O415 O 0.53767 0.27076 0.82462 0.0
H416 H 0.54992 0.29242 0.76393 0.0
H417 H 0.4923 0.25338 0.75455 0.0
H418 H 0.56508 0.27679 0.72846 0.0
H419 H 0.50853 0.23836 0.71928 0.0
H420 H 0.52721 0.36469 0.85416 0.0
H421 H 0.47608 0.32971 0.80073 0.0
H422 H 0.52361 0.32446 0.85426 0.0
H423 H 0.4805 0.36982 0.80162 0.0
H424 H 0.43419 0.30212 0.74354 0.0
H425 H 0.41412 0.31189 0.81316 0.0
H426 H 0.59249 0.33893 0.81641 0.0
H427 H 0.54637 0.3614 0.76606 0.0
H428 H 0.46337 0.25585 0.85359 0.0
H429 H 0.47047 0.23476 0.78425 0.0
H430 H 0.42443 0.24499 0.85217 0.0
H431 H 0.43139 0.22433 0.78403 0.0
H432 H 0.54769 0.22934 0.83221 0.0
H433 H 0.55115 0.29432 0.85963 0.0
H434 H 0.56646 0.21564 0.86662 0.0
H435 H 0.56981 0.27944 0.89359 0.0
H436 H 0.58164 0.21949 0.7702 0.0
H437 H 0.52338 0.17988 0.77326 0.0
H438 H 0.50104 0.29594 0.91903 0.0
H439 H 0.50764 0.22677 0.90666 0.0
Li440 Li 0.20249 0.5254 0.30491 0.0
Li441 Li 0.21518 0.48761 0.30252 0.0
Li442 Li 0.2256 0.50948 0.33448 0.0
Li443 Li 0.24015 0.51608 0.29613 0.0
C444 C 0.18132 0.50767 0.34197 0.0
N445 N 0.15216 0.52147 0.3747 0.0
C446 C 0.16474 0.49378 0.34937 0.0
C447 C 0.18309 0.52859 0.35121 0.0
C448 C 0.15015 0.50105 0.36594 0.0
C449 C 0.16819 0.53525 0.36774 0.0
C450 C 0.21844 0.51658 0.25658 0.0
C451 C 0.23826 0.51276 0.22138 0.0
N452 N 0.22888 0.53138 0.21356 0.0
C453 C 0.20881 0.53554 0.24804 0.0
C454 C 0.2331 0.50496 0.24301 0.0
C455 C 0.21436 0.54281 0.22631 0.0
C456 C 0.18381 0.56658 0.29796 0.0
N457 N 0.17924 0.54496 0.29911 0.0
C458 C 0.142 0.55157 0.28939 0.0
C459 C 0.15882 0.53724 0.29518 0.0
C460 C 0.14637 0.57399 0.28755 0.0
C461 C 0.16755 0.58146 0.29225 0.0
H462 H 0.20025 0.57217 0.30088 0.0
H463 H 0.15573 0.5199 0.2961 0.0
C464 C 0.19661 0.44658 0.31055 0.0
N465 N 0.20568 0.4593 0.2942 0.0
C466 C 0.18685 0.42679 0.30477 0.0
C467 C 0.19683 0.43318 0.2656 0.0
C468 C 0.2063 0.45289 0.27213 0.0
C469 C 0.18645 0.42013 0.28195 0.0
H470 H 0.19635 0.45217 0.32797 0.0
H471 H 0.21341 0.46345 0.25947 0.0
C472 C 0.24629 0.55001 0.32649 0.0
N473 N 0.2813 0.57407 0.34221 0.0
C474 C 0.26577 0.53963 0.33248 0.0
C475 C 0.24467 0.57266 0.32854 0.0
C476 C 0.28326 0.55207 0.34037 0.0
C477 C 0.26253 0.58452 0.33653 0.0
C478 C 0.25173 0.46941 0.31206 0.0
C479 C 0.25034 0.45376 0.32925 0.0
C480 C 0.25964 0.46338 0.2907 0.0
C481 C 0.25649 0.43228 0.32466 0.0
C482 C 0.26563 0.44175 0.28676 0.0
N483 N 0.26391 0.42676 0.30368 0.0
C484 C 0.22586 0.49013 0.37769 0.0
C485 C 0.23581 0.52739 0.3785 0.0
C486 C 0.22869 0.48849 0.40116 0.0
N487 N 0.22999 0.5092 0.36675 0.0
C488 C 0.23889 0.5265 0.40195 0.0
C489 C 0.23556 0.5068 0.41356 0.0
H490 H 0.2201 0.47622 0.36818 0.0
H491 H 0.23778 0.54275 0.36989 0.0
C492 C 0.26155 0.54667 0.26934 0.0
N493 N 0.26467 0.52733 0.28007 0.0
C494 C 0.27894 0.55734 0.25899 0.0
C495 C 0.30273 0.5283 0.27141 0.0
C496 C 0.28474 0.518 0.28129 0.0
C497 C 0.29999 0.5484 0.26028 0.0
H498 H 0.2456 0.55413 0.26936 0.0
H499 H 0.28696 0.50305 0.29071 0.0
O500 O 0.19577 0.50063 0.32584 0.0
O501 O 0.21331 0.5093 0.27792 0.0
O502 O 0.22908 0.53823 0.31815 0.0
O503 O 0.24519 0.49042 0.31598 0.0
H504 H 0.16318 0.47753 0.34239 0.0
H505 H 0.19582 0.53958 0.34575 0.0
H506 H 0.13724 0.49047 0.37183 0.0
H507 H 0.16937 0.55139 0.37505 0.0
H508 H 0.24971 0.504 0.21081 0.0
H509 H 0.19722 0.54465 0.25803 0.0
H510 H 0.24053 0.49014 0.24909 0.0
H511 H 0.20712 0.55753 0.21959 0.0
H512 H 0.12596 0.54511 0.28571 0.0
H513 H 0.17157 0.59862 0.29131 0.0
H514 H 0.17917 0.41711 0.3179 0.0
H515 H 0.19663 0.42879 0.24779 0.0
H516 H 0.26743 0.52215 0.3311 0.0
H517 H 0.22978 0.58104 0.32407 0.0
H518 H 0.2984 0.54422 0.34502 0.0
H519 H 0.26147 0.60204 0.3382 0.0
H520 H 0.24456 0.45809 0.34594 0.0
H521 H 0.26106 0.47526 0.27728 0.0
H522 H 0.25536 0.42001 0.33779 0.0
H523 H 0.27163 0.43687 0.27026 0.0
H524 H 0.22574 0.47302 0.40946 0.0
H525 H 0.2435 0.54119 0.41094 0.0
H526 H 0.27594 0.57266 0.2504 0.0
H527 H 0.3187 0.52101 0.27325 0.0
Li528 Li 0.9799 0.23667 0.80194 0.0
Li529 Li 0.9885 0.22055 0.83888 0.0
Li530 Li 0.01031 0.21216 0.80537 0.0
Li531 Li 0.97307 0.19797 0.80965 0.0
C532 C 0.02693 0.24892 0.82107 0.0
N533 N 0.06943 0.26373 0.82207 0.0
C534 C 0.03907 0.24758 0.8411 0.0
C535 C 0.03632 0.25795 0.8016 0.0
C536 C 0.06056 0.25514 0.84125 0.0
C537 C 0.05786 0.26529 0.80244 0.0
C538 C 0.94752 0.23146 0.84155 0.0
C539 C 0.92809 0.22617 0.87672 0.0
N540 N 0.925 0.24807 0.87829 0.0
C541 C 0.94411 0.2539 0.84347 0.0
C542 C 0.93938 0.21745 0.85824 0.0
C543 C 0.93267 0.26198 0.86218 0.0
C544 C 0.94816 0.25844 0.77688 0.0
N545 N 0.96781 0.2613 0.78709 0.0
C546 C 0.96767 0.29918 0.77765 0.0
C547 C 0.97771 0.28112 0.78768 0.0
C548 C 0.94749 0.29656 0.76674 0.0
C549 C 0.93781 0.27588 0.76624 0.0
H550 H 0.94039 0.24264 0.77731 0.0
H551 H 0.99315 0.28298 0.79631 0.0
C552 C 0.98969 0.20912 0.88547 0.0
N553 N 0.98927 0.22608 0.87064 0.0
C554 C 0.98951 0.21297 0.90882 0.0
C555 C 0.98893 0.25169 0.9012 0.0
C556 C 0.98902 0.24708 0.87799 0.0
C557 C 0.98907 0.23448 0.91694 0.0
H558 H 0.99012 0.1926 0.87917 0.0
H559 H 0.98872 0.26023 0.86576 0.0
C560 C 0.98055 0.21743 0.76151 0.0
N561 N 0.96671 0.23158 0.71938 0.0
C562 C 0.96135 0.20916 0.75208 0.0
C563 C 0.99283 0.23272 0.74943 0.0
C564 C 0.9546 0.21656 0.73076 0.0
C565 C 0.98551 0.23972 0.72818 0.0
C566 C 0.9981 0.16971 0.83077 0.0
C567 C 0.01285 0.15662 0.81887 0.0
C568 C 0.98194 0.15997 0.84408 0.0
C569 C 0.0111 0.13397 0.82041 0.0
C570 C 0.98071 0.13726 0.84514 0.0
N571 N 0.99519 0.12484 0.83339 0.0
C572 C 0.05526 0.20205 0.80948 0.0
C573 C 0.04081 0.19972 0.77224 0.0
C574 C 0.07521 0.19371 0.80208 0.0
N575 N 0.03854 0.20469 0.79459 0.0
C576 C 0.06036 0.1911 0.76416 0.0
C577 C 0.07779 0.18754 0.77923 0.0
H578 H 0.05282 0.20557 0.82728 0.0
H579 H 0.0271 0.20144 0.76088 0.0
C580 C 0.9325 0.1767 0.80839 0.0
N581 N 0.95381 0.17469 0.80246 0.0
C582 C 0.91745 0.16084 0.80191 0.0
C583 C 0.94661 0.1409 0.7837 0.0
C584 C 0.96107 0.15731 0.79027 0.0
C585 C 0.92444 0.14275 0.78928 0.0
H586 H 0.9271 0.19089 0.81768 0.0
H587 H 0.978 0.15644 0.78527 0.0
O588 O 0.00595 0.24144 0.82051 0.0
O589 O 0.95919 0.22328 0.8237 0.0
O590 O 0.98726 0.21065 0.7825 0.0
O591 O 0.99942 0.19193 0.82933 0.0
H592 H 0.03208 0.24057 0.85629 0.0
H593 H 0.02712 0.25916 0.786 0.0
H594 H 0.07019 0.2541 0.85659 0.0
H595 H 0.06538 0.27221 0.78747 0.0
H596 H 0.92184 0.21554 0.88984 0.0
H597 H 0.95041 0.26499 0.83079 0.0
H598 H 0.94203 0.20005 0.85708 0.0
H599 H 0.92999 0.27933 0.86395 0.0
H600 H 0.97549 0.31498 0.77846 0.0
H601 H 0.92205 0.27338 0.75836 0.0
H602 H 0.98994 0.19926 0.9204 0.0
H603 H 0.98841 0.2685 0.90677 0.0
H604 H 0.95163 0.19734 0.76118 0.0
H605 H 0.00774 0.23923 0.75647 0.0
H606 H 0.93971 0.2104 0.72331 0.0
H607 H 0.99477 0.25166 0.71871 0.0
H608 H 0.02543 0.16383 0.80845 0.0
H609 H 0.97022 0.16984 0.85318 0.0
H610 H 0.02236 0.12364 0.81125 0.0
H611 H 0.96818 0.12951 0.85523 0.0
H612 H 0.0882 0.19144 0.81428 0.0
H613 H 0.06132 0.18616 0.74654 0.0
H614 H 0.90047 0.16279 0.80655 0.0
H615 H 0.95253 0.12733 0.77369 0.0
Li616 Li 0.26053 0.97792 0.30133 0.0
Li617 Li 0.27698 0.98919 0.33742 0.0
Li618 Li 0.28514 0.00802 0.30208 0.0
Li619 Li 0.29916 0.97122 0.30894 0.0
C620 C 0.25042 0.0269 0.31698 0.0
N621 N 0.24034 0.07072 0.31475 0.0
C622 C 0.25444 0.04045 0.3356 0.0
C623 C 0.24119 0.0356 0.29727 0.0
C624 C 0.24924 0.06257 0.33412 0.0
C625 C 0.23625 0.05781 0.29646 0.0
C626 C 0.26659 0.94754 0.34306 0.0
C627 C 0.27323 0.92949 0.37878 0.0
N628 N 0.25157 0.92511 0.38062 0.0
C629 C 0.2444 0.94278 0.34525 0.0
C630 C 0.28115 0.94075 0.35989 0.0
C631 C 0.23713 0.93143 0.36438 0.0
C632 C 0.23799 0.94283 0.28347 0.0
N633 N 0.23578 0.96441 0.28802 0.0
C634 C 0.19903 0.96403 0.27458 0.0
C635 C 0.21686 0.97519 0.28377 0.0
C636 C 0.20079 0.94161 0.26997 0.0
C637 C 0.22066 0.93107 0.27435 0.0
H638 H 0.25324 0.93471 0.28714 0.0
H639 H 0.21552 0.99233 0.28776 0.0
C640 C 0.28834 0.99972 0.38274 0.0
N641 N 0.27192 0.99283 0.36903 0.0
C642 C 0.28486 0.00218 0.40602 0.0
C643 C 0.24751 0.99079 0.40056 0.0
C644 C 0.25166 0.98883 0.37736 0.0
C645 C 0.26427 0.99746 0.4153 0.0
H646 H 0.30412 0.00344 0.37559 0.0
H647 H 0.23875 0.98393 0.36596 0.0
C648 C 0.27849 0.9741 0.26133 0.0
N649 N 0.26198 0.95459 0.22269 0.0
C650 C 0.28606 0.95362 0.25455 0.0
C651 C 0.26262 0.98472 0.24837 0.0
C652 C 0.2775 0.94403 0.23497 0.0
C653 C 0.25443 0.97456 0.22893 0.0
C654 C 0.32754 0.99665 0.32961 0.0
C655 C 0.34205 0.00852 0.31611 0.0
C656 C 0.33564 0.98254 0.34621 0.0
C657 C 0.36445 0.00602 0.31943 0.0
C658 C 0.35816 0.98046 0.34897 0.0
N659 N 0.37198 0.99215 0.33564 0.0
C660 C 0.30224 0.04999 0.30489 0.0
C661 C 0.29081 0.04046 0.26777 0.0
C662 C 0.31113 0.06946 0.29698 0.0
N663 N 0.29289 0.03573 0.29019 0.0
C664 C 0.29918 0.05995 0.25915 0.0
C665 C 0.31015 0.07448 0.2737 0.0
H666 H 0.30373 0.0457 0.32264 0.0
H667 H 0.28331 0.02882 0.25645 0.0
C668 C 0.32002 0.93037 0.31055 0.0
N669 N 0.32233 0.95128 0.30339 0.0
C670 C 0.33577 0.91479 0.30518 0.0
C671 C 0.35625 0.94267 0.28557 0.0
C672 C 0.3399 0.95762 0.29099 0.0
C673 C 0.3542 0.92079 0.2924 0.0
H674 H 0.30558 0.9256 0.3198 0.0
H675 H 0.34101 0.97419 0.2849 0.0
O676 O 0.25595 0.00534 0.31787 0.0
O677 O 0.274 0.95891 0.32464 0.0
O678 O 0.28631 0.98355 0.28072 0.0
O679 O 0.30553 0.9987 0.32648 0.0
H680 H 0.2617 0.034 0.35093 0.0
H681 H 0.23818 0.02538 0.28264 0.0
H682 H 0.25234 0.07327 0.34836 0.0
H683 H 0.22923 0.0648 0.28127 0.0
H684 H 0.2843 0.92425 0.39199 0.0
H685 H 0.23286 0.94803 0.3325 0.0
H686 H 0.29836 0.94425 0.35844 0.0
H687 H 0.22 0.92775 0.36636 0.0
H688 H 0.18392 0.9727 0.27162 0.0
H689 H 0.22282 0.9139 0.27074 0.0
H690 H 0.29813 0.00788 0.41659 0.0
H691 H 0.23144 0.98678 0.40688 0.0
H692 H 0.29827 0.94512 0.26438 0.0
H693 H 0.25636 0.00044 0.25352 0.0
H694 H 0.28314 0.92814 0.22958 0.0
H695 H 0.24201 0.9825 0.21886 0.0
H696 H 0.33612 0.0193 0.30296 0.0
H697 H 0.32467 0.97318 0.35675 0.0
H698 H 0.37586 0.01503 0.30904 0.0
H699 H 0.36465 0.96952 0.3617 0.0
H700 H 0.3197 0.07984 0.30887 0.0
H701 H 0.29763 0.06327 0.24116 0.0
H702 H 0.33309 0.89807 0.31035 0.0
H703 H 0.37019 0.94818 0.27588 0.0
Li704 Li 0.48652 0.77668 0.83679 0.0
Li705 Li 0.50608 0.78697 0.80245 0.0
Li706 Li 0.46695 0.79758 0.80869 0.0
Li707 Li 0.47657 0.75966 0.7993 0.0
C708 C 0.50014 0.81703 0.84495 0.0
N709 N 0.51416 0.8373 0.88423 0.0
C710 C 0.52241 0.81989 0.84898 0.0
C711 C 0.485 0.82477 0.86075 0.0
C712 C 0.52917 0.83012 0.86897 0.0
C713 C 0.49241 0.83487 0.88055 0.0
C714 C 0.52245 0.74515 0.81186 0.0
C715 C 0.54263 0.72205 0.78622 0.0
N716 N 0.55859 0.71992 0.8021 0.0
C717 C 0.53889 0.74246 0.82804 0.0
C718 C 0.52419 0.73463 0.79089 0.0
C719 C 0.55709 0.72975 0.82274 0.0
C720 C 0.47114 0.76632 0.88053 0.0
N721 N 0.48933 0.7716 0.86858 0.0
C722 C 0.51087 0.77079 0.9024 0.0
C723 C 0.50902 0.77367 0.87895 0.0
C724 C 0.49225 0.76569 0.91523 0.0
C725 C 0.47221 0.76334 0.90398 0.0
H726 H 0.45575 0.7644 0.87187 0.0
H727 H 0.52325 0.77783 0.86906 0.0
C728 C 0.53023 0.81258 0.773 0.0
N729 N 0.53261 0.79783 0.79003 0.0
C730 C 0.5483 0.82346 0.76426 0.0
C731 C 0.57113 0.80387 0.79073 0.0
C732 C 0.55257 0.79316 0.79884 0.0
C733 C 0.56905 0.81957 0.77348 0.0
H734 H 0.51415 0.81638 0.76664 0.0
H735 H 0.554 0.78195 0.81287 0.0
C736 C 0.43532 0.77337 0.82733 0.0
N737 N 0.39113 0.78001 0.83332 0.0
C738 C 0.42024 0.76101 0.81505 0.0
C739 C 0.4279 0.78888 0.8429 0.0
C740 C 0.39797 0.76466 0.81826 0.0
C741 C 0.4055 0.79207 0.84561 0.0
C742 C 0.4818 0.78341 0.75787 0.0
C743 C 0.46479 0.79109 0.74425 0.0
C744 C 0.49974 0.77328 0.74775 0.0
C745 C 0.46577 0.78801 0.72077 0.0
C746 C 0.50014 0.77053 0.72421 0.0
N747 N 0.48327 0.77786 0.71132 0.0
C748 C 0.44976 0.84044 0.81011 0.0
C749 C 0.42755 0.81432 0.79153 0.0
C750 C 0.43458 0.85686 0.80558 0.0
N751 N 0.44594 0.81967 0.80313 0.0
C752 C 0.41185 0.83011 0.78691 0.0
C753 C 0.41532 0.8517 0.7939 0.0
H754 H 0.46468 0.8443 0.819 0.0
H755 H 0.42518 0.79778 0.7857 0.0
C756 C 0.47077 0.71421 0.79307 0.0
N757 N 0.46594 0.7342 0.78448 0.0
C758 C 0.46125 0.69551 0.78379 0.0
C759 C 0.44222 0.71835 0.75686 0.0
C760 C 0.45204 0.73655 0.76668 0.0
C761 C 0.44655 0.6975 0.76559 0.0
H762 H 0.4816 0.71284 0.80749 0.0
H763 H 0.44774 0.75262 0.76077 0.0
O764 O 0.49322 0.80675 0.82564 0.0
O765 O 0.50445 0.75744 0.81686 0.0
O766 O 0.45721 0.7702 0.82419 0.0
O767 O 0.48108 0.78636 0.78091 0.0
H768 H 0.53435 0.8141 0.83693 0.0
H769 H 0.46772 0.82294 0.8578 0.0
H770 H 0.54636 0.8323 0.87238 0.0
H771 H 0.48087 0.8408 0.89299 0.0
H772 H 0.54421 0.7139 0.77002 0.0
H773 H 0.5377 0.75021 0.84448 0.0
H774 H 0.51136 0.73596 0.77841 0.0
H775 H 0.57002 0.72769 0.83505 0.0
H776 H 0.52661 0.77288 0.91043 0.0
H777 H 0.45755 0.75902 0.91317 0.0
H778 H 0.54593 0.83519 0.75074 0.0
H779 H 0.58674 0.80061 0.7986 0.0
H780 H 0.42562 0.74873 0.80317 0.0
H781 H 0.4393 0.79845 0.85269 0.0
H782 H 0.38614 0.75528 0.80879 0.0
H783 H 0.39956 0.80415 0.85748 0.0
H784 H 0.45091 0.79922 0.75174 0.0
H785 H 0.51338 0.76791 0.75789 0.0
H786 H 0.45264 0.79372 0.71006 0.0
H787 H 0.51392 0.76269 0.71618 0.0
H788 H 0.43782 0.87336 0.81119 0.0
H789 H 0.39738 0.82559 0.77748 0.0
H790 H 0.46508 0.67973 0.79099 0.0
H791 H 0.4306 0.7207 0.74324 0.0
Li792 Li 0.71209 0.509 0.30579 0.0
Li793 Li 0.72095 0.48879 0.34045 0.0
Li794 Li 0.73689 0.47852 0.30382 0.0
Li795 Li 0.69836 0.47188 0.3122 0.0
C796 C 0.74974 0.52615 0.32073 0.0
N797 N 0.76642 0.56796 0.32022 0.0
C798 C 0.75016 0.53852 0.34066 0.0
C799 C 0.75799 0.53495 0.3006 0.0
C800 C 0.75863 0.55965 0.34004 0.0
C801 C 0.76628 0.55615 0.30068 0.0
C802 C 0.67005 0.49704 0.332 0.0
C803 C 0.63823 0.47983 0.34804 0.0
N804 N 0.62533 0.49227 0.33444 0.0
C805 C 0.65648 0.50971 0.31825 0.0
C806 C 0.66087 0.48205 0.34711 0.0
C807 C 0.63391 0.50704 0.31973 0.0
C808 C 0.69571 0.53703 0.27235 0.0
N809 N 0.70406 0.53657 0.2937 0.0
C810 C 0.69545 0.57421 0.29904 0.0
C811 C 0.70416 0.55464 0.30705 0.0
C812 C 0.68582 0.57501 0.27737 0.0
C813 C 0.6864 0.5561 0.26385 0.0
H814 H 0.69526 0.52227 0.26234 0.0
H815 H 0.71023 0.55367 0.32423 0.0
C816 C 0.74712 0.48823 0.37987 0.0
N817 N 0.72651 0.49133 0.37206 0.0
C818 C 0.75138 0.4888 0.40314 0.0
C819 C 0.7133 0.49669 0.40978 0.0
C820 C 0.70975 0.49579 0.3864 0.0
C821 C 0.73431 0.49291 0.41848 0.0
H822 H 0.76017 0.48494 0.368 0.0
H823 H 0.6936 0.49855 0.37969 0.0
C824 C 0.71749 0.47779 0.2634 0.0
N825 N 0.73162 0.46335 0.22148 0.0
C826 C 0.71055 0.45762 0.25507 0.0
C827 C 0.73143 0.49072 0.25034 0.0
C828 C 0.71792 0.45059 0.23385 0.0
C829 C 0.73845 0.4831 0.22921 0.0
C830 C 0.73225 0.44762 0.34487 0.0
C831 C 0.75447 0.44261 0.34559 0.0
C832 C 0.71875 0.44143 0.36288 0.0
C833 C 0.76284 0.43159 0.36442 0.0
C834 C 0.72777 0.43048 0.38143 0.0
N835 N 0.74944 0.42583 0.38182 0.0
C836 C 0.78115 0.47661 0.2891 0.0
C837 C 0.75924 0.44586 0.28063 0.0
C838 C 0.79945 0.46638 0.27978 0.0
N839 N 0.76161 0.46618 0.28939 0.0
C840 C 0.77695 0.43519 0.27085 0.0
C841 C 0.79753 0.44527 0.27064 0.0
H842 H 0.78266 0.49261 0.29662 0.0
H843 H 0.74361 0.43778 0.28157 0.0
C844 C 0.6593 0.45831 0.29109 0.0
N845 N 0.67498 0.4524 0.30619 0.0
C846 C 0.64283 0.44365 0.28517 0.0
C847 C 0.65891 0.41721 0.31059 0.0
C848 C 0.67503 0.43238 0.31603 0.0
C849 C 0.64268 0.42268 0.29475 0.0
H850 H 0.65991 0.47424 0.28324 0.0
H851 H 0.68785 0.42801 0.32773 0.0
O852 O 0.74148 0.50546 0.32098 0.0
O853 O 0.6922 0.49908 0.33048 0.0
O854 O 0.71072 0.48483 0.28427 0.0
O855 O 0.7238 0.45876 0.32677 0.0
H856 H 0.74386 0.53194 0.35639 0.0
H857 H 0.75789 0.52554 0.28507 0.0
H858 H 0.75896 0.56945 0.3553 0.0
H859 H 0.77261 0.56322 0.28519 0.0
H860 H 0.63092 0.46818 0.35952 0.0
H861 H 0.66327 0.52138 0.30646 0.0
H862 H 0.67114 0.472 0.35775 0.0
H863 H 0.62321 0.51668 0.30912 0.0
H864 H 0.69569 0.58834 0.31003 0.0
H865 H 0.67875 0.5556 0.2473 0.0
H866 H 0.76778 0.48559 0.40904 0.0
H867 H 0.69974 0.50037 0.42091 0.0
H868 H 0.6998 0.44739 0.26499 0.0
H869 H 0.73684 0.50642 0.2565 0.0
H870 H 0.7128 0.43496 0.22725 0.0
H871 H 0.74934 0.49288 0.21897 0.0
H872 H 0.76519 0.44735 0.33188 0.0
H873 H 0.70156 0.44534 0.3627 0.0
H874 H 0.78002 0.42769 0.36525 0.0
H875 H 0.71755 0.42575 0.39557 0.0
H876 H 0.81502 0.47467 0.28035 0.0
H877 H 0.77453 0.41911 0.26371 0.0
H878 H 0.63081 0.44842 0.27266 0.0
H879 H 0.65929 0.40129 0.31852 0.0
Li880 Li 0.01322 0.71957 0.83659 0.0
Li881 Li 0.99237 0.7094 0.80151 0.0
Li882 Li 0.02891 0.69741 0.80695 0.0
Li883 Li 0.02286 0.73499 0.79873 0.0
C884 C 0.00705 0.66915 0.83019 0.0
N885 N 0.01661 0.62565 0.83695 0.0
C886 C 0.99914 0.65343 0.81512 0.0
C887 C 0.01971 0.66277 0.84876 0.0
C888 C 0.00419 0.63151 0.81881 0.0
C889 C 0.02439 0.64068 0.85187 0.0
C890 C 0.97797 0.751 0.82159 0.0
C891 C 0.95423 0.78158 0.8144 0.0
N892 N 0.9424 0.77632 0.83315 0.0
C893 C 0.96569 0.74603 0.8409 0.0
C894 C 0.97232 0.76903 0.80832 0.0
C895 C 0.94772 0.75897 0.84641 0.0
C896 C 0.02207 0.74304 0.87655 0.0
N897 N 0.01151 0.72539 0.86805 0.0
C898 C 0.99847 0.71577 0.90491 0.0
C899 C -0.00018 0.71182 0.88161 0.0
C900 C 0.00931 0.73383 0.91429 0.0
C901 C 0.0212 0.7476 0.89977 0.0
H902 H 0.03126 0.7535 0.86528 0.0
H903 H 0.99145 0.69799 0.87429 0.0
C904 C 0.96408 0.68832 0.77114 0.0
N905 N 0.96447 0.70054 0.7904 0.0
C906 C 0.94458 0.67946 0.7633 0.0
C907 C 0.92609 0.69561 0.79538 0.0
C908 C 0.94599 0.70433 0.80252 0.0
C909 C 0.9253 0.68281 0.77564 0.0
H910 H 0.97907 0.68465 0.76232 0.0
H911 H 0.94674 0.71338 0.81817 0.0
C912 C 0.06365 0.72639 0.81684 0.0
N913 N 0.10646 0.73463 0.80508 0.0
C914 C 0.07143 0.72041 0.79542 0.0
C915 C 0.07764 0.73654 0.83229 0.0
C916 C 0.09312 0.72472 0.78979 0.0
C917 C 0.09923 0.74057 0.82602 0.0
C918 C 0.00922 0.71694 0.75817 0.0
C919 C 0.01801 0.70847 0.73813 0.0
C920 C 0.99314 0.73302 0.75703 0.0
C921 C 0.01053 0.71626 0.71724 0.0
C922 C 0.98608 0.74038 0.73583 0.0
N923 N 0.99485 0.73192 0.71654 0.0
C924 C 0.04539 0.6621 0.78201 0.0
C925 C 0.06462 0.66907 0.81617 0.0
C926 C 0.05991 0.64547 0.77634 0.0
N927 N 0.04815 0.67363 0.80149 0.0
C928 C 0.07953 0.65254 0.81119 0.0
C929 C 0.07745 0.64071 0.79086 0.0
H930 H 0.03205 0.66605 0.77074 0.0
H931 H 0.06642 0.67858 0.83153 0.0
C932 C 0.03168 0.78004 0.79422 0.0
N933 N 0.03421 0.76022 0.78425 0.0
C934 C 0.04152 0.79847 0.78476 0.0
C935 C 0.05612 0.77571 0.75489 0.0
C936 C 0.0459 0.75781 0.7648 0.0
C937 C 0.05423 0.79631 0.76505 0.0
H938 H 0.02249 0.78141 0.80983 0.0
H939 H 0.04784 0.74187 0.75729 0.0
O940 O 0.00282 0.69072 0.82649 0.0
O941 O 0.99594 0.73884 0.81618 0.0
O942 O 0.04243 0.72253 0.82275 0.0
O943 O 0.0166 0.70955 0.77871 0.0
H944 H 0.98942 0.65814 0.8006 0.0
H945 H 0.02611 0.67478 0.86045 0.0
H946 H 0.99829 0.61917 0.80723 0.0
H947 H 0.03428 0.63551 0.86608 0.0
H948 H 0.94964 0.79553 0.80425 0.0
H949 H 0.96978 0.73214 0.85134 0.0
H950 H 0.98184 0.77336 0.79353 0.0
H951 H 0.93798 0.7552 0.86121 0.0
H952 H 0.98887 0.70492 0.91541 0.0
H953 H 0.03001 0.76154 0.90632 0.0
H954 H 0.9448 0.66918 0.74835 0.0
H955 H 0.9116 0.6984 0.80547 0.0
H956 H 0.06085 0.71259 0.78321 0.0
H957 H 0.07185 0.74129 0.84893 0.0
H958 H 0.09934 0.72021 0.77326 0.0
H959 H 0.11024 0.74843 0.8378 0.0
H960 H 0.03054 0.69607 0.73873 0.0
H961 H 0.98607 0.73964 0.77231 0.0
H962 H 0.0172 0.70987 0.7016 0.0
H963 H 0.97361 0.7528 0.73472 0.0
H964 H 0.05754 0.63655 0.76066 0.0
H965 H 0.09293 0.64954 0.82274 0.0
H966 H 0.03987 0.81407 0.79321 0.0
H967 H 0.06566 0.77342 0.73959 0.0
Li968 Li 0.77607 0.01344 0.33544 0.0
Li969 Li 0.78846 0.9939 0.30027 0.0
Li970 Li 0.79691 0.03134 0.30624 0.0
Li971 Li 0.7601 0.02206 0.29761 0.0
C972 C 0.82621 0.01253 0.33146 0.0
N973 N 0.86742 0.02713 0.34255 0.0
C974 C 0.84428 0.00533 0.31912 0.0
C975 C 0.82907 0.02701 0.34954 0.0
C976 C 0.865 0.01294 0.32497 0.0
C977 C 0.85005 0.03423 0.35485 0.0
C978 C 0.74714 0.97631 0.31958 0.0
C979 C 0.71694 0.95219 0.31213 0.0
N980 N 0.72303 0.93965 0.33009 0.0
C981 C 0.75299 0.9633 0.33807 0.0
C982 C 0.72888 0.97083 0.30659 0.0
C983 C 0.74064 0.94478 0.34307 0.0
C984 C 0.7527 0.02152 0.37561 0.0
N985 N 0.77012 0.01081 0.36679 0.0
C986 C 0.77956 0.99673 0.40328 0.0
C987 C 0.7835 0.99857 0.38002 0.0
C988 C 0.76177 0.00775 0.41302 0.0
C989 C 0.74821 0.02024 0.39883 0.0
H990 H 0.74241 0.0312 0.36462 0.0
H991 H 0.79722 0.9902 0.37245 0.0
C992 C 0.81481 0.96981 0.27138 0.0
N993 N 0.80021 0.96744 0.28856 0.0
C994 C 0.82606 0.95183 0.26295 0.0
C995 C 0.80711 0.9291 0.29003 0.0
C996 C 0.79607 0.94757 0.29784 0.0
C997 C 0.82262 0.93117 0.27259 0.0
H998 H 0.81821 0.98584 0.26464 0.0
H999 H 0.78481 0.94611 0.3118 0.0
C1000 C 0.76508 0.0632 0.3156 0.0
N1001 N 0.75328 0.10492 0.30292 0.0
C1002 C 0.76934 0.07061 0.29358 0.0
C1003 C 0.7548 0.07699 0.33114 0.0
C1004 C 0.76325 0.09175 0.28751 0.0
C1005 C 0.74897 0.09803 0.32441 0.0
C1006 C 0.78002 0.01021 0.25708 0.0
C1007 C 0.78855 0.01935 0.23724 0.0
C1008 C 0.76521 0.99297 0.25559 0.0
C1009 C 0.78201 0.01113 0.21619 0.0
C1010 C 0.75909 0.9852 0.23423 0.0
N1011 N 0.76754 0.99437 0.21513 0.0
C1012 C 0.8339 0.04783 0.28434 0.0
C1013 C 0.82051 0.07089 0.31352 0.0
C1014 C 0.85041 0.06269 0.27924 0.0
N1015 N 0.81934 0.05223 0.30113 0.0
C1016 C 0.83645 0.08644 0.30864 0.0
C1017 C 0.85155 0.08239 0.29125 0.0
H1018 H 0.83256 0.0328 0.27484 0.0
H1019 H 0.80891 0.07383 0.327 0.0
C1020 C 0.71577 0.03208 0.29781 0.0
N1021 N 0.73364 0.03175 0.28417 0.0
C1022 C 0.69656 0.04204 0.29046 0.0
C1023 C 0.71428 0.05044 0.25484 0.0
C1024 C 0.7332 0.04052 0.26297 0.0
C1025 C 0.6958 0.05168 0.26884 0.0
H1026 H 0.71675 0.02533 0.31475 0.0
H1027 H 0.74778 0.04078 0.25272 0.0
O1028 O 0.80575 0.00577 0.32561 0.0
O1029 O 0.75877 0.99471 0.3146 0.0
O1030 O 0.7705 0.04243 0.32189 0.0
O1031 O 0.78633 0.01819 0.27775 0.0
H1032 H 0.8423 0.99417 0.30505 0.0
H1033 H 0.8152 0.03281 0.35915 0.0
H1034 H 0.87913 0.00763 0.31549 0.0
H1035 H 0.85252 0.04555 0.36869 0.0
H1036 H 0.70281 0.94772 0.30218 0.0
H1037 H 0.76709 0.96728 0.34827 0.0
H1038 H 0.72394 0.98091 0.29241 0.0
H1039 H 0.74506 0.93448 0.35724 0.0
H1040 H 0.79026 0.98668 0.41349 0.0
H1041 H 0.73451 0.02925 0.40562 0.0
H1042 H 0.83764 0.95419 0.2493 0.0
H1043 H 0.80418 0.91355 0.29817 0.0
H1044 H 0.7772 0.06016 0.28128 0.0
H1045 H 0.75132 0.07146 0.34822 0.0
H1046 H 0.76643 0.09769 0.27054 0.0
H1047 H 0.74099 0.10889 0.33627 0.0
H1048 H 0.80006 0.03269 0.23813 0.0
H1049 H 0.75859 0.98558 0.27071 0.0
H1050 H 0.78845 0.01807 0.2007 0.0
H1051 H 0.74764 0.97185 0.23283 0.0
H1052 H 0.86175 0.05915 0.26563 0.0
H1053 H 0.83699 0.10147 0.31827 0.0
H1054 H 0.68262 0.04265 0.30173 0.0
H1055 H 0.71446 0.05803 0.23824 0.0
Li1056 Li 0.47939 0.73672 0.1986 0.0
Li1057 Li 0.47278 0.69839 0.18878 0.0
Li1058 Li 0.5098 0.71194 0.19617 0.0
Li1059 Li 0.49012 0.72197 0.16162 0.0
C1060 C 0.47768 0.7158 0.2382 0.0
N1061 N 0.46205 0.72814 0.28027 0.0
C1062 C 0.45767 0.70784 0.24595 0.0
C1063 C 0.48985 0.72984 0.25193 0.0
C1064 C 0.45003 0.71431 0.26726 0.0
C1065 C 0.48163 0.73595 0.27311 0.0
C1066 C 0.44906 0.73316 0.15691 0.0
C1067 C 0.4317 0.72921 0.12041 0.0
N1068 N 0.42796 0.75106 0.11992 0.0
C1069 C 0.44498 0.75555 0.1561 0.0
C1070 C 0.44228 0.71984 0.139 0.0
C1071 C 0.43429 0.76429 0.13723 0.0
C1072 C 0.47699 0.78061 0.21444 0.0
N1073 N 0.46677 0.76098 0.21367 0.0
C1074 C 0.43568 0.77553 0.23274 0.0
C1075 C 0.44649 0.75819 0.22243 0.0
C1076 C 0.44553 0.79622 0.23346 0.0
C1077 C 0.46658 0.79857 0.22425 0.0
H1078 H 0.49296 0.78244 0.20694 0.0
H1079 H 0.43857 0.7425 0.22111 0.0
C1080 C 0.45997 0.65735 0.20603 0.0
N1081 N 0.45325 0.67485 0.19374 0.0
C1082 C 0.44542 0.64055 0.21113 0.0
C1083 C 0.41725 0.66031 0.19112 0.0
C1084 C 0.43241 0.67658 0.18619 0.0
C1085 C 0.42362 0.64202 0.20391 0.0
H1086 H 0.47655 0.65662 0.21221 0.0
H1087 H 0.42739 0.69092 0.17691 0.0
C1088 C 0.52756 0.74943 0.18293 0.0
N1089 N 0.56989 0.76464 0.18482 0.0
C1090 C 0.54044 0.74965 0.16336 0.0
C1091 C 0.53611 0.75713 0.20341 0.0
C1092 C 0.56183 0.75737 0.16467 0.0
C1093 C 0.55758 0.76468 0.20403 0.0
C1094 C 0.49875 0.67084 0.1678 0.0
C1095 C 0.51249 0.6569 0.17995 0.0
C1096 C 0.48343 0.66208 0.15277 0.0
C1097 C 0.51056 0.63439 0.17697 0.0
C1098 C 0.48198 0.63949 0.15031 0.0
N1099 N 0.49545 0.62622 0.16236 0.0
C1100 C 0.53679 0.69466 0.22984 0.0
C1101 C 0.55523 0.70244 0.19537 0.0
C1102 C 0.55522 0.68427 0.23845 0.0
N1103 N 0.53701 0.70316 0.20853 0.0
C1104 C 0.5742 0.69255 0.2035 0.0
C1105 C 0.57404 0.68284 0.22504 0.0
H1106 H 0.52193 0.6949 0.23969 0.0
H1107 H 0.55471 0.70851 0.17816 0.0
C1108 C 0.49103 0.74946 0.1231 0.0
N1109 N 0.4929 0.72847 0.13022 0.0
C1110 C 0.49191 0.7544 0.09997 0.0
C1111 C 0.49734 0.71611 0.09206 0.0
C1112 C 0.49629 0.71192 0.11531 0.0
C1113 C 0.49491 0.73756 0.08409 0.0
H1114 H 0.48852 0.7623 0.1354 0.0
H1115 H 0.49808 0.69544 0.12146 0.0
O1116 O 0.48532 0.70989 0.21728 0.0
O1117 O 0.45993 0.72435 0.17499 0.0
O1118 O 0.50663 0.74186 0.18202 0.0
O1119 O 0.50021 0.69292 0.17066 0.0
H1120 H 0.44804 0.69696 0.23554 0.0
H1121 H 0.50542 0.73604 0.24621 0.0
H1122 H 0.43451 0.70839 0.27342 0.0
H1123 H 0.49081 0.74691 0.28386 0.0
H1124 H 0.4265 0.71913 0.10634 0.0
H1125 H 0.45019 0.76611 0.16977 0.0
H1126 H 0.44539 0.70248 0.13933 0.0
H1127 H 0.43112 0.78161 0.13632 0.0
H1128 H 0.41968 0.77273 0.23991 0.0
H1129 H 0.47471 0.81423 0.22402 0.0
H1130 H 0.45115 0.62671 0.22084 0.0
H1131 H 0.40055 0.66244 0.18563 0.0
H1132 H 0.53407 0.74375 0.14737 0.0
H1133 H 0.5263 0.75717 0.21867 0.0
H1134 H 0.57203 0.75754 0.14969 0.0
H1135 H 0.56446 0.77058 0.21979 0.0
H1136 H 0.52445 0.66333 0.19164 0.0
H1137 H 0.47256 0.67262 0.14335 0.0
H1138 H 0.52103 0.62341 0.18632 0.0
H1139 H 0.47009 0.63249 0.13887 0.0
H1140 H 0.55456 0.67674 0.25508 0.0
H1141 H 0.58837 0.69134 0.1926 0.0
H1142 H 0.48979 0.77113 0.09457 0.0
H1143 H 0.50009 0.7027 0.08045 0.0
Li1144 Li 0.75686 0.47759 0.704 0.0
Li1145 Li 0.79433 0.46788 0.69492 0.0
Li1146 Li 0.78444 0.50668 0.70002 0.0
Li1147 Li 0.77389 0.48647 0.66599 0.0
C1148 C 0.77837 0.48864 0.74457 0.0
N1149 N 0.76858 0.50129 0.78847 0.0
C1150 C 0.7864 0.47675 0.76302 0.0
C1151 C 0.76564 0.50713 0.7485 0.0
C1152 C 0.78118 0.48335 0.78507 0.0
C1153 C 0.76081 0.51323 0.77078 0.0
C1154 C 0.77219 0.43589 0.67805 0.0
C1155 C 0.79089 0.4062 0.65956 0.0
N1156 N 0.78341 0.39233 0.6758 0.0
C1157 C 0.76458 0.42131 0.69446 0.0
C1158 C 0.78534 0.42827 0.66036 0.0
C1159 C 0.77047 0.39936 0.69306 0.0
C1160 C 0.7116 0.47025 0.7085 0.0
N1161 N 0.73127 0.46752 0.71875 0.0
C1162 C 0.71509 0.44605 0.74806 0.0
C1163 C 0.73329 0.45587 0.73826 0.0
C1164 C 0.69464 0.44812 0.7376 0.0
C1165 C 0.69291 0.46076 0.71779 0.0
H1166 H 0.71057 0.47924 0.69274 0.0
H1167 H 0.74918 0.4534 0.74571 0.0
C1168 C 0.83359 0.44354 0.68784 0.0
N1169 N 0.81584 0.44642 0.70131 0.0
C1170 C 0.84895 0.42749 0.69307 0.0
C1171 C 0.82763 0.41803 0.72615 0.0
C1172 C 0.81259 0.43403 0.7201 0.0
C1173 C 0.84614 0.41449 0.71254 0.0
H1174 H 0.83581 0.45362 0.673 0.0
H1175 H 0.7982 0.43655 0.73035 0.0
C1176 C 0.74199 0.52302 0.68637 0.0
N1177 N 0.715 0.55915 0.68696 0.0
C1178 C 0.74284 0.53828 0.66877 0.0
C1179 C 0.72705 0.52597 0.70405 0.0
C1180 C 0.72919 0.55649 0.66944 0.0
C1181 C 0.71365 0.54437 0.70412 0.0
C1182 C 0.8146 0.50054 0.6581 0.0
C1183 C 0.82016 0.52255 0.65608 0.0
C1184 C 0.82005 0.48605 0.64068 0.0
C1185 C 0.83086 0.52975 0.63653 0.0
C1186 C 0.83071 0.49389 0.62137 0.0
N1187 N 0.83584 0.51539 0.61971 0.0
C1188 C 0.81161 0.53078 0.7274 0.0
C1189 C 0.78985 0.55347 0.70402 0.0
C1190 C 0.82281 0.54878 0.73581 0.0
N1191 N 0.7956 0.53337 0.71171 0.0
C1192 C 0.80081 0.572 0.71185 0.0
C1193 C 0.81783 0.56971 0.72765 0.0
H1194 H 0.81608 0.5146 0.73296 0.0
H1195 H 0.77747 0.55512 0.69116 0.0
C1196 C 0.75973 0.47082 0.62352 0.0
N1197 N 0.76833 0.48851 0.63416 0.0
C1198 C 0.756 0.4712 0.60015 0.0
C1199 C 0.76949 0.5082 0.59916 0.0
C1200 C 0.77311 0.50705 0.62252 0.0
C1201 C 0.76094 0.49007 0.58768 0.0
H1202 H 0.7558 0.45638 0.63319 0.0
H1203 H 0.78004 0.52086 0.63128 0.0
O1204 O 0.78331 0.48234 0.72285 0.0
O1205 O 0.76716 0.45758 0.67953 0.0
O1206 O 0.75496 0.50484 0.68574 0.0
O1207 O 0.80402 0.49323 0.67709 0.0
H1208 H 0.79653 0.46256 0.76038 0.0
H1209 H 0.75989 0.51687 0.73452 0.0
H1210 H 0.7872 0.47422 0.79949 0.0
H1211 H 0.75096 0.52752 0.77402 0.0
H1212 H 0.80117 0.40012 0.64606 0.0
H1213 H 0.75442 0.4269 0.70827 0.0
H1214 H 0.79138 0.43931 0.64751 0.0
H1215 H 0.7648 0.38793 0.70573 0.0
H1216 H 0.71709 0.4365 0.76339 0.0
H1217 H 0.67748 0.4625 0.70904 0.0
H1218 H 0.86275 0.42518 0.68186 0.0
H1219 H 0.82487 0.40874 0.74151 0.0
H1220 H 0.7541 0.53627 0.65487 0.0
H1221 H 0.72566 0.51413 0.71757 0.0
H1222 H 0.72986 0.5685 0.65601 0.0
H1223 H 0.70211 0.54687 0.71776 0.0
H1224 H 0.81623 0.53399 0.66942 0.0
H1225 H 0.81579 0.46901 0.64186 0.0
H1226 H 0.83518 0.54675 0.63471 0.0
H1227 H 0.83484 0.48288 0.60768 0.0
H1228 H 0.83556 0.54627 0.74825 0.0
H1229 H 0.79663 0.58779 0.70488 0.0
H1230 H 0.74912 0.45698 0.59194 0.0
H1231 H 0.7737 0.52298 0.5901 0.0
Li1232 Li 0.03036 0.79028 0.1923 0.0
Li1233 Li 0.01773 0.75312 0.19855 0.0
Li1234 Li 0.01051 0.77137 0.16223 0.0
Li1235 Li 0.99101 0.78225 0.1966 0.0
C1236 C 0.05868 0.76574 0.16529 0.0
N1237 N 0.09869 0.77068 0.14439 0.0
C1238 C 0.07633 0.75278 0.17186 0.0
C1239 C 0.06134 0.78109 0.14799 0.0
C1240 C 0.09644 0.75557 0.16112 0.0
C1241 C 0.0817 0.78337 0.13765 0.0
C1242 C 0.02903 0.77721 0.23734 0.0
C1243 C 0.03796 0.78401 0.2766 0.0
N1244 N 0.05786 0.77477 0.27331 0.0
C1245 C 0.04956 0.76776 0.23438 0.0
C1246 C 0.02315 0.78538 0.25863 0.0
C1247 C 0.06391 0.76668 0.25275 0.0
C1248 C 0.04527 0.83255 0.2016 0.0
N1249 N 0.05206 0.8116 0.199 0.0
C1250 C 0.08873 0.82181 0.20761 0.0
C1251 C 0.07332 0.80601 0.20194 0.0
C1252 C 0.08221 0.84359 0.21043 0.0
C1253 C 0.06014 0.8489 0.2073 0.0
H1254 H 0.02822 0.83651 0.19942 0.0
H1255 H 0.07833 0.78924 0.20036 0.0
C1256 C 0.03654 0.7118 0.19831 0.0
N1257 N 0.02542 0.72594 0.21175 0.0
C1258 C 0.04526 0.69273 0.20745 0.0
C1259 C 0.03009 0.70267 0.24391 0.0
C1260 C 0.0216 0.72155 0.23403 0.0
C1261 C 0.04249 0.68821 0.23067 0.0
H1262 H 0.03934 0.71578 0.18066 0.0
H1263 H 0.01265 0.73306 0.24433 0.0
C1264 C 0.00092 0.81688 0.15884 0.0
N1265 N 0.99111 0.84914 0.12772 0.0
C1266 C 0.97921 0.82203 0.15404 0.0
C1267 C 0.01764 0.82846 0.14813 0.0
C1268 C 0.97458 0.83829 0.13816 0.0
C1269 C 0.01235 0.84462 0.13236 0.0
C1270 C 0.97506 0.74016 0.19123 0.0
C1271 C 0.9632 0.72504 0.17851 0.0
C1272 C 0.97177 0.74154 0.21468 0.0
C1273 C 0.94823 0.71149 0.18948 0.0
C1274 C 0.95666 0.72771 0.22502 0.0
N1275 N 0.9453 0.71309 0.21231 0.0
C1276 C 0.023 0.75311 0.12043 0.0
C1277 C 0.99266 0.77684 0.11773 0.0
C1278 C 0.02281 0.74975 0.09701 0.0
N1279 N 0.0084 0.76688 0.13023 0.0
C1280 C 0.99179 0.77387 0.09423 0.0
C1281 C 0.00719 0.76037 0.08356 0.0
H1282 H 0.03486 0.74473 0.13081 0.0
H1283 H 0.98072 0.78704 0.12596 0.0
C1284 C 0.96647 0.80779 0.22598 0.0
N1285 N 0.96471 0.79401 0.20805 0.0
C1286 C 0.9481 0.8185 0.23432 0.0
C1287 C 0.92637 0.80043 0.20568 0.0
C1288 C 0.94519 0.78991 0.198 0.0
C1289 C 0.92777 0.81512 0.22393 0.0
H1290 H 0.98229 0.81093 0.23337 0.0
H1291 H 0.94435 0.77895 0.18363 0.0
O1292 O 0.03894 0.76335 0.17581 0.0
O1293 O 0.01466 0.77846 0.21962 0.0
O1294 O 0.00573 0.80117 0.17454 0.0
O1295 O 0.98979 0.75347 0.18065 0.0
H1296 H 0.07456 0.74082 0.18524 0.0
H1297 H 0.04778 0.79096 0.14247 0.0
H1298 H 0.11027 0.74573 0.1661 0.0
H1299 H 0.08398 0.79519 0.12423 0.0
H1300 H 0.03362 0.79028 0.29316 0.0
H1301 H 0.05436 0.76121 0.21811 0.0
H1302 H 0.00728 0.79267 0.26126 0.0
H1303 H 0.07984 0.7594 0.25067 0.0
H1304 H 0.10548 0.8169 0.21034 0.0
H1305 H 0.05444 0.8655 0.20921 0.0
H1306 H 0.05493 0.68218 0.19669 0.0
H1307 H 0.02741 0.69968 0.26182 0.0
H1308 H 0.96606 0.81339 0.1623 0.0
H1309 H 0.03453 0.82518 0.1521 0.0
H1310 H 0.95785 0.8423 0.13415 0.0
H1311 H 0.02513 0.85364 0.1239 0.0
H1312 H 0.96557 0.72378 0.16034 0.0
H1313 H 0.98074 0.75316 0.22483 0.0
H1314 H 0.93894 0.6997 0.17984 0.0
H1315 H 0.95396 0.7286 0.24315 0.0
H1316 H 0.03463 0.73877 0.08954 0.0
H1317 H 0.97942 0.7823 0.08448 0.0
H1318 H 0.94996 0.82998 0.24816 0.0
H1319 H 0.91098 0.79738 0.19726 0.0
Li1320 Li 0.70643 0.02755 0.69195 0.0
Li1321 Li 0.74405 0.01597 0.69673 0.0
Li1322 Li 0.72517 0.00827 0.66117 0.0
Li1323 Li 0.71568 0.98845 0.69584 0.0
C1324 C 0.72798 0.05536 0.66189 0.0
N1325 N 0.71877 0.09224 0.63675 0.0
C1326 C 0.74003 0.07442 0.66521 0.0
C1327 C 0.7113 0.05503 0.64576 0.0
C1328 C 0.7351 0.09291 0.65235 0.0
C1329 C 0.70688 0.07384 0.63321 0.0
C1330 C 0.72128 0.02658 0.73637 0.0
C1331 C 0.71631 0.0353 0.77596 0.0
N1332 N 0.72467 0.05551 0.77216 0.0
C1333 C 0.72986 0.04742 0.73287 0.0
C1334 C 0.71448 0.02044 0.75809 0.0
C1335 C 0.73143 0.06181 0.75117 0.0
C1336 C 0.66427 0.0415 0.70372 0.0
N1337 N 0.68483 0.0487 0.69947 0.0
C1338 C 0.67418 0.08541 0.70723 0.0
C1339 C 0.69002 0.07017 0.7012 0.0
C1340 C 0.65275 0.0785 0.71162 0.0
C1341 C 0.64788 0.05619 0.70978 0.0
H1342 H 0.66065 0.02429 0.70246 0.0
H1343 H 0.70655 0.07551 0.6983 0.0
C1344 C 0.78371 0.03802 0.69622 0.0
N1345 N 0.77129 0.02458 0.70918 0.0
C1346 C 0.80264 0.04728 0.70508 0.0
C1347 C 0.79623 0.02783 0.74015 0.0
C1348 C 0.77727 0.0191 0.73066 0.0
C1349 C 0.80899 0.0425 0.72749 0.0
H1350 H 0.77848 0.04213 0.67921 0.0
H1351 H 0.767 0.0085 0.74068 0.0
C1352 C 0.67907 0.99672 0.66033 0.0
N1353 N 0.64457 0.98444 0.63298 0.0
C1354 C 0.67533 0.9747 0.65567 0.0
C1355 C 0.66503 0.01247 0.65136 0.0
C1356 C 0.65788 0.96882 0.64172 0.0
C1357 C 0.64775 0.00594 0.63749 0.0
C1358 C 0.75816 0.9737 0.68896 0.0
C1359 C 0.77376 0.96303 0.67573 0.0
C1360 C 0.75716 0.96965 0.7123 0.0
C1361 C 0.78816 0.94846 0.68609 0.0
C1362 C 0.77185 0.95497 0.72202 0.0
N1363 N 0.78692 0.94476 0.70883 0.0
C1364 C 0.74386 0.02004 0.61948 0.0
C1365 C 0.71809 0.99145 0.61633 0.0
C1366 C 0.74724 0.01992 0.59606 0.0
N1367 N 0.72916 0.00625 0.62907 0.0
C1368 C 0.72105 0.99068 0.59282 0.0
C1369 C 0.73563 0.00521 0.58239 0.0
H1370 H 0.75296 0.03122 0.63004 0.0
H1371 H 0.70701 0.9802 0.62434 0.0
C1372 C 0.69132 0.96337 0.72583 0.0
N1373 N 0.70485 0.96186 0.70765 0.0
C1374 C 0.68111 0.94481 0.73438 0.0
C1375 C 0.6992 0.92338 0.7055 0.0
C1376 C 0.70925 0.94238 0.69763 0.0
C1377 C 0.68471 0.92454 0.72394 0.0
H1378 H 0.68797 0.97915 0.73324 0.0
H1379 H 0.72001 0.94173 0.68309 0.0
O1380 O 0.73248 0.0372 0.67455 0.0
O1381 O 0.71962 0.01212 0.71875 0.0
O1382 O 0.69586 0.00274 0.6743 0.0
O1383 O 0.74402 0.98804 0.67898 0.0
H1384 H 0.75292 0.07499 0.67774 0.0
H1385 H 0.70201 0.04037 0.64281 0.0
H1386 H 0.74424 0.1078 0.6548 0.0
H1387 H 0.69403 0.07379 0.62064 0.0
H1388 H 0.71109 0.03077 0.79286 0.0
H1389 H 0.73535 0.05245 0.71625 0.0
H1390 H 0.70789 0.00434 0.76111 0.0
H1391 H 0.73804 0.07798 0.74869 0.0
H1392 H 0.67879 0.10237 0.70893 0.0
H1393 H 0.63156 0.05017 0.71291 0.0
H1394 H 0.81167 0.05875 0.69476 0.0
H1395 H 0.80061 0.02344 0.75737 0.0
H1396 H 0.68594 0.96228 0.6625 0.0
H1397 H 0.6673 0.02956 0.65518 0.0
H1398 H 0.65492 0.95184 0.63784 0.0
H1399 H 0.63681 0.01797 0.63039 0.0
H1400 H 0.77474 0.96601 0.65764 0.0
H1401 H 0.74521 0.97772 0.72284 0.0
H1402 H 0.80033 0.94009 0.67606 0.0
H1403 H 0.77127 0.95169 0.74006 0.0
H1404 H 0.75898 0.03108 0.58875 0.0
H1405 H 0.7118 0.97905 0.58289 0.0
H1406 H 0.66979 0.94647 0.74838 0.0
H1407 H 0.70241 0.90804 0.69705 0.0
C1408 C 0.38355 0.1735 0.22466 0.0
C1409 C 0.40478 0.16802 0.23127 0.0
C1410 C 0.36578 0.16047 0.23118 0.0
C1411 C 0.36945 0.14188 0.24493 0.0
C1412 C 0.39082 0.13694 0.25243 0.0
C1413 C 0.40826 0.14996 0.2453 0.0
C1414 C 0.34329 0.16603 0.22257 0.0
C1415 C 0.39538 0.11751 0.26745 0.0
C1416 C 0.32471 0.11269 0.27732 0.0
C1417 C 0.32245 0.09349 0.26453 0.0
C1418 C 0.33919 0.12919 0.27059 0.0
C1419 C 0.35137 0.12662 0.25037 0.0
C1420 C 0.34798 0.10808 0.23654 0.0
C1421 C 0.33375 0.09166 0.24388 0.0
C1422 C 0.34244 0.14869 0.28585 0.0
C1423 C 0.3604 0.1049 0.21464 0.0
H1424 H 0.38099 0.18746 0.2137 0.0
H1425 H 0.42474 0.14593 0.25049 0.0
H1426 H 0.33778 0.15323 0.21055 0.0
H1427 H 0.33144 0.1664 0.23679 0.0
H1428 H 0.3429 0.18201 0.21371 0.0
H1429 H 0.41262 0.11694 0.27318 0.0
H1430 H 0.38467 0.11789 0.28263 0.0
H1431 H 0.39173 0.10225 0.25808 0.0
H1432 H 0.3157 0.11453 0.29302 0.0
H1433 H 0.33242 0.07687 0.23392 0.0
H1434 H 0.34186 0.16401 0.27589 0.0
H1435 H 0.35879 0.14776 0.29385 0.0
H1436 H 0.32998 0.14953 0.29952 0.0
H1437 H 0.35982 0.11993 0.20419 0.0
H1438 H 0.35386 0.09114 0.20445 0.0
H1439 H 0.37778 0.10152 0.2185 0.0
C1440 C 0.32383 0.38887 0.7403 0.0
C1441 C 0.33263 0.40314 0.72408 0.0
C1442 C 0.33602 0.37121 0.74865 0.0
C1443 C 0.35759 0.36795 0.74081 0.0
C1444 C 0.36622 0.38176 0.72379 0.0
C1445 C 0.35358 0.39903 0.7155 0.0
C1446 C 0.32616 0.35662 0.76654 0.0
C1447 C 0.38919 0.37891 0.71503 0.0
C1448 C 0.40008 0.3429 0.77941 0.0
C1449 C 0.40322 0.32239 0.76943 0.0
C1450 C 0.3847 0.35755 0.77073 0.0
C1451 C 0.37194 0.35148 0.75173 0.0
C1452 C 0.37433 0.33042 0.74219 0.0
C1453 C 0.39012 0.31617 0.75104 0.0
C1454 C 0.38289 0.37996 0.78121 0.0
C1455 C 0.36073 0.32324 0.72219 0.0
H1456 H 0.30772 0.39194 0.74712 0.0
H1457 H 0.3603 0.40961 0.70254 0.0
H1458 H 0.32871 0.33923 0.76209 0.0
H1459 H 0.33434 0.35953 0.78306 0.0
H1460 H 0.30841 0.35957 0.76871 0.0
H1461 H 0.39305 0.39033 0.70096 0.0
H1462 H 0.40096 0.38174 0.72904 0.0
H1463 H 0.39167 0.362 0.70892 0.0
H1464 H 0.41041 0.3479 0.79341 0.0
H1465 H 0.39245 0.30026 0.74339 0.0
H1466 H 0.36572 0.38351 0.78577 0.0
H1467 H 0.38809 0.39244 0.76868 0.0
H1468 H 0.39311 0.38168 0.79667 0.0
H1469 H 0.34322 0.32655 0.72543 0.0
H1470 H 0.36278 0.30561 0.71844 0.0
H1471 H 0.36547 0.33267 0.70691 0.0
C1472 C 0.11039 0.31847 0.24647 0.0
C1473 C 0.09756 0.32587 0.22833 0.0
C1474 C 0.12712 0.3315 0.25547 0.0
C1475 C 0.13087 0.35248 0.24626 0.0
C1476 C 0.11851 0.35966 0.22739 0.0
C1477 C 0.10207 0.34624 0.21862 0.0
C1478 C 0.14019 0.32317 0.27538 0.0
C1479 C 0.12186 0.382 0.21719 0.0
C1480 C 0.15215 0.39832 0.28314 0.0
C1481 C 0.17339 0.40096 0.27482 0.0
C1482 C 0.13846 0.38197 0.27463 0.0
C1483 C 0.14624 0.36781 0.25747 0.0
C1484 C 0.16802 0.3697 0.24977 0.0
C1485 C 0.18132 0.38637 0.25845 0.0
C1486 C 0.11527 0.38063 0.28317 0.0
C1487 C 0.17698 0.35469 0.23174 0.0
H1488 H 0.10707 0.30264 0.25388 0.0
H1489 H 0.09201 0.35217 0.2048 0.0
H1490 H 0.15788 0.32543 0.27225 0.0
H1491 H 0.13598 0.33266 0.2908 0.0
H1492 H 0.13701 0.30566 0.27883 0.0
H1493 H 0.1119 0.38454 0.20166 0.0
H1494 H 0.11738 0.39466 0.22982 0.0
H1495 H 0.13927 0.38447 0.21281 0.0
H1496 H 0.14583 0.40972 0.29557 0.0
H1497 H 0.19782 0.38824 0.25215 0.0
H1498 H 0.11145 0.36377 0.28869 0.0
H1499 H 0.10386 0.3848 0.26922 0.0
H1500 H 0.11222 0.39187 0.29761 0.0
H1501 H 0.17344 0.33745 0.23607 0.0
H1502 H 0.19485 0.35663 0.22951 0.0
H1503 H 0.16891 0.35818 0.21527 0.0
C1504 C 0.14524 0.0929 0.72831 0.0
C1505 C 0.16803 0.09368 0.72891 0.0
C1506 C 0.13271 0.11052 0.73585 0.0
C1507 C 0.14325 0.12929 0.74452 0.0
C1508 C 0.16632 0.13041 0.74462 0.0
C1509 C 0.1785 0.11257 0.73661 0.0
C1510 C 0.10815 0.10879 0.73509 0.0
C1511 C 0.1781 0.15004 0.75399 0.0
C1512 C 0.10562 0.17802 0.74948 0.0
C1513 C 0.09743 0.17532 0.77156 0.0
C1514 C 0.12165 0.16396 0.74079 0.0
C1515 C 0.12985 0.14699 0.75463 0.0
C1516 C 0.12289 0.14524 0.77747 0.0
C1517 C 0.10667 0.1593 0.7856 0.0
C1518 C 0.12865 0.16636 0.71635 0.0
C1519 C 0.13144 0.12751 0.79287 0.0
H1520 H 0.13721 0.07832 0.72209 0.0
H1521 H 0.19615 0.11307 0.7371 0.0
H1522 H 0.10152 0.10892 0.75262 0.0
H1523 H 0.10115 0.12301 0.72604 0.0
H1524 H 0.10257 0.09366 0.7265 0.0
H1525 H 0.19596 0.14917 0.75104 0.0
H1526 H 0.17173 0.1652 0.74617 0.0
H1527 H 0.17513 0.15122 0.77253 0.0
H1528 H 0.09894 0.19064 0.73865 0.0
H1529 H 0.10037 0.15685 0.8026 0.0
H1530 H 0.12165 0.15283 0.70619 0.0
H1531 H 0.14664 0.16531 0.71485 0.0
H1532 H 0.12312 0.18204 0.70887 0.0
H1533 H 0.12477 0.11155 0.78738 0.0
H1534 H 0.12676 0.13022 0.81088 0.0
H1535 H 0.14946 0.12649 0.79178 0.0
C1536 C 0.58536 0.85529 0.76213 0.0
C1537 C 0.58803 0.83291 0.76611 0.0
C1538 C 0.60287 0.86832 0.75521 0.0
C1539 C 0.62373 0.85884 0.75243 0.0
C1540 C 0.62667 0.83631 0.75661 0.0
C1541 C 0.60875 0.82357 0.76337 0.0
C1542 C 0.59903 0.8923 0.75094 0.0
C1543 C 0.64872 0.82569 0.75392 0.0
C1544 C 0.66106 0.89249 0.71506 0.0
C1545 C 0.67195 0.90524 0.73123 0.0
C1546 C 0.6462 0.87633 0.72175 0.0
C1547 C 0.64227 0.87279 0.74515 0.0
C1548 C 0.6543 0.88465 0.76154 0.0
C1549 C 0.66893 0.90082 0.75437 0.0
C1550 C 0.63363 0.86412 0.70375 0.0
C1551 C 0.65078 0.88117 0.78665 0.0
H1552 H 0.56955 0.86277 0.76473 0.0
H1553 H 0.61092 0.80627 0.76628 0.0
H1554 H 0.60933 0.90218 0.7625 0.0
H1555 H 0.60378 0.89651 0.73329 0.0
H1556 H 0.58173 0.89705 0.75351 0.0
H1557 H 0.64836 0.80805 0.75815 0.0
H1558 H 0.65452 0.82761 0.73619 0.0
H1559 H 0.66078 0.83386 0.76508 0.0
H1560 H 0.6632 0.89597 0.69715 0.0
H1561 H 0.67755 0.91047 0.7669 0.0
H1562 H 0.6164 0.86962 0.70386 0.0
H1563 H 0.63365 0.84638 0.70736 0.0
H1564 H 0.64041 0.86682 0.68649 0.0
H1565 H 0.63451 0.88752 0.79155 0.0
H1566 H 0.66331 0.88958 0.79707 0.0
H1567 H 0.65104 0.86353 0.79078 0.0
C1568 C 0.58884 0.64693 0.23658 0.0
C1569 C 0.59243 0.6691 0.23249 0.0
C1570 C 0.60592 0.63327 0.24334 0.0
C1571 C 0.627 0.64214 0.24658 0.0
C1572 C 0.6307 0.66461 0.24253 0.0
C1573 C 0.61335 0.67782 0.23521 0.0
C1574 C 0.60137 0.60932 0.24702 0.0
C1575 C 0.65283 0.6747 0.24632 0.0
C1576 C 0.66116 0.60681 0.28536 0.0
C1577 C 0.67341 0.59459 0.26972 0.0
C1578 C 0.64717 0.62349 0.27813 0.0
C1579 C 0.64488 0.62774 0.25465 0.0
C1580 C 0.65792 0.61628 0.23883 0.0
C1581 C 0.67223 0.60005 0.24659 0.0
C1582 C 0.63385 0.63567 0.29558 0.0
C1583 C 0.65577 0.62015 0.21361 0.0
H1584 H 0.57265 0.64023 0.23417 0.0
H1585 H 0.61599 0.69502 0.23201 0.0
H1586 H 0.61253 0.59934 0.23644 0.0
H1587 H 0.60444 0.60496 0.26501 0.0
H1588 H 0.5843 0.60488 0.24275 0.0
H1589 H 0.65306 0.69235 0.24214 0.0
H1590 H 0.65772 0.67261 0.26433 0.0
H1591 H 0.66525 0.6663 0.2358 0.0
H1592 H 0.6616 0.6027 0.30324 0.0
H1593 H 0.682 0.59116 0.23437 0.0
H1594 H 0.61661 0.63029 0.29463 0.0
H1595 H 0.63418 0.65344 0.29212 0.0
H1596 H 0.63984 0.63279 0.31313 0.0
H1597 H 0.63959 0.61432 0.20779 0.0
H1598 H 0.66857 0.61153 0.20374 0.0
H1599 H 0.6567 0.63781 0.20974 0.0
C1600 C 0.89894 0.66978 0.74619 0.0
C1601 C 0.90515 0.67107 0.76906 0.0
C1602 C 0.88216 0.65574 0.73927 0.0
C1603 C 0.87153 0.64257 0.75561 0.0
C1604 C 0.87674 0.64491 0.7789 0.0
C1605 C 0.89348 0.65919 0.78536 0.0
C1606 C 0.87687 0.65393 0.71431 0.0
C1607 C 0.86585 0.63111 0.79683 0.0
C1608 C 0.82177 0.60901 0.73922 0.0
C1609 C 0.83129 0.58869 0.73461 0.0
C1610 C 0.83463 0.62687 0.74592 0.0
C1611 C 0.85745 0.62424 0.7481 0.0
C1612 C 0.86713 0.60382 0.74329 0.0
C1613 C 0.85396 0.58638 0.73649 0.0
C1614 C 0.82381 0.64846 0.75079 0.0
C1615 C 0.89143 0.60032 0.74538 0.0
H1616 H 0.90775 0.67919 0.73359 0.0
H1617 H 0.89833 0.66 0.80304 0.0
H1618 H 0.88327 0.63827 0.70764 0.0
H1619 H 0.85898 0.65395 0.7116 0.0
H1620 H 0.88418 0.66743 0.7043 0.0
H1621 H 0.86956 0.63692 0.81428 0.0
H1622 H 0.84792 0.63102 0.79445 0.0
H1623 H 0.87158 0.61402 0.79525 0.0
H1624 H 0.80425 0.61088 0.73791 0.0
H1625 H 0.86152 0.5709 0.73242 0.0
H1626 H 0.83115 0.66141 0.74009 0.0
H1627 H 0.82661 0.65311 0.76876 0.0
H1628 H 0.80597 0.64801 0.7476 0.0
H1629 H 0.90023 0.61162 0.73387 0.0
H1630 H 0.89633 0.58336 0.74117 0.0
H1631 H 0.89682 0.60398 0.76295 0.0
C1632 C 0.85842 0.91515 0.26105 0.0
C1633 C 0.83611 0.91228 0.26533 0.0
C1634 C 0.87158 0.89768 0.25424 0.0
C1635 C 0.8623 0.87669 0.25188 0.0
C1636 C 0.83984 0.87356 0.25633 0.0
C1637 C 0.82698 0.89142 0.26297 0.0
C1638 C 0.89548 0.90171 0.24968 0.0
C1639 C 0.82944 0.85138 0.25406 0.0
C1640 C 0.89582 0.83889 0.21488 0.0
C1641 C 0.90866 0.82821 0.23114 0.0
C1642 C 0.87973 0.85387 0.22144 0.0
C1643 C 0.87637 0.85817 0.2448 0.0
C1644 C 0.88836 0.84644 0.2613 0.0
C1645 C 0.90443 0.83164 0.25426 0.0
C1646 C 0.86734 0.86612 0.20333 0.0
C1647 C 0.88509 0.85039 0.28638 0.0
H1648 H 0.86574 0.93108 0.26332 0.0
H1649 H 0.80973 0.88911 0.2661 0.0
H1650 H 0.90557 0.89168 0.2613 0.0
H1651 H 0.89959 0.89676 0.23207 0.0
H1652 H 0.90006 0.91909 0.25194 0.0
H1653 H 0.81181 0.85162 0.25839 0.0
H1654 H 0.83131 0.84533 0.23642 0.0
H1655 H 0.83779 0.83956 0.26536 0.0
H1656 H 0.89915 0.83643 0.19699 0.0
H1657 H 0.91413 0.82317 0.26687 0.0
H1658 H 0.87271 0.88339 0.20316 0.0
H1659 H 0.84962 0.866 0.20704 0.0
H1660 H 0.87001 0.85913 0.18615 0.0
H1661 H 0.89127 0.86682 0.29087 0.0
H1662 H 0.89376 0.83816 0.29696 0.0
H1663 H 0.86749 0.84998 0.2907 0.0
C1664 C 0.56421 0.33922 0.23123 0.0
C1665 C 0.55369 0.32481 0.24612 0.0
C1666 C 0.57745 0.35609 0.23947 0.0
C1667 C 0.58023 0.35863 0.26319 0.0
C1668 C 0.56908 0.3446 0.27833 0.0
C1669 C 0.55597 0.32783 0.26961 0.0
C1670 C 0.58913 0.37067 0.22277 0.0
C1671 C 0.57156 0.34688 0.30373 0.0
C1672 C 0.63299 0.38477 0.28282 0.0
C1673 C 0.62639 0.40621 0.28742 0.0
C1674 C 0.61806 0.36911 0.27518 0.0
C1675 C 0.59596 0.375 0.27204 0.0
C1676 C 0.58911 0.39655 0.27685 0.0
C1677 C 0.60443 0.41192 0.28445 0.0
C1678 C 0.62603 0.34632 0.27011 0.0
C1679 C 0.56566 0.40338 0.2738 0.0
H1680 H 0.56277 0.3368 0.21306 0.0
H1681 H 0.54766 0.31689 0.2812 0.0
H1682 H 0.58593 0.38804 0.22678 0.0
H1683 H 0.60698 0.36807 0.22414 0.0
H1684 H 0.5841 0.36749 0.20495 0.0
H1685 H 0.5606 0.33569 0.31319 0.0
H1686 H 0.58864 0.34331 0.30866 0.0
H1687 H 0.56802 0.36387 0.30903 0.0
H1688 H 0.64999 0.38033 0.28472 0.0
H1689 H 0.59921 0.42842 0.28819 0.0
H1690 H 0.62328 0.34245 0.25194 0.0
H1691 H 0.61669 0.33428 0.28024 0.0
H1692 H 0.64365 0.34426 0.27391 0.0
H1693 H 0.56081 0.40138 0.25577 0.0
H1694 H 0.56286 0.4206 0.27884 0.0
H1695 H 0.55484 0.39276 0.28406 0.0
C1696 C 0.15708 0.54554 0.74752 0.0
C1697 C 0.17878 0.55262 0.74872 0.0
C1698 C 0.14001 0.55856 0.75578 0.0
C1699 C 0.14478 0.57919 0.76534 0.0
C1700 C 0.16671 0.58611 0.76727 0.0
C1701 C 0.18344 0.57274 0.75894 0.0
C1702 C 0.11683 0.55058 0.75357 0.0
C1703 C 0.17246 0.60804 0.77725 0.0
C1704 C 0.10207 0.62377 0.76198 0.0
C1705 C 0.09405 0.62427 0.78428 0.0
C1706 C 0.11834 0.60896 0.75556 0.0
C1707 C 0.12682 0.59424 0.77183 0.0
C1708 C 0.11862 0.59443 0.7943 0.0
C1709 C 0.10235 0.6095 0.80028 0.0
C1710 C 0.12676 0.60936 0.73146 0.0
C1711 C 0.12719 0.5789 0.81206 0.0
H1712 H 0.15342 0.52991 0.73983 0.0
H1713 H 0.20015 0.57846 0.75961 0.0
H1714 H 0.10835 0.55164 0.77018 0.0
H1715 H 0.10782 0.56112 0.74149 0.0
H1716 H 0.11599 0.53349 0.74741 0.0
H1717 H 0.19035 0.61034 0.77896 0.0
H1718 H 0.16593 0.62118 0.76624 0.0
H1719 H 0.16486 0.60996 0.79422 0.0
H1720 H 0.09597 0.63536 0.74963 0.0
H1721 H 0.09605 0.60968 0.81748 0.0
H1722 H 0.12499 0.59302 0.72361 0.0
H1723 H 0.14438 0.61343 0.73142 0.0
H1724 H 0.11804 0.62144 0.72074 0.0
H1725 H 0.12547 0.56184 0.80608 0.0
H1726 H 0.11856 0.58062 0.82854 0.0
H1727 H 0.14482 0.58189 0.81486 0.0
C1728 C 0.86065 0.11978 0.27802 0.0
C1729 C 0.86771 0.0991 0.28483 0.0
C1730 C 0.87558 0.13553 0.27058 0.0
C1731 C 0.89814 0.13061 0.2705 0.0
C1732 C 0.90539 0.10989 0.27794 0.0
C1733 C 0.89001 0.09422 0.28473 0.0
C1734 C 0.86716 0.15726 0.26232 0.0
C1735 C 0.92933 0.10426 0.27866 0.0
C1736 C 0.93302 0.16448 0.23067 0.0
C1737 C 0.93998 0.1812 0.24511 0.0
C1738 C 0.91984 0.14751 0.23886 0.0
C1739 C 0.91398 0.14709 0.26213 0.0
C1740 C 0.92197 0.16339 0.27699 0.0
C1741 C 0.93464 0.18046 0.26821 0.0
C1742 C 0.91128 0.13072 0.22238 0.0
C1743 C 0.91653 0.16319 0.30199 0.0
H1744 H 0.84335 0.12339 0.27792 0.0
H1745 H 0.89539 0.0782 0.29012 0.0
H1746 H 0.87423 0.17063 0.27263 0.0
H1747 H 0.87229 0.15995 0.24447 0.0
H1748 H 0.8491 0.15838 0.26323 0.0
H1749 H 0.93232 0.08785 0.28599 0.0
H1750 H 0.93624 0.10472 0.26126 0.0
H1751 H 0.93827 0.11652 0.28891 0.0
H1752 H 0.93702 0.16527 0.21275 0.0
H1753 H 0.94012 0.19345 0.27931 0.0
H1754 H 0.89327 0.13209 0.22121 0.0
H1755 H 0.91503 0.11405 0.22851 0.0
H1756 H 0.91826 0.13271 0.2051 0.0
H1757 H 0.89891 0.16654 0.30436 0.0
H1758 H 0.92596 0.17559 0.31161 0.0
H1759 H 0.91989 0.14688 0.30934 0.0
C1760 C 0.32675 0.92058 0.73075 0.0
C1761 C 0.31713 0.93774 0.74282 0.0
C1762 C 0.34383 0.90843 0.74014 0.0
C1763 C 0.35132 0.91342 0.76227 0.0
C1764 C 0.34211 0.93116 0.77431 0.0
C1765 C 0.32515 0.94324 0.76435 0.0
C1766 C 0.35342 0.88984 0.72661 0.0
C1767 C 0.34959 0.93684 0.798 0.0
C1768 C 0.3769 0.86498 0.79185 0.0
C1769 C 0.39914 0.86877 0.78821 0.0
C1770 C 0.36119 0.88001 0.78454 0.0
C1771 C 0.36791 0.89915 0.77309 0.0
C1772 C 0.39041 0.90349 0.77019 0.0
C1773 C 0.40579 0.88825 0.77789 0.0
C1774 C 0.33737 0.87493 0.78822 0.0
C1775 C 0.39818 0.92363 0.7579 0.0
H1776 H 0.32072 0.91654 0.71396 0.0
H1777 H 0.31762 0.95646 0.77372 0.0
H1778 H 0.37139 0.89157 0.72552 0.0
H1779 H 0.34998 0.87416 0.73529 0.0
H1780 H 0.3467 0.88899 0.70911 0.0
H1781 H 0.34191 0.95205 0.80439 0.0
H1782 H 0.34543 0.92333 0.80976 0.0
H1783 H 0.36755 0.93882 0.79841 0.0
H1784 H 0.37177 0.85004 0.8001 0.0
H1785 H 0.423 0.89113 0.77494 0.0
H1786 H 0.32942 0.87175 0.77163 0.0
H1787 H 0.32897 0.88908 0.79604 0.0
H1788 H 0.33495 0.86046 0.79927 0.0
H1789 H 0.39361 0.92253 0.7397 0.0
H1790 H 0.41614 0.9257 0.75907 0.0
H1791 H 0.39019 0.93839 0.76491 0.0
C1792 C 0.58796 0.17421 0.77022 0.0
C1793 C 0.56693 0.17821 0.76186 0.0
C1794 C 0.6007 0.15713 0.76164 0.0
C1795 C 0.59217 0.1436 0.74433 0.0
C1796 C 0.57077 0.1472 0.73614 0.0
C1797 C 0.55838 0.16449 0.74501 0.0
C1798 C 0.62342 0.15379 0.77089 0.0
C1799 C 0.56114 0.13305 0.71773 0.0
C1800 C 0.63478 0.11505 0.70836 0.0
C1801 C 0.63587 0.09449 0.71872 0.0
C1802 C 0.62007 0.13093 0.71602 0.0
C1803 C 0.60605 0.12613 0.73445 0.0
C1804 C 0.6065 0.10515 0.74444 0.0
C1805 C 0.62143 0.08958 0.73648 0.0
C1806 C 0.62006 0.15311 0.70489 0.0
C1807 C 0.59178 0.09942 0.7641 0.0
H1808 H 0.59451 0.18447 0.78356 0.0
H1809 H 0.5422 0.16759 0.73838 0.0
H1810 H 0.62516 0.13697 0.77757 0.0
H1811 H 0.63554 0.15577 0.75706 0.0
H1812 H 0.62743 0.16546 0.78469 0.0
H1813 H 0.54392 0.13735 0.71397 0.0
H1814 H 0.57082 0.13478 0.70192 0.0
H1815 H 0.56188 0.11565 0.7228 0.0
H1816 H 0.64561 0.11881 0.69437 0.0
H1817 H 0.62231 0.07381 0.74471 0.0
H1818 H 0.62549 0.16559 0.71729 0.0
H1819 H 0.60331 0.15755 0.6995 0.0
H1820 H 0.63097 0.15378 0.68985 0.0
H1821 H 0.59638 0.10923 0.77918 0.0
H1822 H 0.59279 0.08188 0.76867 0.0
H1823 H 0.57461 0.10343 0.75995 0.0
C1824 C 0.3904 0.6193 0.19593 0.0
C1825 C 0.40727 0.62532 0.21076 0.0
C1826 C 0.37366 0.60527 0.20301 0.0
C1827 C 0.37395 0.59681 0.22537 0.0
C1828 C 0.39146 0.60195 0.24006 0.0
C1829 C 0.40781 0.61627 0.23265 0.0
C1830 C 0.35519 0.60026 0.18689 0.0
C1831 C 0.39244 0.59308 0.26396 0.0
C1832 C 0.31999 0.58336 0.25338 0.0
C1833 C 0.31901 0.56061 0.25109 0.0
C1834 C 0.33765 0.59528 0.24483 0.0
C1835 C 0.35502 0.58419 0.23405 0.0
C1836 C 0.35431 0.56122 0.23185 0.0
C1837 C 0.33625 0.5497 0.2403 0.0
C1838 C 0.33774 0.61978 0.24745 0.0
C1839 C 0.37267 0.54885 0.22066 0.0
H1840 H 0.39007 0.62585 0.17885 0.0
H1841 H 0.42056 0.62099 0.24438 0.0
H1842 H 0.35267 0.58241 0.18562 0.0
H1843 H 0.33985 0.60743 0.19353 0.0
H1844 H 0.35816 0.60686 0.1696 0.0
H1845 H 0.40822 0.59676 0.27238 0.0
H1846 H 0.37913 0.60031 0.27425 0.0
H1847 H 0.38999 0.57517 0.26389 0.0
H1848 H 0.30704 0.59192 0.26216 0.0
H1849 H 0.33556 0.53216 0.23827 0.0
H1850 H 0.3394 0.62765 0.23057 0.0
H1851 H 0.35194 0.6249 0.25781 0.0
H1852 H 0.32266 0.62596 0.25567 0.0
H1853 H 0.37483 0.55455 0.20292 0.0
H1854 H 0.36972 0.53098 0.22045 0.0
H1855 H 0.38818 0.55206 0.22974 0.0
C1856 C 0.88477 0.40092 0.71537 0.0
C1857 C 0.86237 0.39745 0.71879 0.0
C1858 C 0.9002 0.38518 0.72182 0.0
C1859 C 0.89311 0.36569 0.73233 0.0
C1860 C 0.87057 0.36201 0.7357 0.0
C1861 C 0.8555 0.37779 0.72866 0.0
C1862 C 0.92409 0.38949 0.7176 0.0
C1863 C 0.86237 0.3415 0.74703 0.0
C1864 C 0.92779 0.31456 0.73474 0.0
C1865 C 0.93578 0.31543 0.75701 0.0
C1866 C 0.91474 0.33139 0.72607 0.0
C1867 C 0.90917 0.3492 0.74022 0.0
C1868 C 0.91773 0.35041 0.76253 0.0
C1869 C 0.93113 0.33357 0.77059 0.0
C1870 C 0.90634 0.32976 0.70203 0.0
C1871 C 0.91185 0.36893 0.77826 0.0
H1872 H 0.89033 0.41612 0.70804 0.0
H1873 H 0.83825 0.37467 0.73091 0.0
H1874 H 0.9329 0.39049 0.73401 0.0
H1875 H 0.93136 0.37582 0.70786 0.0
H1876 H 0.92684 0.40488 0.70808 0.0
H1877 H 0.84433 0.34129 0.74871 0.0
H1878 H 0.86746 0.32699 0.73713 0.0
H1879 H 0.86964 0.33995 0.76421 0.0
H1880 H 0.93154 0.30054 0.72423 0.0
H1881 H 0.93716 0.33409 0.78788 0.0
H1882 H 0.90955 0.34515 0.69271 0.0
H1883 H 0.88844 0.32728 0.70224 0.0
H1884 H 0.91393 0.31605 0.69257 0.0
H1885 H 0.91539 0.38482 0.77007 0.0
H1886 H 0.92084 0.3681 0.79462 0.0
H1887 H 0.89411 0.3685 0.7819 0.0
C1888 C 0.09309 0.87563 0.23432 0.0
C1889 C 0.0983 0.8604 0.21739 0.0
C1890 C 0.10871 0.89048 0.24231 0.0
C1891 C 0.13004 0.89007 0.23315 0.0
C1892 C 0.13517 0.87527 0.2155 0.0
C1893 C 0.11924 0.86062 0.20784 0.0
C1894 C 0.10263 0.90602 0.26115 0.0
C1895 C 0.15772 0.87439 0.20525 0.0
C1896 C 0.16902 0.93727 0.24344 0.0
C1897 C 0.18198 0.929 0.26108 0.0
C1898 C 0.1518 0.92493 0.23435 0.0
C1899 C 0.14747 0.9039 0.24317 0.0
C1900 C 0.16022 0.89569 0.26128 0.0
C1901 C 0.17728 0.90834 0.27001 0.0
C1902 C 0.13854 0.9342 0.21505 0.0
C1903 C 0.15604 0.87339 0.27124 0.0
H1904 H 0.077 0.87542 0.24193 0.0
H1905 H 0.12325 0.84914 0.19448 0.0
H1906 H 0.11181 0.90176 0.27677 0.0
H1907 H 0.10719 0.92294 0.2565 0.0
H1908 H 0.08493 0.90556 0.26507 0.0
H1909 H 0.15865 0.86296 0.19064 0.0
H1910 H 0.16276 0.89083 0.19944 0.0
H1911 H 0.16962 0.86907 0.21831 0.0
H1912 H 0.17268 0.95316 0.23638 0.0
H1913 H 0.18699 0.90204 0.28392 0.0
H1914 H 0.12096 0.93404 0.21947 0.0
H1915 H 0.14059 0.92391 0.19971 0.0
H1916 H 0.14337 0.95117 0.2108 0.0
H1917 H 0.13895 0.87223 0.27727 0.0
H1918 H 0.1671 0.86964 0.28566 0.0
H1919 H 0.15828 0.86074 0.25797 0.0
C1920 C 0.38363 0.59112 0.71863 0.0
C1921 C 0.36137 0.5963 0.71751 0.0
C1922 C 0.39902 0.60662 0.72579 0.0
C1923 C 0.39197 0.62777 0.73197 0.0
C1924 C 0.36957 0.63317 0.73059 0.0
C1925 C 0.35457 0.61739 0.72337 0.0
C1926 C 0.42276 0.60027 0.72708 0.0
C1927 C 0.36142 0.65559 0.73693 0.0
C1928 C 0.42538 0.66311 0.7718 0.0
C1929 C 0.43454 0.67827 0.75673 0.0
C1930 C 0.41209 0.64612 0.76388 0.0
C1931 C 0.40785 0.64425 0.74032 0.0
C1932 C 0.41772 0.65899 0.72495 0.0
C1933 C 0.43093 0.67584 0.73335 0.0
C1934 C 0.40184 0.63074 0.78081 0.0
C1935 C 0.41372 0.65741 0.69971 0.0
H1936 H 0.38897 0.57479 0.71437 0.0
H1937 H 0.33745 0.6216 0.7222 0.0
H1938 H 0.43276 0.61167 0.71683 0.0
H1939 H 0.42853 0.60148 0.74489 0.0
H1940 H 0.42568 0.58341 0.72092 0.0
H1941 H 0.34352 0.65725 0.73463 0.0
H1942 H 0.36544 0.6591 0.75493 0.0
H1943 H 0.36967 0.66812 0.72642 0.0
H1944 H 0.42788 0.66504 0.78991 0.0
H1945 H 0.4382 0.68734 0.72161 0.0
H1946 H 0.40508 0.61359 0.77591 0.0
H1947 H 0.3839 0.63302 0.78085 0.0
H1948 H 0.40801 0.63342 0.79833 0.0
H1949 H 0.41731 0.64069 0.6936 0.0
H1950 H 0.42381 0.66915 0.68992 0.0
H1951 H 0.39629 0.66071 0.69605 0.0
C1952 C 0.88795 0.37541 0.2057 0.0
C1953 C 0.90583 0.37056 0.2197 0.0
C1954 C 0.87106 0.38899 0.21327 0.0
C1955 C 0.87223 0.39829 0.23522 0.0
C1956 C 0.89071 0.39438 0.249 0.0
C1957 C 0.90719 0.38042 0.24117 0.0
C1958 C 0.85152 0.39264 0.19813 0.0
C1959 C 0.89269 0.40426 0.2724 0.0
C1960 C 0.83323 0.4445 0.24952 0.0
C1961 C 0.8169 0.43345 0.26165 0.0
C1962 C 0.8515 0.43336 0.24103 0.0
C1963 C 0.85333 0.4106 0.24446 0.0
C1964 C 0.83695 0.39937 0.25667 0.0
C1965 C 0.8191 0.41095 0.2653 0.0
C1966 C 0.86882 0.4459 0.22835 0.0
C1967 C 0.83822 0.37506 0.26056 0.0
H1968 H 0.88696 0.36829 0.18889 0.0
H1969 H 0.92076 0.37664 0.25226 0.0
H1970 H 0.83684 0.38535 0.2061 0.0
H1971 H 0.84835 0.41033 0.19611 0.0
H1972 H 0.8537 0.38531 0.18103 0.0
H1973 H 0.90906 0.40156 0.27995 0.0
H1974 H 0.88949 0.42205 0.27173 0.0
H1975 H 0.8803 0.39695 0.28381 0.0
H1976 H 0.83161 0.46182 0.2464 0.0
H1977 H 0.80691 0.40231 0.27511 0.0
H1978 H 0.87012 0.43974 0.2107 0.0
H1979 H 0.88493 0.44339 0.23653 0.0
H1980 H 0.86534 0.46366 0.22778 0.0
H1981 H 0.83926 0.36643 0.24404 0.0
H1982 H 0.8239 0.36872 0.27002 0.0
H1983 H 0.85318 0.37102 0.27027 0.0
C1984 C 0.05646 0.83544 0.75296 0.0
C1985 C 0.06652 0.81511 0.7558 0.0
C1986 C 0.06821 0.85334 0.74452 0.0
C1987 C 0.09057 0.85084 0.73912 0.0
C1988 C 0.10075 0.83032 0.74192 0.0
C1989 C 0.08857 0.81269 0.75014 0.0
C1990 C 0.05678 0.87494 0.7415 0.0
C1991 C 0.12463 0.82706 0.73665 0.0
C1992 C 0.1207 0.89038 0.70071 0.0
C1993 C 0.13214 0.90305 0.71657 0.0
C1994 C 0.10641 0.87385 0.70781 0.0
C1995 C 0.10367 0.86978 0.7313 0.0
C1996 C 0.11465 0.88293 0.74738 0.0
C1997 C 0.12862 0.89948 0.73983 0.0
C1998 C 0.09482 0.86027 0.69018 0.0
C1999 C 0.11221 0.87906 0.77259 0.0
H2000 H 0.03936 0.83728 0.75717 0.0
H2001 H 0.09646 0.79706 0.75263 0.0
H2002 H 0.06442 0.88741 0.75258 0.0
H2003 H 0.05856 0.88064 0.72372 0.0
H2004 H 0.03915 0.87396 0.74567 0.0
H2005 H 0.12996 0.80996 0.7394 0.0
H2006 H 0.12801 0.83157 0.71876 0.0
H2007 H 0.13463 0.83789 0.74756 0.0
H2008 H 0.12343 0.8929 0.68272 0.0
H2009 H 0.13699 0.90952 0.7522 0.0
H2010 H 0.0771 0.85959 0.69389 0.0
H2011 H 0.10105 0.8433 0.69071 0.0
H2012 H 0.09714 0.86675 0.67273 0.0
H2013 H 0.09475 0.8794 0.77745 0.0
H2014 H 0.12108 0.89137 0.78287 0.0
H2015 H 0.11857 0.86266 0.77697 0.0
C2016 C 0.61558 0.14138 0.22048 0.0
C2017 C 0.59335 0.13712 0.22395 0.0
C2018 C 0.63161 0.1266 0.22766 0.0
C2019 C 0.62528 0.10691 0.23831 0.0
C2020 C 0.6029 0.10227 0.24148 0.0
C2021 C 0.58721 0.11748 0.2344 0.0
C2022 C 0.65534 0.13219 0.22408 0.0
C2023 C 0.59554 0.08136 0.25261 0.0
C2024 C 0.66803 0.06213 0.2396 0.0
C2025 C 0.67653 0.06447 0.26156 0.0
C2026 C 0.65084 0.07537 0.23202 0.0
C2027 C 0.6422 0.09151 0.24666 0.0
C2028 C 0.65045 0.09364 0.269 0.0
C2029 C 0.66744 0.08001 0.27622 0.0
C2030 C 0.64225 0.07241 0.2082 0.0
C2031 C 0.64184 0.11082 0.28503 0.0
H2032 H 0.6205 0.15628 0.21204 0.0
H2033 H 0.57012 0.11414 0.23746 0.0
H2034 H 0.66388 0.13273 0.24067 0.0
H2035 H 0.66334 0.1194 0.21371 0.0
H2036 H 0.65753 0.14815 0.21547 0.0
H2037 H 0.57751 0.0797 0.25279 0.0
H2038 H 0.60259 0.06714 0.24358 0.0
H2039 H 0.60153 0.08076 0.27037 0.0
H2040 H 0.67494 0.05 0.22831 0.0
H2041 H 0.67419 0.08207 0.2931 0.0
H2042 H 0.64559 0.08726 0.19804 0.0
H2043 H 0.62431 0.07012 0.20854 0.0
H2044 H 0.64976 0.05821 0.19948 0.0
H2045 H 0.64514 0.12726 0.27797 0.0
H2046 H 0.64938 0.10975 0.30215 0.0
H2047 H 0.62392 0.10923 0.28686 0.0
C2048 C 0.44451 0.83167 0.25508 0.0
C2049 C 0.43353 0.81527 0.24299 0.0
C2050 C 0.43326 0.84977 0.26383 0.0
C2051 C 0.41043 0.85132 0.26077 0.0
C2052 C 0.39923 0.83478 0.24877 0.0
C2053 C 0.41092 0.81715 0.23982 0.0
C2054 C 0.44579 0.86729 0.27623 0.0
C2055 C 0.37484 0.83572 0.24532 0.0
C2056 C 0.37555 0.88644 0.29945 0.0
C2057 C 0.3704 0.90405 0.28519 0.0
C2058 C 0.38908 0.86944 0.29197 0.0
C2059 C 0.39808 0.87027 0.26987 0.0
C2060 C 0.39388 0.88848 0.2558 0.0
C2061 C 0.37993 0.90502 0.26352 0.0
C2062 C 0.393 0.85017 0.30739 0.0
C2063 C 0.40345 0.89012 0.23223 0.0
H2064 H 0.46191 0.83031 0.25789 0.0
H2065 H 0.40229 0.80493 0.23005 0.0
H2066 H 0.44324 0.88325 0.26779 0.0
H2067 H 0.43966 0.86885 0.29387 0.0
H2068 H 0.46356 0.86385 0.27682 0.0
H2069 H 0.36848 0.82113 0.23633 0.0
H2070 H 0.36647 0.83707 0.26197 0.0
H2071 H 0.37049 0.85041 0.23532 0.0
H2072 H 0.36871 0.88572 0.31639 0.0
H2073 H 0.3759 0.91832 0.25217 0.0
H2074 H 0.41072 0.84711 0.30924 0.0
H2075 H 0.38569 0.83533 0.29976 0.0
H2076 H 0.38585 0.85258 0.32454 0.0
H2077 H 0.42127 0.88706 0.23273 0.0
H2078 H 0.40055 0.90635 0.22442 0.0
H2079 H 0.39609 0.8775 0.22115 0.0
C2080 C 0.65503 0.44574 0.74807 0.0
C2081 C 0.67558 0.43586 0.7464 0.0
C2082 C 0.63686 0.43391 0.75575 0.0
C2083 C 0.63932 0.41168 0.76166 0.0
C2084 C 0.66006 0.40169 0.76009 0.0
C2085 C 0.67793 0.41391 0.75254 0.0
C2086 C 0.61502 0.44513 0.7574 0.0
C2087 C 0.66333 0.37796 0.76603 0.0
C2088 C 0.59896 0.38165 0.79911 0.0
C2089 C 0.58725 0.36949 0.78306 0.0
C2090 C 0.61534 0.39622 0.79233 0.0
C2091 C 0.62022 0.39852 0.76896 0.0
C2092 C 0.60794 0.38685 0.75264 0.0
C2093 C 0.59155 0.37251 0.75989 0.0
C2094 C 0.62794 0.40856 0.81021 0.0
C2095 C 0.61276 0.38875 0.72757 0.0
H2096 H 0.6532 0.46275 0.74348 0.0
H2097 H 0.6937 0.40611 0.75091 0.0
H2098 H 0.60317 0.43708 0.7459 0.0
H2099 H 0.60851 0.44367 0.77491 0.0
H2100 H 0.61598 0.46268 0.75286 0.0
H2101 H 0.68058 0.37275 0.76419 0.0
H2102 H 0.65811 0.3749 0.78378 0.0
H2103 H 0.65307 0.36761 0.75487 0.0
H2104 H 0.59547 0.37954 0.81703 0.0
H2105 H 0.5827 0.36298 0.74743 0.0
H2106 H 0.62831 0.4262 0.80608 0.0
H2107 H 0.64506 0.40275 0.81053 0.0
H2108 H 0.62085 0.40646 0.82743 0.0
H2109 H 0.61287 0.40611 0.72231 0.0
H2110 H 0.60069 0.37984 0.717 0.0
H2111 H 0.6292 0.38205 0.72399 0.0
C2112 C 0.10786 0.588 0.28823 0.0
C2113 C 0.12926 0.5895 0.27995 0.0
C2114 C 0.09175 0.60285 0.28125 0.0
C2115 C 0.09721 0.61952 0.26564 0.0
C2116 C 0.11871 0.62094 0.25705 0.0
C2117 C 0.13443 0.6059 0.26426 0.0
C2118 C 0.06898 0.60085 0.29075 0.0
C2119 C 0.12517 0.63844 0.24031 0.0
C2120 C 0.05521 0.64935 0.23004 0.0
C2121 C 0.05406 0.66951 0.24121 0.0
C2122 C 0.06836 0.63246 0.23845 0.0
C2123 C 0.0807 0.63587 0.25845 0.0
C2124 C 0.07878 0.6558 0.27039 0.0
C2125 C 0.06548 0.67238 0.26163 0.0
C2126 C 0.06983 0.61136 0.22535 0.0
C2127 C 0.09172 0.66008 0.29174 0.0
H2128 H 0.1038 0.57546 0.30048 0.0
H2129 H 0.15081 0.60688 0.25744 0.0
H2130 H 0.06477 0.61579 0.30042 0.0
H2131 H 0.05702 0.59938 0.27671 0.0
H2132 H 0.0672 0.58654 0.30215 0.0
H2133 H 0.14254 0.63719 0.23515 0.0
H2134 H 0.11487 0.63734 0.22487 0.0
H2135 H 0.12243 0.65478 0.24787 0.0
H2136 H 0.04618 0.64696 0.21442 0.0
H2137 H 0.06487 0.68799 0.27022 0.0
H2138 H 0.06747 0.59725 0.23687 0.0
H2139 H 0.08631 0.6098 0.21776 0.0
H2140 H 0.05757 0.61046 0.21149 0.0
H2141 H 0.08967 0.64647 0.30395 0.0
H2142 H 0.0868 0.67551 0.30018 0.0
H2143 H 0.10931 0.6611 0.2875 0.0
C2144 C 0.88944 0.13348 0.77005 0.0
C2145 C 0.90846 0.12649 0.78101 0.0
C2146 C 0.8742 0.11845 0.76176 0.0
C2147 C 0.87794 0.09586 0.76479 0.0
C2148 C 0.89708 0.08868 0.77596 0.0
C2149 C 0.91224 0.10412 0.78379 0.0
C2150 C 0.85415 0.12675 0.74964 0.0
C2151 C 0.90143 0.06475 0.77979 0.0
C2152 C 0.82685 0.06131 0.76046 0.0
C2153 C 0.82792 0.05394 0.73791 0.0
C2154 C 0.84358 0.07407 0.7698 0.0
C2155 C 0.86167 0.0799 0.75619 0.0
C2156 C 0.86328 0.07186 0.73372 0.0
C2157 C 0.84647 0.05885 0.72492 0.0
C2158 C 0.84141 0.08211 0.79393 0.0
C2159 C 0.88227 0.07781 0.71863 0.0
H2160 H 0.88666 0.15078 0.76762 0.0
H2161 H 0.9269 0.09873 0.79239 0.0
H2162 H 0.85342 0.11984 0.73224 0.0
H2163 H 0.83927 0.12134 0.75873 0.0
H2164 H 0.85387 0.14481 0.74838 0.0
H2165 H 0.91703 0.06187 0.78888 0.0
H2166 H 0.88797 0.05748 0.78984 0.0
H2167 H 0.90196 0.05605 0.76329 0.0
H2168 H 0.81252 0.05788 0.77059 0.0
H2169 H 0.84767 0.05288 0.70765 0.0
H2170 H 0.83868 0.09999 0.79391 0.0
H2171 H 0.85666 0.07899 0.80353 0.0
H2172 H 0.82763 0.07422 0.80301 0.0
H2173 H 0.88206 0.0956 0.71525 0.0
H2174 H 0.88182 0.06907 0.70212 0.0
H2175 H 0.8979 0.07405 0.72723 0.0
C2176 C 0.49138 0.25363 0.05084 0.0
C2177 C 0.50667 0.23953 0.06077 0.0
C2178 C 0.49077 0.25682 0.02727 0.0
C2179 C 0.50594 0.24579 0.01327 0.0
C2180 C 0.52143 0.23156 0.02314 0.0
C2181 C 0.52155 0.22854 0.04676 0.0
C2182 C 0.47399 0.27209 0.01734 0.0
C2183 C 0.5379 0.21957 0.00875 0.0
C2184 C 0.49275 0.23977 0.95057 0.0
C2185 C 0.50493 0.25681 0.94105 0.0
C2186 C 0.49298 0.23593 0.97407 0.0
C2187 C 0.50577 0.24941 0.98832 0.0
C2188 C 0.51822 0.26653 0.97878 0.0
C2189 C 0.51762 0.27005 0.95526 0.0
C2190 C 0.47938 0.2176 0.98366 0.0
C2191 C 0.53219 0.28114 0.99342 0.0
H2192 H 0.48004 0.26245 0.06154 0.0
H2193 H 0.5332 0.21736 0.05424 0.0
H2194 H 0.48224 0.28574 0.00846 0.0
H2195 H 0.46395 0.26339 0.00457 0.0
H2196 H 0.46299 0.27898 0.0305 0.0
H2197 H 0.54889 0.20913 0.01906 0.0
H2198 H 0.52939 0.20916 0.99615 0.0
H2199 H 0.54796 0.2314 0.9991 0.0
H2200 H 0.48276 0.22963 0.93967 0.0
H2201 H 0.52731 0.28304 0.94793 0.0
H2202 H 0.4673 0.22422 0.99587 0.0
H2203 H 0.48991 0.20606 0.99314 0.0
H2204 H 0.47054 0.20845 0.97024 0.0
H2205 H 0.52189 0.28962 0.00614 0.0
H2206 H 0.54107 0.29359 0.98332 0.0
H2207 H 0.54425 0.27123 0.00292 0.0
C2208 C 0.2243 0.49436 0.45243 0.0
C2209 C 0.23909 0.50551 0.43848 0.0
C2210 C 0.22727 0.49349 0.47605 0.0
C2211 C 0.24548 0.50404 0.48593 0.0
C2212 C 0.2606 0.51511 0.47191 0.0
C2213 C 0.25723 0.51571 0.44837 0.0
C2214 C 0.21078 0.48157 0.49047 0.0
C2215 C 0.28026 0.52648 0.48181 0.0
C2216 C 0.24299 0.52096 0.54787 0.0
C2217 C 0.25537 0.5046 0.55837 0.0
C2218 C 0.23946 0.52084 0.52433 0.0
C2219 C 0.24851 0.50393 0.51098 0.0
C2220 C 0.26084 0.48724 0.52148 0.0
C2221 C 0.26413 0.48778 0.54506 0.0
C2222 C 0.22618 0.5389 0.51375 0.0
C2223 C 0.27077 0.46896 0.50778 0.0
H2224 H 0.21013 0.48665 0.44492 0.0
H2225 H 0.2689 0.52407 0.43765 0.0
H2226 H 0.21902 0.46885 0.50075 0.0
H2227 H 0.20298 0.49309 0.50249 0.0
H2228 H 0.19785 0.47371 0.4801 0.0
H2229 H 0.29067 0.53403 0.46854 0.0
H2230 H 0.27493 0.53939 0.49378 0.0
H2231 H 0.29026 0.51472 0.49162 0.0
H2232 H 0.23589 0.53382 0.5581 0.0
H2233 H 0.27393 0.47523 0.55304 0.0
H2234 H 0.2121 0.53194 0.50441 0.0
H2235 H 0.23626 0.54792 0.50123 0.0
H2236 H 0.21998 0.55065 0.52656 0.0
H2237 H 0.25791 0.46037 0.49802 0.0
H2238 H 0.2794 0.4569 0.5186 0.0
H2239 H 0.28251 0.47571 0.4953 0.0
C2240 C 0.97468 0.27099 0.04655 0.0
C2241 C 0.98883 0.25947 0.06089 0.0
C2242 C 0.97433 0.26702 0.02309 0.0
C2243 C 0.98857 0.25123 0.01375 0.0
C2244 C 0.00286 0.23952 0.02814 0.0
C2245 C 0.00278 0.24374 0.05156 0.0
C2246 C 0.95874 0.27971 0.00831 0.0
C2247 C 0.01837 0.22265 0.01877 0.0
C2248 C 0.97515 0.22689 0.95613 0.0
C2249 C 0.98881 0.23892 0.94171 0.0
C2250 C 0.97484 0.23079 0.9796 0.0
C2251 C 0.98858 0.24704 0.98888 0.0
C2252 C 0.00238 0.25926 0.97442 0.0
C2253 C 0.00229 0.25509 0.95099 0.0
C2254 C 0.95977 0.21756 0.99447 0.0
C2255 C 0.01737 0.27663 0.98371 0.0
H2256 H 0.96367 0.28297 0.05374 0.0
H2257 H 0.01391 0.23497 0.06255 0.0
H2258 H 0.96794 0.28904 0.99533 0.0
H2259 H 0.94779 0.26834 0.99911 0.0
H2260 H 0.94859 0.29127 0.01826 0.0
H2261 H 0.02838 0.21491 0.03226 0.0
H2262 H 0.00912 0.20974 0.00976 0.0
H2263 H 0.02945 0.2303 0.0062 0.0
H2264 H 0.9645 0.21457 0.94899 0.0
H2265 H 0.01304 0.26425 0.93994 0.0
H2266 H 0.94846 0.22853 0.00371 0.0
H2267 H 0.96936 0.20857 0.00741 0.0
H2268 H 0.95 0.20563 0.98457 0.0
H2269 H 0.00773 0.28923 0.99276 0.0
H2270 H 0.02706 0.28469 0.97018 0.0
H2271 H 0.02874 0.26935 0.99624 0.0
C2272 C 0.24031 0.00673 0.44856 0.0
C2273 C 0.26037 0.99916 0.44019 0.0
C2274 C 0.23608 0.00741 0.47196 0.0
C2275 C 0.2524 0.00068 0.48742 0.0
C2276 C 0.27287 0.9936 0.47916 0.0
C2277 C 0.27654 0.99276 0.45567 0.0
C2278 C 0.21398 0.0149 0.48014 0.0
C2279 C 0.29076 0.98646 0.49514 0.0
C2280 C 0.24782 0.01757 0.54934 0.0
C2281 C 0.2401 0.99834 0.55934 0.0
C2282 C 0.25188 0.01863 0.5259 0.0
C2283 C 0.24777 0.00011 0.51219 0.0
C2284 C 0.23956 0.9808 0.52219 0.0
C2285 C 0.23598 0.98011 0.54568 0.0
C2286 C 0.26095 0.03937 0.51587 0.0
C2287 C 0.23463 0.96084 0.50808 0.0
H2288 H 0.22784 0.01211 0.43679 0.0
H2289 H 0.29197 0.98658 0.44944 0.0
H2290 H 0.20584 0.00152 0.48955 0.0
H2291 H 0.21582 0.02876 0.49208 0.0
H2292 H 0.20322 0.02005 0.46594 0.0
H2293 H 0.3062 0.98276 0.48608 0.0
H2294 H 0.29396 0.99937 0.50791 0.0
H2295 H 0.28555 0.97167 0.50452 0.0
H2296 H 0.25116 0.03162 0.55996 0.0
H2297 H 0.22978 0.96531 0.5534 0.0
H2298 H 0.25004 0.04546 0.50227 0.0
H2299 H 0.27704 0.03607 0.50798 0.0
H2300 H 0.26296 0.0524 0.52881 0.0
H2301 H 0.22296 0.96502 0.49437 0.0
H2302 H 0.22764 0.94738 0.51838 0.0
H2303 H 0.24976 0.9549 0.49983 0.0
C2304 C 0.51066 0.75053 0.94978 0.0
C2305 C 0.49364 0.7627 0.9402 0.0
C2306 C 0.51164 0.74688 0.97329 0.0
C2307 C 0.49525 0.75567 0.98752 0.0
C2308 C 0.47827 0.76833 0.97799 0.0
C2309 C 0.47766 0.77166 0.95444 0.0
C2310 C 0.52995 0.73322 0.98284 0.0
C2311 C 0.46058 0.77809 0.99263 0.0
C2312 C 0.4843 0.72835 0.04417 0.0
C2313 C 0.49517 0.74223 0.05934 0.0
C2314 C 0.48432 0.73248 0.02076 0.0
C2315 C 0.4954 0.751 0.01228 0.0
C2316 C 0.5064 0.76511 0.02747 0.0
C2317 C 0.50616 0.76054 0.05083 0.0
C2318 C 0.47236 0.71709 0.00509 0.0
C2319 C 0.51838 0.78502 0.01904 0.0
H2320 H 0.52293 0.74339 0.93883 0.0
H2321 H 0.46466 0.78136 0.94714 0.0
H2322 H 0.53869 0.74239 0.99628 0.0
H2323 H 0.52318 0.7183 0.99082 0.0
H2324 H 0.54187 0.72829 0.96961 0.0
H2325 H 0.44893 0.78811 0.98266 0.0
H2326 H 0.45138 0.76493 0.00128 0.0
H2327 H 0.4679 0.78846 0.00605 0.0
H2328 H 0.47548 0.71437 0.05065 0.0
H2329 H 0.51481 0.77119 0.06243 0.0
H2330 H 0.48373 0.7105 0.99215 0.0
H2331 H 0.45934 0.726 0.9959 0.0
H2332 H 0.46485 0.70322 0.01436 0.0
H2333 H 0.53124 0.78012 0.00681 0.0
H2334 H 0.52609 0.79436 0.03307 0.0
H2335 H 0.50697 0.79593 0.00987 0.0
C2336 C 0.76401 0.47345 0.54903 0.0
C2337 C 0.75725 0.4908 0.56282 0.0
C2338 C 0.76064 0.4739 0.52548 0.0
C2339 C 0.75007 0.49205 0.51554 0.0
C2340 C 0.7432 0.50963 0.52938 0.0
C2341 C 0.74698 0.50883 0.55286 0.0
C2342 C 0.76841 0.45497 0.51122 0.0
C2343 C 0.73167 0.52915 0.51941 0.0
C2344 C 0.75742 0.50208 0.45235 0.0
C2345 C 0.73829 0.49296 0.44339 0.0
C2346 C 0.76149 0.50188 0.47581 0.0
C2347 C 0.74596 0.49252 0.49067 0.0
C2348 C 0.72655 0.48345 0.48178 0.0
C2349 C 0.72301 0.48367 0.45825 0.0
C2350 C 0.78242 0.51164 0.48467 0.0
C2351 C 0.70958 0.47339 0.49711 0.0
H2352 H 0.7722 0.45961 0.55666 0.0
H2353 H 0.74155 0.52217 0.56353 0.0
H2354 H 0.75441 0.44741 0.50228 0.0
H2355 H 0.77993 0.46082 0.49804 0.0
H2356 H 0.77666 0.44225 0.52154 0.0
H2357 H 0.7275 0.54151 0.53249 0.0
H2358 H 0.74208 0.53695 0.50633 0.0
H2359 H 0.71643 0.52387 0.51088 0.0
H2360 H 0.76917 0.50957 0.44105 0.0
H2361 H 0.70836 0.47625 0.45147 0.0
H2362 H 0.79175 0.49915 0.49422 0.0
H2363 H 0.77873 0.52508 0.49667 0.0
H2364 H 0.7929 0.5181 0.47085 0.0
H2365 H 0.71673 0.45944 0.50649 0.0
H2366 H 0.69511 0.46753 0.48756 0.0
H2367 H 0.70411 0.48547 0.50992 0.0
C2368 C 0.98737 0.7538 0.04695 0.0
C2369 C 0.00702 0.75728 0.05855 0.0
C2370 C 0.98712 0.75036 0.02338 0.0
C2371 C 0.007 0.7505 0.01115 0.0
C2372 C 0.02685 0.75429 0.02274 0.0
C2373 C 0.02662 0.7576 0.0463 0.0
C2374 C 0.96565 0.74626 0.01161 0.0
C2375 C 0.04835 0.7547 0.01026 0.0
C2376 C 0.01011 0.72088 0.95465 0.0
C2377 C 0.00839 0.73813 0.93912 0.0
C2378 C 0.00946 0.72467 0.97813 0.0
C2379 C 0.00712 0.74624 0.9863 0.0
C2380 C 0.00528 0.76372 0.97074 0.0
C2381 C 0.00592 0.75946 0.94733 0.0
C2382 C 0.01151 0.7056 0.99421 0.0
C2383 C 0.00274 0.78694 0.97882 0.0
H2384 H 0.9722 0.75332 0.05637 0.0
H2385 H 0.04182 0.76061 0.05515 0.0
H2386 H 0.9632 0.75833 0.99782 0.0
H2387 H 0.96578 0.72988 0.00364 0.0
H2388 H 0.9516 0.74722 0.02347 0.0
H2389 H 0.06229 0.75826 0.02172 0.0
H2390 H 0.05125 0.73874 0.00193 0.0
H2391 H 0.04793 0.76723 0.99669 0.0
H2392 H 0.01234 0.7044 0.94845 0.0
H2393 H 0.00427 0.77283 0.93543 0.0
H2394 H 0.99723 0.70504 0.00575 0.0
H2395 H 0.02623 0.7076 0.00495 0.0
H2396 H 0.01269 0.68978 0.98512 0.0
H2397 H 0.988 0.78841 0.98962 0.0
H2398 H 0.00137 0.79867 0.96453 0.0
H2399 H 0.01693 0.79161 0.98944 0.0
C2400 C 0.73967 0.02473 0.54532 0.0
C2401 C 0.7388 0.00506 0.5574 0.0
C2402 C 0.74298 0.02494 0.52175 0.0
C2403 C 0.74558 0.00498 0.51 0.0
C2404 C 0.74458 0.98505 0.52206 0.0
C2405 C 0.74113 0.98532 0.54563 0.0
C2406 C 0.74378 0.04652 0.50945 0.0
C2407 C 0.74743 0.96346 0.51012 0.0
C2408 C 0.73622 0.00496 0.44623 0.0
C2409 C 0.75759 0.00651 0.43788 0.0
C2410 C 0.73207 0.00429 0.46966 0.0
C2411 C 0.74971 0.00504 0.48512 0.0
C2412 C 0.77133 0.00634 0.47682 0.0
C2413 C 0.775 0.00714 0.45333 0.0
C2414 C 0.70879 0.00294 0.47788 0.0
C2415 C 0.79058 0.00714 0.49279 0.0
H2416 H 0.73757 0.04001 0.5543 0.0
H2417 H 0.74069 0.97009 0.55493 0.0
H2418 H 0.75984 0.04854 0.50106 0.0
H2419 H 0.73118 0.04693 0.49594 0.0
H2420 H 0.7411 0.06056 0.52104 0.0
H2421 H 0.74581 0.94941 0.52189 0.0
H2422 H 0.73515 0.96175 0.49642 0.0
H2423 H 0.76374 0.96276 0.50201 0.0
H2424 H 0.7227 0.00412 0.43442 0.0
H2425 H 0.79154 0.00867 0.44707 0.0
H2426 H 0.70496 0.0173 0.48861 0.0
H2427 H 0.70659 0.98823 0.48859 0.0
H2428 H 0.69692 0.00229 0.46365 0.0
H2429 H 0.78954 0.02192 0.50359 0.0
H2430 H 0.80639 0.00737 0.48361 0.0
H2431 H 0.79032 0.99282 0.50428 0.0
loop_
_geom_bond_atom_site_label_1
_geom_bond_atom_site_label_2
_geom_bond_distance
_geom_bond_site_symmetry_2
_ccdc_geom_bond_type
Li0 N17 1.990 . S
Li0 O60 1.956 . S
Li0 O61 1.970 . S
Li0 O62 1.961 . S
Li1 N25 1.990 . S
Li1 O60 1.970 . S
Li1 O61 1.956 . S
Li1 O63 1.961 . S
Li2 N47 1.990 . S
Li2 O60 1.961 . S
Li2 O62 1.956 . S
Li2 O63 1.970 . S
Li3 N53 1.990 . S
Li3 O61 1.961 . S
Li3 O62 1.970 . S
Li3 O63 1.956 . S
C4 C6 1.348 . S
C4 C7 1.356 . S
C4 O60 1.325 . S
N5 C8 1.314 . S
N5 C9 1.279 . S
C6 C4 1.348 . S
C6 C8 1.353 . S
C6 H64 0.929 . S
C7 C4 1.356 . S
C7 C9 1.358 . S
C7 H65 0.930 . S
C8 N5 1.314 . S
C8 C6 1.353 . S
C8 H66 0.930 . S
C9 N5 1.279 . S
C9 C7 1.358 . S
C9 H67 0.930 . S
C10 C13 1.348 . S
C10 C14 1.356 . S
C10 O61 1.325 . S
C11 N12 1.279 . S
C11 C14 1.358 . S
C11 H68 0.930 . S
N12 C11 1.279 . S
N12 C15 1.314 . S
C13 C10 1.348 . S
C13 C15 1.353 . S
C13 H69 0.929 . S
C14 C10 1.356 . S
C14 C11 1.358 . S
C14 H70 0.930 . S
C15 N12 1.314 . S
C15 C13 1.353 . S
C15 H71 0.930 . S
C16 N17 1.314 . S
C16 C21 1.353 . S
C16 H22 0.930 . S
N17 Li0 1.990 . S
N17 C16 1.314 . S
N17 C19 1.279 . S
C18 C19 1.358 . S
C18 C20 1.356 . S
C18 H72 0.930 . S
C19 N17 1.279 . S
C19 C18 1.358 . S
C19 H23 0.930 . S
C20 C18 1.356 . S
C20 C21 1.348 . S
C21 C16 1.353 . S
C21 C20 1.348 . S
C21 H73 0.929 . S
H22 C16 0.930 . S
H23 C19 0.930 . S
C24 N25 1.314 . S
C24 C26 1.353 . S
C24 H30 0.930 . S
N25 Li1 1.990 . S
N25 C24 1.314 . S
N25 C28 1.279 . S
C26 C24 1.353 . S
C26 C29 1.348 . S
C26 H74 0.929 . S
C27 C28 1.358 . S
C27 C29 1.356 . S
C27 H75 0.930 . S
C28 N25 1.279 . S
C28 C27 1.358 . S
C28 H31 0.930 . S
C29 C26 1.348 . S
C29 C27 1.356 . S
H30 C24 0.930 . S
H31 C28 0.930 . S
C32 C34 1.348 . S
C32 C35 1.356 . S
C32 O62 1.325 . S
N33 C36 1.314 . S
N33 C37 1.279 . S
C34 C32 1.348 . S
C34 C36 1.353 . S
C34 H76 0.929 . S
C35 C32 1.356 . S
C35 C37 1.358 . S
C35 H77 0.930 . S
C36 N33 1.314 . S
C36 C34 1.353 . S
C36 H78 0.930 . S
C37 N33 1.279 . S
C37 C35 1.358 . S
C37 H79 0.930 . S
C38 C39 1.348 . S
C38 C40 1.356 . S
C38 O63 1.325 . S
C39 C38 1.348 . S
C39 C41 1.353 . S
C39 H80 0.929 . S
C40 C38 1.356 . S
C40 C42 1.358 . S
C40 H81 0.930 . S
C41 C39 1.353 . S
C41 N43 1.314 . S
C41 H82 0.930 . S
C42 C40 1.358 . S
C42 N43 1.279 . S
C42 H83 0.930 . S
N43 C41 1.314 . S
N43 C42 1.279 . S
C44 C46 1.353 . S
C44 N47 1.314 . S
C44 H50 0.930 . S
C45 N47 1.279 . S
C45 C48 1.358 . S
C45 H51 0.930 . S
C46 C44 1.353 . S
C46 C49 1.348 . S
C46 H84 0.929 . S
N47 Li2 1.990 . S
N47 C44 1.314 . S
N47 C45 1.279 . S
C48 C45 1.358 . S
C48 C49 1.356 . S
C48 H85 0.930 . S
C49 C46 1.348 . S
C49 C48 1.356 . S
H50 C44 0.930 . S
H51 C45 0.930 . S
C52 N53 1.314 . S
C52 C54 1.353 . S
C52 H58 0.930 . S
N53 Li3 1.990 . S
N53 C52 1.314 . S
N53 C56 1.279 . S
C54 C52 1.353 . S
C54 C57 1.348 . S
C54 H86 0.929 . S
C55 C56 1.358 . S
C55 C57 1.356 . S
C55 H87 0.930 . S
C56 N53 1.279 . S
C56 C55 1.358 . S
C56 H59 0.930 . S
C57 C54 1.348 . S
C57 C55 1.356 . S
H58 C52 0.930 . S
H59 C56 0.930 . S
O60 Li0 1.956 . S
O60 Li1 1.970 . S
O60 Li2 1.961 . S
O60 C4 1.325 . S
O61 Li0 1.970 . S
O61 Li1 1.956 . S
O61 Li3 1.961 . S
O61 C10 1.325 . S
O62 Li0 1.961 . S
O62 Li2 1.956 . S
O62 Li3 1.970 . S
O62 C32 1.325 . S
O63 Li1 1.961 . S
O63 Li2 1.970 . S
O63 Li3 1.956 . S
O63 C38 1.325 . S
H64 C6 0.929 . S
H65 C7 0.930 . S
H66 C8 0.930 . S
H67 C9 0.930 . S
H68 C11 0.930 . S
H69 C13 0.929 . S
H70 C14 0.930 . S
H71 C15 0.930 . S
H72 C18 0.930 . S
H73 C21 0.929 . S
H74 C26 0.929 . S
H75 C27 0.930 . S
H76 C34 0.929 . S
H77 C35 0.930 . S
H78 C36 0.930 . S
H79 C37 0.930 . S
H80 C39 0.929 . S
H81 C40 0.930 . S
H82 C41 0.930 . S
H83 C42 0.930 . S
H84 C46 0.929 . S
H85 C48 0.930 . S
H86 C54 0.929 . S
H87 C55 0.930 . S
Li88 N105 1.990 . S
Li88 O148 1.956 . S
Li88 O149 1.970 . S
Li88 O150 1.961 . S
Li89 N113 1.990 . S
Li89 O148 1.970 . S
Li89 O149 1.956 . S
Li89 O151 1.961 . S
Li90 N135 1.990 . S
Li90 O148 1.961 . S
Li90 O150 1.956 . S
Li90 O151 1.970 . S
Li91 N141 1.990 . S
Li91 O149 1.961 . S
Li91 O150 1.970 . S
Li91 O151 1.956 . S
C92 C94 1.348 . S
C92 C95 1.356 . S
C92 O148 1.325 . S
N93 C96 1.314 . S
N93 C97 1.279 . S
C94 C92 1.348 . S
C94 C96 1.353 . S
C94 H152 0.929 . S
C95 C92 1.356 . S
C95 C97 1.358 . S
C95 H153 0.930 . S
C96 N93 1.314 . S
C96 C94 1.353 . S
C96 H154 0.930 . S
C97 N93 1.279 . S
C97 C95 1.358 . S
C97 H155 0.930 . S
C98 C101 1.348 . S
C98 C102 1.356 . S
C98 O149 1.325 . S
C99 N100 1.279 . S
C99 C102 1.358 . S
C99 H156 0.930 . S
N100 C99 1.279 . S
N100 C103 1.314 . S
C101 C98 1.348 . S
C101 C103 1.353 . S
C101 H157 0.929 . S
C102 C98 1.356 . S
C102 C99 1.358 . S
C102 H158 0.930 . S
C103 N100 1.314 . S
C103 C101 1.353 . S
C103 H159 0.930 . S
C104 N105 1.314 . S
C104 C109 1.353 . S
C104 H110 0.930 . S
N105 Li88 1.990 . S
N105 C104 1.314 . S
N105 C107 1.279 . S
C106 C107 1.358 . S
C106 C108 1.356 . S
C106 H160 0.930 . S
C107 N105 1.279 . S
C107 C106 1.358 . S
C107 H111 0.930 . S
C108 C106 1.356 . S
C108 C109 1.348 . S
C109 C104 1.353 . S
C109 C108 1.348 . S
C109 H161 0.929 . S
H110 C104 0.930 . S
H111 C107 0.930 . S
C112 N113 1.314 . S
C112 C114 1.353 . S
C112 H118 0.930 . S
N113 Li89 1.990 . S
N113 C112 1.314 . S
N113 C116 1.279 . S
C114 C112 1.353 . S
C114 C117 1.348 . S
C114 H162 0.929 . S
C115 C116 1.358 . S
C115 C117 1.356 . S
C115 H163 0.930 . S
C116 N113 1.279 . S
C116 C115 1.358 . S
C116 H119 0.930 . S
C117 C114 1.348 . S
C117 C115 1.356 . S
H118 C112 0.930 . S
H119 C116 0.930 . S
C120 C122 1.348 . S
C120 C123 1.356 . S
C120 O150 1.325 . S
N121 C124 1.314 . S
N121 C125 1.279 . S
C122 C120 1.348 . S
C122 C124 1.353 . S
C122 H164 0.929 . S
C123 C120 1.356 . S
C123 C125 1.358 . S
C123 H165 0.930 . S
C124 N121 1.314 . S
C124 C122 1.353 . S
C124 H166 0.930 . S
C125 N121 1.279 . S
C125 C123 1.358 . S
C125 H167 0.930 . S
C126 C127 1.348 . S
C126 C128 1.356 . S
C126 O151 1.325 . S
C127 C126 1.348 . S
C127 C129 1.353 . S
C127 H168 0.929 . S
C128 C126 1.356 . S
C128 C130 1.358 . S
C128 H169 0.930 . S
C129 C127 1.353 . S
C129 N131 1.314 . S
C129 H170 0.930 . S
C130 C128 1.358 . S
C130 N131 1.279 . S
C130 H171 0.930 . S
N131 C129 1.314 . S
N131 C130 1.279 . S
C132 C134 1.353 . S
C132 N135 1.314 . S
C132 H138 0.930 . S
C133 N135 1.279 . S
C133 C136 1.358 . S
C133 H139 0.930 . S
C134 C132 1.353 . S
C134 C137 1.348 . S
C134 H172 0.929 . S
N135 Li90 1.990 . S
N135 C132 1.314 . S
N135 C133 1.279 . S
C136 C133 1.358 . S
C136 C137 1.356 . S
C136 H173 0.930 . S
C137 C134 1.348 . S
C137 C136 1.356 . S
H138 C132 0.930 . S
H139 C133 0.930 . S
C140 N141 1.314 . S
C140 C142 1.353 . S
C140 H146 0.930 . S
N141 Li91 1.990 . S
N141 C140 1.314 . S
N141 C144 1.279 . S
C142 C140 1.353 . S
C142 C145 1.348 . S
C142 H174 0.929 . S
C143 C144 1.358 . S
C143 C145 1.356 . S
C143 H175 0.930 . S
C144 N141 1.279 . S
C144 C143 1.358 . S
C144 H147 0.930 . S
C145 C142 1.348 . S
C145 C143 1.356 . S
H146 C140 0.930 . S
H147 C144 0.930 . S
O148 Li88 1.956 . S
O148 Li89 1.970 . S
O148 Li90 1.961 . S
O148 C92 1.325 . S
O149 Li88 1.970 . S
O149 Li89 1.956 . S
O149 Li91 1.961 . S
O149 C98 1.325 . S
O150 Li88 1.961 . S
O150 Li90 1.956 . S
O150 Li91 1.970 . S
O150 C120 1.325 . S
O151 Li89 1.961 . S
O151 Li90 1.970 . S
O151 Li91 1.956 . S
O151 C126 1.325 . S
H152 C94 0.929 . S
H153 C95 0.930 . S
H154 C96 0.930 . S
H155 C97 0.930 . S
H156 C99 0.930 . S
H157 C101 0.929 . S
H158 C102 0.930 . S
H159 C103 0.930 . S
H160 C106 0.930 . S
H161 C109 0.929 . S
H162 C114 0.929 . S
H163 C115 0.930 . S
H164 C122 0.929 . S
H165 C123 0.930 . S
H166 C124 0.930 . S
H167 C125 0.930 . S
H168 C127 0.929 . S
H169 C128 0.930 . S
H170 C129 0.930 . S
H171 C130 0.930 . S
H172 C134 0.929 . S
H173 C136 0.930 . S
H174 C142 0.929 . S
H175 C143 0.930 . S
Li176 N193 1.990 . S
Li176 O236 1.956 . S
Li176 O237 1.970 . S
Li176 O238 1.961 . S
Li177 N201 1.990 . S
Li177 O236 1.970 1_455 S
Li177 O237 1.956 1_455 S
Li177 O239 1.961 . S
Li178 N223 1.990 . S
Li178 O236 1.961 . S
Li178 O238 1.956 . S
Li178 O239 1.970 1_655 S
Li179 N229 1.990 . S
Li179 O237 1.961 . S
Li179 O238 1.970 . S
Li179 O239 1.956 1_655 S
C180 C182 1.348 1_655 S
C180 C183 1.356 . S
C180 O236 1.325 . S
N181 C184 1.314 . S
N181 C185 1.279 1_455 S
C182 C180 1.348 1_455 S
C182 C184 1.353 . S
C182 H240 0.929 . S
C183 C180 1.356 . S
C183 C185 1.358 . S
C183 H241 0.930 . S
C184 N181 1.314 . S
C184 C182 1.353 . S
C184 H242 0.930 . S
C185 N181 1.279 1_655 S
C185 C183 1.358 . S
C185 H243 0.930 . S
C186 C189 1.348 . S
C186 C190 1.356 . S
C186 O237 1.325 . S
C187 N188 1.279 . S
C187 C190 1.358 . S
C187 H244 0.930 . S
N188 C187 1.279 . S
N188 C191 1.314 . S
C189 C186 1.348 . S
C189 C191 1.353 . S
C189 H245 0.929 . S
C190 C186 1.356 . S
C190 C187 1.358 . S
C190 H246 0.951 . S
C191 N188 1.314 . S
C191 C189 1.353 . S
C191 H247 0.930 . S
C192 N193 1.314 . S
C192 C197 1.353 . S
C192 H198 0.930 . S
N193 Li176 1.990 . S
N193 C192 1.314 . S
N193 C195 1.279 . S
C194 C195 1.358 . S
C194 C196 1.356 . S
C194 H248 0.930 . S
C195 N193 1.279 . S
C195 C194 1.358 . S
C195 H199 0.930 . S
C196 C194 1.356 . S
C196 C197 1.348 . S
C197 C192 1.353 . S
C197 C196 1.348 . S
C197 H249 0.929 . S
H198 C192 0.930 . S
H199 C195 0.930 . S
C200 N201 1.314 . S
C200 C202 1.353 . S
C200 H206 0.930 . S
N201 Li177 1.990 . S
N201 C200 1.314 . S
N201 C204 1.279 . S
C202 C200 1.353 . S
C202 C205 1.348 . S
C202 H250 0.929 . S
C203 C204 1.358 . S
C203 C205 1.356 . S
C203 H251 0.930 . S
C204 N201 1.279 . S
C204 C203 1.358 . S
C204 H207 0.930 . S
C205 C202 1.348 . S
C205 C203 1.356 . S
H206 C200 0.930 . S
H207 C204 0.930 . S
C208 C210 1.348 . S
C208 C211 1.356 . S
C208 O238 1.325 . S
N209 C212 1.314 . S
N209 C213 1.279 . S
C210 C208 1.348 . S
C210 C212 1.353 . S
C210 H252 0.929 . S
C211 C208 1.356 . S
C211 C213 1.358 . S
C211 H253 0.930 . S
C212 N209 1.314 . S
C212 C210 1.353 . S
C212 H254 0.930 . S
C213 N209 1.279 . S
C213 C211 1.358 . S
C213 H255 0.930 . S
C214 C215 1.348 . S
C214 C216 1.356 . S
C214 O239 1.325 . S
C215 C214 1.348 . S
C215 C217 1.353 . S
C215 H256 0.929 . S
C216 C214 1.356 . S
C216 C218 1.358 . S
C216 H257 0.930 . S
C217 C215 1.353 . S
C217 N219 1.314 . S
C217 H258 0.930 . S
C218 C216 1.358 . S
C218 N219 1.279 . S
C218 H259 0.930 . S
N219 C217 1.314 . S
N219 C218 1.279 . S
C220 C222 1.353 . S
C220 N223 1.314 1_455 S
C220 H226 0.930 . S
C221 N223 1.279 . S
C221 C224 1.358 . S
C221 H227 0.930 . S
C222 C220 1.353 . S
C222 C225 1.348 1_455 S
C222 H260 0.929 . S
N223 Li178 1.990 . S
N223 C220 1.314 1_655 S
N223 C221 1.279 . S
C224 C221 1.358 . S
C224 C225 1.356 . S
C224 H261 0.930 . S
C225 C222 1.348 1_655 S
C225 C224 1.356 . S
H226 C220 0.930 . S
H227 C221 0.930 . S
C228 N229 1.314 . S
C228 C230 1.353 . S
C228 H234 0.930 . S
N229 Li179 1.990 . S
N229 C228 1.314 . S
N229 C232 1.279 . S
C230 C228 1.353 . S
C230 C233 1.348 . S
C230 H262 0.929 . S
C231 C232 1.358 . S
C231 C233 1.356 . S
C231 H263 0.930 . S
C232 N229 1.279 . S
C232 C231 1.358 . S
C232 H235 0.930 . S
C233 C230 1.348 . S
C233 C231 1.356 . S
H234 C228 0.930 . S
H235 C232 0.930 . S
O236 Li176 1.956 . S
O236 Li177 1.970 1_655 S
O236 Li178 1.961 . S
O236 C180 1.325 . S
O237 Li176 1.970 . S
O237 Li177 1.956 1_655 S
O237 Li179 1.961 . S
O237 C186 1.325 . S
O238 Li176 1.961 . S
O238 Li178 1.956 . S
O238 Li179 1.970 . S
O238 C208 1.325 . S
O239 Li177 1.961 . S
O239 Li178 1.970 1_455 S
O239 Li179 1.956 1_455 S
O239 C214 1.325 . S
H240 C182 0.929 . S
H241 C183 0.930 . S
H242 C184 0.930 . S
H243 C185 0.930 . S
H244 C187 0.930 . S
H245 C189 0.929 . S
H246 C190 0.951 . S
H247 C191 0.930 . S
H248 C194 0.930 . S
H249 C197 0.929 . S
H250 C202 0.929 . S
H251 C203 0.930 . S
H252 C210 0.929 . S
H253 C211 0.930 . S
H254 C212 0.930 . S
H255 C213 0.930 . S
H256 C215 0.929 . S
H257 C216 0.930 . S
H258 C217 0.930 . S
H259 C218 0.930 . S
H260 C222 0.929 . S
H261 C224 0.930 . S
H262 C230 0.929 . S
H263 C231 0.930 . S
Li264 N281 1.990 . S
Li264 O324 1.956 . S
Li264 O325 1.970 . S
Li264 O326 1.961 . S
Li265 N289 1.990 . S
Li265 O324 1.970 1_545 S
Li265 O325 1.956 1_545 S
Li265 O327 1.961 . S
Li266 N311 1.990 . S
Li266 O324 1.961 . S
Li266 O326 1.956 . S
Li266 O327 1.970 1_565 S
Li267 N317 1.990 . S
Li267 O325 1.961 . S
Li267 O326 1.970 . S
Li267 O327 1.956 1_565 S
C268 C270 1.348 1_565 S
C268 C271 1.356 . S
C268 O324 1.325 . S
N269 C272 1.314 . S
N269 C273 1.279 1_545 S
C270 C268 1.348 1_545 S
C270 C272 1.353 . S
C270 H328 0.929 . S
C271 C268 1.356 . S
C271 C273 1.358 . S
C271 H329 0.930 . S
C272 N269 1.314 . S
C272 C270 1.353 . S
C272 H330 0.930 . S
C273 N269 1.279 1_565 S
C273 C271 1.358 . S
C273 H331 0.930 . S
C274 C277 1.348 . S
C274 C278 1.356 . S
C274 O325 1.325 . S
C275 N276 1.279 . S
C275 C278 1.358 . S
C275 H332 0.930 . S
N276 C275 1.279 . S
N276 C279 1.314 . S
C277 C274 1.348 . S
C277 C279 1.353 . S
C277 H333 0.929 . S
C278 C274 1.356 . S
C278 C275 1.358 . S
C278 H334 0.951 . S
C279 N276 1.314 . S
C279 C277 1.353 . S
C279 H335 0.930 . S
C280 N281 1.314 . S
C280 C285 1.353 . S
C280 H286 0.930 . S
N281 Li264 1.990 . S
N281 C280 1.314 . S
N281 C283 1.279 . S
C282 C283 1.358 . S
C282 C284 1.356 . S
C282 H336 0.930 . S
C283 N281 1.279 . S
C283 C282 1.358 . S
C283 H287 0.930 . S
C284 C282 1.356 . S
C284 C285 1.348 . S
C285 C280 1.353 . S
C285 C284 1.348 . S
C285 H337 0.929 . S
H286 C280 0.930 . S
H287 C283 0.930 . S
C288 N289 1.314 . S
C288 C290 1.353 . S
C288 H294 0.930 . S
N289 Li265 1.990 . S
N289 C288 1.314 . S
N289 C292 1.279 . S
C290 C288 1.353 . S
C290 C293 1.348 . S
C290 H338 0.929 . S
C291 C292 1.358 . S
C291 C293 1.356 . S
C291 H339 0.930 . S
C292 N289 1.279 . S
C292 C291 1.358 . S
C292 H295 0.930 . S
C293 C290 1.348 . S
C293 C291 1.356 . S
H294 C288 0.930 . S
H295 C292 0.930 . S
C296 C298 1.348 . S
C296 C299 1.356 . S
C296 O326 1.325 . S
N297 C300 1.314 . S
N297 C301 1.279 . S
C298 C296 1.348 . S
C298 C300 1.353 . S
C298 H340 0.929 . S
C299 C296 1.356 . S
C299 C301 1.358 . S
C299 H341 0.930 . S
C300 N297 1.314 . S
C300 C298 1.353 . S
C300 H342 0.930 . S
C301 N297 1.279 . S
C301 C299 1.358 . S
C301 H343 0.930 . S
C302 C303 1.348 . S
C302 C304 1.356 . S
C302 O327 1.325 . S
C303 C302 1.348 . S
C303 C305 1.353 . S
C303 H344 0.929 . S
C304 C302 1.356 . S
C304 C306 1.358 . S
C304 H345 0.930 . S
C305 C303 1.353 . S
C305 N307 1.314 . S
C305 H346 0.930 . S
C306 C304 1.358 . S
C306 N307 1.279 . S
C306 H347 0.930 . S
N307 C305 1.314 . S
N307 C306 1.279 . S
C308 C310 1.353 . S
C308 N311 1.314 1_545 S
C308 H314 0.930 . S
C309 N311 1.279 . S
C309 C312 1.358 . S
C309 H315 0.930 . S
C310 C308 1.353 . S
C310 C313 1.348 1_545 S
C310 H348 0.929 . S
N311 Li266 1.990 . S
N311 C308 1.314 1_565 S
N311 C309 1.279 . S
C312 C309 1.358 . S
C312 C313 1.356 . S
C312 H349 0.930 . S
C313 C310 1.348 1_565 S
C313 C312 1.356 . S
H314 C308 0.930 . S
H315 C309 0.930 . S
C316 N317 1.314 . S
C316 C318 1.353 . S
C316 H322 0.930 . S
N317 Li267 1.990 . S
N317 C316 1.314 . S
N317 C320 1.279 . S
C318 C316 1.353 . S
C318 C321 1.348 . S
C318 H350 0.929 . S
C319 C320 1.358 . S
C319 C321 1.356 . S
C319 H351 0.930 . S
C320 N317 1.279 . S
C320 C319 1.358 . S
C320 H323 0.930 . S
C321 C318 1.348 . S
C321 C319 1.356 . S
H322 C316 0.930 . S
H323 C320 0.930 . S
O324 Li264 1.956 . S
O324 Li265 1.970 1_565 S
O324 Li266 1.961 . S
O324 C268 1.325 . S
O325 Li264 1.970 . S
O325 Li265 1.956 1_565 S
O325 Li267 1.961 . S
O325 C274 1.325 . S
O326 Li264 1.961 . S
O326 Li266 1.956 . S
O326 Li267 1.970 . S
O326 C296 1.325 . S
O327 Li265 1.961 . S
O327 Li266 1.970 1_545 S
O327 Li267 1.956 1_545 S
O327 C302 1.325 . S
H328 C270 0.929 . S
H329 C271 0.930 . S
H330 C272 0.930 . S
H331 C273 0.930 . S
H332 C275 0.930 . S
H333 C277 0.929 . S
H334 C278 0.951 . S
H335 C279 0.930 . S
H336 C282 0.930 . S
H337 C285 0.929 . S
H338 C290 0.929 . S
H339 C291 0.930 . S
H340 C298 0.929 . S
H341 C299 0.930 . S
H342 C300 0.930 . S
H343 C301 0.930 . S
H344 C303 0.929 . S
H345 C304 0.930 . S
H346 C305 0.930 . S
H347 C306 0.930 . S
H348 C310 0.929 . S
H349 C312 0.930 . S
H350 C318 0.929 . S
H351 C319 0.930 . S
Li352 N369 1.990 . S
Li352 O412 1.956 . S
Li352 O413 1.970 . S
Li352 O414 1.961 . S
Li353 N377 1.990 . S
Li353 O412 1.970 . S
Li353 O413 1.956 . S
Li353 O415 1.961 . S
Li354 N399 1.990 . S
Li354 O412 1.961 . S
Li354 O414 1.956 . S
Li354 O415 1.970 . S
Li355 N405 1.990 . S
Li355 O413 1.961 . S
Li355 O414 1.970 . S
Li355 O415 1.956 . S
C356 C358 1.348 . S
C356 C359 1.356 . S
C356 O412 1.325 . S
N357 C360 1.314 . S
N357 C361 1.279 . S
C358 C356 1.348 . S
C358 C360 1.353 . S
C358 H416 0.929 . S
C359 C356 1.356 . S
C359 C361 1.358 . S
C359 H417 0.930 . S
C360 N357 1.314 . S
C360 C358 1.353 . S
C360 H418 0.930 . S
C361 N357 1.279 . S
C361 C359 1.358 . S
C361 H419 0.930 . S
C362 C365 1.348 . S
C362 C366 1.356 . S
C362 O413 1.325 . S
C363 N364 1.279 . S
C363 C366 1.358 . S
C363 H420 0.930 . S
N364 C363 1.279 . S
N364 C367 1.314 . S
C365 C362 1.348 . S
C365 C367 1.353 . S
C365 H421 0.929 . S
C366 C362 1.356 . S
C366 C363 1.358 . S
C366 H422 0.930 . S
C367 N364 1.314 . S
C367 C365 1.353 . S
C367 H423 0.930 . S
C368 N369 1.314 . S
C368 C373 1.353 . S
C368 H374 0.930 . S
N369 Li352 1.990 . S
N369 C368 1.314 . S
N369 C371 1.279 . S
C370 C371 1.358 . S
C370 C372 1.356 . S
C370 H424 0.930 . S
C371 N369 1.279 . S
C371 C370 1.358 . S
C371 H375 0.930 . S
C372 C370 1.356 . S
C372 C373 1.348 . S
C373 C368 1.353 . S
C373 C372 1.348 . S
C373 H425 0.929 . S
H374 C368 0.930 . S
H375 C371 0.930 . S
C376 N377 1.314 . S
C376 C378 1.353 . S
C376 H382 0.930 . S
N377 Li353 1.990 . S
N377 C376 1.314 . S
N377 C380 1.279 . S
C378 C376 1.353 . S
C378 C381 1.348 . S
C378 H426 0.929 . S
C379 C380 1.358 . S
C379 C381 1.356 . S
C379 H427 0.930 . S
C380 N377 1.279 . S
C380 C379 1.358 . S
C380 H383 0.930 . S
C381 C378 1.348 . S
C381 C379 1.356 . S
H382 C376 0.930 . S
H383 C380 0.930 . S
C384 C386 1.348 . S
C384 C387 1.356 . S
C384 O414 1.325 . S
N385 C388 1.314 . S
N385 C389 1.279 . S
C386 C384 1.348 . S
C386 C388 1.353 . S
C386 H428 0.929 . S
C387 C384 1.356 . S
C387 C389 1.358 . S
C387 H429 0.930 . S
C388 N385 1.314 . S
C388 C386 1.353 . S
C388 H430 0.930 . S
C389 N385 1.279 . S
C389 C387 1.358 . S
C389 H431 0.930 . S
C390 C391 1.348 . S
C390 C392 1.356 . S
C390 O415 1.325 . S
C391 C390 1.348 . S
C391 C393 1.353 . S
C391 H432 0.929 . S
C392 C390 1.356 . S
C392 C394 1.358 . S
C392 H433 0.930 . S
C393 C391 1.353 . S
C393 N395 1.314 . S
C393 H434 0.930 . S
C394 C392 1.358 . S
C394 N395 1.279 . S
C394 H435 0.930 . S
N395 C393 1.314 . S
N395 C394 1.279 . S
C396 C398 1.353 . S
C396 N399 1.314 . S
C396 H402 0.930 . S
C397 N399 1.279 . S
C397 C400 1.358 . S
C397 H403 0.930 . S
C398 C396 1.353 . S
C398 C401 1.348 . S
C398 H436 0.929 . S
N399 Li354 1.990 . S
N399 C396 1.314 . S
N399 C397 1.279 . S
C400 C397 1.358 . S
C400 C401 1.356 . S
C400 H437 0.930 . S
C401 C398 1.348 . S
C401 C400 1.356 . S
H402 C396 0.930 . S
H403 C397 0.930 . S
C404 N405 1.314 . S
C404 C406 1.353 . S
C404 H410 0.930 . S
N405 Li355 1.990 . S
N405 C404 1.314 . S
N405 C408 1.279 . S
C406 C404 1.353 . S
C406 C409 1.348 . S
C406 H438 0.929 . S
C407 C408 1.358 . S
C407 C409 1.356 . S
C407 H439 0.930 . S
C408 N405 1.279 . S
C408 C407 1.358 . S
C408 H411 0.930 . S
C409 C406 1.348 . S
C409 C407 1.356 . S
H410 C404 0.930 . S
H411 C408 0.930 . S
O412 Li352 1.956 . S
O412 Li353 1.970 . S
O412 Li354 1.961 . S
O412 C356 1.325 . S
O413 Li352 1.970 . S
O413 Li353 1.956 . S
O413 Li355 1.961 . S
O413 C362 1.325 . S
O414 Li352 1.961 . S
O414 Li354 1.956 . S
O414 Li355 1.970 . S
O414 C384 1.325 . S
O415 Li353 1.961 . S
O415 Li354 1.970 . S
O415 Li355 1.956 . S
O415 C390 1.325 . S
H416 C358 0.929 . S
H417 C359 0.930 . S
H418 C360 0.930 . S
H419 C361 0.930 . S
H420 C363 0.930 . S
H421 C365 0.929 . S
H422 C366 0.930 . S
H423 C367 0.930 . S
H424 C370 0.930 . S
H425 C373 0.929 . S
H426 C378 0.929 . S
H427 C379 0.930 . S
H428 C386 0.929 . S
H429 C387 0.930 . S
H430 C388 0.930 . S
H431 C389 0.930 . S
H432 C391 0.929 . S
H433 C392 0.930 . S
H434 C393 0.930 . S
H435 C394 0.930 . S
H436 C398 0.929 . S
H437 C400 0.930 . S
H438 C406 0.929 . S
H439 C407 0.930 . S
Li440 N457 1.990 . S
Li440 O500 1.956 . S
Li440 O501 1.970 . S
Li440 O502 1.961 . S
Li441 N465 1.990 . S
Li441 O500 1.970 . S
Li441 O501 1.956 . S
Li441 O503 1.961 . S
Li442 N487 1.990 . S
Li442 O500 1.961 . S
Li442 O502 1.956 . S
Li442 O503 1.970 . S
Li443 N493 1.990 . S
Li443 O501 1.961 . S
Li443 O502 1.970 . S
Li443 O503 1.956 . S
C444 C446 1.348 . S
C444 C447 1.356 . S
C444 O500 1.325 . S
N445 C448 1.314 . S
N445 C449 1.279 . S
C446 C444 1.348 . S
C446 C448 1.353 . S
C446 H504 0.929 . S
C447 C444 1.356 . S
C447 C449 1.358 . S
C447 H505 0.930 . S
C448 N445 1.314 . S
C448 C446 1.353 . S
C448 H506 0.930 . S
C449 N445 1.279 . S
C449 C447 1.358 . S
C449 H507 0.930 . S
C450 C453 1.348 . S
C450 C454 1.356 . S
C450 O501 1.325 . S
C451 N452 1.279 . S
C451 C454 1.358 . S
C451 H508 0.930 . S
N452 C451 1.279 . S
N452 C455 1.314 . S
C453 C450 1.348 . S
C453 C455 1.353 . S
C453 H509 0.929 . S
C454 C450 1.356 . S
C454 C451 1.358 . S
C454 H510 0.930 . S
C455 N452 1.314 . S
C455 C453 1.353 . S
C455 H511 0.930 . S
C456 N457 1.314 . S
C456 C461 1.353 . S
C456 H462 0.930 . S
N457 Li440 1.990 . S
N457 C456 1.314 . S
N457 C459 1.279 . S
C458 C459 1.358 . S
C458 C460 1.356 . S
C458 H512 0.930 . S
C459 N457 1.279 . S
C459 C458 1.358 . S
C459 H463 0.930 . S
C460 C458 1.356 . S
C460 C461 1.348 . S
C461 C456 1.353 . S
C461 C460 1.348 . S
C461 H513 0.929 . S
H462 C456 0.930 . S
H463 C459 0.930 . S
C464 N465 1.314 . S
C464 C466 1.353 . S
C464 H470 0.930 . S
N465 Li441 1.990 . S
N465 C464 1.314 . S
N465 C468 1.279 . S
C466 C464 1.353 . S
C466 C469 1.348 . S
C466 H514 0.929 . S
C467 C468 1.358 . S
C467 C469 1.356 . S
C467 H515 0.930 . S
C468 N465 1.279 . S
C468 C467 1.358 . S
C468 H471 0.930 . S
C469 C466 1.348 . S
C469 C467 1.356 . S
H470 C464 0.930 . S
H471 C468 0.930 . S
C472 C474 1.348 . S
C472 C475 1.356 . S
C472 O502 1.325 . S
N473 C476 1.314 . S
N473 C477 1.279 . S
C474 C472 1.348 . S
C474 C476 1.353 . S
C474 H516 0.929 . S
C475 C472 1.356 . S
C475 C477 1.358 . S
C475 H517 0.930 . S
C476 N473 1.314 . S
C476 C474 1.353 . S
C476 H518 0.930 . S
C477 N473 1.279 . S
C477 C475 1.358 . S
C477 H519 0.930 . S
C478 C479 1.348 . S
C478 C480 1.356 . S
C478 O503 1.325 . S
C479 C478 1.348 . S
C479 C481 1.353 . S
C479 H520 0.929 . S
C480 C478 1.356 . S
C480 C482 1.358 . S
C480 H521 0.930 . S
C481 C479 1.353 . S
C481 N483 1.314 . S
C481 H522 0.930 . S
C482 C480 1.358 . S
C482 N483 1.279 . S
C482 H523 0.930 . S
N483 C481 1.314 . S
N483 C482 1.279 . S
C484 C486 1.353 . S
C484 N487 1.314 . S
C484 H490 0.930 . S
C485 N487 1.279 . S
C485 C488 1.358 . S
C485 H491 0.930 . S
C486 C484 1.353 . S
C486 C489 1.348 . S
C486 H524 0.929 . S
N487 Li442 1.990 . S
N487 C484 1.314 . S
N487 C485 1.279 . S
C488 C485 1.358 . S
C488 C489 1.356 . S
C488 H525 0.930 . S
C489 C486 1.348 . S
C489 C488 1.356 . S
H490 C484 0.930 . S
H491 C485 0.930 . S
C492 N493 1.314 . S
C492 C494 1.353 . S
C492 H498 0.930 . S
N493 Li443 1.990 . S
N493 C492 1.314 . S
N493 C496 1.279 . S
C494 C492 1.353 . S
C494 C497 1.348 . S
C494 H526 0.929 . S
C495 C496 1.358 . S
C495 C497 1.356 . S
C495 H527 0.930 . S
C496 N493 1.279 . S
C496 C495 1.358 . S
C496 H499 0.930 . S
C497 C494 1.348 . S
C497 C495 1.356 . S
H498 C492 0.930 . S
H499 C496 0.930 . S
O500 Li440 1.956 . S
O500 Li441 1.970 . S
O500 Li442 1.961 . S
O500 C444 1.325 . S
O501 Li440 1.970 . S
O501 Li441 1.956 . S
O501 Li443 1.961 . S
O501 C450 1.325 . S
O502 Li440 1.961 . S
O502 Li442 1.956 . S
O502 Li443 1.970 . S
O502 C472 1.325 . S
O503 Li441 1.961 . S
O503 Li442 1.970 . S
O503 Li443 1.956 . S
O503 C478 1.325 . S
H504 C446 0.929 . S
H505 C447 0.930 . S
H506 C448 0.930 . S
H507 C449 0.930 . S
H508 C451 0.930 . S
H509 C453 0.929 . S
H510 C454 0.930 . S
H511 C455 0.930 . S
H512 C458 0.930 . S
H513 C461 0.929 . S
H514 C466 0.929 . S
H515 C467 0.930 . S
H516 C474 0.929 . S
H517 C475 0.930 . S
H518 C476 0.930 . S
H519 C477 0.930 . S
H520 C479 0.929 . S
H521 C480 0.930 . S
H522 C481 0.930 . S
H523 C482 0.930 . S
H524 C486 0.929 . S
H525 C488 0.930 . S
H526 C494 0.929 . S
H527 C495 0.930 . S
Li528 N545 1.990 . S
Li528 O588 1.956 1_655 S
Li528 O589 1.970 . S
Li528 O590 1.961 . S
Li529 N553 1.990 . S
Li529 O588 1.970 1_655 S
Li529 O589 1.956 . S
Li529 O591 1.961 . S
Li530 N575 1.990 . S
Li530 O588 1.961 . S
Li530 O590 1.956 1_455 S
Li530 O591 1.970 1_455 S
Li531 N581 1.990 . S
Li531 O589 1.961 . S
Li531 O590 1.970 . S
Li531 O591 1.956 . S
C532 C534 1.348 . S
C532 C535 1.356 . S
C532 O588 1.325 . S
N533 C536 1.314 . S
N533 C537 1.279 . S
C534 C532 1.348 . S
C534 C536 1.353 . S
C534 H592 0.929 . S
C535 C532 1.356 . S
C535 C537 1.358 . S
C535 H593 0.930 . S
C536 N533 1.314 . S
C536 C534 1.353 . S
C536 H594 0.930 . S
C537 N533 1.279 . S
C537 C535 1.358 . S
C537 H595 0.930 . S
C538 C541 1.348 . S
C538 C542 1.356 . S
C538 O589 1.325 . S
C539 N540 1.279 . S
C539 C542 1.358 . S
C539 H596 0.930 . S
N540 C539 1.279 . S
N540 C543 1.314 . S
C541 C538 1.348 . S
C541 C543 1.353 . S
C541 H597 0.929 . S
C542 C538 1.356 . S
C542 C539 1.358 . S
C542 H598 0.930 . S
C543 N540 1.314 . S
C543 C541 1.353 . S
C543 H599 0.930 . S
C544 N545 1.314 . S
C544 C549 1.353 . S
C544 H550 0.930 . S
N545 Li528 1.990 . S
N545 C544 1.314 . S
N545 C547 1.279 . S
C546 C547 1.358 . S
C546 C548 1.356 . S
C546 H600 0.930 . S
C547 N545 1.279 . S
C547 C546 1.358 . S
C547 H551 0.930 . S
C548 C546 1.356 . S
C548 C549 1.348 . S
C549 C544 1.353 . S
C549 C548 1.348 . S
C549 H601 0.929 . S
H550 C544 0.930 . S
H551 C547 0.930 . S
C552 N553 1.314 1_455 S
C552 C554 1.353 . S
C552 H558 0.930 . S
N553 Li529 1.990 . S
N553 C552 1.314 1_655 S
N553 C556 1.279 . S
C554 C552 1.353 . S
C554 C557 1.348 1_455 S
C554 H602 0.929 . S
C555 C556 1.358 . S
C555 C557 1.356 . S
C555 H603 0.930 . S
C556 N553 1.279 . S
C556 C555 1.358 . S
C556 H559 0.930 . S
C557 C554 1.348 1_655 S
C557 C555 1.356 . S
H558 C552 0.930 . S
H559 C556 0.930 . S
C560 C562 1.348 . S
C560 C563 1.356 . S
C560 O590 1.325 . S
N561 C564 1.314 . S
N561 C565 1.279 . S
C562 C560 1.348 . S
C562 C564 1.353 . S
C562 H604 0.929 . S
C563 C560 1.356 . S
C563 C565 1.358 . S
C563 H605 0.951 . S
C564 N561 1.314 . S
C564 C562 1.353 . S
C564 H606 0.930 . S
C565 N561 1.279 . S
C565 C563 1.358 . S
C565 H607 0.930 . S
C566 C567 1.348 1_655 S
C566 C568 1.356 . S
C566 O591 1.325 . S
C567 C566 1.348 1_455 S
C567 C569 1.353 . S
C567 H608 0.929 . S
C568 C566 1.356 . S
C568 C570 1.358 . S
C568 H609 0.930 . S
C569 C567 1.353 . S
C569 N571 1.314 . S
C569 H610 0.930 . S
C570 C568 1.358 . S
C570 N571 1.279 1_655 S
C570 H611 0.930 . S
N571 C569 1.314 . S
N571 C570 1.279 1_455 S
C572 C574 1.353 . S
C572 N575 1.314 . S
C572 H578 0.930 . S
C573 N575 1.279 . S
C573 C576 1.358 . S
C573 H579 0.930 . S
C574 C572 1.353 . S
C574 C577 1.348 . S
C574 H612 0.929 . S
N575 Li530 1.990 . S
N575 C572 1.314 . S
N575 C573 1.279 . S
C576 C573 1.358 . S
C576 C577 1.356 . S
C576 H613 0.930 . S
C577 C574 1.348 . S
C577 C576 1.356 . S
H578 C572 0.930 . S
H579 C573 0.930 . S
C580 N581 1.314 . S
C580 C582 1.353 . S
C580 H586 0.930 . S
N581 Li531 1.990 . S
N581 C580 1.314 . S
N581 C584 1.279 . S
C582 C580 1.353 . S
C582 C585 1.348 . S
C582 H614 0.929 . S
C583 C584 1.358 . S
C583 C585 1.356 . S
C583 H615 0.930 . S
C584 N581 1.279 . S
C584 C583 1.358 . S
C584 H587 0.930 . S
C585 C582 1.348 . S
C585 C583 1.356 . S
H586 C580 0.930 . S
H587 C584 0.930 . S
O588 Li528 1.956 1_455 S
O588 Li529 1.970 1_455 S
O588 Li530 1.961 . S
O588 C532 1.325 . S
O589 Li528 1.970 . S
O589 Li529 1.956 . S
O589 Li531 1.961 . S
O589 C538 1.325 . S
O590 Li528 1.961 . S
O590 Li530 1.956 1_655 S
O590 Li531 1.970 . S
O590 C560 1.325 . S
O591 Li529 1.961 . S
O591 Li530 1.970 1_655 S
O591 Li531 1.956 . S
O591 C566 1.325 . S
H592 C534 0.929 . S
H593 C535 0.930 . S
H594 C536 0.930 . S
H595 C537 0.930 . S
H596 C539 0.930 . S
H597 C541 0.929 . S
H598 C542 0.930 . S
H599 C543 0.930 . S
H600 C546 0.930 . S
H601 C549 0.929 . S
H602 C554 0.929 . S
H603 C555 0.930 . S
H604 C562 0.929 . S
H605 C563 0.951 . S
H606 C564 0.930 . S
H607 C565 0.930 . S
H608 C567 0.929 . S
H609 C568 0.930 . S
H610 C569 0.930 . S
H611 C570 0.930 . S
H612 C574 0.929 . S
H613 C576 0.930 . S
H614 C582 0.929 . S
H615 C583 0.930 . S
Li616 N633 1.990 . S
Li616 O676 1.956 1_565 S
Li616 O677 1.970 . S
Li616 O678 1.961 . S
Li617 N641 1.990 . S
Li617 O676 1.970 1_565 S
Li617 O677 1.956 . S
Li617 O679 1.961 . S
Li618 N663 1.990 . S
Li618 O676 1.961 . S
Li618 O678 1.956 1_545 S
Li618 O679 1.970 1_545 S
Li619 N669 1.990 . S
Li619 O677 1.961 . S
Li619 O678 1.970 . S
Li619 O679 1.956 . S
C620 C622 1.348 . S
C620 C623 1.356 . S
C620 O676 1.325 . S
N621 C624 1.314 . S
N621 C625 1.279 . S
C622 C620 1.348 . S
C622 C624 1.353 . S
C622 H680 0.929 . S
C623 C620 1.356 . S
C623 C625 1.358 . S
C623 H681 0.930 . S
C624 N621 1.314 . S
C624 C622 1.353 . S
C624 H682 0.930 . S
C625 N621 1.279 . S
C625 C623 1.358 . S
C625 H683 0.930 . S
C626 C629 1.348 . S
C626 C630 1.356 . S
C626 O677 1.325 . S
C627 N628 1.279 . S
C627 C630 1.358 . S
C627 H684 0.930 . S
N628 C627 1.279 . S
N628 C631 1.314 . S
C629 C626 1.348 . S
C629 C631 1.353 . S
C629 H685 0.929 . S
C630 C626 1.356 . S
C630 C627 1.358 . S
C630 H686 0.930 . S
C631 N628 1.314 . S
C631 C629 1.353 . S
C631 H687 0.930 . S
C632 N633 1.314 . S
C632 C637 1.353 . S
C632 H638 0.930 . S
N633 Li616 1.990 . S
N633 C632 1.314 . S
N633 C635 1.279 . S
C634 C635 1.358 . S
C634 C636 1.356 . S
C634 H688 0.930 . S
C635 N633 1.279 . S
C635 C634 1.358 . S
C635 H639 0.930 . S
C636 C634 1.356 . S
C636 C637 1.348 . S
C637 C632 1.353 . S
C637 C636 1.348 . S
C637 H689 0.929 . S
H638 C632 0.930 . S
H639 C635 0.930 . S
C640 N641 1.314 1_545 S
C640 C642 1.353 . S
C640 H646 0.930 . S
N641 Li617 1.990 . S
N641 C640 1.314 1_565 S
N641 C644 1.279 . S
C642 C640 1.353 . S
C642 C645 1.348 1_545 S
C642 H690 0.929 . S
C643 C644 1.358 . S
C643 C645 1.356 . S
C643 H691 0.930 . S
C644 N641 1.279 . S
C644 C643 1.358 . S
C644 H647 0.930 . S
C645 C642 1.348 1_565 S
C645 C643 1.356 . S
H646 C640 0.930 . S
H647 C644 0.930 . S
C648 C650 1.348 . S
C648 C651 1.356 . S
C648 O678 1.325 . S
N649 C652 1.314 . S
N649 C653 1.279 . S
C650 C648 1.348 . S
C650 C652 1.353 . S
C650 H692 0.929 . S
C651 C648 1.356 . S
C651 C653 1.358 . S
C651 H693 0.951 . S
C652 N649 1.314 . S
C652 C650 1.353 . S
C652 H694 0.930 . S
C653 N649 1.279 . S
C653 C651 1.358 . S
C653 H695 0.930 . S
C654 C655 1.348 1_565 S
C654 C656 1.356 . S
C654 O679 1.325 . S
C655 C654 1.348 1_545 S
C655 C657 1.353 . S
C655 H696 0.929 . S
C656 C654 1.356 . S
C656 C658 1.358 . S
C656 H697 0.930 . S
C657 C655 1.353 . S
C657 N659 1.314 . S
C657 H698 0.930 . S
C658 C656 1.358 . S
C658 N659 1.279 1_565 S
C658 H699 0.930 . S
N659 C657 1.314 . S
N659 C658 1.279 1_545 S
C660 C662 1.353 . S
C660 N663 1.314 . S
C660 H666 0.930 . S
C661 N663 1.279 . S
C661 C664 1.358 . S
C661 H667 0.930 . S
C662 C660 1.353 . S
C662 C665 1.348 . S
C662 H700 0.929 . S
N663 Li618 1.990 . S
N663 C660 1.314 . S
N663 C661 1.279 . S
C664 C661 1.358 . S
C664 C665 1.356 . S
C664 H701 0.930 . S
C665 C662 1.348 . S
C665 C664 1.356 . S
H666 C660 0.930 . S
H667 C661 0.930 . S
C668 N669 1.314 . S
C668 C670 1.353 . S
C668 H674 0.930 . S
N669 Li619 1.990 . S
N669 C668 1.314 . S
N669 C672 1.279 . S
C670 C668 1.353 . S
C670 C673 1.348 . S
C670 H702 0.929 . S
C671 C672 1.358 . S
C671 C673 1.356 . S
C671 H703 0.930 . S
C672 N669 1.279 . S
C672 C671 1.358 . S
C672 H675 0.930 . S
C673 C670 1.348 . S
C673 C671 1.356 . S
H674 C668 0.930 . S
H675 C672 0.930 . S
O676 Li616 1.956 1_545 S
O676 Li617 1.970 1_545 S
O676 Li618 1.961 . S
O676 C620 1.325 . S
O677 Li616 1.970 . S
O677 Li617 1.956 . S
O677 Li619 1.961 . S
O677 C626 1.325 . S
O678 Li616 1.961 . S
O678 Li618 1.956 1_565 S
O678 Li619 1.970 . S
O678 C648 1.325 . S
O679 Li617 1.961 . S
O679 Li618 1.970 1_565 S
O679 Li619 1.956 . S
O679 C654 1.325 . S
H680 C622 0.929 . S
H681 C623 0.930 . S
H682 C624 0.930 . S
H683 C625 0.930 . S
H684 C627 0.930 . S
H685 C629 0.929 . S
H686 C630 0.930 . S
H687 C631 0.930 . S
H688 C634 0.930 . S
H689 C637 0.929 . S
H690 C642 0.929 . S
H691 C643 0.930 . S
H692 C650 0.929 . S
H693 C651 0.951 . S
H694 C652 0.930 . S
H695 C653 0.930 . S
H696 C655 0.929 . S
H697 C656 0.930 . S
H698 C657 0.930 . S
H699 C658 0.930 . S
H700 C662 0.929 . S
H701 C664 0.930 . S
H702 C670 0.929 . S
H703 C671 0.930 . S
Li704 N721 1.990 . S
Li704 O764 1.956 . S
Li704 O765 1.970 . S
Li704 O766 1.961 . S
Li705 N729 1.990 . S
Li705 O764 1.970 . S
Li705 O765 1.956 . S
Li705 O767 1.961 . S
Li706 N751 1.990 . S
Li706 O764 1.961 . S
Li706 O766 1.956 . S
Li706 O767 1.970 . S
Li707 N757 1.990 . S
Li707 O765 1.961 . S
Li707 O766 1.970 . S
Li707 O767 1.956 . S
C708 C710 1.348 . S
C708 C711 1.356 . S
C708 O764 1.325 . S
N709 C712 1.314 . S
N709 C713 1.279 . S
C710 C708 1.348 . S
C710 C712 1.353 . S
C710 H768 0.929 . S
C711 C708 1.356 . S
C711 C713 1.358 . S
C711 H769 0.930 . S
C712 N709 1.314 . S
C712 C710 1.353 . S
C712 H770 0.930 . S
C713 N709 1.279 . S
C713 C711 1.358 . S
C713 H771 0.930 . S
C714 C717 1.348 . S
C714 C718 1.356 . S
C714 O765 1.325 . S
C715 N716 1.279 . S
C715 C718 1.358 . S
C715 H772 0.930 . S
N716 C715 1.279 . S
N716 C719 1.314 . S
C717 C714 1.348 . S
C717 C719 1.353 . S
C717 H773 0.929 . S
C718 C714 1.356 . S
C718 C715 1.358 . S
C718 H774 0.930 . S
C719 N716 1.314 . S
C719 C717 1.353 . S
C719 H775 0.930 . S
C720 N721 1.314 . S
C720 C725 1.353 . S
C720 H726 0.930 . S
N721 Li704 1.990 . S
N721 C720 1.314 . S
N721 C723 1.279 . S
C722 C723 1.358 . S
C722 C724 1.356 . S
C722 H776 0.930 . S
C723 N721 1.279 . S
C723 C722 1.358 . S
C723 H727 0.930 . S
C724 C722 1.356 . S
C724 C725 1.348 . S
C725 C720 1.353 . S
C725 C724 1.348 . S
C725 H777 0.929 . S
H726 C720 0.930 . S
H727 C723 0.930 . S
C728 N729 1.314 . S
C728 C730 1.353 . S
C728 H734 0.930 . S
N729 Li705 1.990 . S
N729 C728 1.314 . S
N729 C732 1.279 . S
C730 C728 1.353 . S
C730 C733 1.348 . S
C730 H778 0.929 . S
C731 C732 1.358 . S
C731 C733 1.356 . S
C731 H779 0.930 . S
C732 N729 1.279 . S
C732 C731 1.358 . S
C732 H735 0.930 . S
C733 C730 1.348 . S
C733 C731 1.356 . S
H734 C728 0.930 . S
H735 C732 0.930 . S
C736 C738 1.348 . S
C736 C739 1.356 . S
C736 O766 1.325 . S
N737 C740 1.314 . S
N737 C741 1.279 . S
C738 C736 1.348 . S
C738 C740 1.353 . S
C738 H780 0.929 . S
C739 C736 1.356 . S
C739 C741 1.358 . S
C739 H781 0.930 . S
C740 N737 1.314 . S
C740 C738 1.353 . S
C740 H782 0.930 . S
C741 N737 1.279 . S
C741 C739 1.358 . S
C741 H783 0.930 . S
C742 C743 1.348 . S
C742 C744 1.356 . S
C742 O767 1.325 . S
C743 C742 1.348 . S
C743 C745 1.353 . S
C743 H784 0.929 . S
C744 C742 1.356 . S
C744 C746 1.358 . S
C744 H785 0.930 . S
C745 C743 1.353 . S
C745 N747 1.314 . S
C745 H786 0.930 . S
C746 C744 1.358 . S
C746 N747 1.279 . S
C746 H787 0.930 . S
N747 C745 1.314 . S
N747 C746 1.279 . S
C748 C750 1.353 . S
C748 N751 1.314 . S
C748 H754 0.930 . S
C749 N751 1.279 . S
C749 C752 1.358 . S
C749 H755 0.930 . S
C750 C748 1.353 . S
C750 C753 1.348 . S
C750 H788 0.929 . S
N751 Li706 1.990 . S
N751 C748 1.314 . S
N751 C749 1.279 . S
C752 C749 1.358 . S
C752 C753 1.356 . S
C752 H789 0.930 . S
C753 C750 1.348 . S
C753 C752 1.356 . S
H754 C748 0.930 . S
H755 C749 0.930 . S
C756 N757 1.314 . S
C756 C758 1.353 . S
C756 H762 0.930 . S
N757 Li707 1.990 . S
N757 C756 1.314 . S
N757 C760 1.279 . S
C758 C756 1.353 . S
C758 C761 1.348 . S
C758 H790 0.929 . S
C759 C760 1.358 . S
C759 C761 1.356 . S
C759 H791 0.930 . S
C760 N757 1.279 . S
C760 C759 1.358 . S
C760 H763 0.930 . S
C761 C758 1.348 . S
C761 C759 1.356 . S
H762 C756 0.930 . S
H763 C760 0.930 . S
O764 Li704 1.956 . S
O764 Li705 1.970 . S
O764 Li706 1.961 . S
O764 C708 1.325 . S
O765 Li704 1.970 . S
O765 Li705 1.956 . S
O765 Li707 1.961 . S
O765 C714 1.325 . S
O766 Li704 1.961 . S
O766 Li706 1.956 . S
O766 Li707 1.970 . S
O766 C736 1.325 . S
O767 Li705 1.961 . S
O767 Li706 1.970 . S
O767 Li707 1.956 . S
O767 C742 1.325 . S
H768 C710 0.929 . S
H769 C711 0.930 . S
H770 C712 0.930 . S
H771 C713 0.930 . S
H772 C715 0.930 . S
H773 C717 0.929 . S
H774 C718 0.930 . S
H775 C719 0.930 . S
H776 C722 0.930 . S
H777 C725 0.929 . S
H778 C730 0.929 . S
H779 C731 0.930 . S
H780 C738 0.929 . S
H781 C739 0.930 . S
H782 C740 0.930 . S
H783 C741 0.930 . S
H784 C743 0.929 . S
H785 C744 0.930 . S
H786 C745 0.930 . S
H787 C746 0.930 . S
H788 C750 0.929 . S
H789 C752 0.930 . S
H790 C758 0.929 . S
H791 C759 0.930 . S
Li792 N809 1.990 . S
Li792 O852 1.956 . S
Li792 O853 1.970 . S
Li792 O854 1.961 . S
Li793 N817 1.990 . S
Li793 O852 1.970 . S
Li793 O853 1.956 . S
Li793 O855 1.961 . S
Li794 N839 1.990 . S
Li794 O852 1.961 . S
Li794 O854 1.956 . S
Li794 O855 1.970 . S
Li795 N845 1.990 . S
Li795 O853 1.961 . S
Li795 O854 1.970 . S
Li795 O855 1.956 . S
C796 C798 1.348 . S
C796 C799 1.356 . S
C796 O852 1.325 . S
N797 C800 1.314 . S
N797 C801 1.279 . S
C798 C796 1.348 . S
C798 C800 1.353 . S
C798 H856 0.929 . S
C799 C796 1.356 . S
C799 C801 1.358 . S
C799 H857 0.930 . S
C800 N797 1.314 . S
C800 C798 1.353 . S
C800 H858 0.930 . S
C801 N797 1.279 . S
C801 C799 1.358 . S
C801 H859 0.930 . S
C802 C805 1.348 . S
C802 C806 1.356 . S
C802 O853 1.325 . S
C803 N804 1.279 . S
C803 C806 1.358 . S
C803 H860 0.930 . S
N804 C803 1.279 . S
N804 C807 1.314 . S
C805 C802 1.348 . S
C805 C807 1.353 . S
C805 H861 0.929 . S
C806 C802 1.356 . S
C806 C803 1.358 . S
C806 H862 0.930 . S
C807 N804 1.314 . S
C807 C805 1.353 . S
C807 H863 0.930 . S
C808 N809 1.314 . S
C808 C813 1.353 . S
C808 H814 0.930 . S
N809 Li792 1.990 . S
N809 C808 1.314 . S
N809 C811 1.279 . S
C810 C811 1.358 . S
C810 C812 1.356 . S
C810 H864 0.930 . S
C811 N809 1.279 . S
C811 C810 1.358 . S
C811 H815 0.930 . S
C812 C810 1.356 . S
C812 C813 1.348 . S
C813 C808 1.353 . S
C813 C812 1.348 . S
C813 H865 0.929 . S
H814 C808 0.930 . S
H815 C811 0.930 . S
C816 N817 1.314 . S
C816 C818 1.353 . S
C816 H822 0.930 . S
N817 Li793 1.990 . S
N817 C816 1.314 . S
N817 C820 1.279 . S
C818 C816 1.353 . S
C818 C821 1.348 . S
C818 H866 0.929 . S
C819 C820 1.358 . S
C819 C821 1.356 . S
C819 H867 0.930 . S
C820 N817 1.279 . S
C820 C819 1.358 . S
C820 H823 0.930 . S
C821 C818 1.348 . S
C821 C819 1.356 . S
H822 C816 0.930 . S
H823 C820 0.930 . S
C824 C826 1.348 . S
C824 C827 1.356 . S
C824 O854 1.325 . S
N825 C828 1.314 . S
N825 C829 1.279 . S
C826 C824 1.348 . S
C826 C828 1.353 . S
C826 H868 0.929 . S
C827 C824 1.356 . S
C827 C829 1.358 . S
C827 H869 0.930 . S
C828 N825 1.314 . S
C828 C826 1.353 . S
C828 H870 0.930 . S
C829 N825 1.279 . S
C829 C827 1.358 . S
C829 H871 0.930 . S
C830 C831 1.348 . S
C830 C832 1.356 . S
C830 O855 1.325 . S
C831 C830 1.348 . S
C831 C833 1.353 . S
C831 H872 0.929 . S
C832 C830 1.356 . S
C832 C834 1.358 . S
C832 H873 0.930 . S
C833 C831 1.353 . S
C833 N835 1.314 . S
C833 H874 0.930 . S
C834 C832 1.358 . S
C834 N835 1.279 . S
C834 H875 0.930 . S
N835 C833 1.314 . S
N835 C834 1.279 . S
C836 C838 1.353 . S
C836 N839 1.314 . S
C836 H842 0.930 . S
C837 N839 1.279 . S
C837 C840 1.358 . S
C837 H843 0.930 . S
C838 C836 1.353 . S
C838 C841 1.348 . S
C838 H876 0.929 . S
N839 Li794 1.990 . S
N839 C836 1.314 . S
N839 C837 1.279 . S
C840 C837 1.358 . S
C840 C841 1.356 . S
C840 H877 0.930 . S
C841 C838 1.348 . S
C841 C840 1.356 . S
H842 C836 0.930 . S
H843 C837 0.930 . S
C844 N845 1.314 . S
C844 C846 1.353 . S
C844 H850 0.930 . S
N845 Li795 1.990 . S
N845 C844 1.314 . S
N845 C848 1.279 . S
C846 C844 1.353 . S
C846 C849 1.348 . S
C846 H878 0.929 . S
C847 C848 1.358 . S
C847 C849 1.356 . S
C847 H879 0.930 . S
C848 N845 1.279 . S
C848 C847 1.358 . S
C848 H851 0.930 . S
C849 C846 1.348 . S
C849 C847 1.356 . S
H850 C844 0.930 . S
H851 C848 0.930 . S
O852 Li792 1.956 . S
O852 Li793 1.970 . S
O852 Li794 1.961 . S
O852 C796 1.325 . S
O853 Li792 1.970 . S
O853 Li793 1.956 . S
O853 Li795 1.961 . S
O853 C802 1.325 . S
O854 Li792 1.961 . S
O854 Li794 1.956 . S
O854 Li795 1.970 . S
O854 C824 1.325 . S
O855 Li793 1.961 . S
O855 Li794 1.970 . S
O855 Li795 1.956 . S
O855 C830 1.325 . S
H856 C798 0.929 . S
H857 C799 0.930 . S
H858 C800 0.930 . S
H859 C801 0.930 . S
H860 C803 0.930 . S
H861 C805 0.929 . S
H862 C806 0.930 . S
H863 C807 0.930 . S
H864 C810 0.930 . S
H865 C813 0.929 . S
H866 C818 0.929 . S
H867 C819 0.930 . S
H868 C826 0.929 . S
H869 C827 0.930 . S
H870 C828 0.930 . S
H871 C829 0.930 . S
H872 C831 0.929 . S
H873 C832 0.930 . S
H874 C833 0.930 . S
H875 C834 0.930 . S
H876 C838 0.929 . S
H877 C840 0.930 . S
H878 C846 0.929 . S
H879 C847 0.930 . S
Li880 N897 1.990 . S
Li880 O940 1.956 . S
Li880 O941 1.970 1_455 S
Li880 O942 1.961 . S
Li881 N905 1.990 . S
Li881 O940 1.970 1_655 S
Li881 O941 1.956 . S
Li881 O943 1.961 1_655 S
Li882 N927 1.990 . S
Li882 O940 1.961 . S
Li882 O942 1.956 . S
Li882 O943 1.970 . S
Li883 N933 1.990 . S
Li883 O941 1.961 1_455 S
Li883 O942 1.970 . S
Li883 O943 1.956 . S
C884 C886 1.348 1_455 S
C884 C887 1.356 . S
C884 O940 1.325 . S
N885 C888 1.314 . S
N885 C889 1.279 1_655 S
C886 C884 1.348 1_655 S
C886 C888 1.353 . S
C886 H944 0.929 . S
C887 C884 1.356 . S
C887 C889 1.358 . S
C887 H945 0.930 . S
C888 N885 1.314 . S
C888 C886 1.353 . S
C888 H946 0.930 . S
C889 N885 1.279 1_455 S
C889 C887 1.358 . S
C889 H947 0.930 . S
C890 C893 1.348 . S
C890 C894 1.356 . S
C890 O941 1.325 . S
C891 N892 1.279 . S
C891 C894 1.358 . S
C891 H948 0.930 . S
N892 C891 1.279 . S
N892 C895 1.314 . S
C893 C890 1.348 . S
C893 C895 1.353 . S
C893 H949 0.929 . S
C894 C890 1.356 . S
C894 C891 1.358 . S
C894 H950 0.930 . S
C895 N892 1.314 . S
C895 C893 1.353 . S
C895 H951 0.930 . S
C896 N897 1.314 . S
C896 C901 1.353 . S
C896 H902 0.930 . S
N897 Li880 1.990 . S
N897 C896 1.314 . S
N897 C899 1.286 . S
C898 C899 1.357 1_655 S
C898 C900 1.356 1_655 S
C898 H952 0.930 . S
C899 N897 1.286 . S
C899 C898 1.357 1_455 S
C899 H903 0.925 1_455 S
C900 C898 1.356 1_455 S
C900 C901 1.348 . S
C901 C896 1.353 . S
C901 C900 1.348 . S
C901 H953 0.929 . S
H902 C896 0.930 . S
H903 C899 0.925 1_655 S
C904 N905 1.314 . S
C904 C906 1.353 . S
C904 H910 0.930 . S
N905 Li881 1.990 . S
N905 C904 1.314 . S
N905 C908 1.279 . S
C906 C904 1.353 . S
C906 C909 1.348 . S
C906 H954 0.929 . S
C907 C908 1.358 . S
C907 C909 1.356 . S
C907 H955 0.930 . S
C908 N905 1.279 . S
C908 C907 1.358 . S
C908 H911 0.930 . S
C909 C906 1.348 . S
C909 C907 1.356 . S
H910 C904 0.930 . S
H911 C908 0.930 . S
C912 C914 1.348 . S
C912 C915 1.356 . S
C912 O942 1.325 . S
N913 C916 1.314 . S
N913 C917 1.279 . S
C914 C912 1.348 . S
C914 C916 1.353 . S
C914 H956 0.929 . S
C915 C912 1.356 . S
C915 C917 1.358 . S
C915 H957 0.930 . S
C916 N913 1.314 . S
C916 C914 1.353 . S
C916 H958 0.930 . S
C917 N913 1.279 . S
C917 C915 1.358 . S
C917 H959 0.930 . S
C918 C919 1.348 . S
C918 C920 1.356 . S
C918 O943 1.325 . S
C919 C918 1.348 . S
C919 C921 1.353 . S
C919 H960 0.929 . S
C920 C918 1.356 . S
C920 C922 1.358 . S
C920 H961 0.930 1_455 S
C921 C919 1.353 . S
C921 N923 1.314 . S
C921 H962 0.930 . S
C922 C920 1.358 . S
C922 N923 1.279 . S
C922 H963 0.930 1_455 S
N923 C921 1.314 . S
N923 C922 1.279 . S
C924 C926 1.353 . S
C924 N927 1.314 . S
C924 H930 0.930 . S
C925 N927 1.279 . S
C925 C928 1.358 . S
C925 H931 0.930 . S
C926 C924 1.353 . S
C926 C929 1.348 . S
C926 H964 0.929 . S
N927 Li882 1.990 . S
N927 C924 1.314 . S
N927 C925 1.279 . S
C928 C925 1.358 . S
C928 C929 1.356 . S
C928 H965 0.930 . S
C929 C926 1.348 . S
C929 C928 1.356 . S
H930 C924 0.930 . S
H931 C925 0.930 . S
C932 N933 1.314 . S
C932 C934 1.353 . S
C932 H938 0.930 . S
N933 Li883 1.990 . S
N933 C932 1.314 . S
N933 C936 1.279 . S
C934 C932 1.353 . S
C934 C937 1.348 . S
C934 H966 0.929 . S
C935 C936 1.358 . S
C935 C937 1.356 . S
C935 H967 0.930 . S
C936 N933 1.279 . S
C936 C935 1.358 . S
C936 H939 0.930 . S
C937 C934 1.348 . S
C937 C935 1.356 . S
H938 C932 0.930 . S
H939 C936 0.930 . S
O940 Li880 1.956 . S
O940 Li881 1.970 1_455 S
O940 Li882 1.961 . S
O940 C884 1.325 . S
O941 Li880 1.970 1_655 S
O941 Li881 1.956 . S
O941 Li883 1.961 1_655 S
O941 C890 1.325 . S
O942 Li880 1.961 . S
O942 Li882 1.956 . S
O942 Li883 1.970 . S
O942 C912 1.325 . S
O943 Li881 1.961 1_455 S
O943 Li882 1.970 . S
O943 Li883 1.956 . S
O943 C918 1.325 . S
H944 C886 0.929 . S
H945 C887 0.930 . S
H946 C888 0.930 . S
H947 C889 0.930 . S
H948 C891 0.930 . S
H949 C893 0.929 . S
H950 C894 0.930 . S
H951 C895 0.930 . S
H952 C898 0.930 . S
H953 C901 0.929 . S
H954 C906 0.929 . S
H955 C907 0.930 . S
H956 C914 0.929 . S
H957 C915 0.930 . S
H958 C916 0.930 . S
H959 C917 0.930 . S
H960 C919 0.929 . S
H961 C920 0.930 1_655 S
H962 C921 0.930 . S
H963 C922 0.930 1_655 S
H964 C926 0.929 . S
H965 C928 0.930 . S
H966 C934 0.929 . S
H967 C935 0.930 . S
Li968 N985 1.990 . S
Li968 O1028 1.956 . S
Li968 O1029 1.970 1_545 S
Li968 O1030 1.961 . S
Li969 N993 1.990 . S
Li969 O1028 1.970 1_565 S
Li969 O1029 1.956 . S
Li969 O1031 1.961 1_565 S
Li970 N1015 1.990 . S
Li970 O1028 1.961 . S
Li970 O1030 1.956 . S
Li970 O1031 1.970 . S
Li971 N1021 1.990 . S
Li971 O1029 1.961 1_545 S
Li971 O1030 1.970 . S
Li971 O1031 1.956 . S
C972 C974 1.348 1_545 S
C972 C975 1.356 . S
C972 O1028 1.325 . S
N973 C976 1.314 . S
N973 C977 1.279 1_565 S
C974 C972 1.348 1_565 S
C974 C976 1.353 . S
C974 H1032 0.929 . S
C975 C972 1.356 . S
C975 C977 1.358 . S
C975 H1033 0.930 . S
C976 N973 1.314 . S
C976 C974 1.353 . S
C976 H1034 0.930 . S
C977 N973 1.279 1_545 S
C977 C975 1.358 . S
C977 H1035 0.930 . S
C978 C981 1.348 . S
C978 C982 1.356 . S
C978 O1029 1.325 . S
C979 N980 1.279 . S
C979 C982 1.358 . S
C979 H1036 0.930 . S
N980 C979 1.279 . S
N980 C983 1.314 . S
C981 C978 1.348 . S
C981 C983 1.353 . S
C981 H1037 0.929 . S
C982 C978 1.356 . S
C982 C979 1.358 . S
C982 H1038 0.930 . S
C983 N980 1.314 . S
C983 C981 1.353 . S
C983 H1039 0.930 . S
C984 N985 1.314 . S
C984 C989 1.353 . S
C984 H990 0.930 . S
N985 Li968 1.990 . S
N985 C984 1.314 . S
N985 C987 1.286 . S
C986 C987 1.357 1_565 S
C986 C988 1.356 1_565 S
C986 H1040 0.930 . S
C987 N985 1.286 . S
C987 C986 1.357 1_545 S
C987 H991 0.925 1_545 S
C988 C986 1.356 1_545 S
C988 C989 1.348 . S
C989 C984 1.353 . S
C989 C988 1.348 . S
C989 H1041 0.929 . S
H990 C984 0.930 . S
H991 C987 0.925 1_565 S
C992 N993 1.314 . S
C992 C994 1.353 . S
C992 H998 0.930 . S
N993 Li969 1.990 . S
N993 C992 1.314 . S
N993 C996 1.279 . S
C994 C992 1.353 . S
C994 C997 1.348 . S
C994 H1042 0.929 . S
C995 C996 1.358 . S
C995 C997 1.356 . S
C995 H1043 0.930 . S
C996 N993 1.279 . S
C996 C995 1.358 . S
C996 H999 0.930 . S
C997 C994 1.348 . S
C997 C995 1.356 . S
H998 C992 0.930 . S
H999 C996 0.930 . S
C1000 C1002 1.348 . S
C1000 C1003 1.356 . S
C1000 O1030 1.325 . S
N1001 C1004 1.314 . S
N1001 C1005 1.279 . S
C1002 C1000 1.348 . S
C1002 C1004 1.353 . S
C1002 H1044 0.929 . S
C1003 C1000 1.356 . S
C1003 C1005 1.358 . S
C1003 H1045 0.930 . S
C1004 N1001 1.314 . S
C1004 C1002 1.353 . S
C1004 H1046 0.930 . S
C1005 N1001 1.279 . S
C1005 C1003 1.358 . S
C1005 H1047 0.930 . S
C1006 C1007 1.348 . S
C1006 C1008 1.356 . S
C1006 O1031 1.325 . S
C1007 C1006 1.348 . S
C1007 C1009 1.353 . S
C1007 H1048 0.929 . S
C1008 C1006 1.356 . S
C1008 C1010 1.358 . S
C1008 H1049 0.930 1_545 S
C1009 C1007 1.353 . S
C1009 N1011 1.314 . S
C1009 H1050 0.930 . S
C1010 C1008 1.358 . S
C1010 N1011 1.279 . S
C1010 H1051 0.930 1_545 S
N1011 C1009 1.314 . S
N1011 C1010 1.279 . S
C1012 C1014 1.353 . S
C1012 N1015 1.314 . S
C1012 H1018 0.930 . S
C1013 N1015 1.279 . S
C1013 C1016 1.358 . S
C1013 H1019 0.930 . S
C1014 C1012 1.353 . S
C1014 C1017 1.348 . S
C1014 H1052 0.929 . S
N1015 Li970 1.990 . S
N1015 C1012 1.314 . S
N1015 C1013 1.279 . S
C1016 C1013 1.358 . S
C1016 C1017 1.356 . S
C1016 H1053 0.930 . S
C1017 C1014 1.348 . S
C1017 C1016 1.356 . S
H1018 C1012 0.930 . S
H1019 C1013 0.930 . S
C1020 N1021 1.314 . S
C1020 C1022 1.353 . S
C1020 H1026 0.930 . S
N1021 Li971 1.990 . S
N1021 C1020 1.314 . S
N1021 C1024 1.279 . S
C1022 C1020 1.353 . S
C1022 C1025 1.348 . S
C1022 H1054 0.929 . S
C1023 C1024 1.358 . S
C1023 C1025 1.356 . S
C1023 H1055 0.930 . S
C1024 N1021 1.279 . S
C1024 C1023 1.358 . S
C1024 H1027 0.930 . S
C1025 C1022 1.348 . S
C1025 C1023 1.356 . S
H1026 C1020 0.930 . S
H1027 C1024 0.930 . S
O1028 Li968 1.956 . S
O1028 Li969 1.970 1_545 S
O1028 Li970 1.961 . S
O1028 C972 1.325 . S
O1029 Li968 1.970 1_565 S
O1029 Li969 1.956 . S
O1029 Li971 1.961 1_565 S
O1029 C978 1.325 . S
O1030 Li968 1.961 . S
O1030 Li970 1.956 . S
O1030 Li971 1.970 . S
O1030 C1000 1.325 . S
O1031 Li969 1.961 1_545 S
O1031 Li970 1.970 . S
O1031 Li971 1.956 . S
O1031 C1006 1.325 . S
H1032 C974 0.929 . S
H1033 C975 0.930 . S
H1034 C976 0.930 . S
H1035 C977 0.930 . S
H1036 C979 0.930 . S
H1037 C981 0.929 . S
H1038 C982 0.930 . S
H1039 C983 0.930 . S
H1040 C986 0.930 . S
H1041 C989 0.929 . S
H1042 C994 0.929 . S
H1043 C995 0.930 . S
H1044 C1002 0.929 . S
H1045 C1003 0.930 . S
H1046 C1004 0.930 . S
H1047 C1005 0.930 . S
H1048 C1007 0.929 . S
H1049 C1008 0.930 1_565 S
H1050 C1009 0.930 . S
H1051 C1010 0.930 1_565 S
H1052 C1014 0.929 . S
H1053 C1016 0.930 . S
H1054 C1022 0.929 . S
H1055 C1023 0.930 . S
Li1056 N1073 1.990 . S
Li1056 O1116 1.956 . S
Li1056 O1117 1.970 . S
Li1056 O1118 1.961 . S
Li1057 N1081 1.990 . S
Li1057 O1116 1.970 . S
Li1057 O1117 1.956 . S
Li1057 O1119 1.961 . S
Li1058 N1103 1.990 . S
Li1058 O1116 1.961 . S
Li1058 O1118 1.956 . S
Li1058 O1119 1.970 . S
Li1059 N1109 1.990 . S
Li1059 O1117 1.961 . S
Li1059 O1118 1.970 . S
Li1059 O1119 1.956 . S
C1060 C1062 1.348 . S
C1060 C1063 1.356 . S
C1060 O1116 1.325 . S
N1061 C1064 1.314 . S
N1061 C1065 1.279 . S
C1062 C1060 1.348 . S
C1062 C1064 1.353 . S
C1062 H1120 0.929 . S
C1063 C1060 1.356 . S
C1063 C1065 1.358 . S
C1063 H1121 0.930 . S
C1064 N1061 1.314 . S
C1064 C1062 1.353 . S
C1064 H1122 0.930 . S
C1065 N1061 1.279 . S
C1065 C1063 1.358 . S
C1065 H1123 0.930 . S
C1066 C1069 1.348 . S
C1066 C1070 1.356 . S
C1066 O1117 1.325 . S
C1067 N1068 1.279 . S
C1067 C1070 1.358 . S
C1067 H1124 0.930 . S
N1068 C1067 1.279 . S
N1068 C1071 1.314 . S
C1069 C1066 1.348 . S
C1069 C1071 1.353 . S
C1069 H1125 0.929 . S
C1070 C1066 1.356 . S
C1070 C1067 1.358 . S
C1070 H1126 0.930 . S
C1071 N1068 1.314 . S
C1071 C1069 1.353 . S
C1071 H1127 0.930 . S
C1072 N1073 1.314 . S
C1072 C1077 1.353 . S
C1072 H1078 0.930 . S
N1073 Li1056 1.990 . S
N1073 C1072 1.314 . S
N1073 C1075 1.279 . S
C1074 C1075 1.358 . S
C1074 C1076 1.356 . S
C1074 H1128 0.930 . S
C1075 N1073 1.279 . S
C1075 C1074 1.358 . S
C1075 H1079 0.930 . S
C1076 C1074 1.356 . S
C1076 C1077 1.348 . S
C1077 C1072 1.353 . S
C1077 C1076 1.348 . S
C1077 H1129 0.929 . S
H1078 C1072 0.930 . S
H1079 C1075 0.930 . S
C1080 N1081 1.314 . S
C1080 C1082 1.353 . S
C1080 H1086 0.930 . S
N1081 Li1057 1.990 . S
N1081 C1080 1.314 . S
N1081 C1084 1.279 . S
C1082 C1080 1.353 . S
C1082 C1085 1.348 . S
C1082 H1130 0.929 . S
C1083 C1084 1.358 . S
C1083 C1085 1.356 . S
C1083 H1131 0.930 . S
C1084 N1081 1.279 . S
C1084 C1083 1.358 . S
C1084 H1087 0.930 . S
C1085 C1082 1.348 . S
C1085 C1083 1.356 . S
H1086 C1080 0.930 . S
H1087 C1084 0.930 . S
C1088 C1090 1.348 . S
C1088 C1091 1.356 . S
C1088 O1118 1.325 . S
N1089 C1092 1.314 . S
N1089 C1093 1.279 . S
C1090 C1088 1.348 . S
C1090 C1092 1.353 . S
C1090 H1132 0.929 . S
C1091 C1088 1.356 . S
C1091 C1093 1.358 . S
C1091 H1133 0.930 . S
C1092 N1089 1.314 . S
C1092 C1090 1.353 . S
C1092 H1134 0.930 . S
C1093 N1089 1.279 . S
C1093 C1091 1.358 . S
C1093 H1135 0.930 . S
C1094 C1095 1.348 . S
C1094 C1096 1.356 . S
C1094 O1119 1.325 . S
C1095 C1094 1.348 . S
C1095 C1097 1.353 . S
C1095 H1136 0.929 . S
C1096 C1094 1.356 . S
C1096 C1098 1.358 . S
C1096 H1137 0.930 . S
C1097 C1095 1.353 . S
C1097 N1099 1.314 . S
C1097 H1138 0.930 . S
C1098 C1096 1.358 . S
C1098 N1099 1.279 . S
C1098 H1139 0.930 . S
N1099 C1097 1.314 . S
N1099 C1098 1.279 . S
C1100 C1102 1.353 . S
C1100 N1103 1.314 . S
C1100 H1106 0.930 . S
C1101 N1103 1.279 . S
C1101 C1104 1.358 . S
C1101 H1107 0.930 . S
C1102 C1100 1.353 . S
C1102 C1105 1.348 . S
C1102 H1140 0.929 . S
N1103 Li1058 1.990 . S
N1103 C1100 1.314 . S
N1103 C1101 1.279 . S
C1104 C1101 1.358 . S
C1104 C1105 1.356 . S
C1104 H1141 0.930 . S
C1105 C1102 1.348 . S
C1105 C1104 1.356 . S
H1106 C1100 0.930 . S
H1107 C1101 0.930 . S
C1108 N1109 1.314 . S
C1108 C1110 1.353 . S
C1108 H1114 0.930 . S
N1109 Li1059 1.990 . S
N1109 C1108 1.314 . S
N1109 C1112 1.279 . S
C1110 C1108 1.353 . S
C1110 C1113 1.348 . S
C1110 H1142 0.929 . S
C1111 C1112 1.358 . S
C1111 C1113 1.356 . S
C1111 H1143 0.930 . S
C1112 N1109 1.279 . S
C1112 C1111 1.358 . S
C1112 H1115 0.930 . S
C1113 C1110 1.348 . S
C1113 C1111 1.356 . S
H1114 C1108 0.930 . S
H1115 C1112 0.930 . S
O1116 Li1056 1.956 . S
O1116 Li1057 1.970 . S
O1116 Li1058 1.961 . S
O1116 C1060 1.325 . S
O1117 Li1056 1.970 . S
O1117 Li1057 1.956 . S
O1117 Li1059 1.961 . S
O1117 C1066 1.325 . S
O1118 Li1056 1.961 . S
O1118 Li1058 1.956 . S
O1118 Li1059 1.970 . S
O1118 C1088 1.325 . S
O1119 Li1057 1.961 . S
O1119 Li1058 1.970 . S
O1119 Li1059 1.956 . S
O1119 C1094 1.325 . S
H1120 C1062 0.929 . S
H1121 C1063 0.930 . S
H1122 C1064 0.930 . S
H1123 C1065 0.930 . S
H1124 C1067 0.930 . S
H1125 C1069 0.929 . S
H1126 C1070 0.930 . S
H1127 C1071 0.930 . S
H1128 C1074 0.930 . S
H1129 C1077 0.929 . S
H1130 C1082 0.929 . S
H1131 C1083 0.930 . S
H1132 C1090 0.929 . S
H1133 C1091 0.930 . S
H1134 C1092 0.930 . S
H1135 C1093 0.930 . S
H1136 C1095 0.929 . S
H1137 C1096 0.930 . S
H1138 C1097 0.930 . S
H1139 C1098 0.930 . S
H1140 C1102 0.929 . S
H1141 C1104 0.930 . S
H1142 C1110 0.929 . S
H1143 C1111 0.930 . S
Li1144 N1161 1.990 . S
Li1144 O1204 1.956 . S
Li1144 O1205 1.970 . S
Li1144 O1206 1.961 . S
Li1145 N1169 1.990 . S
Li1145 O1204 1.970 . S
Li1145 O1205 1.956 . S
Li1145 O1207 1.961 . S
Li1146 N1191 1.990 . S
Li1146 O1204 1.961 . S
Li1146 O1206 1.956 . S
Li1146 O1207 1.970 . S
Li1147 N1197 1.990 . S
Li1147 O1205 1.961 . S
Li1147 O1206 1.970 . S
Li1147 O1207 1.956 . S
C1148 C1150 1.348 . S
C1148 C1151 1.356 . S
C1148 O1204 1.325 . S
N1149 C1152 1.314 . S
N1149 C1153 1.279 . S
C1150 C1148 1.348 . S
C1150 C1152 1.353 . S
C1150 H1208 0.929 . S
C1151 C1148 1.356 . S
C1151 C1153 1.358 . S
C1151 H1209 0.930 . S
C1152 N1149 1.314 . S
C1152 C1150 1.353 . S
C1152 H1210 0.930 . S
C1153 N1149 1.279 . S
C1153 C1151 1.358 . S
C1153 H1211 0.930 . S
C1154 C1157 1.348 . S
C1154 C1158 1.356 . S
C1154 O1205 1.325 . S
C1155 N1156 1.279 . S
C1155 C1158 1.358 . S
C1155 H1212 0.930 . S
N1156 C1155 1.279 . S
N1156 C1159 1.314 . S
C1157 C1154 1.348 . S
C1157 C1159 1.353 . S
C1157 H1213 0.929 . S
C1158 C1154 1.356 . S
C1158 C1155 1.358 . S
C1158 H1214 0.930 . S
C1159 N1156 1.314 . S
C1159 C1157 1.353 . S
C1159 H1215 0.930 . S
C1160 N1161 1.314 . S
C1160 C1165 1.353 . S
C1160 H1166 0.930 . S
N1161 Li1144 1.990 . S
N1161 C1160 1.314 . S
N1161 C1163 1.279 . S
C1162 C1163 1.358 . S
C1162 C1164 1.356 . S
C1162 H1216 0.930 . S
C1163 N1161 1.279 . S
C1163 C1162 1.358 . S
C1163 H1167 0.930 . S
C1164 C1162 1.356 . S
C1164 C1165 1.348 . S
C1165 C1160 1.353 . S
C1165 C1164 1.348 . S
C1165 H1217 0.929 . S
H1166 C1160 0.930 . S
H1167 C1163 0.930 . S
C1168 N1169 1.314 . S
C1168 C1170 1.353 . S
C1168 H1174 0.930 . S
N1169 Li1145 1.990 . S
N1169 C1168 1.314 . S
N1169 C1172 1.279 . S
C1170 C1168 1.353 . S
C1170 C1173 1.348 . S
C1170 H1218 0.929 . S
C1171 C1172 1.358 . S
C1171 C1173 1.356 . S
C1171 H1219 0.930 . S
C1172 N1169 1.279 . S
C1172 C1171 1.358 . S
C1172 H1175 0.930 . S
C1173 C1170 1.348 . S
C1173 C1171 1.356 . S
H1174 C1168 0.930 . S
H1175 C1172 0.930 . S
C1176 C1178 1.348 . S
C1176 C1179 1.356 . S
C1176 O1206 1.325 . S
N1177 C1180 1.314 . S
N1177 C1181 1.279 . S
C1178 C1176 1.348 . S
C1178 C1180 1.353 . S
C1178 H1220 0.929 . S
C1179 C1176 1.356 . S
C1179 C1181 1.358 . S
C1179 H1221 0.930 . S
C1180 N1177 1.314 . S
C1180 C1178 1.353 . S
C1180 H1222 0.930 . S
C1181 N1177 1.279 . S
C1181 C1179 1.358 . S
C1181 H1223 0.930 . S
C1182 C1183 1.348 . S
C1182 C1184 1.356 . S
C1182 O1207 1.325 . S
C1183 C1182 1.348 . S
C1183 C1185 1.353 . S
C1183 H1224 0.929 . S
C1184 C1182 1.356 . S
C1184 C1186 1.358 . S
C1184 H1225 0.930 . S
C1185 C1183 1.353 . S
C1185 N1187 1.314 . S
C1185 H1226 0.930 . S
C1186 C1184 1.358 . S
C1186 N1187 1.279 . S
C1186 H1227 0.930 . S
N1187 C1185 1.314 . S
N1187 C1186 1.279 . S
C1188 C1190 1.353 . S
C1188 N1191 1.314 . S
C1188 H1194 0.930 . S
C1189 N1191 1.279 . S
C1189 C1192 1.358 . S
C1189 H1195 0.930 . S
C1190 C1188 1.353 . S
C1190 C1193 1.348 . S
C1190 H1228 0.929 . S
N1191 Li1146 1.990 . S
N1191 C1188 1.314 . S
N1191 C1189 1.279 . S
C1192 C1189 1.358 . S
C1192 C1193 1.356 . S
C1192 H1229 0.930 . S
C1193 C1190 1.348 . S
C1193 C1192 1.356 . S
H1194 C1188 0.930 . S
H1195 C1189 0.930 . S
C1196 N1197 1.314 . S
C1196 C1198 1.353 . S
C1196 H1202 0.930 . S
N1197 Li1147 1.990 . S
N1197 C1196 1.314 . S
N1197 C1200 1.279 . S
C1198 C1196 1.353 . S
C1198 C1201 1.348 . S
C1198 H1230 0.929 . S
C1199 C1200 1.358 . S
C1199 C1201 1.356 . S
C1199 H1231 0.930 . S
C1200 N1197 1.279 . S
C1200 C1199 1.358 . S
C1200 H1203 0.930 . S
C1201 C1198 1.348 . S
C1201 C1199 1.356 . S
H1202 C1196 0.930 . S
H1203 C1200 0.930 . S
O1204 Li1144 1.956 . S
O1204 Li1145 1.970 . S
O1204 Li1146 1.961 . S
O1204 C1148 1.325 . S
O1205 Li1144 1.970 . S
O1205 Li1145 1.956 . S
O1205 Li1147 1.961 . S
O1205 C1154 1.325 . S
O1206 Li1144 1.961 . S
O1206 Li1146 1.956 . S
O1206 Li1147 1.970 . S
O1206 C1176 1.325 . S
O1207 Li1145 1.961 . S
O1207 Li1146 1.970 . S
O1207 Li1147 1.956 . S
O1207 C1182 1.325 . S
H1208 C1150 0.929 . S
H1209 C1151 0.930 . S
H1210 C1152 0.930 . S
H1211 C1153 0.930 . S
H1212 C1155 0.930 . S
H1213 C1157 0.929 . S
H1214 C1158 0.930 . S
H1215 C1159 0.930 . S
H1216 C1162 0.930 . S
H1217 C1165 0.929 . S
H1218 C1170 0.929 . S
H1219 C1171 0.930 . S
H1220 C1178 0.929 . S
H1221 C1179 0.930 . S
H1222 C1180 0.930 . S
H1223 C1181 0.930 . S
H1224 C1183 0.929 . S
H1225 C1184 0.930 . S
H1226 C1185 0.930 . S
H1227 C1186 0.930 . S
H1228 C1190 0.929 . S
H1229 C1192 0.930 . S
H1230 C1198 0.929 . S
H1231 C1199 0.930 . S
Li1232 N1249 1.990 . S
Li1232 O1292 1.956 . S
Li1232 O1293 1.970 . S
Li1232 O1294 1.961 . S
Li1233 N1257 1.990 . S
Li1233 O1292 1.970 . S
Li1233 O1293 1.956 . S
Li1233 O1295 1.961 1_455 S
Li1234 N1279 1.990 . S
Li1234 O1292 1.961 . S
Li1234 O1294 1.956 . S
Li1234 O1295 1.970 1_455 S
Li1235 N1285 1.990 . S
Li1235 O1293 1.961 1_655 S
Li1235 O1294 1.970 1_655 S
Li1235 O1295 1.956 . S
C1236 C1238 1.348 . S
C1236 C1239 1.356 . S
C1236 O1292 1.325 . S
N1237 C1240 1.314 . S
N1237 C1241 1.279 . S
C1238 C1236 1.348 . S
C1238 C1240 1.353 . S
C1238 H1296 0.929 . S
C1239 C1236 1.356 . S
C1239 C1241 1.358 . S
C1239 H1297 0.930 . S
C1240 N1237 1.314 . S
C1240 C1238 1.353 . S
C1240 H1298 0.930 . S
C1241 N1237 1.279 . S
C1241 C1239 1.358 . S
C1241 H1299 0.930 . S
C1242 C1245 1.348 . S
C1242 C1246 1.356 . S
C1242 O1293 1.325 . S
C1243 N1244 1.279 . S
C1243 C1246 1.358 . S
C1243 H1300 0.930 1_455 S
N1244 C1243 1.279 . S
N1244 C1247 1.314 . S
C1245 C1242 1.348 . S
C1245 C1247 1.353 . S
C1245 H1301 0.929 . S
C1246 C1242 1.356 . S
C1246 C1243 1.358 . S
C1246 H1302 0.930 1_455 S
C1247 N1244 1.314 . S
C1247 C1245 1.353 . S
C1247 H1303 0.930 . S
C1248 N1249 1.314 . S
C1248 C1253 1.353 . S
C1248 H1254 0.930 . S
N1249 Li1232 1.990 . S
N1249 C1248 1.314 . S
N1249 C1251 1.279 . S
C1250 C1251 1.358 . S
C1250 C1252 1.356 . S
C1250 H1304 0.930 . S
C1251 N1249 1.279 . S
C1251 C1250 1.358 . S
C1251 H1255 0.930 . S
C1252 C1250 1.356 . S
C1252 C1253 1.348 . S
C1253 C1248 1.353 . S
C1253 C1252 1.348 . S
C1253 H1305 0.929 . S
H1254 C1248 0.930 . S
H1255 C1251 0.930 . S
C1256 N1257 1.314 . S
C1256 C1258 1.353 . S
C1256 H1262 0.930 . S
N1257 Li1233 1.990 . S
N1257 C1256 1.314 . S
N1257 C1260 1.279 . S
C1258 C1256 1.353 . S
C1258 C1261 1.348 . S
C1258 H1306 0.929 . S
C1259 C1260 1.358 . S
C1259 C1261 1.356 . S
C1259 H1307 0.930 . S
C1260 N1257 1.279 . S
C1260 C1259 1.358 . S
C1260 H1263 0.930 . S
C1261 C1258 1.348 . S
C1261 C1259 1.356 . S
H1262 C1256 0.930 . S
H1263 C1260 0.930 . S
C1264 C1266 1.348 1_455 S
C1264 C1267 1.356 . S
C1264 O1294 1.325 . S
N1265 C1268 1.314 . S
N1265 C1269 1.279 1_655 S
C1266 C1264 1.348 1_655 S
C1266 C1268 1.353 . S
C1266 H1308 0.929 . S
C1267 C1264 1.356 . S
C1267 C1269 1.358 . S
C1267 H1309 0.930 . S
C1268 N1265 1.314 . S
C1268 C1266 1.353 . S
C1268 H1310 0.930 . S
C1269 N1265 1.279 1_455 S
C1269 C1267 1.358 . S
C1269 H1311 0.930 . S
C1270 C1271 1.348 . S
C1270 C1272 1.356 . S
C1270 O1295 1.325 . S
C1271 C1270 1.348 . S
C1271 C1273 1.353 . S
C1271 H1312 0.929 . S
C1272 C1270 1.356 . S
C1272 C1274 1.358 . S
C1272 H1313 0.930 . S
C1273 C1271 1.353 . S
C1273 N1275 1.314 . S
C1273 H1314 0.930 . S
C1274 C1272 1.358 . S
C1274 N1275 1.279 . S
C1274 H1315 0.930 . S
N1275 C1273 1.314 . S
N1275 C1274 1.279 . S
C1276 C1278 1.353 . S
C1276 N1279 1.314 . S
C1276 H1282 0.930 . S
C1277 N1279 1.286 . S
C1277 C1280 1.357 1_455 S
C1277 H1283 0.925 1_455 S
C1278 C1276 1.353 . S
C1278 C1281 1.348 . S
C1278 H1316 0.929 . S
N1279 Li1234 1.990 . S
N1279 C1276 1.314 . S
N1279 C1277 1.286 . S
C1280 C1277 1.357 1_655 S
C1280 C1281 1.356 1_655 S
C1280 H1317 0.930 . S
C1281 C1278 1.348 . S
C1281 C1280 1.356 1_455 S
H1282 C1276 0.930 . S
H1283 C1277 0.925 1_655 S
C1284 N1285 1.314 . S
C1284 C1286 1.353 . S
C1284 H1290 0.930 . S
N1285 Li1235 1.990 . S
N1285 C1284 1.314 . S
N1285 C1288 1.279 . S
C1286 C1284 1.353 . S
C1286 C1289 1.348 . S
C1286 H1318 0.929 . S
C1287 C1288 1.358 . S
C1287 C1289 1.356 . S
C1287 H1319 0.930 . S
C1288 N1285 1.279 . S
C1288 C1287 1.358 . S
C1288 H1291 0.930 . S
C1289 C1286 1.348 . S
C1289 C1287 1.356 . S
H1290 C1284 0.930 . S
H1291 C1288 0.930 . S
O1292 Li1232 1.956 . S
O1292 Li1233 1.970 . S
O1292 Li1234 1.961 . S
O1292 C1236 1.325 . S
O1293 Li1232 1.970 . S
O1293 Li1233 1.956 . S
O1293 Li1235 1.961 1_455 S
O1293 C1242 1.325 . S
O1294 Li1232 1.961 . S
O1294 Li1234 1.956 . S
O1294 Li1235 1.970 1_455 S
O1294 C1264 1.325 . S
O1295 Li1233 1.961 1_655 S
O1295 Li1234 1.970 1_655 S
O1295 Li1235 1.956 . S
O1295 C1270 1.325 . S
H1296 C1238 0.929 . S
H1297 C1239 0.930 . S
H1298 C1240 0.930 . S
H1299 C1241 0.930 . S
H1300 C1243 0.930 1_655 S
H1301 C1245 0.929 . S
H1302 C1246 0.930 1_655 S
H1303 C1247 0.930 . S
H1304 C1250 0.930 . S
H1305 C1253 0.929 . S
H1306 C1258 0.929 . S
H1307 C1259 0.930 . S
H1308 C1266 0.929 . S
H1309 C1267 0.930 . S
H1310 C1268 0.930 . S
H1311 C1269 0.930 . S
H1312 C1271 0.929 . S
H1313 C1272 0.930 . S
H1314 C1273 0.930 . S
H1315 C1274 0.930 . S
H1316 C1278 0.929 . S
H1317 C1280 0.930 . S
H1318 C1286 0.929 . S
H1319 C1287 0.930 . S
Li1320 N1337 1.990 . S
Li1320 O1380 1.956 . S
Li1320 O1381 1.970 . S
Li1320 O1382 1.961 . S
Li1321 N1345 1.990 . S
Li1321 O1380 1.970 . S
Li1321 O1381 1.956 . S
Li1321 O1383 1.961 1_545 S
Li1322 N1367 1.990 . S
Li1322 O1380 1.961 . S
Li1322 O1382 1.956 . S
Li1322 O1383 1.970 1_545 S
Li1323 N1373 1.990 . S
Li1323 O1381 1.961 1_565 S
Li1323 O1382 1.970 1_565 S
Li1323 O1383 1.956 . S
C1324 C1326 1.348 . S
C1324 C1327 1.356 . S
C1324 O1380 1.325 . S
N1325 C1328 1.314 . S
N1325 C1329 1.279 . S
C1326 C1324 1.348 . S
C1326 C1328 1.353 . S
C1326 H1384 0.929 . S
C1327 C1324 1.356 . S
C1327 C1329 1.358 . S
C1327 H1385 0.930 . S
C1328 N1325 1.314 . S
C1328 C1326 1.353 . S
C1328 H1386 0.930 . S
C1329 N1325 1.279 . S
C1329 C1327 1.358 . S
C1329 H1387 0.930 . S
C1330 C1333 1.348 . S
C1330 C1334 1.356 . S
C1330 O1381 1.325 . S
C1331 N1332 1.279 . S
C1331 C1334 1.358 . S
C1331 H1388 0.930 1_545 S
N1332 C1331 1.279 . S
N1332 C1335 1.314 . S
C1333 C1330 1.348 . S
C1333 C1335 1.353 . S
C1333 H1389 0.929 . S
C1334 C1330 1.356 . S
C1334 C1331 1.358 . S
C1334 H1390 0.930 1_545 S
C1335 N1332 1.314 . S
C1335 C1333 1.353 . S
C1335 H1391 0.930 . S
C1336 N1337 1.314 . S
C1336 C1341 1.353 . S
C1336 H1342 0.930 . S
N1337 Li1320 1.990 . S
N1337 C1336 1.314 . S
N1337 C1339 1.279 . S
C1338 C1339 1.358 . S
C1338 C1340 1.356 . S
C1338 H1392 0.930 . S
C1339 N1337 1.279 . S
C1339 C1338 1.358 . S
C1339 H1343 0.930 . S
C1340 C1338 1.356 . S
C1340 C1341 1.348 . S
C1341 C1336 1.353 . S
C1341 C1340 1.348 . S
C1341 H1393 0.929 . S
H1342 C1336 0.930 . S
H1343 C1339 0.930 . S
C1344 N1345 1.314 . S
C1344 C1346 1.353 . S
C1344 H1350 0.930 . S
N1345 Li1321 1.990 . S
N1345 C1344 1.314 . S
N1345 C1348 1.279 . S
C1346 C1344 1.353 . S
C1346 C1349 1.348 . S
C1346 H1394 0.929 . S
C1347 C1348 1.358 . S
C1347 C1349 1.356 . S
C1347 H1395 0.930 . S
C1348 N1345 1.279 . S
C1348 C1347 1.358 . S
C1348 H1351 0.930 . S
C1349 C1346 1.348 . S
C1349 C1347 1.356 . S
H1350 C1344 0.930 . S
H1351 C1348 0.930 . S
C1352 C1354 1.348 1_545 S
C1352 C1355 1.356 . S
C1352 O1382 1.325 . S
N1353 C1356 1.314 . S
N1353 C1357 1.279 1_565 S
C1354 C1352 1.348 1_565 S
C1354 C1356 1.353 . S
C1354 H1396 0.929 . S
C1355 C1352 1.356 . S
C1355 C1357 1.358 . S
C1355 H1397 0.930 . S
C1356 N1353 1.314 . S
C1356 C1354 1.353 . S
C1356 H1398 0.930 . S
C1357 N1353 1.279 1_545 S
C1357 C1355 1.358 . S
C1357 H1399 0.930 . S
C1358 C1359 1.348 . S
C1358 C1360 1.356 . S
C1358 O1383 1.325 . S
C1359 C1358 1.348 . S
C1359 C1361 1.353 . S
C1359 H1400 0.929 . S
C1360 C1358 1.356 . S
C1360 C1362 1.358 . S
C1360 H1401 0.930 . S
C1361 C1359 1.353 . S
C1361 N1363 1.314 . S
C1361 H1402 0.930 . S
C1362 C1360 1.358 . S
C1362 N1363 1.279 . S
C1362 H1403 0.930 . S
N1363 C1361 1.314 . S
N1363 C1362 1.279 . S
C1364 C1366 1.353 . S
C1364 N1367 1.314 . S
C1364 H1370 0.930 . S
C1365 N1367 1.286 . S
C1365 C1368 1.357 1_545 S
C1365 H1371 0.925 1_545 S
C1366 C1364 1.353 . S
C1366 C1369 1.348 . S
C1366 H1404 0.929 . S
N1367 Li1322 1.990 . S
N1367 C1364 1.314 . S
N1367 C1365 1.286 . S
C1368 C1365 1.357 1_565 S
C1368 C1369 1.356 1_565 S
C1368 H1405 0.930 . S
C1369 C1366 1.348 . S
C1369 C1368 1.356 1_545 S
H1370 C1364 0.930 . S
H1371 C1365 0.925 1_565 S
C1372 N1373 1.314 . S
C1372 C1374 1.353 . S
C1372 H1378 0.930 . S
N1373 Li1323 1.990 . S
N1373 C1372 1.314 . S
N1373 C1376 1.279 . S
C1374 C1372 1.353 . S
C1374 C1377 1.348 . S
C1374 H1406 0.929 . S
C1375 C1376 1.358 . S
C1375 C1377 1.356 . S
C1375 H1407 0.930 . S
C1376 N1373 1.279 . S
C1376 C1375 1.358 . S
C1376 H1379 0.930 . S
C1377 C1374 1.348 . S
C1377 C1375 1.356 . S
H1378 C1372 0.930 . S
H1379 C1376 0.930 . S
O1380 Li1320 1.956 . S
O1380 Li1321 1.970 . S
O1380 Li1322 1.961 . S
O1380 C1324 1.325 . S
O1381 Li1320 1.970 . S
O1381 Li1321 1.956 . S
O1381 Li1323 1.961 1_545 S
O1381 C1330 1.325 . S
O1382 Li1320 1.961 . S
O1382 Li1322 1.956 . S
O1382 Li1323 1.970 1_545 S
O1382 C1352 1.325 . S
O1383 Li1321 1.961 1_565 S
O1383 Li1322 1.970 1_565 S
O1383 Li1323 1.956 . S
O1383 C1358 1.325 . S
H1384 C1326 0.929 . S
H1385 C1327 0.930 . S
H1386 C1328 0.930 . S
H1387 C1329 0.930 . S
H1388 C1331 0.930 1_565 S
H1389 C1333 0.929 . S
H1390 C1334 0.930 1_565 S
H1391 C1335 0.930 . S
H1392 C1338 0.930 . S
H1393 C1341 0.929 . S
H1394 C1346 0.929 . S
H1395 C1347 0.930 . S
H1396 C1354 0.929 . S
H1397 C1355 0.930 . S
H1398 C1356 0.930 . S
H1399 C1357 0.930 . S
H1400 C1359 0.929 . S
H1401 C1360 0.930 . S
H1402 C1361 0.930 . S
H1403 C1362 0.930 . S
H1404 C1366 0.929 . S
H1405 C1368 0.930 . S
H1406 C1374 0.929 . S
H1407 C1375 0.930 . S
C1408 C1409 1.391 . S
C1408 C1410 1.394 . S
C1408 H1424 0.931 . S
C1409 C1408 1.391 . S
C1409 C1413 1.376 . S
C1410 C1408 1.394 . S
C1410 C1411 1.369 . S
C1410 C1414 1.531 . S
C1411 C1410 1.369 . S
C1411 C1412 1.410 . S
C1411 C1419 1.503 . S
C1412 C1411 1.410 . S
C1412 C1413 1.392 . S
C1412 C1415 1.511 . S
C1413 C1409 1.376 . S
C1413 C1412 1.392 . S
C1413 H1425 0.929 . S
C1414 C1410 1.531 . S
C1414 H1426 0.960 . S
C1414 H1427 0.962 . S
C1414 H1428 0.960 . S
C1415 C1412 1.511 . S
C1415 H1429 0.961 . S
C1415 H1430 0.961 . S
C1415 H1431 0.961 . S
C1416 C1417 1.370 . S
C1416 C1418 1.363 . S
C1416 H1432 0.931 . S
C1417 C1416 1.370 . S
C1417 C1421 1.408 . S
C1418 C1416 1.363 . S
C1418 C1419 1.370 . S
C1418 C1422 1.524 . S
C1419 C1411 1.503 . S
C1419 C1418 1.370 . S
C1419 C1420 1.403 . S
C1420 C1419 1.403 . S
C1420 C1421 1.404 . S
C1420 C1423 1.539 . S
C1421 C1417 1.408 . S
C1421 C1420 1.404 . S
C1421 H1433 0.930 . S
C1422 C1418 1.524 . S
C1422 H1434 0.956 . S
C1422 H1435 0.961 . S
C1422 H1436 0.961 . S
C1423 C1420 1.539 . S
C1423 H1437 0.958 . S
C1423 H1438 0.961 . S
C1423 H1439 0.960 . S
H1424 C1408 0.931 . S
H1425 C1413 0.929 . S
H1426 C1414 0.960 . S
H1427 C1414 0.962 . S
H1428 C1414 0.960 . S
H1429 C1415 0.961 . S
H1430 C1415 0.961 . S
H1431 C1415 0.961 . S
H1432 C1416 0.931 . S
H1433 C1421 0.930 . S
H1434 C1422 0.956 . S
H1435 C1422 0.961 . S
H1436 C1422 0.961 . S
H1437 C1423 0.958 . S
H1438 C1423 0.961 . S
H1439 C1423 0.960 . S
C1440 C1441 1.391 . S
C1440 C1442 1.394 . S
C1440 H1456 0.931 . S
C1441 C1440 1.391 . S
C1441 C1445 1.376 . S
C1442 C1440 1.394 . S
C1442 C1443 1.369 . S
C1442 C1446 1.531 . S
C1443 C1442 1.369 . S
C1443 C1444 1.410 . S
C1443 C1451 1.503 . S
C1444 C1443 1.410 . S
C1444 C1445 1.392 . S
C1444 C1447 1.511 . S
C1445 C1441 1.376 . S
C1445 C1444 1.392 . S
C1445 H1457 0.929 . S
C1446 C1442 1.531 . S
C1446 H1458 0.960 . S
C1446 H1459 0.962 . S
C1446 H1460 0.960 . S
C1447 C1444 1.511 . S
C1447 H1461 0.961 . S
C1447 H1462 0.961 . S
C1447 H1463 0.961 . S
C1448 C1449 1.370 . S
C1448 C1450 1.363 . S
C1448 H1464 0.931 . S
C1449 C1448 1.370 . S
C1449 C1453 1.408 . S
C1450 C1448 1.363 . S
C1450 C1451 1.370 . S
C1450 C1454 1.524 . S
C1451 C1443 1.503 . S
C1451 C1450 1.370 . S
C1451 C1452 1.403 . S
C1452 C1451 1.403 . S
C1452 C1453 1.404 . S
C1452 C1455 1.539 . S
C1453 C1449 1.408 . S
C1453 C1452 1.404 . S
C1453 H1465 0.930 . S
C1454 C1450 1.524 . S
C1454 H1466 0.956 . S
C1454 H1467 0.961 . S
C1454 H1468 0.961 . S
C1455 C1452 1.539 . S
C1455 H1469 0.958 . S
C1455 H1470 0.961 . S
C1455 H1471 0.960 . S
H1456 C1440 0.931 . S
H1457 C1445 0.929 . S
H1458 C1446 0.960 . S
H1459 C1446 0.962 . S
H1460 C1446 0.960 . S
H1461 C1447 0.961 . S
H1462 C1447 0.961 . S
H1463 C1447 0.961 . S
H1464 C1448 0.931 . S
H1465 C1453 0.930 . S
H1466 C1454 0.956 . S
H1467 C1454 0.961 . S
H1468 C1454 0.961 . S
H1469 C1455 0.958 . S
H1470 C1455 0.961 . S
H1471 C1455 0.960 . S
C1472 C1473 1.391 . S
C1472 C1474 1.394 . S
C1472 H1488 0.931 . S
C1473 C1472 1.391 . S
C1473 C1477 1.376 . S
C1474 C1472 1.394 . S
C1474 C1475 1.369 . S
C1474 C1478 1.531 . S
C1475 C1474 1.369 . S
C1475 C1476 1.410 . S
C1475 C1483 1.503 . S
C1476 C1475 1.410 . S
C1476 C1477 1.392 . S
C1476 C1479 1.511 . S
C1477 C1473 1.376 . S
C1477 C1476 1.392 . S
C1477 H1489 0.929 . S
C1478 C1474 1.531 . S
C1478 H1490 0.960 . S
C1478 H1491 0.962 . S
C1478 H1492 0.960 . S
C1479 C1476 1.511 . S
C1479 H1493 0.961 . S
C1479 H1494 0.961 . S
C1479 H1495 0.961 . S
C1480 C1481 1.370 . S
C1480 C1482 1.363 . S
C1480 H1496 0.931 . S
C1481 C1480 1.370 . S
C1481 C1485 1.408 . S
C1482 C1480 1.363 . S
C1482 C1483 1.370 . S
C1482 C1486 1.524 . S
C1483 C1475 1.503 . S
C1483 C1482 1.370 . S
C1483 C1484 1.403 . S
C1484 C1483 1.403 . S
C1484 C1485 1.404 . S
C1484 C1487 1.539 . S
C1485 C1481 1.408 . S
C1485 C1484 1.404 . S
C1485 H1497 0.930 . S
C1486 C1482 1.524 . S
C1486 H1498 0.956 . S
C1486 H1499 0.961 . S
C1486 H1500 0.961 . S
C1487 C1484 1.539 . S
C1487 H1501 0.958 . S
C1487 H1502 0.961 . S
C1487 H1503 0.960 . S
H1488 C1472 0.931 . S
H1489 C1477 0.929 . S
H1490 C1478 0.960 . S
H1491 C1478 0.962 . S
H1492 C1478 0.960 . S
H1493 C1479 0.961 . S
H1494 C1479 0.961 . S
H1495 C1479 0.961 . S
H1496 C1480 0.931 . S
H1497 C1485 0.930 . S
H1498 C1486 0.956 . S
H1499 C1486 0.961 . S
H1500 C1486 0.961 . S
H1501 C1487 0.958 . S
H1502 C1487 0.961 . S
H1503 C1487 0.960 . S
C1504 C1505 1.391 . S
C1504 C1506 1.394 . S
C1504 H1520 0.931 . S
C1505 C1504 1.391 . S
C1505 C1509 1.376 . S
C1506 C1504 1.394 . S
C1506 C1507 1.369 . S
C1506 C1510 1.531 . S
C1507 C1506 1.369 . S
C1507 C1508 1.410 . S
C1507 C1515 1.503 . S
C1508 C1507 1.410 . S
C1508 C1509 1.392 . S
C1508 C1511 1.511 . S
C1509 C1505 1.376 . S
C1509 C1508 1.392 . S
C1509 H1521 0.929 . S
C1510 C1506 1.531 . S
C1510 H1522 0.960 . S
C1510 H1523 0.962 . S
C1510 H1524 0.960 . S
C1511 C1508 1.511 . S
C1511 H1525 0.961 . S
C1511 H1526 0.961 . S
C1511 H1527 0.961 . S
C1512 C1513 1.370 . S
C1512 C1514 1.363 . S
C1512 H1528 0.931 . S
C1513 C1512 1.370 . S
C1513 C1517 1.408 . S
C1514 C1512 1.363 . S
C1514 C1515 1.370 . S
C1514 C1518 1.524 . S
C1515 C1507 1.503 . S
C1515 C1514 1.370 . S
C1515 C1516 1.403 . S
C1516 C1515 1.403 . S
C1516 C1517 1.404 . S
C1516 C1519 1.539 . S
C1517 C1513 1.408 . S
C1517 C1516 1.404 . S
C1517 H1529 0.930 . S
C1518 C1514 1.524 . S
C1518 H1530 0.956 . S
C1518 H1531 0.961 . S
C1518 H1532 0.961 . S
C1519 C1516 1.539 . S
C1519 H1533 0.958 . S
C1519 H1534 0.961 . S
C1519 H1535 0.960 . S
H1520 C1504 0.931 . S
H1521 C1509 0.929 . S
H1522 C1510 0.960 . S
H1523 C1510 0.962 . S
H1524 C1510 0.960 . S
H1525 C1511 0.961 . S
H1526 C1511 0.961 . S
H1527 C1511 0.961 . S
H1528 C1512 0.931 . S
H1529 C1517 0.930 . S
H1530 C1518 0.956 . S
H1531 C1518 0.961 . S
H1532 C1518 0.961 . S
H1533 C1519 0.958 . S
H1534 C1519 0.961 . S
H1535 C1519 0.960 . S
C1536 C1537 1.391 . S
C1536 C1538 1.394 . S
C1536 H1552 0.931 . S
C1537 C1536 1.391 . S
C1537 C1541 1.376 . S
C1538 C1536 1.394 . S
C1538 C1539 1.369 . S
C1538 C1542 1.531 . S
C1539 C1538 1.369 . S
C1539 C1540 1.410 . S
C1539 C1547 1.503 . S
C1540 C1539 1.410 . S
C1540 C1541 1.392 . S
C1540 C1543 1.511 . S
C1541 C1537 1.376 . S
C1541 C1540 1.392 . S
C1541 H1553 0.929 . S
C1542 C1538 1.531 . S
C1542 H1554 0.960 . S
C1542 H1555 0.962 . S
C1542 H1556 0.960 . S
C1543 C1540 1.511 . S
C1543 H1557 0.961 . S
C1543 H1558 0.961 . S
C1543 H1559 0.961 . S
C1544 C1545 1.370 . S
C1544 C1546 1.363 . S
C1544 H1560 0.931 . S
C1545 C1544 1.370 . S
C1545 C1549 1.408 . S
C1546 C1544 1.363 . S
C1546 C1547 1.370 . S
C1546 C1550 1.524 . S
C1547 C1539 1.503 . S
C1547 C1546 1.370 . S
C1547 C1548 1.403 . S
C1548 C1547 1.403 . S
C1548 C1549 1.404 . S
C1548 C1551 1.539 . S
C1549 C1545 1.408 . S
C1549 C1548 1.404 . S
C1549 H1561 0.930 . S
C1550 C1546 1.524 . S
C1550 H1562 0.956 . S
C1550 H1563 0.961 . S
C1550 H1564 0.961 . S
C1551 C1548 1.539 . S
C1551 H1565 0.958 . S
C1551 H1566 0.961 . S
C1551 H1567 0.960 . S
H1552 C1536 0.931 . S
H1553 C1541 0.929 . S
H1554 C1542 0.960 . S
H1555 C1542 0.962 . S
H1556 C1542 0.960 . S
H1557 C1543 0.961 . S
H1558 C1543 0.961 . S
H1559 C1543 0.961 . S
H1560 C1544 0.931 . S
H1561 C1549 0.930 . S
H1562 C1550 0.956 . S
H1563 C1550 0.961 . S
H1564 C1550 0.961 . S
H1565 C1551 0.958 . S
H1566 C1551 0.961 . S
H1567 C1551 0.960 . S
C1568 C1569 1.391 . S
C1568 C1570 1.394 . S
C1568 H1584 0.931 . S
C1569 C1568 1.391 . S
C1569 C1573 1.376 . S
C1570 C1568 1.394 . S
C1570 C1571 1.369 . S
C1570 C1574 1.531 . S
C1571 C1570 1.369 . S
C1571 C1572 1.410 . S
C1571 C1579 1.503 . S
C1572 C1571 1.410 . S
C1572 C1573 1.392 . S
C1572 C1575 1.511 . S
C1573 C1569 1.376 . S
C1573 C1572 1.392 . S
C1573 H1585 0.929 . S
C1574 C1570 1.531 . S
C1574 H1586 0.960 . S
C1574 H1587 0.962 . S
C1574 H1588 0.960 . S
C1575 C1572 1.511 . S
C1575 H1589 0.961 . S
C1575 H1590 0.961 . S
C1575 H1591 0.961 . S
C1576 C1577 1.370 . S
C1576 C1578 1.363 . S
C1576 H1592 0.931 . S
C1577 C1576 1.370 . S
C1577 C1581 1.408 . S
C1578 C1576 1.363 . S
C1578 C1579 1.370 . S
C1578 C1582 1.524 . S
C1579 C1571 1.503 . S
C1579 C1578 1.370 . S
C1579 C1580 1.403 . S
C1580 C1579 1.403 . S
C1580 C1581 1.404 . S
C1580 C1583 1.539 . S
C1581 C1577 1.408 . S
C1581 C1580 1.404 . S
C1581 H1593 0.930 . S
C1582 C1578 1.524 . S
C1582 H1594 0.956 . S
C1582 H1595 0.961 . S
C1582 H1596 0.961 . S
C1583 C1580 1.539 . S
C1583 H1597 0.958 . S
C1583 H1598 0.961 . S
C1583 H1599 0.960 . S
H1584 C1568 0.931 . S
H1585 C1573 0.929 . S
H1586 C1574 0.960 . S
H1587 C1574 0.962 . S
H1588 C1574 0.960 . S
H1589 C1575 0.961 . S
H1590 C1575 0.961 . S
H1591 C1575 0.961 . S
H1592 C1576 0.931 . S
H1593 C1581 0.930 . S
H1594 C1582 0.956 . S
H1595 C1582 0.961 . S
H1596 C1582 0.961 . S
H1597 C1583 0.958 . S
H1598 C1583 0.961 . S
H1599 C1583 0.960 . S
C1600 C1601 1.391 . S
C1600 C1602 1.394 . S
C1600 H1616 0.931 . S
C1601 C1600 1.391 . S
C1601 C1605 1.376 . S
C1602 C1600 1.394 . S
C1602 C1603 1.369 . S
C1602 C1606 1.531 . S
C1603 C1602 1.369 . S
C1603 C1604 1.410 . S
C1603 C1611 1.503 . S
C1604 C1603 1.410 . S
C1604 C1605 1.392 . S
C1604 C1607 1.511 . S
C1605 C1601 1.376 . S
C1605 C1604 1.392 . S
C1605 H1617 0.929 . S
C1606 C1602 1.531 . S
C1606 H1618 0.960 . S
C1606 H1619 0.962 . S
C1606 H1620 0.960 . S
C1607 C1604 1.511 . S
C1607 H1621 0.961 . S
C1607 H1622 0.961 . S
C1607 H1623 0.961 . S
C1608 C1609 1.370 . S
C1608 C1610 1.363 . S
C1608 H1624 0.931 . S
C1609 C1608 1.370 . S
C1609 C1613 1.408 . S
C1610 C1608 1.363 . S
C1610 C1611 1.370 . S
C1610 C1614 1.524 . S
C1611 C1603 1.503 . S
C1611 C1610 1.370 . S
C1611 C1612 1.403 . S
C1612 C1611 1.403 . S
C1612 C1613 1.404 . S
C1612 C1615 1.539 . S
C1613 C1609 1.408 . S
C1613 C1612 1.404 . S
C1613 H1625 0.930 . S
C1614 C1610 1.524 . S
C1614 H1626 0.956 . S
C1614 H1627 0.961 . S
C1614 H1628 0.961 . S
C1615 C1612 1.539 . S
C1615 H1629 0.958 . S
C1615 H1630 0.961 . S
C1615 H1631 0.960 . S
H1616 C1600 0.931 . S
H1617 C1605 0.929 . S
H1618 C1606 0.960 . S
H1619 C1606 0.962 . S
H1620 C1606 0.960 . S
H1621 C1607 0.961 . S
H1622 C1607 0.961 . S
H1623 C1607 0.961 . S
H1624 C1608 0.931 . S
H1625 C1613 0.930 . S
H1626 C1614 0.956 . S
H1627 C1614 0.961 . S
H1628 C1614 0.961 . S
H1629 C1615 0.958 . S
H1630 C1615 0.961 . S
H1631 C1615 0.960 . S
C1632 C1633 1.391 . S
C1632 C1634 1.394 . S
C1632 H1648 0.931 . S
C1633 C1632 1.391 . S
C1633 C1637 1.376 . S
C1634 C1632 1.394 . S
C1634 C1635 1.369 . S
C1634 C1638 1.531 . S
C1635 C1634 1.369 . S
C1635 C1636 1.410 . S
C1635 C1643 1.503 . S
C1636 C1635 1.410 . S
C1636 C1637 1.392 . S
C1636 C1639 1.511 . S
C1637 C1633 1.376 . S
C1637 C1636 1.392 . S
C1637 H1649 0.929 . S
C1638 C1634 1.531 . S
C1638 H1650 0.960 . S
C1638 H1651 0.962 . S
C1638 H1652 0.960 . S
C1639 C1636 1.511 . S
C1639 H1653 0.961 . S
C1639 H1654 0.961 . S
C1639 H1655 0.961 . S
C1640 C1641 1.370 . S
C1640 C1642 1.363 . S
C1640 H1656 0.931 . S
C1641 C1640 1.370 . S
C1641 C1645 1.408 . S
C1642 C1640 1.363 . S
C1642 C1643 1.370 . S
C1642 C1646 1.524 . S
C1643 C1635 1.503 . S
C1643 C1642 1.370 . S
C1643 C1644 1.403 . S
C1644 C1643 1.403 . S
C1644 C1645 1.404 . S
C1644 C1647 1.539 . S
C1645 C1641 1.408 . S
C1645 C1644 1.404 . S
C1645 H1657 0.930 . S
C1646 C1642 1.524 . S
C1646 H1658 0.956 . S
C1646 H1659 0.961 . S
C1646 H1660 0.961 . S
C1647 C1644 1.539 . S
C1647 H1661 0.958 . S
C1647 H1662 0.961 . S
C1647 H1663 0.960 . S
H1648 C1632 0.931 . S
H1649 C1637 0.929 . S
H1650 C1638 0.960 . S
H1651 C1638 0.962 . S
H1652 C1638 0.960 . S
H1653 C1639 0.961 . S
H1654 C1639 0.961 . S
H1655 C1639 0.961 . S
H1656 C1640 0.931 . S
H1657 C1645 0.930 . S
H1658 C1646 0.956 . S
H1659 C1646 0.961 . S
H1660 C1646 0.961 . S
H1661 C1647 0.958 . S
H1662 C1647 0.961 . S
H1663 C1647 0.960 . S
C1664 C1665 1.391 . S
C1664 C1666 1.394 . S
C1664 H1680 0.931 . S
C1665 C1664 1.391 . S
C1665 C1669 1.376 . S
C1666 C1664 1.394 . S
C1666 C1667 1.369 . S
C1666 C1670 1.531 . S
C1667 C1666 1.369 . S
C1667 C1668 1.410 . S
C1667 C1675 1.503 . S
C1668 C1667 1.410 . S
C1668 C1669 1.392 . S
C1668 C1671 1.511 . S
C1669 C1665 1.376 . S
C1669 C1668 1.392 . S
C1669 H1681 0.929 . S
C1670 C1666 1.531 . S
C1670 H1682 0.960 . S
C1670 H1683 0.962 . S
C1670 H1684 0.960 . S
C1671 C1668 1.511 . S
C1671 H1685 0.961 . S
C1671 H1686 0.961 . S
C1671 H1687 0.961 . S
C1672 C1673 1.370 . S
C1672 C1674 1.363 . S
C1672 H1688 0.931 . S
C1673 C1672 1.370 . S
C1673 C1677 1.408 . S
C1674 C1672 1.363 . S
C1674 C1675 1.370 . S
C1674 C1678 1.524 . S
C1675 C1667 1.503 . S
C1675 C1674 1.370 . S
C1675 C1676 1.403 . S
C1676 C1675 1.403 . S
C1676 C1677 1.404 . S
C1676 C1679 1.539 . S
C1677 C1673 1.408 . S
C1677 C1676 1.404 . S
C1677 H1689 0.930 . S
C1678 C1674 1.524 . S
C1678 H1690 0.956 . S
C1678 H1691 0.961 . S
C1678 H1692 0.961 . S
C1679 C1676 1.539 . S
C1679 H1693 0.958 . S
C1679 H1694 0.961 . S
C1679 H1695 0.960 . S
H1680 C1664 0.931 . S
H1681 C1669 0.929 . S
H1682 C1670 0.960 . S
H1683 C1670 0.962 . S
H1684 C1670 0.960 . S
H1685 C1671 0.961 . S
H1686 C1671 0.961 . S
H1687 C1671 0.961 . S
H1688 C1672 0.931 . S
H1689 C1677 0.930 . S
H1690 C1678 0.956 . S
H1691 C1678 0.961 . S
H1692 C1678 0.961 . S
H1693 C1679 0.958 . S
H1694 C1679 0.961 . S
H1695 C1679 0.960 . S
C1696 C1697 1.391 . S
C1696 C1698 1.394 . S
C1696 H1712 0.931 . S
C1697 C1696 1.391 . S
C1697 C1701 1.376 . S
C1698 C1696 1.394 . S
C1698 C1699 1.369 . S
C1698 C1702 1.531 . S
C1699 C1698 1.369 . S
C1699 C1700 1.410 . S
C1699 C1707 1.503 . S
C1700 C1699 1.410 . S
C1700 C1701 1.392 . S
C1700 C1703 1.511 . S
C1701 C1697 1.376 . S
C1701 C1700 1.392 . S
C1701 H1713 0.929 . S
C1702 C1698 1.531 . S
C1702 H1714 0.960 . S
C1702 H1715 0.962 . S
C1702 H1716 0.960 . S
C1703 C1700 1.511 . S
C1703 H1717 0.961 . S
C1703 H1718 0.961 . S
C1703 H1719 0.961 . S
C1704 C1705 1.370 . S
C1704 C1706 1.363 . S
C1704 H1720 0.931 . S
C1705 C1704 1.370 . S
C1705 C1709 1.408 . S
C1706 C1704 1.363 . S
C1706 C1707 1.370 . S
C1706 C1710 1.524 . S
C1707 C1699 1.503 . S
C1707 C1706 1.370 . S
C1707 C1708 1.403 . S
C1708 C1707 1.403 . S
C1708 C1709 1.404 . S
C1708 C1711 1.539 . S
C1709 C1705 1.408 . S
C1709 C1708 1.404 . S
C1709 H1721 0.930 . S
C1710 C1706 1.524 . S
C1710 H1722 0.956 . S
C1710 H1723 0.961 . S
C1710 H1724 0.961 . S
C1711 C1708 1.539 . S
C1711 H1725 0.958 . S
C1711 H1726 0.961 . S
C1711 H1727 0.960 . S
H1712 C1696 0.931 . S
H1713 C1701 0.929 . S
H1714 C1702 0.960 . S
H1715 C1702 0.962 . S
H1716 C1702 0.960 . S
H1717 C1703 0.961 . S
H1718 C1703 0.961 . S
H1719 C1703 0.961 . S
H1720 C1704 0.931 . S
H1721 C1709 0.930 . S
H1722 C1710 0.956 . S
H1723 C1710 0.961 . S
H1724 C1710 0.961 . S
H1725 C1711 0.958 . S
H1726 C1711 0.961 . S
H1727 C1711 0.960 . S
C1728 C1729 1.391 . S
C1728 C1730 1.394 . S
C1728 H1744 0.931 . S
C1729 C1728 1.391 . S
C1729 C1733 1.376 . S
C1730 C1728 1.394 . S
C1730 C1731 1.369 . S
C1730 C1734 1.531 . S
C1731 C1730 1.369 . S
C1731 C1732 1.410 . S
C1731 C1739 1.503 . S
C1732 C1731 1.410 . S
C1732 C1733 1.392 . S
C1732 C1735 1.511 . S
C1733 C1729 1.376 . S
C1733 C1732 1.392 . S
C1733 H1745 0.929 . S
C1734 C1730 1.531 . S
C1734 H1746 0.960 . S
C1734 H1747 0.962 . S
C1734 H1748 0.960 . S
C1735 C1732 1.511 . S
C1735 H1749 0.961 . S
C1735 H1750 0.961 . S
C1735 H1751 0.961 . S
C1736 C1737 1.370 . S
C1736 C1738 1.363 . S
C1736 H1752 0.931 . S
C1737 C1736 1.370 . S
C1737 C1741 1.408 . S
C1738 C1736 1.363 . S
C1738 C1739 1.370 . S
C1738 C1742 1.524 . S
C1739 C1731 1.503 . S
C1739 C1738 1.370 . S
C1739 C1740 1.403 . S
C1740 C1739 1.403 . S
C1740 C1741 1.404 . S
C1740 C1743 1.539 . S
C1741 C1737 1.408 . S
C1741 C1740 1.404 . S
C1741 H1753 0.930 . S
C1742 C1738 1.524 . S
C1742 H1754 0.956 . S
C1742 H1755 0.961 . S
C1742 H1756 0.961 . S
C1743 C1740 1.539 . S
C1743 H1757 0.958 . S
C1743 H1758 0.961 . S
C1743 H1759 0.960 . S
H1744 C1728 0.931 . S
H1745 C1733 0.929 . S
H1746 C1734 0.960 . S
H1747 C1734 0.962 . S
H1748 C1734 0.960 . S
H1749 C1735 0.961 . S
H1750 C1735 0.961 . S
H1751 C1735 0.961 . S
H1752 C1736 0.931 . S
H1753 C1741 0.930 . S
H1754 C1742 0.956 . S
H1755 C1742 0.961 . S
H1756 C1742 0.961 . S
H1757 C1743 0.958 . S
H1758 C1743 0.961 . S
H1759 C1743 0.960 . S
C1760 C1761 1.391 . S
C1760 C1762 1.394 . S
C1760 H1776 0.931 . S
C1761 C1760 1.391 . S
C1761 C1765 1.376 . S
C1762 C1760 1.394 . S
C1762 C1763 1.369 . S
C1762 C1766 1.531 . S
C1763 C1762 1.369 . S
C1763 C1764 1.410 . S
C1763 C1771 1.503 . S
C1764 C1763 1.410 . S
C1764 C1765 1.392 . S
C1764 C1767 1.511 . S
C1765 C1761 1.376 . S
C1765 C1764 1.392 . S
C1765 H1777 0.929 . S
C1766 C1762 1.531 . S
C1766 H1778 0.960 . S
C1766 H1779 0.962 . S
C1766 H1780 0.960 . S
C1767 C1764 1.511 . S
C1767 H1781 0.961 . S
C1767 H1782 0.961 . S
C1767 H1783 0.961 . S
C1768 C1769 1.370 . S
C1768 C1770 1.363 . S
C1768 H1784 0.931 . S
C1769 C1768 1.370 . S
C1769 C1773 1.408 . S
C1770 C1768 1.363 . S
C1770 C1771 1.370 . S
C1770 C1774 1.524 . S
C1771 C1763 1.503 . S
C1771 C1770 1.370 . S
C1771 C1772 1.403 . S
C1772 C1771 1.403 . S
C1772 C1773 1.404 . S
C1772 C1775 1.539 . S
C1773 C1769 1.408 . S
C1773 C1772 1.404 . S
C1773 H1785 0.930 . S
C1774 C1770 1.524 . S
C1774 H1786 0.956 . S
C1774 H1787 0.961 . S
C1774 H1788 0.961 . S
C1775 C1772 1.539 . S
C1775 H1789 0.958 . S
C1775 H1790 0.961 . S
C1775 H1791 0.960 . S
H1776 C1760 0.931 . S
H1777 C1765 0.929 . S
H1778 C1766 0.960 . S
H1779 C1766 0.962 . S
H1780 C1766 0.960 . S
H1781 C1767 0.961 . S
H1782 C1767 0.961 . S
H1783 C1767 0.961 . S
H1784 C1768 0.931 . S
H1785 C1773 0.930 . S
H1786 C1774 0.956 . S
H1787 C1774 0.961 . S
H1788 C1774 0.961 . S
H1789 C1775 0.958 . S
H1790 C1775 0.961 . S
H1791 C1775 0.960 . S
C1792 C1793 1.391 . S
C1792 C1794 1.394 . S
C1792 H1808 0.931 . S
C1793 C1792 1.391 . S
C1793 C1797 1.376 . S
C1794 C1792 1.394 . S
C1794 C1795 1.369 . S
C1794 C1798 1.531 . S
C1795 C1794 1.369 . S
C1795 C1796 1.410 . S
C1795 C1803 1.503 . S
C1796 C1795 1.410 . S
C1796 C1797 1.392 . S
C1796 C1799 1.511 . S
C1797 C1793 1.376 . S
C1797 C1796 1.392 . S
C1797 H1809 0.929 . S
C1798 C1794 1.531 . S
C1798 H1810 0.960 . S
C1798 H1811 0.962 . S
C1798 H1812 0.960 . S
C1799 C1796 1.511 . S
C1799 H1813 0.961 . S
C1799 H1814 0.961 . S
C1799 H1815 0.961 . S
C1800 C1801 1.370 . S
C1800 C1802 1.363 . S
C1800 H1816 0.931 . S
C1801 C1800 1.370 . S
C1801 C1805 1.408 . S
C1802 C1800 1.363 . S
C1802 C1803 1.370 . S
C1802 C1806 1.524 . S
C1803 C1795 1.503 . S
C1803 C1802 1.370 . S
C1803 C1804 1.403 . S
C1804 C1803 1.403 . S
C1804 C1805 1.404 . S
C1804 C1807 1.539 . S
C1805 C1801 1.408 . S
C1805 C1804 1.404 . S
C1805 H1817 0.930 . S
C1806 C1802 1.524 . S
C1806 H1818 0.956 . S
C1806 H1819 0.961 . S
C1806 H1820 0.961 . S
C1807 C1804 1.539 . S
C1807 H1821 0.958 . S
C1807 H1822 0.961 . S
C1807 H1823 0.960 . S
H1808 C1792 0.931 . S
H1809 C1797 0.929 . S
H1810 C1798 0.960 . S
H1811 C1798 0.962 . S
H1812 C1798 0.960 . S
H1813 C1799 0.961 . S
H1814 C1799 0.961 . S
H1815 C1799 0.961 . S
H1816 C1800 0.931 . S
H1817 C1805 0.930 . S
H1818 C1806 0.956 . S
H1819 C1806 0.961 . S
H1820 C1806 0.961 . S
H1821 C1807 0.958 . S
H1822 C1807 0.961 . S
H1823 C1807 0.960 . S
C1824 C1825 1.391 . S
C1824 C1826 1.394 . S
C1824 H1840 0.931 . S
C1825 C1824 1.391 . S
C1825 C1829 1.376 . S
C1826 C1824 1.394 . S
C1826 C1827 1.369 . S
C1826 C1830 1.531 . S
C1827 C1826 1.369 . S
C1827 C1828 1.410 . S
C1827 C1835 1.503 . S
C1828 C1827 1.410 . S
C1828 C1829 1.392 . S
C1828 C1831 1.511 . S
C1829 C1825 1.376 . S
C1829 C1828 1.392 . S
C1829 H1841 0.929 . S
C1830 C1826 1.531 . S
C1830 H1842 0.960 . S
C1830 H1843 0.962 . S
C1830 H1844 0.960 . S
C1831 C1828 1.511 . S
C1831 H1845 0.961 . S
C1831 H1846 0.961 . S
C1831 H1847 0.961 . S
C1832 C1833 1.370 . S
C1832 C1834 1.363 . S
C1832 H1848 0.931 . S
C1833 C1832 1.370 . S
C1833 C1837 1.408 . S
C1834 C1832 1.363 . S
C1834 C1835 1.370 . S
C1834 C1838 1.524 . S
C1835 C1827 1.503 . S
C1835 C1834 1.370 . S
C1835 C1836 1.403 . S
C1836 C1835 1.403 . S
C1836 C1837 1.404 . S
C1836 C1839 1.539 . S
C1837 C1833 1.408 . S
C1837 C1836 1.404 . S
C1837 H1849 0.930 . S
C1838 C1834 1.524 . S
C1838 H1850 0.956 . S
C1838 H1851 0.961 . S
C1838 H1852 0.961 . S
C1839 C1836 1.539 . S
C1839 H1853 0.958 . S
C1839 H1854 0.961 . S
C1839 H1855 0.960 . S
H1840 C1824 0.931 . S
H1841 C1829 0.929 . S
H1842 C1830 0.960 . S
H1843 C1830 0.962 . S
H1844 C1830 0.960 . S
H1845 C1831 0.961 . S
H1846 C1831 0.961 . S
H1847 C1831 0.961 . S
H1848 C1832 0.931 . S
H1849 C1837 0.930 . S
H1850 C1838 0.956 . S
H1851 C1838 0.961 . S
H1852 C1838 0.961 . S
H1853 C1839 0.958 . S
H1854 C1839 0.961 . S
H1855 C1839 0.960 . S
C1856 C1857 1.391 . S
C1856 C1858 1.394 . S
C1856 H1872 0.931 . S
C1857 C1856 1.391 . S
C1857 C1861 1.376 . S
C1858 C1856 1.394 . S
C1858 C1859 1.369 . S
C1858 C1862 1.531 . S
C1859 C1858 1.369 . S
C1859 C1860 1.410 . S
C1859 C1867 1.503 . S
C1860 C1859 1.410 . S
C1860 C1861 1.392 . S
C1860 C1863 1.511 . S
C1861 C1857 1.376 . S
C1861 C1860 1.392 . S
C1861 H1873 0.929 . S
C1862 C1858 1.531 . S
C1862 H1874 0.960 . S
C1862 H1875 0.962 . S
C1862 H1876 0.960 . S
C1863 C1860 1.511 . S
C1863 H1877 0.961 . S
C1863 H1878 0.961 . S
C1863 H1879 0.961 . S
C1864 C1865 1.370 . S
C1864 C1866 1.363 . S
C1864 H1880 0.931 . S
C1865 C1864 1.370 . S
C1865 C1869 1.408 . S
C1866 C1864 1.363 . S
C1866 C1867 1.370 . S
C1866 C1870 1.524 . S
C1867 C1859 1.503 . S
C1867 C1866 1.370 . S
C1867 C1868 1.403 . S
C1868 C1867 1.403 . S
C1868 C1869 1.404 . S
C1868 C1871 1.539 . S
C1869 C1865 1.408 . S
C1869 C1868 1.404 . S
C1869 H1881 0.930 . S
C1870 C1866 1.524 . S
C1870 H1882 0.956 . S
C1870 H1883 0.961 . S
C1870 H1884 0.961 . S
C1871 C1868 1.539 . S
C1871 H1885 0.958 . S
C1871 H1886 0.961 . S
C1871 H1887 0.960 . S
H1872 C1856 0.931 . S
H1873 C1861 0.929 . S
H1874 C1862 0.960 . S
H1875 C1862 0.962 . S
H1876 C1862 0.960 . S
H1877 C1863 0.961 . S
H1878 C1863 0.961 . S
H1879 C1863 0.961 . S
H1880 C1864 0.931 . S
H1881 C1869 0.930 . S
H1882 C1870 0.956 . S
H1883 C1870 0.961 . S
H1884 C1870 0.961 . S
H1885 C1871 0.958 . S
H1886 C1871 0.961 . S
H1887 C1871 0.960 . S
C1888 C1889 1.391 . S
C1888 C1890 1.394 . S
C1888 H1904 0.931 . S
C1889 C1888 1.391 . S
C1889 C1893 1.376 . S
C1890 C1888 1.394 . S
C1890 C1891 1.369 . S
C1890 C1894 1.531 . S
C1891 C1890 1.369 . S
C1891 C1892 1.410 . S
C1891 C1899 1.503 . S
C1892 C1891 1.410 . S
C1892 C1893 1.392 . S
C1892 C1895 1.511 . S
C1893 C1889 1.376 . S
C1893 C1892 1.392 . S
C1893 H1905 0.929 . S
C1894 C1890 1.531 . S
C1894 H1906 0.960 . S
C1894 H1907 0.962 . S
C1894 H1908 0.960 . S
C1895 C1892 1.511 . S
C1895 H1909 0.961 . S
C1895 H1910 0.961 . S
C1895 H1911 0.961 . S
C1896 C1897 1.370 . S
C1896 C1898 1.363 . S
C1896 H1912 0.931 . S
C1897 C1896 1.370 . S
C1897 C1901 1.408 . S
C1898 C1896 1.363 . S
C1898 C1899 1.370 . S
C1898 C1902 1.524 . S
C1899 C1891 1.503 . S
C1899 C1898 1.370 . S
C1899 C1900 1.403 . S
C1900 C1899 1.403 . S
C1900 C1901 1.404 . S
C1900 C1903 1.539 . S
C1901 C1897 1.408 . S
C1901 C1900 1.404 . S
C1901 H1913 0.930 . S
C1902 C1898 1.524 . S
C1902 H1914 0.956 . S
C1902 H1915 0.961 . S
C1902 H1916 0.961 . S
C1903 C1900 1.539 . S
C1903 H1917 0.958 . S
C1903 H1918 0.961 . S
C1903 H1919 0.960 . S
H1904 C1888 0.931 . S
H1905 C1893 0.929 . S
H1906 C1894 0.960 . S
H1907 C1894 0.962 . S
H1908 C1894 0.960 . S
H1909 C1895 0.961 . S
H1910 C1895 0.961 . S
H1911 C1895 0.961 . S
H1912 C1896 0.931 . S
H1913 C1901 0.930 . S
H1914 C1902 0.956 . S
H1915 C1902 0.961 . S
H1916 C1902 0.961 . S
H1917 C1903 0.958 . S
H1918 C1903 0.961 . S
H1919 C1903 0.960 . S
C1920 C1921 1.391 . S
C1920 C1922 1.394 . S
C1920 H1936 0.931 . S
C1921 C1920 1.391 . S
C1921 C1925 1.376 . S
C1922 C1920 1.394 . S
C1922 C1923 1.369 . S
C1922 C1926 1.531 . S
C1923 C1922 1.369 . S
C1923 C1924 1.410 . S
C1923 C1931 1.503 . S
C1924 C1923 1.410 . S
C1924 C1925 1.392 . S
C1924 C1927 1.511 . S
C1925 C1921 1.376 . S
C1925 C1924 1.392 . S
C1925 H1937 0.929 . S
C1926 C1922 1.531 . S
C1926 H1938 0.960 . S
C1926 H1939 0.962 . S
C1926 H1940 0.960 . S
C1927 C1924 1.511 . S
C1927 H1941 0.961 . S
C1927 H1942 0.961 . S
C1927 H1943 0.961 . S
C1928 C1929 1.370 . S
C1928 C1930 1.363 . S
C1928 H1944 0.931 . S
C1929 C1928 1.370 . S
C1929 C1933 1.408 . S
C1930 C1928 1.363 . S
C1930 C1931 1.370 . S
C1930 C1934 1.524 . S
C1931 C1923 1.503 . S
C1931 C1930 1.370 . S
C1931 C1932 1.403 . S
C1932 C1931 1.403 . S
C1932 C1933 1.404 . S
C1932 C1935 1.539 . S
C1933 C1929 1.408 . S
C1933 C1932 1.404 . S
C1933 H1945 0.930 . S
C1934 C1930 1.524 . S
C1934 H1946 0.956 . S
C1934 H1947 0.961 . S
C1934 H1948 0.961 . S
C1935 C1932 1.539 . S
C1935 H1949 0.958 . S
C1935 H1950 0.961 . S
C1935 H1951 0.960 . S
H1936 C1920 0.931 . S
H1937 C1925 0.929 . S
H1938 C1926 0.960 . S
H1939 C1926 0.962 . S
H1940 C1926 0.960 . S
H1941 C1927 0.961 . S
H1942 C1927 0.961 . S
H1943 C1927 0.961 . S
H1944 C1928 0.931 . S
H1945 C1933 0.930 . S
H1946 C1934 0.956 . S
H1947 C1934 0.961 . S
H1948 C1934 0.961 . S
H1949 C1935 0.958 . S
H1950 C1935 0.961 . S
H1951 C1935 0.960 . S
C1952 C1953 1.391 . S
C1952 C1954 1.394 . S
C1952 H1968 0.931 . S
C1953 C1952 1.391 . S
C1953 C1957 1.376 . S
C1954 C1952 1.394 . S
C1954 C1955 1.369 . S
C1954 C1958 1.531 . S
C1955 C1954 1.369 . S
C1955 C1956 1.410 . S
C1955 C1963 1.503 . S
C1956 C1955 1.410 . S
C1956 C1957 1.392 . S
C1956 C1959 1.511 . S
C1957 C1953 1.376 . S
C1957 C1956 1.392 . S
C1957 H1969 0.929 . S
C1958 C1954 1.531 . S
C1958 H1970 0.960 . S
C1958 H1971 0.962 . S
C1958 H1972 0.960 . S
C1959 C1956 1.511 . S
C1959 H1973 0.961 . S
C1959 H1974 0.961 . S
C1959 H1975 0.961 . S
C1960 C1961 1.370 . S
C1960 C1962 1.363 . S
C1960 H1976 0.931 . S
C1961 C1960 1.370 . S
C1961 C1965 1.408 . S
C1962 C1960 1.363 . S
C1962 C1963 1.370 . S
C1962 C1966 1.524 . S
C1963 C1955 1.503 . S
C1963 C1962 1.370 . S
C1963 C1964 1.403 . S
C1964 C1963 1.403 . S
C1964 C1965 1.404 . S
C1964 C1967 1.539 . S
C1965 C1961 1.408 . S
C1965 C1964 1.404 . S
C1965 H1977 0.930 . S
C1966 C1962 1.524 . S
C1966 H1978 0.956 . S
C1966 H1979 0.961 . S
C1966 H1980 0.961 . S
C1967 C1964 1.539 . S
C1967 H1981 0.958 . S
C1967 H1982 0.961 . S
C1967 H1983 0.960 . S
H1968 C1952 0.931 . S
H1969 C1957 0.929 . S
H1970 C1958 0.960 . S
H1971 C1958 0.962 . S
H1972 C1958 0.960 . S
H1973 C1959 0.961 . S
H1974 C1959 0.961 . S
H1975 C1959 0.961 . S
H1976 C1960 0.931 . S
H1977 C1965 0.930 . S
H1978 C1966 0.956 . S
H1979 C1966 0.961 . S
H1980 C1966 0.961 . S
H1981 C1967 0.958 . S
H1982 C1967 0.961 . S
H1983 C1967 0.960 . S
C1984 C1985 1.391 . S
C1984 C1986 1.394 . S
C1984 H2000 0.931 . S
C1985 C1984 1.391 . S
C1985 C1989 1.376 . S
C1986 C1984 1.394 . S
C1986 C1987 1.369 . S
C1986 C1990 1.531 . S
C1987 C1986 1.369 . S
C1987 C1988 1.410 . S
C1987 C1995 1.503 . S
C1988 C1987 1.410 . S
C1988 C1989 1.392 . S
C1988 C1991 1.511 . S
C1989 C1985 1.376 . S
C1989 C1988 1.392 . S
C1989 H2001 0.929 . S
C1990 C1986 1.531 . S
C1990 H2002 0.960 . S
C1990 H2003 0.962 . S
C1990 H2004 0.960 . S
C1991 C1988 1.511 . S
C1991 H2005 0.961 . S
C1991 H2006 0.961 . S
C1991 H2007 0.961 . S
C1992 C1993 1.370 . S
C1992 C1994 1.363 . S
C1992 H2008 0.931 . S
C1993 C1992 1.370 . S
C1993 C1997 1.408 . S
C1994 C1992 1.363 . S
C1994 C1995 1.370 . S
C1994 C1998 1.524 . S
C1995 C1987 1.503 . S
C1995 C1994 1.370 . S
C1995 C1996 1.403 . S
C1996 C1995 1.403 . S
C1996 C1997 1.404 . S
C1996 C1999 1.539 . S
C1997 C1993 1.408 . S
C1997 C1996 1.404 . S
C1997 H2009 0.930 . S
C1998 C1994 1.524 . S
C1998 H2010 0.956 . S
C1998 H2011 0.961 . S
C1998 H2012 0.961 . S
C1999 C1996 1.539 . S
C1999 H2013 0.958 . S
C1999 H2014 0.961 . S
C1999 H2015 0.960 . S
H2000 C1984 0.931 . S
H2001 C1989 0.929 . S
H2002 C1990 0.960 . S
H2003 C1990 0.962 . S
H2004 C1990 0.960 . S
H2005 C1991 0.961 . S
H2006 C1991 0.961 . S
H2007 C1991 0.961 . S
H2008 C1992 0.931 . S
H2009 C1997 0.930 . S
H2010 C1998 0.956 . S
H2011 C1998 0.961 . S
H2012 C1998 0.961 . S
H2013 C1999 0.958 . S
H2014 C1999 0.961 . S
H2015 C1999 0.960 . S
C2016 C2017 1.391 . S
C2016 C2018 1.394 . S
C2016 H2032 0.931 . S
C2017 C2016 1.391 . S
C2017 C2021 1.376 . S
C2018 C2016 1.394 . S
C2018 C2019 1.369 . S
C2018 C2022 1.531 . S
C2019 C2018 1.369 . S
C2019 C2020 1.410 . S
C2019 C2027 1.503 . S
C2020 C2019 1.410 . S
C2020 C2021 1.392 . S
C2020 C2023 1.511 . S
C2021 C2017 1.376 . S
C2021 C2020 1.392 . S
C2021 H2033 0.929 . S
C2022 C2018 1.531 . S
C2022 H2034 0.960 . S
C2022 H2035 0.962 . S
C2022 H2036 0.960 . S
C2023 C2020 1.511 . S
C2023 H2037 0.961 . S
C2023 H2038 0.961 . S
C2023 H2039 0.961 . S
C2024 C2025 1.370 . S
C2024 C2026 1.363 . S
C2024 H2040 0.931 . S
C2025 C2024 1.370 . S
C2025 C2029 1.408 . S
C2026 C2024 1.363 . S
C2026 C2027 1.370 . S
C2026 C2030 1.524 . S
C2027 C2019 1.503 . S
C2027 C2026 1.370 . S
C2027 C2028 1.403 . S
C2028 C2027 1.403 . S
C2028 C2029 1.404 . S
C2028 C2031 1.539 . S
C2029 C2025 1.408 . S
C2029 C2028 1.404 . S
C2029 H2041 0.930 . S
C2030 C2026 1.524 . S
C2030 H2042 0.956 . S
C2030 H2043 0.961 . S
C2030 H2044 0.961 . S
C2031 C2028 1.539 . S
C2031 H2045 0.958 . S
C2031 H2046 0.961 . S
C2031 H2047 0.960 . S
H2032 C2016 0.931 . S
H2033 C2021 0.929 . S
H2034 C2022 0.960 . S
H2035 C2022 0.962 . S
H2036 C2022 0.960 . S
H2037 C2023 0.961 . S
H2038 C2023 0.961 . S
H2039 C2023 0.961 . S
H2040 C2024 0.931 . S
H2041 C2029 0.930 . S
H2042 C2030 0.956 . S
H2043 C2030 0.961 . S
H2044 C2030 0.961 . S
H2045 C2031 0.958 . S
H2046 C2031 0.961 . S
H2047 C2031 0.960 . S
C2048 C2049 1.391 . S
C2048 C2050 1.394 . S
C2048 H2064 0.931 . S
C2049 C2048 1.391 . S
C2049 C2053 1.376 . S
C2050 C2048 1.394 . S
C2050 C2051 1.369 . S
C2050 C2054 1.531 . S
C2051 C2050 1.369 . S
C2051 C2052 1.410 . S
C2051 C2059 1.503 . S
C2052 C2051 1.410 . S
C2052 C2053 1.392 . S
C2052 C2055 1.511 . S
C2053 C2049 1.376 . S
C2053 C2052 1.392 . S
C2053 H2065 0.929 . S
C2054 C2050 1.531 . S
C2054 H2066 0.960 . S
C2054 H2067 0.962 . S
C2054 H2068 0.960 . S
C2055 C2052 1.511 . S
C2055 H2069 0.961 . S
C2055 H2070 0.961 . S
C2055 H2071 0.961 . S
C2056 C2057 1.370 . S
C2056 C2058 1.363 . S
C2056 H2072 0.931 . S
C2057 C2056 1.370 . S
C2057 C2061 1.408 . S
C2058 C2056 1.363 . S
C2058 C2059 1.370 . S
C2058 C2062 1.524 . S
C2059 C2051 1.503 . S
C2059 C2058 1.370 . S
C2059 C2060 1.403 . S
C2060 C2059 1.403 . S
C2060 C2061 1.404 . S
C2060 C2063 1.539 . S
C2061 C2057 1.408 . S
C2061 C2060 1.404 . S
C2061 H2073 0.930 . S
C2062 C2058 1.524 . S
C2062 H2074 0.956 . S
C2062 H2075 0.961 . S
C2062 H2076 0.961 . S
C2063 C2060 1.539 . S
C2063 H2077 0.958 . S
C2063 H2078 0.961 . S
C2063 H2079 0.960 . S
H2064 C2048 0.931 . S
H2065 C2053 0.929 . S
H2066 C2054 0.960 . S
H2067 C2054 0.962 . S
H2068 C2054 0.960 . S
H2069 C2055 0.961 . S
H2070 C2055 0.961 . S
H2071 C2055 0.961 . S
H2072 C2056 0.931 . S
H2073 C2061 0.930 . S
H2074 C2062 0.956 . S
H2075 C2062 0.961 . S
H2076 C2062 0.961 . S
H2077 C2063 0.958 . S
H2078 C2063 0.961 . S
H2079 C2063 0.960 . S
C2080 C2081 1.391 . S
C2080 C2082 1.394 . S
C2080 H2096 0.931 . S
C2081 C2080 1.391 . S
C2081 C2085 1.376 . S
C2082 C2080 1.394 . S
C2082 C2083 1.369 . S
C2082 C2086 1.531 . S
C2083 C2082 1.369 . S
C2083 C2084 1.410 . S
C2083 C2091 1.503 . S
C2084 C2083 1.410 . S
C2084 C2085 1.392 . S
C2084 C2087 1.511 . S
C2085 C2081 1.376 . S
C2085 C2084 1.392 . S
C2085 H2097 0.929 . S
C2086 C2082 1.531 . S
C2086 H2098 0.960 . S
C2086 H2099 0.962 . S
C2086 H2100 0.960 . S
C2087 C2084 1.511 . S
C2087 H2101 0.961 . S
C2087 H2102 0.961 . S
C2087 H2103 0.961 . S
C2088 C2089 1.370 . S
C2088 C2090 1.363 . S
C2088 H2104 0.931 . S
C2089 C2088 1.370 . S
C2089 C2093 1.408 . S
C2090 C2088 1.363 . S
C2090 C2091 1.370 . S
C2090 C2094 1.524 . S
C2091 C2083 1.503 . S
C2091 C2090 1.370 . S
C2091 C2092 1.403 . S
C2092 C2091 1.403 . S
C2092 C2093 1.404 . S
C2092 C2095 1.539 . S
C2093 C2089 1.408 . S
C2093 C2092 1.404 . S
C2093 H2105 0.930 . S
C2094 C2090 1.524 . S
C2094 H2106 0.956 . S
C2094 H2107 0.961 . S
C2094 H2108 0.961 . S
C2095 C2092 1.539 . S
C2095 H2109 0.958 . S
C2095 H2110 0.961 . S
C2095 H2111 0.960 . S
H2096 C2080 0.931 . S
H2097 C2085 0.929 . S
H2098 C2086 0.960 . S
H2099 C2086 0.962 . S
H2100 C2086 0.960 . S
H2101 C2087 0.961 . S
H2102 C2087 0.961 . S
H2103 C2087 0.961 . S
H2104 C2088 0.931 . S
H2105 C2093 0.930 . S
H2106 C2094 0.956 . S
H2107 C2094 0.961 . S
H2108 C2094 0.961 . S
H2109 C2095 0.958 . S
H2110 C2095 0.961 . S
H2111 C2095 0.960 . S
C2112 C2113 1.391 . S
C2112 C2114 1.394 . S
C2112 H2128 0.931 . S
C2113 C2112 1.391 . S
C2113 C2117 1.376 . S
C2114 C2112 1.394 . S
C2114 C2115 1.369 . S
C2114 C2118 1.531 . S
C2115 C2114 1.369 . S
C2115 C2116 1.410 . S
C2115 C2123 1.503 . S
C2116 C2115 1.410 . S
C2116 C2117 1.392 . S
C2116 C2119 1.511 . S
C2117 C2113 1.376 . S
C2117 C2116 1.392 . S
C2117 H2129 0.929 . S
C2118 C2114 1.531 . S
C2118 H2130 0.960 . S
C2118 H2131 0.962 . S
C2118 H2132 0.960 . S
C2119 C2116 1.511 . S
C2119 H2133 0.961 . S
C2119 H2134 0.961 . S
C2119 H2135 0.961 . S
C2120 C2121 1.370 . S
C2120 C2122 1.363 . S
C2120 H2136 0.931 . S
C2121 C2120 1.370 . S
C2121 C2125 1.408 . S
C2122 C2120 1.363 . S
C2122 C2123 1.370 . S
C2122 C2126 1.524 . S
C2123 C2115 1.503 . S
C2123 C2122 1.370 . S
C2123 C2124 1.403 . S
C2124 C2123 1.403 . S
C2124 C2125 1.404 . S
C2124 C2127 1.539 . S
C2125 C2121 1.408 . S
C2125 C2124 1.404 . S
C2125 H2137 0.930 . S
C2126 C2122 1.524 . S
C2126 H2138 0.956 . S
C2126 H2139 0.961 . S
C2126 H2140 0.961 . S
C2127 C2124 1.539 . S
C2127 H2141 0.958 . S
C2127 H2142 0.961 . S
C2127 H2143 0.960 . S
H2128 C2112 0.931 . S
H2129 C2117 0.929 . S
H2130 C2118 0.960 . S
H2131 C2118 0.962 . S
H2132 C2118 0.960 . S
H2133 C2119 0.961 . S
H2134 C2119 0.961 . S
H2135 C2119 0.961 . S
H2136 C2120 0.931 . S
H2137 C2125 0.930 . S
H2138 C2126 0.956 . S
H2139 C2126 0.961 . S
H2140 C2126 0.961 . S
H2141 C2127 0.958 . S
H2142 C2127 0.961 . S
H2143 C2127 0.960 . S
C2144 C2145 1.391 . S
C2144 C2146 1.394 . S
C2144 H2160 0.931 . S
C2145 C2144 1.391 . S
C2145 C2149 1.376 . S
C2146 C2144 1.394 . S
C2146 C2147 1.369 . S
C2146 C2150 1.531 . S
C2147 C2146 1.369 . S
C2147 C2148 1.410 . S
C2147 C2155 1.503 . S
C2148 C2147 1.410 . S
C2148 C2149 1.392 . S
C2148 C2151 1.511 . S
C2149 C2145 1.376 . S
C2149 C2148 1.392 . S
C2149 H2161 0.929 . S
C2150 C2146 1.531 . S
C2150 H2162 0.960 . S
C2150 H2163 0.962 . S
C2150 H2164 0.960 . S
C2151 C2148 1.511 . S
C2151 H2165 0.961 . S
C2151 H2166 0.961 . S
C2151 H2167 0.961 . S
C2152 C2153 1.370 . S
C2152 C2154 1.363 . S
C2152 H2168 0.931 . S
C2153 C2152 1.370 . S
C2153 C2157 1.408 . S
C2154 C2152 1.363 . S
C2154 C2155 1.370 . S
C2154 C2158 1.524 . S
C2155 C2147 1.503 . S
C2155 C2154 1.370 . S
C2155 C2156 1.403 . S
C2156 C2155 1.403 . S
C2156 C2157 1.404 . S
C2156 C2159 1.539 . S
C2157 C2153 1.408 . S
C2157 C2156 1.404 . S
C2157 H2169 0.930 . S
C2158 C2154 1.524 . S
C2158 H2170 0.956 . S
C2158 H2171 0.961 . S
C2158 H2172 0.961 . S
C2159 C2156 1.539 . S
C2159 H2173 0.958 . S
C2159 H2174 0.961 . S
C2159 H2175 0.960 . S
H2160 C2144 0.931 . S
H2161 C2149 0.929 . S
H2162 C2150 0.960 . S
H2163 C2150 0.962 . S
H2164 C2150 0.960 . S
H2165 C2151 0.961 . S
H2166 C2151 0.961 . S
H2167 C2151 0.961 . S
H2168 C2152 0.931 . S
H2169 C2157 0.930 . S
H2170 C2158 0.956 . S
H2171 C2158 0.961 . S
H2172 C2158 0.961 . S
H2173 C2159 0.958 . S
H2174 C2159 0.961 . S
H2175 C2159 0.960 . S
C2176 C2177 1.391 . S
C2176 C2178 1.394 . S
C2176 H2192 0.931 . S
C2177 C2176 1.391 . S
C2177 C2181 1.376 . S
C2178 C2176 1.394 . S
C2178 C2179 1.369 . S
C2178 C2182 1.531 . S
C2179 C2178 1.369 . S
C2179 C2180 1.410 . S
C2179 C2187 1.503 1_554 S
C2180 C2179 1.410 . S
C2180 C2181 1.392 . S
C2180 C2183 1.511 . S
C2181 C2177 1.376 . S
C2181 C2180 1.392 . S
C2181 H2193 0.929 . S
C2182 C2178 1.531 . S
C2182 H2194 0.960 . S
C2182 H2195 0.962 . S
C2182 H2196 0.960 . S
C2183 C2180 1.511 . S
C2183 H2197 0.961 . S
C2183 H2198 0.961 1_554 S
C2183 H2199 0.961 . S
C2184 C2185 1.370 . S
C2184 C2186 1.363 . S
C2184 H2200 0.931 . S
C2185 C2184 1.370 . S
C2185 C2189 1.408 . S
C2186 C2184 1.363 . S
C2186 C2187 1.370 . S
C2186 C2190 1.524 . S
C2187 C2179 1.503 1_556 S
C2187 C2186 1.370 . S
C2187 C2188 1.403 . S
C2188 C2187 1.403 . S
C2188 C2189 1.404 . S
C2188 C2191 1.539 . S
C2189 C2185 1.408 . S
C2189 C2188 1.404 . S
C2189 H2201 0.930 . S
C2190 C2186 1.524 . S
C2190 H2202 0.956 . S
C2190 H2203 0.961 . S
C2190 H2204 0.961 . S
C2191 C2188 1.539 . S
C2191 H2205 0.958 1_556 S
C2191 H2206 0.961 . S
C2191 H2207 0.960 1_556 S
H2192 C2176 0.931 . S
H2193 C2181 0.929 . S
H2194 C2182 0.960 . S
H2195 C2182 0.962 . S
H2196 C2182 0.960 . S
H2197 C2183 0.961 . S
H2198 C2183 0.961 1_556 S
H2199 C2183 0.961 . S
H2200 C2184 0.931 . S
H2201 C2189 0.930 . S
H2202 C2190 0.956 . S
H2203 C2190 0.961 . S
H2204 C2190 0.961 . S
H2205 C2191 0.958 1_554 S
H2206 C2191 0.961 . S
H2207 C2191 0.960 1_554 S
C2208 C2209 1.391 . S
C2208 C2210 1.394 . S
C2208 H2224 0.931 . S
C2209 C2208 1.391 . S
C2209 C2213 1.376 . S
C2210 C2208 1.394 . S
C2210 C2211 1.369 . S
C2210 C2214 1.531 . S
C2211 C2210 1.369 . S
C2211 C2212 1.410 . S
C2211 C2219 1.503 . S
C2212 C2211 1.410 . S
C2212 C2213 1.392 . S
C2212 C2215 1.511 . S
C2213 C2209 1.376 . S
C2213 C2212 1.392 . S
C2213 H2225 0.929 . S
C2214 C2210 1.531 . S
C2214 H2226 0.960 . S
C2214 H2227 0.962 . S
C2214 H2228 0.960 . S
C2215 C2212 1.511 . S
C2215 H2229 0.961 . S
C2215 H2230 0.961 . S
C2215 H2231 0.961 . S
C2216 C2217 1.370 . S
C2216 C2218 1.363 . S
C2216 H2232 0.931 . S
C2217 C2216 1.370 . S
C2217 C2221 1.408 . S
C2218 C2216 1.363 . S
C2218 C2219 1.370 . S
C2218 C2222 1.524 . S
C2219 C2211 1.503 . S
C2219 C2218 1.370 . S
C2219 C2220 1.403 . S
C2220 C2219 1.403 . S
C2220 C2221 1.404 . S
C2220 C2223 1.539 . S
C2221 C2217 1.408 . S
C2221 C2220 1.404 . S
C2221 H2233 0.930 . S
C2222 C2218 1.524 . S
C2222 H2234 0.956 . S
C2222 H2235 0.961 . S
C2222 H2236 0.961 . S
C2223 C2220 1.539 . S
C2223 H2237 0.958 . S
C2223 H2238 0.961 . S
C2223 H2239 0.960 . S
H2224 C2208 0.931 . S
H2225 C2213 0.929 . S
H2226 C2214 0.960 . S
H2227 C2214 0.962 . S
H2228 C2214 0.960 . S
H2229 C2215 0.961 . S
H2230 C2215 0.961 . S
H2231 C2215 0.961 . S
H2232 C2216 0.931 . S
H2233 C2221 0.930 . S
H2234 C2222 0.956 . S
H2235 C2222 0.961 . S
H2236 C2222 0.961 . S
H2237 C2223 0.958 . S
H2238 C2223 0.961 . S
H2239 C2223 0.960 . S
C2240 C2241 1.391 . S
C2240 C2242 1.394 . S
C2240 H2256 0.931 . S
C2241 C2240 1.391 . S
C2241 C2245 1.376 1_655 S
C2242 C2240 1.394 . S
C2242 C2243 1.400 . S
C2242 C2246 1.531 . S
C2243 C2242 1.400 . S
C2243 C2244 1.380 1_655 S
C2243 C2251 1.506 1_554 S
C2244 C2243 1.380 1_455 S
C2244 C2245 1.392 . S
C2244 C2247 1.511 . S
C2245 C2241 1.376 1_455 S
C2245 C2244 1.392 . S
C2245 H2257 0.929 . S
C2246 C2242 1.531 . S
C2246 H2258 0.960 1_554 S
C2246 H2259 0.966 . S
C2246 H2260 0.960 . S
C2247 C2244 1.511 . S
C2247 H2261 0.961 . S
C2247 H2262 0.961 . S
C2247 H2263 0.961 . S
C2248 C2249 1.370 . S
C2248 C2250 1.363 . S
C2248 H2264 0.931 . S
C2249 C2248 1.370 . S
C2249 C2253 1.408 1_655 S
C2250 C2248 1.363 . S
C2250 C2251 1.370 . S
C2250 C2254 1.533 . S
C2251 C2243 1.506 1_556 S
C2251 C2250 1.370 . S
C2251 C2252 1.403 1_655 S
C2252 C2251 1.403 1_455 S
C2252 C2253 1.404 . S
C2252 C2255 1.539 . S
C2253 C2249 1.408 1_455 S
C2253 C2252 1.404 . S
C2253 H2265 0.930 . S
C2254 C2250 1.533 . S
C2254 H2266 0.952 1_556 S
C2254 H2267 0.951 1_556 S
C2254 H2268 0.965 . S
C2255 C2252 1.539 . S
C2255 H2269 0.958 . S
C2255 H2270 0.961 . S
C2255 H2271 0.960 . S
H2256 C2240 0.931 . S
H2257 C2245 0.929 . S
H2258 C2246 0.960 1_556 S
H2259 C2246 0.966 . S
H2260 C2246 0.960 . S
H2261 C2247 0.961 . S
H2262 C2247 0.961 . S
H2263 C2247 0.961 . S
H2264 C2248 0.931 . S
H2265 C2253 0.930 . S
H2266 C2254 0.952 1_554 S
H2267 C2254 0.951 1_554 S
H2268 C2254 0.965 . S
H2269 C2255 0.958 . S
H2270 C2255 0.961 . S
H2271 C2255 0.960 . S
C2272 C2273 1.391 . S
C2272 C2274 1.394 . S
C2272 H2288 0.931 . S
C2273 C2272 1.391 . S
C2273 C2277 1.376 1_565 S
C2274 C2272 1.394 . S
C2274 C2275 1.369 . S
C2274 C2278 1.531 . S
C2275 C2274 1.369 . S
C2275 C2276 1.402 1_565 S
C2275 C2283 1.503 . S
C2276 C2275 1.402 1_545 S
C2276 C2277 1.394 . S
C2276 C2279 1.518 . S
C2277 C2273 1.376 1_545 S
C2277 C2276 1.394 . S
C2277 H2289 0.929 . S
C2278 C2274 1.531 . S
C2278 H2290 0.960 . S
C2278 H2291 0.962 . S
C2278 H2292 0.960 . S
C2279 C2276 1.518 . S
C2279 H2293 0.961 . S
C2279 H2294 0.961 . S
C2279 H2295 0.961 1_545 S
C2280 C2281 1.370 1_545 S
C2280 C2282 1.363 . S
C2280 H2296 0.931 . S
C2281 C2280 1.370 1_565 S
C2281 C2285 1.408 . S
C2282 C2280 1.363 . S
C2282 C2283 1.370 1_545 S
C2282 C2286 1.524 . S
C2283 C2275 1.503 . S
C2283 C2282 1.370 1_565 S
C2283 C2284 1.403 . S
C2284 C2283 1.403 . S
C2284 C2285 1.404 . S
C2284 C2287 1.539 . S
C2285 C2281 1.408 . S
C2285 C2284 1.404 . S
C2285 H2297 0.930 . S
C2286 C2282 1.524 . S
C2286 H2298 0.956 . S
C2286 H2299 0.961 . S
C2286 H2300 0.961 . S
C2287 C2284 1.539 . S
C2287 H2301 0.958 . S
C2287 H2302 0.961 . S
C2287 H2303 0.960 . S
H2288 C2272 0.931 . S
H2289 C2277 0.929 . S
H2290 C2278 0.960 . S
H2291 C2278 0.962 . S
H2292 C2278 0.960 . S
H2293 C2279 0.961 . S
H2294 C2279 0.961 . S
H2295 C2279 0.961 1_565 S
H2296 C2280 0.931 . S
H2297 C2285 0.930 . S
H2298 C2286 0.956 . S
H2299 C2286 0.961 . S
H2300 C2286 0.961 . S
H2301 C2287 0.958 . S
H2302 C2287 0.961 . S
H2303 C2287 0.960 . S
C2304 C2305 1.391 . S
C2304 C2306 1.394 . S
C2304 H2320 0.931 . S
C2305 C2304 1.391 . S
C2305 C2309 1.376 . S
C2306 C2304 1.394 . S
C2306 C2307 1.369 . S
C2306 C2310 1.531 . S
C2307 C2306 1.369 . S
C2307 C2308 1.410 . S
C2307 C2315 1.503 1_556 S
C2308 C2307 1.410 . S
C2308 C2309 1.392 . S
C2308 C2311 1.511 . S
C2309 C2305 1.376 . S
C2309 C2308 1.392 . S
C2309 H2321 0.929 . S
C2310 C2306 1.531 . S
C2310 H2322 0.960 1_556 S
C2310 H2323 0.962 . S
C2310 H2324 0.960 . S
C2311 C2308 1.511 . S
C2311 H2325 0.961 . S
C2311 H2326 0.961 1_556 S
C2311 H2327 0.960 . S
C2312 C2313 1.370 . S
C2312 C2314 1.363 . S
C2312 H2328 0.931 . S
C2313 C2312 1.370 . S
C2313 C2317 1.408 . S
C2314 C2312 1.363 . S
C2314 C2315 1.370 . S
C2314 C2318 1.524 1_554 S
C2315 C2307 1.503 1_554 S
C2315 C2314 1.370 . S
C2315 C2316 1.403 . S
C2316 C2315 1.403 . S
C2316 C2317 1.404 . S
C2316 C2319 1.539 . S
C2317 C2313 1.408 . S
C2317 C2316 1.404 . S
C2317 H2329 0.930 . S
C2318 C2314 1.524 1_556 S
C2318 H2330 0.956 . S
C2318 H2331 0.961 . S
C2318 H2332 0.961 1_556 S
C2319 C2316 1.539 . S
C2319 H2333 0.958 . S
C2319 H2334 0.961 . S
C2319 H2335 0.960 . S
H2320 C2304 0.931 . S
H2321 C2309 0.929 . S
H2322 C2310 0.960 1_554 S
H2323 C2310 0.962 . S
H2324 C2310 0.960 . S
H2325 C2311 0.961 . S
H2326 C2311 0.961 1_554 S
H2327 C2311 0.960 . S
H2328 C2312 0.931 . S
H2329 C2317 0.930 . S
H2330 C2318 0.956 . S
H2331 C2318 0.961 . S
H2332 C2318 0.961 1_554 S
H2333 C2319 0.958 . S
H2334 C2319 0.961 . S
H2335 C2319 0.960 . S
C2336 C2337 1.391 . S
C2336 C2338 1.394 . S
C2336 H2352 0.931 . S
C2337 C2336 1.391 . S
C2337 C2341 1.376 . S
C2338 C2336 1.394 . S
C2338 C2339 1.369 . S
C2338 C2342 1.531 . S
C2339 C2338 1.369 . S
C2339 C2340 1.410 . S
C2339 C2347 1.503 . S
C2340 C2339 1.410 . S
C2340 C2341 1.392 . S
C2340 C2343 1.511 . S
C2341 C2337 1.376 . S
C2341 C2340 1.392 . S
C2341 H2353 0.929 . S
C2342 C2338 1.531 . S
C2342 H2354 0.960 . S
C2342 H2355 0.962 . S
C2342 H2356 0.960 . S
C2343 C2340 1.511 . S
C2343 H2357 0.961 . S
C2343 H2358 0.961 . S
C2343 H2359 0.961 . S
C2344 C2345 1.370 . S
C2344 C2346 1.363 . S
C2344 H2360 0.931 . S
C2345 C2344 1.370 . S
C2345 C2349 1.408 . S
C2346 C2344 1.363 . S
C2346 C2347 1.370 . S
C2346 C2350 1.524 . S
C2347 C2339 1.503 . S
C2347 C2346 1.370 . S
C2347 C2348 1.403 . S
C2348 C2347 1.403 . S
C2348 C2349 1.404 . S
C2348 C2351 1.539 . S
C2349 C2345 1.408 . S
C2349 C2348 1.404 . S
C2349 H2361 0.930 . S
C2350 C2346 1.524 . S
C2350 H2362 0.956 . S
C2350 H2363 0.961 . S
C2350 H2364 0.961 . S
C2351 C2348 1.539 . S
C2351 H2365 0.958 . S
C2351 H2366 0.961 . S
C2351 H2367 0.960 . S
H2352 C2336 0.931 . S
H2353 C2341 0.929 . S
H2354 C2342 0.960 . S
H2355 C2342 0.962 . S
H2356 C2342 0.960 . S
H2357 C2343 0.961 . S
H2358 C2343 0.961 . S
H2359 C2343 0.961 . S
H2360 C2344 0.931 . S
H2361 C2349 0.930 . S
H2362 C2350 0.956 . S
H2363 C2350 0.961 . S
H2364 C2350 0.961 . S
H2365 C2351 0.958 . S
H2366 C2351 0.961 . S
H2367 C2351 0.960 . S
C2368 C2369 1.391 1_655 S
C2368 C2370 1.394 . S
C2368 H2384 0.931 . S
C2369 C2368 1.391 1_455 S
C2369 C2373 1.376 . S
C2370 C2368 1.394 . S
C2370 C2371 1.369 1_655 S
C2370 C2374 1.531 . S
C2371 C2370 1.369 1_455 S
C2371 C2372 1.410 . S
C2371 C2379 1.503 1_554 S
C2372 C2371 1.410 . S
C2372 C2373 1.392 . S
C2372 C2375 1.511 . S
C2373 C2369 1.376 . S
C2373 C2372 1.392 . S
C2373 H2385 0.929 . S
C2374 C2370 1.531 . S
C2374 H2386 0.960 1_554 S
C2374 H2387 0.962 . S
C2374 H2388 0.960 . S
C2375 C2372 1.511 . S
C2375 H2389 0.961 . S
C2375 H2390 0.961 . S
C2375 H2391 0.961 . S
C2376 C2377 1.370 1_655 S
C2376 C2378 1.363 . S
C2376 H2392 0.931 . S
C2377 C2376 1.370 1_455 S
C2377 C2381 1.408 . S
C2378 C2376 1.363 . S
C2378 C2379 1.370 1_655 S
C2378 C2382 1.524 1_556 S
C2379 C2371 1.503 1_556 S
C2379 C2378 1.370 1_455 S
C2379 C2380 1.403 . S
C2380 C2379 1.403 . S
C2380 C2381 1.404 . S
C2380 C2383 1.539 . S
C2381 C2377 1.408 . S
C2381 C2380 1.404 . S
C2381 H2393 0.930 . S
C2382 C2378 1.524 1_554 S
C2382 H2394 0.956 . S
C2382 H2395 0.961 . S
C2382 H2396 0.961 1_554 S
C2383 C2380 1.539 . S
C2383 H2397 0.958 . S
C2383 H2398 0.961 . S
C2383 H2399 0.960 . S
H2384 C2368 0.931 . S
H2385 C2373 0.929 . S
H2386 C2374 0.960 1_556 S
H2387 C2374 0.962 . S
H2388 C2374 0.960 . S
H2389 C2375 0.961 . S
H2390 C2375 0.961 . S
H2391 C2375 0.961 . S
H2392 C2376 0.931 . S
H2393 C2381 0.930 . S
H2394 C2382 0.956 . S
H2395 C2382 0.961 . S
H2396 C2382 0.961 1_556 S
H2397 C2383 0.958 . S
H2398 C2383 0.961 . S
H2399 C2383 0.960 . S
C2400 C2401 1.391 . S
C2400 C2402 1.394 . S
C2400 H2416 0.931 . S
C2401 C2400 1.391 . S
C2401 C2405 1.376 1_545 S
C2402 C2400 1.394 . S
C2402 C2403 1.369 . S
C2402 C2406 1.531 . S
C2403 C2402 1.369 . S
C2403 C2404 1.410 1_545 S
C2403 C2411 1.503 . S
C2404 C2403 1.410 1_565 S
C2404 C2405 1.392 . S
C2404 C2407 1.511 . S
C2405 C2401 1.376 1_565 S
C2405 C2404 1.392 . S
C2405 H2417 0.929 . S
C2406 C2402 1.531 . S
C2406 H2418 0.960 . S
C2406 H2419 0.962 . S
C2406 H2420 0.960 . S
C2407 C2404 1.511 . S
C2407 H2421 0.961 . S
C2407 H2422 0.961 . S
C2407 H2423 0.961 . S
C2408 C2409 1.370 . S
C2408 C2410 1.363 . S
C2408 H2424 0.931 . S
C2409 C2408 1.370 . S
C2409 C2413 1.408 . S
C2410 C2408 1.363 . S
C2410 C2411 1.370 . S
C2410 C2414 1.524 . S
C2411 C2403 1.503 . S
C2411 C2410 1.370 . S
C2411 C2412 1.403 . S
C2412 C2411 1.403 . S
C2412 C2413 1.404 . S
C2412 C2415 1.539 . S
C2413 C2409 1.408 . S
C2413 C2412 1.404 . S
C2413 H2425 0.930 . S
C2414 C2410 1.524 . S
C2414 H2426 0.956 . S
C2414 H2427 0.961 1_545 S
C2414 H2428 0.961 1_545 S
C2415 C2412 1.539 . S
C2415 H2429 0.958 . S
C2415 H2430 0.961 1_545 S
C2415 H2431 0.960 1_545 S
H2416 C2400 0.931 . S
H2417 C2405 0.929 . S
H2418 C2406 0.960 . S
H2419 C2406 0.962 . S
H2420 C2406 0.960 . S
H2421 C2407 0.961 . S
H2422 C2407 0.961 . S
H2423 C2407 0.961 . S
H2424 C2408 0.931 . S
H2425 C2413 0.930 . S
H2426 C2414 0.956 . S
H2427 C2414 0.961 1_565 S
H2428 C2414 0.961 1_565 S
H2429 C2415 0.958 . S
H2430 C2415 0.961 1_565 S
H2431 C2415 0.960 1_565 S
C1409 C57 0.967 . S
C1417 C665 0.989 . S
C1441 C117 1.007 . S
C1449 C372 1.010 . S
C1473 C205 1.010 . S
C1481 C469 1.011 . S
C1505 C293 0.999 . S
C1513 C577 0.993 . S
C1537 C733 1.002 . S
C1545 C1377 1.017 . S
C1569 C1105 0.994 . S
C1577 C812 1.015 . S
C1601 C909 0.985 . S
C1609 C1193 0.994 . S
C1633 C997 0.995 . S
C1641 C1289 1.015 . S
C1665 C29 1.384 . S
C1673 C849 1.405 . S
C1697 C145 1.357 . S
C1705 C929 1.411 . S
C1729 C1017 1.410 . S
C1737 C233 1.356 . S
C1761 C321 1.368 . S
C1769 C753 1.403 . S
C1793 C401 1.357 . S
C1801 C1340 1.404 . S
C1825 C1085 1.402 . S
C1833 C497 1.364 . S
C1857 C1173 1.403 . S
C1865 C548 1.339 . S
C1889 C1252 1.404 . S
C1897 C636 1.338 . S
C1921 C108 1.418 . S
C1929 C761 1.358 . S
C1953 C196 1.424 . S
C1961 C841 1.341 . S
C1985 C937 1.338 . S
C1993 C284 1.417 . S
C2017 C49 1.418 . S
C2025 C1025 1.345 . S
C2049 C1076 1.356 . S
C2057 C673 1.414 . S
C2081 C1164 1.355 . S
C2089 C381 1.414 . S
C2113 C460 1.426 . S
C2121 C1261 1.346 . S
C2145 C585 1.402 . S
C2153 C1349 1.365 . S
C2177 C20 1.571 . S
C2185 C409 1.587 . S
C2209 C489 1.582 . S
C2217 C137 1.591 . S
C2241 C225 1.593 . S
C2249 C557 1.586 . S
C2273 C645 1.579 . S
C2281 C313 1.581 . S
C2305 C724 1.584 . S
C2313 C1113 1.576 . S
C2337 C1201 1.566 . S
C2345 C821 1.581 . S
C2369 C1281 1.579 . S
C2377 C900 1.575 . S
C2401 C1369 1.568 . S
C2409 C988 1.582 . S
