# Generated by pormake.
# Topology upb, (4)-cn, num edge types: 1
# Building blocks:
#     Node 0, Type 0, BuildingBlock: CEKHIL_clean_sbu_0, # of connection points: 4
#     Node 1, Type 0, BuildingBlock: CEKHIL_clean_sbu_0, # of connection points: 4
#     Node 2, Type 0, BuildingBlock: CEKHIL_clean_sbu_0, # of connection points: 4
#     Node 3, Type 0, BuildingBlock: CEKHIL_clean_sbu_0, # of connection points: 4
#     Node 4, Type 0, BuildingBlock: CEKHIL_clean_sbu_0, # of connection points: 4
#     Node 5, Type 0, BuildingBlock: CEKHIL_clean_sbu_0, # of connection points: 4
#     Node 6, Type 0, BuildingBlock: CEKHIL_clean_sbu_0, # of connection points: 4
#     Node 7, Type 0, BuildingBlock: CEKHIL_clean_sbu_0, # of connection points: 4
#     Node 8, Type 0, BuildingBlock: CEKHIL_clean_sbu_0, # of connection points: 4
#     Node 9, Type 0, BuildingBlock: CEKHIL_clean_sbu_0, # of connection points: 4
#     Node 10, Type 0, BuildingBlock: CEKHIL_clean_sbu_0, # of connection points: 4
#     Node 11, Type 0, BuildingBlock: CEKHIL_clean_sbu_0, # of connection points: 4
#     Node 12, Type 0, BuildingBlock: CEKHIL_clean_sbu_0, # of connection points: 4
#     Node 13, Type 0, BuildingBlock: CEKHIL_clean_sbu_0, # of connection points: 4
#     Node 14, Type 0, BuildingBlock: CEKHIL_clean_sbu_0, # of connection points: 4
#     Node 15, Type 0, BuildingBlock: CEKHIL_clean_sbu_0, # of connection points: 4
#     Edge 16, Type (0, 0), BuildingBlock: ZUJKAS_clean_linker_0, # of connection points: 2
#     Edge 17, Type (0, 0), BuildingBlock: ZUJKAS_clean_linker_0, # of connection points: 2
#     Edge 18, Type (0, 0), BuildingBlock: ZUJKAS_clean_linker_0, # of connection points: 2
#     Edge 19, Type (0, 0), BuildingBlock: ZUJKAS_clean_linker_0, # of connection points: 2
#     Edge 20, Type (0, 0), BuildingBlock: ZUJKAS_clean_linker_0, # of connection points: 2
#     Edge 21, Type (0, 0), BuildingBlock: ZUJKAS_clean_linker_0, # of connection points: 2
#     Edge 22, Type (0, 0), BuildingBlock: ZUJKAS_clean_linker_0, # of connection points: 2
#     Edge 23, Type (0, 0), BuildingBlock: ZUJKAS_clean_linker_0, # of connection points: 2
#     Edge 24, Type (0, 0), BuildingBlock: ZUJKAS_clean_linker_0, # of connection points: 2
#     Edge 25, Type (0, 0), BuildingBlock: ZUJKAS_clean_linker_0, # of connection points: 2
#     Edge 26, Type (0, 0), BuildingBlock: ZUJKAS_clean_linker_0, # of connection points: 2
#     Edge 27, Type (0, 0), BuildingBlock: ZUJKAS_clean_linker_0, # of connection points: 2
#     Edge 28, Type (0, 0), BuildingBlock: ZUJKAS_clean_linker_0, # of connection points: 2
#     Edge 29, Type (0, 0), BuildingBlock: ZUJKAS_clean_linker_0, # of connection points: 2
#     Edge 30, Type (0, 0), BuildingBlock: ZUJKAS_clean_linker_0, # of connection points: 2
#     Edge 31, Type (0, 0), BuildingBlock: ZUJKAS_clean_linker_0, # of connection points: 2
#     Edge 32, Type (0, 0), BuildingBlock: ZUJKAS_clean_linker_0, # of connection points: 2
#     Edge 33, Type (0, 0), BuildingBlock: ZUJKAS_clean_linker_0, # of connection points: 2
#     Edge 34, Type (0, 0), BuildingBlock: ZUJKAS_clean_linker_0, # of connection points: 2
#     Edge 35, Type (0, 0), BuildingBlock: ZUJKAS_clean_linker_0, # of connection points: 2
#     Edge 36, Type (0, 0), BuildingBlock: ZUJKAS_clean_linker_0, # of connection points: 2
#     Edge 37, Type (0, 0), BuildingBlock: ZUJKAS_clean_linker_0, # of connection points: 2
#     Edge 38, Type (0, 0), BuildingBlock: ZUJKAS_clean_linker_0, # of connection points: 2
#     Edge 39, Type (0, 0), BuildingBlock: ZUJKAS_clean_linker_0, # of connection points: 2
#     Edge 40, Type (0, 0), BuildingBlock: ZUJKAS_clean_linker_0, # of connection points: 2
#     Edge 41, Type (0, 0), BuildingBlock: ZUJKAS_clean_linker_0, # of connection points: 2
#     Edge 42, Type (0, 0), BuildingBlock: ZUJKAS_clean_linker_0, # of connection points: 2
#     Edge 43, Type (0, 0), BuildingBlock: ZUJKAS_clean_linker_0, # of connection points: 2
#     Edge 44, Type (0, 0), BuildingBlock: ZUJKAS_clean_linker_0, # of connection points: 2
#     Edge 45, Type (0, 0), BuildingBlock: ZUJKAS_clean_linker_0, # of connection points: 2
#     Edge 46, Type (0, 0), BuildingBlock: ZUJKAS_clean_linker_0, # of connection points: 2
#     Edge 47, Type (0, 0), BuildingBlock: ZUJKAS_clean_linker_0, # of connection points: 2
# Relax obj value: 0.218
# Max RMSD: 0.060
# Mean RMSD: 0.060
data_MOF--net-upb--node1-CEKHIL_clean_sbu_0--edge1-ZUJKAS_clean_linker_0
_symmetry_space_group_name_H-M    P1
_symmetry_Int_Tables_number       1
_symmetry_cell_setting            triclinic
loop_
_symmetry_equiv_pos_as_xyz
'x, y, z'
_cell_length_a     57.245139
_cell_length_b     57.233465
_cell_length_c     41.909387
_cell_angle_alpha  89.993716
_cell_angle_beta   90.000906
_cell_angle_gamma 90.010484
loop_
_atom_site_label
_atom_site_type_symbol
_atom_site_fract_x
_atom_site_fract_y
_atom_site_fract_z
_atom_type_partial_charge
Co0 Co 0.04486 0.22631 0.29123 0.0
O1 O 0.0701 0.24534 0.30577 0.0
O2 O 0.05261 0.24945 0.25897 0.0
C3 C 0.02492 0.22851 0.33757 0.0
O4 O 0.01726 0.21016 0.26949 0.0
Co5 Co 0.03593 0.17914 0.32594 0.0
O6 O 0.00843 0.17763 0.29744 0.0
C7 C 0.07695 0.1848 0.28458 0.0
C8 C 0.06827 0.25674 0.27923 0.0
C9 C 0.00458 0.19195 0.27474 0.0
O10 O 0.0679 0.20334 0.27235 0.0
O11 O 0.06822 0.17425 0.30873 0.0
O12 O 0.02299 0.24501 0.31645 0.0
O13 O 0.0399 0.21242 0.33092 0.0
Co14 Co 0.77052 0.04523 0.28132 0.0
O15 O 0.75693 0.07493 0.2908 0.0
O16 O 0.74903 0.054 0.24762 0.0
C17 C 0.76465 0.03053 0.33049 0.0
O18 O 0.78077 0.0132 0.2646 0.0
Co19 Co 0.81462 0.02851 0.3178 0.0
O20 O 0.80407 0.99764 0.30223 0.0
C21 C 0.81891 0.06452 0.26741 0.0
C22 C 0.74513 0.07265 0.26462 0.0
C23 C 0.79153 0.99572 0.27727 0.0
O24 O 0.79738 0.06158 0.25942 0.0
O25 O 0.82852 0.05395 0.29094 0.0
O26 O 0.74801 0.02998 0.30946 0.0
O27 O 0.78351 0.04118 0.32187 0.0
Co28 Co 0.95247 0.77285 0.28621 0.0
O29 O 0.92721 0.75306 0.29856 0.0
O30 O 0.94537 0.75115 0.25193 0.0
C31 C 0.97174 0.76879 0.3328 0.0
O32 O 0.98022 0.79002 0.26649 0.0
Co33 Co 0.96089 0.81846 0.32476 0.0
O34 O 0.98935 0.82052 0.29817 0.0
C35 C 0.92057 0.81479 0.28151 0.0
C36 C 0.92951 0.74288 0.27117 0.0
C37 C 0.99328 0.8075 0.27407 0.0
O38 O 0.9295 0.79644 0.2686 0.0
O39 O 0.92916 0.82455 0.30637 0.0
O40 O 0.97416 0.75327 0.31044 0.0
O41 O 0.95675 0.78506 0.32702 0.0
Co42 Co 0.22409 0.95141 0.2878 0.0
O43 O 0.23889 0.92268 0.29879 0.0
O44 O 0.24766 0.9437 0.25609 0.0
C45 C 0.22694 0.96618 0.33734 0.0
O46 O 0.21278 0.98287 0.2703 0.0
Co47 Co 0.17765 0.9653 0.32062 0.0
O48 O 0.1875 0.9968 0.30669 0.0
C49 C 0.17731 0.93055 0.26832 0.0
C50 C 0.25192 0.9255 0.27386 0.0
C51 C 0.20082 -0.00032 0.28266 0.0
O52 O 0.1993 0.93368 0.26344 0.0
O53 O 0.16591 0.94069 0.29067 0.0
O54 O 0.24429 0.96805 0.31757 0.0
O55 O 0.20917 0.95438 0.32732 0.0
Co56 Co 0.04409 0.77301 0.71 0.0
O57 O 0.07368 0.75984 0.6993 0.0
O58 O 0.05406 0.75164 0.74342 0.0
C59 C 0.02897 0.76683 0.6611 0.0
O60 O 0.01223 0.78291 0.72772 0.0
Co61 Co 0.02631 0.81674 0.67364 0.0
O62 O 0.99589 0.80593 0.69039 0.0
C63 C 0.06325 0.82156 0.72275 0.0
C64 C 0.07229 0.74794 0.72548 0.0
C65 C 0.99445 0.7935 0.71553 0.0
O66 O 0.06042 0.80014 0.73132 0.0
O67 O 0.05235 0.8308 0.6992 0.0
O68 O 0.02867 0.75027 0.68228 0.0
O69 O 0.03937 0.78584 0.66959 0.0
Co70 Co 0.22698 0.05007 0.71493 0.0
O71 O 0.24366 0.07877 0.71051 0.0
O72 O 0.24922 0.05325 0.7496 0.0
C73 C 0.23174 0.03985 0.66356 0.0
O74 O 0.21337 0.01806 0.7262 0.0
Co75 Co 0.18208 0.04091 0.67549 0.0
O76 O 0.1886 0.00805 0.68695 0.0
C77 C 0.18038 0.07177 0.73236 0.0
C78 C 0.25518 0.07275 0.73578 0.0
C79 C 0.20066 0.0029 0.7115 0.0
O80 O 0.20172 0.06694 0.73957 0.0
O81 O 0.17015 0.0641 0.70728 0.0
O82 O 0.24789 0.03508 0.6843 0.0
O83 O 0.21403 0.05147 0.67402 0.0
Co84 Co 0.95149 0.22676 0.71726 0.0
O85 O 0.92563 0.24685 0.70814 0.0
O86 O 0.94778 0.24912 0.75158 0.0
C87 C 0.96674 0.22959 0.66776 0.0
O88 O 0.98052 0.20985 0.7338 0.0
Co89 Co 0.95814 0.18032 0.68003 0.0
O90 O 0.98871 0.17938 0.70174 0.0
C91 C 0.92325 0.18304 0.732 0.0
C92 C 0.9306 0.25733 0.73467 0.0
C93 C 0.99363 0.19269 0.72515 0.0
O94 O 0.9299 0.20386 0.73931 0.0
O95 O 0.9314 0.17152 0.70831 0.0
O96 O 0.9712 0.2455 0.68902 0.0
O97 O 0.95236 0.21345 0.67648 0.0
Co98 Co 0.77539 0.95558 0.70721 0.0
O99 O 0.75978 0.92741 0.6953 0.0
O100 O 0.7538 0.9463 0.74068 0.0
C101 C 0.76995 0.97305 0.65952 0.0
O102 O 0.78803 0.98593 0.7265 0.0
Co103 Co 0.82034 0.96972 0.67032 0.0
O104 O 0.81758 0.99872 0.69549 0.0
C105 C 0.82221 0.93163 0.71779 0.0
C106 C 0.74857 0.92883 0.72205 0.0
C107 C 0.80373 0.00115 0.71907 0.0
O108 O 0.80136 0.93656 0.72717 0.0
O109 O 0.83195 0.94159 0.69387 0.0
O110 O 0.75366 0.9737 0.68106 0.0
O111 O 0.78801 0.96064 0.66668 0.0
Co112 Co 0.54611 0.72671 0.78406 0.0
O113 O 0.57488 0.74088 0.79651 0.0
O114 O 0.55656 0.74823 0.7511 0.0
C115 C 0.52893 0.73267 0.83168 0.0
O116 O 0.51521 0.71567 0.76452 0.0
Co117 Co 0.52872 0.68253 0.81992 0.0
O118 O 0.49854 0.69232 0.80124 0.0
C119 C 0.56701 0.67859 0.7727 0.0
C120 C 0.57397 0.75267 0.7702 0.0
C121 C 0.49746 0.70454 0.77588 0.0
O122 O 0.5639 0.69995 0.76402 0.0
O123 O 0.55575 0.66908 0.79572 0.0
O124 O 0.52907 0.74915 0.81039 0.0
O125 O 0.5403 0.71399 0.82427 0.0
Co126 Co 0.27548 0.54639 0.78553 0.0
O127 O 0.26288 0.57617 0.79684 0.0
O128 O 0.25391 0.55685 0.75275 0.0
C129 C 0.26955 0.53098 0.83436 0.0
O130 O 0.28458 0.51457 0.76701 0.0
Co131 Co 0.31923 0.52741 0.82039 0.0
O132 O 0.30794 0.49729 0.80313 0.0
C133 C 0.32424 0.56462 0.77168 0.0
C134 C 0.25062 0.57502 0.77094 0.0
C135 C 0.29513 0.49649 0.77832 0.0
O136 O 0.30263 0.56232 0.76372 0.0
O137 O 0.33356 0.55339 0.79487 0.0
O138 O 0.2528 0.53118 0.81348 0.0
O139 O 0.28868 0.54109 0.82569 0.0
Co140 Co 0.45098 0.27237 0.78916 0.0
O141 O 0.42487 0.25301 0.79911 0.0
O142 O 0.44521 0.25082 0.75421 0.0
C143 C 0.46841 0.26772 0.83701 0.0
O144 O 0.47963 0.28942 0.77186 0.0
Co145 Co 0.45824 0.31754 0.82934 0.0
O146 O 0.48744 0.3199 0.80429 0.0
C147 C 0.41988 0.31475 0.78267 0.0
C148 C 0.42825 0.24288 0.77189 0.0
C149 C 0.49225 0.307 0.78036 0.0
O150 O 0.42913 0.29642 0.77012 0.0
O151 O 0.42744 0.32411 0.80843 0.0
O152 O 0.47139 0.25229 0.81467 0.0
O153 O 0.45378 0.28417 0.83048 0.0
Co154 Co 0.72671 0.45294 0.78091 0.0
O155 O 0.74044 0.423 0.78834 0.0
O156 O 0.74773 0.44524 0.7462 0.0
C157 C 0.73331 0.46593 0.83081 0.0
O158 O 0.71622 0.48542 0.76623 0.0
Co159 Co 0.6833 0.46874 0.81959 0.0
O160 O 0.69335 0.50001 0.805 0.0
C161 C 0.67814 0.43425 0.7673 0.0
C162 C 0.75195 0.42614 0.76208 0.0
C163 C 0.70548 0.50256 0.77976 0.0
O164 O 0.69954 0.43732 0.75881 0.0
O165 O 0.66899 0.44413 0.79171 0.0
O166 O 0.74961 0.46729 0.80936 0.0
O167 O 0.7143 0.45565 0.82199 0.0
Co168 Co 0.54612 0.27515 0.21424 0.0
O169 O 0.57619 0.26139 0.20807 0.0
O170 O 0.55301 0.25409 0.24926 0.0
C171 C 0.53399 0.26854 0.16391 0.0
O172 O 0.51337 0.28573 0.22753 0.0
Co173 Co 0.53166 0.31872 0.17479 0.0
O174 O 0.5 0.30931 0.18867 0.0
C175 C 0.56512 0.32358 0.22832 0.0
C176 C 0.57247 0.24992 0.23422 0.0
C177 C 0.49674 0.29695 0.21356 0.0
O178 O 0.56129 0.30233 0.23699 0.0
O179 O 0.55614 0.33267 0.20322 0.0
O180 O 0.53229 0.25223 0.18531 0.0
O181 O 0.54426 0.28749 0.17301 0.0
Co182 Co 0.72811 0.54181 0.20605 0.0
O183 O 0.74281 0.57029 0.19344 0.0
O184 O 0.74933 0.55222 0.23931 0.0
C185 C 0.73436 0.52393 0.15897 0.0
O186 O 0.71647 0.51127 0.22591 0.0
Co187 Co 0.68403 0.52486 0.16965 0.0
O188 O 0.69276 0.49474 0.18952 0.0
C189 C 0.68028 0.5637 0.21602 0.0
C190 C 0.75424 0.56942 0.22006 0.0
C191 C 0.7049 0.49368 0.21496 0.0
O192 O 0.70142 0.56011 0.22534 0.0
O193 O 0.67089 0.55255 0.19283 0.0
O194 O 0.75061 0.5242 0.18056 0.0
O195 O 0.71577 0.53572 0.16565 0.0
Co196 Co 0.45691 0.72732 0.20893 0.0
O197 O 0.42794 0.74185 0.19848 0.0
O198 O 0.44789 0.74872 0.24276 0.0
C199 C 0.47259 0.73337 0.16041 0.0
O200 O 0.48833 0.71583 0.22635 0.0
Co201 Co 0.47238 0.68309 0.17167 0.0
O202 O 0.50328 0.69241 0.1884 0.0
C203 C 0.43622 0.67925 0.22184 0.0
C204 C 0.42986 0.75342 0.22487 0.0
C205 C 0.50549 0.7045 0.21376 0.0
O206 O 0.43947 0.70072 0.22988 0.0
O207 O 0.44668 0.6695 0.19833 0.0
O208 O 0.47332 0.74971 0.18185 0.0
O209 O 0.4612 0.71477 0.16823 0.0
Co210 Co 0.27036 0.45513 0.20935 0.0
O211 O 0.24987 0.43041 0.19694 0.0
O212 O 0.24866 0.44836 0.24375 0.0
C213 C 0.26674 0.47487 0.16305 0.0
O214 O 0.28833 0.48232 0.22923 0.0
Co215 Co 0.31612 0.46234 0.1706 0.0
O216 O 0.31967 0.49008 0.19835 0.0
C217 C 0.31113 0.42182 0.21306 0.0
C218 C 0.23994 0.43274 0.2245 0.0
C219 C 0.30657 0.49449 0.2222 0.0
O220 O 0.29341 0.43149 0.22659 0.0
O221 O 0.32087 0.43007 0.18799 0.0
O222 O 0.25126 0.47746 0.18544 0.0
O223 O 0.28258 0.45937 0.16856 0.0
H224 H 0.11309 0.16486 0.31562 0.0
H225 H 0.14465 0.14174 0.29284 0.0
H226 H 0.1194 0.15672 0.19805 0.0
H227 H 0.08769 0.18052 0.22101 0.0
H228 H 0.12269 0.10835 0.2144 0.0
H229 H 0.20534 0.15331 0.2421 0.0
H230 H 0.18561 0.15437 0.27533 0.0
H231 H 0.17779 0.16861 0.2385 0.0
C232 C 0.11461 0.16377 0.28989 0.0
C233 C 0.09796 0.17437 0.27005 0.0
C234 C 0.13279 0.15073 0.27686 0.0
C235 C 0.1346 0.14778 0.24372 0.0
C236 C 0.11851 0.1591 0.22366 0.0
H237 H 0.20227 0.01122 0.21888 0.0
H238 H 0.19237 0.04963 0.19594 0.0
C239 C 0.10046 0.17264 0.23676 0.0
C240 C 0.15088 0.12978 0.23149 0.0
H241 H 0.2062 0.11039 0.24563 0.0
C242 C 0.14121 0.10895 0.21985 0.0
C243 C 0.17503 0.13074 0.23831 0.0
C244 C 0.18659 0.15309 0.24894 0.0
C245 C 0.15429 0.0882 0.21924 0.0
C246 C 0.17774 0.08855 0.23005 0.0
C247 C 0.18819 0.11007 0.23759 0.0
C248 C 0.18913 0.06689 0.24171 0.0
C249 C 0.14212 0.06566 0.21065 0.0
C250 C 0.19196 0.06428 0.27475 0.0
C251 C 0.19758 0.04263 0.28771 0.0
C252 C 0.20065 0.02309 0.26792 0.0
C253 C 0.19997 0.02605 0.23462 0.0
C254 C 0.19415 0.04789 0.22155 0.0
H255 H 0.12343 0.06835 0.20453 0.0
H256 H 0.1509 0.05757 0.1898 0.0
H257 H 0.14315 0.05315 0.23087 0.0
H258 H 0.18822 0.07866 0.29079 0.0
H259 H 0.19825 0.04088 0.31344 0.0
H260 H 0.99218 0.14981 0.25188 0.0
H261 H 0.95515 0.13893 0.22776 0.0
H262 H 0.9335 0.21115 0.22803 0.0
H263 H 0.97113 0.22221 0.25234 0.0
H264 H 0.90337 0.18262 0.26004 0.0
H265 H 0.92107 0.14241 0.14364 0.0
H266 H 0.94199 0.13181 0.17192 0.0
H267 H 0.94128 0.16253 0.16223 0.0
C268 C 0.97984 0.16349 0.24587 0.0
C269 C 0.98442 0.18681 0.25401 0.0
C270 C 0.95873 0.15729 0.23174 0.0
C271 C 0.94162 0.17424 0.22556 0.0
C272 C 0.9466 0.19783 0.23215 0.0
H273 H 0.80429 0.1039 0.2356 0.0
H274 H 0.82921 0.13561 0.21515 0.0
C275 C 0.96805 0.20413 0.24596 0.0
C276 C 0.91759 0.16622 0.21806 0.0
H277 H 0.89094 0.12232 0.17679 0.0
C278 C 0.90015 0.17021 0.24098 0.0
C279 C 0.91323 0.15024 0.19302 0.0
C280 C 0.93037 0.14674 0.16615 0.0
C281 C 0.87997 0.15628 0.24204 0.0
C282 C 0.87725 0.13809 0.21952 0.0
C283 C 0.89322 0.1361 0.19429 0.0
C284 C 0.86167 0.11808 0.22635 0.0
C285 C 0.86301 0.15933 0.26929 0.0
C286 C 0.87172 0.09758 0.23841 0.0
C287 C 0.85769 0.07969 0.25024 0.0
C288 C 0.83325 0.08183 0.25 0.0
C289 C 0.82309 0.10175 0.236 0.0
C290 C 0.83725 0.11988 0.22442 0.0
H291 H 0.86753 0.1745 0.28464 0.0
H292 H 0.84511 0.16192 0.25979 0.0
H293 H 0.86282 0.14333 0.28427 0.0
H294 H 0.89054 0.0959 0.24016 0.0
H295 H 0.86603 0.06449 0.26062 0.0
H296 H 0.79523 0.98584 0.21339 0.0
H297 H 0.80584 0.94772 0.1904 0.0
H298 H 0.79963 0.9162 0.28357 0.0
H299 H 0.78908 0.95379 0.30621 0.0
H300 H 0.84557 0.92745 0.20851 0.0
H301 H 0.77604 0.86354 0.22986 0.0
H302 H 0.77034 0.89461 0.22933 0.0
H303 H 0.77973 0.88031 0.26554 0.0
C304 C 0.79517 0.97051 0.22855 0.0
C305 C 0.79147 0.97267 0.26156 0.0
C306 C 0.80128 0.94878 0.21544 0.0
C307 C 0.80327 0.92896 0.23513 0.0
C308 C 0.79764 0.93096 0.26762 0.0
H309 H 0.88735 0.83996 0.31193 0.0
H310 H 0.85598 0.86285 0.28828 0.0
C311 C 0.79183 0.95255 0.28067 0.0
C312 C 0.81573 0.90762 0.22429 0.0
H313 H 0.81673 0.8493 0.24096 0.0
C314 C 0.83897 0.91017 0.2141 0.0
C315 C 0.80713 0.885 0.23115 0.0
C316 C 0.78182 0.88075 0.23922 0.0
C317 C 0.8546 0.89129 0.21512 0.0
C318 C 0.84669 0.86944 0.22649 0.0
C319 C 0.82282 0.86618 0.23263 0.0
C320 C 0.86346 0.85236 0.23976 0.0
C321 C 0.88005 0.89545 0.20765 0.0
C322 C 0.8777 0.83838 0.22029 0.0
C323 C 0.89572 0.82504 0.23388 0.0
C324 C 0.89984 0.82591 0.26698 0.0
C325 C 0.8848 0.83914 0.28633 0.0
C326 C 0.86676 0.85211 0.27288 0.0
H327 H 0.88323 0.91325 0.19797 0.0
H328 H 0.89064 0.89321 0.22964 0.0
H329 H 0.88621 0.88242 0.18994 0.0
H330 H 0.87539 0.83842 0.19464 0.0
H331 H 0.90707 0.81499 0.21842 0.0
H332 H 0.0217 0.7777 0.23996 0.0
H333 H 0.05929 0.78771 0.21461 0.0
H334 H 0.0487 0.8601 0.23929 0.0
H335 H 0.0117 0.85035 0.26439 0.0
H336 H 0.06862 0.85085 0.17487 0.0
H337 H 0.11494 0.80679 0.27542 0.0
H338 H 0.09349 0.79133 0.25204 0.0
H339 H 0.08434 0.81378 0.27916 0.0
C340 C 0.02726 0.79578 0.2393 0.0
C341 C 0.01397 0.81322 0.25448 0.0
C342 C 0.0487 0.80144 0.22493 0.0
C343 C 0.05678 0.82462 0.22527 0.0
C344 C 0.04276 0.84212 0.23868 0.0
H345 H 0.1319 0.93333 0.25097 0.0
H346 H 0.10815 0.90295 0.22674 0.0
C347 C 0.02167 0.83649 0.25323 0.0
C348 C 0.08072 0.83113 0.2154 0.0
H349 H 0.13366 0.83857 0.25114 0.0
C350 C 0.08325 0.84747 0.19067 0.0
C351 C 0.09992 0.82643 0.23565 0.0
C352 C 0.09826 0.80862 0.2621 0.0
C353 C 0.10335 0.86139 0.18837 0.0
C354 C 0.12102 0.85913 0.21174 0.0
C355 C 0.11995 0.8405 0.23348 0.0
C356 C 0.13684 0.87884 0.21945 0.0
C357 C 0.1046 0.87976 0.16267 0.0
C358 C 0.16101 0.87556 0.22325 0.0
C359 C 0.17475 0.89312 0.23717 0.0
C360 C 0.16431 0.91387 0.24816 0.0
C361 C 0.14039 0.91748 0.24285 0.0
C362 C 0.12683 0.9002 0.22861 0.0
H363 H 0.09612 0.87346 0.14043 0.0
H364 H 0.095 0.89557 0.17065 0.0
H365 H 0.12294 0.88472 0.15731 0.0
H366 H 0.16901 0.85908 0.2168 0.0
H367 H 0.19316 0.88987 0.24119 0.0
H368 H 0.06775 0.86878 0.71968 0.0
H369 H 0.09977 0.8925 0.73927 0.0
H370 H 0.13073 0.83194 0.78363 0.0
H371 H 0.09864 0.80762 0.7632 0.0
H372 H 0.1187 0.90216 0.79879 0.0
H373 H 0.18168 0.85352 0.72193 0.0
H374 H 0.1506 0.84936 0.71777 0.0
H375 H 0.16558 0.83785 0.75196 0.0
C376 C 0.08117 0.86041 0.73386 0.0
C377 C 0.08081 0.83619 0.73936 0.0
C378 C 0.09945 0.87408 0.74526 0.0
C379 C 0.11784 0.86396 0.76252 0.0
C380 C 0.1169 0.84004 0.76991 0.0
H381 H 0.20912 0.98739 0.7728 0.0
H382 H 0.19687 0.94974 0.79564 0.0
C383 C 0.09848 0.82622 0.75839 0.0
C384 C 0.13859 0.87863 0.7695 0.0
H385 H 0.1917 0.8914 0.73697 0.0
C386 C 0.13506 0.89958 0.78623 0.0
C387 C 0.15999 0.87501 0.75335 0.0
C388 C 0.16486 0.85279 0.73512 0.0
C389 C 0.15093 0.91819 0.78374 0.0
C390 C 0.17113 0.91547 0.76457 0.0
C391 C 0.17612 0.89345 0.75144 0.0
C392 C 0.18337 0.9361 0.75111 0.0
C393 C 0.14461 0.94135 0.79863 0.0
C394 C 0.1812 0.9403 0.71828 0.0
C395 C 0.1883 0.96149 0.70525 0.0
C396 C 0.19772 0.97909 0.72475 0.0
C397 C 0.20172 0.97423 0.75722 0.0
C398 C 0.19459 0.95281 0.77034 0.0
H399 H 0.12733 0.94088 0.8107 0.0
H400 H 0.15798 0.94619 0.81661 0.0
H401 H 0.1442 0.95526 0.78016 0.0
H402 H 0.17269 0.92768 0.70289 0.0
H403 H 0.18534 0.96447 0.68004 0.0
H404 H 0.13401 0.06986 0.74352 0.0
H405 H 0.1096 0.1002 0.76655 0.0
H406 H 0.17092 0.14054 0.79005 0.0
H407 H 0.19574 0.10987 0.76649 0.0
H408 H 0.10639 0.12457 0.82607 0.0
H409 H 0.13498 0.18173 0.72536 0.0
H410 H 0.14178 0.15096 0.72517 0.0
H411 H 0.15624 0.1701 0.75274 0.0
C412 C 0.14238 0.08493 0.75421 0.0
C413 C 0.16672 0.0877 0.7528 0.0
C414 C 0.12841 0.10223 0.76755 0.0
C415 C 0.13841 0.12278 0.7796 0.0
C416 C 0.16286 0.1249 0.78054 0.0
H417 H 0.0236 0.22291 0.75588 0.0
H418 H 0.06117 0.21279 0.78129 0.0
C419 C 0.177 0.10735 0.7673 0.0
C420 C 0.12255 0.14257 0.78669 0.0
H421 H 0.09762 0.18784 0.74615 0.0
C422 C 0.10493 0.13906 0.8095 0.0
C423 C 0.12077 0.16166 0.76534 0.0
C424 C 0.13937 0.16651 0.74069 0.0
C425 C 0.08423 0.15215 0.80866 0.0
C426 C 0.08112 0.16895 0.78434 0.0
C427 C 0.10002 0.17476 0.76459 0.0
C428 C 0.05744 0.17561 0.77351 0.0
C429 C 0.06493 0.14635 0.83181 0.0
C430 C 0.04313 0.1581 0.76066 0.0
C431 C 0.02219 0.1638 0.74575 0.0
C432 C 0.01494 0.18717 0.74353 0.0
C433 C 0.02878 0.20475 0.75744 0.0
C434 C 0.05014 0.19902 0.77195 0.0
H435 H 0.07216 0.13996 0.85481 0.0
H436 H 0.05366 0.16178 0.8364 0.0
H437 H 0.05393 0.13223 0.82161 0.0
H438 H 0.04865 0.13999 0.76096 0.0
H439 H 0.01184 0.14987 0.73543 0.0
H440 H 0.88216 0.20088 0.7555 0.0
H441 H 0.84954 0.17804 0.77808 0.0
H442 H 0.89196 0.11579 0.77381 0.0
H443 H 0.92397 0.13822 0.75121 0.0
H444 H 0.82979 0.14203 0.74285 0.0
H445 H 0.85826 0.1064 0.85808 0.0
H446 H 0.87055 0.13288 0.84147 0.0
H447 H 0.88191 0.10466 0.83019 0.0
C448 C 0.88462 0.18246 0.76045 0.0
C449 C 0.90544 0.1712 0.75155 0.0
C450 C 0.86604 0.16947 0.7733 0.0
C451 C 0.86843 0.14527 0.77816 0.0
C452 C 0.88984 0.1345 0.77113 0.0
H453 H 0.84485 0.02106 0.73383 0.0
H454 H 0.85165 0.05848 0.75951 0.0
C455 C 0.90809 0.14729 0.75788 0.0
C456 C 0.84801 0.13006 0.7847 0.0
H457 H 0.83757 0.07831 0.82222 0.0
C458 C 0.83064 0.12865 0.76113 0.0
C459 C 0.84883 0.11283 0.80884 0.0
C460 C 0.86578 0.11446 0.83626 0.0
C461 C 0.81672 0.10856 0.75808 0.0
C462 C 0.8203 0.08965 0.77927 0.0
C463 C 0.83505 0.09269 0.80571 0.0
C464 C 0.81514 0.06547 0.76891 0.0
C465 C 0.80054 0.10642 0.72982 0.0
C466 C 0.7923 0.05661 0.76643 0.0
C467 C 0.78834 0.03487 0.75173 0.0
C468 C 0.80717 0.02212 0.73902 0.0
C469 C 0.82998 0.03063 0.74307 0.0
C470 C 0.83391 0.05196 0.75795 0.0
H471 H 0.79905 0.12305 0.7163 0.0
H472 H 0.80706 0.09263 0.71343 0.0
H473 H 0.78287 0.10118 0.738 0.0
H474 H 0.7776 0.0668 0.77482 0.0
H475 H 0.77059 0.02865 0.74885 0.0
H476 H 0.80678 0.89892 0.76145 0.0
H477 H 0.8299 0.86754 0.78626 0.0
H478 H 0.89126 0.89213 0.73685 0.0
H479 H 0.86877 0.92325 0.71267 0.0
H480 H 0.85273 0.83217 0.75607 0.0
H481 H 0.91738 0.88169 0.8248 0.0
H482 H 0.89016 0.89458 0.81184 0.0
H483 H 0.91538 0.89457 0.78597 0.0
C484 C 0.8253 0.89783 0.75639 0.0
C485 C 0.8359 0.9136 0.735 0.0
C486 C 0.83846 0.87992 0.77059 0.0
C487 C 0.86244 0.8778 0.76402 0.0
C488 C 0.87298 0.89379 0.74313 0.0
H489 H 0.95179 0.79507 0.68838 0.0
H490 H 0.91581 0.80751 0.7134 0.0
C491 C 0.85995 0.91148 0.72894 0.0
C492 C 0.87647 0.85771 0.77557 0.0
H493 H 0.93286 0.84674 0.79634 0.0
C494 C 0.86997 0.83513 0.766 0.0
C495 C 0.89858 0.86114 0.78987 0.0
C496 C 0.9056 0.88432 0.80405 0.0
C497 C 0.88633 0.81683 0.76581 0.0
C498 C 0.9098 0.82155 0.77439 0.0
C499 C 0.91511 0.8431 0.78874 0.0
C500 C 0.92956 0.80748 0.76162 0.0
C501 C 0.87866 0.79309 0.75432 0.0
C502 C 0.94948 0.80268 0.78024 0.0
C503 C 0.97045 0.79575 0.76565 0.0
C504 C 0.97175 0.79383 0.73227 0.0
C505 C 0.95131 0.79654 0.71416 0.0
C506 C 0.93052 0.80337 0.72861 0.0
H507 H 0.86107 0.78885 0.76391 0.0
H508 H 0.87721 0.79326 0.72791 0.0
H509 H 0.89107 0.77915 0.76158 0.0
H510 H 0.94926 0.80587 0.80571 0.0
H511 H 0.986 0.79387 0.78014 0.0
H512 H 0.60163 0.69285 0.7312 0.0
H513 H 0.63318 0.66876 0.70879 0.0
H514 H 0.60457 0.60814 0.75585 0.0
H515 H 0.5732 0.6316 0.77758 0.0
H516 H 0.66627 0.64538 0.74189 0.0
H517 H 0.61861 0.58139 0.66947 0.0
H518 H 0.60559 0.60878 0.68152 0.0
H519 H 0.60436 0.58357 0.70737 0.0
C520 C 0.60183 0.67428 0.73617 0.0
C521 C 0.58487 0.66418 0.75625 0.0
C522 C 0.61987 0.66057 0.72335 0.0
C523 C 0.62097 0.63654 0.73005 0.0
C524 C 0.60374 0.62647 0.74947 0.0
H525 H 0.70131 0.5444 0.80905 0.0
H526 H 0.68882 0.58082 0.78509 0.0
C527 C 0.58589 0.64004 0.76225 0.0
C528 C 0.64125 0.62203 0.72036 0.0
H529 H 0.65244 0.5656 0.69982 0.0
C530 C 0.6635 0.62821 0.73162 0.0
C531 C 0.63808 0.59997 0.70578 0.0
C532 C 0.61538 0.59322 0.69002 0.0
C533 C 0.68161 0.61167 0.73289 0.0
C534 C 0.67702 0.58834 0.72354 0.0
C535 C 0.65592 0.58327 0.70789 0.0
C536 C 0.69079 0.56839 0.73629 0.0
C537 C 0.70495 0.619 0.74618 0.0
C538 C 0.69662 0.54913 0.71698 0.0
C539 C 0.70362 0.52795 0.73089 0.0
C540 C 0.70454 0.52574 0.76428 0.0
C541 C 0.70062 0.54556 0.78325 0.0
C542 C 0.69376 0.56659 0.76945 0.0
H543 H 0.7095 0.63685 0.7378 0.0
H544 H 0.70393 0.61966 0.77261 0.0
H545 H 0.7191 0.60678 0.7391 0.0
H546 H 0.6943 0.55001 0.69136 0.0
H547 H 0.70646 0.5129 0.71571 0.0
H548 H 0.49099 0.70129 0.71107 0.0
H549 H 0.45526 0.6874 0.68463 0.0
H550 H 0.41907 0.68949 0.77499 0.0
H551 H 0.45411 0.70372 0.8008 0.0
H552 H 0.43929 0.64663 0.69707 0.0
H553 H 0.36574 0.70491 0.71964 0.0
H554 H 0.39552 0.71512 0.72285 0.0
H555 H 0.3808 0.7024 0.75685 0.0
C556 C 0.47503 0.69984 0.72481 0.0
C557 C 0.47529 0.70335 0.75799 0.0
C558 C 0.45465 0.69181 0.70975 0.0
C559 C 0.43428 0.68749 0.72766 0.0
C560 C 0.43416 0.69319 0.76026 0.0
H561 H 0.37102 0.57156 0.77874 0.0
H562 H 0.39502 0.60169 0.75496 0.0
C563 C 0.45438 0.7011 0.77519 0.0
C564 C 0.41516 0.67247 0.7151 0.0
H565 H 0.35754 0.66202 0.73001 0.0
C566 C 0.42124 0.65037 0.70307 0.0
C567 C 0.39137 0.67726 0.72164 0.0
C568 C 0.38306 0.70137 0.73059 0.0
C569 C 0.40491 0.63212 0.70212 0.0
C570 C 0.38219 0.63592 0.71435 0.0
C571 C 0.3752 0.65881 0.7217 0.0
C572 C 0.36747 0.61619 0.72556 0.0
C573 C 0.41267 0.60853 0.69011 0.0
C574 C 0.34368 0.61449 0.71762 0.0
C575 C 0.32963 0.59724 0.7317 0.0
C576 C 0.33911 0.58161 0.75422 0.0
C577 C 0.36304 0.58317 0.7615 0.0
C578 C 0.37694 0.6003 0.74754 0.0
H579 H 0.42514 0.61053 0.66998 0.0
H580 H 0.42195 0.59913 0.7095 0.0
H581 H 0.39765 0.59775 0.68205 0.0
H582 H 0.33592 0.62676 0.70106 0.0
H583 H 0.31124 0.5966 0.72564 0.0
H584 H 0.30066 0.48914 0.7142 0.0
H585 H 0.31139 0.45178 0.68911 0.0
H586 H 0.30074 0.41668 0.7791 0.0
H587 H 0.29021 0.45359 0.80383 0.0
H588 H 0.35014 0.43027 0.70936 0.0
H589 H 0.27899 0.36661 0.71914 0.0
H590 H 0.27368 0.39776 0.72013 0.0
H591 H 0.28093 0.38206 0.75618 0.0
C592 C 0.29962 0.47321 0.72809 0.0
C593 C 0.2947 0.47413 0.76092 0.0
C594 C 0.3058 0.45192 0.7138 0.0
C595 C 0.30663 0.43131 0.73207 0.0
C596 C 0.29968 0.43211 0.76418 0.0
H597 H 0.38516 0.33918 0.8109 0.0
H598 H 0.35536 0.36306 0.78533 0.0
C599 C 0.29384 0.45328 0.77846 0.0
C600 C 0.31933 0.41028 0.72068 0.0
H601 H 0.31883 0.3514 0.73311 0.0
C602 C 0.34307 0.41289 0.71299 0.0
C603 C 0.31015 0.38755 0.72496 0.0
C604 C 0.28444 0.38339 0.7302 0.0
C605 C 0.35842 0.39379 0.71421 0.0
C606 C 0.3497 0.37165 0.72321 0.0
C607 C 0.32553 0.36849 0.72662 0.0
C608 C 0.36551 0.35397 0.7372 0.0
C609 C 0.38425 0.39789 0.70968 0.0
C610 C 0.38072 0.34045 0.7185 0.0
C611 C 0.39781 0.32652 0.73319 0.0
C612 C 0.40004 0.32636 0.76664 0.0
C613 C 0.38404 0.33914 0.78509 0.0
C614 C 0.3669 0.35268 0.77052 0.0
H615 H 0.3881 0.41592 0.7014 0.0
H616 H 0.39353 0.39487 0.73258 0.0
H617 H 0.39129 0.38534 0.69194 0.0
H618 H 0.3799 0.34131 0.69271 0.0
H619 H 0.40997 0.31686 0.71843 0.0
H620 H 0.63088 0.43424 0.7632 0.0
H621 H 0.60593 0.40349 0.74219 0.0
H622 H 0.66656 0.36537 0.71022 0.0
H623 H 0.69196 0.39637 0.73155 0.0
H624 H 0.6014 0.3808 0.67982 0.0
H625 H 0.6334 0.32182 0.77652 0.0
H626 H 0.63907 0.3528 0.77836 0.0
H627 H 0.65375 0.33515 0.74924 0.0
C628 C 0.63898 0.41954 0.75125 0.0
C629 C 0.66339 0.41758 0.7494 0.0
C630 C 0.62467 0.40202 0.73907 0.0
C631 C 0.63441 0.38207 0.72495 0.0
C632 C 0.65874 0.38059 0.72125 0.0
H633 H 0.52277 0.27821 0.74806 0.0
H634 H 0.5597 0.28998 0.72217 0.0
C635 C 0.67318 0.39834 0.73329 0.0
C636 C 0.61865 0.36225 0.71781 0.0
H637 H 0.5957 0.31525 0.75682 0.0
C638 C 0.60059 0.36587 0.69573 0.0
C639 C 0.61777 0.34259 0.73826 0.0
C640 C 0.63696 0.33767 0.76201 0.0
C641 C 0.58035 0.35208 0.69637 0.0
C642 C 0.5781 0.33456 0.71993 0.0
C643 C 0.59743 0.32886 0.73895 0.0
C644 C 0.55477 0.32691 0.73098 0.0
C645 C 0.56061 0.3578 0.67389 0.0
C646 C 0.53999 0.34373 0.7445 0.0
C647 C 0.51942 0.3371 0.7596 0.0
C648 C 0.51301 0.31347 0.76141 0.0
C649 C 0.52729 0.29656 0.7468 0.0
C650 C 0.54829 0.30324 0.73204 0.0
H651 H 0.5674 0.3648 0.65096 0.0
H652 H 0.54969 0.34216 0.66898 0.0
H653 H 0.54939 0.37144 0.6848 0.0
H654 H 0.54489 0.36202 0.74463 0.0
H655 H 0.50871 0.35053 0.77049 0.0
H656 H 0.70452 0.48787 0.28011 0.0
H657 H 0.6912 0.45277 0.30866 0.0
H658 H 0.68692 0.41578 0.21906 0.0
H659 H 0.70058 0.45015 0.19109 0.0
H660 H 0.64947 0.43713 0.30139 0.0
H661 H 0.7054 0.36279 0.27341 0.0
H662 H 0.71572 0.39244 0.26876 0.0
H663 H 0.70092 0.37766 0.23641 0.0
C664 C 0.7017 0.47187 0.26685 0.0
C665 C 0.70331 0.47174 0.23339 0.0
C666 C 0.69403 0.45185 0.28313 0.0
C667 C 0.68821 0.43143 0.26616 0.0
C668 C 0.69184 0.43092 0.23303 0.0
H669 H 0.57072 0.37067 0.22471 0.0
H670 H 0.60125 0.39419 0.24845 0.0
C671 C 0.69938 0.45077 0.21689 0.0
C672 C 0.67386 0.41261 0.28081 0.0
H673 H 0.66194 0.3551 0.26748 0.0
C674 C 0.65263 0.41901 0.29517 0.0
C675 C 0.67801 0.38873 0.27409 0.0
C676 C 0.70143 0.38009 0.26267 0.0
C677 C 0.63428 0.40292 0.29813 0.0
C678 C 0.63707 0.38014 0.28558 0.0
C679 C 0.65941 0.3728 0.27607 0.0
C680 C 0.61661 0.36591 0.2757 0.0
C681 C 0.61153 0.41101 0.3125 0.0
C682 C 0.61506 0.34194 0.28267 0.0
C683 C 0.59756 0.32819 0.26862 0.0
C684 C 0.58157 0.33818 0.24702 0.0
C685 C 0.58272 0.36233 0.24114 0.0
C686 C 0.60007 0.37594 0.25512 0.0
H687 H 0.61484 0.42315 0.33269 0.0
H688 H 0.6014 0.42078 0.29429 0.0
H689 H 0.60084 0.39612 0.3212 0.0
H690 H 0.62781 0.33374 0.29815 0.0
H691 H 0.59722 0.30961 0.27353 0.0
H692 H 0.54762 0.69919 0.18593 0.0
H693 H 0.58299 0.68487 0.21089 0.0
H694 H 0.55116 0.69197 0.30375 0.0
H695 H 0.51488 0.70562 0.27834 0.0
H696 H 0.61538 0.69547 0.25496 0.0
H697 H 0.55936 0.62244 0.29922 0.0
H698 H 0.54763 0.64443 0.27303 0.0
H699 H 0.55404 0.65141 0.31394 0.0
C700 C 0.54825 0.69822 0.21174 0.0
C701 C 0.5283 0.70289 0.23013 0.0
C702 C 0.56862 0.69016 0.22608 0.0
C703 C 0.56957 0.68663 0.25918 0.0
C704 C 0.5506 0.69392 0.27808 0.0
H705 H 0.69305 0.59364 0.2648 0.0
H706 H 0.66928 0.62488 0.28859 0.0
C707 C 0.52997 0.70195 0.26358 0.0
C708 C 0.58885 0.67187 0.27182 0.0
H709 H 0.59845 0.61454 0.28999 0.0
C710 C 0.61189 0.67798 0.26373 0.0
C711 C 0.58431 0.6491 0.28363 0.0
C712 C 0.56004 0.64128 0.29293 0.0
C713 C 0.62973 0.66111 0.26272 0.0
C714 C 0.62441 0.63774 0.27088 0.0
C715 C 0.6023 0.63246 0.28339 0.0
C716 C 0.63891 0.61801 0.25931 0.0
C717 C 0.65333 0.66785 0.24959 0.0
C718 C 0.62955 0.60346 0.23562 0.0
C719 C 0.64286 0.58565 0.22225 0.0
C720 C 0.66603 0.58189 0.23213 0.0
C721 C 0.67531 0.59611 0.25651 0.0
C722 C 0.66181 0.61404 0.27005 0.0
H723 H 0.65415 0.68656 0.24263 0.0
H724 H 0.66695 0.66457 0.26788 0.0
H725 H 0.65754 0.65701 0.22838 0.0
H726 H 0.61195 0.60625 0.22684 0.0
H727 H 0.635 0.57509 0.20369 0.0
H728 H 0.43544 0.63203 0.22736 0.0
H729 H 0.40461 0.60782 0.24985 0.0
H730 H 0.36687 0.66949 0.27872 0.0
H731 H 0.398 0.69415 0.25611 0.0
H732 H 0.38188 0.60693 0.31479 0.0
H733 H 0.32363 0.63239 0.2138 0.0
H734 H 0.35472 0.63718 0.21105 0.0
H735 H 0.33756 0.65435 0.23806 0.0
C736 C 0.42077 0.64053 0.23886 0.0
C737 C 0.41902 0.665 0.23962 0.0
C738 C 0.40323 0.62665 0.25189 0.0
C739 C 0.38344 0.63688 0.26575 0.0
C740 C 0.38202 0.66131 0.26802 0.0
H741 H 0.2779 0.52758 0.24909 0.0
H742 H 0.29039 0.56498 0.27281 0.0
C743 C 0.39982 0.67532 0.2552 0.0
C744 C 0.36371 0.62144 0.2744 0.0
H745 H 0.31685 0.59612 0.23804 0.0
C746 C 0.3671 0.60501 0.29881 0.0
C747 C 0.34423 0.61918 0.25388 0.0
C748 C 0.33962 0.63665 0.22766 0.0
C749 C 0.35307 0.58497 0.30088 0.0
C750 C 0.33568 0.58109 0.2775 0.0
C751 C 0.33035 0.59898 0.25577 0.0
C752 C 0.32733 0.55719 0.26997 0.0
C753 C 0.35818 0.56724 0.32654 0.0
C754 C 0.3439 0.54039 0.2609 0.0
C755 C 0.33688 0.51944 0.24706 0.0
C756 C 0.31311 0.5147 0.24211 0.0
C757 C 0.29634 0.53079 0.25294 0.0
C758 C 0.30344 0.5521 0.26643 0.0
H759 H 0.36404 0.57603 0.34879 0.0
H760 H 0.34261 0.55634 0.33193 0.0
H761 H 0.37255 0.55565 0.3185 0.0
H762 H 0.36242 0.5441 0.26255 0.0
H763 H 0.35015 0.50732 0.23895 0.0
H764 H 0.33047 0.38563 0.18133 0.0
H765 H 0.35364 0.35384 0.20335 0.0
H766 H 0.33989 0.37875 0.29866 0.0
H767 H 0.31612 0.41076 0.27647 0.0
H768 H 0.38764 0.37518 0.28235 0.0
H769 H 0.3427 0.29294 0.25285 0.0
H770 H 0.34175 0.31276 0.21972 0.0
H771 H 0.32742 0.32048 0.25654 0.0
C772 C 0.33186 0.38401 0.20702 0.0
C773 C 0.32163 0.40068 0.22721 0.0
C774 C 0.34491 0.36568 0.21962 0.0
C775 C 0.3482 0.36369 0.25268 0.0
C776 C 0.33724 0.37978 0.27311 0.0
H777 H 0.48432 0.29476 0.27696 0.0
H778 H 0.44583 0.30477 0.2994 0.0
C779 C 0.32372 0.39801 0.26044 0.0
C780 C 0.36623 0.34723 0.26442 0.0
H781 H 0.3857 0.29216 0.24868 0.0
C782 C 0.38704 0.35675 0.27636 0.0
C783 C 0.3653 0.32319 0.25692 0.0
C784 C 0.34296 0.31171 0.24612 0.0
C785 C 0.4078 0.34367 0.27664 0.0
C786 C 0.40747 0.3204 0.26513 0.0
C787 C 0.38599 0.31005 0.25722 0.0
C788 C 0.42917 0.30917 0.25341 0.0
C789 C 0.43032 0.35568 0.2857 0.0
C790 C 0.43214 0.30705 0.22033 0.0
C791 C 0.45386 0.3014 0.20761 0.0
C792 C 0.47311 0.29759 0.2277 0.0
C793 C 0.46975 0.29766 0.26095 0.0
C794 C 0.44785 0.30351 0.27377 0.0
H795 H 0.42762 0.37425 0.29246 0.0
H796 H 0.43839 0.3465 0.30625 0.0
H797 H 0.44285 0.35502 0.26549 0.0
H798 H 0.41798 0.3113 0.20415 0.0
H799 H 0.45587 0.30119 0.1819 0.0
H800 H 0.09383 0.27989 0.32327 0.0
H801 H 0.11944 0.31324 0.31539 0.0
H802 H 0.10266 0.31372 0.21502 0.0
H803 H 0.07618 0.28038 0.22298 0.0
H804 H 0.1579 0.31414 0.27939 0.0
H805 H 0.09597 0.3823 0.23799 0.0
H806 H 0.08634 0.35528 0.25593 0.0
H807 H 0.09519 0.35596 0.21476 0.0
C808 C 0.0954 0.28714 0.29948 0.0
C809 C 0.08307 0.27745 0.27365 0.0
C810 C 0.11003 0.30627 0.29507 0.0
C811 C 0.11281 0.31612 0.26473 0.0
C812 C 0.10038 0.30668 0.2388 0.0
H813 H 0.21326 0.40796 0.18341 0.0
H814 H 0.18101 0.38171 0.19578 0.0
C815 C 0.08542 0.28756 0.24329 0.0
C816 C 0.12999 0.3352 0.26033 0.0
H817 H 0.13659 0.3913 0.23403 0.0
C818 C 0.15317 0.33109 0.26978 0.0
C819 C 0.12375 0.35732 0.24789 0.0
C820 C 0.09892 0.36312 0.23883 0.0
C821 C 0.1704 0.3483 0.26648 0.0
C822 C 0.16425 0.3702 0.2535 0.0
C823 C 0.14109 0.37447 0.24424 0.0
C824 C 0.18223 0.38795 0.2466 0.0
C825 C 0.19523 0.34277 0.27592 0.0
C826 C 0.19329 0.40042 0.2712 0.0
C827 C 0.21179 0.41562 0.26421 0.0
C828 C 0.21951 0.41822 0.23259 0.0
C829 C 0.20788 0.40614 0.20807 0.0
C830 C 0.18935 0.39124 0.21501 0.0
H831 H 0.19754 0.32411 0.28252 0.0
H832 H 0.20734 0.34698 0.25603 0.0
H833 H 0.20028 0.35371 0.29667 0.0
H834 H 0.18789 0.39804 0.29576 0.0
H835 H 0.22042 0.42477 0.28351 0.0
H836 H 0.70623 0.06648 0.22731 0.0
H837 H 0.67315 0.0936 0.22212 0.0
H838 H 0.71 0.14433 0.2793 0.0
H839 H 0.74258 0.1173 0.28517 0.0
H840 H 0.66534 0.13636 0.30067 0.0
H841 H 0.66641 0.15333 0.16987 0.0
H842 H 0.66468 0.1232 0.18173 0.0
H843 H 0.6906 0.13973 0.19028 0.0
C844 C 0.70738 0.08362 0.23817 0.0
C845 C 0.7269 0.08983 0.25665 0.0
C846 C 0.6885 0.09905 0.23526 0.0
C847 C 0.68915 0.12096 0.25037 0.0
C848 C 0.70907 0.12744 0.26768 0.0
H849 H 0.61866 0.24837 0.22157 0.0
H850 H 0.64488 0.21518 0.22826 0.0
C851 C 0.72772 0.11203 0.27086 0.0
C852 C 0.66897 0.13712 0.24952 0.0
H853 H 0.63778 0.17269 0.20013 0.0
C854 C 0.65914 0.1442 0.27868 0.0
C855 C 0.66095 0.14721 0.22078 0.0
C856 C 0.67126 0.14067 0.18886 0.0
C857 C 0.64224 0.16193 0.28004 0.0
C858 C 0.63469 0.17247 0.25137 0.0
C859 C 0.64371 0.16459 0.22209 0.0
C860 C 0.61911 0.19311 0.25107 0.0
C861 C 0.63352 0.17 0.31218 0.0
C862 C 0.59612 0.19199 0.26273 0.0
C863 C 0.58115 0.21122 0.25945 0.0
C864 C 0.58895 0.23154 0.24396 0.0
C865 C 0.61221 0.23288 0.23354 0.0
C866 C 0.62716 0.21389 0.23718 0.0
H867 H 0.64459 0.16341 0.33201 0.0
H868 H 0.63301 0.18937 0.31338 0.0
H869 H 0.6155 0.1634 0.31591 0.0
H870 H 0.58946 0.17601 0.27313 0.0
H871 H 0.56318 0.20969 0.26726 0.0
H872 H 0.76903 0.60362 0.18029 0.0
H873 H 0.80145 0.63042 0.18764 0.0
H874 H 0.81454 0.60132 0.28092 0.0
H875 H 0.78218 0.57363 0.27329 0.0
H876 H 0.80696 0.66383 0.23136 0.0
H877 H 0.87915 0.59938 0.24084 0.0
H878 H 0.85023 0.59144 0.22748 0.0
H879 H 0.8561 0.59513 0.26933 0.0
C880 C 0.77874 0.60283 0.20246 0.0
C881 C 0.77306 0.58646 0.22625 0.0
C882 C 0.79733 0.61818 0.20655 0.0
C883 C 0.81065 0.61763 0.23456 0.0
C884 C 0.80481 0.60164 0.25877 0.0
H885 H 0.90489 0.7166 0.31282 0.0
H886 H 0.87806 0.68471 0.30111 0.0
C887 C 0.7862 0.58603 0.25456 0.0
C888 C 0.83002 0.63452 0.23841 0.0
H889 H 0.8888 0.6392 0.25119 0.0
C890 C 0.82487 0.65841 0.23543 0.0
C891 C 0.85341 0.62738 0.24344 0.0
C892 C 0.86017 0.60193 0.24517 0.0
C893 C 0.8424 0.67536 0.23797 0.0
C894 C 0.86559 0.66825 0.24375 0.0
C895 C 0.87092 0.64444 0.24648 0.0
C896 C 0.88392 0.68565 0.25021 0.0
C897 C 0.83605 0.70087 0.23521 0.0
C898 C 0.8963 0.69641 0.22529 0.0
C899 C 0.91182 0.71473 0.23189 0.0
C900 C 0.91477 0.72254 0.26341 0.0
C901 C 0.90278 0.71115 0.28823 0.0
C902 C 0.88757 0.69283 0.28168 0.0
H903 H 0.81722 0.70351 0.2299 0.0
H904 H 0.84032 0.70999 0.25787 0.0
H905 H 0.84655 0.70915 0.21601 0.0
H906 H 0.89348 0.69104 0.20081 0.0
H907 H 0.92088 0.72321 0.21238 0.0
H908 H 0.26566 0.89009 0.31214 0.0
H909 H 0.29813 0.86345 0.30487 0.0
H910 H 0.3151 0.89667 0.21541 0.0
H911 H 0.28252 0.9242 0.22298 0.0
H912 H 0.3032 0.83237 0.25716 0.0
H913 H 0.37864 0.89347 0.26068 0.0
H914 H 0.34972 0.90178 0.27361 0.0
H915 H 0.35651 0.90051 0.23181 0.0
C916 C 0.27625 0.89188 0.29086 0.0
C917 C 0.27145 0.90922 0.26801 0.0
C918 C 0.29489 0.87663 0.28684 0.0
C919 C 0.30918 0.87823 0.25983 0.0
C920 C 0.30452 0.89546 0.23676 0.0
H921 H 0.39333 0.76686 0.18833 0.0
H922 H 0.36537 0.79783 0.19846 0.0
C923 C 0.28581 0.91099 0.24092 0.0
C924 C 0.32792 0.86073 0.25547 0.0
H925 H 0.38696 0.85374 0.24843 0.0
C926 C 0.32152 0.83707 0.25533 0.0
C927 C 0.35181 0.86691 0.25363 0.0
C928 C 0.3597 0.89203 0.25521 0.0
C929 C 0.33829 0.81939 0.25308 0.0
C930 C 0.3621 0.82554 0.2501 0.0
C931 C 0.36865 0.84916 0.25069 0.0
C932 C 0.38005 0.80756 0.24409 0.0
C933 C 0.33038 0.79423 0.25405 0.0
C934 C 0.39797 0.80314 0.26619 0.0
C935 C 0.41425 0.78532 0.26041 0.0
C936 C 0.41273 0.77186 0.23244 0.0
C937 C 0.39489 0.77669 0.21032 0.0
C938 C 0.37884 0.79441 0.21601 0.0
H939 H 0.31294 0.79244 0.26543 0.0
H940 H 0.32903 0.78746 0.22931 0.0
H941 H 0.34305 0.78318 0.26727 0.0
H942 H 0.39916 0.81325 0.28797 0.0
H943 H 0.42793 0.78211 0.27771 0.0
H944 H 0.21916 0.57694 0.7213 0.0
H945 H 0.18806 0.60608 0.7136 0.0
H946 H 0.21003 0.64167 0.7992 0.0
H947 H 0.2411 0.61328 0.80666 0.0
H948 H 0.15096 0.61814 0.75551 0.0
H949 H 0.20926 0.69369 0.73279 0.0
H950 H 0.21941 0.66386 0.73114 0.0
H951 H 0.21612 0.67837 0.76896 0.0
C952 C 0.21749 0.59117 0.73818 0.0
C953 C 0.23271 0.59294 0.76439 0.0
C954 C 0.19968 0.60768 0.73389 0.0
C955 C 0.19699 0.62615 0.75566 0.0
C956 C 0.2121 0.62782 0.78181 0.0
H957 H 0.0762 0.71957 0.7785 0.0
H958 H 0.1059 0.68921 0.78776 0.0
C959 C 0.22984 0.6115 0.78603 0.0
C960 C 0.17834 0.64377 0.75153 0.0
H961 H 0.16945 0.70237 0.74362 0.0
C962 C 0.15492 0.63656 0.75267 0.0
C963 C 0.18365 0.66773 0.74779 0.0
C964 C 0.20847 0.67639 0.74478 0.0
C965 C 0.13659 0.6528 0.7504 0.0
C966 C 0.14195 0.67684 0.74751 0.0
C967 C 0.16539 0.68395 0.74626 0.0
C968 C 0.12372 0.69486 0.74281 0.0
C969 C 0.11172 0.64407 0.75036 0.0
C970 C 0.12431 0.70842 0.71501 0.0
C971 C 0.1078 0.72584 0.71001 0.0
C972 C 0.09017 0.7301 0.73263 0.0
C973 C 0.08958 0.71665 0.76067 0.0
C974 C 0.10637 0.69919 0.76582 0.0
H975 H 0.11075 0.62499 0.74568 0.0
H976 H 0.10375 0.64747 0.77404 0.0
H977 H 0.10117 0.65334 0.73208 0.0
H978 H 0.13754 0.70542 0.69698 0.0
H979 H 0.10877 0.73579 0.68806 0.0
H980 H 0.38597 0.23182 0.7957 0.0
H981 H 0.36405 0.19591 0.78806 0.0
H982 H 0.41613 0.17119 0.72179 0.0
H983 H 0.43835 0.20773 0.72914 0.0
H984 H 0.37026 0.163 0.70193 0.0
H985 H 0.38183 0.13258 0.82568 0.0
H986 H 0.37181 0.16226 0.82524 0.0
H987 H 0.39986 0.15515 0.80826 0.0
C988 C 0.39278 0.21883 0.77936 0.0
C989 C 0.41398 0.22242 0.76325 0.0
C990 C 0.38034 0.19821 0.77527 0.0
C991 C 0.38892 0.18057 0.7553 0.0
C992 C 0.4095 0.18448 0.73781 0.0
H993 H 0.29567 0.05736 0.76368 0.0
H994 H 0.33247 0.07949 0.76766 0.0
C995 C 0.42203 0.20535 0.7418 0.0
C996 C 0.37549 0.15862 0.75246 0.0
H997 H 0.34605 0.11958 0.79906 0.0
C998 C 0.36543 0.15306 0.72296 0.0
C999 C 0.36972 0.14519 0.77972 0.0
C1000 C 0.38162 0.14895 0.81142 0.0
C1001 C 0.34789 0.13604 0.72074 0.0
C1002 C 0.33992 0.12487 0.74887 0.0
C1003 C 0.35174 0.12862 0.77768 0.0
C1004 C 0.31773 0.11165 0.74937 0.0
C1005 C 0.33738 0.13091 0.68847 0.0
C1006 C 0.29713 0.12281 0.73964 0.0
C1007 C 0.27635 0.11034 0.73737 0.0
C1008 C 0.27564 0.08656 0.74539 0.0
C1009 C 0.2958 0.07575 0.75756 0.0
C1010 C 0.3168 0.08826 0.75952 0.0
H1011 H 0.35032 0.13386 0.66912 0.0
H1012 H 0.33094 0.11264 0.68698 0.0
H1013 H 0.32247 0.14291 0.68425 0.0
H1014 H 0.29728 0.14109 0.73287 0.0
H1015 H 0.26098 0.11912 0.72819 0.0
H1016 H 0.93455 0.29896 0.7058 0.0
H1017 H 0.90829 0.3325 0.71151 0.0
H1018 H 0.87073 0.29603 0.78569 0.0
H1019 H 0.89763 0.26283 0.78065 0.0
H1020 H 0.86301 0.32962 0.69824 0.0
H1021 H 0.87315 0.36098 0.82233 0.0
H1022 H 0.89417 0.34185 0.80364 0.0
H1023 H 0.86776 0.33015 0.82069 0.0
C1024 C 0.92117 0.29859 0.72409 0.0
C1025 C 0.91814 0.27871 0.74318 0.0
C1026 C 0.90615 0.31762 0.72723 0.0
C1027 C 0.88768 0.31688 0.74921 0.0
C1028 C 0.88522 0.29727 0.76917 0.0
H1029 H 0.75751 0.382 0.78388 0.0
H1030 H 0.79155 0.35688 0.77742 0.0
C1031 C 0.9005 0.27831 0.7663 0.0
C1032 C 0.86939 0.33516 0.74839 0.0
H1033 H 0.83764 0.37194 0.79544 0.0
C1034 C 0.85771 0.33918 0.71938 0.0
C1035 C 0.86255 0.34763 0.77595 0.0
C1036 C 0.87524 0.34512 0.80731 0.0
C1037 C 0.83865 0.3545 0.71755 0.0
C1038 C 0.83121 0.36616 0.74541 0.0
C1039 C 0.84337 0.36281 0.77415 0.0
C1040 C 0.80985 0.38061 0.746 0.0
C1041 C 0.82596 0.35735 0.68624 0.0
C1042 C 0.80864 0.40199 0.72962 0.0
C1043 C 0.78902 0.4164 0.73308 0.0
C1044 C 0.77059 0.40962 0.75321 0.0
C1045 C 0.7715 0.38773 0.76833 0.0
C1046 C 0.79096 0.37339 0.76478 0.0
H1047 H 0.83168 0.34433 0.6682 0.0
H1048 H 0.80681 0.35562 0.68977 0.0
H1049 H 0.8294 0.37508 0.6766 0.0
H1050 H 0.82319 0.40791 0.71522 0.0
H1051 H 0.78883 0.43328 0.72139 0.0
H1052 H 0.71827 0.92809 0.77317 0.0
H1053 H 0.68729 0.89917 0.78344 0.0
H1054 H 0.7065 0.86225 0.69769 0.0
H1055 H 0.73725 0.89054 0.68746 0.0
H1056 H 0.6486 0.88531 0.74097 0.0
H1057 H 0.709 0.81243 0.76944 0.0
H1058 H 0.71797 0.84267 0.77022 0.0
H1059 H 0.7158 0.82735 0.73289 0.0
C1060 C 0.71593 0.9137 0.7567 0.0
C1061 C 0.73029 0.9115 0.72966 0.0
C1062 C 0.69821 0.89732 0.76249 0.0
C1063 C 0.69485 0.87852 0.74143 0.0
C1064 C 0.70905 0.87646 0.71441 0.0
H1065 H 0.57868 0.78098 0.71729 0.0
H1066 H 0.6073 0.8126 0.70985 0.0
C1067 C 0.72661 0.89271 0.70862 0.0
C1068 C 0.67667 0.86072 0.74731 0.0
H1069 H 0.66952 0.80219 0.75869 0.0
C1070 C 0.65307 0.86715 0.74517 0.0
C1071 C 0.68266 0.83713 0.75287 0.0
C1072 C 0.70773 0.82945 0.75679 0.0
C1073 C 0.63522 0.85039 0.74785 0.0
C1074 C 0.64129 0.82664 0.75221 0.0
C1075 C 0.66491 0.82037 0.7549 0.0
C1076 C 0.62356 0.80801 0.75611 0.0
C1077 C 0.6101 0.85828 0.74646 0.0
C1078 C 0.62366 0.79464 0.78408 0.0
C1079 C 0.60778 0.77649 0.78807 0.0
C1080 C 0.5913 0.77129 0.76422 0.0
C1081 C 0.59118 0.7846 0.73605 0.0
C1082 C 0.60733 0.80279 0.73194 0.0
H1083 H 0.60842 0.87736 0.75075 0.0
H1084 H 0.60293 0.85444 0.72243 0.0
H1085 H 0.59934 0.84883 0.76433 0.0
H1086 H 0.63605 0.79831 0.80298 0.0
H1087 H 0.60833 0.76668 0.81017 0.0
H1088 H 0.022 0.19427 0.38216 0.0
H1089 H 0.01084 0.19855 0.43809 0.0
H1090 H 0.99452 0.27118 0.42194 0.0
H1091 H 0.00522 0.26688 0.3656 0.0
H1092 H 0.03356 0.22893 0.47965 0.0
H1093 H 0.93831 0.24814 0.47361 0.0
H1094 H 0.95417 0.23584 0.44036 0.0
H1095 H 0.95695 0.26634 0.44965 0.0
C1096 C 0.01557 0.21103 0.39036 0.0
C1097 C 0.01451 0.23025 0.36962 0.0
C1098 C 0.00929 0.21347 0.42231 0.0
C1099 C 0.00188 0.23517 0.43411 0.0
C1100 C -0.00011 0.25421 0.41319 0.0
H1101 H 0.99284 0.26441 0.64041 0.0
H1102 H 0.00286 0.26849 0.58364 0.0
C1103 C 0.006 0.25172 0.38104 0.0
C1104 C 0.9979 0.23795 0.46876 0.0
H1105 H 0.95571 0.24788 0.52467 0.0
C1106 C 0.01659 0.23328 0.48952 0.0
C1107 C 0.97576 0.24374 0.48144 0.0
C1108 C 0.95505 0.24866 0.46021 0.0
C1109 C 0.01355 0.2335 0.52269 0.0
C1110 C 0.9913 0.23862 0.53529 0.0
C1111 C 0.97277 0.24404 0.51468 0.0
C1112 C 0.98636 0.23608 0.56962 0.0
C1113 C 0.03379 0.22732 0.54413 0.0
C1114 C 0.97413 0.21638 0.58025 0.0
C1115 C 0.96855 0.21393 0.61243 0.0
C1116 C 0.97499 0.23124 0.63452 0.0
C1117 C 0.98774 0.25076 0.62392 0.0
C1118 C 0.99339 0.25317 0.59159 0.0
H1119 H 0.0498 0.22285 0.53043 0.0
H1120 H 0.03776 0.24227 0.56009 0.0
H1121 H 0.02903 0.21222 0.55946 0.0
H1122 H 0.9687 0.203 0.56353 0.0
H1123 H 0.95873 0.19869 0.61986 0.0
H1124 H 0.80276 0.97758 0.61318 0.0
H1125 H 0.79637 0.98746 0.5572 0.0
H1126 H 0.72305 0.99811 0.576 0.0
H1127 H 0.72943 0.98872 0.63239 0.0
H1128 H 0.76732 0.96202 0.51726 0.0
H1129 H 0.74012 0.05536 0.52243 0.0
H1130 H 0.75434 0.04095 0.55546 0.0
H1131 H 0.72402 0.03551 0.54736 0.0
C1132 C 0.78536 0.98247 0.60554 0.0
C1133 C 0.76658 0.98235 0.62708 0.0
C1134 C 0.78172 0.98803 0.57355 0.0
C1135 C 0.75926 0.99353 0.56249 0.0
C1136 C 0.74057 0.99425 0.58415 0.0
H1137 H 0.72404 0.01817 0.36034 0.0
H1138 H 0.71926 0.00682 0.41653 0.0
C1139 C 0.74425 0.98885 0.61632 0.0
C1140 C 0.75546 0.99691 0.52791 0.0
H1141 H 0.74124 0.03763 0.47166 0.0
C1142 C 0.76143 0.97849 0.50731 0.0
C1143 C 0.74752 0.01833 0.51506 0.0
C1144 C 0.74126 0.03877 0.53612 0.0
C1145 C 0.76056 0.98125 0.47413 0.0
C1146 C 0.7536 0.00294 0.46135 0.0
C1147 C 0.74652 0.021 0.48178 0.0
C1148 C 0.75621 0.00806 0.4271 0.0
C1149 C 0.7677 0.96124 0.45285 0.0
C1150 C 0.77856 0.01224 0.41473 0.0
C1151 C 0.78132 0.01888 0.38296 0.0
C1152 C 0.76176 0.02128 0.36302 0.0
C1153 C 0.73941 0.01633 0.3752 0.0
C1154 C 0.73663 0.00996 0.4072 0.0
H1155 H 0.76826 0.94439 0.466 0.0
H1156 H 0.75543 0.95956 0.43244 0.0
H1157 H 0.78535 0.96476 0.443 0.0
H1158 H 0.79382 0.01093 0.42992 0.0
H1159 H 0.79874 0.02254 0.3742 0.0
H1160 H 0.02816 0.7991 0.61372 0.0
H1161 H 0.01923 0.79271 0.55749 0.0
H1162 H 0.00303 0.72054 0.57708 0.0
H1163 H 0.01199 0.72677 0.6338 0.0
H1164 H 0.04326 0.75593 0.51816 0.0
H1165 H 0.94614 0.74896 0.52413 0.0
H1166 H 0.96266 0.76371 0.55483 0.0
H1167 H 0.96366 0.73249 0.55191 0.0
C1168 C 0.02245 0.78191 0.60621 0.0
C1169 C 0.02083 0.7634 0.6281 0.0
C1170 C 0.01746 0.77829 0.57408 0.0
C1171 C 0.01063 0.75616 0.56329 0.0
C1172 C 0.00825 0.73775 0.58513 0.0
H1173 H 0.99668 0.73161 0.35596 0.0
H1174 H 0.00818 0.72491 0.4117 0.0
C1175 C 0.0133 0.74136 0.61743 0.0
C1176 C 0.00663 0.75264 0.5289 0.0
H1177 H 0.9633 0.75028 0.47324 0.0
C1178 C 0.02585 0.75424 0.50821 0.0
C1179 C 0.98387 0.75047 0.51631 0.0
C1180 C 0.96278 0.74886 0.53777 0.0
C1181 C 0.02276 0.75481 0.47503 0.0
C1182 C -9e-05 0.75378 0.46251 0.0
C1183 C 0.98079 0.75106 0.48314 0.0
C1184 C 0.99517 0.75819 0.42848 0.0
C1185 C 0.04372 0.75781 0.4536 0.0
C1186 C 0.98455 0.77927 0.41966 0.0
C1187 C 0.97807 0.78316 0.38808 0.0
C1188 C 0.98198 0.76596 0.36481 0.0
C1189 C 0.99353 0.7452 0.37342 0.0
C1190 C 5e-05 0.74132 0.40517 0.0
H1191 H 0.0602 0.7598 0.46732 0.0
H1192 H 0.04537 0.74236 0.43777 0.0
H1193 H 0.04135 0.7734 0.43816 0.0
H1194 H 0.98079 0.79251 0.43742 0.0
H1195 H 0.96927 0.79934 0.38215 0.0
H1196 H 0.25365 0.00185 0.63788 0.0
H1197 H 0.25474 0.99068 0.58138 0.0
H1198 H 0.21644 0.05322 0.55709 0.0
H1199 H 0.214 0.06346 0.61345 0.0
H1200 H 0.19814 0.0191 0.5283 0.0
H1201 H 0.29352 0.01251 0.50919 0.0
H1202 H 0.28395 0.9934 0.54043 0.0
H1203 H 0.28123 0.02458 0.54521 0.0
C1204 C 0.24561 0.01317 0.62032 0.0
C1205 C 0.23365 0.0334 0.62979 0.0
C1206 C 0.24644 0.00694 0.58806 0.0
C1207 C 0.23603 0.02132 0.56485 0.0
C1208 C 0.22457 0.04182 0.57449 0.0
H1209 H 0.255 0.00103 0.35984 0.0
H1210 H 0.25698 0.01581 0.41471 0.0
C1211 C 0.22316 0.04766 0.60667 0.0
C1212 C 0.23548 0.0144 0.53076 0.0
H1213 H 0.26918 0.99595 0.46851 0.0
C1214 C 0.21376 0.01429 0.51519 0.0
C1215 C 0.25585 0.00845 0.51343 0.0
C1216 C 0.27996 0.00998 0.52785 0.0
C1217 C 0.21176 0.00821 0.48298 0.0
C1218 C 0.23189 0.00085 0.4662 0.0
C1219 C 0.2537 0.0013 0.48152 0.0
C1220 C 0.23055 0.99223 0.43294 0.0
C1221 C 0.18811 0.01026 0.46723 0.0
C1222 C 0.21522 0.97398 0.42507 0.0
C1223 C 0.21364 0.966 0.39374 0.0
C1224 C 0.22795 0.97559 0.36992 0.0
C1225 C 0.24372 0.99345 0.37784 0.0
C1226 C 0.24492 0.00182 0.40912 0.0
H1227 H 0.17706 0.02352 0.47937 0.0
H1228 H 0.1897 0.01514 0.44168 0.0
H1229 H 0.17891 0.99324 0.4689 0.0
H1230 H 0.20456 0.96575 0.44322 0.0
H1231 H 0.20164 0.95191 0.38835 0.0
H1232 H 0.52056 0.69917 0.87596 0.0
H1233 H 0.51066 0.70493 0.93203 0.0
H1234 H 0.50688 0.7794 0.91685 0.0
H1235 H 0.51631 0.77369 0.8603 0.0
H1236 H 0.53922 0.7309 0.97257 0.0
H1237 H 0.44843 0.76588 0.97064 0.0
H1238 H 0.46113 0.75098 0.93686 0.0
H1239 H 0.46939 0.78053 0.94572 0.0
C1240 C 0.51716 0.71674 0.8844 0.0
C1241 C 0.51932 0.736 0.8639 0.0
C1242 C 0.51155 0.72 0.91641 0.0
C1243 C 0.50807 0.74257 0.92852 0.0
C1244 C 0.50919 0.76182 0.90783 0.0
H1245 H 0.48626 0.77413 0.13213 0.0
H1246 H 0.49748 0.7797 0.07606 0.0
C1247 C 0.51462 0.75853 0.8756 0.0
C1248 C 0.50529 0.74574 0.96328 0.0
H1249 H 0.46634 0.76157 0.02098 0.0
C1250 C 0.52336 0.73779 0.98316 0.0
C1251 C 0.4847 0.75501 0.97691 0.0
C1252 C 0.46468 0.76348 0.95654 0.0
C1253 C 0.52099 0.73796 0.01638 0.0
C1254 C 0.50002 0.74621 0.02994 0.0
C1255 C 0.4824 0.75528 0.01026 0.0
C1256 C 0.49504 0.74303 0.06411 0.0
C1257 C 0.54061 0.72871 0.03683 0.0
C1258 C 0.49023 0.72057 0.07567 0.0
C1259 C 0.48369 0.71736 0.10738 0.0
C1260 C 0.48199 0.73658 0.12805 0.0
C1261 C 0.48757 0.75901 0.11669 0.0
C1262 C 0.49387 0.76224 0.08476 0.0
H1263 H 0.55735 0.72781 0.02346 0.0
H1264 H 0.54308 0.73985 0.05826 0.0
H1265 H 0.53614 0.71083 0.04507 0.0
H1266 H 0.49094 0.70559 0.05989 0.0
H1267 H 0.4795 0.69989 0.11552 0.0
H1268 H 0.22846 0.51882 0.86337 0.0
H1269 H 0.22226 0.51188 0.92056 0.0
H1270 H 0.29629 0.51889 0.93711 0.0
H1271 H 0.30259 0.52611 0.88036 0.0
H1272 H 0.24102 0.47849 0.96336 0.0
H1273 H 0.2673 0.56847 0.99607 0.0
H1274 H 0.26017 0.56014 0.95566 0.0
H1275 H 0.28868 0.55403 0.97174 0.0
C1276 C 0.24343 0.51858 0.87919 0.0
C1277 C 0.26598 0.52328 0.86755 0.0
C1278 C 0.23984 0.51472 0.91179 0.0
C1279 C 0.25875 0.51555 0.93305 0.0
C1280 C 0.2814 0.51885 0.92114 0.0
H1281 H 0.29876 0.4749 0.11534 0.0
H1282 H 0.29297 0.48746 0.0602 0.0
C1283 C 0.28499 0.52279 0.88871 0.0
C1284 C 0.2551 0.51323 0.9678 0.0
H1285 H 0.26767 0.54006 0.03851 0.0
C1286 C 0.24637 0.4921 0.97982 0.0
C1287 C 0.26179 0.53119 0.98915 0.0
C1288 C 0.26977 0.55483 0.97751 0.0
C1289 C 0.24574 0.48788 0.01278 0.0
C1290 C 0.25405 0.5052 0.03392 0.0
C1291 C 0.26145 0.52682 0.02205 0.0
C1292 C 0.2578 0.49998 0.0679 0.0
C1293 C 0.23729 0.46456 0.02494 0.0
C1294 C 0.24008 0.50358 0.09045 0.0
C1295 C 0.24337 0.49653 0.12211 0.0
C1296 C 0.26437 0.4857 0.13135 0.0
C1297 C 0.28238 0.48311 0.10888 0.0
C1298 C 0.27911 0.49023 0.07741 0.0
H1299 H 0.22967 0.45363 0.00565 0.0
H1300 H 0.25212 0.45494 0.03585 0.0
H1301 H 0.22392 0.4672 0.0438 0.0
H1302 H 0.22354 0.51115 0.08334 0.0
H1303 H 0.22918 0.49866 0.13895 0.0
H1304 H 0.52987 0.30181 0.11805 0.0
H1305 H 0.51992 0.29619 0.06194 0.0
H1306 H 0.51172 0.22219 0.07818 0.0
H1307 H 0.5211 0.22781 0.13475 0.0
H1308 H 0.54405 0.26928 0.01855 0.0
H1309 H 0.45208 0.23869 0.03025 0.0
H1310 H 0.46763 0.25217 0.06289 0.0
H1311 H 0.47354 0.22237 0.05219 0.0
C1312 C 0.52568 0.28438 0.10977 0.0
C1313 C 0.5262 0.26525 0.13072 0.0
C1314 C 0.52007 0.28118 0.07771 0.0
C1315 C 0.51498 0.2588 0.06596 0.0
C1316 C 0.51521 0.23966 0.08689 0.0
H1317 H 0.49324 0.23076 0.86081 0.0
H1318 H 0.50676 0.22549 0.91603 0.0
C1319 C 0.52062 0.24289 0.11914 0.0
C1320 C 0.51021 0.25577 0.03153 0.0
H1321 H 0.46727 0.24203 0.9782 0.0
C1322 C 0.52736 0.26306 0.00971 0.0
C1323 C 0.48844 0.24755 0.02013 0.0
C1324 C 0.46926 0.23989 0.0425 0.0
C1325 C 0.52298 0.2632 0.97682 0.0
C1326 C 0.50098 0.25582 0.96562 0.0
C1327 C 0.48416 0.24758 0.98716 0.0
C1328 C 0.49419 0.25912 0.93206 0.0
C1329 C 0.54141 0.27215 0.9542 0.0
C1330 C 0.48305 0.27987 0.92309 0.0
C1331 C 0.47537 0.28295 0.89182 0.0
C1332 C 0.47874 0.26528 0.86903 0.0
C1333 C 0.49051 0.2447 0.87789 0.0
C1334 C 0.49814 0.24161 0.90932 0.0
H1335 H 0.55824 0.27574 0.96647 0.0
H1336 H 0.54444 0.2592 0.93491 0.0
H1337 H 0.53519 0.28852 0.94282 0.0
H1338 H 0.47997 0.29355 0.94047 0.0
H1339 H 0.46639 0.29899 0.88568 0.0
H1340 H 0.70022 0.47051 0.87674 0.0
H1341 H 0.70627 0.47874 0.93325 0.0
H1342 H 0.78041 0.48527 0.917 0.0
H1343 H 0.77438 0.47759 0.86003 0.0
H1344 H 0.73263 0.45182 0.97419 0.0
H1345 H 0.76595 0.54319 0.97001 0.0
H1346 H 0.75175 0.52959 0.93633 0.0
H1347 H 0.78145 0.52233 0.94596 0.0
C1348 C 0.71777 0.47405 0.88509 0.0
C1349 C 0.73684 0.47342 0.86405 0.0
C1350 C 0.72121 0.47867 0.91738 0.0
C1351 C 0.74376 0.48267 0.92926 0.0
C1352 C 0.76283 0.48259 0.90821 0.0
H1353 H 0.77533 0.50996 0.13159 0.0
H1354 H 0.78103 0.4967 0.07639 0.0
C1355 C 0.75936 0.47817 0.87573 0.0
C1356 C 0.74708 0.48579 0.96398 0.0
H1357 H 0.7625 0.52571 0.02067 0.0
C1358 C 0.73936 0.4679 0.98436 0.0
C1359 C 0.75609 0.50669 0.97711 0.0
C1360 C 0.76415 0.52666 0.95632 0.0
C1361 C 0.73952 0.47073 0.01754 0.0
C1362 C 0.74754 0.49198 0.03055 0.0
C1363 C 0.75641 0.50942 0.01039 0.0
C1364 C 0.74427 0.49755 0.06457 0.0
C1365 C 0.7305 0.4513 0.0385 0.0
C1366 C 0.72172 0.50214 0.07598 0.0
C1367 C 0.71844 0.5099 0.10717 0.0
C1368 C 0.73768 0.51305 0.12749 0.0
C1369 C 0.7602 0.50755 0.11642 0.0
C1370 C 0.7635 0.50006 0.08498 0.0
H1371 H 0.72999 0.43433 0.02565 0.0
H1372 H 0.74155 0.4494 0.06014 0.0
H1373 H 0.71249 0.45558 0.04638 0.0
H1374 H 0.70672 0.50047 0.06037 0.0
H1375 H 0.7009 0.51399 0.11511 0.0
loop_
_geom_bond_atom_site_label_1
_geom_bond_atom_site_label_2
_geom_bond_distance
_geom_bond_site_symmetry_2
_ccdc_geom_bond_type
Co0 O1 2.216 . S
Co0 O2 2.091 . S
Co0 O4 2.004 . S
Co0 O10 2.021 . S
Co0 O12 2.137 . S
Co0 O13 2.244 . S
O1 Co0 2.216 . S
O1 C8 1.247 . S
O2 Co0 2.091 . S
O2 C8 1.261 . S
C3 O12 1.247 . S
C3 O13 1.272 . S
O4 Co0 2.004 . S
O4 C9 1.259 1_455 S
Co5 O6 2.059 . S
Co5 O11 2.052 . S
Co5 O13 2.135 . S
O6 Co5 2.059 . S
O6 C9 1.236 1_455 S
C7 O10 1.238 . S
C7 O11 1.241 . S
C8 O1 1.247 . S
C8 O2 1.261 . S
C9 O4 1.259 1_655 S
C9 O6 1.236 1_655 S
O10 Co0 2.021 . S
O10 C7 1.238 . S
O11 Co5 2.052 . S
O11 C7 1.241 . S
O12 Co0 2.137 . S
O12 C3 1.247 . S
O13 Co0 2.244 . S
O13 C3 1.272 . S
O13 Co5 2.135 . S
Co14 O15 2.216 . S
Co14 O16 2.091 . S
Co14 O18 2.004 . S
Co14 O24 2.021 . S
Co14 O26 2.137 . S
Co14 O27 2.244 . S
O15 Co14 2.216 . S
O15 C22 1.247 . S
O16 Co14 2.091 . S
O16 C22 1.261 . S
C17 O26 1.247 . S
C17 O27 1.272 . S
O18 Co14 2.004 . S
O18 C23 1.259 1_545 S
Co19 O20 2.059 . S
Co19 O25 2.052 . S
Co19 O27 2.135 . S
O20 Co19 2.059 . S
O20 C23 1.236 1_545 S
C21 O24 1.238 . S
C21 O25 1.241 . S
C22 O15 1.247 . S
C22 O16 1.261 . S
C23 O18 1.259 1_565 S
C23 O20 1.236 1_565 S
O24 Co14 2.021 . S
O24 C21 1.238 . S
O25 Co19 2.052 . S
O25 C21 1.241 . S
O26 Co14 2.137 . S
O26 C17 1.247 . S
O27 Co14 2.244 . S
O27 C17 1.272 . S
O27 Co19 2.135 . S
Co28 O29 2.216 . S
Co28 O30 2.091 . S
Co28 O32 2.004 . S
Co28 O38 2.021 . S
Co28 O40 2.137 . S
Co28 O41 2.244 . S
O29 Co28 2.216 . S
O29 C36 1.247 . S
O30 Co28 2.091 . S
O30 C36 1.261 . S
C31 O40 1.247 . S
C31 O41 1.272 . S
O32 Co28 2.004 . S
O32 C37 1.259 1_655 S
Co33 O34 2.059 . S
Co33 O39 2.052 . S
Co33 O41 2.135 . S
O34 Co33 2.059 . S
O34 C37 1.236 1_655 S
C35 O38 1.238 . S
C35 O39 1.241 . S
C36 O29 1.247 . S
C36 O30 1.261 . S
C37 O32 1.259 1_455 S
C37 O34 1.236 1_455 S
O38 Co28 2.021 . S
O38 C35 1.238 . S
O39 Co33 2.052 . S
O39 C35 1.241 . S
O40 Co28 2.137 . S
O40 C31 1.247 . S
O41 Co28 2.244 . S
O41 C31 1.272 . S
O41 Co33 2.135 . S
Co42 O43 2.216 . S
Co42 O44 2.091 . S
Co42 O46 2.004 . S
Co42 O52 2.021 . S
Co42 O54 2.137 . S
Co42 O55 2.244 . S
O43 Co42 2.216 . S
O43 C50 1.247 . S
O44 Co42 2.091 . S
O44 C50 1.261 . S
C45 O54 1.247 . S
C45 O55 1.272 . S
O46 Co42 2.004 . S
O46 C51 1.259 1_565 S
Co47 O48 2.059 . S
Co47 O53 2.052 . S
Co47 O55 2.135 . S
O48 Co47 2.059 . S
O48 C51 1.236 1_565 S
C49 O52 1.238 . S
C49 O53 1.241 . S
C50 O43 1.247 . S
C50 O44 1.261 . S
C51 O46 1.259 1_545 S
C51 O48 1.236 1_545 S
O52 Co42 2.021 . S
O52 C49 1.238 . S
O53 Co47 2.052 . S
O53 C49 1.241 . S
O54 Co42 2.137 . S
O54 C45 1.247 . S
O55 Co42 2.244 . S
O55 C45 1.272 . S
O55 Co47 2.135 . S
Co56 O57 2.216 . S
Co56 O58 2.091 . S
Co56 O60 2.004 . S
Co56 O66 2.021 . S
Co56 O68 2.137 . S
Co56 O69 2.244 . S
O57 Co56 2.216 . S
O57 C64 1.247 . S
O58 Co56 2.091 . S
O58 C64 1.261 . S
C59 O68 1.247 . S
C59 O69 1.272 . S
O60 Co56 2.004 . S
O60 C65 1.259 1_455 S
Co61 O62 2.059 . S
Co61 O67 2.052 . S
Co61 O69 2.135 . S
O62 Co61 2.059 . S
O62 C65 1.236 1_455 S
C63 O66 1.238 . S
C63 O67 1.241 . S
C64 O57 1.247 . S
C64 O58 1.261 . S
C65 O60 1.259 1_655 S
C65 O62 1.236 1_655 S
O66 Co56 2.021 . S
O66 C63 1.238 . S
O67 Co61 2.052 . S
O67 C63 1.241 . S
O68 Co56 2.137 . S
O68 C59 1.247 . S
O69 Co56 2.244 . S
O69 C59 1.272 . S
O69 Co61 2.135 . S
Co70 O71 2.216 . S
Co70 O72 2.091 . S
Co70 O74 2.004 . S
Co70 O80 2.021 . S
Co70 O82 2.137 . S
Co70 O83 2.244 . S
O71 Co70 2.216 . S
O71 C78 1.247 . S
O72 Co70 2.091 . S
O72 C78 1.261 . S
C73 O82 1.247 . S
C73 O83 1.272 . S
O74 Co70 2.004 . S
O74 C79 1.259 1_545 S
Co75 O76 2.059 . S
Co75 O81 2.052 . S
Co75 O83 2.135 . S
O76 Co75 2.059 . S
O76 C79 1.236 1_545 S
C77 O80 1.238 . S
C77 O81 1.241 . S
C78 O71 1.247 . S
C78 O72 1.261 . S
C79 O74 1.259 1_565 S
C79 O76 1.236 1_565 S
O80 Co70 2.021 . S
O80 C77 1.238 . S
O81 Co75 2.052 . S
O81 C77 1.241 . S
O82 Co70 2.137 . S
O82 C73 1.247 . S
O83 Co70 2.244 . S
O83 C73 1.272 . S
O83 Co75 2.135 . S
Co84 O85 2.216 . S
Co84 O86 2.091 . S
Co84 O88 2.004 . S
Co84 O94 2.021 . S
Co84 O96 2.137 . S
Co84 O97 2.244 . S
O85 Co84 2.216 . S
O85 C92 1.247 . S
O86 Co84 2.091 . S
O86 C92 1.261 . S
C87 O96 1.247 . S
C87 O97 1.272 . S
O88 Co84 2.004 . S
O88 C93 1.259 1_655 S
Co89 O90 2.059 . S
Co89 O95 2.052 . S
Co89 O97 2.135 . S
O90 Co89 2.059 . S
O90 C93 1.236 1_655 S
C91 O94 1.238 . S
C91 O95 1.241 . S
C92 O85 1.247 . S
C92 O86 1.261 . S
C93 O88 1.259 1_455 S
C93 O90 1.236 1_455 S
O94 Co84 2.021 . S
O94 C91 1.238 . S
O95 Co89 2.052 . S
O95 C91 1.241 . S
O96 Co84 2.137 . S
O96 C87 1.247 . S
O97 Co84 2.244 . S
O97 C87 1.272 . S
O97 Co89 2.135 . S
Co98 O99 2.216 . S
Co98 O100 2.091 . S
Co98 O102 2.004 . S
Co98 O108 2.021 . S
Co98 O110 2.137 . S
Co98 O111 2.244 . S
O99 Co98 2.216 . S
O99 C106 1.247 . S
O100 Co98 2.091 . S
O100 C106 1.261 . S
C101 O110 1.247 . S
C101 O111 1.272 . S
O102 Co98 2.004 . S
O102 C107 1.259 1_565 S
Co103 O104 2.059 . S
Co103 O109 2.052 . S
Co103 O111 2.135 . S
O104 Co103 2.059 . S
O104 C107 1.236 1_565 S
C105 O108 1.238 . S
C105 O109 1.241 . S
C106 O99 1.247 . S
C106 O100 1.261 . S
C107 O102 1.259 1_545 S
C107 O104 1.236 1_545 S
O108 Co98 2.021 . S
O108 C105 1.238 . S
O109 Co103 2.052 . S
O109 C105 1.241 . S
O110 Co98 2.137 . S
O110 C101 1.247 . S
O111 Co98 2.244 . S
O111 C101 1.272 . S
O111 Co103 2.135 . S
Co112 O113 2.216 . S
Co112 O114 2.091 . S
Co112 O116 2.004 . S
Co112 O122 2.021 . S
Co112 O124 2.137 . S
Co112 O125 2.244 . S
O113 Co112 2.216 . S
O113 C120 1.247 . S
O114 Co112 2.091 . S
O114 C120 1.261 . S
C115 O124 1.247 . S
C115 O125 1.272 . S
O116 Co112 2.004 . S
O116 C121 1.259 . S
Co117 O118 2.061 . S
Co117 O123 2.052 . S
Co117 O125 2.135 . S
O118 Co117 2.061 . S
O118 C121 1.235 . S
C119 O122 1.238 . S
C119 O123 1.241 . S
C120 O113 1.247 . S
C120 O114 1.261 . S
C121 O116 1.259 . S
C121 O118 1.235 . S
O122 Co112 2.021 . S
O122 C119 1.238 . S
O123 Co117 2.052 . S
O123 C119 1.241 . S
O124 Co112 2.137 . S
O124 C115 1.247 . S
O125 Co112 2.244 . S
O125 C115 1.272 . S
O125 Co117 2.135 . S
Co126 O127 2.216 . S
Co126 O128 2.091 . S
Co126 O130 2.004 . S
Co126 O136 2.021 . S
Co126 O138 2.137 . S
Co126 O139 2.244 . S
O127 Co126 2.216 . S
O127 C134 1.247 . S
O128 Co126 2.091 . S
O128 C134 1.261 . S
C129 O138 1.247 . S
C129 O139 1.272 . S
O130 Co126 2.004 . S
O130 C135 1.259 . S
Co131 O132 2.061 . S
Co131 O137 2.052 . S
Co131 O139 2.135 . S
O132 Co131 2.061 . S
O132 C135 1.235 . S
C133 O136 1.238 . S
C133 O137 1.241 . S
C134 O127 1.247 . S
C134 O128 1.261 . S
C135 O130 1.259 . S
C135 O132 1.235 . S
O136 Co126 2.021 . S
O136 C133 1.238 . S
O137 Co131 2.052 . S
O137 C133 1.241 . S
O138 Co126 2.137 . S
O138 C129 1.247 . S
O139 Co126 2.244 . S
O139 C129 1.272 . S
O139 Co131 2.135 . S
Co140 O141 2.216 . S
Co140 O142 2.091 . S
Co140 O144 2.004 . S
Co140 O150 2.021 . S
Co140 O152 2.137 . S
Co140 O153 2.244 . S
O141 Co140 2.216 . S
O141 C148 1.247 . S
O142 Co140 2.091 . S
O142 C148 1.261 . S
C143 O152 1.247 . S
C143 O153 1.272 . S
O144 Co140 2.004 . S
O144 C149 1.259 . S
Co145 O146 2.061 . S
Co145 O151 2.052 . S
Co145 O153 2.135 . S
O146 Co145 2.061 . S
O146 C149 1.235 . S
C147 O150 1.238 . S
C147 O151 1.241 . S
C148 O141 1.247 . S
C148 O142 1.261 . S
C149 O144 1.259 . S
C149 O146 1.235 . S
O150 Co140 2.021 . S
O150 C147 1.238 . S
O151 Co145 2.052 . S
O151 C147 1.241 . S
O152 Co140 2.137 . S
O152 C143 1.247 . S
O153 Co140 2.244 . S
O153 C143 1.272 . S
O153 Co145 2.135 . S
Co154 O155 2.216 . S
Co154 O156 2.091 . S
Co154 O158 2.004 . S
Co154 O164 2.021 . S
Co154 O166 2.137 . S
Co154 O167 2.244 . S
O155 Co154 2.216 . S
O155 C162 1.247 . S
O156 Co154 2.091 . S
O156 C162 1.261 . S
C157 O166 1.247 . S
C157 O167 1.272 . S
O158 Co154 2.004 . S
O158 C163 1.259 . S
Co159 O160 2.061 . S
Co159 O165 2.052 . S
Co159 O167 2.135 . S
O160 Co159 2.061 . S
O160 C163 1.235 . S
C161 O164 1.238 . S
C161 O165 1.241 . S
C162 O155 1.247 . S
C162 O156 1.261 . S
C163 O158 1.259 . S
C163 O160 1.235 . S
O164 Co154 2.021 . S
O164 C161 1.238 . S
O165 Co159 2.052 . S
O165 C161 1.241 . S
O166 Co154 2.137 . S
O166 C157 1.247 . S
O167 Co154 2.244 . S
O167 C157 1.272 . S
O167 Co159 2.135 . S
Co168 O169 2.216 . S
Co168 O170 2.091 . S
Co168 O172 2.004 . S
Co168 O178 2.021 . S
Co168 O180 2.137 . S
Co168 O181 2.244 . S
O169 Co168 2.216 . S
O169 C176 1.247 . S
O170 Co168 2.091 . S
O170 C176 1.261 . S
C171 O180 1.247 . S
C171 O181 1.272 . S
O172 Co168 2.004 . S
O172 C177 1.259 . S
Co173 O174 2.061 . S
Co173 O179 2.052 . S
Co173 O181 2.135 . S
O174 Co173 2.061 . S
O174 C177 1.235 . S
C175 O178 1.238 . S
C175 O179 1.241 . S
C176 O169 1.247 . S
C176 O170 1.261 . S
C177 O172 1.259 . S
C177 O174 1.235 . S
O178 Co168 2.021 . S
O178 C175 1.238 . S
O179 Co173 2.052 . S
O179 C175 1.241 . S
O180 Co168 2.137 . S
O180 C171 1.247 . S
O181 Co168 2.244 . S
O181 C171 1.272 . S
O181 Co173 2.135 . S
Co182 O183 2.216 . S
Co182 O184 2.091 . S
Co182 O186 2.004 . S
Co182 O192 2.021 . S
Co182 O194 2.137 . S
Co182 O195 2.244 . S
O183 Co182 2.216 . S
O183 C190 1.247 . S
O184 Co182 2.091 . S
O184 C190 1.261 . S
C185 O194 1.247 . S
C185 O195 1.272 . S
O186 Co182 2.004 . S
O186 C191 1.259 . S
Co187 O188 2.061 . S
Co187 O193 2.052 . S
Co187 O195 2.135 . S
O188 Co187 2.061 . S
O188 C191 1.235 . S
C189 O192 1.238 . S
C189 O193 1.241 . S
C190 O183 1.247 . S
C190 O184 1.261 . S
C191 O186 1.259 . S
C191 O188 1.235 . S
O192 Co182 2.021 . S
O192 C189 1.238 . S
O193 Co187 2.052 . S
O193 C189 1.241 . S
O194 Co182 2.137 . S
O194 C185 1.247 . S
O195 Co182 2.244 . S
O195 C185 1.272 . S
O195 Co187 2.135 . S
Co196 O197 2.216 . S
Co196 O198 2.091 . S
Co196 O200 2.004 . S
Co196 O206 2.021 . S
Co196 O208 2.137 . S
Co196 O209 2.244 . S
O197 Co196 2.216 . S
O197 C204 1.247 . S
O198 Co196 2.091 . S
O198 C204 1.261 . S
C199 O208 1.247 . S
C199 O209 1.272 . S
O200 Co196 2.004 . S
O200 C205 1.259 . S
Co201 O202 2.061 . S
Co201 O207 2.052 . S
Co201 O209 2.135 . S
O202 Co201 2.061 . S
O202 C205 1.235 . S
C203 O206 1.238 . S
C203 O207 1.241 . S
C204 O197 1.247 . S
C204 O198 1.261 . S
C205 O200 1.259 . S
C205 O202 1.235 . S
O206 Co196 2.021 . S
O206 C203 1.238 . S
O207 Co201 2.052 . S
O207 C203 1.241 . S
O208 Co196 2.137 . S
O208 C199 1.247 . S
O209 Co196 2.244 . S
O209 C199 1.272 . S
O209 Co201 2.135 . S
Co210 O211 2.216 . S
Co210 O212 2.091 . S
Co210 O214 2.004 . S
Co210 O220 2.021 . S
Co210 O222 2.137 . S
Co210 O223 2.244 . S
O211 Co210 2.216 . S
O211 C218 1.247 . S
O212 Co210 2.091 . S
O212 C218 1.261 . S
C213 O222 1.247 . S
C213 O223 1.272 . S
O214 Co210 2.004 . S
O214 C219 1.259 . S
Co215 O216 2.061 . S
Co215 O221 2.052 . S
Co215 O223 2.135 . S
O216 Co215 2.061 . S
O216 C219 1.235 . S
C217 O220 1.238 . S
C217 O221 1.241 . S
C218 O211 1.247 . S
C218 O212 1.261 . S
C219 O214 1.259 . S
C219 O216 1.235 . S
O220 Co210 2.021 . S
O220 C217 1.238 . S
O221 Co215 2.052 . S
O221 C217 1.241 . S
O222 Co210 2.137 . S
O222 C213 1.247 . S
O223 Co210 2.244 . S
O223 C213 1.272 . S
O223 Co215 2.135 . S
H224 C232 0.929 . S
H225 C234 0.930 . S
H226 C236 0.930 . S
H227 C239 0.929 . S
H228 C242 0.930 . S
H229 C244 0.960 . S
H230 C244 0.960 . S
H231 C244 0.960 . S
C232 H224 0.929 . S
C232 C233 1.377 . S
C232 C234 1.384 . S
C233 C232 1.377 . S
C233 C239 1.390 . S
C234 H225 0.930 . S
C234 C232 1.384 . S
C234 C235 1.372 . S
C235 C234 1.372 . S
C235 C236 1.400 . S
C235 C240 1.490 . S
C236 H226 0.930 . S
C236 C235 1.400 . S
C236 C239 1.386 . S
H237 C253 0.930 . S
H238 C254 0.931 . S
C239 H227 0.929 . S
C239 C233 1.390 . S
C239 C236 1.386 . S
C240 C235 1.490 . S
C240 C242 1.395 . S
C240 C243 1.403 . S
H241 C247 0.930 . S
C242 H228 0.930 . S
C242 C240 1.395 . S
C242 C245 1.403 . S
C243 C240 1.403 . S
C243 C244 1.524 . S
C243 C247 1.400 . S
C244 H229 0.960 . S
C244 H230 0.960 . S
C244 H231 0.960 . S
C244 C243 1.524 . S
C245 C242 1.403 . S
C245 C246 1.392 . S
C245 C249 1.495 . S
C246 C245 1.392 . S
C246 C247 1.385 . S
C246 C248 1.478 . S
C247 H241 0.930 . S
C247 C243 1.400 . S
C247 C246 1.385 . S
C248 C246 1.478 . S
C248 C250 1.381 . S
C248 C254 1.383 . S
C249 C245 1.495 . S
C249 H255 0.959 . S
C249 H256 0.961 . S
C249 H257 0.960 . S
C250 C248 1.381 . S
C250 C251 1.394 . S
C250 H258 0.930 . S
C251 C250 1.394 . S
C251 C252 1.383 . S
C251 H259 0.929 . S
C252 C251 1.383 . S
C252 C253 1.377 . S
C253 H237 0.930 . S
C253 C252 1.377 . S
C253 C254 1.379 . S
C254 H238 0.931 . S
C254 C248 1.383 . S
C254 C253 1.379 . S
H255 C249 0.959 . S
H256 C249 0.961 . S
H257 C249 0.960 . S
H258 C250 0.930 . S
H259 C251 0.929 . S
H260 C268 0.929 . S
H261 C270 0.930 . S
H262 C272 0.930 . S
H263 C275 0.929 . S
H264 C278 0.930 . S
H265 C280 0.960 . S
H266 C280 0.960 . S
H267 C280 0.960 . S
C268 H260 0.929 . S
C268 C269 1.377 . S
C268 C270 1.384 . S
C269 C268 1.377 . S
C269 C275 1.390 . S
C270 H261 0.930 . S
C270 C268 1.384 . S
C270 C271 1.372 . S
C271 C270 1.372 . S
C271 C272 1.400 . S
C271 C276 1.490 . S
C272 H262 0.930 . S
C272 C271 1.400 . S
C272 C275 1.386 . S
H273 C289 0.930 . S
H274 C290 0.931 . S
C275 H263 0.929 . S
C275 C269 1.390 . S
C275 C272 1.386 . S
C276 C271 1.490 . S
C276 C278 1.395 . S
C276 C279 1.403 . S
H277 C283 0.930 . S
C278 H264 0.930 . S
C278 C276 1.395 . S
C278 C281 1.403 . S
C279 C276 1.403 . S
C279 C280 1.524 . S
C279 C283 1.400 . S
C280 H265 0.960 . S
C280 H266 0.960 . S
C280 H267 0.960 . S
C280 C279 1.524 . S
C281 C278 1.403 . S
C281 C282 1.392 . S
C281 C285 1.495 . S
C282 C281 1.392 . S
C282 C283 1.385 . S
C282 C284 1.478 . S
C283 H277 0.930 . S
C283 C279 1.400 . S
C283 C282 1.385 . S
C284 C282 1.478 . S
C284 C286 1.381 . S
C284 C290 1.383 . S
C285 C281 1.495 . S
C285 H291 0.959 . S
C285 H292 0.961 . S
C285 H293 0.960 . S
C286 C284 1.381 . S
C286 C287 1.394 . S
C286 H294 0.930 . S
C287 C286 1.394 . S
C287 C288 1.383 . S
C287 H295 0.929 . S
C288 C287 1.383 . S
C288 C289 1.377 . S
C289 H273 0.930 . S
C289 C288 1.377 . S
C289 C290 1.379 . S
C290 H274 0.931 . S
C290 C284 1.383 . S
C290 C289 1.379 . S
H291 C285 0.959 . S
H292 C285 0.961 . S
H293 C285 0.960 . S
H294 C286 0.930 . S
H295 C287 0.929 . S
H296 C304 0.929 . S
H297 C306 0.930 . S
H298 C308 0.930 . S
H299 C311 0.929 . S
H300 C314 0.930 . S
H301 C316 0.960 . S
H302 C316 0.960 . S
H303 C316 0.960 . S
C304 H296 0.929 . S
C304 C305 1.377 . S
C304 C306 1.384 . S
C305 C304 1.377 . S
C305 C311 1.390 . S
C306 H297 0.930 . S
C306 C304 1.384 . S
C306 C307 1.372 . S
C307 C306 1.372 . S
C307 C308 1.400 . S
C307 C312 1.490 . S
C308 H298 0.930 . S
C308 C307 1.400 . S
C308 C311 1.386 . S
H309 C325 0.930 . S
H310 C326 0.931 . S
C311 H299 0.929 . S
C311 C305 1.390 . S
C311 C308 1.386 . S
C312 C307 1.490 . S
C312 C314 1.395 . S
C312 C315 1.403 . S
H313 C319 0.930 . S
C314 H300 0.930 . S
C314 C312 1.395 . S
C314 C317 1.403 . S
C315 C312 1.403 . S
C315 C316 1.524 . S
C315 C319 1.400 . S
C316 H301 0.960 . S
C316 H302 0.960 . S
C316 H303 0.960 . S
C316 C315 1.524 . S
C317 C314 1.403 . S
C317 C318 1.392 . S
C317 C321 1.495 . S
C318 C317 1.392 . S
C318 C319 1.385 . S
C318 C320 1.478 . S
C319 H313 0.930 . S
C319 C315 1.400 . S
C319 C318 1.385 . S
C320 C318 1.478 . S
C320 C322 1.381 . S
C320 C326 1.383 . S
C321 C317 1.495 . S
C321 H327 0.959 . S
C321 H328 0.961 . S
C321 H329 0.960 . S
C322 C320 1.381 . S
C322 C323 1.394 . S
C322 H330 0.930 . S
C323 C322 1.394 . S
C323 C324 1.383 . S
C323 H331 0.929 . S
C324 C323 1.383 . S
C324 C325 1.377 . S
C325 H309 0.930 . S
C325 C324 1.377 . S
C325 C326 1.379 . S
C326 H310 0.931 . S
C326 C320 1.383 . S
C326 C325 1.379 . S
H327 C321 0.959 . S
H328 C321 0.961 . S
H329 C321 0.960 . S
H330 C322 0.930 . S
H331 C323 0.929 . S
H332 C340 0.929 . S
H333 C342 0.930 . S
H334 C344 0.930 . S
H335 C347 0.929 . S
H336 C350 0.930 . S
H337 C352 0.960 . S
H338 C352 0.960 . S
H339 C352 0.960 . S
C340 H332 0.929 . S
C340 C341 1.377 . S
C340 C342 1.384 . S
C341 C340 1.377 . S
C341 C347 1.390 . S
C342 H333 0.930 . S
C342 C340 1.384 . S
C342 C343 1.372 . S
C343 C342 1.372 . S
C343 C344 1.400 . S
C343 C348 1.490 . S
C344 H334 0.930 . S
C344 C343 1.400 . S
C344 C347 1.386 . S
H345 C361 0.930 . S
H346 C362 0.931 . S
C347 H335 0.929 . S
C347 C341 1.390 . S
C347 C344 1.386 . S
C348 C343 1.490 . S
C348 C350 1.395 . S
C348 C351 1.403 . S
H349 C355 0.930 . S
C350 H336 0.930 . S
C350 C348 1.395 . S
C350 C353 1.403 . S
C351 C348 1.403 . S
C351 C352 1.524 . S
C351 C355 1.400 . S
C352 H337 0.960 . S
C352 H338 0.960 . S
C352 H339 0.960 . S
C352 C351 1.524 . S
C353 C350 1.403 . S
C353 C354 1.392 . S
C353 C357 1.495 . S
C354 C353 1.392 . S
C354 C355 1.385 . S
C354 C356 1.478 . S
C355 H349 0.930 . S
C355 C351 1.400 . S
C355 C354 1.385 . S
C356 C354 1.478 . S
C356 C358 1.381 . S
C356 C362 1.383 . S
C357 C353 1.495 . S
C357 H363 0.959 . S
C357 H364 0.961 . S
C357 H365 0.960 . S
C358 C356 1.381 . S
C358 C359 1.394 . S
C358 H366 0.930 . S
C359 C358 1.394 . S
C359 C360 1.383 . S
C359 H367 0.929 . S
C360 C359 1.383 . S
C360 C361 1.377 . S
C361 H345 0.930 . S
C361 C360 1.377 . S
C361 C362 1.379 . S
C362 H346 0.931 . S
C362 C356 1.383 . S
C362 C361 1.379 . S
H363 C357 0.959 . S
H364 C357 0.961 . S
H365 C357 0.960 . S
H366 C358 0.930 . S
H367 C359 0.929 . S
H368 C376 0.929 . S
H369 C378 0.930 . S
H370 C380 0.930 . S
H371 C383 0.929 . S
H372 C386 0.930 . S
H373 C388 0.960 . S
H374 C388 0.960 . S
H375 C388 0.960 . S
C376 H368 0.929 . S
C376 C377 1.377 . S
C376 C378 1.384 . S
C377 C376 1.377 . S
C377 C383 1.390 . S
C378 H369 0.930 . S
C378 C376 1.384 . S
C378 C379 1.372 . S
C379 C378 1.372 . S
C379 C380 1.400 . S
C379 C384 1.490 . S
C380 H370 0.930 . S
C380 C379 1.400 . S
C380 C383 1.386 . S
H381 C397 0.930 . S
H382 C398 0.931 . S
C383 H371 0.929 . S
C383 C377 1.390 . S
C383 C380 1.386 . S
C384 C379 1.490 . S
C384 C386 1.395 . S
C384 C387 1.403 . S
H385 C391 0.930 . S
C386 H372 0.930 . S
C386 C384 1.395 . S
C386 C389 1.403 . S
C387 C384 1.403 . S
C387 C388 1.524 . S
C387 C391 1.400 . S
C388 H373 0.960 . S
C388 H374 0.960 . S
C388 H375 0.960 . S
C388 C387 1.524 . S
C389 C386 1.403 . S
C389 C390 1.392 . S
C389 C393 1.495 . S
C390 C389 1.392 . S
C390 C391 1.385 . S
C390 C392 1.478 . S
C391 H385 0.930 . S
C391 C387 1.400 . S
C391 C390 1.385 . S
C392 C390 1.478 . S
C392 C394 1.381 . S
C392 C398 1.383 . S
C393 C389 1.495 . S
C393 H399 0.959 . S
C393 H400 0.961 . S
C393 H401 0.960 . S
C394 C392 1.381 . S
C394 C395 1.394 . S
C394 H402 0.930 . S
C395 C394 1.394 . S
C395 C396 1.383 . S
C395 H403 0.929 . S
C396 C395 1.383 . S
C396 C397 1.377 . S
C397 H381 0.930 . S
C397 C396 1.377 . S
C397 C398 1.379 . S
C398 H382 0.931 . S
C398 C392 1.383 . S
C398 C397 1.379 . S
H399 C393 0.959 . S
H400 C393 0.961 . S
H401 C393 0.960 . S
H402 C394 0.930 . S
H403 C395 0.929 . S
H404 C412 0.929 . S
H405 C414 0.930 . S
H406 C416 0.930 . S
H407 C419 0.929 . S
H408 C422 0.930 . S
H409 C424 0.960 . S
H410 C424 0.960 . S
H411 C424 0.960 . S
C412 H404 0.929 . S
C412 C413 1.377 . S
C412 C414 1.384 . S
C413 C412 1.377 . S
C413 C419 1.390 . S
C414 H405 0.930 . S
C414 C412 1.384 . S
C414 C415 1.372 . S
C415 C414 1.372 . S
C415 C416 1.400 . S
C415 C420 1.490 . S
C416 H406 0.930 . S
C416 C415 1.400 . S
C416 C419 1.386 . S
H417 C433 0.930 . S
H418 C434 0.931 . S
C419 H407 0.929 . S
C419 C413 1.390 . S
C419 C416 1.386 . S
C420 C415 1.490 . S
C420 C422 1.395 . S
C420 C423 1.403 . S
H421 C427 0.930 . S
C422 H408 0.930 . S
C422 C420 1.395 . S
C422 C425 1.403 . S
C423 C420 1.403 . S
C423 C424 1.524 . S
C423 C427 1.400 . S
C424 H409 0.960 . S
C424 H410 0.960 . S
C424 H411 0.960 . S
C424 C423 1.524 . S
C425 C422 1.403 . S
C425 C426 1.392 . S
C425 C429 1.495 . S
C426 C425 1.392 . S
C426 C427 1.385 . S
C426 C428 1.478 . S
C427 H421 0.930 . S
C427 C423 1.400 . S
C427 C426 1.385 . S
C428 C426 1.478 . S
C428 C430 1.381 . S
C428 C434 1.383 . S
C429 C425 1.495 . S
C429 H435 0.959 . S
C429 H436 0.961 . S
C429 H437 0.960 . S
C430 C428 1.381 . S
C430 C431 1.394 . S
C430 H438 0.930 . S
C431 C430 1.394 . S
C431 C432 1.383 . S
C431 H439 0.929 . S
C432 C431 1.383 . S
C432 C433 1.377 . S
C433 H417 0.930 . S
C433 C432 1.377 . S
C433 C434 1.379 . S
C434 H418 0.931 . S
C434 C428 1.383 . S
C434 C433 1.379 . S
H435 C429 0.959 . S
H436 C429 0.961 . S
H437 C429 0.960 . S
H438 C430 0.930 . S
H439 C431 0.929 . S
H440 C448 0.929 . S
H441 C450 0.930 . S
H442 C452 0.930 . S
H443 C455 0.929 . S
H444 C458 0.930 . S
H445 C460 0.960 . S
H446 C460 0.960 . S
H447 C460 0.960 . S
C448 H440 0.929 . S
C448 C449 1.377 . S
C448 C450 1.384 . S
C449 C448 1.377 . S
C449 C455 1.390 . S
C450 H441 0.930 . S
C450 C448 1.384 . S
C450 C451 1.372 . S
C451 C450 1.372 . S
C451 C452 1.400 . S
C451 C456 1.490 . S
C452 H442 0.930 . S
C452 C451 1.400 . S
C452 C455 1.386 . S
H453 C469 0.930 . S
H454 C470 0.931 . S
C455 H443 0.929 . S
C455 C449 1.390 . S
C455 C452 1.386 . S
C456 C451 1.490 . S
C456 C458 1.395 . S
C456 C459 1.403 . S
H457 C463 0.930 . S
C458 H444 0.930 . S
C458 C456 1.395 . S
C458 C461 1.403 . S
C459 C456 1.403 . S
C459 C460 1.524 . S
C459 C463 1.400 . S
C460 H445 0.960 . S
C460 H446 0.960 . S
C460 H447 0.960 . S
C460 C459 1.524 . S
C461 C458 1.403 . S
C461 C462 1.392 . S
C461 C465 1.495 . S
C462 C461 1.392 . S
C462 C463 1.385 . S
C462 C464 1.478 . S
C463 H457 0.930 . S
C463 C459 1.400 . S
C463 C462 1.385 . S
C464 C462 1.478 . S
C464 C466 1.381 . S
C464 C470 1.383 . S
C465 C461 1.495 . S
C465 H471 0.959 . S
C465 H472 0.961 . S
C465 H473 0.960 . S
C466 C464 1.381 . S
C466 C467 1.394 . S
C466 H474 0.930 . S
C467 C466 1.394 . S
C467 C468 1.383 . S
C467 H475 0.929 . S
C468 C467 1.383 . S
C468 C469 1.377 . S
C469 H453 0.930 . S
C469 C468 1.377 . S
C469 C470 1.379 . S
C470 H454 0.931 . S
C470 C464 1.383 . S
C470 C469 1.379 . S
H471 C465 0.959 . S
H472 C465 0.961 . S
H473 C465 0.960 . S
H474 C466 0.930 . S
H475 C467 0.929 . S
H476 C484 0.929 . S
H477 C486 0.930 . S
H478 C488 0.930 . S
H479 C491 0.929 . S
H480 C494 0.930 . S
H481 C496 0.960 . S
H482 C496 0.960 . S
H483 C496 0.960 . S
C484 H476 0.929 . S
C484 C485 1.377 . S
C484 C486 1.384 . S
C485 C484 1.377 . S
C485 C491 1.390 . S
C486 H477 0.930 . S
C486 C484 1.384 . S
C486 C487 1.372 . S
C487 C486 1.372 . S
C487 C488 1.400 . S
C487 C492 1.490 . S
C488 H478 0.930 . S
C488 C487 1.400 . S
C488 C491 1.386 . S
H489 C505 0.930 . S
H490 C506 0.931 . S
C491 H479 0.929 . S
C491 C485 1.390 . S
C491 C488 1.386 . S
C492 C487 1.490 . S
C492 C494 1.395 . S
C492 C495 1.403 . S
H493 C499 0.930 . S
C494 H480 0.930 . S
C494 C492 1.395 . S
C494 C497 1.403 . S
C495 C492 1.403 . S
C495 C496 1.524 . S
C495 C499 1.400 . S
C496 H481 0.960 . S
C496 H482 0.960 . S
C496 H483 0.960 . S
C496 C495 1.524 . S
C497 C494 1.403 . S
C497 C498 1.392 . S
C497 C501 1.495 . S
C498 C497 1.392 . S
C498 C499 1.385 . S
C498 C500 1.478 . S
C499 H493 0.930 . S
C499 C495 1.400 . S
C499 C498 1.385 . S
C500 C498 1.478 . S
C500 C502 1.381 . S
C500 C506 1.383 . S
C501 C497 1.495 . S
C501 H507 0.959 . S
C501 H508 0.961 . S
C501 H509 0.960 . S
C502 C500 1.381 . S
C502 C503 1.394 . S
C502 H510 0.930 . S
C503 C502 1.394 . S
C503 C504 1.383 . S
C503 H511 0.929 . S
C504 C503 1.383 . S
C504 C505 1.377 . S
C505 H489 0.930 . S
C505 C504 1.377 . S
C505 C506 1.379 . S
C506 H490 0.931 . S
C506 C500 1.383 . S
C506 C505 1.379 . S
H507 C501 0.959 . S
H508 C501 0.961 . S
H509 C501 0.960 . S
H510 C502 0.930 . S
H511 C503 0.929 . S
H512 C520 0.929 . S
H513 C522 0.930 . S
H514 C524 0.930 . S
H515 C527 0.929 . S
H516 C530 0.930 . S
H517 C532 0.960 . S
H518 C532 0.960 . S
H519 C532 0.960 . S
C520 H512 0.929 . S
C520 C521 1.377 . S
C520 C522 1.384 . S
C521 C520 1.377 . S
C521 C527 1.390 . S
C522 H513 0.930 . S
C522 C520 1.384 . S
C522 C523 1.372 . S
C523 C522 1.372 . S
C523 C524 1.400 . S
C523 C528 1.490 . S
C524 H514 0.930 . S
C524 C523 1.400 . S
C524 C527 1.386 . S
H525 C541 0.930 . S
H526 C542 0.931 . S
C527 H515 0.929 . S
C527 C521 1.390 . S
C527 C524 1.386 . S
C528 C523 1.490 . S
C528 C530 1.395 . S
C528 C531 1.403 . S
H529 C535 0.930 . S
C530 H516 0.930 . S
C530 C528 1.395 . S
C530 C533 1.403 . S
C531 C528 1.403 . S
C531 C532 1.524 . S
C531 C535 1.400 . S
C532 H517 0.960 . S
C532 H518 0.960 . S
C532 H519 0.960 . S
C532 C531 1.524 . S
C533 C530 1.403 . S
C533 C534 1.392 . S
C533 C537 1.495 . S
C534 C533 1.392 . S
C534 C535 1.385 . S
C534 C536 1.478 . S
C535 H529 0.930 . S
C535 C531 1.400 . S
C535 C534 1.385 . S
C536 C534 1.478 . S
C536 C538 1.381 . S
C536 C542 1.383 . S
C537 C533 1.495 . S
C537 H543 0.959 . S
C537 H544 0.961 . S
C537 H545 0.960 . S
C538 C536 1.381 . S
C538 C539 1.394 . S
C538 H546 0.930 . S
C539 C538 1.394 . S
C539 C540 1.383 . S
C539 H547 0.929 . S
C540 C539 1.383 . S
C540 C541 1.377 . S
C541 H525 0.930 . S
C541 C540 1.377 . S
C541 C542 1.379 . S
C542 H526 0.931 . S
C542 C536 1.383 . S
C542 C541 1.379 . S
H543 C537 0.959 . S
H544 C537 0.961 . S
H545 C537 0.960 . S
H546 C538 0.930 . S
H547 C539 0.929 . S
H548 C556 0.929 . S
H549 C558 0.930 . S
H550 C560 0.930 . S
H551 C563 0.929 . S
H552 C566 0.930 . S
H553 C568 0.960 . S
H554 C568 0.960 . S
H555 C568 0.960 . S
C556 H548 0.929 . S
C556 C557 1.377 . S
C556 C558 1.384 . S
C557 C556 1.377 . S
C557 C563 1.390 . S
C558 H549 0.930 . S
C558 C556 1.384 . S
C558 C559 1.372 . S
C559 C558 1.372 . S
C559 C560 1.400 . S
C559 C564 1.490 . S
C560 H550 0.930 . S
C560 C559 1.400 . S
C560 C563 1.386 . S
H561 C577 0.930 . S
H562 C578 0.931 . S
C563 H551 0.929 . S
C563 C557 1.390 . S
C563 C560 1.386 . S
C564 C559 1.490 . S
C564 C566 1.395 . S
C564 C567 1.403 . S
H565 C571 0.930 . S
C566 H552 0.930 . S
C566 C564 1.395 . S
C566 C569 1.403 . S
C567 C564 1.403 . S
C567 C568 1.524 . S
C567 C571 1.400 . S
C568 H553 0.960 . S
C568 H554 0.960 . S
C568 H555 0.960 . S
C568 C567 1.524 . S
C569 C566 1.403 . S
C569 C570 1.392 . S
C569 C573 1.495 . S
C570 C569 1.392 . S
C570 C571 1.385 . S
C570 C572 1.478 . S
C571 H565 0.930 . S
C571 C567 1.400 . S
C571 C570 1.385 . S
C572 C570 1.478 . S
C572 C574 1.381 . S
C572 C578 1.383 . S
C573 C569 1.495 . S
C573 H579 0.959 . S
C573 H580 0.961 . S
C573 H581 0.960 . S
C574 C572 1.381 . S
C574 C575 1.394 . S
C574 H582 0.930 . S
C575 C574 1.394 . S
C575 C576 1.383 . S
C575 H583 0.929 . S
C576 C575 1.383 . S
C576 C577 1.377 . S
C577 H561 0.930 . S
C577 C576 1.377 . S
C577 C578 1.379 . S
C578 H562 0.931 . S
C578 C572 1.383 . S
C578 C577 1.379 . S
H579 C573 0.959 . S
H580 C573 0.961 . S
H581 C573 0.960 . S
H582 C574 0.930 . S
H583 C575 0.929 . S
H584 C592 0.929 . S
H585 C594 0.930 . S
H586 C596 0.930 . S
H587 C599 0.929 . S
H588 C602 0.930 . S
H589 C604 0.960 . S
H590 C604 0.960 . S
H591 C604 0.960 . S
C592 H584 0.929 . S
C592 C593 1.377 . S
C592 C594 1.384 . S
C593 C592 1.377 . S
C593 C599 1.390 . S
C594 H585 0.930 . S
C594 C592 1.384 . S
C594 C595 1.372 . S
C595 C594 1.372 . S
C595 C596 1.400 . S
C595 C600 1.490 . S
C596 H586 0.930 . S
C596 C595 1.400 . S
C596 C599 1.386 . S
H597 C613 0.930 . S
H598 C614 0.931 . S
C599 H587 0.929 . S
C599 C593 1.390 . S
C599 C596 1.386 . S
C600 C595 1.490 . S
C600 C602 1.395 . S
C600 C603 1.403 . S
H601 C607 0.930 . S
C602 H588 0.930 . S
C602 C600 1.395 . S
C602 C605 1.403 . S
C603 C600 1.403 . S
C603 C604 1.524 . S
C603 C607 1.400 . S
C604 H589 0.960 . S
C604 H590 0.960 . S
C604 H591 0.960 . S
C604 C603 1.524 . S
C605 C602 1.403 . S
C605 C606 1.392 . S
C605 C609 1.495 . S
C606 C605 1.392 . S
C606 C607 1.385 . S
C606 C608 1.478 . S
C607 H601 0.930 . S
C607 C603 1.400 . S
C607 C606 1.385 . S
C608 C606 1.478 . S
C608 C610 1.381 . S
C608 C614 1.383 . S
C609 C605 1.495 . S
C609 H615 0.959 . S
C609 H616 0.961 . S
C609 H617 0.960 . S
C610 C608 1.381 . S
C610 C611 1.394 . S
C610 H618 0.930 . S
C611 C610 1.394 . S
C611 C612 1.383 . S
C611 H619 0.929 . S
C612 C611 1.383 . S
C612 C613 1.377 . S
C613 H597 0.930 . S
C613 C612 1.377 . S
C613 C614 1.379 . S
C614 H598 0.931 . S
C614 C608 1.383 . S
C614 C613 1.379 . S
H615 C609 0.959 . S
H616 C609 0.961 . S
H617 C609 0.960 . S
H618 C610 0.930 . S
H619 C611 0.929 . S
H620 C628 0.929 . S
H621 C630 0.930 . S
H622 C632 0.930 . S
H623 C635 0.929 . S
H624 C638 0.930 . S
H625 C640 0.960 . S
H626 C640 0.960 . S
H627 C640 0.960 . S
C628 H620 0.929 . S
C628 C629 1.377 . S
C628 C630 1.384 . S
C629 C628 1.377 . S
C629 C635 1.390 . S
C630 H621 0.930 . S
C630 C628 1.384 . S
C630 C631 1.372 . S
C631 C630 1.372 . S
C631 C632 1.400 . S
C631 C636 1.490 . S
C632 H622 0.930 . S
C632 C631 1.400 . S
C632 C635 1.386 . S
H633 C649 0.930 . S
H634 C650 0.931 . S
C635 H623 0.929 . S
C635 C629 1.390 . S
C635 C632 1.386 . S
C636 C631 1.490 . S
C636 C638 1.395 . S
C636 C639 1.403 . S
H637 C643 0.930 . S
C638 H624 0.930 . S
C638 C636 1.395 . S
C638 C641 1.403 . S
C639 C636 1.403 . S
C639 C640 1.524 . S
C639 C643 1.400 . S
C640 H625 0.960 . S
C640 H626 0.960 . S
C640 H627 0.960 . S
C640 C639 1.524 . S
C641 C638 1.403 . S
C641 C642 1.392 . S
C641 C645 1.495 . S
C642 C641 1.392 . S
C642 C643 1.385 . S
C642 C644 1.478 . S
C643 H637 0.930 . S
C643 C639 1.400 . S
C643 C642 1.385 . S
C644 C642 1.478 . S
C644 C646 1.381 . S
C644 C650 1.383 . S
C645 C641 1.495 . S
C645 H651 0.959 . S
C645 H652 0.961 . S
C645 H653 0.960 . S
C646 C644 1.381 . S
C646 C647 1.394 . S
C646 H654 0.930 . S
C647 C646 1.394 . S
C647 C648 1.383 . S
C647 H655 0.929 . S
C648 C647 1.383 . S
C648 C649 1.377 . S
C649 H633 0.930 . S
C649 C648 1.377 . S
C649 C650 1.379 . S
C650 H634 0.931 . S
C650 C644 1.383 . S
C650 C649 1.379 . S
H651 C645 0.959 . S
H652 C645 0.961 . S
H653 C645 0.960 . S
H654 C646 0.930 . S
H655 C647 0.929 . S
H656 C664 0.929 . S
H657 C666 0.930 . S
H658 C668 0.930 . S
H659 C671 0.929 . S
H660 C674 0.930 . S
H661 C676 0.960 . S
H662 C676 0.960 . S
H663 C676 0.960 . S
C664 H656 0.929 . S
C664 C665 1.377 . S
C664 C666 1.384 . S
C665 C664 1.377 . S
C665 C671 1.390 . S
C666 H657 0.930 . S
C666 C664 1.384 . S
C666 C667 1.372 . S
C667 C666 1.372 . S
C667 C668 1.400 . S
C667 C672 1.490 . S
C668 H658 0.930 . S
C668 C667 1.400 . S
C668 C671 1.386 . S
H669 C685 0.930 . S
H670 C686 0.931 . S
C671 H659 0.929 . S
C671 C665 1.390 . S
C671 C668 1.386 . S
C672 C667 1.490 . S
C672 C674 1.395 . S
C672 C675 1.403 . S
H673 C679 0.930 . S
C674 H660 0.930 . S
C674 C672 1.395 . S
C674 C677 1.403 . S
C675 C672 1.403 . S
C675 C676 1.524 . S
C675 C679 1.400 . S
C676 H661 0.960 . S
C676 H662 0.960 . S
C676 H663 0.960 . S
C676 C675 1.524 . S
C677 C674 1.403 . S
C677 C678 1.392 . S
C677 C681 1.495 . S
C678 C677 1.392 . S
C678 C679 1.385 . S
C678 C680 1.478 . S
C679 H673 0.930 . S
C679 C675 1.400 . S
C679 C678 1.385 . S
C680 C678 1.478 . S
C680 C682 1.381 . S
C680 C686 1.383 . S
C681 C677 1.495 . S
C681 H687 0.959 . S
C681 H688 0.961 . S
C681 H689 0.960 . S
C682 C680 1.381 . S
C682 C683 1.394 . S
C682 H690 0.930 . S
C683 C682 1.394 . S
C683 C684 1.383 . S
C683 H691 0.929 . S
C684 C683 1.383 . S
C684 C685 1.377 . S
C685 H669 0.930 . S
C685 C684 1.377 . S
C685 C686 1.379 . S
C686 H670 0.931 . S
C686 C680 1.383 . S
C686 C685 1.379 . S
H687 C681 0.959 . S
H688 C681 0.961 . S
H689 C681 0.960 . S
H690 C682 0.930 . S
H691 C683 0.929 . S
H692 C700 0.929 . S
H693 C702 0.930 . S
H694 C704 0.930 . S
H695 C707 0.929 . S
H696 C710 0.930 . S
H697 C712 0.960 . S
H698 C712 0.960 . S
H699 C712 0.960 . S
C700 H692 0.929 . S
C700 C701 1.377 . S
C700 C702 1.384 . S
C701 C700 1.377 . S
C701 C707 1.390 . S
C702 H693 0.930 . S
C702 C700 1.384 . S
C702 C703 1.372 . S
C703 C702 1.372 . S
C703 C704 1.400 . S
C703 C708 1.490 . S
C704 H694 0.930 . S
C704 C703 1.400 . S
C704 C707 1.386 . S
H705 C721 0.930 . S
H706 C722 0.931 . S
C707 H695 0.929 . S
C707 C701 1.390 . S
C707 C704 1.386 . S
C708 C703 1.490 . S
C708 C710 1.395 . S
C708 C711 1.403 . S
H709 C715 0.930 . S
C710 H696 0.930 . S
C710 C708 1.395 . S
C710 C713 1.403 . S
C711 C708 1.403 . S
C711 C712 1.524 . S
C711 C715 1.400 . S
C712 H697 0.960 . S
C712 H698 0.960 . S
C712 H699 0.960 . S
C712 C711 1.524 . S
C713 C710 1.403 . S
C713 C714 1.392 . S
C713 C717 1.495 . S
C714 C713 1.392 . S
C714 C715 1.385 . S
C714 C716 1.478 . S
C715 H709 0.930 . S
C715 C711 1.400 . S
C715 C714 1.385 . S
C716 C714 1.478 . S
C716 C718 1.381 . S
C716 C722 1.383 . S
C717 C713 1.495 . S
C717 H723 0.959 . S
C717 H724 0.961 . S
C717 H725 0.960 . S
C718 C716 1.381 . S
C718 C719 1.394 . S
C718 H726 0.930 . S
C719 C718 1.394 . S
C719 C720 1.383 . S
C719 H727 0.929 . S
C720 C719 1.383 . S
C720 C721 1.377 . S
C721 H705 0.930 . S
C721 C720 1.377 . S
C721 C722 1.379 . S
C722 H706 0.931 . S
C722 C716 1.383 . S
C722 C721 1.379 . S
H723 C717 0.959 . S
H724 C717 0.961 . S
H725 C717 0.960 . S
H726 C718 0.930 . S
H727 C719 0.929 . S
H728 C736 0.929 . S
H729 C738 0.930 . S
H730 C740 0.930 . S
H731 C743 0.929 . S
H732 C746 0.930 . S
H733 C748 0.960 . S
H734 C748 0.960 . S
H735 C748 0.960 . S
C736 H728 0.929 . S
C736 C737 1.377 . S
C736 C738 1.384 . S
C737 C736 1.377 . S
C737 C743 1.390 . S
C738 H729 0.930 . S
C738 C736 1.384 . S
C738 C739 1.372 . S
C739 C738 1.372 . S
C739 C740 1.400 . S
C739 C744 1.490 . S
C740 H730 0.930 . S
C740 C739 1.400 . S
C740 C743 1.386 . S
H741 C757 0.930 . S
H742 C758 0.931 . S
C743 H731 0.929 . S
C743 C737 1.390 . S
C743 C740 1.386 . S
C744 C739 1.490 . S
C744 C746 1.395 . S
C744 C747 1.403 . S
H745 C751 0.930 . S
C746 H732 0.930 . S
C746 C744 1.395 . S
C746 C749 1.403 . S
C747 C744 1.403 . S
C747 C748 1.524 . S
C747 C751 1.400 . S
C748 H733 0.960 . S
C748 H734 0.960 . S
C748 H735 0.960 . S
C748 C747 1.524 . S
C749 C746 1.403 . S
C749 C750 1.392 . S
C749 C753 1.495 . S
C750 C749 1.392 . S
C750 C751 1.385 . S
C750 C752 1.478 . S
C751 H745 0.930 . S
C751 C747 1.400 . S
C751 C750 1.385 . S
C752 C750 1.478 . S
C752 C754 1.381 . S
C752 C758 1.383 . S
C753 C749 1.495 . S
C753 H759 0.959 . S
C753 H760 0.961 . S
C753 H761 0.960 . S
C754 C752 1.381 . S
C754 C755 1.394 . S
C754 H762 0.930 . S
C755 C754 1.394 . S
C755 C756 1.383 . S
C755 H763 0.929 . S
C756 C755 1.383 . S
C756 C757 1.377 . S
C757 H741 0.930 . S
C757 C756 1.377 . S
C757 C758 1.379 . S
C758 H742 0.931 . S
C758 C752 1.383 . S
C758 C757 1.379 . S
H759 C753 0.959 . S
H760 C753 0.961 . S
H761 C753 0.960 . S
H762 C754 0.930 . S
H763 C755 0.929 . S
H764 C772 0.929 . S
H765 C774 0.930 . S
H766 C776 0.930 . S
H767 C779 0.929 . S
H768 C782 0.930 . S
H769 C784 0.960 . S
H770 C784 0.960 . S
H771 C784 0.960 . S
C772 H764 0.929 . S
C772 C773 1.377 . S
C772 C774 1.384 . S
C773 C772 1.377 . S
C773 C779 1.390 . S
C774 H765 0.930 . S
C774 C772 1.384 . S
C774 C775 1.372 . S
C775 C774 1.372 . S
C775 C776 1.400 . S
C775 C780 1.490 . S
C776 H766 0.930 . S
C776 C775 1.400 . S
C776 C779 1.386 . S
H777 C793 0.930 . S
H778 C794 0.931 . S
C779 H767 0.929 . S
C779 C773 1.390 . S
C779 C776 1.386 . S
C780 C775 1.490 . S
C780 C782 1.395 . S
C780 C783 1.403 . S
H781 C787 0.930 . S
C782 H768 0.930 . S
C782 C780 1.395 . S
C782 C785 1.403 . S
C783 C780 1.403 . S
C783 C784 1.524 . S
C783 C787 1.400 . S
C784 H769 0.960 . S
C784 H770 0.960 . S
C784 H771 0.960 . S
C784 C783 1.524 . S
C785 C782 1.403 . S
C785 C786 1.392 . S
C785 C789 1.495 . S
C786 C785 1.392 . S
C786 C787 1.385 . S
C786 C788 1.478 . S
C787 H781 0.930 . S
C787 C783 1.400 . S
C787 C786 1.385 . S
C788 C786 1.478 . S
C788 C790 1.381 . S
C788 C794 1.383 . S
C789 C785 1.495 . S
C789 H795 0.959 . S
C789 H796 0.961 . S
C789 H797 0.960 . S
C790 C788 1.381 . S
C790 C791 1.394 . S
C790 H798 0.930 . S
C791 C790 1.394 . S
C791 C792 1.383 . S
C791 H799 0.929 . S
C792 C791 1.383 . S
C792 C793 1.377 . S
C793 H777 0.930 . S
C793 C792 1.377 . S
C793 C794 1.379 . S
C794 H778 0.931 . S
C794 C788 1.383 . S
C794 C793 1.379 . S
H795 C789 0.959 . S
H796 C789 0.961 . S
H797 C789 0.960 . S
H798 C790 0.930 . S
H799 C791 0.929 . S
H800 C808 0.929 . S
H801 C810 0.930 . S
H802 C812 0.930 . S
H803 C815 0.929 . S
H804 C818 0.930 . S
H805 C820 0.960 . S
H806 C820 0.960 . S
H807 C820 0.960 . S
C808 H800 0.929 . S
C808 C809 1.377 . S
C808 C810 1.384 . S
C809 C808 1.377 . S
C809 C815 1.390 . S
C810 H801 0.930 . S
C810 C808 1.384 . S
C810 C811 1.372 . S
C811 C810 1.372 . S
C811 C812 1.400 . S
C811 C816 1.490 . S
C812 H802 0.930 . S
C812 C811 1.400 . S
C812 C815 1.386 . S
H813 C829 0.930 . S
H814 C830 0.931 . S
C815 H803 0.929 . S
C815 C809 1.390 . S
C815 C812 1.386 . S
C816 C811 1.490 . S
C816 C818 1.395 . S
C816 C819 1.403 . S
H817 C823 0.930 . S
C818 H804 0.930 . S
C818 C816 1.395 . S
C818 C821 1.403 . S
C819 C816 1.403 . S
C819 C820 1.524 . S
C819 C823 1.400 . S
C820 H805 0.960 . S
C820 H806 0.960 . S
C820 H807 0.960 . S
C820 C819 1.524 . S
C821 C818 1.403 . S
C821 C822 1.392 . S
C821 C825 1.495 . S
C822 C821 1.392 . S
C822 C823 1.385 . S
C822 C824 1.478 . S
C823 H817 0.930 . S
C823 C819 1.400 . S
C823 C822 1.385 . S
C824 C822 1.478 . S
C824 C826 1.381 . S
C824 C830 1.383 . S
C825 C821 1.495 . S
C825 H831 0.959 . S
C825 H832 0.961 . S
C825 H833 0.960 . S
C826 C824 1.381 . S
C826 C827 1.394 . S
C826 H834 0.930 . S
C827 C826 1.394 . S
C827 C828 1.383 . S
C827 H835 0.929 . S
C828 C827 1.383 . S
C828 C829 1.377 . S
C829 H813 0.930 . S
C829 C828 1.377 . S
C829 C830 1.379 . S
C830 H814 0.931 . S
C830 C824 1.383 . S
C830 C829 1.379 . S
H831 C825 0.959 . S
H832 C825 0.961 . S
H833 C825 0.960 . S
H834 C826 0.930 . S
H835 C827 0.929 . S
H836 C844 0.929 . S
H837 C846 0.930 . S
H838 C848 0.930 . S
H839 C851 0.929 . S
H840 C854 0.930 . S
H841 C856 0.960 . S
H842 C856 0.960 . S
H843 C856 0.960 . S
C844 H836 0.929 . S
C844 C845 1.377 . S
C844 C846 1.384 . S
C845 C844 1.377 . S
C845 C851 1.390 . S
C846 H837 0.930 . S
C846 C844 1.384 . S
C846 C847 1.372 . S
C847 C846 1.372 . S
C847 C848 1.400 . S
C847 C852 1.490 . S
C848 H838 0.930 . S
C848 C847 1.400 . S
C848 C851 1.386 . S
H849 C865 0.930 . S
H850 C866 0.931 . S
C851 H839 0.929 . S
C851 C845 1.390 . S
C851 C848 1.386 . S
C852 C847 1.490 . S
C852 C854 1.395 . S
C852 C855 1.403 . S
H853 C859 0.930 . S
C854 H840 0.930 . S
C854 C852 1.395 . S
C854 C857 1.403 . S
C855 C852 1.403 . S
C855 C856 1.524 . S
C855 C859 1.400 . S
C856 H841 0.960 . S
C856 H842 0.960 . S
C856 H843 0.960 . S
C856 C855 1.524 . S
C857 C854 1.403 . S
C857 C858 1.392 . S
C857 C861 1.495 . S
C858 C857 1.392 . S
C858 C859 1.385 . S
C858 C860 1.478 . S
C859 H853 0.930 . S
C859 C855 1.400 . S
C859 C858 1.385 . S
C860 C858 1.478 . S
C860 C862 1.381 . S
C860 C866 1.383 . S
C861 C857 1.495 . S
C861 H867 0.959 . S
C861 H868 0.961 . S
C861 H869 0.960 . S
C862 C860 1.381 . S
C862 C863 1.394 . S
C862 H870 0.930 . S
C863 C862 1.394 . S
C863 C864 1.383 . S
C863 H871 0.929 . S
C864 C863 1.383 . S
C864 C865 1.377 . S
C865 H849 0.930 . S
C865 C864 1.377 . S
C865 C866 1.379 . S
C866 H850 0.931 . S
C866 C860 1.383 . S
C866 C865 1.379 . S
H867 C861 0.959 . S
H868 C861 0.961 . S
H869 C861 0.960 . S
H870 C862 0.930 . S
H871 C863 0.929 . S
H872 C880 0.929 . S
H873 C882 0.930 . S
H874 C884 0.930 . S
H875 C887 0.929 . S
H876 C890 0.930 . S
H877 C892 0.960 . S
H878 C892 0.960 . S
H879 C892 0.960 . S
C880 H872 0.929 . S
C880 C881 1.377 . S
C880 C882 1.384 . S
C881 C880 1.377 . S
C881 C887 1.390 . S
C882 H873 0.930 . S
C882 C880 1.384 . S
C882 C883 1.372 . S
C883 C882 1.372 . S
C883 C884 1.400 . S
C883 C888 1.490 . S
C884 H874 0.930 . S
C884 C883 1.400 . S
C884 C887 1.386 . S
H885 C901 0.930 . S
H886 C902 0.931 . S
C887 H875 0.929 . S
C887 C881 1.390 . S
C887 C884 1.386 . S
C888 C883 1.490 . S
C888 C890 1.395 . S
C888 C891 1.403 . S
H889 C895 0.930 . S
C890 H876 0.930 . S
C890 C888 1.395 . S
C890 C893 1.403 . S
C891 C888 1.403 . S
C891 C892 1.524 . S
C891 C895 1.400 . S
C892 H877 0.960 . S
C892 H878 0.960 . S
C892 H879 0.960 . S
C892 C891 1.524 . S
C893 C890 1.403 . S
C893 C894 1.392 . S
C893 C897 1.495 . S
C894 C893 1.392 . S
C894 C895 1.385 . S
C894 C896 1.478 . S
C895 H889 0.930 . S
C895 C891 1.400 . S
C895 C894 1.385 . S
C896 C894 1.478 . S
C896 C898 1.381 . S
C896 C902 1.383 . S
C897 C893 1.495 . S
C897 H903 0.959 . S
C897 H904 0.961 . S
C897 H905 0.960 . S
C898 C896 1.381 . S
C898 C899 1.394 . S
C898 H906 0.930 . S
C899 C898 1.394 . S
C899 C900 1.383 . S
C899 H907 0.929 . S
C900 C899 1.383 . S
C900 C901 1.377 . S
C901 H885 0.930 . S
C901 C900 1.377 . S
C901 C902 1.379 . S
C902 H886 0.931 . S
C902 C896 1.383 . S
C902 C901 1.379 . S
H903 C897 0.959 . S
H904 C897 0.961 . S
H905 C897 0.960 . S
H906 C898 0.930 . S
H907 C899 0.929 . S
H908 C916 0.929 . S
H909 C918 0.930 . S
H910 C920 0.930 . S
H911 C923 0.929 . S
H912 C926 0.930 . S
H913 C928 0.960 . S
H914 C928 0.960 . S
H915 C928 0.960 . S
C916 H908 0.929 . S
C916 C917 1.377 . S
C916 C918 1.384 . S
C917 C916 1.377 . S
C917 C923 1.390 . S
C918 H909 0.930 . S
C918 C916 1.384 . S
C918 C919 1.372 . S
C919 C918 1.372 . S
C919 C920 1.400 . S
C919 C924 1.490 . S
C920 H910 0.930 . S
C920 C919 1.400 . S
C920 C923 1.386 . S
H921 C937 0.930 . S
H922 C938 0.931 . S
C923 H911 0.929 . S
C923 C917 1.390 . S
C923 C920 1.386 . S
C924 C919 1.490 . S
C924 C926 1.395 . S
C924 C927 1.403 . S
H925 C931 0.930 . S
C926 H912 0.930 . S
C926 C924 1.395 . S
C926 C929 1.403 . S
C927 C924 1.403 . S
C927 C928 1.524 . S
C927 C931 1.400 . S
C928 H913 0.960 . S
C928 H914 0.960 . S
C928 H915 0.960 . S
C928 C927 1.524 . S
C929 C926 1.403 . S
C929 C930 1.392 . S
C929 C933 1.495 . S
C930 C929 1.392 . S
C930 C931 1.385 . S
C930 C932 1.478 . S
C931 H925 0.930 . S
C931 C927 1.400 . S
C931 C930 1.385 . S
C932 C930 1.478 . S
C932 C934 1.381 . S
C932 C938 1.383 . S
C933 C929 1.495 . S
C933 H939 0.959 . S
C933 H940 0.961 . S
C933 H941 0.960 . S
C934 C932 1.381 . S
C934 C935 1.394 . S
C934 H942 0.930 . S
C935 C934 1.394 . S
C935 C936 1.383 . S
C935 H943 0.929 . S
C936 C935 1.383 . S
C936 C937 1.377 . S
C937 H921 0.930 . S
C937 C936 1.377 . S
C937 C938 1.379 . S
C938 H922 0.931 . S
C938 C932 1.383 . S
C938 C937 1.379 . S
H939 C933 0.959 . S
H940 C933 0.961 . S
H941 C933 0.960 . S
H942 C934 0.930 . S
H943 C935 0.929 . S
H944 C952 0.929 . S
H945 C954 0.930 . S
H946 C956 0.930 . S
H947 C959 0.929 . S
H948 C962 0.930 . S
H949 C964 0.960 . S
H950 C964 0.960 . S
H951 C964 0.960 . S
C952 H944 0.929 . S
C952 C953 1.377 . S
C952 C954 1.384 . S
C953 C952 1.377 . S
C953 C959 1.390 . S
C954 H945 0.930 . S
C954 C952 1.384 . S
C954 C955 1.372 . S
C955 C954 1.372 . S
C955 C956 1.400 . S
C955 C960 1.490 . S
C956 H946 0.930 . S
C956 C955 1.400 . S
C956 C959 1.386 . S
H957 C973 0.930 . S
H958 C974 0.931 . S
C959 H947 0.929 . S
C959 C953 1.390 . S
C959 C956 1.386 . S
C960 C955 1.490 . S
C960 C962 1.395 . S
C960 C963 1.403 . S
H961 C967 0.930 . S
C962 H948 0.930 . S
C962 C960 1.395 . S
C962 C965 1.403 . S
C963 C960 1.403 . S
C963 C964 1.524 . S
C963 C967 1.400 . S
C964 H949 0.960 . S
C964 H950 0.960 . S
C964 H951 0.960 . S
C964 C963 1.524 . S
C965 C962 1.403 . S
C965 C966 1.392 . S
C965 C969 1.495 . S
C966 C965 1.392 . S
C966 C967 1.385 . S
C966 C968 1.478 . S
C967 H961 0.930 . S
C967 C963 1.400 . S
C967 C966 1.385 . S
C968 C966 1.478 . S
C968 C970 1.381 . S
C968 C974 1.383 . S
C969 C965 1.495 . S
C969 H975 0.959 . S
C969 H976 0.961 . S
C969 H977 0.960 . S
C970 C968 1.381 . S
C970 C971 1.394 . S
C970 H978 0.930 . S
C971 C970 1.394 . S
C971 C972 1.383 . S
C971 H979 0.929 . S
C972 C971 1.383 . S
C972 C973 1.377 . S
C973 H957 0.930 . S
C973 C972 1.377 . S
C973 C974 1.379 . S
C974 H958 0.931 . S
C974 C968 1.383 . S
C974 C973 1.379 . S
H975 C969 0.959 . S
H976 C969 0.961 . S
H977 C969 0.960 . S
H978 C970 0.930 . S
H979 C971 0.929 . S
H980 C988 0.929 . S
H981 C990 0.930 . S
H982 C992 0.930 . S
H983 C995 0.929 . S
H984 C998 0.930 . S
H985 C1000 0.960 . S
H986 C1000 0.960 . S
H987 C1000 0.960 . S
C988 H980 0.929 . S
C988 C989 1.377 . S
C988 C990 1.384 . S
C989 C988 1.377 . S
C989 C995 1.390 . S
C990 H981 0.930 . S
C990 C988 1.384 . S
C990 C991 1.372 . S
C991 C990 1.372 . S
C991 C992 1.400 . S
C991 C996 1.490 . S
C992 H982 0.930 . S
C992 C991 1.400 . S
C992 C995 1.386 . S
H993 C1009 0.930 . S
H994 C1010 0.931 . S
C995 H983 0.929 . S
C995 C989 1.390 . S
C995 C992 1.386 . S
C996 C991 1.490 . S
C996 C998 1.395 . S
C996 C999 1.403 . S
H997 C1003 0.930 . S
C998 H984 0.930 . S
C998 C996 1.395 . S
C998 C1001 1.403 . S
C999 C996 1.403 . S
C999 C1000 1.524 . S
C999 C1003 1.400 . S
C1000 H985 0.960 . S
C1000 H986 0.960 . S
C1000 H987 0.960 . S
C1000 C999 1.524 . S
C1001 C998 1.403 . S
C1001 C1002 1.392 . S
C1001 C1005 1.495 . S
C1002 C1001 1.392 . S
C1002 C1003 1.385 . S
C1002 C1004 1.478 . S
C1003 H997 0.930 . S
C1003 C999 1.400 . S
C1003 C1002 1.385 . S
C1004 C1002 1.478 . S
C1004 C1006 1.381 . S
C1004 C1010 1.383 . S
C1005 C1001 1.495 . S
C1005 H1011 0.959 . S
C1005 H1012 0.961 . S
C1005 H1013 0.960 . S
C1006 C1004 1.381 . S
C1006 C1007 1.394 . S
C1006 H1014 0.930 . S
C1007 C1006 1.394 . S
C1007 C1008 1.383 . S
C1007 H1015 0.929 . S
C1008 C1007 1.383 . S
C1008 C1009 1.377 . S
C1009 H993 0.930 . S
C1009 C1008 1.377 . S
C1009 C1010 1.379 . S
C1010 H994 0.931 . S
C1010 C1004 1.383 . S
C1010 C1009 1.379 . S
H1011 C1005 0.959 . S
H1012 C1005 0.961 . S
H1013 C1005 0.960 . S
H1014 C1006 0.930 . S
H1015 C1007 0.929 . S
H1016 C1024 0.929 . S
H1017 C1026 0.930 . S
H1018 C1028 0.930 . S
H1019 C1031 0.929 . S
H1020 C1034 0.930 . S
H1021 C1036 0.960 . S
H1022 C1036 0.960 . S
H1023 C1036 0.960 . S
C1024 H1016 0.929 . S
C1024 C1025 1.377 . S
C1024 C1026 1.384 . S
C1025 C1024 1.377 . S
C1025 C1031 1.390 . S
C1026 H1017 0.930 . S
C1026 C1024 1.384 . S
C1026 C1027 1.372 . S
C1027 C1026 1.372 . S
C1027 C1028 1.400 . S
C1027 C1032 1.490 . S
C1028 H1018 0.930 . S
C1028 C1027 1.400 . S
C1028 C1031 1.386 . S
H1029 C1045 0.930 . S
H1030 C1046 0.931 . S
C1031 H1019 0.929 . S
C1031 C1025 1.390 . S
C1031 C1028 1.386 . S
C1032 C1027 1.490 . S
C1032 C1034 1.395 . S
C1032 C1035 1.403 . S
H1033 C1039 0.930 . S
C1034 H1020 0.930 . S
C1034 C1032 1.395 . S
C1034 C1037 1.403 . S
C1035 C1032 1.403 . S
C1035 C1036 1.524 . S
C1035 C1039 1.400 . S
C1036 H1021 0.960 . S
C1036 H1022 0.960 . S
C1036 H1023 0.960 . S
C1036 C1035 1.524 . S
C1037 C1034 1.403 . S
C1037 C1038 1.392 . S
C1037 C1041 1.495 . S
C1038 C1037 1.392 . S
C1038 C1039 1.385 . S
C1038 C1040 1.478 . S
C1039 H1033 0.930 . S
C1039 C1035 1.400 . S
C1039 C1038 1.385 . S
C1040 C1038 1.478 . S
C1040 C1042 1.381 . S
C1040 C1046 1.383 . S
C1041 C1037 1.495 . S
C1041 H1047 0.959 . S
C1041 H1048 0.961 . S
C1041 H1049 0.960 . S
C1042 C1040 1.381 . S
C1042 C1043 1.394 . S
C1042 H1050 0.930 . S
C1043 C1042 1.394 . S
C1043 C1044 1.383 . S
C1043 H1051 0.929 . S
C1044 C1043 1.383 . S
C1044 C1045 1.377 . S
C1045 H1029 0.930 . S
C1045 C1044 1.377 . S
C1045 C1046 1.379 . S
C1046 H1030 0.931 . S
C1046 C1040 1.383 . S
C1046 C1045 1.379 . S
H1047 C1041 0.959 . S
H1048 C1041 0.961 . S
H1049 C1041 0.960 . S
H1050 C1042 0.930 . S
H1051 C1043 0.929 . S
H1052 C1060 0.929 . S
H1053 C1062 0.930 . S
H1054 C1064 0.930 . S
H1055 C1067 0.929 . S
H1056 C1070 0.930 . S
H1057 C1072 0.960 . S
H1058 C1072 0.960 . S
H1059 C1072 0.960 . S
C1060 H1052 0.929 . S
C1060 C1061 1.377 . S
C1060 C1062 1.384 . S
C1061 C1060 1.377 . S
C1061 C1067 1.390 . S
C1062 H1053 0.930 . S
C1062 C1060 1.384 . S
C1062 C1063 1.372 . S
C1063 C1062 1.372 . S
C1063 C1064 1.400 . S
C1063 C1068 1.490 . S
C1064 H1054 0.930 . S
C1064 C1063 1.400 . S
C1064 C1067 1.386 . S
H1065 C1081 0.930 . S
H1066 C1082 0.931 . S
C1067 H1055 0.929 . S
C1067 C1061 1.390 . S
C1067 C1064 1.386 . S
C1068 C1063 1.490 . S
C1068 C1070 1.395 . S
C1068 C1071 1.403 . S
H1069 C1075 0.930 . S
C1070 H1056 0.930 . S
C1070 C1068 1.395 . S
C1070 C1073 1.403 . S
C1071 C1068 1.403 . S
C1071 C1072 1.524 . S
C1071 C1075 1.400 . S
C1072 H1057 0.960 . S
C1072 H1058 0.960 . S
C1072 H1059 0.960 . S
C1072 C1071 1.524 . S
C1073 C1070 1.403 . S
C1073 C1074 1.392 . S
C1073 C1077 1.495 . S
C1074 C1073 1.392 . S
C1074 C1075 1.385 . S
C1074 C1076 1.478 . S
C1075 H1069 0.930 . S
C1075 C1071 1.400 . S
C1075 C1074 1.385 . S
C1076 C1074 1.478 . S
C1076 C1078 1.381 . S
C1076 C1082 1.383 . S
C1077 C1073 1.495 . S
C1077 H1083 0.959 . S
C1077 H1084 0.961 . S
C1077 H1085 0.960 . S
C1078 C1076 1.381 . S
C1078 C1079 1.394 . S
C1078 H1086 0.930 . S
C1079 C1078 1.394 . S
C1079 C1080 1.383 . S
C1079 H1087 0.929 . S
C1080 C1079 1.383 . S
C1080 C1081 1.377 . S
C1081 H1065 0.930 . S
C1081 C1080 1.377 . S
C1081 C1082 1.379 . S
C1082 H1066 0.931 . S
C1082 C1076 1.383 . S
C1082 C1081 1.379 . S
H1083 C1077 0.959 . S
H1084 C1077 0.961 . S
H1085 C1077 0.960 . S
H1086 C1078 0.930 . S
H1087 C1079 0.929 . S
H1088 C1096 0.935 . S
H1089 C1098 0.930 1_655 S
H1090 C1100 0.930 . S
H1091 C1103 0.929 . S
H1092 C1106 0.930 . S
H1093 C1108 0.960 . S
H1094 C1108 0.960 . S
H1095 C1108 0.960 . S
C1096 H1088 0.935 . S
C1096 C1097 1.377 . S
C1096 C1098 1.384 . S
C1097 C1096 1.377 . S
C1097 C1103 1.390 . S
C1098 H1089 0.930 1_455 S
C1098 C1096 1.384 . S
C1098 C1099 1.372 . S
C1099 C1098 1.372 . S
C1099 C1100 1.400 . S
C1099 C1104 1.490 . S
C1100 H1090 0.930 . S
C1100 C1099 1.400 . S
C1100 C1103 1.386 . S
H1101 C1117 0.930 1_455 S
H1102 C1118 0.931 . S
C1103 H1091 0.929 . S
C1103 C1097 1.390 . S
C1103 C1100 1.386 . S
C1104 C1099 1.490 . S
C1104 C1106 1.395 . S
C1104 C1107 1.403 1_455 S
H1105 C1111 0.930 . S
C1106 H1092 0.930 . S
C1106 C1104 1.395 . S
C1106 C1109 1.403 . S
C1107 C1104 1.403 1_655 S
C1107 C1108 1.524 . S
C1107 C1111 1.400 . S
C1108 H1093 0.960 . S
C1108 H1094 0.960 . S
C1108 H1095 0.960 . S
C1108 C1107 1.524 . S
C1109 C1106 1.403 . S
C1109 C1110 1.392 1_455 S
C1109 C1113 1.495 . S
C1110 C1109 1.392 1_655 S
C1110 C1111 1.385 . S
C1110 C1112 1.478 . S
C1111 H1105 0.930 . S
C1111 C1107 1.400 . S
C1111 C1110 1.385 . S
C1112 C1110 1.478 . S
C1112 C1114 1.381 . S
C1112 C1118 1.383 1_655 S
C1113 C1109 1.495 . S
C1113 H1119 0.959 . S
C1113 H1120 0.961 . S
C1113 H1121 0.960 . S
C1114 C1112 1.381 . S
C1114 C1115 1.394 . S
C1114 H1122 0.930 . S
C1115 C1114 1.394 . S
C1115 C1116 1.383 . S
C1115 H1123 0.929 . S
C1116 C1115 1.383 . S
C1116 C1117 1.377 . S
C1117 H1101 0.930 1_655 S
C1117 C1116 1.377 . S
C1117 C1118 1.379 1_655 S
C1118 H1102 0.931 . S
C1118 C1112 1.383 1_455 S
C1118 C1117 1.379 1_455 S
H1119 C1113 0.959 . S
H1120 C1113 0.961 . S
H1121 C1113 0.960 . S
H1122 C1114 0.930 . S
H1123 C1115 0.929 . S
H1124 C1132 0.929 . S
H1125 C1134 0.930 . S
H1126 C1136 0.930 1_545 S
H1127 C1139 0.929 . S
H1128 C1142 0.930 . S
H1129 C1144 0.960 . S
H1130 C1144 0.960 . S
H1131 C1144 0.960 . S
C1132 H1124 0.929 . S
C1132 C1133 1.377 . S
C1132 C1134 1.384 . S
C1133 C1132 1.377 . S
C1133 C1139 1.390 . S
C1134 H1125 0.930 . S
C1134 C1132 1.384 . S
C1134 C1135 1.372 . S
C1135 C1134 1.372 . S
C1135 C1136 1.400 . S
C1135 C1140 1.490 . S
C1136 H1126 0.930 1_565 S
C1136 C1135 1.400 . S
C1136 C1139 1.386 . S
H1137 C1153 0.930 . S
H1138 C1154 0.931 . S
C1139 H1127 0.929 . S
C1139 C1133 1.390 . S
C1139 C1136 1.386 . S
C1140 C1135 1.490 . S
C1140 C1142 1.395 . S
C1140 C1143 1.403 1_565 S
H1141 C1147 0.930 . S
C1142 H1128 0.930 . S
C1142 C1140 1.395 . S
C1142 C1145 1.403 . S
C1143 C1140 1.403 1_545 S
C1143 C1144 1.524 . S
C1143 C1147 1.400 . S
C1144 H1129 0.960 . S
C1144 H1130 0.960 . S
C1144 H1131 0.960 . S
C1144 C1143 1.524 . S
C1145 C1142 1.403 . S
C1145 C1146 1.404 . S
C1145 C1149 1.495 . S
C1146 C1145 1.404 . S
C1146 C1147 1.375 1_565 S
C1146 C1148 1.476 1_565 S
C1147 H1141 0.930 . S
C1147 C1143 1.400 . S
C1147 C1146 1.375 1_545 S
C1148 C1146 1.476 1_545 S
C1148 C1150 1.381 . S
C1148 C1154 1.383 . S
C1149 C1145 1.495 . S
C1149 H1155 0.959 . S
C1149 H1156 0.961 . S
C1149 H1157 0.960 . S
C1150 C1148 1.381 . S
C1150 C1151 1.394 . S
C1150 H1158 0.930 1_545 S
C1151 C1150 1.394 . S
C1151 C1152 1.383 . S
C1151 H1159 0.929 . S
C1152 C1151 1.383 . S
C1152 C1153 1.377 . S
C1153 H1137 0.930 . S
C1153 C1152 1.377 . S
C1153 C1154 1.379 . S
C1154 H1138 0.931 . S
C1154 C1148 1.383 . S
C1154 C1153 1.379 . S
H1155 C1149 0.959 . S
H1156 C1149 0.961 . S
H1157 C1149 0.960 . S
H1158 C1150 0.930 1_565 S
H1159 C1151 0.929 . S
H1160 C1168 0.929 . S
H1161 C1170 0.930 . S
H1162 C1172 0.917 1_655 S
H1163 C1175 0.917 1_655 S
H1164 C1178 0.930 . S
H1165 C1180 0.960 . S
H1166 C1180 0.960 . S
H1167 C1180 0.960 . S
C1168 H1160 0.929 . S
C1168 C1169 1.377 . S
C1168 C1170 1.384 . S
C1169 C1168 1.377 . S
C1169 C1175 1.390 . S
C1170 H1161 0.930 . S
C1170 C1168 1.384 . S
C1170 C1171 1.372 . S
C1171 C1170 1.372 . S
C1171 C1172 1.409 . S
C1171 C1176 1.490 . S
C1172 H1162 0.917 1_455 S
C1172 C1171 1.409 . S
C1172 C1175 1.390 . S
H1173 C1189 0.930 . S
H1174 C1190 0.931 . S
C1175 H1163 0.917 1_455 S
C1175 C1169 1.390 . S
C1175 C1172 1.390 . S
C1176 C1171 1.490 . S
C1176 C1178 1.395 . S
C1176 C1179 1.403 1_455 S
H1177 C1183 0.930 . S
C1178 H1164 0.930 . S
C1178 C1176 1.395 . S
C1178 C1181 1.403 . S
C1179 C1176 1.403 1_655 S
C1179 C1180 1.524 . S
C1179 C1183 1.400 . S
C1180 H1165 0.960 . S
C1180 H1166 0.960 . S
C1180 H1167 0.960 . S
C1180 C1179 1.524 . S
C1181 C1178 1.403 . S
C1181 C1182 1.416 . S
C1181 C1185 1.495 . S
C1182 C1181 1.416 . S
C1182 C1183 1.365 1_455 S
C1182 C1184 1.474 1_455 S
C1183 H1177 0.930 . S
C1183 C1179 1.400 . S
C1183 C1182 1.365 1_655 S
C1184 C1182 1.474 1_655 S
C1184 C1186 1.381 1_655 S
C1184 C1190 1.383 . S
C1185 C1181 1.495 . S
C1185 H1191 0.959 . S
C1185 H1192 0.961 . S
C1185 H1193 0.960 . S
C1186 C1184 1.381 1_455 S
C1186 C1187 1.394 1_455 S
C1186 H1194 0.930 . S
C1187 C1186 1.394 1_655 S
C1187 C1188 1.383 . S
C1187 H1195 0.929 . S
C1188 C1187 1.383 . S
C1188 C1189 1.377 . S
C1189 H1173 0.930 . S
C1189 C1188 1.377 . S
C1189 C1190 1.379 . S
C1190 H1174 0.931 . S
C1190 C1184 1.383 . S
C1190 C1189 1.379 . S
H1191 C1185 0.959 . S
H1192 C1185 0.961 . S
H1193 C1185 0.960 . S
H1194 C1186 0.930 . S
H1195 C1187 0.929 . S
H1196 C1204 0.929 . S
H1197 C1206 0.930 . S
H1198 C1208 0.930 . S
H1199 C1211 0.929 . S
H1200 C1214 0.930 . S
H1201 C1216 0.960 . S
H1202 C1216 0.960 . S
H1203 C1216 0.960 . S
C1204 H1196 0.929 . S
C1204 C1205 1.377 1_565 S
C1204 C1206 1.384 . S
C1205 C1204 1.377 1_545 S
C1205 C1211 1.390 . S
C1206 H1197 0.930 . S
C1206 C1204 1.384 . S
C1206 C1207 1.372 1_565 S
C1207 C1206 1.372 1_545 S
C1207 C1208 1.400 . S
C1207 C1212 1.490 . S
C1208 H1198 0.930 . S
C1208 C1207 1.400 . S
C1208 C1211 1.386 . S
H1209 C1225 0.930 . S
H1210 C1226 0.931 . S
C1211 H1199 0.929 . S
C1211 C1205 1.390 . S
C1211 C1208 1.386 . S
C1212 C1207 1.490 . S
C1212 C1214 1.395 1_545 S
C1212 C1215 1.403 . S
H1213 C1219 0.930 . S
C1214 H1200 0.930 . S
C1214 C1212 1.395 1_565 S
C1214 C1217 1.403 . S
C1215 C1212 1.403 . S
C1215 C1216 1.524 . S
C1215 C1219 1.400 . S
C1216 H1201 0.960 . S
C1216 H1202 0.960 . S
C1216 H1203 0.960 . S
C1216 C1215 1.524 . S
C1217 C1214 1.403 . S
C1217 C1218 1.392 . S
C1217 C1221 1.495 . S
C1218 C1217 1.392 . S
C1218 C1219 1.385 1_565 S
C1218 C1220 1.478 . S
C1219 H1213 0.930 . S
C1219 C1215 1.400 . S
C1219 C1218 1.385 1_545 S
C1220 C1218 1.478 . S
C1220 C1222 1.381 . S
C1220 C1226 1.383 1_565 S
C1221 C1217 1.495 . S
C1221 H1227 0.959 . S
C1221 H1228 0.961 . S
C1221 H1229 0.960 . S
C1222 C1220 1.381 . S
C1222 C1223 1.394 . S
C1222 H1230 0.930 . S
C1223 C1222 1.394 . S
C1223 C1224 1.383 . S
C1223 H1231 0.929 . S
C1224 C1223 1.383 . S
C1224 C1225 1.377 1_565 S
C1225 H1209 0.930 . S
C1225 C1224 1.377 1_545 S
C1225 C1226 1.379 . S
C1226 H1210 0.931 . S
C1226 C1220 1.383 1_545 S
C1226 C1225 1.379 . S
H1227 C1221 0.959 . S
H1228 C1221 0.961 . S
H1229 C1221 0.960 . S
H1230 C1222 0.930 . S
H1231 C1223 0.929 . S
H1232 C1240 0.929 . S
H1233 C1242 0.930 . S
H1234 C1244 0.930 . S
H1235 C1247 0.929 . S
H1236 C1250 0.930 . S
H1237 C1252 0.960 . S
H1238 C1252 0.960 . S
H1239 C1252 0.960 . S
C1240 H1232 0.929 . S
C1240 C1241 1.377 . S
C1240 C1242 1.384 . S
C1241 C1240 1.377 . S
C1241 C1247 1.390 . S
C1242 H1233 0.930 . S
C1242 C1240 1.384 . S
C1242 C1243 1.372 . S
C1243 C1242 1.372 . S
C1243 C1244 1.400 . S
C1243 C1248 1.490 . S
C1244 H1234 0.930 . S
C1244 C1243 1.400 . S
C1244 C1247 1.386 . S
H1245 C1261 0.930 . S
H1246 C1262 0.931 . S
C1247 H1235 0.929 . S
C1247 C1241 1.390 . S
C1247 C1244 1.386 . S
C1248 C1243 1.490 . S
C1248 C1250 1.395 . S
C1248 C1251 1.403 . S
H1249 C1255 0.930 . S
C1250 H1236 0.930 . S
C1250 C1248 1.395 . S
C1250 C1253 1.403 1_556 S
C1251 C1248 1.403 . S
C1251 C1252 1.524 . S
C1251 C1255 1.400 1_556 S
C1252 H1237 0.960 . S
C1252 H1238 0.960 . S
C1252 H1239 0.960 . S
C1252 C1251 1.524 . S
C1253 C1250 1.403 1_554 S
C1253 C1254 1.392 . S
C1253 C1257 1.495 . S
C1254 C1253 1.392 . S
C1254 C1255 1.385 . S
C1254 C1256 1.478 . S
C1255 H1249 0.930 . S
C1255 C1251 1.400 1_554 S
C1255 C1254 1.385 . S
C1256 C1254 1.478 . S
C1256 C1258 1.381 . S
C1256 C1262 1.383 . S
C1257 C1253 1.495 . S
C1257 H1263 0.959 . S
C1257 H1264 0.961 . S
C1257 H1265 0.960 . S
C1258 C1256 1.381 . S
C1258 C1259 1.394 . S
C1258 H1266 0.930 . S
C1259 C1258 1.394 . S
C1259 C1260 1.383 . S
C1259 H1267 0.929 . S
C1260 C1259 1.383 . S
C1260 C1261 1.377 . S
C1261 H1245 0.930 . S
C1261 C1260 1.377 . S
C1261 C1262 1.379 . S
C1262 H1246 0.931 . S
C1262 C1256 1.383 . S
C1262 C1261 1.379 . S
H1263 C1257 0.959 . S
H1264 C1257 0.961 . S
H1265 C1257 0.960 . S
H1266 C1258 0.930 . S
H1267 C1259 0.929 . S
H1268 C1276 0.929 . S
H1269 C1278 0.930 . S
H1270 C1280 0.930 . S
H1271 C1283 0.929 . S
H1272 C1286 0.930 . S
H1273 C1288 0.960 . S
H1274 C1288 0.960 . S
H1275 C1288 0.960 . S
C1276 H1268 0.929 . S
C1276 C1277 1.377 . S
C1276 C1278 1.384 . S
C1277 C1276 1.377 . S
C1277 C1283 1.390 . S
C1278 H1269 0.930 . S
C1278 C1276 1.384 . S
C1278 C1279 1.372 . S
C1279 C1278 1.372 . S
C1279 C1280 1.400 . S
C1279 C1284 1.490 . S
C1280 H1270 0.930 . S
C1280 C1279 1.400 . S
C1280 C1283 1.386 . S
H1281 C1297 0.930 . S
H1282 C1298 0.931 . S
C1283 H1271 0.929 . S
C1283 C1277 1.390 . S
C1283 C1280 1.386 . S
C1284 C1279 1.490 . S
C1284 C1286 1.395 . S
C1284 C1287 1.403 . S
H1285 C1291 0.930 . S
C1286 H1272 0.930 . S
C1286 C1284 1.395 . S
C1286 C1289 1.403 1_556 S
C1287 C1284 1.403 . S
C1287 C1288 1.524 . S
C1287 C1291 1.400 1_556 S
C1288 H1273 0.960 . S
C1288 H1274 0.960 . S
C1288 H1275 0.960 . S
C1288 C1287 1.524 . S
C1289 C1286 1.403 1_554 S
C1289 C1290 1.392 . S
C1289 C1293 1.495 . S
C1290 C1289 1.392 . S
C1290 C1291 1.385 . S
C1290 C1292 1.478 . S
C1291 H1285 0.930 . S
C1291 C1287 1.400 1_554 S
C1291 C1290 1.385 . S
C1292 C1290 1.478 . S
C1292 C1294 1.381 . S
C1292 C1298 1.383 . S
C1293 C1289 1.495 . S
C1293 H1299 0.959 . S
C1293 H1300 0.961 . S
C1293 H1301 0.960 . S
C1294 C1292 1.381 . S
C1294 C1295 1.394 . S
C1294 H1302 0.930 . S
C1295 C1294 1.394 . S
C1295 C1296 1.383 . S
C1295 H1303 0.929 . S
C1296 C1295 1.383 . S
C1296 C1297 1.377 . S
C1297 H1281 0.930 . S
C1297 C1296 1.377 . S
C1297 C1298 1.379 . S
C1298 H1282 0.931 . S
C1298 C1292 1.383 . S
C1298 C1297 1.379 . S
H1299 C1293 0.959 . S
H1300 C1293 0.961 . S
H1301 C1293 0.960 . S
H1302 C1294 0.930 . S
H1303 C1295 0.929 . S
H1304 C1312 0.929 . S
H1305 C1314 0.930 . S
H1306 C1316 0.930 . S
H1307 C1319 0.929 . S
H1308 C1322 0.930 . S
H1309 C1324 0.960 . S
H1310 C1324 0.960 . S
H1311 C1324 0.960 . S
C1312 H1304 0.929 . S
C1312 C1313 1.377 . S
C1312 C1314 1.384 . S
C1313 C1312 1.377 . S
C1313 C1319 1.390 . S
C1314 H1305 0.930 . S
C1314 C1312 1.384 . S
C1314 C1315 1.372 . S
C1315 C1314 1.372 . S
C1315 C1316 1.400 . S
C1315 C1320 1.490 . S
C1316 H1306 0.930 . S
C1316 C1315 1.400 . S
C1316 C1319 1.386 . S
H1317 C1333 0.930 . S
H1318 C1334 0.931 . S
C1319 H1307 0.929 . S
C1319 C1313 1.390 . S
C1319 C1316 1.386 . S
C1320 C1315 1.490 . S
C1320 C1322 1.395 . S
C1320 C1323 1.403 . S
H1321 C1327 0.930 . S
C1322 H1308 0.930 . S
C1322 C1320 1.395 . S
C1322 C1325 1.403 1_554 S
C1323 C1320 1.403 . S
C1323 C1324 1.524 . S
C1323 C1327 1.400 1_554 S
C1324 H1309 0.960 . S
C1324 H1310 0.960 . S
C1324 H1311 0.960 . S
C1324 C1323 1.524 . S
C1325 C1322 1.403 1_556 S
C1325 C1326 1.392 . S
C1325 C1329 1.495 . S
C1326 C1325 1.392 . S
C1326 C1327 1.385 . S
C1326 C1328 1.478 . S
C1327 H1321 0.930 . S
C1327 C1323 1.400 1_556 S
C1327 C1326 1.385 . S
C1328 C1326 1.478 . S
C1328 C1330 1.381 . S
C1328 C1334 1.383 . S
C1329 C1325 1.495 . S
C1329 H1335 0.959 . S
C1329 H1336 0.961 . S
C1329 H1337 0.960 . S
C1330 C1328 1.381 . S
C1330 C1331 1.394 . S
C1330 H1338 0.930 . S
C1331 C1330 1.394 . S
C1331 C1332 1.383 . S
C1331 H1339 0.929 . S
C1332 C1331 1.383 . S
C1332 C1333 1.377 . S
C1333 H1317 0.930 . S
C1333 C1332 1.377 . S
C1333 C1334 1.379 . S
C1334 H1318 0.931 . S
C1334 C1328 1.383 . S
C1334 C1333 1.379 . S
H1335 C1329 0.959 . S
H1336 C1329 0.961 . S
H1337 C1329 0.960 . S
H1338 C1330 0.930 . S
H1339 C1331 0.929 . S
H1340 C1348 0.929 . S
H1341 C1350 0.930 . S
H1342 C1352 0.930 . S
H1343 C1355 0.929 . S
H1344 C1358 0.930 . S
H1345 C1360 0.960 . S
H1346 C1360 0.960 . S
H1347 C1360 0.960 . S
C1348 H1340 0.929 . S
C1348 C1349 1.377 . S
C1348 C1350 1.384 . S
C1349 C1348 1.377 . S
C1349 C1355 1.390 . S
C1350 H1341 0.930 . S
C1350 C1348 1.384 . S
C1350 C1351 1.372 . S
C1351 C1350 1.372 . S
C1351 C1352 1.400 . S
C1351 C1356 1.490 . S
C1352 H1342 0.930 . S
C1352 C1351 1.400 . S
C1352 C1355 1.386 . S
H1353 C1369 0.930 . S
H1354 C1370 0.931 . S
C1355 H1343 0.929 . S
C1355 C1349 1.390 . S
C1355 C1352 1.386 . S
C1356 C1351 1.490 . S
C1356 C1358 1.395 . S
C1356 C1359 1.403 . S
H1357 C1363 0.930 . S
C1358 H1344 0.930 . S
C1358 C1356 1.395 . S
C1358 C1361 1.403 1_556 S
C1359 C1356 1.403 . S
C1359 C1360 1.524 . S
C1359 C1363 1.400 1_556 S
C1360 H1345 0.960 . S
C1360 H1346 0.960 . S
C1360 H1347 0.960 . S
C1360 C1359 1.524 . S
C1361 C1358 1.403 1_554 S
C1361 C1362 1.392 . S
C1361 C1365 1.495 . S
C1362 C1361 1.392 . S
C1362 C1363 1.385 . S
C1362 C1364 1.478 . S
C1363 H1357 0.930 . S
C1363 C1359 1.400 1_554 S
C1363 C1362 1.385 . S
C1364 C1362 1.478 . S
C1364 C1366 1.381 . S
C1364 C1370 1.383 . S
C1365 C1361 1.495 . S
C1365 H1371 0.959 . S
C1365 H1372 0.961 . S
C1365 H1373 0.960 . S
C1366 C1364 1.381 . S
C1366 C1367 1.394 . S
C1366 H1374 0.930 . S
C1367 C1366 1.394 . S
C1367 C1368 1.383 . S
C1367 H1375 0.929 . S
C1368 C1367 1.383 . S
C1368 C1369 1.377 . S
C1369 H1353 0.930 . S
C1369 C1368 1.377 . S
C1369 C1370 1.379 . S
C1370 H1354 0.931 . S
C1370 C1364 1.383 . S
C1370 C1369 1.379 . S
H1371 C1365 0.959 . S
H1372 C1365 0.961 . S
H1373 C1365 0.960 . S
H1374 C1366 0.930 . S
H1375 C1367 0.929 . S
C233 C7 1.383 . S
C252 C51 1.328 . S
C269 C9 1.364 . S
C288 C21 1.355 . S
C305 C23 1.371 . S
C324 C35 1.352 . S
C341 C37 1.367 . S
C360 C49 1.399 . S
C377 C63 1.377 . S
C396 C79 1.356 . S
C413 C77 1.376 . S
C432 C93 1.362 . S
C449 C91 1.387 . S
C468 C107 1.364 . S
C485 C105 1.386 . S
C504 C65 1.377 . S
C521 C119 1.383 . S
C540 C163 1.388 . S
C557 C121 1.371 . S
C576 C133 1.353 . S
C593 C135 1.369 . S
C612 C147 1.348 . S
C629 C161 1.376 . S
C648 C149 1.358 . S
C665 C191 1.372 . S
C684 C175 1.371 . S
C701 C205 1.359 . S
C720 C189 1.379 . S
C737 C203 1.376 . S
C756 C219 1.373 . S
C773 C217 1.381 . S
C792 C177 1.335 . S
C809 C8 1.103 . S
C828 C218 1.100 . S
C845 C22 1.111 . S
C864 C176 1.126 . S
C881 C190 1.103 . S
C900 C36 1.097 . S
C917 C50 1.103 . S
C936 C204 1.095 . S
C953 C134 1.110 . S
C972 C64 1.115 . S
C989 C148 1.102 . S
C1008 C78 1.083 . S
C1025 C92 1.109 . S
C1044 C162 1.124 . S
C1061 C106 1.110 . S
C1080 C120 1.114 . S
C1097 C3 1.624 . S
C1116 C87 1.616 . S
C1133 C101 1.622 . S
C1152 C17 1.622 . S
C1169 C59 1.622 . S
C1188 C31 1.624 . S
C1205 C73 1.625 . S
C1224 C45 1.611 . S
C1241 C115 1.623 . S
C1260 C199 1.620 . S
C1277 C129 1.623 . S
C1296 C213 1.622 . S
C1313 C171 1.624 . S
C1332 C143 1.613 . S
C1349 C157 1.623 . S
C1368 C185 1.620 . S
