# Generated by pormake.
# Topology bcu-j, (5)-cn, num edge types: 1
# Building blocks:
#     Node 0, Type 0, BuildingBlock: XOMCOT_clean_sbu_1, # of connection points: 5
#     Node 1, Type 0, BuildingBlock: XOMCOT_clean_sbu_1, # of connection points: 5
#     Node 2, Type 0, BuildingBlock: XOMCOT_clean_sbu_1, # of connection points: 5
#     Node 3, Type 0, BuildingBlock: XOMCOT_clean_sbu_1, # of connection points: 5
#     Node 4, Type 0, BuildingBlock: XOMCOT_clean_sbu_1, # of connection points: 5
#     Node 5, Type 0, BuildingBlock: XOMCOT_clean_sbu_1, # of connection points: 5
#     Node 6, Type 0, BuildingBlock: XOMCOT_clean_sbu_1, # of connection points: 5
#     Node 7, Type 0, BuildingBlock: XOMCOT_clean_sbu_1, # of connection points: 5
#     Node 8, Type 0, BuildingBlock: XOMCOT_clean_sbu_1, # of connection points: 5
#     Node 9, Type 0, BuildingBlock: XOMCOT_clean_sbu_1, # of connection points: 5
#     Node 10, Type 0, BuildingBlock: XOMCOT_clean_sbu_1, # of connection points: 5
#     Node 11, Type 0, BuildingBlock: XOMCOT_clean_sbu_1, # of connection points: 5
#     Node 12, Type 0, BuildingBlock: XOMCOT_clean_sbu_1, # of connection points: 5
#     Node 13, Type 0, BuildingBlock: XOMCOT_clean_sbu_1, # of connection points: 5
#     Node 14, Type 0, BuildingBlock: XOMCOT_clean_sbu_1, # of connection points: 5
#     Node 15, Type 0, BuildingBlock: XOMCOT_clean_sbu_1, # of connection points: 5
#     Edge 16, Type (0, 0), BuildingBlock: KIFKEQ_clean_linker_1, # of connection points: 2
#     Edge 17, Type (0, 0), BuildingBlock: KIFKEQ_clean_linker_1, # of connection points: 2
#     Edge 18, Type (0, 0), BuildingBlock: KIFKEQ_clean_linker_1, # of connection points: 2
#     Edge 19, Type (0, 0), BuildingBlock: KIFKEQ_clean_linker_1, # of connection points: 2
#     Edge 20, Type (0, 0), BuildingBlock: KIFKEQ_clean_linker_1, # of connection points: 2
#     Edge 21, Type (0, 0), BuildingBlock: KIFKEQ_clean_linker_1, # of connection points: 2
#     Edge 22, Type (0, 0), BuildingBlock: KIFKEQ_clean_linker_1, # of connection points: 2
#     Edge 23, Type (0, 0), BuildingBlock: KIFKEQ_clean_linker_1, # of connection points: 2
#     Edge 24, Type (0, 0), BuildingBlock: KIFKEQ_clean_linker_1, # of connection points: 2
#     Edge 25, Type (0, 0), BuildingBlock: KIFKEQ_clean_linker_1, # of connection points: 2
#     Edge 26, Type (0, 0), BuildingBlock: KIFKEQ_clean_linker_1, # of connection points: 2
#     Edge 27, Type (0, 0), BuildingBlock: KIFKEQ_clean_linker_1, # of connection points: 2
#     Edge 28, Type (0, 0), BuildingBlock: KIFKEQ_clean_linker_1, # of connection points: 2
#     Edge 29, Type (0, 0), BuildingBlock: KIFKEQ_clean_linker_1, # of connection points: 2
#     Edge 30, Type (0, 0), BuildingBlock: KIFKEQ_clean_linker_1, # of connection points: 2
#     Edge 31, Type (0, 0), BuildingBlock: KIFKEQ_clean_linker_1, # of connection points: 2
#     Edge 32, Type (0, 0), BuildingBlock: KIFKEQ_clean_linker_1, # of connection points: 2
#     Edge 33, Type (0, 0), BuildingBlock: KIFKEQ_clean_linker_1, # of connection points: 2
#     Edge 34, Type (0, 0), BuildingBlock: KIFKEQ_clean_linker_1, # of connection points: 2
#     Edge 35, Type (0, 0), BuildingBlock: KIFKEQ_clean_linker_1, # of connection points: 2
#     Edge 36, Type (0, 0), BuildingBlock: KIFKEQ_clean_linker_1, # of connection points: 2
#     Edge 37, Type (0, 0), BuildingBlock: KIFKEQ_clean_linker_1, # of connection points: 2
#     Edge 38, Type (0, 0), BuildingBlock: KIFKEQ_clean_linker_1, # of connection points: 2
#     Edge 39, Type (0, 0), BuildingBlock: KIFKEQ_clean_linker_1, # of connection points: 2
#     Edge 40, Type (0, 0), BuildingBlock: KIFKEQ_clean_linker_1, # of connection points: 2
#     Edge 41, Type (0, 0), BuildingBlock: KIFKEQ_clean_linker_1, # of connection points: 2
#     Edge 42, Type (0, 0), BuildingBlock: KIFKEQ_clean_linker_1, # of connection points: 2
#     Edge 43, Type (0, 0), BuildingBlock: KIFKEQ_clean_linker_1, # of connection points: 2
#     Edge 44, Type (0, 0), BuildingBlock: KIFKEQ_clean_linker_1, # of connection points: 2
#     Edge 45, Type (0, 0), BuildingBlock: KIFKEQ_clean_linker_1, # of connection points: 2
#     Edge 46, Type (0, 0), BuildingBlock: KIFKEQ_clean_linker_1, # of connection points: 2
#     Edge 47, Type (0, 0), BuildingBlock: KIFKEQ_clean_linker_1, # of connection points: 2
#     Edge 48, Type (0, 0), BuildingBlock: KIFKEQ_clean_linker_1, # of connection points: 2
#     Edge 49, Type (0, 0), BuildingBlock: KIFKEQ_clean_linker_1, # of connection points: 2
#     Edge 50, Type (0, 0), BuildingBlock: KIFKEQ_clean_linker_1, # of connection points: 2
#     Edge 51, Type (0, 0), BuildingBlock: KIFKEQ_clean_linker_1, # of connection points: 2
#     Edge 52, Type (0, 0), BuildingBlock: KIFKEQ_clean_linker_1, # of connection points: 2
#     Edge 53, Type (0, 0), BuildingBlock: KIFKEQ_clean_linker_1, # of connection points: 2
#     Edge 54, Type (0, 0), BuildingBlock: KIFKEQ_clean_linker_1, # of connection points: 2
#     Edge 55, Type (0, 0), BuildingBlock: KIFKEQ_clean_linker_1, # of connection points: 2
# Relax obj value: 0.637
# Max RMSD: 0.289
# Mean RMSD: 0.289
data_MOF--net-bcu-j--node1-XOMCOT_clean_sbu_1--edge1-KIFKEQ_clean_linker_1
_symmetry_space_group_name_H-M    P1
_symmetry_Int_Tables_number       1
_symmetry_cell_setting            triclinic
loop_
_symmetry_equiv_pos_as_xyz
'x, y, z'
_cell_length_a     44.819079
_cell_length_b     44.819707
_cell_length_c     46.637111
_cell_angle_alpha  90.010038
_cell_angle_beta   89.982247
_cell_angle_gamma 90.03034
loop_
_atom_site_label
_atom_site_type_symbol
_atom_site_fract_x
_atom_site_fract_y
_atom_site_fract_z
_atom_type_partial_charge
C0 C 0.05316 0.16252 0.58092 0.0
C1 C 0.08115 0.15142 0.57508 0.0
N2 N 0.09199 0.13932 0.59933 0.0
N3 N 0.04637 0.1569 0.60856 0.0
C4 C 0.07064 0.14301 0.61928 0.0
H5 H 0.03805 0.17263 0.56568 0.0
Co6 Co 0.0091 0.16256 0.62475 0.0
C7 C 0.0106 0.12653 0.67883 0.0
O8 O 0.98261 0.11834 0.67575 0.0
N9 N 0.97118 0.16889 0.64066 0.0
C10 C 0.92246 0.17464 0.6485 0.0
C11 C 0.94371 0.16537 0.62911 0.0
C12 C 0.96597 0.18068 0.66679 0.0
N13 N 0.93663 0.18398 0.67224 0.0
O14 O 0.02215 0.20015 0.63877 0.0
H15 H 0.93903 0.15723 0.60783 0.0
H16 H 0.98354 0.18732 0.68139 0.0
O17 O 0.02267 0.1436 0.66019 0.0
C18 C 0.01512 0.22158 0.62223 0.0
O19 O 0.99731 0.21602 0.60048 0.0
N20 N 0.99714 0.12664 0.60818 0.0
C21 C 0.99092 0.08017 0.56931 0.0
C22 C 0.00285 0.07485 0.59652 0.0
C23 C 0.00653 0.09863 0.61549 0.0
C24 C 0.98474 0.13181 0.58197 0.0
C25 C 0.98129 0.10885 0.56219 0.0
H26 H 0.01934 0.09464 0.63459 0.0
H27 H 0.97961 0.15444 0.57559 0.0
H28 H 0.07209 0.13385 0.64066 0.0
H29 H 0.09226 0.15129 0.55446 0.0
H30 H 0.89854 0.17468 0.64532 0.0
H31 H 0.01158 0.05307 0.60211 0.0
H32 H 0.97273 0.11375 0.54098 0.0
C33 C 0.33316 0.05515 0.58677 0.0
C34 C 0.34454 0.0836 0.58398 0.0
N35 N 0.36145 0.08938 0.60718 0.0
N36 N 0.3427 0.04331 0.61172 0.0
C37 C 0.35983 0.06478 0.62364 0.0
H38 H 0.31913 0.04372 0.57144 0.0
Co39 Co 0.33414 0.00536 0.62563 0.0
C40 C 0.36963 0.00164 0.67922 0.0
O41 O 0.37767 0.97428 0.67265 0.0
N42 N 0.32466 0.96713 0.63977 0.0
C43 C 0.31404 0.91909 0.64725 0.0
C44 C 0.32503 0.93958 0.62786 0.0
C45 C 0.31284 0.96273 0.66604 0.0
N46 N 0.30675 0.93384 0.67133 0.0
O47 O 0.29636 0.01958 0.63811 0.0
H48 H 0.33219 0.93427 0.60641 0.0
H49 H 0.30829 0.98064 0.68099 0.0
O50 O 0.35204 0.01596 0.66262 0.0
C51 C 0.27755 0.01535 0.61809 0.0
O52 O 0.28588 -0.00037 0.59567 0.0
N53 N 0.37035 0.99222 0.61024 0.0
C54 C 0.41869 0.98267 0.57366 0.0
C55 C 0.42249 0.99771 0.59979 0.0
C56 C 0.39799 0.00261 0.61759 0.0
C57 C 0.36631 0.97773 0.58488 0.0
C58 C 0.39024 0.97185 0.56673 0.0
H59 H 0.40115 0.01701 0.63581 0.0
H60 H 0.34399 0.9725 0.57771 0.0
H61 H 0.37113 0.0626 0.64399 0.0
H62 H 0.34132 0.09852 0.56599 0.0
H63 H 0.31166 0.8953 0.64395 0.0
H64 H 0.44369 0.00765 0.60552 0.0
H65 H 0.38607 0.9603 0.54674 0.0
C66 C 0.43365 0.32319 0.58979 0.0
C67 C 0.40536 0.33453 0.58597 0.0
N68 N 0.40224 0.35843 0.60326 0.0
N69 N 0.44812 0.33995 0.60933 0.0
C70 C 0.42849 0.36129 0.617 0.0
H71 H 0.44312 0.30404 0.57902 0.0
Co72 Co 0.48681 0.33473 0.62183 0.0
C73 C 0.48875 0.36984 0.67745 0.0
O74 O 0.51743 0.37574 0.67594 0.0
N75 N 0.52597 0.32878 0.63388 0.0
C76 C 0.57442 0.31776 0.63374 0.0
C77 C 0.55112 0.32919 0.61788 0.0
C78 C 0.53447 0.31703 0.65917 0.0
N79 N 0.56375 0.31058 0.65975 0.0
O80 O 0.47517 0.29774 0.63827 0.0
H81 H 0.55221 0.33548 0.59555 0.0
H82 H 0.51907 0.31143 0.67624 0.0
O83 O 0.47619 0.35473 0.65761 0.0
C84 C 0.48308 0.27435 0.62485 0.0
O85 O 0.50165 0.2769 0.60317 0.0
N86 N 0.49731 0.36991 0.60326 0.0
C87 C 0.50088 0.41625 0.56403 0.0
C88 C 0.49738 0.42233 0.59327 0.0
C89 C 0.49517 0.39871 0.61264 0.0
C90 C 0.50232 0.36383 0.57507 0.0
C91 C 0.50414 0.38669 0.55501 0.0
H92 H 0.48965 0.40399 0.63443 0.0
H93 H 0.50306 0.34087 0.56794 0.0
H94 H 0.43356 0.37913 0.63185 0.0
H95 H 0.38837 0.32575 0.5718 0.0
H96 H 0.59699 0.31375 0.6264 0.0
H97 H 0.49423 0.44499 0.60079 0.0
H98 H 0.5068 0.38126 0.53251 0.0
C99 C 0.16311 0.444 0.58065 0.0
C100 C 0.15298 0.41523 0.57682 0.0
N101 N 0.13818 0.40689 0.60068 0.0
N102 N 0.15465 0.4537 0.60675 0.0
C103 C 0.13967 0.43056 0.61846 0.0
H104 H 0.17521 0.45728 0.56517 0.0
Co105 Co 0.16057 0.49188 0.62116 0.0
C106 C 0.12762 0.49175 0.67657 0.0
O107 O 0.11817 0.51917 0.67259 0.0
N108 N 0.16704 0.53092 0.63579 0.0
C109 C 0.16411 0.57892 0.64866 0.0
C110 C 0.15192 0.55683 0.63179 0.0
C111 C 0.18837 0.53821 0.65503 0.0
N112 N 0.18722 0.56707 0.66289 0.0
O113 O 0.19913 0.47981 0.63305 0.0
H114 H 0.13231 0.55965 0.61868 0.0
H115 H 0.20366 0.52239 0.66451 0.0
O116 O 0.14449 0.47945 0.65797 0.0
C117 C 0.21935 0.48541 0.61469 0.0
O118 O 0.21227 0.50123 0.59195 0.0
N119 N 0.12351 0.50239 0.60654 0.0
C120 C 0.0744 0.50842 0.57056 0.0
C121 C 0.07182 0.49337 0.59682 0.0
C122 C 0.09675 0.49034 0.61444 0.0
C123 C 0.12631 0.51734 0.58129 0.0
C124 C 0.10189 0.52134 0.56333 0.0
H125 H 0.09484 0.47617 0.633 0.0
H126 H 0.14803 0.52532 0.57464 0.0
H127 H 0.12869 0.43142 0.63906 0.0
H128 H 0.15594 0.40174 0.55778 0.0
H129 H 0.1562 0.60163 0.65086 0.0
H130 H 0.05135 0.48216 0.60284 0.0
H131 H 0.10492 0.53336 0.5434 0.0
C132 C 0.0563 0.32205 0.90713 0.0
C133 C 0.08477 0.33238 0.91266 0.0
N134 N 0.08923 0.35705 0.89677 0.0
N135 N 0.04323 0.33992 0.8875 0.0
C136 C 0.06385 0.36107 0.88191 0.0
H137 H 0.046 0.30266 0.91671 0.0
Co138 Co 0.00574 0.33671 0.8703 0.0
C139 C 0.01795 0.35357 0.80993 0.0
O140 O -0.00026 0.33319 0.79977 0.0
N141 N 0.96779 0.33398 0.85302 0.0
C142 C 0.92636 0.3458 0.82918 0.0
C143 C 0.95069 0.35685 0.84364 0.0
C144 C 0.95292 0.30934 0.84443 0.0
N145 N 0.92791 0.31584 0.82961 0.0
O146 O 0.0178 0.29942 0.8545 0.0
H147 H 0.95641 0.38019 0.84544 0.0
H148 H 0.96142 0.28696 0.84656 0.0
O149 O 0.02125 0.35683 0.83686 0.0
C150 C 0.01259 0.277 0.87048 0.0
O151 O 0.99612 0.28076 0.89354 0.0
N152 N 0.99464 0.37209 0.88779 0.0
C153 C 0.98406 0.41948 0.92472 0.0
C154 C 0.99806 0.42421 0.89816 0.0
C155 C 0.00299 0.40018 0.87982 0.0
C156 C 0.97956 0.36728 0.91264 0.0
C157 C 0.97373 0.39074 0.93136 0.0
H158 H 0.01472 0.40413 0.85997 0.0
H159 H 0.97314 0.3448 0.91844 0.0
H160 H 0.06069 0.37898 0.86677 0.0
H161 H 0.10079 0.32268 0.9273 0.0
H162 H 0.90994 0.35879 0.81763 0.0
H163 H 0.00664 0.44592 0.89217 0.0
H164 H 0.96217 0.38616 0.95126 0.0
C165 C 0.17444 0.06608 0.90422 0.0
C166 C 0.16281 0.09452 0.90524 0.0
N167 N 0.13936 0.09575 0.88722 0.0
N168 N 0.15857 0.04968 0.88536 0.0
C169 C 0.13719 0.0683 0.87567 0.0
H170 H 0.19321 0.05798 0.91649 0.0
Co171 Co 0.16436 0.01019 0.87448 0.0
C172 C 0.13983 0.00761 0.81396 0.0
O173 O 0.13872 0.97836 0.81272 0.0
N174 N 0.1704 0.97016 0.86373 0.0
C175 C 0.16725 0.92085 0.85729 0.0
C176 C 0.15553 0.94512 0.87162 0.0
C177 C 0.19135 0.96034 0.8452 0.0
N178 N 0.18992 0.93072 0.84109 0.0
O179 O 0.20384 0.02029 0.86293 0.0
H180 H 0.13692 0.94439 0.88633 0.0
H181 H 0.20658 0.97474 0.83367 0.0
O182 O 0.14939 0.02051 0.83656 0.0
C183 C 0.22261 0.01496 0.88273 0.0
O184 O 0.21337 0.00069 0.90571 0.0
N185 N 0.12666 0.0014 0.88856 0.0
C186 C 0.07494 0.00109 0.92097 0.0
C187 C 0.07327 0.00106 0.89099 0.0
C188 C 0.09965 0.00143 0.87497 0.0
C189 C 0.12842 -0.00081 0.9176 0.0
C190 C 0.10279 -0.00079 0.93429 0.0
H191 H 0.09803 0.00341 0.85205 0.0
H192 H 0.15007 -0.00064 0.92786 0.0
H193 H 0.12044 0.06195 0.86014 0.0
H194 H 0.17073 0.11271 0.91848 0.0
H195 H 0.15951 0.89799 0.85829 0.0
H196 H 0.05194 0.00258 0.88018 0.0
H197 H 0.10473 -0.00097 0.95745 0.0
C198 C 0.44853 0.15988 0.91535 0.0
C199 C 0.4207 0.14845 0.92131 0.0
N200 N 0.40922 0.13759 0.89677 0.0
N201 N 0.45461 0.15564 0.88735 0.0
C202 C 0.43001 0.14242 0.87648 0.0
H203 H 0.46415 0.16891 0.93075 0.0
Co204 Co 0.49187 0.16118 0.8712 0.0
C205 C 0.49215 0.1213 0.82042 0.0
O206 O 0.51938 0.11258 0.82667 0.0
N207 N 0.52993 0.16759 0.85512 0.0
C208 C 0.57814 0.17724 0.84766 0.0
C209 C 0.55737 0.16757 0.86728 0.0
C210 C 0.53478 0.17757 0.8282 0.0
N211 N 0.56381 0.18332 0.82309 0.0
O212 O 0.47834 0.19783 0.85567 0.0
H213 H 0.56239 0.16239 0.88928 0.0
H214 H 0.51706 0.18205 0.81303 0.0
O215 O 0.47907 0.14052 0.83628 0.0
C216 C 0.48597 0.22084 0.86984 0.0
O217 O 0.50509 0.21778 0.89099 0.0
N218 N 0.5041 0.1259 0.88907 0.0
C219 C 0.514 0.0792 0.92739 0.0
C220 C 0.49709 0.07471 0.90247 0.0
C221 C 0.49194 0.09845 0.88387 0.0
C222 C 0.51974 0.1308 0.91366 0.0
C223 C 0.5258 0.10763 0.93264 0.0
H224 H 0.47611 0.09506 0.86681 0.0
H225 H 0.52585 0.1533 0.91959 0.0
H226 H 0.42812 0.13427 0.85472 0.0
H227 H 0.4103 0.14691 0.94221 0.0
H228 H 0.60174 0.18053 0.85145 0.0
H229 H 0.48613 0.05361 0.89831 0.0
H230 H 0.53848 0.11237 0.95187 0.0
C231 C 0.32837 0.43566 0.90831 0.0
C232 C 0.33998 0.40728 0.91088 0.0
N233 N 0.3607 0.40361 0.89025 0.0
N234 N 0.34157 0.44955 0.88602 0.0
C235 C 0.36115 0.42944 0.87555 0.0
H236 H 0.31136 0.44552 0.92175 0.0
Co237 Co 0.33376 0.48775 0.8726 0.0
C238 C 0.3636 0.49016 0.8152 0.0
O239 O 0.3688 0.51891 0.81734 0.0
N240 N 0.32536 0.52671 0.85906 0.0
C241 C 0.32541 0.57542 0.84873 0.0
C242 C 0.33847 0.55332 0.86495 0.0
C243 C 0.3043 0.53353 0.83942 0.0
N244 N 0.30376 0.5628 0.83302 0.0
O245 O 0.29547 0.47417 0.86102 0.0
H246 H 0.35705 0.55676 0.87925 0.0
H247 H 0.29037 0.51719 0.82882 0.0
O248 O 0.34993 0.47654 0.83534 0.0
C249 C 0.27465 0.48038 0.87857 0.0
O250 O 0.28052 0.49821 0.90023 0.0
N251 N 0.37053 0.49977 0.88689 0.0
C252 C 0.41979 0.50619 0.92265 0.0
C253 C 0.42308 0.49479 0.89477 0.0
C254 C 0.39811 0.49174 0.87715 0.0
C255 C 0.36711 0.51186 0.91345 0.0
C256 C 0.39152 0.51608 0.93136 0.0
H257 H 0.40094 0.48058 0.8569 0.0
H258 H 0.34496 0.51717 0.92113 0.0
H259 H 0.37537 0.43339 0.85723 0.0
H260 H 0.33399 0.39085 0.92688 0.0
H261 H 0.33158 0.59877 0.84819 0.0
H262 H 0.44426 0.48621 0.88727 0.0
H263 H 0.38789 0.52566 0.95238 0.0
C264 C 0.94593 0.82995 0.4046 0.0
C265 C 0.91717 0.84014 0.40838 0.0
N266 N 0.91025 0.85787 0.38601 0.0
N267 N 0.95699 0.84134 0.38007 0.0
C268 C 0.93474 0.85824 0.3693 0.0
H269 H 0.95814 0.81546 0.41894 0.0
Co270 Co 0.99514 0.83533 0.36583 0.0
C271 C 0.99649 0.86898 0.31031 0.0
O272 O 0.02509 0.87485 0.31262 0.0
N273 N 0.03428 0.82864 0.35159 0.0
C274 C 0.08283 0.83079 0.34062 0.0
C275 C 0.06029 0.84318 0.35679 0.0
C276 C 0.04192 0.80744 0.33234 0.0
N277 N 0.07111 0.80811 0.32563 0.0
O278 O 0.98212 0.79776 0.3519 0.0
H279 H 0.06298 0.86238 0.3705 0.0
H280 H 0.02623 0.79245 0.3222 0.0
O281 O 0.9834 0.85362 0.32963 0.0
C282 C 0.98733 0.77569 0.36827 0.0
O283 O 0.00426 0.77979 0.39094 0.0
N284 N 0.00634 0.87143 0.38219 0.0
C285 C 0.01195 0.91907 0.42013 0.0
C286 C -0.00134 0.92306 0.39312 0.0
C287 C 0.99598 0.89891 0.37446 0.0
C288 C 0.01992 0.86729 0.40798 0.0
C289 C 0.02369 0.89094 0.42695 0.0
H290 H 0.9833 0.90205 0.35508 0.0
H291 H 0.02685 0.84511 0.41424 0.0
H292 H 0.93671 0.87165 0.35018 0.0
H293 H 0.90258 0.83496 0.42619 0.0
H294 H 0.10582 0.83813 0.33957 0.0
H295 H 0.98848 0.94405 0.38716 0.0
H296 H 0.03456 0.8868 0.44729 0.0
C297 C 0.67641 0.92592 0.3955 0.0
C298 C 0.66466 0.89746 0.39595 0.0
N299 N 0.64047 0.897 0.3788 0.0
N300 N 0.65978 0.94307 0.37797 0.0
C301 C 0.63809 0.92483 0.36822 0.0
H302 H 0.69577 0.93362 0.40719 0.0
Co303 Co 0.66541 0.98294 0.36895 0.0
C304 C 0.62817 0.99058 0.31586 0.0
O305 O 0.6199 0.01774 0.32293 0.0
N306 N 0.6716 0.02316 0.35992 0.0
C307 C 0.6823 0.07168 0.36207 0.0
C308 C 0.67196 0.04736 0.37725 0.0
C309 C 0.68187 0.03329 0.33456 0.0
N310 N 0.68811 0.06264 0.33518 0.0
O311 O 0.70283 0.97292 0.35227 0.0
H312 H 0.66672 0.04723 0.39984 0.0
H313 H 0.68639 0.01899 0.31635 0.0
O314 O 0.6457 0.97596 0.33221 0.0
C315 C 0.72439 0.9792 0.36899 0.0
O316 O 0.7186 0.99427 0.39252 0.0
N317 N 0.63007 0.99186 0.38826 0.0
C318 C 0.5845 0.9955 0.4285 0.0
C319 C 0.57793 0.99004 0.39964 0.0
C320 C 0.60115 0.98762 0.37986 0.0
C321 C 0.63662 0.99766 0.41623 0.0
C322 C 0.61418 -0.0003 0.43674 0.0
H323 H 0.59557 0.98022 0.35865 0.0
H324 H 0.6597 -0.00077 0.42286 0.0
H325 H 0.62092 0.93168 0.35335 0.0
H326 H 0.67294 0.87878 0.4083 0.0
H327 H 0.68629 0.09389 0.37035 0.0
H328 H 0.55524 0.98572 0.3928 0.0
H329 H 0.62004 0.00357 0.45897 0.0
C330 C 0.55089 0.66875 0.39501 0.0
C331 C 0.57982 0.65853 0.39736 0.0
N332 N 0.58457 0.63864 0.37619 0.0
N333 N 0.53772 0.65545 0.37238 0.0
C334 C 0.55887 0.63737 0.36135 0.0
H335 H 0.54005 0.68466 0.409 0.0
Co336 Co 0.4989 0.66118 0.3598 0.0
C337 C 0.49493 0.62322 0.30742 0.0
O338 O 0.46765 0.61484 0.31378 0.0
N339 N 0.45907 0.66753 0.34699 0.0
C340 C 0.41019 0.66483 0.33742 0.0
C341 C 0.4334 0.65261 0.35282 0.0
C342 C 0.45053 0.68875 0.32812 0.0
N343 N 0.42115 0.6878 0.32233 0.0
O344 O 0.51145 0.69819 0.34418 0.0
H345 H 0.43142 0.63318 0.36633 0.0
H346 H 0.46565 0.70399 0.31756 0.0
O347 O 0.50867 0.64154 0.32368 0.0
C348 C 0.50658 0.72046 0.36043 0.0
O349 O 0.49009 0.71659 0.38345 0.0
N350 N 0.48825 0.62582 0.37806 0.0
C351 C 0.48132 0.57953 0.4173 0.0
C352 C 0.49502 0.57448 0.39068 0.0
C353 C 0.49854 0.59798 0.37145 0.0
C354 C 0.4748 0.63111 0.40375 0.0
C355 C 0.47047 0.60817 0.42343 0.0
H356 H 0.51154 0.59397 0.35244 0.0
H357 H 0.46815 0.6536 0.40925 0.0
H358 H 0.55569 0.62338 0.34272 0.0
H359 H 0.59581 0.66465 0.41373 0.0
H360 H 0.38729 0.65717 0.33692 0.0
H361 H 0.50475 0.55306 0.38542 0.0
H362 H 0.45964 0.61311 0.44363 0.0
C363 C 0.81735 0.56786 0.39372 0.0
C364 C 0.82917 0.59617 0.39603 0.0
N365 N 0.85445 0.5972 0.38041 0.0
N366 N 0.83502 0.55137 0.37651 0.0
C367 C 0.85744 0.56982 0.36889 0.0
H368 H 0.79717 0.55983 0.40383 0.0
Co369 Co 0.82955 0.51212 0.36528 0.0
C370 C 0.8657 0.50672 0.31133 0.0
O371 O 0.87145 0.4783 0.31542 0.0
N372 N 0.82378 0.47204 0.35399 0.0
C373 C 0.82467 0.42237 0.34961 0.0
C374 C 0.83599 0.44654 0.36434 0.0
C375 C 0.80512 0.46261 0.33315 0.0
N376 N 0.80503 0.43276 0.33038 0.0
O377 O 0.79283 0.52362 0.3483 0.0
H378 H 0.85218 0.44522 0.38143 0.0
H379 H 0.792 0.4773 0.31976 0.0
O380 O 0.84997 0.52108 0.32946 0.0
C381 C 0.7698 0.51711 0.36297 0.0
O382 O 0.77287 0.50012 0.38574 0.0
N383 N 0.86425 0.50218 0.38472 0.0
C384 C 0.9091 0.49593 0.42517 0.0
C385 C 0.91624 0.50129 0.39638 0.0
C386 C 0.89336 0.50485 0.37641 0.0
C387 C 0.85709 0.49605 0.41247 0.0
C388 C 0.87919 0.49278 0.43311 0.0
H389 H 0.89935 0.51152 0.35506 0.0
H390 H 0.83387 0.49485 0.4187 0.0
H391 H 0.87549 0.56348 0.35476 0.0
H392 H 0.82009 0.61441 0.40849 0.0
H393 H 0.83003 0.39909 0.35302 0.0
H394 H 0.93918 0.50453 0.38975 0.0
H395 H 0.87294 0.48871 0.45521 0.0
C396 C 0.92741 0.67881 0.09789 0.0
C397 C 0.89916 0.66662 0.09707 0.0
N398 N 0.89879 0.64252 0.11434 0.0
N399 N 0.94451 0.66255 0.11579 0.0
C400 C 0.92648 0.64062 0.12535 0.0
H401 H 0.93501 0.6982 0.08617 0.0
Co402 Co 0.98413 0.66867 0.12536 0.0
C403 C 0.99162 0.63552 0.18084 0.0
O404 O 0.01997 0.62997 0.17611 0.0
N405 N 0.02447 0.6751 0.13499 0.0
C406 C 0.07418 0.67406 0.13862 0.0
C407 C 0.04974 0.66267 0.12435 0.0
C408 C 0.03428 0.69409 0.15536 0.0
N409 N 0.06416 0.69404 0.15774 0.0
O410 O 0.97324 0.70646 0.14056 0.0
H411 H 0.05064 0.64604 0.10762 0.0
H412 H 0.01981 0.70721 0.16899 0.0
O413 O 0.97649 0.65029 0.16253 0.0
C414 C 0.97917 0.72815 0.1239 0.0
O415 O 0.99509 0.72298 0.10076 0.0
N416 N 0.99339 0.63279 0.10753 0.0
C417 C 0.99658 0.5857 0.06913 0.0
C418 C 0.99284 0.58021 0.09846 0.0
C419 C 0.9908 0.60421 0.11741 0.0
C420 C -0.00178 0.63831 0.07921 0.0
C421 C -9e-05 0.61507 0.05957 0.0
H422 H 0.98514 0.59947 0.13931 0.0
H423 H -0.00062 0.66114 0.07175 0.0
H424 H 0.93341 0.62361 0.14037 0.0
H425 H 0.88056 0.67453 0.08438 0.0
H426 H 0.09736 0.66824 0.13526 0.0
H427 H 0.98958 0.55771 0.10637 0.0
H428 H 0.00277 0.62004 0.037 0.0
C429 C 0.81911 0.94325 0.09488 0.0
C430 C 0.83008 0.91471 0.09148 0.0
N431 N 0.85532 0.91233 0.107 0.0
N432 N 0.83725 0.95852 0.11268 0.0
C433 C 0.85914 0.93913 0.11946 0.0
H434 H 0.79895 0.95212 0.08544 0.0
Co435 Co 0.83205 0.99687 0.12678 0.0
C436 C 0.87145 0.99757 0.17933 0.0
O437 O 0.87857 0.02587 0.17659 0.0
N438 N 0.82621 0.03553 0.14097 0.0
C439 C 0.816 0.08398 0.14535 0.0
C440 C 0.82569 0.06195 0.12695 0.0
C441 C 0.81663 0.04211 0.16764 0.0
N442 N 0.81067 0.07133 0.17096 0.0
O443 O 0.79596 0.98414 0.1444 0.0
H444 H 0.83044 0.06504 0.10447 0.0
H445 H 0.8125 0.02543 0.18397 0.0
O446 O 0.85393 0.98537 0.1612 0.0
C447 C 0.77277 0.99128 0.13025 0.0
O448 O 0.77584 0.00935 0.10824 0.0
N449 N 0.86614 0.00867 0.10689 0.0
C450 C 0.90988 0.01724 0.06524 0.0
C451 C 0.91755 0.00734 0.09282 0.0
C452 C 0.89531 0.00296 0.11333 0.0
C453 C 0.85841 0.01866 0.08035 0.0
C454 C 0.87991 0.02363 0.05937 0.0
H455 H 0.90169 0.99292 0.13332 0.0
H456 H 0.83508 0.02153 0.07508 0.0
H457 H 0.87721 0.94419 0.134 0.0
H458 H 0.82025 0.89712 0.07867 0.0
H459 H 0.81215 0.10719 0.1401 0.0
H460 H 0.94028 0.00122 0.09805 0.0
H461 H 0.87292 0.03143 0.03845 0.0
C462 C 0.56702 0.82189 0.0949 0.0
C463 C 0.59549 0.83332 0.09308 0.0
N464 N 0.59914 0.85319 0.11449 0.0
N465 N 0.55288 0.83462 0.11726 0.0
C466 C 0.57304 0.85351 0.1288 0.0
H467 H 0.55694 0.80604 0.08034 0.0
Co468 Co 0.51316 0.82935 0.12688 0.0
C469 C 0.50577 0.8621 0.18225 0.0
O470 O 0.47776 0.86841 0.17669 0.0
N471 N 0.47252 0.82363 0.13628 0.0
C472 C 0.42285 0.82602 0.1401 0.0
C473 C 0.44764 0.83754 0.12652 0.0
C474 C 0.46207 0.80365 0.15547 0.0
N475 N 0.43219 0.80447 0.15791 0.0
O476 O 0.52303 0.79092 0.14118 0.0
H477 H 0.4472 0.85539 0.111 0.0
H478 H 0.47609 0.78923 0.16829 0.0
O479 O 0.521 0.84674 0.16444 0.0
C480 C 0.51762 0.77042 0.12304 0.0
O481 O 0.5032 0.77749 0.09945 0.0
N482 N 0.505 0.8659 0.10991 0.0
C483 C 0.50334 0.91389 0.07249 0.0
C484 C 0.50945 0.91844 0.10159 0.0
C485 C 0.51079 0.89395 0.11998 0.0
C486 C 0.49817 0.86136 0.08181 0.0
C487 C 0.49712 0.88509 0.06267 0.0
H488 H 0.51857 0.89768 0.14148 0.0
H489 H 0.49483 0.83886 0.07405 0.0
H490 H 0.56827 0.86849 0.1464 0.0
H491 H 0.61199 0.82788 0.07696 0.0
H492 H 0.39989 0.83287 0.13721 0.0
H493 H 0.51511 0.94042 0.1096 0.0
H494 H 0.4925 0.88085 0.04023 0.0
C495 C 0.67297 0.55221 0.09311 0.0
C496 C 0.66217 0.58076 0.08968 0.0
N497 N 0.64074 0.58533 0.10949 0.0
N498 N 0.65833 0.53897 0.1149 0.0
C499 C 0.63883 0.55967 0.12438 0.0
H500 H 0.69019 0.54165 0.08043 0.0
Co501 Co 0.66385 0.50028 0.12755 0.0
C502 C 0.62686 0.49599 0.18092 0.0
O503 O 0.62122 0.46752 0.17696 0.0
N504 N 0.66989 0.46067 0.14015 0.0
C505 C 0.66885 0.41128 0.14699 0.0
C506 C 0.65736 0.43469 0.13128 0.0
C507 C 0.68894 0.45227 0.16104 0.0
N508 N 0.68894 0.42262 0.16528 0.0
O509 O 0.70028 0.51276 0.14436 0.0
H510 H 0.64062 0.43257 0.11476 0.0
H511 H 0.70224 0.46757 0.17363 0.0
O512 O 0.6431 0.51013 0.16302 0.0
C513 C 0.7233 0.50723 0.12932 0.0
O514 O 0.72043 0.49027 0.10649 0.0
N515 N 0.62928 0.48956 0.10826 0.0
C516 C 0.58473 0.48402 0.06744 0.0
C517 C 0.57753 0.49151 0.09575 0.0
C518 C 0.60032 0.49482 0.11585 0.0
C519 C 0.63641 0.48125 0.08102 0.0
C520 C 0.61443 0.47836 0.06017 0.0
H521 H 0.59454 0.50364 0.13654 0.0
H522 H 0.65959 0.47835 0.07519 0.0
H523 H 0.62277 0.55578 0.14129 0.0
H524 H 0.66955 0.59687 0.07391 0.0
H525 H 0.66308 0.38791 0.14508 0.0
H526 H 0.55478 0.49683 0.10172 0.0
H527 H 0.62066 0.47289 0.03834 0.0
H528 H 0.06818 0.13997 0.69379 0.0
H529 H 0.99642 0.07841 0.71214 0.0
H530 H 0.10122 0.1115 0.72516 0.0
H531 H 0.02932 0.05031 0.74374 0.0
H532 H 0.10436 0.98784 0.77015 0.0
H533 H 0.07372 0.01777 0.73795 0.0
H534 H 0.10823 0.09831 0.7765 0.0
H535 H 0.13926 0.06845 0.80846 0.0
C536 C 0.05938 0.12051 0.70466 0.0
C537 C 0.02971 0.11134 0.70026 0.0
C538 C 0.07829 0.10428 0.72271 0.0
C539 C 0.06798 0.07845 0.73665 0.0
C540 C 0.03809 0.06979 0.73288 0.0
C541 C 0.01914 0.0861 0.71498 0.0
C542 C 0.10574 0.01192 0.77154 0.0
C543 C 0.12411 0.02571 0.79206 0.0
C544 C 0.08795 0.02907 0.75327 0.0
C545 C 0.08825 0.06039 0.75494 0.0
C546 C 0.10753 0.07423 0.77464 0.0
C547 C 0.12523 0.05708 0.79303 0.0
H548 H 0.35068 0.04908 0.71131 0.0
H549 H 0.42659 0.99206 0.69636 0.0
H550 H 0.37957 0.07778 0.74608 0.0
H551 H 0.45624 0.02174 0.72902 0.0
H552 H 0.49778 0.06279 0.8068 0.0
H553 H 0.4668 0.0334 0.77496 0.0
H554 H 0.41629 0.11256 0.75318 0.0
H555 H 0.44614 0.14132 0.78714 0.0
C556 C 0.37359 0.04275 0.71551 0.0
C557 C 0.38625 0.0181 0.70152 0.0
C558 C 0.39037 0.05942 0.73517 0.0
C559 C 0.4205 0.0523 0.74064 0.0
C560 C 0.43301 0.02763 0.72627 0.0
C561 C 0.41601 0.01055 0.70733 0.0
C562 C 0.48017 0.07391 0.79503 0.0
C563 C 0.47454 0.10438 0.79918 0.0
C564 C 0.46236 0.05707 0.77656 0.0
C565 C 0.43895 0.07041 0.761 0.0
C566 C 0.43363 0.10116 0.76502 0.0
C567 C 0.45097 0.11783 0.78422 0.0
H568 H 0.35776 0.43045 0.80382 0.0
H569 H 0.40473 0.50963 0.77611 0.0
H570 H 0.3876 0.40037 0.77094 0.0
H571 H 0.43428 0.47954 0.74311 0.0
H572 H 0.50582 0.41233 0.71626 0.0
H573 H 0.47399 0.4411 0.7484 0.0
H574 H 0.39696 0.39212 0.71873 0.0
H575 H 0.42878 0.36304 0.68676 0.0
C576 C 0.37419 0.44151 0.7905 0.0
C577 C 0.37896 0.47246 0.79276 0.0
C578 C 0.39123 0.42426 0.77161 0.0
C579 C 0.41352 0.43754 0.75468 0.0
C580 C 0.41761 0.46859 0.75625 0.0
C581 C 0.40047 0.48587 0.77499 0.0
C582 C 0.48215 0.40747 0.71674 0.0
C583 C 0.46988 0.38544 0.69883 0.0
C584 C 0.46388 0.42416 0.73498 0.0
C585 C 0.43293 0.41909 0.73588 0.0
C586 C 0.42074 0.39647 0.7186 0.0
C587 C 0.439 0.37987 0.70023 0.0
H588 H -9e-05 0.37584 0.75832 0.0
H589 H 0.07412 0.37514 0.81732 0.0
H590 H 0.02741 0.41033 0.72706 0.0
H591 H 0.10166 0.4091 0.78592 0.0
H592 H 0.14801 0.439 0.69833 0.0
H593 H 0.1218 0.40513 0.731 0.0
H594 H 0.04819 0.4669 0.73581 0.0
H595 H 0.07452 0.50114 0.70375 0.0
C596 C 0.02213 0.38291 0.76447 0.0
C597 C 0.03481 0.37311 0.79031 0.0
C598 C 0.03773 0.4027 0.74674 0.0
C599 C 0.06652 0.41237 0.75426 0.0
C600 C 0.07948 0.40195 0.77972 0.0
C601 C 0.06365 0.38273 0.79773 0.0
C602 C 0.12644 0.44554 0.70672 0.0
C603 C 0.1134 0.4728 0.69863 0.0
C604 C 0.11147 0.42617 0.72532 0.0
C605 C 0.08296 0.43342 0.73564 0.0
C606 C 0.07008 0.46079 0.72791 0.0
C607 C 0.08529 0.48045 0.7098 0.0
H608 H 0.01456 0.91289 0.27345 0.0
H609 H 0.93696 0.86194 0.29862 0.0
H610 H 0.98352 0.94334 0.24214 0.0
H611 H 0.9058 0.89304 0.26801 0.0
H612 H 0.86485 0.93753 0.18818 0.0
H613 H 0.89521 0.90518 0.21829 0.0
H614 H 0.94545 0.98168 0.24741 0.0
H615 H 0.91557 0.01401 0.21674 0.0
C616 C 0.99092 0.90804 0.27221 0.0
C617 C 0.97824 0.88514 0.28881 0.0
C618 C 0.97306 0.92574 0.25448 0.0
C619 C 0.94209 0.92094 0.25287 0.0
C620 C 0.92957 0.89731 0.26866 0.0
C621 C 0.94744 0.87958 0.28637 0.0
C622 C 0.88227 0.94753 0.2011 0.0
C623 C 0.88788 0.9784 0.19988 0.0
C624 C 0.89961 0.92894 0.21846 0.0
C625 C 0.92295 0.94078 0.23508 0.0
C626 C 0.92802 0.97175 0.23445 0.0
C627 C 0.91069 0.99035 0.21707 0.0
H628 H 0.64784 0.9462 0.28064 0.0
H629 H 0.56927 0.99618 0.30375 0.0
H630 H 0.61812 0.91538 0.24839 0.0
H631 H 0.53894 0.96407 0.27378 0.0
H632 H 0.49348 0.91853 0.1997 0.0
H633 H 0.52373 0.95058 0.22972 0.0
H634 H 0.58479 0.87735 0.24471 0.0
H635 H 0.55549 0.84619 0.21243 0.0
C636 C 0.62415 0.95056 0.27869 0.0
C637 C 0.61091 0.97383 0.29426 0.0
C638 C 0.60691 0.93259 0.26057 0.0
C639 C 0.5758 0.93681 0.25836 0.0
C640 C 0.56277 0.96032 0.27408 0.0
C641 C 0.58018 0.97883 0.29143 0.0
C642 C 0.51318 0.9092 0.20975 0.0
C643 C 0.52199 0.87978 0.20397 0.0
C644 C 0.53064 0.92762 0.22713 0.0
C645 C 0.557 0.91686 0.23995 0.0
C646 C 0.56518 0.88693 0.23481 0.0
C647 C 0.54813 0.86879 0.21667 0.0
H648 H 0.48996 0.56396 0.29696 0.0
H649 H 0.54068 0.64185 0.2731 0.0
H650 H 0.52271 0.53281 0.26852 0.0
H651 H 0.57224 0.61122 0.24229 0.0
H652 H 0.64192 0.54714 0.20918 0.0
H653 H 0.61012 0.57774 0.2397 0.0
H654 H 0.53702 0.51628 0.22523 0.0
H655 H 0.56971 0.4848 0.19702 0.0
C656 C 0.50766 0.57453 0.28481 0.0
C657 C 0.5126 0.60535 0.28694 0.0
C658 C 0.52653 0.55664 0.26831 0.0
C659 C 0.5504 0.5692 0.25272 0.0
C660 C 0.55471 0.60036 0.25435 0.0
C661 C 0.53633 0.61812 0.27165 0.0
C662 C 0.61918 0.54003 0.21312 0.0
C663 C 0.60843 0.51338 0.20117 0.0
C664 C 0.60068 0.5578 0.23027 0.0
C665 C 0.57063 0.54983 0.23512 0.0
C666 C 0.56006 0.52306 0.22289 0.0
C667 C 0.57882 0.5049 0.20653 0.0
H668 H 0.9241 0.49888 0.29802 0.0
H669 H 0.84799 0.55424 0.27921 0.0
H670 H 0.95558 0.53096 0.26904 0.0
H671 H 0.87861 0.58509 0.24785 0.0
H672 H 0.94329 0.65231 0.21246 0.0
H673 H 0.91344 0.6213 0.24438 0.0
H674 H 0.97106 0.54617 0.22575 0.0
H675 H 0.00204 0.57809 0.1962 0.0
C676 C 0.91396 0.5175 0.28687 0.0
C677 C 0.8836 0.52396 0.29058 0.0
C678 C 0.93201 0.53599 0.27007 0.0
C679 C 0.91997 0.56097 0.25576 0.0
C680 C 0.88918 0.56673 0.25894 0.0
C681 C 0.87137 0.54876 0.27656 0.0
C682 C 0.94978 0.62929 0.21584 0.0
C683 C 0.97519 0.61771 0.20229 0.0
C684 C 0.93239 0.61124 0.23378 0.0
C685 C 0.93938 0.58081 0.23776 0.0
C686 C 0.96505 0.56947 0.22407 0.0
C687 C 0.98293 0.58779 0.20695 0.0
H688 H 0.01624 0.97967 0.41196 0.0
H689 H 0.00408 0.91306 0.47809 0.0
H690 H 0.00911 0.01875 0.44733 0.0
H691 H -5e-05 0.95198 0.51372 0.0
H692 H 0.96235 0.02662 0.56757 0.0
H693 H 0.96718 0.98807 0.53077 0.0
H694 H 0.03124 0.04322 0.48573 0.0
H695 H 0.02469 0.08215 0.52161 0.0
C696 C 0.01236 0.9733 0.43405 0.0
C697 C 0.01075 0.94311 0.44204 0.0
C698 C 0.00868 0.99577 0.45446 0.0
C699 C 0.00385 0.9886 0.48347 0.0
C700 C 0.00303 0.95842 0.49154 0.0
C701 C 0.0061 0.93599 0.47108 0.0
C702 C 0.97715 0.03036 0.54955 0.0
C703 C 0.99294 0.05716 0.54703 0.0
C704 C 0.98021 0.00829 0.52863 0.0
C705 C -0.00027 0.01243 0.50524 0.0
C706 C 0.01556 0.03942 0.50302 0.0
C707 C 0.01198 0.06167 0.52359 0.0
H708 H 0.53211 0.02609 0.42957 0.0
H709 H 0.58366 0.96076 0.47601 0.0
H710 H 0.4924 0.02226 0.46521 0.0
H711 H 0.54355 0.95564 0.51094 0.0
H712 H 0.47865 0.97557 0.58358 0.0
H713 H 0.51906 0.97973 0.54902 0.0
H714 H 0.45464 0.98982 0.48069 0.0
H715 H 0.41454 0.98831 0.51536 0.0
C716 C 0.53476 0.01082 0.4474 0.0
C717 C 0.56082 0.99387 0.4503 0.0
C718 C 0.512 0.00839 0.46768 0.0
C719 C 0.51468 0.98848 0.49091 0.0
C720 C 0.54092 0.97155 0.49366 0.0
C721 C 0.56385 0.97438 0.47365 0.0
C722 C 0.47313 0.97889 0.56121 0.0
C723 C 0.44328 0.98163 0.55236 0.0
C724 C 0.49631 0.98092 0.54131 0.0
C725 C 0.49014 0.98532 0.51204 0.0
C726 C 0.46027 0.98705 0.50311 0.0
C727 C 0.43716 0.98551 0.52302 0.0
H728 H 0.53157 0.4687 0.56124 0.0
H729 H 0.46237 0.41775 0.51951 0.0
H730 H 0.52553 0.5084 0.5258 0.0
H731 H 0.45515 0.45776 0.48492 0.0
H732 H 0.47274 0.51954 0.40964 0.0
H733 H 0.47803 0.48027 0.44514 0.0
H734 H 0.49279 0.54664 0.51095 0.0
H735 H 0.48993 0.58572 0.47509 0.0
C736 C 0.51498 0.46619 0.54451 0.0
C737 C 0.49769 0.44022 0.54272 0.0
C738 C 0.51129 0.48894 0.52438 0.0
C739 C 0.48984 0.48627 0.50247 0.0
C740 C 0.4723 0.46031 0.50109 0.0
C741 C 0.47635 0.43743 0.5209 0.0
C742 C 0.47731 0.52574 0.43165 0.0
C743 C 0.48103 0.55579 0.43943 0.0
C744 C 0.47997 0.50323 0.45211 0.0
C745 C 0.48597 0.51027 0.48092 0.0
C746 C 0.48871 0.54038 0.48887 0.0
C747 C 0.48648 0.56286 0.46834 0.0
H748 H 0.96091 0.46423 0.42615 0.0
H749 H 0.90992 0.52938 0.47349 0.0
H750 H 0.00032 0.46669 0.46223 0.0
H751 H 0.94964 0.53298 0.50891 0.0
H752 H 0.01431 0.51255 0.58107 0.0
H753 H 0.97381 0.50743 0.54667 0.0
H754 H 0.03812 0.49947 0.47795 0.0
H755 H 0.07838 0.50217 0.51242 0.0
C756 C 0.95829 0.47912 0.44428 0.0
C757 C 0.9325 0.49649 0.44727 0.0
C758 C 0.98084 0.48072 0.46483 0.0
C759 C 0.97819 0.50016 0.48842 0.0
C760 C 0.95219 0.5174 0.49134 0.0
C761 C 0.9295 0.51544 0.47104 0.0
C762 C 0.01977 0.50945 0.55865 0.0
C763 C 0.04961 0.50788 0.54955 0.0
C764 C 0.99656 0.50684 0.53887 0.0
C765 C 0.00272 0.50295 0.50954 0.0
C766 C 0.03255 0.50192 0.50042 0.0
C767 C 0.0557 0.50411 0.52019 0.0
H768 H 0.97443 0.47922 0.91569 0.0
H769 H 0.99126 0.41471 0.98274 0.0
H770 H 0.97792 0.51926 0.95064 0.0
H771 H 0.99223 0.45446 0.01793 0.0
H772 H 0.0281 0.5338 0.06791 0.0
H773 H 0.02382 0.49351 0.03287 0.0
H774 H 0.95359 0.54207 0.98957 0.0
H775 H 0.95907 0.58271 0.02382 0.0
C776 C 0.97855 0.47353 0.93791 0.0
C777 C 0.98267 0.44372 0.94632 0.0
C778 C 0.98016 0.49648 0.95804 0.0
C779 C 0.9855 0.4901 0.98712 0.0
C780 C 0.98864 0.46023 0.99565 0.0
C781 C 0.98748 0.43734 0.97548 0.0
C782 C 0.01188 0.53569 0.05079 0.0
C783 C 0.99412 0.56126 0.04824 0.0
C784 C 0.00921 0.51262 0.03085 0.0
C785 C 0.98832 0.51454 0.00837 0.0
C786 C 0.97031 0.54009 0.00621 0.0
C787 C 0.97335 0.56331 0.02584 0.0
H788 H 0.06494 0.0474 0.95646 0.0
H789 H 0.02547 0.96591 0.92514 0.0
H790 H 0.0231 0.05443 0.98915 0.0
H791 H 0.98398 0.97197 0.95882 0.0
H792 H 0.90317 0.001 0.00902 0.0
H793 H 0.94098 0.00021 0.97167 0.0
H794 H 0.00633 0.03258 0.03236 0.0
H795 H 0.96807 0.03533 0.06917 0.0
C796 C 0.04714 0.03102 0.95669 0.0
C797 C 0.04828 0.00602 0.93866 0.0
C798 C 0.02332 0.03489 0.97548 0.0
C799 C 0.00039 0.01355 0.97693 0.0
C800 C 0.00112 0.98898 0.95807 0.0
C801 C 0.02483 0.98537 0.93891 0.0
C802 C 0.92543 0.00868 0.01423 0.0
C803 C 0.93257 0.01835 0.04211 0.0
C804 C 0.94722 0.00776 0.99289 0.0
C805 C 0.97672 0.0162 -0.001 0.0
C806 C 0.98374 0.0263 0.02676 0.0
C807 C 0.96189 0.02751 0.04802 0.0
H808 H 0.52056 0.01921 0.9184 0.0
H809 H 0.51193 0.08493 0.98582 0.0
H810 H 0.51828 0.97964 0.95389 0.0
H811 H 0.51216 0.04551 0.02141 0.0
H812 H 0.47535 0.96776 0.07372 0.0
H813 H 0.47987 0.00809 0.03875 0.0
H814 H 0.5443 0.9559 0.99118 0.0
H815 H 0.53849 0.91529 0.02542 0.0
C816 C 0.51857 0.02524 0.94081 0.0
C817 C 0.51631 0.05526 0.94919 0.0
C818 C 0.51766 0.00255 0.96123 0.0
C819 C 0.51492 0.00938 0.99054 0.0
C820 C 0.51375 0.03944 -0.00101 0.0
C821 C 0.51421 0.0621 0.97855 0.0
C822 C 0.49038 0.96511 0.0557 0.0
C823 C 0.50631 0.93853 0.0519 0.0
C824 C 0.4932 0.98819 0.03581 0.0
C825 C 0.51245 0.98522 0.0121 0.0
C826 C 0.52882 0.95871 0.0088 0.0
C827 C 0.5256 0.93551 0.0284 0.0
H828 H 0.41631 0.49436 0.98009 0.0
H829 H 0.47992 0.51346 0.91272 0.0
H830 H 0.45653 0.48965 0.01411 0.0
H831 H 0.52055 0.50574 0.94642 0.0
H832 H 0.58494 0.52002 0.02103 0.0
H833 H 0.54542 0.52637 0.98571 0.0
H834 H 0.4942 0.45704 0.02769 0.0
H835 H 0.53319 0.45228 0.06395 0.0
C836 C 0.43886 0.4978 0.97246 0.0
C837 C 0.44473 0.50461 0.94356 0.0
C838 C 0.46208 0.49436 0.99197 0.0
C839 C 0.49189 0.49688 0.98302 0.0
C840 C 0.49786 0.50388 0.95417 0.0
C841 C 0.47453 0.50794 0.93472 0.0
C842 C 0.56524 0.50607 0.02242 0.0
C843 C 0.56187 0.48567 0.04497 0.0
C844 C 0.54266 0.50956 0.00216 0.0
C845 C 0.5165 0.49232 0.00385 0.0
C846 C 0.51369 0.47122 0.02609 0.0
C847 C 0.53604 0.46821 0.04669 0.0
H848 H 0.95695 0.17817 0.72614 0.0
H849 H 0.88746 0.21891 0.67558 0.0
H850 H 0.94139 0.2069 0.76765 0.0
H851 H 0.87116 0.24747 0.71752 0.0
H852 H 0.90698 0.32699 0.77628 0.0
H853 H 0.89694 0.28954 0.74004 0.0
H854 H 0.90477 0.22023 0.80397 0.0
H855 H 0.91523 0.25803 0.84035 0.0
C856 C 0.93791 0.19288 0.72415 0.0
C857 C 0.92382 0.19686 0.6976 0.0
C858 C 0.92864 0.20903 0.74804 0.0
C859 C 0.90509 0.22962 0.74585 0.0
C860 C 0.8895 0.23192 0.71978 0.0
C861 C 0.89874 0.21554 0.69584 0.0
C862 C 0.90528 0.30391 0.78291 0.0
C863 C 0.91267 0.29532 0.81098 0.0
C864 C 0.89946 0.28234 0.76207 0.0
C865 C 0.90082 0.25186 0.76902 0.0
C866 C 0.90429 0.24355 0.79788 0.0
C867 C 0.91024 0.26512 0.81868 0.0
H868 H 0.31862 0.95268 0.72468 0.0
H869 H 0.26679 0.88874 0.67675 0.0
H870 H 0.29204 0.93944 0.76809 0.0
H871 H 0.24027 0.87457 0.72075 0.0
H872 H 0.17081 0.91223 0.78978 0.0
H873 H 0.20307 0.90164 0.74875 0.0
H874 H 0.28005 0.90402 0.8046 0.0
H875 H 0.24746 0.91595 0.84511 0.0
C876 C 0.30182 0.93533 0.72365 0.0
C877 C 0.29431 0.92214 0.69737 0.0
C878 C 0.28685 0.92735 0.74862 0.0
C879 C 0.26393 0.90592 0.74794 0.0
C880 C 0.25768 0.8913 0.72191 0.0
C881 C 0.2729 0.89926 0.69681 0.0
C882 C 0.1945 0.90911 0.79325 0.0
C883 C 0.20692 0.9148 0.82024 0.0
C884 C 0.21303 0.90304 0.76986 0.0
C885 C 0.24422 0.90257 0.77332 0.0
C886 C 0.25616 0.90485 0.80114 0.0
C887 C 0.23764 0.91135 0.82435 0.0
H888 H 0.60522 0.22703 0.82149 0.0
H889 H 0.54857 0.17221 0.76842 0.0
H890 H 0.61793 0.25773 0.77978 0.0
H891 H 0.56137 0.20262 0.72671 0.0
H892 H 0.59172 0.25788 0.65398 0.0
H893 H 0.60345 0.22345 0.69339 0.0
H894 H 0.57841 0.29134 0.75457 0.0
H895 H 0.56619 0.32515 0.71518 0.0
C896 C 0.59632 0.22099 0.80071 0.0
C897 C 0.57567 0.19758 0.79805 0.0
C898 C 0.60354 0.23852 0.77694 0.0
C899 C 0.59062 0.23248 0.75014 0.0
C900 C 0.57192 0.20753 0.74707 0.0
C901 C 0.56434 0.19035 0.7709 0.0
C902 C 0.58996 0.26562 0.67591 0.0
C903 C 0.57813 0.29391 0.68188 0.0
C904 C 0.5965 0.24601 0.69835 0.0
C905 C 0.59177 0.2548 0.72691 0.0
C906 C 0.5826 0.28414 0.73276 0.0
C907 C 0.57552 0.30343 0.71036 0.0
H908 H 0.24648 0.56322 0.6688 0.0
H909 H 0.16714 0.59973 0.70741 0.0
H910 H 0.27495 0.57514 0.71194 0.0
H911 H 0.19548 0.6114 0.75105 0.0
H912 H 0.24509 0.55476 0.82555 0.0
H913 H 0.2161 0.56905 0.78344 0.0
H914 H 0.29303 0.61464 0.74885 0.0
H915 H 0.3219 0.60055 0.79152 0.0
C916 C 0.23548 0.57469 0.6863 0.0
C917 C 0.20476 0.58039 0.68511 0.0
C918 C 0.25172 0.58173 0.71085 0.0
C919 C 0.23732 0.59408 0.73481 0.0
C920 C 0.20703 0.60192 0.73279 0.0
C921 C 0.19089 0.59535 0.70793 0.0
C922 C 0.2554 0.56863 0.80931 0.0
C923 C 0.2856 0.5764 0.81143 0.0
C924 C 0.23883 0.57704 0.78538 0.0
C925 C 0.2524 0.59292 0.76293 0.0
C926 C 0.28211 0.60247 0.76596 0.0
C927 C 0.29854 0.5945 0.79026 0.0
H928 H 0.1011 0.67268 0.19826 0.0
H929 H 0.06307 0.7532 0.16373 0.0
H930 H 0.1176 0.70029 0.24098 0.0
H931 H 0.07976 0.78099 0.20575 0.0
H932 H 0.10748 0.82708 0.2833 0.0
H933 H 0.12073 0.79852 0.24022 0.0
H934 H 0.07886 0.72038 0.27662 0.0
H935 H 0.06553 0.74903 0.31918 0.0
C936 C 0.09755 0.69655 0.19935 0.0
C937 C 0.08081 0.71103 0.17814 0.0
C938 C 0.10685 0.71229 0.22367 0.0
C939 C 0.09986 0.74273 0.22667 0.0
C940 C 0.08581 0.75767 0.2039 0.0
C941 C 0.07609 0.74184 0.17997 0.0
C942 C 0.10221 0.80352 0.28237 0.0
C943 C 0.08521 0.79016 0.30413 0.0
C944 C 0.10972 0.78723 0.25783 0.0
C945 C 0.10071 0.75731 0.25508 0.0
C946 C 0.0864 0.74329 0.27825 0.0
C947 C 0.0785 0.75967 0.30246 0.0
H948 H 0.82562 0.06228 0.22587 0.0
H949 H 0.76356 0.1088 0.17129 0.0
H950 H 0.79504 0.07413 0.26764 0.0
H951 H 0.73252 0.12057 0.21312 0.0
H952 H 0.67259 0.0634 0.27983 0.0
H953 H 0.70407 0.07945 0.24001 0.0
H954 H 0.76941 0.11268 0.30015 0.0
H955 H 0.73738 0.0968 0.34005 0.0
C956 C 0.80586 0.07589 0.22308 0.0
C957 C 0.79666 0.08439 0.19556 0.0
C958 C 0.7885 0.08291 0.24693 0.0
C959 C 0.76135 0.09816 0.24354 0.0
C960 C 0.75338 0.1088 0.21625 0.0
C961 C 0.77109 0.10216 0.1924 0.0
C962 C 0.69317 0.07517 0.28438 0.0
C963 C 0.70282 0.07874 0.31274 0.0
C964 C 0.71109 0.08455 0.26169 0.0
C965 C 0.73924 0.09717 0.26705 0.0
C966 C 0.74779 0.103 0.29551 0.0
C967 C 0.72952 0.09405 0.31826 0.0
H968 H 0.3862 0.66855 0.27911 0.0
H969 H 0.42396 0.74719 0.31789 0.0
H970 H 0.3734 0.6976 0.23621 0.0
H971 H 0.41105 0.77634 0.27557 0.0
H972 H 0.43406 0.74521 0.16336 0.0
H973 H 0.41546 0.71654 0.20402 0.0
H974 H 0.37418 0.79604 0.23826 0.0
H975 H 0.39269 0.82458 0.19692 0.0
C976 C 0.3905 0.69232 0.27887 0.0
C977 C 0.40632 0.70577 0.30136 0.0
C978 C 0.38326 0.70889 0.25443 0.0
C979 C 0.39141 0.73914 0.25253 0.0
C980 C 0.4042 0.75317 0.27649 0.0
C981 C 0.41184 0.73653 0.30061 0.0
C982 C 0.42 0.75614 0.17906 0.0
C983 C 0.41493 0.78692 0.17742 0.0
C984 C 0.40912 0.73978 0.20219 0.0
C985 C 0.39348 0.75413 0.22436 0.0
C986 C 0.38615 0.78449 0.2214 0.0
C987 C 0.39664 0.80077 0.19787 0.0
H988 H 0.66858 0.38883 0.20873 0.0
H989 H 0.74825 0.42381 0.16962 0.0
H990 H 0.69715 0.37611 0.25202 0.0
H991 H 0.77699 0.41089 0.21223 0.0
H992 H 0.82427 0.39237 0.29181 0.0
H993 H 0.79552 0.37413 0.25044 0.0
H994 H 0.71713 0.41864 0.28327 0.0
H995 H 0.74602 0.43699 0.32389 0.0
C996 C 0.69247 0.39243 0.20901 0.0
C997 C 0.70643 0.40739 0.18629 0.0
C998 C 0.70877 0.38526 0.23364 0.0
C999 C 0.73922 0.39267 0.23549 0.0
C1000 C 0.75367 0.40459 0.21134 0.0
C1001 C 0.73729 0.41218 0.18704 0.0
C1002 C 0.80064 0.39717 0.2905 0.0
C1003 C 0.7872 0.41622 0.31053 0.0
C1004 C 0.78424 0.38681 0.26698 0.0
C1005 C 0.75414 0.39502 0.26367 0.0
C1006 C 0.74014 0.41161 0.2854 0.0
C1007 C 0.75664 0.42236 0.30848 0.0
H1008 H 0.24321 0.03623 0.66262 0.0
H1009 H 0.24919 0.03362 0.57028 0.0
H1010 H 0.19709 0.06525 0.65897 0.0
H1011 H 0.20496 0.06402 0.56645 0.0
H1012 H 0.11105 0.09635 0.56372 0.0
H1013 H 0.15434 0.06432 0.57003 0.0
H1014 H 0.17651 0.11145 0.64826 0.0
H1015 H 0.13164 0.14189 0.64257 0.0
C1016 C 0.23468 0.04199 0.64161 0.0
C1017 C 0.24946 0.03236 0.61676 0.0
C1018 C 0.20843 0.05884 0.63943 0.0
C1019 C 0.19695 0.06696 0.61236 0.0
C1020 C 0.21231 0.05755 0.58766 0.0
C1021 C 0.23792 0.04019 0.58984 0.0
C1022 C 0.1254 0.09983 0.5821 0.0
C1023 C 0.11847 0.1217 0.60246 0.0
C1024 C 0.15031 0.08159 0.58577 0.0
C1025 C 0.16941 0.0854 0.60952 0.0
C1026 C 0.16226 0.10744 0.62993 0.0
C1027 C 0.13681 0.12514 0.62658 0.0
H1028 H 0.4151 0.09157 0.63338 0.0
H1029 H 0.34744 0.14633 0.59386 0.0
H1030 H 0.44526 0.13596 0.64277 0.0
H1031 H 0.37767 0.19085 0.60324 0.0
H1032 H 0.42789 0.26614 0.64828 0.0
H1033 H 0.39801 0.22045 0.64707 0.0
H1034 H 0.4721 0.17308 0.60931 0.0
H1035 H 0.50188 0.21874 0.61022 0.0
C1036 C 0.40658 0.11316 0.62697 0.0
C1037 C 0.37895 0.1156 0.61289 0.0
C1038 C 0.42388 0.13848 0.63222 0.0
C1039 C 0.41369 0.16676 0.62386 0.0
C1040 C 0.38586 0.16929 0.61019 0.0
C1041 C 0.36874 0.14388 0.60455 0.0
C1042 C 0.43801 0.2458 0.64036 0.0
C1043 C 0.46717 0.24594 0.62927 0.0
C1044 C 0.42082 0.21979 0.63942 0.0
C1045 C 0.43271 0.19341 0.62787 0.0
C1046 C 0.46246 0.19313 0.61841 0.0
C1047 C 0.47946 0.21922 0.6189 0.0
H1048 H 0.38481 0.38807 0.65096 0.0
H1049 H 0.36172 0.37192 0.56241 0.0
H1050 H 0.34207 0.42156 0.65569 0.0
H1051 H 0.31874 0.40496 0.56725 0.0
H1052 H 0.26484 0.48938 0.57622 0.0
H1053 H 0.31025 0.45969 0.5748 0.0
H1054 H 0.28574 0.41776 0.65477 0.0
H1055 H 0.2401 0.4476 0.65634 0.0
C1056 C 0.37065 0.39175 0.6325 0.0
C1057 C 0.37662 0.37747 0.60626 0.0
C1058 C 0.34609 0.41072 0.63529 0.0
C1059 C 0.32725 0.41598 0.6118 0.0
C1060 C 0.33315 0.40159 0.58562 0.0
C1061 C 0.35752 0.38244 0.58291 0.0
C1062 C 0.26925 0.47413 0.59373 0.0
C1063 C 0.24872 0.47062 0.61626 0.0
C1064 C 0.29518 0.45701 0.59278 0.0
C1065 C 0.30125 0.43614 0.61444 0.0
C1066 C 0.28159 0.43373 0.6378 0.0
C1067 C 0.25547 0.45077 0.63867 0.0
H1068 H 0.1129 0.37146 0.56036 0.0
H1069 H 0.12523 0.38094 0.65179 0.0
H1070 H 0.08229 0.3274 0.56842 0.0
H1071 H 0.09372 0.33728 0.65989 0.0
H1072 H 0.06288 0.2371 0.65595 0.0
H1073 H 0.09307 0.28242 0.65219 0.0
H1074 H 0.03262 0.31683 0.58814 0.0
H1075 H 0.00276 0.27167 0.5916 0.0
C1076 C 0.10928 0.36405 0.58216 0.0
C1077 C 0.12147 0.37982 0.6054 0.0
C1078 C 0.09139 0.33901 0.58682 0.0
C1079 C 0.08528 0.32909 0.61482 0.0
C1080 C 0.09804 0.34437 0.63807 0.0
C1081 C 0.11589 0.36952 0.63341 0.0
C1082 C 0.05577 0.25459 0.64145 0.0
C1083 C 0.03061 0.25067 0.62386 0.0
C1084 C 0.07308 0.28052 0.63929 0.0
C1085 C 0.06551 0.30293 0.61947 0.0
C1086 C 0.03943 0.29964 0.60309 0.0
C1087 C 0.02219 0.27384 0.60526 0.0
H1088 H 0.22345 0.49484 0.90653 0.0
H1089 H 0.26141 0.42907 0.84945 0.0
H1090 H 0.17823 0.46491 0.91068 0.0
H1091 H 0.21596 0.39909 0.85359 0.0
H1092 H 0.14669 0.33882 0.90047 0.0
H1093 H 0.19133 0.36969 0.8938 0.0
H1094 H 0.13559 0.4471 0.88084 0.0
H1095 H 0.09126 0.41645 0.88793 0.0
C1096 C 0.22195 0.47418 0.89456 0.0
C1097 C 0.24594 0.46429 0.87768 0.0
C1098 C 0.19605 0.45708 0.89691 0.0
C1099 C 0.19372 0.42957 0.88265 0.0
C1100 C 0.21736 0.42004 0.8651 0.0
C1101 C 0.24319 0.43735 0.86248 0.0
C1102 C 0.1441 0.36247 0.89651 0.0
C1103 C 0.11558 0.37524 0.89468 0.0
C1104 C 0.16955 0.38005 0.89233 0.0
C1105 C 0.16687 0.41074 0.88661 0.0
C1106 C 0.13833 0.42354 0.88529 0.0
C1107 C 0.11298 0.40597 0.88919 0.0
H1108 H 0.15499 0.15403 0.88818 0.0
H1109 H 0.08101 0.09449 0.87244 0.0
H1110 H 0.12268 0.19681 0.8788 0.0
H1111 H 0.04886 0.13719 0.86254 0.0
H1112 H 0.99796 0.2231 0.89303 0.0
H1113 H 0.02827 0.17801 0.89324 0.0
H1114 H 0.0933 0.22132 0.83899 0.0
H1115 H 0.06289 0.26667 0.83882 0.0
C1116 C 0.13186 0.15011 0.88268 0.0
C1117 C 0.1205 0.12095 0.8812 0.0
C1118 C 0.11348 0.17454 0.87692 0.0
C1119 C 0.0833 0.17028 0.86982 0.0
C1120 C 0.07202 0.14111 0.86802 0.0
C1121 C 0.09046 0.11669 0.87354 0.0
C1122 C 0.01843 0.22281 0.88069 0.0
C1123 C 0.02817 0.24841 0.86605 0.0
C1124 C 0.03573 0.19696 0.88072 0.0
C1125 C 0.06326 0.19629 0.86635 0.0
C1126 C 0.07231 0.2214 0.85051 0.0
C1127 C 0.0548 0.24721 0.8502 0.0
H1128 H 0.36653 0.142 0.85645 0.0
H1129 H 0.39454 0.0909 0.92979 0.0
H1130 H 0.32221 0.11051 0.85158 0.0
H1131 H 0.35182 0.05791 0.92407 0.0
H1132 H 0.25643 0.02719 0.92927 0.0
H1133 H 0.30164 0.0563 0.93163 0.0
H1134 H 0.30158 0.06472 0.83916 0.0
H1135 H 0.25463 0.03695 0.83718 0.0
C1136 C 0.36312 0.12378 0.87135 0.0
C1137 C 0.38332 0.11909 0.89383 0.0
C1138 C 0.33801 0.10549 0.86844 0.0
C1139 C 0.33309 0.08164 0.88756 0.0
C1140 C 0.35414 0.07652 0.90945 0.0
C1141 C 0.37872 0.0953 0.91277 0.0
C1142 C 0.2662 0.03494 0.90936 0.0
C1143 C 0.25202 0.02973 0.88301 0.0
C1144 C 0.29238 0.0516 0.91068 0.0
C1145 C 0.30562 0.06292 0.88559 0.0
C1146 C 0.29185 0.05689 0.85903 0.0
C1147 C 0.26512 0.04071 0.85779 0.0
H1148 H 0.34576 0.34573 0.89841 0.0
H1149 H 0.41703 0.40323 0.86963 0.0
H1150 H 0.37701 0.30203 0.88897 0.0
H1151 H 0.44807 0.35967 0.85988 0.0
H1152 H 0.50283 0.27563 0.88889 0.0
H1153 H 0.4724 0.32067 0.89107 0.0
H1154 H 0.40121 0.27499 0.84671 0.0
H1155 H 0.43173 0.22981 0.84442 0.0
C1156 C 0.36808 0.34899 0.8901 0.0
C1157 C 0.37897 0.37784 0.8848 0.0
C1158 C 0.38581 0.32404 0.88436 0.0
C1159 C 0.4149 0.32751 0.87356 0.0
C1160 C 0.42576 0.35636 0.86824 0.0
C1161 C 0.40794 0.38126 0.87367 0.0
C1162 C 0.48091 0.27537 0.87912 0.0
C1163 C 0.46962 0.2492 0.86658 0.0
C1164 C 0.46352 0.30116 0.88032 0.0
C1165 C 0.43436 0.30119 0.8693 0.0
C1166 C 0.42351 0.27542 0.85565 0.0
C1167 C 0.44108 0.2497 0.8541 0.0
H1168 H 0.87343 0.8801 0.42667 0.0
H1169 H 0.88621 0.87412 0.33506 0.0
H1170 H 0.82943 0.91107 0.41909 0.0
H1171 H 0.84244 0.90567 0.32748 0.0
H1172 H 0.74045 0.93371 0.33265 0.0
H1173 H 0.78639 0.90423 0.33487 0.0
H1174 H 0.8204 0.96268 0.40082 0.0
H1175 H 0.77479 0.99196 0.39874 0.0
C1176 C 0.86671 0.8852 0.40493 0.0
C1177 C 0.88335 0.87477 0.3815 0.0
C1178 C 0.84174 0.90323 0.40058 0.0
C1179 C 0.83275 0.91106 0.37269 0.0
C1180 C 0.84888 0.9 0.34919 0.0
C1181 C 0.87403 0.88214 0.35356 0.0
C1182 C 0.75804 0.94063 0.34713 0.0
C1183 C 0.75388 0.96493 0.36577 0.0
C1184 C 0.78427 0.92372 0.34845 0.0
C1185 C 0.80664 0.93084 0.36846 0.0
C1186 C 0.80321 0.95627 0.38569 0.0
C1187 C 0.77716 0.97315 0.38433 0.0
H1188 H 0.58163 0.90008 0.36627 0.0
H1189 H 0.65442 0.83822 0.3782 0.0
H1190 H 0.54798 0.85863 0.35645 0.0
H1191 H 0.62048 0.79656 0.36901 0.0
H1192 H 0.55689 0.72988 0.32848 0.0
H1193 H 0.58916 0.7739 0.32965 0.0
H1194 H 0.52685 0.81783 0.3863 0.0
H1195 H 0.49463 0.77407 0.38506 0.0
C1196 C 0.59051 0.87764 0.36657 0.0
C1197 C 0.62071 0.8724 0.37304 0.0
C1198 C 0.57118 0.85391 0.36113 0.0
C1199 C 0.58162 0.8244 0.36191 0.0
C1200 C 0.6119 0.81912 0.36794 0.0
C1201 C 0.63123 0.8429 0.37357 0.0
C1202 C 0.54979 0.74921 0.34064 0.0
C1203 C 0.52332 0.74853 0.35679 0.0
C1204 C 0.56839 0.77425 0.34153 0.0
C1205 C 0.56064 0.79913 0.35829 0.0
C1206 C 0.53334 0.79904 0.37308 0.0
C1207 C 0.51493 0.77395 0.37243 0.0
H1208 H 0.71477 0.49967 0.3806 0.0
H1209 H 0.76085 0.57007 0.33537 0.0
H1210 H 0.66913 0.52931 0.38036 0.0
H1211 H 0.71508 0.59985 0.3353 0.0
H1212 H 0.64191 0.65494 0.38527 0.0
H1213 H 0.68645 0.62447 0.37696 0.0
H1214 H 0.63092 0.55225 0.34677 0.0
H1215 H 0.58656 0.58248 0.35533 0.0
C1216 C 0.71495 0.52124 0.37012 0.0
C1217 C 0.7413 0.53262 0.35807 0.0
C1218 C 0.68884 0.53816 0.36994 0.0
C1219 C 0.68872 0.56694 0.35804 0.0
C1220 C 0.71473 0.57782 0.34485 0.0
C1221 C 0.74077 0.56068 0.34465 0.0
C1222 C 0.63932 0.63257 0.37688 0.0
C1223 C 0.61084 0.62107 0.37097 0.0
C1224 C 0.66474 0.61529 0.37181 0.0
C1225 C 0.66205 0.58609 0.36111 0.0
C1226 C 0.63359 0.57468 0.35505 0.0
C1227 C 0.60825 0.59205 0.3598 0.0
H1228 H 0.83986 0.65578 0.38004 0.0
H1229 H 0.91405 0.59496 0.37174 0.0
H1230 H 0.87375 0.69797 0.3733 0.0
H1231 H 0.94779 0.63702 0.36448 0.0
H1232 H -0.00163 0.72274 0.39479 0.0
H1233 H 0.96665 0.67856 0.39527 0.0
H1234 H 0.90668 0.72072 0.33522 0.0
H1235 H 0.9384 0.7651 0.33477 0.0
C1236 C 0.86338 0.65146 0.3768 0.0
C1237 C 0.8743 0.6221 0.37647 0.0
C1238 C 0.8827 0.67554 0.37258 0.0
C1239 C 0.91337 0.67073 0.36823 0.0
C1240 C 0.92427 0.64138 0.36786 0.0
C1241 C 0.90493 0.61732 0.37183 0.0
C1242 C 0.97869 0.72241 0.38132 0.0
C1243 C 0.97079 0.74743 0.36486 0.0
C1244 C 0.96058 0.69707 0.38154 0.0
C1245 C 0.93407 0.69635 0.36549 0.0
C1246 C 0.92681 0.72087 0.34807 0.0
C1247 C 0.9451 0.74613 0.34762 0.0
H1248 H 0.90246 0.5838 0.12724 0.0
H1249 H 0.83986 0.6557 0.11395 0.0
H1250 H 0.86127 0.54964 0.13653 0.0
H1251 H 0.7985 0.62127 0.12256 0.0
H1252 H 0.7316 0.55751 0.16158 0.0
H1253 H 0.77544 0.58999 0.1615 0.0
H1254 H 0.82134 0.52778 0.1062 0.0
H1255 H 0.77776 0.49532 0.10638 0.0
C1256 C 0.87991 0.59237 0.12654 0.0
C1257 C 0.87437 0.62246 0.11983 0.0
C1258 C 0.85633 0.57275 0.13167 0.0
C1259 C 0.82671 0.58281 0.13034 0.0
C1260 C 0.82115 0.61299 0.12408 0.0
C1261 C 0.84476 0.6326 0.11876 0.0
C1262 C 0.75131 0.55046 0.14996 0.0
C1263 C 0.75123 0.52398 0.13383 0.0
C1264 C 0.77626 0.56918 0.1497 0.0
C1265 C 0.80164 0.56155 0.13359 0.0
C1266 C 0.80216 0.53418 0.11892 0.0
C1267 C 0.77716 0.51563 0.11896 0.0
H1268 H 0.92943 0.74083 0.15565 0.0
H1269 H 0.9941 0.78057 0.0985 0.0
H1270 H 0.89971 0.78657 0.15382 0.0
H1271 H 0.96442 0.82603 0.09657 0.0
H1272 H 0.91465 0.91178 0.1172 0.0
H1273 H 0.946 0.86832 0.126 0.0
H1274 H 0.86964 0.81073 0.11448 0.0
H1275 H 0.83806 0.8544 0.10631 0.0
C1276 C 0.93761 0.75954 0.14321 0.0
C1277 C 0.96401 0.75715 0.12713 0.0
C1278 C 0.92045 0.78556 0.14192 0.0
C1279 C 0.92962 0.8097 0.12481 0.0
C1280 C 0.95686 0.80784 0.11004 0.0
C1281 C 0.97382 0.78179 0.11109 0.0
C1282 C 0.9045 0.88987 0.11678 0.0
C1283 C 0.87389 0.88648 0.11104 0.0
C1284 C 0.92248 0.865 0.12166 0.0
C1285 C 0.91023 0.83617 0.12105 0.0
C1286 C 0.8796 0.83273 0.11544 0.0
C1287 C 0.86162 0.85766 0.11036 0.0
H1288 H 0.72103 -0.00064 0.10088 0.0
H1289 H 0.76085 0.94504 0.16722 0.0
H1290 H 0.67813 0.96613 0.0995 0.0
H1291 H 0.71746 0.9118 0.16586 0.0
H1292 H 0.6187 0.87456 0.16543 0.0
H1293 H 0.6594 0.91029 0.17312 0.0
H1294 H 0.67635 0.91181 0.08199 0.0
H1295 H 0.63581 0.87638 0.07434 0.0
C1296 C 0.72041 0.98065 0.11556 0.0
C1297 C 0.74455 0.97462 0.13389 0.0
C1298 C 0.69589 0.96155 0.11463 0.0
C1299 C 0.69481 0.93617 0.13219 0.0
C1300 C 0.71785 0.93123 0.15205 0.0
C1301 C 0.74262 0.95026 0.15283 0.0
C1302 C 0.63121 0.88255 0.14711 0.0
C1303 C 0.62413 0.87271 0.11927 0.0
C1304 C 0.6545 0.90283 0.15153 0.0
C1305 C 0.67075 0.91396 0.12812 0.0
C1306 C 0.6639 0.90383 0.10037 0.0
C1307 C 0.64094 0.88331 0.09601 0.0
H1308 H 0.61626 0.6052 0.15907 0.0
H1309 H 0.62393 0.62464 0.06866 0.0
H1310 H 0.58364 0.64846 0.16515 0.0
H1311 H 0.59187 0.66809 0.07483 0.0
H1312 H 0.50929 0.72274 0.08796 0.0
H1313 H 0.53817 0.67685 0.08657 0.0
H1314 H 0.58691 0.70485 0.16177 0.0
H1315 H 0.55783 0.75102 0.16331 0.0
C1316 C 0.61095 0.61869 0.14051 0.0
C1317 C 0.62256 0.61148 0.11334 0.0
C1318 C 0.59248 0.64353 0.14406 0.0
C1319 C 0.58504 0.66145 0.12043 0.0
C1320 C 0.59689 0.6544 0.09335 0.0
C1321 C 0.61553 0.62975 0.08986 0.0
C1322 C 0.52585 0.719 0.10448 0.0
C1323 C 0.53154 0.74068 0.12555 0.0
C1324 C 0.5425 0.69278 0.10355 0.0
C1325 C 0.56513 0.68758 0.12373 0.0
C1326 C 0.5696 0.70833 0.14593 0.0
C1327 C 0.55295 0.73473 0.1468 0.0
loop_
_geom_bond_atom_site_label_1
_geom_bond_atom_site_label_2
_geom_bond_distance
_geom_bond_site_symmetry_2
_ccdc_geom_bond_type
C0 C1 1.351 . S
C0 N3 1.368 . S
C0 H5 0.931 . S
C1 C0 1.351 . S
C1 N2 1.373 . S
C1 H29 0.930 . S
N2 C1 1.373 . S
N2 C4 1.340 . S
N3 C0 1.368 . S
N3 C4 1.321 . S
N3 Co6 2.135 . S
C4 N2 1.340 . S
C4 N3 1.321 . S
C4 H28 0.930 . S
H5 C0 0.931 . S
Co6 N3 2.135 . S
Co6 N9 2.121 1_455 S
Co6 O14 2.055 . S
Co6 O17 2.039 . S
Co6 N20 2.140 1_455 S
C7 O8 1.227 . S
C7 O17 1.265 . S
O8 C7 1.227 . S
N9 Co6 2.121 1_655 S
N9 C11 1.375 . S
N9 C12 1.313 . S
C10 C11 1.338 . S
C10 N13 1.377 . S
C10 H30 0.930 . S
C11 N9 1.375 . S
C11 C10 1.338 . S
C11 H15 0.931 . S
C12 N9 1.313 . S
C12 N13 1.344 . S
C12 H16 0.930 . S
N13 C10 1.377 . S
N13 C12 1.344 . S
O14 Co6 2.055 . S
O14 C18 1.253 . S
H15 C11 0.931 . S
H16 C12 0.930 . S
O17 Co6 2.039 . S
O17 C7 1.265 . S
C18 O14 1.253 . S
C18 O19 1.227 . S
O19 C18 1.227 . S
N20 Co6 2.140 1_655 S
N20 C23 1.346 1_655 S
N20 C24 1.345 . S
C21 C22 1.387 . S
C21 C25 1.391 . S
C22 C21 1.387 . S
C22 C23 1.369 1_655 S
C22 H31 0.929 . S
C23 N20 1.346 1_455 S
C23 C22 1.369 1_455 S
C23 H26 0.928 . S
C24 N20 1.345 . S
C24 C25 1.371 . S
C24 H27 0.931 . S
C25 C21 1.391 . S
C25 C24 1.371 . S
C25 H32 0.930 . S
H26 C23 0.928 . S
H27 C24 0.931 . S
H28 C4 0.930 . S
H29 C1 0.930 . S
H30 C10 0.930 . S
H31 C22 0.929 . S
H32 C25 0.930 . S
C33 C34 1.351 . S
C33 N36 1.368 . S
C33 H38 0.931 . S
C34 C33 1.351 . S
C34 N35 1.373 . S
C34 H62 0.930 . S
N35 C34 1.373 . S
N35 C37 1.340 . S
N36 C33 1.368 . S
N36 C37 1.321 . S
N36 Co39 2.135 . S
C37 N35 1.340 . S
C37 N36 1.321 . S
C37 H61 0.930 . S
H38 C33 0.931 . S
Co39 N36 2.135 . S
Co39 N42 2.121 1_545 S
Co39 O47 2.055 . S
Co39 O50 2.039 . S
Co39 N53 2.140 1_545 S
C40 O41 1.227 . S
C40 O50 1.265 . S
O41 C40 1.227 . S
N42 Co39 2.121 1_565 S
N42 C44 1.375 . S
N42 C45 1.313 . S
C43 C44 1.338 . S
C43 N46 1.377 . S
C43 H63 0.930 . S
C44 N42 1.375 . S
C44 C43 1.338 . S
C44 H48 0.931 . S
C45 N42 1.313 . S
C45 N46 1.344 . S
C45 H49 0.930 . S
N46 C43 1.377 . S
N46 C45 1.344 . S
O47 Co39 2.055 . S
O47 C51 1.253 . S
H48 C44 0.931 . S
H49 C45 0.930 . S
O50 Co39 2.039 . S
O50 C40 1.265 . S
C51 O47 1.253 . S
C51 O52 1.227 . S
O52 C51 1.227 . S
N53 Co39 2.140 1_565 S
N53 C56 1.346 1_565 S
N53 C57 1.345 . S
C54 C55 1.387 . S
C54 C58 1.391 . S
C55 C54 1.387 . S
C55 C56 1.369 1_565 S
C55 H64 0.929 . S
C56 N53 1.346 1_545 S
C56 C55 1.369 1_545 S
C56 H59 0.928 . S
C57 N53 1.345 . S
C57 C58 1.371 . S
C57 H60 0.931 . S
C58 C54 1.391 . S
C58 C57 1.371 . S
C58 H65 0.930 . S
H59 C56 0.928 . S
H60 C57 0.931 . S
H61 C37 0.930 . S
H62 C34 0.930 . S
H63 C43 0.930 . S
H64 C55 0.929 . S
H65 C58 0.930 . S
C66 C67 1.351 . S
C66 N69 1.368 . S
C66 H71 0.931 . S
C67 C66 1.351 . S
C67 N68 1.373 . S
C67 H95 0.930 . S
N68 C67 1.373 . S
N68 C70 1.340 . S
N69 C66 1.368 . S
N69 C70 1.321 . S
N69 Co72 2.135 . S
C70 N68 1.340 . S
C70 N69 1.321 . S
C70 H94 0.930 . S
H71 C66 0.931 . S
Co72 N69 2.135 . S
Co72 N75 2.121 . S
Co72 O80 2.055 . S
Co72 O83 2.039 . S
Co72 N86 2.140 . S
C73 O74 1.227 . S
C73 O83 1.265 . S
O74 C73 1.227 . S
N75 Co72 2.121 . S
N75 C77 1.375 . S
N75 C78 1.313 . S
C76 C77 1.338 . S
C76 N79 1.377 . S
C76 H96 0.930 . S
C77 N75 1.375 . S
C77 C76 1.338 . S
C77 H81 0.931 . S
C78 N75 1.313 . S
C78 N79 1.344 . S
C78 H82 0.930 . S
N79 C76 1.377 . S
N79 C78 1.344 . S
O80 Co72 2.055 . S
O80 C84 1.253 . S
H81 C77 0.931 . S
H82 C78 0.930 . S
O83 Co72 2.039 . S
O83 C73 1.265 . S
C84 O80 1.253 . S
C84 O85 1.227 . S
O85 C84 1.227 . S
N86 Co72 2.140 . S
N86 C89 1.346 . S
N86 C90 1.345 . S
C87 C88 1.387 . S
C87 C91 1.391 . S
C88 C87 1.387 . S
C88 C89 1.369 . S
C88 H97 0.929 . S
C89 N86 1.346 . S
C89 C88 1.369 . S
C89 H92 0.928 . S
C90 N86 1.345 . S
C90 C91 1.371 . S
C90 H93 0.931 . S
C91 C87 1.391 . S
C91 C90 1.371 . S
C91 H98 0.930 . S
H92 C89 0.928 . S
H93 C90 0.931 . S
H94 C70 0.930 . S
H95 C67 0.930 . S
H96 C76 0.930 . S
H97 C88 0.929 . S
H98 C91 0.930 . S
C99 C100 1.351 . S
C99 N102 1.368 . S
C99 H104 0.931 . S
C100 C99 1.351 . S
C100 N101 1.373 . S
C100 H128 0.930 . S
N101 C100 1.373 . S
N101 C103 1.340 . S
N102 C99 1.368 . S
N102 C103 1.321 . S
N102 Co105 2.135 . S
C103 N101 1.340 . S
C103 N102 1.321 . S
C103 H127 0.930 . S
H104 C99 0.931 . S
Co105 N102 2.135 . S
Co105 N108 2.121 . S
Co105 O113 2.055 . S
Co105 O116 2.039 . S
Co105 N119 2.140 . S
C106 O107 1.227 . S
C106 O116 1.265 . S
O107 C106 1.227 . S
N108 Co105 2.121 . S
N108 C110 1.375 . S
N108 C111 1.313 . S
C109 C110 1.338 . S
C109 N112 1.377 . S
C109 H129 0.930 . S
C110 N108 1.375 . S
C110 C109 1.338 . S
C110 H114 0.931 . S
C111 N108 1.313 . S
C111 N112 1.344 . S
C111 H115 0.930 . S
N112 C109 1.377 . S
N112 C111 1.344 . S
O113 Co105 2.055 . S
O113 C117 1.253 . S
H114 C110 0.931 . S
H115 C111 0.930 . S
O116 Co105 2.039 . S
O116 C106 1.265 . S
C117 O113 1.253 . S
C117 O118 1.227 . S
O118 C117 1.227 . S
N119 Co105 2.140 . S
N119 C122 1.346 . S
N119 C123 1.345 . S
C120 C121 1.387 . S
C120 C124 1.391 . S
C121 C120 1.387 . S
C121 C122 1.369 . S
C121 H130 0.929 . S
C122 N119 1.346 . S
C122 C121 1.369 . S
C122 H125 0.928 . S
C123 N119 1.345 . S
C123 C124 1.371 . S
C123 H126 0.931 . S
C124 C120 1.391 . S
C124 C123 1.371 . S
C124 H131 0.930 . S
H125 C122 0.928 . S
H126 C123 0.931 . S
H127 C103 0.930 . S
H128 C100 0.930 . S
H129 C109 0.930 . S
H130 C121 0.929 . S
H131 C124 0.930 . S
C132 C133 1.351 . S
C132 N135 1.368 . S
C132 H137 0.931 . S
C133 C132 1.351 . S
C133 N134 1.373 . S
C133 H161 0.930 . S
N134 C133 1.373 . S
N134 C136 1.340 . S
N135 C132 1.368 . S
N135 C136 1.321 . S
N135 Co138 2.135 . S
C136 N134 1.340 . S
C136 N135 1.321 . S
C136 H160 0.930 . S
H137 C132 0.931 . S
Co138 N135 2.135 . S
Co138 N141 2.121 1_455 S
Co138 O146 2.055 . S
Co138 O149 2.039 . S
Co138 N152 2.140 1_455 S
C139 O140 1.227 . S
C139 O149 1.265 . S
O140 C139 1.227 . S
N141 Co138 2.121 1_655 S
N141 C143 1.375 . S
N141 C144 1.313 . S
C142 C143 1.338 . S
C142 N145 1.377 . S
C142 H162 0.930 . S
C143 N141 1.375 . S
C143 C142 1.338 . S
C143 H147 0.931 . S
C144 N141 1.313 . S
C144 N145 1.344 . S
C144 H148 0.930 . S
N145 C142 1.377 . S
N145 C144 1.344 . S
O146 Co138 2.055 . S
O146 C150 1.253 . S
H147 C143 0.931 . S
H148 C144 0.930 . S
O149 Co138 2.039 . S
O149 C139 1.265 . S
C150 O146 1.253 . S
C150 O151 1.227 . S
O151 C150 1.227 . S
N152 Co138 2.140 1_655 S
N152 C155 1.346 1_655 S
N152 C156 1.345 . S
C153 C154 1.387 . S
C153 C157 1.391 . S
C154 C153 1.387 . S
C154 C155 1.369 1_655 S
C154 H163 0.929 . S
C155 N152 1.346 1_455 S
C155 C154 1.369 1_455 S
C155 H158 0.928 . S
C156 N152 1.345 . S
C156 C157 1.371 . S
C156 H159 0.931 . S
C157 C153 1.391 . S
C157 C156 1.371 . S
C157 H164 0.930 . S
H158 C155 0.928 . S
H159 C156 0.931 . S
H160 C136 0.930 . S
H161 C133 0.930 . S
H162 C142 0.930 . S
H163 C154 0.929 . S
H164 C157 0.930 . S
C165 C166 1.351 . S
C165 N168 1.368 . S
C165 H170 0.931 . S
C166 C165 1.351 . S
C166 N167 1.373 . S
C166 H194 0.930 . S
N167 C166 1.373 . S
N167 C169 1.340 . S
N168 C165 1.368 . S
N168 C169 1.321 . S
N168 Co171 2.135 . S
C169 N167 1.340 . S
C169 N168 1.321 . S
C169 H193 0.930 . S
H170 C165 0.931 . S
Co171 N168 2.135 . S
Co171 N174 2.121 1_545 S
Co171 O179 2.055 . S
Co171 O182 2.039 . S
Co171 N185 2.140 1_545 S
C172 O173 1.227 . S
C172 O182 1.265 . S
O173 C172 1.227 . S
N174 Co171 2.121 1_565 S
N174 C176 1.375 . S
N174 C177 1.313 . S
C175 C176 1.338 . S
C175 N178 1.377 . S
C175 H195 0.930 . S
C176 N174 1.375 . S
C176 C175 1.338 . S
C176 H180 0.931 . S
C177 N174 1.313 . S
C177 N178 1.344 . S
C177 H181 0.930 . S
N178 C175 1.377 . S
N178 C177 1.344 . S
O179 Co171 2.055 . S
O179 C183 1.253 . S
H180 C176 0.931 . S
H181 C177 0.930 . S
O182 Co171 2.039 . S
O182 C172 1.265 . S
C183 O179 1.253 . S
C183 O184 1.227 . S
O184 C183 1.227 . S
N185 Co171 2.140 1_565 S
N185 C188 1.346 1_565 S
N185 C189 1.345 . S
C186 C187 1.387 . S
C186 C190 1.391 . S
C187 C186 1.387 . S
C187 C188 1.369 1_565 S
C187 H196 0.929 . S
C188 N185 1.346 1_545 S
C188 C187 1.369 1_545 S
C188 H191 0.928 . S
C189 N185 1.345 . S
C189 C190 1.371 . S
C189 H192 0.931 . S
C190 C186 1.391 . S
C190 C189 1.371 . S
C190 H197 0.930 . S
H191 C188 0.928 . S
H192 C189 0.931 . S
H193 C169 0.930 . S
H194 C166 0.930 . S
H195 C175 0.930 . S
H196 C187 0.929 . S
H197 C190 0.930 . S
C198 C199 1.351 . S
C198 N201 1.368 . S
C198 H203 0.931 . S
C199 C198 1.351 . S
C199 N200 1.373 . S
C199 H227 0.930 . S
N200 C199 1.373 . S
N200 C202 1.340 . S
N201 C198 1.368 . S
N201 C202 1.321 . S
N201 Co204 2.135 . S
C202 N200 1.340 . S
C202 N201 1.321 . S
C202 H226 0.930 . S
H203 C198 0.931 . S
Co204 N201 2.135 . S
Co204 N207 2.121 . S
Co204 O212 2.055 . S
Co204 O215 2.039 . S
Co204 N218 2.140 . S
C205 O206 1.227 . S
C205 O215 1.265 . S
O206 C205 1.227 . S
N207 Co204 2.121 . S
N207 C209 1.375 . S
N207 C210 1.313 . S
C208 C209 1.338 . S
C208 N211 1.377 . S
C208 H228 0.930 . S
C209 N207 1.375 . S
C209 C208 1.338 . S
C209 H213 0.931 . S
C210 N207 1.313 . S
C210 N211 1.344 . S
C210 H214 0.930 . S
N211 C208 1.377 . S
N211 C210 1.344 . S
O212 Co204 2.055 . S
O212 C216 1.253 . S
H213 C209 0.931 . S
H214 C210 0.930 . S
O215 Co204 2.039 . S
O215 C205 1.265 . S
C216 O212 1.253 . S
C216 O217 1.227 . S
O217 C216 1.227 . S
N218 Co204 2.140 . S
N218 C221 1.346 . S
N218 C222 1.345 . S
C219 C220 1.387 . S
C219 C223 1.391 . S
C220 C219 1.387 . S
C220 C221 1.369 . S
C220 H229 0.929 . S
C221 N218 1.346 . S
C221 C220 1.369 . S
C221 H224 0.928 . S
C222 N218 1.345 . S
C222 C223 1.371 . S
C222 H225 0.931 . S
C223 C219 1.391 . S
C223 C222 1.371 . S
C223 H230 0.930 . S
H224 C221 0.928 . S
H225 C222 0.931 . S
H226 C202 0.930 . S
H227 C199 0.930 . S
H228 C208 0.930 . S
H229 C220 0.929 . S
H230 C223 0.930 . S
C231 C232 1.351 . S
C231 N234 1.368 . S
C231 H236 0.931 . S
C232 C231 1.351 . S
C232 N233 1.373 . S
C232 H260 0.930 . S
N233 C232 1.373 . S
N233 C235 1.340 . S
N234 C231 1.368 . S
N234 C235 1.321 . S
N234 Co237 2.135 . S
C235 N233 1.340 . S
C235 N234 1.321 . S
C235 H259 0.930 . S
H236 C231 0.931 . S
Co237 N234 2.135 . S
Co237 N240 2.121 . S
Co237 O245 2.055 . S
Co237 O248 2.039 . S
Co237 N251 2.140 . S
C238 O239 1.227 . S
C238 O248 1.265 . S
O239 C238 1.227 . S
N240 Co237 2.121 . S
N240 C242 1.375 . S
N240 C243 1.313 . S
C241 C242 1.338 . S
C241 N244 1.377 . S
C241 H261 0.930 . S
C242 N240 1.375 . S
C242 C241 1.338 . S
C242 H246 0.931 . S
C243 N240 1.313 . S
C243 N244 1.344 . S
C243 H247 0.930 . S
N244 C241 1.377 . S
N244 C243 1.344 . S
O245 Co237 2.055 . S
O245 C249 1.253 . S
H246 C242 0.931 . S
H247 C243 0.930 . S
O248 Co237 2.039 . S
O248 C238 1.265 . S
C249 O245 1.253 . S
C249 O250 1.227 . S
O250 C249 1.227 . S
N251 Co237 2.140 . S
N251 C254 1.346 . S
N251 C255 1.345 . S
C252 C253 1.387 . S
C252 C256 1.391 . S
C253 C252 1.387 . S
C253 C254 1.369 . S
C253 H262 0.929 . S
C254 N251 1.346 . S
C254 C253 1.369 . S
C254 H257 0.928 . S
C255 N251 1.345 . S
C255 C256 1.371 . S
C255 H258 0.931 . S
C256 C252 1.391 . S
C256 C255 1.371 . S
C256 H263 0.930 . S
H257 C254 0.928 . S
H258 C255 0.931 . S
H259 C235 0.930 . S
H260 C232 0.930 . S
H261 C241 0.930 . S
H262 C253 0.929 . S
H263 C256 0.930 . S
C264 C265 1.351 . S
C264 N267 1.368 . S
C264 H269 0.931 . S
C265 C264 1.351 . S
C265 N266 1.373 . S
C265 H293 0.930 . S
N266 C265 1.373 . S
N266 C268 1.340 . S
N267 C264 1.368 . S
N267 C268 1.321 . S
N267 Co270 2.135 . S
C268 N266 1.340 . S
C268 N267 1.321 . S
C268 H292 0.930 . S
H269 C264 0.931 . S
Co270 N267 2.135 . S
Co270 N273 2.121 1_655 S
Co270 O278 2.055 . S
Co270 O281 2.039 . S
Co270 N284 2.140 1_655 S
C271 O272 1.227 . S
C271 O281 1.265 . S
O272 C271 1.227 . S
N273 Co270 2.121 1_455 S
N273 C275 1.375 . S
N273 C276 1.313 . S
C274 C275 1.338 . S
C274 N277 1.377 . S
C274 H294 0.930 . S
C275 N273 1.375 . S
C275 C274 1.338 . S
C275 H279 0.931 . S
C276 N273 1.313 . S
C276 N277 1.344 . S
C276 H280 0.930 . S
N277 C274 1.377 . S
N277 C276 1.344 . S
O278 Co270 2.055 . S
O278 C282 1.253 . S
H279 C275 0.931 . S
H280 C276 0.930 . S
O281 Co270 2.039 . S
O281 C271 1.265 . S
C282 O278 1.253 . S
C282 O283 1.227 . S
O283 C282 1.227 . S
N284 Co270 2.140 1_455 S
N284 C287 1.346 1_455 S
N284 C288 1.345 . S
C285 C286 1.387 . S
C285 C289 1.391 . S
C286 C285 1.387 . S
C286 C287 1.369 1_455 S
C286 H295 0.929 . S
C287 N284 1.346 1_655 S
C287 C286 1.369 1_655 S
C287 H290 0.928 . S
C288 N284 1.345 . S
C288 C289 1.371 . S
C288 H291 0.931 . S
C289 C285 1.391 . S
C289 C288 1.371 . S
C289 H296 0.930 . S
H290 C287 0.928 . S
H291 C288 0.931 . S
H292 C268 0.930 . S
H293 C265 0.930 . S
H294 C274 0.930 . S
H295 C286 0.929 . S
H296 C289 0.930 . S
C297 C298 1.351 . S
C297 N300 1.368 . S
C297 H302 0.931 . S
C298 C297 1.351 . S
C298 N299 1.373 . S
C298 H326 0.930 . S
N299 C298 1.373 . S
N299 C301 1.340 . S
N300 C297 1.368 . S
N300 C301 1.321 . S
N300 Co303 2.135 . S
C301 N299 1.340 . S
C301 N300 1.321 . S
C301 H325 0.930 . S
H302 C297 0.931 . S
Co303 N300 2.135 . S
Co303 N306 2.121 1_565 S
Co303 O311 2.055 . S
Co303 O314 2.039 . S
Co303 N317 2.140 1_565 S
C304 O305 1.227 . S
C304 O314 1.265 . S
O305 C304 1.227 . S
N306 Co303 2.121 1_545 S
N306 C308 1.375 . S
N306 C309 1.313 . S
C307 C308 1.338 . S
C307 N310 1.377 . S
C307 H327 0.930 . S
C308 N306 1.375 . S
C308 C307 1.338 . S
C308 H312 0.931 . S
C309 N306 1.313 . S
C309 N310 1.344 . S
C309 H313 0.930 . S
N310 C307 1.377 . S
N310 C309 1.344 . S
O311 Co303 2.055 . S
O311 C315 1.253 . S
H312 C308 0.931 . S
H313 C309 0.930 . S
O314 Co303 2.039 . S
O314 C304 1.265 . S
C315 O311 1.253 . S
C315 O316 1.227 . S
O316 C315 1.227 . S
N317 Co303 2.140 1_545 S
N317 C320 1.346 1_545 S
N317 C321 1.345 . S
C318 C319 1.387 . S
C318 C322 1.391 . S
C319 C318 1.387 . S
C319 C320 1.369 1_545 S
C319 H328 0.929 . S
C320 N317 1.346 1_565 S
C320 C319 1.369 1_565 S
C320 H323 0.928 . S
C321 N317 1.345 . S
C321 C322 1.371 . S
C321 H324 0.931 . S
C322 C318 1.391 . S
C322 C321 1.371 . S
C322 H329 0.930 . S
H323 C320 0.928 . S
H324 C321 0.931 . S
H325 C301 0.930 . S
H326 C298 0.930 . S
H327 C307 0.930 . S
H328 C319 0.929 . S
H329 C322 0.930 . S
C330 C331 1.351 . S
C330 N333 1.368 . S
C330 H335 0.931 . S
C331 C330 1.351 . S
C331 N332 1.373 . S
C331 H359 0.930 . S
N332 C331 1.373 . S
N332 C334 1.340 . S
N333 C330 1.368 . S
N333 C334 1.321 . S
N333 Co336 2.135 . S
C334 N332 1.340 . S
C334 N333 1.321 . S
C334 H358 0.930 . S
H335 C330 0.931 . S
Co336 N333 2.135 . S
Co336 N339 2.121 . S
Co336 O344 2.055 . S
Co336 O347 2.039 . S
Co336 N350 2.140 . S
C337 O338 1.227 . S
C337 O347 1.265 . S
O338 C337 1.227 . S
N339 Co336 2.121 . S
N339 C341 1.375 . S
N339 C342 1.313 . S
C340 C341 1.338 . S
C340 N343 1.377 . S
C340 H360 0.930 . S
C341 N339 1.375 . S
C341 C340 1.338 . S
C341 H345 0.931 . S
C342 N339 1.313 . S
C342 N343 1.344 . S
C342 H346 0.930 . S
N343 C340 1.377 . S
N343 C342 1.344 . S
O344 Co336 2.055 . S
O344 C348 1.253 . S
H345 C341 0.931 . S
H346 C342 0.930 . S
O347 Co336 2.039 . S
O347 C337 1.265 . S
C348 O344 1.253 . S
C348 O349 1.227 . S
O349 C348 1.227 . S
N350 Co336 2.140 . S
N350 C353 1.346 . S
N350 C354 1.345 . S
C351 C352 1.387 . S
C351 C355 1.391 . S
C352 C351 1.387 . S
C352 C353 1.369 . S
C352 H361 0.929 . S
C353 N350 1.346 . S
C353 C352 1.369 . S
C353 H356 0.928 . S
C354 N350 1.345 . S
C354 C355 1.371 . S
C354 H357 0.931 . S
C355 C351 1.391 . S
C355 C354 1.371 . S
C355 H362 0.930 . S
H356 C353 0.928 . S
H357 C354 0.931 . S
H358 C334 0.930 . S
H359 C331 0.930 . S
H360 C340 0.930 . S
H361 C352 0.929 . S
H362 C355 0.930 . S
C363 C364 1.351 . S
C363 N366 1.368 . S
C363 H368 0.931 . S
C364 C363 1.351 . S
C364 N365 1.373 . S
C364 H392 0.930 . S
N365 C364 1.373 . S
N365 C367 1.340 . S
N366 C363 1.368 . S
N366 C367 1.321 . S
N366 Co369 2.135 . S
C367 N365 1.340 . S
C367 N366 1.321 . S
C367 H391 0.930 . S
H368 C363 0.931 . S
Co369 N366 2.135 . S
Co369 N372 2.121 . S
Co369 O377 2.055 . S
Co369 O380 2.039 . S
Co369 N383 2.140 . S
C370 O371 1.227 . S
C370 O380 1.265 . S
O371 C370 1.227 . S
N372 Co369 2.121 . S
N372 C374 1.375 . S
N372 C375 1.313 . S
C373 C374 1.338 . S
C373 N376 1.377 . S
C373 H393 0.930 . S
C374 N372 1.375 . S
C374 C373 1.338 . S
C374 H378 0.931 . S
C375 N372 1.313 . S
C375 N376 1.344 . S
C375 H379 0.930 . S
N376 C373 1.377 . S
N376 C375 1.344 . S
O377 Co369 2.055 . S
O377 C381 1.253 . S
H378 C374 0.931 . S
H379 C375 0.930 . S
O380 Co369 2.039 . S
O380 C370 1.265 . S
C381 O377 1.253 . S
C381 O382 1.227 . S
O382 C381 1.227 . S
N383 Co369 2.140 . S
N383 C386 1.346 . S
N383 C387 1.345 . S
C384 C385 1.387 . S
C384 C388 1.391 . S
C385 C384 1.387 . S
C385 C386 1.369 . S
C385 H394 0.929 . S
C386 N383 1.346 . S
C386 C385 1.369 . S
C386 H389 0.928 . S
C387 N383 1.345 . S
C387 C388 1.371 . S
C387 H390 0.931 . S
C388 C384 1.391 . S
C388 C387 1.371 . S
C388 H395 0.930 . S
H389 C386 0.928 . S
H390 C387 0.931 . S
H391 C367 0.930 . S
H392 C364 0.930 . S
H393 C373 0.930 . S
H394 C385 0.929 . S
H395 C388 0.930 . S
C396 C397 1.351 . S
C396 N399 1.368 . S
C396 H401 0.931 . S
C397 C396 1.351 . S
C397 N398 1.373 . S
C397 H425 0.930 . S
N398 C397 1.373 . S
N398 C400 1.340 . S
N399 C396 1.368 . S
N399 C400 1.321 . S
N399 Co402 2.135 . S
C400 N398 1.340 . S
C400 N399 1.321 . S
C400 H424 0.930 . S
H401 C396 0.931 . S
Co402 N399 2.135 . S
Co402 N405 2.121 1_655 S
Co402 O410 2.055 . S
Co402 O413 2.039 . S
Co402 N416 2.140 1_655 S
C403 O404 1.227 . S
C403 O413 1.265 . S
O404 C403 1.227 . S
N405 Co402 2.121 1_455 S
N405 C407 1.375 . S
N405 C408 1.313 . S
C406 C407 1.338 . S
C406 N409 1.377 . S
C406 H426 0.930 . S
C407 N405 1.375 . S
C407 C406 1.338 . S
C407 H411 0.931 . S
C408 N405 1.313 . S
C408 N409 1.344 . S
C408 H412 0.930 . S
N409 C406 1.377 . S
N409 C408 1.344 . S
O410 Co402 2.055 . S
O410 C414 1.253 . S
H411 C407 0.931 . S
H412 C408 0.930 . S
O413 Co402 2.039 . S
O413 C403 1.265 . S
C414 O410 1.253 . S
C414 O415 1.227 . S
O415 C414 1.227 . S
N416 Co402 2.140 1_455 S
N416 C419 1.346 1_455 S
N416 C420 1.345 . S
C417 C418 1.387 . S
C417 C421 1.391 . S
C418 C417 1.387 . S
C418 C419 1.369 1_455 S
C418 H427 0.929 . S
C419 N416 1.346 1_655 S
C419 C418 1.369 1_655 S
C419 H422 0.928 . S
C420 N416 1.345 . S
C420 C421 1.371 . S
C420 H423 0.931 . S
C421 C417 1.391 . S
C421 C420 1.371 . S
C421 H428 0.930 . S
H422 C419 0.928 . S
H423 C420 0.931 . S
H424 C400 0.930 . S
H425 C397 0.930 . S
H426 C406 0.930 . S
H427 C418 0.929 . S
H428 C421 0.930 . S
C429 C430 1.351 . S
C429 N432 1.368 . S
C429 H434 0.931 . S
C430 C429 1.351 . S
C430 N431 1.373 . S
C430 H458 0.930 . S
N431 C430 1.373 . S
N431 C433 1.340 . S
N432 C429 1.368 . S
N432 C433 1.321 . S
N432 Co435 2.135 . S
C433 N431 1.340 . S
C433 N432 1.321 . S
C433 H457 0.930 . S
H434 C429 0.931 . S
Co435 N432 2.135 . S
Co435 N438 2.121 1_565 S
Co435 O443 2.055 . S
Co435 O446 2.039 . S
Co435 N449 2.140 1_565 S
C436 O437 1.227 . S
C436 O446 1.265 . S
O437 C436 1.227 . S
N438 Co435 2.121 1_545 S
N438 C440 1.375 . S
N438 C441 1.313 . S
C439 C440 1.338 . S
C439 N442 1.377 . S
C439 H459 0.930 . S
C440 N438 1.375 . S
C440 C439 1.338 . S
C440 H444 0.931 . S
C441 N438 1.313 . S
C441 N442 1.344 . S
C441 H445 0.930 . S
N442 C439 1.377 . S
N442 C441 1.344 . S
O443 Co435 2.055 . S
O443 C447 1.253 . S
H444 C440 0.931 . S
H445 C441 0.930 . S
O446 Co435 2.039 . S
O446 C436 1.265 . S
C447 O443 1.253 . S
C447 O448 1.227 . S
O448 C447 1.227 . S
N449 Co435 2.140 1_545 S
N449 C452 1.346 1_545 S
N449 C453 1.345 . S
C450 C451 1.387 . S
C450 C454 1.391 . S
C451 C450 1.387 . S
C451 C452 1.369 1_545 S
C451 H460 0.929 . S
C452 N449 1.346 1_565 S
C452 C451 1.369 1_565 S
C452 H455 0.928 . S
C453 N449 1.345 . S
C453 C454 1.371 . S
C453 H456 0.931 . S
C454 C450 1.391 . S
C454 C453 1.371 . S
C454 H461 0.930 . S
H455 C452 0.928 . S
H456 C453 0.931 . S
H457 C433 0.930 . S
H458 C430 0.930 . S
H459 C439 0.930 . S
H460 C451 0.929 . S
H461 C454 0.930 . S
C462 C463 1.351 . S
C462 N465 1.368 . S
C462 H467 0.931 . S
C463 C462 1.351 . S
C463 N464 1.373 . S
C463 H491 0.930 . S
N464 C463 1.373 . S
N464 C466 1.340 . S
N465 C462 1.368 . S
N465 C466 1.321 . S
N465 Co468 2.135 . S
C466 N464 1.340 . S
C466 N465 1.321 . S
C466 H490 0.930 . S
H467 C462 0.931 . S
Co468 N465 2.135 . S
Co468 N471 2.121 . S
Co468 O476 2.055 . S
Co468 O479 2.039 . S
Co468 N482 2.140 . S
C469 O470 1.227 . S
C469 O479 1.265 . S
O470 C469 1.227 . S
N471 Co468 2.121 . S
N471 C473 1.375 . S
N471 C474 1.313 . S
C472 C473 1.338 . S
C472 N475 1.377 . S
C472 H492 0.930 . S
C473 N471 1.375 . S
C473 C472 1.338 . S
C473 H477 0.931 . S
C474 N471 1.313 . S
C474 N475 1.344 . S
C474 H478 0.930 . S
N475 C472 1.377 . S
N475 C474 1.344 . S
O476 Co468 2.055 . S
O476 C480 1.253 . S
H477 C473 0.931 . S
H478 C474 0.930 . S
O479 Co468 2.039 . S
O479 C469 1.265 . S
C480 O476 1.253 . S
C480 O481 1.227 . S
O481 C480 1.227 . S
N482 Co468 2.140 . S
N482 C485 1.346 . S
N482 C486 1.345 . S
C483 C484 1.387 . S
C483 C487 1.391 . S
C484 C483 1.387 . S
C484 C485 1.369 . S
C484 H493 0.929 . S
C485 N482 1.346 . S
C485 C484 1.369 . S
C485 H488 0.928 . S
C486 N482 1.345 . S
C486 C487 1.371 . S
C486 H489 0.931 . S
C487 C483 1.391 . S
C487 C486 1.371 . S
C487 H494 0.930 . S
H488 C485 0.928 . S
H489 C486 0.931 . S
H490 C466 0.930 . S
H491 C463 0.930 . S
H492 C472 0.930 . S
H493 C484 0.929 . S
H494 C487 0.930 . S
C495 C496 1.351 . S
C495 N498 1.368 . S
C495 H500 0.931 . S
C496 C495 1.351 . S
C496 N497 1.373 . S
C496 H524 0.930 . S
N497 C496 1.373 . S
N497 C499 1.340 . S
N498 C495 1.368 . S
N498 C499 1.321 . S
N498 Co501 2.135 . S
C499 N497 1.340 . S
C499 N498 1.321 . S
C499 H523 0.930 . S
H500 C495 0.931 . S
Co501 N498 2.135 . S
Co501 N504 2.121 . S
Co501 O509 2.055 . S
Co501 O512 2.039 . S
Co501 N515 2.140 . S
C502 O503 1.227 . S
C502 O512 1.265 . S
O503 C502 1.227 . S
N504 Co501 2.121 . S
N504 C506 1.375 . S
N504 C507 1.313 . S
C505 C506 1.338 . S
C505 N508 1.377 . S
C505 H525 0.930 . S
C506 N504 1.375 . S
C506 C505 1.338 . S
C506 H510 0.931 . S
C507 N504 1.313 . S
C507 N508 1.344 . S
C507 H511 0.930 . S
N508 C505 1.377 . S
N508 C507 1.344 . S
O509 Co501 2.055 . S
O509 C513 1.253 . S
H510 C506 0.931 . S
H511 C507 0.930 . S
O512 Co501 2.039 . S
O512 C502 1.265 . S
C513 O509 1.253 . S
C513 O514 1.227 . S
O514 C513 1.227 . S
N515 Co501 2.140 . S
N515 C518 1.346 . S
N515 C519 1.345 . S
C516 C517 1.387 . S
C516 C520 1.391 . S
C517 C516 1.387 . S
C517 C518 1.369 . S
C517 H526 0.929 . S
C518 N515 1.346 . S
C518 C517 1.369 . S
C518 H521 0.928 . S
C519 N515 1.345 . S
C519 C520 1.371 . S
C519 H522 0.931 . S
C520 C516 1.391 . S
C520 C519 1.371 . S
C520 H527 0.930 . S
H521 C518 0.928 . S
H522 C519 0.931 . S
H523 C499 0.930 . S
H524 C496 0.930 . S
H525 C505 0.930 . S
H526 C517 0.929 . S
H527 C520 0.930 . S
H528 C536 0.950 . S
H529 C541 0.950 1_655 S
H530 C538 0.950 . S
H531 C540 0.950 . S
H532 C542 0.950 . S
H533 C544 0.950 . S
H534 C546 0.950 . S
H535 C547 0.950 1_565 S
C536 H528 0.950 . S
C536 C537 1.386 . S
C536 C538 1.391 . S
C537 C536 1.386 . S
C537 C541 1.393 . S
C538 H530 0.950 . S
C538 C536 1.391 . S
C538 C539 1.400 . S
C539 C538 1.400 . S
C539 C540 1.398 . S
C539 C545 1.491 . S
C540 H531 0.950 . S
C540 C539 1.398 . S
C540 C541 1.391 . S
C541 H529 0.950 1_455 S
C541 C537 1.393 . S
C541 C540 1.391 . S
C542 H532 0.950 . S
C542 C543 1.386 . S
C542 C544 1.391 . S
C543 C542 1.386 . S
C543 C547 1.393 . S
C544 H533 0.950 . S
C544 C542 1.391 . S
C544 C545 1.400 . S
C545 C539 1.491 . S
C545 C544 1.400 . S
C545 C546 1.398 . S
C546 H534 0.950 . S
C546 C545 1.398 . S
C546 C547 1.391 . S
C547 H535 0.950 1_545 S
C547 C543 1.393 . S
C547 C546 1.391 . S
H548 C556 0.950 . S
H549 C561 0.950 1_565 S
H550 C558 0.950 . S
H551 C560 0.950 . S
H552 C562 0.950 . S
H553 C564 0.950 . S
H554 C566 0.950 . S
H555 C567 0.950 . S
C556 H548 0.950 . S
C556 C557 1.386 . S
C556 C558 1.391 . S
C557 C556 1.386 . S
C557 C561 1.393 . S
C558 H550 0.950 . S
C558 C556 1.391 . S
C558 C559 1.400 . S
C559 C558 1.400 . S
C559 C560 1.398 . S
C559 C565 1.491 . S
C560 H551 0.950 . S
C560 C559 1.398 . S
C560 C561 1.391 . S
C561 H549 0.950 1_545 S
C561 C557 1.393 . S
C561 C560 1.391 . S
C562 H552 0.950 . S
C562 C563 1.386 . S
C562 C564 1.391 . S
C563 C562 1.386 . S
C563 C567 1.393 . S
C564 H553 0.950 . S
C564 C562 1.391 . S
C564 C565 1.400 . S
C565 C559 1.491 . S
C565 C564 1.400 . S
C565 C566 1.398 . S
C566 H554 0.950 . S
C566 C565 1.398 . S
C566 C567 1.391 . S
C567 H555 0.950 . S
C567 C563 1.393 . S
C567 C566 1.391 . S
H568 C576 0.950 . S
H569 C581 0.950 . S
H570 C578 0.950 . S
H571 C580 0.950 . S
H572 C582 0.950 . S
H573 C584 0.950 . S
H574 C586 0.950 . S
H575 C587 0.950 . S
C576 H568 0.950 . S
C576 C577 1.386 . S
C576 C578 1.391 . S
C577 C576 1.386 . S
C577 C581 1.393 . S
C578 H570 0.950 . S
C578 C576 1.391 . S
C578 C579 1.400 . S
C579 C578 1.400 . S
C579 C580 1.398 . S
C579 C585 1.491 . S
C580 H571 0.950 . S
C580 C579 1.398 . S
C580 C581 1.391 . S
C581 H569 0.950 . S
C581 C577 1.393 . S
C581 C580 1.391 . S
C582 H572 0.950 . S
C582 C583 1.386 . S
C582 C584 1.391 . S
C583 C582 1.386 . S
C583 C587 1.393 . S
C584 H573 0.950 . S
C584 C582 1.391 . S
C584 C585 1.400 . S
C585 C579 1.491 . S
C585 C584 1.400 . S
C585 C586 1.398 . S
C586 H574 0.950 . S
C586 C585 1.398 . S
C586 C587 1.391 . S
C587 H575 0.950 . S
C587 C583 1.393 . S
C587 C586 1.391 . S
H588 C596 0.950 1_655 S
H589 C601 0.950 . S
H590 C598 0.950 . S
H591 C600 0.950 . S
H592 C602 0.950 . S
H593 C604 0.950 . S
H594 C606 0.950 . S
H595 C607 0.950 . S
C596 H588 0.950 1_455 S
C596 C597 1.386 . S
C596 C598 1.391 . S
C597 C596 1.386 . S
C597 C601 1.393 . S
C598 H590 0.950 . S
C598 C596 1.391 . S
C598 C599 1.400 . S
C599 C598 1.400 . S
C599 C600 1.398 . S
C599 C605 1.491 . S
C600 H591 0.950 . S
C600 C599 1.398 . S
C600 C601 1.391 . S
C601 H589 0.950 . S
C601 C597 1.393 . S
C601 C600 1.391 . S
C602 H592 0.950 . S
C602 C603 1.386 . S
C602 C604 1.391 . S
C603 C602 1.386 . S
C603 C607 1.393 . S
C604 H593 0.950 . S
C604 C602 1.391 . S
C604 C605 1.400 . S
C605 C599 1.491 . S
C605 C604 1.400 . S
C605 C606 1.398 . S
C606 H594 0.950 . S
C606 C605 1.398 . S
C606 C607 1.391 . S
C607 H595 0.950 . S
C607 C603 1.393 . S
C607 C606 1.391 . S
H608 C616 0.950 . S
H609 C621 0.950 . S
H610 C618 0.950 . S
H611 C620 0.950 . S
H612 C622 0.950 . S
H613 C624 0.950 . S
H614 C626 0.950 . S
H615 C627 0.950 1_545 S
C616 H608 0.950 . S
C616 C617 1.386 . S
C616 C618 1.391 . S
C617 C616 1.386 . S
C617 C621 1.393 . S
C618 H610 0.950 . S
C618 C616 1.391 . S
C618 C619 1.400 . S
C619 C618 1.400 . S
C619 C620 1.398 . S
C619 C625 1.491 . S
C620 H611 0.950 . S
C620 C619 1.398 . S
C620 C621 1.391 . S
C621 H609 0.950 . S
C621 C617 1.393 . S
C621 C620 1.391 . S
C622 H612 0.950 . S
C622 C623 1.386 . S
C622 C624 1.391 . S
C623 C622 1.386 . S
C623 C627 1.393 . S
C624 H613 0.950 . S
C624 C622 1.391 . S
C624 C625 1.400 . S
C625 C619 1.491 . S
C625 C624 1.400 . S
C625 C626 1.398 . S
C626 H614 0.950 . S
C626 C625 1.398 . S
C626 C627 1.391 . S
C627 H615 0.950 1_565 S
C627 C623 1.393 . S
C627 C626 1.391 . S
H628 C636 0.950 . S
H629 C641 0.950 . S
H630 C638 0.950 . S
H631 C640 0.950 . S
H632 C642 0.950 . S
H633 C644 0.950 . S
H634 C646 0.950 . S
H635 C647 0.950 . S
C636 H628 0.950 . S
C636 C637 1.386 . S
C636 C638 1.391 . S
C637 C636 1.386 . S
C637 C641 1.393 . S
C638 H630 0.950 . S
C638 C636 1.391 . S
C638 C639 1.400 . S
C639 C638 1.400 . S
C639 C640 1.398 . S
C639 C645 1.491 . S
C640 H631 0.950 . S
C640 C639 1.398 . S
C640 C641 1.391 . S
C641 H629 0.950 . S
C641 C637 1.393 . S
C641 C640 1.391 . S
C642 H632 0.950 . S
C642 C643 1.386 . S
C642 C644 1.391 . S
C643 C642 1.386 . S
C643 C647 1.393 . S
C644 H633 0.950 . S
C644 C642 1.391 . S
C644 C645 1.400 . S
C645 C639 1.491 . S
C645 C644 1.400 . S
C645 C646 1.398 . S
C646 H634 0.950 . S
C646 C645 1.398 . S
C646 C647 1.391 . S
C647 H635 0.950 . S
C647 C643 1.393 . S
C647 C646 1.391 . S
H648 C656 0.950 . S
H649 C661 0.950 . S
H650 C658 0.950 . S
H651 C660 0.950 . S
H652 C662 0.950 . S
H653 C664 0.950 . S
H654 C666 0.950 . S
H655 C667 0.950 . S
C656 H648 0.950 . S
C656 C657 1.386 . S
C656 C658 1.391 . S
C657 C656 1.386 . S
C657 C661 1.393 . S
C658 H650 0.950 . S
C658 C656 1.391 . S
C658 C659 1.400 . S
C659 C658 1.400 . S
C659 C660 1.398 . S
C659 C665 1.491 . S
C660 H651 0.950 . S
C660 C659 1.398 . S
C660 C661 1.391 . S
C661 H649 0.950 . S
C661 C657 1.393 . S
C661 C660 1.391 . S
C662 H652 0.950 . S
C662 C663 1.386 . S
C662 C664 1.391 . S
C663 C662 1.386 . S
C663 C667 1.393 . S
C664 H653 0.950 . S
C664 C662 1.391 . S
C664 C665 1.400 . S
C665 C659 1.491 . S
C665 C664 1.400 . S
C665 C666 1.398 . S
C666 H654 0.950 . S
C666 C665 1.398 . S
C666 C667 1.391 . S
C667 H655 0.950 . S
C667 C663 1.393 . S
C667 C666 1.391 . S
H668 C676 0.950 . S
H669 C681 0.950 . S
H670 C678 0.950 . S
H671 C680 0.950 . S
H672 C682 0.950 . S
H673 C684 0.950 . S
H674 C686 0.950 . S
H675 C687 0.950 1_455 S
C676 H668 0.950 . S
C676 C677 1.386 . S
C676 C678 1.391 . S
C677 C676 1.386 . S
C677 C681 1.393 . S
C678 H670 0.950 . S
C678 C676 1.391 . S
C678 C679 1.400 . S
C679 C678 1.400 . S
C679 C680 1.398 . S
C679 C685 1.491 . S
C680 H671 0.950 . S
C680 C679 1.398 . S
C680 C681 1.391 . S
C681 H669 0.950 . S
C681 C677 1.393 . S
C681 C680 1.391 . S
C682 H672 0.950 . S
C682 C683 1.386 . S
C682 C684 1.391 . S
C683 C682 1.386 . S
C683 C687 1.393 . S
C684 H673 0.950 . S
C684 C682 1.391 . S
C684 C685 1.400 . S
C685 C679 1.491 . S
C685 C684 1.400 . S
C685 C686 1.398 . S
C686 H674 0.950 . S
C686 C685 1.398 . S
C686 C687 1.391 . S
C687 H675 0.950 1_655 S
C687 C683 1.393 . S
C687 C686 1.391 . S
H688 C696 0.950 . S
H689 C701 0.950 1_655 S
H690 C698 0.950 1_545 S
H691 C700 0.950 . S
H692 C702 0.950 . S
H693 C704 0.950 1_565 S
H694 C706 0.950 . S
H695 C707 0.950 1_455 S
C696 H688 0.950 . S
C696 C697 1.386 . S
C696 C698 1.391 . S
C697 C696 1.386 . S
C697 C701 1.393 . S
C698 H690 0.950 1_565 S
C698 C696 1.391 . S
C698 C699 1.400 . S
C699 C698 1.400 . S
C699 C700 1.398 1_455 S
C699 C705 1.491 1_465 S
C700 H691 0.950 . S
C700 C699 1.398 1_655 S
C700 C701 1.391 1_655 S
C701 H689 0.950 1_455 S
C701 C697 1.393 . S
C701 C700 1.391 1_455 S
C702 H692 0.950 . S
C702 C703 1.386 . S
C702 C704 1.391 . S
C703 C702 1.386 . S
C703 C707 1.393 . S
C704 H693 0.950 1_545 S
C704 C702 1.391 . S
C704 C705 1.400 . S
C705 C699 1.491 1_645 S
C705 C704 1.400 . S
C705 C706 1.398 1_655 S
C706 H694 0.950 . S
C706 C705 1.398 1_455 S
C706 C707 1.391 1_455 S
C707 H695 0.950 1_655 S
C707 C703 1.393 . S
C707 C706 1.391 1_655 S
H708 C716 0.950 . S
H709 C721 0.950 . S
H710 C718 0.950 1_565 S
H711 C720 0.950 . S
H712 C722 0.950 . S
H713 C724 0.950 1_545 S
H714 C726 0.950 . S
H715 C727 0.950 . S
C716 H708 0.950 . S
C716 C717 1.386 . S
C716 C718 1.391 . S
C717 C716 1.386 . S
C717 C721 1.393 . S
C718 H710 0.950 1_545 S
C718 C716 1.391 . S
C718 C719 1.400 . S
C719 C718 1.400 . S
C719 C720 1.398 . S
C719 C725 1.491 1_545 S
C720 H711 0.950 . S
C720 C719 1.398 . S
C720 C721 1.391 . S
C721 H709 0.950 . S
C721 C717 1.393 . S
C721 C720 1.391 . S
C722 H712 0.950 . S
C722 C723 1.386 . S
C722 C724 1.391 . S
C723 C722 1.386 . S
C723 C727 1.393 . S
C724 H713 0.950 1_565 S
C724 C722 1.391 . S
C724 C725 1.400 . S
C725 C719 1.491 1_565 S
C725 C724 1.400 . S
C725 C726 1.398 . S
C726 H714 0.950 . S
C726 C725 1.398 . S
C726 C727 1.391 . S
C727 H715 0.950 . S
C727 C723 1.393 . S
C727 C726 1.391 . S
H728 C736 0.950 . S
H729 C741 0.950 . S
H730 C738 0.950 . S
H731 C740 0.950 . S
H732 C742 0.950 . S
H733 C744 0.950 . S
H734 C746 0.950 . S
H735 C747 0.950 . S
C736 H728 0.950 . S
C736 C737 1.386 . S
C736 C738 1.391 . S
C737 C736 1.386 . S
C737 C741 1.393 . S
C738 H730 0.950 . S
C738 C736 1.391 . S
C738 C739 1.400 . S
C739 C738 1.400 . S
C739 C740 1.398 . S
C739 C745 1.491 . S
C740 H731 0.950 . S
C740 C739 1.398 . S
C740 C741 1.391 . S
C741 H729 0.950 . S
C741 C737 1.393 . S
C741 C740 1.391 . S
C742 H732 0.950 . S
C742 C743 1.386 . S
C742 C744 1.391 . S
C743 C742 1.386 . S
C743 C747 1.393 . S
C744 H733 0.950 . S
C744 C742 1.391 . S
C744 C745 1.400 . S
C745 C739 1.491 . S
C745 C744 1.400 . S
C745 C746 1.398 . S
C746 H734 0.950 . S
C746 C745 1.398 . S
C746 C747 1.391 . S
C747 H735 0.950 . S
C747 C743 1.393 . S
C747 C746 1.391 . S
H748 C756 0.950 . S
H749 C761 0.950 . S
H750 C758 0.950 1_455 S
H751 C760 0.950 . S
H752 C762 0.950 . S
H753 C764 0.950 1_655 S
H754 C766 0.950 . S
H755 C767 0.950 . S
C756 H748 0.950 . S
C756 C757 1.386 . S
C756 C758 1.391 . S
C757 C756 1.386 . S
C757 C761 1.393 . S
C758 H750 0.950 1_655 S
C758 C756 1.391 . S
C758 C759 1.400 . S
C759 C758 1.400 . S
C759 C760 1.398 . S
C759 C765 1.491 1_655 S
C760 H751 0.950 . S
C760 C759 1.398 . S
C760 C761 1.391 . S
C761 H749 0.950 . S
C761 C757 1.393 . S
C761 C760 1.391 . S
C762 H752 0.950 . S
C762 C763 1.386 . S
C762 C764 1.391 . S
C763 C762 1.386 . S
C763 C767 1.393 . S
C764 H753 0.950 1_455 S
C764 C762 1.391 . S
C764 C765 1.400 . S
C765 C759 1.491 1_455 S
C765 C764 1.400 . S
C765 C766 1.398 . S
C766 H754 0.950 . S
C766 C765 1.398 . S
C766 C767 1.391 . S
C767 H755 0.950 . S
C767 C763 1.393 . S
C767 C766 1.391 . S
H768 C776 0.950 . S
H769 C781 0.950 1_455 S
H770 C778 0.950 . S
H771 C780 0.950 . S
H772 C782 0.950 . S
H773 C784 0.950 . S
H774 C786 0.950 . S
H775 C787 0.950 1_655 S
C776 H768 0.950 . S
C776 C777 1.386 . S
C776 C778 1.391 . S
C777 C776 1.386 . S
C777 C781 1.393 . S
C778 H770 0.950 . S
C778 C776 1.391 . S
C778 C779 1.400 . S
C779 C778 1.400 . S
C779 C780 1.398 1_655 S
C779 C785 1.491 1_656 S
C780 H771 0.950 . S
C780 C779 1.398 1_455 S
C780 C781 1.391 1_455 S
C781 H769 0.950 1_655 S
C781 C777 1.393 . S
C781 C780 1.391 1_655 S
C782 H772 0.950 . S
C782 C783 1.386 . S
C782 C784 1.391 . S
C783 C782 1.386 . S
C783 C787 1.393 . S
C784 H773 0.950 . S
C784 C782 1.391 . S
C784 C785 1.400 . S
C785 C779 1.491 1_454 S
C785 C784 1.400 . S
C785 C786 1.398 1_455 S
C786 H774 0.950 . S
C786 C785 1.398 1_655 S
C786 C787 1.391 1_655 S
C787 H775 0.950 1_455 S
C787 C783 1.393 . S
C787 C786 1.391 1_455 S
H788 C796 0.950 1_545 S
H789 C801 0.950 . S
H790 C798 0.950 . S
H791 C800 0.950 1_655 S
H792 C802 0.950 1_565 S
H793 C804 0.950 . S
H794 C806 0.950 1_455 S
H795 C807 0.950 . S
C796 H788 0.950 1_565 S
C796 C797 1.386 . S
C796 C798 1.391 1_565 S
C797 C796 1.386 . S
C797 C801 1.393 . S
C798 H790 0.950 . S
C798 C796 1.391 1_545 S
C798 C799 1.400 1_545 S
C799 C798 1.400 1_565 S
C799 C800 1.398 . S
C799 C805 1.491 1_466 S
C800 H791 0.950 1_455 S
C800 C799 1.398 . S
C800 C801 1.391 . S
C801 H789 0.950 . S
C801 C797 1.393 . S
C801 C800 1.391 . S
C802 H792 0.950 1_545 S
C802 C803 1.386 . S
C802 C804 1.391 1_545 S
C803 C802 1.386 . S
C803 C807 1.393 . S
C804 H793 0.950 . S
C804 C802 1.391 1_565 S
C804 C805 1.400 1_565 S
C805 C799 1.491 1_644 S
C805 C804 1.400 1_545 S
C805 C806 1.398 . S
C806 H794 0.950 1_655 S
C806 C805 1.398 . S
C806 C807 1.391 . S
C807 H795 0.950 . S
C807 C803 1.393 . S
C807 C806 1.391 . S
H808 C816 0.950 . S
H809 C821 0.950 . S
H810 C818 0.950 1_554 S
H811 C820 0.950 . S
H812 C822 0.950 . S
H813 C824 0.950 1_556 S
H814 C826 0.950 . S
H815 C827 0.950 . S
C816 H808 0.950 . S
C816 C817 1.386 . S
C816 C818 1.391 . S
C817 C816 1.386 . S
C817 C821 1.393 . S
C818 H810 0.950 1_556 S
C818 C816 1.391 . S
C818 C819 1.400 . S
C819 C818 1.400 . S
C819 C820 1.398 . S
C819 C825 1.491 1_546 S
C820 H811 0.950 . S
C820 C819 1.398 . S
C820 C821 1.391 . S
C821 H809 0.950 . S
C821 C817 1.393 . S
C821 C820 1.391 . S
C822 H812 0.950 . S
C822 C823 1.386 . S
C822 C824 1.391 . S
C823 C822 1.386 . S
C823 C827 1.393 . S
C824 H813 0.950 1_554 S
C824 C822 1.391 . S
C824 C825 1.400 . S
C825 C819 1.491 1_564 S
C825 C824 1.400 . S
C825 C826 1.398 . S
C826 H814 0.950 . S
C826 C825 1.398 . S
C826 C827 1.391 . S
C827 H815 0.950 . S
C827 C823 1.393 . S
C827 C826 1.391 . S
H828 C836 0.950 . S
H829 C841 0.950 . S
H830 C838 0.950 . S
H831 C840 0.950 . S
H832 C842 0.950 . S
H833 C844 0.950 . S
H834 C846 0.950 . S
H835 C847 0.950 . S
C836 H828 0.950 . S
C836 C837 1.386 . S
C836 C838 1.391 . S
C837 C836 1.386 . S
C837 C841 1.393 . S
C838 H830 0.950 . S
C838 C836 1.391 . S
C838 C839 1.400 . S
C839 C838 1.400 . S
C839 C840 1.398 . S
C839 C845 1.491 1_556 S
C840 H831 0.950 . S
C840 C839 1.398 . S
C840 C841 1.391 . S
C841 H829 0.950 . S
C841 C837 1.393 . S
C841 C840 1.391 . S
C842 H832 0.950 . S
C842 C843 1.386 . S
C842 C844 1.391 . S
C843 C842 1.386 . S
C843 C847 1.393 . S
C844 H833 0.950 . S
C844 C842 1.391 . S
C844 C845 1.400 . S
C845 C839 1.491 1_554 S
C845 C844 1.400 . S
C845 C846 1.398 . S
C846 H834 0.950 . S
C846 C845 1.398 . S
C846 C847 1.391 . S
C847 H835 0.950 . S
C847 C843 1.393 . S
C847 C846 1.391 . S
H848 C856 0.950 . S
H849 C861 0.950 . S
H850 C858 0.950 . S
H851 C860 0.950 . S
H852 C862 0.950 . S
H853 C864 0.950 . S
H854 C866 0.950 . S
H855 C867 0.950 . S
C856 H848 0.950 . S
C856 C857 1.386 . S
C856 C858 1.391 . S
C857 C856 1.386 . S
C857 C861 1.393 . S
C858 H850 0.950 . S
C858 C856 1.391 . S
C858 C859 1.400 . S
C859 C858 1.400 . S
C859 C860 1.398 . S
C859 C865 1.491 . S
C860 H851 0.950 . S
C860 C859 1.398 . S
C860 C861 1.391 . S
C861 H849 0.950 . S
C861 C857 1.393 . S
C861 C860 1.391 . S
C862 H852 0.950 . S
C862 C863 1.386 . S
C862 C864 1.391 . S
C863 C862 1.386 . S
C863 C867 1.393 . S
C864 H853 0.950 . S
C864 C862 1.391 . S
C864 C865 1.400 . S
C865 C859 1.491 . S
C865 C864 1.400 . S
C865 C866 1.398 . S
C866 H854 0.950 . S
C866 C865 1.398 . S
C866 C867 1.391 . S
C867 H855 0.950 . S
C867 C863 1.393 . S
C867 C866 1.391 . S
H868 C876 0.950 . S
H869 C881 0.950 . S
H870 C878 0.950 . S
H871 C880 0.950 . S
H872 C882 0.950 . S
H873 C884 0.950 . S
H874 C886 0.950 . S
H875 C887 0.950 . S
C876 H868 0.950 . S
C876 C877 1.386 . S
C876 C878 1.391 . S
C877 C876 1.386 . S
C877 C881 1.393 . S
C878 H870 0.950 . S
C878 C876 1.391 . S
C878 C879 1.400 . S
C879 C878 1.400 . S
C879 C880 1.398 . S
C879 C885 1.491 . S
C880 H871 0.950 . S
C880 C879 1.398 . S
C880 C881 1.391 . S
C881 H869 0.950 . S
C881 C877 1.393 . S
C881 C880 1.391 . S
C882 H872 0.950 . S
C882 C883 1.386 . S
C882 C884 1.391 . S
C883 C882 1.386 . S
C883 C887 1.393 . S
C884 H873 0.950 . S
C884 C882 1.391 . S
C884 C885 1.400 . S
C885 C879 1.491 . S
C885 C884 1.400 . S
C885 C886 1.398 . S
C886 H874 0.950 . S
C886 C885 1.398 . S
C886 C887 1.391 . S
C887 H875 0.950 . S
C887 C883 1.393 . S
C887 C886 1.391 . S
H888 C896 0.950 . S
H889 C901 0.950 . S
H890 C898 0.950 . S
H891 C900 0.950 . S
H892 C902 0.950 . S
H893 C904 0.950 . S
H894 C906 0.950 . S
H895 C907 0.950 . S
C896 H888 0.950 . S
C896 C897 1.386 . S
C896 C898 1.391 . S
C897 C896 1.386 . S
C897 C901 1.393 . S
C898 H890 0.950 . S
C898 C896 1.391 . S
C898 C899 1.400 . S
C899 C898 1.400 . S
C899 C900 1.398 . S
C899 C905 1.491 . S
C900 H891 0.950 . S
C900 C899 1.398 . S
C900 C901 1.391 . S
C901 H889 0.950 . S
C901 C897 1.393 . S
C901 C900 1.391 . S
C902 H892 0.950 . S
C902 C903 1.386 . S
C902 C904 1.391 . S
C903 C902 1.386 . S
C903 C907 1.393 . S
C904 H893 0.950 . S
C904 C902 1.391 . S
C904 C905 1.400 . S
C905 C899 1.491 . S
C905 C904 1.400 . S
C905 C906 1.398 . S
C906 H894 0.950 . S
C906 C905 1.398 . S
C906 C907 1.391 . S
C907 H895 0.950 . S
C907 C903 1.393 . S
C907 C906 1.391 . S
H908 C916 0.950 . S
H909 C921 0.950 . S
H910 C918 0.950 . S
H911 C920 0.950 . S
H912 C922 0.950 . S
H913 C924 0.950 . S
H914 C926 0.950 . S
H915 C927 0.950 . S
C916 H908 0.950 . S
C916 C917 1.386 . S
C916 C918 1.391 . S
C917 C916 1.386 . S
C917 C921 1.393 . S
C918 H910 0.950 . S
C918 C916 1.391 . S
C918 C919 1.400 . S
C919 C918 1.400 . S
C919 C920 1.398 . S
C919 C925 1.491 . S
C920 H911 0.950 . S
C920 C919 1.398 . S
C920 C921 1.391 . S
C921 H909 0.950 . S
C921 C917 1.393 . S
C921 C920 1.391 . S
C922 H912 0.950 . S
C922 C923 1.386 . S
C922 C924 1.391 . S
C923 C922 1.386 . S
C923 C927 1.393 . S
C924 H913 0.950 . S
C924 C922 1.391 . S
C924 C925 1.400 . S
C925 C919 1.491 . S
C925 C924 1.400 . S
C925 C926 1.398 . S
C926 H914 0.950 . S
C926 C925 1.398 . S
C926 C927 1.391 . S
C927 H915 0.950 . S
C927 C923 1.393 . S
C927 C926 1.391 . S
H928 C936 0.950 . S
H929 C941 0.950 . S
H930 C938 0.950 . S
H931 C940 0.950 . S
H932 C942 0.950 . S
H933 C944 0.950 . S
H934 C946 0.950 . S
H935 C947 0.950 . S
C936 H928 0.950 . S
C936 C937 1.386 . S
C936 C938 1.391 . S
C937 C936 1.386 . S
C937 C941 1.393 . S
C938 H930 0.950 . S
C938 C936 1.391 . S
C938 C939 1.400 . S
C939 C938 1.400 . S
C939 C940 1.398 . S
C939 C945 1.491 . S
C940 H931 0.950 . S
C940 C939 1.398 . S
C940 C941 1.391 . S
C941 H929 0.950 . S
C941 C937 1.393 . S
C941 C940 1.391 . S
C942 H932 0.950 . S
C942 C943 1.386 . S
C942 C944 1.391 . S
C943 C942 1.386 . S
C943 C947 1.393 . S
C944 H933 0.950 . S
C944 C942 1.391 . S
C944 C945 1.400 . S
C945 C939 1.491 . S
C945 C944 1.400 . S
C945 C946 1.398 . S
C946 H934 0.950 . S
C946 C945 1.398 . S
C946 C947 1.391 . S
C947 H935 0.950 . S
C947 C943 1.393 . S
C947 C946 1.391 . S
H948 C956 0.950 . S
H949 C961 0.950 . S
H950 C958 0.950 . S
H951 C960 0.950 . S
H952 C962 0.950 . S
H953 C964 0.950 . S
H954 C966 0.950 . S
H955 C967 0.950 . S
C956 H948 0.950 . S
C956 C957 1.386 . S
C956 C958 1.391 . S
C957 C956 1.386 . S
C957 C961 1.393 . S
C958 H950 0.950 . S
C958 C956 1.391 . S
C958 C959 1.400 . S
C959 C958 1.400 . S
C959 C960 1.398 . S
C959 C965 1.491 . S
C960 H951 0.950 . S
C960 C959 1.398 . S
C960 C961 1.391 . S
C961 H949 0.950 . S
C961 C957 1.393 . S
C961 C960 1.391 . S
C962 H952 0.950 . S
C962 C963 1.386 . S
C962 C964 1.391 . S
C963 C962 1.386 . S
C963 C967 1.393 . S
C964 H953 0.950 . S
C964 C962 1.391 . S
C964 C965 1.400 . S
C965 C959 1.491 . S
C965 C964 1.400 . S
C965 C966 1.398 . S
C966 H954 0.950 . S
C966 C965 1.398 . S
C966 C967 1.391 . S
C967 H955 0.950 . S
C967 C963 1.393 . S
C967 C966 1.391 . S
H968 C976 0.950 . S
H969 C981 0.950 . S
H970 C978 0.950 . S
H971 C980 0.950 . S
H972 C982 0.950 . S
H973 C984 0.950 . S
H974 C986 0.950 . S
H975 C987 0.950 . S
C976 H968 0.950 . S
C976 C977 1.386 . S
C976 C978 1.391 . S
C977 C976 1.386 . S
C977 C981 1.393 . S
C978 H970 0.950 . S
C978 C976 1.391 . S
C978 C979 1.400 . S
C979 C978 1.400 . S
C979 C980 1.398 . S
C979 C985 1.491 . S
C980 H971 0.950 . S
C980 C979 1.398 . S
C980 C981 1.391 . S
C981 H969 0.950 . S
C981 C977 1.393 . S
C981 C980 1.391 . S
C982 H972 0.950 . S
C982 C983 1.386 . S
C982 C984 1.391 . S
C983 C982 1.386 . S
C983 C987 1.393 . S
C984 H973 0.950 . S
C984 C982 1.391 . S
C984 C985 1.400 . S
C985 C979 1.491 . S
C985 C984 1.400 . S
C985 C986 1.398 . S
C986 H974 0.950 . S
C986 C985 1.398 . S
C986 C987 1.391 . S
C987 H975 0.950 . S
C987 C983 1.393 . S
C987 C986 1.391 . S
H988 C996 0.950 . S
H989 C1001 0.950 . S
H990 C998 0.950 . S
H991 C1000 0.950 . S
H992 C1002 0.950 . S
H993 C1004 0.950 . S
H994 C1006 0.950 . S
H995 C1007 0.950 . S
C996 H988 0.950 . S
C996 C997 1.386 . S
C996 C998 1.391 . S
C997 C996 1.386 . S
C997 C1001 1.393 . S
C998 H990 0.950 . S
C998 C996 1.391 . S
C998 C999 1.400 . S
C999 C998 1.400 . S
C999 C1000 1.398 . S
C999 C1005 1.491 . S
C1000 H991 0.950 . S
C1000 C999 1.398 . S
C1000 C1001 1.391 . S
C1001 H989 0.950 . S
C1001 C997 1.393 . S
C1001 C1000 1.391 . S
C1002 H992 0.950 . S
C1002 C1003 1.386 . S
C1002 C1004 1.391 . S
C1003 C1002 1.386 . S
C1003 C1007 1.393 . S
C1004 H993 0.950 . S
C1004 C1002 1.391 . S
C1004 C1005 1.400 . S
C1005 C999 1.491 . S
C1005 C1004 1.400 . S
C1005 C1006 1.398 . S
C1006 H994 0.950 . S
C1006 C1005 1.398 . S
C1006 C1007 1.391 . S
C1007 H995 0.950 . S
C1007 C1003 1.393 . S
C1007 C1006 1.391 . S
H1008 C1016 0.950 . S
H1009 C1021 0.950 . S
H1010 C1018 0.950 . S
H1011 C1020 0.950 . S
H1012 C1022 0.950 . S
H1013 C1024 0.950 . S
H1014 C1026 0.950 . S
H1015 C1027 0.950 . S
C1016 H1008 0.950 . S
C1016 C1017 1.386 . S
C1016 C1018 1.391 . S
C1017 C1016 1.386 . S
C1017 C1021 1.393 . S
C1018 H1010 0.950 . S
C1018 C1016 1.391 . S
C1018 C1019 1.400 . S
C1019 C1018 1.400 . S
C1019 C1020 1.398 . S
C1019 C1025 1.491 . S
C1020 H1011 0.950 . S
C1020 C1019 1.398 . S
C1020 C1021 1.391 . S
C1021 H1009 0.950 . S
C1021 C1017 1.393 . S
C1021 C1020 1.391 . S
C1022 H1012 0.950 . S
C1022 C1023 1.386 . S
C1022 C1024 1.391 . S
C1023 C1022 1.386 . S
C1023 C1027 1.393 . S
C1024 H1013 0.950 . S
C1024 C1022 1.391 . S
C1024 C1025 1.400 . S
C1025 C1019 1.491 . S
C1025 C1024 1.400 . S
C1025 C1026 1.398 . S
C1026 H1014 0.950 . S
C1026 C1025 1.398 . S
C1026 C1027 1.391 . S
C1027 H1015 0.950 . S
C1027 C1023 1.393 . S
C1027 C1026 1.391 . S
H1028 C1036 0.950 . S
H1029 C1041 0.950 . S
H1030 C1038 0.950 . S
H1031 C1040 0.950 . S
H1032 C1042 0.950 . S
H1033 C1044 0.950 . S
H1034 C1046 0.950 . S
H1035 C1047 0.950 . S
C1036 H1028 0.950 . S
C1036 C1037 1.386 . S
C1036 C1038 1.391 . S
C1037 C1036 1.386 . S
C1037 C1041 1.393 . S
C1038 H1030 0.950 . S
C1038 C1036 1.391 . S
C1038 C1039 1.400 . S
C1039 C1038 1.400 . S
C1039 C1040 1.398 . S
C1039 C1045 1.491 . S
C1040 H1031 0.950 . S
C1040 C1039 1.398 . S
C1040 C1041 1.391 . S
C1041 H1029 0.950 . S
C1041 C1037 1.393 . S
C1041 C1040 1.391 . S
C1042 H1032 0.950 . S
C1042 C1043 1.386 . S
C1042 C1044 1.391 . S
C1043 C1042 1.386 . S
C1043 C1047 1.393 . S
C1044 H1033 0.950 . S
C1044 C1042 1.391 . S
C1044 C1045 1.400 . S
C1045 C1039 1.491 . S
C1045 C1044 1.400 . S
C1045 C1046 1.398 . S
C1046 H1034 0.950 . S
C1046 C1045 1.398 . S
C1046 C1047 1.391 . S
C1047 H1035 0.950 . S
C1047 C1043 1.393 . S
C1047 C1046 1.391 . S
H1048 C1056 0.950 . S
H1049 C1061 0.950 . S
H1050 C1058 0.950 . S
H1051 C1060 0.950 . S
H1052 C1062 0.950 . S
H1053 C1064 0.950 . S
H1054 C1066 0.950 . S
H1055 C1067 0.950 . S
C1056 H1048 0.950 . S
C1056 C1057 1.386 . S
C1056 C1058 1.391 . S
C1057 C1056 1.386 . S
C1057 C1061 1.393 . S
C1058 H1050 0.950 . S
C1058 C1056 1.391 . S
C1058 C1059 1.400 . S
C1059 C1058 1.400 . S
C1059 C1060 1.398 . S
C1059 C1065 1.491 . S
C1060 H1051 0.950 . S
C1060 C1059 1.398 . S
C1060 C1061 1.391 . S
C1061 H1049 0.950 . S
C1061 C1057 1.393 . S
C1061 C1060 1.391 . S
C1062 H1052 0.950 . S
C1062 C1063 1.386 . S
C1062 C1064 1.391 . S
C1063 C1062 1.386 . S
C1063 C1067 1.393 . S
C1064 H1053 0.950 . S
C1064 C1062 1.391 . S
C1064 C1065 1.400 . S
C1065 C1059 1.491 . S
C1065 C1064 1.400 . S
C1065 C1066 1.398 . S
C1066 H1054 0.950 . S
C1066 C1065 1.398 . S
C1066 C1067 1.391 . S
C1067 H1055 0.950 . S
C1067 C1063 1.393 . S
C1067 C1066 1.391 . S
H1068 C1076 0.950 . S
H1069 C1081 0.950 . S
H1070 C1078 0.950 . S
H1071 C1080 0.950 . S
H1072 C1082 0.950 . S
H1073 C1084 0.950 . S
H1074 C1086 0.950 . S
H1075 C1087 0.950 . S
C1076 H1068 0.950 . S
C1076 C1077 1.386 . S
C1076 C1078 1.391 . S
C1077 C1076 1.386 . S
C1077 C1081 1.393 . S
C1078 H1070 0.950 . S
C1078 C1076 1.391 . S
C1078 C1079 1.400 . S
C1079 C1078 1.400 . S
C1079 C1080 1.398 . S
C1079 C1085 1.491 . S
C1080 H1071 0.950 . S
C1080 C1079 1.398 . S
C1080 C1081 1.391 . S
C1081 H1069 0.950 . S
C1081 C1077 1.393 . S
C1081 C1080 1.391 . S
C1082 H1072 0.950 . S
C1082 C1083 1.386 . S
C1082 C1084 1.391 . S
C1083 C1082 1.386 . S
C1083 C1087 1.393 . S
C1084 H1073 0.950 . S
C1084 C1082 1.391 . S
C1084 C1085 1.400 . S
C1085 C1079 1.491 . S
C1085 C1084 1.400 . S
C1085 C1086 1.398 . S
C1086 H1074 0.950 . S
C1086 C1085 1.398 . S
C1086 C1087 1.391 . S
C1087 H1075 0.950 . S
C1087 C1083 1.393 . S
C1087 C1086 1.391 . S
H1088 C1096 0.950 . S
H1089 C1101 0.950 . S
H1090 C1098 0.950 . S
H1091 C1100 0.950 . S
H1092 C1102 0.950 . S
H1093 C1104 0.950 . S
H1094 C1106 0.950 . S
H1095 C1107 0.950 . S
C1096 H1088 0.950 . S
C1096 C1097 1.386 . S
C1096 C1098 1.391 . S
C1097 C1096 1.386 . S
C1097 C1101 1.393 . S
C1098 H1090 0.950 . S
C1098 C1096 1.391 . S
C1098 C1099 1.400 . S
C1099 C1098 1.400 . S
C1099 C1100 1.398 . S
C1099 C1105 1.491 . S
C1100 H1091 0.950 . S
C1100 C1099 1.398 . S
C1100 C1101 1.391 . S
C1101 H1089 0.950 . S
C1101 C1097 1.393 . S
C1101 C1100 1.391 . S
C1102 H1092 0.950 . S
C1102 C1103 1.386 . S
C1102 C1104 1.391 . S
C1103 C1102 1.386 . S
C1103 C1107 1.393 . S
C1104 H1093 0.950 . S
C1104 C1102 1.391 . S
C1104 C1105 1.400 . S
C1105 C1099 1.491 . S
C1105 C1104 1.400 . S
C1105 C1106 1.398 . S
C1106 H1094 0.950 . S
C1106 C1105 1.398 . S
C1106 C1107 1.391 . S
C1107 H1095 0.950 . S
C1107 C1103 1.393 . S
C1107 C1106 1.391 . S
H1108 C1116 0.950 . S
H1109 C1121 0.950 . S
H1110 C1118 0.950 . S
H1111 C1120 0.950 . S
H1112 C1122 0.925 1_655 S
H1113 C1124 0.950 . S
H1114 C1126 0.950 . S
H1115 C1127 0.950 . S
C1116 H1108 0.950 . S
C1116 C1117 1.386 . S
C1116 C1118 1.391 . S
C1117 C1116 1.386 . S
C1117 C1121 1.393 . S
C1118 H1110 0.950 . S
C1118 C1116 1.391 . S
C1118 C1119 1.400 . S
C1119 C1118 1.400 . S
C1119 C1120 1.398 . S
C1119 C1125 1.491 . S
C1120 H1111 0.950 . S
C1120 C1119 1.398 . S
C1120 C1121 1.391 . S
C1121 H1109 0.950 . S
C1121 C1117 1.393 . S
C1121 C1120 1.391 . S
C1122 H1112 0.925 1_455 S
C1122 C1123 1.386 . S
C1122 C1124 1.391 . S
C1123 C1122 1.386 . S
C1123 C1127 1.393 . S
C1124 H1113 0.950 . S
C1124 C1122 1.391 . S
C1124 C1125 1.400 . S
C1125 C1119 1.491 . S
C1125 C1124 1.400 . S
C1125 C1126 1.398 . S
C1126 H1114 0.950 . S
C1126 C1125 1.398 . S
C1126 C1127 1.391 . S
C1127 H1115 0.950 . S
C1127 C1123 1.393 . S
C1127 C1126 1.391 . S
H1128 C1136 0.950 . S
H1129 C1141 0.950 . S
H1130 C1138 0.950 . S
H1131 C1140 0.950 . S
H1132 C1142 0.950 . S
H1133 C1144 0.950 . S
H1134 C1146 0.950 . S
H1135 C1147 0.950 . S
C1136 H1128 0.950 . S
C1136 C1137 1.386 . S
C1136 C1138 1.391 . S
C1137 C1136 1.386 . S
C1137 C1141 1.393 . S
C1138 H1130 0.950 . S
C1138 C1136 1.391 . S
C1138 C1139 1.400 . S
C1139 C1138 1.400 . S
C1139 C1140 1.398 . S
C1139 C1145 1.491 . S
C1140 H1131 0.950 . S
C1140 C1139 1.398 . S
C1140 C1141 1.391 . S
C1141 H1129 0.950 . S
C1141 C1137 1.393 . S
C1141 C1140 1.391 . S
C1142 H1132 0.950 . S
C1142 C1143 1.386 . S
C1142 C1144 1.391 . S
C1143 C1142 1.386 . S
C1143 C1147 1.393 . S
C1144 H1133 0.950 . S
C1144 C1142 1.391 . S
C1144 C1145 1.400 . S
C1145 C1139 1.491 . S
C1145 C1144 1.400 . S
C1145 C1146 1.398 . S
C1146 H1134 0.950 . S
C1146 C1145 1.398 . S
C1146 C1147 1.391 . S
C1147 H1135 0.950 . S
C1147 C1143 1.393 . S
C1147 C1146 1.391 . S
H1148 C1156 0.950 . S
H1149 C1161 0.950 . S
H1150 C1158 0.950 . S
H1151 C1160 0.950 . S
H1152 C1162 0.950 . S
H1153 C1164 0.950 . S
H1154 C1166 0.950 . S
H1155 C1167 0.950 . S
C1156 H1148 0.950 . S
C1156 C1157 1.386 . S
C1156 C1158 1.391 . S
C1157 C1156 1.386 . S
C1157 C1161 1.393 . S
C1158 H1150 0.950 . S
C1158 C1156 1.391 . S
C1158 C1159 1.400 . S
C1159 C1158 1.400 . S
C1159 C1160 1.398 . S
C1159 C1165 1.491 . S
C1160 H1151 0.950 . S
C1160 C1159 1.398 . S
C1160 C1161 1.391 . S
C1161 H1149 0.950 . S
C1161 C1157 1.393 . S
C1161 C1160 1.391 . S
C1162 H1152 0.950 . S
C1162 C1163 1.386 . S
C1162 C1164 1.391 . S
C1163 C1162 1.386 . S
C1163 C1167 1.393 . S
C1164 H1153 0.950 . S
C1164 C1162 1.391 . S
C1164 C1165 1.400 . S
C1165 C1159 1.491 . S
C1165 C1164 1.400 . S
C1165 C1166 1.398 . S
C1166 H1154 0.950 . S
C1166 C1165 1.398 . S
C1166 C1167 1.391 . S
C1167 H1155 0.950 . S
C1167 C1163 1.393 . S
C1167 C1166 1.391 . S
H1168 C1176 0.950 . S
H1169 C1181 0.950 . S
H1170 C1178 0.950 . S
H1171 C1180 0.950 . S
H1172 C1182 0.950 . S
H1173 C1184 0.950 . S
H1174 C1186 0.950 . S
H1175 C1187 0.914 1_545 S
C1176 H1168 0.950 . S
C1176 C1177 1.386 . S
C1176 C1178 1.391 . S
C1177 C1176 1.386 . S
C1177 C1181 1.393 . S
C1178 H1170 0.950 . S
C1178 C1176 1.391 . S
C1178 C1179 1.400 . S
C1179 C1178 1.400 . S
C1179 C1180 1.398 . S
C1179 C1185 1.491 . S
C1180 H1171 0.950 . S
C1180 C1179 1.398 . S
C1180 C1181 1.391 . S
C1181 H1169 0.950 . S
C1181 C1177 1.393 . S
C1181 C1180 1.391 . S
C1182 H1172 0.950 . S
C1182 C1183 1.386 . S
C1182 C1184 1.391 . S
C1183 C1182 1.386 . S
C1183 C1187 1.393 . S
C1184 H1173 0.950 . S
C1184 C1182 1.391 . S
C1184 C1185 1.400 . S
C1185 C1179 1.491 . S
C1185 C1184 1.400 . S
C1185 C1186 1.398 . S
C1186 H1174 0.950 . S
C1186 C1185 1.398 . S
C1186 C1187 1.391 . S
C1187 H1175 0.914 1_565 S
C1187 C1183 1.393 . S
C1187 C1186 1.391 . S
H1188 C1196 0.950 . S
H1189 C1201 0.950 . S
H1190 C1198 0.950 . S
H1191 C1200 0.950 . S
H1192 C1202 0.950 . S
H1193 C1204 0.950 . S
H1194 C1206 0.950 . S
H1195 C1207 0.950 . S
C1196 H1188 0.950 . S
C1196 C1197 1.386 . S
C1196 C1198 1.391 . S
C1197 C1196 1.386 . S
C1197 C1201 1.393 . S
C1198 H1190 0.950 . S
C1198 C1196 1.391 . S
C1198 C1199 1.400 . S
C1199 C1198 1.400 . S
C1199 C1200 1.398 . S
C1199 C1205 1.491 . S
C1200 H1191 0.950 . S
C1200 C1199 1.398 . S
C1200 C1201 1.391 . S
C1201 H1189 0.950 . S
C1201 C1197 1.393 . S
C1201 C1200 1.391 . S
C1202 H1192 0.950 . S
C1202 C1203 1.386 . S
C1202 C1204 1.391 . S
C1203 C1202 1.386 . S
C1203 C1207 1.393 . S
C1204 H1193 0.950 . S
C1204 C1202 1.391 . S
C1204 C1205 1.400 . S
C1205 C1199 1.491 . S
C1205 C1204 1.400 . S
C1205 C1206 1.398 . S
C1206 H1194 0.950 . S
C1206 C1205 1.398 . S
C1206 C1207 1.391 . S
C1207 H1195 0.950 . S
C1207 C1203 1.393 . S
C1207 C1206 1.391 . S
H1208 C1216 0.950 . S
H1209 C1221 0.950 . S
H1210 C1218 0.950 . S
H1211 C1220 0.950 . S
H1212 C1222 0.950 . S
H1213 C1224 0.950 . S
H1214 C1226 0.950 . S
H1215 C1227 0.950 . S
C1216 H1208 0.950 . S
C1216 C1217 1.386 . S
C1216 C1218 1.391 . S
C1217 C1216 1.386 . S
C1217 C1221 1.393 . S
C1218 H1210 0.950 . S
C1218 C1216 1.391 . S
C1218 C1219 1.400 . S
C1219 C1218 1.400 . S
C1219 C1220 1.398 . S
C1219 C1225 1.491 . S
C1220 H1211 0.950 . S
C1220 C1219 1.398 . S
C1220 C1221 1.391 . S
C1221 H1209 0.950 . S
C1221 C1217 1.393 . S
C1221 C1220 1.391 . S
C1222 H1212 0.950 . S
C1222 C1223 1.386 . S
C1222 C1224 1.391 . S
C1223 C1222 1.386 . S
C1223 C1227 1.393 . S
C1224 H1213 0.950 . S
C1224 C1222 1.391 . S
C1224 C1225 1.400 . S
C1225 C1219 1.491 . S
C1225 C1224 1.400 . S
C1225 C1226 1.398 . S
C1226 H1214 0.950 . S
C1226 C1225 1.398 . S
C1226 C1227 1.391 . S
C1227 H1215 0.950 . S
C1227 C1223 1.393 . S
C1227 C1226 1.391 . S
H1228 C1236 0.950 . S
H1229 C1241 0.950 . S
H1230 C1238 0.950 . S
H1231 C1240 0.950 . S
H1232 C1242 0.950 1_455 S
H1233 C1244 0.950 . S
H1234 C1246 0.950 . S
H1235 C1247 0.950 . S
C1236 H1228 0.950 . S
C1236 C1237 1.386 . S
C1236 C1238 1.391 . S
C1237 C1236 1.386 . S
C1237 C1241 1.393 . S
C1238 H1230 0.950 . S
C1238 C1236 1.391 . S
C1238 C1239 1.400 . S
C1239 C1238 1.400 . S
C1239 C1240 1.398 . S
C1239 C1245 1.491 . S
C1240 H1231 0.950 . S
C1240 C1239 1.398 . S
C1240 C1241 1.391 . S
C1241 H1229 0.950 . S
C1241 C1237 1.393 . S
C1241 C1240 1.391 . S
C1242 H1232 0.950 1_655 S
C1242 C1243 1.386 . S
C1242 C1244 1.391 . S
C1243 C1242 1.386 . S
C1243 C1247 1.393 . S
C1244 H1233 0.950 . S
C1244 C1242 1.391 . S
C1244 C1245 1.400 . S
C1245 C1239 1.491 . S
C1245 C1244 1.400 . S
C1245 C1246 1.398 . S
C1246 H1234 0.950 . S
C1246 C1245 1.398 . S
C1246 C1247 1.391 . S
C1247 H1235 0.950 . S
C1247 C1243 1.393 . S
C1247 C1246 1.391 . S
H1248 C1256 0.950 . S
H1249 C1261 0.950 . S
H1250 C1258 0.950 . S
H1251 C1260 0.950 . S
H1252 C1262 0.950 . S
H1253 C1264 0.950 . S
H1254 C1266 0.950 . S
H1255 C1267 0.950 . S
C1256 H1248 0.950 . S
C1256 C1257 1.386 . S
C1256 C1258 1.391 . S
C1257 C1256 1.386 . S
C1257 C1261 1.393 . S
C1258 H1250 0.950 . S
C1258 C1256 1.391 . S
C1258 C1259 1.400 . S
C1259 C1258 1.400 . S
C1259 C1260 1.398 . S
C1259 C1265 1.491 . S
C1260 H1251 0.950 . S
C1260 C1259 1.398 . S
C1260 C1261 1.391 . S
C1261 H1249 0.950 . S
C1261 C1257 1.393 . S
C1261 C1260 1.391 . S
C1262 H1252 0.950 . S
C1262 C1263 1.386 . S
C1262 C1264 1.391 . S
C1263 C1262 1.386 . S
C1263 C1267 1.393 . S
C1264 H1253 0.950 . S
C1264 C1262 1.391 . S
C1264 C1265 1.400 . S
C1265 C1259 1.491 . S
C1265 C1264 1.400 . S
C1265 C1266 1.398 . S
C1266 H1254 0.950 . S
C1266 C1265 1.398 . S
C1266 C1267 1.391 . S
C1267 H1255 0.950 . S
C1267 C1263 1.393 . S
C1267 C1266 1.391 . S
H1268 C1276 0.950 . S
H1269 C1281 0.950 1_455 S
H1270 C1278 0.950 . S
H1271 C1280 0.950 . S
H1272 C1282 0.950 . S
H1273 C1284 0.950 . S
H1274 C1286 0.950 . S
H1275 C1287 0.950 . S
C1276 H1268 0.950 . S
C1276 C1277 1.386 . S
C1276 C1278 1.391 . S
C1277 C1276 1.386 . S
C1277 C1281 1.393 . S
C1278 H1270 0.950 . S
C1278 C1276 1.391 . S
C1278 C1279 1.400 . S
C1279 C1278 1.400 . S
C1279 C1280 1.398 . S
C1279 C1285 1.491 . S
C1280 H1271 0.950 . S
C1280 C1279 1.398 . S
C1280 C1281 1.391 . S
C1281 H1269 0.950 1_655 S
C1281 C1277 1.393 . S
C1281 C1280 1.391 . S
C1282 H1272 0.950 . S
C1282 C1283 1.386 . S
C1282 C1284 1.391 . S
C1283 C1282 1.386 . S
C1283 C1287 1.393 . S
C1284 H1273 0.950 . S
C1284 C1282 1.391 . S
C1284 C1285 1.400 . S
C1285 C1279 1.491 . S
C1285 C1284 1.400 . S
C1285 C1286 1.398 . S
C1286 H1274 0.950 . S
C1286 C1285 1.398 . S
C1286 C1287 1.391 . S
C1287 H1275 0.950 . S
C1287 C1283 1.393 . S
C1287 C1286 1.391 . S
H1288 C1296 0.950 . S
H1289 C1301 0.950 . S
H1290 C1298 0.950 . S
H1291 C1300 0.950 . S
H1292 C1302 0.950 . S
H1293 C1304 0.950 . S
H1294 C1306 0.950 . S
H1295 C1307 0.950 . S
C1296 H1288 0.950 . S
C1296 C1297 1.386 . S
C1296 C1298 1.391 . S
C1297 C1296 1.386 . S
C1297 C1301 1.393 . S
C1298 H1290 0.950 . S
C1298 C1296 1.391 . S
C1298 C1299 1.400 . S
C1299 C1298 1.400 . S
C1299 C1300 1.398 . S
C1299 C1305 1.491 . S
C1300 H1291 0.950 . S
C1300 C1299 1.398 . S
C1300 C1301 1.391 . S
C1301 H1289 0.950 . S
C1301 C1297 1.393 . S
C1301 C1300 1.391 . S
C1302 H1292 0.950 . S
C1302 C1303 1.386 . S
C1302 C1304 1.391 . S
C1303 C1302 1.386 . S
C1303 C1307 1.393 . S
C1304 H1293 0.950 . S
C1304 C1302 1.391 . S
C1304 C1305 1.400 . S
C1305 C1299 1.491 . S
C1305 C1304 1.400 . S
C1305 C1306 1.398 . S
C1306 H1294 0.950 . S
C1306 C1305 1.398 . S
C1306 C1307 1.391 . S
C1307 H1295 0.950 . S
C1307 C1303 1.393 . S
C1307 C1306 1.391 . S
H1308 C1316 0.950 . S
H1309 C1321 0.950 . S
H1310 C1318 0.950 . S
H1311 C1320 0.950 . S
H1312 C1322 0.950 . S
H1313 C1324 0.950 . S
H1314 C1326 0.950 . S
H1315 C1327 0.950 . S
C1316 H1308 0.950 . S
C1316 C1317 1.386 . S
C1316 C1318 1.391 . S
C1317 C1316 1.386 . S
C1317 C1321 1.393 . S
C1318 H1310 0.950 . S
C1318 C1316 1.391 . S
C1318 C1319 1.400 . S
C1319 C1318 1.400 . S
C1319 C1320 1.398 . S
C1319 C1325 1.491 . S
C1320 H1311 0.950 . S
C1320 C1319 1.398 . S
C1320 C1321 1.391 . S
C1321 H1309 0.950 . S
C1321 C1317 1.393 . S
C1321 C1320 1.391 . S
C1322 H1312 0.950 . S
C1322 C1323 1.386 . S
C1322 C1324 1.391 . S
C1323 C1322 1.386 . S
C1323 C1327 1.393 . S
C1324 H1313 0.950 . S
C1324 C1322 1.391 . S
C1324 C1325 1.400 . S
C1325 C1319 1.491 . S
C1325 C1324 1.400 . S
C1325 C1326 1.398 . S
C1326 H1314 0.950 . S
C1326 C1325 1.398 . S
C1326 C1327 1.391 . S
C1327 H1315 0.950 . S
C1327 C1323 1.393 . S
C1327 C1326 1.391 . S
C537 C7 0.365 . S
C543 C172 0.403 . S
C557 C40 0.388 . S
C563 C205 0.412 . S
C577 C238 0.404 . S
C583 C73 0.408 . S
C597 C139 0.352 . S
C603 C106 0.355 . S
C617 C271 0.409 . S
C623 C436 0.375 . S
C637 C304 0.346 . S
C643 C469 0.369 . S
C657 C337 0.412 . S
C663 C502 0.391 . S
C677 C370 0.412 . S
C683 C403 0.387 . S
C697 C285 1.553 . S
C703 C21 1.553 . S
C717 C318 1.554 . S
C723 C54 1.554 . S
C737 C87 1.580 . S
C743 C351 1.580 . S
C757 C384 1.549 . S
C763 C120 1.549 . S
C777 C153 1.575 . S
C783 C417 1.575 . S
C797 C186 1.556 . S
C803 C450 1.556 . S
C817 C219 1.565 . S
C823 C483 1.565 . S
C837 C252 1.551 . S
C843 C516 1.551 . S
C857 N13 1.517 . S
C863 N145 1.526 . S
C877 N46 1.508 . S
C883 N178 1.529 . S
C897 N211 1.495 . S
C903 N79 1.493 . S
C917 N112 1.525 . S
C923 N244 1.495 . S
C937 N409 1.525 . S
C943 N277 1.495 . S
C957 N442 1.513 . S
C963 N310 1.487 . S
C977 N343 1.523 . S
C983 N475 1.521 . S
C997 N508 1.527 . S
C1003 N376 1.499 . S
C1017 C51 1.435 . S
C1023 N2 1.369 . S
C1037 N35 1.355 . S
C1043 C84 1.429 . S
C1057 N68 1.353 . S
C1063 C117 1.434 . S
C1077 N101 1.338 . S
C1083 C18 1.428 . S
C1097 C249 1.432 . S
C1103 N134 1.365 . S
C1117 N167 1.345 . S
C1123 C150 1.433 . S
C1137 N200 1.369 . S
C1143 C183 1.434 . S
C1157 N233 1.339 . S
C1163 C216 1.431 . S
C1177 N266 1.352 . S
C1183 C315 1.434 . S
C1197 N299 1.337 . S
C1203 C348 1.430 . S
C1217 C381 1.434 . S
C1223 N332 1.349 . S
C1237 N365 1.358 . S
C1243 C282 1.430 . S
C1257 N398 1.345 . S
C1263 C513 1.433 . S
C1277 C414 1.430 . S
C1283 N431 1.359 . S
C1297 C447 1.435 . S
C1303 N464 1.367 . S
C1317 N497 1.340 . S
C1323 C480 1.431 . S
