# Generated by pormake.
# Topology acs-g, (3)-cn, num edge types: 1
# Building blocks:
#     Node 0, Type 0, BuildingBlock: OLANEW_clean_sbu_2, # of connection points: 3
#     Node 1, Type 0, BuildingBlock: OLANEW_clean_sbu_2, # of connection points: 3
#     Node 2, Type 0, BuildingBlock: OLANEW_clean_sbu_2, # of connection points: 3
#     Node 3, Type 0, BuildingBlock: OLANEW_clean_sbu_2, # of connection points: 3
#     Node 4, Type 0, BuildingBlock: OLANEW_clean_sbu_2, # of connection points: 3
#     Node 5, Type 0, BuildingBlock: OLANEW_clean_sbu_2, # of connection points: 3
#     Node 6, Type 0, BuildingBlock: OLANEW_clean_sbu_2, # of connection points: 3
#     Node 7, Type 0, BuildingBlock: OLANEW_clean_sbu_2, # of connection points: 3
#     Node 8, Type 0, BuildingBlock: OLANEW_clean_sbu_2, # of connection points: 3
#     Node 9, Type 0, BuildingBlock: OLANEW_clean_sbu_2, # of connection points: 3
#     Node 10, Type 0, BuildingBlock: OLANEW_clean_sbu_2, # of connection points: 3
#     Node 11, Type 0, BuildingBlock: OLANEW_clean_sbu_2, # of connection points: 3
#     Edge 12, Type (0, 0), BuildingBlock: FUNLAD_clean_linker_0, # of connection points: 2
#     Edge 13, Type (0, 0), BuildingBlock: FUNLAD_clean_linker_0, # of connection points: 2
#     Edge 14, Type (0, 0), BuildingBlock: FUNLAD_clean_linker_0, # of connection points: 2
#     Edge 15, Type (0, 0), BuildingBlock: FUNLAD_clean_linker_0, # of connection points: 2
#     Edge 16, Type (0, 0), BuildingBlock: FUNLAD_clean_linker_0, # of connection points: 2
#     Edge 17, Type (0, 0), BuildingBlock: FUNLAD_clean_linker_0, # of connection points: 2
#     Edge 18, Type (0, 0), BuildingBlock: FUNLAD_clean_linker_0, # of connection points: 2
#     Edge 19, Type (0, 0), BuildingBlock: FUNLAD_clean_linker_0, # of connection points: 2
#     Edge 20, Type (0, 0), BuildingBlock: FUNLAD_clean_linker_0, # of connection points: 2
#     Edge 21, Type (0, 0), BuildingBlock: FUNLAD_clean_linker_0, # of connection points: 2
#     Edge 22, Type (0, 0), BuildingBlock: FUNLAD_clean_linker_0, # of connection points: 2
#     Edge 23, Type (0, 0), BuildingBlock: FUNLAD_clean_linker_0, # of connection points: 2
#     Edge 24, Type (0, 0), BuildingBlock: FUNLAD_clean_linker_0, # of connection points: 2
#     Edge 25, Type (0, 0), BuildingBlock: FUNLAD_clean_linker_0, # of connection points: 2
#     Edge 26, Type (0, 0), BuildingBlock: FUNLAD_clean_linker_0, # of connection points: 2
#     Edge 27, Type (0, 0), BuildingBlock: FUNLAD_clean_linker_0, # of connection points: 2
#     Edge 28, Type (0, 0), BuildingBlock: FUNLAD_clean_linker_0, # of connection points: 2
#     Edge 29, Type (0, 0), BuildingBlock: FUNLAD_clean_linker_0, # of connection points: 2
# Relax obj value: 0.001
# Max RMSD: 0.048
# Mean RMSD: 0.048
data_MOF--net-acs-g--node1-OLANEW_clean_sbu_2--edge1-FUNLAD_clean_linker_0
_symmetry_space_group_name_H-M    P1
_symmetry_Int_Tables_number       1
_symmetry_cell_setting            triclinic
loop_
_symmetry_equiv_pos_as_xyz
'x, y, z'
_cell_length_a     62.15172
_cell_length_b     62.077342
_cell_length_c     54.131187
_cell_angle_alpha  89.943003
_cell_angle_beta   89.963483
_cell_angle_gamma 120.0709
loop_
_atom_site_label
_atom_site_type_symbol
_atom_site_fract_x
_atom_site_fract_y
_atom_site_fract_z
_atom_type_partial_charge
O0 O 0.39236 0.43656 0.18341 0.0
Cd1 Cd 0.35228 0.41221 0.16262 0.0
O2 O 0.38067 0.41608 0.2186 0.0
Cd3 Cd 0.34173 0.39464 0.20746 0.0
O4 O 0.30306 0.38596 0.20835 0.0
C5 C 0.29661 0.39297 0.22765 0.0
O6 O 0.31304 0.40389 0.24533 0.0
C7 C 0.3975 0.43302 0.20525 0.0
C8 C 0.35825 0.40044 0.11424 0.0
O9 O 0.36009 0.42143 0.11943 0.0
O10 O 0.35351 0.38492 0.13191 0.0
O11 O 0.98457 0.38673 0.66047 0.0
Cd12 Cd 0.99501 0.36108 0.6344 0.0
O13 O 0.95968 0.35336 0.68175 0.0
Cd14 Cd 0.93065 0.3304 0.70859 0.0
O15 O 0.9004 0.30191 0.73099 0.0
C16 C 0.90061 0.28204 0.73618 0.0
O17 O 0.91924 0.27952 0.72834 0.0
C18 C 0.96924 0.37665 0.67815 0.0
C19 C 0.00903 0.37985 0.58654 0.0
O20 O 0.98618 0.36494 0.59201 0.0
O21 O 0.02522 0.38603 0.60376 0.0
O22 O 0.5386 0.91183 0.20295 0.0
Cd23 Cd 0.56916 0.90524 0.18058 0.0
O24 O 0.56628 0.94857 0.21739 0.0
Cd25 Cd 0.59596 0.94079 0.20845 0.0
O26 O 0.61245 0.91726 0.21427 0.0
C27 C 0.60755 0.90627 0.23507 0.0
O28 O 0.59422 0.9106 0.25104 0.0
C29 C 0.54371 0.93164 0.21457 0.0
C30 C 0.58382 0.93196 0.13618 0.0
O31 O 0.56532 0.90967 0.13693 0.0
O32 O 0.59538 0.94159 0.15639 0.0
O33 O 0.60477 0.57319 0.66886 0.0
Cd34 Cd 0.64489 0.60043 0.64905 0.0
O35 O 0.61538 0.59332 0.70422 0.0
Cd36 Cd 0.65474 0.61495 0.69452 0.0
O37 O 0.69262 0.62178 0.69884 0.0
C38 C 0.69673 0.61386 0.71895 0.0
O39 O 0.67866 0.60331 0.73523 0.0
C40 C 0.59906 0.57627 0.69062 0.0
C41 C 0.63875 0.6124 0.60076 0.0
O42 O 0.64101 0.59335 0.60528 0.0
O43 O 0.6395 0.62583 0.61907 0.0
O44 O 0.99809 0.61115 0.14916 0.0
Cd45 Cd 0.99799 0.64228 0.12146 0.0
O46 O 0.03458 0.64131 0.1603 0.0
Cd47 Cd 0.07123 0.66127 0.17782 0.0
O48 O 0.10711 0.68974 0.19238 0.0
C49 C 0.1237 0.68502 0.19987 0.0
O50 O 0.11928 0.662 0.1991 0.0
C51 C 0.0174 0.61869 0.16245 0.0
C52 C 0.97646 0.62373 0.07546 0.0
O53 O 0.99909 0.62986 0.0798 0.0
O54 O 0.96387 0.62604 0.09297 0.0
O55 O 0.45163 0.06864 0.70527 0.0
Cd56 Cd 0.42926 0.08649 0.68444 0.0
O57 O 0.42652 0.05282 0.73717 0.0
Cd58 Cd 0.4051 0.07046 0.72648 0.0
O59 O 0.39316 0.09808 0.7278 0.0
C60 C 0.3967 0.10957 0.74815 0.0
O61 O 0.40644 0.10368 0.76668 0.0
C62 C 0.4456 0.05618 0.72527 0.0
C63 C 0.42273 0.07289 0.63471 0.0
O64 O 0.443 0.09158 0.64236 0.0
O65 O 0.40537 0.06082 0.6505 0.0
O66 O 0.57873 0.62168 0.31061 0.0
Cd67 Cd 0.60558 0.66102 0.33177 0.0
O68 O 0.5964 0.63487 0.27425 0.0
Cd69 Cd 0.61826 0.67394 0.2851 0.0
O70 O 0.62859 0.713 0.28069 0.0
C71 C 0.6262 0.71945 0.25902 0.0
O72 O 0.61877 0.70284 0.24125 0.0
C73 C 0.5807 0.61742 0.28798 0.0
C74 C 0.61447 0.65242 0.38041 0.0
O75 O 0.62876 0.65362 0.36273 0.0
O76 O 0.59608 0.65549 0.37512 0.0
O77 O 0.89423 0.50835 0.7984 0.0
Cd78 Cd 0.87445 0.52877 0.81951 0.0
O79 O 0.92184 0.54157 0.77822 0.0
Cd80 Cd 0.90445 0.56307 0.78952 0.0
O81 O 0.87994 0.57881 0.78772 0.0
C82 C 0.8722 0.58019 0.76637 0.0
O83 O 0.87976 0.57277 0.74719 0.0
C84 C 0.91281 0.51875 0.78389 0.0
C85 C 0.8937 0.54381 0.86696 0.0
O86 O 0.87649 0.52141 0.86265 0.0
O87 O 0.90178 0.5592 0.84885 0.0
O88 O 0.39473 0.97134 0.34983 0.0
Cd89 Cd 0.36069 0.96722 0.37591 0.0
O90 O 0.36537 0.94838 0.32357 0.0
Cd91 Cd 0.34933 0.92412 0.29149 0.0
O92 O 0.32245 0.89278 0.26924 0.0
C93 C 0.31196 0.87133 0.27919 0.0
O94 O 0.31847 0.86901 0.30169 0.0
C95 C 0.3883 0.96004 0.32924 0.0
C96 C 0.375 0.99181 0.42118 0.0
O97 O 0.37284 0.97032 0.41831 0.0
O98 O 0.37088 0.00193 0.4025 0.0
O99 O 0.43732 0.40146 0.82838 0.0
Cd100 Cd 0.41447 0.36185 0.8505 0.0
O101 O 0.41663 0.38831 0.79349 0.0
Cd102 Cd 0.39611 0.34953 0.80553 0.0
O103 O 0.38615 0.31042 0.80452 0.0
C104 C 0.39027 0.3029 0.78417 0.0
O105 O 0.39929 0.31861 0.76558 0.0
C106 C 0.43331 0.40581 0.80639 0.0
C107 C 0.40607 0.36968 0.89952 0.0
O108 O 0.4266 0.37119 0.89293 0.0
O109 O 0.38938 0.36425 0.88298 0.0
O110 O 0.06066 0.4694 0.29472 0.0
Cd111 Cd 0.07811 0.44732 0.31703 0.0
O112 O 0.05768 0.44984 0.25988 0.0
Cd113 Cd 0.07522 0.42929 0.27371 0.0
O114 O 0.10106 0.41512 0.27518 0.0
C115 C 0.11075 0.41428 0.25478 0.0
O116 O 0.10422 0.42122 0.23453 0.0
C117 C 0.05449 0.46554 0.27205 0.0
C118 C 0.06031 0.43449 0.36534 0.0
O119 O 0.04937 0.41955 0.34732 0.0
O120 O 0.07954 0.45559 0.36046 0.0
O121 O 0.61128 0.05024 0.86377 0.0
Cd122 Cd 0.64972 0.06104 0.88578 0.0
O123 O 0.62617 0.04966 0.82702 0.0
Cd124 Cd 0.66496 0.06703 0.83872 0.0
O125 O 0.70398 0.09553 0.83352 0.0
C126 C 0.71508 0.09399 0.81445 0.0
O127 O 0.70318 0.07471 0.79977 0.0
C128 C 0.60803 0.04611 0.84068 0.0
C129 C 0.63876 0.0353 0.93064 0.0
O130 O 0.64095 0.05692 0.92927 0.0
O131 O 0.64204 0.02597 0.91086 0.0
C132 C 0.26566 0.40004 0.25039 0.0
C133 C 0.27167 0.39041 0.22971 0.0
C134 C 0.24281 0.39919 0.25184 0.0
C135 C 0.22523 0.38839 0.23272 0.0
C136 C 0.23112 0.37841 0.21224 0.0
C137 C 0.25405 0.37934 0.21075 0.0
C138 C 0.20153 0.38893 0.23254 0.0
C139 C 0.19132 0.39278 0.25286 0.0
C140 C 0.16935 0.39638 0.25236 0.0
C141 C 0.15692 0.39461 0.27463 0.0
C142 C 0.13752 0.39987 0.2754 0.0
C143 C 0.13016 0.40712 0.25388 0.0
H144 H 0.17111 0.40567 0.2133 0.0
C145 C 0.14227 0.40847 0.23152 0.0
C146 C 0.16171 0.40331 0.23075 0.0
H147 H 0.13717 0.41414 0.21461 0.0
H148 H 0.27886 0.40885 0.26527 0.0
H149 H 0.23954 0.40783 0.26762 0.0
H150 H 0.21807 0.37016 0.19713 0.0
H151 H 0.25811 0.37176 0.19455 0.0
H152 H 0.19231 0.38603 0.21484 0.0
H153 H 0.19928 0.39339 0.27086 0.0
H154 H 0.16249 0.38952 0.29161 0.0
H155 H 0.12858 0.39865 0.29295 0.0
C156 C 0.75131 0.1371 0.82078 0.0
C157 C 0.74008 0.11459 0.80755 0.0
C158 C 0.77399 0.1572 0.81294 0.0
C159 C 0.7859 0.15517 0.79166 0.0
C160 C 0.77514 0.13236 0.77909 0.0
C161 C 0.75244 0.11234 0.78682 0.0
C162 C 0.80945 0.1763 0.78194 0.0
C163 C 0.81631 0.2004 0.78552 0.0
C164 C 0.83867 0.22139 0.77376 0.0
C165 C 0.83912 0.24396 0.76964 0.0
C166 C 0.85933 0.26378 0.75772 0.0
C167 C 0.87968 0.26154 0.74985 0.0
H168 H 0.86021 0.20271 0.77018 0.0
C169 C 0.87961 0.23925 0.7547 0.0
C170 C 0.85939 0.21943 0.76658 0.0
H171 H 0.89511 0.23699 0.74915 0.0
H172 H 0.74237 0.13939 0.83695 0.0
H173 H 0.78209 0.1742 0.82362 0.0
H174 H 0.78403 0.13016 0.76282 0.0
H175 H 0.74441 0.09523 0.7763 0.0
H176 H 0.82038 0.17166 0.76971 0.0
H177 H 0.80416 0.20499 0.79582 0.0
H178 H 0.82355 0.2461 0.77521 0.0
H179 H 0.85885 0.28074 0.75443 0.0
C180 C 0.6369 0.7623 0.27299 0.0
C181 C 0.62995 0.74458 0.25403 0.0
C182 C 0.63872 0.78536 0.26844 0.0
C183 C 0.63339 0.79109 0.24483 0.0
C184 C 0.62745 0.77374 0.22573 0.0
C185 C 0.62568 0.75076 0.23025 0.0
C186 C 0.63322 0.81454 0.23934 0.0
C187 C 0.63007 0.82826 0.25672 0.0
C188 C 0.62621 0.84957 0.25098 0.0
C189 C 0.61429 0.85648 0.26868 0.0
C190 C 0.60874 0.87523 0.26366 0.0
C191 C 0.61514 0.88769 0.24082 0.0
H192 H 0.64355 0.85866 0.2146 0.0
C193 C 0.62797 0.88153 0.22341 0.0
C194 C 0.63355 0.86273 0.22844 0.0
H195 H 0.63342 0.89099 0.20574 0.0
H196 H 0.64063 0.75824 0.29144 0.0
H197 H 0.64425 0.7985 0.28351 0.0
H198 H 0.62351 0.77769 0.20731 0.0
H199 H 0.62047 0.73764 0.21515 0.0
H200 H 0.63338 0.8192 0.21999 0.0
H201 H 0.62789 0.82241 0.27589 0.0
H202 H 0.60864 0.84689 0.28628 0.0
H203 H 0.59901 0.87961 0.27759 0.0
C204 C 0.72415 0.60441 0.74508 0.0
C205 C 0.72074 0.61491 0.72348 0.0
C206 C 0.74607 0.6038 0.74887 0.0
C207 C 0.76531 0.61397 0.73121 0.0
C208 C 0.76203 0.62482 0.70979 0.0
C209 C 0.74003 0.62536 0.70597 0.0
C210 C 0.78809 0.61189 0.73353 0.0
C211 C 0.79596 0.60716 0.75501 0.0
C212 C 0.81693 0.60208 0.75699 0.0
C213 C 0.82716 0.60302 0.78039 0.0
C214 C 0.84548 0.59644 0.78344 0.0
C215 C 0.85392 0.58865 0.76312 0.0
H216 H 0.81791 0.59281 0.71835 0.0
C217 C 0.84402 0.58808 0.73964 0.0
C218 C 0.82566 0.59457 0.7366 0.0
H219 H 0.84999 0.58202 0.72361 0.0
H220 H 0.70961 0.59604 0.75889 0.0
H221 H 0.74731 0.59455 0.76527 0.0
H222 H 0.7764 0.63261 0.69576 0.0
H223 H 0.73799 0.63356 0.6891 0.0
H224 H 0.79864 0.6144 0.71675 0.0
H225 H 0.78675 0.60692 0.77212 0.0
H226 H 0.8207 0.60853 0.79648 0.0
H227 H 0.85272 0.59708 0.80179 0.0
C228 C 0.27903 0.8263 0.27824 0.0
C229 C 0.29147 0.84962 0.26647 0.0
C230 C 0.25857 0.80616 0.2671 0.0
C231 C 0.25017 0.80884 0.24377 0.0
C232 C 0.26286 0.83207 0.23187 0.0
C233 C 0.28333 0.85222 0.24302 0.0
C234 C 0.22733 0.78851 0.23206 0.0
C235 C 0.21722 0.76424 0.238 0.0
C236 C 0.19341 0.74436 0.22741 0.0
C237 C 0.18858 0.7197 0.22726 0.0
C238 C 0.16604 0.70042 0.21819 0.0
C239 C 0.14771 0.70537 0.2093 0.0
H240 H 0.17751 0.76782 0.21925 0.0
C241 C 0.15244 0.73001 0.20966 0.0
C242 C 0.17496 0.74927 0.21867 0.0
H243 H 0.13865 0.73447 0.20315 0.0
H244 H 0.28472 0.82369 0.29638 0.0
H245 H 0.249 0.78887 0.27729 0.0
H246 H 0.25673 0.83475 0.21398 0.0
H247 H 0.29246 0.86994 0.23346 0.0
H248 H 0.21879 0.79391 0.21767 0.0
H249 H 0.2269 0.75841 0.25061 0.0
H250 H 0.20232 0.71533 0.23414 0.0
H251 H 0.16296 0.68163 0.21828 0.0
C252 C 0.39277 0.27012 0.75959 0.0
C253 C 0.38645 0.27746 0.78171 0.0
C254 C 0.39068 0.24673 0.75753 0.0
C255 C 0.38195 0.22993 0.77753 0.0
C256 C 0.37531 0.23716 0.79952 0.0
C257 C 0.37746 0.26063 0.8016 0.0
C258 C 0.38132 0.20563 0.77682 0.0
C259 C 0.38161 0.19416 0.75576 0.0
C260 C 0.38385 0.17138 0.75501 0.0
C261 C 0.3778 0.15749 0.73306 0.0
C262 C 0.38143 0.13708 0.73092 0.0
C263 C 0.39135 0.13018 0.7507 0.0
H264 H 0.3992 0.17477 0.79191 0.0
C265 C 0.39709 0.14384 0.77279 0.0
C266 C 0.39352 0.16426 0.77491 0.0
H267 H 0.40491 0.13914 0.78834 0.0
H268 H 0.39991 0.28269 0.74395 0.0
H269 H 0.39677 0.24239 0.7405 0.0
H270 H 0.36874 0.22474 0.8153 0.0
H271 H 0.37246 0.26571 0.81892 0.0
H272 H 0.38051 0.19698 0.79448 0.0
H273 H 0.38008 0.20159 0.73812 0.0
H274 H 0.37052 0.16264 0.71735 0.0
H275 H 0.37685 0.12698 0.71363 0.0
C276 C 0.43967 0.47118 0.20267 0.0
C277 C 0.42234 0.45004 0.21588 0.0
C278 C 0.46178 0.48901 0.21377 0.0
C279 C 0.46726 0.48596 0.23836 0.0
C280 C 0.45035 0.4643 0.25117 0.0
C281 C 0.42817 0.44654 0.24009 0.0
C282 C 0.48898 0.50581 0.25205 0.0
C283 C 0.50836 0.52556 0.24115 0.0
C284 C 0.52802 0.54751 0.25473 0.0
C285 C 0.5489 0.56519 0.24147 0.0
C286 C 0.56646 0.58749 0.25249 0.0
C287 C 0.56359 0.59269 0.27715 0.0
H288 H 0.50965 0.53975 0.29064 0.0
C289 C 0.54323 0.57466 0.29077 0.0
C290 C 0.52556 0.55241 0.2797 0.0
H291 H 0.5404 0.57811 0.30977 0.0
H292 H 0.43573 0.47454 0.18402 0.0
H293 H 0.47379 0.50554 0.20323 0.0
H294 H 0.45395 0.46143 0.27012 0.0
H295 H 0.41526 0.43045 0.25081 0.0
H296 H 0.48845 0.50409 0.27201 0.0
H297 H 0.50988 0.52618 0.22118 0.0
H298 H 0.55132 0.56206 0.22223 0.0
H299 H 0.58196 0.60092 0.24146 0.0
C300 C 0.9629 0.41304 0.6834 0.0
C301 C 0.9623 0.39191 0.69354 0.0
C302 C 0.95653 0.42773 0.69772 0.0
C303 C 0.94981 0.42184 0.72271 0.0
C304 C 0.94925 0.40071 0.73281 0.0
C305 C 0.95558 0.38598 0.71843 0.0
C306 C 0.94224 0.43658 0.73846 0.0
C307 C 0.94883 0.46046 0.73374 0.0
C308 C 0.9402 0.47504 0.74838 0.0
C309 C 0.95231 0.50096 0.74504 0.0
C310 C 0.94384 0.51527 0.75701 0.0
C311 C 0.92298 0.50395 0.77263 0.0
H312 H 0.90912 0.44383 0.76705 0.0
C313 C 0.91111 0.47808 0.77638 0.0
C314 C 0.9195 0.46375 0.76432 0.0
H315 H 0.89487 0.46872 0.78815 0.0
H316 H 0.96791 0.418 0.66421 0.0
H317 H 0.95643 0.44331 0.68889 0.0
H318 H 0.94412 0.39568 0.75197 0.0
H319 H 0.95574 0.37032 0.72702 0.0
H320 H 0.93141 0.42743 0.75483 0.0
H321 H 0.96149 0.47015 0.71858 0.0
H322 H 0.96821 0.51019 0.7328 0.0
H323 H 0.95343 0.53515 0.75368 0.0
C324 C 0.52677 0.95756 0.23205 0.0
C325 C 0.52361 0.93403 0.2265 0.0
C326 C 0.50835 0.95958 0.245 0.0
C327 C 0.48675 0.93809 0.25308 0.0
C328 C 0.48357 0.91464 0.24741 0.0
C329 C 0.50162 0.9126 0.2339 0.0
C330 C 0.4682 0.93963 0.26902 0.0
C331 C 0.46098 0.95651 0.26552 0.0
C332 C 0.4425 0.95759 0.28197 0.0
C333 C 0.4233 0.96043 0.27183 0.0
C334 C 0.40544 0.96094 0.28718 0.0
C335 C 0.40698 0.95941 0.31294 0.0
H336 H 0.45901 0.95441 0.31606 0.0
C337 C 0.42665 0.95736 0.32312 0.0
C338 C 0.4441 0.95616 0.30776 0.0
H339 H 0.42829 0.95626 0.34295 0.0
H340 H 0.54357 0.97438 0.22662 0.0
H341 H 0.51146 0.97792 0.24951 0.0
H342 H 0.46714 0.89784 0.2536 0.0
H343 H 0.49877 0.89422 0.23009 0.0
H344 H 0.45941 0.92569 0.28346 0.0
H345 H 0.46767 0.96882 0.24958 0.0
H346 H 0.42188 0.9618 0.252 0.0
H347 H 0.39066 0.96295 0.27893 0.0
C348 C 0.4453 0.4357 0.77085 0.0
C349 C 0.44941 0.43065 0.79518 0.0
C350 C 0.46212 0.4581 0.75932 0.0
C351 C 0.48362 0.47586 0.77182 0.0
C352 C 0.48692 0.47134 0.79657 0.0
C353 C 0.47007 0.44901 0.80812 0.0
C354 C 0.50353 0.4988 0.7597 0.0
C355 C 0.50689 0.50152 0.73501 0.0
C356 C 0.52929 0.52242 0.72314 0.0
C357 C 0.53553 0.51909 0.69904 0.0
C358 C 0.55769 0.53704 0.68804 0.0
C359 C 0.57415 0.55881 0.70089 0.0
H360 H 0.54053 0.54886 0.75352 0.0
C361 C 0.56727 0.56285 0.72443 0.0
C362 C 0.54503 0.54496 0.73538 0.0
H363 H 0.57933 0.57962 0.73468 0.0
H364 H 0.42936 0.4221 0.76047 0.0
H365 H 0.45824 0.46115 0.74059 0.0
H366 H 0.5031 0.48476 0.8068 0.0
H367 H 0.47374 0.44585 0.82694 0.0
H368 H 0.51731 0.51278 0.77185 0.0
H369 H 0.49414 0.48668 0.72291 0.0
H370 H 0.52366 0.5021 0.689 0.0
H371 H 0.56232 0.53339 0.6698 0.0
C372 C 0.00594 0.57537 0.17462 0.0
C373 C 0.01986 0.6011 0.17912 0.0
C374 C 0.00853 0.55856 0.18976 0.0
C375 C 0.0253 0.56712 0.20973 0.0
C376 C 0.03845 0.59277 0.21477 0.0
C377 C 0.03572 0.60956 0.1997 0.0
C378 C 0.02965 0.5501 0.22573 0.0
C379 C 0.02416 0.527 0.21885 0.0
C380 C 0.03061 0.51077 0.23362 0.0
C381 C 0.03182 0.49145 0.22143 0.0
C382 C 0.03897 0.47643 0.23406 0.0
C383 C 0.04497 0.48024 0.25931 0.0
H384 H 0.03415 0.52808 0.26948 0.0
C385 C 0.04286 0.49895 0.2718 0.0
C386 C 0.03568 0.51401 0.25914 0.0
H387 H 0.0471 0.50222 0.29131 0.0
H388 H 0.99318 0.56819 0.15918 0.0
H389 H 0.9972 0.53894 0.1857 0.0
H390 H 0.05108 0.59991 0.23032 0.0
H391 H 0.04574 0.62905 0.2045 0.0
H392 H 0.03936 0.5577 0.243 0.0
H393 H 0.01628 0.52018 0.20072 0.0
H394 H 0.02776 0.48828 0.20187 0.0
H395 H 0.04022 0.4621 0.22384 0.0
C396 C 0.45632 0.03464 0.75827 0.0
C397 C 0.46187 0.04727 0.73552 0.0
C398 C 0.47311 0.02869 0.76915 0.0
C399 C 0.49595 0.03548 0.75756 0.0
C400 C 0.50079 0.04685 0.73421 0.0
C401 C 0.48402 0.05274 0.72333 0.0
C402 C 0.51571 0.03208 0.76933 0.0
C403 C 0.51728 0.02928 0.79388 0.0
C404 C 0.53946 0.03061 0.80597 0.0
C405 C 0.54346 0.03662 0.8312 0.0
C406 C 0.56528 0.0407 0.84278 0.0
C407 C 0.58364 0.03886 0.82934 0.0
H408 H 0.55443 0.02148 0.7738 0.0
C409 C 0.57906 0.03147 0.80447 0.0
C410 C 0.55714 0.02718 0.79294 0.0
H411 H 0.59262 0.0294 0.79371 0.0
H412 H 0.43926 0.02984 0.76799 0.0
H413 H 0.46814 0.01906 0.7867 0.0
H414 H 0.51804 0.05203 0.72466 0.0
H415 H 0.48882 0.06226 0.70568 0.0
H416 H 0.53083 0.03462 0.7574 0.0
H417 H 0.50307 0.02859 0.80604 0.0
H418 H 0.53006 0.03908 0.84182 0.0
H419 H 0.56814 0.0462 0.86202 0.0
C420 C 0.37311 0.4133 0.07082 0.0
C421 C 0.36161 0.39436 0.08861 0.0
C422 C 0.37654 0.40765 0.04666 0.0
C423 C 0.36827 0.38288 0.03973 0.0
C424 C 0.35633 0.36391 0.05737 0.0
C425 C 0.3533 0.36961 0.08166 0.0
C426 C 0.3712 0.3763 0.01408 0.0
C427 C 0.39119 0.39103 1.00009 0.0
C428 C 0.39441 0.38455 0.9745 0.0
C429 C 0.41846 0.39231 0.96575 0.0
C430 C 0.4222 0.38706 0.94154 0.0
C431 C 0.40197 0.37446 0.92538 0.0
H432 H 0.35538 0.36605 0.96443 0.0
C433 C 0.37789 0.36692 0.93405 0.0
C434 C 0.37411 0.37178 0.95842 0.0
H435 H 0.36194 0.35725 0.922 0.0
H436 H 0.37963 0.43254 0.07559 0.0
H437 H 0.38527 0.42263 0.03333 0.0
H438 H 0.3496 0.34467 0.05241 0.0
H439 H 0.34421 0.3546 0.09492 0.0
H440 H 0.3572 0.35823 0.00709 0.0
H441 H 0.40639 0.40785 0.00807 0.0
H442 H 0.43442 0.40236 0.97773 0.0
H443 H 0.441 0.39326 0.93536 0.0
C444 C 0.06288 0.44423 0.41056 0.0
C445 C 0.05128 0.42741 0.39105 0.0
C446 C 0.05478 0.43734 0.43492 0.0
C447 C 0.03499 0.4133 0.44033 0.0
C448 C 0.0231 0.39671 0.42072 0.0
C449 C 0.03116 0.40363 0.39638 0.0
C450 C 0.02592 0.40487 0.46598 0.0
C451 C 0.0397 0.41541 0.48637 0.0
C452 C 0.03108 0.40626 0.51196 0.0
C453 C 0.04894 0.4128 0.53067 0.0
C454 C 0.0418 0.40441 0.55489 0.0
C455 C 0.01656 0.38933 0.56102 0.0
H456 H 0.99128 0.38683 0.50466 0.0
C457 C 0.99861 0.38317 0.54245 0.0
C458 C 0.00574 0.39162 0.51822 0.0
H459 H 0.97898 0.37181 0.54662 0.0
H460 H 0.07826 0.4628 0.40705 0.0
H461 H 0.06395 0.45105 0.44927 0.0
H462 H 0.00766 0.37818 0.42426 0.0
H463 H 0.02173 0.39024 0.38178 0.0
H464 H 0.0077 0.3884 0.46785 0.0
H465 H 0.05872 0.43052 0.48437 0.0
H466 H 0.06856 0.42424 0.52649 0.0
H467 H 0.05611 0.40959 0.56876 0.0
C468 C 0.62863 0.03172 0.97586 0.0
C469 C 0.63221 0.02133 0.95427 0.0
C470 C 0.62184 0.01831 0.99802 0.0
C471 C 0.61861 0.99419 0.99913 0.0
C472 C 0.62207 0.98381 0.97751 0.0
C473 C 0.6289 0.99723 0.95536 0.0
C474 C 0.61067 0.97894 0.02212 0.0
C475 C 0.61443 0.98876 0.045 0.0
C476 C 0.60641 0.9735 0.06798 0.0
C477 C 0.61849 0.98446 0.09026 0.0
C478 C 0.61127 0.97095 0.11235 0.0
C479 C 0.59158 0.94619 0.11272 0.0
H480 H 0.57621 0.93983 0.05179 0.0
C481 C 0.57928 0.93525 0.09048 0.0
C482 C 0.58655 0.94875 0.06836 0.0
H483 H 0.5639 0.91628 0.09016 0.0
H484 H 0.6308 0.05016 0.9756 0.0
H485 H 0.61861 0.02674 0.01402 0.0
H486 H 0.61951 0.96521 0.97774 0.0
H487 H 0.63139 0.98862 0.93905 0.0
H488 H 0.6024 0.95895 0.02 0.0
H489 H 0.6248 0.00883 0.04723 0.0
H490 H 0.63367 0.00354 0.09058 0.0
H491 H 0.62107 0.97999 0.12916 0.0
C492 C 0.635 0.60408 0.55517 0.0
C493 C 0.63525 0.61861 0.57518 0.0
C494 C 0.63147 0.6098 0.53105 0.0
C495 C 0.62821 0.63031 0.52639 0.0
C496 C 0.62822 0.64465 0.54644 0.0
C497 C 0.63182 0.63897 0.57054 0.0
C498 C 0.62381 0.63675 0.5011 0.0
C499 C 0.63137 0.63048 0.48034 0.0
C500 C 0.62693 0.63684 0.45503 0.0
C501 C 0.64241 0.63772 0.43567 0.0
C502 C 0.63854 0.64302 0.41152 0.0
C503 C 0.6189 0.64734 0.4061 0.0
H504 H 0.59433 0.63978 0.46378 0.0
C505 C 0.60327 0.6463 0.42542 0.0
C506 C 0.60718 0.64105 0.4496 0.0
H507 H 0.58784 0.64932 0.42184 0.0
H508 H 0.63737 0.58813 0.55812 0.0
H509 H 0.63079 0.59777 0.51626 0.0
H510 H 0.62552 0.6604 0.54345 0.0
H511 H 0.63179 0.65049 0.58554 0.0
H512 H 0.61502 0.64803 0.49977 0.0
H513 H 0.64224 0.62126 0.48179 0.0
H514 H 0.65762 0.63434 0.43925 0.0
H515 H 0.65086 0.64357 0.39706 0.0
C516 C 0.97647 0.60612 0.03385 0.0
C517 C 0.96542 0.61484 0.05075 0.0
C518 C 0.96637 0.5983 0.01027 0.0
C519 C 0.9452 0.59938 0.00304 0.0
C520 C 0.93432 0.60832 0.01983 0.0
C521 C 0.94412 0.61568 0.04358 0.0
C522 C 0.93476 0.59229 0.97779 0.0
C523 C 0.93445 0.57345 0.96521 0.0
C524 C 0.92377 0.56624 0.94006 0.0
C525 C 0.91133 0.54103 0.93336 0.0
C526 C 0.90124 0.53372 0.90971 0.0
C527 C 0.90402 0.55157 0.89208 0.0
H528 H 0.93652 0.60379 0.92692 0.0
C529 C 0.91689 0.57687 0.89864 0.0
C530 C 0.92652 0.58414 0.92246 0.0
H531 H 0.91938 0.59105 0.88541 0.0
H532 H 0.99295 0.60535 0.03883 0.0
H533 H 0.97552 0.59201 0.99755 0.0
H534 H 0.91811 0.6095 0.01461 0.0
H535 H 0.93531 0.6225 0.05613 0.0
H536 H 0.9259 0.60201 0.9699 0.0
H537 H 0.94091 0.56203 0.9741 0.0
H538 H 0.90917 0.52694 0.94654 0.0
H539 H 0.89158 0.5141 0.90514 0.0
C540 C 0.39154 0.99633 0.46418 0.0
C541 C 0.38111 0.00408 0.44562 0.0
C542 C 0.39613 0.00704 0.48768 0.0
C543 C 0.39006 0.02551 0.49316 0.0
C544 C 0.37965 0.03325 0.47463 0.0
C545 C 0.3755 0.02288 0.45097 0.0
C546 C 0.39301 0.03584 0.51843 0.0
C547 C 0.41179 0.03952 0.53344 0.0
C548 C 0.41414 0.0489 0.55905 0.0
C549 C 0.43788 0.06425 0.56898 0.0
C550 C 0.44064 0.07257 0.59339 0.0
C551 C 0.4197 0.06511 0.60854 0.0
H552 H 0.3746 0.02937 0.56713 0.0
C553 C 0.39592 0.04958 0.59866 0.0
C554 C 0.39314 0.04168 0.57409 0.0
H555 H 0.37945 0.04347 0.60992 0.0
H556 H 0.39597 0.98182 0.46061 0.0
H557 H 0.40366 0.00026 0.50174 0.0
H558 H 0.37464 0.04731 0.47847 0.0
H559 H 0.36727 0.02911 0.4371 0.0
H560 H 0.37978 0.04134 0.52449 0.0
H561 H 0.42646 0.03646 0.52649 0.0
H562 H 0.45433 0.06987 0.55781 0.0
H563 H 0.45922 0.08438 0.60056 0.0
loop_
_geom_bond_atom_site_label_1
_geom_bond_atom_site_label_2
_geom_bond_distance
_geom_bond_site_symmetry_2
_ccdc_geom_bond_type
O0 Cd1 2.300 . S
O0 C7 1.275 . S
Cd1 O0 2.300 . S
Cd1 O9 2.381 . S
Cd1 O10 2.378 . S
O2 Cd3 2.385 . S
O2 C7 1.255 . S
Cd3 O2 2.385 . S
Cd3 O4 2.317 . S
O4 Cd3 2.317 . S
O4 C5 1.232 . S
C5 O4 1.232 . S
C5 O6 1.218 . S
O6 C5 1.218 . S
C7 O0 1.275 . S
C7 O2 1.255 . S
C8 O9 1.258 . S
C8 O10 1.256 . S
O9 Cd1 2.381 . S
O9 C8 1.258 . S
O10 Cd1 2.378 . S
O10 C8 1.256 . S
O11 Cd12 2.300 . S
O11 C18 1.275 . S
Cd12 O11 2.300 . S
Cd12 O20 2.381 . S
Cd12 O21 2.378 . S
O13 Cd14 2.385 . S
O13 C18 1.255 . S
Cd14 O13 2.385 . S
Cd14 O15 2.317 . S
O15 Cd14 2.317 . S
O15 C16 1.232 . S
C16 O15 1.232 . S
C16 O17 1.218 . S
O17 C16 1.218 . S
C18 O11 1.275 . S
C18 O13 1.255 . S
C19 O20 1.258 . S
C19 O21 1.256 . S
O20 Cd12 2.381 . S
O20 C19 1.258 . S
O21 Cd12 2.378 . S
O21 C19 1.256 . S
O22 Cd23 2.300 . S
O22 C29 1.275 . S
Cd23 O22 2.300 . S
Cd23 O31 2.381 . S
Cd23 O32 2.378 . S
O24 Cd25 2.385 . S
O24 C29 1.255 . S
Cd25 O24 2.385 . S
Cd25 O26 2.317 . S
O26 Cd25 2.317 . S
O26 C27 1.232 . S
C27 O26 1.232 . S
C27 O28 1.218 . S
O28 C27 1.218 . S
C29 O22 1.275 . S
C29 O24 1.255 . S
C30 O31 1.258 . S
C30 O32 1.256 . S
O31 Cd23 2.381 . S
O31 C30 1.258 . S
O32 Cd23 2.378 . S
O32 C30 1.256 . S
O33 Cd34 2.300 . S
O33 C40 1.275 . S
Cd34 O33 2.300 . S
Cd34 O42 2.381 . S
Cd34 O43 2.378 . S
O35 Cd36 2.385 . S
O35 C40 1.255 . S
Cd36 O35 2.385 . S
Cd36 O37 2.317 . S
O37 Cd36 2.317 . S
O37 C38 1.232 . S
C38 O37 1.232 . S
C38 O39 1.218 . S
O39 C38 1.218 . S
C40 O33 1.275 . S
C40 O35 1.255 . S
C41 O42 1.258 . S
C41 O43 1.256 . S
O42 Cd34 2.381 . S
O42 C41 1.258 . S
O43 Cd34 2.378 . S
O43 C41 1.256 . S
O44 Cd45 2.300 . S
O44 C51 1.275 . S
Cd45 O44 2.300 . S
Cd45 O53 2.381 . S
Cd45 O54 2.378 . S
O46 Cd47 2.385 . S
O46 C51 1.255 . S
Cd47 O46 2.385 . S
Cd47 O48 2.317 . S
O48 Cd47 2.317 . S
O48 C49 1.232 . S
C49 O48 1.232 . S
C49 O50 1.218 . S
O50 C49 1.218 . S
C51 O44 1.275 . S
C51 O46 1.255 . S
C52 O53 1.258 . S
C52 O54 1.256 . S
O53 Cd45 2.381 . S
O53 C52 1.258 . S
O54 Cd45 2.378 . S
O54 C52 1.256 . S
O55 Cd56 2.300 . S
O55 C62 1.275 . S
Cd56 O55 2.300 . S
Cd56 O64 2.381 . S
Cd56 O65 2.378 . S
O57 Cd58 2.385 . S
O57 C62 1.255 . S
Cd58 O57 2.385 . S
Cd58 O59 2.317 . S
O59 Cd58 2.317 . S
O59 C60 1.232 . S
C60 O59 1.232 . S
C60 O61 1.218 . S
O61 C60 1.218 . S
C62 O55 1.275 . S
C62 O57 1.255 . S
C63 O64 1.258 . S
C63 O65 1.256 . S
O64 Cd56 2.381 . S
O64 C63 1.258 . S
O65 Cd56 2.378 . S
O65 C63 1.256 . S
O66 Cd67 2.300 . S
O66 C73 1.275 . S
Cd67 O66 2.300 . S
Cd67 O75 2.381 . S
Cd67 O76 2.378 . S
O68 Cd69 2.385 . S
O68 C73 1.255 . S
Cd69 O68 2.385 . S
Cd69 O70 2.317 . S
O70 Cd69 2.317 . S
O70 C71 1.232 . S
C71 O70 1.232 . S
C71 O72 1.218 . S
O72 C71 1.218 . S
C73 O66 1.275 . S
C73 O68 1.255 . S
C74 O75 1.258 . S
C74 O76 1.256 . S
O75 Cd67 2.381 . S
O75 C74 1.258 . S
O76 Cd67 2.378 . S
O76 C74 1.256 . S
O77 Cd78 2.300 . S
O77 C84 1.275 . S
Cd78 O77 2.300 . S
Cd78 O86 2.381 . S
Cd78 O87 2.378 . S
O79 Cd80 2.385 . S
O79 C84 1.255 . S
Cd80 O79 2.385 . S
Cd80 O81 2.317 . S
O81 Cd80 2.317 . S
O81 C82 1.232 . S
C82 O81 1.232 . S
C82 O83 1.218 . S
O83 C82 1.218 . S
C84 O77 1.275 . S
C84 O79 1.255 . S
C85 O86 1.258 . S
C85 O87 1.256 . S
O86 Cd78 2.381 . S
O86 C85 1.258 . S
O87 Cd78 2.378 . S
O87 C85 1.256 . S
O88 Cd89 2.300 . S
O88 C95 1.275 . S
Cd89 O88 2.300 . S
Cd89 O97 2.381 . S
Cd89 O98 2.378 . S
O90 Cd91 2.385 . S
O90 C95 1.255 . S
Cd91 O90 2.385 . S
Cd91 O92 2.317 . S
O92 Cd91 2.317 . S
O92 C93 1.232 . S
C93 O92 1.232 . S
C93 O94 1.218 . S
O94 C93 1.218 . S
C95 O88 1.275 . S
C95 O90 1.255 . S
C96 O97 1.258 . S
C96 O98 1.256 . S
O97 Cd89 2.381 . S
O97 C96 1.258 . S
O98 Cd89 2.378 . S
O98 C96 1.256 . S
O99 Cd100 2.300 . S
O99 C106 1.275 . S
Cd100 O99 2.300 . S
Cd100 O108 2.381 . S
Cd100 O109 2.378 . S
O101 Cd102 2.385 . S
O101 C106 1.255 . S
Cd102 O101 2.385 . S
Cd102 O103 2.317 . S
O103 Cd102 2.317 . S
O103 C104 1.232 . S
C104 O103 1.232 . S
C104 O105 1.218 . S
O105 C104 1.218 . S
C106 O99 1.275 . S
C106 O101 1.255 . S
C107 O108 1.258 . S
C107 O109 1.256 . S
O108 Cd100 2.381 . S
O108 C107 1.258 . S
O109 Cd100 2.378 . S
O109 C107 1.256 . S
O110 Cd111 2.300 . S
O110 C117 1.275 . S
Cd111 O110 2.300 . S
Cd111 O119 2.381 . S
Cd111 O120 2.378 . S
O112 Cd113 2.385 . S
O112 C117 1.255 . S
Cd113 O112 2.385 . S
Cd113 O114 2.317 . S
O114 Cd113 2.317 . S
O114 C115 1.232 . S
C115 O114 1.232 . S
C115 O116 1.218 . S
O116 C115 1.218 . S
C117 O110 1.275 . S
C117 O112 1.255 . S
C118 O119 1.258 . S
C118 O120 1.256 . S
O119 Cd111 2.381 . S
O119 C118 1.258 . S
O120 Cd111 2.378 . S
O120 C118 1.256 . S
O121 Cd122 2.300 . S
O121 C128 1.275 . S
Cd122 O121 2.300 . S
Cd122 O130 2.381 . S
Cd122 O131 2.378 . S
O123 Cd124 2.385 . S
O123 C128 1.255 . S
Cd124 O123 2.385 . S
Cd124 O125 2.317 . S
O125 Cd124 2.317 . S
O125 C126 1.232 . S
C126 O125 1.232 . S
C126 O127 1.218 . S
O127 C126 1.218 . S
C128 O121 1.275 . S
C128 O123 1.255 . S
C129 O130 1.258 . S
C129 O131 1.256 . S
O130 Cd122 2.381 . S
O130 C129 1.258 . S
O131 Cd122 2.378 . S
O131 C129 1.256 . S
C132 C133 1.386 . S
C132 C134 1.383 . S
C132 H148 0.951 . S
C133 C132 1.386 . S
C133 C137 1.383 . S
C134 C132 1.383 . S
C134 C135 1.402 . S
C134 H149 0.951 . S
C135 C134 1.402 . S
C135 C136 1.375 . S
C135 C138 1.481 . S
C136 C135 1.375 . S
C136 C137 1.367 . S
C136 H150 0.951 . S
C137 C133 1.383 . S
C137 C136 1.367 . S
C137 H151 0.950 . S
C138 C135 1.481 . S
C138 C139 1.297 . S
C138 H152 0.950 . S
C139 C138 1.297 . S
C139 C140 1.479 . S
C139 H153 0.950 . S
C140 C139 1.479 . S
C140 C141 1.375 . S
C140 C146 1.404 . S
C141 C140 1.375 . S
C141 C142 1.369 . S
C141 H154 0.950 . S
C142 C141 1.369 . S
C142 C143 1.392 . S
C142 H155 0.951 . S
C143 C142 1.392 . S
C143 C145 1.384 . S
H144 C146 0.949 . S
C145 C143 1.384 . S
C145 C146 1.385 . S
C145 H147 0.950 . S
C146 C140 1.404 . S
C146 H144 0.949 . S
C146 C145 1.385 . S
H147 C145 0.950 . S
H148 C132 0.951 . S
H149 C134 0.951 . S
H150 C136 0.951 . S
H151 C137 0.950 . S
H152 C138 0.950 . S
H153 C139 0.950 . S
H154 C141 0.950 . S
H155 C142 0.951 . S
C156 C157 1.386 . S
C156 C158 1.383 . S
C156 H172 0.951 . S
C157 C156 1.386 . S
C157 C161 1.383 . S
C158 C156 1.383 . S
C158 C159 1.402 . S
C158 H173 0.951 . S
C159 C158 1.402 . S
C159 C160 1.375 . S
C159 C162 1.481 . S
C160 C159 1.375 . S
C160 C161 1.367 . S
C160 H174 0.951 . S
C161 C157 1.383 . S
C161 C160 1.367 . S
C161 H175 0.950 . S
C162 C159 1.481 . S
C162 C163 1.297 . S
C162 H176 0.950 . S
C163 C162 1.297 . S
C163 C164 1.479 . S
C163 H177 0.950 . S
C164 C163 1.479 . S
C164 C165 1.375 . S
C164 C170 1.404 . S
C165 C164 1.375 . S
C165 C166 1.369 . S
C165 H178 0.950 . S
C166 C165 1.369 . S
C166 C167 1.392 . S
C166 H179 0.951 . S
C167 C166 1.392 . S
C167 C169 1.384 . S
H168 C170 0.949 . S
C169 C167 1.384 . S
C169 C170 1.385 . S
C169 H171 0.950 . S
C170 C164 1.404 . S
C170 H168 0.949 . S
C170 C169 1.385 . S
H171 C169 0.950 . S
H172 C156 0.951 . S
H173 C158 0.951 . S
H174 C160 0.951 . S
H175 C161 0.950 . S
H176 C162 0.950 . S
H177 C163 0.950 . S
H178 C165 0.950 . S
H179 C166 0.951 . S
C180 C181 1.386 . S
C180 C182 1.383 . S
C180 H196 0.951 . S
C181 C180 1.386 . S
C181 C185 1.383 . S
C182 C180 1.383 . S
C182 C183 1.402 . S
C182 H197 0.951 . S
C183 C182 1.402 . S
C183 C184 1.375 . S
C183 C186 1.481 . S
C184 C183 1.375 . S
C184 C185 1.367 . S
C184 H198 0.951 . S
C185 C181 1.383 . S
C185 C184 1.367 . S
C185 H199 0.950 . S
C186 C183 1.481 . S
C186 C187 1.297 . S
C186 H200 0.950 . S
C187 C186 1.297 . S
C187 C188 1.479 . S
C187 H201 0.950 . S
C188 C187 1.479 . S
C188 C189 1.375 . S
C188 C194 1.404 . S
C189 C188 1.375 . S
C189 C190 1.369 . S
C189 H202 0.950 . S
C190 C189 1.369 . S
C190 C191 1.392 . S
C190 H203 0.951 . S
C191 C190 1.392 . S
C191 C193 1.384 . S
H192 C194 0.949 . S
C193 C191 1.384 . S
C193 C194 1.385 . S
C193 H195 0.950 . S
C194 C188 1.404 . S
C194 H192 0.949 . S
C194 C193 1.385 . S
H195 C193 0.950 . S
H196 C180 0.951 . S
H197 C182 0.951 . S
H198 C184 0.951 . S
H199 C185 0.950 . S
H200 C186 0.950 . S
H201 C187 0.950 . S
H202 C189 0.950 . S
H203 C190 0.951 . S
C204 C205 1.386 . S
C204 C206 1.383 . S
C204 H220 0.951 . S
C205 C204 1.386 . S
C205 C209 1.383 . S
C206 C204 1.383 . S
C206 C207 1.402 . S
C206 H221 0.951 . S
C207 C206 1.402 . S
C207 C208 1.375 . S
C207 C210 1.481 . S
C208 C207 1.375 . S
C208 C209 1.367 . S
C208 H222 0.951 . S
C209 C205 1.383 . S
C209 C208 1.367 . S
C209 H223 0.950 . S
C210 C207 1.481 . S
C210 C211 1.297 . S
C210 H224 0.950 . S
C211 C210 1.297 . S
C211 C212 1.479 . S
C211 H225 0.950 . S
C212 C211 1.479 . S
C212 C213 1.375 . S
C212 C218 1.404 . S
C213 C212 1.375 . S
C213 C214 1.369 . S
C213 H226 0.950 . S
C214 C213 1.369 . S
C214 C215 1.392 . S
C214 H227 0.951 . S
C215 C214 1.392 . S
C215 C217 1.384 . S
H216 C218 0.949 . S
C217 C215 1.384 . S
C217 C218 1.385 . S
C217 H219 0.950 . S
C218 C212 1.404 . S
C218 H216 0.949 . S
C218 C217 1.385 . S
H219 C217 0.950 . S
H220 C204 0.951 . S
H221 C206 0.951 . S
H222 C208 0.951 . S
H223 C209 0.950 . S
H224 C210 0.950 . S
H225 C211 0.950 . S
H226 C213 0.950 . S
H227 C214 0.951 . S
C228 C229 1.386 . S
C228 C230 1.383 . S
C228 H244 0.951 . S
C229 C228 1.386 . S
C229 C233 1.383 . S
C230 C228 1.383 . S
C230 C231 1.402 . S
C230 H245 0.951 . S
C231 C230 1.402 . S
C231 C232 1.375 . S
C231 C234 1.481 . S
C232 C231 1.375 . S
C232 C233 1.367 . S
C232 H246 0.951 . S
C233 C229 1.383 . S
C233 C232 1.367 . S
C233 H247 0.950 . S
C234 C231 1.481 . S
C234 C235 1.297 . S
C234 H248 0.950 . S
C235 C234 1.297 . S
C235 C236 1.479 . S
C235 H249 0.950 . S
C236 C235 1.479 . S
C236 C237 1.375 . S
C236 C242 1.404 . S
C237 C236 1.375 . S
C237 C238 1.369 . S
C237 H250 0.950 . S
C238 C237 1.369 . S
C238 C239 1.392 . S
C238 H251 0.951 . S
C239 C238 1.392 . S
C239 C241 1.384 . S
H240 C242 0.949 . S
C241 C239 1.384 . S
C241 C242 1.385 . S
C241 H243 0.950 . S
C242 C236 1.404 . S
C242 H240 0.949 . S
C242 C241 1.385 . S
H243 C241 0.950 . S
H244 C228 0.951 . S
H245 C230 0.951 . S
H246 C232 0.951 . S
H247 C233 0.950 . S
H248 C234 0.950 . S
H249 C235 0.950 . S
H250 C237 0.950 . S
H251 C238 0.951 . S
C252 C253 1.386 . S
C252 C254 1.383 . S
C252 H268 0.951 . S
C253 C252 1.386 . S
C253 C257 1.383 . S
C254 C252 1.383 . S
C254 C255 1.402 . S
C254 H269 0.951 . S
C255 C254 1.402 . S
C255 C256 1.375 . S
C255 C258 1.481 . S
C256 C255 1.375 . S
C256 C257 1.367 . S
C256 H270 0.951 . S
C257 C253 1.383 . S
C257 C256 1.367 . S
C257 H271 0.950 . S
C258 C255 1.481 . S
C258 C259 1.297 . S
C258 H272 0.950 . S
C259 C258 1.297 . S
C259 C260 1.479 . S
C259 H273 0.950 . S
C260 C259 1.479 . S
C260 C261 1.375 . S
C260 C266 1.404 . S
C261 C260 1.375 . S
C261 C262 1.369 . S
C261 H274 0.950 . S
C262 C261 1.369 . S
C262 C263 1.392 . S
C262 H275 0.951 . S
C263 C262 1.392 . S
C263 C265 1.384 . S
H264 C266 0.949 . S
C265 C263 1.384 . S
C265 C266 1.385 . S
C265 H267 0.950 . S
C266 C260 1.404 . S
C266 H264 0.949 . S
C266 C265 1.385 . S
H267 C265 0.950 . S
H268 C252 0.951 . S
H269 C254 0.951 . S
H270 C256 0.951 . S
H271 C257 0.950 . S
H272 C258 0.950 . S
H273 C259 0.950 . S
H274 C261 0.950 . S
H275 C262 0.951 . S
C276 C277 1.386 . S
C276 C278 1.383 . S
C276 H292 0.951 . S
C277 C276 1.386 . S
C277 C281 1.383 . S
C278 C276 1.383 . S
C278 C279 1.402 . S
C278 H293 0.951 . S
C279 C278 1.402 . S
C279 C280 1.375 . S
C279 C282 1.481 . S
C280 C279 1.375 . S
C280 C281 1.367 . S
C280 H294 0.951 . S
C281 C277 1.383 . S
C281 C280 1.367 . S
C281 H295 0.950 . S
C282 C279 1.481 . S
C282 C283 1.297 . S
C282 H296 0.950 . S
C283 C282 1.297 . S
C283 C284 1.479 . S
C283 H297 0.950 . S
C284 C283 1.479 . S
C284 C285 1.375 . S
C284 C290 1.404 . S
C285 C284 1.375 . S
C285 C286 1.369 . S
C285 H298 0.950 . S
C286 C285 1.369 . S
C286 C287 1.392 . S
C286 H299 0.951 . S
C287 C286 1.392 . S
C287 C289 1.384 . S
H288 C290 0.949 . S
C289 C287 1.384 . S
C289 C290 1.385 . S
C289 H291 0.950 . S
C290 C284 1.404 . S
C290 H288 0.949 . S
C290 C289 1.385 . S
H291 C289 0.950 . S
H292 C276 0.951 . S
H293 C278 0.951 . S
H294 C280 0.951 . S
H295 C281 0.950 . S
H296 C282 0.950 . S
H297 C283 0.950 . S
H298 C285 0.950 . S
H299 C286 0.951 . S
C300 C301 1.386 . S
C300 C302 1.383 . S
C300 H316 0.951 . S
C301 C300 1.386 . S
C301 C305 1.383 . S
C302 C300 1.383 . S
C302 C303 1.402 . S
C302 H317 0.951 . S
C303 C302 1.402 . S
C303 C304 1.375 . S
C303 C306 1.481 . S
C304 C303 1.375 . S
C304 C305 1.367 . S
C304 H318 0.951 . S
C305 C301 1.383 . S
C305 C304 1.367 . S
C305 H319 0.950 . S
C306 C303 1.481 . S
C306 C307 1.297 . S
C306 H320 0.950 . S
C307 C306 1.297 . S
C307 C308 1.479 . S
C307 H321 0.950 . S
C308 C307 1.479 . S
C308 C309 1.375 . S
C308 C314 1.404 . S
C309 C308 1.375 . S
C309 C310 1.369 . S
C309 H322 0.950 . S
C310 C309 1.369 . S
C310 C311 1.392 . S
C310 H323 0.951 . S
C311 C310 1.392 . S
C311 C313 1.384 . S
H312 C314 0.949 . S
C313 C311 1.384 . S
C313 C314 1.385 . S
C313 H315 0.950 . S
C314 C308 1.404 . S
C314 H312 0.949 . S
C314 C313 1.385 . S
H315 C313 0.950 . S
H316 C300 0.951 . S
H317 C302 0.951 . S
H318 C304 0.951 . S
H319 C305 0.950 . S
H320 C306 0.950 . S
H321 C307 0.950 . S
H322 C309 0.950 . S
H323 C310 0.951 . S
C324 C325 1.386 . S
C324 C326 1.383 . S
C324 H340 0.951 . S
C325 C324 1.386 . S
C325 C329 1.383 . S
C326 C324 1.383 . S
C326 C327 1.402 . S
C326 H341 0.951 . S
C327 C326 1.402 . S
C327 C328 1.375 . S
C327 C330 1.481 . S
C328 C327 1.375 . S
C328 C329 1.367 . S
C328 H342 0.951 . S
C329 C325 1.383 . S
C329 C328 1.367 . S
C329 H343 0.950 . S
C330 C327 1.481 . S
C330 C331 1.297 . S
C330 H344 0.950 . S
C331 C330 1.297 . S
C331 C332 1.479 . S
C331 H345 0.950 . S
C332 C331 1.479 . S
C332 C333 1.375 . S
C332 C338 1.404 . S
C333 C332 1.375 . S
C333 C334 1.369 . S
C333 H346 0.950 . S
C334 C333 1.369 . S
C334 C335 1.392 . S
C334 H347 0.951 . S
C335 C334 1.392 . S
C335 C337 1.384 . S
H336 C338 0.949 . S
C337 C335 1.384 . S
C337 C338 1.385 . S
C337 H339 0.950 . S
C338 C332 1.404 . S
C338 H336 0.949 . S
C338 C337 1.385 . S
H339 C337 0.950 . S
H340 C324 0.951 . S
H341 C326 0.951 . S
H342 C328 0.951 . S
H343 C329 0.950 . S
H344 C330 0.950 . S
H345 C331 0.950 . S
H346 C333 0.950 . S
H347 C334 0.951 . S
C348 C349 1.386 . S
C348 C350 1.383 . S
C348 H364 0.951 . S
C349 C348 1.386 . S
C349 C353 1.383 . S
C350 C348 1.383 . S
C350 C351 1.402 . S
C350 H365 0.951 . S
C351 C350 1.402 . S
C351 C352 1.375 . S
C351 C354 1.481 . S
C352 C351 1.375 . S
C352 C353 1.367 . S
C352 H366 0.951 . S
C353 C349 1.383 . S
C353 C352 1.367 . S
C353 H367 0.950 . S
C354 C351 1.481 . S
C354 C355 1.297 . S
C354 H368 0.950 . S
C355 C354 1.297 . S
C355 C356 1.479 . S
C355 H369 0.950 . S
C356 C355 1.479 . S
C356 C357 1.375 . S
C356 C362 1.404 . S
C357 C356 1.375 . S
C357 C358 1.369 . S
C357 H370 0.950 . S
C358 C357 1.369 . S
C358 C359 1.392 . S
C358 H371 0.951 . S
C359 C358 1.392 . S
C359 C361 1.384 . S
H360 C362 0.949 . S
C361 C359 1.384 . S
C361 C362 1.385 . S
C361 H363 0.950 . S
C362 C356 1.404 . S
C362 H360 0.949 . S
C362 C361 1.385 . S
H363 C361 0.950 . S
H364 C348 0.951 . S
H365 C350 0.951 . S
H366 C352 0.951 . S
H367 C353 0.950 . S
H368 C354 0.950 . S
H369 C355 0.950 . S
H370 C357 0.950 . S
H371 C358 0.951 . S
C372 C373 1.386 . S
C372 C374 1.383 . S
C372 H388 0.951 . S
C373 C372 1.386 . S
C373 C377 1.383 . S
C374 C372 1.383 . S
C374 C375 1.402 . S
C374 H389 0.951 . S
C375 C374 1.402 . S
C375 C376 1.375 . S
C375 C378 1.481 . S
C376 C375 1.375 . S
C376 C377 1.367 . S
C376 H390 0.951 . S
C377 C373 1.383 . S
C377 C376 1.367 . S
C377 H391 0.950 . S
C378 C375 1.481 . S
C378 C379 1.297 . S
C378 H392 0.950 . S
C379 C378 1.297 . S
C379 C380 1.479 . S
C379 H393 0.950 . S
C380 C379 1.479 . S
C380 C381 1.375 . S
C380 C386 1.404 . S
C381 C380 1.375 . S
C381 C382 1.369 . S
C381 H394 0.950 . S
C382 C381 1.369 . S
C382 C383 1.392 . S
C382 H395 0.951 . S
C383 C382 1.392 . S
C383 C385 1.384 . S
H384 C386 0.949 . S
C385 C383 1.384 . S
C385 C386 1.385 . S
C385 H387 0.950 . S
C386 C380 1.404 . S
C386 H384 0.949 . S
C386 C385 1.385 . S
H387 C385 0.950 . S
H388 C372 0.951 . S
H389 C374 0.951 . S
H390 C376 0.951 . S
H391 C377 0.950 . S
H392 C378 0.950 . S
H393 C379 0.950 . S
H394 C381 0.950 . S
H395 C382 0.951 . S
C396 C397 1.386 . S
C396 C398 1.383 . S
C396 H412 0.951 . S
C397 C396 1.386 . S
C397 C401 1.383 . S
C398 C396 1.383 . S
C398 C399 1.402 . S
C398 H413 0.951 . S
C399 C398 1.402 . S
C399 C400 1.375 . S
C399 C402 1.481 . S
C400 C399 1.375 . S
C400 C401 1.367 . S
C400 H414 0.951 . S
C401 C397 1.383 . S
C401 C400 1.367 . S
C401 H415 0.950 . S
C402 C399 1.481 . S
C402 C403 1.297 . S
C402 H416 0.950 . S
C403 C402 1.297 . S
C403 C404 1.479 . S
C403 H417 0.950 . S
C404 C403 1.479 . S
C404 C405 1.375 . S
C404 C410 1.404 . S
C405 C404 1.375 . S
C405 C406 1.369 . S
C405 H418 0.950 . S
C406 C405 1.369 . S
C406 C407 1.392 . S
C406 H419 0.951 . S
C407 C406 1.392 . S
C407 C409 1.384 . S
H408 C410 0.949 . S
C409 C407 1.384 . S
C409 C410 1.385 . S
C409 H411 0.950 . S
C410 C404 1.404 . S
C410 H408 0.949 . S
C410 C409 1.385 . S
H411 C409 0.950 . S
H412 C396 0.951 . S
H413 C398 0.951 . S
H414 C400 0.951 . S
H415 C401 0.950 . S
H416 C402 0.950 . S
H417 C403 0.950 . S
H418 C405 0.950 . S
H419 C406 0.951 . S
C420 C421 1.386 . S
C420 C422 1.383 . S
C420 H436 0.951 . S
C421 C420 1.386 . S
C421 C425 1.383 . S
C422 C420 1.383 . S
C422 C423 1.402 . S
C422 H437 0.951 . S
C423 C422 1.402 . S
C423 C424 1.375 . S
C423 C426 1.481 . S
C424 C423 1.375 . S
C424 C425 1.367 . S
C424 H438 0.951 . S
C425 C421 1.383 . S
C425 C424 1.367 . S
C425 H439 0.950 . S
C426 C423 1.481 . S
C426 C427 1.297 1_554 S
C426 H440 0.950 . S
C427 C426 1.297 1_556 S
C427 C428 1.479 . S
C427 H441 0.950 1_556 S
C428 C427 1.479 . S
C428 C429 1.375 . S
C428 C434 1.404 . S
C429 C428 1.375 . S
C429 C430 1.369 . S
C429 H442 0.950 . S
C430 C429 1.369 . S
C430 C431 1.392 . S
C430 H443 0.951 . S
C431 C430 1.392 . S
C431 C433 1.384 . S
H432 C434 0.949 . S
C433 C431 1.384 . S
C433 C434 1.385 . S
C433 H435 0.950 . S
C434 C428 1.404 . S
C434 H432 0.949 . S
C434 C433 1.385 . S
H435 C433 0.950 . S
H436 C420 0.951 . S
H437 C422 0.951 . S
H438 C424 0.951 . S
H439 C425 0.950 . S
H440 C426 0.950 . S
H441 C427 0.950 1_554 S
H442 C429 0.950 . S
H443 C430 0.951 . S
C444 C445 1.386 . S
C444 C446 1.383 . S
C444 H460 0.951 . S
C445 C444 1.386 . S
C445 C449 1.383 . S
C446 C444 1.383 . S
C446 C447 1.402 . S
C446 H461 0.951 . S
C447 C446 1.402 . S
C447 C448 1.375 . S
C447 C450 1.481 . S
C448 C447 1.375 . S
C448 C449 1.367 . S
C448 H462 0.951 1_455 S
C449 C445 1.383 . S
C449 C448 1.367 . S
C449 H463 0.950 . S
C450 C447 1.481 . S
C450 C451 1.297 . S
C450 H464 0.950 1_455 S
C451 C450 1.297 . S
C451 C452 1.479 1_455 S
C451 H465 0.950 . S
C452 C451 1.479 1_655 S
C452 C453 1.375 1_655 S
C452 C458 1.404 . S
C453 C452 1.375 1_455 S
C453 C454 1.369 1_455 S
C453 H466 0.950 . S
C454 C453 1.369 1_655 S
C454 C455 1.392 . S
C454 H467 0.951 . S
C455 C454 1.392 . S
C455 C457 1.384 . S
H456 C458 0.949 . S
C457 C455 1.384 . S
C457 C458 1.385 . S
C457 H459 0.950 . S
C458 C452 1.404 . S
C458 H456 0.949 . S
C458 C457 1.385 . S
H459 C457 0.950 . S
H460 C444 0.951 . S
H461 C446 0.951 . S
H462 C448 0.951 1_655 S
H463 C449 0.950 . S
H464 C450 0.950 1_655 S
H465 C451 0.950 . S
H466 C453 0.950 . S
H467 C454 0.951 . S
C468 C469 1.386 . S
C468 C470 1.383 . S
C468 H484 0.951 . S
C469 C468 1.386 . S
C469 C473 1.383 . S
C470 C468 1.383 . S
C470 C471 1.402 . S
C470 H485 0.951 . S
C471 C470 1.402 . S
C471 C472 1.375 1_545 S
C471 C474 1.481 1_545 S
C472 C471 1.375 1_565 S
C472 C473 1.367 1_565 S
C472 H486 0.951 . S
C473 C469 1.383 . S
C473 C472 1.367 1_545 S
C473 H487 0.950 1_545 S
C474 C471 1.481 1_565 S
C474 C475 1.297 1_556 S
C474 H488 0.950 . S
C475 C474 1.297 1_554 S
C475 C476 1.479 . S
C475 H489 0.950 1_565 S
C476 C475 1.479 . S
C476 C477 1.351 1_565 S
C476 C482 1.404 . S
C477 C476 1.351 1_545 S
C477 C478 1.353 1_545 S
C477 H490 0.991 . S
C478 C477 1.353 1_565 S
C478 C479 1.392 . S
C478 H491 0.951 1_565 S
C479 C478 1.392 . S
C479 C481 1.384 . S
H480 C482 0.949 . S
C481 C479 1.384 . S
C481 C482 1.385 . S
C481 H483 0.950 . S
C482 C476 1.404 . S
C482 H480 0.949 . S
C482 C481 1.385 . S
H483 C481 0.950 . S
H484 C468 0.951 . S
H485 C470 0.951 . S
H486 C472 0.951 . S
H487 C473 0.950 1_565 S
H488 C474 0.950 . S
H489 C475 0.950 1_545 S
H490 C477 0.991 . S
H491 C478 0.951 1_545 S
C492 C493 1.386 . S
C492 C494 1.383 . S
C492 H508 0.951 . S
C493 C492 1.386 . S
C493 C497 1.383 . S
C494 C492 1.383 . S
C494 C495 1.402 . S
C494 H509 0.951 . S
C495 C494 1.402 . S
C495 C496 1.375 . S
C495 C498 1.481 . S
C496 C495 1.375 . S
C496 C497 1.367 . S
C496 H510 0.951 . S
C497 C493 1.383 . S
C497 C496 1.367 . S
C497 H511 0.950 . S
C498 C495 1.481 . S
C498 C499 1.297 . S
C498 H512 0.950 . S
C499 C498 1.297 . S
C499 C500 1.479 . S
C499 H513 0.950 . S
C500 C499 1.479 . S
C500 C501 1.375 . S
C500 C506 1.404 . S
C501 C500 1.375 . S
C501 C502 1.369 . S
C501 H514 0.950 . S
C502 C501 1.369 . S
C502 C503 1.392 . S
C502 H515 0.951 . S
C503 C502 1.392 . S
C503 C505 1.384 . S
H504 C506 0.949 . S
C505 C503 1.384 . S
C505 C506 1.385 . S
C505 H507 0.950 . S
C506 C500 1.404 . S
C506 H504 0.949 . S
C506 C505 1.385 . S
H507 C505 0.950 . S
H508 C492 0.951 . S
H509 C494 0.951 . S
H510 C496 0.951 . S
H511 C497 0.950 . S
H512 C498 0.950 . S
H513 C499 0.950 . S
H514 C501 0.950 . S
H515 C502 0.951 . S
C516 C517 1.386 . S
C516 C518 1.383 . S
C516 H532 0.951 . S
C517 C516 1.386 . S
C517 C521 1.383 . S
C518 C516 1.383 . S
C518 C519 1.402 . S
C518 H533 0.951 1_455 S
C519 C518 1.402 . S
C519 C520 1.375 . S
C519 C522 1.481 . S
C520 C519 1.375 . S
C520 C521 1.367 . S
C520 H534 0.951 . S
C521 C517 1.383 . S
C521 C520 1.367 . S
C521 H535 0.950 . S
C522 C519 1.481 . S
C522 C523 1.297 1_454 S
C522 H536 0.950 1_554 S
C523 C522 1.297 1_656 S
C523 C524 1.479 . S
C523 H537 0.950 1_556 S
C524 C523 1.479 . S
C524 C525 1.375 . S
C524 C530 1.404 . S
C525 C524 1.375 . S
C525 C526 1.369 . S
C525 H538 0.950 . S
C526 C525 1.369 . S
C526 C527 1.392 . S
C526 H539 0.951 . S
C527 C526 1.392 . S
C527 C529 1.384 . S
H528 C530 0.949 . S
C529 C527 1.384 . S
C529 C530 1.385 . S
C529 H531 0.950 . S
C530 C524 1.404 . S
C530 H528 0.949 . S
C530 C529 1.385 . S
H531 C529 0.950 . S
H532 C516 0.951 . S
H533 C518 0.951 1_655 S
H534 C520 0.951 . S
H535 C521 0.950 . S
H536 C522 0.950 1_556 S
H537 C523 0.950 1_554 S
H538 C525 0.950 . S
H539 C526 0.951 . S
C540 C541 1.386 . S
C540 C542 1.383 . S
C540 H556 0.951 . S
C541 C540 1.386 . S
C541 C545 1.383 . S
C542 C540 1.383 . S
C542 C543 1.402 . S
C542 H557 0.951 . S
C543 C542 1.402 . S
C543 C544 1.375 . S
C543 C546 1.481 1_565 S
C544 C543 1.375 . S
C544 C545 1.367 . S
C544 H558 0.951 1_565 S
C545 C541 1.383 . S
C545 C544 1.367 . S
C545 H559 0.950 . S
C546 C543 1.481 1_545 S
C546 C547 1.297 . S
C546 H560 0.950 . S
C547 C546 1.297 . S
C547 C548 1.479 . S
C547 H561 0.950 . S
C548 C547 1.479 . S
C548 C549 1.375 . S
C548 C554 1.404 . S
C549 C548 1.375 . S
C549 C550 1.369 . S
C549 H562 0.950 . S
C550 C549 1.369 . S
C550 C551 1.392 . S
C550 H563 0.951 . S
C551 C550 1.392 . S
C551 C553 1.384 . S
H552 C554 0.949 . S
C553 C551 1.384 . S
C553 C554 1.385 . S
C553 H555 0.950 . S
C554 C548 1.404 . S
C554 H552 0.949 . S
C554 C553 1.385 . S
H555 C553 0.950 . S
H556 C540 0.951 . S
H557 C542 0.951 . S
H558 C544 0.951 1_545 S
H559 C545 0.950 . S
H560 C546 0.950 . S
H561 C547 0.950 . S
H562 C549 0.950 . S
H563 C550 0.951 . S
C133 C5 1.454 . S
C143 C115 1.432 . S
C157 C126 1.361 . S
C167 C16 1.375 . S
C181 C71 1.362 . S
C191 C27 1.371 . S
C205 C38 1.452 . S
C215 C82 1.453 . S
C229 C93 1.409 . S
C239 C49 1.331 . S
C253 C104 1.454 . S
C263 C60 1.434 . S
C277 C7 1.550 . S
C287 C73 1.553 . S
C301 C18 1.529 . S
C311 C84 1.529 . S
C325 C29 1.541 . S
C335 C95 1.533 . S
C349 C106 1.512 . S
C359 C40 1.497 . S
C373 C51 1.526 . S
C383 C117 1.524 . S
C397 C62 1.511 . S
C407 C128 1.495 . S
C421 C8 1.577 . S
C431 C107 1.574 . S
C445 C118 1.577 . S
C455 C19 1.565 . S
C469 C129 1.575 . S
C479 C30 1.569 . S
C493 C41 1.577 . S
C503 C74 1.573 . S
C517 C52 1.580 . S
C527 C85 1.576 . S
C541 C96 1.577 . S
C551 C63 1.573 . S
