# Generated by pormake.
# Topology pcu-i, (5)-cn, num edge types: 1
# Building blocks:
#     Node 0, Type 0, BuildingBlock: XOMCOT_clean_sbu_1, # of connection points: 5
#     Node 1, Type 0, BuildingBlock: XOMCOT_clean_sbu_1, # of connection points: 5
#     Node 2, Type 0, BuildingBlock: XOMCOT_clean_sbu_1, # of connection points: 5
#     Node 3, Type 0, BuildingBlock: XOMCOT_clean_sbu_1, # of connection points: 5
#     Node 4, Type 0, BuildingBlock: XOMCOT_clean_sbu_1, # of connection points: 5
#     Node 5, Type 0, BuildingBlock: XOMCOT_clean_sbu_1, # of connection points: 5
#     Node 6, Type 0, BuildingBlock: XOMCOT_clean_sbu_1, # of connection points: 5
#     Node 7, Type 0, BuildingBlock: XOMCOT_clean_sbu_1, # of connection points: 5
#     Node 8, Type 0, BuildingBlock: XOMCOT_clean_sbu_1, # of connection points: 5
#     Node 9, Type 0, BuildingBlock: XOMCOT_clean_sbu_1, # of connection points: 5
#     Node 10, Type 0, BuildingBlock: XOMCOT_clean_sbu_1, # of connection points: 5
#     Node 11, Type 0, BuildingBlock: XOMCOT_clean_sbu_1, # of connection points: 5
#     Node 12, Type 0, BuildingBlock: XOMCOT_clean_sbu_1, # of connection points: 5
#     Node 13, Type 0, BuildingBlock: XOMCOT_clean_sbu_1, # of connection points: 5
#     Node 14, Type 0, BuildingBlock: XOMCOT_clean_sbu_1, # of connection points: 5
#     Node 15, Type 0, BuildingBlock: XOMCOT_clean_sbu_1, # of connection points: 5
#     Node 16, Type 0, BuildingBlock: XOMCOT_clean_sbu_1, # of connection points: 5
#     Node 17, Type 0, BuildingBlock: XOMCOT_clean_sbu_1, # of connection points: 5
#     Node 18, Type 0, BuildingBlock: XOMCOT_clean_sbu_1, # of connection points: 5
#     Node 19, Type 0, BuildingBlock: XOMCOT_clean_sbu_1, # of connection points: 5
#     Node 20, Type 0, BuildingBlock: XOMCOT_clean_sbu_1, # of connection points: 5
#     Node 21, Type 0, BuildingBlock: XOMCOT_clean_sbu_1, # of connection points: 5
#     Node 22, Type 0, BuildingBlock: XOMCOT_clean_sbu_1, # of connection points: 5
#     Node 23, Type 0, BuildingBlock: XOMCOT_clean_sbu_1, # of connection points: 5
#     Edge 24, Type (0, 0), BuildingBlock: EZIPEK_clean_linker_0, # of connection points: 2
#     Edge 25, Type (0, 0), BuildingBlock: EZIPEK_clean_linker_0, # of connection points: 2
#     Edge 26, Type (0, 0), BuildingBlock: EZIPEK_clean_linker_0, # of connection points: 2
#     Edge 27, Type (0, 0), BuildingBlock: EZIPEK_clean_linker_0, # of connection points: 2
#     Edge 28, Type (0, 0), BuildingBlock: EZIPEK_clean_linker_0, # of connection points: 2
#     Edge 29, Type (0, 0), BuildingBlock: EZIPEK_clean_linker_0, # of connection points: 2
#     Edge 30, Type (0, 0), BuildingBlock: EZIPEK_clean_linker_0, # of connection points: 2
#     Edge 31, Type (0, 0), BuildingBlock: EZIPEK_clean_linker_0, # of connection points: 2
#     Edge 32, Type (0, 0), BuildingBlock: EZIPEK_clean_linker_0, # of connection points: 2
#     Edge 33, Type (0, 0), BuildingBlock: EZIPEK_clean_linker_0, # of connection points: 2
#     Edge 34, Type (0, 0), BuildingBlock: EZIPEK_clean_linker_0, # of connection points: 2
#     Edge 35, Type (0, 0), BuildingBlock: EZIPEK_clean_linker_0, # of connection points: 2
#     Edge 36, Type (0, 0), BuildingBlock: EZIPEK_clean_linker_0, # of connection points: 2
#     Edge 37, Type (0, 0), BuildingBlock: EZIPEK_clean_linker_0, # of connection points: 2
#     Edge 38, Type (0, 0), BuildingBlock: EZIPEK_clean_linker_0, # of connection points: 2
#     Edge 39, Type (0, 0), BuildingBlock: EZIPEK_clean_linker_0, # of connection points: 2
#     Edge 40, Type (0, 0), BuildingBlock: EZIPEK_clean_linker_0, # of connection points: 2
#     Edge 41, Type (0, 0), BuildingBlock: EZIPEK_clean_linker_0, # of connection points: 2
#     Edge 42, Type (0, 0), BuildingBlock: EZIPEK_clean_linker_0, # of connection points: 2
#     Edge 43, Type (0, 0), BuildingBlock: EZIPEK_clean_linker_0, # of connection points: 2
#     Edge 44, Type (0, 0), BuildingBlock: EZIPEK_clean_linker_0, # of connection points: 2
#     Edge 45, Type (0, 0), BuildingBlock: EZIPEK_clean_linker_0, # of connection points: 2
#     Edge 46, Type (0, 0), BuildingBlock: EZIPEK_clean_linker_0, # of connection points: 2
#     Edge 47, Type (0, 0), BuildingBlock: EZIPEK_clean_linker_0, # of connection points: 2
#     Edge 48, Type (0, 0), BuildingBlock: EZIPEK_clean_linker_0, # of connection points: 2
#     Edge 49, Type (0, 0), BuildingBlock: EZIPEK_clean_linker_0, # of connection points: 2
#     Edge 50, Type (0, 0), BuildingBlock: EZIPEK_clean_linker_0, # of connection points: 2
#     Edge 51, Type (0, 0), BuildingBlock: EZIPEK_clean_linker_0, # of connection points: 2
#     Edge 52, Type (0, 0), BuildingBlock: EZIPEK_clean_linker_0, # of connection points: 2
#     Edge 53, Type (0, 0), BuildingBlock: EZIPEK_clean_linker_0, # of connection points: 2
#     Edge 54, Type (0, 0), BuildingBlock: EZIPEK_clean_linker_0, # of connection points: 2
#     Edge 55, Type (0, 0), BuildingBlock: EZIPEK_clean_linker_0, # of connection points: 2
#     Edge 56, Type (0, 0), BuildingBlock: EZIPEK_clean_linker_0, # of connection points: 2
#     Edge 57, Type (0, 0), BuildingBlock: EZIPEK_clean_linker_0, # of connection points: 2
#     Edge 58, Type (0, 0), BuildingBlock: EZIPEK_clean_linker_0, # of connection points: 2
#     Edge 59, Type (0, 0), BuildingBlock: EZIPEK_clean_linker_0, # of connection points: 2
#     Edge 60, Type (0, 0), BuildingBlock: EZIPEK_clean_linker_0, # of connection points: 2
#     Edge 61, Type (0, 0), BuildingBlock: EZIPEK_clean_linker_0, # of connection points: 2
#     Edge 62, Type (0, 0), BuildingBlock: EZIPEK_clean_linker_0, # of connection points: 2
#     Edge 63, Type (0, 0), BuildingBlock: EZIPEK_clean_linker_0, # of connection points: 2
#     Edge 64, Type (0, 0), BuildingBlock: EZIPEK_clean_linker_0, # of connection points: 2
#     Edge 65, Type (0, 0), BuildingBlock: EZIPEK_clean_linker_0, # of connection points: 2
#     Edge 66, Type (0, 0), BuildingBlock: EZIPEK_clean_linker_0, # of connection points: 2
#     Edge 67, Type (0, 0), BuildingBlock: EZIPEK_clean_linker_0, # of connection points: 2
#     Edge 68, Type (0, 0), BuildingBlock: EZIPEK_clean_linker_0, # of connection points: 2
#     Edge 69, Type (0, 0), BuildingBlock: EZIPEK_clean_linker_0, # of connection points: 2
#     Edge 70, Type (0, 0), BuildingBlock: EZIPEK_clean_linker_0, # of connection points: 2
#     Edge 71, Type (0, 0), BuildingBlock: EZIPEK_clean_linker_0, # of connection points: 2
#     Edge 72, Type (0, 0), BuildingBlock: EZIPEK_clean_linker_0, # of connection points: 2
#     Edge 73, Type (0, 0), BuildingBlock: EZIPEK_clean_linker_0, # of connection points: 2
#     Edge 74, Type (0, 0), BuildingBlock: EZIPEK_clean_linker_0, # of connection points: 2
#     Edge 75, Type (0, 0), BuildingBlock: EZIPEK_clean_linker_0, # of connection points: 2
#     Edge 76, Type (0, 0), BuildingBlock: EZIPEK_clean_linker_0, # of connection points: 2
#     Edge 77, Type (0, 0), BuildingBlock: EZIPEK_clean_linker_0, # of connection points: 2
#     Edge 78, Type (0, 0), BuildingBlock: EZIPEK_clean_linker_0, # of connection points: 2
#     Edge 79, Type (0, 0), BuildingBlock: EZIPEK_clean_linker_0, # of connection points: 2
#     Edge 80, Type (0, 0), BuildingBlock: EZIPEK_clean_linker_0, # of connection points: 2
#     Edge 81, Type (0, 0), BuildingBlock: EZIPEK_clean_linker_0, # of connection points: 2
#     Edge 82, Type (0, 0), BuildingBlock: EZIPEK_clean_linker_0, # of connection points: 2
#     Edge 83, Type (0, 0), BuildingBlock: EZIPEK_clean_linker_0, # of connection points: 2
# Relax obj value: 0.246
# Max RMSD: 0.244
# Mean RMSD: 0.244
data_MOF--net-pcu-i--node1-XOMCOT_clean_sbu_1--edge1-EZIPEK_clean_linker_0
_symmetry_space_group_name_H-M    P1
_symmetry_Int_Tables_number       1
_symmetry_cell_setting            triclinic
loop_
_symmetry_equiv_pos_as_xyz
'x, y, z'
_cell_length_a     43.593
_cell_length_b     43.55853
_cell_length_c     43.613524
_cell_angle_alpha  89.904238
_cell_angle_beta   89.957912
_cell_angle_gamma 90.048274
loop_
_atom_site_label
_atom_site_type_symbol
_atom_site_fract_x
_atom_site_fract_y
_atom_site_fract_z
_atom_type_partial_charge
C0 C 0.07621 0.15176 0.36944 0.0
C1 C 0.04503 0.15101 0.3651 0.0
N2 N 0.03975 0.14206 0.33619 0.0
N3 N 0.09069 0.14301 0.34334 0.0
C4 C 0.06746 0.13763 0.32339 0.0
H5 H 0.0871 0.15814 0.39068 0.0
Co6 Co 0.13324 0.13681 0.33538 0.0
C7 C 0.11731 0.08513 0.3125 0.0
O8 O 0.11653 0.08254 0.3425 0.0
N9 N 0.17503 0.1301 0.32675 0.0
C10 C 0.2245 0.11704 0.32799 0.0
C11 C 0.19879 0.12321 0.34545 0.0
C12 C 0.1869 0.12773 0.29821 0.0
N13 N 0.21672 0.11961 0.29827 0.0
O14 O 0.13384 0.17376 0.30935 0.0
H15 H 0.19761 0.122 0.37016 0.0
H16 H 0.17383 0.13135 0.27752 0.0
O17 O 0.12335 0.11131 0.30092 0.0
C18 C 0.11832 0.19873 0.30907 0.0
O19 O 0.101 0.20502 0.33286 0.0
N20 N 0.14362 0.15731 0.37163 0.0
C21 C 0.15208 0.17303 0.43293 0.0
C22 C 0.14581 0.1428 0.42457 0.0
C23 C 0.14206 0.13542 0.39394 0.0
C24 C 0.15145 0.18682 0.37877 0.0
C25 C 0.15567 0.19528 0.40971 0.0
H26 H 0.13675 0.11201 0.38787 0.0
H27 H 0.15427 0.20383 0.36096 0.0
H28 H 0.07049 0.1299 0.30005 0.0
H29 H 0.02752 0.15573 0.38207 0.0
H30 H 0.24699 0.11072 0.33639 0.0
H31 H 0.14345 0.12494 0.44175 0.0
H32 H 0.16137 0.21877 0.41548 0.0
C33 C 0.83162 0.0629 0.35582 0.0
C34 C 0.83774 0.03237 0.35954 0.0
N35 N 0.86122 0.02414 0.34087 0.0
N36 N 0.85048 0.07428 0.33435 0.0
C37 C 0.86729 0.05015 0.32475 0.0
H38 H 0.81368 0.07573 0.36714 0.0
Co39 Co 0.84994 0.1143 0.32051 0.0
C40 C 0.9148 0.13252 0.31493 0.0
O41 O 0.90722 0.15946 0.32609 0.0
N42 N 0.84853 0.15488 0.30551 0.0
C43 C 0.83909 0.20423 0.29553 0.0
C44 C 0.83544 0.18084 0.31648 0.0
C45 C 0.85954 0.16316 0.27768 0.0
N46 N 0.85421 0.19284 0.2713 0.0
O47 O 0.84047 0.10018 0.28041 0.0
H48 H 0.82343 0.18311 0.33793 0.0
H49 H 0.87134 0.14772 0.26228 0.0
O50 O 0.89416 0.11198 0.31122 0.0
C51 C 0.8121 0.09438 0.2773 0.0
O52 O 0.79434 0.09743 0.30148 0.0
N53 N 0.85676 0.12738 0.36122 0.0
C54 C 0.85743 0.13675 0.4244 0.0
C55 C 0.88333 0.12533 0.40943 0.0
C56 C 0.88234 0.12029 0.37792 0.0
C57 C 0.83104 0.13763 0.37582 0.0
C58 C 0.83107 0.14322 0.40734 0.0
H59 H 0.90149 0.10884 0.36768 0.0
H60 H 0.80983 0.13991 0.36319 0.0
H61 H 0.88216 0.05172 0.30506 0.0
H62 H 0.82412 0.01722 0.37371 0.0
H63 H 0.83099 0.22762 0.29766 0.0
H64 H 0.90369 0.11911 0.42224 0.0
H65 H 0.81034 0.15114 0.41851 0.0
C66 C 0.92795 0.81571 0.35856 0.0
C67 C 0.95888 0.81912 0.35316 0.0
N68 N 0.96237 0.83928 0.33003 0.0
N69 N 0.9123 0.83378 0.33891 0.0
C70 C 0.93392 0.84766 0.32157 0.0
H71 H 0.91753 0.80081 0.37546 0.0
Co72 Co 0.87023 0.83742 0.33535 0.0
C73 C 0.8707 0.89972 0.30322 0.0
O74 O 0.86189 0.89167 0.27561 0.0
N75 N 0.82716 0.84172 0.33054 0.0
C76 C 0.77653 0.84882 0.33501 0.0
C77 C 0.80349 0.84327 0.35068 0.0
C78 C 0.81366 0.84628 0.30292 0.0
N79 N 0.78332 0.85074 0.30504 0.0
O80 O 0.87294 0.82321 0.29449 0.0
H81 H 0.8053 0.84136 0.37526 0.0
H82 H 0.82558 0.84649 0.28122 0.0
O83 O 0.87435 0.87971 0.32415 0.0
C84 C 0.87139 0.79404 0.29542 0.0
O85 O 0.87222 0.78019 0.3222 0.0
N86 N 0.86822 0.84848 0.37676 0.0
C87 C 0.86835 0.85689 0.43988 0.0
C88 C 0.87917 0.88006 0.42043 0.0
C89 C 0.87926 0.87527 0.38881 0.0
C90 C 0.85884 0.82528 0.39557 0.0
C91 C 0.85823 0.82917 0.42729 0.0
H92 H 0.88912 0.89284 0.3744 0.0
H93 H 0.85167 0.80365 0.38573 0.0
H94 H 0.92901 0.86328 0.3029 0.0
H95 H 0.97739 0.80756 0.365 0.0
H96 H 0.75381 0.85121 0.34474 0.0
H97 H 0.88779 0.90146 0.42967 0.0
H98 H 0.85021 0.81068 0.44188 0.0
C99 C 0.16052 0.93408 0.35153 0.0
C100 C 0.15544 0.9648 0.34604 0.0
N101 N 0.13898 0.96722 0.32009 0.0
N102 N 0.147 0.91752 0.32918 0.0
C103 C 0.13426 0.9384 0.3102 0.0
H104 H 0.17367 0.92446 0.37024 0.0
Co105 Co 0.1488 0.87557 0.32292 0.0
C106 C 0.08525 0.85611 0.31319 0.0
O107 O 0.09153 0.83289 0.33141 0.0
N108 N 0.15088 0.83289 0.31484 0.0
C109 C 0.15555 0.78186 0.31298 0.0
C110 C 0.16063 0.80781 0.33043 0.0
C111 C 0.1408 0.82144 0.28784 0.0
N112 N 0.14275 0.79067 0.28637 0.0
O113 O 0.16634 0.88311 0.28344 0.0
H114 H 0.17065 0.80775 0.353 0.0
H115 H 0.13168 0.83549 0.2695 0.0
O116 O 0.10611 0.87599 0.30702 0.0
C117 C 0.1948 0.88824 0.28805 0.0
O118 O 0.20484 0.88668 0.31643 0.0
N119 N 0.13534 0.86954 0.36348 0.0
C120 C 0.12629 0.86959 0.42668 0.0
C121 C 0.10365 0.88113 0.40708 0.0
C122 C 0.10887 0.88141 0.37547 0.0
C123 C 0.158 0.85954 0.38253 0.0
C124 C 0.15368 0.8586 0.41417 0.0
H125 H 0.09245 0.89288 0.361 0.0
H126 H 0.18028 0.85395 0.37324 0.0
H127 H 0.12228 0.93268 0.28925 0.0
H128 H 0.16342 0.9839 0.35975 0.0
H129 H 0.1607 0.75839 0.31933 0.0
H130 H 0.08276 0.89097 0.41625 0.0
H131 H 0.17211 0.85072 0.42886 0.0
C132 C 0.06054 0.83646 0.64213 0.0
C133 C 0.02982 0.8413 0.64744 0.0
N134 N 0.02723 0.86236 0.66978 0.0
N135 N 0.07703 0.85458 0.66098 0.0
C136 C 0.05606 0.87 0.67778 0.0
H137 H 0.07025 0.82026 0.62608 0.0
Co138 Co 0.11921 0.8548 0.6647 0.0
C139 C 0.13702 0.92017 0.66966 0.0
O140 O 0.16075 0.91346 0.65237 0.0
N141 N 0.16228 0.85442 0.66958 0.0
C142 C 0.21256 0.84505 0.6684 0.0
C143 C 0.18556 0.84354 0.65211 0.0
C144 C 0.17598 0.86264 0.69613 0.0
N145 N 0.20622 0.85673 0.69616 0.0
O146 O 0.11488 0.83997 0.70633 0.0
H147 H 0.18347 0.83366 0.62961 0.0
H148 H 0.16373 0.87167 0.71572 0.0
O149 O 0.11804 0.89892 0.6773 0.0
C150 C 0.11727 0.81071 0.70544 0.0
O151 O 0.12218 0.79753 0.67882 0.0
N152 N 0.12219 0.86493 0.62276 0.0
C153 C 0.12098 0.86942 0.55905 0.0
C154 C 0.11107 0.89395 0.57719 0.0
C155 C 0.11135 0.89102 0.6091 0.0
C156 C 0.12995 0.84027 0.60519 0.0
C157 C 0.13029 0.84223 0.5733 0.0
H158 H 0.10156 0.90916 0.62246 0.0
H159 H 0.13516 0.81858 0.61608 0.0
H160 H 0.06171 0.88581 0.69605 0.0
H161 H 0.01082 0.82985 0.63629 0.0
H162 H 0.23474 0.83651 0.6612 0.0
H163 H 0.10257 0.91485 0.56674 0.0
H164 H 0.13703 0.82246 0.55984 0.0
C165 C 0.17209 0.08458 0.62793 0.0
C166 C 0.16765 0.05315 0.62793 0.0
N167 N 0.14928 0.04598 0.65172 0.0
N168 N 0.15647 0.0969 0.65161 0.0
C169 C 0.14292 0.07274 0.66568 0.0
H170 H 0.18668 0.09742 0.61245 0.0
Co171 Co 0.15638 0.13674 0.66695 0.0
C172 C 0.0912 0.15202 0.67236 0.0
O173 O 0.0982 0.17914 0.66114 0.0
N174 N 0.15582 0.17672 0.68475 0.0
C175 C 0.16053 0.2257 0.69901 0.0
C176 C 0.16653 0.20466 0.67621 0.0
C177 C 0.1439 0.18158 0.71307 0.0
N178 N 0.14636 0.21099 0.7221 0.0
O179 O 0.1695 0.12048 0.70558 0.0
H180 H 0.17797 0.21007 0.65499 0.0
H181 H 0.13316 0.16384 0.72678 0.0
O182 O 0.11237 0.13215 0.67674 0.0
C183 C 0.19837 0.12545 0.70519 0.0
O184 O 0.20963 0.1412 0.68201 0.0
N185 N 0.14847 0.15208 0.62701 0.0
C186 C 0.15012 0.16762 0.56468 0.0
C187 C 0.12474 0.15212 0.57715 0.0
C188 C 0.12449 0.14426 0.60836 0.0
C189 C 0.17363 0.16614 0.61477 0.0
C190 C 0.17445 0.17525 0.58411 0.0
H191 H 0.10593 0.13035 0.6169 0.0
H192 H 0.19399 0.16904 0.62857 0.0
H193 H 0.1298 0.07451 0.68668 0.0
H194 H 0.17804 0.03672 0.6125 0.0
H195 H 0.16581 0.24999 0.69857 0.0
H196 H 0.10593 0.14499 0.56258 0.0
H197 H 0.19483 0.18634 0.57513 0.0
C198 C 0.9285 0.18177 0.62812 0.0
C199 C 0.95972 0.17773 0.63021 0.0
N200 N 0.9654 0.16055 0.65518 0.0
N201 N 0.91473 0.16698 0.65162 0.0
C202 C 0.93791 0.15441 0.66789 0.0
H203 H 0.91666 0.19503 0.61082 0.0
Co204 Co 0.87299 0.16577 0.66027 0.0
C205 C 0.85916 0.10083 0.67172 0.0
O206 O 0.83395 0.10469 0.65572 0.0
N207 N 0.83061 0.1647 0.67021 0.0
C208 C 0.77949 0.16694 0.67263 0.0
C209 C 0.80482 0.17172 0.65434 0.0
C210 C 0.82009 0.15615 0.69821 0.0
N211 N 0.78932 0.15697 0.70001 0.0
O212 O 0.8806 0.18268 0.69983 0.0
H213 H 0.8038 0.18 0.6311 0.0
H214 H 0.83475 0.1494 0.71705 0.0
O215 O 0.87765 0.12331 0.67558 0.0
C216 C 0.88369 0.21164 0.69686 0.0
O217 O 0.88498 0.22337 0.66911 0.0
N218 N 0.86576 0.15307 0.61981 0.0
C219 C 0.86119 0.14635 0.55656 0.0
C220 C 0.87359 0.12278 0.57454 0.0
C221 C 0.87615 0.12681 0.60621 0.0
C222 C 0.85499 0.17662 0.60226 0.0
C223 C 0.85167 0.17348 0.57069 0.0
H224 H 0.8879 0.10956 0.61929 0.0
H225 H 0.84986 0.19846 0.61284 0.0
H226 H 0.9348 0.14151 0.6889 0.0
H227 H 0.977 0.18714 0.61501 0.0
H228 H 0.75574 0.17075 0.66646 0.0
H229 H 0.88218 0.10197 0.56403 0.0
H230 H 0.84294 0.19249 0.55724 0.0
C231 C 0.82181 0.9391 0.64031 0.0
C232 C 0.82635 0.9704 0.64106 0.0
N233 N 0.84447 0.97676 0.66517 0.0
N234 N 0.83733 0.92611 0.66371 0.0
C235 C 0.85066 0.94971 0.67865 0.0
H236 H 0.80812 0.92662 0.62383 0.0
Co237 Co 0.83932 0.88512 0.67419 0.0
C238 C 0.9045 0.87282 0.68565 0.0
O239 O 0.9006 0.84719 0.67029 0.0
N240 N 0.84112 0.84342 0.68635 0.0
C241 C 0.83967 0.79266 0.69294 0.0
C242 C 0.83342 0.81643 0.67301 0.0
C243 C 0.8512 0.8353 0.71453 0.0
N244 N 0.85089 0.80481 0.7189 0.0
O245 O 0.82122 0.89491 0.71296 0.0
H246 H 0.82408 0.8136 0.65034 0.0
H247 H 0.85945 0.85149 0.7314 0.0
O248 O 0.8818 0.89109 0.6896 0.0
C249 C 0.79313 0.88692 0.71082 0.0
O250 O 0.78419 0.87365 0.68526 0.0
N251 N 0.85309 0.87633 0.63431 0.0
C252 C 0.862 0.86986 0.57148 0.0
C253 C 0.88401 0.88475 0.58943 0.0
C254 C 0.8788 0.88833 0.62083 0.0
C255 C 0.83093 0.86314 0.61667 0.0
C256 C 0.83521 0.85895 0.58532 0.0
H257 H 0.89457 0.90222 0.63374 0.0
H258 H 0.80908 0.85717 0.62679 0.0
H259 H 0.86439 0.94724 0.69917 0.0
H260 H 0.81707 0.98722 0.6253 0.0
H261 H 0.83676 0.76837 0.6886 0.0
H262 H 0.90434 0.89461 0.57904 0.0
H263 H 0.81722 0.84848 0.57176 0.0
C264 C 0.37996 0.06899 0.16794 0.0
C265 C 0.37741 0.03791 0.16261 0.0
N266 N 0.34965 0.03265 0.15029 0.0
N267 N 0.3541 0.08326 0.15846 0.0
C268 C 0.33575 0.06022 0.14869 0.0
H269 H 0.39975 0.08038 0.17757 0.0
Co270 Co 0.34479 0.12542 0.15924 0.0
C271 C 0.33308 0.1112 0.09065 0.0
O272 O 0.34388 0.08316 0.08988 0.0
N273 N 0.33426 0.16748 0.15977 0.0
C274 C 0.32908 0.21801 0.16654 0.0
C275 C 0.34721 0.19269 0.17245 0.0
C276 C 0.30828 0.17823 0.14654 0.0
N277 N 0.30462 0.20864 0.15029 0.0
O278 O 0.30368 0.11573 0.17248 0.0
H279 H 0.36786 0.19295 0.18605 0.0
H280 H 0.29172 0.16381 0.13497 0.0
O281 O 0.33306 0.12629 0.1157 0.0
C282 C 0.30356 0.11206 0.20155 0.0
O283 O 0.32981 0.11382 0.21623 0.0
N284 N 0.38621 0.13496 0.14991 0.0
C285 C 0.44912 0.14643 0.1456 0.0
C286 C 0.43267 0.13598 0.12013 0.0
C287 C 0.40127 0.1299 0.12288 0.0
C288 C 0.40229 0.14416 0.17512 0.0
C289 C 0.43367 0.15051 0.1734 0.0
H290 H 0.38972 0.12027 0.10345 0.0
H291 H 0.39072 0.1459 0.19699 0.0
H292 H 0.31306 0.06372 0.13923 0.0
H293 H 0.39487 0.02066 0.16642 0.0
H294 H 0.3327 0.24113 0.17484 0.0
H295 H 0.44419 0.13176 0.09853 0.0
H296 H 0.44592 0.15778 0.19373 0.0
C297 C 0.9293 0.34465 0.17959 0.0
C298 C 0.96064 0.34185 0.17892 0.0
N299 N 0.96899 0.32357 0.15522 0.0
N300 N 0.91728 0.32767 0.15692 0.0
C301 C 0.94166 0.31342 0.1441 0.0
H302 H 0.91607 0.35846 0.19538 0.0
Co303 Co 0.87538 0.32553 0.14657 0.0
C304 C 0.9019 0.32746 0.07999 0.0
O305 O 0.9313 0.33231 0.08409 0.0
N306 N 0.83341 0.32291 0.13568 0.0
C307 C 0.79163 0.32682 0.10647 0.0
C308 C 0.82033 0.33851 0.11222 0.0
C309 C 0.8117 0.3024 0.14431 0.0
N310 N 0.7864 0.30399 0.12654 0.0
O311 O 0.87737 0.28192 0.15023 0.0
H312 H 0.83179 0.35591 0.09867 0.0
H313 H 0.81493 0.28532 0.1619 0.0
O314 O 0.88366 0.32485 0.10273 0.0
C315 C 0.87464 0.27737 0.17898 0.0
O316 O 0.87081 0.3012 0.19703 0.0
N317 N 0.87312 0.36838 0.14576 0.0
C318 C 0.86688 0.43159 0.14511 0.0
C319 C 0.89117 0.41769 0.12956 0.0
C320 C 0.89396 0.38591 0.1303 0.0
C321 C 0.85048 0.38182 0.16268 0.0
C322 C 0.84652 0.41356 0.16217 0.0
H323 H 0.91322 0.37544 0.11904 0.0
H324 H 0.835 0.36777 0.17611 0.0
H325 H 0.93853 0.29546 0.12756 0.0
H326 H 0.97612 0.35271 0.19497 0.0
H327 H 0.77674 0.33295 0.08758 0.0
H328 H 0.90758 0.4313 0.11672 0.0
H329 H 0.82779 0.42394 0.17477 0.0
C330 C 0.63615 0.9179 0.18526 0.0
C331 C 0.63475 0.94916 0.18117 0.0
N332 N 0.65324 0.9565 0.15759 0.0
N333 N 0.65538 0.90581 0.16426 0.0
C334 C 0.66552 0.92995 0.14768 0.0
H335 H 0.6236 0.90471 0.20215 0.0
Co336 Co 0.66346 0.8644 0.1598 0.0
C337 C 0.69907 0.86781 0.09898 0.0
O338 O 0.72689 0.86244 0.10915 0.0
N339 N 0.67242 0.82218 0.15496 0.0
C340 C 0.67255 0.77208 0.14418 0.0
C341 C 0.65449 0.79697 0.15173 0.0
C342 C 0.70121 0.81158 0.15004 0.0
N343 N 0.70179 0.78169 0.14288 0.0
O344 O 0.70309 0.87035 0.1774 0.0
H345 H 0.6298 0.79654 0.15314 0.0
H346 H 0.7217 0.82544 0.15106 0.0
O347 O 0.67674 0.87015 0.1177 0.0
C348 C 0.69899 0.86747 0.20627 0.0
O349 O 0.67086 0.86415 0.21662 0.0
N350 N 0.6232 0.85924 0.14612 0.0
C351 C 0.56034 0.86112 0.13658 0.0
C352 C 0.58037 0.8722 0.11415 0.0
C353 C 0.61183 0.87161 0.1196 0.0
C354 C 0.60382 0.84838 0.16815 0.0
C355 C 0.57216 0.84879 0.16371 0.0
H356 H 0.62657 0.88284 0.10319 0.0
H357 H 0.61306 0.84036 0.18973 0.0
H358 H 0.68128 0.92825 0.12859 0.0
H359 H 0.62101 0.96526 0.19414 0.0
H360 H 0.66481 0.74899 0.13926 0.0
H361 H 0.57166 0.88258 0.09332 0.0
H362 H 0.55702 0.84062 0.18167 0.0
C363 C 0.07642 0.63423 0.17373 0.0
C364 C 0.04483 0.63497 0.17393 0.0
N365 N 0.0358 0.65856 0.15616 0.0
N366 N 0.08691 0.65721 0.15578 0.0
C367 C 0.0616 0.67191 0.14578 0.0
H368 H 0.09082 0.61795 0.18571 0.0
Co369 Co 0.12719 0.66695 0.14656 0.0
C370 C 0.11549 0.70274 0.09038 0.0
O371 O 0.11787 0.72925 0.10443 0.0
N372 N 0.16783 0.67739 0.13595 0.0
C373 C 0.20851 0.68345 0.1061 0.0
C374 C 0.18273 0.66631 0.11132 0.0
C375 C 0.18523 0.70138 0.14515 0.0
N376 N 0.21115 0.70521 0.12806 0.0
O377 O 0.12 0.70708 0.16218 0.0
H378 H 0.17386 0.64887 0.09609 0.0
H379 H 0.17711 0.71738 0.16201 0.0
O380 O 0.11622 0.6777 0.10538 0.0
C381 C 0.12166 0.70572 0.19133 0.0
O382 O 0.12928 0.67933 0.20388 0.0
N383 N 0.13383 0.62645 0.13481 0.0
C384 C 0.13748 0.56308 0.1308 0.0
C385 C 0.11887 0.57953 0.11042 0.0
C386 C 0.11725 0.61146 0.11286 0.0
C387 C 0.15287 0.61081 0.154 0.0
C388 C 0.15521 0.57898 0.15226 0.0
H389 H 0.10124 0.6238 0.09851 0.0
H390 H 0.16507 0.62304 0.1718 0.0
H391 H 0.062 0.69214 0.13138 0.0
H392 H 0.02964 0.61948 0.18608 0.0
H393 H 0.22221 0.68163 0.08554 0.0
H394 H 0.10466 0.56766 0.09387 0.0
H395 H 0.16957 0.56675 0.16844 0.0
C396 C 0.34683 0.91282 0.8289 0.0
C397 C 0.34492 0.9434 0.8366 0.0
N398 N 0.32409 0.94634 0.85915 0.0
N399 N 0.3274 0.89652 0.84668 0.0
C400 C 0.31366 0.91769 0.86486 0.0
H401 H 0.36163 0.903 0.8116 0.0
Co402 Co 0.32227 0.85389 0.84493 0.0
C403 C 0.28573 0.85006 0.90535 0.0
O404 O 0.2574 0.84485 0.89658 0.0
N405 N 0.3159 0.81057 0.84376 0.0
C406 C 0.31865 0.75961 0.8439 0.0
C407 C 0.33527 0.7865 0.84391 0.0
C408 C 0.28777 0.79728 0.84437 0.0
N409 N 0.28833 0.76616 0.84252 0.0
O410 O 0.28321 0.85974 0.82647 0.0
H411 H 0.35993 0.78786 0.84548 0.0
H412 H 0.26722 0.81052 0.84777 0.0
O413 O 0.30717 0.85318 0.88586 0.0
C414 C 0.28891 0.85968 0.79774 0.0
O415 O 0.31753 0.85773 0.7885 0.0
N416 N 0.36238 0.84918 0.85938 0.0
C417 C 0.42514 0.85118 0.87048 0.0
C418 C 0.40429 0.8582 0.89389 0.0
C419 C 0.3728 0.85721 0.88784 0.0
C420 C 0.38252 0.84256 0.83641 0.0
C421 C 0.41403 0.84286 0.84161 0.0
H422 H 0.35717 0.86451 0.90556 0.0
H423 H 0.37394 0.83766 0.81368 0.0
H424 H 0.29659 0.91233 0.88206 0.0
H425 H 0.35798 0.96207 0.82662 0.0
H426 H 0.32874 0.73717 0.84672 0.0
H427 H 0.41233 0.86533 0.91627 0.0
H428 H 0.42965 0.83783 0.82296 0.0
C429 C 0.07434 0.36 0.84292 0.0
C430 C 0.04279 0.35864 0.84524 0.0
N431 N 0.03553 0.33438 0.86293 0.0
N432 N 0.08678 0.33688 0.8594 0.0
C433 C 0.06241 0.32151 0.87107 0.0
H434 H 0.08738 0.37665 0.82987 0.0
Co435 Co 0.12847 0.32681 0.86328 0.0
C436 C 0.11634 0.29513 0.92316 0.0
O437 O 0.10734 0.2695 0.91015 0.0
N438 N 0.17027 0.31562 0.86805 0.0
C439 C 0.21528 0.30764 0.89115 0.0
C440 C 0.19007 0.32669 0.8892 0.0
C441 C 0.18432 0.29006 0.8573 0.0
N442 N 0.21125 0.28436 0.87133 0.0
O443 O 0.11887 0.28554 0.85062 0.0
H444 H 0.1854 0.34595 0.90411 0.0
H445 H 0.17454 0.27471 0.84072 0.0
O446 O 0.12336 0.31838 0.90677 0.0
C447 C 0.11818 0.28643 0.82134 0.0
O448 O 0.12346 0.31301 0.80799 0.0
N449 N 0.13767 0.36841 0.87155 0.0
C450 C 0.14299 0.43244 0.87033 0.0
C451 C 0.12642 0.41768 0.89375 0.0
C452 C 0.124 0.38552 0.89396 0.0
C453 C 0.15477 0.38236 0.84932 0.0
C454 C 0.15796 0.41432 0.84844 0.0
H455 H 0.10953 0.37462 0.91089 0.0
H456 H 0.16471 0.36866 0.83119 0.0
H457 H 0.06413 0.30099 0.88487 0.0
H458 H 0.02645 0.37401 0.83461 0.0
H459 H 0.23394 0.30944 0.90741 0.0
H460 H 0.11437 0.43099 0.9109 0.0
H461 H 0.17081 0.42491 0.82997 0.0
C462 C 0.63989 0.07849 0.8186 0.0
C463 C 0.63851 0.04694 0.82089 0.0
N464 N 0.66163 0.03767 0.83911 0.0
N465 N 0.66343 0.08889 0.8358 0.0
C466 C 0.67675 0.06333 0.8471 0.0
H467 H 0.62346 0.093 0.80699 0.0
Co468 Co 0.67164 0.12964 0.84625 0.0
C469 C 0.71343 0.11015 0.89737 0.0
O470 O 0.73713 0.10436 0.87972 0.0
N471 N 0.68089 0.1708 0.85769 0.0
C472 C 0.68072 0.21804 0.87779 0.0
C473 C 0.66309 0.19274 0.87071 0.0
C474 C 0.70939 0.18339 0.8579 0.0
N475 N 0.70976 0.21192 0.86967 0.0
O476 O 0.71019 0.12665 0.82583 0.0
H477 H 0.6389 0.19067 0.87558 0.0
H478 H 0.72986 0.17204 0.84977 0.0
O479 O 0.68787 0.11809 0.88572 0.0
C480 C 0.70551 0.13164 0.7974 0.0
O481 O 0.67726 0.13584 0.78781 0.0
N482 N 0.63204 0.13246 0.86262 0.0
C483 C 0.56917 0.12956 0.87324 0.0
C484 C 0.58968 0.11508 0.89333 0.0
C485 C 0.62126 0.11675 0.88757 0.0
C486 C 0.61227 0.14691 0.84316 0.0
C487 C 0.58072 0.14609 0.84828 0.0
H488 H 0.63665 0.10393 0.90212 0.0
H489 H 0.62113 0.1582 0.82289 0.0
H490 H 0.69611 0.06334 0.86236 0.0
H491 H 0.62052 0.03226 0.81209 0.0
H492 H 0.67287 0.23935 0.88784 0.0
H493 H 0.58129 0.1017 0.91254 0.0
H494 H 0.56537 0.15715 0.83217 0.0
C495 C 0.93066 0.6539 0.82241 0.0
C496 C 0.96225 0.65557 0.82026 0.0
N497 N 0.97196 0.67646 0.84075 0.0
N498 N 0.92092 0.67366 0.84417 0.0
C499 C 0.94665 0.68718 0.85469 0.0
H500 H 0.91572 0.63945 0.80888 0.0
Co501 Co 0.88076 0.68275 0.85562 0.0
C502 C 0.89953 0.71501 0.91309 0.0
O503 O 0.90296 0.74189 0.89991 0.0
N504 N 0.84053 0.69278 0.86768 0.0
C505 C 0.80214 0.70397 0.89952 0.0
C506 C 0.82751 0.68572 0.89496 0.0
C507 C 0.82201 0.71463 0.8557 0.0
N508 N 0.79902 0.72227 0.87487 0.0
O509 O 0.88701 0.72389 0.842 0.0
H510 H 0.83732 0.67019 0.91166 0.0
H511 H 0.82609 0.72615 0.8342 0.0
O512 O 0.89309 0.69149 0.89709 0.0
C513 C 0.88306 0.72392 0.81308 0.0
O514 O 0.87608 0.69785 0.79963 0.0
N515 N 0.87456 0.64167 0.86619 0.0
C516 C 0.87014 0.57823 0.87078 0.0
C517 C 0.892 0.59422 0.88798 0.0
C518 C 0.89383 0.62611 0.8854 0.0
C519 C 0.85269 0.62648 0.84983 0.0
C520 C 0.84984 0.59463 0.85206 0.0
H521 H 0.91193 0.63802 0.89739 0.0
H522 H 0.83826 0.63902 0.83402 0.0
H523 H 0.947 0.70501 0.87187 0.0
H524 H 0.97691 0.64255 0.80504 0.0
H525 H 0.78825 0.70515 0.92007 0.0
H526 H 0.90818 0.58203 0.90237 0.0
H527 H 0.83292 0.58275 0.83829 0.0
C528 C 0.17304 0.35214 0.08009 0.0
C529 C 0.16668 0.34879 0.04939 0.0
N530 N 0.14705 0.32521 0.04631 0.0
N531 N 0.15721 0.33094 0.09628 0.0
C532 C 0.14169 0.31464 0.07493 0.0
H533 H 0.18843 0.36891 0.08993 0.0
Co534 Co 0.15827 0.32616 0.13888 0.0
C535 C 0.09707 0.29142 0.13978 0.0
O536 O 0.10869 0.26394 0.13606 0.0
N537 N 0.15924 0.32072 0.18211 0.0
C538 C 0.16639 0.32379 0.23285 0.0
C539 C 0.17158 0.33787 0.20489 0.0
C540 C 0.14735 0.29612 0.19698 0.0
N541 N 0.15098 0.29765 0.22758 0.0
O542 O 0.17321 0.28498 0.13391 0.0
H543 H 0.18415 0.35897 0.20183 0.0
H544 H 0.13657 0.27695 0.1857 0.0
O545 O 0.11514 0.31446 0.13949 0.0
C546 C 0.20232 0.28677 0.13069 0.0
O547 O 0.21495 0.31416 0.12997 0.0
N548 N 0.14718 0.36752 0.14305 0.0
C549 C 0.14039 0.43092 0.14046 0.0
C550 C 0.11544 0.41168 0.13428 0.0
C551 C 0.11937 0.37987 0.13538 0.0
C552 C 0.17163 0.38613 0.14889 0.0
C553 C 0.16865 0.41795 0.14818 0.0
H554 H 0.10046 0.36555 0.12838 0.0
H555 H 0.19401 0.37613 0.15266 0.0
H556 H 0.12702 0.29527 0.0801 0.0
H557 H 0.17592 0.36235 0.03071 0.0
H558 H 0.17398 0.33164 0.25512 0.0
H559 H 0.09349 0.42119 0.12755 0.0
H560 H 0.1885 0.43232 0.15243 0.0
C561 C 0.13659 0.6333 0.92903 0.0
C562 C 0.13755 0.63647 0.96036 0.0
N563 N 0.13312 0.66619 0.96686 0.0
N564 N 0.13124 0.66096 0.91566 0.0
C565 C 0.12992 0.68057 0.93977 0.0
H566 H 0.13863 0.61165 0.91734 0.0
Co567 Co 0.1228 0.67072 0.87378 0.0
C568 C 0.08535 0.7251 0.88498 0.0
O569 O 0.08317 0.75302 0.8961 0.0
N570 N 0.11452 0.68114 0.83262 0.0
C571 C 0.10243 0.68218 0.78297 0.0
C572 C 0.10432 0.66404 0.80889 0.0
C573 C 0.11845 0.7095 0.82046 0.0
N574 N 0.11093 0.71091 0.79052 0.0
O575 O 0.16446 0.68563 0.86703 0.0
H576 H 0.09856 0.63995 0.81007 0.0
H577 H 0.12685 0.72902 0.83327 0.0
O578 O 0.11128 0.71157 0.88593 0.0
C579 C 0.18947 0.68897 0.8819 0.0
O580 O 0.19223 0.67847 0.90997 0.0
N581 N 0.13208 0.6299 0.86231 0.0
C582 C 0.1386 0.56606 0.85944 0.0
C583 C 0.1097 0.57943 0.86369 0.0
C584 C 0.10695 0.61137 0.86494 0.0
C585 C 0.16024 0.61752 0.85623 0.0
C586 C 0.16397 0.58547 0.85471 0.0
H587 H 0.08484 0.6215 0.86986 0.0
H588 H 0.18018 0.63203 0.85394 0.0
H589 H 0.12516 0.70485 0.93804 0.0
H590 H 0.13988 0.61827 0.97713 0.0
H591 H 0.09488 0.67499 0.76045 0.0
H592 H 0.08958 0.56524 0.86719 0.0
H593 H 0.18659 0.57589 0.85103 0.0
C594 C 0.34059 0.1781 0.92324 0.0
C595 C 0.33863 0.18053 0.9546 0.0
N596 N 0.3332 0.15238 0.96621 0.0
N597 N 0.33561 0.1487 0.91495 0.0
C598 C 0.33131 0.13354 0.94173 0.0
H599 H 0.34458 0.19682 0.90745 0.0
Co600 Co 0.3306 0.13554 0.87449 0.0
C601 C 0.32872 0.06739 0.88136 0.0
O602 O 0.35358 0.06607 0.86458 0.0
N603 N 0.3238 0.12214 0.83286 0.0
C604 C 0.32315 0.09498 0.78936 0.0
C605 C 0.34049 0.1037 0.81425 0.0
C606 C 0.29693 0.12529 0.81742 0.0
N607 N 0.29581 0.10912 0.79113 0.0
O608 O 0.28961 0.1524 0.87605 0.0
H609 H 0.36355 0.09584 0.81864 0.0
H610 H 0.27746 0.13806 0.82556 0.0
O611 O 0.31677 0.09353 0.88825 0.0
C612 C 0.29148 0.18016 0.86629 0.0
O613 O 0.3179 0.18966 0.85523 0.0
N614 N 0.37268 0.12467 0.87347 0.0
C615 C 0.43666 0.12256 0.87526 0.0
C616 C 0.41926 0.10715 0.89741 0.0
C617 C 0.38726 0.1089 0.89641 0.0
C618 C 0.38953 0.14053 0.85232 0.0
C619 C 0.42156 0.13926 0.85239 0.0
H620 H 0.37427 0.09804 0.91444 0.0
H621 H 0.37802 0.15495 0.83572 0.0
H622 H 0.32642 0.10924 0.9434 0.0
H623 H 0.34121 0.20131 0.96795 0.0
H624 H 0.33013 0.07938 0.77136 0.0
H625 H 0.43035 0.09461 0.91578 0.0
H626 H 0.43447 0.15205 0.8354 0.0
C627 C 0.82246 0.3668 0.92363 0.0
C628 C 0.82461 0.36586 0.95511 0.0
N629 N 0.8456 0.34453 0.96249 0.0
N630 N 0.84257 0.34661 0.91146 0.0
C631 C 0.85578 0.33293 0.93584 0.0
H632 H 0.80785 0.3819 0.91047 0.0
Co633 Co 0.85018 0.34044 0.87 0.0
C634 C 0.90899 0.30608 0.88476 0.0
O635 O 0.89585 0.28002 0.89242 0.0
N636 N 0.85804 0.33356 0.82796 0.0
C637 C 0.86693 0.33713 0.77767 0.0
C638 C 0.86044 0.35326 0.804 0.0
C639 C 0.86365 0.30568 0.81545 0.0
N640 N 0.86877 0.30728 0.78508 0.0
O641 O 0.83506 0.29927 0.87416 0.0
H642 H 0.85772 0.37783 0.80506 0.0
H643 H 0.86372 0.28434 0.82816 0.0
O644 O 0.89272 0.32921 0.87738 0.0
C645 C 0.80599 0.3009 0.871 0.0
O646 O 0.79358 0.3279 0.86586 0.0
N647 N 0.86124 0.38188 0.86649 0.0
C648 C 0.86675 0.44547 0.86735 0.0
C649 C 0.89079 0.42695 0.87787 0.0
C650 C 0.88761 0.39502 0.87724 0.0
C651 C 0.83761 0.39975 0.85644 0.0
C652 C 0.84007 0.43165 0.85618 0.0
H653 H 0.9059 0.38125 0.88647 0.0
H654 H 0.8165 0.38902 0.84901 0.0
H655 H 0.87318 0.31545 0.93441 0.0
H656 H 0.81283 0.38058 0.97126 0.0
H657 H 0.86939 0.34642 0.75476 0.0
H658 H 0.91155 0.43713 0.88698 0.0
H659 H 0.821 0.44544 0.84821 0.0
C660 C 0.64573 0.82237 0.93437 0.0
C661 C 0.65084 0.8241 0.96541 0.0
N662 N 0.66982 0.84803 0.97151 0.0
N663 N 0.66198 0.84455 0.92048 0.0
C664 C 0.67756 0.85847 0.94326 0.0
H665 H 0.6308 0.80635 0.9227 0.0
Co666 Co 0.66377 0.85444 0.87876 0.0
C667 C 0.66981 0.9226 0.90331 0.0
O668 O 0.66443 0.92119 0.93291 0.0
N669 N 0.66692 0.86582 0.83695 0.0
C670 C 0.66929 0.90104 0.79984 0.0
C671 C 0.65299 0.89084 0.82485 0.0
C672 C 0.69086 0.86062 0.81784 0.0
N673 N 0.69322 0.88206 0.79562 0.0
O674 O 0.70666 0.84418 0.87915 0.0
H675 H 0.6345 0.90329 0.83573 0.0
H676 H 0.70869 0.84404 0.82211 0.0
O677 O 0.6695 0.89837 0.88683 0.0
C678 C 0.70655 0.81483 0.87661 0.0
O679 O 0.6799 0.8007 0.87571 0.0
N680 N 0.62107 0.86006 0.878 0.0
C681 C 0.55725 0.86004 0.87776 0.0
C682 C 0.57339 0.87637 0.90018 0.0
C683 C 0.60543 0.87606 0.8999 0.0
C684 C 0.60558 0.84351 0.85646 0.0
C685 C 0.57359 0.84363 0.85557 0.0
H686 H 0.61762 0.8873 0.91818 0.0
H687 H 0.61812 0.82968 0.84014 0.0
H688 H 0.69419 0.87562 0.93816 0.0
H689 H 0.64039 0.80926 0.9824 0.0
H690 H 0.66532 0.92209 0.78723 0.0
H691 H 0.5613 0.88873 0.918 0.0
H692 H 0.56167 0.83037 0.83829 0.0
C693 C 0.83774 0.63944 0.05862 0.0
C694 C 0.84685 0.6451 0.02884 0.0
N695 N 0.86405 0.67075 0.02883 0.0
N696 N 0.84946 0.66141 0.07703 0.0
C697 C 0.86519 0.68025 0.05813 0.0
H698 H 0.82333 0.62073 0.06632 0.0
Co699 Co 0.84473 0.66703 0.11907 0.0
C700 C 0.9076 0.66828 0.1426 0.0
O701 O 0.8983 0.64755 0.1624 0.0
N702 N 0.84115 0.67492 0.16204 0.0
C703 C 0.84399 0.67574 0.21316 0.0
C704 C 0.83984 0.65742 0.18777 0.0
C705 C 0.84509 0.70382 0.17298 0.0
N706 N 0.84776 0.70483 0.20358 0.0
O707 O 0.83004 0.70759 0.11161 0.0
H708 H 0.83815 0.63275 0.18859 0.0
H709 H 0.84735 0.72409 0.1589 0.0
O710 O 0.88861 0.6792 0.1228 0.0
C711 C 0.80142 0.70494 0.10579 0.0
O712 O 0.79069 0.67784 0.09808 0.0
N713 N 0.85366 0.62561 0.12498 0.0
C714 C 0.85694 0.56246 0.13073 0.0
C715 C 0.88109 0.57867 0.11707 0.0
C716 C 0.8787 0.61043 0.11377 0.0
C717 C 0.829 0.60964 0.13573 0.0
C718 C 0.8305 0.57804 0.13977 0.0
H719 H 0.89666 0.62274 0.10189 0.0
H720 H 0.80813 0.62173 0.14155 0.0
H721 H 0.87683 0.7009 0.06558 0.0
H722 H 0.84095 0.63183 0.00873 0.0
H723 H 0.84471 0.66825 0.23683 0.0
H724 H 0.90131 0.56683 0.10881 0.0
H725 H 0.81109 0.5658 0.14938 0.0
C726 C 0.35362 0.8226 0.07001 0.0
C727 C 0.35334 0.82099 0.03857 0.0
N728 N 0.33385 0.84247 0.02725 0.0
N729 N 0.3334 0.84396 0.079 0.0
C730 C 0.32086 0.85458 0.0528 0.0
H731 H 0.36715 0.80861 0.08541 0.0
Co732 Co 0.32544 0.85628 0.11903 0.0
C733 C 0.30336 0.92222 0.09537 0.0
O734 O 0.28319 0.92402 0.07311 0.0
N735 N 0.31755 0.86988 0.15915 0.0
C736 C 0.31548 0.9007 0.19947 0.0
C737 C 0.32933 0.89547 0.1718 0.0
C738 C 0.29686 0.85988 0.17985 0.0
N739 N 0.29531 0.87783 0.20534 0.0
O740 O 0.28472 0.83946 0.11535 0.0
H741 H 0.34539 0.91076 0.16063 0.0
H742 H 0.28186 0.84108 0.17477 0.0
O743 O 0.31222 0.89603 0.10487 0.0
C744 C 0.28831 0.81066 0.11976 0.0
O745 O 0.31575 0.80074 0.12734 0.0
N746 N 0.36589 0.86846 0.12279 0.0
C747 C 0.42913 0.87205 0.12637 0.0
C748 C 0.41302 0.89127 0.10621 0.0
C749 C 0.38105 0.88893 0.10459 0.0
C750 C 0.38132 0.85011 0.14283 0.0
C751 C 0.41304 0.85169 0.14517 0.0
H752 H 0.36874 0.90206 0.08766 0.0
H753 H 0.3689 0.83322 0.15617 0.0
H754 H 0.30149 0.86994 0.05276 0.0
H755 H 0.36567 0.80382 0.02576 0.0
H756 H 0.31828 0.92151 0.21263 0.0
H757 H 0.42513 0.90688 0.09109 0.0
H758 H 0.42502 0.83637 0.16066 0.0
C759 C 0.6636 0.16602 0.05274 0.0
C760 C 0.66891 0.16053 0.02216 0.0
N761 N 0.68973 0.13791 0.0201 0.0
N762 N 0.68091 0.14666 0.06973 0.0
C763 C 0.69672 0.12991 0.04909 0.0
H764 H 0.64779 0.18274 0.06183 0.0
Co765 Co 0.68614 0.14323 0.11184 0.0
C766 C 0.66206 0.08279 0.12944 0.0
O767 O 0.64715 0.09596 0.152 0.0
N768 N 0.69477 0.13927 0.15341 0.0
C769 C 0.70206 0.13542 0.20376 0.0
C770 C 0.682 0.14464 0.18121 0.0
C771 C 0.72227 0.12674 0.15986 0.0
N772 N 0.72736 0.12425 0.19014 0.0
O773 O 0.69885 0.18583 0.1139 0.0
H774 H 0.65923 0.15315 0.18553 0.0
H775 H 0.73824 0.11919 0.14242 0.0
O776 O 0.67718 0.099 0.11015 0.0
C777 C 0.69148 0.2139 0.11007 0.0
O778 O 0.66389 0.22159 0.10083 0.0
N779 N 0.64324 0.15251 0.11826 0.0
C780 C 0.58018 0.15857 0.1286 0.0
C781 C 0.59115 0.13792 0.10685 0.0
C782 C 0.62258 0.13546 0.10183 0.0
C783 C 0.63259 0.17458 0.13786 0.0
C784 C 0.60108 0.17769 0.14375 0.0
H785 H 0.63036 0.11902 0.08502 0.0
H786 H 0.64843 0.18925 0.14996 0.0
H787 H 0.71316 0.11233 0.05519 0.0
H788 H 0.65833 0.1721 0.00289 0.0
H789 H 0.698 0.13581 0.22825 0.0
H790 H 0.57553 0.12315 0.09437 0.0
H791 H 0.59319 0.19427 0.16046 0.0
C792 C 0.13149 0.19259 0.51565 0.0
C793 C 0.1527 0.17307 0.5309 0.0
C794 C 0.17968 0.16511 0.48219 0.0
C795 C 0.15539 0.17964 0.4663 0.0
N796 N 0.10663 0.20571 0.46764 0.0
N797 N 0.19428 0.13645 0.52729 0.0
C798 C 0.13101 0.19337 0.48296 0.0
C799 C 0.17635 0.15843 0.51387 0.0
N800 N 0.11217 0.2107 0.53238 0.0
N801 N 0.20572 0.15717 0.46668 0.0
H802 H 0.19154 0.1293 0.54995 0.0
H803 H 0.20972 0.12295 0.51504 0.0
H804 H 0.20865 0.16195 0.44339 0.0
H805 H 0.22535 0.1489 0.47751 0.0
H806 H 0.09824 0.22749 0.5226 0.0
H807 H 0.11218 0.21093 0.5563 0.0
H808 H 0.08651 0.21264 0.47848 0.0
H809 H 0.10578 0.20731 0.4438 0.0
C810 C 0.87603 0.16254 0.4722 0.0
C811 C 0.85751 0.13975 0.45824 0.0
C812 C 0.83927 0.12303 0.50873 0.0
C813 C 0.86015 0.14367 0.5227 0.0
N814 N 0.90279 0.17881 0.51798 0.0
N815 N 0.82597 0.09437 0.46312 0.0
C816 C 0.87979 0.16228 0.50451 0.0
C817 C 0.8403 0.11887 0.47647 0.0
N818 N 0.88938 0.18491 0.45465 0.0
N819 N 0.81785 0.10807 0.52614 0.0
H820 H 0.82649 0.09022 0.43959 0.0
H821 H 0.81592 0.07663 0.47565 0.0
H822 H 0.81632 0.11059 0.54988 0.0
H823 H 0.79995 0.09532 0.51679 0.0
H824 H 0.90047 0.20395 0.46389 0.0
H825 H 0.88694 0.18595 0.43088 0.0
H826 H 0.91974 0.19024 0.50558 0.0
H827 H 0.90675 0.17873 0.54157 0.0
C828 C 0.88917 0.84528 0.49224 0.0
C829 C 0.868 0.86147 0.47354 0.0
C830 C 0.84704 0.88708 0.51884 0.0
C831 C 0.86547 0.86804 0.53775 0.0
N832 N 0.90159 0.82647 0.54307 0.0
N833 N 0.82389 0.89462 0.46895 0.0
C834 C 0.88599 0.84649 0.52464 0.0
C835 C 0.84618 0.88163 0.48679 0.0
N836 N 0.9128 0.82946 0.47903 0.0
N837 N 0.83093 0.91084 0.53147 0.0
H838 H 0.82238 0.89114 0.44534 0.0
H839 H 0.80535 0.90675 0.47787 0.0
H840 H 0.83118 0.9157 0.55489 0.0
H841 H 0.81964 0.92743 0.5185 0.0
H842 H 0.93077 0.81985 0.49148 0.0
H843 H 0.91595 0.82822 0.45534 0.0
H844 H 0.91419 0.80799 0.53471 0.0
H845 H 0.90007 0.82686 0.56694 0.0
C846 C 0.14212 0.89034 0.50965 0.0
C847 C 0.12047 0.87153 0.52509 0.0
C848 C 0.10222 0.8514 0.47591 0.0
C849 C 0.12271 0.87146 0.46046 0.0
N850 N 0.15673 0.91514 0.46208 0.0
N851 N 0.07532 0.83952 0.52312 0.0
C852 C 0.141 0.89254 0.47719 0.0
C853 C 0.09907 0.85367 0.50825 0.0
N854 N 0.1646 0.90504 0.52583 0.0
N855 N 0.0867 0.82937 0.45987 0.0
H856 H 0.0721 0.84102 0.54678 0.0
H857 H 0.05727 0.82876 0.51178 0.0
H858 H 0.08833 0.82703 0.43613 0.0
H859 H 0.07413 0.81191 0.47031 0.0
H860 H 0.18303 0.91622 0.51548 0.0
H861 H 0.16634 0.90393 0.54965 0.0
H862 H 0.16794 0.93305 0.47325 0.0
H863 H 0.15613 0.91774 0.4383 0.0
C864 C 0.49465 0.17767 0.1285 0.0
C865 C 0.48287 0.15124 0.14356 0.0
C866 C 0.53528 0.13401 0.15466 0.0
C867 C 0.54694 0.15832 0.13635 0.0
N868 N 0.53821 0.20205 0.10363 0.0
N869 N 0.49155 0.10226 0.16796 0.0
C870 C 0.52677 0.17999 0.12283 0.0
C871 C 0.50308 0.12895 0.15604 0.0
N872 N 0.47515 0.20078 0.12015 0.0
N873 N 0.55507 0.11598 0.17102 0.0
H874 H 0.46812 0.09762 0.16942 0.0
H875 H 0.50515 0.08362 0.17416 0.0
H876 H 0.57882 0.11899 0.17044 0.0
H877 H 0.54796 0.09991 0.18724 0.0
H878 H 0.48253 0.22199 0.11194 0.0
H879 H 0.45151 0.19971 0.12379 0.0
H880 H 0.52452 0.21627 0.09019 0.0
H881 H 0.56164 0.2049 0.09963 0.0
C882 C 0.84501 0.5094 0.11276 0.0
C883 C 0.85882 0.52891 0.1348 0.0
C884 C 0.87423 0.48458 0.16573 0.0
C885 C 0.86248 0.46506 0.14255 0.0
N886 N 0.838 0.45763 0.09353 0.0
N887 N 0.88796 0.53632 0.18117 0.0
C888 C 0.84808 0.47713 0.11597 0.0
C889 C 0.87374 0.51685 0.16108 0.0
N890 N 0.8286 0.52184 0.08905 0.0
N891 N 0.88548 0.47215 0.19228 0.0
H892 H 0.88701 0.56017 0.17916 0.0
H893 H 0.90215 0.52911 0.19894 0.0
H894 H 0.8872 0.44856 0.19597 0.0
H895 H 0.89138 0.48495 0.21151 0.0
H896 H 0.81495 0.50912 0.0742 0.0
H897 H 0.82715 0.54541 0.08505 0.0
H898 H 0.83072 0.46477 0.07197 0.0
H899 H 0.83822 0.43378 0.09584 0.0
C900 C 0.51018 0.84272 0.11566 0.0
C901 C 0.52689 0.86479 0.13267 0.0
C902 C 0.47954 0.89243 0.14487 0.0
C903 C 0.46302 0.87124 0.1266 0.0
N904 N 0.46241 0.82937 0.09049 0.0
N905 N 0.52906 0.91334 0.15915 0.0
C906 C 0.47833 0.84732 0.11069 0.0
C907 C 0.51202 0.8905 0.14599 0.0
N908 N 0.52462 0.81694 0.10512 0.0
N909 N 0.46406 0.91365 0.162 0.0
H910 H 0.55291 0.9125 0.16088 0.0
H911 H 0.51988 0.93421 0.16625 0.0
H912 H 0.44029 0.91626 0.16111 0.0
H913 H 0.47443 0.9273 0.1786 0.0
H914 H 0.51313 0.7983 0.09559 0.0
H915 H 0.54809 0.81312 0.10787 0.0
H916 H 0.47274 0.81357 0.07588 0.0
H917 H 0.43897 0.83199 0.08644 0.0
C918 C 0.12262 0.48219 0.15967 0.0
C919 C 0.13769 0.46464 0.13685 0.0
C920 C 0.15281 0.51169 0.10981 0.0
C921 C 0.13639 0.52911 0.13177 0.0
N922 N 0.10052 0.53118 0.17388 0.0
N923 N 0.16185 0.46172 0.08715 0.0
C924 C 0.1197 0.5144 0.1556 0.0
C925 C 0.15122 0.47913 0.11096 0.0
N926 N 0.11214 0.46823 0.18576 0.0
N927 N 0.17075 0.52626 0.08856 0.0
H928 H 0.16096 0.43778 0.08713 0.0
H929 H 0.16908 0.47093 0.06631 0.0
H930 H 0.17209 0.55011 0.08676 0.0
H931 H 0.18602 0.51483 0.07419 0.0
H932 H 0.10414 0.48024 0.20477 0.0
H933 H 0.11361 0.44461 0.18945 0.0
H934 H 0.08533 0.52137 0.18952 0.0
H935 H 0.09775 0.55486 0.17157 0.0
C936 C 0.47367 0.88135 0.8637 0.0
C937 C 0.45869 0.85471 0.87517 0.0
C938 C 0.50818 0.8323 0.88985 0.0
C939 C 0.52319 0.85887 0.87822 0.0
N940 N 0.52109 0.91011 0.8574 0.0
N941 N 0.46021 0.80664 0.90247 0.0
C942 C 0.50614 0.88389 0.86621 0.0
C943 C 0.47555 0.83073 0.88933 0.0
N944 N 0.45676 0.90386 0.84976 0.0
N945 N 0.5253 0.80835 0.90081 0.0
H946 H 0.43642 0.80423 0.90151 0.0
H947 H 0.47055 0.78982 0.91586 0.0
H948 H 0.54907 0.80942 0.90335 0.0
H949 H 0.51642 0.78688 0.90632 0.0
H950 H 0.46613 0.92216 0.8376 0.0
H951 H 0.43283 0.90376 0.84925 0.0
H952 H 0.51015 0.93048 0.85151 0.0
H953 H 0.54492 0.91222 0.85743 0.0
C954 C 0.12634 0.48078 0.84285 0.0
C955 C 0.1428 0.46674 0.86727 0.0
C956 C 0.15621 0.51791 0.88709 0.0
C957 C 0.14193 0.53182 0.86123 0.0
N958 N 0.11865 0.52619 0.81149 0.0
N959 N 0.17799 0.47176 0.90954 0.0
C960 C 0.12857 0.51311 0.8382 0.0
C961 C 0.15909 0.48528 0.88849 0.0
N962 N 0.10746 0.4634 0.82482 0.0
N963 N 0.16584 0.53572 0.911 0.0
H964 H 0.1806 0.44802 0.91129 0.0
H965 H 0.19303 0.48405 0.92343 0.0
H966 H 0.16417 0.55959 0.91099 0.0
H967 H 0.17315 0.52675 0.93189 0.0
H968 H 0.09236 0.47276 0.80886 0.0
H969 H 0.10471 0.43979 0.82773 0.0
H970 H 0.11164 0.51349 0.79253 0.0
H971 H 0.12018 0.54971 0.80719 0.0
C972 C 0.48774 0.09964 0.86166 0.0
C973 C 0.47073 0.12276 0.87696 0.0
C974 C 0.51854 0.14694 0.8945 0.0
C975 C 0.53545 0.12569 0.87663 0.0
N976 N 0.53702 0.08265 0.84197 0.0
N977 N 0.46901 0.16936 0.90667 0.0
C978 C 0.52028 0.10211 0.86002 0.0
C979 C 0.48589 0.14659 0.89322 0.0
N980 N 0.47271 0.07513 0.84907 0.0
N981 N 0.53381 0.1672 0.91295 0.0
H982 H 0.44508 0.16926 0.90721 0.0
H983 H 0.47845 0.18929 0.9158 0.0
H984 H 0.55769 0.16846 0.91387 0.0
H985 H 0.5231 0.18123 0.92899 0.0
H986 H 0.48372 0.05581 0.84043 0.0
H987 H 0.44887 0.07305 0.84914 0.0
H988 H 0.52736 0.0674 0.82637 0.0
H989 H 0.56094 0.08277 0.84133 0.0
C990 C 0.88491 0.5284 0.84619 0.0
C991 C 0.87006 0.54416 0.87054 0.0
C992 C 0.85357 0.49521 0.89312 0.0
C993 C 0.86886 0.47944 0.86906 0.0
N994 N 0.9016 0.47982 0.82452 0.0
N995 N 0.8431 0.54362 0.91876 0.0
C996 C 0.88531 0.49572 0.84612 0.0
C997 C 0.8552 0.52783 0.8945 0.0
N998 N 0.89813 0.54481 0.82286 0.0
N999 N 0.83707 0.4789 0.91433 0.0
H1000 H 0.84272 0.56754 0.91985 0.0
H1001 H 0.83484 0.53334 0.93865 0.0
H1002 H 0.83689 0.45496 0.91521 0.0
H1003 H 0.82242 0.48876 0.93034 0.0
H1004 H 0.90619 0.53516 0.80261 0.0
H1005 H 0.89989 0.56869 0.82295 0.0
H1006 H 0.91687 0.48988 0.80917 0.0
H1007 H 0.90121 0.45595 0.82283 0.0
C1008 C 0.14987 0.01331 0.28916 0.0
C1009 C 0.12876 0.99519 0.30604 0.0
C1010 C 0.09124 0.03661 0.304 0.0
C1011 C 0.11487 0.05656 0.29458 0.0
N1012 N 0.16076 0.06292 0.26539 0.0
N1013 N 0.07856 0.98784 0.32772 0.0
C1014 C 0.14226 0.04438 0.2825 0.0
C1015 C 0.09872 0.00597 0.312 0.0
N1016 N 0.17748 0.00098 0.28105 0.0
N1017 N 0.06233 0.04809 0.30705 0.0
H1018 H 0.08413 0.96566 0.33476 0.0
H1019 H 0.05711 0.99518 0.33517 0.0
H1020 H 0.05754 0.07092 0.30141 0.0
H1021 H 0.04321 0.03482 0.31247 0.0
H1022 H 0.19503 0.0132 0.27045 0.0
H1023 H 0.18277 0.97799 0.28528 0.0
H1024 H 0.18128 0.05599 0.25539 0.0
H1025 H 0.15367 0.08492 0.25915 0.0
C1026 C 0.96336 0.10383 0.32853 0.0
C1027 C 0.94798 0.12612 0.31032 0.0
C1028 C 0.99607 0.15395 0.30232 0.0
C1029 C 0.01041 0.13412 0.32355 0.0
N1030 N 0.0117 0.0859 0.35002 0.0
N1031 N 0.95155 0.16378 0.27037 0.0
C1032 C 0.99527 0.10747 0.33429 0.0
C1033 C 0.96513 0.14834 0.29397 0.0
N1034 N 0.94736 0.08009 0.34124 0.0
N1035 N 0.01152 0.17904 0.29164 0.0
H1036 H 0.92909 0.15894 0.26358 0.0
H1037 H 0.9632 0.1788 0.25586 0.0
H1038 H 0.03442 0.18319 0.29714 0.0
H1039 H 0.00135 0.19637 0.27872 0.0
H1040 H 0.95599 0.06548 0.35802 0.0
H1041 H 0.92503 0.0749 0.33488 0.0
H1042 H 0.00309 0.06464 0.3567 0.0
H1043 H 0.03509 0.08843 0.35442 0.0
C1044 C 0.85489 0.94032 0.34022 0.0
C1045 C 0.87071 0.93241 0.31286 0.0
C1046 C 0.89151 0.98489 0.31076 0.0
C1047 C 0.87222 0.99289 0.33578 0.0
N1048 N 0.8574 0.97246 0.38479 0.0
N1049 N 0.90575 0.94693 0.27244 0.0
C1050 C 0.86054 0.96885 0.35392 0.0
C1051 C 0.88958 0.95465 0.29811 0.0
N1052 N 0.83301 0.9215 0.35238 0.0
N1053 N 0.91486 0.00413 0.30278 0.0
H1054 H 0.90661 0.92461 0.26391 0.0
H1055 H 0.91705 0.96292 0.25871 0.0
H1056 H 0.9208 0.02267 0.31665 0.0
H1057 H 0.93111 0.99927 0.28599 0.0
H1058 H 0.81978 0.92771 0.37133 0.0
H1059 H 0.82559 0.90173 0.34134 0.0
H1060 H 0.85107 0.95447 0.39931 0.0
H1061 H 0.8652 0.99225 0.39583 0.0
C1062 C 0.00438 0.87692 0.32534 0.0
C1063 C 0.99094 0.84869 0.31659 0.0
C1064 C 0.03828 0.83334 0.29087 0.0
C1065 C 0.05287 0.85954 0.30342 0.0
N1066 N 0.04769 0.91167 0.3204 0.0
N1067 N 0.99122 0.80365 0.28515 0.0
C1068 C 0.0351 0.8833 0.31646 0.0
C1069 C 0.00665 0.82821 0.297 0.0
N1070 N 0.98839 0.89655 0.34374 0.0
N1071 N 0.05535 0.81304 0.27424 0.0
H1072 H 0.96803 0.79981 0.28974 0.0
H1073 H 0.00057 0.78802 0.26978 0.0
H1074 H 0.07804 0.81779 0.26827 0.0
H1075 H 0.04736 0.79209 0.26612 0.0
H1076 H 0.99797 0.91596 0.35382 0.0
H1077 H 0.96574 0.89242 0.35029 0.0
H1078 H 0.03539 0.93065 0.32805 0.0
H1079 H 0.06967 0.91687 0.31262 0.0
C1080 C 0.1616 0.00051 0.68332 0.0
C1081 C 0.14164 0.01566 0.66264 0.0
C1082 C 0.10896 0.96979 0.66039 0.0
C1083 C 0.13183 0.95327 0.67649 0.0
N1084 N 0.17201 0.95469 0.71358 0.0
N1085 N 0.09532 0.01663 0.63303 0.0
C1086 C 0.15572 0.96936 0.69127 0.0
C1087 C 0.11465 0.00098 0.65207 0.0
N1088 N 0.18696 0.01554 0.69394 0.0
N1089 N 0.08165 0.95587 0.65412 0.0
H1090 H 0.0989 0.03963 0.62729 0.0
H1091 H 0.07669 0.00671 0.62191 0.0
H1092 H 0.07656 0.93394 0.66227 0.0
H1093 H 0.06311 0.96683 0.64386 0.0
H1094 H 0.20426 0.00504 0.70659 0.0
H1095 H 0.19139 0.03853 0.68883 0.0
H1096 H 0.18817 0.96542 0.72745 0.0
H1097 H 0.16678 0.93219 0.72008 0.0
C1098 C 0.04262 0.12321 0.6594 0.0
C1099 C 0.05821 0.14521 0.67772 0.0
C1100 C 0.01009 0.17229 0.68754 0.0
C1101 C 0.99521 0.15253 0.66664 0.0
N1102 N 0.99388 0.1055 0.63836 0.0
N1103 N 0.05545 0.18236 0.71813 0.0
C1104 C 0.01043 0.12653 0.65463 0.0
C1105 C 0.04132 0.16696 0.69486 0.0
N1106 N 0.05873 0.10017 0.64563 0.0
N1107 N 0.99476 0.19713 0.69887 0.0
H1108 H 0.07817 0.17788 0.72414 0.0
H1109 H 0.04406 0.19697 0.73318 0.0
H1110 H 0.97174 0.20134 0.69391 0.0
H1111 H 0.00518 0.2144 0.71165 0.0
H1112 H 0.04973 0.08552 0.62912 0.0
H1113 H 0.08152 0.09553 0.6509 0.0
H1114 H 0.0026 0.08478 0.6304 0.0
H1115 H 0.97041 0.1081 0.63442 0.0
C1116 C 0.83819 0.0232 0.69665 0.0
C1117 C 0.855 0.00655 0.67446 0.0
C1118 C 0.88712 0.05153 0.6642 0.0
C1119 C 0.86649 0.06924 0.68181 0.0
N1120 N 0.83233 0.07116 0.72454 0.0
N1121 N 0.89758 0.00236 0.63984 0.0
C1122 C 0.84525 0.05464 0.70138 0.0
C1123 C 0.88063 0.01985 0.65951 0.0
N1124 N 0.81426 0.00941 0.71147 0.0
N1125 N 0.91281 0.06511 0.65254 0.0
H1126 H 0.89344 0.97895 0.63686 0.0
H1127 H 0.91504 0.01091 0.62599 0.0
H1128 H 0.91845 0.08778 0.65776 0.0
H1129 H 0.92973 0.05358 0.64032 0.0
H1130 H 0.79897 0.02106 0.72562 0.0
H1131 H 0.80891 0.98626 0.70844 0.0
H1132 H 0.81838 0.06166 0.74147 0.0
H1133 H 0.8381 0.09414 0.72812 0.0
C1134 C 0.98354 0.89807 0.67 0.0
C1135 C 0.99896 0.87273 0.68312 0.0
C1136 C 0.95283 0.85838 0.71159 0.0
C1137 C 0.93632 0.88066 0.69466 0.0
N1138 N 0.93741 0.92933 0.66872 0.0
N1139 N 0.00192 0.83351 0.72153 0.0
C1140 C 0.95227 0.90328 0.67763 0.0
C1141 C 0.98478 0.85471 0.7061 0.0
N1142 N 0.99841 0.91583 0.64887 0.0
N1143 N 0.93732 0.84029 0.73197 0.0
H1144 H 0.02544 0.83128 0.71784 0.0
H1145 H 0.99356 0.81918 0.7387 0.0
H1146 H 0.91422 0.8441 0.73696 0.0
H1147 H 0.94697 0.8223 0.74431 0.0
H1148 H 0.98771 0.9327 0.63579 0.0
H1149 H 0.02154 0.91262 0.64358 0.0
H1150 H 0.94809 0.94765 0.65767 0.0
H1151 H 0.91491 0.93383 0.67536 0.0
C1152 C 0.3055 0.12682 0.00923 0.0
C1153 C 0.33084 0.14418 0.99827 0.0
C1154 C 0.34877 0.15003 0.05098 0.0
C1155 C 0.32778 0.12716 0.06091 0.0
N1156 N 0.28595 0.09299 0.04897 0.0
N1157 N 0.3807 0.16589 0.00872 0.0
C1158 C 0.30605 0.11526 0.03981 0.0
C1159 C 0.35358 0.15418 0.01916 0.0
N1160 N 0.28046 0.12255 0.99097 0.0
N1161 N 0.36387 0.16818 0.07149 0.0
H1162 H 0.38637 0.1667 0.98551 0.0
H1163 H 0.39896 0.17107 0.02327 0.0
H1164 H 0.35906 0.16807 0.09483 0.0
H1165 H 0.37794 0.18635 0.06472 0.0
H1166 H 0.26032 0.11217 0.99863 0.0
H1167 H 0.2786 0.13244 0.96926 0.0
H1168 H 0.27197 0.08102 0.03374 0.0
H1169 H 0.28437 0.0856 0.0717 0.0
C1170 C 0.86813 0.30844 0.03745 0.0
C1171 C 0.88837 0.33124 0.04906 0.0
C1172 C 0.88204 0.36124 0.00192 0.0
C1173 C 0.85969 0.34009 0.99184 0.0
N1174 N 0.82836 0.2957 0.00052 0.0
N1175 N 0.90905 0.38284 0.04493 0.0
C1176 C 0.85182 0.31426 0.0098 0.0
C1177 C 0.89398 0.35858 0.03198 0.0
N1178 N 0.8654 0.28086 0.05221 0.0
N1179 N 0.89234 0.38357 0.98241 0.0
H1180 H 0.91773 0.38264 0.06711 0.0
H1181 H 0.91036 0.40443 0.03468 0.0
H1182 H 0.88383 0.38635 0.96024 0.0
H1183 H 0.91118 0.39749 0.9872 0.0
H1184 H 0.85325 0.2623 0.04337 0.0
H1185 H 0.87745 0.27555 0.07218 0.0
H1186 H 0.81921 0.27817 0.01397 0.0
H1187 H 0.81648 0.29949 0.98009 0.0
C1188 C 0.70464 0.87426 0.01104 0.0
C1189 C 0.67613 0.86047 0.00213 0.0
C1190 C 0.66466 0.85061 0.05583 0.0
C1191 C 0.692 0.86543 0.06546 0.0
N1192 N 0.73407 0.89867 0.05153 0.0
N1193 N 0.62389 0.85354 0.01907 0.0
C1194 C 0.71109 0.87916 0.04288 0.0
C1195 C 0.65446 0.8546 0.02554 0.0
N1196 N 0.72522 0.8841 0.98982 0.0
N1197 N 0.64931 0.83077 0.07454 0.0
H1198 H 0.6154 0.85938 0.99746 0.0
H1199 H 0.6073 0.8508 0.03615 0.0
H1200 H 0.65794 0.82381 0.09561 0.0
H1201 H 0.63021 0.81835 0.06716 0.0
H1202 H 0.74859 0.88583 0.99463 0.0
H1203 H 0.71822 0.89685 0.97102 0.0
H1204 H 0.74691 0.91154 0.03596 0.0
H1205 H 0.73835 0.90439 0.07432 0.0
C1206 C 0.09319 0.68574 0.04064 0.0
C1207 C 0.1174 0.70051 0.05659 0.0
C1208 C 0.15123 0.69469 0.01196 0.0
C1209 C 0.12739 0.6791 0.99657 0.0
N1210 N 0.07473 0.6634 0.99308 0.0
N1211 N 0.16765 0.72414 0.05617 0.0
C1212 C 0.09798 0.67585 0.00999 0.0
C1213 C 0.14579 0.70689 0.04172 0.0
N1214 N 0.06593 0.68058 0.05529 0.0
N1215 N 0.17949 0.69637 0.99846 0.0
H1216 H 0.16516 0.73262 0.07832 0.0
H1217 H 0.18765 0.7319 0.0457 0.0
H1218 H 0.18373 0.68786 0.97651 0.0
H1219 H 0.19913 0.70443 0.00932 0.0
H1220 H 0.04843 0.66681 0.04673 0.0
H1221 H 0.06096 0.68989 0.07674 0.0
H1222 H 0.0519 0.66275 -0.0 0.0
H1223 H 0.07807 0.6549 0.97102 0.0
C1224 C 0.33646 0.82955 0.97136 0.0
C1225 C 0.32537 0.8484 0.99527 0.0
C1226 C 0.28768 0.87034 0.95927 0.0
C1227 C 0.29519 0.84711 0.93785 0.0
N1228 N 0.32344 0.80094 0.92611 0.0
N1229 N 0.30512 0.89909 0.00332 0.0
C1230 C 0.31841 0.82546 0.94487 0.0
C1231 C 0.30461 0.87232 0.98718 0.0
N1232 N 0.36628 0.82021 0.97126 0.0
N1233 N 0.26471 0.89066 0.95287 0.0
H1234 H 0.32209 0.90337 0.01959 0.0
H1235 H 0.2924 0.91845 0.9975 0.0
H1236 H 0.25262 0.8904 0.93225 0.0
H1237 H 0.25606 0.90606 0.96893 0.0
H1238 H 0.37608 0.80834 0.95296 0.0
H1239 H 0.38221 0.82937 0.98658 0.0
H1240 H 0.33906 0.78362 0.93151 0.0
H1241 H 0.30961 0.79636 0.90717 0.0
C1242 C 0.10295 0.32187 0.97247 0.0
C1243 C 0.11877 0.29778 0.95717 0.0
C1244 C 0.15009 0.28889 0.00309 0.0
C1245 C 0.1352 0.31363 0.01778 0.0
N1246 N 0.09396 0.34978 0.02005 0.0
N1247 N 0.15062 0.25249 0.96131 0.0
C1248 C 0.11037 0.32883 0.00352 0.0
C1249 C 0.14006 0.27928 0.9736 0.0
N1250 N 0.08096 0.33811 0.9571 0.0
N1251 N 0.17502 0.27573 0.01675 0.0
H1252 H 0.1446 0.2447 0.93961 0.0
H1253 H 0.16335 0.23652 0.97372 0.0
H1254 H 0.18241 0.28192 0.03862 0.0
H1255 H 0.18954 0.26031 0.00572 0.0
H1256 H 0.07089 0.35812 0.96529 0.0
H1257 H 0.07304 0.33168 0.9355 0.0
H1258 H 0.07403 0.36035 0.01229 0.0
H1259 H 0.09933 0.35509 0.04275 0.0
C1260 C 0.72706 0.13886 0.9778 0.0
C1261 C 0.70149 0.12498 0.99224 0.0
C1262 C 0.69323 0.09209 0.9477 0.0
C1263 C 0.71554 0.10933 0.93137 0.0
N1264 N 0.75976 0.1427 0.93279 0.0
N1265 N 0.66078 0.08799 0.99284 0.0
C1266 C 0.73466 0.13052 0.94712 0.0
C1267 C 0.68513 0.10098 0.97792 0.0
N1268 N 0.74264 0.1614 0.99303 0.0
N1269 N 0.68047 0.06683 0.93427 0.0
H1270 H 0.6551 0.09362 0.01539 0.0
H1271 H 0.64546 0.07277 0.9827 0.0
H1272 H 0.68754 0.05911 0.91284 0.0
H1273 H 0.6654 0.05189 0.94525 0.0
H1274 H 0.75978 0.17493 0.98341 0.0
H1275 H 0.73765 0.16723 0.01569 0.0
H1276 H 0.77618 0.15613 0.94367 0.0
H1277 H 0.76568 0.13772 0.91025 0.0
C1278 C 0.9142 0.68629 0.96048 0.0
C1279 C 0.89821 0.71132 0.947 0.0
C1280 C 0.86216 0.71191 0.99006 0.0
C1281 C 0.87702 0.68593 0.00257 0.0
N1282 N 0.92061 0.65251 0.00459 0.0
N1283 N 0.86482 0.75485 0.95493 0.0
C1284 C 0.90432 0.67452 0.98933 0.0
C1285 C 0.87479 0.7265 0.96377 0.0
N1286 N 0.93834 0.6735 0.94514 0.0
N1287 N 0.83509 0.72164 0.00247 0.0
H1288 H 0.87463 0.76708 0.93693 0.0
H1289 H 0.84944 0.7679 0.96771 0.0
H1290 H 0.82533 0.71139 0.02178 0.0
H1291 H 0.82115 0.73818 0.99231 0.0
H1292 H 0.94897 0.6531 0.95156 0.0
H1293 H 0.94741 0.68335 0.92527 0.0
H1294 H 0.94201 0.64457 0.99766 0.0
H1295 H 0.91343 0.64361 0.02565 0.0
C1296 C 0.00932 0.29004 0.12966 0.0
C1297 C 0.00072 0.31703 0.14581 0.0
C1298 C 0.05443 0.3249 0.15996 0.0
C1299 C 0.06323 0.29698 0.14547 0.0
N1300 N 0.04502 0.24809 0.12535 0.0
N1301 N 0.01943 0.36746 0.15806 0.0
C1302 C 0.03959 0.27797 0.13301 0.0
C1303 C 0.02457 0.33667 0.15568 0.0
N1304 N 0.99105 0.27908 0.10687 0.0
N1305 N 0.07369 0.33922 0.18005 0.0
H1306 H 0.9988 0.37738 0.15102 0.0
H1307 H 0.0369 0.38318 0.16266 0.0
H1308 H 0.09428 0.32951 0.1872 0.0
H1309 H 0.06715 0.35842 0.19272 0.0
H1310 H 0.99688 0.26033 0.09325 0.0
H1311 H 0.97445 0.29293 0.0968 0.0
H1312 H 0.02746 0.23312 0.11902 0.0
H1313 H 0.0655 0.23673 0.12944 0.0
C1314 C 0.01984 0.66907 0.86936 0.0
C1315 C 0.00284 0.68583 0.8475 0.0
C1316 C 0.04249 0.72581 0.8465 0.0
C1317 C 0.05786 0.71058 0.87095 0.0
N1318 N 0.0568 0.67175 0.91035 0.0
N1319 N 0.99627 0.73006 0.8155 0.0
C1320 C 0.04573 0.68294 0.88332 0.0
C1321 C 0.01381 0.71419 0.83603 0.0
N1322 N 0.01047 0.64027 0.8775 0.0
N1323 N 0.05548 0.7512 0.83326 0.0
H1324 H 0.97606 0.72102 0.80648 0.0
H1325 H 0.00083 0.75234 0.80821 0.0
H1326 H 0.0769 0.75973 0.83958 0.0
H1327 H 0.04619 0.76295 0.81471 0.0
H1328 H 0.02361 0.62552 0.89094 0.0
H1329 H 0.99068 0.63018 0.86862 0.0
H1330 H 0.04736 0.65305 0.92189 0.0
H1331 H 0.07283 0.68372 0.92324 0.0
C1332 C 0.33439 0.01694 0.9067 0.0
C1333 C 0.31528 0.03726 0.89006 0.0
C1334 C 0.29359 0.99408 0.86156 0.0
C1335 C 0.31629 0.97469 0.87436 0.0
N1336 N 0.35352 0.96471 0.91348 0.0
N1337 N 0.26903 0.04433 0.86175 0.0
C1338 C 0.33479 0.98514 0.8989 0.0
C1339 C 0.29202 0.02534 0.87103 0.0
N1340 N 0.35312 0.02887 0.92874 0.0
N1341 N 0.27498 0.98291 0.83905 0.0
H1342 H 0.26777 0.06691 0.86963 0.0
H1343 H 0.25013 0.03711 0.84909 0.0
H1344 H 0.2755 0.95989 0.83249 0.0
H1345 H 0.25993 0.99639 0.82633 0.0
H1346 H 0.36914 0.01634 0.94118 0.0
H1347 H 0.35169 0.05195 0.93502 0.0
H1348 H 0.36781 0.97019 0.93174 0.0
H1349 H 0.35388 0.94146 0.90772 0.0
C1350 C 0.96002 0.29193 0.86127 0.0
C1351 C 0.9431 0.30909 0.88327 0.0
C1352 C 0.98971 0.33858 0.89587 0.0
C1353 C 0.00512 0.32426 0.87123 0.0
N1354 N 0.00596 0.28816 0.82987 0.0
N1355 N 0.94208 0.34701 0.92351 0.0
C1356 C 0.99068 0.3008 0.8541 0.0
C1357 C 0.95814 0.33183 0.9013 0.0
N1358 N 0.94685 0.26724 0.84714 0.0
N1359 N 0.0057 0.35833 0.91421 0.0
H1360 H 0.9199 0.34082 0.92983 0.0
H1361 H 0.95015 0.36614 0.93524 0.0
H1362 H 0.0287 0.36371 0.91026 0.0
H1363 H 0.99713 0.36799 0.93424 0.0
H1364 H 0.95912 0.2515 0.83406 0.0
H1365 H 0.92392 0.26114 0.84982 0.0
H1366 H 0.9959 0.27359 0.81388 0.0
H1367 H 0.02862 0.29379 0.82472 0.0
C1368 C 0.64235 0.00182 0.87837 0.0
C1369 C 0.66379 0.00881 0.85504 0.0
C1370 C 0.69191 0.96153 0.86666 0.0
C1371 C 0.66835 0.95279 0.88747 0.0
N1372 N 0.61729 0.96213 0.90757 0.0
N1373 N 0.70719 0.99469 0.8244 0.0
C1374 C 0.64252 0.97226 0.89191 0.0
C1375 C 0.6881 0.98842 0.84843 0.0
N1376 N 0.62241 0.02383 0.88835 0.0
N1377 N 0.7184 0.94485 0.86529 0.0
H1378 H 0.70494 0.01453 0.81113 0.0
H1379 H 0.72354 0.97931 0.81625 0.0
H1380 H 0.72221 0.92551 0.87889 0.0
H1381 H 0.73756 0.95165 0.85272 0.0
H1382 H 0.60857 0.02105 0.90765 0.0
H1383 H 0.6219 0.04599 0.87932 0.0
H1384 H 0.59671 0.97427 0.90829 0.0
H1385 H 0.61554 0.94036 0.91721 0.0
C1386 C 0.99104 0.66112 0.12157 0.0
C1387 C 0.00476 0.66777 0.15016 0.0
C1388 C 0.9552 0.68219 0.17151 0.0
C1389 C 0.94095 0.67556 0.1428 0.0
N1390 N 0.947 0.66668 0.08829 0.0
N1391 N 0.00246 0.69291 0.19884 0.0
C1392 C 0.95946 0.66802 0.11696 0.0
C1393 C 0.98759 0.68126 0.17389 0.0
N1394 N 0.00776 0.64641 0.09956 0.0
N1395 N 0.93782 0.68746 0.19707 0.0
H1396 H 0.0263 0.69223 0.20089 0.0
H1397 H 0.99159 0.70577 0.21578 0.0
H1398 H 0.91398 0.68846 0.19675 0.0
H1399 H 0.94691 0.6887 0.21911 0.0
H1400 H 0.99831 0.63762 0.07949 0.0
H1401 H 0.03086 0.64089 0.10247 0.0
H1402 H 0.96002 0.66392 0.06846 0.0
H1403 H 0.92412 0.67142 0.08377 0.0
C1404 C 0.31731 0.98627 0.15302 0.0
C1405 C 0.33887 0.00443 0.13693 0.0
C1406 C 0.33816 0.9681 0.09399 0.0
C1407 C 0.31536 0.9507 0.10951 0.0
N1408 N 0.27931 0.94555 0.15115 0.0
N1409 N 0.36826 0.01501 0.09152 0.0
C1410 C 0.30381 0.96044 0.13834 0.0
C1411 C 0.34894 0.99592 0.10724 0.0
N1412 N 0.31053 0.99341 0.18273 0.0
N1413 N 0.34988 0.95767 0.06684 0.0
H1414 H 0.37757 0.0348 0.10118 0.0
H1415 H 0.37387 0.01236 0.06849 0.0
H1416 H 0.34165 0.9381 0.05589 0.0
H1417 H 0.3689 0.96716 0.05596 0.0
H1418 H 0.29728 0.9796 0.19705 0.0
H1419 H 0.32043 0.01215 0.19382 0.0
H1420 H 0.26783 0.95326 0.1706 0.0
H1421 H 0.26911 0.92632 0.1412 0.0
C1422 C 0.63487 0.03267 0.12246 0.0
C1423 C 0.66251 0.04884 0.12835 0.0
C1424 C 0.6853 0.0026 0.15069 0.0
C1425 C 0.65768 0.98662 0.14498 0.0
N1426 N 0.60921 0.98322 0.11925 0.0
N1427 N 0.71659 0.0473 0.13994 0.0
C1428 C 0.63342 0.0007 0.12875 0.0
C1429 C 0.68867 0.03309 0.13963 0.0
N1430 N 0.6098 0.0481 0.11174 0.0
N1431 N 0.70754 0.98919 0.16821 0.0
H1432 H 0.7199 0.06923 0.13109 0.0
H1433 H 0.73693 0.03627 0.14585 0.0
H1434 H 0.70557 0.96688 0.1767 0.0
H1435 H 0.72675 0.00086 0.1763 0.0
H1436 H 0.58794 0.03856 0.11049 0.0
H1437 H 0.61073 0.07107 0.10516 0.0
H1438 H 0.59185 0.99133 0.10501 0.0
H1439 H 0.60796 0.95967 0.12357 0.0
C1440 C 0.10322 0.2487 0.28112 0.0
C1441 C 0.12301 0.22263 0.28425 0.0
C1442 C 0.16154 0.24867 0.25305 0.0
C1443 C 0.14229 0.2742 0.24925 0.0
N1444 N 0.09299 0.29755 0.25543 0.0
N1445 N 0.16057 0.19388 0.25547 0.0
C1446 C 0.11251 0.27398 0.26217 0.0
C1447 C 0.14942 0.22129 0.26539 0.0
N1448 N 0.07505 0.24871 0.2948 0.0
N1449 N 0.19155 0.25034 0.24471 0.0
H1450 H 0.14849 0.17347 0.25847 0.0
H1451 H 0.17789 0.1926 0.23904 0.0
H1452 H 0.20118 0.27006 0.23506 0.0
H1453 H 0.20693 0.23289 0.25023 0.0
H1454 H 0.06161 0.26827 0.29737 0.0
H1455 H 0.06458 0.22874 0.30274 0.0
H1456 H 0.06983 0.2978 0.2612 0.0
H1457 H 0.09995 0.31659 0.24265 0.0
C1458 C 0.74681 0.08321 0.22363 0.0
C1459 C 0.75266 0.10928 0.20512 0.0
C1460 C 0.80624 0.10885 0.22176 0.0
C1461 C 0.79737 0.0901 0.2468 0.0
N1462 N 0.76323 0.05164 0.26662 0.0
N1463 N 0.78902 0.14444 0.18252 0.0
C1464 C 0.76898 0.07432 0.24574 0.0
C1465 C 0.78294 0.12098 0.20241 0.0
N1466 N 0.7202 0.06716 0.21961 0.0
N1467 N 0.83655 0.11468 0.21656 0.0
H1468 H 0.77216 0.15518 0.16949 0.0
H1469 H 0.8105 0.15451 0.17997 0.0
H1470 H 0.85379 0.10328 0.22856 0.0
H1471 H 0.84474 0.1273 0.19801 0.0
H1472 H 0.71497 0.04682 0.231 0.0
H1473 H 0.70434 0.07302 0.20267 0.0
H1474 H 0.74196 0.04119 0.26959 0.0
H1475 H 0.78034 0.04346 0.28127 0.0
C1476 C 0.88475 0.77192 0.24418 0.0
C1477 C 0.86309 0.77599 0.26805 0.0
C1478 C 0.82854 0.73867 0.24409 0.0
C1479 C 0.85167 0.73164 0.22257 0.0
N1480 N 0.8976 0.74791 0.19582 0.0
N1481 N 0.81439 0.76356 0.29148 0.0
C1482 C 0.87851 0.75027 0.22054 0.0
C1483 C 0.83479 0.75976 0.26797 0.0
N1484 N 0.91221 0.78712 0.24539 0.0
N1485 N 0.79999 0.7262 0.24048 0.0
H1486 H 0.81684 0.78036 0.30828 0.0
H1487 H 0.7957 0.74915 0.29524 0.0
H1488 H 0.79459 0.71167 0.22227 0.0
H1489 H 0.78092 0.73261 0.25334 0.0
H1490 H 0.93089 0.78219 0.23138 0.0
H1491 H 0.91712 0.80381 0.26178 0.0
H1492 H 0.91549 0.76307 0.19128 0.0
H1493 H 0.89447 0.73226 0.1782 0.0
C1494 C 0.27334 0.89863 0.25439 0.0
C1495 C 0.27193 0.87783 0.22938 0.0
C1496 C 0.21721 0.87118 0.23798 0.0
C1497 C 0.218 0.89139 0.26311 0.0
N1498 N 0.24536 0.9311 0.28992 0.0
N1499 N 0.24712 0.83023 0.2177 0.0
C1500 C 0.24576 0.90717 0.26975 0.0
C1501 C 0.24509 0.86015 0.22609 0.0
N1502 N 0.30121 0.90659 0.26615 0.0
N1503 N 0.19031 0.86301 0.22452 0.0
H1504 H 0.26822 0.819 0.21627 0.0
H1505 H 0.22813 0.81585 0.21827 0.0
H1506 H 0.16923 0.8722 0.23097 0.0
H1507 H 0.1902 0.85073 0.20401 0.0
H1508 H 0.30394 0.9196 0.28597 0.0
H1509 H 0.32143 0.89634 0.25847 0.0
H1510 H 0.26416 0.94537 0.29374 0.0
H1511 H 0.22507 0.93866 0.30017 0.0
C1512 C 0.08589 0.77131 0.7333 0.0
C1513 C 0.11228 0.79043 0.73247 0.0
C1514 C 0.138 0.7563 0.76895 0.0
C1515 C 0.11113 0.73799 0.77117 0.0
N1516 N 0.05698 0.73266 0.76102 0.0
N1517 N 0.15957 0.8059 0.75616 0.0
C1518 C 0.08426 0.74687 0.75499 0.0
C1519 C 0.137 0.78455 0.75263 0.0
N1520 N 0.06266 0.77605 0.71282 0.0
N1521 N 0.16511 0.74569 0.78051 0.0
H1522 H 0.15884 0.82702 0.74504 0.0
H1523 H 0.17683 0.80402 0.77258 0.0
H1524 H 0.16731 0.72416 0.79074 0.0
H1525 H 0.18603 0.75667 0.77674 0.0
H1526 H 0.04458 0.76073 0.7097 0.0
H1527 H 0.06238 0.79464 0.69772 0.0
H1528 H 0.0361 0.7401 0.75214 0.0
H1529 H 0.05463 0.71555 0.77756 0.0
C1530 C 0.25023 0.10578 0.71766 0.0
C1531 C 0.22042 0.11333 0.72831 0.0
C1532 C 0.23948 0.10675 0.78062 0.0
C1533 C 0.27031 0.10793 0.76973 0.0
N1534 N 0.30363 0.11623 0.72596 0.0
N1535 N 0.18732 0.12324 0.7719 0.0
C1536 C 0.27546 0.10916 0.73766 0.0
C1537 C 0.21496 0.11416 0.76038 0.0
N1538 N 0.25452 0.09567 0.68836 0.0
N1539 N 0.23345 0.09752 0.80986 0.0
H1540 H 0.16858 0.12892 0.75831 0.0
H1541 H 0.18386 0.12739 0.79519 0.0
H1542 H 0.25067 0.08971 0.82437 0.0
H1543 H 0.21127 0.09403 0.81812 0.0
H1544 H 0.27582 0.08823 0.68037 0.0
H1545 H 0.23617 0.09123 0.67363 0.0
H1546 H 0.30737 0.11928 0.70253 0.0
H1547 H 0.32197 0.12328 0.73952 0.0
C1548 C 0.84694 0.27377 0.74528 0.0
C1549 C 0.87188 0.28184 0.76434 0.0
C1550 C 0.90187 0.23872 0.74418 0.0
C1551 C 0.8782 0.23279 0.72275 0.0
N1552 N 0.829 0.24593 0.70087 0.0
N1553 N 0.92428 0.27534 0.77967 0.0
C1554 C 0.85086 0.25057 0.72286 0.0
C1555 C 0.89963 0.26501 0.7634 0.0
N1556 N 0.8193 0.28799 0.74911 0.0
N1557 N 0.92644 0.21936 0.74595 0.0
H1558 H 0.9232 0.29485 0.79347 0.0
H1559 H 0.94624 0.26621 0.77758 0.0
H1560 H 0.92865 0.20008 0.73197 0.0
H1561 H 0.94326 0.22092 0.76282 0.0
H1562 H 0.79911 0.28067 0.73867 0.0
H1563 H 0.81602 0.30588 0.76459 0.0
H1564 H 0.81072 0.26083 0.69706 0.0
H1565 H 0.82966 0.2277 0.68544 0.0
C1566 C 0.71413 0.89197 0.74379 0.0
C1567 C 0.71906 0.88712 0.77544 0.0
C1568 C 0.77476 0.8867 0.76659 0.0
C1569 C 0.76957 0.89265 0.73493 0.0
N1570 N 0.73484 0.91372 0.69727 0.0
N1571 N 0.75425 0.89091 0.81799 0.0
C1572 C 0.73937 0.8995 0.72483 0.0
C1573 C 0.74947 0.88787 0.78723 0.0
N1574 N 0.6857 0.8878 0.73141 0.0
N1575 N 0.80315 0.87869 0.77706 0.0
H1576 H 0.73635 0.89361 0.83355 0.0
H1577 H 0.77588 0.89441 0.82753 0.0
H1578 H 0.82261 0.878 0.76335 0.0
H1579 H 0.80692 0.87055 0.79923 0.0
H1580 H 0.68167 0.88846 0.70786 0.0
H1581 H 0.66693 0.88037 0.74427 0.0
H1582 H 0.71332 0.92116 0.68995 0.0
H1583 H 0.75302 0.92141 0.68367 0.0
C1584 C 0.25113 0.08684 0.26653 0.0
C1585 C 0.23604 0.11519 0.27168 0.0
C1586 C 0.25448 0.13349 0.22199 0.0
C1587 C 0.27507 0.10857 0.22014 0.0
N1588 N 0.29265 0.06028 0.24055 0.0
N1589 N 0.22947 0.16791 0.25705 0.0
C1590 C 0.27315 0.08471 0.24237 0.0
C1591 C 0.23908 0.13907 0.24999 0.0
N1592 N 0.24381 0.06192 0.28407 0.0
N1593 N 0.24917 0.15167 0.19716 0.0
H1594 H 0.22014 0.17361 0.27832 0.0
H1595 H 0.23414 0.18659 0.24294 0.0
H1596 H 0.25894 0.14735 0.17584 0.0
H1597 H 0.23163 0.16794 0.19696 0.0
H1598 H 0.25217 0.03995 0.2798 0.0
H1599 H 0.22696 0.06272 0.30104 0.0
H1600 H 0.29481 0.04385 0.2578 0.0
H1601 H 0.30756 0.05729 0.22207 0.0
C1602 C 0.84917 0.22845 0.19302 0.0
C1603 C 0.87583 0.24681 0.19351 0.0
C1604 C 0.89143 0.22394 0.24234 0.0
C1605 C 0.86264 0.20899 0.24388 0.0
N1606 N 0.81296 0.19838 0.22273 0.0
N1607 N 0.92632 0.25624 0.21284 0.0
C1608 C 0.84138 0.21113 0.21949 0.0
C1609 C 0.89842 0.24235 0.21633 0.0
N1610 N 0.83175 0.22737 0.16708 0.0
N1611 N 0.91087 0.22218 0.26682 0.0
H1612 H 0.93154 0.26923 0.19338 0.0
H1613 H 0.94482 0.25319 0.22756 0.0
H1614 H 0.90577 0.20919 0.28628 0.0
H1615 H 0.93135 0.23427 0.26862 0.0
H1616 H 0.81285 0.21299 0.16445 0.0
H1617 H 0.83841 0.23872 0.14706 0.0
H1618 H 0.79483 0.20302 0.2079 0.0
H1619 H 0.80702 0.1847 0.24149 0.0
C1620 C 0.72589 0.83318 0.24331 0.0
C1621 C 0.72454 0.862 0.22795 0.0
C1622 C 0.76182 0.88352 0.26415 0.0
C1623 C 0.76276 0.85486 0.2796 0.0
N1624 N 0.74996 0.80139 0.28221 0.0
N1625 N 0.74363 0.91332 0.22047 0.0
C1626 C 0.74598 0.8294 0.26863 0.0
C1627 C 0.74351 0.88676 0.23723 0.0
N1628 N 0.70726 0.80964 0.23409 0.0
N1629 N 0.77775 0.90773 0.27609 0.0
H1630 H 0.73005 0.91637 0.20103 0.0
H1631 H 0.75831 0.93171 0.22449 0.0
H1632 H 0.79098 0.90577 0.29592 0.0
H1633 H 0.77675 0.93005 0.26768 0.0
H1634 H 0.70403 0.78943 0.2464 0.0
H1635 H 0.69393 0.81064 0.2143 0.0
H1636 H 0.74164 0.78085 0.27335 0.0
H1637 H 0.76318 0.79841 0.30187 0.0
C1638 C 0.13472 0.7598 0.20619 0.0
C1639 C 0.11775 0.73275 0.2118 0.0
C1640 C 0.10992 0.74929 0.26517 0.0
C1641 C 0.13318 0.7716 0.26109 0.0
N1642 N 0.16977 0.79624 0.22837 0.0
N1643 N 0.08438 0.70394 0.24522 0.0
C1644 C 0.14573 0.77669 0.23165 0.0
C1645 C 0.10361 0.72834 0.24091 0.0
N1646 N 0.14037 0.76941 0.17691 0.0
N1647 N 0.09339 0.74889 0.29177 0.0
H1648 H 0.07712 0.69013 0.22707 0.0
H1649 H 0.07617 0.69706 0.26657 0.0
H1650 H 0.09704 0.76474 0.30928 0.0
H1651 H 0.07437 0.73489 0.29539 0.0
H1652 H 0.15065 0.79038 0.17169 0.0
H1653 H 0.13098 0.75873 0.1578 0.0
H1654 H 0.18049 0.79972 0.20749 0.0
H1655 H 0.18083 0.80636 0.24698 0.0
C1656 C 0.25122 0.886 0.76361 0.0
C1657 C 0.26456 0.85836 0.77433 0.0
C1658 C 0.23648 0.82939 0.73536 0.0
C1659 C 0.22599 0.85728 0.72251 0.0
N1660 N 0.2284 0.9122 0.72017 0.0
N1661 N 0.27558 0.8046 0.76562 0.0
C1662 C 0.23455 0.88568 0.73562 0.0
C1663 C 0.25882 0.83023 0.75888 0.0
N1664 N 0.25491 0.91254 0.77983 0.0
N1665 N 0.22457 0.80211 0.72559 0.0
H1666 H 0.29236 0.80409 0.78258 0.0
H1667 H 0.27449 0.78452 0.75272 0.0
H1668 H 0.2075 0.80073 0.70891 0.0
H1669 H 0.22919 0.78124 0.73636 0.0
H1670 H 0.24345 0.93283 0.7745 0.0
H1671 H 0.26754 0.91352 0.80012 0.0
H1672 H 0.23687 0.93354 0.72683 0.0
H1673 H 0.21729 0.91228 0.69898 0.0
C1674 C 0.09972 0.26248 0.77291 0.0
C1675 C 0.11563 0.25889 0.80112 0.0
C1676 C 0.14772 0.2189 0.77835 0.0
C1677 C 0.13389 0.22458 0.74951 0.0
N1678 N 0.09195 0.24514 0.72045 0.0
N1679 N 0.14398 0.22424 0.83358 0.0
C1680 C 0.10811 0.24416 0.74725 0.0
C1681 C 0.13607 0.23389 0.8049 0.0
N1682 N 0.07735 0.28433 0.77063 0.0
N1683 N 0.17311 0.20066 0.78002 0.0
H1684 H 0.13425 0.23358 0.85329 0.0
H1685 H 0.1573 0.20482 0.83769 0.0
H1686 H 0.18239 0.18981 0.76085 0.0
H1687 H 0.18628 0.19829 0.79982 0.0
H1688 H 0.06693 0.29086 0.7502 0.0
H1689 H 0.06961 0.29652 0.7897 0.0
H1690 H 0.0715 0.25707 0.71757 0.0
H1691 H 0.09789 0.23186 0.70148 0.0
C1692 C 0.73709 0.16871 0.7671 0.0
C1693 C 0.73085 0.13789 0.77579 0.0
C1694 C 0.76256 0.11958 0.73327 0.0
C1695 C 0.77073 0.15028 0.72641 0.0
N1696 N 0.7707 0.20364 0.73989 0.0
N1697 N 0.74101 0.08383 0.77027 0.0
C1698 C 0.75962 0.17469 0.74446 0.0
C1699 C 0.7449 0.11322 0.76 0.0
N1700 N 0.72027 0.19224 0.77906 0.0
N1701 N 0.7702 0.09685 0.7132 0.0
H1702 H 0.72777 0.07854 0.78952 0.0
H1703 H 0.75287 0.06514 0.76127 0.0
H1704 H 0.78282 0.10113 0.69331 0.0
H1705 H 0.76226 0.07437 0.71509 0.0
H1706 H 0.72106 0.21449 0.77031 0.0
H1707 H 0.70345 0.18905 0.79573 0.0
H1708 H 0.76597 0.22195 0.75449 0.0
H1709 H 0.78674 0.20859 0.72287 0.0
C1710 C 0.86063 0.7749 0.79924 0.0
C1711 C 0.88317 0.7521 0.79404 0.0
C1712 C 0.89025 0.77133 0.74168 0.0
C1713 C 0.86304 0.78867 0.74492 0.0
N1714 N 0.8209 0.80601 0.77597 0.0
N1715 N 0.92195 0.73012 0.76145 0.0
C1716 C 0.84809 0.79066 0.77366 0.0
C1717 C 0.89912 0.75118 0.76567 0.0
N1718 N 0.85119 0.78143 0.82835 0.0
N1719 N 0.90757 0.77446 0.71576 0.0
H1720 H 0.92994 0.71624 0.77924 0.0
H1721 H 0.93208 0.72559 0.74031 0.0
H1722 H 0.90154 0.78938 0.69804 0.0
H1723 H 0.92913 0.76459 0.71299 0.0
H1724 H 0.83619 0.7993 0.83352 0.0
H1725 H 0.86104 0.77129 0.8476 0.0
H1726 H 0.80727 0.80562 0.7956 0.0
H1727 H 0.81067 0.81689 0.75728 0.0
C1728 C 0.25438 0.22917 0.16598 0.0
C1729 C 0.27728 0.22589 0.14337 0.0
C1730 C 0.2466 0.2574 0.10822 0.0
C1731 C 0.22325 0.25974 0.13096 0.0
N1732 N 0.20062 0.23682 0.17587 0.0
N1733 N 0.29342 0.232 0.09114 0.0
C1734 C 0.22572 0.24217 0.15806 0.0
C1735 C 0.27269 0.2383 0.11372 0.0
N1736 N 0.2604 0.22124 0.19557 0.0
N1737 N 0.24403 0.274 0.08176 0.0
H1738 H 0.3131 0.21896 0.09518 0.0
H1739 H 0.29025 0.23799 0.06824 0.0
H1740 H 0.22434 0.28653 0.07644 0.0
H1741 H 0.26157 0.27612 0.06568 0.0
H1742 H 0.24611 0.22799 0.21346 0.0
H1743 H 0.28061 0.21042 0.20236 0.0
H1744 H 0.20097 0.22077 0.19361 0.0
H1745 H 0.17883 0.24461 0.17009 0.0
C1746 C 0.24326 0.69451 0.861 0.0
C1747 C 0.21443 0.70785 0.86824 0.0
C1748 C 0.23151 0.75615 0.84493 0.0
C1749 C 0.26207 0.745 0.84404 0.0
N1750 N 0.28892 0.69903 0.82981 0.0
N1751 N 0.18182 0.75277 0.86902 0.0
C1752 C 0.2661 0.71272 0.8462 0.0
C1753 C 0.20862 0.73898 0.86045 0.0
N1754 N 0.2489 0.6645 0.86812 0.0
N1755 N 0.22341 0.7808 0.82745 0.0
H1756 H 0.16476 0.74151 0.88146 0.0
H1757 H 0.17797 0.77624 0.8664 0.0
H1758 H 0.23842 0.79017 0.81137 0.0
H1759 H 0.20089 0.78855 0.82535 0.0
H1760 H 0.27064 0.65469 0.86657 0.0
H1761 H 0.23229 0.64994 0.87738 0.0
H1762 H 0.29183 0.67534 0.82847 0.0
H1763 H 0.30152 0.71121 0.81346 0.0
C1764 C 0.25093 0.21072 0.89463 0.0
C1765 C 0.26546 0.20244 0.86665 0.0
C1766 C 0.24365 0.24831 0.84179 0.0
C1767 C 0.22875 0.25619 0.86946 0.0
N1768 N 0.2114 0.24089 0.9195 0.0
N1769 N 0.2691 0.20916 0.8118 0.0
C1770 C 0.23032 0.23611 0.89506 0.0
C1771 C 0.25963 0.21992 0.83964 0.0
N1772 N 0.25803 0.19565 0.9212 0.0
N1773 N 0.2438 0.26878 0.81803 0.0
H1774 H 0.28087 0.18853 0.80926 0.0
H1775 H 0.26278 0.21911 0.79102 0.0
H1776 H 0.23273 0.28996 0.81917 0.0
H1777 H 0.25701 0.266 0.79833 0.0
H1778 H 0.2513 0.20333 0.94279 0.0
H1779 H 0.27229 0.17653 0.92209 0.0
H1780 H 0.20912 0.22541 0.93758 0.0
H1781 H 0.19575 0.25893 0.92014 0.0
C1782 C 0.74137 0.2509 0.84382 0.0
C1783 C 0.73544 0.23271 0.86997 0.0
C1784 C 0.77926 0.25621 0.89654 0.0
C1785 C 0.78581 0.27351 0.86968 0.0
N1786 N 0.77783 0.28196 0.81572 0.0
N1787 N 0.74947 0.21507 0.92011 0.0
C1788 C 0.76831 0.26906 0.84266 0.0
C1789 C 0.75483 0.23433 0.89598 0.0
N1790 N 0.7203 0.25197 0.82071 0.0
N1791 N 0.79537 0.26179 0.92282 0.0
H1792 H 0.73097 0.19985 0.92046 0.0
H1793 H 0.76398 0.21304 0.93892 0.0
H1794 H 0.8138 0.27703 0.92365 0.0
H1795 H 0.78978 0.25248 0.94409 0.0
H1796 H 0.72159 0.26732 0.80242 0.0
H1797 H 0.70004 0.23924 0.8212 0.0
H1798 H 0.76782 0.27711 0.79459 0.0
H1799 H 0.79773 0.29516 0.81418 0.0
C1800 C 0.75928 0.79662 0.8934 0.0
C1801 C 0.73462 0.79582 0.87212 0.0
C1802 C 0.75432 0.74732 0.85098 0.0
C1803 C 0.77877 0.74826 0.87206 0.0
N1804 N 0.80991 0.77752 0.90665 0.0
N1805 N 0.71394 0.775 0.825 0.0
C1806 C 0.78296 0.77421 0.89113 0.0
C1807 C 0.73393 0.77266 0.84902 0.0
N1808 N 0.75923 0.81731 0.91691 0.0
N1809 N 0.74972 0.72148 0.83389 0.0
H1810 H 0.69852 0.79307 0.82258 0.0
H1811 H 0.71461 0.7606 0.80597 0.0
H1812 H 0.76439 0.7026 0.83487 0.0
H1813 H 0.73021 0.71778 0.82063 0.0
H1814 H 0.77475 0.81647 0.93503 0.0
H1815 H 0.74241 0.83404 0.91962 0.0
H1816 H 0.8157 0.79721 0.91888 0.0
H1817 H 0.82773 0.76171 0.9045 0.0
C1818 C 0.7436 0.76975 0.10627 0.0
C1819 C 0.72847 0.76416 0.13456 0.0
C1820 C 0.76262 0.72116 0.14499 0.0
C1821 C 0.77904 0.72766 0.11743 0.0
N1822 N 0.78872 0.76117 0.07459 0.0
N1823 N 0.72817 0.74032 0.18414 0.0
C1824 C 0.77082 0.75317 0.09906 0.0
C1825 C 0.73952 0.74168 0.15498 0.0
N1826 N 0.73094 0.78969 0.0857 0.0
N1827 N 0.76785 0.69462 0.16089 0.0
H1828 H 0.7111 0.75516 0.19195 0.0
H1829 H 0.73762 0.72657 0.20127 0.0
H1830 H 0.78398 0.67837 0.15432 0.0
H1831 H 0.75423 0.68734 0.17915 0.0
H1832 H 0.7392 0.79292 0.06353 0.0
H1833 H 0.7104 0.80112 0.09001 0.0
H1834 H 0.78545 0.78112 0.06182 0.0
H1835 H 0.80848 0.74904 0.06864 0.0
C1836 C 0.22853 0.7567 0.1475 0.0
C1837 C 0.23279 0.73102 0.12805 0.0
C1838 C 0.2707 0.76092 0.0989 0.0
C1839 C 0.26367 0.78732 0.11643 0.0
N1840 N 0.22918 0.81191 0.15156 0.0
N1841 N 0.2723 0.70566 0.09899 0.0
C1842 C 0.24029 0.78577 0.13868 0.0
C1843 C 0.2577 0.73213 0.10704 0.0
N1844 N 0.21934 0.7523 0.17699 0.0
N1845 N 0.28985 0.76353 0.07427 0.0
H1846 H 0.26736 0.68482 0.10978 0.0
H1847 H 0.29216 0.70515 0.0857 0.0
H1848 H 0.29887 0.78467 0.06745 0.0
H1849 H 0.29383 0.74562 0.05896 0.0
H1850 H 0.21971 0.76988 0.19307 0.0
H1851 H 0.2178 0.73038 0.18657 0.0
H1852 H 0.20998 0.81163 0.16577 0.0
H1853 H 0.23665 0.83367 0.14492 0.0
C1854 C 0.71254 0.26021 0.13761 0.0
C1855 C 0.71544 0.23777 0.11414 0.0
C1856 C 0.76683 0.25713 0.10169 0.0
C1857 C 0.76295 0.28091 0.12344 0.0
N1858 N 0.73168 0.30778 0.15972 0.0
N1859 N 0.74281 0.21812 0.07023 0.0
C1860 C 0.73562 0.28319 0.14075 0.0
C1861 C 0.74197 0.23704 0.09523 0.0
N1862 N 0.68839 0.25881 0.15757 0.0
N1863 N 0.79458 0.25358 0.08757 0.0
H1864 H 0.72476 0.20358 0.06428 0.0
H1865 H 0.76009 0.21878 0.05376 0.0
H1866 H 0.81307 0.26823 0.09154 0.0
H1867 H 0.80012 0.23481 0.07389 0.0
H1868 H 0.68657 0.27248 0.17704 0.0
H1869 H 0.67107 0.24238 0.15594 0.0
H1870 H 0.7111 0.31285 0.1707 0.0
H1871 H 0.74871 0.32433 0.16288 0.0
loop_
_geom_bond_atom_site_label_1
_geom_bond_atom_site_label_2
_geom_bond_distance
_geom_bond_site_symmetry_2
_ccdc_geom_bond_type
C0 C1 1.351 . S
C0 N3 1.368 . S
C0 H5 0.931 . S
C1 C0 1.351 . S
C1 N2 1.373 . S
C1 H29 0.930 . S
N2 C1 1.373 . S
N2 C4 1.340 . S
N3 C0 1.368 . S
N3 C4 1.321 . S
N3 Co6 2.135 . S
C4 N2 1.340 . S
C4 N3 1.321 . S
C4 H28 0.930 . S
H5 C0 0.931 . S
Co6 N3 2.135 . S
Co6 N9 2.121 . S
Co6 O14 2.055 . S
Co6 O17 2.039 . S
Co6 N20 2.140 . S
C7 O8 1.227 . S
C7 O17 1.265 . S
O8 C7 1.227 . S
N9 Co6 2.121 . S
N9 C11 1.375 . S
N9 C12 1.313 . S
C10 C11 1.338 . S
C10 N13 1.377 . S
C10 H30 0.930 . S
C11 N9 1.375 . S
C11 C10 1.338 . S
C11 H15 0.931 . S
C12 N9 1.313 . S
C12 N13 1.344 . S
C12 H16 0.930 . S
N13 C10 1.377 . S
N13 C12 1.344 . S
O14 Co6 2.055 . S
O14 C18 1.253 . S
H15 C11 0.931 . S
H16 C12 0.930 . S
O17 Co6 2.039 . S
O17 C7 1.265 . S
C18 O14 1.253 . S
C18 O19 1.227 . S
O19 C18 1.227 . S
N20 Co6 2.140 . S
N20 C23 1.346 . S
N20 C24 1.345 . S
C21 C22 1.387 . S
C21 C25 1.391 . S
C22 C21 1.387 . S
C22 C23 1.369 . S
C22 H31 0.929 . S
C23 N20 1.346 . S
C23 C22 1.369 . S
C23 H26 0.928 . S
C24 N20 1.345 . S
C24 C25 1.371 . S
C24 H27 0.931 . S
C25 C21 1.391 . S
C25 C24 1.371 . S
C25 H32 0.930 . S
H26 C23 0.928 . S
H27 C24 0.931 . S
H28 C4 0.930 . S
H29 C1 0.930 . S
H30 C10 0.930 . S
H31 C22 0.929 . S
H32 C25 0.930 . S
C33 C34 1.351 . S
C33 N36 1.368 . S
C33 H38 0.931 . S
C34 C33 1.351 . S
C34 N35 1.373 . S
C34 H62 0.930 . S
N35 C34 1.373 . S
N35 C37 1.340 . S
N36 C33 1.368 . S
N36 C37 1.321 . S
N36 Co39 2.135 . S
C37 N35 1.340 . S
C37 N36 1.321 . S
C37 H61 0.930 . S
H38 C33 0.931 . S
Co39 N36 2.135 . S
Co39 N42 2.121 . S
Co39 O47 2.055 . S
Co39 O50 2.039 . S
Co39 N53 2.140 . S
C40 O41 1.227 . S
C40 O50 1.265 . S
O41 C40 1.227 . S
N42 Co39 2.121 . S
N42 C44 1.375 . S
N42 C45 1.313 . S
C43 C44 1.338 . S
C43 N46 1.377 . S
C43 H63 0.930 . S
C44 N42 1.375 . S
C44 C43 1.338 . S
C44 H48 0.931 . S
C45 N42 1.313 . S
C45 N46 1.344 . S
C45 H49 0.930 . S
N46 C43 1.377 . S
N46 C45 1.344 . S
O47 Co39 2.055 . S
O47 C51 1.253 . S
H48 C44 0.931 . S
H49 C45 0.930 . S
O50 Co39 2.039 . S
O50 C40 1.265 . S
C51 O47 1.253 . S
C51 O52 1.227 . S
O52 C51 1.227 . S
N53 Co39 2.140 . S
N53 C56 1.346 . S
N53 C57 1.345 . S
C54 C55 1.387 . S
C54 C58 1.391 . S
C55 C54 1.387 . S
C55 C56 1.369 . S
C55 H64 0.929 . S
C56 N53 1.346 . S
C56 C55 1.369 . S
C56 H59 0.928 . S
C57 N53 1.345 . S
C57 C58 1.371 . S
C57 H60 0.931 . S
C58 C54 1.391 . S
C58 C57 1.371 . S
C58 H65 0.930 . S
H59 C56 0.928 . S
H60 C57 0.931 . S
H61 C37 0.930 . S
H62 C34 0.930 . S
H63 C43 0.930 . S
H64 C55 0.929 . S
H65 C58 0.930 . S
C66 C67 1.351 . S
C66 N69 1.368 . S
C66 H71 0.931 . S
C67 C66 1.351 . S
C67 N68 1.373 . S
C67 H95 0.930 . S
N68 C67 1.373 . S
N68 C70 1.340 . S
N69 C66 1.368 . S
N69 C70 1.321 . S
N69 Co72 2.135 . S
C70 N68 1.340 . S
C70 N69 1.321 . S
C70 H94 0.930 . S
H71 C66 0.931 . S
Co72 N69 2.135 . S
Co72 N75 2.121 . S
Co72 O80 2.055 . S
Co72 O83 2.039 . S
Co72 N86 2.140 . S
C73 O74 1.227 . S
C73 O83 1.265 . S
O74 C73 1.227 . S
N75 Co72 2.121 . S
N75 C77 1.375 . S
N75 C78 1.313 . S
C76 C77 1.338 . S
C76 N79 1.377 . S
C76 H96 0.930 . S
C77 N75 1.375 . S
C77 C76 1.338 . S
C77 H81 0.931 . S
C78 N75 1.313 . S
C78 N79 1.344 . S
C78 H82 0.930 . S
N79 C76 1.377 . S
N79 C78 1.344 . S
O80 Co72 2.055 . S
O80 C84 1.253 . S
H81 C77 0.931 . S
H82 C78 0.930 . S
O83 Co72 2.039 . S
O83 C73 1.265 . S
C84 O80 1.253 . S
C84 O85 1.227 . S
O85 C84 1.227 . S
N86 Co72 2.140 . S
N86 C89 1.346 . S
N86 C90 1.345 . S
C87 C88 1.387 . S
C87 C91 1.391 . S
C88 C87 1.387 . S
C88 C89 1.369 . S
C88 H97 0.929 . S
C89 N86 1.346 . S
C89 C88 1.369 . S
C89 H92 0.928 . S
C90 N86 1.345 . S
C90 C91 1.371 . S
C90 H93 0.931 . S
C91 C87 1.391 . S
C91 C90 1.371 . S
C91 H98 0.930 . S
H92 C89 0.928 . S
H93 C90 0.931 . S
H94 C70 0.930 . S
H95 C67 0.930 . S
H96 C76 0.930 . S
H97 C88 0.929 . S
H98 C91 0.930 . S
C99 C100 1.351 . S
C99 N102 1.368 . S
C99 H104 0.931 . S
C100 C99 1.351 . S
C100 N101 1.373 . S
C100 H128 0.930 . S
N101 C100 1.373 . S
N101 C103 1.340 . S
N102 C99 1.368 . S
N102 C103 1.321 . S
N102 Co105 2.135 . S
C103 N101 1.340 . S
C103 N102 1.321 . S
C103 H127 0.930 . S
H104 C99 0.931 . S
Co105 N102 2.135 . S
Co105 N108 2.121 . S
Co105 O113 2.055 . S
Co105 O116 2.039 . S
Co105 N119 2.140 . S
C106 O107 1.227 . S
C106 O116 1.265 . S
O107 C106 1.227 . S
N108 Co105 2.121 . S
N108 C110 1.375 . S
N108 C111 1.313 . S
C109 C110 1.338 . S
C109 N112 1.377 . S
C109 H129 0.930 . S
C110 N108 1.375 . S
C110 C109 1.338 . S
C110 H114 0.931 . S
C111 N108 1.313 . S
C111 N112 1.344 . S
C111 H115 0.930 . S
N112 C109 1.377 . S
N112 C111 1.344 . S
O113 Co105 2.055 . S
O113 C117 1.253 . S
H114 C110 0.931 . S
H115 C111 0.930 . S
O116 Co105 2.039 . S
O116 C106 1.265 . S
C117 O113 1.253 . S
C117 O118 1.227 . S
O118 C117 1.227 . S
N119 Co105 2.140 . S
N119 C122 1.346 . S
N119 C123 1.345 . S
C120 C121 1.387 . S
C120 C124 1.391 . S
C121 C120 1.387 . S
C121 C122 1.369 . S
C121 H130 0.929 . S
C122 N119 1.346 . S
C122 C121 1.369 . S
C122 H125 0.928 . S
C123 N119 1.345 . S
C123 C124 1.371 . S
C123 H126 0.931 . S
C124 C120 1.391 . S
C124 C123 1.371 . S
C124 H131 0.930 . S
H125 C122 0.928 . S
H126 C123 0.931 . S
H127 C103 0.930 . S
H128 C100 0.930 . S
H129 C109 0.930 . S
H130 C121 0.929 . S
H131 C124 0.930 . S
C132 C133 1.351 . S
C132 N135 1.368 . S
C132 H137 0.931 . S
C133 C132 1.351 . S
C133 N134 1.373 . S
C133 H161 0.930 . S
N134 C133 1.373 . S
N134 C136 1.340 . S
N135 C132 1.368 . S
N135 C136 1.321 . S
N135 Co138 2.135 . S
C136 N134 1.340 . S
C136 N135 1.321 . S
C136 H160 0.930 . S
H137 C132 0.931 . S
Co138 N135 2.135 . S
Co138 N141 2.121 . S
Co138 O146 2.055 . S
Co138 O149 2.039 . S
Co138 N152 2.140 . S
C139 O140 1.227 . S
C139 O149 1.265 . S
O140 C139 1.227 . S
N141 Co138 2.121 . S
N141 C143 1.375 . S
N141 C144 1.313 . S
C142 C143 1.338 . S
C142 N145 1.377 . S
C142 H162 0.930 . S
C143 N141 1.375 . S
C143 C142 1.338 . S
C143 H147 0.931 . S
C144 N141 1.313 . S
C144 N145 1.344 . S
C144 H148 0.930 . S
N145 C142 1.377 . S
N145 C144 1.344 . S
O146 Co138 2.055 . S
O146 C150 1.253 . S
H147 C143 0.931 . S
H148 C144 0.930 . S
O149 Co138 2.039 . S
O149 C139 1.265 . S
C150 O146 1.253 . S
C150 O151 1.227 . S
O151 C150 1.227 . S
N152 Co138 2.140 . S
N152 C155 1.346 . S
N152 C156 1.345 . S
C153 C154 1.387 . S
C153 C157 1.391 . S
C154 C153 1.387 . S
C154 C155 1.369 . S
C154 H163 0.929 . S
C155 N152 1.346 . S
C155 C154 1.369 . S
C155 H158 0.928 . S
C156 N152 1.345 . S
C156 C157 1.371 . S
C156 H159 0.931 . S
C157 C153 1.391 . S
C157 C156 1.371 . S
C157 H164 0.930 . S
H158 C155 0.928 . S
H159 C156 0.931 . S
H160 C136 0.930 . S
H161 C133 0.930 . S
H162 C142 0.930 . S
H163 C154 0.929 . S
H164 C157 0.930 . S
C165 C166 1.351 . S
C165 N168 1.368 . S
C165 H170 0.931 . S
C166 C165 1.351 . S
C166 N167 1.373 . S
C166 H194 0.930 . S
N167 C166 1.373 . S
N167 C169 1.340 . S
N168 C165 1.368 . S
N168 C169 1.321 . S
N168 Co171 2.135 . S
C169 N167 1.340 . S
C169 N168 1.321 . S
C169 H193 0.930 . S
H170 C165 0.931 . S
Co171 N168 2.135 . S
Co171 N174 2.121 . S
Co171 O179 2.055 . S
Co171 O182 2.039 . S
Co171 N185 2.140 . S
C172 O173 1.227 . S
C172 O182 1.265 . S
O173 C172 1.227 . S
N174 Co171 2.121 . S
N174 C176 1.375 . S
N174 C177 1.313 . S
C175 C176 1.338 . S
C175 N178 1.377 . S
C175 H195 0.930 . S
C176 N174 1.375 . S
C176 C175 1.338 . S
C176 H180 0.931 . S
C177 N174 1.313 . S
C177 N178 1.344 . S
C177 H181 0.930 . S
N178 C175 1.377 . S
N178 C177 1.344 . S
O179 Co171 2.055 . S
O179 C183 1.253 . S
H180 C176 0.931 . S
H181 C177 0.930 . S
O182 Co171 2.039 . S
O182 C172 1.265 . S
C183 O179 1.253 . S
C183 O184 1.227 . S
O184 C183 1.227 . S
N185 Co171 2.140 . S
N185 C188 1.346 . S
N185 C189 1.345 . S
C186 C187 1.387 . S
C186 C190 1.391 . S
C187 C186 1.387 . S
C187 C188 1.369 . S
C187 H196 0.929 . S
C188 N185 1.346 . S
C188 C187 1.369 . S
C188 H191 0.928 . S
C189 N185 1.345 . S
C189 C190 1.371 . S
C189 H192 0.931 . S
C190 C186 1.391 . S
C190 C189 1.371 . S
C190 H197 0.930 . S
H191 C188 0.928 . S
H192 C189 0.931 . S
H193 C169 0.930 . S
H194 C166 0.930 . S
H195 C175 0.930 . S
H196 C187 0.929 . S
H197 C190 0.930 . S
C198 C199 1.351 . S
C198 N201 1.368 . S
C198 H203 0.931 . S
C199 C198 1.351 . S
C199 N200 1.373 . S
C199 H227 0.930 . S
N200 C199 1.373 . S
N200 C202 1.340 . S
N201 C198 1.368 . S
N201 C202 1.321 . S
N201 Co204 2.135 . S
C202 N200 1.340 . S
C202 N201 1.321 . S
C202 H226 0.930 . S
H203 C198 0.931 . S
Co204 N201 2.135 . S
Co204 N207 2.121 . S
Co204 O212 2.055 . S
Co204 O215 2.039 . S
Co204 N218 2.140 . S
C205 O206 1.227 . S
C205 O215 1.265 . S
O206 C205 1.227 . S
N207 Co204 2.121 . S
N207 C209 1.375 . S
N207 C210 1.313 . S
C208 C209 1.338 . S
C208 N211 1.377 . S
C208 H228 0.930 . S
C209 N207 1.375 . S
C209 C208 1.338 . S
C209 H213 0.931 . S
C210 N207 1.313 . S
C210 N211 1.344 . S
C210 H214 0.930 . S
N211 C208 1.377 . S
N211 C210 1.344 . S
O212 Co204 2.055 . S
O212 C216 1.253 . S
H213 C209 0.931 . S
H214 C210 0.930 . S
O215 Co204 2.039 . S
O215 C205 1.265 . S
C216 O212 1.253 . S
C216 O217 1.227 . S
O217 C216 1.227 . S
N218 Co204 2.140 . S
N218 C221 1.346 . S
N218 C222 1.345 . S
C219 C220 1.387 . S
C219 C223 1.391 . S
C220 C219 1.387 . S
C220 C221 1.369 . S
C220 H229 0.929 . S
C221 N218 1.346 . S
C221 C220 1.369 . S
C221 H224 0.928 . S
C222 N218 1.345 . S
C222 C223 1.371 . S
C222 H225 0.931 . S
C223 C219 1.391 . S
C223 C222 1.371 . S
C223 H230 0.930 . S
H224 C221 0.928 . S
H225 C222 0.931 . S
H226 C202 0.930 . S
H227 C199 0.930 . S
H228 C208 0.930 . S
H229 C220 0.929 . S
H230 C223 0.930 . S
C231 C232 1.351 . S
C231 N234 1.368 . S
C231 H236 0.931 . S
C232 C231 1.351 . S
C232 N233 1.373 . S
C232 H260 0.930 . S
N233 C232 1.373 . S
N233 C235 1.340 . S
N234 C231 1.368 . S
N234 C235 1.321 . S
N234 Co237 2.135 . S
C235 N233 1.340 . S
C235 N234 1.321 . S
C235 H259 0.930 . S
H236 C231 0.931 . S
Co237 N234 2.135 . S
Co237 N240 2.121 . S
Co237 O245 2.055 . S
Co237 O248 2.039 . S
Co237 N251 2.140 . S
C238 O239 1.227 . S
C238 O248 1.265 . S
O239 C238 1.227 . S
N240 Co237 2.121 . S
N240 C242 1.375 . S
N240 C243 1.313 . S
C241 C242 1.338 . S
C241 N244 1.377 . S
C241 H261 0.930 . S
C242 N240 1.375 . S
C242 C241 1.338 . S
C242 H246 0.931 . S
C243 N240 1.313 . S
C243 N244 1.344 . S
C243 H247 0.930 . S
N244 C241 1.377 . S
N244 C243 1.344 . S
O245 Co237 2.055 . S
O245 C249 1.253 . S
H246 C242 0.931 . S
H247 C243 0.930 . S
O248 Co237 2.039 . S
O248 C238 1.265 . S
C249 O245 1.253 . S
C249 O250 1.227 . S
O250 C249 1.227 . S
N251 Co237 2.140 . S
N251 C254 1.346 . S
N251 C255 1.345 . S
C252 C253 1.387 . S
C252 C256 1.391 . S
C253 C252 1.387 . S
C253 C254 1.369 . S
C253 H262 0.929 . S
C254 N251 1.346 . S
C254 C253 1.369 . S
C254 H257 0.928 . S
C255 N251 1.345 . S
C255 C256 1.371 . S
C255 H258 0.931 . S
C256 C252 1.391 . S
C256 C255 1.371 . S
C256 H263 0.930 . S
H257 C254 0.928 . S
H258 C255 0.931 . S
H259 C235 0.930 . S
H260 C232 0.930 . S
H261 C241 0.930 . S
H262 C253 0.929 . S
H263 C256 0.930 . S
C264 C265 1.351 . S
C264 N267 1.368 . S
C264 H269 0.931 . S
C265 C264 1.351 . S
C265 N266 1.373 . S
C265 H293 0.930 . S
N266 C265 1.373 . S
N266 C268 1.340 . S
N267 C264 1.368 . S
N267 C268 1.321 . S
N267 Co270 2.135 . S
C268 N266 1.340 . S
C268 N267 1.321 . S
C268 H292 0.930 . S
H269 C264 0.931 . S
Co270 N267 2.135 . S
Co270 N273 2.121 . S
Co270 O278 2.055 . S
Co270 O281 2.039 . S
Co270 N284 2.140 . S
C271 O272 1.227 . S
C271 O281 1.265 . S
O272 C271 1.227 . S
N273 Co270 2.121 . S
N273 C275 1.375 . S
N273 C276 1.313 . S
C274 C275 1.338 . S
C274 N277 1.377 . S
C274 H294 0.930 . S
C275 N273 1.375 . S
C275 C274 1.338 . S
C275 H279 0.931 . S
C276 N273 1.313 . S
C276 N277 1.344 . S
C276 H280 0.930 . S
N277 C274 1.377 . S
N277 C276 1.344 . S
O278 Co270 2.055 . S
O278 C282 1.253 . S
H279 C275 0.931 . S
H280 C276 0.930 . S
O281 Co270 2.039 . S
O281 C271 1.265 . S
C282 O278 1.253 . S
C282 O283 1.227 . S
O283 C282 1.227 . S
N284 Co270 2.140 . S
N284 C287 1.346 . S
N284 C288 1.345 . S
C285 C286 1.387 . S
C285 C289 1.391 . S
C286 C285 1.387 . S
C286 C287 1.369 . S
C286 H295 0.929 . S
C287 N284 1.346 . S
C287 C286 1.369 . S
C287 H290 0.928 . S
C288 N284 1.345 . S
C288 C289 1.371 . S
C288 H291 0.931 . S
C289 C285 1.391 . S
C289 C288 1.371 . S
C289 H296 0.930 . S
H290 C287 0.928 . S
H291 C288 0.931 . S
H292 C268 0.930 . S
H293 C265 0.930 . S
H294 C274 0.930 . S
H295 C286 0.929 . S
H296 C289 0.930 . S
C297 C298 1.351 . S
C297 N300 1.368 . S
C297 H302 0.931 . S
C298 C297 1.351 . S
C298 N299 1.373 . S
C298 H326 0.930 . S
N299 C298 1.373 . S
N299 C301 1.340 . S
N300 C297 1.368 . S
N300 C301 1.321 . S
N300 Co303 2.135 . S
C301 N299 1.340 . S
C301 N300 1.321 . S
C301 H325 0.930 . S
H302 C297 0.931 . S
Co303 N300 2.135 . S
Co303 N306 2.121 . S
Co303 O311 2.055 . S
Co303 O314 2.039 . S
Co303 N317 2.140 . S
C304 O305 1.227 . S
C304 O314 1.265 . S
O305 C304 1.227 . S
N306 Co303 2.121 . S
N306 C308 1.375 . S
N306 C309 1.313 . S
C307 C308 1.338 . S
C307 N310 1.377 . S
C307 H327 0.930 . S
C308 N306 1.375 . S
C308 C307 1.338 . S
C308 H312 0.931 . S
C309 N306 1.313 . S
C309 N310 1.344 . S
C309 H313 0.930 . S
N310 C307 1.377 . S
N310 C309 1.344 . S
O311 Co303 2.055 . S
O311 C315 1.253 . S
H312 C308 0.931 . S
H313 C309 0.930 . S
O314 Co303 2.039 . S
O314 C304 1.265 . S
C315 O311 1.253 . S
C315 O316 1.227 . S
O316 C315 1.227 . S
N317 Co303 2.140 . S
N317 C320 1.346 . S
N317 C321 1.345 . S
C318 C319 1.387 . S
C318 C322 1.391 . S
C319 C318 1.387 . S
C319 C320 1.369 . S
C319 H328 0.929 . S
C320 N317 1.346 . S
C320 C319 1.369 . S
C320 H323 0.928 . S
C321 N317 1.345 . S
C321 C322 1.371 . S
C321 H324 0.931 . S
C322 C318 1.391 . S
C322 C321 1.371 . S
C322 H329 0.930 . S
H323 C320 0.928 . S
H324 C321 0.931 . S
H325 C301 0.930 . S
H326 C298 0.930 . S
H327 C307 0.930 . S
H328 C319 0.929 . S
H329 C322 0.930 . S
C330 C331 1.351 . S
C330 N333 1.368 . S
C330 H335 0.931 . S
C331 C330 1.351 . S
C331 N332 1.373 . S
C331 H359 0.930 . S
N332 C331 1.373 . S
N332 C334 1.340 . S
N333 C330 1.368 . S
N333 C334 1.321 . S
N333 Co336 2.135 . S
C334 N332 1.340 . S
C334 N333 1.321 . S
C334 H358 0.930 . S
H335 C330 0.931 . S
Co336 N333 2.135 . S
Co336 N339 2.121 . S
Co336 O344 2.055 . S
Co336 O347 2.039 . S
Co336 N350 2.140 . S
C337 O338 1.227 . S
C337 O347 1.265 . S
O338 C337 1.227 . S
N339 Co336 2.121 . S
N339 C341 1.375 . S
N339 C342 1.313 . S
C340 C341 1.338 . S
C340 N343 1.377 . S
C340 H360 0.930 . S
C341 N339 1.375 . S
C341 C340 1.338 . S
C341 H345 0.931 . S
C342 N339 1.313 . S
C342 N343 1.344 . S
C342 H346 0.930 . S
N343 C340 1.377 . S
N343 C342 1.344 . S
O344 Co336 2.055 . S
O344 C348 1.253 . S
H345 C341 0.931 . S
H346 C342 0.930 . S
O347 Co336 2.039 . S
O347 C337 1.265 . S
C348 O344 1.253 . S
C348 O349 1.227 . S
O349 C348 1.227 . S
N350 Co336 2.140 . S
N350 C353 1.346 . S
N350 C354 1.345 . S
C351 C352 1.387 . S
C351 C355 1.391 . S
C352 C351 1.387 . S
C352 C353 1.369 . S
C352 H361 0.929 . S
C353 N350 1.346 . S
C353 C352 1.369 . S
C353 H356 0.928 . S
C354 N350 1.345 . S
C354 C355 1.371 . S
C354 H357 0.931 . S
C355 C351 1.391 . S
C355 C354 1.371 . S
C355 H362 0.930 . S
H356 C353 0.928 . S
H357 C354 0.931 . S
H358 C334 0.930 . S
H359 C331 0.930 . S
H360 C340 0.930 . S
H361 C352 0.929 . S
H362 C355 0.930 . S
C363 C364 1.351 . S
C363 N366 1.368 . S
C363 H368 0.931 . S
C364 C363 1.351 . S
C364 N365 1.373 . S
C364 H392 0.930 . S
N365 C364 1.373 . S
N365 C367 1.340 . S
N366 C363 1.368 . S
N366 C367 1.321 . S
N366 Co369 2.135 . S
C367 N365 1.340 . S
C367 N366 1.321 . S
C367 H391 0.930 . S
H368 C363 0.931 . S
Co369 N366 2.135 . S
Co369 N372 2.121 . S
Co369 O377 2.055 . S
Co369 O380 2.039 . S
Co369 N383 2.140 . S
C370 O371 1.227 . S
C370 O380 1.265 . S
O371 C370 1.227 . S
N372 Co369 2.121 . S
N372 C374 1.375 . S
N372 C375 1.313 . S
C373 C374 1.338 . S
C373 N376 1.377 . S
C373 H393 0.930 . S
C374 N372 1.375 . S
C374 C373 1.338 . S
C374 H378 0.931 . S
C375 N372 1.313 . S
C375 N376 1.344 . S
C375 H379 0.930 . S
N376 C373 1.377 . S
N376 C375 1.344 . S
O377 Co369 2.055 . S
O377 C381 1.253 . S
H378 C374 0.931 . S
H379 C375 0.930 . S
O380 Co369 2.039 . S
O380 C370 1.265 . S
C381 O377 1.253 . S
C381 O382 1.227 . S
O382 C381 1.227 . S
N383 Co369 2.140 . S
N383 C386 1.346 . S
N383 C387 1.345 . S
C384 C385 1.387 . S
C384 C388 1.391 . S
C385 C384 1.387 . S
C385 C386 1.369 . S
C385 H394 0.929 . S
C386 N383 1.346 . S
C386 C385 1.369 . S
C386 H389 0.928 . S
C387 N383 1.345 . S
C387 C388 1.371 . S
C387 H390 0.931 . S
C388 C384 1.391 . S
C388 C387 1.371 . S
C388 H395 0.930 . S
H389 C386 0.928 . S
H390 C387 0.931 . S
H391 C367 0.930 . S
H392 C364 0.930 . S
H393 C373 0.930 . S
H394 C385 0.929 . S
H395 C388 0.930 . S
C396 C397 1.351 . S
C396 N399 1.368 . S
C396 H401 0.931 . S
C397 C396 1.351 . S
C397 N398 1.373 . S
C397 H425 0.930 . S
N398 C397 1.373 . S
N398 C400 1.340 . S
N399 C396 1.368 . S
N399 C400 1.321 . S
N399 Co402 2.135 . S
C400 N398 1.340 . S
C400 N399 1.321 . S
C400 H424 0.930 . S
H401 C396 0.931 . S
Co402 N399 2.135 . S
Co402 N405 2.121 . S
Co402 O410 2.055 . S
Co402 O413 2.039 . S
Co402 N416 2.140 . S
C403 O404 1.227 . S
C403 O413 1.265 . S
O404 C403 1.227 . S
N405 Co402 2.121 . S
N405 C407 1.375 . S
N405 C408 1.313 . S
C406 C407 1.338 . S
C406 N409 1.377 . S
C406 H426 0.930 . S
C407 N405 1.375 . S
C407 C406 1.338 . S
C407 H411 0.931 . S
C408 N405 1.313 . S
C408 N409 1.344 . S
C408 H412 0.930 . S
N409 C406 1.377 . S
N409 C408 1.344 . S
O410 Co402 2.055 . S
O410 C414 1.253 . S
H411 C407 0.931 . S
H412 C408 0.930 . S
O413 Co402 2.039 . S
O413 C403 1.265 . S
C414 O410 1.253 . S
C414 O415 1.227 . S
O415 C414 1.227 . S
N416 Co402 2.140 . S
N416 C419 1.346 . S
N416 C420 1.345 . S
C417 C418 1.387 . S
C417 C421 1.391 . S
C418 C417 1.387 . S
C418 C419 1.369 . S
C418 H427 0.929 . S
C419 N416 1.346 . S
C419 C418 1.369 . S
C419 H422 0.928 . S
C420 N416 1.345 . S
C420 C421 1.371 . S
C420 H423 0.931 . S
C421 C417 1.391 . S
C421 C420 1.371 . S
C421 H428 0.930 . S
H422 C419 0.928 . S
H423 C420 0.931 . S
H424 C400 0.930 . S
H425 C397 0.930 . S
H426 C406 0.930 . S
H427 C418 0.929 . S
H428 C421 0.930 . S
C429 C430 1.351 . S
C429 N432 1.368 . S
C429 H434 0.931 . S
C430 C429 1.351 . S
C430 N431 1.373 . S
C430 H458 0.930 . S
N431 C430 1.373 . S
N431 C433 1.340 . S
N432 C429 1.368 . S
N432 C433 1.321 . S
N432 Co435 2.135 . S
C433 N431 1.340 . S
C433 N432 1.321 . S
C433 H457 0.930 . S
H434 C429 0.931 . S
Co435 N432 2.135 . S
Co435 N438 2.121 . S
Co435 O443 2.055 . S
Co435 O446 2.039 . S
Co435 N449 2.140 . S
C436 O437 1.227 . S
C436 O446 1.265 . S
O437 C436 1.227 . S
N438 Co435 2.121 . S
N438 C440 1.375 . S
N438 C441 1.313 . S
C439 C440 1.338 . S
C439 N442 1.377 . S
C439 H459 0.930 . S
C440 N438 1.375 . S
C440 C439 1.338 . S
C440 H444 0.931 . S
C441 N438 1.313 . S
C441 N442 1.344 . S
C441 H445 0.930 . S
N442 C439 1.377 . S
N442 C441 1.344 . S
O443 Co435 2.055 . S
O443 C447 1.253 . S
H444 C440 0.931 . S
H445 C441 0.930 . S
O446 Co435 2.039 . S
O446 C436 1.265 . S
C447 O443 1.253 . S
C447 O448 1.227 . S
O448 C447 1.227 . S
N449 Co435 2.140 . S
N449 C452 1.346 . S
N449 C453 1.345 . S
C450 C451 1.387 . S
C450 C454 1.391 . S
C451 C450 1.387 . S
C451 C452 1.369 . S
C451 H460 0.929 . S
C452 N449 1.346 . S
C452 C451 1.369 . S
C452 H455 0.928 . S
C453 N449 1.345 . S
C453 C454 1.371 . S
C453 H456 0.931 . S
C454 C450 1.391 . S
C454 C453 1.371 . S
C454 H461 0.930 . S
H455 C452 0.928 . S
H456 C453 0.931 . S
H457 C433 0.930 . S
H458 C430 0.930 . S
H459 C439 0.930 . S
H460 C451 0.929 . S
H461 C454 0.930 . S
C462 C463 1.351 . S
C462 N465 1.368 . S
C462 H467 0.931 . S
C463 C462 1.351 . S
C463 N464 1.373 . S
C463 H491 0.930 . S
N464 C463 1.373 . S
N464 C466 1.340 . S
N465 C462 1.368 . S
N465 C466 1.321 . S
N465 Co468 2.135 . S
C466 N464 1.340 . S
C466 N465 1.321 . S
C466 H490 0.930 . S
H467 C462 0.931 . S
Co468 N465 2.135 . S
Co468 N471 2.121 . S
Co468 O476 2.055 . S
Co468 O479 2.039 . S
Co468 N482 2.140 . S
C469 O470 1.227 . S
C469 O479 1.265 . S
O470 C469 1.227 . S
N471 Co468 2.121 . S
N471 C473 1.375 . S
N471 C474 1.313 . S
C472 C473 1.338 . S
C472 N475 1.377 . S
C472 H492 0.930 . S
C473 N471 1.375 . S
C473 C472 1.338 . S
C473 H477 0.931 . S
C474 N471 1.313 . S
C474 N475 1.344 . S
C474 H478 0.930 . S
N475 C472 1.377 . S
N475 C474 1.344 . S
O476 Co468 2.055 . S
O476 C480 1.253 . S
H477 C473 0.931 . S
H478 C474 0.930 . S
O479 Co468 2.039 . S
O479 C469 1.265 . S
C480 O476 1.253 . S
C480 O481 1.227 . S
O481 C480 1.227 . S
N482 Co468 2.140 . S
N482 C485 1.346 . S
N482 C486 1.345 . S
C483 C484 1.387 . S
C483 C487 1.391 . S
C484 C483 1.387 . S
C484 C485 1.369 . S
C484 H493 0.929 . S
C485 N482 1.346 . S
C485 C484 1.369 . S
C485 H488 0.928 . S
C486 N482 1.345 . S
C486 C487 1.371 . S
C486 H489 0.931 . S
C487 C483 1.391 . S
C487 C486 1.371 . S
C487 H494 0.930 . S
H488 C485 0.928 . S
H489 C486 0.931 . S
H490 C466 0.930 . S
H491 C463 0.930 . S
H492 C472 0.930 . S
H493 C484 0.929 . S
H494 C487 0.930 . S
C495 C496 1.351 . S
C495 N498 1.368 . S
C495 H500 0.931 . S
C496 C495 1.351 . S
C496 N497 1.373 . S
C496 H524 0.930 . S
N497 C496 1.373 . S
N497 C499 1.340 . S
N498 C495 1.368 . S
N498 C499 1.321 . S
N498 Co501 2.135 . S
C499 N497 1.340 . S
C499 N498 1.321 . S
C499 H523 0.930 . S
H500 C495 0.931 . S
Co501 N498 2.135 . S
Co501 N504 2.121 . S
Co501 O509 2.055 . S
Co501 O512 2.039 . S
Co501 N515 2.140 . S
C502 O503 1.227 . S
C502 O512 1.265 . S
O503 C502 1.227 . S
N504 Co501 2.121 . S
N504 C506 1.375 . S
N504 C507 1.313 . S
C505 C506 1.338 . S
C505 N508 1.377 . S
C505 H525 0.930 . S
C506 N504 1.375 . S
C506 C505 1.338 . S
C506 H510 0.931 . S
C507 N504 1.313 . S
C507 N508 1.344 . S
C507 H511 0.930 . S
N508 C505 1.377 . S
N508 C507 1.344 . S
O509 Co501 2.055 . S
O509 C513 1.253 . S
H510 C506 0.931 . S
H511 C507 0.930 . S
O512 Co501 2.039 . S
O512 C502 1.265 . S
C513 O509 1.253 . S
C513 O514 1.227 . S
O514 C513 1.227 . S
N515 Co501 2.140 . S
N515 C518 1.346 . S
N515 C519 1.345 . S
C516 C517 1.387 . S
C516 C520 1.391 . S
C517 C516 1.387 . S
C517 C518 1.369 . S
C517 H526 0.929 . S
C518 N515 1.346 . S
C518 C517 1.369 . S
C518 H521 0.928 . S
C519 N515 1.345 . S
C519 C520 1.371 . S
C519 H522 0.931 . S
C520 C516 1.391 . S
C520 C519 1.371 . S
C520 H527 0.930 . S
H521 C518 0.928 . S
H522 C519 0.931 . S
H523 C499 0.930 . S
H524 C496 0.930 . S
H525 C505 0.930 . S
H526 C517 0.929 . S
H527 C520 0.930 . S
C528 C529 1.351 . S
C528 N531 1.368 . S
C528 H533 0.931 . S
C529 C528 1.351 . S
C529 N530 1.373 . S
C529 H557 0.930 . S
N530 C529 1.373 . S
N530 C532 1.340 . S
N531 C528 1.368 . S
N531 C532 1.321 . S
N531 Co534 2.135 . S
C532 N530 1.340 . S
C532 N531 1.321 . S
C532 H556 0.930 . S
H533 C528 0.931 . S
Co534 N531 2.135 . S
Co534 N537 2.121 . S
Co534 O542 2.055 . S
Co534 O545 2.039 . S
Co534 N548 2.140 . S
C535 O536 1.227 . S
C535 O545 1.265 . S
O536 C535 1.227 . S
N537 Co534 2.121 . S
N537 C539 1.375 . S
N537 C540 1.313 . S
C538 C539 1.338 . S
C538 N541 1.377 . S
C538 H558 0.930 . S
C539 N537 1.375 . S
C539 C538 1.338 . S
C539 H543 0.931 . S
C540 N537 1.313 . S
C540 N541 1.344 . S
C540 H544 0.930 . S
N541 C538 1.377 . S
N541 C540 1.344 . S
O542 Co534 2.055 . S
O542 C546 1.253 . S
H543 C539 0.931 . S
H544 C540 0.930 . S
O545 Co534 2.039 . S
O545 C535 1.265 . S
C546 O542 1.253 . S
C546 O547 1.227 . S
O547 C546 1.227 . S
N548 Co534 2.140 . S
N548 C551 1.346 . S
N548 C552 1.345 . S
C549 C550 1.387 . S
C549 C553 1.391 . S
C550 C549 1.387 . S
C550 C551 1.369 . S
C550 H559 0.929 . S
C551 N548 1.346 . S
C551 C550 1.369 . S
C551 H554 0.928 . S
C552 N548 1.345 . S
C552 C553 1.371 . S
C552 H555 0.931 . S
C553 C549 1.391 . S
C553 C552 1.371 . S
C553 H560 0.930 . S
H554 C551 0.928 . S
H555 C552 0.931 . S
H556 C532 0.930 . S
H557 C529 0.930 . S
H558 C538 0.930 . S
H559 C550 0.929 . S
H560 C553 0.930 . S
C561 C562 1.351 . S
C561 N564 1.368 . S
C561 H566 0.931 . S
C562 C561 1.351 . S
C562 N563 1.373 . S
C562 H590 0.930 . S
N563 C562 1.373 . S
N563 C565 1.340 . S
N564 C561 1.368 . S
N564 C565 1.321 . S
N564 Co567 2.135 . S
C565 N563 1.340 . S
C565 N564 1.321 . S
C565 H589 0.930 . S
H566 C561 0.931 . S
Co567 N564 2.135 . S
Co567 N570 2.121 . S
Co567 O575 2.055 . S
Co567 O578 2.039 . S
Co567 N581 2.140 . S
C568 O569 1.227 . S
C568 O578 1.265 . S
O569 C568 1.227 . S
N570 Co567 2.121 . S
N570 C572 1.375 . S
N570 C573 1.313 . S
C571 C572 1.338 . S
C571 N574 1.377 . S
C571 H591 0.930 . S
C572 N570 1.375 . S
C572 C571 1.338 . S
C572 H576 0.931 . S
C573 N570 1.313 . S
C573 N574 1.344 . S
C573 H577 0.930 . S
N574 C571 1.377 . S
N574 C573 1.344 . S
O575 Co567 2.055 . S
O575 C579 1.253 . S
H576 C572 0.931 . S
H577 C573 0.930 . S
O578 Co567 2.039 . S
O578 C568 1.265 . S
C579 O575 1.253 . S
C579 O580 1.227 . S
O580 C579 1.227 . S
N581 Co567 2.140 . S
N581 C584 1.346 . S
N581 C585 1.345 . S
C582 C583 1.387 . S
C582 C586 1.391 . S
C583 C582 1.387 . S
C583 C584 1.369 . S
C583 H592 0.929 . S
C584 N581 1.346 . S
C584 C583 1.369 . S
C584 H587 0.928 . S
C585 N581 1.345 . S
C585 C586 1.371 . S
C585 H588 0.931 . S
C586 C582 1.391 . S
C586 C585 1.371 . S
C586 H593 0.930 . S
H587 C584 0.928 . S
H588 C585 0.931 . S
H589 C565 0.930 . S
H590 C562 0.930 . S
H591 C571 0.930 . S
H592 C583 0.929 . S
H593 C586 0.930 . S
C594 C595 1.351 . S
C594 N597 1.368 . S
C594 H599 0.931 . S
C595 C594 1.351 . S
C595 N596 1.373 . S
C595 H623 0.930 . S
N596 C595 1.373 . S
N596 C598 1.340 . S
N597 C594 1.368 . S
N597 C598 1.321 . S
N597 Co600 2.135 . S
C598 N596 1.340 . S
C598 N597 1.321 . S
C598 H622 0.930 . S
H599 C594 0.931 . S
Co600 N597 2.135 . S
Co600 N603 2.121 . S
Co600 O608 2.055 . S
Co600 O611 2.039 . S
Co600 N614 2.140 . S
C601 O602 1.227 . S
C601 O611 1.265 . S
O602 C601 1.227 . S
N603 Co600 2.121 . S
N603 C605 1.375 . S
N603 C606 1.313 . S
C604 C605 1.338 . S
C604 N607 1.377 . S
C604 H624 0.930 . S
C605 N603 1.375 . S
C605 C604 1.338 . S
C605 H609 0.931 . S
C606 N603 1.313 . S
C606 N607 1.344 . S
C606 H610 0.930 . S
N607 C604 1.377 . S
N607 C606 1.344 . S
O608 Co600 2.055 . S
O608 C612 1.253 . S
H609 C605 0.931 . S
H610 C606 0.930 . S
O611 Co600 2.039 . S
O611 C601 1.265 . S
C612 O608 1.253 . S
C612 O613 1.227 . S
O613 C612 1.227 . S
N614 Co600 2.140 . S
N614 C617 1.346 . S
N614 C618 1.345 . S
C615 C616 1.387 . S
C615 C619 1.391 . S
C616 C615 1.387 . S
C616 C617 1.369 . S
C616 H625 0.929 . S
C617 N614 1.346 . S
C617 C616 1.369 . S
C617 H620 0.928 . S
C618 N614 1.345 . S
C618 C619 1.371 . S
C618 H621 0.931 . S
C619 C615 1.391 . S
C619 C618 1.371 . S
C619 H626 0.930 . S
H620 C617 0.928 . S
H621 C618 0.931 . S
H622 C598 0.930 . S
H623 C595 0.930 . S
H624 C604 0.930 . S
H625 C616 0.929 . S
H626 C619 0.930 . S
C627 C628 1.351 . S
C627 N630 1.368 . S
C627 H632 0.931 . S
C628 C627 1.351 . S
C628 N629 1.373 . S
C628 H656 0.930 . S
N629 C628 1.373 . S
N629 C631 1.340 . S
N630 C627 1.368 . S
N630 C631 1.321 . S
N630 Co633 2.135 . S
C631 N629 1.340 . S
C631 N630 1.321 . S
C631 H655 0.930 . S
H632 C627 0.931 . S
Co633 N630 2.135 . S
Co633 N636 2.121 . S
Co633 O641 2.055 . S
Co633 O644 2.039 . S
Co633 N647 2.140 . S
C634 O635 1.227 . S
C634 O644 1.265 . S
O635 C634 1.227 . S
N636 Co633 2.121 . S
N636 C638 1.375 . S
N636 C639 1.313 . S
C637 C638 1.338 . S
C637 N640 1.377 . S
C637 H657 0.930 . S
C638 N636 1.375 . S
C638 C637 1.338 . S
C638 H642 0.931 . S
C639 N636 1.313 . S
C639 N640 1.344 . S
C639 H643 0.930 . S
N640 C637 1.377 . S
N640 C639 1.344 . S
O641 Co633 2.055 . S
O641 C645 1.253 . S
H642 C638 0.931 . S
H643 C639 0.930 . S
O644 Co633 2.039 . S
O644 C634 1.265 . S
C645 O641 1.253 . S
C645 O646 1.227 . S
O646 C645 1.227 . S
N647 Co633 2.140 . S
N647 C650 1.346 . S
N647 C651 1.345 . S
C648 C649 1.387 . S
C648 C652 1.391 . S
C649 C648 1.387 . S
C649 C650 1.369 . S
C649 H658 0.929 . S
C650 N647 1.346 . S
C650 C649 1.369 . S
C650 H653 0.928 . S
C651 N647 1.345 . S
C651 C652 1.371 . S
C651 H654 0.931 . S
C652 C648 1.391 . S
C652 C651 1.371 . S
C652 H659 0.930 . S
H653 C650 0.928 . S
H654 C651 0.931 . S
H655 C631 0.930 . S
H656 C628 0.930 . S
H657 C637 0.930 . S
H658 C649 0.929 . S
H659 C652 0.930 . S
C660 C661 1.351 . S
C660 N663 1.368 . S
C660 H665 0.931 . S
C661 C660 1.351 . S
C661 N662 1.373 . S
C661 H689 0.930 . S
N662 C661 1.373 . S
N662 C664 1.340 . S
N663 C660 1.368 . S
N663 C664 1.321 . S
N663 Co666 2.135 . S
C664 N662 1.340 . S
C664 N663 1.321 . S
C664 H688 0.930 . S
H665 C660 0.931 . S
Co666 N663 2.135 . S
Co666 N669 2.121 . S
Co666 O674 2.055 . S
Co666 O677 2.039 . S
Co666 N680 2.140 . S
C667 O668 1.227 . S
C667 O677 1.265 . S
O668 C667 1.227 . S
N669 Co666 2.121 . S
N669 C671 1.375 . S
N669 C672 1.313 . S
C670 C671 1.338 . S
C670 N673 1.377 . S
C670 H690 0.930 . S
C671 N669 1.375 . S
C671 C670 1.338 . S
C671 H675 0.931 . S
C672 N669 1.313 . S
C672 N673 1.344 . S
C672 H676 0.930 . S
N673 C670 1.377 . S
N673 C672 1.344 . S
O674 Co666 2.055 . S
O674 C678 1.253 . S
H675 C671 0.931 . S
H676 C672 0.930 . S
O677 Co666 2.039 . S
O677 C667 1.265 . S
C678 O674 1.253 . S
C678 O679 1.227 . S
O679 C678 1.227 . S
N680 Co666 2.140 . S
N680 C683 1.346 . S
N680 C684 1.345 . S
C681 C682 1.387 . S
C681 C685 1.391 . S
C682 C681 1.387 . S
C682 C683 1.369 . S
C682 H691 0.929 . S
C683 N680 1.346 . S
C683 C682 1.369 . S
C683 H686 0.928 . S
C684 N680 1.345 . S
C684 C685 1.371 . S
C684 H687 0.931 . S
C685 C681 1.391 . S
C685 C684 1.371 . S
C685 H692 0.930 . S
H686 C683 0.928 . S
H687 C684 0.931 . S
H688 C664 0.930 . S
H689 C661 0.930 . S
H690 C670 0.930 . S
H691 C682 0.929 . S
H692 C685 0.930 . S
C693 C694 1.351 . S
C693 N696 1.368 . S
C693 H698 0.931 . S
C694 C693 1.351 . S
C694 N695 1.373 . S
C694 H722 0.930 . S
N695 C694 1.373 . S
N695 C697 1.340 . S
N696 C693 1.368 . S
N696 C697 1.321 . S
N696 Co699 2.135 . S
C697 N695 1.340 . S
C697 N696 1.321 . S
C697 H721 0.930 . S
H698 C693 0.931 . S
Co699 N696 2.135 . S
Co699 N702 2.121 . S
Co699 O707 2.055 . S
Co699 O710 2.039 . S
Co699 N713 2.140 . S
C700 O701 1.227 . S
C700 O710 1.265 . S
O701 C700 1.227 . S
N702 Co699 2.121 . S
N702 C704 1.375 . S
N702 C705 1.313 . S
C703 C704 1.338 . S
C703 N706 1.377 . S
C703 H723 0.930 . S
C704 N702 1.375 . S
C704 C703 1.338 . S
C704 H708 0.931 . S
C705 N702 1.313 . S
C705 N706 1.344 . S
C705 H709 0.930 . S
N706 C703 1.377 . S
N706 C705 1.344 . S
O707 Co699 2.055 . S
O707 C711 1.253 . S
H708 C704 0.931 . S
H709 C705 0.930 . S
O710 Co699 2.039 . S
O710 C700 1.265 . S
C711 O707 1.253 . S
C711 O712 1.227 . S
O712 C711 1.227 . S
N713 Co699 2.140 . S
N713 C716 1.346 . S
N713 C717 1.345 . S
C714 C715 1.387 . S
C714 C718 1.391 . S
C715 C714 1.387 . S
C715 C716 1.369 . S
C715 H724 0.929 . S
C716 N713 1.346 . S
C716 C715 1.369 . S
C716 H719 0.928 . S
C717 N713 1.345 . S
C717 C718 1.371 . S
C717 H720 0.931 . S
C718 C714 1.391 . S
C718 C717 1.371 . S
C718 H725 0.930 . S
H719 C716 0.928 . S
H720 C717 0.931 . S
H721 C697 0.930 . S
H722 C694 0.930 . S
H723 C703 0.930 . S
H724 C715 0.929 . S
H725 C718 0.930 . S
C726 C727 1.351 . S
C726 N729 1.368 . S
C726 H731 0.931 . S
C727 C726 1.351 . S
C727 N728 1.373 . S
C727 H755 0.930 . S
N728 C727 1.373 . S
N728 C730 1.340 . S
N729 C726 1.368 . S
N729 C730 1.321 . S
N729 Co732 2.135 . S
C730 N728 1.340 . S
C730 N729 1.321 . S
C730 H754 0.930 . S
H731 C726 0.931 . S
Co732 N729 2.135 . S
Co732 N735 2.121 . S
Co732 O740 2.055 . S
Co732 O743 2.039 . S
Co732 N746 2.140 . S
C733 O734 1.227 . S
C733 O743 1.265 . S
O734 C733 1.227 . S
N735 Co732 2.121 . S
N735 C737 1.375 . S
N735 C738 1.313 . S
C736 C737 1.338 . S
C736 N739 1.377 . S
C736 H756 0.930 . S
C737 N735 1.375 . S
C737 C736 1.338 . S
C737 H741 0.931 . S
C738 N735 1.313 . S
C738 N739 1.344 . S
C738 H742 0.930 . S
N739 C736 1.377 . S
N739 C738 1.344 . S
O740 Co732 2.055 . S
O740 C744 1.253 . S
H741 C737 0.931 . S
H742 C738 0.930 . S
O743 Co732 2.039 . S
O743 C733 1.265 . S
C744 O740 1.253 . S
C744 O745 1.227 . S
O745 C744 1.227 . S
N746 Co732 2.140 . S
N746 C749 1.346 . S
N746 C750 1.345 . S
C747 C748 1.387 . S
C747 C751 1.391 . S
C748 C747 1.387 . S
C748 C749 1.369 . S
C748 H757 0.929 . S
C749 N746 1.346 . S
C749 C748 1.369 . S
C749 H752 0.928 . S
C750 N746 1.345 . S
C750 C751 1.371 . S
C750 H753 0.931 . S
C751 C747 1.391 . S
C751 C750 1.371 . S
C751 H758 0.930 . S
H752 C749 0.928 . S
H753 C750 0.931 . S
H754 C730 0.930 . S
H755 C727 0.930 . S
H756 C736 0.930 . S
H757 C748 0.929 . S
H758 C751 0.930 . S
C759 C760 1.351 . S
C759 N762 1.368 . S
C759 H764 0.931 . S
C760 C759 1.351 . S
C760 N761 1.373 . S
C760 H788 0.930 . S
N761 C760 1.373 . S
N761 C763 1.340 . S
N762 C759 1.368 . S
N762 C763 1.321 . S
N762 Co765 2.135 . S
C763 N761 1.340 . S
C763 N762 1.321 . S
C763 H787 0.930 . S
H764 C759 0.931 . S
Co765 N762 2.135 . S
Co765 N768 2.121 . S
Co765 O773 2.055 . S
Co765 O776 2.039 . S
Co765 N779 2.140 . S
C766 O767 1.227 . S
C766 O776 1.265 . S
O767 C766 1.227 . S
N768 Co765 2.121 . S
N768 C770 1.375 . S
N768 C771 1.313 . S
C769 C770 1.338 . S
C769 N772 1.377 . S
C769 H789 0.930 . S
C770 N768 1.375 . S
C770 C769 1.338 . S
C770 H774 0.931 . S
C771 N768 1.313 . S
C771 N772 1.344 . S
C771 H775 0.930 . S
N772 C769 1.377 . S
N772 C771 1.344 . S
O773 Co765 2.055 . S
O773 C777 1.253 . S
H774 C770 0.931 . S
H775 C771 0.930 . S
O776 Co765 2.039 . S
O776 C766 1.265 . S
C777 O773 1.253 . S
C777 O778 1.227 . S
O778 C777 1.227 . S
N779 Co765 2.140 . S
N779 C782 1.346 . S
N779 C783 1.345 . S
C780 C781 1.387 . S
C780 C784 1.391 . S
C781 C780 1.387 . S
C781 C782 1.369 . S
C781 H790 0.929 . S
C782 N779 1.346 . S
C782 C781 1.369 . S
C782 H785 0.928 . S
C783 N779 1.345 . S
C783 C784 1.371 . S
C783 H786 0.931 . S
C784 C780 1.391 . S
C784 C783 1.371 . S
C784 H791 0.930 . S
H785 C782 0.928 . S
H786 C783 0.931 . S
H787 C763 0.930 . S
H788 C760 0.930 . S
H789 C769 0.930 . S
H790 C781 0.929 . S
H791 C784 0.930 . S
C792 C793 1.363 . S
C792 C798 1.379 . S
C792 N800 1.356 . S
C793 C792 1.363 . S
C793 C799 1.363 . S
C794 C795 1.363 . S
C794 C799 1.379 . S
C794 N801 1.356 . S
C795 C794 1.363 . S
C795 C798 1.363 . S
N796 C798 1.356 . S
N796 H808 0.984 . S
N796 H809 0.985 . S
N797 C799 1.356 . S
N797 H802 0.984 . S
N797 H803 0.985 . S
C798 C792 1.379 . S
C798 C795 1.363 . S
C798 N796 1.356 . S
C799 C793 1.363 . S
C799 C794 1.379 . S
C799 N797 1.356 . S
N800 C792 1.356 . S
N800 H806 0.984 . S
N800 H807 0.984 . S
N801 C794 1.356 . S
N801 H804 0.984 . S
N801 H805 0.985 . S
H802 N797 0.984 . S
H803 N797 0.985 . S
H804 N801 0.984 . S
H805 N801 0.985 . S
H806 N800 0.984 . S
H807 N800 0.984 . S
H808 N796 0.984 . S
H809 N796 0.985 . S
C810 C811 1.363 . S
C810 C816 1.379 . S
C810 N818 1.356 . S
C811 C810 1.363 . S
C811 C817 1.363 . S
C812 C813 1.363 . S
C812 C817 1.379 . S
C812 N819 1.356 . S
C813 C812 1.363 . S
C813 C816 1.363 . S
N814 C816 1.356 . S
N814 H826 0.984 . S
N814 H827 0.985 . S
N815 C817 1.356 . S
N815 H820 0.984 . S
N815 H821 0.985 . S
C816 C810 1.379 . S
C816 C813 1.363 . S
C816 N814 1.356 . S
C817 C811 1.363 . S
C817 C812 1.379 . S
C817 N815 1.356 . S
N818 C810 1.356 . S
N818 H824 0.984 . S
N818 H825 0.984 . S
N819 C812 1.356 . S
N819 H822 0.984 . S
N819 H823 0.985 . S
H820 N815 0.984 . S
H821 N815 0.985 . S
H822 N819 0.984 . S
H823 N819 0.985 . S
H824 N818 0.984 . S
H825 N818 0.984 . S
H826 N814 0.984 . S
H827 N814 0.985 . S
C828 C829 1.363 . S
C828 C834 1.379 . S
C828 N836 1.356 . S
C829 C828 1.363 . S
C829 C835 1.363 . S
C830 C831 1.363 . S
C830 C835 1.379 . S
C830 N837 1.356 . S
C831 C830 1.363 . S
C831 C834 1.363 . S
N832 C834 1.356 . S
N832 H844 0.984 . S
N832 H845 0.985 . S
N833 C835 1.356 . S
N833 H838 0.984 . S
N833 H839 0.985 . S
C834 C828 1.379 . S
C834 C831 1.363 . S
C834 N832 1.356 . S
C835 C829 1.363 . S
C835 C830 1.379 . S
C835 N833 1.356 . S
N836 C828 1.356 . S
N836 H842 0.984 . S
N836 H843 0.984 . S
N837 C830 1.356 . S
N837 H840 0.984 . S
N837 H841 0.985 . S
H838 N833 0.984 . S
H839 N833 0.985 . S
H840 N837 0.984 . S
H841 N837 0.985 . S
H842 N836 0.984 . S
H843 N836 0.984 . S
H844 N832 0.984 . S
H845 N832 0.985 . S
C846 C847 1.363 . S
C846 C852 1.379 . S
C846 N854 1.356 . S
C847 C846 1.363 . S
C847 C853 1.363 . S
C848 C849 1.363 . S
C848 C853 1.379 . S
C848 N855 1.356 . S
C849 C848 1.363 . S
C849 C852 1.363 . S
N850 C852 1.356 . S
N850 H862 0.984 . S
N850 H863 0.985 . S
N851 C853 1.356 . S
N851 H856 0.984 . S
N851 H857 0.985 . S
C852 C846 1.379 . S
C852 C849 1.363 . S
C852 N850 1.356 . S
C853 C847 1.363 . S
C853 C848 1.379 . S
C853 N851 1.356 . S
N854 C846 1.356 . S
N854 H860 0.984 . S
N854 H861 0.984 . S
N855 C848 1.356 . S
N855 H858 0.984 . S
N855 H859 0.985 . S
H856 N851 0.984 . S
H857 N851 0.985 . S
H858 N855 0.984 . S
H859 N855 0.985 . S
H860 N854 0.984 . S
H861 N854 0.984 . S
H862 N850 0.984 . S
H863 N850 0.985 . S
C864 C865 1.363 . S
C864 C870 1.379 . S
C864 N872 1.356 . S
C865 C864 1.363 . S
C865 C871 1.363 . S
C866 C867 1.363 . S
C866 C871 1.379 . S
C866 N873 1.356 . S
C867 C866 1.363 . S
C867 C870 1.363 . S
N868 C870 1.356 . S
N868 H880 0.984 . S
N868 H881 0.985 . S
N869 C871 1.356 . S
N869 H874 0.984 . S
N869 H875 0.985 . S
C870 C864 1.379 . S
C870 C867 1.363 . S
C870 N868 1.356 . S
C871 C865 1.363 . S
C871 C866 1.379 . S
C871 N869 1.356 . S
N872 C864 1.356 . S
N872 H878 0.984 . S
N872 H879 0.984 . S
N873 C866 1.356 . S
N873 H876 0.984 . S
N873 H877 0.985 . S
H874 N869 0.984 . S
H875 N869 0.985 . S
H876 N873 0.984 . S
H877 N873 0.985 . S
H878 N872 0.984 . S
H879 N872 0.984 . S
H880 N868 0.984 . S
H881 N868 0.985 . S
C882 C883 1.363 . S
C882 C888 1.379 . S
C882 N890 1.356 . S
C883 C882 1.363 . S
C883 C889 1.363 . S
C884 C885 1.363 . S
C884 C889 1.379 . S
C884 N891 1.356 . S
C885 C884 1.363 . S
C885 C888 1.363 . S
N886 C888 1.356 . S
N886 H898 0.984 . S
N886 H899 0.985 . S
N887 C889 1.356 . S
N887 H892 0.984 . S
N887 H893 0.985 . S
C888 C882 1.379 . S
C888 C885 1.363 . S
C888 N886 1.356 . S
C889 C883 1.363 . S
C889 C884 1.379 . S
C889 N887 1.356 . S
N890 C882 1.356 . S
N890 H896 0.984 . S
N890 H897 0.984 . S
N891 C884 1.356 . S
N891 H894 0.984 . S
N891 H895 0.985 . S
H892 N887 0.984 . S
H893 N887 0.985 . S
H894 N891 0.984 . S
H895 N891 0.985 . S
H896 N890 0.984 . S
H897 N890 0.984 . S
H898 N886 0.984 . S
H899 N886 0.985 . S
C900 C901 1.363 . S
C900 C906 1.379 . S
C900 N908 1.356 . S
C901 C900 1.363 . S
C901 C907 1.363 . S
C902 C903 1.363 . S
C902 C907 1.379 . S
C902 N909 1.356 . S
C903 C902 1.363 . S
C903 C906 1.363 . S
N904 C906 1.356 . S
N904 H916 0.984 . S
N904 H917 0.985 . S
N905 C907 1.356 . S
N905 H910 0.984 . S
N905 H911 0.985 . S
C906 C900 1.379 . S
C906 C903 1.363 . S
C906 N904 1.356 . S
C907 C901 1.363 . S
C907 C902 1.379 . S
C907 N905 1.356 . S
N908 C900 1.356 . S
N908 H914 0.984 . S
N908 H915 0.984 . S
N909 C902 1.356 . S
N909 H912 0.984 . S
N909 H913 0.985 . S
H910 N905 0.984 . S
H911 N905 0.985 . S
H912 N909 0.984 . S
H913 N909 0.985 . S
H914 N908 0.984 . S
H915 N908 0.984 . S
H916 N904 0.984 . S
H917 N904 0.985 . S
C918 C919 1.363 . S
C918 C924 1.379 . S
C918 N926 1.356 . S
C919 C918 1.363 . S
C919 C925 1.363 . S
C920 C921 1.363 . S
C920 C925 1.379 . S
C920 N927 1.356 . S
C921 C920 1.363 . S
C921 C924 1.363 . S
N922 C924 1.356 . S
N922 H934 0.984 . S
N922 H935 0.985 . S
N923 C925 1.356 . S
N923 H928 0.984 . S
N923 H929 0.985 . S
C924 C918 1.379 . S
C924 C921 1.363 . S
C924 N922 1.356 . S
C925 C919 1.363 . S
C925 C920 1.379 . S
C925 N923 1.356 . S
N926 C918 1.356 . S
N926 H932 0.984 . S
N926 H933 0.984 . S
N927 C920 1.356 . S
N927 H930 0.984 . S
N927 H931 0.985 . S
H928 N923 0.984 . S
H929 N923 0.985 . S
H930 N927 0.984 . S
H931 N927 0.985 . S
H932 N926 0.984 . S
H933 N926 0.984 . S
H934 N922 0.984 . S
H935 N922 0.985 . S
C936 C937 1.363 . S
C936 C942 1.379 . S
C936 N944 1.356 . S
C937 C936 1.363 . S
C937 C943 1.363 . S
C938 C939 1.363 . S
C938 C943 1.379 . S
C938 N945 1.356 . S
C939 C938 1.363 . S
C939 C942 1.363 . S
N940 C942 1.356 . S
N940 H952 0.984 . S
N940 H953 0.985 . S
N941 C943 1.356 . S
N941 H946 0.984 . S
N941 H947 0.985 . S
C942 C936 1.379 . S
C942 C939 1.363 . S
C942 N940 1.356 . S
C943 C937 1.363 . S
C943 C938 1.379 . S
C943 N941 1.356 . S
N944 C936 1.356 . S
N944 H950 0.984 . S
N944 H951 0.984 . S
N945 C938 1.356 . S
N945 H948 0.984 . S
N945 H949 0.985 . S
H946 N941 0.984 . S
H947 N941 0.985 . S
H948 N945 0.984 . S
H949 N945 0.985 . S
H950 N944 0.984 . S
H951 N944 0.984 . S
H952 N940 0.984 . S
H953 N940 0.985 . S
C954 C955 1.363 . S
C954 C960 1.379 . S
C954 N962 1.356 . S
C955 C954 1.363 . S
C955 C961 1.363 . S
C956 C957 1.363 . S
C956 C961 1.379 . S
C956 N963 1.356 . S
C957 C956 1.363 . S
C957 C960 1.363 . S
N958 C960 1.356 . S
N958 H970 0.984 . S
N958 H971 0.985 . S
N959 C961 1.356 . S
N959 H964 0.984 . S
N959 H965 0.985 . S
C960 C954 1.379 . S
C960 C957 1.363 . S
C960 N958 1.356 . S
C961 C955 1.363 . S
C961 C956 1.379 . S
C961 N959 1.356 . S
N962 C954 1.356 . S
N962 H968 0.984 . S
N962 H969 0.984 . S
N963 C956 1.356 . S
N963 H966 0.984 . S
N963 H967 0.985 . S
H964 N959 0.984 . S
H965 N959 0.985 . S
H966 N963 0.984 . S
H967 N963 0.985 . S
H968 N962 0.984 . S
H969 N962 0.984 . S
H970 N958 0.984 . S
H971 N958 0.985 . S
C972 C973 1.363 . S
C972 C978 1.379 . S
C972 N980 1.356 . S
C973 C972 1.363 . S
C973 C979 1.363 . S
C974 C975 1.363 . S
C974 C979 1.379 . S
C974 N981 1.356 . S
C975 C974 1.363 . S
C975 C978 1.363 . S
N976 C978 1.356 . S
N976 H988 0.984 . S
N976 H989 0.985 . S
N977 C979 1.356 . S
N977 H982 0.984 . S
N977 H983 0.985 . S
C978 C972 1.379 . S
C978 C975 1.363 . S
C978 N976 1.356 . S
C979 C973 1.363 . S
C979 C974 1.379 . S
C979 N977 1.356 . S
N980 C972 1.356 . S
N980 H986 0.984 . S
N980 H987 0.984 . S
N981 C974 1.356 . S
N981 H984 0.984 . S
N981 H985 0.985 . S
H982 N977 0.984 . S
H983 N977 0.985 . S
H984 N981 0.984 . S
H985 N981 0.985 . S
H986 N980 0.984 . S
H987 N980 0.984 . S
H988 N976 0.984 . S
H989 N976 0.985 . S
C990 C991 1.363 . S
C990 C996 1.379 . S
C990 N998 1.356 . S
C991 C990 1.363 . S
C991 C997 1.363 . S
C992 C993 1.363 . S
C992 C997 1.379 . S
C992 N999 1.356 . S
C993 C992 1.363 . S
C993 C996 1.363 . S
N994 C996 1.356 . S
N994 H1006 0.984 . S
N994 H1007 0.985 . S
N995 C997 1.356 . S
N995 H1000 0.984 . S
N995 H1001 0.985 . S
C996 C990 1.379 . S
C996 C993 1.363 . S
C996 N994 1.356 . S
C997 C991 1.363 . S
C997 C992 1.379 . S
C997 N995 1.356 . S
N998 C990 1.356 . S
N998 H1004 0.984 . S
N998 H1005 0.984 . S
N999 C992 1.356 . S
N999 H1002 0.984 . S
N999 H1003 0.985 . S
H1000 N995 0.984 . S
H1001 N995 0.985 . S
H1002 N999 0.984 . S
H1003 N999 0.985 . S
H1004 N998 0.984 . S
H1005 N998 0.984 . S
H1006 N994 0.984 . S
H1007 N994 0.985 . S
C1008 C1009 1.351 1_545 S
C1008 C1014 1.410 . S
C1008 N1016 1.330 1_545 S
C1009 C1008 1.351 1_565 S
C1009 C1015 1.363 1_565 S
C1010 C1011 1.363 . S
C1010 C1015 1.379 . S
C1010 N1017 1.356 . S
C1011 C1010 1.363 . S
C1011 C1014 1.363 . S
N1012 C1014 1.356 . S
N1012 H1024 0.984 . S
N1012 H1025 0.985 . S
N1013 C1015 1.356 1_565 S
N1013 H1018 0.984 . S
N1013 H1019 0.985 . S
C1014 C1008 1.410 . S
C1014 C1011 1.363 . S
C1014 N1012 1.356 . S
C1015 C1009 1.363 1_545 S
C1015 C1010 1.379 . S
C1015 N1013 1.356 1_545 S
N1016 C1008 1.330 1_565 S
N1016 H1022 0.984 . S
N1016 H1023 0.984 . S
N1017 C1010 1.356 . S
N1017 H1020 0.984 . S
N1017 H1021 0.985 . S
H1018 N1013 0.984 . S
H1019 N1013 0.985 . S
H1020 N1017 0.984 . S
H1021 N1017 0.985 . S
H1022 N1016 0.984 . S
H1023 N1016 0.984 . S
H1024 N1012 0.984 . S
H1025 N1012 0.985 . S
C1026 C1027 1.363 . S
C1026 C1032 1.379 . S
C1026 N1034 1.356 . S
C1027 C1026 1.363 . S
C1027 C1033 1.363 . S
C1028 C1029 1.363 1_655 S
C1028 C1033 1.379 . S
C1028 N1035 1.356 1_655 S
C1029 C1028 1.363 1_455 S
C1029 C1032 1.363 1_455 S
N1030 C1032 1.356 1_455 S
N1030 H1042 0.984 . S
N1030 H1043 0.985 . S
N1031 C1033 1.356 . S
N1031 H1036 0.984 . S
N1031 H1037 0.985 . S
C1032 C1026 1.379 . S
C1032 C1029 1.363 1_655 S
C1032 N1030 1.356 1_655 S
C1033 C1027 1.363 . S
C1033 C1028 1.379 . S
C1033 N1031 1.356 . S
N1034 C1026 1.356 . S
N1034 H1040 0.984 . S
N1034 H1041 0.984 . S
N1035 C1028 1.356 1_455 S
N1035 H1038 0.984 . S
N1035 H1039 0.985 . S
H1036 N1031 0.984 . S
H1037 N1031 0.985 . S
H1038 N1035 0.984 . S
H1039 N1035 0.985 . S
H1040 N1034 0.984 . S
H1041 N1034 0.984 . S
H1042 N1030 0.984 . S
H1043 N1030 0.985 . S
C1044 C1045 1.363 . S
C1044 C1050 1.379 . S
C1044 N1052 1.356 . S
C1045 C1044 1.363 . S
C1045 C1051 1.363 . S
C1046 C1047 1.363 . S
C1046 C1051 1.379 1_545 S
C1046 N1053 1.356 . S
C1047 C1046 1.363 . S
C1047 C1050 1.363 1_545 S
N1048 C1050 1.356 1_545 S
N1048 H1060 0.984 1_545 S
N1048 H1061 0.985 . S
N1049 C1051 1.356 . S
N1049 H1054 0.984 . S
N1049 H1055 0.985 . S
C1050 C1044 1.379 . S
C1050 C1047 1.363 1_565 S
C1050 N1048 1.356 1_565 S
C1051 C1045 1.363 . S
C1051 C1046 1.379 1_565 S
C1051 N1049 1.356 . S
N1052 C1044 1.356 . S
N1052 H1058 0.984 . S
N1052 H1059 0.984 . S
N1053 C1046 1.356 . S
N1053 H1056 0.984 . S
N1053 H1057 0.985 . S
H1054 N1049 0.984 . S
H1055 N1049 0.985 . S
H1056 N1053 0.984 . S
H1057 N1053 0.985 . S
H1058 N1052 0.984 . S
H1059 N1052 0.984 . S
H1060 N1048 0.984 1_565 S
H1061 N1048 0.985 . S
C1062 C1063 1.363 1_455 S
C1062 C1068 1.379 . S
C1062 N1070 1.356 1_455 S
C1063 C1062 1.363 1_655 S
C1063 C1069 1.363 1_655 S
C1064 C1065 1.363 . S
C1064 C1069 1.379 . S
C1064 N1071 1.356 . S
C1065 C1064 1.363 . S
C1065 C1068 1.363 . S
N1066 C1068 1.356 . S
N1066 H1078 0.984 . S
N1066 H1079 0.985 . S
N1067 C1069 1.356 1_655 S
N1067 H1072 0.984 . S
N1067 H1073 0.985 . S
C1068 C1062 1.379 . S
C1068 C1065 1.363 . S
C1068 N1066 1.356 . S
C1069 C1063 1.363 1_455 S
C1069 C1064 1.379 . S
C1069 N1067 1.356 1_455 S
N1070 C1062 1.356 1_655 S
N1070 H1076 0.984 . S
N1070 H1077 0.984 . S
N1071 C1064 1.356 . S
N1071 H1074 0.984 . S
N1071 H1075 0.985 . S
H1072 N1067 0.984 . S
H1073 N1067 0.985 . S
H1074 N1071 0.984 . S
H1075 N1071 0.985 . S
H1076 N1070 0.984 . S
H1077 N1070 0.984 . S
H1078 N1066 0.984 . S
H1079 N1066 0.985 . S
C1080 C1081 1.371 . S
C1080 C1086 1.356 1_545 S
C1080 N1088 1.377 . S
C1081 C1080 1.371 . S
C1081 C1087 1.363 1_545 S
C1082 C1083 1.363 . S
C1082 C1087 1.379 . S
C1082 N1089 1.356 . S
C1083 C1082 1.363 . S
C1083 C1086 1.363 . S
N1084 C1086 1.356 . S
N1084 H1096 0.984 . S
N1084 H1097 0.985 . S
N1085 C1087 1.356 1_545 S
N1085 H1090 0.984 . S
N1085 H1091 0.985 1_545 S
C1086 C1080 1.356 1_565 S
C1086 C1083 1.363 . S
C1086 N1084 1.356 . S
C1087 C1081 1.363 1_565 S
C1087 C1082 1.379 . S
C1087 N1085 1.356 1_565 S
N1088 C1080 1.377 . S
N1088 H1094 0.984 . S
N1088 H1095 0.984 . S
N1089 C1082 1.356 . S
N1089 H1092 0.984 . S
N1089 H1093 0.985 . S
H1090 N1085 0.984 . S
H1091 N1085 0.985 1_565 S
H1092 N1089 0.984 . S
H1093 N1089 0.985 . S
H1094 N1088 0.984 . S
H1095 N1088 0.984 . S
H1096 N1084 0.984 . S
H1097 N1084 0.985 . S
C1098 C1099 1.363 . S
C1098 C1104 1.379 . S
C1098 N1106 1.356 . S
C1099 C1098 1.363 . S
C1099 C1105 1.363 . S
C1100 C1101 1.350 1_455 S
C1100 C1105 1.414 . S
C1100 N1107 1.327 1_455 S
C1101 C1100 1.350 1_655 S
C1101 C1104 1.363 1_655 S
N1102 C1104 1.356 1_655 S
N1102 H1114 0.984 . S
N1102 H1115 0.985 . S
N1103 C1105 1.356 . S
N1103 H1108 0.984 . S
N1103 H1109 0.985 . S
C1104 C1098 1.379 . S
C1104 C1101 1.363 1_455 S
C1104 N1102 1.356 1_455 S
C1105 C1099 1.363 . S
C1105 C1100 1.414 . S
C1105 N1103 1.356 . S
N1106 C1098 1.356 . S
N1106 H1112 0.984 . S
N1106 H1113 0.984 . S
N1107 C1100 1.327 1_655 S
N1107 H1110 0.984 . S
N1107 H1111 0.985 . S
H1108 N1103 0.984 . S
H1109 N1103 0.985 . S
H1110 N1107 0.984 . S
H1111 N1107 0.985 . S
H1112 N1106 0.984 . S
H1113 N1106 0.984 . S
H1114 N1102 0.984 . S
H1115 N1102 0.985 . S
C1116 C1117 1.356 1_545 S
C1116 C1122 1.397 . S
C1116 N1124 1.341 1_545 S
C1117 C1116 1.356 1_565 S
C1117 C1123 1.363 1_565 S
C1118 C1119 1.363 . S
C1118 C1123 1.379 . S
C1118 N1125 1.356 . S
C1119 C1118 1.363 . S
C1119 C1122 1.363 . S
N1120 C1122 1.356 . S
N1120 H1132 0.984 . S
N1120 H1133 0.985 . S
N1121 C1123 1.356 1_565 S
N1121 H1126 0.984 . S
N1121 H1127 0.991 . S
C1122 C1116 1.397 . S
C1122 C1119 1.363 . S
C1122 N1120 1.356 . S
C1123 C1117 1.363 1_545 S
C1123 C1118 1.379 . S
C1123 N1121 1.356 1_545 S
N1124 C1116 1.341 1_565 S
N1124 H1130 0.984 . S
N1124 H1131 0.984 . S
N1125 C1118 1.356 . S
N1125 H1128 0.984 . S
N1125 H1129 0.985 . S
H1126 N1121 0.984 . S
H1127 N1121 0.991 . S
H1128 N1125 0.984 . S
H1129 N1125 0.985 . S
H1130 N1124 0.984 . S
H1131 N1124 0.984 . S
H1132 N1120 0.984 . S
H1133 N1120 0.985 . S
C1134 C1135 1.363 1_655 S
C1134 C1140 1.379 . S
C1134 N1142 1.356 1_655 S
C1135 C1134 1.363 1_455 S
C1135 C1141 1.363 1_455 S
C1136 C1137 1.363 . S
C1136 C1141 1.379 . S
C1136 N1143 1.356 . S
C1137 C1136 1.363 . S
C1137 C1140 1.363 . S
N1138 C1140 1.356 . S
N1138 H1150 0.984 . S
N1138 H1151 0.985 . S
N1139 C1141 1.356 1_455 S
N1139 H1144 0.984 . S
N1139 H1145 0.985 . S
C1140 C1134 1.379 . S
C1140 C1137 1.363 . S
C1140 N1138 1.356 . S
C1141 C1135 1.363 1_655 S
C1141 C1136 1.379 . S
C1141 N1139 1.356 1_655 S
N1142 C1134 1.356 1_455 S
N1142 H1148 0.984 . S
N1142 H1149 0.984 . S
N1143 C1136 1.356 . S
N1143 H1146 0.984 . S
N1143 H1147 0.985 . S
H1144 N1139 0.984 . S
H1145 N1139 0.985 . S
H1146 N1143 0.984 . S
H1147 N1143 0.985 . S
H1148 N1142 0.984 . S
H1149 N1142 0.984 . S
H1150 N1138 0.984 . S
H1151 N1138 0.985 . S
C1152 C1153 1.363 . S
C1152 C1158 1.379 1_556 S
C1152 N1160 1.356 . S
C1153 C1152 1.363 . S
C1153 C1159 1.363 1_556 S
C1154 C1155 1.363 . S
C1154 C1159 1.379 . S
C1154 N1161 1.356 . S
C1155 C1154 1.363 . S
C1155 C1158 1.363 . S
N1156 C1158 1.356 . S
N1156 H1168 0.984 . S
N1156 H1169 0.985 . S
N1157 C1159 1.356 1_556 S
N1157 H1162 0.984 . S
N1157 H1163 0.985 1_556 S
C1158 C1152 1.379 1_554 S
C1158 C1155 1.363 . S
C1158 N1156 1.356 . S
C1159 C1153 1.363 1_554 S
C1159 C1154 1.379 . S
C1159 N1157 1.356 1_554 S
N1160 C1152 1.356 . S
N1160 H1166 0.984 . S
N1160 H1167 0.984 . S
N1161 C1154 1.356 . S
N1161 H1164 0.984 . S
N1161 H1165 0.985 . S
H1162 N1157 0.984 . S
H1163 N1157 0.985 1_554 S
H1164 N1161 0.984 . S
H1165 N1161 0.985 . S
H1166 N1160 0.984 . S
H1167 N1160 0.984 . S
H1168 N1156 0.984 . S
H1169 N1156 0.985 . S
C1170 C1171 1.363 . S
C1170 C1176 1.379 1_554 S
C1170 N1178 1.356 . S
C1171 C1170 1.363 . S
C1171 C1177 1.363 . S
C1172 C1173 1.363 1_554 S
C1172 C1177 1.379 . S
C1172 N1179 1.356 1_554 S
C1173 C1172 1.363 1_556 S
C1173 C1176 1.363 . S
N1174 C1176 1.356 . S
N1174 H1186 0.984 . S
N1174 H1187 0.985 . S
N1175 C1177 1.356 . S
N1175 H1180 0.984 . S
N1175 H1181 0.985 . S
C1176 C1170 1.379 1_556 S
C1176 C1173 1.363 . S
C1176 N1174 1.356 . S
C1177 C1171 1.363 . S
C1177 C1172 1.379 . S
C1177 N1175 1.356 . S
N1178 C1170 1.356 . S
N1178 H1184 0.984 . S
N1178 H1185 0.984 . S
N1179 C1172 1.356 1_556 S
N1179 H1182 0.984 . S
N1179 H1183 0.985 1_556 S
H1180 N1175 0.984 . S
H1181 N1175 0.985 . S
H1182 N1179 0.984 . S
H1183 N1179 0.985 1_554 S
H1184 N1178 0.984 . S
H1185 N1178 0.984 . S
H1186 N1174 0.984 . S
H1187 N1174 0.985 . S
C1188 C1189 1.357 1_554 S
C1188 C1194 1.394 . S
C1188 N1196 1.343 1_554 S
C1189 C1188 1.357 1_556 S
C1189 C1195 1.363 1_556 S
C1190 C1191 1.363 . S
C1190 C1195 1.379 . S
C1190 N1197 1.356 . S
C1191 C1190 1.363 . S
C1191 C1194 1.363 . S
N1192 C1194 1.356 . S
N1192 H1204 0.984 . S
N1192 H1205 0.985 . S
N1193 C1195 1.356 1_556 S
N1193 H1198 0.984 . S
N1193 H1199 0.988 . S
C1194 C1188 1.394 . S
C1194 C1191 1.363 . S
C1194 N1192 1.356 . S
C1195 C1189 1.363 1_554 S
C1195 C1190 1.379 . S
C1195 N1193 1.356 1_554 S
N1196 C1188 1.343 1_556 S
N1196 H1202 0.984 . S
N1196 H1203 0.984 . S
N1197 C1190 1.356 . S
N1197 H1200 0.984 . S
N1197 H1201 0.985 . S
H1198 N1193 0.984 . S
H1199 N1193 0.988 . S
H1200 N1197 0.984 . S
H1201 N1197 0.985 . S
H1202 N1196 0.984 . S
H1203 N1196 0.984 . S
H1204 N1192 0.984 . S
H1205 N1192 0.985 . S
C1206 C1207 1.363 . S
C1206 C1212 1.379 . S
C1206 N1214 1.356 . S
C1207 C1206 1.363 . S
C1207 C1213 1.363 . S
C1208 C1209 1.363 . S
C1208 C1213 1.379 1_556 S
C1208 N1215 1.356 . S
C1209 C1208 1.363 . S
C1209 C1212 1.363 1_556 S
N1210 C1212 1.356 1_556 S
N1210 H1222 0.984 1_556 S
N1210 H1223 0.985 . S
N1211 C1213 1.356 . S
N1211 H1216 0.984 . S
N1211 H1217 0.985 . S
C1212 C1206 1.379 . S
C1212 C1209 1.363 1_554 S
C1212 N1210 1.356 1_554 S
C1213 C1207 1.363 . S
C1213 C1208 1.379 1_554 S
C1213 N1211 1.356 . S
N1214 C1206 1.356 . S
N1214 H1220 0.984 . S
N1214 H1221 0.984 . S
N1215 C1208 1.356 . S
N1215 H1218 0.984 . S
N1215 H1219 0.985 . S
H1216 N1211 0.984 . S
H1217 N1211 0.985 . S
H1218 N1215 0.984 . S
H1219 N1215 0.985 . S
H1220 N1214 0.984 . S
H1221 N1214 0.984 . S
H1222 N1210 0.984 1_554 S
H1223 N1210 0.985 . S
C1224 C1225 1.363 1_556 S
C1224 C1230 1.379 . S
C1224 N1232 1.356 1_556 S
C1225 C1224 1.363 1_554 S
C1225 C1231 1.363 . S
C1226 C1227 1.363 . S
C1226 C1231 1.379 1_556 S
C1226 N1233 1.356 . S
C1227 C1226 1.363 . S
C1227 C1230 1.363 . S
N1228 C1230 1.356 . S
N1228 H1240 0.984 . S
N1228 H1241 0.985 . S
N1229 C1231 1.356 . S
N1229 H1234 0.984 . S
N1229 H1235 0.985 . S
C1230 C1224 1.379 . S
C1230 C1227 1.363 . S
C1230 N1228 1.356 . S
C1231 C1225 1.363 . S
C1231 C1226 1.379 1_554 S
C1231 N1229 1.356 . S
N1232 C1224 1.356 1_554 S
N1232 H1238 0.984 1_554 S
N1232 H1239 0.984 . S
N1233 C1226 1.356 . S
N1233 H1236 0.984 . S
N1233 H1237 0.985 . S
H1234 N1229 0.984 . S
H1235 N1229 0.985 . S
H1236 N1233 0.984 . S
H1237 N1233 0.985 . S
H1238 N1232 0.984 1_556 S
H1239 N1232 0.984 . S
H1240 N1228 0.984 . S
H1241 N1228 0.985 . S
C1242 C1243 1.363 . S
C1242 C1248 1.379 . S
C1242 N1250 1.356 . S
C1243 C1242 1.363 . S
C1243 C1249 1.363 . S
C1244 C1245 1.363 . S
C1244 C1249 1.379 1_554 S
C1244 N1251 1.356 . S
C1245 C1244 1.363 . S
C1245 C1248 1.363 1_554 S
N1246 C1248 1.356 1_554 S
N1246 H1258 0.984 1_554 S
N1246 H1259 0.985 . S
N1247 C1249 1.356 . S
N1247 H1252 0.984 . S
N1247 H1253 0.985 . S
C1248 C1242 1.379 . S
C1248 C1245 1.363 1_556 S
C1248 N1246 1.356 1_556 S
C1249 C1243 1.363 . S
C1249 C1244 1.379 1_556 S
C1249 N1247 1.356 . S
N1250 C1242 1.356 . S
N1250 H1256 0.984 . S
N1250 H1257 0.984 . S
N1251 C1244 1.356 . S
N1251 H1254 0.984 . S
N1251 H1255 0.985 . S
H1252 N1247 0.984 . S
H1253 N1247 0.985 . S
H1254 N1251 0.984 . S
H1255 N1251 0.985 . S
H1256 N1250 0.984 . S
H1257 N1250 0.984 . S
H1258 N1246 0.984 1_556 S
H1259 N1246 0.985 . S
C1260 C1261 1.363 . S
C1260 C1266 1.379 1_554 S
C1260 N1268 1.356 . S
C1261 C1260 1.363 . S
C1261 C1267 1.363 1_554 S
C1262 C1263 1.363 . S
C1262 C1267 1.379 . S
C1262 N1269 1.356 . S
C1263 C1262 1.363 . S
C1263 C1266 1.363 . S
N1264 C1266 1.356 . S
N1264 H1276 0.984 . S
N1264 H1277 0.985 . S
N1265 C1267 1.356 1_554 S
N1265 H1270 0.984 . S
N1265 H1271 0.985 1_554 S
C1266 C1260 1.379 1_556 S
C1266 C1263 1.363 . S
C1266 N1264 1.356 . S
C1267 C1261 1.363 1_556 S
C1267 C1262 1.379 . S
C1267 N1265 1.356 1_556 S
N1268 C1260 1.356 . S
N1268 H1274 0.984 . S
N1268 H1275 0.984 . S
N1269 C1262 1.356 . S
N1269 H1272 0.984 . S
N1269 H1273 0.985 . S
H1270 N1265 0.984 . S
H1271 N1265 0.985 1_556 S
H1272 N1269 0.984 . S
H1273 N1269 0.985 . S
H1274 N1268 0.984 . S
H1275 N1268 0.984 . S
H1276 N1264 0.984 . S
H1277 N1264 0.985 . S
C1278 C1279 1.363 . S
C1278 C1284 1.379 . S
C1278 N1286 1.356 . S
C1279 C1278 1.363 . S
C1279 C1285 1.363 . S
C1280 C1281 1.363 . S
C1280 C1285 1.379 1_554 S
C1280 N1287 1.356 . S
C1281 C1280 1.363 . S
C1281 C1284 1.363 1_554 S
N1282 C1284 1.356 1_554 S
N1282 H1294 0.984 1_554 S
N1282 H1295 0.985 . S
N1283 C1285 1.356 . S
N1283 H1288 0.984 . S
N1283 H1289 0.985 . S
C1284 C1278 1.379 . S
C1284 C1281 1.363 1_556 S
C1284 N1282 1.356 1_556 S
C1285 C1279 1.363 . S
C1285 C1280 1.379 1_556 S
C1285 N1283 1.356 . S
N1286 C1278 1.356 . S
N1286 H1292 0.984 . S
N1286 H1293 0.984 . S
N1287 C1280 1.356 . S
N1287 H1290 0.984 . S
N1287 H1291 0.985 . S
H1288 N1283 0.984 . S
H1289 N1283 0.985 . S
H1290 N1287 0.984 . S
H1291 N1287 0.985 . S
H1292 N1286 0.984 . S
H1293 N1286 0.984 . S
H1294 N1282 0.984 1_556 S
H1295 N1282 0.985 . S
C1296 C1297 1.363 . S
C1296 C1302 1.379 1_655 S
C1296 N1304 1.356 . S
C1297 C1296 1.363 . S
C1297 C1303 1.363 1_655 S
C1298 C1299 1.363 . S
C1298 C1303 1.379 . S
C1298 N1305 1.356 . S
C1299 C1298 1.363 . S
C1299 C1302 1.363 . S
N1300 C1302 1.356 . S
N1300 H1312 0.984 . S
N1300 H1313 0.985 . S
N1301 C1303 1.356 1_655 S
N1301 H1306 0.984 . S
N1301 H1307 0.985 1_655 S
C1302 C1296 1.379 1_455 S
C1302 C1299 1.363 . S
C1302 N1300 1.356 . S
C1303 C1297 1.363 1_455 S
C1303 C1298 1.379 . S
C1303 N1301 1.356 1_455 S
N1304 C1296 1.356 . S
N1304 H1310 0.984 . S
N1304 H1311 0.984 . S
N1305 C1298 1.356 . S
N1305 H1308 0.984 . S
N1305 H1309 0.985 . S
H1306 N1301 0.984 . S
H1307 N1301 0.985 1_455 S
H1308 N1305 0.984 . S
H1309 N1305 0.985 . S
H1310 N1304 0.984 . S
H1311 N1304 0.984 . S
H1312 N1300 0.984 . S
H1313 N1300 0.985 . S
C1314 C1315 1.363 1_455 S
C1314 C1320 1.379 . S
C1314 N1322 1.356 1_455 S
C1315 C1314 1.363 1_655 S
C1315 C1321 1.363 . S
C1316 C1317 1.363 . S
C1316 C1321 1.379 1_455 S
C1316 N1323 1.356 . S
C1317 C1316 1.363 . S
C1317 C1320 1.363 . S
N1318 C1320 1.356 . S
N1318 H1330 0.984 . S
N1318 H1331 0.985 . S
N1319 C1321 1.356 . S
N1319 H1324 0.984 . S
N1319 H1325 0.985 . S
C1320 C1314 1.379 . S
C1320 C1317 1.363 . S
C1320 N1318 1.356 . S
C1321 C1315 1.363 . S
C1321 C1316 1.379 1_655 S
C1321 N1319 1.356 . S
N1322 C1314 1.356 1_655 S
N1322 H1328 0.984 1_655 S
N1322 H1329 0.984 . S
N1323 C1316 1.356 . S
N1323 H1326 0.984 . S
N1323 H1327 0.985 . S
H1324 N1319 0.984 . S
H1325 N1319 0.985 . S
H1326 N1323 0.984 . S
H1327 N1323 0.985 . S
H1328 N1322 0.984 1_455 S
H1329 N1322 0.984 . S
H1330 N1318 0.984 . S
H1331 N1318 0.985 . S
C1332 C1333 1.363 . S
C1332 C1338 1.379 . S
C1332 N1340 1.356 . S
C1333 C1332 1.363 . S
C1333 C1339 1.363 . S
C1334 C1335 1.363 1_545 S
C1334 C1339 1.379 . S
C1334 N1341 1.356 1_545 S
C1335 C1334 1.363 1_565 S
C1335 C1338 1.363 1_565 S
N1336 C1338 1.356 1_565 S
N1336 H1348 0.984 . S
N1336 H1349 0.985 . S
N1337 C1339 1.356 . S
N1337 H1342 0.984 . S
N1337 H1343 0.985 . S
C1338 C1332 1.379 . S
C1338 C1335 1.363 1_545 S
C1338 N1336 1.356 1_545 S
C1339 C1333 1.363 . S
C1339 C1334 1.379 . S
C1339 N1337 1.356 . S
N1340 C1332 1.356 . S
N1340 H1346 0.984 . S
N1340 H1347 0.984 . S
N1341 C1334 1.356 1_565 S
N1341 H1344 0.984 . S
N1341 H1345 0.985 . S
H1342 N1337 0.984 . S
H1343 N1337 0.985 . S
H1344 N1341 0.984 . S
H1345 N1341 0.985 . S
H1346 N1340 0.984 . S
H1347 N1340 0.984 . S
H1348 N1336 0.984 . S
H1349 N1336 0.985 . S
C1350 C1351 1.363 . S
C1350 C1356 1.379 1_655 S
C1350 N1358 1.356 . S
C1351 C1350 1.363 . S
C1351 C1357 1.363 . S
C1352 C1353 1.363 1_655 S
C1352 C1357 1.379 . S
C1352 N1359 1.356 1_655 S
C1353 C1352 1.363 1_455 S
C1353 C1356 1.363 . S
N1354 C1356 1.356 . S
N1354 H1366 0.984 . S
N1354 H1367 0.985 . S
N1355 C1357 1.356 . S
N1355 H1360 0.984 . S
N1355 H1361 0.985 . S
C1356 C1350 1.379 1_455 S
C1356 C1353 1.363 . S
C1356 N1354 1.356 . S
C1357 C1351 1.363 . S
C1357 C1352 1.379 . S
C1357 N1355 1.356 . S
N1358 C1350 1.356 . S
N1358 H1364 0.984 . S
N1358 H1365 0.984 . S
N1359 C1352 1.356 1_455 S
N1359 H1362 0.984 . S
N1359 H1363 0.985 1_455 S
H1360 N1355 0.984 . S
H1361 N1355 0.985 . S
H1362 N1359 0.984 . S
H1363 N1359 0.985 1_655 S
H1364 N1358 0.984 . S
H1365 N1358 0.984 . S
H1366 N1354 0.984 . S
H1367 N1354 0.985 . S
C1368 C1369 1.363 1_565 S
C1368 C1374 1.379 . S
C1368 N1376 1.356 1_565 S
C1369 C1368 1.363 1_545 S
C1369 C1375 1.363 . S
C1370 C1371 1.363 . S
C1370 C1375 1.379 1_565 S
C1370 N1377 1.356 . S
C1371 C1370 1.363 . S
C1371 C1374 1.363 . S
N1372 C1374 1.356 . S
N1372 H1384 0.984 . S
N1372 H1385 0.985 . S
N1373 C1375 1.356 . S
N1373 H1378 0.984 . S
N1373 H1379 0.985 . S
C1374 C1368 1.379 . S
C1374 C1371 1.363 . S
C1374 N1372 1.356 . S
C1375 C1369 1.363 . S
C1375 C1370 1.379 1_545 S
C1375 N1373 1.356 . S
N1376 C1368 1.356 1_545 S
N1376 H1382 0.984 1_545 S
N1376 H1383 0.984 . S
N1377 C1370 1.356 . S
N1377 H1380 0.984 . S
N1377 H1381 0.985 . S
H1378 N1373 0.984 . S
H1379 N1373 0.985 . S
H1380 N1377 0.984 . S
H1381 N1377 0.985 . S
H1382 N1376 0.984 1_565 S
H1383 N1376 0.984 . S
H1384 N1372 0.984 . S
H1385 N1372 0.985 . S
C1386 C1387 1.363 1_655 S
C1386 C1392 1.379 . S
C1386 N1394 1.356 1_655 S
C1387 C1386 1.363 1_455 S
C1387 C1393 1.363 1_455 S
C1388 C1389 1.363 . S
C1388 C1393 1.379 . S
C1388 N1395 1.356 . S
C1389 C1388 1.363 . S
C1389 C1392 1.363 . S
N1390 C1392 1.356 . S
N1390 H1402 0.984 . S
N1390 H1403 0.985 . S
N1391 C1393 1.356 1_455 S
N1391 H1396 0.984 . S
N1391 H1397 0.985 . S
C1392 C1386 1.379 . S
C1392 C1389 1.363 . S
C1392 N1390 1.356 . S
C1393 C1387 1.363 1_655 S
C1393 C1388 1.379 . S
C1393 N1391 1.356 1_655 S
N1394 C1386 1.356 1_455 S
N1394 H1400 0.984 . S
N1394 H1401 0.984 . S
N1395 C1388 1.356 . S
N1395 H1398 0.984 . S
N1395 H1399 0.985 . S
H1396 N1391 0.984 . S
H1397 N1391 0.985 . S
H1398 N1395 0.984 . S
H1399 N1395 0.985 . S
H1400 N1394 0.984 . S
H1401 N1394 0.984 . S
H1402 N1390 0.984 . S
H1403 N1390 0.985 . S
C1404 C1405 1.363 . S
C1404 C1410 1.379 1_545 S
C1404 N1412 1.356 . S
C1405 C1404 1.363 . S
C1405 C1411 1.363 1_545 S
C1406 C1407 1.363 . S
C1406 C1411 1.379 . S
C1406 N1413 1.356 . S
C1407 C1406 1.363 . S
C1407 C1410 1.363 . S
N1408 C1410 1.356 . S
N1408 H1420 0.984 . S
N1408 H1421 0.985 . S
N1409 C1411 1.356 1_545 S
N1409 H1414 0.984 . S
N1409 H1415 0.985 1_545 S
C1410 C1404 1.379 1_565 S
C1410 C1407 1.363 . S
C1410 N1408 1.356 . S
C1411 C1405 1.363 1_565 S
C1411 C1406 1.379 . S
C1411 N1409 1.356 1_565 S
N1412 C1404 1.356 . S
N1412 H1418 0.984 . S
N1412 H1419 0.984 . S
N1413 C1406 1.356 . S
N1413 H1416 0.984 . S
N1413 H1417 0.985 . S
H1414 N1409 0.984 . S
H1415 N1409 0.985 1_565 S
H1416 N1413 0.984 . S
H1417 N1413 0.985 . S
H1418 N1412 0.984 . S
H1419 N1412 0.984 . S
H1420 N1408 0.984 . S
H1421 N1408 0.985 . S
C1422 C1423 1.363 . S
C1422 C1428 1.379 . S
C1422 N1430 1.356 . S
C1423 C1422 1.363 . S
C1423 C1429 1.363 . S
C1424 C1425 1.363 1_545 S
C1424 C1429 1.379 . S
C1424 N1431 1.356 1_545 S
C1425 C1424 1.363 1_565 S
C1425 C1428 1.363 1_565 S
N1426 C1428 1.356 1_565 S
N1426 H1438 0.984 . S
N1426 H1439 0.985 . S
N1427 C1429 1.356 . S
N1427 H1432 0.984 . S
N1427 H1433 0.985 . S
C1428 C1422 1.379 . S
C1428 C1425 1.363 1_545 S
C1428 N1426 1.356 1_545 S
C1429 C1423 1.363 . S
C1429 C1424 1.379 . S
C1429 N1427 1.356 . S
N1430 C1422 1.356 . S
N1430 H1436 0.984 . S
N1430 H1437 0.984 . S
N1431 C1424 1.356 1_565 S
N1431 H1434 0.984 . S
N1431 H1435 0.985 . S
H1432 N1427 0.984 . S
H1433 N1427 0.985 . S
H1434 N1431 0.984 . S
H1435 N1431 0.985 . S
H1436 N1430 0.984 . S
H1437 N1430 0.984 . S
H1438 N1426 0.984 . S
H1439 N1426 0.985 . S
C1440 C1441 1.363 . S
C1440 C1446 1.379 . S
C1440 N1448 1.356 . S
C1441 C1440 1.363 . S
C1441 C1447 1.363 . S
C1442 C1443 1.363 . S
C1442 C1447 1.379 . S
C1442 N1449 1.356 . S
C1443 C1442 1.363 . S
C1443 C1446 1.363 . S
N1444 C1446 1.356 . S
N1444 H1456 0.984 . S
N1444 H1457 0.985 . S
N1445 C1447 1.356 . S
N1445 H1450 0.984 . S
N1445 H1451 0.985 . S
C1446 C1440 1.379 . S
C1446 C1443 1.363 . S
C1446 N1444 1.356 . S
C1447 C1441 1.363 . S
C1447 C1442 1.379 . S
C1447 N1445 1.356 . S
N1448 C1440 1.356 . S
N1448 H1454 0.984 . S
N1448 H1455 0.984 . S
N1449 C1442 1.356 . S
N1449 H1452 0.984 . S
N1449 H1453 0.985 . S
H1450 N1445 0.984 . S
H1451 N1445 0.985 . S
H1452 N1449 0.984 . S
H1453 N1449 0.985 . S
H1454 N1448 0.984 . S
H1455 N1448 0.984 . S
H1456 N1444 0.984 . S
H1457 N1444 0.985 . S
C1458 C1459 1.363 . S
C1458 C1464 1.379 . S
C1458 N1466 1.356 . S
C1459 C1458 1.363 . S
C1459 C1465 1.363 . S
C1460 C1461 1.363 . S
C1460 C1465 1.379 . S
C1460 N1467 1.356 . S
C1461 C1460 1.363 . S
C1461 C1464 1.363 . S
N1462 C1464 1.356 . S
N1462 H1474 0.984 . S
N1462 H1475 0.985 . S
N1463 C1465 1.356 . S
N1463 H1468 0.984 . S
N1463 H1469 0.985 . S
C1464 C1458 1.379 . S
C1464 C1461 1.363 . S
C1464 N1462 1.356 . S
C1465 C1459 1.363 . S
C1465 C1460 1.379 . S
C1465 N1463 1.356 . S
N1466 C1458 1.356 . S
N1466 H1472 0.984 . S
N1466 H1473 0.984 . S
N1467 C1460 1.356 . S
N1467 H1470 0.984 . S
N1467 H1471 0.985 . S
H1468 N1463 0.984 . S
H1469 N1463 0.985 . S
H1470 N1467 0.984 . S
H1471 N1467 0.985 . S
H1472 N1466 0.984 . S
H1473 N1466 0.984 . S
H1474 N1462 0.984 . S
H1475 N1462 0.985 . S
C1476 C1477 1.363 . S
C1476 C1482 1.379 . S
C1476 N1484 1.356 . S
C1477 C1476 1.363 . S
C1477 C1483 1.363 . S
C1478 C1479 1.363 . S
C1478 C1483 1.379 . S
C1478 N1485 1.356 . S
C1479 C1478 1.363 . S
C1479 C1482 1.363 . S
N1480 C1482 1.356 . S
N1480 H1492 0.984 . S
N1480 H1493 0.985 . S
N1481 C1483 1.356 . S
N1481 H1486 0.984 . S
N1481 H1487 0.985 . S
C1482 C1476 1.379 . S
C1482 C1479 1.363 . S
C1482 N1480 1.356 . S
C1483 C1477 1.363 . S
C1483 C1478 1.379 . S
C1483 N1481 1.356 . S
N1484 C1476 1.356 . S
N1484 H1490 0.984 . S
N1484 H1491 0.984 . S
N1485 C1478 1.356 . S
N1485 H1488 0.984 . S
N1485 H1489 0.985 . S
H1486 N1481 0.984 . S
H1487 N1481 0.985 . S
H1488 N1485 0.984 . S
H1489 N1485 0.985 . S
H1490 N1484 0.984 . S
H1491 N1484 0.984 . S
H1492 N1480 0.984 . S
H1493 N1480 0.985 . S
C1494 C1495 1.363 . S
C1494 C1500 1.379 . S
C1494 N1502 1.356 . S
C1495 C1494 1.363 . S
C1495 C1501 1.363 . S
C1496 C1497 1.363 . S
C1496 C1501 1.379 . S
C1496 N1503 1.356 . S
C1497 C1496 1.363 . S
C1497 C1500 1.363 . S
N1498 C1500 1.356 . S
N1498 H1510 0.984 . S
N1498 H1511 0.985 . S
N1499 C1501 1.356 . S
N1499 H1504 0.984 . S
N1499 H1505 0.985 . S
C1500 C1494 1.379 . S
C1500 C1497 1.363 . S
C1500 N1498 1.356 . S
C1501 C1495 1.363 . S
C1501 C1496 1.379 . S
C1501 N1499 1.356 . S
N1502 C1494 1.356 . S
N1502 H1508 0.984 . S
N1502 H1509 0.984 . S
N1503 C1496 1.356 . S
N1503 H1506 0.984 . S
N1503 H1507 0.985 . S
H1504 N1499 0.984 . S
H1505 N1499 0.985 . S
H1506 N1503 0.984 . S
H1507 N1503 0.985 . S
H1508 N1502 0.984 . S
H1509 N1502 0.984 . S
H1510 N1498 0.984 . S
H1511 N1498 0.985 . S
C1512 C1513 1.363 . S
C1512 C1518 1.379 . S
C1512 N1520 1.356 . S
C1513 C1512 1.363 . S
C1513 C1519 1.363 . S
C1514 C1515 1.363 . S
C1514 C1519 1.379 . S
C1514 N1521 1.356 . S
C1515 C1514 1.363 . S
C1515 C1518 1.363 . S
N1516 C1518 1.356 . S
N1516 H1528 0.984 . S
N1516 H1529 0.985 . S
N1517 C1519 1.356 . S
N1517 H1522 0.984 . S
N1517 H1523 0.985 . S
C1518 C1512 1.379 . S
C1518 C1515 1.363 . S
C1518 N1516 1.356 . S
C1519 C1513 1.363 . S
C1519 C1514 1.379 . S
C1519 N1517 1.356 . S
N1520 C1512 1.356 . S
N1520 H1526 0.984 . S
N1520 H1527 0.984 . S
N1521 C1514 1.356 . S
N1521 H1524 0.984 . S
N1521 H1525 0.985 . S
H1522 N1517 0.984 . S
H1523 N1517 0.985 . S
H1524 N1521 0.984 . S
H1525 N1521 0.985 . S
H1526 N1520 0.984 . S
H1527 N1520 0.984 . S
H1528 N1516 0.984 . S
H1529 N1516 0.985 . S
C1530 C1531 1.363 . S
C1530 C1536 1.379 . S
C1530 N1538 1.356 . S
C1531 C1530 1.363 . S
C1531 C1537 1.363 . S
C1532 C1533 1.363 . S
C1532 C1537 1.379 . S
C1532 N1539 1.356 . S
C1533 C1532 1.363 . S
C1533 C1536 1.363 . S
N1534 C1536 1.356 . S
N1534 H1546 0.984 . S
N1534 H1547 0.985 . S
N1535 C1537 1.356 . S
N1535 H1540 0.984 . S
N1535 H1541 0.985 . S
C1536 C1530 1.379 . S
C1536 C1533 1.363 . S
C1536 N1534 1.356 . S
C1537 C1531 1.363 . S
C1537 C1532 1.379 . S
C1537 N1535 1.356 . S
N1538 C1530 1.356 . S
N1538 H1544 0.984 . S
N1538 H1545 0.984 . S
N1539 C1532 1.356 . S
N1539 H1542 0.984 . S
N1539 H1543 0.985 . S
H1540 N1535 0.984 . S
H1541 N1535 0.985 . S
H1542 N1539 0.984 . S
H1543 N1539 0.985 . S
H1544 N1538 0.984 . S
H1545 N1538 0.984 . S
H1546 N1534 0.984 . S
H1547 N1534 0.985 . S
C1548 C1549 1.363 . S
C1548 C1554 1.379 . S
C1548 N1556 1.356 . S
C1549 C1548 1.363 . S
C1549 C1555 1.363 . S
C1550 C1551 1.363 . S
C1550 C1555 1.379 . S
C1550 N1557 1.356 . S
C1551 C1550 1.363 . S
C1551 C1554 1.363 . S
N1552 C1554 1.356 . S
N1552 H1564 0.984 . S
N1552 H1565 0.985 . S
N1553 C1555 1.356 . S
N1553 H1558 0.984 . S
N1553 H1559 0.985 . S
C1554 C1548 1.379 . S
C1554 C1551 1.363 . S
C1554 N1552 1.356 . S
C1555 C1549 1.363 . S
C1555 C1550 1.379 . S
C1555 N1553 1.356 . S
N1556 C1548 1.356 . S
N1556 H1562 0.984 . S
N1556 H1563 0.984 . S
N1557 C1550 1.356 . S
N1557 H1560 0.984 . S
N1557 H1561 0.985 . S
H1558 N1553 0.984 . S
H1559 N1553 0.985 . S
H1560 N1557 0.984 . S
H1561 N1557 0.985 . S
H1562 N1556 0.984 . S
H1563 N1556 0.984 . S
H1564 N1552 0.984 . S
H1565 N1552 0.985 . S
C1566 C1567 1.363 . S
C1566 C1572 1.379 . S
C1566 N1574 1.356 . S
C1567 C1566 1.363 . S
C1567 C1573 1.363 . S
C1568 C1569 1.363 . S
C1568 C1573 1.379 . S
C1568 N1575 1.356 . S
C1569 C1568 1.363 . S
C1569 C1572 1.363 . S
N1570 C1572 1.356 . S
N1570 H1582 0.984 . S
N1570 H1583 0.985 . S
N1571 C1573 1.356 . S
N1571 H1576 0.984 . S
N1571 H1577 0.985 . S
C1572 C1566 1.379 . S
C1572 C1569 1.363 . S
C1572 N1570 1.356 . S
C1573 C1567 1.363 . S
C1573 C1568 1.379 . S
C1573 N1571 1.356 . S
N1574 C1566 1.356 . S
N1574 H1580 0.984 . S
N1574 H1581 0.984 . S
N1575 C1568 1.356 . S
N1575 H1578 0.984 . S
N1575 H1579 0.985 . S
H1576 N1571 0.984 . S
H1577 N1571 0.985 . S
H1578 N1575 0.984 . S
H1579 N1575 0.985 . S
H1580 N1574 0.984 . S
H1581 N1574 0.984 . S
H1582 N1570 0.984 . S
H1583 N1570 0.985 . S
C1584 C1585 1.363 . S
C1584 C1590 1.379 . S
C1584 N1592 1.356 . S
C1585 C1584 1.363 . S
C1585 C1591 1.363 . S
C1586 C1587 1.363 . S
C1586 C1591 1.379 . S
C1586 N1593 1.356 . S
C1587 C1586 1.363 . S
C1587 C1590 1.363 . S
N1588 C1590 1.356 . S
N1588 H1600 0.984 . S
N1588 H1601 0.985 . S
N1589 C1591 1.356 . S
N1589 H1594 0.984 . S
N1589 H1595 0.985 . S
C1590 C1584 1.379 . S
C1590 C1587 1.363 . S
C1590 N1588 1.356 . S
C1591 C1585 1.363 . S
C1591 C1586 1.379 . S
C1591 N1589 1.356 . S
N1592 C1584 1.356 . S
N1592 H1598 0.984 . S
N1592 H1599 0.984 . S
N1593 C1586 1.356 . S
N1593 H1596 0.984 . S
N1593 H1597 0.985 . S
H1594 N1589 0.984 . S
H1595 N1589 0.985 . S
H1596 N1593 0.984 . S
H1597 N1593 0.985 . S
H1598 N1592 0.984 . S
H1599 N1592 0.984 . S
H1600 N1588 0.984 . S
H1601 N1588 0.985 . S
C1602 C1603 1.363 . S
C1602 C1608 1.379 . S
C1602 N1610 1.356 . S
C1603 C1602 1.363 . S
C1603 C1609 1.363 . S
C1604 C1605 1.363 . S
C1604 C1609 1.379 . S
C1604 N1611 1.356 . S
C1605 C1604 1.363 . S
C1605 C1608 1.363 . S
N1606 C1608 1.356 . S
N1606 H1618 0.984 . S
N1606 H1619 0.985 . S
N1607 C1609 1.356 . S
N1607 H1612 0.984 . S
N1607 H1613 0.985 . S
C1608 C1602 1.379 . S
C1608 C1605 1.363 . S
C1608 N1606 1.356 . S
C1609 C1603 1.363 . S
C1609 C1604 1.379 . S
C1609 N1607 1.356 . S
N1610 C1602 1.356 . S
N1610 H1616 0.984 . S
N1610 H1617 0.984 . S
N1611 C1604 1.356 . S
N1611 H1614 0.984 . S
N1611 H1615 0.985 . S
H1612 N1607 0.984 . S
H1613 N1607 0.985 . S
H1614 N1611 0.984 . S
H1615 N1611 0.985 . S
H1616 N1610 0.984 . S
H1617 N1610 0.984 . S
H1618 N1606 0.984 . S
H1619 N1606 0.985 . S
C1620 C1621 1.363 . S
C1620 C1626 1.379 . S
C1620 N1628 1.356 . S
C1621 C1620 1.363 . S
C1621 C1627 1.363 . S
C1622 C1623 1.363 . S
C1622 C1627 1.379 . S
C1622 N1629 1.356 . S
C1623 C1622 1.363 . S
C1623 C1626 1.363 . S
N1624 C1626 1.356 . S
N1624 H1636 0.984 . S
N1624 H1637 0.985 . S
N1625 C1627 1.356 . S
N1625 H1630 0.984 . S
N1625 H1631 0.985 . S
C1626 C1620 1.379 . S
C1626 C1623 1.363 . S
C1626 N1624 1.356 . S
C1627 C1621 1.363 . S
C1627 C1622 1.379 . S
C1627 N1625 1.356 . S
N1628 C1620 1.356 . S
N1628 H1634 0.984 . S
N1628 H1635 0.984 . S
N1629 C1622 1.356 . S
N1629 H1632 0.984 . S
N1629 H1633 0.985 . S
H1630 N1625 0.984 . S
H1631 N1625 0.985 . S
H1632 N1629 0.984 . S
H1633 N1629 0.985 . S
H1634 N1628 0.984 . S
H1635 N1628 0.984 . S
H1636 N1624 0.984 . S
H1637 N1624 0.985 . S
C1638 C1639 1.363 . S
C1638 C1644 1.379 . S
C1638 N1646 1.356 . S
C1639 C1638 1.363 . S
C1639 C1645 1.363 . S
C1640 C1641 1.363 . S
C1640 C1645 1.379 . S
C1640 N1647 1.356 . S
C1641 C1640 1.363 . S
C1641 C1644 1.363 . S
N1642 C1644 1.356 . S
N1642 H1654 0.984 . S
N1642 H1655 0.985 . S
N1643 C1645 1.356 . S
N1643 H1648 0.984 . S
N1643 H1649 0.985 . S
C1644 C1638 1.379 . S
C1644 C1641 1.363 . S
C1644 N1642 1.356 . S
C1645 C1639 1.363 . S
C1645 C1640 1.379 . S
C1645 N1643 1.356 . S
N1646 C1638 1.356 . S
N1646 H1652 0.984 . S
N1646 H1653 0.984 . S
N1647 C1640 1.356 . S
N1647 H1650 0.984 . S
N1647 H1651 0.985 . S
H1648 N1643 0.984 . S
H1649 N1643 0.985 . S
H1650 N1647 0.984 . S
H1651 N1647 0.985 . S
H1652 N1646 0.984 . S
H1653 N1646 0.984 . S
H1654 N1642 0.984 . S
H1655 N1642 0.985 . S
C1656 C1657 1.363 . S
C1656 C1662 1.379 . S
C1656 N1664 1.356 . S
C1657 C1656 1.363 . S
C1657 C1663 1.363 . S
C1658 C1659 1.363 . S
C1658 C1663 1.379 . S
C1658 N1665 1.356 . S
C1659 C1658 1.363 . S
C1659 C1662 1.363 . S
N1660 C1662 1.356 . S
N1660 H1672 0.984 . S
N1660 H1673 0.985 . S
N1661 C1663 1.356 . S
N1661 H1666 0.984 . S
N1661 H1667 0.985 . S
C1662 C1656 1.379 . S
C1662 C1659 1.363 . S
C1662 N1660 1.356 . S
C1663 C1657 1.363 . S
C1663 C1658 1.379 . S
C1663 N1661 1.356 . S
N1664 C1656 1.356 . S
N1664 H1670 0.984 . S
N1664 H1671 0.984 . S
N1665 C1658 1.356 . S
N1665 H1668 0.984 . S
N1665 H1669 0.985 . S
H1666 N1661 0.984 . S
H1667 N1661 0.985 . S
H1668 N1665 0.984 . S
H1669 N1665 0.985 . S
H1670 N1664 0.984 . S
H1671 N1664 0.984 . S
H1672 N1660 0.984 . S
H1673 N1660 0.985 . S
C1674 C1675 1.363 . S
C1674 C1680 1.379 . S
C1674 N1682 1.356 . S
C1675 C1674 1.363 . S
C1675 C1681 1.363 . S
C1676 C1677 1.363 . S
C1676 C1681 1.379 . S
C1676 N1683 1.356 . S
C1677 C1676 1.363 . S
C1677 C1680 1.363 . S
N1678 C1680 1.356 . S
N1678 H1690 0.984 . S
N1678 H1691 0.985 . S
N1679 C1681 1.356 . S
N1679 H1684 0.984 . S
N1679 H1685 0.985 . S
C1680 C1674 1.379 . S
C1680 C1677 1.363 . S
C1680 N1678 1.356 . S
C1681 C1675 1.363 . S
C1681 C1676 1.379 . S
C1681 N1679 1.356 . S
N1682 C1674 1.356 . S
N1682 H1688 0.984 . S
N1682 H1689 0.984 . S
N1683 C1676 1.356 . S
N1683 H1686 0.984 . S
N1683 H1687 0.985 . S
H1684 N1679 0.984 . S
H1685 N1679 0.985 . S
H1686 N1683 0.984 . S
H1687 N1683 0.985 . S
H1688 N1682 0.984 . S
H1689 N1682 0.984 . S
H1690 N1678 0.984 . S
H1691 N1678 0.985 . S
C1692 C1693 1.363 . S
C1692 C1698 1.379 . S
C1692 N1700 1.356 . S
C1693 C1692 1.363 . S
C1693 C1699 1.363 . S
C1694 C1695 1.363 . S
C1694 C1699 1.379 . S
C1694 N1701 1.356 . S
C1695 C1694 1.363 . S
C1695 C1698 1.363 . S
N1696 C1698 1.356 . S
N1696 H1708 0.984 . S
N1696 H1709 0.985 . S
N1697 C1699 1.356 . S
N1697 H1702 0.984 . S
N1697 H1703 0.985 . S
C1698 C1692 1.379 . S
C1698 C1695 1.363 . S
C1698 N1696 1.356 . S
C1699 C1693 1.363 . S
C1699 C1694 1.379 . S
C1699 N1697 1.356 . S
N1700 C1692 1.356 . S
N1700 H1706 0.984 . S
N1700 H1707 0.984 . S
N1701 C1694 1.356 . S
N1701 H1704 0.984 . S
N1701 H1705 0.985 . S
H1702 N1697 0.984 . S
H1703 N1697 0.985 . S
H1704 N1701 0.984 . S
H1705 N1701 0.985 . S
H1706 N1700 0.984 . S
H1707 N1700 0.984 . S
H1708 N1696 0.984 . S
H1709 N1696 0.985 . S
C1710 C1711 1.363 . S
C1710 C1716 1.379 . S
C1710 N1718 1.356 . S
C1711 C1710 1.363 . S
C1711 C1717 1.363 . S
C1712 C1713 1.363 . S
C1712 C1717 1.379 . S
C1712 N1719 1.356 . S
C1713 C1712 1.363 . S
C1713 C1716 1.363 . S
N1714 C1716 1.356 . S
N1714 H1726 0.984 . S
N1714 H1727 0.985 . S
N1715 C1717 1.356 . S
N1715 H1720 0.984 . S
N1715 H1721 0.985 . S
C1716 C1710 1.379 . S
C1716 C1713 1.363 . S
C1716 N1714 1.356 . S
C1717 C1711 1.363 . S
C1717 C1712 1.379 . S
C1717 N1715 1.356 . S
N1718 C1710 1.356 . S
N1718 H1724 0.984 . S
N1718 H1725 0.984 . S
N1719 C1712 1.356 . S
N1719 H1722 0.984 . S
N1719 H1723 0.985 . S
H1720 N1715 0.984 . S
H1721 N1715 0.985 . S
H1722 N1719 0.984 . S
H1723 N1719 0.985 . S
H1724 N1718 0.984 . S
H1725 N1718 0.984 . S
H1726 N1714 0.984 . S
H1727 N1714 0.985 . S
C1728 C1729 1.363 . S
C1728 C1734 1.379 . S
C1728 N1736 1.356 . S
C1729 C1728 1.363 . S
C1729 C1735 1.363 . S
C1730 C1731 1.363 . S
C1730 C1735 1.379 . S
C1730 N1737 1.356 . S
C1731 C1730 1.363 . S
C1731 C1734 1.363 . S
N1732 C1734 1.356 . S
N1732 H1744 0.984 . S
N1732 H1745 0.985 . S
N1733 C1735 1.356 . S
N1733 H1738 0.984 . S
N1733 H1739 0.985 . S
C1734 C1728 1.379 . S
C1734 C1731 1.363 . S
C1734 N1732 1.356 . S
C1735 C1729 1.363 . S
C1735 C1730 1.379 . S
C1735 N1733 1.356 . S
N1736 C1728 1.356 . S
N1736 H1742 0.984 . S
N1736 H1743 0.984 . S
N1737 C1730 1.356 . S
N1737 H1740 0.984 . S
N1737 H1741 0.985 . S
H1738 N1733 0.984 . S
H1739 N1733 0.985 . S
H1740 N1737 0.984 . S
H1741 N1737 0.985 . S
H1742 N1736 0.984 . S
H1743 N1736 0.984 . S
H1744 N1732 0.984 . S
H1745 N1732 0.985 . S
C1746 C1747 1.363 . S
C1746 C1752 1.379 . S
C1746 N1754 1.356 . S
C1747 C1746 1.363 . S
C1747 C1753 1.363 . S
C1748 C1749 1.363 . S
C1748 C1753 1.379 . S
C1748 N1755 1.356 . S
C1749 C1748 1.363 . S
C1749 C1752 1.363 . S
N1750 C1752 1.356 . S
N1750 H1762 0.984 . S
N1750 H1763 0.985 . S
N1751 C1753 1.356 . S
N1751 H1756 0.984 . S
N1751 H1757 0.985 . S
C1752 C1746 1.379 . S
C1752 C1749 1.363 . S
C1752 N1750 1.356 . S
C1753 C1747 1.363 . S
C1753 C1748 1.379 . S
C1753 N1751 1.356 . S
N1754 C1746 1.356 . S
N1754 H1760 0.984 . S
N1754 H1761 0.984 . S
N1755 C1748 1.356 . S
N1755 H1758 0.984 . S
N1755 H1759 0.985 . S
H1756 N1751 0.984 . S
H1757 N1751 0.985 . S
H1758 N1755 0.984 . S
H1759 N1755 0.985 . S
H1760 N1754 0.984 . S
H1761 N1754 0.984 . S
H1762 N1750 0.984 . S
H1763 N1750 0.985 . S
C1764 C1765 1.363 . S
C1764 C1770 1.379 . S
C1764 N1772 1.356 . S
C1765 C1764 1.363 . S
C1765 C1771 1.363 . S
C1766 C1767 1.363 . S
C1766 C1771 1.379 . S
C1766 N1773 1.356 . S
C1767 C1766 1.363 . S
C1767 C1770 1.363 . S
N1768 C1770 1.356 . S
N1768 H1780 0.984 . S
N1768 H1781 0.985 . S
N1769 C1771 1.356 . S
N1769 H1774 0.984 . S
N1769 H1775 0.985 . S
C1770 C1764 1.379 . S
C1770 C1767 1.363 . S
C1770 N1768 1.356 . S
C1771 C1765 1.363 . S
C1771 C1766 1.379 . S
C1771 N1769 1.356 . S
N1772 C1764 1.356 . S
N1772 H1778 0.984 . S
N1772 H1779 0.984 . S
N1773 C1766 1.356 . S
N1773 H1776 0.984 . S
N1773 H1777 0.985 . S
H1774 N1769 0.984 . S
H1775 N1769 0.985 . S
H1776 N1773 0.984 . S
H1777 N1773 0.985 . S
H1778 N1772 0.984 . S
H1779 N1772 0.984 . S
H1780 N1768 0.984 . S
H1781 N1768 0.985 . S
C1782 C1783 1.363 . S
C1782 C1788 1.379 . S
C1782 N1790 1.356 . S
C1783 C1782 1.363 . S
C1783 C1789 1.363 . S
C1784 C1785 1.363 . S
C1784 C1789 1.379 . S
C1784 N1791 1.356 . S
C1785 C1784 1.363 . S
C1785 C1788 1.363 . S
N1786 C1788 1.356 . S
N1786 H1798 0.984 . S
N1786 H1799 0.985 . S
N1787 C1789 1.356 . S
N1787 H1792 0.984 . S
N1787 H1793 0.985 . S
C1788 C1782 1.379 . S
C1788 C1785 1.363 . S
C1788 N1786 1.356 . S
C1789 C1783 1.363 . S
C1789 C1784 1.379 . S
C1789 N1787 1.356 . S
N1790 C1782 1.356 . S
N1790 H1796 0.984 . S
N1790 H1797 0.984 . S
N1791 C1784 1.356 . S
N1791 H1794 0.984 . S
N1791 H1795 0.985 . S
H1792 N1787 0.984 . S
H1793 N1787 0.985 . S
H1794 N1791 0.984 . S
H1795 N1791 0.985 . S
H1796 N1790 0.984 . S
H1797 N1790 0.984 . S
H1798 N1786 0.984 . S
H1799 N1786 0.985 . S
C1800 C1801 1.363 . S
C1800 C1806 1.379 . S
C1800 N1808 1.356 . S
C1801 C1800 1.363 . S
C1801 C1807 1.363 . S
C1802 C1803 1.363 . S
C1802 C1807 1.379 . S
C1802 N1809 1.356 . S
C1803 C1802 1.363 . S
C1803 C1806 1.363 . S
N1804 C1806 1.356 . S
N1804 H1816 0.984 . S
N1804 H1817 0.985 . S
N1805 C1807 1.356 . S
N1805 H1810 0.984 . S
N1805 H1811 0.985 . S
C1806 C1800 1.379 . S
C1806 C1803 1.363 . S
C1806 N1804 1.356 . S
C1807 C1801 1.363 . S
C1807 C1802 1.379 . S
C1807 N1805 1.356 . S
N1808 C1800 1.356 . S
N1808 H1814 0.984 . S
N1808 H1815 0.984 . S
N1809 C1802 1.356 . S
N1809 H1812 0.984 . S
N1809 H1813 0.985 . S
H1810 N1805 0.984 . S
H1811 N1805 0.985 . S
H1812 N1809 0.984 . S
H1813 N1809 0.985 . S
H1814 N1808 0.984 . S
H1815 N1808 0.984 . S
H1816 N1804 0.984 . S
H1817 N1804 0.985 . S
C1818 C1819 1.363 . S
C1818 C1824 1.379 . S
C1818 N1826 1.356 . S
C1819 C1818 1.363 . S
C1819 C1825 1.363 . S
C1820 C1821 1.363 . S
C1820 C1825 1.379 . S
C1820 N1827 1.356 . S
C1821 C1820 1.363 . S
C1821 C1824 1.363 . S
N1822 C1824 1.356 . S
N1822 H1834 0.984 . S
N1822 H1835 0.985 . S
N1823 C1825 1.356 . S
N1823 H1828 0.984 . S
N1823 H1829 0.985 . S
C1824 C1818 1.379 . S
C1824 C1821 1.363 . S
C1824 N1822 1.356 . S
C1825 C1819 1.363 . S
C1825 C1820 1.379 . S
C1825 N1823 1.356 . S
N1826 C1818 1.356 . S
N1826 H1832 0.984 . S
N1826 H1833 0.984 . S
N1827 C1820 1.356 . S
N1827 H1830 0.984 . S
N1827 H1831 0.985 . S
H1828 N1823 0.984 . S
H1829 N1823 0.985 . S
H1830 N1827 0.984 . S
H1831 N1827 0.985 . S
H1832 N1826 0.984 . S
H1833 N1826 0.984 . S
H1834 N1822 0.984 . S
H1835 N1822 0.985 . S
C1836 C1837 1.363 . S
C1836 C1842 1.379 . S
C1836 N1844 1.356 . S
C1837 C1836 1.363 . S
C1837 C1843 1.363 . S
C1838 C1839 1.363 . S
C1838 C1843 1.379 . S
C1838 N1845 1.356 . S
C1839 C1838 1.363 . S
C1839 C1842 1.363 . S
N1840 C1842 1.356 . S
N1840 H1852 0.984 . S
N1840 H1853 0.985 . S
N1841 C1843 1.356 . S
N1841 H1846 0.984 . S
N1841 H1847 0.985 . S
C1842 C1836 1.379 . S
C1842 C1839 1.363 . S
C1842 N1840 1.356 . S
C1843 C1837 1.363 . S
C1843 C1838 1.379 . S
C1843 N1841 1.356 . S
N1844 C1836 1.356 . S
N1844 H1850 0.984 . S
N1844 H1851 0.984 . S
N1845 C1838 1.356 . S
N1845 H1848 0.984 . S
N1845 H1849 0.985 . S
H1846 N1841 0.984 . S
H1847 N1841 0.985 . S
H1848 N1845 0.984 . S
H1849 N1845 0.985 . S
H1850 N1844 0.984 . S
H1851 N1844 0.984 . S
H1852 N1840 0.984 . S
H1853 N1840 0.985 . S
C1854 C1855 1.363 . S
C1854 C1860 1.379 . S
C1854 N1862 1.356 . S
C1855 C1854 1.363 . S
C1855 C1861 1.363 . S
C1856 C1857 1.363 . S
C1856 C1861 1.379 . S
C1856 N1863 1.356 . S
C1857 C1856 1.363 . S
C1857 C1860 1.363 . S
N1858 C1860 1.356 . S
N1858 H1870 0.984 . S
N1858 H1871 0.985 . S
N1859 C1861 1.356 . S
N1859 H1864 0.984 . S
N1859 H1865 0.985 . S
C1860 C1854 1.379 . S
C1860 C1857 1.363 . S
C1860 N1858 1.356 . S
C1861 C1855 1.363 . S
C1861 C1856 1.379 . S
C1861 N1859 1.356 . S
N1862 C1854 1.356 . S
N1862 H1868 0.984 . S
N1862 H1869 0.984 . S
N1863 C1856 1.356 . S
N1863 H1866 0.984 . S
N1863 H1867 0.985 . S
H1864 N1859 0.984 . S
H1865 N1859 0.985 . S
H1866 N1863 0.984 . S
H1867 N1863 0.985 . S
H1868 N1862 0.984 . S
H1869 N1862 0.984 . S
H1870 N1858 0.984 . S
H1871 N1858 0.985 . S
C793 C186 1.166 . S
C795 C21 1.166 . S
C811 C54 1.166 . S
C813 C219 1.166 . S
C829 C87 1.166 . S
C831 C252 1.166 . S
C847 C153 1.166 . S
C849 C120 1.166 . S
C865 C285 1.166 . S
C867 C780 1.166 . S
C883 C714 1.166 . S
C885 C318 1.166 . S
C901 C351 1.166 . S
C903 C747 1.166 . S
C919 C549 1.166 . S
C921 C384 1.166 . S
C937 C417 1.166 . S
C939 C681 1.166 . S
C955 C450 1.166 . S
C957 C582 1.166 . S
C973 C615 1.166 . S
C975 C483 1.166 . S
C991 C516 1.166 . S
C993 C648 1.166 . S
C1009 N101 1.634 . S
C1011 C7 1.687 . S
C1027 C40 1.687 . S
C1029 N2 1.634 . S
C1045 C73 1.687 . S
C1047 N35 1.634 . S
C1063 N68 1.634 . S
C1065 C106 1.687 . S
C1081 N167 1.634 . S
C1083 C139 1.687 . S
C1099 C172 1.687 . S
C1101 N200 1.634 . S
C1117 N233 1.634 . S
C1119 C205 1.687 . S
C1135 N134 1.634 . S
C1137 C238 1.687 . S
C1153 N596 1.634 . S
C1155 C271 1.687 . S
C1171 C304 1.687 . S
C1173 N629 1.634 . S
C1189 N662 1.634 . S
C1191 C337 1.687 . S
C1207 C370 1.687 . S
C1209 N563 1.634 . S
C1225 N728 1.634 . S
C1227 C403 1.687 . S
C1243 C436 1.687 . S
C1245 N530 1.634 . S
C1261 N761 1.634 . S
C1263 C469 1.687 . S
C1279 C502 1.687 . S
C1281 N695 1.634 . S
C1297 N299 1.634 . S
C1299 C535 1.687 . S
C1315 N497 1.634 . S
C1317 C568 1.687 . S
C1333 C601 1.687 . S
C1335 N398 1.634 . S
C1351 C634 1.687 . S
C1353 N431 1.634 . S
C1369 N464 1.634 . S
C1371 C667 1.687 . S
C1387 N365 1.634 . S
C1389 C700 1.687 . S
C1405 N266 1.634 . S
C1407 C733 1.687 . S
C1423 C766 1.687 . S
C1425 N332 1.634 . S
C1441 C18 1.450 . S
C1443 N541 1.325 . S
C1459 N772 1.325 . S
C1461 C51 1.450 . S
C1477 C84 1.450 . S
C1479 N706 1.325 . S
C1495 N739 1.325 . S
C1497 C117 1.450 . S
C1513 C150 1.450 . S
C1515 N574 1.325 . S
C1531 C183 1.450 . S
C1533 N607 1.325 . S
C1549 N640 1.325 . S
C1551 C216 1.450 . S
C1567 N673 1.325 . S
C1569 C249 1.450 . S
C1585 N13 1.325 . S
C1587 C282 1.450 . S
C1603 C315 1.450 . S
C1605 N46 1.325 . S
C1621 C348 1.450 . S
C1623 N79 1.325 . S
C1639 C381 1.450 . S
C1641 N112 1.325 . S
C1657 C414 1.450 . S
C1659 N145 1.325 . S
C1675 C447 1.450 . S
C1677 N178 1.325 . S
C1693 C480 1.450 . S
C1695 N211 1.325 . S
C1711 C513 1.450 . S
C1713 N244 1.325 . S
C1729 N277 1.325 . S
C1731 C546 1.450 . S
C1747 C579 1.450 . S
C1749 N409 1.325 . S
C1765 C612 1.450 . S
C1767 N442 1.325 . S
C1783 N475 1.325 . S
C1785 C645 1.450 . S
C1801 C678 1.450 . S
C1803 N508 1.325 . S
C1819 N343 1.325 . S
C1821 C711 1.450 . S
C1837 N376 1.325 . S
C1839 C744 1.450 . S
C1855 C777 1.450 . S
C1857 N310 1.325 . S
