# Generated by pormake.
# Topology lcx, (8)-cn, num edge types: 1
# Building blocks:
#     Node 0, Type 0, BuildingBlock: OLANAS_clean_sbu_2, # of connection points: 8
#     Node 1, Type 0, BuildingBlock: OLANAS_clean_sbu_2, # of connection points: 8
#     Node 2, Type 0, BuildingBlock: OLANAS_clean_sbu_2, # of connection points: 8
#     Node 3, Type 0, BuildingBlock: OLANAS_clean_sbu_2, # of connection points: 8
#     Node 4, Type 0, BuildingBlock: OLANAS_clean_sbu_2, # of connection points: 8
#     Node 5, Type 0, BuildingBlock: OLANAS_clean_sbu_2, # of connection points: 8
#     Edge 6, Type (0, 0), BuildingBlock: EYOCIG_clean_linker_4, # of connection points: 2
#     Edge 7, Type (0, 0), BuildingBlock: EYOCIG_clean_linker_4, # of connection points: 2
#     Edge 8, Type (0, 0), BuildingBlock: EYOCIG_clean_linker_4, # of connection points: 2
#     Edge 9, Type (0, 0), BuildingBlock: EYOCIG_clean_linker_4, # of connection points: 2
#     Edge 10, Type (0, 0), BuildingBlock: EYOCIG_clean_linker_4, # of connection points: 2
#     Edge 11, Type (0, 0), BuildingBlock: EYOCIG_clean_linker_4, # of connection points: 2
#     Edge 12, Type (0, 0), BuildingBlock: EYOCIG_clean_linker_4, # of connection points: 2
#     Edge 13, Type (0, 0), BuildingBlock: EYOCIG_clean_linker_4, # of connection points: 2
#     Edge 14, Type (0, 0), BuildingBlock: EYOCIG_clean_linker_4, # of connection points: 2
#     Edge 15, Type (0, 0), BuildingBlock: EYOCIG_clean_linker_4, # of connection points: 2
#     Edge 16, Type (0, 0), BuildingBlock: EYOCIG_clean_linker_4, # of connection points: 2
#     Edge 17, Type (0, 0), BuildingBlock: EYOCIG_clean_linker_4, # of connection points: 2
#     Edge 18, Type (0, 0), BuildingBlock: EYOCIG_clean_linker_4, # of connection points: 2
#     Edge 19, Type (0, 0), BuildingBlock: EYOCIG_clean_linker_4, # of connection points: 2
#     Edge 20, Type (0, 0), BuildingBlock: EYOCIG_clean_linker_4, # of connection points: 2
#     Edge 21, Type (0, 0), BuildingBlock: EYOCIG_clean_linker_4, # of connection points: 2
#     Edge 22, Type (0, 0), BuildingBlock: EYOCIG_clean_linker_4, # of connection points: 2
#     Edge 23, Type (0, 0), BuildingBlock: EYOCIG_clean_linker_4, # of connection points: 2
#     Edge 24, Type (0, 0), BuildingBlock: EYOCIG_clean_linker_4, # of connection points: 2
#     Edge 25, Type (0, 0), BuildingBlock: EYOCIG_clean_linker_4, # of connection points: 2
#     Edge 26, Type (0, 0), BuildingBlock: EYOCIG_clean_linker_4, # of connection points: 2
#     Edge 27, Type (0, 0), BuildingBlock: EYOCIG_clean_linker_4, # of connection points: 2
#     Edge 28, Type (0, 0), BuildingBlock: EYOCIG_clean_linker_4, # of connection points: 2
#     Edge 29, Type (0, 0), BuildingBlock: EYOCIG_clean_linker_4, # of connection points: 2
# Relax obj value: 0.048
# Max RMSD: 0.138
# Mean RMSD: 0.138
data_MOF--net-lcx--node1-OLANAS_clean_sbu_2--edge1-EYOCIG_clean_linker_4
_symmetry_space_group_name_H-M    P1
_symmetry_Int_Tables_number       1
_symmetry_cell_setting            triclinic
loop_
_symmetry_equiv_pos_as_xyz
'x, y, z'
_cell_length_a     26.757833
_cell_length_b     26.736642
_cell_length_c     26.734898
_cell_angle_alpha  90.189192
_cell_angle_beta   89.341017
_cell_angle_gamma 89.757984
loop_
_atom_site_label
_atom_site_type_symbol
_atom_site_fract_x
_atom_site_fract_y
_atom_site_fract_z
_atom_type_partial_charge
C0 C 0.91475 0.29191 0.49058 0.0
O1 O 0.86716 0.30441 0.49048 0.0
C2 C 0.95466 0.32941 0.48995 0.0
C3 C 0.95081 0.38154 0.48805 0.0
C4 C -0.00439 0.40947 0.48677 0.0
C5 C 0.04272 0.3852 0.48755 0.0
C6 C 0.04344 0.33293 0.48951 0.0
N7 N 1e-05 0.30879 0.49059 0.0
N8 N 0.00297 0.23429 0.41804 0.0
Co9 Co 0.00297 0.24019 0.49054 0.0
N10 N 0.00602 0.17158 0.49045 0.0
C11 C 0.01337 0.0971 0.44422 0.0
C12 C 0.01668 0.07121 0.49017 0.0
C13 C 0.01441 0.09738 0.53627 0.0
C14 C 0.00899 0.14942 0.53485 0.0
C15 C 0.00792 0.14914 0.44592 0.0
N16 N 0.00368 0.2347 0.563 0.0
N17 N 0.93037 0.24306 0.4914 0.0
N18 N 0.07508 0.24878 0.48961 0.0
C19 C 0.00566 0.18491 0.40442 0.0
O20 O 0.00747 0.17057 0.35733 0.0
C21 C 0.08649 0.29867 0.48936 0.0
O22 O 0.13285 0.31478 0.48804 0.0
C23 C 0.11329 0.21116 0.48823 0.0
C24 C 0.17831 0.16871 0.44005 0.0
C25 C 0.1336 0.19596 0.44188 0.0
C26 C 0.13763 0.19797 0.53266 0.0
C27 C 0.18213 0.17023 0.53051 0.0
C28 C 0.20195 0.15534 0.4843 0.0
C29 C 0.0073 0.18543 0.57645 0.0
O30 O 0.00893 0.17131 0.62348 0.0
C31 C 0.00099 0.27375 0.59974 0.0
C32 C 0.0451 0.29007 0.62274 0.0
C33 C 0.04236 0.31846 0.66683 0.0
C34 C -0.00414 0.33108 0.68746 0.0
C35 C 0.95196 0.31469 0.66521 0.0
C36 C 0.95434 0.28673 0.6209 0.0
C37 C 0.89524 0.20281 0.49193 0.0
C38 C 0.87405 0.18776 0.53782 0.0
C39 C 0.82978 0.16006 0.53864 0.0
C40 C 0.8077 0.14579 0.49382 0.0
C41 C 0.82845 0.16038 0.44806 0.0
C42 C 0.87251 0.18847 0.44694 0.0
C43 C 0.00266 0.27327 0.38144 0.0
C44 C 0.00438 0.33129 0.2945 0.0
C45 C 0.95889 0.31393 0.31343 0.0
C46 C 0.95782 0.28515 0.35711 0.0
C47 C 0.04828 0.29098 0.362 0.0
C48 C 0.04905 0.31931 0.31811 0.0
H49 H 0.91478 0.40005 0.48722 0.0
H50 H -0.00621 0.44975 0.48481 0.0
H51 H 0.07701 0.40651 0.48626 0.0
H52 H 0.01559 0.07721 0.40893 0.0
H53 H 0.02156 0.03106 0.49003 0.0
H54 H 0.01736 0.07768 0.57142 0.0
H55 H 0.11604 0.20726 0.40749 0.0
H56 H 0.12316 0.21104 0.56835 0.0
H57 H 0.23684 0.13443 0.4827 0.0
H58 H 0.08112 0.27854 0.60782 0.0
H59 H -0.00613 0.35231 0.72216 0.0
H60 H 0.92033 0.27289 0.60454 0.0
H61 H 0.89009 0.20026 0.57259 0.0
H62 H 0.77291 0.125 0.4946 0.0
H63 H 0.88729 0.20175 0.41161 0.0
H64 H 0.00519 0.3529 0.26015 0.0
H65 H 0.92278 0.27015 0.37078 0.0
H66 H 0.08306 0.2806 0.37938 0.0
C67 C 0.29703 0.49106 0.90499 0.0
O68 O 0.30826 0.48977 0.85698 0.0
C69 C 0.33557 0.49195 0.94361 0.0
C70 C 0.38759 0.49078 0.93796 0.0
C71 C 0.41676 0.49187 0.98178 0.0
C72 C 0.39377 0.49408 0.02971 0.0
C73 C 0.34151 0.49515 0.03223 0.0
N74 N 0.31619 0.49408 -0.01034 0.0
N75 N 0.24137 0.42287 -0.00167 0.0
Co76 Co 0.24772 0.49522 -0.00504 0.0
N77 N 0.17926 0.49633 0.00033 0.0
C78 C 0.10458 0.45168 0.01087 0.0
C79 C 0.07899 0.49814 0.0121 0.0
C80 C 0.10543 0.54366 0.00725 0.0
C81 C 0.15739 0.54116 0.00125 0.0
C82 C 0.15658 0.45231 0.0048 0.0
N83 N 0.24269 0.56772 -0.00732 0.0
N84 N 0.24862 0.49224 0.92225 0.0
N85 N 0.25829 0.49802 0.06673 0.0
C86 C 0.19201 0.41019 0.00334 0.0
O87 O 0.17729 0.3634 0.00616 0.0
C88 C 0.30844 0.49728 0.07644 0.0
O89 O 0.32579 0.49823 0.12225 0.0
C90 C 0.22169 0.49852 0.10621 0.0
C91 C 0.18112 0.4539 0.17436 0.0
C92 C 0.20807 0.45329 0.12919 0.0
C93 C 0.2077 0.54424 0.12861 0.0
C94 C 0.18088 0.54448 0.1739 0.0
C95 C 0.1672 0.49938 0.19617 0.0
C96 C 0.19359 0.58208 -0.0033 0.0
O97 O 0.17988 0.62937 -0.00251 0.0
C98 C 0.28207 0.60377 -0.00932 0.0
C99 C 0.30055 0.6237 0.03552 0.0
C100 C 0.32931 0.66729 0.03468 0.0
C101 C 0.34064 0.69025 0.98921 0.0
C102 C 0.32233 0.67093 0.94452 0.0
C103 C 0.29345 0.62738 0.94502 0.0
C104 C 0.20756 0.49367 0.88836 0.0
C105 C 0.19235 0.53994 0.86866 0.0
C106 C 0.16357 0.5415 0.82527 0.0
C107 C 0.14883 0.49705 0.80237 0.0
C108 C 0.16382 0.45095 0.82147 0.0
C109 C 0.19253 0.44911 0.86488 0.0
C110 C 0.27974 0.3855 -0.00571 0.0
C111 C 0.33638 0.29745 0.98695 0.0
C112 C 0.31912 0.32046 0.94366 0.0
C113 C 0.29133 0.3648 0.94714 0.0
C114 C 0.29698 0.36177 0.03779 0.0
C115 C 0.32496 0.31747 0.03396 0.0
H116 H 0.4051 0.48903 0.9013 0.0
H117 H 0.45705 0.49096 0.97852 0.0
H118 H 0.41602 0.49488 0.06325 0.0
H119 H 0.08447 0.41686 0.01488 0.0
H120 H 0.03883 0.4989 0.01715 0.0
H121 H 0.08598 0.57922 0.0085 0.0
H122 H 0.22015 0.41806 0.11309 0.0
H123 H 0.21934 0.57919 0.11201 0.0
H124 H 0.14667 0.49969 0.23147 0.0
H125 H 0.29031 0.607 0.07093 0.0
H126 H 0.3624 0.72447 0.98878 0.0
H127 H 0.27788 0.61339 0.91058 0.0
H128 H 0.20563 0.57437 0.88501 0.0
H129 H 0.12742 0.4984 0.76811 0.0
H130 H 0.20581 0.41345 0.87845 0.0
H131 H 0.35744 0.2627 0.9841 0.0
H132 H 0.27667 0.38164 0.91366 0.0
H133 H 0.28662 0.37638 0.07425 0.0
C134 C 0.08372 0.69231 0.49798 0.0
O135 O 0.1313 0.67981 0.49832 0.0
C136 C 0.0438 0.65482 0.49837 0.0
C137 C 0.04763 0.60269 0.50036 0.0
C138 C 0.00281 0.57478 0.50137 0.0
C139 C 0.95572 0.59905 0.50024 0.0
C140 C 0.95502 0.65132 0.4982 0.0
N141 N -0.00154 0.67545 0.49739 0.0
N142 N -0.00473 0.74951 0.42492 0.0
Co143 Co -0.00449 0.74405 0.49739 0.0
N144 N -0.00752 0.81266 0.49744 0.0
C145 C 0.98444 0.88686 0.45154 0.0
C146 C 0.98191 0.91304 0.49762 0.0
C147 C 0.98492 0.88716 0.54361 0.0
C148 C -0.00967 0.83512 0.54196 0.0
C149 C -0.01019 0.83481 0.45301 0.0
N150 N -0.00495 0.74998 0.56989 0.0
N151 N 0.06812 0.74116 0.497 0.0
N152 N 0.9234 0.73547 0.49786 0.0
C153 C -0.00826 0.79878 0.41143 0.0
O154 O -0.00964 0.81288 0.36439 0.0
C155 C 0.91199 0.68558 0.49806 0.0
O156 O 0.86562 0.66948 0.49918 0.0
C157 C 0.88519 0.77309 0.49925 0.0
C158 C 0.81633 0.814 0.45697 0.0
C159 C 0.86085 0.7863 0.45482 0.0
C160 C 0.86484 0.78823 0.54561 0.0
C161 C 0.82011 0.81546 0.54743 0.0
C162 C 0.79649 0.82885 0.50318 0.0
C163 C -0.00767 0.79936 0.58349 0.0
O164 O -0.0097 0.81372 0.63056 0.0
C165 C -0.00465 0.71101 0.6065 0.0
C166 C 0.94971 0.69313 0.62574 0.0
C167 C 0.94887 0.66478 0.66963 0.0
C168 C -0.00652 0.65295 0.69341 0.0
C169 C 0.03898 0.67048 0.67468 0.0
C170 C 0.04012 0.69929 0.63102 0.0
C171 C 0.10326 0.7814 0.49636 0.0
C172 C 0.12608 0.79574 0.54131 0.0
C173 C 0.17015 0.8238 0.54011 0.0
C174 C 0.19083 0.83837 0.49431 0.0
C175 C 0.16867 0.82409 0.44953 0.0
C176 C 0.12438 0.79642 0.45043 0.0
C177 C -0.00204 0.71044 0.38822 0.0
C178 C 0.0032 0.65306 0.30054 0.0
C179 C 0.04708 0.66929 0.32295 0.0
C180 C 0.04464 0.69727 0.36724 0.0
C181 C 0.95388 0.69428 0.36506 0.0
C182 C 0.95668 0.66585 0.32099 0.0
H183 H 0.08364 0.58418 0.50147 0.0
H184 H 0.00462 0.53449 0.50341 0.0
H185 H 0.92142 0.57775 0.50133 0.0
H186 H 0.98173 0.90654 0.41636 0.0
H187 H 0.97707 0.95319 0.49772 0.0
H188 H 0.9825 0.90707 0.57887 0.0
H189 H 0.87535 0.77326 0.41913 0.0
H190 H 0.88238 0.77691 0.58 0.0
H191 H 0.76159 0.84974 0.50478 0.0
H192 H 0.91496 0.70338 0.60822 0.0
H193 H -0.00739 0.63132 0.72775 0.0
H194 H 0.07516 0.71442 0.6175 0.0
H195 H 0.11135 0.78249 0.57667 0.0
H196 H 0.22564 0.85914 0.49346 0.0
H197 H 0.10828 0.78391 0.4157 0.0
H198 H 0.00524 0.63181 0.26585 0.0
H199 H 0.07864 0.71099 0.38374 0.0
H200 H 0.91785 0.70595 0.37984 0.0
C201 C 0.69008 0.48648 0.91148 0.0
O202 O 0.67273 0.48531 0.86567 0.0
C203 C 0.657 0.48894 0.95567 0.0
C204 C 0.60474 0.49011 0.95817 0.0
C205 C 0.58174 0.49271 0.00608 0.0
C206 C 0.6109 0.4941 0.04989 0.0
C207 C 0.66292 0.49282 0.04426 0.0
N208 N 0.68231 0.4903 -0.00176 0.0
N209 N 0.75718 0.5614 0.9891 0.0
Co210 Co 0.75077 0.48908 -0.00704 0.0
N211 N 0.81924 0.48788 0.98761 0.0
C212 C 0.89395 0.53241 0.97674 0.0
C213 C 0.9195 0.48593 0.97582 0.0
C214 C 0.89303 0.44046 0.98098 0.0
C215 C 0.84107 0.44304 0.98698 0.0
C216 C 0.84194 0.53186 0.98283 0.0
N217 N 0.75575 0.41659 -0.00428 0.0
N218 N 0.74023 0.4858 0.9212 0.0
N219 N 0.74987 0.49255 0.06565 0.0
C220 C 0.80655 0.57401 0.98401 0.0
O221 O 0.8213 0.62077 0.98092 0.0
C222 C 0.70145 0.49395 0.08288 0.0
O223 O 0.69021 0.49552 0.13089 0.0
C224 C 0.7909 0.49101 0.09957 0.0
C225 C 0.83482 0.53372 0.16635 0.0
C226 C 0.80613 0.53557 0.12292 0.0
C227 C 0.80589 0.44473 0.11942 0.0
C228 C 0.83465 0.44317 0.16282 0.0
C229 C 0.84959 0.48761 0.18559 0.0
C230 C 0.80484 0.40217 -0.00821 0.0
O231 O 0.81851 0.35487 -0.00874 0.0
C232 C 0.71633 0.38058 -0.00225 0.0
C233 C 0.70463 0.35735 0.04352 0.0
C234 C 0.67575 0.3138 0.04417 0.0
C235 C 0.65774 0.29412 -0.0005 0.0
C236 C 0.66939 0.31671 0.95393 0.0
C237 C 0.69817 0.36028 0.95294 0.0
C238 C 0.77682 0.48529 0.88172 0.0
C239 C 0.79102 0.43954 0.85951 0.0
C240 C 0.81784 0.43924 0.81422 0.0
C241 C 0.83132 0.4843 0.79176 0.0
C242 C 0.8172 0.52981 0.81338 0.0
C243 C 0.79025 0.53048 0.85854 0.0
C244 C 0.71886 0.59882 -0.00689 0.0
C245 C 0.66225 0.68692 0.00013 0.0
C246 C 0.67334 0.66651 0.95321 0.0
C247 C 0.7013 0.62217 0.94954 0.0
C248 C 0.7076 0.61992 0.04016 0.0
C249 C 0.67982 0.66427 0.04348 0.0
H250 H 0.5825 0.48909 0.92463 0.0
H251 H 0.54145 0.4937 0.00932 0.0
H252 H 0.59338 0.49615 0.08654 0.0
H253 H 0.91409 0.56719 0.97249 0.0
H254 H 0.95966 0.48511 0.97076 0.0
H255 H 0.91246 0.40488 0.97995 0.0
H256 H 0.79303 0.57125 0.10924 0.0
H257 H 0.79246 0.41032 0.10317 0.0
H258 H 0.87098 0.48626 0.21986 0.0
H259 H 0.71995 0.37163 0.07796 0.0
H260 H 0.63598 0.2599 6e-05 0.0
H261 H 0.70866 0.37669 0.91747 0.0
H262 H 0.77953 0.40461 0.87626 0.0
H263 H 0.85185 0.48394 0.75646 0.0
H264 H 0.77801 0.56574 0.8745 0.0
H265 H 0.6412 0.72168 0.00284 0.0
H266 H 0.71138 0.60726 0.91313 0.0
H267 H 0.72251 0.60336 0.07367 0.0
C268 C 0.49079 0.07624 0.29443 0.0
O269 O 0.48781 0.12373 0.30713 0.0
C270 C 0.48992 0.03602 0.33171 0.0
C271 C 0.48456 0.0394 0.38374 0.0
C272 C 0.48396 -0.00564 0.41142 0.0
C273 C 0.48868 0.94749 0.38698 0.0
C274 C 0.4939 0.94724 0.33484 0.0
N275 N 0.49429 -0.00913 0.31096 0.0
N276 N 0.57187 -0.00835 0.24099 0.0
Co277 Co 0.49928 0.98842 0.24243 0.0
N278 N 0.50419 0.98591 0.17391 0.0
C279 C 0.55555 0.98259 0.10223 0.0
C280 C 0.5117 0.97828 0.07345 0.0
C281 C 0.46392 0.97793 0.09679 0.0
C282 C 0.4616 0.98186 0.14897 0.0
C283 C 0.55011 0.98643 0.1542 0.0
N284 N 0.42755 0.98456 0.23244 0.0
N285 N 0.49522 0.06102 0.24558 0.0
N286 N 0.50233 0.91628 0.25074 0.0
C287 C 0.58888 -0.01008 0.19247 0.0
O288 O 0.6368 -0.00994 0.18097 0.0
C289 C 0.49854 0.90447 0.30046 0.0
O290 O 0.49866 0.85795 0.31629 0.0
C291 C 0.50525 0.8783 0.21295 0.0
C292 C 0.55406 0.81211 0.17323 0.0
C293 C 0.55184 0.85673 0.20071 0.0
C294 C 0.46114 0.85528 0.19669 0.0
C295 C 0.46371 0.81081 0.16899 0.0
C296 C 0.5101 0.78978 0.15693 0.0
C297 C 0.41762 0.98141 0.18238 0.0
O298 O 0.37179 0.97872 0.16537 0.0
C299 C 0.38828 0.98683 0.26921 0.0
C300 C 0.36473 0.94248 0.28479 0.0
C301 C 0.31983 0.94488 0.31218 0.0
C302 C 0.29897 -0.00875 0.32454 0.0
C303 C 0.32182 0.03536 0.30886 0.0
C304 C 0.36671 0.03333 0.28161 0.0
C305 C 0.49858 0.09655 0.20569 0.0
C306 C 0.45465 0.11951 0.18834 0.0
C307 C 0.45751 0.16362 0.16033 0.0
C308 C 0.50405 0.18397 0.14849 0.0
C309 C 0.54782 0.16162 0.16563 0.0
C310 C 0.54527 0.11757 0.19369 0.0
C311 C 0.60587 -0.00815 0.28198 0.0
C312 C 0.69125 -0.00969 0.34156 0.0
C313 C 0.6725 0.03586 0.32455 0.0
C314 C 0.62948 0.03684 0.29523 0.0
C315 C 0.62517 0.94615 0.29931 0.0
C316 C 0.66831 0.94548 0.32842 0.0
H317 H 0.48069 0.07525 0.40232 0.0
H318 H 0.47958 -0.00424 0.45167 0.0
H319 H 0.488 0.913 0.40805 0.0
H320 H 0.59211 0.98254 0.08449 0.0
H321 H 0.51479 0.97488 0.03322 0.0
H322 H 0.43037 0.97435 0.07487 0.0
H323 H 0.58588 0.87329 0.21437 0.0
H324 H 0.42515 0.87063 0.20753 0.0
H325 H 0.51193 0.75492 0.13597 0.0
H326 H 0.38021 0.90654 0.274 0.0
H327 H 0.26392 -0.00701 0.34542 0.0
H328 H 0.38362 0.06751 0.26835 0.0
H329 H 0.41852 0.10483 0.1991 0.0
H330 H 0.50613 0.21866 0.12754 0.0
H331 H 0.57904 0.1015 0.20869 0.0
H332 H 0.72525 -0.01041 0.36339 0.0
H333 H 0.61621 0.07196 0.28033 0.0
H334 H 0.60868 0.91129 0.28753 0.0
C335 C 0.50717 0.90796 0.69351 0.0
O336 O 0.50991 0.86045 0.68084 0.0
C337 C 0.50827 0.94815 0.65622 0.0
C338 C 0.51359 0.94472 0.60419 0.0
C339 C 0.51442 -0.01024 0.57649 0.0
C340 C 0.50997 0.03666 0.60091 0.0
C341 C 0.50478 0.03696 0.65305 0.0
N342 N 0.50417 -0.00666 0.67695 0.0
N343 N 0.57093 -0.00075 0.75548 0.0
Co344 Co 0.49918 -0.00416 0.74548 0.0
N345 N 0.49427 -0.00159 0.814 0.0
C346 C 0.53458 0.00614 0.89113 0.0
C347 C 0.4868 0.00614 0.91445 0.0
C348 C 0.44292 0.00214 0.88567 0.0
C349 C 0.44835 -0.00176 0.8337 0.0
C350 C 0.5369 0.00215 0.83895 0.0
N351 N 0.42658 -0.00694 0.74692 0.0
N352 N 0.5028 0.92322 0.74236 0.0
N353 N 0.49657 0.068 0.73714 0.0
C354 C 0.58088 0.00231 0.80554 0.0
O355 O 0.62672 0.00479 0.82255 0.0
C356 C 0.50038 0.07976 0.68742 0.0
O357 O 0.50048 0.12627 0.67156 0.0
C358 C 0.4937 0.106 0.77491 0.0
C359 C 0.53548 0.17315 0.81916 0.0
C360 C 0.53788 0.12865 0.79149 0.0
C361 C 0.44721 0.12797 0.7868 0.0
C362 C 0.44515 0.1726 0.81426 0.0
C363 C 0.48918 0.19457 0.83087 0.0
C364 C 0.40957 -0.00502 0.79543 0.0
O365 O 0.36164 -0.00492 0.80691 0.0
C366 C 0.39261 -0.00729 0.70591 0.0
C367 C 0.37328 0.03835 0.68846 0.0
C368 C 0.33016 0.0389 0.65932 0.0
C369 C 0.3073 -0.00599 0.64625 0.0
C370 C 0.3261 0.94851 0.66336 0.0
C371 C 0.3691 0.94766 0.69272 0.0
C372 C 0.49944 0.88773 0.78228 0.0
C373 C 0.45267 0.8671 0.79463 0.0
C374 C 0.44996 0.82307 0.8227 0.0
C375 C 0.49368 0.80036 0.83953 0.0
C376 C 0.5403 0.82033 0.82735 0.0
C377 C 0.54331 0.8644 0.7993 0.0
C378 C 0.61017 -0.00295 0.71868 0.0
C379 C 0.69943 -0.00727 0.66327 0.0
C380 C 0.67659 0.94859 0.67889 0.0
C381 C 0.63172 0.95057 0.70618 0.0
C382 C 0.6337 0.04143 0.70315 0.0
C383 C 0.67857 0.03907 0.67572 0.0
H384 H 0.51724 0.90885 0.58562 0.0
H385 H 0.51877 0.98831 0.53624 0.0
H386 H 0.51083 0.07114 0.57983 0.0
H387 H 0.56816 0.00949 0.91306 0.0
H388 H 0.48372 0.00959 0.95468 0.0
H389 H 0.40636 0.00246 0.9034 0.0
H390 H 0.57382 0.11299 0.78093 0.0
H391 H 0.41314 0.11169 0.77288 0.0
H392 H 0.48748 0.22944 0.85181 0.0
H393 H 0.38972 0.07326 0.70018 0.0
H394 H 0.27331 -0.00537 0.6244 0.0
H395 H 0.38241 0.91259 0.70769 0.0
H396 H 0.41891 0.88345 0.77988 0.0
H397 H 0.49147 0.76568 0.8605 0.0
H398 H 0.57948 0.87879 0.78826 0.0
H399 H 0.73447 -0.00897 0.64237 0.0
H400 H 0.61481 0.91637 0.71939 0.0
H401 H 0.61822 0.07735 0.71402 0.0
C402 C 0.12612 0.35113 0.26624 0.0
C403 C 0.09495 0.33409 0.29409 0.0
C404 C 0.15301 0.37828 0.22987 0.0
C405 C 0.16851 0.40882 0.20065 0.0
C406 C 0.13715 0.61878 0.77161 0.0
C407 C 0.15206 0.58767 0.80036 0.0
C408 C 0.11223 0.64529 0.73376 0.0
C409 C 0.08315 0.66004 0.70302 0.0
C410 C 0.86051 0.60793 0.2251 0.0
C411 C 0.84623 0.57792 0.19478 0.0
C412 C 0.88452 0.63478 0.26336 0.0
C413 C 0.91298 0.65163 0.2936 0.0
C414 C 0.84668 0.36369 0.75839 0.0
C415 C 0.83066 0.39373 0.78822 0.0
C416 C 0.87406 0.33862 0.72053 0.0
C417 C 0.90555 0.32465 0.69107 0.0
C418 C 0.2678 0.11306 0.33503 0.0
C419 C 0.29674 0.08173 0.32002 0.0
C420 C 0.2311 0.14007 0.36202 0.0
C421 C 0.20271 0.15587 0.39359 0.0
C422 C 0.37234 0.76813 0.84539 0.0
C423 C 0.40353 0.79761 0.83185 0.0
C424 C 0.34605 0.72964 0.86997 0.0
C425 C 0.33176 0.69882 0.89953 0.0
C426 C 0.72117 0.86859 0.358 0.0
C427 C 0.69292 0.89962 0.34188 0.0
C428 C 0.75832 0.84178 0.38369 0.0
C429 C 0.78853 0.82629 0.41295 0.0
C430 C 0.63659 0.26407 0.87827 0.0
C431 C 0.65393 0.29194 0.90892 0.0
C432 C 0.60961 0.22816 0.85107 0.0
C433 C 0.57962 0.19942 0.83419 0.0
C434 C 0.22807 0.8498 0.61405 0.0
C435 C 0.19766 0.83513 0.58461 0.0
C436 C 0.26688 0.87481 0.63896 0.0
C437 C 0.29768 0.90415 0.6532 0.0
C438 C 0.63128 0.75684 0.14832 0.0
C439 C 0.60037 0.78647 0.16292 0.0
C440 C 0.65704 0.71899 0.12173 0.0
C441 C 0.67081 0.68958 0.09024 0.0
C442 C 0.73608 0.11157 0.64396 0.0
C443 C 0.70576 0.08306 0.66118 0.0
C444 C 0.77401 0.13531 0.61589 0.0
C445 C 0.80339 0.14918 0.58447 0.0
C446 C 0.38402 0.22137 0.13056 0.0
C447 C 0.41367 0.19144 0.1464 0.0
C448 C 0.35734 0.25931 0.10565 0.0
C449 C 0.3402 0.28954 0.07717 0.0
C450 C 0.87178 0.63262 0.72124 0.0
C451 C 0.90293 0.64982 0.69347 0.0
C452 C 0.84498 0.60539 0.75762 0.0
C453 C 0.82963 0.57485 0.78692 0.0
C454 C 0.88555 0.33934 0.25455 0.0
C455 C 0.91465 0.3245 0.28524 0.0
C456 C 0.86071 0.3659 0.21669 0.0
C457 C 0.84594 0.39702 0.18786 0.0
C458 C 0.11455 0.34982 0.72426 0.0
C459 C 0.0861 0.33285 0.69407 0.0
C460 C 0.13846 0.37676 0.76253 0.0
C461 C 0.1526 0.40677 0.7929 0.0
C462 C 0.12505 0.6451 0.26785 0.0
C463 C 0.09355 0.65918 0.29725 0.0
C464 C 0.15235 0.61996 0.22998 0.0
C465 C 0.16825 0.58994 0.20007 0.0
C466 C 0.73061 0.87094 0.65254 0.0
C467 C 0.70167 0.90224 0.66763 0.0
C468 C 0.7673 0.84399 0.62548 0.0
C469 C 0.79569 0.82825 0.59389 0.0
C470 C 0.65158 0.25556 0.11894 0.0
C471 C 0.66606 0.28623 0.08931 0.0
C472 C 0.62524 0.21706 0.14343 0.0
C473 C 0.59412 0.18741 0.15677 0.0
C474 C 0.27725 0.11569 0.62955 0.0
C475 C 0.30551 0.0847 0.64574 0.0
C476 C 0.24012 0.14247 0.60382 0.0
C477 C 0.20994 0.15795 0.57453 0.0
C478 C 0.36261 0.71944 0.11043 0.0
C479 C 0.34505 0.69172 0.07977 0.0
C480 C 0.3897 0.75533 0.13754 0.0
C481 C 0.41967 0.78422 0.15422 0.0
C482 C 0.77063 0.13442 0.37403 0.0
C483 C 0.80101 0.14908 0.4035 0.0
C484 C 0.73182 0.10946 0.34908 0.0
C485 C 0.70098 0.08017 0.33479 0.0
C486 C 0.34233 0.26623 0.86521 0.0
C487 C 0.32839 0.29549 0.89677 0.0
C488 C 0.36814 0.22838 0.83868 0.0
C489 C 0.39898 0.19859 0.82428 0.0
C490 C 0.22437 0.84877 0.37219 0.0
C491 C 0.19501 0.83493 0.40365 0.0
C492 C 0.26229 0.87246 0.34408 0.0
C493 C 0.29263 0.90093 0.32681 0.0
C494 C 0.64046 0.7242 0.88139 0.0
C495 C 0.65782 0.6941 0.9099 0.0
C496 C 0.61367 0.76213 0.8566 0.0
C497 C 0.58404 0.79219 0.84099 0.0
loop_
_geom_bond_atom_site_label_1
_geom_bond_atom_site_label_2
_geom_bond_distance
_geom_bond_site_symmetry_2
_ccdc_geom_bond_type
C0 O1 1.201 . S
C0 C2 1.493 . S
C0 N17 1.318 . S
O1 C0 1.201 . S
C2 C0 1.493 . S
C2 C3 1.381 . S
C2 N7 1.335 1_655 S
C3 C2 1.381 . S
C3 C4 1.411 1_655 S
C3 H49 0.931 . S
C4 C3 1.411 1_455 S
C4 C5 1.384 . S
C4 H50 0.930 . S
C5 C4 1.384 . S
C5 C6 1.376 . S
C5 H51 0.929 . S
C6 C5 1.376 . S
C6 N7 1.330 . S
C6 C21 1.484 . S
N7 C2 1.335 1_455 S
N7 C6 1.330 . S
N7 Co9 1.859 . S
N8 Co9 1.962 . S
N8 C19 1.318 . S
N8 C43 1.421 . S
Co9 N7 1.859 . S
Co9 N8 1.962 . S
Co9 N10 1.859 . S
Co9 N16 1.958 . S
Co9 N17 1.962 1_455 S
Co9 N18 1.958 . S
N10 Co9 1.859 . S
N10 C14 1.330 . S
N10 C15 1.335 . S
C11 C12 1.411 . S
C11 C15 1.381 . S
C11 H52 0.931 . S
C12 C11 1.411 . S
C12 C13 1.384 . S
C12 H53 0.930 . S
C13 C12 1.384 . S
C13 C14 1.376 . S
C13 H54 0.929 . S
C14 N10 1.330 . S
C14 C13 1.376 . S
C14 C29 1.484 . S
C15 N10 1.335 . S
C15 C11 1.381 . S
C15 C19 1.493 . S
N16 Co9 1.958 . S
N16 C29 1.344 . S
N16 C31 1.425 . S
N17 C0 1.318 . S
N17 Co9 1.962 1_655 S
N17 C37 1.421 . S
N18 Co9 1.958 . S
N18 C21 1.344 . S
N18 C23 1.425 . S
C19 N8 1.318 . S
C19 C15 1.493 . S
C19 O20 1.201 . S
O20 C19 1.201 . S
C21 C6 1.484 . S
C21 N18 1.344 . S
C21 O22 1.268 . S
O22 C21 1.268 . S
C23 N18 1.425 . S
C23 C25 1.392 . S
C23 C26 1.368 . S
C24 C25 1.382 . S
C24 C28 1.386 . S
C25 C23 1.392 . S
C25 C24 1.382 . S
C25 H55 0.928 . S
C26 C23 1.368 . S
C26 C27 1.367 . S
C26 H56 0.930 . S
C27 C26 1.367 . S
C27 C28 1.369 . S
C28 C24 1.386 . S
C28 C27 1.369 . S
C28 H57 0.930 . S
C29 C14 1.484 . S
C29 N16 1.344 . S
C29 O30 1.268 . S
O30 C29 1.268 . S
C31 N16 1.425 . S
C31 C32 1.368 . S
C31 C36 1.392 1_455 S
C32 C31 1.368 . S
C32 C33 1.367 . S
C32 H58 0.930 . S
C33 C32 1.367 . S
C33 C34 1.369 . S
C34 C33 1.369 . S
C34 C35 1.386 1_455 S
C34 H59 0.930 . S
C35 C34 1.386 1_655 S
C35 C36 1.382 . S
C36 C31 1.392 1_655 S
C36 C35 1.382 . S
C36 H60 0.928 . S
C37 N17 1.421 . S
C37 C38 1.371 . S
C37 C42 1.385 . S
C38 C37 1.371 . S
C38 C39 1.367 . S
C38 H61 0.931 . S
C39 C38 1.367 . S
C39 C40 1.401 . S
C40 C39 1.401 . S
C40 C41 1.385 . S
C40 H62 0.930 . S
C41 C40 1.385 . S
C41 C42 1.402 . S
C42 C37 1.385 . S
C42 C41 1.402 . S
C42 H63 0.929 . S
C43 N8 1.421 . S
C43 C46 1.385 1_455 S
C43 C47 1.371 . S
C44 C45 1.385 1_455 S
C44 C48 1.401 . S
C44 H64 0.930 . S
C45 C44 1.385 1_655 S
C45 C46 1.402 . S
C46 C43 1.385 1_655 S
C46 C45 1.402 . S
C46 H65 0.929 . S
C47 C43 1.371 . S
C47 C48 1.367 . S
C47 H66 0.931 . S
C48 C44 1.401 . S
C48 C47 1.367 . S
H49 C3 0.931 . S
H50 C4 0.930 . S
H51 C5 0.929 . S
H52 C11 0.931 . S
H53 C12 0.930 . S
H54 C13 0.929 . S
H55 C25 0.928 . S
H56 C26 0.930 . S
H57 C28 0.930 . S
H58 C32 0.930 . S
H59 C34 0.930 . S
H60 C36 0.928 . S
H61 C38 0.931 . S
H62 C40 0.930 . S
H63 C42 0.929 . S
H64 C44 0.930 . S
H65 C46 0.929 . S
H66 C47 0.931 . S
C67 O68 1.201 . S
C67 C69 1.493 . S
C67 N84 1.318 . S
O68 C67 1.201 . S
C69 C67 1.493 . S
C69 C70 1.381 . S
C69 N74 1.335 1_556 S
C70 C69 1.381 . S
C70 C71 1.411 1_556 S
C70 H116 0.931 . S
C71 C70 1.411 1_554 S
C71 C72 1.384 . S
C71 H117 0.930 . S
C72 C71 1.384 . S
C72 C73 1.376 . S
C72 H118 0.929 . S
C73 C72 1.376 . S
C73 N74 1.330 . S
C73 C88 1.484 . S
N74 C69 1.335 1_554 S
N74 C73 1.330 . S
N74 Co76 1.859 . S
N75 Co76 1.962 . S
N75 C86 1.318 . S
N75 C110 1.421 . S
Co76 N74 1.859 . S
Co76 N75 1.962 . S
Co76 N77 1.859 . S
Co76 N83 1.958 . S
Co76 N84 1.962 1_554 S
Co76 N85 1.958 . S
N77 Co76 1.859 . S
N77 C81 1.330 . S
N77 C82 1.335 . S
C78 C79 1.411 . S
C78 C82 1.381 . S
C78 H119 0.931 . S
C79 C78 1.411 . S
C79 C80 1.384 . S
C79 H120 0.930 . S
C80 C79 1.384 . S
C80 C81 1.376 . S
C80 H121 0.929 . S
C81 N77 1.330 . S
C81 C80 1.376 . S
C81 C96 1.484 . S
C82 N77 1.335 . S
C82 C78 1.381 . S
C82 C86 1.493 . S
N83 Co76 1.958 . S
N83 C96 1.344 . S
N83 C98 1.425 . S
N84 C67 1.318 . S
N84 Co76 1.962 1_556 S
N84 C104 1.421 . S
N85 Co76 1.958 . S
N85 C88 1.344 . S
N85 C90 1.425 . S
C86 N75 1.318 . S
C86 C82 1.493 . S
C86 O87 1.201 . S
O87 C86 1.201 . S
C88 C73 1.484 . S
C88 N85 1.344 . S
C88 O89 1.268 . S
O89 C88 1.268 . S
C90 N85 1.425 . S
C90 C92 1.392 . S
C90 C93 1.368 . S
C91 C92 1.382 . S
C91 C95 1.386 . S
C92 C90 1.392 . S
C92 C91 1.382 . S
C92 H122 0.928 . S
C93 C90 1.368 . S
C93 C94 1.367 . S
C93 H123 0.930 . S
C94 C93 1.367 . S
C94 C95 1.369 . S
C95 C91 1.386 . S
C95 C94 1.369 . S
C95 H124 0.930 . S
C96 C81 1.484 . S
C96 N83 1.344 . S
C96 O97 1.268 . S
O97 C96 1.268 . S
C98 N83 1.425 . S
C98 C99 1.368 . S
C98 C103 1.392 1_554 S
C99 C98 1.368 . S
C99 C100 1.367 . S
C99 H125 0.930 . S
C100 C99 1.367 . S
C100 C101 1.369 1_554 S
C101 C100 1.369 1_556 S
C101 C102 1.386 . S
C101 H126 0.930 . S
C102 C101 1.386 . S
C102 C103 1.382 . S
C103 C98 1.392 1_556 S
C103 C102 1.382 . S
C103 H127 0.928 . S
C104 N84 1.421 . S
C104 C105 1.371 . S
C104 C109 1.385 . S
C105 C104 1.371 . S
C105 C106 1.367 . S
C105 H128 0.931 . S
C106 C105 1.367 . S
C106 C107 1.401 . S
C107 C106 1.401 . S
C107 C108 1.385 . S
C107 H129 0.930 . S
C108 C107 1.385 . S
C108 C109 1.402 . S
C109 C104 1.385 . S
C109 C108 1.402 . S
C109 H130 0.929 . S
C110 N75 1.421 . S
C110 C113 1.385 1_554 S
C110 C114 1.371 . S
C111 C112 1.385 1_554 S
C111 C115 1.401 . S
C111 H131 0.930 . S
C112 C111 1.385 1_556 S
C112 C113 1.402 . S
C113 C110 1.385 1_556 S
C113 C112 1.402 . S
C113 H132 0.929 . S
C114 C110 1.371 . S
C114 C115 1.367 . S
C114 H133 0.931 . S
C115 C111 1.401 . S
C115 C114 1.367 . S
H116 C70 0.931 . S
H117 C71 0.930 . S
H118 C72 0.929 . S
H119 C78 0.931 . S
H120 C79 0.930 . S
H121 C80 0.929 . S
H122 C92 0.928 . S
H123 C93 0.930 . S
H124 C95 0.930 . S
H125 C99 0.930 . S
H126 C101 0.930 . S
H127 C103 0.928 . S
H128 C105 0.931 . S
H129 C107 0.930 . S
H130 C109 0.929 . S
H131 C111 0.930 . S
H132 C113 0.929 . S
H133 C114 0.931 . S
C134 O135 1.201 . S
C134 C136 1.493 . S
C134 N151 1.318 . S
O135 C134 1.201 . S
C136 C134 1.493 . S
C136 C137 1.381 . S
C136 N141 1.335 1_455 S
C137 C136 1.381 . S
C137 C138 1.411 1_455 S
C137 H183 0.931 . S
C138 C137 1.411 1_655 S
C138 C139 1.384 . S
C138 H184 0.930 . S
C139 C138 1.384 . S
C139 C140 1.376 . S
C139 H185 0.929 . S
C140 C139 1.376 . S
C140 N141 1.330 . S
C140 C155 1.484 . S
N141 C136 1.335 1_655 S
N141 C140 1.330 . S
N141 Co143 1.860 . S
N142 Co143 1.962 . S
N142 C153 1.320 . S
N142 C177 1.420 1_655 S
Co143 N141 1.860 . S
Co143 N142 1.962 . S
Co143 N144 1.860 . S
Co143 N150 1.958 1_655 S
Co143 N151 1.946 1_655 S
Co143 N152 1.975 . S
N144 Co143 1.860 . S
N144 C148 1.330 . S
N144 C149 1.335 . S
C145 C146 1.411 . S
C145 C149 1.381 . S
C145 H186 0.931 . S
C146 C145 1.411 . S
C146 C147 1.384 . S
C146 H187 0.930 . S
C147 C146 1.384 . S
C147 C148 1.376 . S
C147 H188 0.929 . S
C148 N144 1.330 . S
C148 C147 1.376 . S
C148 C163 1.484 . S
C149 N144 1.335 . S
C149 C145 1.381 . S
C149 C153 1.493 . S
N150 Co143 1.958 1_455 S
N150 C163 1.343 1_455 S
N150 C165 1.425 . S
N151 C134 1.318 . S
N151 Co143 1.946 1_455 S
N151 C171 1.421 . S
N152 Co143 1.975 . S
N152 C155 1.344 . S
N152 C157 1.425 . S
C153 N142 1.320 . S
C153 C149 1.493 . S
C153 O154 1.201 . S
O154 C153 1.201 . S
C155 C140 1.484 . S
C155 N152 1.344 . S
C155 O156 1.268 . S
O156 C155 1.268 . S
C157 N152 1.425 . S
C157 C159 1.392 . S
C157 C160 1.368 . S
C158 C159 1.382 . S
C158 C162 1.386 . S
C159 C157 1.392 . S
C159 C158 1.382 . S
C159 H189 0.928 . S
C160 C157 1.368 . S
C160 C161 1.367 . S
C160 H190 0.930 . S
C161 C160 1.367 . S
C161 C162 1.369 . S
C162 C158 1.386 . S
C162 C161 1.369 . S
C162 H191 0.930 . S
C163 C148 1.484 . S
C163 N150 1.343 1_655 S
C163 O164 1.268 . S
O164 C163 1.268 . S
C165 N150 1.425 . S
C165 C166 1.368 1_455 S
C165 C170 1.392 . S
C166 C165 1.368 1_655 S
C166 C167 1.367 . S
C166 H192 0.930 . S
C167 C166 1.367 . S
C167 C168 1.369 1_655 S
C168 C167 1.369 1_455 S
C168 C169 1.386 . S
C168 H193 0.930 . S
C169 C168 1.386 . S
C169 C170 1.382 . S
C170 C165 1.392 . S
C170 C169 1.382 . S
C170 H194 0.928 . S
C171 N151 1.421 . S
C171 C172 1.371 . S
C171 C176 1.385 . S
C172 C171 1.371 . S
C172 C173 1.367 . S
C172 H195 0.931 . S
C173 C172 1.367 . S
C173 C174 1.401 . S
C174 C173 1.401 . S
C174 C175 1.385 . S
C174 H196 0.930 . S
C175 C174 1.385 . S
C175 C176 1.402 . S
C176 C171 1.385 . S
C176 C175 1.402 . S
C176 H197 0.929 . S
C177 N142 1.420 1_455 S
C177 C180 1.385 . S
C177 C181 1.371 1_455 S
C178 C179 1.385 . S
C178 C182 1.401 1_455 S
C178 H198 0.930 . S
C179 C178 1.385 . S
C179 C180 1.402 . S
C180 C177 1.385 . S
C180 C179 1.402 . S
C180 H199 0.929 . S
C181 C177 1.371 1_655 S
C181 C182 1.367 . S
C181 H200 0.931 . S
C182 C178 1.401 1_655 S
C182 C181 1.367 . S
H183 C137 0.931 . S
H184 C138 0.930 . S
H185 C139 0.929 . S
H186 C145 0.931 . S
H187 C146 0.930 . S
H188 C147 0.929 . S
H189 C159 0.928 . S
H190 C160 0.930 . S
H191 C162 0.930 . S
H192 C166 0.930 . S
H193 C168 0.930 . S
H194 C170 0.928 . S
H195 C172 0.931 . S
H196 C174 0.930 . S
H197 C176 0.929 . S
H198 C178 0.930 . S
H199 C180 0.929 . S
H200 C181 0.931 . S
C201 O202 1.201 . S
C201 C203 1.493 . S
C201 N218 1.318 . S
O202 C201 1.201 . S
C203 C201 1.493 . S
C203 C204 1.381 . S
C203 N208 1.335 1_556 S
C204 C203 1.381 . S
C204 C205 1.411 1_556 S
C204 H250 0.931 . S
C205 C204 1.411 1_554 S
C205 C206 1.384 . S
C205 H251 0.930 . S
C206 C205 1.384 . S
C206 C207 1.376 . S
C206 H252 0.929 . S
C207 C206 1.376 . S
C207 N208 1.330 . S
C207 C222 1.484 . S
N208 C203 1.335 1_554 S
N208 C207 1.330 . S
N208 Co210 1.859 . S
N209 Co210 1.962 . S
N209 C220 1.318 . S
N209 C244 1.421 . S
Co210 N208 1.859 . S
Co210 N209 1.962 . S
Co210 N211 1.859 . S
Co210 N217 1.958 . S
Co210 N218 1.962 1_554 S
Co210 N219 1.958 . S
N211 Co210 1.859 . S
N211 C215 1.330 . S
N211 C216 1.335 . S
C212 C213 1.411 . S
C212 C216 1.381 . S
C212 H253 0.931 . S
C213 C212 1.411 . S
C213 C214 1.384 . S
C213 H254 0.930 . S
C214 C213 1.384 . S
C214 C215 1.376 . S
C214 H255 0.929 . S
C215 N211 1.330 . S
C215 C214 1.376 . S
C215 C230 1.484 . S
C216 N211 1.335 . S
C216 C212 1.381 . S
C216 C220 1.493 . S
N217 Co210 1.958 . S
N217 C230 1.344 . S
N217 C232 1.425 . S
N218 C201 1.318 . S
N218 Co210 1.962 1_556 S
N218 C238 1.421 . S
N219 Co210 1.958 . S
N219 C222 1.344 . S
N219 C224 1.425 . S
C220 N209 1.318 . S
C220 C216 1.493 . S
C220 O221 1.201 . S
O221 C220 1.201 . S
C222 C207 1.484 . S
C222 N219 1.344 . S
C222 O223 1.268 . S
O223 C222 1.268 . S
C224 N219 1.425 . S
C224 C226 1.392 . S
C224 C227 1.368 . S
C225 C226 1.382 . S
C225 C229 1.386 . S
C226 C224 1.392 . S
C226 C225 1.382 . S
C226 H256 0.928 . S
C227 C224 1.368 . S
C227 C228 1.367 . S
C227 H257 0.930 . S
C228 C227 1.367 . S
C228 C229 1.369 . S
C229 C225 1.386 . S
C229 C228 1.369 . S
C229 H258 0.930 . S
C230 C215 1.484 . S
C230 N217 1.344 . S
C230 O231 1.268 . S
O231 C230 1.268 . S
C232 N217 1.425 . S
C232 C233 1.368 . S
C232 C237 1.392 1_554 S
C233 C232 1.368 . S
C233 C234 1.367 . S
C233 H259 0.930 . S
C234 C233 1.367 . S
C234 C235 1.369 1_554 S
C235 C234 1.369 1_556 S
C235 C236 1.386 . S
C235 H260 0.930 . S
C236 C235 1.386 . S
C236 C237 1.382 . S
C237 C232 1.392 1_556 S
C237 C236 1.382 . S
C237 H261 0.928 . S
C238 N218 1.421 . S
C238 C239 1.371 . S
C238 C243 1.385 . S
C239 C238 1.371 . S
C239 C240 1.367 . S
C239 H262 0.931 . S
C240 C239 1.367 . S
C240 C241 1.401 . S
C241 C240 1.401 . S
C241 C242 1.385 . S
C241 H263 0.930 . S
C242 C241 1.385 . S
C242 C243 1.402 . S
C243 C238 1.385 . S
C243 C242 1.402 . S
C243 H264 0.929 . S
C244 N209 1.421 . S
C244 C247 1.385 1_554 S
C244 C248 1.371 . S
C245 C246 1.385 1_554 S
C245 C249 1.401 . S
C245 H265 0.930 . S
C246 C245 1.385 1_556 S
C246 C247 1.402 . S
C247 C244 1.385 1_556 S
C247 C246 1.402 . S
C247 H266 0.929 . S
C248 C244 1.371 . S
C248 C249 1.367 . S
C248 H267 0.931 . S
C249 C245 1.401 . S
C249 C248 1.367 . S
H250 C204 0.931 . S
H251 C205 0.930 . S
H252 C206 0.929 . S
H253 C212 0.931 . S
H254 C213 0.930 . S
H255 C214 0.929 . S
H256 C226 0.928 . S
H257 C227 0.930 . S
H258 C229 0.930 . S
H259 C233 0.930 . S
H260 C235 0.930 . S
H261 C237 0.928 . S
H262 C239 0.931 . S
H263 C241 0.930 . S
H264 C243 0.929 . S
H265 C245 0.930 . S
H266 C247 0.929 . S
H267 C248 0.931 . S
C268 O269 1.201 . S
C268 C270 1.493 . S
C268 N285 1.318 . S
O269 C268 1.201 . S
C270 C268 1.493 . S
C270 C271 1.381 . S
C270 N275 1.335 1_545 S
C271 C270 1.381 . S
C271 C272 1.411 1_545 S
C271 H317 0.931 . S
C272 C271 1.411 1_565 S
C272 C273 1.384 . S
C272 H318 0.930 . S
C273 C272 1.384 . S
C273 C274 1.376 . S
C273 H319 0.929 . S
C274 C273 1.376 . S
C274 N275 1.330 . S
C274 C289 1.484 . S
N275 C270 1.335 1_565 S
N275 C274 1.330 . S
N275 Co277 1.859 . S
N276 Co277 1.962 . S
N276 C287 1.318 . S
N276 C311 1.421 . S
Co277 N275 1.859 . S
Co277 N276 1.962 . S
Co277 N278 1.859 . S
Co277 N284 1.958 . S
Co277 N285 1.962 1_565 S
Co277 N286 1.958 . S
N278 Co277 1.859 . S
N278 C282 1.330 . S
N278 C283 1.335 . S
C279 C280 1.411 . S
C279 C283 1.381 . S
C279 H320 0.931 . S
C280 C279 1.411 . S
C280 C281 1.384 . S
C280 H321 0.930 . S
C281 C280 1.384 . S
C281 C282 1.376 . S
C281 H322 0.929 . S
C282 N278 1.330 . S
C282 C281 1.376 . S
C282 C297 1.484 . S
C283 N278 1.335 . S
C283 C279 1.381 . S
C283 C287 1.493 . S
N284 Co277 1.958 . S
N284 C297 1.344 . S
N284 C299 1.425 . S
N285 C268 1.318 . S
N285 Co277 1.962 1_545 S
N285 C305 1.421 . S
N286 Co277 1.958 . S
N286 C289 1.344 . S
N286 C291 1.425 . S
C287 N276 1.318 . S
C287 C283 1.493 . S
C287 O288 1.201 . S
O288 C287 1.201 . S
C289 C274 1.484 . S
C289 N286 1.344 . S
C289 O290 1.268 . S
O290 C289 1.268 . S
C291 N286 1.425 . S
C291 C293 1.392 . S
C291 C294 1.368 . S
C292 C293 1.382 . S
C292 C296 1.386 . S
C293 C291 1.392 . S
C293 C292 1.382 . S
C293 H323 0.928 . S
C294 C291 1.368 . S
C294 C295 1.367 . S
C294 H324 0.930 . S
C295 C294 1.367 . S
C295 C296 1.369 . S
C296 C292 1.386 . S
C296 C295 1.369 . S
C296 H325 0.930 . S
C297 C282 1.484 . S
C297 N284 1.344 . S
C297 O298 1.268 . S
O298 C297 1.268 . S
C299 N284 1.425 . S
C299 C300 1.372 . S
C299 C304 1.388 1_565 S
C300 C299 1.372 . S
C300 C301 1.367 . S
C300 H326 0.930 . S
C301 C300 1.367 . S
C301 C302 1.369 1_565 S
C302 C301 1.369 1_545 S
C302 C303 1.386 . S
C302 H327 0.930 . S
C303 C302 1.386 . S
C303 C304 1.382 . S
C304 C299 1.388 1_545 S
C304 C303 1.382 . S
C304 H328 0.928 . S
C305 N285 1.421 . S
C305 C306 1.371 . S
C305 C310 1.385 . S
C306 C305 1.371 . S
C306 C307 1.367 . S
C306 H329 0.931 . S
C307 C306 1.367 . S
C307 C308 1.401 . S
C308 C307 1.401 . S
C308 C309 1.385 . S
C308 H330 0.930 . S
C309 C308 1.385 . S
C309 C310 1.402 . S
C310 C305 1.385 . S
C310 C309 1.402 . S
C310 H331 0.929 . S
C311 N276 1.421 . S
C311 C314 1.385 1_565 S
C311 C315 1.371 . S
C312 C313 1.369 1_565 S
C312 C316 1.417 . S
C312 H332 0.930 . S
C313 C312 1.369 1_545 S
C313 C314 1.402 . S
C314 C311 1.385 1_545 S
C314 C313 1.402 . S
C314 H333 0.929 . S
C315 C311 1.371 . S
C315 C316 1.367 . S
C315 H334 0.931 . S
C316 C312 1.417 . S
C316 C315 1.367 . S
H317 C271 0.931 . S
H318 C272 0.930 . S
H319 C273 0.929 . S
H320 C279 0.931 . S
H321 C280 0.930 . S
H322 C281 0.929 . S
H323 C293 0.928 . S
H324 C294 0.930 . S
H325 C296 0.930 . S
H326 C300 0.930 . S
H327 C302 0.930 . S
H328 C304 0.928 . S
H329 C306 0.931 . S
H330 C308 0.930 . S
H331 C310 0.929 . S
H332 C312 0.930 . S
H333 C314 0.929 . S
H334 C315 0.931 . S
C335 O336 1.201 . S
C335 C337 1.493 . S
C335 N352 1.318 . S
O336 C335 1.201 . S
C337 C335 1.493 . S
C337 C338 1.381 . S
C337 N342 1.335 1_565 S
C338 C337 1.381 . S
C338 C339 1.411 1_565 S
C338 H384 0.931 . S
C339 C338 1.411 1_545 S
C339 C340 1.384 . S
C339 H385 0.930 . S
C340 C339 1.384 . S
C340 C341 1.376 . S
C340 H386 0.929 . S
C341 C340 1.376 . S
C341 N342 1.330 . S
C341 C356 1.484 . S
N342 C337 1.335 1_545 S
N342 C341 1.330 . S
N342 Co344 1.859 . S
N343 Co344 1.962 . S
N343 C354 1.318 . S
N343 C378 1.421 . S
Co344 N342 1.859 . S
Co344 N343 1.962 . S
Co344 N345 1.859 . S
Co344 N351 1.958 . S
Co344 N352 1.962 1_545 S
Co344 N353 1.958 . S
N345 Co344 1.859 . S
N345 C349 1.330 . S
N345 C350 1.335 . S
C346 C347 1.411 . S
C346 C350 1.381 . S
C346 H387 0.931 . S
C347 C346 1.411 . S
C347 C348 1.384 . S
C347 H388 0.930 . S
C348 C347 1.384 . S
C348 C349 1.376 . S
C348 H389 0.929 . S
C349 N345 1.330 . S
C349 C348 1.376 . S
C349 C364 1.484 . S
C350 N345 1.335 . S
C350 C346 1.381 . S
C350 C354 1.493 . S
N351 Co344 1.958 . S
N351 C364 1.344 . S
N351 C366 1.425 . S
N352 C335 1.318 . S
N352 Co344 1.962 1_565 S
N352 C372 1.421 . S
N353 Co344 1.958 . S
N353 C356 1.344 . S
N353 C358 1.425 . S
C354 N343 1.318 . S
C354 C350 1.493 . S
C354 O355 1.201 . S
O355 C354 1.201 . S
C356 C341 1.484 . S
C356 N353 1.344 . S
C356 O357 1.268 . S
O357 C356 1.268 . S
C358 N353 1.425 . S
C358 C360 1.392 . S
C358 C361 1.368 . S
C359 C360 1.382 . S
C359 C363 1.386 . S
C360 C358 1.392 . S
C360 C359 1.382 . S
C360 H390 0.928 . S
C361 C358 1.368 . S
C361 C362 1.367 . S
C361 H391 0.930 . S
C362 C361 1.367 . S
C362 C363 1.369 . S
C363 C359 1.386 . S
C363 C362 1.369 . S
C363 H392 0.930 . S
C364 C349 1.484 . S
C364 N351 1.344 . S
C364 O365 1.268 . S
O365 C364 1.268 . S
C366 N351 1.425 . S
C366 C367 1.368 . S
C366 C371 1.392 1_545 S
C367 C366 1.368 . S
C367 C368 1.367 . S
C367 H393 0.930 . S
C368 C367 1.367 . S
C368 C369 1.351 1_545 S
C369 C368 1.351 1_565 S
C369 C370 1.403 . S
C369 H394 0.932 . S
C370 C369 1.403 . S
C370 C371 1.382 . S
C371 C366 1.392 1_565 S
C371 C370 1.382 . S
C371 H395 0.928 . S
C372 N352 1.421 . S
C372 C373 1.371 . S
C372 C377 1.385 . S
C373 C372 1.371 . S
C373 C374 1.367 . S
C373 H396 0.931 . S
C374 C373 1.367 . S
C374 C375 1.401 . S
C375 C374 1.401 . S
C375 C376 1.385 . S
C375 H397 0.930 . S
C376 C375 1.385 . S
C376 C377 1.402 . S
C377 C372 1.385 . S
C377 C376 1.402 . S
C377 H398 0.929 . S
C378 N343 1.421 . S
C378 C381 1.385 1_545 S
C378 C382 1.371 . S
C379 C380 1.385 1_545 S
C379 C383 1.401 . S
C379 H399 0.930 . S
C380 C379 1.385 1_565 S
C380 C381 1.402 . S
C381 C378 1.385 1_565 S
C381 C380 1.402 . S
C381 H400 0.929 . S
C382 C378 1.371 . S
C382 C383 1.367 . S
C382 H401 0.931 . S
C383 C379 1.401 . S
C383 C382 1.367 . S
H384 C338 0.931 . S
H385 C339 0.930 . S
H386 C340 0.929 . S
H387 C346 0.931 . S
H388 C347 0.930 . S
H389 C348 0.929 . S
H390 C360 0.928 . S
H391 C361 0.930 . S
H392 C363 0.930 . S
H393 C367 0.930 . S
H394 C369 0.932 . S
H395 C371 0.928 . S
H396 C373 0.931 . S
H397 C375 0.930 . S
H398 C377 0.929 . S
H399 C379 0.930 . S
H400 C381 0.929 . S
H401 C382 0.931 . S
C402 C403 1.170 . S
C402 C404 1.380 . S
C403 C402 1.170 . S
C404 C402 1.380 . S
C404 C405 1.170 . S
C405 C404 1.170 . S
C406 C407 1.170 . S
C406 C408 1.380 . S
C407 C406 1.170 . S
C408 C406 1.380 . S
C408 C409 1.170 . S
C409 C408 1.170 . S
C410 C411 1.170 . S
C410 C412 1.380 . S
C411 C410 1.170 . S
C412 C410 1.380 . S
C412 C413 1.170 . S
C413 C412 1.170 . S
C414 C415 1.170 . S
C414 C416 1.380 . S
C415 C414 1.170 . S
C416 C414 1.380 . S
C416 C417 1.170 . S
C417 C416 1.170 . S
C418 C419 1.170 . S
C418 C420 1.380 . S
C419 C418 1.170 . S
C420 C418 1.380 . S
C420 C421 1.170 . S
C421 C420 1.170 . S
C422 C423 1.170 . S
C422 C424 1.380 . S
C423 C422 1.170 . S
C424 C422 1.380 . S
C424 C425 1.170 . S
C425 C424 1.170 . S
C426 C427 1.170 . S
C426 C428 1.380 . S
C427 C426 1.170 . S
C428 C426 1.380 . S
C428 C429 1.170 . S
C429 C428 1.170 . S
C430 C431 1.170 . S
C430 C432 1.380 . S
C431 C430 1.170 . S
C432 C430 1.380 . S
C432 C433 1.170 . S
C433 C432 1.170 . S
C434 C435 1.170 . S
C434 C436 1.380 . S
C435 C434 1.170 . S
C436 C434 1.380 . S
C436 C437 1.170 . S
C437 C436 1.170 . S
C438 C439 1.170 . S
C438 C440 1.380 . S
C439 C438 1.170 . S
C440 C438 1.380 . S
C440 C441 1.170 . S
C441 C440 1.170 . S
C442 C443 1.170 . S
C442 C444 1.380 . S
C443 C442 1.170 . S
C444 C442 1.380 . S
C444 C445 1.170 . S
C445 C444 1.170 . S
C446 C447 1.170 . S
C446 C448 1.380 . S
C447 C446 1.170 . S
C448 C446 1.380 . S
C448 C449 1.170 . S
C449 C448 1.170 . S
C450 C451 1.170 . S
C450 C452 1.380 . S
C451 C450 1.170 . S
C452 C450 1.380 . S
C452 C453 1.170 . S
C453 C452 1.170 . S
C454 C455 1.170 . S
C454 C456 1.380 . S
C455 C454 1.170 . S
C456 C454 1.380 . S
C456 C457 1.170 . S
C457 C456 1.170 . S
C458 C459 1.170 . S
C458 C460 1.380 . S
C459 C458 1.170 . S
C460 C458 1.380 . S
C460 C461 1.170 . S
C461 C460 1.170 . S
C462 C463 1.170 . S
C462 C464 1.380 . S
C463 C462 1.170 . S
C464 C462 1.380 . S
C464 C465 1.170 . S
C465 C464 1.170 . S
C466 C467 1.170 . S
C466 C468 1.380 . S
C467 C466 1.170 . S
C468 C466 1.380 . S
C468 C469 1.170 . S
C469 C468 1.170 . S
C470 C471 1.170 . S
C470 C472 1.380 . S
C471 C470 1.170 . S
C472 C470 1.380 . S
C472 C473 1.170 . S
C473 C472 1.170 . S
C474 C475 1.170 . S
C474 C476 1.380 . S
C475 C474 1.170 . S
C476 C474 1.380 . S
C476 C477 1.170 . S
C477 C476 1.170 . S
C478 C479 1.170 . S
C478 C480 1.380 . S
C479 C478 1.170 . S
C480 C478 1.380 . S
C480 C481 1.170 . S
C481 C480 1.170 . S
C482 C483 1.170 . S
C482 C484 1.380 . S
C483 C482 1.170 . S
C484 C482 1.380 . S
C484 C485 1.170 . S
C485 C484 1.170 . S
C486 C487 1.170 . S
C486 C488 1.380 . S
C487 C486 1.170 . S
C488 C486 1.380 . S
C488 C489 1.170 . S
C489 C488 1.170 . S
C490 C491 1.170 . S
C490 C492 1.380 . S
C491 C490 1.170 . S
C492 C490 1.380 . S
C492 C493 1.170 . S
C493 C492 1.170 . S
C494 C495 1.170 . S
C494 C496 1.380 . S
C495 C494 1.170 . S
C496 C494 1.380 . S
C496 C497 1.170 . S
C497 C496 1.170 . S
C403 C48 1.221 . S
C405 C91 1.295 . S
C407 C106 1.220 . S
C409 C169 1.291 . S
C411 C225 1.348 . S
C413 C182 1.357 . S
C415 C240 1.363 . S
C417 C35 1.340 . S
C419 C303 1.136 . S
C421 C24 1.128 . S
C423 C374 1.234 . S
C425 C102 1.277 . S
C427 C316 1.299 . S
C429 C158 1.276 . S
C431 C236 1.111 . S
C433 C359 1.134 . S
C435 C173 1.344 . S
C437 C370 1.324 . S
C439 C292 1.341 . S
C441 C249 1.345 . S
C443 C383 1.473 . S
C445 C39 1.529 . S
C447 C307 1.496 . S
C449 C115 1.477 . S
C451 C167 1.344 . S
C453 C242 1.360 . S
C455 C45 1.315 . S
C457 C228 1.355 . S
C459 C33 1.405 . S
C461 C108 1.431 . S
C463 C179 1.447 . S
C465 C94 1.431 . S
C467 C380 1.293 . S
C469 C161 1.338 . S
C471 C234 1.381 . S
C473 C309 1.342 . S
C475 C368 1.228 . S
C477 C27 1.291 . S
C479 C100 1.252 . S
C481 C295 1.250 . S
C483 C41 1.524 . S
C485 C313 1.532 . S
C487 C112 1.452 . S
C489 C362 1.440 . S
C491 C175 1.440 . S
C493 C301 1.440 . S
C495 C246 1.562 . S
C497 C376 1.562 . S
