# Generated by pormake.
# Topology ukd, (4)-cn, num edge types: 1
# Building blocks:
#     Node 0, Type 0, BuildingBlock: TATPOV_clean_sbu_0, # of connection points: 4
#     Node 1, Type 0, BuildingBlock: TATPOV_clean_sbu_0, # of connection points: 4
#     Node 2, Type 0, BuildingBlock: TATPOV_clean_sbu_0, # of connection points: 4
#     Node 3, Type 0, BuildingBlock: TATPOV_clean_sbu_0, # of connection points: 4
#     Node 4, Type 0, BuildingBlock: TATPOV_clean_sbu_0, # of connection points: 4
#     Node 5, Type 0, BuildingBlock: TATPOV_clean_sbu_0, # of connection points: 4
#     Node 6, Type 0, BuildingBlock: TATPOV_clean_sbu_0, # of connection points: 4
#     Node 7, Type 0, BuildingBlock: TATPOV_clean_sbu_0, # of connection points: 4
#     Node 8, Type 0, BuildingBlock: TATPOV_clean_sbu_0, # of connection points: 4
#     Node 9, Type 0, BuildingBlock: TATPOV_clean_sbu_0, # of connection points: 4
#     Node 10, Type 0, BuildingBlock: TATPOV_clean_sbu_0, # of connection points: 4
#     Node 11, Type 0, BuildingBlock: TATPOV_clean_sbu_0, # of connection points: 4
#     Node 12, Type 0, BuildingBlock: TATPOV_clean_sbu_0, # of connection points: 4
#     Node 13, Type 0, BuildingBlock: TATPOV_clean_sbu_0, # of connection points: 4
#     Node 14, Type 0, BuildingBlock: TATPOV_clean_sbu_0, # of connection points: 4
#     Node 15, Type 0, BuildingBlock: TATPOV_clean_sbu_0, # of connection points: 4
#     Node 16, Type 0, BuildingBlock: TATPOV_clean_sbu_0, # of connection points: 4
#     Node 17, Type 0, BuildingBlock: TATPOV_clean_sbu_0, # of connection points: 4
#     Node 18, Type 0, BuildingBlock: TATPOV_clean_sbu_0, # of connection points: 4
#     Node 19, Type 0, BuildingBlock: TATPOV_clean_sbu_0, # of connection points: 4
#     Node 20, Type 0, BuildingBlock: TATPOV_clean_sbu_0, # of connection points: 4
#     Node 21, Type 0, BuildingBlock: TATPOV_clean_sbu_0, # of connection points: 4
#     Node 22, Type 0, BuildingBlock: TATPOV_clean_sbu_0, # of connection points: 4
#     Node 23, Type 0, BuildingBlock: TATPOV_clean_sbu_0, # of connection points: 4
#     Node 24, Type 0, BuildingBlock: TATPOV_clean_sbu_0, # of connection points: 4
#     Node 25, Type 0, BuildingBlock: TATPOV_clean_sbu_0, # of connection points: 4
#     Node 26, Type 0, BuildingBlock: TATPOV_clean_sbu_0, # of connection points: 4
#     Node 27, Type 0, BuildingBlock: TATPOV_clean_sbu_0, # of connection points: 4
#     Node 28, Type 0, BuildingBlock: TATPOV_clean_sbu_0, # of connection points: 4
#     Node 29, Type 0, BuildingBlock: TATPOV_clean_sbu_0, # of connection points: 4
#     Node 30, Type 0, BuildingBlock: TATPOV_clean_sbu_0, # of connection points: 4
#     Node 31, Type 0, BuildingBlock: TATPOV_clean_sbu_0, # of connection points: 4
#     Edge 32, Type (0, 0), BuildingBlock: AJUNOK_clean_linker_0, # of connection points: 2
#     Edge 33, Type (0, 0), BuildingBlock: AJUNOK_clean_linker_0, # of connection points: 2
#     Edge 34, Type (0, 0), BuildingBlock: AJUNOK_clean_linker_0, # of connection points: 2
#     Edge 35, Type (0, 0), BuildingBlock: AJUNOK_clean_linker_0, # of connection points: 2
#     Edge 36, Type (0, 0), BuildingBlock: AJUNOK_clean_linker_0, # of connection points: 2
#     Edge 37, Type (0, 0), BuildingBlock: AJUNOK_clean_linker_0, # of connection points: 2
#     Edge 38, Type (0, 0), BuildingBlock: AJUNOK_clean_linker_0, # of connection points: 2
#     Edge 39, Type (0, 0), BuildingBlock: AJUNOK_clean_linker_0, # of connection points: 2
#     Edge 40, Type (0, 0), BuildingBlock: AJUNOK_clean_linker_0, # of connection points: 2
#     Edge 41, Type (0, 0), BuildingBlock: AJUNOK_clean_linker_0, # of connection points: 2
#     Edge 42, Type (0, 0), BuildingBlock: AJUNOK_clean_linker_0, # of connection points: 2
#     Edge 43, Type (0, 0), BuildingBlock: AJUNOK_clean_linker_0, # of connection points: 2
#     Edge 44, Type (0, 0), BuildingBlock: AJUNOK_clean_linker_0, # of connection points: 2
#     Edge 45, Type (0, 0), BuildingBlock: AJUNOK_clean_linker_0, # of connection points: 2
#     Edge 46, Type (0, 0), BuildingBlock: AJUNOK_clean_linker_0, # of connection points: 2
#     Edge 47, Type (0, 0), BuildingBlock: AJUNOK_clean_linker_0, # of connection points: 2
#     Edge 48, Type (0, 0), BuildingBlock: AJUNOK_clean_linker_0, # of connection points: 2
#     Edge 49, Type (0, 0), BuildingBlock: AJUNOK_clean_linker_0, # of connection points: 2
#     Edge 50, Type (0, 0), BuildingBlock: AJUNOK_clean_linker_0, # of connection points: 2
#     Edge 51, Type (0, 0), BuildingBlock: AJUNOK_clean_linker_0, # of connection points: 2
#     Edge 52, Type (0, 0), BuildingBlock: AJUNOK_clean_linker_0, # of connection points: 2
#     Edge 53, Type (0, 0), BuildingBlock: AJUNOK_clean_linker_0, # of connection points: 2
#     Edge 54, Type (0, 0), BuildingBlock: AJUNOK_clean_linker_0, # of connection points: 2
#     Edge 55, Type (0, 0), BuildingBlock: AJUNOK_clean_linker_0, # of connection points: 2
#     Edge 56, Type (0, 0), BuildingBlock: AJUNOK_clean_linker_0, # of connection points: 2
#     Edge 57, Type (0, 0), BuildingBlock: AJUNOK_clean_linker_0, # of connection points: 2
#     Edge 58, Type (0, 0), BuildingBlock: AJUNOK_clean_linker_0, # of connection points: 2
#     Edge 59, Type (0, 0), BuildingBlock: AJUNOK_clean_linker_0, # of connection points: 2
#     Edge 60, Type (0, 0), BuildingBlock: AJUNOK_clean_linker_0, # of connection points: 2
#     Edge 61, Type (0, 0), BuildingBlock: AJUNOK_clean_linker_0, # of connection points: 2
#     Edge 62, Type (0, 0), BuildingBlock: AJUNOK_clean_linker_0, # of connection points: 2
#     Edge 63, Type (0, 0), BuildingBlock: AJUNOK_clean_linker_0, # of connection points: 2
#     Edge 64, Type (0, 0), BuildingBlock: AJUNOK_clean_linker_0, # of connection points: 2
#     Edge 65, Type (0, 0), BuildingBlock: AJUNOK_clean_linker_0, # of connection points: 2
#     Edge 66, Type (0, 0), BuildingBlock: AJUNOK_clean_linker_0, # of connection points: 2
#     Edge 67, Type (0, 0), BuildingBlock: AJUNOK_clean_linker_0, # of connection points: 2
#     Edge 68, Type (0, 0), BuildingBlock: AJUNOK_clean_linker_0, # of connection points: 2
#     Edge 69, Type (0, 0), BuildingBlock: AJUNOK_clean_linker_0, # of connection points: 2
#     Edge 70, Type (0, 0), BuildingBlock: AJUNOK_clean_linker_0, # of connection points: 2
#     Edge 71, Type (0, 0), BuildingBlock: AJUNOK_clean_linker_0, # of connection points: 2
#     Edge 72, Type (0, 0), BuildingBlock: AJUNOK_clean_linker_0, # of connection points: 2
#     Edge 73, Type (0, 0), BuildingBlock: AJUNOK_clean_linker_0, # of connection points: 2
#     Edge 74, Type (0, 0), BuildingBlock: AJUNOK_clean_linker_0, # of connection points: 2
#     Edge 75, Type (0, 0), BuildingBlock: AJUNOK_clean_linker_0, # of connection points: 2
#     Edge 76, Type (0, 0), BuildingBlock: AJUNOK_clean_linker_0, # of connection points: 2
#     Edge 77, Type (0, 0), BuildingBlock: AJUNOK_clean_linker_0, # of connection points: 2
#     Edge 78, Type (0, 0), BuildingBlock: AJUNOK_clean_linker_0, # of connection points: 2
#     Edge 79, Type (0, 0), BuildingBlock: AJUNOK_clean_linker_0, # of connection points: 2
#     Edge 80, Type (0, 0), BuildingBlock: AJUNOK_clean_linker_0, # of connection points: 2
#     Edge 81, Type (0, 0), BuildingBlock: AJUNOK_clean_linker_0, # of connection points: 2
#     Edge 82, Type (0, 0), BuildingBlock: AJUNOK_clean_linker_0, # of connection points: 2
#     Edge 83, Type (0, 0), BuildingBlock: AJUNOK_clean_linker_0, # of connection points: 2
#     Edge 84, Type (0, 0), BuildingBlock: AJUNOK_clean_linker_0, # of connection points: 2
#     Edge 85, Type (0, 0), BuildingBlock: AJUNOK_clean_linker_0, # of connection points: 2
#     Edge 86, Type (0, 0), BuildingBlock: AJUNOK_clean_linker_0, # of connection points: 2
#     Edge 87, Type (0, 0), BuildingBlock: AJUNOK_clean_linker_0, # of connection points: 2
#     Edge 88, Type (0, 0), BuildingBlock: AJUNOK_clean_linker_0, # of connection points: 2
#     Edge 89, Type (0, 0), BuildingBlock: AJUNOK_clean_linker_0, # of connection points: 2
#     Edge 90, Type (0, 0), BuildingBlock: AJUNOK_clean_linker_0, # of connection points: 2
#     Edge 91, Type (0, 0), BuildingBlock: AJUNOK_clean_linker_0, # of connection points: 2
#     Edge 92, Type (0, 0), BuildingBlock: AJUNOK_clean_linker_0, # of connection points: 2
#     Edge 93, Type (0, 0), BuildingBlock: AJUNOK_clean_linker_0, # of connection points: 2
#     Edge 94, Type (0, 0), BuildingBlock: AJUNOK_clean_linker_0, # of connection points: 2
#     Edge 95, Type (0, 0), BuildingBlock: AJUNOK_clean_linker_0, # of connection points: 2
# Relax obj value: 0.128
# Max RMSD: 0.188
# Mean RMSD: 0.180
data_MOF--net-ukd--node1-TATPOV_clean_sbu_0--edge1-AJUNOK_clean_linker_0
_symmetry_space_group_name_H-M    P1
_symmetry_Int_Tables_number       1
_symmetry_cell_setting            triclinic
loop_
_symmetry_equiv_pos_as_xyz
'x, y, z'
_cell_length_a     32.415152
_cell_length_b     31.552632
_cell_length_c     57.758268
_cell_angle_alpha  89.994553
_cell_angle_beta   90.001594
_cell_angle_gamma 90.141102
loop_
_atom_site_label
_atom_site_type_symbol
_atom_site_fract_x
_atom_site_fract_y
_atom_site_fract_z
_atom_type_partial_charge
Zn0 Zn 0.12062 0.22271 0.29728 0.0
Zn1 Zn 0.19425 0.20528 0.3185 0.0
O2 O 0.16062 0.15138 0.32093 0.0
O3 O 0.10123 0.1619 0.30376 0.0
O4 O 0.2474 0.18565 0.33225 0.0
O5 O 0.15104 0.23827 0.26784 0.0
O6 O 0.20925 0.22625 0.28626 0.0
C7 C 0.12544 0.13766 0.31477 0.0
C8 C 0.14212 0.27426 0.33839 0.0
O9 O 0.17428 0.2515 0.33978 0.0
O10 O 0.11603 0.26851 0.32228 0.0
C11 C 0.28306 0.19801 0.32614 0.0
O12 O 0.28666 0.2285 0.31079 0.0
C13 C 0.19009 0.23823 0.26817 0.0
Zn14 Zn 0.09015 0.98021 0.6401 0.0
Zn15 Zn 0.07738 0.98194 0.59491 0.0
O16 O 0.01826 0.97957 0.60733 0.0
O17 O 0.02865 0.97467 0.6448 0.0
O18 O 0.07007 0.98465 0.56085 0.0
O19 O 0.11653 0.03755 0.63947 0.0
O20 O 0.11264 0.03502 0.60148 0.0
C21 C 0.00406 0.97548 0.62776 0.0
C22 C 0.12558 0.90921 0.61569 0.0
O23 O 0.10687 0.92568 0.59862 0.0
O24 O 0.12511 0.92728 0.63529 0.0
C25 C 0.04938 0.95775 0.54931 0.0
O26 O 0.02961 0.92725 0.56015 0.0
C27 C 0.12432 0.05367 0.61991 0.0
Zn28 Zn 0.35269 0.76897 0.81368 0.0
Zn29 Zn 0.28037 0.78213 0.83642 0.0
O30 O 0.31292 0.83629 0.84191 0.0
O31 O 0.37098 0.82857 0.82283 0.0
O32 O 0.22456 0.79776 0.84806 0.0
O33 O 0.32413 0.75739 0.78337 0.0
O34 O 0.26697 0.76521 0.80333 0.0
C35 C 0.34784 0.85073 0.83571 0.0
C36 C 0.33328 0.71171 0.85302 0.0
O37 O 0.30103 0.73377 0.8562 0.0
O38 O 0.35805 0.72001 0.8366 0.0
C39 C 0.21724 0.81295 0.86797 0.0
O40 O 0.24732 0.815 0.88318 0.0
C41 C 0.28516 0.75673 0.78439 0.0
Zn42 Zn 0.37433 0.03173 0.13721 0.0
Zn43 Zn 0.40337 0.02094 0.0947 0.0
O44 O 0.45525 0.02516 0.11457 0.0
O45 O 0.43226 0.03734 0.14965 0.0
O46 O 0.42816 0.00992 0.06376 0.0
O47 O 0.34729 0.9747 0.13629 0.0
O48 O 0.36462 0.96964 0.09951 0.0
C49 C 0.46224 0.03278 0.13582 0.0
C50 C 0.35243 0.09883 0.10507 0.0
O51 O 0.37551 0.07842 0.09122 0.0
O52 O 0.34502 0.0843 0.12512 0.0
C53 C 0.44939 0.03702 0.05262 0.0
O54 O 0.45431 0.07537 0.06103 0.0
C55 C 0.34633 0.95485 0.11728 0.0
Zn56 Zn 0.08931 0.78207 0.17805 0.0
Zn57 Zn 0.1631 0.79133 0.15516 0.0
O58 O 0.13854 0.85017 0.15822 0.0
O59 O 0.08119 0.84629 0.17827 0.0
O60 O 0.21808 0.80572 0.14178 0.0
O61 O 0.12026 0.75306 0.20452 0.0
O62 O 0.17777 0.76206 0.1849 0.0
C63 C 0.10801 0.86835 0.16777 0.0
C64 C 0.09801 0.73824 0.13269 0.0
O65 O 0.13477 0.75231 0.13245 0.0
O66 O 0.07363 0.74753 0.14915 0.0
C67 C 0.22089 0.82756 0.12339 0.0
O68 O 0.18722 0.83515 0.11142 0.0
C69 C 0.15895 0.7484 0.20271 0.0
Zn70 Zn 0.41761 0.98059 0.32468 0.0
Zn71 Zn 0.4309 0.9878 0.36973 0.0
O72 O 0.48934 0.97684 0.35776 0.0
O73 O 0.47767 0.96638 0.32071 0.0
O74 O 0.43788 0.99576 0.40386 0.0
O75 O 0.39973 0.04084 0.3219 0.0
O76 O 0.40345 0.04412 0.3599 0.0
C77 C 0.50253 0.96778 0.3376 0.0
C78 C 0.37392 0.91827 0.35163 0.0
O79 O 0.39483 0.93445 0.36805 0.0
O80 O 0.37606 0.93382 0.33144 0.0
C81 C 0.46327 0.97594 0.41663 0.0
O82 O 0.48869 0.9485 0.40724 0.0
C83 C 0.39474 0.06123 0.34052 0.0
Zn84 Zn 0.39861 0.201 0.68455 0.0
Zn85 Zn 0.32476 0.18856 0.66173 0.0
O86 O 0.35449 0.13316 0.6571 0.0
O87 O 0.41414 0.14023 0.67474 0.0
O88 O 0.26884 0.1763 0.64919 0.0
O89 O 0.36816 0.21251 0.7148 0.0
O90 O 0.31122 0.20386 0.69462 0.0
C91 C 0.38915 0.11786 0.66301 0.0
C92 C 0.37928 0.2593 0.6457 0.0
O93 O 0.34703 0.23703 0.64271 0.0
O94 O 0.40457 0.25074 0.66182 0.0
C95 C 0.26066 0.16687 0.62834 0.0
O96 O 0.29054 0.16689 0.61297 0.0
C97 C 0.32915 0.21205 0.71364 0.0
Zn98 Zn 0.06375 0.01308 0.84701 0.0
Zn99 Zn 0.04537 0.01469 0.89162 0.0
O100 O 0.98766 0.01906 0.87727 0.0
O101 O 0.00313 0.02085 0.84022 0.0
O102 O 0.03569 0.01259 0.92553 0.0
O103 O 0.08699 0.9545 0.84912 0.0
O104 O 0.07836 0.95954 0.88679 0.0
C105 C 0.97639 0.02191 0.8562 0.0
C106 C 0.10005 0.08369 0.87168 0.0
O107 O 0.07842 0.06935 0.88828 0.0
O108 O 0.10096 0.06439 0.85244 0.0
C109 C 0.01353 0.03722 0.93764 0.0
O110 O 0.99227 0.0674 0.92754 0.0
C111 C 0.09131 0.9392 0.8692 0.0
Zn112 Zn 0.84726 0.79512 0.65765 0.0
Zn113 Zn 0.78214 0.82579 0.64018 0.0
O114 O 0.82695 0.87277 0.63588 0.0
O115 O 0.8765 0.85021 0.65873 0.0
O116 O 0.73072 0.85501 0.62911 0.0
O117 O 0.81898 0.77404 0.68604 0.0
O118 O 0.76531 0.80954 0.67353 0.0
C119 C 0.86159 0.87865 0.64586 0.0
C120 C 0.82164 0.74959 0.61775 0.0
O121 O 0.78928 0.77199 0.62025 0.0
O122 O 0.85303 0.75655 0.63021 0.0
C123 C 0.72393 0.86799 0.60865 0.0
O124 O 0.75116 0.86011 0.59237 0.0
C125 C 0.7826 0.78713 0.68912 0.0
Zn126 Zn 0.01552 0.0637 0.42006 0.0
Zn127 Zn 0.98125 0.99246 0.40566 0.0
O128 O 0.93614 0.03732 0.40242 0.0
O129 O 0.96251 0.09609 0.41648 0.0
O130 O 0.9498 0.93999 0.39662 0.0
O131 O 0.03206 0.03876 0.44991 0.0
O132 O 0.00254 0.97917 0.43881 0.0
C133 C 0.93274 0.07655 0.40712 0.0
C134 C 0.05101 0.03143 0.37784 0.0
O135 O 0.02426 0.002 0.37979 0.0
O136 O 0.05387 0.06017 0.39303 0.0
C137 C 0.93332 0.94033 0.37668 0.0
O138 O 0.94142 0.9723 0.36282 0.0
C139 C 0.02251 0.00062 0.45383 0.0
Zn140 Zn 0.63039 0.20577 0.17234 0.0
Zn141 Zn 0.6924 0.16578 0.15509 0.0
O142 O 0.64249 0.12457 0.15207 0.0
O143 O 0.59435 0.15503 0.17302 0.0
O144 O 0.73925 0.12967 0.14365 0.0
O145 O 0.66138 0.22196 0.2008 0.0
O146 O 0.71137 0.18129 0.18809 0.0
C147 C 0.60669 0.12384 0.16123 0.0
C148 C 0.66201 0.24538 0.13154 0.0
O149 O 0.69097 0.21854 0.13399 0.0
O150 O 0.6308 0.24427 0.14467 0.0
C151 C 0.77318 0.14365 0.13569 0.0
O152 O 0.7786 0.18477 0.13369 0.0
C153 C 0.69629 0.20511 0.20376 0.0
Zn154 Zn 0.49953 0.9142 0.92946 0.0
Zn155 Zn 0.524 0.98622 0.91136 0.0
O156 O 0.56553 0.94074 0.90131 0.0
O157 O 0.54712 0.88052 0.91739 0.0
O158 O 0.55264 0.03807 0.89875 0.0
O159 O 0.49985 0.93683 0.96124 0.0
O160 O 0.51443 -0.00082 0.94634 0.0
C161 C 0.57113 0.90122 0.90436 0.0
C162 C 0.44417 0.94899 0.89458 0.0
O163 O 0.47127 0.97797 0.89227 0.0
O164 O 0.44861 0.92016 0.90963 0.0
C165 C 0.55888 0.03894 0.87703 0.0
O166 O 0.54201 0.00923 0.86418 0.0
C167 C 0.50575 0.97612 0.96385 0.0
Zn168 Zn 0.83418 0.19891 0.80887 0.0
Zn169 Zn 0.76801 0.18191 0.83161 0.0
O170 O 0.80798 0.13146 0.83798 0.0
O171 O 0.85709 0.14114 0.81225 0.0
O172 O 0.71569 0.16231 0.84741 0.0
O173 O 0.80441 0.21393 0.77995 0.0
O174 O 0.74841 0.19275 0.79794 0.0
C175 C 0.84055 0.11868 0.82778 0.0
C176 C 0.81975 0.25688 0.84617 0.0
O177 O 0.78512 0.23779 0.84742 0.0
O178 O 0.84727 0.24415 0.83229 0.0
C179 C 0.69528 0.13379 0.83684 0.0
O180 O 0.70916 0.1201 0.81682 0.0
C181 C 0.76611 0.20652 0.7797 0.0
Zn182 Zn 0.45492 0.05842 0.55543 0.0
Zn183 Zn 0.51969 0.01582 0.56163 0.0
O184 O 0.54485 0.07461 0.56672 0.0
O185 O 0.48623 0.10928 0.56742 0.0
O186 O 0.56701 0.97565 0.56735 0.0
O187 O 0.44941 0.04676 0.52208 0.0
O188 O 0.50052 0.00247 0.52777 0.0
C189 C 0.52483 0.10854 0.57073 0.0
C190 C 0.44329 0.01195 0.59412 0.0
O191 O 0.48152 0.00663 0.58993 0.0
O192 O 0.42047 0.02669 0.57832 0.0
C193 C 0.58367 0.97654 0.58726 0.0
O194 O 0.57003 0.00387 0.60258 0.0
C195 C 0.47307 0.01829 0.51447 0.0
Zn196 Zn 0.65552 0.77649 0.3133 0.0
Zn197 Zn 0.71703 0.80768 0.3367 0.0
O198 O 0.67252 0.85468 0.33727 0.0
O199 O 0.62762 0.83235 0.3114 0.0
O200 O 0.7659 0.83848 0.34965 0.0
O201 O 0.69074 0.75781 0.28689 0.0
O202 O 0.74082 0.79074 0.3051 0.0
C203 C 0.6404 0.86081 0.32502 0.0
C204 C 0.67208 0.73297 0.35649 0.0
O205 O 0.70444 0.75594 0.35726 0.0
O206 O 0.64582 0.73785 0.34049 0.0
C207 C 0.79869 0.82316 0.35825 0.0
O208 O 0.80155 0.78223 0.362 0.0
C209 C 0.72781 0.77025 0.28757 0.0
Zn210 Zn 0.03975 0.95688 0.07486 0.0
Zn211 Zn 0.97714 -0.00026 0.08512 0.0
O212 O 0.95127 0.94081 0.08807 0.0
O213 O 0.00954 0.90543 0.08733 0.0
O214 O 0.93165 0.03989 0.09421 0.0
O215 O 0.03883 0.97071 0.04167 0.0
O216 O 0.9911 0.01677 0.05113 0.0
C217 C 0.97096 0.90629 0.09083 0.0
C218 C 0.0582 -0.00128 0.11373 0.0
O219 O 0.0193 0.00374 0.11195 0.0
O220 O 0.07823 0.98794 0.09592 0.0
C221 C 0.90742 0.02983 0.11063 0.0
O222 O 0.9135 0.99399 0.12167 0.0
C223 C 0.01504 0.00058 0.036 0.0
Zn224 Zn 0.62308 0.72777 0.80172 0.0
Zn225 Zn 0.69637 0.71512 0.82352 0.0
O226 O 0.66449 0.66099 0.83006 0.0
O227 O 0.60516 0.66841 0.81224 0.0
O228 O 0.7525 0.70113 0.83509 0.0
O229 O 0.65115 0.73778 0.77082 0.0
O230 O 0.70903 0.73016 0.79009 0.0
C231 C 0.62909 0.64651 0.82483 0.0
C232 C 0.64392 0.78622 0.84019 0.0
O233 O 0.67612 0.76394 0.84297 0.0
O234 O 0.61833 0.77781 0.82418 0.0
C235 C 0.76084 0.68851 0.85541 0.0
O236 O 0.73128 0.68712 0.87096 0.0
C237 C 0.6902 0.73793 0.77127 0.0
Zn238 Zn 0.6177 0.48596 0.1392 0.0
Zn239 Zn 0.59137 0.48967 0.09569 0.0
O240 O 0.53858 0.48651 0.11496 0.0
O241 O 0.55934 0.47962 0.1509 0.0
O242 O 0.56731 0.49563 0.06412 0.0
O243 O 0.64243 0.54395 0.13607 0.0
O244 O 0.62793 0.54296 0.09882 0.0
C245 C 0.53027 0.48154 0.13632 0.0
C246 C 0.6444 0.41558 0.11042 0.0
O247 O 0.62175 0.43318 0.09524 0.0
O248 O 0.64969 0.43306 0.12997 0.0
C249 C 0.55314 0.46574 0.05167 0.0
O250 O 0.55673 0.42625 0.05852 0.0
C251 C 0.64416 0.56107 0.1163 0.0
Zn252 Zn 0.86131 0.25294 0.31505 0.0
Zn253 Zn 0.78979 0.26651 0.3385 0.0
O254 O 0.82273 0.32055 0.34419 0.0
O255 O 0.87998 0.31236 0.32431 0.0
O256 O 0.73434 0.28149 0.35089 0.0
O257 O 0.83171 0.24261 0.28488 0.0
O258 O 0.77513 0.252 0.30513 0.0
C259 C 0.85749 0.33471 0.33745 0.0
C260 C 0.84286 0.19527 0.35422 0.0
O261 O 0.81071 0.21732 0.35767 0.0
O262 O 0.86739 0.20375 0.33773 0.0
C263 C 0.72812 0.298 0.37061 0.0
O264 O 0.75918 0.30136 0.38511 0.0
C265 C 0.79276 0.24369 0.286 0.0
Zn266 Zn 0.88002 0.50975 0.63484 0.0
Zn267 Zn 0.91078 0.50585 0.59214 0.0
O268 O 0.96127 0.51114 0.61292 0.0
O269 O 0.93717 0.5175 0.64822 0.0
O270 O 0.93815 0.49996 0.56159 0.0
O271 O 0.8572 0.45093 0.63108 0.0
O272 O 0.87571 0.45164 0.59438 0.0
C273 C 0.96755 0.51633 0.63445 0.0
C274 C 0.85386 0.57822 0.60417 0.0
O275 O 0.87845 0.56087 0.5899 0.0
O276 O 0.84767 0.56156 0.62387 0.0
C277 C 0.95625 0.52966 0.55072 0.0
O278 O 0.95571 0.56846 0.55893 0.0
C279 C 0.85812 0.43342 0.61139 0.0
Zn280 Zn 0.60163 0.28661 0.67311 0.0
Zn281 Zn 0.67233 0.28497 0.64799 0.0
O282 O 0.65081 0.34528 0.64512 0.0
O283 O 0.5968 0.3503 0.66783 0.0
O284 O 0.72775 0.29097 0.63349 0.0
O285 O 0.63151 0.26339 0.70143 0.0
O286 O 0.68743 0.26433 0.68005 0.0
C287 C 0.62199 0.3674 0.65386 0.0
C288 C 0.60206 0.23274 0.63077 0.0
O289 O 0.63978 0.24319 0.62864 0.0
O290 O 0.58074 0.24681 0.64754 0.0
C291 C 0.73287 0.30798 0.61379 0.0
O292 O 0.70029 0.3154 0.60088 0.0
C293 C 0.66986 0.25688 0.69928 0.0
Zn294 Zn 0.91263 0.49138 0.83364 0.0
Zn295 Zn 0.93583 0.49049 0.87756 0.0
O296 O 0.98995 0.48352 0.85985 0.0
O297 O 0.97109 0.47988 0.82342 0.0
O298 O 0.95561 0.49552 0.91004 0.0
O299 O 0.89236 0.5511 0.83635 0.0
O300 O 0.90274 0.54564 0.87387 0.0
C301 C -0.00079 0.47863 0.8386 0.0
C302 C 0.8765 0.42337 0.86128 0.0
O303 O 0.90072 0.43688 0.87696 0.0
O304 O 0.87443 0.44214 0.84189 0.0
C305 C 0.96976 0.46629 0.92287 0.0
O306 O 0.97059 0.42706 0.91528 0.0
C307 C 0.88932 0.56633 0.85653 0.0
Zn308 Zn 0.90184 0.70623 0.18146 0.0
Zn309 Zn 0.82978 0.70824 0.15683 0.0
O310 O 0.85276 0.64897 0.15244 0.0
O311 O 0.90871 0.64351 0.1736 0.0
O312 O 0.77483 0.70209 0.14164 0.0
O313 O 0.87045 0.72387 0.21045 0.0
O314 O 0.81376 0.72357 0.18954 0.0
C315 C 0.88255 0.62685 0.16004 0.0
C316 C 0.8977 0.76736 0.14243 0.0
O317 O 0.86081 0.75447 0.13971 0.0
O318 O 0.92033 0.75141 0.15813 0.0
C319 C 0.77072 0.68532 0.12179 0.0
O320 O 0.80392 0.67831 0.10932 0.0
C321 C 0.83181 0.72898 0.20886 0.0
Zn322 Zn 0.58713 0.50279 0.3463 0.0
Zn323 Zn 0.55693 0.50295 0.38874 0.0
O324 O 0.50646 0.51171 0.36813 0.0
O325 O 0.53109 0.51521 0.33281 0.0
O326 O 0.53023 0.49847 0.41965 0.0
O327 O 0.60618 0.4429 0.34978 0.0
O328 O 0.58904 0.44677 0.38656 0.0
C329 C 0.50072 0.51697 0.34654 0.0
C330 C 0.6195 0.56973 0.37599 0.0
O331 O 0.59321 0.55576 0.39047 0.0
O332 O 0.62415 0.55146 0.35661 0.0
C333 C 0.51486 0.52874 0.43128 0.0
O334 O 0.51838 0.5679 0.42382 0.0
C335 C 0.6054 0.4267 0.3698 0.0
Zn336 Zn 0.36071 0.30777 0.16419 0.0
Zn337 Zn 0.3005 0.34699 0.14547 0.0
O338 O 0.35005 0.38921 0.14579 0.0
O339 O 0.39506 0.35906 0.16894 0.0
O340 O 0.25491 0.38331 0.13259 0.0
O341 O 0.32586 0.28627 0.1901 0.0
O342 O 0.27662 0.32724 0.17673 0.0
C343 C 0.38387 0.39058 0.15707 0.0
C344 C 0.33636 0.27052 0.12139 0.0
O345 O 0.30602 0.2958 0.12357 0.0
O346 O 0.36642 0.2725 0.13534 0.0
C347 C 0.22038 0.36939 0.12545 0.0
O348 O 0.21361 0.32832 0.12534 0.0
C349 C 0.28987 0.30125 0.19189 0.0
Zn350 Zn 0.49709 0.58136 0.928 0.0
Zn351 Zn 0.46669 0.50994 0.9114 0.0
O352 O 0.42208 0.5552 0.90586 0.0
O353 O 0.44693 0.61482 0.91988 0.0
O354 O 0.43713 0.45688 0.90052 0.0
O355 O 0.50252 0.55822 0.95939 0.0
O356 O 0.48259 0.49634 0.94566 0.0
C357 C 0.41835 0.59472 0.9098 0.0
C358 C 0.5429 0.54829 0.88913 0.0
O359 O 0.51458 0.52021 0.88847 0.0
O360 O 0.54326 0.57601 0.90498 0.0
C361 C 0.41646 0.45938 0.88186 0.0
O362 O 0.41839 0.49458 0.86975 0.0
C363 C 0.49483 0.51941 0.96248 0.0
Zn364 Zn 0.12549 0.69389 0.6732 0.0
Zn365 Zn 0.18998 0.66008 0.65642 0.0
O366 O 0.14296 0.61519 0.65305 0.0
O367 O 0.09332 0.64079 0.6748 0.0
O368 O 0.23981 0.62839 0.64465 0.0
O369 O 0.15481 0.7145 0.70123 0.0
O370 O 0.20776 0.67706 0.68936 0.0
C371 C 0.10759 0.61116 0.66253 0.0
C372 C 0.15321 0.73769 0.63355 0.0
O373 O 0.1844 0.71375 0.63632 0.0
O374 O 0.12116 0.73227 0.64569 0.0
C375 C 0.26961 0.64417 0.63318 0.0
O376 O 0.26894 0.68459 0.62777 0.0
C377 C 0.19088 0.70072 0.70452 0.0
Zn378 Zn 0.00999 0.40685 0.43041 0.0
Zn379 Zn 0.03297 0.47725 0.41032 0.0
O380 O 0.07413 0.43058 0.40089 0.0
O381 O 0.05688 0.37194 0.41901 0.0
O382 O 0.06049 0.52989 0.39744 0.0
O383 O 0.01118 0.43093 0.46173 0.0
O384 O 0.02373 0.49226 0.44507 0.0
C385 C 0.08013 0.39143 0.40504 0.0
C386 C 0.95353 0.43775 0.39489 0.0
O387 O 0.98005 0.46707 0.3917 0.0
O388 O 0.95861 0.41063 0.41081 0.0
C389 C 0.07876 0.52723 0.37802 0.0
O390 O 0.07561 0.4919 0.36611 0.0
C391 C 0.01642 0.47049 0.46324 0.0
Zn392 Zn 0.34159 0.69487 0.29965 0.0
Zn393 Zn 0.28275 0.66717 0.32703 0.0
O394 O 0.33035 0.62317 0.32881 0.0
O395 O 0.37528 0.64284 0.30236 0.0
O396 O 0.23775 0.63662 0.34434 0.0
O397 O 0.30333 0.70117 0.273 0.0
O398 O 0.2543 0.6768 0.29569 0.0
C399 C 0.36354 0.61662 0.31751 0.0
C400 C 0.32379 0.75003 0.33873 0.0
O401 O 0.2945 0.72425 0.3432 0.0
O402 O 0.34834 0.74318 0.32211 0.0
C403 C 0.20238 0.65085 0.34974 0.0
O404 O 0.19363 0.69084 0.34582 0.0
C405 C 0.26604 0.69086 0.2761 0.0
Zn406 Zn 0.96217 0.56134 0.05528 0.0
Zn407 Zn 0.02174 0.5137 0.06834 0.0
O408 O 0.0479 0.57259 0.07249 0.0
O409 O 0.99279 0.612 0.06765 0.0
O410 O 0.06613 0.47331 0.07909 0.0
O411 O 0.96799 0.54543 0.02242 0.0
O412 O 0.011 0.49596 0.03415 0.0
C413 C 0.03034 0.60865 0.07337 0.0
C414 C 0.93786 0.51678 0.09374 0.0
O415 O 0.97628 0.50834 0.09311 0.0
O416 O 0.92101 0.53323 0.07616 0.0
C417 C 0.08936 0.48364 0.09593 0.0
O418 O 0.08304 0.51992 0.10647 0.0
C419 C 0.99062 0.51395 0.01805 0.0
Zn420 Zn 0.15004 0.29136 0.81054 0.0
Zn421 Zn 0.21047 0.31783 0.83345 0.0
O422 O 0.16691 0.36633 0.83172 0.0
O423 O 0.12446 0.34703 0.80406 0.0
O424 O 0.25762 0.34879 0.84878 0.0
O425 O 0.18514 0.26398 0.78676 0.0
O426 O 0.2374 0.29616 0.80332 0.0
C427 C 0.13668 0.37461 0.81832 0.0
C428 C 0.15834 0.24795 0.85338 0.0
O429 O 0.19324 0.26672 0.85367 0.0
O430 O 0.13205 0.25688 0.83795 0.0
C431 C 0.29154 0.33448 0.85654 0.0
O432 O 0.2982 0.29344 0.85647 0.0
C433 C 0.22316 0.2727 0.78722 0.0
Zn434 Zn 0.49647 0.42185 0.55791 0.0
Zn435 Zn 0.45704 0.48562 0.57573 0.0
O436 O 0.42636 0.43187 0.58689 0.0
O437 O 0.45893 0.37796 0.57113 0.0
O438 O 0.42036 0.53293 0.58715 0.0
O439 O 0.48911 0.44028 0.52574 0.0
O440 O 0.46205 0.49834 0.54034 0.0
C441 C 0.43078 0.39206 0.5841 0.0
C442 C 0.54323 0.46799 0.59244 0.0
O443 O 0.51031 0.48958 0.59466 0.0
O444 O 0.54572 0.44005 0.57674 0.0
C445 C 0.40308 0.53041 0.60686 0.0
O446 O 0.41128 0.49774 0.62017 0.0
C447 C 0.47386 0.47665 0.52292 0.0
C448 C 0.10469 0.37571 0.36545 0.0
C449 C 0.10601 0.36636 0.38926 0.0
C450 C 0.118 0.34619 0.34904 0.0
C451 C 0.13416 0.30694 0.35592 0.0
H452 H 0.09018 0.40449 0.35932 0.0
H453 H 0.11424 0.35351 0.33083 0.0
S454 S 0.14926 0.26952 0.41613 0.0
N455 N 0.12775 0.31666 0.41896 0.0
N456 N 0.15456 0.26175 0.388 0.0
C457 C 0.13887 0.29861 0.37965 0.0
C458 C 0.12432 0.32824 0.39638 0.0
C459 C 0.94648 0.95704 0.65444 0.0
C460 C 0.96022 0.96376 0.6316 0.0
C461 C 0.91111 0.93308 0.65895 0.0
C462 C 0.88772 0.91569 0.64083 0.0
H463 H 0.96505 0.96709 0.66905 0.0
H464 H 0.90392 0.9252 0.67677 0.0
S465 S 0.90446 0.93232 0.57806 0.0
N466 N 0.94323 0.95745 0.59061 0.0
N467 N 0.87626 0.9126 0.59933 0.0
C468 C 0.89775 0.92681 0.61799 0.0
C469 C 0.93418 0.95094 0.61331 0.0
C470 C 0.37623 0.60896 0.87496 0.0
C471 C 0.38586 0.61906 0.89806 0.0
C472 C 0.35636 0.63834 0.86069 0.0
C473 C 0.3443 0.678 0.86931 0.0
H474 H 0.38747 0.57992 0.86723 0.0
H475 H 0.35245 0.63094 0.8425 0.0
S476 S 0.3563 0.71686 0.92941 0.0
N477 N 0.37796 0.6695 0.92954 0.0
N478 N 0.33885 0.72409 0.90283 0.0
C479 C 0.34994 0.68678 0.8929 0.0
C480 C 0.37119 0.65736 0.90729 0.0
C481 C 0.51023 0.05874 0.16637 0.0
C482 C 0.50448 0.04409 0.14359 0.0
C483 C 0.54566 0.08131 0.17256 0.0
C484 C 0.57695 0.08958 0.15633 0.0
H485 H 0.48589 0.05577 0.17913 0.0
H486 H 0.54728 0.09485 0.18978 0.0
S487 S 0.58143 0.04992 0.09599 0.0
N488 N 0.53643 0.03316 0.10584 0.0
N489 N 0.60329 0.07558 0.1177 0.0
C490 C 0.57405 0.07076 0.13436 0.0
C491 C 0.53769 0.04795 0.12793 0.0
C492 C 0.04282 0.71049 0.10699 0.0
C493 C 0.08391 0.70883 0.11451 0.0
C494 C 0.02677 0.67956 0.09219 0.0
C495 C 0.05099 0.64512 0.08471 0.0
H496 H 0.02256 0.73529 0.1131 0.0
H497 H 0.99441 0.68159 0.08767 0.0
S498 S 0.16177 0.62831 0.09809 0.0
N499 N 0.14965 0.67217 0.11211 0.0
N500 N 0.11929 0.61317 0.08461 0.0
C501 C 0.09287 0.64433 0.09115 0.0
C502 C 0.10939 0.6764 0.10597 0.0
C503 C 0.56748 0.93664 0.35357 0.0
C504 C 0.54507 0.95187 0.33439 0.0
C505 C 0.60188 0.91034 0.3505 0.0
C506 C 0.61463 0.89855 0.32818 0.0
H507 H 0.55646 0.942 0.37103 0.0
H508 H 0.61606 0.89612 0.3656 0.0
S509 S 0.57346 0.93857 0.27254 0.0
N510 N 0.54356 0.9601 0.29245 0.0
N511 N 0.60755 0.9099 0.28684 0.0
C512 C 0.59561 0.91748 0.30902 0.0
C513 C 0.56098 0.94447 0.31208 0.0
C514 C 0.3822 0.29118 0.60624 0.0
C515 C 0.38744 0.29544 0.63029 0.0
C516 C 0.39419 0.32376 0.59113 0.0
C517 C 0.41002 0.36215 0.59974 0.0
H518 H 0.37092 0.26166 0.599 0.0
H519 H 0.39231 0.31844 0.57263 0.0
S520 S 0.42606 0.39019 0.66142 0.0
N521 N 0.4074 0.34147 0.66209 0.0
N522 N 0.42833 0.40339 0.63378 0.0
C523 C 0.41303 0.36764 0.62381 0.0
C524 C 0.40212 0.33405 0.63909 0.0
C525 C 0.90911 0.05555 0.86665 0.0
C526 C 0.9335 0.03387 0.85031 0.0
C527 C 0.87466 0.07921 0.85964 0.0
C528 C 0.86383 0.08178 0.83613 0.0
H529 H 0.91883 0.0577 0.88456 0.0
H530 H 0.8593 0.09904 0.87228 0.0
S531 S 0.91042 0.02165 0.78773 0.0
N532 N 0.93879 0.00922 0.81048 0.0
N533 N 0.87464 0.05435 0.79738 0.0
C534 C 0.88457 0.05588 0.82023 0.0
C535 C 0.91932 0.03167 0.82732 0.0
C536 C 0.80155 0.63472 0.61077 0.0
C537 C 0.83804 0.62138 0.59981 0.0
C538 C 0.79257 0.67791 0.61327 0.0
C539 C 0.82038 0.70894 0.60539 0.0
H540 H 0.78154 0.61178 0.61912 0.0
H541 H 0.7664 0.68686 0.62386 0.0
S542 S 0.91586 0.69079 0.57171 0.0
N543 N 0.89835 0.64275 0.57752 0.0
N544 N 0.88222 0.72391 0.58322 0.0
C545 C 0.85437 0.69609 0.59215 0.0
C546 C 0.86305 0.65218 0.5891 0.0
C547 C 0.06814 0.08613 0.32242 0.0
C548 C 0.11017 0.09695 0.32455 0.0
C549 C 0.04961 0.05755 0.33788 0.0
C550 C 0.07251 0.03928 0.35594 0.0
H551 H 0.04847 0.10295 0.31038 0.0
H552 H 0.01633 0.05415 0.33752 0.0
S553 S 0.18527 0.04691 0.36471 0.0
N554 N 0.17586 0.07858 0.34257 0.0
N555 N 0.14021 0.02655 0.37216 0.0
C556 C 0.11534 0.04483 0.35608 0.0
C557 C 0.13444 0.07329 0.34017 0.0
C558 C 0.69234 0.35643 0.11972 0.0
C559 C 0.65759 0.37111 0.10754 0.0
C560 C 0.69747 0.31315 0.12436 0.0
C561 C 0.66749 0.28358 0.11739 0.0
H562 H 0.71367 0.37878 0.12748 0.0
H563 H 0.7222 0.3036 0.13585 0.0
S564 S 0.57553 0.30456 0.08126 0.0
N565 N 0.59678 0.35164 0.08517 0.0
N566 N 0.60573 0.27056 0.09483 0.0
C567 C 0.63543 0.29716 0.10294 0.0
C568 C 0.63066 0.34103 0.09773 0.0
C569 C 0.42653 0.93199 0.85419 0.0
C570 C 0.41289 0.94165 0.87665 0.0
C571 C 0.40293 0.90587 0.83966 0.0
C572 C 0.3648 0.8892 0.84708 0.0
H573 H 0.4576 0.94024 0.84888 0.0
H574 H 0.41639 0.89568 0.82342 0.0
S575 S 0.31117 0.91559 0.90206 0.0
N576 N 0.35626 0.9398 0.904 0.0
N577 N 0.31079 0.89235 0.87645 0.0
C578 C 0.34831 0.9042 0.86813 0.0
C579 C 0.37275 0.93004 0.88304 0.0
C580 C 0.87818 0.34737 0.87226 0.0
C581 C 0.85561 0.38217 0.86395 0.0
C582 C 0.86408 0.30588 0.86864 0.0
C583 C 0.82641 0.29812 0.85734 0.0
H584 H 0.90867 0.35196 0.87956 0.0
H585 H 0.88415 0.27973 0.87313 0.0
S586 S 0.75263 0.37873 0.83618 0.0
N587 N 0.79172 0.40657 0.84654 0.0
N588 N 0.76444 0.32846 0.8406 0.0
C589 C 0.80152 0.33273 0.85134 0.0
C590 C 0.81638 0.37492 0.85441 0.0
C591 C 0.37366 0.05405 0.63901 0.0
C592 C 0.40213 0.07696 0.6526 0.0
C593 C 0.38708 0.02526 0.6222 0.0
C594 C 0.42942 0.01871 0.61831 0.0
H595 H 0.34107 0.06152 0.6396 0.0
H596 H 0.36449 0.01258 0.61022 0.0
S597 S 0.51495 0.05814 0.65533 0.0
N598 N 0.47341 0.08175 0.6656 0.0
N599 N 0.4986 0.02734 0.63412 0.0
C600 C 0.45735 0.03483 0.63484 0.0
C601 C 0.44372 0.06443 0.65191 0.0
C602 C 0.69273 0.66002 0.36563 0.0
C603 C 0.66766 0.69495 0.37086 0.0
C604 C 0.67873 0.61863 0.36969 0.0
C605 C 0.6397 0.61114 0.37956 0.0
H606 H 0.72092 0.66443 0.35582 0.0
H607 H 0.69694 0.59241 0.36324 0.0
S608 S 0.56655 0.69261 0.4006 0.0
N609 N 0.60509 0.71999 0.38927 0.0
N610 N 0.57937 0.64222 0.39789 0.0
C611 C 0.61698 0.64598 0.38768 0.0
C612 C 0.63084 0.68804 0.38305 0.0
C613 C 0.06026 0.93019 0.16499 0.0
C614 C 0.10035 0.91375 0.16273 0.0
C615 C 0.04802 0.96573 0.15217 0.0
C616 C 0.07532 0.98502 0.13631 0.0
H617 H 0.03685 0.91286 0.17449 0.0
H618 H 0.01551 0.97365 0.1521 0.0
S619 S 0.18772 0.96524 0.13203 0.0
N620 N 0.17053 0.92805 0.14971 0.0
N621 N 0.14711 0.99423 0.12524 0.0
C622 C 0.11734 0.97448 0.13787 0.0
C623 C 0.12992 0.93852 0.151 0.0
C624 C 0.63403 0.81082 0.88064 0.0
C625 C 0.63402 0.81983 0.85682 0.0
C626 C 0.61632 0.83909 0.89647 0.0
C627 C 0.59924 0.87768 0.889 0.0
H628 H 0.645 0.78047 0.88686 0.0
H629 H 0.61403 0.82972 0.91448 0.0
S630 S 0.59741 0.9182 0.82865 0.0
N631 N 0.61927 0.87112 0.82667 0.0
N632 N 0.58749 0.92518 0.85643 0.0
C633 C 0.60251 0.88853 0.86543 0.0
C634 C 0.61946 0.85926 0.84929 0.0
C635 C 0.45728 0.4633 0.12624 0.0
C636 C 0.48759 0.47033 0.14336 0.0
C637 C 0.42084 0.44119 0.13135 0.0
C638 C 0.41369 0.42531 0.1537 0.0
H639 H 0.46305 0.47188 0.10837 0.0
H640 H 0.40013 0.43317 0.11728 0.0
S641 S 0.47747 0.44483 0.20589 0.0
N642 N 0.50357 0.46715 0.18456 0.0
N643 N 0.43541 0.42495 0.19393 0.0
C644 C 0.44116 0.43652 0.17148 0.0
C645 C 0.47804 0.4593 0.16637 0.0
C646 C 0.89058 0.14246 0.40566 0.0
C647 C 0.89861 0.10151 0.39708 0.0
C648 C 0.86837 0.17192 0.3925 0.0
C649 C 0.85412 0.1614 0.3703 0.0
H650 H 0.90406 0.15279 0.42187 0.0
H651 H 0.86544 0.20408 0.39887 0.0
S652 S 0.86094 0.0571 0.34137 0.0
N653 N 0.88513 0.05049 0.36626 0.0
N654 N 0.84479 0.10669 0.34134 0.0
C655 C 0.85864 0.11978 0.36238 0.0
C656 C 0.88041 0.08946 0.37591 0.0
C657 C 0.04853 0.56497 0.67284 0.0
C658 C 0.07986 0.57545 0.657 0.0
C659 C 0.01393 0.54173 0.66594 0.0
C660 C 0.00918 0.52848 0.64284 0.0
H661 H 0.04925 0.57752 0.69031 0.0
H662 H 0.98935 0.5372 0.67841 0.0
S663 S 0.08718 0.53954 0.59605 0.0
N664 N 0.10764 0.56462 0.61839 0.0
N665 N 0.04249 0.52075 0.60522 0.0
C666 C 0.04269 0.53428 0.62756 0.0
C667 C 0.07815 0.55785 0.6347 0.0
C668 C 0.5878 0.14396 0.58711 0.0
C669 C 0.54497 0.14445 0.58299 0.0
C670 C 0.60637 0.17353 0.602 0.0
C671 C 0.58269 0.20418 0.61361 0.0
H672 H 0.607 0.1197 0.57941 0.0
H673 H 0.63924 0.17126 0.60514 0.0
S674 S 0.47025 0.22218 0.60709 0.0
N675 N 0.48004 0.18103 0.59038 0.0
N676 N 0.51497 0.23576 0.61854 0.0
C677 C 0.54025 0.20631 0.60888 0.0
C678 C 0.52141 0.17673 0.59349 0.0
C679 C 0.1032 0.42634 0.84478 0.0
C680 C 0.11062 0.4122 0.8221 0.0
C681 C 0.06892 0.45172 0.84978 0.0
C682 C 0.0411 0.46386 0.83223 0.0
H683 H 0.12159 0.41455 0.85905 0.0
H684 H 0.06247 0.45883 0.86776 0.0
S685 S 0.05417 0.44471 0.76922 0.0
N686 N 0.09275 0.41899 0.78144 0.0
N687 N 0.02866 0.46724 0.79066 0.0
C688 C 0.05153 0.45453 0.80912 0.0
C689 C 0.08622 0.42847 0.8041 0.0
C690 C 0.97526 0.83783 0.11211 0.0
C691 C 0.95063 0.86884 0.10136 0.0
C692 C 0.95769 0.80507 0.12507 0.0
C693 C 0.91472 0.80122 0.12745 0.0
H694 H 0.00861 0.83969 0.11136 0.0
H695 H 0.97811 0.78292 0.13363 0.0
S696 S 0.83621 0.87283 0.1019 0.0
N697 N 0.8808 0.89297 0.09345 0.0
N698 N 0.84765 0.83045 0.11739 0.0
C699 C 0.88951 0.83102 0.11613 0.0
C700 C 0.90749 0.86502 0.10321 0.0
C701 C 0.43015 0.54568 0.35413 0.0
C702 C 0.46016 0.53211 0.3381 0.0
C703 C 0.39631 0.57003 0.34705 0.0
C704 C 0.39152 0.58168 0.32374 0.0
H705 H 0.43425 0.54016 0.3725 0.0
H706 H 0.37577 0.58257 0.36015 0.0
S707 S 0.45528 0.54548 0.27428 0.0
N708 N 0.47822 0.52544 0.29732 0.0
N709 N 0.4149 0.57165 0.28416 0.0
C710 C 0.41864 0.5645 0.30728 0.0
C711 C 0.45289 0.53952 0.31442 0.0
C712 C 0.30477 0.15993 0.10953 0.0
C713 C 0.34132 0.14323 0.10017 0.0
C714 C 0.30021 0.20368 0.11284 0.0
C715 C 0.33261 0.2317 0.10751 0.0
H716 H 0.2812 0.13887 0.11626 0.0
H717 H 0.2735 0.21483 0.12233 0.0
S718 S 0.43088 0.20482 0.07845 0.0
N719 N 0.40718 0.15882 0.08179 0.0
N720 N 0.39927 0.24086 0.08911 0.0
C721 C 0.36703 0.21596 0.09563 0.0
C722 C 0.37124 0.17159 0.09167 0.0
C723 C 0.55159 0.56776 0.84806 0.0
C724 C 0.56992 0.55603 0.86914 0.0
C725 C 0.57271 0.59375 0.83228 0.0
C726 C 0.61296 0.60839 0.83702 0.0
H727 H 0.51924 0.56107 0.84497 0.0
H728 H 0.55602 0.60539 0.81734 0.0
S729 S 0.67776 0.5763 0.88712 0.0
N730 N 0.6325 0.5539 0.89203 0.0
N731 N 0.67314 0.60112 0.86209 0.0
C732 C 0.63349 0.59146 0.85647 0.0
C733 C 0.61165 0.56571 0.87267 0.0
C734 C 0.12434 0.79148 0.60703 0.0
C735 C 0.15687 0.7783 0.62137 0.0
C736 C 0.11719 0.83462 0.60301 0.0
C737 C 0.14154 0.86572 0.6139 0.0
H738 H 0.1022 0.76854 0.6006 0.0
H739 H 0.08994 0.84358 0.59332 0.0
S740 S 0.23426 0.84726 0.64993 0.0
N741 N 0.21715 0.79927 0.64362 0.0
N742 N 0.20262 0.88056 0.63688 0.0
C743 C 0.17643 0.85286 0.62641 0.0
C744 C 0.18444 0.80894 0.6299 0.0
C745 C 0.8838 0.41193 0.38476 0.0
C746 C 0.92204 0.42796 0.37735 0.0
C747 C 0.8603 0.38542 0.37046 0.0
C748 C 0.87487 0.37322 0.34848 0.0
H749 H 0.87391 0.41658 0.40251 0.0
H750 H 0.83277 0.37106 0.37769 0.0
S751 S 0.96871 0.41436 0.31928 0.0
N752 N 0.96981 0.43621 0.34526 0.0
N753 N 0.92609 0.38559 0.31842 0.0
C754 C 0.91051 0.39328 0.33985 0.0
C755 C 0.93401 0.42098 0.3543 0.0
C756 C 0.36095 0.80185 0.36323 0.0
C757 C 0.32626 0.79185 0.34971 0.0
C758 C 0.37365 0.84408 0.36611 0.0
C759 C 0.35278 0.87725 0.35484 0.0
H760 H 0.38035 0.77676 0.36994 0.0
H761 H 0.40229 0.85025 0.3752 0.0
S762 S 0.25704 0.86775 0.32019 0.0
N763 N 0.26837 0.8185 0.32748 0.0
N764 N 0.29306 0.8978 0.33211 0.0
C765 C 0.31608 0.86786 0.34298 0.0
C766 C 0.3026 0.82506 0.3406 0.0
C767 C 0.94356 0.53679 0.13507 0.0
C768 C 0.91805 0.52463 0.11644 0.0
C769 C 0.93008 0.56672 0.1513 0.0
C770 C 0.89052 0.5847 0.14959 0.0
H771 H 0.97585 0.52803 0.13534 0.0
H772 H 0.95237 0.57911 0.16354 0.0
S773 S 0.80682 0.54899 0.11024 0.0
N774 N 0.84789 0.52234 0.10169 0.0
N775 N 0.82209 0.5779 0.13249 0.0
C776 C 0.86233 0.56617 0.13401 0.0
C777 C 0.87618 0.53593 0.11742 0.0
C778 C 0.17474 0.17293 0.86008 0.0
C779 C 0.15135 0.20859 0.86632 0.0
C780 C 0.15918 0.13189 0.86339 0.0
C781 C 0.12037 0.12535 0.87366 0.0
H782 H 0.20305 0.17679 0.85031 0.0
H783 H 0.17641 0.10528 0.85657 0.0
S784 S 0.0503 0.20831 0.89618 0.0
N785 N 0.08967 0.23488 0.88518 0.0
N786 N 0.06128 0.15763 0.89258 0.0
C787 C 0.09884 0.1606 0.88224 0.0
C788 C 0.11416 0.20237 0.87827 0.0
C789 C 0.61214 0.44778 0.60678 0.0
C790 C 0.57297 0.46457 0.61171 0.0
C791 C 0.63165 0.42057 0.62244 0.0
C792 C 0.61234 0.40921 0.64341 0.0
H793 H 0.625 0.45079 0.58953 0.0
H794 H 0.65925 0.40437 0.61669 0.0
S795 S 0.51886 0.45934 0.66817 0.0
N796 N 0.52242 0.47911 0.64177 0.0
N797 N 0.55897 0.42767 0.67126 0.0
C798 C 0.57767 0.43273 0.65038 0.0
C799 C 0.55804 0.46082 0.63447 0.0
C800 C 0.28096 0.26355 0.22943 0.0
C801 C 0.26326 0.28676 0.21117 0.0
C802 C 0.25689 0.24762 0.2475 0.0
C803 C 0.21399 0.25401 0.24808 0.0
H804 H 0.31383 0.25752 0.22987 0.0
H805 H 0.27224 0.23007 0.26111 0.0
S806 S 0.15221 0.31247 0.20436 0.0
N807 N 0.20005 0.31524 0.19466 0.0
N808 N 0.1546 0.28527 0.22874 0.0
C809 C 0.1957 0.27706 0.2299 0.0
C810 C 0.22037 0.29354 0.21146 0.0
C811 C 0.01145 0.94687 0.51198 0.0
C812 C 0.04603 0.9627 0.52398 0.0
C813 C 0.00513 0.95672 0.48854 0.0
C814 C 0.03321 0.98267 0.47655 0.0
H815 H 0.98809 0.92866 0.52101 0.0
H816 H 0.97698 0.94615 0.48021 0.0
S817 S 0.13244 0.02487 0.49882 0.0
N818 N 0.11152 0.00027 0.52115 0.0
N819 N 0.09946 0.01888 0.4773 0.0
C820 C 0.06939 0.99579 0.48786 0.0
C821 C 0.07584 0.98579 0.51157 0.0
C822 C 0.25694 0.70821 0.72646 0.0
C823 C 0.21401 0.71425 0.72532 0.0
C824 C 0.27984 0.72282 0.74541 0.0
C825 C 0.26063 0.74372 0.76401 0.0
H826 H 0.27317 0.6925 0.7125 0.0
H827 H 0.31279 0.71719 0.74555 0.0
S828 S 0.1489 0.76762 0.76949 0.0
N829 N 0.15311 0.74263 0.74453 0.0
N830 N 0.19613 0.77011 0.78004 0.0
C831 C 0.2177 0.74998 0.76311 0.0
C832 C 0.19441 0.73523 0.74381 0.0
C833 C 0.47763 0.98121 0.02708 0.0
C834 C 0.46897 0.02426 0.03066 0.0
C835 C 0.49216 0.96671 0.00582 0.0
C836 C 0.49818 0.99453 0.98705 0.0
H837 H 0.47231 0.95819 0.04069 0.0
H838 H 0.49717 0.93295 0.00391 0.0
S839 S 0.48392 0.1112 0.98824 0.0
N840 N 0.47071 0.09541 0.01449 0.0
N841 N 0.49753 0.06796 0.97407 0.0
C842 C 0.49195 0.03815 -0.00924 0.0
C843 C 0.47741 0.05305 0.01268 0.0
C844 C 0.25096 0.7047 0.23473 0.0
C845 C 0.23613 0.69884 0.25735 0.0
C846 C 0.22517 0.71904 0.21711 0.0
C847 C 0.1834 0.72832 0.22133 0.0
H848 H 0.28319 0.69943 0.23068 0.0
H849 H 0.23863 0.72402 0.20015 0.0
S850 S 0.1283 0.71431 0.27718 0.0
N851 N 0.17629 0.7002 0.2828 0.0
N852 N 0.12749 0.7274 0.2495 0.0
C853 C 0.16745 0.72029 0.24358 0.0
C854 C 0.19389 0.70546 0.26163 0.0
C855 C 0.49891 0.973 0.45517 0.0
C856 C 0.46429 0.98442 0.44185 0.0
C857 C 0.50124 0.983 0.47884 0.0
C858 C 0.469 0.00471 0.48999 0.0
H859 H 0.52486 0.95713 0.44718 0.0
H860 H 0.52893 0.97462 0.48827 0.0
S861 S 0.36943 0.03708 0.46343 0.0
N862 N 0.39564 0.01545 0.44203 0.0
N863 N 0.39983 0.03402 0.48627 0.0
C864 C 0.43351 0.01472 0.47702 0.0
C865 C 0.43121 0.00466 0.45302 0.0
C866 C 0.2923 0.26777 0.76789 0.0
C867 C 0.25074 0.25486 0.76927 0.0
C868 C 0.31834 0.25228 0.75045 0.0
C869 C 0.30361 0.22353 0.73379 0.0
H870 H 0.30464 0.29067 0.78004 0.0
H871 H 0.34969 0.26414 0.74952 0.0
S872 S 0.199 0.17571 0.73129 0.0
N873 N 0.19732 0.20852 0.75349 0.0
N874 N 0.2462 0.17981 0.72087 0.0
C875 C 0.26276 0.20895 0.73556 0.0
C876 C 0.23632 0.22453 0.75325 0.0
C877 C 0.04559 0.00819 0.97317 0.0
C878 C 0.01374 0.032 0.96308 0.0
C879 C 0.04621 -0.00017 -0.00318 0.0
C880 C 0.01488 0.01468 0.01156 0.0
H881 H 0.07031 0.99534 0.96269 0.0
H882 H 0.0713 0.98074 0.00346 0.0
S883 S 0.92555 0.08074 -0.00591 0.0
N884 N 0.95094 0.07231 0.96973 0.0
N885 N 0.95191 0.05622 0.01455 0.0
C886 C 0.98349 0.03993 0.00194 0.0
C887 C 0.98296 0.04865 0.97762 0.0
C888 C 0.71694 0.78124 0.71177 0.0
C889 C 0.75983 0.77487 0.71035 0.0
C890 C 0.69453 0.76846 0.73131 0.0
C891 C 0.71416 0.74912 0.75029 0.0
H892 H 0.70039 0.79592 0.6976 0.0
H893 H 0.66162 0.77432 0.73163 0.0
S894 S 0.82597 0.725 0.75527 0.0
N895 N 0.82111 0.74775 0.72971 0.0
N896 N 0.77907 0.72377 0.76633 0.0
C897 C 0.75705 0.74249 0.7491 0.0
C898 C 0.77984 0.75535 0.72918 0.0
C899 C 0.76227 0.20476 0.22622 0.0
C900 C 0.71996 0.21435 0.2251 0.0
C901 C 0.78567 0.21476 0.24587 0.0
C902 C 0.76757 0.23436 0.26524 0.0
H903 H 0.77766 0.18985 0.21171 0.0
H904 H 0.81814 0.20672 0.2459 0.0
S905 S 0.65771 0.26582 0.27121 0.0
N906 N 0.66078 0.24439 0.24522 0.0
N907 N 0.70469 0.26309 0.28207 0.0
C908 C 0.72521 0.24394 0.26441 0.0
C909 C 0.70144 0.23396 0.24437 0.0
C910 C 0.69864 0.2192 0.75971 0.0
C911 C 0.7419 0.21613 0.75859 0.0
C912 C 0.6755 0.23182 0.7404 0.0
C913 C 0.6947 0.24162 0.71918 0.0
H914 H 0.68253 0.21286 0.77577 0.0
H915 H 0.64236 0.23443 0.74226 0.0
S916 S 0.80711 0.23559 0.70671 0.0
N917 N 0.80288 0.22171 0.73414 0.0
N918 N 0.75965 0.24537 0.69798 0.0
C919 C 0.7379 0.23739 0.71765 0.0
C920 C 0.7614 0.22467 0.7373 0.0
C921 C 0.7388 0.74403 0.24742 0.0
C922 C 0.75559 0.76074 0.26793 0.0
C923 C 0.7638 0.73416 0.22853 0.0
C924 C 0.80678 0.74022 0.22935 0.0
H925 H 0.70592 0.73853 0.24581 0.0
H926 H 0.74915 0.72124 0.2132 0.0
S927 S 0.86634 0.78376 0.27887 0.0
N928 N 0.81802 0.78351 0.28791 0.0
N929 N 0.86521 0.7646 0.25227 0.0
C930 C 0.82417 0.75699 0.24971 0.0
C931 C 0.79854 0.7674 0.26901 0.0
C932 C 0.53529 0.44909 0.01042 0.0
C933 C 0.5324 0.47618 0.02971 0.0
C934 C 0.52037 0.4618 0.98865 0.0
C935 C 0.50208 0.50181 0.98573 0.0
H936 H 0.55107 0.41898 0.01186 0.0
H937 H 0.5254 0.44139 0.97384 0.0
S938 S 0.47949 0.58021 0.03187 0.0
N939 N 0.50443 0.54176 0.0452 0.0
N940 N 0.47634 0.56545 0.00451 0.0
C941 C 0.49599 0.52743 0.00533 0.0
C942 C 0.51122 0.51468 0.02729 0.0
C943 C 0.01082 0.46462 0.50582 0.0
C944 C 0.00958 0.49052 0.48601 0.0
C945 C -0.00469 0.47863 0.52695 0.0
C946 C 0.97837 0.51929 0.52922 0.0
H947 H 0.02194 0.43231 0.50478 0.0
H948 H -0.00475 0.45677 0.54143 0.0
S949 S 0.97325 0.60185 0.48368 0.0
N950 N 0.99404 0.56051 0.4706 0.0
N951 N 0.9653 0.5872 0.51079 0.0
C952 C 0.98015 0.547 0.5102 0.0
C953 C -0.00426 0.53253 0.48845 0.0
C954 C 0.98647 0.45745 0.98775 0.0
C955 C 0.99364 0.4999 -0.00611 0.0
C956 C 0.98088 0.44601 0.96443 0.0
C957 C 0.98241 0.47679 0.94676 0.0
H958 H 0.98267 0.43355 0.00105 0.0
H959 H 0.97314 0.41343 0.96039 0.0
S960 S 0.00846 0.59068 0.95403 0.0
N961 N 0.00755 0.5715 0.98061 0.0
N962 N -0.00225 0.55022 0.93693 0.0
C963 C 0.99297 0.51864 0.95274 0.0
C964 C -0.00161 0.53015 0.97631 0.0
C965 C 0.4991 0.54774 0.47244 0.0
C966 C 0.49555 0.51925 0.45379 0.0
C967 C 0.48823 0.53526 0.49499 0.0
C968 C 0.47348 0.49408 0.49932 0.0
H969 H 0.51298 0.57865 0.46989 0.0
H970 H 0.49441 0.55669 0.50923 0.0
S971 S 0.44976 0.41145 0.45567 0.0
N972 N 0.46975 0.45093 0.4406 0.0
N973 N 0.44953 0.4276 0.48285 0.0
C974 C 0.46598 0.46705 0.48049 0.0
C975 C 0.47701 0.47961 0.45771 0.0
C976 C 0.31677 0.14649 0.35267 0.0
C977 C 0.31863 0.17125 0.33241 0.0
C978 C 0.34427 0.11299 0.3563 0.0
C979 C 0.37399 0.10269 0.33954 0.0
H980 H 0.29234 0.15146 0.36519 0.0
H981 H 0.34004 0.09305 0.37139 0.0
S982 S 0.39607 0.16178 0.28542 0.0
N983 N 0.35628 0.18665 0.29693 0.0
N984 N 0.40744 0.12305 0.30354 0.0
C985 C 0.37849 0.12937 0.32021 0.0
C986 C 0.35095 0.16393 0.3167 0.0
C987 C 0.18245 0.09289 0.60142 0.0
C988 C 0.15216 0.09061 0.6188 0.0
C989 C 0.21613 0.1206 0.60355 0.0
C990 C 0.22036 0.14696 0.62307 0.0
H991 H 0.182 0.07078 0.58707 0.0
H992 H 0.24039 0.11895 0.59068 0.0
S993 S 0.14363 0.1602 0.67027 0.0
N994 N 0.12449 0.12206 0.65388 0.0
N995 N 0.18723 0.1747 0.65776 0.0
C996 C 0.18769 0.14835 0.63913 0.0
C997 C 0.15372 0.11995 0.63704 0.0
C998 C 0.17617 0.86693 0.88974 0.0
C999 C 0.17875 0.83739 0.87151 0.0
C1000 C 0.14521 0.89791 0.89005 0.0
C1001 C 0.11613 0.90048 0.87206 0.0
H1002 H 0.19979 0.86814 0.90299 0.0
H1003 H 0.14609 0.92191 0.90346 0.0
S1004 S 0.10353 0.82501 0.82342 0.0
N1005 N 0.1448 0.80815 0.83738 0.0
N1006 N 0.08745 0.86708 0.83777 0.0
C1007 C 0.11587 0.86872 0.85507 0.0
C1008 C 0.14695 0.83691 0.85487 0.0
C1009 C 0.26015 0.88107 0.1001 0.0
C1010 C 0.25882 0.85269 0.11894 0.0
C1011 C 0.29098 0.91221 0.09849 0.0
C1012 C 0.3211 0.91619 0.11581 0.0
H1013 H 0.23588 0.88095 0.0872 0.0
H1014 H 0.2894 0.93517 0.08457 0.0
S1015 S 0.33627 0.8455 0.16626 0.0
N1016 N 0.29454 0.82692 0.15335 0.0
N1017 N 0.35143 0.88634 0.15053 0.0
C1018 C 0.32226 0.88605 0.13361 0.0
C1019 C 0.29143 0.85394 0.13509 0.0
C1020 C 0.67563 0.90286 0.58057 0.0
C1021 C 0.68693 0.89417 0.60363 0.0
C1022 C 0.64177 0.92887 0.5754 0.0
C1023 C 0.61824 0.94772 0.59309 0.0
H1024 H 0.69312 0.88961 0.56634 0.0
H1025 H 0.63452 0.93488 0.55739 0.0
S1026 S 0.63392 0.93415 0.65634 0.0
N1027 N 0.67088 0.90577 0.64435 0.0
N1028 N 0.60776 0.9548 0.63461 0.0
C1029 C 0.62886 0.93893 0.61621 0.0
C1030 C 0.66301 0.91211 0.62148 0.0
C1031 C 0.89438 0.87302 0.38481 0.0
C1032 C 0.90136 0.90851 0.37046 0.0
C1033 C 0.86176 0.84472 0.38047 0.0
C1034 C 0.83452 0.8514 0.36192 0.0
H1035 H 0.91383 0.86737 0.39973 0.0
H1036 H 0.85709 0.81823 0.39212 0.0
S1037 S 0.84123 0.93687 0.31792 0.0
N1038 N 0.87976 0.94657 0.33583 0.0
N1039 N 0.81829 0.894 0.32808 0.0
C1040 C 0.84188 0.88584 0.34703 0.0
C1041 C 0.87536 0.91421 0.35118 0.0
C1042 C 0.84056 0.12816 0.11619 0.0
C1043 C 0.80669 0.11382 0.1293 0.0
C1044 C 0.87279 0.10075 0.11008 0.0
C1045 C 0.87273 0.05803 0.11711 0.0
H1046 H 0.8422 0.16081 0.11046 0.0
H1047 H 0.89816 0.11334 0.09998 0.0
S1048 S 0.79115 0.0044 0.15155 0.0
N1049 N 0.77498 0.05372 0.14897 0.0
N1050 N 0.83558 0.00248 0.13766 0.0
C1051 C 0.83906 0.04322 0.13022 0.0
C1052 C 0.80605 0.07101 0.13625 0.0
C1053 C 0.60173 0.06246 0.84349 0.0
C1054 C 0.59013 0.06794 0.86677 0.0
C1055 C 0.63487 0.0849 0.83392 0.0
C1056 C 0.65789 0.11402 0.84714 0.0
H1057 H 0.58605 0.03953 0.83263 0.0
H1058 H 0.64302 0.07848 0.81608 0.0
S1059 S 0.63771 0.14341 0.90836 0.0
N1060 N 0.60246 0.10715 0.90242 0.0
N1061 N 0.66479 0.14948 0.88437 0.0
C1062 C 0.64543 0.12148 0.87014 0.0
C1063 C 0.61159 0.09844 0.87996 0.0
C1064 C 0.80352 0.63648 0.87753 0.0
C1065 C 0.8002 0.66593 0.8593 0.0
C1066 C 0.83533 0.60645 0.87783 0.0
C1067 C 0.86452 0.60485 0.85986 0.0
H1068 H 0.77973 0.63435 0.89064 0.0
H1069 H 0.8349 0.58218 0.89111 0.0
S1070 S 0.87551 0.68122 0.81154 0.0
N1071 N 0.83366 0.6967 0.82543 0.0
N1072 N 0.89266 0.63948 0.82581 0.0
C1073 C 0.86417 0.63686 0.84302 0.0
C1074 C 0.83221 0.6677 0.84283 0.0
C1075 C 0.73069 0.63321 0.098 0.0
C1076 C 0.73175 0.66266 0.11635 0.0
C1077 C 0.69952 0.60237 0.09665 0.0
C1078 C 0.66869 0.60002 0.11368 0.0
H1079 H 0.75575 0.6317 0.08562 0.0
H1080 H 0.70166 0.57813 0.08343 0.0
S1081 S 0.65143 0.6757 0.16169 0.0
N1082 N 0.69422 0.69242 0.14912 0.0
N1083 N 0.63659 0.63364 0.14684 0.0
C1084 C 0.66674 0.63195 0.1305 0.0
C1085 C 0.69799 0.66365 0.13172 0.0
C1086 C 0.66155 0.32617 0.35567 0.0
C1087 C 0.6898 0.32279 0.37412 0.0
C1088 C 0.63165 0.35795 0.35536 0.0
C1089 C 0.62823 0.38697 0.37367 0.0
H1090 H 0.6644 0.30631 0.34046 0.0
H1091 H 0.61276 0.36142 0.34 0.0
S1092 S 0.68809 0.3859 0.42836 0.0
N1093 N 0.70778 0.34681 0.41291 0.0
N1094 N 0.65084 0.40632 0.41239 0.0
C1095 C 0.65279 0.38088 0.39344 0.0
C1096 C 0.68378 0.34876 0.39366 0.0
C1097 C 0.80511 0.39145 0.59032 0.0
C1098 C 0.83459 0.39404 0.60807 0.0
C1099 C 0.77418 0.36031 0.5909 0.0
C1100 C 0.7721 0.33072 0.60916 0.0
H1101 H 0.80369 0.41577 0.57711 0.0
H1102 H 0.74999 0.36168 0.57798 0.0
S1103 S 0.84921 0.31821 0.65628 0.0
N1104 N 0.86462 0.36059 0.64189 0.0
N1105 N 0.80761 0.30105 0.64268 0.0
C1106 C 0.80479 0.32991 0.62527 0.0
C1107 C 0.83571 0.36201 0.62485 0.0
C1108 C 0.12199 0.41181 0.09809 0.0
C1109 C 0.12325 0.4553 0.10345 0.0
C1110 C 0.15343 0.3843 0.1053 0.0
C1111 C 0.18771 0.3993 0.11786 0.0
H1112 H 0.09625 0.39873 0.08847 0.0
H1113 H 0.15087 0.35104 0.10087 0.0
S1114 S 0.20634 0.51089 0.13574 0.0
N1115 N 0.16195 0.51227 0.12179 0.0
N1116 N 0.22113 0.46089 0.13513 0.0
C1117 C 0.18957 0.44289 0.12311 0.0
C1118 C 0.15732 0.47077 0.11599 0.0
C1119 C 0.35327 0.43644 0.86069 0.0
C1120 C 0.38642 0.4259 0.87529 0.0
C1121 C 0.32282 0.40673 0.85502 0.0
C1122 C 0.32442 0.36486 0.86338 0.0
H1123 H 0.35022 0.46826 0.85386 0.0
H1124 H 0.29792 0.41675 0.84378 0.0
S1125 S 0.40539 0.32051 0.90174 0.0
N1126 N 0.41938 0.37039 0.89786 0.0
N1127 N 0.3624 0.3141 0.88677 0.0
C1128 C 0.35774 0.35353 0.87772 0.0
C1129 C 0.38859 0.38414 0.8838 0.0
C1130 C 0.34293 0.55055 0.63151 0.0
C1131 C 0.37093 0.56132 0.61384 0.0
C1132 C 0.3105 0.57759 0.63759 0.0
C1133 C 0.30493 0.61688 0.62649 0.0
H1134 H 0.34543 0.52049 0.64047 0.0
H1135 H 0.28961 0.56746 0.65115 0.0
S1136 S 0.37083 0.66106 0.57971 0.0
N1137 N 0.39165 0.61461 0.58567 0.0
N1138 N 0.33096 0.66574 0.5973 0.0
C1139 C 0.33325 0.62857 0.60912 0.0
C1140 C 0.36611 0.60073 0.60274 0.0
C1141 C 0.1422 0.54861 0.35671 0.0
C1142 C 0.10844 0.56031 0.37058 0.0
C1143 C 0.17251 0.57807 0.35045 0.0
C1144 C 0.16998 0.62073 0.35738 0.0
H1145 H 0.14584 0.51613 0.351 0.0
H1146 H 0.19795 0.56729 0.33982 0.0
S1147 S 0.08716 0.66805 0.39329 0.0
N1148 N 0.07398 0.61761 0.39097 0.0
N1149 N 0.13055 0.67348 0.37856 0.0
C1150 C 0.13603 0.63317 0.37091 0.0
C1151 C 0.10543 0.60284 0.37771 0.0
loop_
_geom_bond_atom_site_label_1
_geom_bond_atom_site_label_2
_geom_bond_distance
_geom_bond_site_symmetry_2
_ccdc_geom_bond_type
Zn0 O3 2.031 . S
Zn0 O5 2.049 . S
Zn0 O10 2.067 . S
Zn1 O2 1.962 . S
Zn1 O4 1.986 . S
Zn1 O6 1.996 . S
Zn1 O9 1.943 . S
O2 Zn1 1.962 . S
O2 C7 1.254 . S
O3 Zn0 2.031 . S
O3 C7 1.269 . S
O4 Zn1 1.986 . S
O4 C11 1.262 . S
O5 Zn0 2.049 . S
O5 C13 1.260 . S
O6 Zn1 1.996 . S
O6 C13 1.257 . S
C7 O2 1.254 . S
C7 O3 1.269 . S
C8 O9 1.249 . S
C8 O10 1.270 . S
O9 Zn1 1.943 . S
O9 C8 1.249 . S
O10 Zn0 2.067 . S
O10 C8 1.270 . S
C11 O4 1.262 . S
C11 O12 1.232 . S
O12 C11 1.232 . S
C13 O5 1.260 . S
C13 O6 1.257 . S
Zn14 O17 2.031 . S
Zn14 O19 2.049 1_565 S
Zn14 O24 2.067 . S
Zn15 O16 1.962 1_455 S
Zn15 O18 1.986 1_565 S
Zn15 O20 1.996 1_565 S
Zn15 O23 1.943 . S
O16 Zn15 1.962 1_655 S
O16 C21 1.254 . S
O17 Zn14 2.031 . S
O17 C21 1.269 1_455 S
O18 Zn15 1.986 1_545 S
O18 C25 1.262 1_545 S
O19 Zn14 2.049 1_545 S
O19 C27 1.260 . S
O20 Zn15 1.996 1_545 S
O20 C27 1.257 . S
C21 O16 1.254 . S
C21 O17 1.269 1_655 S
C22 O23 1.249 . S
C22 O24 1.270 . S
O23 Zn15 1.943 . S
O23 C22 1.249 . S
O24 Zn14 2.067 . S
O24 C22 1.270 . S
C25 O18 1.262 1_565 S
C25 O26 1.232 . S
O26 C25 1.232 . S
C27 O19 1.260 . S
C27 O20 1.257 . S
Zn28 O31 2.031 . S
Zn28 O33 2.049 . S
Zn28 O38 2.067 . S
Zn29 O30 1.962 . S
Zn29 O32 1.986 . S
Zn29 O34 1.996 . S
Zn29 O37 1.943 . S
O30 Zn29 1.962 . S
O30 C35 1.254 . S
O31 Zn28 2.031 . S
O31 C35 1.269 . S
O32 Zn29 1.986 . S
O32 C39 1.262 . S
O33 Zn28 2.049 . S
O33 C41 1.260 . S
O34 Zn29 1.996 . S
O34 C41 1.257 . S
C35 O30 1.254 . S
C35 O31 1.269 . S
C36 O37 1.249 . S
C36 O38 1.270 . S
O37 Zn29 1.943 . S
O37 C36 1.249 . S
O38 Zn28 2.067 . S
O38 C36 1.270 . S
C39 O32 1.262 . S
C39 O40 1.232 . S
O40 C39 1.232 . S
C41 O33 1.260 . S
C41 O34 1.257 . S
Zn42 O45 2.031 . S
Zn42 O47 2.049 1_545 S
Zn42 O52 2.067 . S
Zn43 O44 1.962 . S
Zn43 O46 1.986 1_545 S
Zn43 O48 1.996 1_545 S
Zn43 O51 1.943 . S
O44 Zn43 1.962 . S
O44 C49 1.254 . S
O45 Zn42 2.031 . S
O45 C49 1.269 . S
O46 Zn43 1.986 1_565 S
O46 C53 1.262 1_565 S
O47 Zn42 2.049 1_565 S
O47 C55 1.260 . S
O48 Zn43 1.996 1_565 S
O48 C55 1.257 . S
C49 O44 1.254 . S
C49 O45 1.269 . S
C50 O51 1.249 . S
C50 O52 1.270 . S
O51 Zn43 1.943 . S
O51 C50 1.249 . S
O52 Zn42 2.067 . S
O52 C50 1.270 . S
C53 O46 1.262 1_545 S
C53 O54 1.232 . S
O54 C53 1.232 . S
C55 O47 1.260 . S
C55 O48 1.257 . S
Zn56 O59 2.031 . S
Zn56 O61 2.049 . S
Zn56 O66 2.067 . S
Zn57 O58 1.962 . S
Zn57 O60 1.986 . S
Zn57 O62 1.996 . S
Zn57 O65 1.943 . S
O58 Zn57 1.962 . S
O58 C63 1.254 . S
O59 Zn56 2.031 . S
O59 C63 1.269 . S
O60 Zn57 1.986 . S
O60 C67 1.262 . S
O61 Zn56 2.049 . S
O61 C69 1.260 . S
O62 Zn57 1.996 . S
O62 C69 1.257 . S
C63 O58 1.254 . S
C63 O59 1.269 . S
C64 O65 1.249 . S
C64 O66 1.270 . S
O65 Zn57 1.943 . S
O65 C64 1.249 . S
O66 Zn56 2.067 . S
O66 C64 1.270 . S
C67 O60 1.262 . S
C67 O68 1.232 . S
O68 C67 1.232 . S
C69 O61 1.260 . S
C69 O62 1.257 . S
Zn70 O73 2.031 . S
Zn70 O75 2.049 1_565 S
Zn70 O80 2.067 . S
Zn71 O72 1.962 . S
Zn71 O74 1.986 1_565 S
Zn71 O76 1.996 1_565 S
Zn71 O79 1.943 . S
O72 Zn71 1.962 . S
O72 C77 1.254 . S
O73 Zn70 2.031 . S
O73 C77 1.269 . S
O74 Zn71 1.986 1_545 S
O74 C81 1.262 1_545 S
O75 Zn70 2.049 1_545 S
O75 C83 1.260 . S
O76 Zn71 1.996 1_545 S
O76 C83 1.257 . S
C77 O72 1.254 . S
C77 O73 1.269 . S
C78 O79 1.249 . S
C78 O80 1.270 . S
O79 Zn71 1.943 . S
O79 C78 1.249 . S
O80 Zn70 2.067 . S
O80 C78 1.270 . S
C81 O74 1.262 1_565 S
C81 O82 1.232 . S
O82 C81 1.232 . S
C83 O75 1.260 . S
C83 O76 1.257 . S
Zn84 O87 2.031 . S
Zn84 O89 2.049 . S
Zn84 O94 2.067 . S
Zn85 O86 1.962 . S
Zn85 O88 1.986 . S
Zn85 O90 1.996 . S
Zn85 O93 1.943 . S
O86 Zn85 1.962 . S
O86 C91 1.254 . S
O87 Zn84 2.031 . S
O87 C91 1.269 . S
O88 Zn85 1.986 . S
O88 C95 1.262 . S
O89 Zn84 2.049 . S
O89 C97 1.260 . S
O90 Zn85 1.996 . S
O90 C97 1.257 . S
C91 O86 1.254 . S
C91 O87 1.269 . S
C92 O93 1.249 . S
C92 O94 1.270 . S
O93 Zn85 1.943 . S
O93 C92 1.249 . S
O94 Zn84 2.067 . S
O94 C92 1.270 . S
C95 O88 1.262 . S
C95 O96 1.232 . S
O96 C95 1.232 . S
C97 O89 1.260 . S
C97 O90 1.257 . S
Zn98 O101 2.031 . S
Zn98 O103 2.049 1_545 S
Zn98 O108 2.067 . S
Zn99 O100 1.962 1_455 S
Zn99 O102 1.986 1_545 S
Zn99 O104 1.996 1_545 S
Zn99 O107 1.943 . S
O100 Zn99 1.962 1_655 S
O100 C105 1.254 . S
O101 Zn98 2.031 . S
O101 C105 1.269 1_455 S
O102 Zn99 1.986 1_565 S
O102 C109 1.262 1_565 S
O103 Zn98 2.049 1_565 S
O103 C111 1.260 . S
O104 Zn99 1.996 1_565 S
O104 C111 1.257 . S
C105 O100 1.254 . S
C105 O101 1.269 1_655 S
C106 O107 1.249 . S
C106 O108 1.270 . S
O107 Zn99 1.943 . S
O107 C106 1.249 . S
O108 Zn98 2.067 . S
O108 C106 1.270 . S
C109 O102 1.262 1_545 S
C109 O110 1.232 . S
O110 C109 1.232 . S
C111 O103 1.260 . S
C111 O104 1.257 . S
Zn112 O115 2.031 . S
Zn112 O117 2.049 . S
Zn112 O122 2.067 . S
Zn113 O114 1.962 . S
Zn113 O116 1.986 . S
Zn113 O118 1.996 . S
Zn113 O121 1.943 . S
O114 Zn113 1.962 . S
O114 C119 1.254 . S
O115 Zn112 2.031 . S
O115 C119 1.269 . S
O116 Zn113 1.986 . S
O116 C123 1.262 . S
O117 Zn112 2.049 . S
O117 C125 1.260 . S
O118 Zn113 1.996 . S
O118 C125 1.257 . S
C119 O114 1.254 . S
C119 O115 1.269 . S
C120 O121 1.249 . S
C120 O122 1.270 . S
O121 Zn113 1.943 . S
O121 C120 1.249 . S
O122 Zn112 2.067 . S
O122 C120 1.270 . S
C123 O116 1.262 . S
C123 O124 1.232 . S
O124 C123 1.232 . S
C125 O117 1.260 . S
C125 O118 1.257 . S
Zn126 O129 2.031 . S
Zn126 O131 2.049 . S
Zn126 O136 2.067 1_655 S
Zn127 O128 1.962 . S
Zn127 O130 1.986 1_545 S
Zn127 O132 1.996 . S
Zn127 O135 1.943 . S
O128 Zn127 1.962 . S
O128 C133 1.254 . S
O129 Zn126 2.031 . S
O129 C133 1.269 . S
O130 Zn127 1.986 1_565 S
O130 C137 1.262 . S
O131 Zn126 2.049 . S
O131 C139 1.260 . S
O132 Zn127 1.996 . S
O132 C139 1.257 . S
C133 O128 1.254 . S
C133 O129 1.269 . S
C134 O135 1.249 1_455 S
C134 O136 1.270 . S
O135 Zn127 1.943 . S
O135 C134 1.249 1_655 S
O136 Zn126 2.067 1_455 S
O136 C134 1.270 . S
C137 O130 1.262 . S
C137 O138 1.232 . S
O138 C137 1.232 . S
C139 O131 1.260 . S
C139 O132 1.257 . S
Zn140 O143 2.031 . S
Zn140 O145 2.049 . S
Zn140 O150 2.067 . S
Zn141 O142 1.962 . S
Zn141 O144 1.986 . S
Zn141 O146 1.996 . S
Zn141 O149 1.943 . S
O142 Zn141 1.962 . S
O142 C147 1.254 . S
O143 Zn140 2.031 . S
O143 C147 1.269 . S
O144 Zn141 1.986 . S
O144 C151 1.262 . S
O145 Zn140 2.049 . S
O145 C153 1.260 . S
O146 Zn141 1.996 . S
O146 C153 1.257 . S
C147 O142 1.254 . S
C147 O143 1.269 . S
C148 O149 1.249 . S
C148 O150 1.270 . S
O149 Zn141 1.943 . S
O149 C148 1.249 . S
O150 Zn140 2.067 . S
O150 C148 1.270 . S
C151 O144 1.262 . S
C151 O152 1.232 . S
O152 C151 1.232 . S
C153 O145 1.260 . S
C153 O146 1.257 . S
Zn154 O157 2.031 . S
Zn154 O159 2.049 . S
Zn154 O164 2.067 . S
Zn155 O156 1.962 . S
Zn155 O158 1.986 1_565 S
Zn155 O160 1.996 . S
Zn155 O163 1.943 . S
O156 Zn155 1.962 . S
O156 C161 1.254 . S
O157 Zn154 2.031 . S
O157 C161 1.269 . S
O158 Zn155 1.986 1_545 S
O158 C165 1.262 . S
O159 Zn154 2.049 . S
O159 C167 1.260 . S
O160 Zn155 1.996 . S
O160 C167 1.257 . S
C161 O156 1.254 . S
C161 O157 1.269 . S
C162 O163 1.249 . S
C162 O164 1.270 . S
O163 Zn155 1.943 . S
O163 C162 1.249 . S
O164 Zn154 2.067 . S
O164 C162 1.270 . S
C165 O158 1.262 . S
C165 O166 1.232 . S
O166 C165 1.232 . S
C167 O159 1.260 . S
C167 O160 1.257 . S
Zn168 O171 2.031 . S
Zn168 O173 2.049 . S
Zn168 O178 2.067 . S
Zn169 O170 1.962 . S
Zn169 O172 1.986 . S
Zn169 O174 1.996 . S
Zn169 O177 1.943 . S
O170 Zn169 1.962 . S
O170 C175 1.254 . S
O171 Zn168 2.031 . S
O171 C175 1.269 . S
O172 Zn169 1.986 . S
O172 C179 1.262 . S
O173 Zn168 2.049 . S
O173 C181 1.260 . S
O174 Zn169 1.996 . S
O174 C181 1.257 . S
C175 O170 1.254 . S
C175 O171 1.269 . S
C176 O177 1.249 . S
C176 O178 1.270 . S
O177 Zn169 1.943 . S
O177 C176 1.249 . S
O178 Zn168 2.067 . S
O178 C176 1.270 . S
C179 O172 1.262 . S
C179 O180 1.232 . S
O180 C179 1.232 . S
C181 O173 1.260 . S
C181 O174 1.257 . S
Zn182 O185 2.031 . S
Zn182 O187 2.049 . S
Zn182 O192 2.067 . S
Zn183 O184 1.962 . S
Zn183 O186 1.986 1_545 S
Zn183 O188 1.996 . S
Zn183 O191 1.943 . S
O184 Zn183 1.962 . S
O184 C189 1.254 . S
O185 Zn182 2.031 . S
O185 C189 1.269 . S
O186 Zn183 1.986 1_565 S
O186 C193 1.262 . S
O187 Zn182 2.049 . S
O187 C195 1.260 . S
O188 Zn183 1.996 . S
O188 C195 1.257 . S
C189 O184 1.254 . S
C189 O185 1.269 . S
C190 O191 1.249 . S
C190 O192 1.270 . S
O191 Zn183 1.943 . S
O191 C190 1.249 . S
O192 Zn182 2.067 . S
O192 C190 1.270 . S
C193 O186 1.262 . S
C193 O194 1.232 . S
O194 C193 1.232 . S
C195 O187 1.260 . S
C195 O188 1.257 . S
Zn196 O199 2.031 . S
Zn196 O201 2.049 . S
Zn196 O206 2.067 . S
Zn197 O198 1.962 . S
Zn197 O200 1.986 . S
Zn197 O202 1.996 . S
Zn197 O205 1.943 . S
O198 Zn197 1.962 . S
O198 C203 1.254 . S
O199 Zn196 2.031 . S
O199 C203 1.269 . S
O200 Zn197 1.986 . S
O200 C207 1.262 . S
O201 Zn196 2.049 . S
O201 C209 1.260 . S
O202 Zn197 1.996 . S
O202 C209 1.257 . S
C203 O198 1.254 . S
C203 O199 1.269 . S
C204 O205 1.249 . S
C204 O206 1.270 . S
O205 Zn197 1.943 . S
O205 C204 1.249 . S
O206 Zn196 2.067 . S
O206 C204 1.270 . S
C207 O200 1.262 . S
C207 O208 1.232 . S
O208 C207 1.232 . S
C209 O201 1.260 . S
C209 O202 1.257 . S
Zn210 O213 2.031 . S
Zn210 O215 2.049 . S
Zn210 O220 2.067 1_655 S
Zn211 O212 1.962 . S
Zn211 O214 1.986 1_565 S
Zn211 O216 1.996 . S
Zn211 O219 1.943 . S
O212 Zn211 1.962 . S
O212 C217 1.254 . S
O213 Zn210 2.031 . S
O213 C217 1.269 . S
O214 Zn211 1.986 1_545 S
O214 C221 1.262 . S
O215 Zn210 2.049 . S
O215 C223 1.260 . S
O216 Zn211 1.996 . S
O216 C223 1.257 . S
C217 O212 1.254 . S
C217 O213 1.269 . S
C218 O219 1.249 1_455 S
C218 O220 1.270 . S
O219 Zn211 1.943 . S
O219 C218 1.249 1_655 S
O220 Zn210 2.067 1_455 S
O220 C218 1.270 . S
C221 O214 1.262 . S
C221 O222 1.232 . S
O222 C221 1.232 . S
C223 O215 1.260 . S
C223 O216 1.257 . S
Zn224 O227 2.031 . S
Zn224 O229 2.049 . S
Zn224 O234 2.067 . S
Zn225 O226 1.962 . S
Zn225 O228 1.986 . S
Zn225 O230 1.996 . S
Zn225 O233 1.943 . S
O226 Zn225 1.962 . S
O226 C231 1.254 . S
O227 Zn224 2.031 . S
O227 C231 1.269 . S
O228 Zn225 1.986 . S
O228 C235 1.262 . S
O229 Zn224 2.049 . S
O229 C237 1.260 . S
O230 Zn225 1.996 . S
O230 C237 1.257 . S
C231 O226 1.254 . S
C231 O227 1.269 . S
C232 O233 1.249 . S
C232 O234 1.270 . S
O233 Zn225 1.943 . S
O233 C232 1.249 . S
O234 Zn224 2.067 . S
O234 C232 1.270 . S
C235 O228 1.262 . S
C235 O236 1.232 . S
O236 C235 1.232 . S
C237 O229 1.260 . S
C237 O230 1.257 . S
Zn238 O241 2.031 . S
Zn238 O243 2.049 . S
Zn238 O248 2.067 . S
Zn239 O240 1.962 . S
Zn239 O242 1.986 . S
Zn239 O244 1.996 . S
Zn239 O247 1.943 . S
O240 Zn239 1.962 . S
O240 C245 1.254 . S
O241 Zn238 2.031 . S
O241 C245 1.269 . S
O242 Zn239 1.986 . S
O242 C249 1.262 . S
O243 Zn238 2.049 . S
O243 C251 1.260 . S
O244 Zn239 1.996 . S
O244 C251 1.257 . S
C245 O240 1.254 . S
C245 O241 1.269 . S
C246 O247 1.249 . S
C246 O248 1.270 . S
O247 Zn239 1.943 . S
O247 C246 1.249 . S
O248 Zn238 2.067 . S
O248 C246 1.270 . S
C249 O242 1.262 . S
C249 O250 1.232 . S
O250 C249 1.232 . S
C251 O243 1.260 . S
C251 O244 1.257 . S
Zn252 O255 2.031 . S
Zn252 O257 2.049 . S
Zn252 O262 2.067 . S
Zn253 O254 1.962 . S
Zn253 O256 1.986 . S
Zn253 O258 1.996 . S
Zn253 O261 1.943 . S
O254 Zn253 1.962 . S
O254 C259 1.254 . S
O255 Zn252 2.031 . S
O255 C259 1.269 . S
O256 Zn253 1.986 . S
O256 C263 1.262 . S
O257 Zn252 2.049 . S
O257 C265 1.260 . S
O258 Zn253 1.996 . S
O258 C265 1.257 . S
C259 O254 1.254 . S
C259 O255 1.269 . S
C260 O261 1.249 . S
C260 O262 1.270 . S
O261 Zn253 1.943 . S
O261 C260 1.249 . S
O262 Zn252 2.067 . S
O262 C260 1.270 . S
C263 O256 1.262 . S
C263 O264 1.232 . S
O264 C263 1.232 . S
C265 O257 1.260 . S
C265 O258 1.257 . S
Zn266 O269 2.031 . S
Zn266 O271 2.049 . S
Zn266 O276 2.067 . S
Zn267 O268 1.962 1_655 S
Zn267 O270 1.986 . S
Zn267 O272 1.996 . S
Zn267 O275 1.943 . S
O268 Zn267 1.962 1_455 S
O268 C273 1.254 . S
O269 Zn266 2.031 . S
O269 C273 1.269 1_655 S
O270 Zn267 1.986 . S
O270 C277 1.262 . S
O271 Zn266 2.049 . S
O271 C279 1.260 . S
O272 Zn267 1.996 . S
O272 C279 1.257 . S
C273 O268 1.254 . S
C273 O269 1.269 1_455 S
C274 O275 1.249 . S
C274 O276 1.270 . S
O275 Zn267 1.943 . S
O275 C274 1.249 . S
O276 Zn266 2.067 . S
O276 C274 1.270 . S
C277 O270 1.262 . S
C277 O278 1.232 . S
O278 C277 1.232 . S
C279 O271 1.260 . S
C279 O272 1.257 . S
Zn280 O283 2.031 . S
Zn280 O285 2.049 . S
Zn280 O290 2.067 . S
Zn281 O282 1.962 . S
Zn281 O284 1.986 . S
Zn281 O286 1.996 . S
Zn281 O289 1.943 . S
O282 Zn281 1.962 . S
O282 C287 1.254 . S
O283 Zn280 2.031 . S
O283 C287 1.269 . S
O284 Zn281 1.986 . S
O284 C291 1.262 . S
O285 Zn280 2.049 . S
O285 C293 1.260 . S
O286 Zn281 1.996 . S
O286 C293 1.257 . S
C287 O282 1.254 . S
C287 O283 1.269 . S
C288 O289 1.249 . S
C288 O290 1.270 . S
O289 Zn281 1.943 . S
O289 C288 1.249 . S
O290 Zn280 2.067 . S
O290 C288 1.270 . S
C291 O284 1.262 . S
C291 O292 1.232 . S
O292 C291 1.232 . S
C293 O285 1.260 . S
C293 O286 1.257 . S
Zn294 O297 2.031 . S
Zn294 O299 2.049 . S
Zn294 O304 2.067 . S
Zn295 O296 1.962 1_655 S
Zn295 O298 1.986 . S
Zn295 O300 1.996 . S
Zn295 O303 1.943 . S
O296 Zn295 1.962 1_455 S
O296 C301 1.254 . S
O297 Zn294 2.031 . S
O297 C301 1.269 1_655 S
O298 Zn295 1.986 . S
O298 C305 1.262 . S
O299 Zn294 2.049 . S
O299 C307 1.260 . S
O300 Zn295 1.996 . S
O300 C307 1.257 . S
C301 O296 1.254 . S
C301 O297 1.269 1_455 S
C302 O303 1.249 . S
C302 O304 1.270 . S
O303 Zn295 1.943 . S
O303 C302 1.249 . S
O304 Zn294 2.067 . S
O304 C302 1.270 . S
C305 O298 1.262 . S
C305 O306 1.232 . S
O306 C305 1.232 . S
C307 O299 1.260 . S
C307 O300 1.257 . S
Zn308 O311 2.031 . S
Zn308 O313 2.049 . S
Zn308 O318 2.067 . S
Zn309 O310 1.962 . S
Zn309 O312 1.986 . S
Zn309 O314 1.996 . S
Zn309 O317 1.943 . S
O310 Zn309 1.962 . S
O310 C315 1.254 . S
O311 Zn308 2.031 . S
O311 C315 1.269 . S
O312 Zn309 1.986 . S
O312 C319 1.262 . S
O313 Zn308 2.049 . S
O313 C321 1.260 . S
O314 Zn309 1.996 . S
O314 C321 1.257 . S
C315 O310 1.254 . S
C315 O311 1.269 . S
C316 O317 1.249 . S
C316 O318 1.270 . S
O317 Zn309 1.943 . S
O317 C316 1.249 . S
O318 Zn308 2.067 . S
O318 C316 1.270 . S
C319 O312 1.262 . S
C319 O320 1.232 . S
O320 C319 1.232 . S
C321 O313 1.260 . S
C321 O314 1.257 . S
Zn322 O325 2.031 . S
Zn322 O327 2.049 . S
Zn322 O332 2.067 . S
Zn323 O324 1.962 . S
Zn323 O326 1.986 . S
Zn323 O328 1.996 . S
Zn323 O331 1.943 . S
O324 Zn323 1.962 . S
O324 C329 1.254 . S
O325 Zn322 2.031 . S
O325 C329 1.269 . S
O326 Zn323 1.986 . S
O326 C333 1.262 . S
O327 Zn322 2.049 . S
O327 C335 1.260 . S
O328 Zn323 1.996 . S
O328 C335 1.257 . S
C329 O324 1.254 . S
C329 O325 1.269 . S
C330 O331 1.249 . S
C330 O332 1.270 . S
O331 Zn323 1.943 . S
O331 C330 1.249 . S
O332 Zn322 2.067 . S
O332 C330 1.270 . S
C333 O326 1.262 . S
C333 O334 1.232 . S
O334 C333 1.232 . S
C335 O327 1.260 . S
C335 O328 1.257 . S
Zn336 O339 2.031 . S
Zn336 O341 2.049 . S
Zn336 O346 2.067 . S
Zn337 O338 1.962 . S
Zn337 O340 1.986 . S
Zn337 O342 1.996 . S
Zn337 O345 1.943 . S
O338 Zn337 1.962 . S
O338 C343 1.254 . S
O339 Zn336 2.031 . S
O339 C343 1.269 . S
O340 Zn337 1.986 . S
O340 C347 1.262 . S
O341 Zn336 2.049 . S
O341 C349 1.260 . S
O342 Zn337 1.996 . S
O342 C349 1.257 . S
C343 O338 1.254 . S
C343 O339 1.269 . S
C344 O345 1.249 . S
C344 O346 1.270 . S
O345 Zn337 1.943 . S
O345 C344 1.249 . S
O346 Zn336 2.067 . S
O346 C344 1.270 . S
C347 O340 1.262 . S
C347 O348 1.232 . S
O348 C347 1.232 . S
C349 O341 1.260 . S
C349 O342 1.257 . S
Zn350 O353 2.031 . S
Zn350 O355 2.049 . S
Zn350 O360 2.067 . S
Zn351 O352 1.962 . S
Zn351 O354 1.986 . S
Zn351 O356 1.996 . S
Zn351 O359 1.943 . S
O352 Zn351 1.962 . S
O352 C357 1.254 . S
O353 Zn350 2.031 . S
O353 C357 1.269 . S
O354 Zn351 1.986 . S
O354 C361 1.262 . S
O355 Zn350 2.049 . S
O355 C363 1.260 . S
O356 Zn351 1.996 . S
O356 C363 1.257 . S
C357 O352 1.254 . S
C357 O353 1.269 . S
C358 O359 1.249 . S
C358 O360 1.270 . S
O359 Zn351 1.943 . S
O359 C358 1.249 . S
O360 Zn350 2.067 . S
O360 C358 1.270 . S
C361 O354 1.262 . S
C361 O362 1.232 . S
O362 C361 1.232 . S
C363 O355 1.260 . S
C363 O356 1.257 . S
Zn364 O367 2.031 . S
Zn364 O369 2.049 . S
Zn364 O374 2.067 . S
Zn365 O366 1.962 . S
Zn365 O368 1.986 . S
Zn365 O370 1.996 . S
Zn365 O373 1.943 . S
O366 Zn365 1.962 . S
O366 C371 1.254 . S
O367 Zn364 2.031 . S
O367 C371 1.269 . S
O368 Zn365 1.986 . S
O368 C375 1.262 . S
O369 Zn364 2.049 . S
O369 C377 1.260 . S
O370 Zn365 1.996 . S
O370 C377 1.257 . S
C371 O366 1.254 . S
C371 O367 1.269 . S
C372 O373 1.249 . S
C372 O374 1.270 . S
O373 Zn365 1.943 . S
O373 C372 1.249 . S
O374 Zn364 2.067 . S
O374 C372 1.270 . S
C375 O368 1.262 . S
C375 O376 1.232 . S
O376 C375 1.232 . S
C377 O369 1.260 . S
C377 O370 1.257 . S
Zn378 O381 2.031 . S
Zn378 O383 2.049 . S
Zn378 O388 2.067 1_455 S
Zn379 O380 1.962 . S
Zn379 O382 1.986 . S
Zn379 O384 1.996 . S
Zn379 O387 1.943 . S
O380 Zn379 1.962 . S
O380 C385 1.254 . S
O381 Zn378 2.031 . S
O381 C385 1.269 . S
O382 Zn379 1.986 . S
O382 C389 1.262 . S
O383 Zn378 2.049 . S
O383 C391 1.260 . S
O384 Zn379 1.996 . S
O384 C391 1.257 . S
C385 O380 1.254 . S
C385 O381 1.269 . S
C386 O387 1.249 1_655 S
C386 O388 1.270 . S
O387 Zn379 1.943 . S
O387 C386 1.249 1_455 S
O388 Zn378 2.067 1_655 S
O388 C386 1.270 . S
C389 O382 1.262 . S
C389 O390 1.232 . S
O390 C389 1.232 . S
C391 O383 1.260 . S
C391 O384 1.257 . S
Zn392 O395 2.031 . S
Zn392 O397 2.049 . S
Zn392 O402 2.067 . S
Zn393 O394 1.962 . S
Zn393 O396 1.986 . S
Zn393 O398 1.996 . S
Zn393 O401 1.943 . S
O394 Zn393 1.962 . S
O394 C399 1.254 . S
O395 Zn392 2.031 . S
O395 C399 1.269 . S
O396 Zn393 1.986 . S
O396 C403 1.262 . S
O397 Zn392 2.049 . S
O397 C405 1.260 . S
O398 Zn393 1.996 . S
O398 C405 1.257 . S
C399 O394 1.254 . S
C399 O395 1.269 . S
C400 O401 1.249 . S
C400 O402 1.270 . S
O401 Zn393 1.943 . S
O401 C400 1.249 . S
O402 Zn392 2.067 . S
O402 C400 1.270 . S
C403 O396 1.262 . S
C403 O404 1.232 . S
O404 C403 1.232 . S
C405 O397 1.260 . S
C405 O398 1.257 . S
Zn406 O409 2.031 . S
Zn406 O411 2.049 . S
Zn406 O416 2.067 1_455 S
Zn407 O408 1.962 . S
Zn407 O410 1.986 . S
Zn407 O412 1.996 . S
Zn407 O415 1.943 . S
O408 Zn407 1.962 . S
O408 C413 1.254 . S
O409 Zn406 2.031 . S
O409 C413 1.269 . S
O410 Zn407 1.986 . S
O410 C417 1.262 . S
O411 Zn406 2.049 . S
O411 C419 1.260 . S
O412 Zn407 1.996 . S
O412 C419 1.257 . S
C413 O408 1.254 . S
C413 O409 1.269 . S
C414 O415 1.249 1_655 S
C414 O416 1.270 . S
O415 Zn407 1.943 . S
O415 C414 1.249 1_455 S
O416 Zn406 2.067 1_655 S
O416 C414 1.270 . S
C417 O410 1.262 . S
C417 O418 1.232 . S
O418 C417 1.232 . S
C419 O411 1.260 . S
C419 O412 1.257 . S
Zn420 O423 2.031 . S
Zn420 O425 2.049 . S
Zn420 O430 2.067 . S
Zn421 O422 1.962 . S
Zn421 O424 1.986 . S
Zn421 O426 1.996 . S
Zn421 O429 1.943 . S
O422 Zn421 1.962 . S
O422 C427 1.254 . S
O423 Zn420 2.031 . S
O423 C427 1.269 . S
O424 Zn421 1.986 . S
O424 C431 1.262 . S
O425 Zn420 2.049 . S
O425 C433 1.260 . S
O426 Zn421 1.996 . S
O426 C433 1.257 . S
C427 O422 1.254 . S
C427 O423 1.269 . S
C428 O429 1.249 . S
C428 O430 1.270 . S
O429 Zn421 1.943 . S
O429 C428 1.249 . S
O430 Zn420 2.067 . S
O430 C428 1.270 . S
C431 O424 1.262 . S
C431 O432 1.232 . S
O432 C431 1.232 . S
C433 O425 1.260 . S
C433 O426 1.257 . S
Zn434 O437 2.031 . S
Zn434 O439 2.049 . S
Zn434 O444 2.067 . S
Zn435 O436 1.962 . S
Zn435 O438 1.986 . S
Zn435 O440 1.996 . S
Zn435 O443 1.943 . S
O436 Zn435 1.962 . S
O436 C441 1.254 . S
O437 Zn434 2.031 . S
O437 C441 1.269 . S
O438 Zn435 1.986 . S
O438 C445 1.262 . S
O439 Zn434 2.049 . S
O439 C447 1.260 . S
O440 Zn435 1.996 . S
O440 C447 1.257 . S
C441 O436 1.254 . S
C441 O437 1.269 . S
C442 O443 1.249 . S
C442 O444 1.270 . S
O443 Zn435 1.943 . S
O443 C442 1.249 . S
O444 Zn434 2.067 . S
O444 C442 1.270 . S
C445 O438 1.262 . S
C445 O446 1.232 . S
O446 C445 1.232 . S
C447 O439 1.260 . S
C447 O440 1.257 . S
C448 C449 1.369 . S
C448 C450 1.419 . S
C448 H452 0.930 . S
C449 C448 1.369 . S
C449 C458 1.429 . S
C450 C448 1.419 . S
C450 C451 1.363 . S
C450 H453 0.929 . S
C451 C450 1.363 . S
C451 C457 1.428 . S
H452 C448 0.930 . S
H453 C450 0.929 . S
S454 N455 1.613 . S
S454 N456 1.610 . S
N455 S454 1.613 . S
N455 C458 1.350 . S
N456 S454 1.610 . S
N456 C457 1.351 . S
C457 C451 1.428 . S
C457 N456 1.351 . S
C457 C458 1.434 . S
C458 C449 1.429 . S
C458 N455 1.350 . S
C458 C457 1.434 . S
C459 C460 1.369 . S
C459 C461 1.419 . S
C459 H463 0.930 . S
C460 C459 1.369 . S
C460 C469 1.429 . S
C461 C459 1.419 . S
C461 C462 1.363 . S
C461 H464 0.929 . S
C462 C461 1.363 . S
C462 C468 1.428 . S
H463 C459 0.930 . S
H464 C461 0.929 . S
S465 N466 1.613 . S
S465 N467 1.610 . S
N466 S465 1.613 . S
N466 C469 1.350 . S
N467 S465 1.610 . S
N467 C468 1.351 . S
C468 C462 1.428 . S
C468 N467 1.351 . S
C468 C469 1.434 . S
C469 C460 1.429 . S
C469 N466 1.350 . S
C469 C468 1.434 . S
C470 C471 1.369 . S
C470 C472 1.419 . S
C470 H474 0.930 . S
C471 C470 1.369 . S
C471 C480 1.429 . S
C472 C470 1.419 . S
C472 C473 1.363 . S
C472 H475 0.929 . S
C473 C472 1.363 . S
C473 C479 1.428 . S
H474 C470 0.930 . S
H475 C472 0.929 . S
S476 N477 1.613 . S
S476 N478 1.610 . S
N477 S476 1.613 . S
N477 C480 1.350 . S
N478 S476 1.610 . S
N478 C479 1.351 . S
C479 C473 1.428 . S
C479 N478 1.351 . S
C479 C480 1.434 . S
C480 C471 1.429 . S
C480 N477 1.350 . S
C480 C479 1.434 . S
C481 C482 1.369 . S
C481 C483 1.419 . S
C481 H485 0.930 . S
C482 C481 1.369 . S
C482 C491 1.429 . S
C483 C481 1.419 . S
C483 C484 1.363 . S
C483 H486 0.929 . S
C484 C483 1.363 . S
C484 C490 1.428 . S
H485 C481 0.930 . S
H486 C483 0.929 . S
S487 N488 1.613 . S
S487 N489 1.610 . S
N488 S487 1.613 . S
N488 C491 1.350 . S
N489 S487 1.610 . S
N489 C490 1.351 . S
C490 C484 1.428 . S
C490 N489 1.351 . S
C490 C491 1.434 . S
C491 C482 1.429 . S
C491 N488 1.350 . S
C491 C490 1.434 . S
C492 C493 1.369 . S
C492 C494 1.419 . S
C492 H496 0.930 . S
C493 C492 1.369 . S
C493 C502 1.429 . S
C494 C492 1.419 . S
C494 C495 1.363 . S
C494 H497 0.929 . S
C495 C494 1.363 . S
C495 C501 1.428 . S
H496 C492 0.930 . S
H497 C494 0.929 . S
S498 N499 1.613 . S
S498 N500 1.610 . S
N499 S498 1.613 . S
N499 C502 1.350 . S
N500 S498 1.610 . S
N500 C501 1.351 . S
C501 C495 1.428 . S
C501 N500 1.351 . S
C501 C502 1.434 . S
C502 C493 1.429 . S
C502 N499 1.350 . S
C502 C501 1.434 . S
C503 C504 1.369 . S
C503 C505 1.419 . S
C503 H507 0.930 . S
C504 C503 1.369 . S
C504 C513 1.429 . S
C505 C503 1.419 . S
C505 C506 1.363 . S
C505 H508 0.929 . S
C506 C505 1.363 . S
C506 C512 1.428 . S
H507 C503 0.930 . S
H508 C505 0.929 . S
S509 N510 1.613 . S
S509 N511 1.610 . S
N510 S509 1.613 . S
N510 C513 1.350 . S
N511 S509 1.610 . S
N511 C512 1.351 . S
C512 C506 1.428 . S
C512 N511 1.351 . S
C512 C513 1.434 . S
C513 C504 1.429 . S
C513 N510 1.350 . S
C513 C512 1.434 . S
C514 C515 1.369 . S
C514 C516 1.419 . S
C514 H518 0.930 . S
C515 C514 1.369 . S
C515 C524 1.429 . S
C516 C514 1.419 . S
C516 C517 1.363 . S
C516 H519 0.929 . S
C517 C516 1.363 . S
C517 C523 1.428 . S
H518 C514 0.930 . S
H519 C516 0.929 . S
S520 N521 1.613 . S
S520 N522 1.610 . S
N521 S520 1.613 . S
N521 C524 1.350 . S
N522 S520 1.610 . S
N522 C523 1.351 . S
C523 C517 1.428 . S
C523 N522 1.351 . S
C523 C524 1.434 . S
C524 C515 1.429 . S
C524 N521 1.350 . S
C524 C523 1.434 . S
C525 C526 1.369 . S
C525 C527 1.419 . S
C525 H529 0.930 . S
C526 C525 1.369 . S
C526 C535 1.429 . S
C527 C525 1.419 . S
C527 C528 1.363 . S
C527 H530 0.929 . S
C528 C527 1.363 . S
C528 C534 1.428 . S
H529 C525 0.930 . S
H530 C527 0.929 . S
S531 N532 1.613 . S
S531 N533 1.610 . S
N532 S531 1.613 . S
N532 C535 1.350 . S
N533 S531 1.610 . S
N533 C534 1.351 . S
C534 C528 1.428 . S
C534 N533 1.351 . S
C534 C535 1.434 . S
C535 C526 1.429 . S
C535 N532 1.350 . S
C535 C534 1.434 . S
C536 C537 1.369 . S
C536 C538 1.419 . S
C536 H540 0.930 . S
C537 C536 1.369 . S
C537 C546 1.429 . S
C538 C536 1.419 . S
C538 C539 1.363 . S
C538 H541 0.929 . S
C539 C538 1.363 . S
C539 C545 1.428 . S
H540 C536 0.930 . S
H541 C538 0.929 . S
S542 N543 1.613 . S
S542 N544 1.610 . S
N543 S542 1.613 . S
N543 C546 1.350 . S
N544 S542 1.610 . S
N544 C545 1.351 . S
C545 C539 1.428 . S
C545 N544 1.351 . S
C545 C546 1.434 . S
C546 C537 1.429 . S
C546 N543 1.350 . S
C546 C545 1.434 . S
C547 C548 1.369 . S
C547 C549 1.419 . S
C547 H551 0.930 . S
C548 C547 1.369 . S
C548 C557 1.429 . S
C549 C547 1.419 . S
C549 C550 1.363 . S
C549 H552 0.929 . S
C550 C549 1.363 . S
C550 C556 1.428 . S
H551 C547 0.930 . S
H552 C549 0.929 . S
S553 N554 1.613 . S
S553 N555 1.610 . S
N554 S553 1.613 . S
N554 C557 1.350 . S
N555 S553 1.610 . S
N555 C556 1.351 . S
C556 C550 1.428 . S
C556 N555 1.351 . S
C556 C557 1.434 . S
C557 C548 1.429 . S
C557 N554 1.350 . S
C557 C556 1.434 . S
C558 C559 1.369 . S
C558 C560 1.419 . S
C558 H562 0.930 . S
C559 C558 1.369 . S
C559 C568 1.429 . S
C560 C558 1.419 . S
C560 C561 1.363 . S
C560 H563 0.929 . S
C561 C560 1.363 . S
C561 C567 1.428 . S
H562 C558 0.930 . S
H563 C560 0.929 . S
S564 N565 1.613 . S
S564 N566 1.610 . S
N565 S564 1.613 . S
N565 C568 1.350 . S
N566 S564 1.610 . S
N566 C567 1.351 . S
C567 C561 1.428 . S
C567 N566 1.351 . S
C567 C568 1.434 . S
C568 C559 1.429 . S
C568 N565 1.350 . S
C568 C567 1.434 . S
C569 C570 1.369 . S
C569 C571 1.419 . S
C569 H573 0.930 . S
C570 C569 1.369 . S
C570 C579 1.429 . S
C571 C569 1.419 . S
C571 C572 1.363 . S
C571 H574 0.929 . S
C572 C571 1.363 . S
C572 C578 1.428 . S
H573 C569 0.930 . S
H574 C571 0.929 . S
S575 N576 1.613 . S
S575 N577 1.610 . S
N576 S575 1.613 . S
N576 C579 1.350 . S
N577 S575 1.610 . S
N577 C578 1.351 . S
C578 C572 1.428 . S
C578 N577 1.351 . S
C578 C579 1.434 . S
C579 C570 1.429 . S
C579 N576 1.350 . S
C579 C578 1.434 . S
C580 C581 1.369 . S
C580 C582 1.419 . S
C580 H584 0.930 . S
C581 C580 1.369 . S
C581 C590 1.429 . S
C582 C580 1.419 . S
C582 C583 1.363 . S
C582 H585 0.929 . S
C583 C582 1.363 . S
C583 C589 1.428 . S
H584 C580 0.930 . S
H585 C582 0.929 . S
S586 N587 1.613 . S
S586 N588 1.610 . S
N587 S586 1.613 . S
N587 C590 1.350 . S
N588 S586 1.610 . S
N588 C589 1.351 . S
C589 C583 1.428 . S
C589 N588 1.351 . S
C589 C590 1.434 . S
C590 C581 1.429 . S
C590 N587 1.350 . S
C590 C589 1.434 . S
C591 C592 1.369 . S
C591 C593 1.419 . S
C591 H595 0.930 . S
C592 C591 1.369 . S
C592 C601 1.429 . S
C593 C591 1.419 . S
C593 C594 1.363 . S
C593 H596 0.929 . S
C594 C593 1.363 . S
C594 C600 1.428 . S
H595 C591 0.930 . S
H596 C593 0.929 . S
S597 N598 1.613 . S
S597 N599 1.610 . S
N598 S597 1.613 . S
N598 C601 1.350 . S
N599 S597 1.610 . S
N599 C600 1.351 . S
C600 C594 1.428 . S
C600 N599 1.351 . S
C600 C601 1.434 . S
C601 C592 1.429 . S
C601 N598 1.350 . S
C601 C600 1.434 . S
C602 C603 1.369 . S
C602 C604 1.419 . S
C602 H606 0.930 . S
C603 C602 1.369 . S
C603 C612 1.429 . S
C604 C602 1.419 . S
C604 C605 1.363 . S
C604 H607 0.929 . S
C605 C604 1.363 . S
C605 C611 1.428 . S
H606 C602 0.930 . S
H607 C604 0.929 . S
S608 N609 1.613 . S
S608 N610 1.610 . S
N609 S608 1.613 . S
N609 C612 1.350 . S
N610 S608 1.610 . S
N610 C611 1.351 . S
C611 C605 1.428 . S
C611 N610 1.351 . S
C611 C612 1.434 . S
C612 C603 1.429 . S
C612 N609 1.350 . S
C612 C611 1.434 . S
C613 C614 1.369 . S
C613 C615 1.419 . S
C613 H617 0.930 . S
C614 C613 1.369 . S
C614 C623 1.429 . S
C615 C613 1.419 . S
C615 C616 1.363 . S
C615 H618 0.929 . S
C616 C615 1.363 . S
C616 C622 1.428 . S
H617 C613 0.930 . S
H618 C615 0.929 . S
S619 N620 1.613 . S
S619 N621 1.610 . S
N620 S619 1.613 . S
N620 C623 1.350 . S
N621 S619 1.610 . S
N621 C622 1.351 . S
C622 C616 1.428 . S
C622 N621 1.351 . S
C622 C623 1.434 . S
C623 C614 1.429 . S
C623 N620 1.350 . S
C623 C622 1.434 . S
C624 C625 1.369 . S
C624 C626 1.419 . S
C624 H628 0.930 . S
C625 C624 1.369 . S
C625 C634 1.429 . S
C626 C624 1.419 . S
C626 C627 1.363 . S
C626 H629 0.929 . S
C627 C626 1.363 . S
C627 C633 1.428 . S
H628 C624 0.930 . S
H629 C626 0.929 . S
S630 N631 1.613 . S
S630 N632 1.610 . S
N631 S630 1.613 . S
N631 C634 1.350 . S
N632 S630 1.610 . S
N632 C633 1.351 . S
C633 C627 1.428 . S
C633 N632 1.351 . S
C633 C634 1.434 . S
C634 C625 1.429 . S
C634 N631 1.350 . S
C634 C633 1.434 . S
C635 C636 1.369 . S
C635 C637 1.419 . S
C635 H639 0.930 . S
C636 C635 1.369 . S
C636 C645 1.429 . S
C637 C635 1.419 . S
C637 C638 1.363 . S
C637 H640 0.929 . S
C638 C637 1.363 . S
C638 C644 1.428 . S
H639 C635 0.930 . S
H640 C637 0.929 . S
S641 N642 1.613 . S
S641 N643 1.610 . S
N642 S641 1.613 . S
N642 C645 1.350 . S
N643 S641 1.610 . S
N643 C644 1.351 . S
C644 C638 1.428 . S
C644 N643 1.351 . S
C644 C645 1.434 . S
C645 C636 1.429 . S
C645 N642 1.350 . S
C645 C644 1.434 . S
C646 C647 1.369 . S
C646 C648 1.419 . S
C646 H650 0.930 . S
C647 C646 1.369 . S
C647 C656 1.429 . S
C648 C646 1.419 . S
C648 C649 1.363 . S
C648 H651 0.929 . S
C649 C648 1.363 . S
C649 C655 1.428 . S
H650 C646 0.930 . S
H651 C648 0.929 . S
S652 N653 1.613 . S
S652 N654 1.610 . S
N653 S652 1.613 . S
N653 C656 1.350 . S
N654 S652 1.610 . S
N654 C655 1.351 . S
C655 C649 1.428 . S
C655 N654 1.351 . S
C655 C656 1.434 . S
C656 C647 1.429 . S
C656 N653 1.350 . S
C656 C655 1.434 . S
C657 C658 1.369 . S
C657 C659 1.419 . S
C657 H661 0.930 . S
C658 C657 1.369 . S
C658 C667 1.429 . S
C659 C657 1.419 . S
C659 C660 1.363 . S
C659 H662 0.929 . S
C660 C659 1.363 . S
C660 C666 1.428 . S
H661 C657 0.930 . S
H662 C659 0.929 . S
S663 N664 1.613 . S
S663 N665 1.610 . S
N664 S663 1.613 . S
N664 C667 1.350 . S
N665 S663 1.610 . S
N665 C666 1.351 . S
C666 C660 1.428 . S
C666 N665 1.351 . S
C666 C667 1.434 . S
C667 C658 1.429 . S
C667 N664 1.350 . S
C667 C666 1.434 . S
C668 C669 1.369 . S
C668 C670 1.419 . S
C668 H672 0.930 . S
C669 C668 1.369 . S
C669 C678 1.429 . S
C670 C668 1.419 . S
C670 C671 1.363 . S
C670 H673 0.929 . S
C671 C670 1.363 . S
C671 C677 1.428 . S
H672 C668 0.930 . S
H673 C670 0.929 . S
S674 N675 1.613 . S
S674 N676 1.610 . S
N675 S674 1.613 . S
N675 C678 1.350 . S
N676 S674 1.610 . S
N676 C677 1.351 . S
C677 C671 1.428 . S
C677 N676 1.351 . S
C677 C678 1.434 . S
C678 C669 1.429 . S
C678 N675 1.350 . S
C678 C677 1.434 . S
C679 C680 1.369 . S
C679 C681 1.419 . S
C679 H683 0.930 . S
C680 C679 1.369 . S
C680 C689 1.429 . S
C681 C679 1.419 . S
C681 C682 1.363 . S
C681 H684 0.929 . S
C682 C681 1.363 . S
C682 C688 1.428 . S
H683 C679 0.930 . S
H684 C681 0.929 . S
S685 N686 1.613 . S
S685 N687 1.609 1_455 S
N686 S685 1.613 . S
N686 C689 1.350 . S
N687 S685 1.609 1_655 S
N687 C688 1.342 1_655 S
C688 C682 1.428 . S
C688 N687 1.342 1_455 S
C688 C689 1.434 . S
C689 C680 1.429 . S
C689 N686 1.350 . S
C689 C688 1.434 . S
C690 C691 1.369 . S
C690 C692 1.419 . S
C690 H694 0.930 . S
C691 C690 1.369 . S
C691 C700 1.429 . S
C692 C690 1.419 . S
C692 C693 1.363 . S
C692 H695 0.929 . S
C693 C692 1.363 . S
C693 C699 1.428 . S
H694 C690 0.930 . S
H695 C692 0.929 . S
S696 N697 1.613 . S
S696 N698 1.610 . S
N697 S696 1.613 . S
N697 C700 1.350 . S
N698 S696 1.610 . S
N698 C699 1.351 . S
C699 C693 1.428 . S
C699 N698 1.351 . S
C699 C700 1.434 . S
C700 C691 1.429 . S
C700 N697 1.350 . S
C700 C699 1.434 . S
C701 C702 1.369 . S
C701 C703 1.419 . S
C701 H705 0.930 . S
C702 C701 1.369 . S
C702 C711 1.429 . S
C703 C701 1.419 . S
C703 C704 1.363 . S
C703 H706 0.929 . S
C704 C703 1.363 . S
C704 C710 1.428 . S
H705 C701 0.930 . S
H706 C703 0.929 . S
S707 N708 1.613 . S
S707 N709 1.610 . S
N708 S707 1.613 . S
N708 C711 1.350 . S
N709 S707 1.610 . S
N709 C710 1.351 . S
C710 C704 1.428 . S
C710 N709 1.351 . S
C710 C711 1.434 . S
C711 C702 1.429 . S
C711 N708 1.350 . S
C711 C710 1.434 . S
C712 C713 1.369 . S
C712 C714 1.419 . S
C712 H716 0.930 . S
C713 C712 1.369 . S
C713 C722 1.429 . S
C714 C712 1.419 . S
C714 C715 1.363 . S
C714 H717 0.929 . S
C715 C714 1.363 . S
C715 C721 1.428 . S
H716 C712 0.930 . S
H717 C714 0.929 . S
S718 N719 1.613 . S
S718 N720 1.610 . S
N719 S718 1.613 . S
N719 C722 1.350 . S
N720 S718 1.610 . S
N720 C721 1.351 . S
C721 C715 1.428 . S
C721 N720 1.351 . S
C721 C722 1.434 . S
C722 C713 1.429 . S
C722 N719 1.350 . S
C722 C721 1.434 . S
C723 C724 1.369 . S
C723 C725 1.419 . S
C723 H727 0.930 . S
C724 C723 1.369 . S
C724 C733 1.429 . S
C725 C723 1.419 . S
C725 C726 1.363 . S
C725 H728 0.929 . S
C726 C725 1.363 . S
C726 C732 1.428 . S
H727 C723 0.930 . S
H728 C725 0.929 . S
S729 N730 1.613 . S
S729 N731 1.610 . S
N730 S729 1.613 . S
N730 C733 1.350 . S
N731 S729 1.610 . S
N731 C732 1.351 . S
C732 C726 1.428 . S
C732 N731 1.351 . S
C732 C733 1.434 . S
C733 C724 1.429 . S
C733 N730 1.350 . S
C733 C732 1.434 . S
C734 C735 1.369 . S
C734 C736 1.419 . S
C734 H738 0.930 . S
C735 C734 1.369 . S
C735 C744 1.429 . S
C736 C734 1.419 . S
C736 C737 1.363 . S
C736 H739 0.929 . S
C737 C736 1.363 . S
C737 C743 1.428 . S
H738 C734 0.930 . S
H739 C736 0.929 . S
S740 N741 1.613 . S
S740 N742 1.610 . S
N741 S740 1.613 . S
N741 C744 1.350 . S
N742 S740 1.610 . S
N742 C743 1.351 . S
C743 C737 1.428 . S
C743 N742 1.351 . S
C743 C744 1.434 . S
C744 C735 1.429 . S
C744 N741 1.350 . S
C744 C743 1.434 . S
C745 C746 1.369 . S
C745 C747 1.419 . S
C745 H749 0.930 . S
C746 C745 1.369 . S
C746 C755 1.429 . S
C747 C745 1.419 . S
C747 C748 1.363 . S
C747 H750 0.929 . S
C748 C747 1.363 . S
C748 C754 1.428 . S
H749 C745 0.930 . S
H750 C747 0.929 . S
S751 N752 1.613 1_655 S
S751 N753 1.610 . S
N752 S751 1.613 1_455 S
N752 C755 1.350 1_455 S
N753 S751 1.610 . S
N753 C754 1.351 . S
C754 C748 1.428 . S
C754 N753 1.351 . S
C754 C755 1.434 . S
C755 C746 1.429 . S
C755 N752 1.350 1_655 S
C755 C754 1.434 . S
C756 C757 1.369 . S
C756 C758 1.419 . S
C756 H760 0.930 . S
C757 C756 1.369 . S
C757 C766 1.429 . S
C758 C756 1.419 . S
C758 C759 1.363 . S
C758 H761 0.929 . S
C759 C758 1.363 . S
C759 C765 1.428 . S
H760 C756 0.930 . S
H761 C758 0.929 . S
S762 N763 1.613 . S
S762 N764 1.610 . S
N763 S762 1.613 . S
N763 C766 1.350 . S
N764 S762 1.610 . S
N764 C765 1.351 . S
C765 C759 1.428 . S
C765 N764 1.351 . S
C765 C766 1.434 . S
C766 C757 1.429 . S
C766 N763 1.350 . S
C766 C765 1.434 . S
C767 C768 1.369 . S
C767 C769 1.419 . S
C767 H771 0.930 . S
C768 C767 1.369 . S
C768 C777 1.429 . S
C769 C767 1.419 . S
C769 C770 1.363 . S
C769 H772 0.929 . S
C770 C769 1.363 . S
C770 C776 1.428 . S
H771 C767 0.930 . S
H772 C769 0.929 . S
S773 N774 1.613 . S
S773 N775 1.610 . S
N774 S773 1.613 . S
N774 C777 1.350 . S
N775 S773 1.610 . S
N775 C776 1.351 . S
C776 C770 1.428 . S
C776 N775 1.351 . S
C776 C777 1.434 . S
C777 C768 1.429 . S
C777 N774 1.350 . S
C777 C776 1.434 . S
C778 C779 1.369 . S
C778 C780 1.419 . S
C778 H782 0.930 . S
C779 C778 1.369 . S
C779 C788 1.429 . S
C780 C778 1.419 . S
C780 C781 1.363 . S
C780 H783 0.929 . S
C781 C780 1.363 . S
C781 C787 1.428 . S
H782 C778 0.930 . S
H783 C780 0.929 . S
S784 N785 1.613 . S
S784 N786 1.610 . S
N785 S784 1.613 . S
N785 C788 1.350 . S
N786 S784 1.610 . S
N786 C787 1.351 . S
C787 C781 1.428 . S
C787 N786 1.351 . S
C787 C788 1.434 . S
C788 C779 1.429 . S
C788 N785 1.350 . S
C788 C787 1.434 . S
C789 C790 1.369 . S
C789 C791 1.419 . S
C789 H793 0.930 . S
C790 C789 1.369 . S
C790 C799 1.429 . S
C791 C789 1.419 . S
C791 C792 1.363 . S
C791 H794 0.929 . S
C792 C791 1.363 . S
C792 C798 1.428 . S
H793 C789 0.930 . S
H794 C791 0.929 . S
S795 N796 1.613 . S
S795 N797 1.610 . S
N796 S795 1.613 . S
N796 C799 1.350 . S
N797 S795 1.610 . S
N797 C798 1.351 . S
C798 C792 1.428 . S
C798 N797 1.351 . S
C798 C799 1.434 . S
C799 C790 1.429 . S
C799 N796 1.350 . S
C799 C798 1.434 . S
C800 C801 1.369 . S
C800 C802 1.419 . S
C800 H804 0.930 . S
C801 C800 1.369 . S
C801 C810 1.429 . S
C802 C800 1.419 . S
C802 C803 1.363 . S
C802 H805 0.929 . S
C803 C802 1.363 . S
C803 C809 1.428 . S
H804 C800 0.930 . S
H805 C802 0.929 . S
S806 N807 1.613 . S
S806 N808 1.610 . S
N807 S806 1.613 . S
N807 C810 1.350 . S
N808 S806 1.610 . S
N808 C809 1.351 . S
C809 C803 1.428 . S
C809 N808 1.351 . S
C809 C810 1.434 . S
C810 C801 1.429 . S
C810 N807 1.350 . S
C810 C809 1.434 . S
C811 C812 1.369 1_655 S
C811 C813 1.419 . S
C811 H815 0.930 . S
C812 C811 1.369 1_455 S
C812 C821 1.429 1_565 S
C813 C811 1.419 . S
C813 C814 1.363 1_565 S
C813 H816 0.929 . S
C814 C813 1.363 1_545 S
C814 C820 1.428 1_655 S
H815 C811 0.930 . S
H816 C813 0.929 . S
S817 N818 1.613 . S
S817 N819 1.610 . S
N818 S817 1.613 . S
N818 C821 1.350 . S
N819 S817 1.610 . S
N819 C820 1.351 . S
C820 C814 1.428 1_455 S
C820 N819 1.351 . S
C820 C821 1.434 . S
C821 C812 1.429 1_545 S
C821 N818 1.350 . S
C821 C820 1.434 . S
C822 C823 1.369 . S
C822 C824 1.419 . S
C822 H826 0.930 . S
C823 C822 1.369 . S
C823 C832 1.429 . S
C824 C822 1.419 . S
C824 C825 1.363 . S
C824 H827 0.929 . S
C825 C824 1.363 . S
C825 C831 1.428 . S
H826 C822 0.930 . S
H827 C824 0.929 . S
S828 N829 1.613 . S
S828 N830 1.610 . S
N829 S828 1.613 . S
N829 C832 1.350 . S
N830 S828 1.610 . S
N830 C831 1.351 . S
C831 C825 1.428 . S
C831 N830 1.351 . S
C831 C832 1.434 . S
C832 C823 1.429 . S
C832 N829 1.350 . S
C832 C831 1.434 . S
C833 C834 1.369 1_565 S
C833 C835 1.419 1_554 S
C833 H837 0.930 . S
C834 C833 1.369 1_545 S
C834 C843 1.429 . S
C835 C833 1.419 1_556 S
C835 C836 1.363 . S
C835 H838 0.929 . S
C836 C835 1.363 . S
C836 C842 1.428 1_565 S
H837 C833 0.930 . S
H838 C835 0.929 . S
S839 N840 1.613 1_556 S
S839 N841 1.610 . S
N840 S839 1.613 1_554 S
N840 C843 1.350 . S
N841 S839 1.610 . S
N841 C842 1.351 . S
C842 C836 1.428 1_545 S
C842 N841 1.351 . S
C842 C843 1.434 1_556 S
C843 C834 1.429 . S
C843 N840 1.350 . S
C843 C842 1.434 1_554 S
C844 C845 1.369 . S
C844 C846 1.419 . S
C844 H848 0.930 . S
C845 C844 1.369 . S
C845 C854 1.429 . S
C846 C844 1.419 . S
C846 C847 1.363 . S
C846 H849 0.929 . S
C847 C846 1.363 . S
C847 C853 1.428 . S
H848 C844 0.930 . S
H849 C846 0.929 . S
S850 N851 1.613 . S
S850 N852 1.610 . S
N851 S850 1.613 . S
N851 C854 1.350 . S
N852 S850 1.610 . S
N852 C853 1.351 . S
C853 C847 1.428 . S
C853 N852 1.351 . S
C853 C854 1.434 . S
C854 C845 1.429 . S
C854 N851 1.350 . S
C854 C853 1.434 . S
C855 C856 1.369 . S
C855 C857 1.419 . S
C855 H859 0.930 . S
C856 C855 1.369 . S
C856 C865 1.429 1_565 S
C857 C855 1.419 . S
C857 C858 1.363 1_565 S
C857 H860 0.929 . S
C858 C857 1.363 1_545 S
C858 C864 1.428 . S
H859 C855 0.930 . S
H860 C857 0.929 . S
S861 N862 1.613 . S
S861 N863 1.610 . S
N862 S861 1.613 . S
N862 C865 1.350 . S
N863 S861 1.610 . S
N863 C864 1.351 . S
C864 C858 1.428 . S
C864 N863 1.351 . S
C864 C865 1.434 . S
C865 C856 1.429 1_545 S
C865 N862 1.350 . S
C865 C864 1.434 . S
C866 C867 1.369 . S
C866 C868 1.419 . S
C866 H870 0.930 . S
C867 C866 1.369 . S
C867 C876 1.429 . S
C868 C866 1.419 . S
C868 C869 1.363 . S
C868 H871 0.929 . S
C869 C868 1.363 . S
C869 C875 1.428 . S
H870 C866 0.930 . S
H871 C868 0.929 . S
S872 N873 1.613 . S
S872 N874 1.610 . S
N873 S872 1.613 . S
N873 C876 1.350 . S
N874 S872 1.610 . S
N874 C875 1.351 . S
C875 C869 1.428 . S
C875 N874 1.351 . S
C875 C876 1.434 . S
C876 C867 1.429 . S
C876 N873 1.350 . S
C876 C875 1.434 . S
C877 C878 1.369 1_554 S
C877 C879 1.419 1_545 S
C877 H881 0.933 . S
C878 C877 1.369 1_556 S
C878 C887 1.429 1_455 S
C879 C877 1.419 1_565 S
C879 C880 1.363 1_455 S
C879 H882 0.929 . S
C880 C879 1.363 1_655 S
C880 C886 1.428 . S
H881 C877 0.933 . S
H882 C879 0.929 . S
S883 N884 1.613 . S
S883 N885 1.611 1_556 S
N884 S883 1.613 . S
N884 C887 1.350 . S
N885 S883 1.611 1_554 S
N885 C886 1.351 1_545 S
C886 C880 1.428 . S
C886 N885 1.351 1_565 S
C886 C887 1.434 1_564 S
C887 C878 1.429 1_655 S
C887 N884 1.350 . S
C887 C886 1.434 1_546 S
C888 C889 1.369 . S
C888 C890 1.419 . S
C888 H892 0.930 . S
C889 C888 1.369 . S
C889 C898 1.429 . S
C890 C888 1.419 . S
C890 C891 1.363 . S
C890 H893 0.929 . S
C891 C890 1.363 . S
C891 C897 1.428 . S
H892 C888 0.930 . S
H893 C890 0.929 . S
S894 N895 1.613 . S
S894 N896 1.610 . S
N895 S894 1.613 . S
N895 C898 1.350 . S
N896 S894 1.610 . S
N896 C897 1.351 . S
C897 C891 1.428 . S
C897 N896 1.351 . S
C897 C898 1.434 . S
C898 C889 1.429 . S
C898 N895 1.350 . S
C898 C897 1.434 . S
C899 C900 1.369 . S
C899 C901 1.419 . S
C899 H903 0.930 . S
C900 C899 1.369 . S
C900 C909 1.429 . S
C901 C899 1.419 . S
C901 C902 1.363 . S
C901 H904 0.929 . S
C902 C901 1.363 . S
C902 C908 1.428 . S
H903 C899 0.930 . S
H904 C901 0.929 . S
S905 N906 1.613 . S
S905 N907 1.610 . S
N906 S905 1.613 . S
N906 C909 1.350 . S
N907 S905 1.610 . S
N907 C908 1.351 . S
C908 C902 1.428 . S
C908 N907 1.351 . S
C908 C909 1.434 . S
C909 C900 1.429 . S
C909 N906 1.350 . S
C909 C908 1.434 . S
C910 C911 1.369 . S
C910 C912 1.419 . S
C910 H914 0.930 . S
C911 C910 1.369 . S
C911 C920 1.429 . S
C912 C910 1.419 . S
C912 C913 1.363 . S
C912 H915 0.929 . S
C913 C912 1.363 . S
C913 C919 1.428 . S
H914 C910 0.930 . S
H915 C912 0.929 . S
S916 N917 1.613 . S
S916 N918 1.610 . S
N917 S916 1.613 . S
N917 C920 1.350 . S
N918 S916 1.610 . S
N918 C919 1.351 . S
C919 C913 1.428 . S
C919 N918 1.351 . S
C919 C920 1.434 . S
C920 C911 1.429 . S
C920 N917 1.350 . S
C920 C919 1.434 . S
C921 C922 1.369 . S
C921 C923 1.419 . S
C921 H925 0.930 . S
C922 C921 1.369 . S
C922 C931 1.429 . S
C923 C921 1.419 . S
C923 C924 1.363 . S
C923 H926 0.929 . S
C924 C923 1.363 . S
C924 C930 1.428 . S
H925 C921 0.930 . S
H926 C923 0.929 . S
S927 N928 1.613 . S
S927 N929 1.610 . S
N928 S927 1.613 . S
N928 C931 1.350 . S
N929 S927 1.610 . S
N929 C930 1.351 . S
C930 C924 1.428 . S
C930 N929 1.351 . S
C930 C931 1.434 . S
C931 C922 1.429 . S
C931 N928 1.350 . S
C931 C930 1.434 . S
C932 C933 1.369 . S
C932 C934 1.419 1_554 S
C932 H936 0.930 . S
C933 C932 1.369 . S
C933 C942 1.429 . S
C934 C932 1.419 1_556 S
C934 C935 1.363 . S
C934 H937 0.929 . S
C935 C934 1.363 . S
C935 C941 1.428 . S
H936 C932 0.930 . S
H937 C934 0.929 . S
S938 N939 1.613 . S
S938 N940 1.610 1_554 S
N939 S938 1.613 . S
N939 C942 1.350 . S
N940 S938 1.610 1_556 S
N940 C941 1.351 . S
C941 C935 1.428 . S
C941 N940 1.351 . S
C941 C942 1.434 1_556 S
C942 C933 1.429 . S
C942 N939 1.350 . S
C942 C941 1.434 1_554 S
C943 C944 1.369 1_655 S
C943 C945 1.419 . S
C943 H947 0.930 . S
C944 C943 1.369 1_455 S
C944 C953 1.429 . S
C945 C943 1.419 . S
C945 C946 1.363 . S
C945 H948 0.929 . S
C946 C945 1.363 . S
C946 C952 1.428 . S
H947 C943 0.930 . S
H948 C945 0.929 . S
S949 N950 1.613 . S
S949 N951 1.610 . S
N950 S949 1.613 . S
N950 C953 1.350 . S
N951 S949 1.610 . S
N951 C952 1.351 1_455 S
C952 C946 1.428 . S
C952 N951 1.351 1_655 S
C952 C953 1.434 1_655 S
C953 C944 1.429 . S
C953 N950 1.350 . S
C953 C952 1.434 1_455 S
C954 C955 1.369 1_655 S
C954 C956 1.392 1_554 S
C954 H958 0.930 . S
C955 C954 1.369 1_455 S
C955 C964 1.429 . S
C956 C954 1.392 1_556 S
C956 C957 1.386 . S
C956 H959 0.934 . S
C957 C956 1.386 . S
C957 C963 1.428 1_655 S
H958 C954 0.930 . S
H959 C956 0.934 . S
S960 N961 1.613 1_556 S
S960 N962 1.610 . S
N961 S960 1.613 1_554 S
N961 C964 1.350 . S
N962 S960 1.610 . S
N962 C963 1.351 . S
C963 C957 1.428 1_455 S
C963 N962 1.351 . S
C963 C964 1.434 1_556 S
C964 C955 1.429 . S
C964 N961 1.350 . S
C964 C963 1.434 1_554 S
C965 C966 1.369 . S
C965 C967 1.419 . S
C965 H969 0.930 . S
C966 C965 1.369 . S
C966 C975 1.429 . S
C967 C965 1.419 . S
C967 C968 1.363 . S
C967 H970 0.929 . S
C968 C967 1.363 . S
C968 C974 1.428 . S
H969 C965 0.930 . S
H970 C967 0.929 . S
S971 N972 1.613 . S
S971 N973 1.610 . S
N972 S971 1.613 . S
N972 C975 1.350 . S
N973 S971 1.610 . S
N973 C974 1.351 . S
C974 C968 1.428 . S
C974 N973 1.351 . S
C974 C975 1.434 . S
C975 C966 1.429 . S
C975 N972 1.350 . S
C975 C974 1.434 . S
C976 C977 1.369 . S
C976 C978 1.419 . S
C976 H980 0.930 . S
C977 C976 1.369 . S
C977 C986 1.429 . S
C978 C976 1.419 . S
C978 C979 1.363 . S
C978 H981 0.929 . S
C979 C978 1.363 . S
C979 C985 1.428 . S
H980 C976 0.930 . S
H981 C978 0.929 . S
S982 N983 1.613 . S
S982 N984 1.610 . S
N983 S982 1.613 . S
N983 C986 1.350 . S
N984 S982 1.610 . S
N984 C985 1.351 . S
C985 C979 1.428 . S
C985 N984 1.351 . S
C985 C986 1.434 . S
C986 C977 1.429 . S
C986 N983 1.350 . S
C986 C985 1.434 . S
C987 C988 1.369 . S
C987 C989 1.419 . S
C987 H991 0.930 . S
C988 C987 1.369 . S
C988 C997 1.429 . S
C989 C987 1.419 . S
C989 C990 1.363 . S
C989 H992 0.929 . S
C990 C989 1.363 . S
C990 C996 1.428 . S
H991 C987 0.930 . S
H992 C989 0.929 . S
S993 N994 1.613 . S
S993 N995 1.610 . S
N994 S993 1.613 . S
N994 C997 1.350 . S
N995 S993 1.610 . S
N995 C996 1.351 . S
C996 C990 1.428 . S
C996 N995 1.351 . S
C996 C997 1.434 . S
C997 C988 1.429 . S
C997 N994 1.350 . S
C997 C996 1.434 . S
C998 C999 1.369 . S
C998 C1000 1.419 . S
C998 H1002 0.930 . S
C999 C998 1.369 . S
C999 C1008 1.429 . S
C1000 C998 1.419 . S
C1000 C1001 1.363 . S
C1000 H1003 0.929 . S
C1001 C1000 1.363 . S
C1001 C1007 1.428 . S
H1002 C998 0.930 . S
H1003 C1000 0.929 . S
S1004 N1005 1.613 . S
S1004 N1006 1.610 . S
N1005 S1004 1.613 . S
N1005 C1008 1.350 . S
N1006 S1004 1.610 . S
N1006 C1007 1.351 . S
C1007 C1001 1.428 . S
C1007 N1006 1.351 . S
C1007 C1008 1.434 . S
C1008 C999 1.429 . S
C1008 N1005 1.350 . S
C1008 C1007 1.434 . S
C1009 C1010 1.369 . S
C1009 C1011 1.419 . S
C1009 H1013 0.930 . S
C1010 C1009 1.369 . S
C1010 C1019 1.429 . S
C1011 C1009 1.419 . S
C1011 C1012 1.363 . S
C1011 H1014 0.929 . S
C1012 C1011 1.363 . S
C1012 C1018 1.428 . S
H1013 C1009 0.930 . S
H1014 C1011 0.929 . S
S1015 N1016 1.613 . S
S1015 N1017 1.610 . S
N1016 S1015 1.613 . S
N1016 C1019 1.350 . S
N1017 S1015 1.610 . S
N1017 C1018 1.351 . S
C1018 C1012 1.428 . S
C1018 N1017 1.351 . S
C1018 C1019 1.434 . S
C1019 C1010 1.429 . S
C1019 N1016 1.350 . S
C1019 C1018 1.434 . S
C1020 C1021 1.369 . S
C1020 C1022 1.419 . S
C1020 H1024 0.930 . S
C1021 C1020 1.369 . S
C1021 C1030 1.429 . S
C1022 C1020 1.419 . S
C1022 C1023 1.363 . S
C1022 H1025 0.929 . S
C1023 C1022 1.363 . S
C1023 C1029 1.428 . S
H1024 C1020 0.930 . S
H1025 C1022 0.929 . S
S1026 N1027 1.613 . S
S1026 N1028 1.610 . S
N1027 S1026 1.613 . S
N1027 C1030 1.350 . S
N1028 S1026 1.610 . S
N1028 C1029 1.351 . S
C1029 C1023 1.428 . S
C1029 N1028 1.351 . S
C1029 C1030 1.434 . S
C1030 C1021 1.429 . S
C1030 N1027 1.350 . S
C1030 C1029 1.434 . S
C1031 C1032 1.369 . S
C1031 C1033 1.419 . S
C1031 H1035 0.930 . S
C1032 C1031 1.369 . S
C1032 C1041 1.429 . S
C1033 C1031 1.419 . S
C1033 C1034 1.363 . S
C1033 H1036 0.929 . S
C1034 C1033 1.363 . S
C1034 C1040 1.428 . S
H1035 C1031 0.930 . S
H1036 C1033 0.929 . S
S1037 N1038 1.613 . S
S1037 N1039 1.610 . S
N1038 S1037 1.613 . S
N1038 C1041 1.350 . S
N1039 S1037 1.610 . S
N1039 C1040 1.351 . S
C1040 C1034 1.428 . S
C1040 N1039 1.351 . S
C1040 C1041 1.434 . S
C1041 C1032 1.429 . S
C1041 N1038 1.350 . S
C1041 C1040 1.434 . S
C1042 C1043 1.369 . S
C1042 C1044 1.419 . S
C1042 H1046 0.930 . S
C1043 C1042 1.369 . S
C1043 C1052 1.429 . S
C1044 C1042 1.419 . S
C1044 C1045 1.363 . S
C1044 H1047 0.929 . S
C1045 C1044 1.363 . S
C1045 C1051 1.428 . S
H1046 C1042 0.930 . S
H1047 C1044 0.929 . S
S1048 N1049 1.613 . S
S1048 N1050 1.610 . S
N1049 S1048 1.613 . S
N1049 C1052 1.350 . S
N1050 S1048 1.610 . S
N1050 C1051 1.351 . S
C1051 C1045 1.428 . S
C1051 N1050 1.351 . S
C1051 C1052 1.434 . S
C1052 C1043 1.429 . S
C1052 N1049 1.350 . S
C1052 C1051 1.434 . S
C1053 C1054 1.369 . S
C1053 C1055 1.419 . S
C1053 H1057 0.930 . S
C1054 C1053 1.369 . S
C1054 C1063 1.429 . S
C1055 C1053 1.419 . S
C1055 C1056 1.363 . S
C1055 H1058 0.929 . S
C1056 C1055 1.363 . S
C1056 C1062 1.428 . S
H1057 C1053 0.930 . S
H1058 C1055 0.929 . S
S1059 N1060 1.613 . S
S1059 N1061 1.610 . S
N1060 S1059 1.613 . S
N1060 C1063 1.350 . S
N1061 S1059 1.610 . S
N1061 C1062 1.351 . S
C1062 C1056 1.428 . S
C1062 N1061 1.351 . S
C1062 C1063 1.434 . S
C1063 C1054 1.429 . S
C1063 N1060 1.350 . S
C1063 C1062 1.434 . S
C1064 C1065 1.369 . S
C1064 C1066 1.419 . S
C1064 H1068 0.930 . S
C1065 C1064 1.369 . S
C1065 C1074 1.429 . S
C1066 C1064 1.419 . S
C1066 C1067 1.363 . S
C1066 H1069 0.929 . S
C1067 C1066 1.363 . S
C1067 C1073 1.428 . S
H1068 C1064 0.930 . S
H1069 C1066 0.929 . S
S1070 N1071 1.613 . S
S1070 N1072 1.610 . S
N1071 S1070 1.613 . S
N1071 C1074 1.350 . S
N1072 S1070 1.610 . S
N1072 C1073 1.351 . S
C1073 C1067 1.428 . S
C1073 N1072 1.351 . S
C1073 C1074 1.434 . S
C1074 C1065 1.429 . S
C1074 N1071 1.350 . S
C1074 C1073 1.434 . S
C1075 C1076 1.369 . S
C1075 C1077 1.419 . S
C1075 H1079 0.930 . S
C1076 C1075 1.369 . S
C1076 C1085 1.429 . S
C1077 C1075 1.419 . S
C1077 C1078 1.363 . S
C1077 H1080 0.929 . S
C1078 C1077 1.363 . S
C1078 C1084 1.428 . S
H1079 C1075 0.930 . S
H1080 C1077 0.929 . S
S1081 N1082 1.613 . S
S1081 N1083 1.610 . S
N1082 S1081 1.613 . S
N1082 C1085 1.350 . S
N1083 S1081 1.610 . S
N1083 C1084 1.351 . S
C1084 C1078 1.428 . S
C1084 N1083 1.351 . S
C1084 C1085 1.434 . S
C1085 C1076 1.429 . S
C1085 N1082 1.350 . S
C1085 C1084 1.434 . S
C1086 C1087 1.369 . S
C1086 C1088 1.419 . S
C1086 H1090 0.930 . S
C1087 C1086 1.369 . S
C1087 C1096 1.429 . S
C1088 C1086 1.419 . S
C1088 C1089 1.363 . S
C1088 H1091 0.929 . S
C1089 C1088 1.363 . S
C1089 C1095 1.428 . S
H1090 C1086 0.930 . S
H1091 C1088 0.929 . S
S1092 N1093 1.613 . S
S1092 N1094 1.610 . S
N1093 S1092 1.613 . S
N1093 C1096 1.350 . S
N1094 S1092 1.610 . S
N1094 C1095 1.351 . S
C1095 C1089 1.428 . S
C1095 N1094 1.351 . S
C1095 C1096 1.434 . S
C1096 C1087 1.429 . S
C1096 N1093 1.350 . S
C1096 C1095 1.434 . S
C1097 C1098 1.369 . S
C1097 C1099 1.419 . S
C1097 H1101 0.930 . S
C1098 C1097 1.369 . S
C1098 C1107 1.429 . S
C1099 C1097 1.419 . S
C1099 C1100 1.363 . S
C1099 H1102 0.929 . S
C1100 C1099 1.363 . S
C1100 C1106 1.428 . S
H1101 C1097 0.930 . S
H1102 C1099 0.929 . S
S1103 N1104 1.613 . S
S1103 N1105 1.610 . S
N1104 S1103 1.613 . S
N1104 C1107 1.350 . S
N1105 S1103 1.610 . S
N1105 C1106 1.351 . S
C1106 C1100 1.428 . S
C1106 N1105 1.351 . S
C1106 C1107 1.434 . S
C1107 C1098 1.429 . S
C1107 N1104 1.350 . S
C1107 C1106 1.434 . S
C1108 C1109 1.369 . S
C1108 C1110 1.419 . S
C1108 H1112 0.930 . S
C1109 C1108 1.369 . S
C1109 C1118 1.429 . S
C1110 C1108 1.419 . S
C1110 C1111 1.363 . S
C1110 H1113 0.929 . S
C1111 C1110 1.363 . S
C1111 C1117 1.428 . S
H1112 C1108 0.930 . S
H1113 C1110 0.929 . S
S1114 N1115 1.613 . S
S1114 N1116 1.610 . S
N1115 S1114 1.613 . S
N1115 C1118 1.350 . S
N1116 S1114 1.610 . S
N1116 C1117 1.351 . S
C1117 C1111 1.428 . S
C1117 N1116 1.351 . S
C1117 C1118 1.434 . S
C1118 C1109 1.429 . S
C1118 N1115 1.350 . S
C1118 C1117 1.434 . S
C1119 C1120 1.369 . S
C1119 C1121 1.419 . S
C1119 H1123 0.930 . S
C1120 C1119 1.369 . S
C1120 C1129 1.429 . S
C1121 C1119 1.419 . S
C1121 C1122 1.363 . S
C1121 H1124 0.929 . S
C1122 C1121 1.363 . S
C1122 C1128 1.428 . S
H1123 C1119 0.930 . S
H1124 C1121 0.929 . S
S1125 N1126 1.613 . S
S1125 N1127 1.610 . S
N1126 S1125 1.613 . S
N1126 C1129 1.350 . S
N1127 S1125 1.610 . S
N1127 C1128 1.351 . S
C1128 C1122 1.428 . S
C1128 N1127 1.351 . S
C1128 C1129 1.434 . S
C1129 C1120 1.429 . S
C1129 N1126 1.350 . S
C1129 C1128 1.434 . S
C1130 C1131 1.369 . S
C1130 C1132 1.419 . S
C1130 H1134 0.930 . S
C1131 C1130 1.369 . S
C1131 C1140 1.429 . S
C1132 C1130 1.419 . S
C1132 C1133 1.363 . S
C1132 H1135 0.929 . S
C1133 C1132 1.363 . S
C1133 C1139 1.428 . S
H1134 C1130 0.930 . S
H1135 C1132 0.929 . S
S1136 N1137 1.613 . S
S1136 N1138 1.610 . S
N1137 S1136 1.613 . S
N1137 C1140 1.350 . S
N1138 S1136 1.610 . S
N1138 C1139 1.351 . S
C1139 C1133 1.428 . S
C1139 N1138 1.351 . S
C1139 C1140 1.434 . S
C1140 C1131 1.429 . S
C1140 N1137 1.350 . S
C1140 C1139 1.434 . S
C1141 C1142 1.369 . S
C1141 C1143 1.419 . S
C1141 H1145 0.930 . S
C1142 C1141 1.369 . S
C1142 C1151 1.429 . S
C1143 C1141 1.419 . S
C1143 C1144 1.363 . S
C1143 H1146 0.929 . S
C1144 C1143 1.363 . S
C1144 C1150 1.428 . S
H1145 C1141 0.930 . S
H1146 C1143 0.929 . S
S1147 N1148 1.613 . S
S1147 N1149 1.610 . S
N1148 S1147 1.613 . S
N1148 C1151 1.350 . S
N1149 S1147 1.610 . S
N1149 C1150 1.351 . S
C1150 C1144 1.428 . S
C1150 N1149 1.351 . S
C1150 C1151 1.434 . S
C1151 C1142 1.429 . S
C1151 N1148 1.350 . S
C1151 C1150 1.434 . S
C449 C385 1.432 . S
C451 C8 1.352 . S
C460 C21 1.312 . S
C462 C119 1.338 . S
C471 C357 1.432 . S
C473 C36 1.351 . S
C482 C49 1.312 . S
C484 C147 1.338 . S
C493 C64 1.358 . S
C495 C413 1.431 . S
C504 C77 1.315 . S
C506 C203 1.338 . S
C515 C92 1.349 . S
C517 C441 1.432 . S
C526 C105 1.315 . S
C528 C175 1.338 . S
C537 C274 1.309 . S
C539 C120 1.305 . S
C548 C7 1.288 . S
C550 C134 1.225 . S
C559 C246 1.304 . S
C561 C148 1.304 . S
C570 C162 1.213 . S
C572 C35 1.288 . S
C581 C302 1.308 . S
C583 C176 1.314 . S
C592 C91 1.288 . S
C594 C190 1.222 . S
C603 C204 1.308 . S
C605 C330 1.311 . S
C614 C63 1.288 . S
C616 C218 1.220 . S
C625 C232 1.346 . S
C627 C161 1.432 . S
C636 C245 1.311 . S
C638 C343 1.338 . S
C647 C133 1.432 . S
C649 C260 1.350 . S
C658 C371 1.338 . S
C660 C273 1.314 . S
C669 C189 1.432 . S
C671 C288 1.349 . S
C680 C427 1.338 . S
C682 C301 1.313 . S
C691 C217 1.432 . S
C693 C316 1.347 . S
C702 C329 1.312 . S
C704 C399 1.338 . S
C713 C50 1.313 . S
C715 C344 1.311 . S
C724 C358 1.215 . S
C726 C231 1.288 . S
C735 C372 1.315 . S
C737 C22 1.309 . S
C746 C386 1.223 . S
C748 C259 1.288 . S
C757 C400 1.308 . S
C759 C78 1.302 . S
C768 C414 1.214 . S
C770 C315 1.288 . S
C779 C428 1.311 . S
C781 C106 1.312 . S
C790 C442 1.219 . S
C792 C287 1.288 . S
C801 C349 1.409 . S
C803 C13 1.399 . S
C812 C25 1.508 . S
C814 C139 1.434 . S
C823 C377 1.405 . S
C825 C41 1.403 . S
C834 C53 1.508 . S
C836 C167 1.442 . S
C845 C405 1.410 . S
C847 C69 1.399 . S
C856 C81 1.509 . S
C858 C195 1.435 . S
C867 C433 1.403 . S
C869 C97 1.404 . S
C878 C109 1.503 . S
C880 C223 1.443 . S
C889 C125 1.405 . S
C891 C237 1.403 . S
C900 C153 1.405 . S
C902 C265 1.403 . S
C911 C181 1.401 . S
C913 C293 1.406 . S
C922 C209 1.408 . S
C924 C321 1.400 . S
C933 C249 1.504 . S
C935 C363 1.436 . S
C944 C391 1.445 . S
C946 C277 1.504 . S
C955 C419 1.442 . S
C957 C305 1.503 . S
C966 C333 1.505 . S
C968 C447 1.435 . S
C977 C11 1.294 . S
C979 C83 1.266 . S
C988 C27 1.260 . S
C990 C95 1.289 . S
C999 C39 1.294 . S
C1001 C111 1.266 . S
C1010 C67 1.292 . S
C1012 C55 1.264 . S
C1021 C123 1.319 . S
C1023 C193 1.332 . S
C1032 C137 1.332 . S
C1034 C207 1.319 . S
C1043 C151 1.321 . S
C1045 C221 1.333 . S
C1054 C165 1.335 . S
C1056 C179 1.323 . S
C1065 C235 1.286 . S
C1067 C307 1.263 . S
C1076 C319 1.293 . S
C1078 C251 1.265 . S
C1087 C263 1.292 . S
C1089 C335 1.269 . S
C1098 C279 1.261 . S
C1100 C291 1.290 . S
C1109 C417 1.329 . S
C1111 C347 1.316 . S
C1120 C361 1.334 . S
C1122 C431 1.323 . S
C1131 C445 1.332 . S
C1133 C375 1.323 . S
C1142 C389 1.332 . S
C1144 C403 1.323 . S
