# Generated by pormake.
# Topology wka, (5)-cn, num edge types: 1
# Building blocks:
#     Node 0, Type 0, BuildingBlock: XOMCOT_clean_sbu_0, # of connection points: 5
#     Node 1, Type 0, BuildingBlock: XOMCOT_clean_sbu_0, # of connection points: 5
#     Node 2, Type 0, BuildingBlock: XOMCOT_clean_sbu_0, # of connection points: 5
#     Node 3, Type 0, BuildingBlock: XOMCOT_clean_sbu_0, # of connection points: 5
#     Node 4, Type 0, BuildingBlock: XOMCOT_clean_sbu_0, # of connection points: 5
#     Node 5, Type 0, BuildingBlock: XOMCOT_clean_sbu_0, # of connection points: 5
#     Node 6, Type 0, BuildingBlock: XOMCOT_clean_sbu_0, # of connection points: 5
#     Node 7, Type 0, BuildingBlock: XOMCOT_clean_sbu_0, # of connection points: 5
#     Node 8, Type 0, BuildingBlock: XOMCOT_clean_sbu_0, # of connection points: 5
#     Node 9, Type 0, BuildingBlock: XOMCOT_clean_sbu_0, # of connection points: 5
#     Node 10, Type 0, BuildingBlock: XOMCOT_clean_sbu_0, # of connection points: 5
#     Node 11, Type 0, BuildingBlock: XOMCOT_clean_sbu_0, # of connection points: 5
#     Edge 12, Type (0, 0), BuildingBlock: MIFKUJ_clean_linker_0, # of connection points: 2
#     Edge 13, Type (0, 0), BuildingBlock: MIFKUJ_clean_linker_0, # of connection points: 2
#     Edge 14, Type (0, 0), BuildingBlock: MIFKUJ_clean_linker_0, # of connection points: 2
#     Edge 15, Type (0, 0), BuildingBlock: MIFKUJ_clean_linker_0, # of connection points: 2
#     Edge 16, Type (0, 0), BuildingBlock: MIFKUJ_clean_linker_0, # of connection points: 2
#     Edge 17, Type (0, 0), BuildingBlock: MIFKUJ_clean_linker_0, # of connection points: 2
#     Edge 18, Type (0, 0), BuildingBlock: MIFKUJ_clean_linker_0, # of connection points: 2
#     Edge 19, Type (0, 0), BuildingBlock: MIFKUJ_clean_linker_0, # of connection points: 2
#     Edge 20, Type (0, 0), BuildingBlock: MIFKUJ_clean_linker_0, # of connection points: 2
#     Edge 21, Type (0, 0), BuildingBlock: MIFKUJ_clean_linker_0, # of connection points: 2
#     Edge 22, Type (0, 0), BuildingBlock: MIFKUJ_clean_linker_0, # of connection points: 2
#     Edge 23, Type (0, 0), BuildingBlock: MIFKUJ_clean_linker_0, # of connection points: 2
#     Edge 24, Type (0, 0), BuildingBlock: MIFKUJ_clean_linker_0, # of connection points: 2
#     Edge 25, Type (0, 0), BuildingBlock: MIFKUJ_clean_linker_0, # of connection points: 2
#     Edge 26, Type (0, 0), BuildingBlock: MIFKUJ_clean_linker_0, # of connection points: 2
#     Edge 27, Type (0, 0), BuildingBlock: MIFKUJ_clean_linker_0, # of connection points: 2
#     Edge 28, Type (0, 0), BuildingBlock: MIFKUJ_clean_linker_0, # of connection points: 2
#     Edge 29, Type (0, 0), BuildingBlock: MIFKUJ_clean_linker_0, # of connection points: 2
#     Edge 30, Type (0, 0), BuildingBlock: MIFKUJ_clean_linker_0, # of connection points: 2
#     Edge 31, Type (0, 0), BuildingBlock: MIFKUJ_clean_linker_0, # of connection points: 2
#     Edge 32, Type (0, 0), BuildingBlock: MIFKUJ_clean_linker_0, # of connection points: 2
#     Edge 33, Type (0, 0), BuildingBlock: MIFKUJ_clean_linker_0, # of connection points: 2
#     Edge 34, Type (0, 0), BuildingBlock: MIFKUJ_clean_linker_0, # of connection points: 2
#     Edge 35, Type (0, 0), BuildingBlock: MIFKUJ_clean_linker_0, # of connection points: 2
#     Edge 36, Type (0, 0), BuildingBlock: MIFKUJ_clean_linker_0, # of connection points: 2
#     Edge 37, Type (0, 0), BuildingBlock: MIFKUJ_clean_linker_0, # of connection points: 2
#     Edge 38, Type (0, 0), BuildingBlock: MIFKUJ_clean_linker_0, # of connection points: 2
#     Edge 39, Type (0, 0), BuildingBlock: MIFKUJ_clean_linker_0, # of connection points: 2
#     Edge 40, Type (0, 0), BuildingBlock: MIFKUJ_clean_linker_0, # of connection points: 2
#     Edge 41, Type (0, 0), BuildingBlock: MIFKUJ_clean_linker_0, # of connection points: 2
# Relax obj value: 0.219
# Max RMSD: 0.182
# Mean RMSD: 0.182
data_MOF--net-wka--node1-XOMCOT_clean_sbu_0--edge1-MIFKUJ_clean_linker_0
_symmetry_space_group_name_H-M    P1
_symmetry_Int_Tables_number       1
_symmetry_cell_setting            triclinic
loop_
_symmetry_equiv_pos_as_xyz
'x, y, z'
_cell_length_a     86.068847
_cell_length_b     86.075453
_cell_length_c     21.55092
_cell_angle_alpha  89.98716
_cell_angle_beta   90.021915
_cell_angle_gamma 120.00726
loop_
_atom_site_label
_atom_site_type_symbol
_atom_site_fract_x
_atom_site_fract_y
_atom_site_fract_z
_atom_type_partial_charge
Co0 Co 0.10314 0.41744 0.13168 0.0
C1 C 0.09581 0.41352 0.26556 0.0
C2 C 0.07486 0.3916 0.21474 0.0
C3 C 0.07131 0.38845 0.27728 0.0
N4 N 0.09022 0.40731 0.20772 0.0
N5 N 0.08455 0.40222 0.30917 0.0
H6 H 0.10835 0.42563 0.27536 0.0
H7 H 0.0671 0.38276 0.17725 0.0
C8 C 0.07516 0.41265 0.04079 0.0
O9 O 0.08548 0.42967 0.02647 0.0
N10 N 0.11625 0.42703 0.0544 0.0
C11 C 0.13205 0.44215 0.04398 0.0
C12 C 0.13654 0.44276 0.98234 0.0
C13 C 0.11197 0.41826 -0.00047 0.0
N14 N 0.12382 0.42775 0.95441 0.0
C15 C 0.11643 0.45478 0.15794 0.0
C16 C 0.08351 0.45301 0.15759 0.0
C17 C 0.09914 0.46992 0.15946 0.0
C18 C 0.11572 0.47056 0.16301 0.0
C19 C 0.0849 0.43756 0.15365 0.0
N20 N 0.10126 0.43875 0.14736 0.0
H21 H 0.12922 0.45551 0.16282 0.0
H22 H 0.07274 0.42465 0.15308 0.0
H23 H 0.1403 0.45186 0.07834 0.0
H24 H 0.10021 0.40523 0.99259 0.0
O25 O 0.12541 0.42471 0.17363 0.0
O26 O 0.10887 0.3984 0.12705 0.0
O27 O 0.07989 0.40549 0.08335 0.0
C28 C 0.12331 0.40919 0.158 0.0
H29 H 0.06003 0.37674 0.29756 0.0
H30 H 0.14842 0.45331 0.96012 0.0
H31 H 0.07031 0.45166 0.15672 0.0
H32 H 0.1281 0.48317 0.16898 0.0
Co33 Co 0.69101 0.10767 0.26609 0.0
C34 C 0.68878 0.10173 0.40132 0.0
C35 C 0.69032 0.08097 0.35223 0.0
C36 C 0.69183 0.07864 0.41455 0.0
N37 N 0.68789 0.09517 0.34386 0.0
N38 N 0.69105 0.09186 0.44502 0.0
H39 H 0.68939 0.11432 0.41097 0.0
H40 H 0.69248 0.07369 0.31557 0.0
C41 C 0.66724 0.06946 0.23166 0.0
O42 O 0.65718 0.0682 0.27943 0.0
N43 N 0.6949 0.12015 0.18906 0.0
C44 C 0.69378 0.13495 0.17762 0.0
C45 C 0.69702 0.13895 0.1154 0.0
C46 C 0.69894 0.11545 0.13477 0.0
N47 N 0.70014 0.12658 0.08882 0.0
C48 C 0.66302 0.11313 0.31661 0.0
C49 C 0.6396 0.09782 0.21819 0.0
C50 C 0.63484 0.1055 0.26657 0.0
C51 C 0.64682 0.11323 0.31632 0.0
C52 C 0.65598 0.09823 0.21994 0.0
N53 N 0.66726 0.10526 0.2697 0.0
H54 H 0.67247 0.12022 0.35303 0.0
H55 H 0.65978 0.0933 0.18005 0.0
H56 H 0.69044 0.14202 0.21177 0.0
H57 H 0.70085 0.10403 0.12899 0.0
O58 O 0.70453 0.13042 0.3073 0.0
O59 O 0.71604 0.11445 0.26831 0.0
O60 O 0.68144 0.08432 0.2197 0.0
C61 C 0.71858 0.12888 0.29681 0.0
H62 H 0.69483 0.06899 0.43535 0.0
H63 H 0.69646 0.14969 0.09125 0.0
H64 H 0.63088 0.09171 0.1786 0.0
H65 H 0.6441 0.11996 0.3536 0.0
Co66 Co 0.58612 0.69234 0.435 0.0
C67 C 0.59299 0.69522 0.57049 0.0
C68 C 0.61653 0.70163 0.51797 0.0
C69 C 0.62123 0.70485 0.57958 0.0
N70 N 0.59868 0.69505 0.5124 0.0
N71 N 0.60639 0.70089 0.61225 0.0
H72 H 0.57963 0.69225 0.5822 0.0
H73 H 0.62571 0.70476 0.47958 0.0
C74 C 0.60615 0.6729 0.41285 0.0
O75 O 0.60037 0.6649 0.46674 0.0
N76 N 0.57419 0.69036 0.35777 0.0
C77 C 0.55696 0.68593 0.34894 0.0
C78 C 0.55378 0.68505 0.286 0.0
C79 C 0.58128 0.6922 0.30096 0.0
N80 N 0.56908 0.68889 0.25623 0.0
C81 C 0.55544 0.66456 0.49976 0.0
C82 C 0.54907 0.63741 0.41738 0.0
C83 C 0.53671 0.63383 0.46527 0.0
C84 C 0.54027 0.64764 0.50748 0.0
C85 C 0.56418 0.65442 0.41191 0.0
N86 N 0.56748 0.66776 0.45343 0.0
H87 H 0.55665 0.67531 0.52841 0.0
H88 H 0.57249 0.65712 0.37135 0.0
H89 H 0.54735 0.68317 0.38562 0.0
H90 H 0.59511 0.69595 0.29255 0.0
O91 O 0.57509 0.70507 0.46978 0.0
O92 O 0.60139 0.7177 0.42134 0.0
O93 O 0.60152 0.68401 0.39336 0.0
C94 C 0.58922 0.71962 0.45056 0.0
H95 H 0.63463 0.71049 0.59849 0.0
H96 H 0.54112 0.68145 0.26392 0.0
H97 H 0.5466 0.62754 0.38188 0.0
H98 H 0.53105 0.64567 0.54481 0.0
Co99 Co 0.89407 0.58209 0.61844 0.0
C100 C 0.90058 0.58601 0.7538 0.0
C101 C 0.92154 0.60795 0.70407 0.0
C102 C 0.92415 0.61172 0.7664 0.0
N103 N 0.90701 0.59154 0.69594 0.0
N104 N 0.91083 0.59795 0.79776 0.0
H105 H 0.88765 0.57445 0.76325 0.0
H106 H 0.92898 0.61729 0.6674 0.0
C107 C 0.93208 0.59743 0.57796 0.0
O108 O 0.93449 0.58899 0.62455 0.0
N109 N 0.88104 0.57333 0.54188 0.0
C110 C 0.86602 0.55752 0.5319 0.0
C111 C 0.86135 0.55665 0.4703 0.0
C112 C 0.88524 0.58192 0.48704 0.0
N113 N 0.8735 0.57201 0.44212 0.0
C114 C 0.89073 0.54947 0.6688 0.0
C115 C 0.90566 0.54184 0.56797 0.0
C116 C 0.89951 0.52997 0.61818 0.0
C117 C 0.89178 0.53378 0.66881 0.0
C118 C 0.90402 0.55715 0.56933 0.0
N119 N 0.8973 0.56124 0.62035 0.0
H120 H 0.88402 0.55173 0.7068 0.0
H121 H 0.9079 0.56557 0.52857 0.0
H122 H 0.85909 0.5473 0.56676 0.0
H123 H 0.89695 0.59496 0.48003 0.0
O124 O 0.87168 0.57223 0.66219 0.0
O125 O 0.88657 0.59976 0.62281 0.0
O126 O 0.91689 0.59638 0.56985 0.0
C127 C 0.87268 0.58765 0.65315 0.0
H128 H 0.93451 0.62413 0.78641 0.0
H129 H 0.84993 0.54551 0.44819 0.0
H130 H 0.91113 0.53901 0.52706 0.0
H131 H 0.88648 0.52466 0.70783 0.0
Co132 Co 0.30674 0.88787 0.74779 0.0
C133 C 0.31019 0.89579 0.88043 0.0
C134 C 0.30575 0.9147 0.82978 0.0
C135 C 0.30581 0.91809 0.89238 0.0
N136 N 0.30849 0.90071 0.82278 0.0
N137 N 0.30857 0.90613 0.924 0.0
H138 H 0.31159 0.88421 0.89018 0.0
H139 H 0.30318 0.92147 0.79228 0.0
C140 C 0.32909 0.91578 0.6561 0.0
O141 O 0.33618 0.90574 0.64273 0.0
N142 N 0.30418 0.87464 0.67159 0.0
C143 C 0.30493 0.85952 0.66213 0.0
C144 C 0.30205 0.85509 0.60018 0.0
C145 C 0.29966 0.8784 0.61592 0.0
N146 N 0.29889 0.8671 0.57118 0.0
C147 C 0.33235 0.8767 0.77756 0.0
C148 C 0.3621 0.91069 0.78037 0.0
C149 C 0.36455 0.89581 0.78451 0.0
C150 C 0.34932 0.87864 0.78555 0.0
C151 C 0.34486 0.90808 0.77247 0.0
N152 N 0.33043 0.8912 0.76549 0.0
H153 H 0.32078 0.86352 0.78164 0.0
H154 H 0.34319 0.9197 0.77075 0.0
H155 H 0.30692 0.85176 0.69708 0.0
H156 H 0.29758 0.88963 0.60792 0.0
O157 O 0.29239 0.86553 0.79034 0.0
O158 O 0.28174 0.881 0.74132 0.0
O159 O 0.31729 0.91098 0.69897 0.0
C160 C 0.27863 0.86695 0.77365 0.0
H161 H 0.30359 0.92828 0.91294 0.0
H162 H 0.30221 0.84385 0.57828 0.0
H163 H 0.37339 0.92423 0.78281 0.0
H164 H 0.35045 0.86674 0.79092 0.0
Co165 Co 0.41665 0.30575 0.89442 0.0
C166 C 0.41151 0.30618 0.02955 0.0
C167 C 0.38832 0.30207 0.97936 0.0
C168 C 0.38412 0.29969 0.0415 0.0
N169 N 0.4057 0.30666 0.9719 0.0
N170 N 0.39871 0.30209 0.0726 0.0
H171 H 0.42425 0.30724 0.03978 0.0
H172 H 0.3789 0.29925 0.94199 0.0
C173 C 0.39971 0.32759 0.86421 0.0
O174 O 0.40661 0.3365 0.91595 0.0
N175 N 0.42692 0.30406 0.81771 0.0
C176 C 0.44354 0.30676 0.80785 0.0
C177 C 0.44539 0.30466 0.74536 0.0
C178 C 0.41883 0.30023 0.76214 0.0
N179 N 0.42984 0.30066 0.71697 0.0
C180 C 0.44896 0.33388 0.95108 0.0
C181 C 0.45585 0.35935 0.86089 0.0
C182 C 0.46805 0.36375 0.90987 0.0
C183 C 0.46445 0.35072 0.95537 0.0
C184 C 0.44068 0.34235 0.8581 0.0
N185 N 0.43692 0.33002 0.90412 0.0
H186 H 0.44727 0.32372 0.98372 0.0
H187 H 0.43228 0.33896 0.81743 0.0
H188 H 0.45366 0.31032 0.84335 0.0
H189 H 0.40515 0.29718 0.75502 0.0
O190 O 0.42637 0.29255 0.93484 0.0
O191 O 0.3995 0.28043 0.8905 0.0
O192 O 0.40241 0.31483 0.84837 0.0
C193 C 0.41126 0.2782 0.92128 0.0
H194 H 0.37102 0.29514 0.06168 0.0
H195 H 0.45736 0.30646 0.72243 0.0
H196 H 0.45808 0.36885 0.82422 0.0
H197 H 0.47387 0.35322 0.9926 0.0
Co198 Co 0.58098 0.88742 0.75052 0.0
C199 C 0.58416 0.89535 0.61728 0.0
C200 C 0.60647 0.91596 0.6677 0.0
C201 C 0.60953 0.9195 0.60514 0.0
N202 N 0.59058 0.90082 0.67498 0.0
N203 N 0.59552 0.90645 0.57355 0.0
H204 H 0.57195 0.88289 0.60756 0.0
H205 H 0.61558 0.92345 0.70497 0.0
C206 C 0.58638 0.91484 0.84455 0.0
O207 O 0.56952 0.9042 0.86023 0.0
N208 N 0.57191 0.87365 0.82702 0.0
C209 C 0.55721 0.8574 0.83611 0.0
C210 C 0.5563 0.85281 0.89772 0.0
C211 C 0.58035 0.87797 0.8825 0.0
N212 N 0.57081 0.86587 0.92686 0.0
C213 C 0.54331 0.87452 0.73136 0.0
C214 C 0.54594 0.90785 0.73001 0.0
C215 C 0.52888 0.89247 0.73046 0.0
C216 C 0.5277 0.87564 0.72856 0.0
C217 C 0.56117 0.90606 0.73281 0.0
N218 N 0.55965 0.88954 0.73905 0.0
H219 H 0.54218 0.86158 0.72646 0.0
H220 H 0.57422 0.91805 0.73189 0.0
H221 H 0.54797 0.84897 0.80089 0.0
H222 H 0.59305 0.89002 0.89077 0.0
O223 O 0.57327 0.86545 0.70605 0.0
O224 O 0.60004 0.88174 0.75043 0.0
O225 O 0.59329 0.91043 0.80019 0.0
C226 C 0.58902 0.86763 0.71843 0.0
H227 H 0.62138 0.93054 0.58458 0.0
H228 H 0.54583 0.84075 0.91931 0.0
H229 H 0.54753 0.92115 0.72957 0.0
H230 H 0.51483 0.86343 0.72492 0.0
Co231 Co 0.69055 0.58498 0.90141 0.0
C232 C 0.68518 0.58918 0.76776 0.0
C233 C 0.69488 0.61369 0.81856 0.0
C234 C 0.69521 0.61745 0.75641 0.0
N235 N 0.68834 0.5959 0.82586 0.0
N236 N 0.6891 0.602 0.72478 0.0
H237 H 0.68193 0.57573 0.75608 0.0
H238 H 0.70023 0.62346 0.85561 0.0
C239 C 0.67093 0.60377 0.94142 0.0
O240 O 0.66151 0.59868 0.8899 0.0
N241 N 0.69348 0.5749 0.9769 0.0
C242 C 0.68862 0.55774 0.9892 0.0
C243 C 0.69088 0.55628 0.05187 0.0
C244 C 0.69896 0.58368 0.03109 0.0
N245 N 0.69725 0.57262 0.07822 0.0
C246 C 0.66149 0.55221 0.85198 0.0
C247 C 0.63705 0.54692 0.94425 0.0
C248 C 0.63214 0.53384 0.89802 0.0
C249 C 0.64465 0.53668 0.85138 0.0
C250 C 0.65408 0.56213 0.94347 0.0
N251 N 0.66591 0.56505 0.89643 0.0
H252 H 0.67131 0.55326 0.81882 0.0
H253 H 0.65795 0.57099 0.98291 0.0
H254 H 0.68296 0.54692 0.95574 0.0
H255 H 0.70351 0.59781 0.03584 0.0
O256 O 0.70244 0.57466 0.85616 0.0
O257 O 0.71603 0.60162 0.9 0.0
O258 O 0.68304 0.5997 0.95198 0.0
C259 C 0.71727 0.58949 0.86786 0.0
H260 H 0.70041 0.63061 0.73591 0.0
H261 H 0.68709 0.54392 0.07639 0.0
H262 H 0.62801 0.54527 0.98185 0.0
H263 H 0.64182 0.52659 0.81632 0.0
Co264 Co 0.10362 0.69194 0.06474 0.0
C265 C 0.0961 0.68863 0.92977 0.0
C266 C 0.07882 0.69534 0.97988 0.0
C267 C 0.07623 0.6965 0.91742 0.0
N268 N 0.091 0.68998 0.98781 0.0
N269 N 0.08714 0.69227 0.88619 0.0
H270 H 0.10749 0.68711 0.91907 0.0
H271 H 0.07314 0.69942 0.01684 0.0
C272 C 0.06527 0.67181 0.10142 0.0
O273 O 0.06236 0.66192 0.05156 0.0
N274 N 0.11648 0.69472 0.14065 0.0
C275 C 0.12995 0.69126 0.14953 0.0
C276 C 0.13457 0.69374 0.21138 0.0
C277 C 0.11324 0.69951 0.1964 0.0
N278 N 0.12403 0.69892 0.24058 0.0
C279 C 0.1051 0.66155 0.01424 0.0
C280 C 0.08821 0.63895 0.11344 0.0
C281 C 0.09441 0.63278 0.06454 0.0
C282 C 0.10293 0.64434 0.01436 0.0
C283 C 0.09059 0.65618 0.1113 0.0
N284 N 0.09841 0.66713 0.0612 0.0
H285 H 0.11301 0.67061 0.97797 0.0
H286 H 0.0868 0.66096 0.15162 0.0
H287 H 0.13561 0.68674 0.11387 0.0
H288 H 0.10269 0.7026 0.20496 0.0
O289 O 0.12606 0.70342 0.02082 0.0
O290 O 0.11283 0.71746 0.06248 0.0
O291 O 0.08105 0.68467 0.1134 0.0
C292 C 0.12624 0.71841 0.03137 0.0
H293 H 0.06767 0.70096 0.89673 0.0
H294 H 0.14464 0.69158 0.23336 0.0
H295 H 0.08229 0.63086 0.15452 0.0
H296 H 0.10828 0.64032 0.97608 0.0
Co297 Co 0.41311 0.10637 0.2228 0.0
C298 C 0.41033 0.09803 0.08768 0.0
C299 C 0.38705 0.07925 0.13823 0.0
C300 C 0.38362 0.07574 0.07601 0.0
N301 N 0.40398 0.09298 0.14595 0.0
N302 N 0.39827 0.08761 0.04436 0.0
H303 H 0.42262 0.11014 0.07641 0.0
H304 H 0.37735 0.07298 0.17508 0.0
C305 C 0.39908 0.06858 0.2605 0.0
O306 O 0.40772 0.06718 0.21246 0.0
N307 N 0.42158 0.11982 0.29879 0.0
C308 C 0.43745 0.13492 0.30739 0.0
C309 C 0.43911 0.13945 0.36925 0.0
C310 C 0.41367 0.11547 0.35493 0.0
N311 N 0.42416 0.12719 0.39893 0.0
C312 C 0.44718 0.11267 0.17573 0.0
C313 C 0.45501 0.09738 0.27484 0.0
C314 C 0.46765 0.10518 0.22704 0.0
C315 C 0.46356 0.11298 0.1771 0.0
C316 C 0.43896 0.09761 0.27201 0.0
N317 N 0.43478 0.10449 0.22163 0.0
H318 H 0.44498 0.1199 0.13937 0.0
H319 H 0.43009 0.09264 0.31155 0.0
H320 H 0.44736 0.14178 0.27155 0.0
H321 H 0.40092 0.10352 0.36397 0.0
O322 O 0.42194 0.12849 0.17808 0.0
O323 O 0.39447 0.11257 0.21738 0.0
O324 O 0.39968 0.08344 0.27179 0.0
C325 C 0.40615 0.12664 0.18668 0.0
H326 H 0.37102 0.06584 0.0556 0.0
H327 H 0.4506 0.15064 0.39098 0.0
H328 H 0.45752 0.09131 0.31474 0.0
H329 H 0.4732 0.1199 0.14047 0.0
Co330 Co 0.30567 0.42298 0.42284 0.0
C331 C 0.3098 0.42026 0.28948 0.0
C332 C 0.31053 0.39878 0.33732 0.0
C333 C 0.311 0.39621 0.27421 0.0
N334 N 0.3098 0.4139 0.34651 0.0
N335 N 0.31033 0.40966 0.24473 0.0
H336 H 0.30862 0.43201 0.28064 0.0
H337 H 0.30979 0.38973 0.37348 0.0
C338 C 0.32724 0.41513 0.51435 0.0
O339 O 0.33467 0.43175 0.53441 0.0
N340 N 0.3008 0.43202 0.49926 0.0
C341 C 0.29666 0.4452 0.50481 0.0
C342 C 0.29391 0.44734 0.56641 0.0
C343 C 0.29932 0.42563 0.55747 0.0
N344 N 0.29587 0.43516 0.59915 0.0
C345 C 0.33108 0.46074 0.41104 0.0
C346 C 0.36138 0.45744 0.40618 0.0
C347 C 0.36349 0.47469 0.40876 0.0
C348 C 0.34797 0.47616 0.40876 0.0
C349 C 0.3442 0.44239 0.40727 0.0
N350 N 0.32938 0.44415 0.41451 0.0
H351 H 0.31941 0.46222 0.40922 0.0
H352 H 0.34287 0.42925 0.40415 0.0
H353 H 0.29539 0.45271 0.46697 0.0
H354 H 0.30047 0.4141 0.56992 0.0
O355 O 0.29183 0.43116 0.37755 0.0
O356 O 0.28083 0.40424 0.42053 0.0
O357 O 0.31554 0.40963 0.47098 0.0
C358 C 0.27806 0.41535 0.38789 0.0
H359 H 0.31067 0.3848 0.25175 0.0
H360 H 0.2912 0.45735 0.58582 0.0
H361 H 0.37283 0.45545 0.405 0.0
H362 H 0.34879 0.48912 0.40691 0.0
Co363 Co 0.89754 0.3084 0.55426 0.0
C364 C 0.90622 0.31306 0.42088 0.0
C365 C 0.92125 0.30337 0.47026 0.0
C366 C 0.92405 0.30261 0.40781 0.0
N367 N 0.91031 0.31024 0.47849 0.0
N368 N 0.91439 0.30852 0.37706 0.0
H369 H 0.89639 0.31692 0.4106 0.0
H370 H 0.92576 0.29799 0.50692 0.0
C371 C 0.93626 0.32749 0.59101 0.0
O372 O 0.9403 0.33649 0.53865 0.0
N373 N 0.88475 0.30582 0.62969 0.0
C374 C 0.87212 0.3103 0.64148 0.0
C375 C 0.86844 0.30819 0.70422 0.0
C376 C 0.88832 0.30076 0.6841 0.0
N377 N 0.87882 0.30235 0.73074 0.0
C378 C 0.89313 0.33704 0.50546 0.0
C379 C 0.91351 0.36226 0.59416 0.0
C380 C 0.90441 0.36655 0.54977 0.0
C381 C 0.89413 0.35373 0.50496 0.0
C382 C 0.91192 0.34531 0.5936 0.0
N383 N 0.90232 0.33306 0.54834 0.0
H384 H 0.884 0.32699 0.47357 0.0
H385 H 0.91754 0.34182 0.63215 0.0
H386 H 0.86665 0.31553 0.60756 0.0
H387 H 0.89815 0.29654 0.68956 0.0
O388 O 0.87517 0.29649 0.50989 0.0
O389 O 0.8885 0.28282 0.55316 0.0
O390 O 0.92002 0.31598 0.60408 0.0
C391 C 0.87513 0.28164 0.52106 0.0
H392 H 0.93132 0.29675 0.38666 0.0
H393 H 0.85965 0.31167 0.72878 0.0
H394 H 0.92096 0.37154 0.63119 0.0
H395 H 0.8865 0.35639 0.47085 0.0
H396 H 0.06658 0.60135 0.10964 0.0
H397 H 0.06587 0.57285 0.12521 0.0
H398 H 0.11854 0.59527 0.04402 0.0
H399 H 0.1196 0.62391 0.0296 0.0
H400 H 0.09475 0.56055 0.00287 0.0
H401 H 0.11467 0.59315 0.19643 0.0
H402 H 0.11197 0.60951 0.28588 0.0
H403 H 0.06237 0.56293 0.33795 0.0
H404 H 0.06465 0.54637 0.24821 0.0
H405 H 0.12251 0.50084 0.09895 0.0
H406 H 0.12034 0.52769 0.08459 0.0
H407 H 0.07108 0.50378 0.18958 0.0
H408 H 0.07374 0.47716 0.20778 0.0
H409 H 0.09077 0.53809 0.21779 0.0
H410 H 0.07106 0.50472 0.02904 0.0
H411 H 0.07283 0.48807 0.93879 0.0
H412 H 0.12037 0.53524 0.87612 0.0
H413 H 0.11903 0.55212 0.96651 0.0
C414 C 0.07803 0.60024 0.09513 0.0
C415 C 0.09319 0.61497 0.06863 0.0
C416 C 0.07756 0.58393 0.10388 0.0
C417 C 0.09223 0.58205 0.08628 0.0
C418 C 0.10708 0.59647 0.05777 0.0
C419 C 0.10761 0.6128 0.04928 0.0
C420 C 0.09242 0.56528 0.09956 0.0
C421 C 0.09404 0.55569 0.04984 0.0
C422 C 0.09098 0.55874 0.16077 0.0
C423 C 0.08974 0.56859 0.21527 0.0
C424 C 0.10312 0.58644 0.22671 0.0
C425 C 0.10168 0.59574 0.27749 0.0
C426 C 0.08698 0.58728 0.31747 0.0
C427 C 0.07373 0.56948 0.30688 0.0
C428 C 0.0751 0.56012 0.2561 0.0
C429 C 0.1114 0.50136 0.12033 0.0
C430 C 0.09826 0.48672 0.15442 0.0
C431 C 0.11004 0.51667 0.11118 0.0
C432 C 0.09532 0.51758 0.13469 0.0
C433 C 0.08247 0.50329 0.17045 0.0
C434 C 0.08392 0.488 0.1803 0.0
C435 C 0.09332 0.53339 0.12107 0.0
C436 C 0.09134 0.54281 0.17071 0.0
C437 C 0.09427 0.5397 0.05965 0.0
C438 C 0.09502 0.52964 0.00484 0.0
C439 C 0.08195 0.51151 0.99623 0.0
C440 C 0.08287 0.50204 0.94502 0.0
C441 C 0.09672 0.51058 0.90182 0.0
C442 C 0.10965 0.52864 0.90965 0.0
C443 C 0.10881 0.53817 0.96083 0.0
H444 H 0.09742 0.50322 0.86222 0.0
H445 H 0.08587 0.59451 0.35674 0.0
H446 H 0.4881 0.10973 0.33059 0.0
H447 H 0.51641 0.10994 0.33693 0.0
H448 H 0.51626 0.1037 0.13822 0.0
H449 H 0.4872 0.10217 0.13189 0.0
H450 H 0.52626 0.08311 0.18966 0.0
H451 H 0.54368 0.14481 0.21384 0.0
H452 H 0.54316 0.17096 0.258 0.0
H453 H 0.55783 0.1601 0.43646 0.0
H454 H 0.5582 0.13371 0.39356 0.0
H455 H 0.61896 0.11048 0.16394 0.0
H456 H 0.59065 0.11046 0.15844 0.0
H457 H 0.58431 0.10297 0.35648 0.0
H458 H 0.6123 0.10217 0.36243 0.0
H459 H 0.57814 0.13079 0.305 0.0
H460 H 0.56052 0.06849 0.2749 0.0
H461 H 0.56218 0.0436 0.22484 0.0
H462 H 0.54919 0.05767 0.04891 0.0
H463 H 0.54773 0.08283 0.0978 0.0
C464 C 0.49389 0.10811 0.2882 0.0
C465 C 0.48524 0.10584 0.23068 0.0
C466 C 0.51029 0.10854 0.29184 0.0
C467 C 0.51866 0.10715 0.23795 0.0
C468 C 0.5101 0.10489 0.18045 0.0
C469 C 0.49356 0.1042 0.17684 0.0
C470 C 0.53613 0.10764 0.24183 0.0
C471 C 0.53766 0.0937 0.21414 0.0
C472 C 0.55097 0.1213 0.27461 0.0
C473 C 0.5508 0.13717 0.30059 0.0
C474 C 0.54666 0.14791 0.26261 0.0
C475 C 0.54642 0.16279 0.2874 0.0
C476 C 0.55041 0.16716 0.35003 0.0
C477 C 0.55471 0.15668 0.38797 0.0
C478 C 0.55496 0.14177 0.36343 0.0
C479 C 0.61146 0.10853 0.20636 0.0
C480 C 0.61787 0.1061 0.26361 0.0
C481 C 0.59535 0.10868 0.20309 0.0
C482 C 0.5854 0.10661 0.25698 0.0
C483 C 0.59187 0.10462 0.31441 0.0
C484 C 0.6079 0.10424 0.31769 0.0
C485 C 0.56811 0.1063 0.253 0.0
C486 C 0.56667 0.12026 0.28059 0.0
C487 C 0.55346 0.09286 0.21926 0.0
C488 C 0.55419 0.07765 0.18991 0.0
C489 C 0.55817 0.06638 0.22545 0.0
C490 C 0.55905 0.0522 0.1973 0.0
C491 C 0.55584 0.04909 0.1337 0.0
C492 C 0.5517 0.06011 0.09815 0.0
C493 C 0.55083 0.07432 0.12607 0.0
H494 H 0.55652 0.03811 0.112 0.0
H495 H 0.55022 0.17869 0.36914 0.0
H496 H 0.39515 0.4805 0.35568 0.0
H497 H 0.42504 0.50674 0.36781 0.0
H498 H 0.40297 0.53239 0.48034 0.0
H499 H 0.37323 0.50593 0.47176 0.0
H500 H 0.4272 0.55392 0.37865 0.0
H501 H 0.42288 0.51661 0.55383 0.0
H502 H 0.41774 0.48849 0.60242 0.0
H503 H 0.4611 0.49074 0.49675 0.0
H504 H 0.46632 0.51875 0.44677 0.0
H505 H 0.50343 0.62826 0.49723 0.0
H506 H 0.4748 0.60054 0.49069 0.0
H507 H 0.50154 0.57261 0.42518 0.0
H508 H 0.53053 0.6001 0.43579 0.0
H509 H 0.4752 0.55142 0.49831 0.0
H510 H 0.48074 0.58797 0.32425 0.0
H511 H 0.48627 0.61537 0.26913 0.0
H512 H 0.44134 0.61377 0.36185 0.0
H513 H 0.4357 0.58649 0.41825 0.0
C514 C 0.39661 0.49158 0.38375 0.0
C515 C 0.38165 0.49098 0.4128 0.0
C516 C 0.41371 0.50662 0.39019 0.0
C517 C 0.41613 0.52141 0.42504 0.0
C518 C 0.40129 0.52108 0.45301 0.0
C519 C 0.38426 0.50597 0.44754 0.0
C520 C 0.43418 0.53729 0.43271 0.0
C521 C 0.43767 0.55348 0.40533 0.0
C522 C 0.44792 0.53643 0.46576 0.0
C523 C 0.44485 0.51966 0.49603 0.0
C524 C 0.43121 0.51101 0.5405 0.0
C525 C 0.4283 0.49511 0.56839 0.0
C526 C 0.43905 0.4878 0.55254 0.0
C527 C 0.45277 0.4964 0.50889 0.0
C528 C 0.45571 0.51229 0.4808 0.0
C529 C 0.50339 0.61617 0.48305 0.0
C530 C 0.5194 0.61653 0.46672 0.0
C531 C 0.4869 0.60035 0.47836 0.0
C532 C 0.48595 0.58459 0.45585 0.0
C533 C 0.50191 0.58465 0.44205 0.0
C534 C 0.51847 0.60044 0.44759 0.0
C535 C 0.46827 0.56828 0.44492 0.0
C536 C 0.46481 0.55195 0.47143 0.0
C537 C 0.45463 0.56892 0.41001 0.0
C538 C 0.4579 0.58527 0.3759 0.0
C539 C 0.47212 0.59353 0.33321 0.0
C540 C 0.47526 0.60903 0.3017 0.0
C541 C 0.46419 0.61633 0.31209 0.0
C542 C 0.44992 0.60811 0.3539 0.0
C543 C 0.44673 0.59262 0.38562 0.0
H544 H 0.46665 0.62834 0.28764 0.0
H545 H 0.43678 0.47549 0.5742 0.0
H546 H 0.87543 0.37126 0.54892 0.0
H547 H 0.87507 0.39929 0.561 0.0
H548 H 0.93293 0.42854 0.57123 0.0
H549 H 0.93324 0.40032 0.56144 0.0
H550 H 0.92049 0.44061 0.65518 0.0
H551 H 0.90891 0.42888 0.43871 0.0
H552 H 0.89383 0.4113 0.34508 0.0
H553 H 0.84409 0.4066 0.40505 0.0
H554 H 0.85881 0.42395 0.49951 0.0
H555 H 0.92868 0.52661 0.59299 0.0
H556 H 0.92978 0.49876 0.58365 0.0
H557 H 0.87335 0.46796 0.62664 0.0
H558 H 0.87225 0.4958 0.6371 0.0
H559 H 0.88553 0.45737 0.51483 0.0
H560 H 0.89872 0.46984 0.73289 0.0
H561 H 0.91529 0.4887 0.82245 0.0
H562 H 0.96425 0.49364 0.75223 0.0
H563 H 0.948 0.47502 0.66169 0.0
C564 C 0.88807 0.38371 0.55303 0.0
C565 C 0.90437 0.38369 0.55371 0.0
C566 C 0.88787 0.39973 0.55982 0.0
C567 C 0.904 0.41611 0.56594 0.0
C568 C 0.92032 0.41609 0.56649 0.0
C569 C 0.9205 0.40001 0.56074 0.0
C570 C 0.90377 0.43315 0.57353 0.0
C571 C 0.91306 0.44437 0.62384 0.0
C572 C 0.89385 0.43799 0.53332 0.0
C573 C 0.88494 0.42757 0.47649 0.0
C574 C 0.89473 0.42398 0.43217 0.0
C575 C 0.88625 0.41408 0.37891 0.0
C576 C 0.868 0.4078 0.3692 0.0
C577 C 0.85821 0.41146 0.41267 0.0
C578 C 0.86662 0.42134 0.46605 0.0
C579 C 0.91657 0.51388 0.60085 0.0
C580 C 0.9004 0.51328 0.61592 0.0
C581 C 0.91722 0.49804 0.59564 0.0
C582 C 0.90165 0.48138 0.60454 0.0
C583 C 0.88549 0.48073 0.61971 0.0
C584 C 0.8849 0.49659 0.62601 0.0
C585 C 0.90216 0.4646 0.5963 0.0
C586 C 0.89295 0.45352 0.54588 0.0
C587 C 0.91239 0.46005 0.63569 0.0
C588 C 0.92217 0.4712 0.69016 0.0
C589 C 0.91305 0.4751 0.73621 0.0
C590 C 0.92238 0.48571 0.78723 0.0
C591 C 0.94082 0.49241 0.79293 0.0
C592 C 0.94997 0.48847 0.7477 0.0
C593 C 0.9407 0.47787 0.69655 0.0
H594 H 0.94802 0.50062 0.83248 0.0
H595 H 0.86146 0.40014 0.32793 0.0
H596 H 0.3768 0.8773 0.85344 0.0
H597 H 0.40603 0.8792 0.84606 0.0
H598 H 0.423 0.92164 0.71095 0.0
H599 H 0.39358 0.91934 0.71627 0.0
H600 H 0.43042 0.89681 0.67225 0.0
H601 H 0.43982 0.93031 0.85883 0.0
H602 H 0.43302 0.93637 0.96421 0.0
H603 H 0.43525 0.89079 0.03396 0.0
H604 H 0.44181 0.8843 0.92879 0.0
H605 H 0.52134 0.91602 0.67004 0.0
H606 H 0.49453 0.91882 0.68144 0.0
H607 H 0.47252 0.87489 0.81176 0.0
H608 H 0.4994 0.8723 0.80186 0.0
H609 H 0.46894 0.90283 0.8524 0.0
H610 H 0.45765 0.86845 0.66431 0.0
H611 H 0.46443 0.86246 0.55877 0.0
H612 H 0.46588 0.91018 0.4921 0.0
H613 H 0.45935 0.91659 0.5975 0.0
C614 C 0.38676 0.88705 0.82222 0.0
C615 C 0.38284 0.89813 0.78531 0.0
C616 C 0.40353 0.88826 0.81852 0.0
C617 C 0.41675 0.90066 0.77828 0.0
C618 C 0.41301 0.91201 0.74241 0.0
C619 C 0.39624 0.91078 0.74597 0.0
C620 C 0.43407 0.90108 0.771 0.0
C621 C 0.43901 0.89846 0.71152 0.0
C622 C 0.44508 0.90285 0.8224 0.0
C623 C 0.44115 0.90673 0.88577 0.0
C624 C 0.43872 0.92149 0.89653 0.0
C625 C 0.43493 0.92502 0.95626 0.0
C626 C 0.43366 0.91395 0.00572 0.0
C627 C 0.43622 0.89934 0.99559 0.0
C628 C 0.43999 0.89574 0.93593 0.0
C629 C 0.51081 0.90701 0.70129 0.0
C630 C 0.51244 0.89388 0.73483 0.0
C631 C 0.49548 0.90856 0.70746 0.0
C632 C 0.48151 0.89699 0.74717 0.0
C633 C 0.48315 0.88394 0.78085 0.0
C634 C 0.49843 0.88236 0.77462 0.0
C635 C 0.46515 0.8984 0.75383 0.0
C636 C 0.4604 0.90135 0.81316 0.0
C637 C 0.45433 0.89696 0.70231 0.0
C638 C 0.45821 0.89311 0.63891 0.0
C639 C 0.45957 0.87775 0.62725 0.0
C640 C 0.46333 0.87426 0.56744 0.0
C641 C 0.46564 0.88596 0.5188 0.0
C642 C 0.46413 0.90115 0.52984 0.0
C643 C 0.46038 0.90471 0.58959 0.0
H644 H 0.46855 0.88324 0.47252 0.0
H645 H 0.43074 0.9167 0.05193 0.0
H646 H 0.61437 0.51447 0.00131 0.0
H647 H 0.58598 0.48634 0.00585 0.0
H648 H 0.58231 0.48572 0.80611 0.0
H649 H 0.61024 0.51451 0.80127 0.0
H650 H 0.55069 0.47544 0.85464 0.0
H651 H 0.5963 0.45979 0.88618 0.0
H652 H 0.62292 0.46136 0.93541 0.0
H653 H 0.59525 0.44572 0.11 0.0
H654 H 0.56853 0.44429 0.06196 0.0
H655 H 0.48932 0.38285 0.81191 0.0
H656 H 0.51644 0.41222 0.81397 0.0
H657 H 0.51263 0.41397 0.01305 0.0
H658 H 0.48503 0.38471 0.01145 0.0
H659 H 0.54738 0.42374 0.96855 0.0
H660 H 0.50103 0.43828 0.932 0.0
H661 H 0.47452 0.43572 0.87842 0.0
H662 H 0.50408 0.45249 0.7076 0.0
H663 H 0.53069 0.45489 0.75998 0.0
C664 C 0.6074 0.50858 0.95829 0.0
C665 C 0.61463 0.51682 0.90084 0.0
C666 C 0.59126 0.49232 0.96097 0.0
C667 C 0.58216 0.48374 0.90628 0.0
C668 C 0.58915 0.49205 0.84893 0.0
C669 C 0.60521 0.50843 0.84621 0.0
C670 C 0.56543 0.46606 0.90887 0.0
C671 C 0.55005 0.46409 0.87895 0.0
C672 C 0.56446 0.45132 0.94164 0.0
C673 C 0.58048 0.45211 0.9706 0.0
C674 C 0.59594 0.45681 0.93517 0.0
C675 C 0.61103 0.45766 0.96285 0.0
C676 C 0.61079 0.45369 0.02583 0.0
C677 C 0.59543 0.44881 0.06123 0.0
C678 C 0.5803 0.44797 0.0338 0.0
C679 C 0.49403 0.38954 0.85616 0.0
C680 C 0.48483 0.38147 0.9115 0.0
C681 C 0.50962 0.40629 0.85721 0.0
C682 C 0.5164 0.4153 0.91357 0.0
C683 C 0.50755 0.40719 0.96909 0.0
C684 C 0.49184 0.39046 0.96807 0.0
C685 C 0.53279 0.43317 0.91413 0.0
C686 C 0.54807 0.43515 0.94457 0.0
C687 C 0.53373 0.44784 0.88126 0.0
C688 C 0.51781 0.44662 0.84982 0.0
C689 C 0.50184 0.4413 0.88291 0.0
C690 C 0.4868 0.43989 0.85277 0.0
C691 C 0.4876 0.44389 0.78961 0.0
C692 C 0.50347 0.44937 0.75651 0.0
C693 C 0.51854 0.45078 0.78642 0.0
H694 H 0.47594 0.44278 0.76635 0.0
H695 H 0.62249 0.45435 0.04717 0.0
H696 H 0.05864 0.37653 0.0211 0.0
H697 H 0.03476 0.35907 0.94629 0.0
H698 H 0.03131 0.40615 0.90178 0.0
H699 H 0.05565 0.42379 0.97455 0.0
H700 H 0.0013 0.35003 0.92956 0.0
H701 H 0.02345 0.4057 0.7374 0.0
H702 H 0.05077 0.4333 0.70569 0.0
H703 H 0.08328 0.41578 0.79938 0.0
H704 H 0.05635 0.38725 0.82634 0.0
H705 H 0.93269 0.33108 0.71415 0.0
H706 H 0.95619 0.34236 0.79281 0.0
H707 H 0.99422 0.34565 0.65519 0.0
H708 H 0.97092 0.33578 0.57533 0.0
H709 H 0.0092 0.37359 0.71498 0.0
H710 H 0.97596 0.31296 0.78107 0.0
H711 H 0.94941 0.28445 0.81195 0.0
H712 H 0.94141 0.31029 0.96904 0.0
H713 H 0.96765 0.33909 0.93839 0.0
C714 C 0.05261 0.38308 0.99589 0.0
C715 C 0.05911 0.40154 0.00292 0.0
C716 C 0.03898 0.37309 0.95321 0.0
C717 C 0.03154 0.3814 0.91745 0.0
C718 C 0.03717 0.39957 0.92773 0.0
C719 C 0.05103 0.40962 0.96943 0.0
C720 C 0.01852 0.37133 0.86742 0.0
C721 C 0.00301 0.35515 0.88256 0.0
C722 C 0.02111 0.37778 0.80553 0.0
C723 C 0.03769 0.39436 0.78525 0.0
C724 C 0.03641 0.4075 0.75028 0.0
C725 C 0.05188 0.42328 0.73258 0.0
C726 C 0.06876 0.42627 0.75039 0.0
C727 C 0.0702 0.41338 0.78517 0.0
C728 C 0.05483 0.39728 0.80106 0.0
C729 C 0.94605 0.33405 0.701 0.0
C730 C 0.95008 0.33258 0.63897 0.0
C731 C 0.95946 0.34036 0.74609 0.0
C732 C 0.97702 0.34461 0.73046 0.0
C733 C 0.98086 0.34256 0.66853 0.0
C734 C 0.96756 0.33686 0.62298 0.0
C735 C 0.99162 0.35257 0.77746 0.0
C736 C 0.00752 0.36835 0.76175 0.0
C737 C 0.98957 0.34557 0.83837 0.0
C738 C 0.97375 0.32824 0.8571 0.0
C739 C 0.96847 0.31262 0.82193 0.0
C740 C 0.95347 0.2964 0.83942 0.0
C741 C 0.94373 0.29558 0.89237 0.0
C742 C 0.94899 0.31097 0.92806 0.0
C743 C 0.96391 0.32725 0.9106 0.0
H744 H 0.9321 0.28302 0.90579 0.0
H745 H 0.08072 0.43859 0.73732 0.0
H746 H 0.62079 0.94175 0.82103 0.0
H747 H 0.63912 0.96845 0.88464 0.0
H748 H 0.5954 0.95136 0.01434 0.0
H749 H 0.57713 0.9248 0.95177 0.0
H750 H 0.63304 0.99576 0.91737 0.0
H751 H 0.61162 0.96169 0.16062 0.0
H752 H 0.60507 0.93355 0.21266 0.0
H753 H 0.63529 0.92418 0.07429 0.0
H754 H 0.64227 0.95239 0.02177 0.0
H755 H 0.63676 0.03685 0.23866 0.0
H756 H 0.62719 0.01138 0.16894 0.0
H757 H 0.67584 0.04108 0.06249 0.0
H758 H 0.68536 0.06687 0.13138 0.0
H759 H 0.64149 0.99107 0.14294 0.0
H760 H 0.66642 0.02744 0.90993 0.0
H761 H 0.67385 0.05624 0.86057 0.0
H762 H 0.63624 0.06071 0.97932 0.0
H763 H 0.62843 0.03186 0.02878 0.0
C764 C 0.61512 0.9437 0.86318 0.0
C765 C 0.59751 0.93118 0.88139 0.0
C766 C 0.6256 0.95893 0.89937 0.0
C767 C 0.61869 0.96171 0.95457 0.0
C768 C 0.60109 0.94929 0.97246 0.0
C769 C 0.59062 0.93418 0.93631 0.0
C770 C 0.62944 0.97787 0.99297 0.0
C771 C 0.63525 0.99479 0.96645 0.0
C772 C 0.63209 0.97652 0.0571 0.0
C773 C 0.62741 0.95916 0.08706 0.0
C774 C 0.61689 0.95364 0.14126 0.0
C775 C 0.6131 0.93768 0.17088 0.0
C776 C 0.61981 0.92713 0.14693 0.0
C777 C 0.63011 0.93238 0.09279 0.0
C778 C 0.63395 0.94834 0.06297 0.0
C779 C 0.64546 0.03799 0.2005 0.0
C780 C 0.66179 0.05389 0.19046 0.0
C781 C 0.63999 0.02339 0.16078 0.0
C782 C 0.65074 0.02438 0.1103 0.0
C783 C 0.66722 0.04012 0.10068 0.0
C784 C 0.67267 0.05481 0.14024 0.0
C785 C 0.64441 0.00885 0.06791 0.0
C786 C 0.63952 0.99205 0.09367 0.0
C787 C 0.64255 0.01031 0.00324 0.0
C788 C 0.64699 0.02759 0.97344 0.0
C789 C 0.65971 0.03455 0.92535 0.0
C790 C 0.66398 0.05088 0.89737 0.0
C791 C 0.65554 0.0603 0.91686 0.0
C792 C 0.6428 0.05342 0.96436 0.0
C793 C 0.63845 0.03709 0.99242 0.0
H794 H 0.65883 0.07291 0.89506 0.0
H795 H 0.61713 0.91496 0.17057 0.0
H796 H 0.6196 0.68675 0.2989 0.0
H797 H 0.63388 0.67633 0.22543 0.0
H798 H 0.63091 0.6376 0.35878 0.0
H799 H 0.6165 0.64794 0.43336 0.0
H800 H 0.66517 0.65788 0.27702 0.0
H801 H 0.59961 0.61781 0.26676 0.0
H802 H 0.56961 0.61497 0.26975 0.0
H803 H 0.58351 0.65052 0.11403 0.0
H804 H 0.61347 0.65331 0.10926 0.0
H805 H 0.6738 0.59997 0.06505 0.0
H806 H 0.66468 0.61246 0.14948 0.0
H807 H 0.64746 0.63829 0.01641 0.0
H808 H 0.65593 0.62509 0.93139 0.0
H809 H 0.62393 0.62472 0.10297 0.0
H810 H 0.68822 0.66001 0.10118 0.0
H811 H 0.71901 0.66497 0.10372 0.0
H812 H 0.70988 0.6422 0.28653 0.0
H813 H 0.67905 0.6371 0.28497 0.0
C814 C 0.62219 0.6762 0.31322 0.0
C815 C 0.61668 0.66798 0.37169 0.0
C816 C 0.63046 0.67036 0.27125 0.0
C817 C 0.63336 0.65622 0.28693 0.0
C818 C 0.62884 0.64862 0.34632 0.0
C819 C 0.62051 0.65446 0.38854 0.0
C820 C 0.63887 0.64798 0.23827 0.0
C821 C 0.65619 0.6504 0.23923 0.0
C822 C 0.62716 0.63865 0.1888 0.0
C823 C 0.60866 0.63565 0.18742 0.0
C824 C 0.59614 0.62482 0.23262 0.0
C825 C 0.57917 0.62323 0.2346 0.0
C826 C 0.57462 0.63247 0.19173 0.0
C827 C 0.58699 0.64321 0.14658 0.0
C828 C 0.60392 0.64471 0.14394 0.0
C829 C 0.66822 0.60845 0.05382 0.0
C830 C 0.66579 0.61181 0.9918 0.0
C831 C 0.66299 0.61558 0.10215 0.0
C832 C 0.6557 0.62662 0.08941 0.0
C833 C 0.65312 0.62986 0.02735 0.0
C834 C 0.658 0.62239 0.97887 0.0
C835 C 0.6505 0.63455 0.14074 0.0
C836 C 0.63309 0.6321 0.14046 0.0
C837 C 0.6623 0.64398 0.1906 0.0
C838 C 0.68114 0.64776 0.19241 0.0
C839 C 0.69273 0.65593 0.14175 0.0
C840 C 0.71022 0.65883 0.14307 0.0
C841 C 0.71637 0.65379 0.19507 0.0
C842 C 0.70509 0.64602 0.24613 0.0
C843 C 0.6876 0.64312 0.24504 0.0
H844 H 0.7299 0.65599 0.19592 0.0
H845 H 0.56154 0.63138 0.1936 0.0
H846 H 0.96536 0.60074 0.57587 0.0
H847 H 0.98854 0.61541 0.49656 0.0
H848 H 0.95446 0.63021 0.39649 0.0
H849 H 0.93132 0.61578 0.47564 0.0
H850 H 0.9868 0.60739 0.37509 0.0
H851 H 0.98024 0.66961 0.32277 0.0
H852 H 0.97224 0.6899 0.37691 0.0
H853 H 0.98941 0.67881 0.55015 0.0
H854 H 0.99772 0.65865 0.49693 0.0
H855 H 0.03014 0.64554 0.09135 0.0
H856 H 0.0073 0.63468 0.17269 0.0
H857 H 0.04515 0.67491 0.29803 0.0
H858 H 0.06797 0.68603 0.21693 0.0
H859 H 0.01198 0.67081 0.31011 0.0
H860 H 0.03839 0.63296 0.29654 0.0
H861 H 0.04688 0.61276 0.24491 0.0
H862 H 0.99139 0.57524 0.20804 0.0
H863 H 0.98262 0.59537 0.25894 0.0
C864 C 0.96286 0.60726 0.5373 0.0
C865 C 0.94651 0.60711 0.53211 0.0
C866 C 0.97609 0.61557 0.49196 0.0
C867 C 0.97324 0.62398 0.44097 0.0
C868 C 0.95701 0.62401 0.43596 0.0
C869 C 0.94378 0.61569 0.48118 0.0
C870 C 0.98698 0.63215 0.39178 0.0
C871 C 0.99236 0.62126 0.36094 0.0
C872 C 0.99418 0.65024 0.37353 0.0
C873 C 0.98947 0.66252 0.4059 0.0
C874 C 0.98238 0.67157 0.37236 0.0
C875 C 0.97778 0.68303 0.4029 0.0
C876 C 0.98027 0.6856 0.46695 0.0
C877 C 0.98743 0.67676 0.50058 0.0
C878 C 0.99207 0.6653 0.47026 0.0
C879 C 0.03355 0.65222 0.13598 0.0
C880 C 0.05091 0.66653 0.1479 0.0
C881 C 0.0205 0.64597 0.18238 0.0
C882 C 0.02467 0.65382 0.24155 0.0
C883 C 0.04171 0.66865 0.25267 0.0
C884 C 0.05474 0.67495 0.20627 0.0
C885 C 0.01165 0.64599 0.29295 0.0
C886 C 0.00641 0.65693 0.3242 0.0
C887 C 0.0046 0.62793 0.31169 0.0
C888 C 0.00987 0.61576 0.28134 0.0
C889 C 0.02801 0.62045 0.27729 0.0
C890 C 0.03288 0.60901 0.24811 0.0
C891 C 0.01968 0.59273 0.22313 0.0
C892 C 0.0016 0.58786 0.22739 0.0
C893 C 0.99668 0.59928 0.25646 0.0
H894 H 0.02346 0.58388 0.20053 0.0
H895 H 0.97668 0.69447 0.49051 0.0
H896 H 0.38109 0.06701 0.36744 0.0
H897 H 0.36608 0.04163 0.43897 0.0
H898 H 0.38117 0.01051 0.32271 0.0
H899 H 0.39588 0.03557 0.2508 0.0
H900 H 0.34731 0.99123 0.35624 0.0
H901 H 0.40337 0.02999 0.45659 0.0
H902 H 0.42726 0.05755 0.50523 0.0
H903 H 0.39004 0.05543 0.6422 0.0
H904 H 0.3658 0.02796 0.59369 0.0
H905 H 0.34747 0.9251 0.54767 0.0
H906 H 0.35514 0.95124 0.48298 0.0
H907 H 0.32934 0.96895 0.61377 0.0
H908 H 0.32141 0.94258 0.67882 0.0
H909 H 0.36404 0.9956 0.57839 0.0
H910 H 0.30944 0.95202 0.482 0.0
H911 H 0.28763 0.92385 0.43065 0.0
H912 H 0.32487 0.9343 0.28236 0.0
H913 H 0.34717 0.96223 0.3337 0.0
C914 C 0.38114 0.05473 0.35704 0.0
C915 C 0.38966 0.05329 0.30341 0.0
C916 C 0.37264 0.04029 0.39811 0.0
C917 C 0.37261 0.02424 0.38631 0.0
C918 C 0.38098 0.02276 0.33259 0.0
C919 C 0.38943 0.03713 0.29158 0.0
C920 C 0.36381 0.0088 0.42926 0.0
C921 C 0.35104 0.99213 0.40476 0.0
C922 C 0.36834 0.01018 0.49296 0.0
C923 C 0.3827 0.02706 0.5209 0.0
C924 C 0.4002 0.03554 0.4965 0.0
C925 C 0.41382 0.0511 0.52418 0.0
C926 C 0.41015 0.05824 0.57667 0.0
C927 C 0.39284 0.04989 0.60145 0.0
C928 C 0.37915 0.03433 0.57385 0.0
C929 C 0.34338 0.93452 0.56262 0.0
C930 C 0.33386 0.93182 0.61823 0.0
C931 C 0.34766 0.94936 0.52542 0.0
C932 C 0.34258 0.96184 0.54328 0.0
C933 C 0.33323 0.95934 0.5991 0.0
C934 C 0.32874 0.94432 0.63612 0.0
C935 C 0.34799 0.97793 0.50476 0.0
C936 C 0.36008 0.99474 0.53015 0.0
C937 C 0.34316 0.9766 0.4414 0.0
C938 C 0.33005 0.95927 0.41201 0.0
C939 C 0.31312 0.94821 0.43896 0.0
C940 C 0.30064 0.93228 0.40972 0.0
C941 C 0.30483 0.92736 0.35311 0.0
C942 C 0.3216 0.9382 0.32602 0.0
C943 C 0.3342 0.95404 0.35532 0.0
H944 H 0.29509 0.91514 0.33017 0.0
H945 H 0.42078 0.07017 0.59831 0.0
H946 H 0.39333 0.32062 0.74036 0.0
H947 H 0.37789 0.33099 0.6706 0.0
H948 H 0.36797 0.35691 0.82442 0.0
H949 H 0.38357 0.34683 0.89424 0.0
H950 H 0.33758 0.33593 0.74258 0.0
H951 H 0.40097 0.38193 0.73799 0.0
H952 H 0.43299 0.39207 0.72102 0.0
H953 H 0.42167 0.37314 0.53295 0.0
H954 H 0.38952 0.36267 0.54915 0.0
H955 H 0.33912 0.41651 0.63244 0.0
H956 H 0.34719 0.39585 0.68147 0.0
H957 H 0.33394 0.36479 0.51315 0.0
H958 H 0.32546 0.3852 0.4639 0.0
H959 H 0.3731 0.38291 0.58678 0.0
H960 H 0.31038 0.34183 0.58554 0.0
H961 H 0.27803 0.3294 0.60249 0.0
H962 H 0.28663 0.33559 0.7993 0.0
H963 H 0.31916 0.34878 0.78347 0.0
C964 C 0.38773 0.3284 0.75935 0.0
C965 C 0.38968 0.33299 0.82264 0.0
C966 C 0.37896 0.33432 0.71948 0.0
C967 C 0.37186 0.34469 0.74259 0.0
C968 C 0.37335 0.34886 0.80597 0.0
C969 C 0.38234 0.34319 0.84564 0.0
C970 C 0.36347 0.35192 0.70067 0.0
C971 C 0.34526 0.34626 0.7086 0.0
C972 C 0.37351 0.36484 0.65491 0.0
C973 C 0.39284 0.37134 0.64497 0.0
C974 C 0.4053 0.37981 0.69317 0.0
C975 C 0.42347 0.38564 0.68368 0.0
C976 C 0.42935 0.3832 0.626 0.0
C977 C 0.41709 0.37499 0.57764 0.0
C978 C 0.3989 0.36912 0.58693 0.0
C979 C 0.33775 0.40518 0.60606 0.0
C980 C 0.33166 0.40243 0.54439 0.0
C981 C 0.34214 0.39329 0.63435 0.0
C982 C 0.34062 0.37856 0.60142 0.0
C983 C 0.33472 0.37584 0.53969 0.0
C984 C 0.32997 0.38753 0.51165 0.0
C985 C 0.34721 0.36737 0.63001 0.0
C986 C 0.36521 0.37237 0.61988 0.0
C987 C 0.33687 0.35372 0.67348 0.0
C988 C 0.31739 0.34681 0.68304 0.0
C989 C 0.3055 0.34108 0.63232 0.0
C990 C 0.28707 0.33374 0.64179 0.0
C991 C 0.28027 0.33177 0.70192 0.0
C992 C 0.2919 0.33712 0.75272 0.0
C993 C 0.31036 0.3446 0.74347 0.0
H994 H 0.266 0.32606 0.70914 0.0
H995 H 0.44342 0.38772 0.61873 0.0
H996 H 0.15843 0.43231 0.1787 0.0
H997 H 0.18166 0.42527 0.20701 0.0
H998 H 0.14281 0.36873 0.2021 0.0
H999 H 0.11935 0.37572 0.17181 0.0
H1000 H 0.16669 0.38496 0.31798 0.0
H1001 H 0.16878 0.37762 0.09999 0.0
H1002 H 0.16903 0.38521 0.98957 0.0
H1003 H 0.21841 0.43469 0.01656 0.0
H1004 H 0.2183 0.42757 0.12742 0.0
H1005 H 0.24712 0.38279 0.39549 0.0
H1006 H 0.21806 0.37429 0.3478 0.0
H1007 H 0.24019 0.42767 0.27238 0.0
H1008 H 0.26916 0.43611 0.31872 0.0
H1009 H 0.22054 0.40307 0.18737 0.0
H1010 H 0.21435 0.41446 0.40472 0.0
H1011 H 0.21423 0.4093 0.51737 0.0
H1012 H 0.17296 0.35439 0.49306 0.0
H1013 H 0.173 0.35919 0.38007 0.0
C1014 C 0.15482 0.41837 0.18332 0.0
C1015 C 0.13713 0.40454 0.17333 0.0
C1016 C 0.1681 0.41438 0.19918 0.0
C1017 C 0.16389 0.39651 0.20625 0.0
C1018 C 0.14624 0.38259 0.19646 0.0
C1019 C 0.13293 0.38659 0.17916 0.0
C1020 C 0.17814 0.39292 0.22674 0.0
C1021 C 0.17827 0.38833 0.28905 0.0
C1022 C 0.19328 0.3977 0.18901 0.0
C1023 C 0.19347 0.40208 0.12223 0.0
C1024 C 0.17961 0.3902 0.08255 0.0
C1025 C 0.17975 0.39441 0.01982 0.0
C1026 C 0.19372 0.41043 0.99608 0.0
C1027 C 0.2076 0.42228 0.03501 0.0
C1028 C 0.20751 0.41815 0.09781 0.0
C1029 C 0.24574 0.39269 0.36879 0.0
C1030 C 0.26036 0.41014 0.3611 0.0
C1031 C 0.22916 0.38781 0.34158 0.0
C1032 C 0.22697 0.40037 0.30669 0.0
C1033 C 0.24161 0.41774 0.29879 0.0
C1034 C 0.25813 0.42259 0.3257 0.0
C1035 C 0.20942 0.39587 0.27941 0.0
C1036 C 0.20873 0.39902 0.21583 0.0
C1037 C 0.19385 0.39 0.3162 0.0
C1038 C 0.19386 0.38711 0.38397 0.0
C1039 C 0.20537 0.40125 0.42337 0.0
C1040 C 0.20529 0.3984 0.48726 0.0
C1041 C 0.19364 0.38151 0.51233 0.0
C1042 C 0.18201 0.36745 0.47355 0.0
C1043 C 0.18205 0.37022 0.40961 0.0
H1044 H 0.19359 0.37933 0.56181 0.0
H1045 H 0.1938 0.41366 0.94749 0.0
H1046 H 0.74853 0.12614 0.31589 0.0
H1047 H 0.77834 0.1502 0.34861 0.0
H1048 H 0.75886 0.18763 0.35027 0.0
H1049 H 0.72909 0.16372 0.3193 0.0
H1050 H 0.7936 0.19909 0.28586 0.0
H1051 H 0.76104 0.17404 0.47949 0.0
H1052 H 0.74384 0.14901 0.55172 0.0
H1053 H 0.78763 0.13857 0.56096 0.0
H1054 H 0.80504 0.16349 0.48803 0.0
H1055 H 0.84496 0.27567 0.46068 0.0
H1056 H 0.82166 0.24764 0.41619 0.0
H1057 H 0.84978 0.22074 0.4784 0.0
H1058 H 0.87314 0.24887 0.52453 0.0
H1059 H 0.81474 0.20086 0.50145 0.0
H1060 H 0.85007 0.23123 0.32583 0.0
H1061 H 0.86687 0.25611 0.25238 0.0
H1062 H 0.81846 0.25616 0.20491 0.0
H1063 H 0.80142 0.2316 0.27906 0.0
C1064 C 0.75068 0.13953 0.32316 0.0
C1065 C 0.73657 0.14312 0.31534 0.0
C1066 C 0.76764 0.15319 0.34174 0.0
C1067 C 0.77069 0.17061 0.35148 0.0
C1068 C 0.7567 0.17425 0.34261 0.0
C1069 C 0.73972 0.16058 0.32533 0.0
C1070 C 0.78828 0.18512 0.37287 0.0
C1071 C 0.79832 0.19957 0.33289 0.0
C1072 C 0.79457 0.18528 0.4335 0.0
C1073 C 0.78423 0.17044 0.47774 0.0
C1074 C 0.76693 0.1663 0.49648 0.0
C1075 C 0.75715 0.15215 0.53763 0.0
C1076 C 0.76458 0.14213 0.56073 0.0
C1077 C 0.78186 0.14631 0.54291 0.0
C1078 C 0.7917 0.16045 0.5017 0.0
C1079 C 0.84622 0.26381 0.46498 0.0
C1080 C 0.86089 0.26445 0.49596 0.0
C1081 C 0.83295 0.24782 0.43909 0.0
C1082 C 0.83419 0.2322 0.4428 0.0
C1083 C 0.84867 0.23269 0.4746 0.0
C1084 C 0.86196 0.24873 0.50094 0.0
C1085 C 0.8199 0.21532 0.4151 0.0
C1086 C 0.81042 0.20034 0.45381 0.0
C1087 C 0.81419 0.21466 0.35296 0.0
C1088 C 0.82445 0.22957 0.30838 0.0
C1089 C 0.84302 0.23664 0.30017 0.0
C1090 C 0.85259 0.25068 0.25835 0.0
C1091 C 0.84373 0.25769 0.22404 0.0
C1092 C 0.8253 0.2507 0.23153 0.0
C1093 C 0.81567 0.23671 0.27345 0.0
H1094 H 0.85111 0.26851 0.19159 0.0
H1095 H 0.75697 0.13117 0.59258 0.0
H1096 H 0.62053 0.8748 0.66458 0.0
H1097 H 0.62676 0.85301 0.61236 0.0
H1098 H 0.57492 0.80996 0.66921 0.0
H1099 H 0.56838 0.83166 0.71876 0.0
H1100 H 0.60915 0.8059 0.68237 0.0
H1101 H 0.57227 0.82038 0.54441 0.0
H1102 H 0.56715 0.84223 0.48713 0.0
H1103 H 0.61662 0.86052 0.38843 0.0
H1104 H 0.62224 0.83903 0.44639 0.0
H1105 H 0.5673 0.72719 0.51866 0.0
H1106 H 0.57336 0.75658 0.55447 0.0
H1107 H 0.6232 0.7819 0.45302 0.0
H1108 H 0.61729 0.75237 0.41684 0.0
H1109 H 0.59815 0.79949 0.4549 0.0
H1110 H 0.63463 0.78419 0.58252 0.0
H1111 H 0.64008 0.76208 0.63655 0.0
H1112 H 0.59307 0.74576 0.74789 0.0
H1113 H 0.58752 0.76803 0.69521 0.0
C1114 C 0.61068 0.86064 0.66668 0.0
C1115 C 0.59401 0.85475 0.69536 0.0
C1116 C 0.61421 0.84829 0.63689 0.0
C1117 C 0.60127 0.82999 0.63723 0.0
C1118 C 0.58504 0.82406 0.66886 0.0
C1119 C 0.58131 0.8364 0.69686 0.0
C1120 C 0.60377 0.81695 0.60085 0.0
C1121 C 0.607 0.80465 0.63259 0.0
C1122 C 0.60129 0.81559 0.53575 0.0
C1123 C 0.59782 0.82832 0.50043 0.0
C1124 C 0.58217 0.82922 0.5111 0.0
C1125 C 0.57916 0.84151 0.47845 0.0
C1126 C 0.59159 0.8528 0.43442 0.0
C1127 C 0.60704 0.8518 0.42278 0.0
C1128 C 0.61016 0.83959 0.45556 0.0
C1129 C 0.5794 0.739 0.50299 0.0
C1130 C 0.5919 0.73749 0.4654 0.0
C1131 C 0.58281 0.75576 0.52333 0.0
C1132 C 0.59871 0.77129 0.50628 0.0
C1133 C 0.61082 0.77001 0.46618 0.0
C1134 C 0.60745 0.75316 0.44594 0.0
C1135 C 0.60324 0.78835 0.53672 0.0
C1136 C 0.60109 0.80124 0.50419 0.0
C1137 C 0.60705 0.7905 0.60086 0.0
C1138 C 0.61072 0.77778 0.63519 0.0
C1139 C 0.62553 0.77595 0.61884 0.0
C1140 C 0.62865 0.76343 0.64922 0.0
C1141 C 0.61699 0.75261 0.69582 0.0
C1142 C 0.60217 0.75428 0.71215 0.0
C1143 C 0.5991 0.76694 0.68239 0.0
H1144 H 0.61952 0.74301 0.7194 0.0
H1145 H 0.58919 0.86225 0.40919 0.0
H1146 H 0.72288 0.56861 0.78694 0.0
H1147 H 0.75156 0.57258 0.75166 0.0
H1148 H 0.77961 0.62067 0.86203 0.0
H1149 H 0.75081 0.61673 0.89789 0.0
H1150 H 0.77859 0.5991 0.68799 0.0
H1151 H 0.81927 0.62118 0.91647 0.0
H1152 H 0.81447 0.61841 0.02972 0.0
H1153 H 0.76415 0.56982 0.00394 0.0
H1154 H 0.76881 0.57212 0.8907 0.0
H1155 H 0.86772 0.61597 0.62643 0.0
H1156 H 0.8435 0.62072 0.66416 0.0
H1157 H 0.82212 0.57192 0.77127 0.0
H1158 H 0.84614 0.56714 0.73415 0.0
H1159 H 0.82219 0.59845 0.83693 0.0
H1160 H 0.80538 0.57277 0.63195 0.0
H1161 H 0.80816 0.57125 0.51858 0.0
H1162 H 0.80706 0.62028 0.49685 0.0
H1163 H 0.80466 0.6223 0.6103 0.0
C1164 C 0.73514 0.58004 0.80372 0.0
C1165 C 0.73464 0.5923 0.84547 0.0
C1166 C 0.75151 0.58234 0.78329 0.0
C1167 C 0.76767 0.59684 0.8046 0.0
C1168 C 0.76725 0.6093 0.84555 0.0
C1169 C 0.75083 0.60706 0.86581 0.0
C1170 C 0.78485 0.59853 0.78436 0.0
C1171 C 0.78823 0.59913 0.7205 0.0
C1172 C 0.79733 0.59849 0.82701 0.0
C1173 C 0.79423 0.59704 0.895 0.0
C1174 C 0.80717 0.60993 0.93499 0.0
C1175 C 0.80449 0.60841 -0.00082 0.0
C1176 C 0.78896 0.59401 0.02398 0.0
C1177 C 0.77612 0.58104 0.98464 0.0
C1178 C 0.77876 0.58246 0.92043 0.0
C1179 C 0.85788 0.60633 0.65828 0.0
C1180 C 0.85868 0.59111 0.677 0.0
C1181 C 0.84408 0.60905 0.67964 0.0
C1182 C 0.831 0.5966 0.7201 0.0
C1183 C 0.83211 0.58168 0.74006 0.0
C1184 C 0.84577 0.57891 0.71851 0.0
C1185 C 0.81569 0.59856 0.74051 0.0
C1186 C 0.81273 0.59879 0.80442 0.0
C1187 C 0.80335 0.59888 0.69787 0.0
C1188 C 0.8052 0.59787 0.62975 0.0
C1189 C 0.80601 0.58337 0.60311 0.0
C1190 C 0.80746 0.58239 0.5388 0.0
C1191 C 0.80789 0.59571 0.50056 0.0
C1192 C 0.80683 0.61002 0.52655 0.0
C1193 C 0.80545 0.61111 0.59086 0.0
H1194 H 0.80896 0.5949 0.45076 0.0
H1195 H 0.78691 0.59286 0.0737 0.0
H1196 H 0.26687 0.83191 0.79575 0.0
H1197 H 0.23714 0.80913 0.83169 0.0
H1198 H 0.2198 0.84826 0.83036 0.0
H1199 H 0.24955 0.87114 0.79232 0.0
H1200 H 0.21525 0.82694 0.94838 0.0
H1201 H 0.20039 0.82056 0.73398 0.0
H1202 H 0.20336 0.81704 0.62187 0.0
H1203 H 0.20173 0.76707 0.65526 0.0
H1204 H 0.19912 0.77045 0.7677 0.0
H1205 H 0.12927 0.75156 0.03923 0.0
H1206 H 0.15261 0.77957 0.99256 0.0
H1207 H 0.179 0.75177 0.92216 0.0
H1208 H 0.15575 0.72386 0.96767 0.0
H1209 H 0.1749 0.77103 0.83405 0.0
H1210 H 0.19486 0.77978 0.04728 0.0
H1211 H 0.19287 0.78316 0.16012 0.0
H1212 H 0.18564 0.82843 0.1294 0.0
H1213 H 0.18729 0.82514 0.01624 0.0
C1214 C 0.25666 0.83561 0.80246 0.0
C1215 C 0.2604 0.8532 0.79145 0.0
C1216 C 0.23972 0.82261 0.82267 0.0
C1217 C 0.22637 0.82709 0.83325 0.0
C1218 C 0.22998 0.84463 0.82197 0.0
C1219 C 0.24688 0.85759 0.80023 0.0
C1220 C 0.20916 0.81347 0.86005 0.0
C1221 C 0.20606 0.81488 0.92311 0.0
C1222 C 0.19756 0.7977 0.827 0.0
C1223 C 0.19976 0.79588 0.75949 0.0
C1224 C 0.20094 0.80895 0.71757 0.0
C1225 C 0.20249 0.80695 0.65389 0.0
C1226 C 0.20279 0.79187 0.63147 0.0
C1227 C 0.20155 0.77877 0.67269 0.0
C1228 C 0.20004 0.78073 0.73643 0.0
C1229 C 0.14014 0.75149 0.01414 0.0
C1230 C 0.14069 0.73554 0.00688 0.0
C1231 C 0.15345 0.76749 0.98773 0.0
C1232 C 0.16751 0.76771 0.95406 0.0
C1233 C 0.16821 0.75185 0.94778 0.0
C1234 C 0.15494 0.73592 0.97394 0.0
C1235 C 0.18126 0.78418 0.92287 0.0
C1236 C 0.18373 0.78327 0.85895 0.0
C1237 C 0.19232 0.80032 0.9553 0.0
C1238 C 0.19088 0.80201 0.02324 0.0
C1239 C 0.19258 0.79029 0.06453 0.0
C1240 C 0.19158 0.79223 0.12857 0.0
C1241 C 0.18904 0.80595 0.15191 0.0
C1242 C 0.18752 0.81776 0.11125 0.0
C1243 C 0.18848 0.81586 0.04717 0.0
H1244 H 0.18833 0.80746 0.20151 0.0
H1245 H 0.20393 0.79031 0.58213 0.0
H1246 H 0.42955 0.16139 0.16057 0.0
H1247 H 0.42296 0.18347 0.11513 0.0
H1248 H 0.36669 0.14385 0.10804 0.0
H1249 H 0.37314 0.12164 0.15558 0.0
H1250 H 0.39077 0.16891 0.98773 0.0
H1251 H 0.36653 0.16716 0.19078 0.0
H1252 H 0.36657 0.16616 0.30511 0.0
H1253 H 0.41623 0.21626 0.30957 0.0
H1254 H 0.41664 0.2174 0.19515 0.0
H1255 H 0.38227 0.2455 0.89291 0.0
H1256 H 0.37512 0.21623 0.93572 0.0
H1257 H 0.42393 0.24174 0.04333 0.0
H1258 H 0.43113 0.27085 0.00106 0.0
H1259 H 0.39466 0.2191 0.11292 0.0
H1260 H 0.42134 0.21951 0.91504 0.0
H1261 H 0.42418 0.22046 0.80111 0.0
H1262 H 0.37233 0.17313 0.7859 0.0
H1263 H 0.36901 0.17212 0.89985 0.0
C1264 C 0.41576 0.1574 0.14971 0.0
C1265 C 0.40183 0.13989 0.16159 0.0
C1266 C 0.41203 0.16999 0.12385 0.0
C1267 C 0.39438 0.16519 0.10852 0.0
C1268 C 0.38038 0.1477 0.11993 0.0
C1269 C 0.38406 0.13514 0.14719 0.0
C1270 C 0.39109 0.17877 0.07972 0.0
C1271 C 0.39099 0.17965 0.0148 0.0
C1272 C 0.39187 0.19285 0.11555 0.0
C1273 C 0.39169 0.19227 0.18437 0.0
C1274 C 0.37756 0.17787 0.21611 0.0
C1275 C 0.37748 0.17729 0.28094 0.0
C1276 C 0.39141 0.19111 0.31459 0.0
C1277 C 0.40545 0.20555 0.28345 0.0
C1278 C 0.4056 0.20618 0.2186 0.0
C1279 C 0.39151 0.2448 0.9254 0.0
C1280 C 0.40727 0.26042 0.94362 0.0
C1281 C 0.38741 0.22811 0.9497 0.0
C1282 C 0.399 0.22689 0.99268 0.0
C1283 C 0.41479 0.24245 0.0104 0.0
C1284 C 0.41894 0.25905 0.98592 0.0
C1285 C 0.39478 0.20954 0.02057 0.0
C1286 C 0.39366 0.20807 0.08548 0.0
C1287 C 0.39302 0.19499 0.98455 0.0
C1288 C 0.39478 0.19593 0.91596 0.0
C1289 C 0.41041 0.20947 0.88741 0.0
C1290 C 0.41214 0.20998 0.82282 0.0
C1291 C 0.39841 0.19692 0.78627 0.0
C1292 C 0.38292 0.1833 0.81426 0.0
C1293 C 0.3811 0.18277 0.87884 0.0
H1294 H 0.3998 0.1973 0.7363 0.0
H1295 H 0.39132 0.19065 0.36478 0.0
H1296 H 0.07163 0.37511 0.39361 0.0
H1297 H 0.07823 0.3776 0.50449 0.0
H1298 H 0.11054 0.43508 0.48661 0.0
H1299 H 0.10382 0.43274 0.37583 0.0
H1300 H 0.12826 0.42213 0.54814 0.0
H1301 H 0.0702 0.41584 0.55966 0.0
H1302 H 0.03763 0.40325 0.54677 0.0
H1303 H 0.02765 0.35547 0.64312 0.0
H1304 H 0.06018 0.36763 0.65563 0.0
H1305 H 0.13691 0.4511 0.85842 0.0
H1306 H 0.13161 0.44404 0.74833 0.0
H1307 H 0.1016 0.38756 0.79154 0.0
H1308 H 0.10684 0.39458 0.90218 0.0
H1309 H 0.08329 0.39593 0.71656 0.0
H1310 H 0.1425 0.40612 0.71559 0.0
H1311 H 0.17498 0.42157 0.73696 0.0
H1312 H 0.18264 0.46658 0.62764 0.0
H1313 H 0.15016 0.45151 0.60631 0.0
C1314 C 0.07986 0.38832 0.41331 0.0
C1315 C 0.08728 0.40372 0.3755 0.0
C1316 C 0.08365 0.38971 0.47684 0.0
C1317 C 0.09487 0.40653 0.5039 0.0
C1318 C 0.10194 0.42195 0.46664 0.0
C1319 C 0.09814 0.42058 0.40321 0.0
C1320 C 0.10006 0.408 0.57025 0.0
C1321 C 0.11842 0.41678 0.58516 0.0
C1322 C 0.08723 0.40039 0.6184 0.0
C1323 C 0.06768 0.39251 0.60739 0.0
C1324 C 0.06109 0.4025 0.57698 0.0
C1325 C 0.04261 0.39547 0.57006 0.0
C1326 C 0.03057 0.37852 0.59373 0.0
C1327 C 0.03698 0.36855 0.62443 0.0
C1328 C 0.05544 0.37549 0.63138 0.0
C1329 C 0.12956 0.43716 0.84458 0.0
C1330 C 0.12227 0.42342 0.88924 0.0
C1331 C 0.12657 0.43312 0.78145 0.0
C1332 C 0.1164 0.41525 0.76147 0.0
C1333 C 0.10954 0.40145 0.80583 0.0
C1334 C 0.11246 0.40549 0.86908 0.0
C1335 C 0.11141 0.41124 0.69503 0.0
C1336 C 0.09313 0.40162 0.67979 0.0
C1337 C 0.12428 0.41856 0.64692 0.0
C1338 C 0.14384 0.42771 0.65971 0.0
C1339 C 0.15108 0.41937 0.6965 0.0
C1340 C 0.1695 0.42805 0.70853 0.0
C1341 C 0.18086 0.44506 0.68376 0.0
C1342 C 0.17382 0.45341 0.64681 0.0
C1343 C 0.15541 0.44479 0.63467 0.0
H1344 H 0.19512 0.45176 0.69312 0.0
H1345 H 0.01628 0.37316 0.58854 0.0
H1346 H 0.68969 0.09546 0.02822 0.0
H1347 H 0.69274 0.09168 0.918 0.0
H1348 H 0.7186 0.14899 0.89175 0.0
H1349 H 0.71565 0.15289 0.00298 0.0
H1350 H 0.69248 0.13176 0.81041 0.0
H1351 H 0.74231 0.12621 0.88057 0.0
H1352 H 0.75761 0.11453 0.94643 0.0
H1353 H 0.72198 0.06114 0.88064 0.0
H1354 H 0.70636 0.07247 0.81481 0.0
H1355 H 0.70934 0.12504 0.49497 0.0
H1356 H 0.71443 0.13247 0.6051 0.0
H1357 H 0.68683 0.07611 0.65087 0.0
H1358 H 0.68162 0.06859 0.54022 0.0
H1359 H 0.71678 0.09512 0.721 0.0
H1360 H 0.66528 0.09966 0.66048 0.0
H1361 H 0.64884 0.11041 0.59623 0.0
H1362 H 0.68662 0.16483 0.64614 0.0
H1363 H 0.70343 0.15441 0.71004 0.0
C1364 C 0.69635 0.1073 -0.00068 0.0
C1365 C 0.70254 0.12451 0.02415 0.0
C1366 C 0.69806 0.10511 0.93629 0.0
C1367 C 0.70608 0.12006 0.89697 0.0
C1368 C 0.71242 0.13729 0.92157 0.0
C1369 C 0.71066 0.1395 0.98482 0.0
C1370 C 0.70657 0.11746 0.82955 0.0
C1371 C 0.69816 0.1241 0.79068 0.0
C1372 C 0.71351 0.107 0.80431 0.0
C1373 C 0.72309 0.10019 0.84303 0.0
C1374 C 0.73768 0.11197 0.88036 0.0
C1375 C 0.74643 0.10541 0.91764 0.0
C1376 C 0.74076 0.0871 0.91779 0.0
C1377 C 0.72637 0.07532 0.88047 0.0
C1378 C 0.71759 0.08181 0.84307 0.0
C1379 C 0.70423 0.11424 0.52851 0.0
C1380 C 0.69476 0.09622 0.50945 0.0
C1381 C 0.70729 0.1185 0.59123 0.0
C1382 C 0.70081 0.10483 0.63582 0.0
C1383 C 0.69192 0.08683 0.61691 0.0
C1384 C 0.68892 0.08255 0.55401 0.0
C1385 C 0.70262 0.10935 0.7023 0.0
C1386 C 0.71137 0.10302 0.74083 0.0
C1387 C 0.6959 0.12 0.72742 0.0
C1388 C 0.68571 0.12627 0.68952 0.0
C1389 C 0.67015 0.11393 0.6574 0.0
C1390 C 0.66075 0.11996 0.6211 0.0
C1391 C 0.6667 0.13829 0.61697 0.0
C1392 C 0.68204 0.15063 0.6493 0.0
C1393 C 0.6915 0.14468 0.68561 0.0
H1394 H 0.65941 0.14293 0.58882 0.0
H1395 H 0.74753 0.08205 0.94675 0.0
H1396 H 0.58386 0.7094 0.6711 0.0
H1397 H 0.57958 0.70965 0.7831 0.0
H1398 H 0.62147 0.6969 0.81411 0.0
H1399 H 0.62582 0.69661 0.70184 0.0
H1400 H 0.58742 0.67292 0.8684 0.0
H1401 H 0.63053 0.73538 0.85965 0.0
H1402 H 0.64494 0.76701 0.82679 0.0
H1403 H 0.59783 0.76901 0.87886 0.0
H1404 H 0.58306 0.73731 0.9116 0.0
H1405 H 0.59198 0.68096 0.19754 0.0
H1406 H 0.59852 0.68358 0.08655 0.0
H1407 H 0.55911 0.69971 0.0549 0.0
H1408 H 0.55279 0.69754 0.16644 0.0
H1409 H 0.59234 0.72229 0.00085 0.0
H1410 H 0.54987 0.65977 0.01469 0.0
H1411 H 0.53615 0.62837 0.04941 0.0
H1412 H 0.58231 0.62615 0.98637 0.0
H1413 H 0.59658 0.65773 0.95292 0.0
C1414 C 0.59218 0.70669 0.70175 0.0
C1415 C 0.60504 0.70277 0.67789 0.0
C1416 C 0.58989 0.70708 0.76562 0.0
C1417 C 0.60027 0.70337 0.80645 0.0
C1418 C 0.61345 0.69993 0.78298 0.0
C1419 C 0.61594 0.6998 0.71908 0.0
C1420 C 0.5959 0.70103 0.873 0.0
C1421 C 0.58879 0.68375 0.89791 0.0
C1422 C 0.59716 0.71512 0.91015 0.0
C1423 C 0.60561 0.73389 0.88743 0.0
C1424 C 0.62315 0.74248 0.86338 0.0
C1425 C 0.63144 0.76047 0.84524 0.0
C1426 C 0.62232 0.77003 0.85086 0.0
C1427 C 0.60489 0.7616 0.87466 0.0
C1428 C 0.59656 0.74363 0.89303 0.0
C1429 C 0.58473 0.6851 0.16698 0.0
C1430 C 0.57197 0.6892 0.19056 0.0
C1431 C 0.58834 0.68638 0.10362 0.0
C1432 C 0.57917 0.69167 0.06282 0.0
C1433 C 0.56624 0.69552 0.08593 0.0
C1434 C 0.56257 0.69418 0.14939 0.0
C1435 C 0.58389 0.69416 0.99647 0.0
C1436 C 0.591 0.71145 0.97149 0.0
C1437 C 0.58266 0.68006 0.95926 0.0
C1438 C 0.57441 0.66126 0.98194 0.0
C1439 C 0.55725 0.65272 0.00915 0.0
C1440 C 0.54933 0.63484 0.02837 0.0
C1441 C 0.55833 0.62526 0.01999 0.0
C1442 C 0.57532 0.63356 0.99262 0.0
C1443 C 0.58336 0.65148 0.97375 0.0
H1444 H 0.55217 0.61142 0.03487 0.0
H1445 H 0.62874 0.78393 0.83654 0.0
H1446 H 0.88813 0.56839 0.86465 0.0
H1447 H 0.88016 0.56726 0.9735 0.0
H1448 H 0.9166 0.62412 0.99032 0.0
H1449 H 0.92418 0.62567 0.88071 0.0
H1450 H 0.92038 0.60284 0.08297 0.0
H1451 H 0.87504 0.61178 0.99194 0.0
H1452 H 0.85047 0.60656 0.92067 0.0
H1453 H 0.8182 0.55335 0.99339 0.0
H1454 H 0.84267 0.55812 0.06448 0.0
H1455 H 0.89215 0.60514 0.38968 0.0
H1456 H 0.89731 0.61201 0.27941 0.0
H1457 H 0.8626 0.55616 0.23535 0.0
H1458 H 0.85779 0.54895 0.34558 0.0
H1459 H 0.85809 0.58038 0.15673 0.0
H1460 H 0.90441 0.56998 0.23613 0.0
H1461 H 0.92879 0.5744 0.30696 0.0
H1462 H 0.95906 0.62992 0.25493 0.0
H1463 H 0.93468 0.62588 0.18421 0.0
C1464 C 0.89428 0.58077 0.89081 0.0
C1465 C 0.90672 0.59716 0.86307 0.0
C1466 C 0.88971 0.58005 0.95322 0.0
C1467 C 0.89763 0.59564 0.98947 0.0
C1468 C 0.91029 0.61196 0.96275 0.0
C1469 C 0.9147 0.61276 0.90003 0.0
C1470 C 0.89324 0.5946 0.05606 0.0
C1471 C 0.90685 0.59832 0.09923 0.0
C1472 C 0.87547 0.58832 0.07677 0.0
C1473 C 0.8608 0.58526 0.03323 0.0
C1474 C 0.8628 0.59888 0.99228 0.0
C1475 C 0.84886 0.59603 0.95201 0.0
C1476 C 0.8328 0.57963 0.95242 0.0
C1477 C 0.83065 0.56605 0.99309 0.0
C1478 C 0.84455 0.56883 0.03343 0.0
C1479 C 0.88562 0.59425 0.35686 0.0
C1480 C 0.8748 0.5764 0.377 0.0
C1481 C 0.88848 0.59826 0.29375 0.0
C1482 C 0.88046 0.58456 0.24954 0.0
C1483 C 0.86887 0.56691 0.269 0.0
C1484 C 0.86613 0.56283 0.33217 0.0
C1485 C 0.88519 0.5884 0.1833 0.0
C1486 C 0.87166 0.58518 0.14035 0.0
C1487 C 0.90302 0.5951 0.16261 0.0
C1488 C 0.91763 0.59767 0.20546 0.0
C1489 C 0.91617 0.58318 0.24026 0.0
C1490 C 0.93 0.5856 0.28022 0.0
C1491 C 0.94543 0.60242 0.28538 0.0
C1492 C 0.94707 0.61689 0.25076 0.0
C1493 C 0.93325 0.61454 0.21073 0.0
H1494 H 0.95613 0.60419 0.31607 0.0
H1495 H 0.822 0.57745 0.92138 0.0
H1496 H 0.31327 0.85686 0.47917 0.0
H1497 H 0.31381 0.86335 0.36868 0.0
H1498 H 0.2825 0.88893 0.40348 0.0
H1499 H 0.2816 0.88216 0.51394 0.0
H1500 H 0.27181 0.86869 0.2985 0.0
H1501 H 0.32821 0.91287 0.39071 0.0
H1502 H 0.35704 0.92415 0.44515 0.0
H1503 H 0.37393 0.89893 0.3107 0.0
H1504 H 0.34529 0.88761 0.25474 0.0
H1505 H 0.29067 0.91451 0.00924 0.0
H1506 H 0.28826 0.90813 0.12054 0.0
H1507 H 0.32204 0.88466 0.09948 0.0
H1508 H 0.32503 0.89158 0.9889 0.0
H1509 H 0.33133 0.90501 0.19894 0.0
H1510 H 0.27656 0.85855 0.1121 0.0
H1511 H 0.2483 0.84545 0.05264 0.0
H1512 H 0.22832 0.87099 0.17409 0.0
H1513 H 0.25658 0.88447 0.23382 0.0
C1514 C 0.30622 0.86357 0.46323 0.0
C1515 C 0.29752 0.86914 0.50545 0.0
C1516 C 0.30671 0.86745 0.40015 0.0
C1517 C 0.2986 0.87704 0.37817 0.0
C1518 C 0.28912 0.8818 0.41963 0.0
C1519 C 0.28866 0.87797 0.48277 0.0
C1520 C 0.30042 0.88252 0.31228 0.0
C1521 C 0.28481 0.87683 0.27685 0.0
C1522 C 0.31743 0.89275 0.28383 0.0
C1523 C 0.33453 0.89935 0.31846 0.0
C1524 C 0.33801 0.90968 0.37267 0.0
C1525 C 0.35434 0.9161 0.40386 0.0
C1526 C 0.36725 0.9122 0.38164 0.0
C1527 C 0.36391 0.90194 0.32792 0.0
C1528 C 0.34766 0.89558 0.29629 0.0
C1529 C 0.2978 0.90825 0.02846 0.0
C1530 C 0.30796 0.90345 0.99012 0.0
C1531 C 0.29624 0.90442 0.09195 0.0
C1532 C 0.30474 0.89567 0.11809 0.0
C1533 C 0.31528 0.89133 0.08023 0.0
C1534 C 0.31687 0.89518 0.01693 0.0
C1535 C 0.30274 0.89097 0.18487 0.0
C1536 C 0.31831 0.8969 0.22059 0.0
C1537 C 0.28573 0.88063 0.21317 0.0
C1538 C 0.26879 0.87271 0.17696 0.0
C1539 C 0.26622 0.86153 0.12576 0.0
C1540 C 0.25019 0.854 0.09209 0.0
C1541 C 0.23656 0.85744 0.10944 0.0
C1542 C 0.23891 0.86838 0.16062 0.0
C1543 C 0.25493 0.87596 0.1944 0.0
H1544 H 0.22417 0.85161 0.08329 0.0
H1545 H 0.37986 0.91718 0.40598 0.0
H1546 H 0.40751 0.30866 0.65483 0.0
H1547 H 0.40082 0.30492 0.54432 0.0
H1548 H 0.43692 0.28426 0.5199 0.0
H1549 H 0.44365 0.28792 0.63131 0.0
H1550 H 0.44224 0.30954 0.43447 0.0
H1551 H 0.3923 0.25597 0.51297 0.0
H1552 H 0.36663 0.23797 0.58211 0.0
H1553 H 0.34023 0.26587 0.51565 0.0
H1554 H 0.36585 0.28423 0.4467 0.0
H1555 H 0.41676 0.28694 0.12238 0.0
H1556 H 0.4205 0.28308 0.23256 0.0
H1557 H 0.38657 0.30505 0.2788 0.0
H1558 H 0.38276 0.30892 0.16804 0.0
H1559 H 0.38005 0.27621 0.35234 0.0
H1560 H 0.43101 0.33152 0.28235 0.0
H1561 H 0.45675 0.35003 0.21405 0.0
H1562 H 0.48127 0.31905 0.266 0.0
H1563 H 0.45553 0.30019 0.33395 0.0
C1564 C 0.41381 0.30304 0.62623 0.0
C1565 C 0.42597 0.2984 0.65175 0.0
C1566 C 0.40999 0.30093 0.56308 0.0
C1567 C 0.41815 0.29402 0.52432 0.0
C1568 C 0.43043 0.28952 0.54935 0.0
C1569 C 0.43431 0.29168 0.61273 0.0
C1570 C 0.41435 0.29231 0.45717 0.0
C1571 C 0.42869 0.30195 0.41633 0.0
C1572 C 0.3966 0.28271 0.434 0.0
C1573 C 0.38106 0.27156 0.47493 0.0
C1574 C 0.38107 0.25835 0.51337 0.0
C1575 C 0.36652 0.24807 0.55249 0.0
C1576 C 0.35182 0.25079 0.55335 0.0
C1577 C 0.35162 0.26377 0.51495 0.0
C1578 C 0.36615 0.2741 0.47576 0.0
C1579 C 0.41016 0.29101 0.15604 0.0
C1580 C 0.39978 0.29859 0.13703 0.0
C1581 C 0.41221 0.28869 0.21882 0.0
C1582 C 0.40406 0.29407 0.26356 0.0
C1583 C 0.39299 0.30087 0.24474 0.0
C1584 C 0.39085 0.30309 0.18176 0.0
C1585 C 0.40792 0.29359 0.32994 0.0
C1586 C 0.39361 0.28358 0.37053 0.0
C1587 C 0.42569 0.30287 0.353 0.0
C1588 C 0.44126 0.31433 0.3127 0.0
C1589 C 0.44183 0.32858 0.27885 0.0
C1590 C 0.45642 0.33914 0.24025 0.0
C1591 C 0.47061 0.33569 0.23555 0.0
C1592 C 0.47025 0.32169 0.2696 0.0
C1593 C 0.45567 0.31107 0.30819 0.0
H1594 H 0.48189 0.34388 0.20562 0.0
H1595 H 0.34058 0.24282 0.5837 0.0
H1596 H 0.60314 0.88328 0.98433 0.0
H1597 H 0.60853 0.88991 0.09509 0.0
H1598 H 0.55151 0.86014 0.12915 0.0
H1599 H 0.54606 0.8536 0.0185 0.0
H1600 H 0.56676 0.893 0.18054 0.0
H1601 H 0.57902 0.84414 0.17516 0.0
H1602 H 0.59398 0.82777 0.13845 0.0
H1603 H 0.64521 0.87216 0.19036 0.0
H1604 H 0.63057 0.8889 0.22662 0.0
H1605 H 0.56479 0.88823 0.5074 0.0
H1606 H 0.56203 0.88188 0.39637 0.0
H1607 H 0.61963 0.91205 0.37775 0.0
H1608 H 0.62253 0.91795 0.48929 0.0
H1609 H 0.60603 0.88102 0.3168 0.0
H1610 H 0.59395 0.92916 0.32717 0.0
H1611 H 0.57955 0.94606 0.36345 0.0
H1612 H 0.52831 0.90364 0.3018 0.0
H1613 H 0.54238 0.88635 0.26579 0.0
C1614 C 0.59178 0.87805 0.01552 0.0
C1615 C 0.57417 0.86796 0.99263 0.0
C1616 C 0.59487 0.88178 0.07886 0.0
C1617 C 0.58041 0.87559 0.12039 0.0
C1618 C 0.56286 0.86508 0.09788 0.0
C1619 C 0.55977 0.86121 0.0347 0.0
C1620 C 0.58342 0.88094 0.18662 0.0
C1621 C 0.57507 0.89008 0.2107 0.0
C1622 C 0.5949 0.87783 0.22512 0.0
C1623 C 0.60372 0.86783 0.20302 0.0
C1624 C 0.59349 0.85047 0.17822 0.0
C1625 C 0.60191 0.84112 0.15761 0.0
C1626 C 0.62054 0.84894 0.16192 0.0
C1627 C 0.63078 0.86613 0.18697 0.0
C1628 C 0.62244 0.87554 0.20761 0.0
C1629 C 0.57688 0.89349 0.4798 0.0
C1630 C 0.59388 0.90364 0.50735 0.0
C1631 C 0.57528 0.89 0.41617 0.0
C1632 C 0.59062 0.89669 0.37862 0.0
C1633 C 0.60761 0.90685 0.40583 0.0
C1634 C 0.60923 0.91035 0.46954 0.0
C1635 C 0.58886 0.89253 0.31135 0.0
C1636 C 0.59759 0.88381 0.28685 0.0
C1637 C 0.57774 0.89604 0.2724 0.0
C1638 C 0.56921 0.90638 0.29422 0.0
C1639 C 0.57959 0.92335 0.32178 0.0
C1640 C 0.57149 0.93302 0.3422 0.0
C1641 C 0.55302 0.92591 0.33507 0.0
C1642 C 0.54262 0.90912 0.30735 0.0
C1643 C 0.55066 0.89939 0.28684 0.0
H1644 H 0.54677 0.93342 0.35091 0.0
H1645 H 0.62703 0.84167 0.14596 0.0
H1646 H 0.7003 0.55333 0.17264 0.0
H1647 H 0.69972 0.55876 0.28361 0.0
H1648 H 0.69853 0.60724 0.24369 0.0
H1649 H 0.69835 0.60168 0.13357 0.0
H1650 H 0.72104 0.58578 0.36231 0.0
H1651 H 0.66956 0.61022 0.34927 0.0
H1652 H 0.64613 0.60818 0.27811 0.0
H1653 H 0.63778 0.55777 0.20928 0.0
H1654 H 0.66093 0.55936 0.28065 0.0
H1655 H 0.71428 0.62511 0.64491 0.0
H1656 H 0.71644 0.62021 0.53397 0.0
H1657 H 0.66762 0.56904 0.54543 0.0
H1658 H 0.66547 0.57387 0.65652 0.0
H1659 H 0.66938 0.59032 0.44236 0.0
H1660 H 0.70441 0.56874 0.54565 0.0
H1661 H 0.72811 0.57057 0.61474 0.0
H1662 H 0.76827 0.6132 0.50397 0.0
H1663 H 0.74477 0.61193 0.43496 0.0
C1664 C 0.69987 0.56512 0.18729 0.0
C1665 C 0.69906 0.57684 0.14357 0.0
C1666 C 0.69972 0.56829 0.25079 0.0
C1667 C 0.69877 0.58322 0.27165 0.0
C1668 C 0.69898 0.59548 0.22843 0.0
C1669 C 0.69901 0.59228 0.16511 0.0
C1670 C 0.69661 0.58551 0.33844 0.0
C1671 C 0.70978 0.58681 0.37986 0.0
C1672 C 0.68176 0.58666 0.36111 0.0
C1673 C 0.66722 0.58509 0.31967 0.0
C1674 C 0.66267 0.59867 0.31911 0.0
C1675 C 0.64943 0.59758 0.27879 0.0
C1676 C 0.64054 0.5829 0.23901 0.0
C1677 C 0.64474 0.56918 0.23991 0.0
C1678 C 0.65793 0.57018 0.2803 0.0
C1679 C 0.70389 0.61296 0.62348 0.0
C1680 C 0.68968 0.59985 0.65896 0.0
C1681 C 0.70522 0.61012 0.56043 0.0
C1682 C 0.69226 0.59422 0.53198 0.0
C1683 C 0.67776 0.58136 0.56683 0.0
C1684 C 0.67657 0.5841 0.63003 0.0
C1685 C 0.69394 0.59086 0.46592 0.0
C1686 C 0.68067 0.58935 0.4247 0.0
C1687 C 0.70864 0.58944 0.44352 0.0
C1688 C 0.72278 0.59037 0.48548 0.0
C1689 C 0.71827 0.57867 0.53643 0.0
C1690 C 0.73167 0.57958 0.57552 0.0
C1691 C 0.74968 0.59202 0.56379 0.0
C1692 C 0.75431 0.6036 0.51303 0.0
C1693 C 0.74095 0.60279 0.47395 0.0
H1694 H 0.76004 0.59263 0.59384 0.0
H1695 H 0.63037 0.58214 0.20756 0.0
H1696 H 0.12989 0.68104 0.33219 0.0
H1697 H 0.12468 0.68232 0.44305 0.0
H1698 H 0.10976 0.72251 0.40857 0.0
H1699 H 0.11506 0.72134 0.29724 0.0
H1700 H 0.13203 0.72872 0.51747 0.0
H1701 H 0.0775 0.68372 0.42405 0.0
H1702 H 0.05935 0.65757 0.35752 0.0
H1703 H 0.07317 0.62524 0.47105 0.0
H1704 H 0.09174 0.6514 0.53783 0.0
H1705 H 0.08561 0.71577 0.80605 0.0
H1706 H 0.09296 0.71894 0.69522 0.0
H1707 H 0.10438 0.67562 0.70785 0.0
H1708 H 0.09684 0.67227 0.81828 0.0
H1709 H 0.08326 0.67226 0.6081 0.0
H1710 H 0.13801 0.71788 0.70214 0.0
H1711 H 0.15709 0.74468 0.76516 0.0
H1712 H 0.14288 0.77628 0.64941 0.0
H1713 H 0.1235 0.74958 0.58615 0.0
C1714 C 0.12587 0.69042 0.34832 0.0
C1715 C 0.12278 0.70103 0.30617 0.0
C1716 C 0.12281 0.69106 0.41152 0.0
C1717 C 0.11672 0.70241 0.43359 0.0
C1718 C 0.11445 0.71367 0.39217 0.0
C1719 C 0.11734 0.71289 0.32876 0.0
C1720 C 0.11151 0.70147 0.49928 0.0
C1721 C 0.12121 0.7165 0.53734 0.0
C1722 C 0.09754 0.68542 0.5248 0.0
C1723 C 0.08615 0.66956 0.48556 0.0
C1724 C 0.07678 0.67107 0.43459 0.0
C1725 C 0.06639 0.65622 0.39685 0.0
C1726 C 0.0651 0.63972 0.40992 0.0
C1727 C 0.07418 0.63803 0.46095 0.0
C1728 C 0.08464 0.65287 0.49879 0.0
C1729 C 0.0895 0.70682 0.78497 0.0
C1730 C 0.09065 0.69375 0.82063 0.0
C1731 C 0.09387 0.70877 0.72193 0.0
C1732 C 0.09938 0.69763 0.69368 0.0
C1733 C 0.10023 0.68439 0.72895 0.0
C1734 C 0.09599 0.68253 0.79193 0.0
C1735 C 0.10394 0.69946 0.62699 0.0
C1736 C 0.09404 0.68455 0.58848 0.0
C1737 C 0.11769 0.71567 0.60121 0.0
C1738 C 0.1291 0.73166 0.63991 0.0
C1739 C 0.13878 0.73049 0.69056 0.0
C1740 C 0.14969 0.74569 0.72623 0.0
C1741 C 0.15113 0.76216 0.71147 0.0
C1742 C 0.14171 0.76349 0.66089 0.0
C1743 C 0.13076 0.74834 0.62511 0.0
H1744 H 0.15955 0.77392 0.73906 0.0
H1745 H 0.05707 0.62823 0.38063 0.0
H1746 H 0.39231 0.11404 0.45807 0.0
H1747 H 0.38694 0.10851 0.56995 0.0
H1748 H 0.44366 0.13042 0.5999 0.0
H1749 H 0.44909 0.13603 0.48864 0.0
H1750 H 0.42113 0.09527 0.64727 0.0
H1751 H 0.42682 0.15359 0.64791 0.0
H1752 H 0.42004 0.1773 0.61951 0.0
H1753 H 0.36606 0.14482 0.68543 0.0
H1754 H 0.3724 0.12073 0.71315 0.0
H1755 H 0.42832 0.09988 0.97544 0.0
H1756 H 0.43131 0.1062 0.86386 0.0
H1757 H 0.37479 0.08835 0.85262 0.0
H1758 H 0.37177 0.08213 0.96412 0.0
H1759 H 0.39561 0.12076 0.79479 0.0
H1760 H 0.38894 0.0625 0.79385 0.0
H1761 H 0.39468 0.03803 0.82153 0.0
H1762 H 0.44867 0.06896 0.75396 0.0
H1763 H 0.44335 0.09374 0.72671 0.0
C1764 C 0.40361 0.11784 0.48875 0.0
C1765 C 0.42111 0.12545 0.46479 0.0
C1766 C 0.40055 0.1148 0.55248 0.0
C1767 C 0.41493 0.11915 0.59293 0.0
C1768 C 0.43243 0.12709 0.5693 0.0
C1769 C 0.43551 0.13036 0.50585 0.0
C1770 C 0.41164 0.11393 0.65897 0.0
C1771 C 0.41571 0.10094 0.67978 0.0
C1772 C 0.40404 0.121 0.70046 0.0
C1773 C 0.40002 0.13522 0.68173 0.0
C1774 C 0.41341 0.15136 0.65541 0.0
C1775 C 0.40967 0.16491 0.63967 0.0
C1776 C 0.39261 0.16254 0.65041 0.0
C1777 C 0.37925 0.14661 0.67692 0.0
C1778 C 0.38291 0.133 0.69262 0.0
C1779 C 0.41655 0.09727 0.94903 0.0
C1780 C 0.39982 0.09047 0.97835 0.0
C1781 C 0.41824 0.10077 0.88537 0.0
C1782 C 0.40324 0.09763 0.85004 0.0
C1783 C 0.3865 0.0908 0.87911 0.0
C1784 C 0.38478 0.08712 0.94266 0.0
C1785 C 0.40521 0.10214 0.78318 0.0
C1786 C 0.40088 0.11495 0.76217 0.0
C1787 C 0.41238 0.09476 0.74112 0.0
C1788 C 0.41582 0.08009 0.75906 0.0
C1789 C 0.40212 0.0642 0.78569 0.0
C1790 C 0.40527 0.05023 0.80108 0.0
C1791 C 0.42205 0.05196 0.78973 0.0
C1792 C 0.4357 0.06765 0.76288 0.0
C1793 C 0.43262 0.08166 0.74745 0.0
H1794 H 0.42445 0.04112 0.80157 0.0
H1795 H 0.38975 0.17307 0.63842 0.0
H1796 H 0.32211 0.43406 0.66183 0.0
H1797 H 0.32418 0.43156 0.7741 0.0
H1798 H 0.27439 0.4316 0.79774 0.0
H1799 H 0.27288 0.43509 0.68468 0.0
H1800 H 0.2994 0.45032 0.89147 0.0
H1801 H 0.27354 0.39193 0.7925 0.0
H1802 H 0.27576 0.37518 0.70328 0.0
H1803 H 0.32673 0.38438 0.76955 0.0
H1804 H 0.325 0.40148 0.85832 0.0
H1805 H 0.28494 0.41503 0.19398 0.0
H1806 H 0.2808 0.41872 0.08379 0.0
H1807 H 0.32576 0.41157 0.03925 0.0
H1808 H 0.32919 0.4069 0.14985 0.0
H1809 H 0.30143 0.3959 0.95525 0.0
H1810 H 0.32889 0.4544 0.04951 0.0
H1811 H 0.33157 0.47696 0.12585 0.0
H1812 H 0.28115 0.47054 0.06522 0.0
H1813 H 0.27807 0.44777 0.98901 0.0
C1814 C 0.31169 0.43362 0.6912 0.0
C1815 C 0.29714 0.43436 0.66518 0.0
C1816 C 0.31289 0.43226 0.75514 0.0
C1817 C 0.2992 0.43094 0.79403 0.0
C1818 C 0.28503 0.43249 0.7684 0.0
C1819 C 0.28409 0.43434 0.70417 0.0
C1820 C 0.29907 0.42642 0.8604 0.0
C1821 C 0.29952 0.43829 0.90569 0.0
C1822 C 0.2996 0.41089 0.87856 0.0
C1823 C 0.29919 0.39806 0.83177 0.0
C1824 C 0.28511 0.39017 0.78839 0.0
C1825 C 0.28637 0.38078 0.73758 0.0
C1826 C 0.30153 0.37903 0.73015 0.0
C1827 C 0.31512 0.38599 0.77484 0.0
C1828 C 0.31398 0.39546 0.82559 0.0
C1829 C 0.29385 0.4142 0.16039 0.0
C1830 C 0.30753 0.41095 0.17983 0.0
C1831 C 0.29155 0.41637 0.0976 0.0
C1832 C 0.30328 0.41593 0.05327 0.0
C1833 C 0.31661 0.41208 0.0726 0.0
C1834 C 0.31862 0.40946 0.1355 0.0
C1835 C 0.30189 0.4199 0.9871 0.0
C1836 C 0.30109 0.40785 0.94157 0.0
C1837 C 0.30122 0.4354 0.96879 0.0
C1838 C 0.30318 0.44927 0.01397 0.0
C1839 C 0.31833 0.45774 0.05269 0.0
C1840 C 0.31993 0.47057 0.09591 0.0
C1841 C 0.30652 0.47515 0.10048 0.0
C1842 C 0.29152 0.46696 0.06168 0.0
C1843 C 0.28985 0.45411 0.01841 0.0
H1844 H 0.30778 0.48507 0.13401 0.0
H1845 H 0.30273 0.37226 0.68973 0.0
H1846 H 0.93726 0.31232 0.28489 0.0
H1847 H 0.93097 0.30975 0.17317 0.0
H1848 H 0.87729 0.29918 0.21057 0.0
H1849 H 0.8832 0.30097 0.32153 0.0
H1850 H 0.87777 0.27644 0.12411 0.0
H1851 H 0.90884 0.33991 0.1657 0.0
H1852 H 0.93374 0.3686 0.20401 0.0
H1853 H 0.96993 0.36427 0.07751 0.0
H1854 H 0.94529 0.33542 0.03911 0.0
H1855 H 0.85489 0.29483 0.82385 0.0
H1856 H 0.8605 0.29424 0.93519 0.0
H1857 H 0.91441 0.30598 0.89533 0.0
H1858 H 0.90921 0.30716 0.78547 0.0
H1859 H 0.91413 0.32749 0.98294 0.0
H1860 H 0.88237 0.26433 0.93893 0.0
H1861 H 0.85729 0.23564 0.90143 0.0
H1862 H 0.82191 0.23954 0.03288 0.0
H1863 H 0.8467 0.26842 0.0704 0.0
C1864 C 0.92411 0.30933 0.26906 0.0
C1865 C 0.91083 0.30712 0.31169 0.0
C1866 C 0.92057 0.30796 0.20551 0.0
C1867 C 0.90371 0.30441 0.18398 0.0
C1868 C 0.89036 0.30191 0.22648 0.0
C1869 C 0.89387 0.30322 0.2898 0.0
C1870 C 0.89994 0.30348 0.11706 0.0
C1871 C 0.88553 0.28767 0.09324 0.0
C1872 C 0.91042 0.31802 0.077 0.0
C1873 C 0.92526 0.33538 0.10008 0.0
C1874 C 0.92214 0.34499 0.14648 0.0
C1875 C 0.9362 0.3613 0.16813 0.0
C1876 C 0.95342 0.36823 0.14337 0.0
C1877 C 0.9566 0.35887 0.09677 0.0
C1878 C 0.94259 0.34254 0.07503 0.0
C1879 C 0.86791 0.29725 0.83901 0.0
C1880 C 0.88154 0.30094 0.79578 0.0
C1881 C 0.87105 0.29676 0.90239 0.0
C1882 C 0.88784 0.29991 0.92316 0.0
C1883 C 0.90136 0.30342 0.88009 0.0
C1884 C 0.89827 0.30392 0.81711 0.0
C1885 C 0.89179 0.30049 0.9899 0.0
C1886 C 0.9063 0.31626 0.01373 0.0
C1887 C 0.88133 0.28594 0.02996 0.0
C1888 C 0.86636 0.26865 0.00699 0.0
C1889 C 0.8692 0.25917 0.95938 0.0
C1890 C 0.85504 0.24285 0.93819 0.0
C1891 C 0.838 0.2358 0.9646 0.0
C1892 C 0.8351 0.24504 0.01235 0.0
C1893 C 0.8492 0.26138 0.0336 0.0
H1894 H 0.82706 0.22315 0.94818 0.0
H1895 H 0.96428 0.38086 0.16017 0.0
loop_
_geom_bond_atom_site_label_1
_geom_bond_atom_site_label_2
_geom_bond_distance
_geom_bond_site_symmetry_2
_ccdc_geom_bond_type
Co0 N4 2.148 . S
Co0 N10 2.128 1_554 S
Co0 N20 2.194 . S
Co0 O25 2.351 . S
Co0 O26 2.155 . S
Co0 O27 2.096 . S
C1 N4 1.301 . S
C1 N5 1.328 . S
C1 H6 0.930 . S
C2 C3 1.333 . S
C2 N4 1.317 . S
C2 H7 0.930 . S
C3 C2 1.333 . S
C3 N5 1.350 . S
C3 H29 0.931 . S
N4 Co0 2.148 . S
N4 C1 1.301 . S
N4 C2 1.317 . S
N5 C1 1.328 . S
N5 C3 1.350 . S
H6 C1 0.930 . S
H7 C2 0.930 . S
C8 O9 1.224 . S
C8 O27 1.247 . S
O9 C8 1.224 . S
N10 Co0 2.128 1_556 S
N10 C11 1.355 . S
N10 C13 1.311 . S
C11 N10 1.355 . S
C11 C12 1.363 . S
C11 H23 0.929 . S
C12 C11 1.363 . S
C12 N14 1.375 . S
C12 H30 0.931 . S
C13 N10 1.311 . S
C13 N14 1.347 . S
C13 H24 0.929 . S
N14 C12 1.375 . S
N14 C13 1.347 . S
C15 C18 1.365 . S
C15 N20 1.328 . S
C15 H21 0.929 . S
C16 C17 1.362 . S
C16 C19 1.378 . S
C16 H31 0.929 . S
C17 C16 1.362 . S
C17 C18 1.366 . S
C18 C15 1.365 . S
C18 C17 1.366 . S
C18 H32 0.930 . S
C19 C16 1.378 . S
C19 N20 1.315 . S
C19 H22 0.930 . S
N20 Co0 2.194 . S
N20 C15 1.328 . S
N20 C19 1.315 . S
H21 C15 0.929 . S
H22 C19 0.930 . S
H23 C11 0.929 . S
H24 C13 0.929 . S
O25 Co0 2.351 . S
O25 C28 1.244 . S
O26 Co0 2.155 . S
O26 C28 1.240 . S
O27 Co0 2.096 . S
O27 C8 1.247 . S
C28 O25 1.244 . S
C28 O26 1.240 . S
H29 C3 0.931 . S
H30 C12 0.931 . S
H31 C16 0.929 . S
H32 C18 0.930 . S
Co33 N37 2.148 . S
Co33 N43 2.128 . S
Co33 N53 2.194 . S
Co33 O58 2.351 . S
Co33 O59 2.155 . S
Co33 O60 2.096 . S
C34 N37 1.301 . S
C34 N38 1.328 . S
C34 H39 0.930 . S
C35 C36 1.333 . S
C35 N37 1.317 . S
C35 H40 0.930 . S
C36 C35 1.333 . S
C36 N38 1.350 . S
C36 H62 0.931 . S
N37 Co33 2.148 . S
N37 C34 1.301 . S
N37 C35 1.317 . S
N38 C34 1.328 . S
N38 C36 1.350 . S
H39 C34 0.930 . S
H40 C35 0.930 . S
C41 O42 1.224 . S
C41 O60 1.247 . S
O42 C41 1.224 . S
N43 Co33 2.128 . S
N43 C44 1.355 . S
N43 C46 1.311 . S
C44 N43 1.355 . S
C44 C45 1.363 . S
C44 H56 0.929 . S
C45 C44 1.363 . S
C45 N47 1.375 . S
C45 H63 0.931 . S
C46 N43 1.311 . S
C46 N47 1.347 . S
C46 H57 0.929 . S
N47 C45 1.375 . S
N47 C46 1.347 . S
C48 C51 1.365 . S
C48 N53 1.328 . S
C48 H54 0.929 . S
C49 C50 1.362 . S
C49 C52 1.378 . S
C49 H64 0.929 . S
C50 C49 1.362 . S
C50 C51 1.366 . S
C51 C48 1.365 . S
C51 C50 1.366 . S
C51 H65 0.930 . S
C52 C49 1.378 . S
C52 N53 1.315 . S
C52 H55 0.930 . S
N53 Co33 2.194 . S
N53 C48 1.328 . S
N53 C52 1.315 . S
H54 C48 0.929 . S
H55 C52 0.930 . S
H56 C44 0.929 . S
H57 C46 0.929 . S
O58 Co33 2.351 . S
O58 C61 1.244 . S
O59 Co33 2.155 . S
O59 C61 1.240 . S
O60 Co33 2.096 . S
O60 C41 1.247 . S
C61 O58 1.244 . S
C61 O59 1.240 . S
H62 C36 0.931 . S
H63 C45 0.931 . S
H64 C49 0.929 . S
H65 C51 0.930 . S
Co66 N70 2.148 . S
Co66 N76 2.128 . S
Co66 N86 2.194 . S
Co66 O91 2.351 . S
Co66 O92 2.155 . S
Co66 O93 2.096 . S
C67 N70 1.301 . S
C67 N71 1.328 . S
C67 H72 0.930 . S
C68 C69 1.333 . S
C68 N70 1.317 . S
C68 H73 0.930 . S
C69 C68 1.333 . S
C69 N71 1.350 . S
C69 H95 0.931 . S
N70 Co66 2.148 . S
N70 C67 1.301 . S
N70 C68 1.317 . S
N71 C67 1.328 . S
N71 C69 1.350 . S
H72 C67 0.930 . S
H73 C68 0.930 . S
C74 O75 1.224 . S
C74 O93 1.247 . S
O75 C74 1.224 . S
N76 Co66 2.128 . S
N76 C77 1.355 . S
N76 C79 1.311 . S
C77 N76 1.355 . S
C77 C78 1.363 . S
C77 H89 0.929 . S
C78 C77 1.363 . S
C78 N80 1.375 . S
C78 H96 0.931 . S
C79 N76 1.311 . S
C79 N80 1.347 . S
C79 H90 0.929 . S
N80 C78 1.375 . S
N80 C79 1.347 . S
C81 C84 1.365 . S
C81 N86 1.328 . S
C81 H87 0.929 . S
C82 C83 1.362 . S
C82 C85 1.378 . S
C82 H97 0.929 . S
C83 C82 1.362 . S
C83 C84 1.366 . S
C84 C81 1.365 . S
C84 C83 1.366 . S
C84 H98 0.930 . S
C85 C82 1.378 . S
C85 N86 1.315 . S
C85 H88 0.930 . S
N86 Co66 2.194 . S
N86 C81 1.328 . S
N86 C85 1.315 . S
H87 C81 0.929 . S
H88 C85 0.930 . S
H89 C77 0.929 . S
H90 C79 0.929 . S
O91 Co66 2.351 . S
O91 C94 1.244 . S
O92 Co66 2.155 . S
O92 C94 1.240 . S
O93 Co66 2.096 . S
O93 C74 1.247 . S
C94 O91 1.244 . S
C94 O92 1.240 . S
H95 C69 0.931 . S
H96 C78 0.931 . S
H97 C82 0.929 . S
H98 C84 0.930 . S
Co99 N103 2.148 . S
Co99 N109 2.128 . S
Co99 N119 2.194 . S
Co99 O124 2.351 . S
Co99 O125 2.155 . S
Co99 O126 2.096 . S
C100 N103 1.301 . S
C100 N104 1.328 . S
C100 H105 0.930 . S
C101 C102 1.333 . S
C101 N103 1.317 . S
C101 H106 0.930 . S
C102 C101 1.333 . S
C102 N104 1.350 . S
C102 H128 0.931 . S
N103 Co99 2.148 . S
N103 C100 1.301 . S
N103 C101 1.317 . S
N104 C100 1.328 . S
N104 C102 1.350 . S
H105 C100 0.930 . S
H106 C101 0.930 . S
C107 O108 1.224 . S
C107 O126 1.247 . S
O108 C107 1.224 . S
N109 Co99 2.128 . S
N109 C110 1.355 . S
N109 C112 1.311 . S
C110 N109 1.355 . S
C110 C111 1.363 . S
C110 H122 0.929 . S
C111 C110 1.363 . S
C111 N113 1.375 . S
C111 H129 0.931 . S
C112 N109 1.311 . S
C112 N113 1.347 . S
C112 H123 0.929 . S
N113 C111 1.375 . S
N113 C112 1.347 . S
C114 C117 1.365 . S
C114 N119 1.328 . S
C114 H120 0.929 . S
C115 C116 1.362 . S
C115 C118 1.378 . S
C115 H130 0.929 . S
C116 C115 1.362 . S
C116 C117 1.366 . S
C117 C114 1.365 . S
C117 C116 1.366 . S
C117 H131 0.930 . S
C118 C115 1.378 . S
C118 N119 1.315 . S
C118 H121 0.930 . S
N119 Co99 2.194 . S
N119 C114 1.328 . S
N119 C118 1.315 . S
H120 C114 0.929 . S
H121 C118 0.930 . S
H122 C110 0.929 . S
H123 C112 0.929 . S
O124 Co99 2.351 . S
O124 C127 1.244 . S
O125 Co99 2.155 . S
O125 C127 1.240 . S
O126 Co99 2.096 . S
O126 C107 1.247 . S
C127 O124 1.244 . S
C127 O125 1.240 . S
H128 C102 0.931 . S
H129 C111 0.931 . S
H130 C115 0.929 . S
H131 C117 0.930 . S
Co132 N136 2.148 . S
Co132 N142 2.128 . S
Co132 N152 2.194 . S
Co132 O157 2.351 . S
Co132 O158 2.155 . S
Co132 O159 2.096 . S
C133 N136 1.301 . S
C133 N137 1.328 . S
C133 H138 0.930 . S
C134 C135 1.333 . S
C134 N136 1.317 . S
C134 H139 0.930 . S
C135 C134 1.333 . S
C135 N137 1.350 . S
C135 H161 0.931 . S
N136 Co132 2.148 . S
N136 C133 1.301 . S
N136 C134 1.317 . S
N137 C133 1.328 . S
N137 C135 1.350 . S
H138 C133 0.930 . S
H139 C134 0.930 . S
C140 O141 1.224 . S
C140 O159 1.247 . S
O141 C140 1.224 . S
N142 Co132 2.128 . S
N142 C143 1.355 . S
N142 C145 1.311 . S
C143 N142 1.355 . S
C143 C144 1.363 . S
C143 H155 0.929 . S
C144 C143 1.363 . S
C144 N146 1.375 . S
C144 H162 0.931 . S
C145 N142 1.311 . S
C145 N146 1.347 . S
C145 H156 0.929 . S
N146 C144 1.375 . S
N146 C145 1.347 . S
C147 C150 1.365 . S
C147 N152 1.328 . S
C147 H153 0.929 . S
C148 C149 1.362 . S
C148 C151 1.378 . S
C148 H163 0.929 . S
C149 C148 1.362 . S
C149 C150 1.366 . S
C150 C147 1.365 . S
C150 C149 1.366 . S
C150 H164 0.930 . S
C151 C148 1.378 . S
C151 N152 1.315 . S
C151 H154 0.930 . S
N152 Co132 2.194 . S
N152 C147 1.328 . S
N152 C151 1.315 . S
H153 C147 0.929 . S
H154 C151 0.930 . S
H155 C143 0.929 . S
H156 C145 0.929 . S
O157 Co132 2.351 . S
O157 C160 1.244 . S
O158 Co132 2.155 . S
O158 C160 1.240 . S
O159 Co132 2.096 . S
O159 C140 1.247 . S
C160 O157 1.244 . S
C160 O158 1.240 . S
H161 C135 0.931 . S
H162 C144 0.931 . S
H163 C148 0.929 . S
H164 C150 0.930 . S
Co165 N169 2.148 . S
Co165 N175 2.128 . S
Co165 N185 2.194 . S
Co165 O190 2.351 . S
Co165 O191 2.155 . S
Co165 O192 2.096 . S
C166 N169 1.301 1_554 S
C166 N170 1.328 . S
C166 H171 0.930 . S
C167 C168 1.333 . S
C167 N169 1.317 1_554 S
C167 H172 0.930 1_554 S
C168 C167 1.333 . S
C168 N170 1.350 . S
C168 H194 0.931 . S
N169 Co165 2.148 . S
N169 C166 1.301 1_556 S
N169 C167 1.317 1_556 S
N170 C166 1.328 . S
N170 C168 1.350 . S
H171 C166 0.930 . S
H172 C167 0.930 1_556 S
C173 O174 1.224 . S
C173 O192 1.247 . S
O174 C173 1.224 . S
N175 Co165 2.128 . S
N175 C176 1.355 . S
N175 C178 1.311 . S
C176 N175 1.355 . S
C176 C177 1.363 . S
C176 H188 0.929 . S
C177 C176 1.363 . S
C177 N179 1.375 . S
C177 H195 0.931 . S
C178 N175 1.311 . S
C178 N179 1.347 . S
C178 H189 0.929 . S
N179 C177 1.375 . S
N179 C178 1.347 . S
C180 C183 1.365 . S
C180 N185 1.328 . S
C180 H186 0.929 . S
C181 C182 1.362 . S
C181 C184 1.378 . S
C181 H196 0.929 . S
C182 C181 1.362 . S
C182 C183 1.366 . S
C183 C180 1.365 . S
C183 C182 1.366 . S
C183 H197 0.930 . S
C184 C181 1.378 . S
C184 N185 1.315 . S
C184 H187 0.930 . S
N185 Co165 2.194 . S
N185 C180 1.328 . S
N185 C184 1.315 . S
H186 C180 0.929 . S
H187 C184 0.930 . S
H188 C176 0.929 . S
H189 C178 0.929 . S
O190 Co165 2.351 . S
O190 C193 1.244 . S
O191 Co165 2.155 . S
O191 C193 1.240 . S
O192 Co165 2.096 . S
O192 C173 1.247 . S
C193 O190 1.244 . S
C193 O191 1.240 . S
H194 C168 0.931 . S
H195 C177 0.931 . S
H196 C181 0.929 . S
H197 C183 0.930 . S
Co198 N202 2.148 . S
Co198 N208 2.128 . S
Co198 N218 2.194 . S
Co198 O223 2.351 . S
Co198 O224 2.155 . S
Co198 O225 2.096 . S
C199 N202 1.301 . S
C199 N203 1.328 . S
C199 H204 0.930 . S
C200 C201 1.333 . S
C200 N202 1.317 . S
C200 H205 0.930 . S
C201 C200 1.333 . S
C201 N203 1.350 . S
C201 H227 0.931 . S
N202 Co198 2.148 . S
N202 C199 1.301 . S
N202 C200 1.317 . S
N203 C199 1.328 . S
N203 C201 1.350 . S
H204 C199 0.930 . S
H205 C200 0.930 . S
C206 O207 1.224 . S
C206 O225 1.247 . S
O207 C206 1.224 . S
N208 Co198 2.128 . S
N208 C209 1.355 . S
N208 C211 1.311 . S
C209 N208 1.355 . S
C209 C210 1.363 . S
C209 H221 0.929 . S
C210 C209 1.363 . S
C210 N212 1.375 . S
C210 H228 0.931 . S
C211 N208 1.311 . S
C211 N212 1.347 . S
C211 H222 0.929 . S
N212 C210 1.375 . S
N212 C211 1.347 . S
C213 C216 1.365 . S
C213 N218 1.328 . S
C213 H219 0.929 . S
C214 C215 1.362 . S
C214 C217 1.378 . S
C214 H229 0.929 . S
C215 C214 1.362 . S
C215 C216 1.366 . S
C216 C213 1.365 . S
C216 C215 1.366 . S
C216 H230 0.930 . S
C217 C214 1.378 . S
C217 N218 1.315 . S
C217 H220 0.930 . S
N218 Co198 2.194 . S
N218 C213 1.328 . S
N218 C217 1.315 . S
H219 C213 0.929 . S
H220 C217 0.930 . S
H221 C209 0.929 . S
H222 C211 0.929 . S
O223 Co198 2.351 . S
O223 C226 1.244 . S
O224 Co198 2.155 . S
O224 C226 1.240 . S
O225 Co198 2.096 . S
O225 C206 1.247 . S
C226 O223 1.244 . S
C226 O224 1.240 . S
H227 C201 0.931 . S
H228 C210 0.931 . S
H229 C214 0.929 . S
H230 C216 0.930 . S
Co231 N235 2.148 . S
Co231 N241 2.128 1_556 S
Co231 N251 2.194 . S
Co231 O256 2.351 . S
Co231 O257 2.155 . S
Co231 O258 2.096 . S
C232 N235 1.301 . S
C232 N236 1.328 . S
C232 H237 0.930 . S
C233 C234 1.333 . S
C233 N235 1.317 . S
C233 H238 0.930 . S
C234 C233 1.333 . S
C234 N236 1.350 . S
C234 H260 0.931 . S
N235 Co231 2.148 . S
N235 C232 1.301 . S
N235 C233 1.317 . S
N236 C232 1.328 . S
N236 C234 1.350 . S
H237 C232 0.930 . S
H238 C233 0.930 . S
C239 O240 1.224 . S
C239 O258 1.247 . S
O240 C239 1.224 . S
N241 Co231 2.128 1_554 S
N241 C242 1.355 . S
N241 C244 1.311 . S
C242 N241 1.355 . S
C242 C243 1.363 . S
C242 H254 0.929 . S
C243 C242 1.363 . S
C243 N245 1.375 . S
C243 H261 0.931 . S
C244 N241 1.311 . S
C244 N245 1.347 . S
C244 H255 0.929 . S
N245 C243 1.375 . S
N245 C244 1.347 . S
C246 C249 1.365 . S
C246 N251 1.328 . S
C246 H252 0.929 . S
C247 C248 1.362 . S
C247 C250 1.378 . S
C247 H262 0.929 . S
C248 C247 1.362 . S
C248 C249 1.366 . S
C249 C246 1.365 . S
C249 C248 1.366 . S
C249 H263 0.930 . S
C250 C247 1.378 . S
C250 N251 1.315 . S
C250 H253 0.930 . S
N251 Co231 2.194 . S
N251 C246 1.328 . S
N251 C250 1.315 . S
H252 C246 0.929 . S
H253 C250 0.930 . S
H254 C242 0.929 . S
H255 C244 0.929 . S
O256 Co231 2.351 . S
O256 C259 1.244 . S
O257 Co231 2.155 . S
O257 C259 1.240 . S
O258 Co231 2.096 . S
O258 C239 1.247 . S
C259 O256 1.244 . S
C259 O257 1.240 . S
H260 C234 0.931 . S
H261 C243 0.931 . S
H262 C247 0.929 . S
H263 C249 0.930 . S
Co264 N268 2.148 . S
Co264 N274 2.128 . S
Co264 N284 2.194 . S
Co264 O289 2.351 . S
Co264 O290 2.155 . S
Co264 O291 2.096 . S
C265 N268 1.301 1_556 S
C265 N269 1.328 . S
C265 H270 0.930 . S
C266 C267 1.333 1_554 S
C266 N268 1.317 . S
C266 H271 0.930 . S
C267 C266 1.333 1_556 S
C267 N269 1.350 . S
C267 H293 0.931 . S
N268 Co264 2.148 . S
N268 C265 1.301 1_554 S
N268 C266 1.317 . S
N269 C265 1.328 . S
N269 C267 1.350 . S
H270 C265 0.930 . S
H271 C266 0.930 . S
C272 O273 1.224 . S
C272 O291 1.247 . S
O273 C272 1.224 . S
N274 Co264 2.128 . S
N274 C275 1.355 . S
N274 C277 1.311 . S
C275 N274 1.355 . S
C275 C276 1.363 . S
C275 H287 0.929 . S
C276 C275 1.363 . S
C276 N278 1.375 . S
C276 H294 0.931 . S
C277 N274 1.311 . S
C277 N278 1.347 . S
C277 H288 0.929 . S
N278 C276 1.375 . S
N278 C277 1.347 . S
C279 C282 1.365 . S
C279 N284 1.328 . S
C279 H285 0.929 . S
C280 C281 1.362 . S
C280 C283 1.378 . S
C280 H295 0.929 . S
C281 C280 1.362 . S
C281 C282 1.366 . S
C282 C279 1.365 . S
C282 C281 1.366 . S
C282 H296 0.930 . S
C283 C280 1.378 . S
C283 N284 1.315 . S
C283 H286 0.930 . S
N284 Co264 2.194 . S
N284 C279 1.328 . S
N284 C283 1.315 . S
H285 C279 0.929 . S
H286 C283 0.930 . S
H287 C275 0.929 . S
H288 C277 0.929 . S
O289 Co264 2.351 . S
O289 C292 1.244 . S
O290 Co264 2.155 . S
O290 C292 1.240 . S
O291 Co264 2.096 . S
O291 C272 1.247 . S
C292 O289 1.244 . S
C292 O290 1.240 . S
H293 C267 0.931 . S
H294 C276 0.931 . S
H295 C280 0.929 . S
H296 C282 0.930 . S
Co297 N301 2.148 . S
Co297 N307 2.128 . S
Co297 N317 2.194 . S
Co297 O322 2.351 . S
Co297 O323 2.155 . S
Co297 O324 2.096 . S
C298 N301 1.301 . S
C298 N302 1.328 . S
C298 H303 0.930 . S
C299 C300 1.333 . S
C299 N301 1.317 . S
C299 H304 0.930 . S
C300 C299 1.333 . S
C300 N302 1.350 . S
C300 H326 0.931 . S
N301 Co297 2.148 . S
N301 C298 1.301 . S
N301 C299 1.317 . S
N302 C298 1.328 . S
N302 C300 1.350 . S
H303 C298 0.930 . S
H304 C299 0.930 . S
C305 O306 1.224 . S
C305 O324 1.247 . S
O306 C305 1.224 . S
N307 Co297 2.128 . S
N307 C308 1.355 . S
N307 C310 1.311 . S
C308 N307 1.355 . S
C308 C309 1.363 . S
C308 H320 0.929 . S
C309 C308 1.363 . S
C309 N311 1.375 . S
C309 H327 0.931 . S
C310 N307 1.311 . S
C310 N311 1.347 . S
C310 H321 0.929 . S
N311 C309 1.375 . S
N311 C310 1.347 . S
C312 C315 1.365 . S
C312 N317 1.328 . S
C312 H318 0.929 . S
C313 C314 1.362 . S
C313 C316 1.378 . S
C313 H328 0.929 . S
C314 C313 1.362 . S
C314 C315 1.366 . S
C315 C312 1.365 . S
C315 C314 1.366 . S
C315 H329 0.930 . S
C316 C313 1.378 . S
C316 N317 1.315 . S
C316 H319 0.930 . S
N317 Co297 2.194 . S
N317 C312 1.328 . S
N317 C316 1.315 . S
H318 C312 0.929 . S
H319 C316 0.930 . S
H320 C308 0.929 . S
H321 C310 0.929 . S
O322 Co297 2.351 . S
O322 C325 1.244 . S
O323 Co297 2.155 . S
O323 C325 1.240 . S
O324 Co297 2.096 . S
O324 C305 1.247 . S
C325 O322 1.244 . S
C325 O323 1.240 . S
H326 C300 0.931 . S
H327 C309 0.931 . S
H328 C313 0.929 . S
H329 C315 0.930 . S
Co330 N334 2.148 . S
Co330 N340 2.128 . S
Co330 N350 2.194 . S
Co330 O355 2.351 . S
Co330 O356 2.155 . S
Co330 O357 2.096 . S
C331 N334 1.301 . S
C331 N335 1.328 . S
C331 H336 0.930 . S
C332 C333 1.333 . S
C332 N334 1.317 . S
C332 H337 0.930 . S
C333 C332 1.333 . S
C333 N335 1.350 . S
C333 H359 0.931 . S
N334 Co330 2.148 . S
N334 C331 1.301 . S
N334 C332 1.317 . S
N335 C331 1.328 . S
N335 C333 1.350 . S
H336 C331 0.930 . S
H337 C332 0.930 . S
C338 O339 1.224 . S
C338 O357 1.247 . S
O339 C338 1.224 . S
N340 Co330 2.128 . S
N340 C341 1.355 . S
N340 C343 1.311 . S
C341 N340 1.355 . S
C341 C342 1.363 . S
C341 H353 0.929 . S
C342 C341 1.363 . S
C342 N344 1.375 . S
C342 H360 0.931 . S
C343 N340 1.311 . S
C343 N344 1.347 . S
C343 H354 0.929 . S
N344 C342 1.375 . S
N344 C343 1.347 . S
C345 C348 1.365 . S
C345 N350 1.328 . S
C345 H351 0.929 . S
C346 C347 1.362 . S
C346 C349 1.378 . S
C346 H361 0.929 . S
C347 C346 1.362 . S
C347 C348 1.366 . S
C348 C345 1.365 . S
C348 C347 1.366 . S
C348 H362 0.930 . S
C349 C346 1.378 . S
C349 N350 1.315 . S
C349 H352 0.930 . S
N350 Co330 2.194 . S
N350 C345 1.328 . S
N350 C349 1.315 . S
H351 C345 0.929 . S
H352 C349 0.930 . S
H353 C341 0.929 . S
H354 C343 0.929 . S
O355 Co330 2.351 . S
O355 C358 1.244 . S
O356 Co330 2.155 . S
O356 C358 1.240 . S
O357 Co330 2.096 . S
O357 C338 1.247 . S
C358 O355 1.244 . S
C358 O356 1.240 . S
H359 C333 0.931 . S
H360 C342 0.931 . S
H361 C346 0.929 . S
H362 C348 0.930 . S
Co363 N367 2.148 . S
Co363 N373 2.128 . S
Co363 N383 2.194 . S
Co363 O388 2.351 . S
Co363 O389 2.155 . S
Co363 O390 2.096 . S
C364 N367 1.301 . S
C364 N368 1.328 . S
C364 H369 0.930 . S
C365 C366 1.333 . S
C365 N367 1.317 . S
C365 H370 0.930 . S
C366 C365 1.333 . S
C366 N368 1.350 . S
C366 H392 0.931 . S
N367 Co363 2.148 . S
N367 C364 1.301 . S
N367 C365 1.317 . S
N368 C364 1.328 . S
N368 C366 1.350 . S
H369 C364 0.930 . S
H370 C365 0.930 . S
C371 O372 1.224 . S
C371 O390 1.247 . S
O372 C371 1.224 . S
N373 Co363 2.128 . S
N373 C374 1.355 . S
N373 C376 1.311 . S
C374 N373 1.355 . S
C374 C375 1.363 . S
C374 H386 0.929 . S
C375 C374 1.363 . S
C375 N377 1.375 . S
C375 H393 0.931 . S
C376 N373 1.311 . S
C376 N377 1.347 . S
C376 H387 0.929 . S
N377 C375 1.375 . S
N377 C376 1.347 . S
C378 C381 1.365 . S
C378 N383 1.328 . S
C378 H384 0.929 . S
C379 C380 1.362 . S
C379 C382 1.378 . S
C379 H394 0.929 . S
C380 C379 1.362 . S
C380 C381 1.366 . S
C381 C378 1.365 . S
C381 C380 1.366 . S
C381 H395 0.930 . S
C382 C379 1.378 . S
C382 N383 1.315 . S
C382 H385 0.930 . S
N383 Co363 2.194 . S
N383 C378 1.328 . S
N383 C382 1.315 . S
H384 C378 0.929 . S
H385 C382 0.930 . S
H386 C374 0.929 . S
H387 C376 0.929 . S
O388 Co363 2.351 . S
O388 C391 1.244 . S
O389 Co363 2.155 . S
O389 C391 1.240 . S
O390 Co363 2.096 . S
O390 C371 1.247 . S
C391 O388 1.244 . S
C391 O389 1.240 . S
H392 C366 0.931 . S
H393 C375 0.931 . S
H394 C379 0.929 . S
H395 C381 0.930 . S
H396 C414 0.951 . S
H397 C416 0.951 . S
H398 C418 0.950 . S
H399 C419 0.950 . S
H400 C421 0.950 . S
H401 C424 0.950 . S
H402 C425 0.950 . S
H403 C427 0.950 . S
H404 C428 0.950 . S
H405 C429 0.951 . S
H406 C431 0.951 . S
H407 C433 0.950 . S
H408 C434 0.950 . S
H409 C436 0.950 . S
H410 C439 0.950 . S
H411 C440 0.950 . S
H412 C442 0.950 . S
H413 C443 0.950 . S
C414 H396 0.951 . S
C414 C415 1.366 . S
C414 C416 1.388 . S
C415 C414 1.366 . S
C415 C419 1.385 . S
C416 H397 0.951 . S
C416 C414 1.388 . S
C416 C417 1.366 . S
C417 C416 1.366 . S
C417 C418 1.414 . S
C417 C420 1.499 . S
C418 H398 0.950 . S
C418 C417 1.414 . S
C418 C419 1.374 . S
C419 H399 0.950 . S
C419 C415 1.385 . S
C419 C418 1.374 . S
C420 C417 1.499 . S
C420 C421 1.373 . S
C420 C422 1.389 . S
C421 H400 0.950 . S
C421 C420 1.373 . S
C421 C437 1.377 . S
C422 C420 1.389 . S
C422 C423 1.524 . S
C422 C436 1.377 . S
C423 C422 1.524 . S
C423 C424 1.397 . S
C423 C428 1.363 . S
C424 H401 0.950 . S
C424 C423 1.397 . S
C424 C425 1.334 . S
C425 H402 0.950 . S
C425 C424 1.334 . S
C425 C426 1.287 . S
C426 C425 1.287 . S
C426 C427 1.524 . S
C426 H445 0.913 . S
C427 H403 0.950 . S
C427 C426 1.524 . S
C427 C428 1.415 . S
C428 H404 0.950 . S
C428 C423 1.363 . S
C428 C427 1.415 . S
C429 H405 0.951 . S
C429 C430 1.366 . S
C429 C431 1.388 . S
C430 C429 1.366 . S
C430 C434 1.385 . S
C431 H406 0.951 . S
C431 C429 1.388 . S
C431 C432 1.366 . S
C432 C431 1.366 . S
C432 C433 1.414 . S
C432 C435 1.499 . S
C433 H407 0.950 . S
C433 C432 1.414 . S
C433 C434 1.374 . S
C434 H408 0.950 . S
C434 C430 1.385 . S
C434 C433 1.374 . S
C435 C432 1.499 . S
C435 C436 1.373 . S
C435 C437 1.389 . S
C436 H409 0.950 . S
C436 C422 1.377 . S
C436 C435 1.373 . S
C437 C421 1.377 . S
C437 C435 1.389 . S
C437 C438 1.524 . S
C438 C437 1.524 . S
C438 C439 1.397 1_554 S
C438 C443 1.363 . S
C439 H410 0.950 . S
C439 C438 1.397 1_556 S
C439 C440 1.334 . S
C440 H411 0.950 . S
C440 C439 1.334 . S
C440 C441 1.287 . S
C441 C440 1.287 . S
C441 C442 1.524 . S
C441 H444 0.999 . S
C442 H412 0.950 . S
C442 C441 1.524 . S
C442 C443 1.415 1_556 S
C443 H413 0.950 . S
C443 C438 1.363 . S
C443 C442 1.415 1_554 S
H444 C441 0.999 . S
H445 C426 0.913 . S
H446 C464 0.951 . S
H447 C466 0.951 . S
H448 C468 0.950 . S
H449 C469 0.950 . S
H450 C471 0.950 . S
H451 C474 0.950 . S
H452 C475 0.950 . S
H453 C477 0.950 . S
H454 C478 0.950 . S
H455 C479 0.951 . S
H456 C481 0.951 . S
H457 C483 0.950 . S
H458 C484 0.950 . S
H459 C486 0.950 . S
H460 C489 0.950 . S
H461 C490 0.950 . S
H462 C492 0.950 . S
H463 C493 0.950 . S
C464 H446 0.951 . S
C464 C465 1.366 . S
C464 C466 1.388 . S
C465 C464 1.366 . S
C465 C469 1.385 . S
C466 H447 0.951 . S
C466 C464 1.388 . S
C466 C467 1.366 . S
C467 C466 1.366 . S
C467 C468 1.414 . S
C467 C470 1.499 . S
C468 H448 0.950 . S
C468 C467 1.414 . S
C468 C469 1.374 . S
C469 H449 0.950 . S
C469 C465 1.385 . S
C469 C468 1.374 . S
C470 C467 1.499 . S
C470 C471 1.373 . S
C470 C472 1.389 . S
C471 H450 0.950 . S
C471 C470 1.373 . S
C471 C487 1.377 . S
C472 C470 1.389 . S
C472 C473 1.524 . S
C472 C486 1.377 . S
C473 C472 1.524 . S
C473 C474 1.397 . S
C473 C478 1.363 . S
C474 H451 0.950 . S
C474 C473 1.397 . S
C474 C475 1.334 . S
C475 H452 0.950 . S
C475 C474 1.334 . S
C475 C476 1.287 . S
C476 C475 1.287 . S
C476 C477 1.524 . S
C476 H495 0.913 . S
C477 H453 0.950 . S
C477 C476 1.524 . S
C477 C478 1.415 . S
C478 H454 0.950 . S
C478 C473 1.363 . S
C478 C477 1.415 . S
C479 H455 0.951 . S
C479 C480 1.366 . S
C479 C481 1.388 . S
C480 C479 1.366 . S
C480 C484 1.385 . S
C481 H456 0.951 . S
C481 C479 1.388 . S
C481 C482 1.366 . S
C482 C481 1.366 . S
C482 C483 1.414 . S
C482 C485 1.499 . S
C483 H457 0.950 . S
C483 C482 1.414 . S
C483 C484 1.374 . S
C484 H458 0.950 . S
C484 C480 1.385 . S
C484 C483 1.374 . S
C485 C482 1.499 . S
C485 C486 1.373 . S
C485 C487 1.389 . S
C486 H459 0.950 . S
C486 C472 1.377 . S
C486 C485 1.373 . S
C487 C471 1.377 . S
C487 C485 1.389 . S
C487 C488 1.524 . S
C488 C487 1.524 . S
C488 C489 1.397 . S
C488 C493 1.363 . S
C489 H460 0.950 . S
C489 C488 1.397 . S
C489 C490 1.334 . S
C490 H461 0.950 . S
C490 C489 1.334 . S
C490 C491 1.287 . S
C491 C490 1.287 . S
C491 C492 1.524 . S
C491 H494 0.999 . S
C492 H462 0.950 . S
C492 C491 1.524 . S
C492 C493 1.415 . S
C493 H463 0.950 . S
C493 C488 1.363 . S
C493 C492 1.415 . S
H494 C491 0.999 . S
H495 C476 0.913 . S
H496 C514 0.951 . S
H497 C516 0.951 . S
H498 C518 0.950 . S
H499 C519 0.950 . S
H500 C521 0.950 . S
H501 C524 0.950 . S
H502 C525 0.950 . S
H503 C527 0.950 . S
H504 C528 0.950 . S
H505 C529 0.951 . S
H506 C531 0.951 . S
H507 C533 0.950 . S
H508 C534 0.950 . S
H509 C536 0.950 . S
H510 C539 0.950 . S
H511 C540 0.950 . S
H512 C542 0.950 . S
H513 C543 0.950 . S
C514 H496 0.951 . S
C514 C515 1.366 . S
C514 C516 1.388 . S
C515 C514 1.366 . S
C515 C519 1.385 . S
C516 H497 0.951 . S
C516 C514 1.388 . S
C516 C517 1.366 . S
C517 C516 1.366 . S
C517 C518 1.414 . S
C517 C520 1.499 . S
C518 H498 0.950 . S
C518 C517 1.414 . S
C518 C519 1.374 . S
C519 H499 0.950 . S
C519 C515 1.385 . S
C519 C518 1.374 . S
C520 C517 1.499 . S
C520 C521 1.373 . S
C520 C522 1.389 . S
C521 H500 0.950 . S
C521 C520 1.373 . S
C521 C537 1.377 . S
C522 C520 1.389 . S
C522 C523 1.524 . S
C522 C536 1.377 . S
C523 C522 1.524 . S
C523 C524 1.397 . S
C523 C528 1.363 . S
C524 H501 0.950 . S
C524 C523 1.397 . S
C524 C525 1.334 . S
C525 H502 0.950 . S
C525 C524 1.334 . S
C525 C526 1.287 . S
C526 C525 1.287 . S
C526 C527 1.524 . S
C526 H545 0.913 . S
C527 H503 0.950 . S
C527 C526 1.524 . S
C527 C528 1.415 . S
C528 H504 0.950 . S
C528 C523 1.363 . S
C528 C527 1.415 . S
C529 H505 0.951 . S
C529 C530 1.366 . S
C529 C531 1.388 . S
C530 C529 1.366 . S
C530 C534 1.385 . S
C531 H506 0.951 . S
C531 C529 1.388 . S
C531 C532 1.366 . S
C532 C531 1.366 . S
C532 C533 1.414 . S
C532 C535 1.499 . S
C533 H507 0.950 . S
C533 C532 1.414 . S
C533 C534 1.374 . S
C534 H508 0.950 . S
C534 C530 1.385 . S
C534 C533 1.374 . S
C535 C532 1.499 . S
C535 C536 1.373 . S
C535 C537 1.389 . S
C536 H509 0.950 . S
C536 C522 1.377 . S
C536 C535 1.373 . S
C537 C521 1.377 . S
C537 C535 1.389 . S
C537 C538 1.524 . S
C538 C537 1.524 . S
C538 C539 1.397 . S
C538 C543 1.363 . S
C539 H510 0.950 . S
C539 C538 1.397 . S
C539 C540 1.334 . S
C540 H511 0.950 . S
C540 C539 1.334 . S
C540 C541 1.287 . S
C541 C540 1.287 . S
C541 C542 1.524 . S
C541 H544 0.999 . S
C542 H512 0.950 . S
C542 C541 1.524 . S
C542 C543 1.415 . S
C543 H513 0.950 . S
C543 C538 1.363 . S
C543 C542 1.415 . S
H544 C541 0.999 . S
H545 C526 0.913 . S
H546 C564 0.951 . S
H547 C566 0.951 . S
H548 C568 0.950 . S
H549 C569 0.950 . S
H550 C571 0.950 . S
H551 C574 0.950 . S
H552 C575 0.950 . S
H553 C577 0.950 . S
H554 C578 0.950 . S
H555 C579 0.951 . S
H556 C581 0.951 . S
H557 C583 0.950 . S
H558 C584 0.950 . S
H559 C586 0.950 . S
H560 C589 0.950 . S
H561 C590 0.950 . S
H562 C592 0.950 . S
H563 C593 0.950 . S
C564 H546 0.951 . S
C564 C565 1.366 . S
C564 C566 1.388 . S
C565 C564 1.366 . S
C565 C569 1.385 . S
C566 H547 0.951 . S
C566 C564 1.388 . S
C566 C567 1.366 . S
C567 C566 1.366 . S
C567 C568 1.414 . S
C567 C570 1.499 . S
C568 H548 0.950 . S
C568 C567 1.414 . S
C568 C569 1.374 . S
C569 H549 0.950 . S
C569 C565 1.385 . S
C569 C568 1.374 . S
C570 C567 1.499 . S
C570 C571 1.373 . S
C570 C572 1.389 . S
C571 H550 0.950 . S
C571 C570 1.373 . S
C571 C587 1.377 . S
C572 C570 1.389 . S
C572 C573 1.524 . S
C572 C586 1.377 . S
C573 C572 1.524 . S
C573 C574 1.397 . S
C573 C578 1.363 . S
C574 H551 0.950 . S
C574 C573 1.397 . S
C574 C575 1.334 . S
C575 H552 0.950 . S
C575 C574 1.334 . S
C575 C576 1.287 . S
C576 C575 1.287 . S
C576 C577 1.524 . S
C576 H595 0.913 . S
C577 H553 0.950 . S
C577 C576 1.524 . S
C577 C578 1.415 . S
C578 H554 0.950 . S
C578 C573 1.363 . S
C578 C577 1.415 . S
C579 H555 0.951 . S
C579 C580 1.366 . S
C579 C581 1.388 . S
C580 C579 1.366 . S
C580 C584 1.385 . S
C581 H556 0.951 . S
C581 C579 1.388 . S
C581 C582 1.366 . S
C582 C581 1.366 . S
C582 C583 1.414 . S
C582 C585 1.499 . S
C583 H557 0.950 . S
C583 C582 1.414 . S
C583 C584 1.374 . S
C584 H558 0.950 . S
C584 C580 1.385 . S
C584 C583 1.374 . S
C585 C582 1.499 . S
C585 C586 1.373 . S
C585 C587 1.389 . S
C586 H559 0.950 . S
C586 C572 1.377 . S
C586 C585 1.373 . S
C587 C571 1.377 . S
C587 C585 1.389 . S
C587 C588 1.524 . S
C588 C587 1.524 . S
C588 C589 1.397 . S
C588 C593 1.363 . S
C589 H560 0.950 . S
C589 C588 1.397 . S
C589 C590 1.334 . S
C590 H561 0.950 . S
C590 C589 1.334 . S
C590 C591 1.287 . S
C591 C590 1.287 . S
C591 C592 1.524 . S
C591 H594 0.999 . S
C592 H562 0.950 . S
C592 C591 1.524 . S
C592 C593 1.415 . S
C593 H563 0.950 . S
C593 C588 1.363 . S
C593 C592 1.415 . S
H594 C591 0.999 . S
H595 C576 0.913 . S
H596 C614 0.951 . S
H597 C616 0.951 . S
H598 C618 0.950 . S
H599 C619 0.950 . S
H600 C621 0.950 . S
H601 C624 0.950 . S
H602 C625 0.950 . S
H603 C627 0.950 1_554 S
H604 C628 0.950 . S
H605 C629 0.951 . S
H606 C631 0.951 . S
H607 C633 0.950 . S
H608 C634 0.950 . S
H609 C636 0.950 . S
H610 C639 0.950 . S
H611 C640 0.950 . S
H612 C642 0.950 . S
H613 C643 0.950 . S
C614 H596 0.951 . S
C614 C615 1.366 . S
C614 C616 1.388 . S
C615 C614 1.366 . S
C615 C619 1.385 . S
C616 H597 0.951 . S
C616 C614 1.388 . S
C616 C617 1.366 . S
C617 C616 1.366 . S
C617 C618 1.414 . S
C617 C620 1.499 . S
C618 H598 0.950 . S
C618 C617 1.414 . S
C618 C619 1.374 . S
C619 H599 0.950 . S
C619 C615 1.385 . S
C619 C618 1.374 . S
C620 C617 1.499 . S
C620 C621 1.373 . S
C620 C622 1.389 . S
C621 H600 0.950 . S
C621 C620 1.373 . S
C621 C637 1.377 . S
C622 C620 1.389 . S
C622 C623 1.524 . S
C622 C636 1.377 . S
C623 C622 1.524 . S
C623 C624 1.397 . S
C623 C628 1.363 . S
C624 H601 0.950 . S
C624 C623 1.397 . S
C624 C625 1.334 . S
C625 H602 0.950 . S
C625 C624 1.334 . S
C625 C626 1.287 . S
C626 C625 1.287 . S
C626 C627 1.524 . S
C626 H645 0.913 . S
C627 H603 0.950 1_556 S
C627 C626 1.524 . S
C627 C628 1.415 . S
C628 H604 0.950 . S
C628 C623 1.363 . S
C628 C627 1.415 . S
C629 H605 0.951 . S
C629 C630 1.366 . S
C629 C631 1.388 . S
C630 C629 1.366 . S
C630 C634 1.385 . S
C631 H606 0.951 . S
C631 C629 1.388 . S
C631 C632 1.366 . S
C632 C631 1.366 . S
C632 C633 1.414 . S
C632 C635 1.499 . S
C633 H607 0.950 . S
C633 C632 1.414 . S
C633 C634 1.374 . S
C634 H608 0.950 . S
C634 C630 1.385 . S
C634 C633 1.374 . S
C635 C632 1.499 . S
C635 C636 1.373 . S
C635 C637 1.389 . S
C636 H609 0.950 . S
C636 C622 1.377 . S
C636 C635 1.373 . S
C637 C621 1.377 . S
C637 C635 1.389 . S
C637 C638 1.524 . S
C638 C637 1.524 . S
C638 C639 1.397 . S
C638 C643 1.363 . S
C639 H610 0.950 . S
C639 C638 1.397 . S
C639 C640 1.334 . S
C640 H611 0.950 . S
C640 C639 1.334 . S
C640 C641 1.287 . S
C641 C640 1.287 . S
C641 C642 1.524 . S
C641 H644 0.999 . S
C642 H612 0.950 . S
C642 C641 1.524 . S
C642 C643 1.415 . S
C643 H613 0.950 . S
C643 C638 1.363 . S
C643 C642 1.415 . S
H644 C641 0.999 . S
H645 C626 0.913 . S
H646 C664 0.951 1_554 S
H647 C666 0.951 1_554 S
H648 C668 0.950 . S
H649 C669 0.950 . S
H650 C671 0.950 . S
H651 C674 0.950 . S
H652 C675 0.950 . S
H653 C677 0.950 1_554 S
H654 C678 0.950 1_554 S
H655 C679 0.951 . S
H656 C681 0.951 . S
H657 C683 0.950 . S
H658 C684 0.950 . S
H659 C686 0.950 . S
H660 C689 0.950 . S
H661 C690 0.950 . S
H662 C692 0.950 . S
H663 C693 0.950 . S
C664 H646 0.951 1_556 S
C664 C665 1.366 . S
C664 C666 1.388 . S
C665 C664 1.366 . S
C665 C669 1.385 . S
C666 H647 0.951 1_556 S
C666 C664 1.388 . S
C666 C667 1.366 . S
C667 C666 1.366 . S
C667 C668 1.414 . S
C667 C670 1.499 . S
C668 H648 0.950 . S
C668 C667 1.414 . S
C668 C669 1.374 . S
C669 H649 0.950 . S
C669 C665 1.385 . S
C669 C668 1.374 . S
C670 C667 1.499 . S
C670 C671 1.373 . S
C670 C672 1.389 . S
C671 H650 0.950 . S
C671 C670 1.373 . S
C671 C687 1.377 . S
C672 C670 1.389 . S
C672 C673 1.524 . S
C672 C686 1.377 . S
C673 C672 1.524 . S
C673 C674 1.397 . S
C673 C678 1.363 . S
C674 H651 0.950 . S
C674 C673 1.397 . S
C674 C675 1.334 . S
C675 H652 0.950 . S
C675 C674 1.334 . S
C675 C676 1.287 . S
C676 C675 1.287 . S
C676 C677 1.524 . S
C676 H695 0.913 . S
C677 H653 0.950 1_556 S
C677 C676 1.524 . S
C677 C678 1.415 . S
C678 H654 0.950 1_556 S
C678 C673 1.363 . S
C678 C677 1.415 . S
C679 H655 0.951 . S
C679 C680 1.366 . S
C679 C681 1.388 . S
C680 C679 1.366 . S
C680 C684 1.385 . S
C681 H656 0.951 . S
C681 C679 1.388 . S
C681 C682 1.366 . S
C682 C681 1.366 . S
C682 C683 1.414 . S
C682 C685 1.499 . S
C683 H657 0.950 . S
C683 C682 1.414 . S
C683 C684 1.374 . S
C684 H658 0.950 . S
C684 C680 1.385 . S
C684 C683 1.374 . S
C685 C682 1.499 . S
C685 C686 1.373 . S
C685 C687 1.389 . S
C686 H659 0.950 . S
C686 C672 1.377 . S
C686 C685 1.373 . S
C687 C671 1.377 . S
C687 C685 1.389 . S
C687 C688 1.524 . S
C688 C687 1.524 . S
C688 C689 1.397 . S
C688 C693 1.363 . S
C689 H660 0.950 . S
C689 C688 1.397 . S
C689 C690 1.334 . S
C690 H661 0.950 . S
C690 C689 1.334 . S
C690 C691 1.287 . S
C691 C690 1.287 . S
C691 C692 1.524 . S
C691 H694 0.999 . S
C692 H662 0.950 . S
C692 C691 1.524 . S
C692 C693 1.415 . S
C693 H663 0.950 . S
C693 C688 1.363 . S
C693 C692 1.415 . S
H694 C691 0.999 . S
H695 C676 0.913 . S
H696 C714 0.951 . S
H697 C716 0.951 . S
H698 C718 0.950 . S
H699 C719 0.950 . S
H700 C721 0.950 . S
H701 C724 0.950 . S
H702 C725 0.950 . S
H703 C727 0.950 . S
H704 C728 0.950 . S
H705 C729 0.951 . S
H706 C731 0.951 . S
H707 C733 0.950 . S
H708 C734 0.950 . S
H709 C736 0.950 . S
H710 C739 0.950 . S
H711 C740 0.950 . S
H712 C742 0.950 1_554 S
H713 C743 0.950 . S
C714 H696 0.951 . S
C714 C715 1.366 . S
C714 C716 1.388 . S
C715 C714 1.366 . S
C715 C719 1.385 1_556 S
C716 H697 0.951 . S
C716 C714 1.388 . S
C716 C717 1.366 . S
C717 C716 1.366 . S
C717 C718 1.414 . S
C717 C720 1.499 . S
C718 H698 0.950 . S
C718 C717 1.414 . S
C718 C719 1.374 1_556 S
C719 H699 0.950 . S
C719 C715 1.385 1_554 S
C719 C718 1.374 1_554 S
C720 C717 1.499 . S
C720 C721 1.373 1_455 S
C720 C722 1.389 . S
C721 H700 0.950 . S
C721 C720 1.373 1_655 S
C721 C737 1.377 . S
C722 C720 1.389 . S
C722 C723 1.524 . S
C722 C736 1.377 . S
C723 C722 1.524 . S
C723 C724 1.397 . S
C723 C728 1.363 . S
C724 H701 0.950 . S
C724 C723 1.397 . S
C724 C725 1.334 . S
C725 H702 0.950 . S
C725 C724 1.334 . S
C725 C726 1.287 . S
C726 C725 1.287 . S
C726 C727 1.524 . S
C726 H745 0.913 . S
C727 H703 0.950 . S
C727 C726 1.524 . S
C727 C728 1.415 . S
C728 H704 0.950 . S
C728 C723 1.363 . S
C728 C727 1.415 . S
C729 H705 0.951 . S
C729 C730 1.366 . S
C729 C731 1.388 . S
C730 C729 1.366 . S
C730 C734 1.385 . S
C731 H706 0.951 . S
C731 C729 1.388 . S
C731 C732 1.366 . S
C732 C731 1.366 . S
C732 C733 1.414 . S
C732 C735 1.499 . S
C733 H707 0.950 . S
C733 C732 1.414 . S
C733 C734 1.374 . S
C734 H708 0.950 . S
C734 C730 1.385 . S
C734 C733 1.374 . S
C735 C732 1.499 . S
C735 C736 1.373 1_655 S
C735 C737 1.389 . S
C736 H709 0.950 . S
C736 C722 1.377 . S
C736 C735 1.373 1_455 S
C737 C721 1.377 . S
C737 C735 1.389 . S
C737 C738 1.524 . S
C738 C737 1.524 . S
C738 C739 1.397 . S
C738 C743 1.363 . S
C739 H710 0.950 . S
C739 C738 1.397 . S
C739 C740 1.334 . S
C740 H711 0.950 . S
C740 C739 1.334 . S
C740 C741 1.287 . S
C741 C740 1.287 . S
C741 C742 1.524 . S
C741 H744 0.999 . S
C742 H712 0.950 1_556 S
C742 C741 1.524 . S
C742 C743 1.415 . S
C743 H713 0.950 . S
C743 C738 1.363 . S
C743 C742 1.415 . S
H744 C741 0.999 . S
H745 C726 0.913 . S
H746 C764 0.951 . S
H747 C766 0.951 . S
H748 C768 0.950 . S
H749 C769 0.950 . S
H750 C771 0.950 . S
H751 C774 0.950 . S
H752 C775 0.950 . S
H753 C777 0.950 . S
H754 C778 0.950 . S
H755 C779 0.951 . S
H756 C781 0.951 . S
H757 C783 0.950 . S
H758 C784 0.950 . S
H759 C786 0.950 . S
H760 C789 0.950 . S
H761 C790 0.950 . S
H762 C792 0.950 . S
H763 C793 0.950 . S
C764 H746 0.951 . S
C764 C765 1.366 . S
C764 C766 1.388 . S
C765 C764 1.366 . S
C765 C769 1.385 . S
C766 H747 0.951 . S
C766 C764 1.388 . S
C766 C767 1.366 . S
C767 C766 1.366 . S
C767 C768 1.414 . S
C767 C770 1.499 . S
C768 H748 0.950 . S
C768 C767 1.414 . S
C768 C769 1.374 . S
C769 H749 0.950 . S
C769 C765 1.385 . S
C769 C768 1.374 . S
C770 C767 1.499 . S
C770 C771 1.373 1_565 S
C770 C772 1.389 1_556 S
C771 H750 0.950 . S
C771 C770 1.373 1_545 S
C771 C787 1.377 . S
C772 C770 1.389 1_554 S
C772 C773 1.524 . S
C772 C786 1.377 . S
C773 C772 1.524 . S
C773 C774 1.397 . S
C773 C778 1.363 . S
C774 H751 0.950 . S
C774 C773 1.397 . S
C774 C775 1.334 . S
C775 H752 0.950 . S
C775 C774 1.334 . S
C775 C776 1.287 . S
C776 C775 1.287 . S
C776 C777 1.524 . S
C776 H795 0.913 . S
C777 H753 0.950 . S
C777 C776 1.524 . S
C777 C778 1.415 . S
C778 H754 0.950 . S
C778 C773 1.363 . S
C778 C777 1.415 . S
C779 H755 0.951 . S
C779 C780 1.366 . S
C779 C781 1.388 . S
C780 C779 1.366 . S
C780 C784 1.385 . S
C781 H756 0.951 . S
C781 C779 1.388 . S
C781 C782 1.366 . S
C782 C781 1.366 . S
C782 C783 1.414 . S
C782 C785 1.499 . S
C783 H757 0.950 . S
C783 C782 1.414 . S
C783 C784 1.374 . S
C784 H758 0.950 . S
C784 C780 1.385 . S
C784 C783 1.374 . S
C785 C782 1.499 . S
C785 C786 1.373 1_545 S
C785 C787 1.389 1_554 S
C786 H759 0.950 . S
C786 C772 1.377 . S
C786 C785 1.373 1_565 S
C787 C771 1.377 . S
C787 C785 1.389 1_556 S
C787 C788 1.524 . S
C788 C787 1.524 . S
C788 C789 1.397 . S
C788 C793 1.363 . S
C789 H760 0.950 . S
C789 C788 1.397 . S
C789 C790 1.334 . S
C790 H761 0.950 . S
C790 C789 1.334 . S
C790 C791 1.287 . S
C791 C790 1.287 . S
C791 C792 1.524 . S
C791 H794 0.999 . S
C792 H762 0.950 . S
C792 C791 1.524 . S
C792 C793 1.415 . S
C793 H763 0.950 . S
C793 C788 1.363 . S
C793 C792 1.415 . S
H794 C791 0.999 . S
H795 C776 0.913 . S
H796 C814 0.951 . S
H797 C816 0.951 . S
H798 C818 0.950 . S
H799 C819 0.950 . S
H800 C821 0.950 . S
H801 C824 0.950 . S
H802 C825 0.950 . S
H803 C827 0.950 . S
H804 C828 0.950 . S
H805 C829 0.951 . S
H806 C831 0.951 . S
H807 C833 0.950 . S
H808 C834 0.950 . S
H809 C836 0.950 . S
H810 C839 0.950 . S
H811 C840 0.950 . S
H812 C842 0.950 . S
H813 C843 0.950 . S
C814 H796 0.951 . S
C814 C815 1.366 . S
C814 C816 1.388 . S
C815 C814 1.366 . S
C815 C819 1.385 . S
C816 H797 0.951 . S
C816 C814 1.388 . S
C816 C817 1.366 . S
C817 C816 1.366 . S
C817 C818 1.414 . S
C817 C820 1.499 . S
C818 H798 0.950 . S
C818 C817 1.414 . S
C818 C819 1.374 . S
C819 H799 0.950 . S
C819 C815 1.385 . S
C819 C818 1.374 . S
C820 C817 1.499 . S
C820 C821 1.373 . S
C820 C822 1.389 . S
C821 H800 0.950 . S
C821 C820 1.373 . S
C821 C837 1.377 . S
C822 C820 1.389 . S
C822 C823 1.524 . S
C822 C836 1.377 . S
C823 C822 1.524 . S
C823 C824 1.397 . S
C823 C828 1.363 . S
C824 H801 0.950 . S
C824 C823 1.397 . S
C824 C825 1.334 . S
C825 H802 0.950 . S
C825 C824 1.334 . S
C825 C826 1.287 . S
C826 C825 1.287 . S
C826 C827 1.524 . S
C826 H845 0.913 . S
C827 H803 0.950 . S
C827 C826 1.524 . S
C827 C828 1.415 . S
C828 H804 0.950 . S
C828 C823 1.363 . S
C828 C827 1.415 . S
C829 H805 0.951 . S
C829 C830 1.366 . S
C829 C831 1.388 . S
C830 C829 1.366 . S
C830 C834 1.385 1_554 S
C831 H806 0.951 . S
C831 C829 1.388 . S
C831 C832 1.366 . S
C832 C831 1.366 . S
C832 C833 1.414 . S
C832 C835 1.499 . S
C833 H807 0.950 . S
C833 C832 1.414 . S
C833 C834 1.374 1_554 S
C834 H808 0.950 . S
C834 C830 1.385 1_556 S
C834 C833 1.374 1_556 S
C835 C832 1.499 . S
C835 C836 1.373 . S
C835 C837 1.389 . S
C836 H809 0.950 . S
C836 C822 1.377 . S
C836 C835 1.373 . S
C837 C821 1.377 . S
C837 C835 1.389 . S
C837 C838 1.524 . S
C838 C837 1.524 . S
C838 C839 1.397 . S
C838 C843 1.363 . S
C839 H810 0.950 . S
C839 C838 1.397 . S
C839 C840 1.334 . S
C840 H811 0.950 . S
C840 C839 1.334 . S
C840 C841 1.287 . S
C841 C840 1.287 . S
C841 C842 1.524 . S
C841 H844 0.999 . S
C842 H812 0.950 . S
C842 C841 1.524 . S
C842 C843 1.415 . S
C843 H813 0.950 . S
C843 C838 1.363 . S
C843 C842 1.415 . S
H844 C841 0.999 . S
H845 C826 0.913 . S
H846 C864 0.951 . S
H847 C866 0.951 . S
H848 C868 0.950 . S
H849 C869 0.950 . S
H850 C871 0.950 . S
H851 C874 0.950 . S
H852 C875 0.950 . S
H853 C877 0.950 . S
H854 C878 0.950 . S
H855 C879 0.951 . S
H856 C881 0.951 . S
H857 C883 0.950 . S
H858 C884 0.950 . S
H859 C886 0.950 . S
H860 C889 0.950 . S
H861 C890 0.950 . S
H862 C892 0.950 . S
H863 C893 0.950 . S
C864 H846 0.951 . S
C864 C865 1.366 . S
C864 C866 1.388 . S
C865 C864 1.366 . S
C865 C869 1.385 . S
C866 H847 0.951 . S
C866 C864 1.388 . S
C866 C867 1.366 . S
C867 C866 1.366 . S
C867 C868 1.414 . S
C867 C870 1.499 . S
C868 H848 0.950 . S
C868 C867 1.414 . S
C868 C869 1.374 . S
C869 H849 0.950 . S
C869 C865 1.385 . S
C869 C868 1.374 . S
C870 C867 1.499 . S
C870 C871 1.373 . S
C870 C872 1.389 . S
C871 H850 0.950 . S
C871 C870 1.373 . S
C871 C887 1.377 1_655 S
C872 C870 1.389 . S
C872 C873 1.524 . S
C872 C886 1.377 1_655 S
C873 C872 1.524 . S
C873 C874 1.397 . S
C873 C878 1.363 1_655 S
C874 H851 0.950 . S
C874 C873 1.397 . S
C874 C875 1.334 . S
C875 H852 0.950 . S
C875 C874 1.334 . S
C875 C876 1.287 . S
C876 C875 1.287 . S
C876 C877 1.524 1_655 S
C876 H895 0.913 . S
C877 H853 0.950 . S
C877 C876 1.524 1_455 S
C877 C878 1.415 . S
C878 H854 0.950 . S
C878 C873 1.363 1_455 S
C878 C877 1.415 . S
C879 H855 0.951 . S
C879 C880 1.366 . S
C879 C881 1.388 . S
C880 C879 1.366 . S
C880 C884 1.385 . S
C881 H856 0.951 . S
C881 C879 1.388 . S
C881 C882 1.366 . S
C882 C881 1.366 . S
C882 C883 1.414 . S
C882 C885 1.499 . S
C883 H857 0.950 . S
C883 C882 1.414 . S
C883 C884 1.374 . S
C884 H858 0.950 . S
C884 C880 1.385 . S
C884 C883 1.374 . S
C885 C882 1.499 . S
C885 C886 1.373 . S
C885 C887 1.389 . S
C886 H859 0.950 . S
C886 C872 1.377 1_455 S
C886 C885 1.373 . S
C887 C871 1.377 1_455 S
C887 C885 1.389 . S
C887 C888 1.524 . S
C888 C887 1.524 . S
C888 C889 1.397 . S
C888 C893 1.363 1_455 S
C889 H860 0.950 . S
C889 C888 1.397 . S
C889 C890 1.334 . S
C890 H861 0.950 . S
C890 C889 1.334 . S
C890 C891 1.287 . S
C891 C890 1.287 . S
C891 C892 1.524 1_455 S
C891 H894 0.999 . S
C892 H862 0.950 . S
C892 C891 1.524 1_655 S
C892 C893 1.415 . S
C893 H863 0.950 . S
C893 C888 1.363 1_655 S
C893 C892 1.415 . S
H894 C891 0.999 . S
H895 C876 0.913 . S
H896 C914 0.951 . S
H897 C916 0.951 . S
H898 C918 0.950 . S
H899 C919 0.950 . S
H900 C921 0.950 . S
H901 C924 0.950 . S
H902 C925 0.950 . S
H903 C927 0.950 . S
H904 C928 0.950 . S
H905 C929 0.951 . S
H906 C931 0.951 . S
H907 C933 0.950 . S
H908 C934 0.950 . S
H909 C936 0.950 . S
H910 C939 0.950 . S
H911 C940 0.950 . S
H912 C942 0.950 . S
H913 C943 0.950 . S
C914 H896 0.951 . S
C914 C915 1.366 . S
C914 C916 1.388 . S
C915 C914 1.366 . S
C915 C919 1.385 . S
C916 H897 0.951 . S
C916 C914 1.388 . S
C916 C917 1.366 . S
C917 C916 1.366 . S
C917 C918 1.414 . S
C917 C920 1.499 . S
C918 H898 0.950 . S
C918 C917 1.414 . S
C918 C919 1.374 . S
C919 H899 0.950 . S
C919 C915 1.385 . S
C919 C918 1.374 . S
C920 C917 1.499 . S
C920 C921 1.373 . S
C920 C922 1.389 . S
C921 H900 0.950 . S
C921 C920 1.373 . S
C921 C937 1.377 1_545 S
C922 C920 1.389 . S
C922 C923 1.524 . S
C922 C936 1.377 1_545 S
C923 C922 1.524 . S
C923 C924 1.397 . S
C923 C928 1.363 . S
C924 H901 0.950 . S
C924 C923 1.397 . S
C924 C925 1.334 . S
C925 H902 0.950 . S
C925 C924 1.334 . S
C925 C926 1.287 . S
C926 C925 1.287 . S
C926 C927 1.524 . S
C926 H945 0.913 . S
C927 H903 0.950 . S
C927 C926 1.524 . S
C927 C928 1.415 . S
C928 H904 0.950 . S
C928 C923 1.363 . S
C928 C927 1.415 . S
C929 H905 0.951 . S
C929 C930 1.366 . S
C929 C931 1.388 . S
C930 C929 1.366 . S
C930 C934 1.385 . S
C931 H906 0.951 . S
C931 C929 1.388 . S
C931 C932 1.366 . S
C932 C931 1.366 . S
C932 C933 1.414 . S
C932 C935 1.499 . S
C933 H907 0.950 . S
C933 C932 1.414 . S
C933 C934 1.374 . S
C934 H908 0.950 . S
C934 C930 1.385 . S
C934 C933 1.374 . S
C935 C932 1.499 . S
C935 C936 1.373 . S
C935 C937 1.389 . S
C936 H909 0.950 . S
C936 C922 1.377 1_565 S
C936 C935 1.373 . S
C937 C921 1.377 1_565 S
C937 C935 1.389 . S
C937 C938 1.524 . S
C938 C937 1.524 . S
C938 C939 1.397 . S
C938 C943 1.363 . S
C939 H910 0.950 . S
C939 C938 1.397 . S
C939 C940 1.334 . S
C940 H911 0.950 . S
C940 C939 1.334 . S
C940 C941 1.287 . S
C941 C940 1.287 . S
C941 C942 1.524 . S
C941 H944 0.999 . S
C942 H912 0.950 . S
C942 C941 1.524 . S
C942 C943 1.415 . S
C943 H913 0.950 . S
C943 C938 1.363 . S
C943 C942 1.415 . S
H944 C941 0.999 . S
H945 C926 0.913 . S
H946 C964 0.951 . S
H947 C966 0.951 . S
H948 C968 0.950 . S
H949 C969 0.950 . S
H950 C971 0.950 . S
H951 C974 0.950 . S
H952 C975 0.950 . S
H953 C977 0.950 . S
H954 C978 0.950 . S
H955 C979 0.951 . S
H956 C981 0.951 . S
H957 C983 0.950 . S
H958 C984 0.950 . S
H959 C986 0.950 . S
H960 C989 0.950 . S
H961 C990 0.950 . S
H962 C992 0.950 . S
H963 C993 0.950 . S
C964 H946 0.951 . S
C964 C965 1.366 . S
C964 C966 1.388 . S
C965 C964 1.366 . S
C965 C969 1.385 . S
C966 H947 0.951 . S
C966 C964 1.388 . S
C966 C967 1.366 . S
C967 C966 1.366 . S
C967 C968 1.414 . S
C967 C970 1.499 . S
C968 H948 0.950 . S
C968 C967 1.414 . S
C968 C969 1.374 . S
C969 H949 0.950 . S
C969 C965 1.385 . S
C969 C968 1.374 . S
C970 C967 1.499 . S
C970 C971 1.373 . S
C970 C972 1.389 . S
C971 H950 0.950 . S
C971 C970 1.373 . S
C971 C987 1.377 . S
C972 C970 1.389 . S
C972 C973 1.524 . S
C972 C986 1.377 . S
C973 C972 1.524 . S
C973 C974 1.397 . S
C973 C978 1.363 . S
C974 H951 0.950 . S
C974 C973 1.397 . S
C974 C975 1.334 . S
C975 H952 0.950 . S
C975 C974 1.334 . S
C975 C976 1.287 . S
C976 C975 1.287 . S
C976 C977 1.524 . S
C976 H995 0.913 . S
C977 H953 0.950 . S
C977 C976 1.524 . S
C977 C978 1.415 . S
C978 H954 0.950 . S
C978 C973 1.363 . S
C978 C977 1.415 . S
C979 H955 0.951 . S
C979 C980 1.366 . S
C979 C981 1.388 . S
C980 C979 1.366 . S
C980 C984 1.385 . S
C981 H956 0.951 . S
C981 C979 1.388 . S
C981 C982 1.366 . S
C982 C981 1.366 . S
C982 C983 1.414 . S
C982 C985 1.499 . S
C983 H957 0.950 . S
C983 C982 1.414 . S
C983 C984 1.374 . S
C984 H958 0.950 . S
C984 C980 1.385 . S
C984 C983 1.374 . S
C985 C982 1.499 . S
C985 C986 1.373 . S
C985 C987 1.389 . S
C986 H959 0.950 . S
C986 C972 1.377 . S
C986 C985 1.373 . S
C987 C971 1.377 . S
C987 C985 1.389 . S
C987 C988 1.524 . S
C988 C987 1.524 . S
C988 C989 1.397 . S
C988 C993 1.363 . S
C989 H960 0.950 . S
C989 C988 1.397 . S
C989 C990 1.334 . S
C990 H961 0.950 . S
C990 C989 1.334 . S
C990 C991 1.287 . S
C991 C990 1.287 . S
C991 C992 1.524 . S
C991 H994 0.999 . S
C992 H962 0.950 . S
C992 C991 1.524 . S
C992 C993 1.415 . S
C993 H963 0.950 . S
C993 C988 1.363 . S
C993 C992 1.415 . S
H994 C991 0.999 . S
H995 C976 0.913 . S
H996 C1014 0.951 . S
H997 C1016 0.951 . S
H998 C1018 0.950 . S
H999 C1019 0.950 . S
H1000 C1021 0.950 . S
H1001 C1024 0.950 . S
H1002 C1025 0.950 . S
H1003 C1027 0.950 . S
H1004 C1028 0.950 . S
H1005 C1029 0.951 . S
H1006 C1031 0.951 . S
H1007 C1033 0.950 . S
H1008 C1034 0.950 . S
H1009 C1036 0.950 . S
H1010 C1039 0.950 . S
H1011 C1040 0.950 . S
H1012 C1042 0.950 . S
H1013 C1043 0.950 . S
C1014 H996 0.951 . S
C1014 C1015 1.366 . S
C1014 C1016 1.388 . S
C1015 C1014 1.366 . S
C1015 C1019 1.385 . S
C1016 H997 0.951 . S
C1016 C1014 1.388 . S
C1016 C1017 1.366 . S
C1017 C1016 1.366 . S
C1017 C1018 1.414 . S
C1017 C1020 1.499 . S
C1018 H998 0.950 . S
C1018 C1017 1.414 . S
C1018 C1019 1.374 . S
C1019 H999 0.950 . S
C1019 C1015 1.385 . S
C1019 C1018 1.374 . S
C1020 C1017 1.499 . S
C1020 C1021 1.373 . S
C1020 C1022 1.389 . S
C1021 H1000 0.950 . S
C1021 C1020 1.373 . S
C1021 C1037 1.377 . S
C1022 C1020 1.389 . S
C1022 C1023 1.524 . S
C1022 C1036 1.377 . S
C1023 C1022 1.524 . S
C1023 C1024 1.397 . S
C1023 C1028 1.363 . S
C1024 H1001 0.950 . S
C1024 C1023 1.397 . S
C1024 C1025 1.334 . S
C1025 H1002 0.950 . S
C1025 C1024 1.334 . S
C1025 C1026 1.287 . S
C1026 C1025 1.287 . S
C1026 C1027 1.524 . S
C1026 H1045 0.913 . S
C1027 H1003 0.950 . S
C1027 C1026 1.524 . S
C1027 C1028 1.415 . S
C1028 H1004 0.950 . S
C1028 C1023 1.363 . S
C1028 C1027 1.415 . S
C1029 H1005 0.951 . S
C1029 C1030 1.366 . S
C1029 C1031 1.388 . S
C1030 C1029 1.366 . S
C1030 C1034 1.385 . S
C1031 H1006 0.951 . S
C1031 C1029 1.388 . S
C1031 C1032 1.366 . S
C1032 C1031 1.366 . S
C1032 C1033 1.414 . S
C1032 C1035 1.499 . S
C1033 H1007 0.950 . S
C1033 C1032 1.414 . S
C1033 C1034 1.374 . S
C1034 H1008 0.950 . S
C1034 C1030 1.385 . S
C1034 C1033 1.374 . S
C1035 C1032 1.499 . S
C1035 C1036 1.373 . S
C1035 C1037 1.389 . S
C1036 H1009 0.950 . S
C1036 C1022 1.377 . S
C1036 C1035 1.373 . S
C1037 C1021 1.377 . S
C1037 C1035 1.389 . S
C1037 C1038 1.524 . S
C1038 C1037 1.524 . S
C1038 C1039 1.397 . S
C1038 C1043 1.363 . S
C1039 H1010 0.950 . S
C1039 C1038 1.397 . S
C1039 C1040 1.334 . S
C1040 H1011 0.950 . S
C1040 C1039 1.334 . S
C1040 C1041 1.287 . S
C1041 C1040 1.287 . S
C1041 C1042 1.524 . S
C1041 H1044 0.999 . S
C1042 H1012 0.950 . S
C1042 C1041 1.524 . S
C1042 C1043 1.415 . S
C1043 H1013 0.950 . S
C1043 C1038 1.363 . S
C1043 C1042 1.415 . S
H1044 C1041 0.999 . S
H1045 C1026 0.913 . S
H1046 C1064 0.951 . S
H1047 C1066 0.951 . S
H1048 C1068 0.950 . S
H1049 C1069 0.950 . S
H1050 C1071 0.950 . S
H1051 C1074 0.950 . S
H1052 C1075 0.950 . S
H1053 C1077 0.950 . S
H1054 C1078 0.950 . S
H1055 C1079 0.951 . S
H1056 C1081 0.951 . S
H1057 C1083 0.950 . S
H1058 C1084 0.950 . S
H1059 C1086 0.950 . S
H1060 C1089 0.950 . S
H1061 C1090 0.950 . S
H1062 C1092 0.950 . S
H1063 C1093 0.950 . S
C1064 H1046 0.951 . S
C1064 C1065 1.366 . S
C1064 C1066 1.388 . S
C1065 C1064 1.366 . S
C1065 C1069 1.385 . S
C1066 H1047 0.951 . S
C1066 C1064 1.388 . S
C1066 C1067 1.366 . S
C1067 C1066 1.366 . S
C1067 C1068 1.414 . S
C1067 C1070 1.499 . S
C1068 H1048 0.950 . S
C1068 C1067 1.414 . S
C1068 C1069 1.374 . S
C1069 H1049 0.950 . S
C1069 C1065 1.385 . S
C1069 C1068 1.374 . S
C1070 C1067 1.499 . S
C1070 C1071 1.373 . S
C1070 C1072 1.389 . S
C1071 H1050 0.950 . S
C1071 C1070 1.373 . S
C1071 C1087 1.377 . S
C1072 C1070 1.389 . S
C1072 C1073 1.524 . S
C1072 C1086 1.377 . S
C1073 C1072 1.524 . S
C1073 C1074 1.397 . S
C1073 C1078 1.363 . S
C1074 H1051 0.950 . S
C1074 C1073 1.397 . S
C1074 C1075 1.334 . S
C1075 H1052 0.950 . S
C1075 C1074 1.334 . S
C1075 C1076 1.287 . S
C1076 C1075 1.287 . S
C1076 C1077 1.524 . S
C1076 H1095 0.913 . S
C1077 H1053 0.950 . S
C1077 C1076 1.524 . S
C1077 C1078 1.415 . S
C1078 H1054 0.950 . S
C1078 C1073 1.363 . S
C1078 C1077 1.415 . S
C1079 H1055 0.951 . S
C1079 C1080 1.366 . S
C1079 C1081 1.388 . S
C1080 C1079 1.366 . S
C1080 C1084 1.385 . S
C1081 H1056 0.951 . S
C1081 C1079 1.388 . S
C1081 C1082 1.366 . S
C1082 C1081 1.366 . S
C1082 C1083 1.414 . S
C1082 C1085 1.499 . S
C1083 H1057 0.950 . S
C1083 C1082 1.414 . S
C1083 C1084 1.374 . S
C1084 H1058 0.950 . S
C1084 C1080 1.385 . S
C1084 C1083 1.374 . S
C1085 C1082 1.499 . S
C1085 C1086 1.373 . S
C1085 C1087 1.389 . S
C1086 H1059 0.950 . S
C1086 C1072 1.377 . S
C1086 C1085 1.373 . S
C1087 C1071 1.377 . S
C1087 C1085 1.389 . S
C1087 C1088 1.524 . S
C1088 C1087 1.524 . S
C1088 C1089 1.397 . S
C1088 C1093 1.363 . S
C1089 H1060 0.950 . S
C1089 C1088 1.397 . S
C1089 C1090 1.334 . S
C1090 H1061 0.950 . S
C1090 C1089 1.334 . S
C1090 C1091 1.287 . S
C1091 C1090 1.287 . S
C1091 C1092 1.524 . S
C1091 H1094 0.999 . S
C1092 H1062 0.950 . S
C1092 C1091 1.524 . S
C1092 C1093 1.415 . S
C1093 H1063 0.950 . S
C1093 C1088 1.363 . S
C1093 C1092 1.415 . S
H1094 C1091 0.999 . S
H1095 C1076 0.913 . S
H1096 C1114 0.951 . S
H1097 C1116 0.951 . S
H1098 C1118 0.950 . S
H1099 C1119 0.950 . S
H1100 C1121 0.950 . S
H1101 C1124 0.950 . S
H1102 C1125 0.950 . S
H1103 C1127 0.950 . S
H1104 C1128 0.950 . S
H1105 C1129 0.951 . S
H1106 C1131 0.951 . S
H1107 C1133 0.950 . S
H1108 C1134 0.950 . S
H1109 C1136 0.950 . S
H1110 C1139 0.950 . S
H1111 C1140 0.950 . S
H1112 C1142 0.950 . S
H1113 C1143 0.950 . S
C1114 H1096 0.951 . S
C1114 C1115 1.366 . S
C1114 C1116 1.388 . S
C1115 C1114 1.366 . S
C1115 C1119 1.385 . S
C1116 H1097 0.951 . S
C1116 C1114 1.388 . S
C1116 C1117 1.366 . S
C1117 C1116 1.366 . S
C1117 C1118 1.414 . S
C1117 C1120 1.499 . S
C1118 H1098 0.950 . S
C1118 C1117 1.414 . S
C1118 C1119 1.374 . S
C1119 H1099 0.950 . S
C1119 C1115 1.385 . S
C1119 C1118 1.374 . S
C1120 C1117 1.499 . S
C1120 C1121 1.373 . S
C1120 C1122 1.389 . S
C1121 H1100 0.950 . S
C1121 C1120 1.373 . S
C1121 C1137 1.377 . S
C1122 C1120 1.389 . S
C1122 C1123 1.524 . S
C1122 C1136 1.377 . S
C1123 C1122 1.524 . S
C1123 C1124 1.397 . S
C1123 C1128 1.363 . S
C1124 H1101 0.950 . S
C1124 C1123 1.397 . S
C1124 C1125 1.334 . S
C1125 H1102 0.950 . S
C1125 C1124 1.334 . S
C1125 C1126 1.287 . S
C1126 C1125 1.287 . S
C1126 C1127 1.524 . S
C1126 H1145 0.913 . S
C1127 H1103 0.950 . S
C1127 C1126 1.524 . S
C1127 C1128 1.415 . S
C1128 H1104 0.950 . S
C1128 C1123 1.363 . S
C1128 C1127 1.415 . S
C1129 H1105 0.951 . S
C1129 C1130 1.366 . S
C1129 C1131 1.388 . S
C1130 C1129 1.366 . S
C1130 C1134 1.385 . S
C1131 H1106 0.951 . S
C1131 C1129 1.388 . S
C1131 C1132 1.366 . S
C1132 C1131 1.366 . S
C1132 C1133 1.414 . S
C1132 C1135 1.499 . S
C1133 H1107 0.950 . S
C1133 C1132 1.414 . S
C1133 C1134 1.374 . S
C1134 H1108 0.950 . S
C1134 C1130 1.385 . S
C1134 C1133 1.374 . S
C1135 C1132 1.499 . S
C1135 C1136 1.373 . S
C1135 C1137 1.389 . S
C1136 H1109 0.950 . S
C1136 C1122 1.377 . S
C1136 C1135 1.373 . S
C1137 C1121 1.377 . S
C1137 C1135 1.389 . S
C1137 C1138 1.524 . S
C1138 C1137 1.524 . S
C1138 C1139 1.397 . S
C1138 C1143 1.363 . S
C1139 H1110 0.950 . S
C1139 C1138 1.397 . S
C1139 C1140 1.334 . S
C1140 H1111 0.950 . S
C1140 C1139 1.334 . S
C1140 C1141 1.287 . S
C1141 C1140 1.287 . S
C1141 C1142 1.524 . S
C1141 H1144 0.999 . S
C1142 H1112 0.950 . S
C1142 C1141 1.524 . S
C1142 C1143 1.415 . S
C1143 H1113 0.950 . S
C1143 C1138 1.363 . S
C1143 C1142 1.415 . S
H1144 C1141 0.999 . S
H1145 C1126 0.913 . S
H1146 C1164 0.951 . S
H1147 C1166 0.951 . S
H1148 C1168 0.950 . S
H1149 C1169 0.950 . S
H1150 C1171 0.950 . S
H1151 C1174 0.950 . S
H1152 C1175 0.950 . S
H1153 C1177 0.950 . S
H1154 C1178 0.950 . S
H1155 C1179 0.951 . S
H1156 C1181 0.951 . S
H1157 C1183 0.950 . S
H1158 C1184 0.950 . S
H1159 C1186 0.950 . S
H1160 C1189 0.950 . S
H1161 C1190 0.950 . S
H1162 C1192 0.950 . S
H1163 C1193 0.950 . S
C1164 H1146 0.951 . S
C1164 C1165 1.366 . S
C1164 C1166 1.388 . S
C1165 C1164 1.366 . S
C1165 C1169 1.385 . S
C1166 H1147 0.951 . S
C1166 C1164 1.388 . S
C1166 C1167 1.366 . S
C1167 C1166 1.366 . S
C1167 C1168 1.414 . S
C1167 C1170 1.499 . S
C1168 H1148 0.950 . S
C1168 C1167 1.414 . S
C1168 C1169 1.374 . S
C1169 H1149 0.950 . S
C1169 C1165 1.385 . S
C1169 C1168 1.374 . S
C1170 C1167 1.499 . S
C1170 C1171 1.373 . S
C1170 C1172 1.389 . S
C1171 H1150 0.950 . S
C1171 C1170 1.373 . S
C1171 C1187 1.377 . S
C1172 C1170 1.389 . S
C1172 C1173 1.524 . S
C1172 C1186 1.377 . S
C1173 C1172 1.524 . S
C1173 C1174 1.397 . S
C1173 C1178 1.363 . S
C1174 H1151 0.950 . S
C1174 C1173 1.397 . S
C1174 C1175 1.334 . S
C1175 H1152 0.950 . S
C1175 C1174 1.334 . S
C1175 C1176 1.287 . S
C1176 C1175 1.287 . S
C1176 C1177 1.524 . S
C1176 H1195 0.913 . S
C1177 H1153 0.950 . S
C1177 C1176 1.524 . S
C1177 C1178 1.415 . S
C1178 H1154 0.950 . S
C1178 C1173 1.363 . S
C1178 C1177 1.415 . S
C1179 H1155 0.951 . S
C1179 C1180 1.366 . S
C1179 C1181 1.388 . S
C1180 C1179 1.366 . S
C1180 C1184 1.385 . S
C1181 H1156 0.951 . S
C1181 C1179 1.388 . S
C1181 C1182 1.366 . S
C1182 C1181 1.366 . S
C1182 C1183 1.414 . S
C1182 C1185 1.499 . S
C1183 H1157 0.950 . S
C1183 C1182 1.414 . S
C1183 C1184 1.374 . S
C1184 H1158 0.950 . S
C1184 C1180 1.385 . S
C1184 C1183 1.374 . S
C1185 C1182 1.499 . S
C1185 C1186 1.373 . S
C1185 C1187 1.389 . S
C1186 H1159 0.950 . S
C1186 C1172 1.377 . S
C1186 C1185 1.373 . S
C1187 C1171 1.377 . S
C1187 C1185 1.389 . S
C1187 C1188 1.524 . S
C1188 C1187 1.524 . S
C1188 C1189 1.397 . S
C1188 C1193 1.363 . S
C1189 H1160 0.950 . S
C1189 C1188 1.397 . S
C1189 C1190 1.334 . S
C1190 H1161 0.950 . S
C1190 C1189 1.334 . S
C1190 C1191 1.287 . S
C1191 C1190 1.287 . S
C1191 C1192 1.524 . S
C1191 H1194 0.999 . S
C1192 H1162 0.950 . S
C1192 C1191 1.524 . S
C1192 C1193 1.415 . S
C1193 H1163 0.950 . S
C1193 C1188 1.363 . S
C1193 C1192 1.415 . S
H1194 C1191 0.999 . S
H1195 C1176 0.913 . S
H1196 C1214 0.951 . S
H1197 C1216 0.951 . S
H1198 C1218 0.950 . S
H1199 C1219 0.950 . S
H1200 C1221 0.950 . S
H1201 C1224 0.950 . S
H1202 C1225 0.950 . S
H1203 C1227 0.950 . S
H1204 C1228 0.950 . S
H1205 C1229 0.951 1_556 S
H1206 C1231 0.951 . S
H1207 C1233 0.950 . S
H1208 C1234 0.950 . S
H1209 C1236 0.950 . S
H1210 C1239 0.950 . S
H1211 C1240 0.950 . S
H1212 C1242 0.950 . S
H1213 C1243 0.950 . S
C1214 H1196 0.951 . S
C1214 C1215 1.366 . S
C1214 C1216 1.388 . S
C1215 C1214 1.366 . S
C1215 C1219 1.385 . S
C1216 H1197 0.951 . S
C1216 C1214 1.388 . S
C1216 C1217 1.366 . S
C1217 C1216 1.366 . S
C1217 C1218 1.414 . S
C1217 C1220 1.499 . S
C1218 H1198 0.950 . S
C1218 C1217 1.414 . S
C1218 C1219 1.374 . S
C1219 H1199 0.950 . S
C1219 C1215 1.385 . S
C1219 C1218 1.374 . S
C1220 C1217 1.499 . S
C1220 C1221 1.373 . S
C1220 C1222 1.389 . S
C1221 H1200 0.950 . S
C1221 C1220 1.373 . S
C1221 C1237 1.377 . S
C1222 C1220 1.389 . S
C1222 C1223 1.524 . S
C1222 C1236 1.377 . S
C1223 C1222 1.524 . S
C1223 C1224 1.397 . S
C1223 C1228 1.363 . S
C1224 H1201 0.950 . S
C1224 C1223 1.397 . S
C1224 C1225 1.334 . S
C1225 H1202 0.950 . S
C1225 C1224 1.334 . S
C1225 C1226 1.287 . S
C1226 C1225 1.287 . S
C1226 C1227 1.524 . S
C1226 H1245 0.913 . S
C1227 H1203 0.950 . S
C1227 C1226 1.524 . S
C1227 C1228 1.415 . S
C1228 H1204 0.950 . S
C1228 C1223 1.363 . S
C1228 C1227 1.415 . S
C1229 H1205 0.951 1_554 S
C1229 C1230 1.366 . S
C1229 C1231 1.388 1_554 S
C1230 C1229 1.366 . S
C1230 C1234 1.385 . S
C1231 H1206 0.951 . S
C1231 C1229 1.388 1_556 S
C1231 C1232 1.366 . S
C1232 C1231 1.366 . S
C1232 C1233 1.414 1_556 S
C1232 C1235 1.499 . S
C1233 H1207 0.950 . S
C1233 C1232 1.414 1_554 S
C1233 C1234 1.374 . S
C1234 H1208 0.950 . S
C1234 C1230 1.385 . S
C1234 C1233 1.374 . S
C1235 C1232 1.499 . S
C1235 C1236 1.373 . S
C1235 C1237 1.389 . S
C1236 H1209 0.950 . S
C1236 C1222 1.377 . S
C1236 C1235 1.373 . S
C1237 C1221 1.377 . S
C1237 C1235 1.389 . S
C1237 C1238 1.524 . S
C1238 C1237 1.524 . S
C1238 C1239 1.397 1_556 S
C1238 C1243 1.363 . S
C1239 H1210 0.950 . S
C1239 C1238 1.397 1_554 S
C1239 C1240 1.334 . S
C1240 H1211 0.950 . S
C1240 C1239 1.334 . S
C1240 C1241 1.287 . S
C1241 C1240 1.287 . S
C1241 C1242 1.524 1_554 S
C1241 H1244 0.999 . S
C1242 H1212 0.950 . S
C1242 C1241 1.524 1_556 S
C1242 C1243 1.415 . S
C1243 H1213 0.950 . S
C1243 C1238 1.363 . S
C1243 C1242 1.415 . S
H1244 C1241 0.999 . S
H1245 C1226 0.913 . S
H1246 C1264 0.951 . S
H1247 C1266 0.951 . S
H1248 C1268 0.950 . S
H1249 C1269 0.950 . S
H1250 C1271 0.950 . S
H1251 C1274 0.950 . S
H1252 C1275 0.950 . S
H1253 C1277 0.950 . S
H1254 C1278 0.950 . S
H1255 C1279 0.951 . S
H1256 C1281 0.951 . S
H1257 C1283 0.950 . S
H1258 C1284 0.950 . S
H1259 C1286 0.950 . S
H1260 C1289 0.950 . S
H1261 C1290 0.950 . S
H1262 C1292 0.950 . S
H1263 C1293 0.950 . S
C1264 H1246 0.951 . S
C1264 C1265 1.366 . S
C1264 C1266 1.388 . S
C1265 C1264 1.366 . S
C1265 C1269 1.385 . S
C1266 H1247 0.951 . S
C1266 C1264 1.388 . S
C1266 C1267 1.366 . S
C1267 C1266 1.366 . S
C1267 C1268 1.414 . S
C1267 C1270 1.499 . S
C1268 H1248 0.950 . S
C1268 C1267 1.414 . S
C1268 C1269 1.374 . S
C1269 H1249 0.950 . S
C1269 C1265 1.385 . S
C1269 C1268 1.374 . S
C1270 C1267 1.499 . S
C1270 C1271 1.373 . S
C1270 C1272 1.389 . S
C1271 H1250 0.950 . S
C1271 C1270 1.373 . S
C1271 C1287 1.377 . S
C1272 C1270 1.389 . S
C1272 C1273 1.524 . S
C1272 C1286 1.377 . S
C1273 C1272 1.524 . S
C1273 C1274 1.397 . S
C1273 C1278 1.363 . S
C1274 H1251 0.950 . S
C1274 C1273 1.397 . S
C1274 C1275 1.334 . S
C1275 H1252 0.950 . S
C1275 C1274 1.334 . S
C1275 C1276 1.287 . S
C1276 C1275 1.287 . S
C1276 C1277 1.524 . S
C1276 H1295 0.913 . S
C1277 H1253 0.950 . S
C1277 C1276 1.524 . S
C1277 C1278 1.415 . S
C1278 H1254 0.950 . S
C1278 C1273 1.363 . S
C1278 C1277 1.415 . S
C1279 H1255 0.951 . S
C1279 C1280 1.366 . S
C1279 C1281 1.388 . S
C1280 C1279 1.366 . S
C1280 C1284 1.385 1_556 S
C1281 H1256 0.951 . S
C1281 C1279 1.388 . S
C1281 C1282 1.366 1_556 S
C1282 C1281 1.366 1_554 S
C1282 C1283 1.414 . S
C1282 C1285 1.499 . S
C1283 H1257 0.950 . S
C1283 C1282 1.414 . S
C1283 C1284 1.374 . S
C1284 H1258 0.950 . S
C1284 C1280 1.385 1_554 S
C1284 C1283 1.374 . S
C1285 C1282 1.499 . S
C1285 C1286 1.373 . S
C1285 C1287 1.389 . S
C1286 H1259 0.950 . S
C1286 C1272 1.377 . S
C1286 C1285 1.373 . S
C1287 C1271 1.377 . S
C1287 C1285 1.389 . S
C1287 C1288 1.524 1_554 S
C1288 C1287 1.524 1_556 S
C1288 C1289 1.397 1_556 S
C1288 C1293 1.363 . S
C1289 H1260 0.950 . S
C1289 C1288 1.397 1_554 S
C1289 C1290 1.334 1_554 S
C1290 H1261 0.950 . S
C1290 C1289 1.334 1_556 S
C1290 C1291 1.287 . S
C1291 C1290 1.287 . S
C1291 C1292 1.524 . S
C1291 H1294 0.999 . S
C1292 H1262 0.950 . S
C1292 C1291 1.524 . S
C1292 C1293 1.415 . S
C1293 H1263 0.950 . S
C1293 C1288 1.363 . S
C1293 C1292 1.415 . S
H1294 C1291 0.999 . S
H1295 C1276 0.913 . S
H1296 C1314 0.951 . S
H1297 C1316 0.951 . S
H1298 C1318 0.950 . S
H1299 C1319 0.950 . S
H1300 C1321 0.950 . S
H1301 C1324 0.950 . S
H1302 C1325 0.950 . S
H1303 C1327 0.950 . S
H1304 C1328 0.950 . S
H1305 C1329 0.951 . S
H1306 C1331 0.951 . S
H1307 C1333 0.950 . S
H1308 C1334 0.950 . S
H1309 C1336 0.950 . S
H1310 C1339 0.950 . S
H1311 C1340 0.950 . S
H1312 C1342 0.950 . S
H1313 C1343 0.950 . S
C1314 H1296 0.951 . S
C1314 C1315 1.366 . S
C1314 C1316 1.388 . S
C1315 C1314 1.366 . S
C1315 C1319 1.385 . S
C1316 H1297 0.951 . S
C1316 C1314 1.388 . S
C1316 C1317 1.366 . S
C1317 C1316 1.366 . S
C1317 C1318 1.414 . S
C1317 C1320 1.499 . S
C1318 H1298 0.950 . S
C1318 C1317 1.414 . S
C1318 C1319 1.374 . S
C1319 H1299 0.950 . S
C1319 C1315 1.385 . S
C1319 C1318 1.374 . S
C1320 C1317 1.499 . S
C1320 C1321 1.373 . S
C1320 C1322 1.389 . S
C1321 H1300 0.950 . S
C1321 C1320 1.373 . S
C1321 C1337 1.377 . S
C1322 C1320 1.389 . S
C1322 C1323 1.524 . S
C1322 C1336 1.377 . S
C1323 C1322 1.524 . S
C1323 C1324 1.397 . S
C1323 C1328 1.363 . S
C1324 H1301 0.950 . S
C1324 C1323 1.397 . S
C1324 C1325 1.334 . S
C1325 H1302 0.950 . S
C1325 C1324 1.334 . S
C1325 C1326 1.287 . S
C1326 C1325 1.287 . S
C1326 C1327 1.524 . S
C1326 H1345 0.913 . S
C1327 H1303 0.950 . S
C1327 C1326 1.524 . S
C1327 C1328 1.415 . S
C1328 H1304 0.950 . S
C1328 C1323 1.363 . S
C1328 C1327 1.415 . S
C1329 H1305 0.951 . S
C1329 C1330 1.366 . S
C1329 C1331 1.388 . S
C1330 C1329 1.366 . S
C1330 C1334 1.385 . S
C1331 H1306 0.951 . S
C1331 C1329 1.388 . S
C1331 C1332 1.366 . S
C1332 C1331 1.366 . S
C1332 C1333 1.414 . S
C1332 C1335 1.499 . S
C1333 H1307 0.950 . S
C1333 C1332 1.414 . S
C1333 C1334 1.374 . S
C1334 H1308 0.950 . S
C1334 C1330 1.385 . S
C1334 C1333 1.374 . S
C1335 C1332 1.499 . S
C1335 C1336 1.373 . S
C1335 C1337 1.389 . S
C1336 H1309 0.950 . S
C1336 C1322 1.377 . S
C1336 C1335 1.373 . S
C1337 C1321 1.377 . S
C1337 C1335 1.389 . S
C1337 C1338 1.524 . S
C1338 C1337 1.524 . S
C1338 C1339 1.397 . S
C1338 C1343 1.363 . S
C1339 H1310 0.950 . S
C1339 C1338 1.397 . S
C1339 C1340 1.334 . S
C1340 H1311 0.950 . S
C1340 C1339 1.334 . S
C1340 C1341 1.287 . S
C1341 C1340 1.287 . S
C1341 C1342 1.524 . S
C1341 H1344 0.999 . S
C1342 H1312 0.950 . S
C1342 C1341 1.524 . S
C1342 C1343 1.415 . S
C1343 H1313 0.950 . S
C1343 C1338 1.363 . S
C1343 C1342 1.415 . S
H1344 C1341 0.999 . S
H1345 C1326 0.913 . S
H1346 C1364 0.951 . S
H1347 C1366 0.951 . S
H1348 C1368 0.950 . S
H1349 C1369 0.950 . S
H1350 C1371 0.950 . S
H1351 C1374 0.950 . S
H1352 C1375 0.950 . S
H1353 C1377 0.950 . S
H1354 C1378 0.950 . S
H1355 C1379 0.951 . S
H1356 C1381 0.951 . S
H1357 C1383 0.950 . S
H1358 C1384 0.950 . S
H1359 C1386 0.950 . S
H1360 C1389 0.950 . S
H1361 C1390 0.950 . S
H1362 C1392 0.950 . S
H1363 C1393 0.950 . S
C1364 H1346 0.951 . S
C1364 C1365 1.366 . S
C1364 C1366 1.388 . S
C1365 C1364 1.366 . S
C1365 C1369 1.385 . S
C1366 H1347 0.951 . S
C1366 C1364 1.388 . S
C1366 C1367 1.366 . S
C1367 C1366 1.366 . S
C1367 C1368 1.414 . S
C1367 C1370 1.499 . S
C1368 H1348 0.950 . S
C1368 C1367 1.414 . S
C1368 C1369 1.374 . S
C1369 H1349 0.950 . S
C1369 C1365 1.385 . S
C1369 C1368 1.374 . S
C1370 C1367 1.499 . S
C1370 C1371 1.373 . S
C1370 C1372 1.389 . S
C1371 H1350 0.950 . S
C1371 C1370 1.373 . S
C1371 C1387 1.377 . S
C1372 C1370 1.389 . S
C1372 C1373 1.524 . S
C1372 C1386 1.377 . S
C1373 C1372 1.524 . S
C1373 C1374 1.397 . S
C1373 C1378 1.363 . S
C1374 H1351 0.950 . S
C1374 C1373 1.397 . S
C1374 C1375 1.334 . S
C1375 H1352 0.950 . S
C1375 C1374 1.334 . S
C1375 C1376 1.287 . S
C1376 C1375 1.287 . S
C1376 C1377 1.524 . S
C1376 H1395 0.913 . S
C1377 H1353 0.950 . S
C1377 C1376 1.524 . S
C1377 C1378 1.415 . S
C1378 H1354 0.950 . S
C1378 C1373 1.363 . S
C1378 C1377 1.415 . S
C1379 H1355 0.951 . S
C1379 C1380 1.366 . S
C1379 C1381 1.388 . S
C1380 C1379 1.366 . S
C1380 C1384 1.385 . S
C1381 H1356 0.951 . S
C1381 C1379 1.388 . S
C1381 C1382 1.366 . S
C1382 C1381 1.366 . S
C1382 C1383 1.414 . S
C1382 C1385 1.499 . S
C1383 H1357 0.950 . S
C1383 C1382 1.414 . S
C1383 C1384 1.374 . S
C1384 H1358 0.950 . S
C1384 C1380 1.385 . S
C1384 C1383 1.374 . S
C1385 C1382 1.499 . S
C1385 C1386 1.373 . S
C1385 C1387 1.389 . S
C1386 H1359 0.950 . S
C1386 C1372 1.377 . S
C1386 C1385 1.373 . S
C1387 C1371 1.377 . S
C1387 C1385 1.389 . S
C1387 C1388 1.524 . S
C1388 C1387 1.524 . S
C1388 C1389 1.397 . S
C1388 C1393 1.363 . S
C1389 H1360 0.950 . S
C1389 C1388 1.397 . S
C1389 C1390 1.334 . S
C1390 H1361 0.950 . S
C1390 C1389 1.334 . S
C1390 C1391 1.287 . S
C1391 C1390 1.287 . S
C1391 C1392 1.524 . S
C1391 H1394 0.999 . S
C1392 H1362 0.950 . S
C1392 C1391 1.524 . S
C1392 C1393 1.415 . S
C1393 H1363 0.950 . S
C1393 C1388 1.363 . S
C1393 C1392 1.415 . S
H1394 C1391 0.999 . S
H1395 C1376 0.913 . S
H1396 C1414 0.951 . S
H1397 C1416 0.951 . S
H1398 C1418 0.950 . S
H1399 C1419 0.950 . S
H1400 C1421 0.950 . S
H1401 C1424 0.950 . S
H1402 C1425 0.950 . S
H1403 C1427 0.950 . S
H1404 C1428 0.950 . S
H1405 C1429 0.951 . S
H1406 C1431 0.951 . S
H1407 C1433 0.950 . S
H1408 C1434 0.950 . S
H1409 C1436 0.950 . S
H1410 C1439 0.950 . S
H1411 C1440 0.950 . S
H1412 C1442 0.950 . S
H1413 C1443 0.950 . S
C1414 H1396 0.951 . S
C1414 C1415 1.366 . S
C1414 C1416 1.388 . S
C1415 C1414 1.366 . S
C1415 C1419 1.385 . S
C1416 H1397 0.951 . S
C1416 C1414 1.388 . S
C1416 C1417 1.366 . S
C1417 C1416 1.366 . S
C1417 C1418 1.414 . S
C1417 C1420 1.499 . S
C1418 H1398 0.950 . S
C1418 C1417 1.414 . S
C1418 C1419 1.374 . S
C1419 H1399 0.950 . S
C1419 C1415 1.385 . S
C1419 C1418 1.374 . S
C1420 C1417 1.499 . S
C1420 C1421 1.373 . S
C1420 C1422 1.389 . S
C1421 H1400 0.950 . S
C1421 C1420 1.373 . S
C1421 C1437 1.377 . S
C1422 C1420 1.389 . S
C1422 C1423 1.524 . S
C1422 C1436 1.377 . S
C1423 C1422 1.524 . S
C1423 C1424 1.397 . S
C1423 C1428 1.363 . S
C1424 H1401 0.950 . S
C1424 C1423 1.397 . S
C1424 C1425 1.334 . S
C1425 H1402 0.950 . S
C1425 C1424 1.334 . S
C1425 C1426 1.287 . S
C1426 C1425 1.287 . S
C1426 C1427 1.524 . S
C1426 H1445 0.913 . S
C1427 H1403 0.950 . S
C1427 C1426 1.524 . S
C1427 C1428 1.415 . S
C1428 H1404 0.950 . S
C1428 C1423 1.363 . S
C1428 C1427 1.415 . S
C1429 H1405 0.951 . S
C1429 C1430 1.366 . S
C1429 C1431 1.388 . S
C1430 C1429 1.366 . S
C1430 C1434 1.385 . S
C1431 H1406 0.951 . S
C1431 C1429 1.388 . S
C1431 C1432 1.366 . S
C1432 C1431 1.366 . S
C1432 C1433 1.414 . S
C1432 C1435 1.499 1_554 S
C1433 H1407 0.950 . S
C1433 C1432 1.414 . S
C1433 C1434 1.374 . S
C1434 H1408 0.950 . S
C1434 C1430 1.385 . S
C1434 C1433 1.374 . S
C1435 C1432 1.499 1_556 S
C1435 C1436 1.373 . S
C1435 C1437 1.389 . S
C1436 H1409 0.950 . S
C1436 C1422 1.377 . S
C1436 C1435 1.373 . S
C1437 C1421 1.377 . S
C1437 C1435 1.389 . S
C1437 C1438 1.524 . S
C1438 C1437 1.524 . S
C1438 C1439 1.397 . S
C1438 C1443 1.363 . S
C1439 H1410 0.950 . S
C1439 C1438 1.397 . S
C1439 C1440 1.334 1_556 S
C1440 H1411 0.950 . S
C1440 C1439 1.334 1_554 S
C1440 C1441 1.287 . S
C1441 C1440 1.287 . S
C1441 C1442 1.524 1_554 S
C1441 H1444 0.999 . S
C1442 H1412 0.950 . S
C1442 C1441 1.524 1_556 S
C1442 C1443 1.415 . S
C1443 H1413 0.950 . S
C1443 C1438 1.363 . S
C1443 C1442 1.415 . S
H1444 C1441 0.999 . S
H1445 C1426 0.913 . S
H1446 C1464 0.951 . S
H1447 C1466 0.951 . S
H1448 C1468 0.950 . S
H1449 C1469 0.950 . S
H1450 C1471 0.950 . S
H1451 C1474 0.950 . S
H1452 C1475 0.950 . S
H1453 C1477 0.950 . S
H1454 C1478 0.950 1_554 S
H1455 C1479 0.951 . S
H1456 C1481 0.951 . S
H1457 C1483 0.950 . S
H1458 C1484 0.950 . S
H1459 C1486 0.950 . S
H1460 C1489 0.950 . S
H1461 C1490 0.950 . S
H1462 C1492 0.950 . S
H1463 C1493 0.950 . S
C1464 H1446 0.951 . S
C1464 C1465 1.366 . S
C1464 C1466 1.388 . S
C1465 C1464 1.366 . S
C1465 C1469 1.385 . S
C1466 H1447 0.951 . S
C1466 C1464 1.388 . S
C1466 C1467 1.366 . S
C1467 C1466 1.366 . S
C1467 C1468 1.414 . S
C1467 C1470 1.499 . S
C1468 H1448 0.950 . S
C1468 C1467 1.414 . S
C1468 C1469 1.374 . S
C1469 H1449 0.950 . S
C1469 C1465 1.385 . S
C1469 C1468 1.374 . S
C1470 C1467 1.499 . S
C1470 C1471 1.373 1_556 S
C1470 C1472 1.389 1_556 S
C1471 H1450 0.950 . S
C1471 C1470 1.373 1_554 S
C1471 C1487 1.377 . S
C1472 C1470 1.389 1_554 S
C1472 C1473 1.524 1_554 S
C1472 C1486 1.377 . S
C1473 C1472 1.524 1_556 S
C1473 C1474 1.397 . S
C1473 C1478 1.363 . S
C1474 H1451 0.950 . S
C1474 C1473 1.397 . S
C1474 C1475 1.334 . S
C1475 H1452 0.950 . S
C1475 C1474 1.334 . S
C1475 C1476 1.287 . S
C1476 C1475 1.287 . S
C1476 C1477 1.524 . S
C1476 H1495 0.913 . S
C1477 H1453 0.950 . S
C1477 C1476 1.524 . S
C1477 C1478 1.415 . S
C1478 H1454 0.950 1_556 S
C1478 C1473 1.363 . S
C1478 C1477 1.415 . S
C1479 H1455 0.951 . S
C1479 C1480 1.366 . S
C1479 C1481 1.388 . S
C1480 C1479 1.366 . S
C1480 C1484 1.385 . S
C1481 H1456 0.951 . S
C1481 C1479 1.388 . S
C1481 C1482 1.366 . S
C1482 C1481 1.366 . S
C1482 C1483 1.414 . S
C1482 C1485 1.499 . S
C1483 H1457 0.950 . S
C1483 C1482 1.414 . S
C1483 C1484 1.374 . S
C1484 H1458 0.950 . S
C1484 C1480 1.385 . S
C1484 C1483 1.374 . S
C1485 C1482 1.499 . S
C1485 C1486 1.373 . S
C1485 C1487 1.389 . S
C1486 H1459 0.950 . S
C1486 C1472 1.377 . S
C1486 C1485 1.373 . S
C1487 C1471 1.377 . S
C1487 C1485 1.389 . S
C1487 C1488 1.524 . S
C1488 C1487 1.524 . S
C1488 C1489 1.397 . S
C1488 C1493 1.363 . S
C1489 H1460 0.950 . S
C1489 C1488 1.397 . S
C1489 C1490 1.334 . S
C1490 H1461 0.950 . S
C1490 C1489 1.334 . S
C1490 C1491 1.287 . S
C1491 C1490 1.287 . S
C1491 C1492 1.524 . S
C1491 H1494 0.999 . S
C1492 H1462 0.950 . S
C1492 C1491 1.524 . S
C1492 C1493 1.415 . S
C1493 H1463 0.950 . S
C1493 C1488 1.363 . S
C1493 C1492 1.415 . S
H1494 C1491 0.999 . S
H1495 C1476 0.913 . S
H1496 C1514 0.951 . S
H1497 C1516 0.951 . S
H1498 C1518 0.950 . S
H1499 C1519 0.950 . S
H1500 C1521 0.950 . S
H1501 C1524 0.950 . S
H1502 C1525 0.950 . S
H1503 C1527 0.950 . S
H1504 C1528 0.950 . S
H1505 C1529 0.951 . S
H1506 C1531 0.951 . S
H1507 C1533 0.950 . S
H1508 C1534 0.950 . S
H1509 C1536 0.950 . S
H1510 C1539 0.950 . S
H1511 C1540 0.950 . S
H1512 C1542 0.950 . S
H1513 C1543 0.950 . S
C1514 H1496 0.951 . S
C1514 C1515 1.366 . S
C1514 C1516 1.388 . S
C1515 C1514 1.366 . S
C1515 C1519 1.385 . S
C1516 H1497 0.951 . S
C1516 C1514 1.388 . S
C1516 C1517 1.366 . S
C1517 C1516 1.366 . S
C1517 C1518 1.414 . S
C1517 C1520 1.499 . S
C1518 H1498 0.950 . S
C1518 C1517 1.414 . S
C1518 C1519 1.374 . S
C1519 H1499 0.950 . S
C1519 C1515 1.385 . S
C1519 C1518 1.374 . S
C1520 C1517 1.499 . S
C1520 C1521 1.373 . S
C1520 C1522 1.389 . S
C1521 H1500 0.950 . S
C1521 C1520 1.373 . S
C1521 C1537 1.377 . S
C1522 C1520 1.389 . S
C1522 C1523 1.524 . S
C1522 C1536 1.377 . S
C1523 C1522 1.524 . S
C1523 C1524 1.397 . S
C1523 C1528 1.363 . S
C1524 H1501 0.950 . S
C1524 C1523 1.397 . S
C1524 C1525 1.334 . S
C1525 H1502 0.950 . S
C1525 C1524 1.334 . S
C1525 C1526 1.287 . S
C1526 C1525 1.287 . S
C1526 C1527 1.524 . S
C1526 H1545 0.913 . S
C1527 H1503 0.950 . S
C1527 C1526 1.524 . S
C1527 C1528 1.415 . S
C1528 H1504 0.950 . S
C1528 C1523 1.363 . S
C1528 C1527 1.415 . S
C1529 H1505 0.951 . S
C1529 C1530 1.366 . S
C1529 C1531 1.388 1_556 S
C1530 C1529 1.366 . S
C1530 C1534 1.385 . S
C1531 H1506 0.951 . S
C1531 C1529 1.388 1_554 S
C1531 C1532 1.366 . S
C1532 C1531 1.366 . S
C1532 C1533 1.414 . S
C1532 C1535 1.499 . S
C1533 H1507 0.950 . S
C1533 C1532 1.414 . S
C1533 C1534 1.374 1_554 S
C1534 H1508 0.950 . S
C1534 C1530 1.385 . S
C1534 C1533 1.374 1_556 S
C1535 C1532 1.499 . S
C1535 C1536 1.373 . S
C1535 C1537 1.389 . S
C1536 H1509 0.950 . S
C1536 C1522 1.377 . S
C1536 C1535 1.373 . S
C1537 C1521 1.377 . S
C1537 C1535 1.389 . S
C1537 C1538 1.524 . S
C1538 C1537 1.524 . S
C1538 C1539 1.397 . S
C1538 C1543 1.363 . S
C1539 H1510 0.950 . S
C1539 C1538 1.397 . S
C1539 C1540 1.334 . S
C1540 H1511 0.950 . S
C1540 C1539 1.334 . S
C1540 C1541 1.287 . S
C1541 C1540 1.287 . S
C1541 C1542 1.524 . S
C1541 H1544 0.999 . S
C1542 H1512 0.950 . S
C1542 C1541 1.524 . S
C1542 C1543 1.415 . S
C1543 H1513 0.950 . S
C1543 C1538 1.363 . S
C1543 C1542 1.415 . S
H1544 C1541 0.999 . S
H1545 C1526 0.913 . S
H1546 C1564 0.951 . S
H1547 C1566 0.951 . S
H1548 C1568 0.950 . S
H1549 C1569 0.950 . S
H1550 C1571 0.950 . S
H1551 C1574 0.950 . S
H1552 C1575 0.950 . S
H1553 C1577 0.950 . S
H1554 C1578 0.950 . S
H1555 C1579 0.951 . S
H1556 C1581 0.951 . S
H1557 C1583 0.950 . S
H1558 C1584 0.950 . S
H1559 C1586 0.950 . S
H1560 C1589 0.950 . S
H1561 C1590 0.950 . S
H1562 C1592 0.950 . S
H1563 C1593 0.950 . S
C1564 H1546 0.951 . S
C1564 C1565 1.366 . S
C1564 C1566 1.388 . S
C1565 C1564 1.366 . S
C1565 C1569 1.385 . S
C1566 H1547 0.951 . S
C1566 C1564 1.388 . S
C1566 C1567 1.366 . S
C1567 C1566 1.366 . S
C1567 C1568 1.414 . S
C1567 C1570 1.499 . S
C1568 H1548 0.950 . S
C1568 C1567 1.414 . S
C1568 C1569 1.374 . S
C1569 H1549 0.950 . S
C1569 C1565 1.385 . S
C1569 C1568 1.374 . S
C1570 C1567 1.499 . S
C1570 C1571 1.373 . S
C1570 C1572 1.389 . S
C1571 H1550 0.950 . S
C1571 C1570 1.373 . S
C1571 C1587 1.377 . S
C1572 C1570 1.389 . S
C1572 C1573 1.524 . S
C1572 C1586 1.377 . S
C1573 C1572 1.524 . S
C1573 C1574 1.397 . S
C1573 C1578 1.363 . S
C1574 H1551 0.950 . S
C1574 C1573 1.397 . S
C1574 C1575 1.334 . S
C1575 H1552 0.950 . S
C1575 C1574 1.334 . S
C1575 C1576 1.287 . S
C1576 C1575 1.287 . S
C1576 C1577 1.524 . S
C1576 H1595 0.913 . S
C1577 H1553 0.950 . S
C1577 C1576 1.524 . S
C1577 C1578 1.415 . S
C1578 H1554 0.950 . S
C1578 C1573 1.363 . S
C1578 C1577 1.415 . S
C1579 H1555 0.951 . S
C1579 C1580 1.366 . S
C1579 C1581 1.388 . S
C1580 C1579 1.366 . S
C1580 C1584 1.385 . S
C1581 H1556 0.951 . S
C1581 C1579 1.388 . S
C1581 C1582 1.366 . S
C1582 C1581 1.366 . S
C1582 C1583 1.414 . S
C1582 C1585 1.499 . S
C1583 H1557 0.950 . S
C1583 C1582 1.414 . S
C1583 C1584 1.374 . S
C1584 H1558 0.950 . S
C1584 C1580 1.385 . S
C1584 C1583 1.374 . S
C1585 C1582 1.499 . S
C1585 C1586 1.373 . S
C1585 C1587 1.389 . S
C1586 H1559 0.950 . S
C1586 C1572 1.377 . S
C1586 C1585 1.373 . S
C1587 C1571 1.377 . S
C1587 C1585 1.389 . S
C1587 C1588 1.524 . S
C1588 C1587 1.524 . S
C1588 C1589 1.397 . S
C1588 C1593 1.363 . S
C1589 H1560 0.950 . S
C1589 C1588 1.397 . S
C1589 C1590 1.334 . S
C1590 H1561 0.950 . S
C1590 C1589 1.334 . S
C1590 C1591 1.287 . S
C1591 C1590 1.287 . S
C1591 C1592 1.524 . S
C1591 H1594 0.999 . S
C1592 H1562 0.950 . S
C1592 C1591 1.524 . S
C1592 C1593 1.415 . S
C1593 H1563 0.950 . S
C1593 C1588 1.363 . S
C1593 C1592 1.415 . S
H1594 C1591 0.999 . S
H1595 C1576 0.913 . S
H1596 C1614 0.951 . S
H1597 C1616 0.951 . S
H1598 C1618 0.950 . S
H1599 C1619 0.950 . S
H1600 C1621 0.950 . S
H1601 C1624 0.950 . S
H1602 C1625 0.950 . S
H1603 C1627 0.950 . S
H1604 C1628 0.950 . S
H1605 C1629 0.951 . S
H1606 C1631 0.951 . S
H1607 C1633 0.950 . S
H1608 C1634 0.950 . S
H1609 C1636 0.950 . S
H1610 C1639 0.950 . S
H1611 C1640 0.950 . S
H1612 C1642 0.950 . S
H1613 C1643 0.950 . S
C1614 H1596 0.951 . S
C1614 C1615 1.366 . S
C1614 C1616 1.388 . S
C1615 C1614 1.366 . S
C1615 C1619 1.385 . S
C1616 H1597 0.951 . S
C1616 C1614 1.388 . S
C1616 C1617 1.366 . S
C1617 C1616 1.366 . S
C1617 C1618 1.414 . S
C1617 C1620 1.499 . S
C1618 H1598 0.950 . S
C1618 C1617 1.414 . S
C1618 C1619 1.374 . S
C1619 H1599 0.950 . S
C1619 C1615 1.385 . S
C1619 C1618 1.374 . S
C1620 C1617 1.499 . S
C1620 C1621 1.373 . S
C1620 C1622 1.389 . S
C1621 H1600 0.950 . S
C1621 C1620 1.373 . S
C1621 C1637 1.377 . S
C1622 C1620 1.389 . S
C1622 C1623 1.524 . S
C1622 C1636 1.377 . S
C1623 C1622 1.524 . S
C1623 C1624 1.397 . S
C1623 C1628 1.363 . S
C1624 H1601 0.950 . S
C1624 C1623 1.397 . S
C1624 C1625 1.334 . S
C1625 H1602 0.950 . S
C1625 C1624 1.334 . S
C1625 C1626 1.287 . S
C1626 C1625 1.287 . S
C1626 C1627 1.524 . S
C1626 H1645 0.913 . S
C1627 H1603 0.950 . S
C1627 C1626 1.524 . S
C1627 C1628 1.415 . S
C1628 H1604 0.950 . S
C1628 C1623 1.363 . S
C1628 C1627 1.415 . S
C1629 H1605 0.951 . S
C1629 C1630 1.366 . S
C1629 C1631 1.388 . S
C1630 C1629 1.366 . S
C1630 C1634 1.385 . S
C1631 H1606 0.951 . S
C1631 C1629 1.388 . S
C1631 C1632 1.366 . S
C1632 C1631 1.366 . S
C1632 C1633 1.414 . S
C1632 C1635 1.499 . S
C1633 H1607 0.950 . S
C1633 C1632 1.414 . S
C1633 C1634 1.374 . S
C1634 H1608 0.950 . S
C1634 C1630 1.385 . S
C1634 C1633 1.374 . S
C1635 C1632 1.499 . S
C1635 C1636 1.373 . S
C1635 C1637 1.389 . S
C1636 H1609 0.950 . S
C1636 C1622 1.377 . S
C1636 C1635 1.373 . S
C1637 C1621 1.377 . S
C1637 C1635 1.389 . S
C1637 C1638 1.524 . S
C1638 C1637 1.524 . S
C1638 C1639 1.397 . S
C1638 C1643 1.363 . S
C1639 H1610 0.950 . S
C1639 C1638 1.397 . S
C1639 C1640 1.334 . S
C1640 H1611 0.950 . S
C1640 C1639 1.334 . S
C1640 C1641 1.287 . S
C1641 C1640 1.287 . S
C1641 C1642 1.524 . S
C1641 H1644 0.999 . S
C1642 H1612 0.950 . S
C1642 C1641 1.524 . S
C1642 C1643 1.415 . S
C1643 H1613 0.950 . S
C1643 C1638 1.363 . S
C1643 C1642 1.415 . S
H1644 C1641 0.999 . S
H1645 C1626 0.913 . S
H1646 C1664 0.951 . S
H1647 C1666 0.951 . S
H1648 C1668 0.950 . S
H1649 C1669 0.950 . S
H1650 C1671 0.950 . S
H1651 C1674 0.950 . S
H1652 C1675 0.950 . S
H1653 C1677 0.950 . S
H1654 C1678 0.950 . S
H1655 C1679 0.951 . S
H1656 C1681 0.951 . S
H1657 C1683 0.950 . S
H1658 C1684 0.950 . S
H1659 C1686 0.950 . S
H1660 C1689 0.950 . S
H1661 C1690 0.950 . S
H1662 C1692 0.950 . S
H1663 C1693 0.950 . S
C1664 H1646 0.951 . S
C1664 C1665 1.366 . S
C1664 C1666 1.388 . S
C1665 C1664 1.366 . S
C1665 C1669 1.385 . S
C1666 H1647 0.951 . S
C1666 C1664 1.388 . S
C1666 C1667 1.366 . S
C1667 C1666 1.366 . S
C1667 C1668 1.414 . S
C1667 C1670 1.499 . S
C1668 H1648 0.950 . S
C1668 C1667 1.414 . S
C1668 C1669 1.374 . S
C1669 H1649 0.950 . S
C1669 C1665 1.385 . S
C1669 C1668 1.374 . S
C1670 C1667 1.499 . S
C1670 C1671 1.373 . S
C1670 C1672 1.389 . S
C1671 H1650 0.950 . S
C1671 C1670 1.373 . S
C1671 C1687 1.377 . S
C1672 C1670 1.389 . S
C1672 C1673 1.524 . S
C1672 C1686 1.377 . S
C1673 C1672 1.524 . S
C1673 C1674 1.397 . S
C1673 C1678 1.363 . S
C1674 H1651 0.950 . S
C1674 C1673 1.397 . S
C1674 C1675 1.334 . S
C1675 H1652 0.950 . S
C1675 C1674 1.334 . S
C1675 C1676 1.287 . S
C1676 C1675 1.287 . S
C1676 C1677 1.524 . S
C1676 H1695 0.913 . S
C1677 H1653 0.950 . S
C1677 C1676 1.524 . S
C1677 C1678 1.415 . S
C1678 H1654 0.950 . S
C1678 C1673 1.363 . S
C1678 C1677 1.415 . S
C1679 H1655 0.951 . S
C1679 C1680 1.366 . S
C1679 C1681 1.388 . S
C1680 C1679 1.366 . S
C1680 C1684 1.385 . S
C1681 H1656 0.951 . S
C1681 C1679 1.388 . S
C1681 C1682 1.366 . S
C1682 C1681 1.366 . S
C1682 C1683 1.414 . S
C1682 C1685 1.499 . S
C1683 H1657 0.950 . S
C1683 C1682 1.414 . S
C1683 C1684 1.374 . S
C1684 H1658 0.950 . S
C1684 C1680 1.385 . S
C1684 C1683 1.374 . S
C1685 C1682 1.499 . S
C1685 C1686 1.373 . S
C1685 C1687 1.389 . S
C1686 H1659 0.950 . S
C1686 C1672 1.377 . S
C1686 C1685 1.373 . S
C1687 C1671 1.377 . S
C1687 C1685 1.389 . S
C1687 C1688 1.524 . S
C1688 C1687 1.524 . S
C1688 C1689 1.397 . S
C1688 C1693 1.363 . S
C1689 H1660 0.950 . S
C1689 C1688 1.397 . S
C1689 C1690 1.334 . S
C1690 H1661 0.950 . S
C1690 C1689 1.334 . S
C1690 C1691 1.287 . S
C1691 C1690 1.287 . S
C1691 C1692 1.524 . S
C1691 H1694 0.999 . S
C1692 H1662 0.950 . S
C1692 C1691 1.524 . S
C1692 C1693 1.415 . S
C1693 H1663 0.950 . S
C1693 C1688 1.363 . S
C1693 C1692 1.415 . S
H1694 C1691 0.999 . S
H1695 C1676 0.913 . S
H1696 C1714 0.951 . S
H1697 C1716 0.951 . S
H1698 C1718 0.950 . S
H1699 C1719 0.950 . S
H1700 C1721 0.950 . S
H1701 C1724 0.950 . S
H1702 C1725 0.950 . S
H1703 C1727 0.950 . S
H1704 C1728 0.950 . S
H1705 C1729 0.951 . S
H1706 C1731 0.951 . S
H1707 C1733 0.950 . S
H1708 C1734 0.950 . S
H1709 C1736 0.950 . S
H1710 C1739 0.950 . S
H1711 C1740 0.950 . S
H1712 C1742 0.950 . S
H1713 C1743 0.950 . S
C1714 H1696 0.951 . S
C1714 C1715 1.366 . S
C1714 C1716 1.388 . S
C1715 C1714 1.366 . S
C1715 C1719 1.385 . S
C1716 H1697 0.951 . S
C1716 C1714 1.388 . S
C1716 C1717 1.366 . S
C1717 C1716 1.366 . S
C1717 C1718 1.414 . S
C1717 C1720 1.499 . S
C1718 H1698 0.950 . S
C1718 C1717 1.414 . S
C1718 C1719 1.374 . S
C1719 H1699 0.950 . S
C1719 C1715 1.385 . S
C1719 C1718 1.374 . S
C1720 C1717 1.499 . S
C1720 C1721 1.373 . S
C1720 C1722 1.389 . S
C1721 H1700 0.950 . S
C1721 C1720 1.373 . S
C1721 C1737 1.377 . S
C1722 C1720 1.389 . S
C1722 C1723 1.524 . S
C1722 C1736 1.377 . S
C1723 C1722 1.524 . S
C1723 C1724 1.397 . S
C1723 C1728 1.363 . S
C1724 H1701 0.950 . S
C1724 C1723 1.397 . S
C1724 C1725 1.334 . S
C1725 H1702 0.950 . S
C1725 C1724 1.334 . S
C1725 C1726 1.287 . S
C1726 C1725 1.287 . S
C1726 C1727 1.524 . S
C1726 H1745 0.913 . S
C1727 H1703 0.950 . S
C1727 C1726 1.524 . S
C1727 C1728 1.415 . S
C1728 H1704 0.950 . S
C1728 C1723 1.363 . S
C1728 C1727 1.415 . S
C1729 H1705 0.951 . S
C1729 C1730 1.366 . S
C1729 C1731 1.388 . S
C1730 C1729 1.366 . S
C1730 C1734 1.385 . S
C1731 H1706 0.951 . S
C1731 C1729 1.388 . S
C1731 C1732 1.366 . S
C1732 C1731 1.366 . S
C1732 C1733 1.414 . S
C1732 C1735 1.499 . S
C1733 H1707 0.950 . S
C1733 C1732 1.414 . S
C1733 C1734 1.374 . S
C1734 H1708 0.950 . S
C1734 C1730 1.385 . S
C1734 C1733 1.374 . S
C1735 C1732 1.499 . S
C1735 C1736 1.373 . S
C1735 C1737 1.389 . S
C1736 H1709 0.950 . S
C1736 C1722 1.377 . S
C1736 C1735 1.373 . S
C1737 C1721 1.377 . S
C1737 C1735 1.389 . S
C1737 C1738 1.524 . S
C1738 C1737 1.524 . S
C1738 C1739 1.397 . S
C1738 C1743 1.363 . S
C1739 H1710 0.950 . S
C1739 C1738 1.397 . S
C1739 C1740 1.334 . S
C1740 H1711 0.950 . S
C1740 C1739 1.334 . S
C1740 C1741 1.287 . S
C1741 C1740 1.287 . S
C1741 C1742 1.524 . S
C1741 H1744 0.999 . S
C1742 H1712 0.950 . S
C1742 C1741 1.524 . S
C1742 C1743 1.415 . S
C1743 H1713 0.950 . S
C1743 C1738 1.363 . S
C1743 C1742 1.415 . S
H1744 C1741 0.999 . S
H1745 C1726 0.913 . S
H1746 C1764 0.951 . S
H1747 C1766 0.951 . S
H1748 C1768 0.950 . S
H1749 C1769 0.950 . S
H1750 C1771 0.950 . S
H1751 C1774 0.950 . S
H1752 C1775 0.950 . S
H1753 C1777 0.950 . S
H1754 C1778 0.950 . S
H1755 C1779 0.951 . S
H1756 C1781 0.951 . S
H1757 C1783 0.950 . S
H1758 C1784 0.950 . S
H1759 C1786 0.950 . S
H1760 C1789 0.950 . S
H1761 C1790 0.950 . S
H1762 C1792 0.950 . S
H1763 C1793 0.950 . S
C1764 H1746 0.951 . S
C1764 C1765 1.366 . S
C1764 C1766 1.388 . S
C1765 C1764 1.366 . S
C1765 C1769 1.385 . S
C1766 H1747 0.951 . S
C1766 C1764 1.388 . S
C1766 C1767 1.366 . S
C1767 C1766 1.366 . S
C1767 C1768 1.414 . S
C1767 C1770 1.499 . S
C1768 H1748 0.950 . S
C1768 C1767 1.414 . S
C1768 C1769 1.374 . S
C1769 H1749 0.950 . S
C1769 C1765 1.385 . S
C1769 C1768 1.374 . S
C1770 C1767 1.499 . S
C1770 C1771 1.373 . S
C1770 C1772 1.389 . S
C1771 H1750 0.950 . S
C1771 C1770 1.373 . S
C1771 C1787 1.377 . S
C1772 C1770 1.389 . S
C1772 C1773 1.524 . S
C1772 C1786 1.377 . S
C1773 C1772 1.524 . S
C1773 C1774 1.397 . S
C1773 C1778 1.363 . S
C1774 H1751 0.950 . S
C1774 C1773 1.397 . S
C1774 C1775 1.334 . S
C1775 H1752 0.950 . S
C1775 C1774 1.334 . S
C1775 C1776 1.287 . S
C1776 C1775 1.287 . S
C1776 C1777 1.524 . S
C1776 H1795 0.913 . S
C1777 H1753 0.950 . S
C1777 C1776 1.524 . S
C1777 C1778 1.415 . S
C1778 H1754 0.950 . S
C1778 C1773 1.363 . S
C1778 C1777 1.415 . S
C1779 H1755 0.951 . S
C1779 C1780 1.366 . S
C1779 C1781 1.388 1_554 S
C1780 C1779 1.366 . S
C1780 C1784 1.385 . S
C1781 H1756 0.951 . S
C1781 C1779 1.388 1_556 S
C1781 C1782 1.366 . S
C1782 C1781 1.366 . S
C1782 C1783 1.414 . S
C1782 C1785 1.499 . S
C1783 H1757 0.950 . S
C1783 C1782 1.414 . S
C1783 C1784 1.374 1_556 S
C1784 H1758 0.950 . S
C1784 C1780 1.385 . S
C1784 C1783 1.374 1_554 S
C1785 C1782 1.499 . S
C1785 C1786 1.373 . S
C1785 C1787 1.389 . S
C1786 H1759 0.950 . S
C1786 C1772 1.377 . S
C1786 C1785 1.373 . S
C1787 C1771 1.377 . S
C1787 C1785 1.389 . S
C1787 C1788 1.524 . S
C1788 C1787 1.524 . S
C1788 C1789 1.397 . S
C1788 C1793 1.363 . S
C1789 H1760 0.950 . S
C1789 C1788 1.397 . S
C1789 C1790 1.334 . S
C1790 H1761 0.950 . S
C1790 C1789 1.334 . S
C1790 C1791 1.287 . S
C1791 C1790 1.287 . S
C1791 C1792 1.524 . S
C1791 H1794 0.999 . S
C1792 H1762 0.950 . S
C1792 C1791 1.524 . S
C1792 C1793 1.415 . S
C1793 H1763 0.950 . S
C1793 C1788 1.363 . S
C1793 C1792 1.415 . S
H1794 C1791 0.999 . S
H1795 C1776 0.913 . S
H1796 C1814 0.951 . S
H1797 C1816 0.951 . S
H1798 C1818 0.950 . S
H1799 C1819 0.950 . S
H1800 C1821 0.950 . S
H1801 C1824 0.950 . S
H1802 C1825 0.950 . S
H1803 C1827 0.950 . S
H1804 C1828 0.950 . S
H1805 C1829 0.951 . S
H1806 C1831 0.951 . S
H1807 C1833 0.950 . S
H1808 C1834 0.950 . S
H1809 C1836 0.950 . S
H1810 C1839 0.950 . S
H1811 C1840 0.950 . S
H1812 C1842 0.950 . S
H1813 C1843 0.950 1_556 S
C1814 H1796 0.951 . S
C1814 C1815 1.366 . S
C1814 C1816 1.388 . S
C1815 C1814 1.366 . S
C1815 C1819 1.385 . S
C1816 H1797 0.951 . S
C1816 C1814 1.388 . S
C1816 C1817 1.366 . S
C1817 C1816 1.366 . S
C1817 C1818 1.414 . S
C1817 C1820 1.499 . S
C1818 H1798 0.950 . S
C1818 C1817 1.414 . S
C1818 C1819 1.374 . S
C1819 H1799 0.950 . S
C1819 C1815 1.385 . S
C1819 C1818 1.374 . S
C1820 C1817 1.499 . S
C1820 C1821 1.373 . S
C1820 C1822 1.389 . S
C1821 H1800 0.950 . S
C1821 C1820 1.373 . S
C1821 C1837 1.377 . S
C1822 C1820 1.389 . S
C1822 C1823 1.524 . S
C1822 C1836 1.377 . S
C1823 C1822 1.524 . S
C1823 C1824 1.397 . S
C1823 C1828 1.363 . S
C1824 H1801 0.950 . S
C1824 C1823 1.397 . S
C1824 C1825 1.334 . S
C1825 H1802 0.950 . S
C1825 C1824 1.334 . S
C1825 C1826 1.287 . S
C1826 C1825 1.287 . S
C1826 C1827 1.524 . S
C1826 H1845 0.913 . S
C1827 H1803 0.950 . S
C1827 C1826 1.524 . S
C1827 C1828 1.415 . S
C1828 H1804 0.950 . S
C1828 C1823 1.363 . S
C1828 C1827 1.415 . S
C1829 H1805 0.951 . S
C1829 C1830 1.366 . S
C1829 C1831 1.388 . S
C1830 C1829 1.366 . S
C1830 C1834 1.385 . S
C1831 H1806 0.951 . S
C1831 C1829 1.388 . S
C1831 C1832 1.366 . S
C1832 C1831 1.366 . S
C1832 C1833 1.414 . S
C1832 C1835 1.499 . S
C1833 H1807 0.950 . S
C1833 C1832 1.414 . S
C1833 C1834 1.374 . S
C1834 H1808 0.950 . S
C1834 C1830 1.385 . S
C1834 C1833 1.374 . S
C1835 C1832 1.499 . S
C1835 C1836 1.373 1_554 S
C1835 C1837 1.389 1_554 S
C1836 H1809 0.950 . S
C1836 C1822 1.377 . S
C1836 C1835 1.373 1_556 S
C1837 C1821 1.377 . S
C1837 C1835 1.389 1_556 S
C1837 C1838 1.524 1_556 S
C1838 C1837 1.524 1_554 S
C1838 C1839 1.397 . S
C1838 C1843 1.363 . S
C1839 H1810 0.950 . S
C1839 C1838 1.397 . S
C1839 C1840 1.334 . S
C1840 H1811 0.950 . S
C1840 C1839 1.334 . S
C1840 C1841 1.287 . S
C1841 C1840 1.287 . S
C1841 C1842 1.524 . S
C1841 H1844 0.999 . S
C1842 H1812 0.950 . S
C1842 C1841 1.524 . S
C1842 C1843 1.415 . S
C1843 H1813 0.950 1_554 S
C1843 C1838 1.363 . S
C1843 C1842 1.415 . S
H1844 C1841 0.999 . S
H1845 C1826 0.913 . S
H1846 C1864 0.951 . S
H1847 C1866 0.951 . S
H1848 C1868 0.950 . S
H1849 C1869 0.950 . S
H1850 C1871 0.950 . S
H1851 C1874 0.950 . S
H1852 C1875 0.950 . S
H1853 C1877 0.950 . S
H1854 C1878 0.950 . S
H1855 C1879 0.951 . S
H1856 C1881 0.951 . S
H1857 C1883 0.950 . S
H1858 C1884 0.950 . S
H1859 C1886 0.950 . S
H1860 C1889 0.950 . S
H1861 C1890 0.950 . S
H1862 C1892 0.950 . S
H1863 C1893 0.950 . S
C1864 H1846 0.951 . S
C1864 C1865 1.366 . S
C1864 C1866 1.388 . S
C1865 C1864 1.366 . S
C1865 C1869 1.385 . S
C1866 H1847 0.951 . S
C1866 C1864 1.388 . S
C1866 C1867 1.366 . S
C1867 C1866 1.366 . S
C1867 C1868 1.414 . S
C1867 C1870 1.499 . S
C1868 H1848 0.950 . S
C1868 C1867 1.414 . S
C1868 C1869 1.374 . S
C1869 H1849 0.950 . S
C1869 C1865 1.385 . S
C1869 C1868 1.374 . S
C1870 C1867 1.499 . S
C1870 C1871 1.373 . S
C1870 C1872 1.389 . S
C1871 H1850 0.950 . S
C1871 C1870 1.373 . S
C1871 C1887 1.377 . S
C1872 C1870 1.389 . S
C1872 C1873 1.524 . S
C1872 C1886 1.377 . S
C1873 C1872 1.524 . S
C1873 C1874 1.397 . S
C1873 C1878 1.363 . S
C1874 H1851 0.950 . S
C1874 C1873 1.397 . S
C1874 C1875 1.334 . S
C1875 H1852 0.950 . S
C1875 C1874 1.334 . S
C1875 C1876 1.287 . S
C1876 C1875 1.287 . S
C1876 C1877 1.524 . S
C1876 H1895 0.913 . S
C1877 H1853 0.950 . S
C1877 C1876 1.524 . S
C1877 C1878 1.415 . S
C1878 H1854 0.950 . S
C1878 C1873 1.363 . S
C1878 C1877 1.415 . S
C1879 H1855 0.951 . S
C1879 C1880 1.366 . S
C1879 C1881 1.388 . S
C1880 C1879 1.366 . S
C1880 C1884 1.385 . S
C1881 H1856 0.951 . S
C1881 C1879 1.388 . S
C1881 C1882 1.366 . S
C1882 C1881 1.366 . S
C1882 C1883 1.414 . S
C1882 C1885 1.499 1_556 S
C1883 H1857 0.950 . S
C1883 C1882 1.414 . S
C1883 C1884 1.374 . S
C1884 H1858 0.950 . S
C1884 C1880 1.385 . S
C1884 C1883 1.374 . S
C1885 C1882 1.499 1_554 S
C1885 C1886 1.373 . S
C1885 C1887 1.389 . S
C1886 H1859 0.950 . S
C1886 C1872 1.377 . S
C1886 C1885 1.373 . S
C1887 C1871 1.377 . S
C1887 C1885 1.389 . S
C1887 C1888 1.524 . S
C1888 C1887 1.524 . S
C1888 C1889 1.397 . S
C1888 C1893 1.363 . S
C1889 H1860 0.950 . S
C1889 C1888 1.397 . S
C1889 C1890 1.334 1_554 S
C1890 H1861 0.950 . S
C1890 C1889 1.334 1_556 S
C1890 C1891 1.287 1_556 S
C1891 C1890 1.287 1_554 S
C1891 C1892 1.524 . S
C1891 H1894 0.999 . S
C1892 H1862 0.950 . S
C1892 C1891 1.524 . S
C1892 C1893 1.415 . S
C1893 H1863 0.950 . S
C1893 C1888 1.363 . S
C1893 C1892 1.415 . S
H1894 C1891 0.999 . S
H1895 C1876 0.913 . S
C415 C281 1.653 . S
C430 C17 1.653 . S
C465 C314 1.654 . S
C480 C50 1.654 . S
C515 C347 1.654 . S
C530 C83 1.654 . S
C565 C380 1.654 . S
C580 C116 1.654 . S
C615 C149 1.653 . S
C630 C215 1.653 . S
C665 C248 1.654 . S
C680 C182 1.654 . S
C715 C8 0.985 1_556 S
C730 C371 0.985 . S
C765 C206 0.985 . S
C780 C41 0.984 . S
C815 C74 0.985 . S
C830 C239 0.984 1_554 S
C865 C107 0.984 . S
C880 C272 0.985 . S
C915 C305 0.985 . S
C930 C140 0.984 . S
C965 C173 0.985 . S
C980 C338 0.983 . S
C1015 C28 1.227 . S
C1030 C358 1.227 . S
C1065 C61 1.227 . S
C1080 C391 1.227 . S
C1115 C226 1.227 . S
C1130 C94 1.227 . S
C1165 C259 1.226 . S
C1180 C127 1.227 . S
C1215 C160 1.227 . S
C1230 C292 1.227 . S
C1265 C325 1.227 . S
C1280 C193 1.227 . S
C1315 N5 0.906 . S
C1330 N14 0.905 . S
C1365 N47 0.904 1_556 S
C1380 N38 0.905 . S
C1415 N71 0.906 . S
C1430 N80 0.905 . S
C1465 N104 0.905 . S
C1480 N113 0.904 . S
C1515 N146 0.904 . S
C1530 N137 0.905 . S
C1565 N179 0.904 . S
C1580 N170 0.905 . S
C1615 N212 0.905 1_554 S
C1630 N203 0.906 . S
C1665 N245 0.904 . S
C1680 N236 0.905 . S
C1715 N278 0.904 . S
C1730 N269 0.905 . S
C1765 N311 0.904 . S
C1780 N302 0.905 . S
C1815 N344 0.904 . S
C1830 N335 0.905 . S
C1865 N368 0.905 . S
C1880 N377 0.904 . S
