# Generated by pormake.
# Topology mdf, (4)-cn, num edge types: 1
# Building blocks:
#     Node 0, Type 0, BuildingBlock: KUFVIS_clean_sbu_0, # of connection points: 4
#     Node 1, Type 0, BuildingBlock: KUFVIS_clean_sbu_0, # of connection points: 4
#     Node 2, Type 0, BuildingBlock: KUFVIS_clean_sbu_0, # of connection points: 4
#     Node 3, Type 0, BuildingBlock: KUFVIS_clean_sbu_0, # of connection points: 4
#     Node 4, Type 0, BuildingBlock: KUFVIS_clean_sbu_0, # of connection points: 4
#     Node 5, Type 0, BuildingBlock: KUFVIS_clean_sbu_0, # of connection points: 4
#     Node 6, Type 0, BuildingBlock: KUFVIS_clean_sbu_0, # of connection points: 4
#     Node 7, Type 0, BuildingBlock: KUFVIS_clean_sbu_0, # of connection points: 4
#     Edge 8, Type (0, 0), BuildingBlock: EZIPEK_clean_linker_0, # of connection points: 2
#     Edge 9, Type (0, 0), BuildingBlock: EZIPEK_clean_linker_0, # of connection points: 2
#     Edge 10, Type (0, 0), BuildingBlock: EZIPEK_clean_linker_0, # of connection points: 2
#     Edge 11, Type (0, 0), BuildingBlock: EZIPEK_clean_linker_0, # of connection points: 2
#     Edge 12, Type (0, 0), BuildingBlock: EZIPEK_clean_linker_0, # of connection points: 2
#     Edge 13, Type (0, 0), BuildingBlock: EZIPEK_clean_linker_0, # of connection points: 2
#     Edge 14, Type (0, 0), BuildingBlock: EZIPEK_clean_linker_0, # of connection points: 2
#     Edge 15, Type (0, 0), BuildingBlock: EZIPEK_clean_linker_0, # of connection points: 2
#     Edge 16, Type (0, 0), BuildingBlock: EZIPEK_clean_linker_0, # of connection points: 2
#     Edge 17, Type (0, 0), BuildingBlock: EZIPEK_clean_linker_0, # of connection points: 2
#     Edge 18, Type (0, 0), BuildingBlock: EZIPEK_clean_linker_0, # of connection points: 2
#     Edge 19, Type (0, 0), BuildingBlock: EZIPEK_clean_linker_0, # of connection points: 2
#     Edge 20, Type (0, 0), BuildingBlock: EZIPEK_clean_linker_0, # of connection points: 2
#     Edge 21, Type (0, 0), BuildingBlock: EZIPEK_clean_linker_0, # of connection points: 2
#     Edge 22, Type (0, 0), BuildingBlock: EZIPEK_clean_linker_0, # of connection points: 2
#     Edge 23, Type (0, 0), BuildingBlock: EZIPEK_clean_linker_0, # of connection points: 2
# Relax obj value: 0.028
# Max RMSD: 0.051
# Mean RMSD: 0.051
data_MOF--net-mdf--node1-KUFVIS_clean_sbu_0--edge1-EZIPEK_clean_linker_0
_symmetry_space_group_name_H-M    P1
_symmetry_Int_Tables_number       1
_symmetry_cell_setting            triclinic
loop_
_symmetry_equiv_pos_as_xyz
'x, y, z'
_cell_length_a     27.176744
_cell_length_b     27.256317
_cell_length_c     9.3697743
_cell_angle_alpha  90.301728
_cell_angle_beta   90.803241
_cell_angle_gamma 94.347974
loop_
_atom_site_label
_atom_site_type_symbol
_atom_site_fract_x
_atom_site_fract_y
_atom_site_fract_z
_atom_type_partial_charge
Mn0 Mn 0.27142 0.53718 0.4156 0.0
Mn1 Mn 0.31328 0.46567 0.16055 0.0
C2 C 0.21821 0.46649 0.33765 0.0
C3 C 0.2312 0.60146 0.54105 0.0
C4 C 0.36445 0.48036 0.4461 0.0
O5 O 0.31906 0.58523 0.29883 0.0
O6 O 0.33174 0.53434 0.11493 0.0
C7 C 0.27387 0.49 0.88644 0.0
N8 N 0.27927 0.4558 -0.01246 0.0
C9 C 0.27333 0.39033 0.81509 0.0
C10 C 0.27047 0.42562 0.70775 0.0
C11 C 0.26722 0.47511 0.74601 0.0
C12 C 0.27727 0.40741 0.95564 0.0
H13 H 0.27738 0.52829 0.91283 0.0
C14 C 0.33495 0.57699 0.17239 0.0
O15 O 0.27141 0.58398 0.58041 0.0
O16 O 0.21495 0.58419 0.41781 0.0
N17 N 0.29728 0.39784 0.19357 0.0
C18 C 0.31045 0.37106 0.30768 0.0
C19 C 0.31258 0.32035 0.29221 0.0
C20 C 0.30133 0.29769 0.1587 0.0
C21 C 0.28788 0.32615 0.04346 0.0
C22 C 0.28548 0.37639 0.06649 0.0
H23 H 0.32165 0.38854 0.40759 0.0
O24 O 0.21935 0.48297 0.46713 0.0
O25 O 0.25303 0.48798 0.25933 0.0
O26 O 0.32961 0.50085 0.50415 0.0
O27 O 0.36151 0.46904 0.31625 0.0
C28 C 0.28132 0.30736 0.9039 0.0
C29 C 0.27536 0.3396 0.78902 0.0
H30 H 0.26988 0.4154 0.59647 0.0
H31 H 0.26375 0.50307 0.66925 0.0
H32 H 0.32489 0.29996 0.38254 0.0
H33 H 0.30483 0.25896 0.14171 0.0
H34 H 0.28333 0.26859 0.88334 0.0
H35 H 0.2743 0.32511 0.68172 0.0
Mn36 Mn 0.48584 0.75981 0.55675 0.0
Mn37 Mn 0.51442 0.72401 0.87648 0.0
C38 C 0.55432 0.80878 0.67031 0.0
C39 C 0.42951 0.80503 0.42131 0.0
C40 C 0.52816 0.66369 0.6056 0.0
O41 O 0.42996 0.70907 0.6274 0.0
O42 O 0.44644 0.73918 0.83876 0.0
C43 C 0.50196 0.8188 0.02184 0.0
N44 N 0.52159 0.77457 0.01524 0.0
C45 C 0.56631 0.78824 0.23495 0.0
C46 C 0.54747 0.83491 0.24444 0.0
C47 C 0.51678 0.8509 0.1343 0.0
C48 C 0.55585 0.76195 0.10995 0.0
H49 H 0.4773 0.82996 0.9385 0.0
C50 C 0.419 0.71148 0.75888 0.0
O51 O 0.44947 0.76731 0.36981 0.0
O52 O 0.43986 0.81524 0.55438 0.0
N53 N 0.57843 0.70823 0.93556 0.0
C54 C 0.60519 0.67152 0.88742 0.0
C55 C 0.63238 0.64518 0.98464 0.0
C56 C 0.63398 0.65918 0.12868 0.0
C57 C 0.6128 0.70192 0.17091 0.0
C58 C 0.58333 0.72411 0.07149 0.0
H59 H 0.60531 0.6623 0.77633 0.0
O60 O 0.54072 0.81414 0.54009 0.0
O61 O 0.53005 0.77165 0.72856 0.0
O62 O 0.52816 0.70086 0.52147 0.0
O63 O 0.5123 0.66726 0.73407 0.0
C64 C 0.6183 0.7227 0.30805 0.0
C65 C 0.59747 0.76744 0.33714 0.0
H66 H 0.55855 0.86026 0.33003 0.0
H67 H 0.50515 0.88787 0.13501 0.0
H68 H 0.6514 0.61398 0.94931 0.0
H69 H 0.65206 0.6374 0.20563 0.0
H70 H 0.64088 0.70649 0.38854 0.0
H71 H 0.60909 0.78634 0.4343 0.0
Mn72 Mn 0.27063 0.98445 0.92041 0.0
Mn73 Mn 0.22969 0.04409 0.63479 0.0
C74 C 0.31554 0.05774 0.83971 0.0
C75 C 0.31636 0.92494 0.03736 0.0
C76 C 0.17976 0.04547 0.91803 0.0
O77 O 0.22362 0.93188 0.81379 0.0
O78 O 0.2111 0.97354 0.61046 0.0
C79 C 0.29599 1.00395 0.42711 0.0
N80 N 0.27555 0.04298 0.48655 0.0
C81 C 0.31855 0.09943 0.33033 0.0
C82 C 0.34079 0.06026 0.26749 0.0
C83 C 0.33032 0.01248 0.31878 0.0
C84 C 0.28864 0.08937 0.44707 0.0
H85 H 0.28726 0.96704 0.46522 0.0
C86 C 0.20791 0.93425 0.68385 0.0
O87 O 0.2774 0.94158 0.0917 0.0
O88 O 0.32778 0.94069 0.91035 0.0
N89 N 0.24466 0.11342 0.64272 0.0
C90 C 0.22383 0.14781 0.72401 0.0
C91 C 0.23266 0.19785 0.69198 0.0
C92 C 0.26214 0.21194 0.57556 0.0
C93 C 0.2816 0.1757 0.49144 0.0
C94 C 0.27173 0.12664 0.52838 0.0
H95 H 0.19993 0.13748 0.81111 0.0
O96 O 0.32013 0.04221 0.96908 0.0
O97 O 0.28421 0.03013 0.76351 0.0
O98 O 0.21227 0.02317 -0.01352 0.0
O99 O 0.17973 0.04907 0.78293 0.0
C100 C 0.3085 0.18612 0.36811 0.0
C101 C 0.32553 0.1482 0.2847 0.0
H102 H 0.36716 0.06658 0.18338 0.0
H103 H 0.34859 0.98249 0.27569 0.0
H104 H 0.21582 0.2253 0.7548 0.0
H105 H 0.26859 0.25044 0.54943 0.0
H106 H 0.31661 0.2231 0.33767 0.0
H107 H 0.34397 0.15697 0.18623 0.0
Mn108 Mn 0.04113 0.74927 0.05025 0.0
Mn109 Mn 0.975 0.78688 0.31274 0.0
C110 C 0.97052 0.69437 0.12576 0.0
C111 C 0.10898 0.71481 0.92926 0.0
C112 C 0.98564 0.84034 0.03503 0.0
O113 O 0.08661 0.80324 0.16654 0.0
O114 O 0.04386 0.79922 0.36977 0.0
C115 C 0.99557 0.73949 0.57687 0.0
N116 N 0.96267 0.74695 0.4709 0.0
C117 C 0.8948 0.73561 0.629 0.0
C118 C 0.92804 0.73111 0.74207 0.0
C119 C 0.97855 0.73132 0.71364 0.0
C120 C 0.91382 0.74435 0.49368 0.0
H121 H 0.03478 0.74266 0.5589 0.0
C122 C 0.08205 0.81363 0.30077 0.0
O123 O 0.08626 0.7512 0.8838 0.0
O124 O 0.09365 0.69904 0.05326 0.0
N125 N 0.90709 0.77547 0.26529 0.0
C126 C 0.88138 0.79227 0.15205 0.0
C127 C 0.83082 0.79652 0.16394 0.0
C128 C 0.80741 0.7823 0.29069 0.0
C129 C 0.83379 0.76052 0.40006 0.0
C130 C 0.88423 0.75842 0.38323 0.0
H131 H 0.89903 0.80392 0.05507 0.0
O132 O 0.99066 0.69124 0.00296 0.0
O133 O 0.99351 0.7294 0.20219 0.0
O134 O 0.99655 0.80201 0.96892 0.0
O135 O 0.98371 0.83909 0.16917 0.0
C136 C 0.81309 0.744 0.52918 0.0
C137 C 0.84386 0.73459 0.64648 0.0
H138 H 0.91519 0.72896 0.85082 0.0
H139 H 1.00548 0.72907 0.79552 0.0
H140 H 0.81019 0.81184 0.07739 0.0
H141 H 0.76903 0.78829 0.30095 0.0
H142 H 0.77385 0.73977 0.54065 0.0
H143 H 0.82879 0.72773 0.75057 0.0
Mn144 Mn 0.75702 0.03632 0.89122 0.0
Mn145 Mn 0.77111 0.97632 0.58616 0.0
C146 C 0.70718 0.96227 0.84474 0.0
C147 C 0.7162 0.09883 0.00685 0.0
C148 C 0.84534 0.97389 0.83281 0.0
O149 O 0.79741 0.08721 0.76917 0.0
O150 O 0.7943 0.04558 0.562 0.0
C151 C 0.68913 0.0236 0.44989 0.0
N152 N 0.71622 0.98424 0.46608 0.0
C153 C 0.66387 0.93477 0.30687 0.0
C154 C 0.63505 0.97457 0.28581 0.0
C155 C 0.64625 0.01826 0.36517 0.0
C156 C 0.70148 0.94035 0.40881 0.0
H157 H 0.69864 0.05731 0.50859 0.0
C158 C 0.80522 0.08424 0.63534 0.0
O159 O 0.75725 0.08402 0.05796 0.0
O160 O 0.70038 0.07888 0.88791 0.0
N161 N 0.75059 0.90897 0.58418 0.0
C162 C 0.76623 0.87204 0.66492 0.0
C163 C 0.74698 0.82417 0.63554 0.0
C164 C 0.71676 0.81424 0.51364 0.0
C165 C 0.70499 0.85308 0.42541 0.0
C166 C 0.72016 0.90029 0.47093 0.0
H167 H 0.79121 0.87947 0.75448 0.0
O168 O 0.7125 0.98004 0.97292 0.0
O169 O 0.73071 0.98908 0.74931 0.0
O170 O 0.82029 0.9976 0.92232 0.0
O171 O 0.82927 0.965 0.706 0.0
C172 C 0.67798 0.84787 0.29615 0.0
C173 C 0.65536 0.88869 0.2396 0.0
H174 H 0.60262 0.97067 0.2171 0.0
H175 H 0.62185 0.04743 0.36402 0.0
H176 H 0.75612 0.79545 0.70674 0.0
H177 H 0.70232 0.777 0.48986 0.0
H178 H 0.67372 0.81285 0.24157 0.0
H179 H 0.6309 0.88413 0.14765 0.0
Mn180 Mn 0.98572 0.27114 0.066 0.0
Mn181 Mn 0.03502 0.25816 0.39367 0.0
C182 C 0.05319 0.32654 0.14363 0.0
C183 C 0.92072 0.30368 0.92539 0.0
C184 C 0.05345 0.18949 0.14531 0.0
O185 O 0.93526 0.22292 0.16816 0.0
O186 O 0.96664 0.22976 0.39135 0.0
C187 C 0.97419 0.32805 0.53459 0.0
N188 N 0.01884 0.30999 0.51519 0.0
C189 C 0.05909 0.3721 0.66703 0.0
C190 C 0.01342 0.39058 0.69301 0.0
C191 C 0.97137 0.36976 0.62087 0.0
C192 C 0.06034 0.33201 0.57385 0.0
H193 H 0.94168 0.31229 0.47848 0.0
C194 C 0.93339 0.21385 0.30213 0.0
O195 O 0.94432 0.26669 0.88265 0.0
O196 O 0.93588 0.32165 0.04765 0.0
N197 N 0.10123 0.28393 0.41554 0.0
C198 C 0.14175 0.27108 0.3454 0.0
C199 C 0.18767 0.29451 0.38117 0.0
C200 C 0.1913 0.33114 0.48728 0.0
C201 C 0.14898 0.34316 0.55988 0.0
C202 C 0.10426 0.3181 0.52069 0.0
H203 H 0.13882 0.24423 0.26023 0.0
O204 O 0.04015 0.32258 0.01002 0.0
O205 O 0.02477 0.29933 0.22745 0.0
O206 O 0.03269 0.21408 0.04736 0.0
O207 O 0.0539 0.20282 0.2757 0.0
C208 C 0.1485 0.38123 0.66181 0.0
C209 C 0.10377 0.39542 0.71661 0.0
H210 H 1.01081 0.42302 0.759 0.0
H211 H 0.93764 0.38731 0.62562 0.0
H212 H 0.21978 0.28465 0.32518 0.0
H213 H 0.22642 0.35084 0.50719 0.0
H214 H 0.18153 0.40225 0.69239 0.0
H215 H 0.10391 0.42683 0.78785 0.0
Mn216 Mn 0.76081 0.46919 0.38634 0.0
Mn217 Mn 0.72849 0.54641 0.12679 0.0
C218 C 0.81307 0.54421 0.33043 0.0
C219 C 0.80143 0.40514 0.50753 0.0
C220 C 0.66923 0.53373 0.39397 0.0
O221 O 0.71923 0.42216 0.24865 0.0
O222 O 0.70121 0.4782 0.08237 0.0
C223 C 0.76576 0.51164 0.86384 0.0
N224 N 0.76592 0.54872 0.96045 0.0
C225 C 0.76055 0.6089 0.77651 0.0
C226 C 0.75793 0.57119 0.67599 0.0
C227 C 0.76201 0.52277 0.72006 0.0
C228 C 0.76652 0.59635 0.91951 0.0
H229 H 0.76407 0.47366 0.8972 0.0
C230 C 0.7004 0.43387 0.12782 0.0
O231 O 0.75913 0.41853 0.54368 0.0
O232 O 0.81927 0.42549 0.39202 0.0
N233 N 0.75285 0.61242 0.15659 0.0
C234 C 0.74464 0.64173 0.26989 0.0
C235 C 0.73904 0.69146 0.24631 0.0
C236 C 0.74157 0.71013 0.10677 0.0
C237 C 0.75225 0.6791 -0.00616 0.0
C238 C 0.76095 0.63058 0.02554 0.0
H239 H 0.73632 0.62619 0.37302 0.0
O240 O 0.81193 0.52468 0.45567 0.0
O241 O 0.78139 0.52123 0.24422 0.0
O242 O 0.69599 0.50235 0.45107 0.0
O243 O 0.68142 0.55272 0.27699 0.0
C244 C 0.747 0.6922 0.85043 0.0
C245 C 0.75053 0.65706 0.74163 0.0
H246 H 0.75101 0.57891 0.56514 0.0
H247 H 0.75808 0.4937 0.64466 0.0
H248 H 0.7276 0.71382 0.33309 0.0
H249 H 0.7321 0.74734 0.08647 0.0
H250 H 0.73825 0.72858 0.82282 0.0
H251 H 0.74307 0.66664 0.63202 0.0
Mn252 Mn 0.53596 0.25213 0.50742 0.0
Mn253 Mn 0.52698 0.25811 0.85011 0.0
C254 C 0.472 0.19653 0.60941 0.0
C255 C 0.59195 0.21782 0.34986 0.0
C256 C 0.48701 0.33403 0.63663 0.0
O257 O 0.59033 0.3065 0.57708 0.0
O258 O 0.5929 0.26473 0.76932 0.0
C259 C 0.56902 0.16216 0.83973 0.0
N260 N 0.5388 0.19279 0.90578 0.0
C261 C 0.49551 0.12449 0.02112 0.0
C262 C 0.52436 0.09209 0.95001 0.0
C263 C 0.5614 0.11107 0.85823 0.0
C264 C 0.50086 0.17406 0.98388 0.0
H265 H 0.59667 0.17621 0.76582 0.0
C266 C 0.60859 0.30177 0.70086 0.0
O267 O 0.56686 0.25438 0.31119 0.0
O268 O 0.58492 0.20205 0.47813 0.0
N269 N 0.46938 0.25067 0.96305 0.0
C270 C 0.45128 0.28924 0.03294 0.0
C271 C 0.42446 0.28136 0.15832 0.0
C272 C 0.41822 0.23395 0.2153 0.0
C273 C 0.43935 0.19498 0.14717 0.0
C274 C 0.46702 0.20585 0.02536 0.0
H275 H 0.46219 0.32654 0.00219 0.0
O276 O 0.4794 0.19819 0.47378 0.0
O277 O 0.50198 0.22741 0.67824 0.0
O278 O 0.48941 0.30631 0.52542 0.0
O279 O 0.50562 0.32329 0.76236 0.0
C280 C 0.43885 0.14691 0.20336 0.0
C281 C 0.46305 0.11039 0.13126 0.0
H282 H 0.51901 0.05279 0.96717 0.0
H283 H 0.58417 0.08648 0.80268 0.0
H284 H 0.41179 0.31234 0.21612 0.0
H285 H 0.4007 0.22878 0.3173 0.0
H286 H 0.42071 0.13765 0.3025 0.0
H287 H 0.46025 0.07291 0.16992 0.0
C288 C 0.40135 0.62669 0.84906 0.0
C289 C 0.38577 0.67445 0.83406 0.0
C290 C 0.33493 0.66109 0.04937 0.0
C291 C 0.35762 0.61653 0.07678 0.0
N292 N 0.42376 0.56563 0.01794 0.0
N293 N 0.33742 0.73813 0.91894 0.0
C294 C 0.39447 0.60223 0.9811 0.0
C295 C 0.3523 0.69178 0.93417 0.0
N296 N 0.42219 0.6043 0.73697 0.0
N297 N 0.29496 0.67285 0.12558 0.0
H298 H 0.34645 0.75986 0.83022 0.0
H299 H 0.31784 0.75526 -0.00362 0.0
H300 H 0.28119 0.65268 0.21198 0.0
H301 H 0.27258 0.70042 0.09476 0.0
H302 H 0.43151 0.56792 0.73993 0.0
H303 H 0.42457 0.62028 0.63624 0.0
H304 H 0.45292 0.55567 0.95577 0.0
H305 H 0.42217 0.5492 0.11808 0.0
C306 C 0.35279 0.81676 0.26996 0.0
C307 C 0.39896 0.83626 0.32772 0.0
C308 C 0.39461 0.90951 0.17568 0.0
C309 C 0.34716 0.89175 0.1236 0.0
N310 N 0.28092 0.82831 0.11629 0.0
N311 N 0.45656 0.90715 0.36343 0.0
C312 C 0.32609 0.84532 0.17042 0.0
C313 C 0.41757 0.88441 0.28906 0.0
N314 N 0.3336 0.77193 0.31642 0.0
N315 N 0.41804 0.95066 0.11731 0.0
H316 H 0.47602 0.88971 0.44221 0.0
H317 H 0.46765 0.94438 0.35315 0.0
H318 H 0.40211 0.97139 0.03846 0.0
H319 H 0.45469 0.96242 0.14006 0.0
H320 H 0.29923 0.75567 0.28688 0.0
H321 H 0.3516 0.7511 0.39113 0.0
H322 H 0.26293 0.79446 0.13973 0.0
H323 H 0.26167 0.84738 0.04014 0.0
C324 C 0.09871 0.87854 0.48986 0.0
C325 C 0.11864 0.84589 0.38918 0.0
C326 C 0.2 0.86382 0.5069 0.0
C327 C 0.17835 0.89273 0.61213 0.0
N328 N 0.10493 0.91425 0.72731 0.0
N329 N 0.18743 0.79942 0.32733 0.0
C330 C 0.1269 0.89526 0.61137 0.0
C331 C 0.16931 0.83657 0.40354 0.0
N332 N 0.05301 0.89503 0.46755 0.0
N333 N 0.25007 0.86288 0.50471 0.0
H334 H 0.16686 0.7792 0.24952 0.0
H335 H 0.22105 0.78552 0.35312 0.0
H336 H 0.27296 0.88015 0.58337 0.0
H337 H 0.26848 0.84664 0.42244 0.0
H338 H 0.03891 0.92228 0.53008 0.0
H339 H 0.03134 0.88541 0.37806 0.0
H340 H 0.06676 0.91325 0.73876 0.0
H341 H 0.12513 0.92588 0.81856 0.0
C342 C 0.14924 0.70185 0.68494 0.0
C343 C 0.14616 0.69059 0.83444 0.0
C344 C 0.20928 0.63155 0.79353 0.0
C345 C 0.20422 0.63519 0.64087 0.0
N346 N 0.16635 0.67568 0.44377 0.0
N347 N 0.17577 0.64231 0.02858 0.0
C348 C 0.17224 0.66999 0.58759 0.0
C349 C 0.17594 0.65384 0.88693 0.0
N350 N 0.13462 0.74555 0.63582 0.0
N351 N 0.24867 0.61082 0.8532 0.0
H352 H 0.16548 0.66606 0.10803 0.0
H353 H 0.18687 0.60902 0.06715 0.0
H354 H 0.28206 0.60849 0.80243 0.0
H355 H 0.25235 0.60433 0.96171 0.0
H356 H 0.13246 0.75417 0.52853 0.0
H357 H 0.13314 0.77645 0.70079 0.0
H358 H 0.13731 0.69341 0.39861 0.0
H359 H 0.1896 0.6618 0.36884 0.0
C360 C 0.81505 0.15676 0.46899 0.0
C361 C 0.83664 0.12251 0.56056 0.0
C362 C 0.91517 0.13756 0.43877 0.0
C363 C 0.89628 0.177 0.36271 0.0
N364 N 0.82795 0.22321 0.29599 0.0
N365 N 0.9088 0.08475 0.64516 0.0
C366 C 0.84586 0.18622 0.37424 0.0
C367 C 0.88728 0.11452 0.54943 0.0
N368 N 0.76528 0.16071 0.4731 0.0
N369 N 0.95944 0.12109 0.40079 0.0
H370 H 0.88965 0.06792 0.72968 0.0
H371 H 0.94651 0.08039 0.64887 0.0
H372 H 0.97916 0.13558 0.31402 0.0
H373 H 0.97348 0.08966 0.44295 0.0
H374 H 0.74597 0.18171 0.40254 0.0
H375 H 0.74282 0.14167 0.54703 0.0
H376 H 0.79209 0.23364 0.30211 0.0
H377 H 0.84963 0.24428 0.22466 0.0
C378 C 0.85419 0.30014 0.7236 0.0
C379 C 0.8817 0.32692 0.83391 0.0
C380 C 0.85543 0.40383 0.72876 0.0
C381 C 0.83097 0.37752 0.61367 0.0
N382 N 0.79564 0.29932 0.52681 0.0
N383 N 0.88178 0.4018 0.9752 0.0
C384 C 0.82695 0.3254 0.61891 0.0
C385 C 0.87432 0.37801 0.84735 0.0
N386 N 0.8501 0.25009 0.72032 0.0
N387 N 0.86339 0.45376 0.72221 0.0
H388 H 0.88624 0.3836 0.07116 0.0
H389 H 0.87427 0.43829 -0.00973 0.0
H390 H 0.85145 0.4741 0.63661 0.0
H391 H 0.88702 0.4739 0.79301 0.0
H392 H 0.86437 0.22799 0.79893 0.0
H393 H 0.86437 0.22799 0.79893 0.0
H394 H 0.78813 0.26142 0.53635 0.0
H395 H 0.77556 0.3159 0.44708 0.0
C396 C 0.70615 0.35999 0.96081 0.0
C397 C 0.67761 0.39561 0.02585 0.0
C398 C 0.61635 0.38253 0.83221 0.0
C399 C 0.6394 0.34113 0.78176 0.0
N400 N 0.70771 0.29034 0.79619 0.0
N401 N 0.59924 0.43065 0.03999 0.0
C402 C 0.68483 0.32976 0.84629 0.0
C403 C 0.63077 0.40368 0.96621 0.0
N404 N 0.75387 0.35622 0.00436 0.0
N405 N 0.58211 0.40319 0.74956 0.0
H406 H 0.60738 0.44279 0.14403 0.0
H407 H 0.5632 0.43506 0.00547 0.0
H408 H 0.57545 0.39163 0.64491 0.0
H409 H 0.56636 0.43557 0.77744 0.0
H410 H 0.77794 0.33423 0.95328 0.0
H411 H 0.77053 0.37739 0.08716 0.0
H412 H 0.739 0.2773 0.84325 0.0
H413 H 0.69447 0.27004 0.70702 0.0
C414 C 0.63751 0.111 0.13518 0.0
C415 C 0.6843 0.13114 0.08915 0.0
C416 C 0.66772 0.21141 0.19567 0.0
C417 C 0.62224 0.19007 0.24912 0.0
N418 N 0.56488 0.11927 0.27917 0.0
N419 N 0.74176 0.20137 0.05615 0.0
C420 C 0.60748 0.13981 0.22079 0.0
C421 C 0.69887 0.1817 0.11429 0.0
N422 N 0.6213 0.06412 0.09507 0.0
N423 N 0.68187 0.25943 0.22836 0.0
H424 H 0.76473 0.18064 -0.00418 0.0
H425 H 0.75432 0.23826 0.06261 0.0
H426 H 0.65978 0.2818 0.28624 0.0
H427 H 0.71573 0.27722 0.20291 0.0
H428 H 0.58656 0.04767 0.11637 0.0
H429 H 0.64241 0.04003 0.04083 0.0
H430 H 0.55376 0.08196 0.27827 0.0
H431 H 0.53956 0.13966 0.331 0.0
C432 C 0.45061 0.45237 0.45203 0.0
C433 C 0.4075 0.46133 0.52777 0.0
C434 C 0.42517 0.39725 0.69775 0.0
C435 C 0.46409 0.38222 0.61102 0.0
N436 N 0.51655 0.39958 0.4064 0.0
N437 N 0.37883 0.46576 0.76695 0.0
C438 C 0.47827 0.41166 0.48967 0.0
C439 C 0.40233 0.44119 0.66507 0.0
N440 N 0.46604 0.48499 0.34891 0.0
N441 N 0.40574 0.36707 0.80094 0.0
H442 H 0.36665 0.5005 0.74704 0.0
H443 H 0.3782 0.45495 0.87355 0.0
H444 H 0.4143 0.3307 0.80813 0.0
H445 H 0.37654 0.37598 0.86444 0.0
H446 H 0.49888 0.48392 0.29377 0.0
H447 H 0.44784 0.5168 0.33079 0.0
H448 H 0.52427 0.41502 0.30717 0.0
H449 H 0.54015 0.37264 0.43304 0.0
C450 C 0.67066 0.87292 0.85612 0.0
C451 C 0.66681 0.92233 0.81078 0.0
C452 C 0.58238 0.89752 0.72284 0.0
C453 C 0.59066 0.84694 0.7397 0.0
N454 N 0.64622 0.78683 0.80682 0.0
N455 N 0.61645 0.98213 0.70524 0.0
C456 C 0.63544 0.83471 0.80462 0.0
C457 C 0.62195 0.93466 0.74473 0.0
N458 N 0.70867 0.86225 0.94469 0.0
N459 N 0.53565 0.91026 0.69348 0.0
H460 H 0.64233 0.01118 0.7301 0.0
H461 H 0.58741 0.99234 0.64097 0.0
H462 H 0.50547 0.88427 0.68729 0.0
H463 H 0.5257 0.9464 0.69223 0.0
H464 H 0.71131 0.82795 -0.00881 0.0
H465 H 0.73584 0.88882 0.97989 0.0
H466 H 0.67783 0.77499 0.85415 0.0
H467 H 0.62535 0.75971 0.74904 0.0
C468 C 0.1248 0.13393 0.1809 0.0
C469 C 0.08018 0.14422 0.10798 0.0
C470 C 0.09376 0.0746 0.94625 0.0
C471 C 0.14354 0.07449 -0.00386 0.0
N472 N 0.20838 0.11467 0.14576 0.0
N473 N 0.01812 0.11662 0.93261 0.0
C474 C 0.15959 0.10687 0.10943 0.0
C475 C 0.06352 0.11229 -0.00663 0.0
N476 N 0.1339 0.1469 0.32049 0.0
N477 N 0.07482 0.03754 0.85822 0.0
H478 H 0.99164 0.13723 0.97863 0.0
H479 H 1.00692 0.09991 0.83624 0.0
H480 H 0.09541 0.00874 0.82674 0.0
H481 H 0.03774 0.03248 0.82818 0.0
H482 H 0.16531 0.13726 0.37578 0.0
H483 H 0.10755 0.1588 0.38909 0.0
H484 H 0.22111 0.14269 0.21621 0.0
H485 H 0.23651 0.09777 0.09556 0.0
C486 C 0.92864 0.64024 0.32451 0.0
C487 C 0.93142 0.65408 0.17817 0.0
C488 C 0.87013 0.58259 0.13713 0.0
C489 C 0.85497 0.58185 0.28163 0.0
N490 N 0.87549 0.61432 0.51885 0.0
N491 N 0.90122 0.62942 0.93858 0.0
C492 C 0.8856 0.61235 0.3772 0.0
C493 C 0.9005 0.62331 0.08269 0.0
N494 N 0.96964 0.64698 0.40954 0.0
N495 N 0.8625 0.54114 0.05541 0.0
H496 H 0.92811 0.65024 0.88482 0.0
H497 H 0.87428 0.61198 0.87133 0.0
H498 H 0.84762 0.50784 0.09582 0.0
H499 H 0.87712 0.53831 0.95372 0.0
H500 H 0.97118 0.63273 0.5125 0.0
H501 H 1.00348 0.66142 0.37081 0.0
H502 H 0.89705 0.63628 0.59052 0.0
H503 H 0.84372 0.59767 0.56252 0.0
C504 C 0.35604 0.14503 0.81029 0.0
C505 C 0.35458 0.09393 0.77703 0.0
C506 C 0.43406 0.10965 0.65169 0.0
C507 C 0.43267 0.16125 0.67351 0.0
N508 N 0.38533 0.22801 0.74375 0.0
N509 N 0.39126 0.02805 0.65395 0.0
C510 C 0.39176 0.17888 0.74501 0.0
C511 C 0.39321 0.07652 0.69332 0.0
N512 N 0.32356 0.16152 0.90564 0.0
N513 N 0.47563 0.09194 0.59683 0.0
H514 H 0.36435 1.00187 0.68938 0.0
H515 H 0.41432 0.01423 0.5782 0.0
H516 H 0.50641 0.11472 0.56819 0.0
H517 H 0.48176 0.05473 0.59237 0.0
H518 H 0.32667 0.19714 0.94721 0.0
H519 H 0.29598 0.13841 0.95165 0.0
H520 H 0.35371 0.24277 0.78072 0.0
H521 H 0.40964 0.25348 0.69316 0.0
C522 C 0.91529 0.95556 0.01403 0.0
C523 C 0.89356 0.95151 0.87472 0.0
C524 C 0.94889 0.88573 0.81831 0.0
C525 C 0.96421 0.88451 0.96365 0.0
N526 N 0.98711 0.93986 0.1579 0.0
N527 N 0.91796 0.9365 0.63135 0.0
C528 C 0.95475 0.92585 0.05006 0.0
C529 C 0.9184 0.92337 0.77192 0.0
N530 N 0.90084 0.98905 0.11047 0.0
N531 N 0.96542 0.85341 0.72203 0.0
H532 H 0.90486 0.96952 0.59715 0.0
H533 H 0.93777 0.91951 0.55322 0.0
H534 H 0.99626 0.83395 0.74157 0.0
H535 H 0.94938 0.84769 0.62098 0.0
H536 H 0.90982 0.98749 0.21886 0.0
H537 H 0.88173 0.01927 0.08223 0.0
H538 H 0.98478 0.97159 0.21922 0.0
H539 H 0.02054 0.92375 0.16942 0.0
C540 C 0.08415 0.40161 0.29674 0.0
C541 C 0.09356 0.36495 0.19294 0.0
C542 C 0.16932 0.41589 0.14304 0.0
C543 C 0.17107 0.43734 0.27944 0.0
N544 N 0.11593 0.46888 0.45293 0.0
N545 N 0.15108 0.34236 0.00966 0.0
C546 C 0.1242 0.43542 0.34879 0.0
C547 C 0.13828 0.37281 0.11595 0.0
N548 N 0.03652 0.40756 0.33364 0.0
N549 N 0.18242 0.44476 0.03109 0.0
H550 H 0.13133 0.30912 0.98356 0.0
H551 H 0.13133 0.30912 0.98356 0.0
H552 H 0.19252 0.48223 0.04571 0.0
H553 H 0.17707 0.43244 0.92624 0.0
H554 H 0.02595 0.43655 0.39594 0.0
H555 H 1.00661 0.386 0.2903 0.0
H556 H 0.08492 0.46654 0.51706 0.0
H557 H 0.13872 0.50081 0.47046 0.0
C558 C 0.57135 0.58238 0.65075 0.0
C559 C 0.54996 0.616 0.55491 0.0
C560 C 0.58597 0.56997 0.35937 0.0
C561 C 0.62142 0.55134 0.45602 0.0
N562 N 0.63836 0.53076 0.70165 0.0
N563 N 0.5231 0.62705 0.31234 0.0
C564 C 0.61115 0.55448 0.60427 0.0
C565 C 0.55312 0.60523 0.40706 0.0
N566 N 0.5517 0.57415 0.78247 0.0
N567 N 0.58178 0.55153 0.22347 0.0
H568 H 0.49283 0.64543 0.34482 0.0
H569 H 0.52768 0.62654 0.20224 0.0
H570 H 0.60232 0.52323 0.18857 0.0
H571 H 0.55452 0.55995 0.15046 0.0
H572 H 0.56299 0.54722 0.85155 0.0
H573 H 0.51983 0.58933 0.81545 0.0
H574 H 0.63747 0.53773 0.811 0.0
H575 H 0.6614 0.5037 0.67372 0.0
loop_
_geom_bond_atom_site_label_1
_geom_bond_atom_site_label_2
_geom_bond_distance
_geom_bond_site_symmetry_2
_ccdc_geom_bond_type
Mn0 O5 2.095 . S
Mn0 O15 2.162 . S
Mn0 O16 2.297 . S
Mn0 O24 2.385 . S
Mn0 O25 2.209 . S
Mn0 O26 2.094 . S
Mn1 O6 2.121 . S
Mn1 N8 2.257 1_554 S
Mn1 N17 2.282 . S
Mn1 O25 2.215 . S
Mn1 O27 2.117 . S
C2 O24 1.234 . S
C2 O25 1.283 . S
C3 O15 1.281 . S
C3 O16 1.236 . S
C4 O26 1.240 . S
C4 O27 1.264 . S
O5 Mn0 2.095 . S
O5 C14 1.250 . S
O6 Mn1 2.121 . S
O6 C14 1.258 . S
C7 N8 1.326 . S
C7 C11 1.460 . S
C7 H13 0.929 . S
N8 Mn1 2.257 1_556 S
N8 C7 1.326 . S
N8 C12 1.362 . S
C9 C10 1.258 . S
C9 C12 1.431 . S
C9 C29 1.449 . S
C10 C9 1.258 . S
C10 C11 1.477 . S
C10 H30 0.931 . S
C11 C7 1.460 . S
C11 C10 1.477 . S
C11 H31 0.930 . S
C12 N8 1.362 . S
C12 C9 1.431 . S
C12 C22 1.476 . S
H13 C7 0.929 . S
C14 O5 1.250 . S
C14 O6 1.258 . S
O15 Mn0 2.162 . S
O15 C3 1.281 . S
O16 Mn0 2.297 . S
O16 C3 1.236 . S
N17 Mn1 2.282 . S
N17 C18 1.328 . S
N17 C22 1.318 1_554 S
C18 N17 1.328 . S
C18 C19 1.457 . S
C18 H23 0.929 . S
C19 C18 1.457 . S
C19 C20 1.291 . S
C19 H32 0.931 . S
C20 C19 1.291 . S
C20 C21 1.373 1_554 S
C20 H33 0.929 . S
C21 C20 1.373 1_556 S
C21 C22 1.396 . S
C21 C28 1.403 . S
C22 C12 1.476 . S
C22 N17 1.318 1_556 S
C22 C21 1.396 . S
H23 C18 0.929 . S
O24 Mn0 2.385 . S
O24 C2 1.234 . S
O25 Mn0 2.209 . S
O25 Mn1 2.215 . S
O25 C2 1.283 . S
O26 Mn0 2.094 . S
O26 C4 1.240 . S
O27 Mn1 2.117 . S
O27 C4 1.264 . S
C28 C21 1.403 . S
C28 C29 1.399 . S
C28 H34 0.929 . S
C29 C9 1.449 . S
C29 C28 1.399 . S
C29 H35 0.930 . S
H30 C10 0.931 . S
H31 C11 0.930 . S
H32 C19 0.931 . S
H33 C20 0.929 . S
H34 C28 0.929 . S
H35 C29 0.930 . S
Mn36 O41 2.095 . S
Mn36 O51 2.162 . S
Mn36 O52 2.297 . S
Mn36 O60 2.385 . S
Mn36 O61 2.209 . S
Mn36 O62 2.094 . S
Mn37 O42 2.121 . S
Mn37 N44 2.257 1_556 S
Mn37 N53 2.282 . S
Mn37 O61 2.215 . S
Mn37 O63 2.117 . S
C38 O60 1.234 . S
C38 O61 1.283 . S
C39 O51 1.281 . S
C39 O52 1.236 . S
C40 O62 1.240 . S
C40 O63 1.264 . S
O41 Mn36 2.095 . S
O41 C50 1.250 . S
O42 Mn37 2.121 . S
O42 C50 1.258 . S
C43 N44 1.326 . S
C43 C47 1.460 . S
C43 H49 0.929 . S
N44 Mn37 2.257 1_554 S
N44 C43 1.326 . S
N44 C48 1.362 . S
C45 C46 1.258 . S
C45 C48 1.431 . S
C45 C65 1.449 . S
C46 C45 1.258 . S
C46 C47 1.477 . S
C46 H66 0.931 . S
C47 C43 1.460 . S
C47 C46 1.477 . S
C47 H67 0.930 . S
C48 N44 1.362 . S
C48 C45 1.431 . S
C48 C58 1.476 . S
H49 C43 0.929 . S
C50 O41 1.250 . S
C50 O42 1.258 . S
O51 Mn36 2.162 . S
O51 C39 1.281 . S
O52 Mn36 2.297 . S
O52 C39 1.236 . S
N53 Mn37 2.282 . S
N53 C54 1.328 . S
N53 C58 1.318 1_556 S
C54 N53 1.328 . S
C54 C55 1.457 . S
C54 H59 0.929 . S
C55 C54 1.457 . S
C55 C56 1.291 . S
C55 H68 0.931 . S
C56 C55 1.291 . S
C56 C57 1.373 1_556 S
C56 H69 0.929 . S
C57 C56 1.373 1_554 S
C57 C58 1.396 . S
C57 C64 1.403 . S
C58 C48 1.476 . S
C58 N53 1.318 1_554 S
C58 C57 1.396 . S
H59 C54 0.929 . S
O60 Mn36 2.385 . S
O60 C38 1.234 . S
O61 Mn36 2.209 . S
O61 Mn37 2.215 . S
O61 C38 1.283 . S
O62 Mn36 2.094 . S
O62 C40 1.240 . S
O63 Mn37 2.117 . S
O63 C40 1.264 . S
C64 C57 1.403 . S
C64 C65 1.399 . S
C64 H70 0.929 . S
C65 C45 1.449 . S
C65 C64 1.399 . S
C65 H71 0.930 . S
H66 C46 0.931 . S
H67 C47 0.930 . S
H68 C55 0.931 . S
H69 C56 0.929 . S
H70 C64 0.929 . S
H71 C65 0.930 . S
Mn72 O77 2.095 . S
Mn72 O87 2.162 1_556 S
Mn72 O88 2.297 . S
Mn72 O96 2.385 1_565 S
Mn72 O97 2.209 1_565 S
Mn72 O98 2.094 1_566 S
Mn73 O78 2.121 1_545 S
Mn73 N80 2.257 . S
Mn73 N89 2.282 . S
Mn73 O97 2.215 . S
Mn73 O99 2.117 . S
C74 O96 1.234 . S
C74 O97 1.283 . S
C75 O87 1.281 . S
C75 O88 1.236 1_554 S
C76 O98 1.240 1_556 S
C76 O99 1.264 . S
O77 Mn72 2.095 . S
O77 C86 1.250 . S
O78 Mn73 2.121 1_565 S
O78 C86 1.258 . S
C79 N80 1.326 . S
C79 C83 1.460 . S
C79 H85 0.929 1_545 S
N80 Mn73 2.257 . S
N80 C79 1.326 . S
N80 C84 1.362 . S
C81 C82 1.258 . S
C81 C84 1.431 . S
C81 C101 1.449 . S
C82 C81 1.258 . S
C82 C83 1.477 . S
C82 H102 0.931 . S
C83 C79 1.460 . S
C83 C82 1.477 . S
C83 H103 0.930 1_545 S
C84 N80 1.362 . S
C84 C81 1.431 . S
C84 C94 1.476 . S
H85 C79 0.929 1_565 S
C86 O77 1.250 . S
C86 O78 1.258 . S
O87 Mn72 2.162 1_554 S
O87 C75 1.281 . S
O88 Mn72 2.297 . S
O88 C75 1.236 1_556 S
N89 Mn73 2.282 . S
N89 C90 1.328 . S
N89 C94 1.318 . S
C90 N89 1.328 . S
C90 C91 1.457 . S
C90 H95 0.929 . S
C91 C90 1.457 . S
C91 C92 1.291 . S
C91 H104 0.931 . S
C92 C91 1.291 . S
C92 C93 1.373 . S
C92 H105 0.929 . S
C93 C92 1.373 . S
C93 C94 1.396 . S
C93 C100 1.403 . S
C94 C84 1.476 . S
C94 N89 1.318 . S
C94 C93 1.396 . S
H95 C90 0.929 . S
O96 Mn72 2.385 1_545 S
O96 C74 1.234 . S
O97 Mn72 2.209 1_545 S
O97 Mn73 2.215 . S
O97 C74 1.283 . S
O98 Mn72 2.094 1_544 S
O98 C76 1.240 1_554 S
O99 Mn73 2.117 . S
O99 C76 1.264 . S
C100 C93 1.403 . S
C100 C101 1.399 . S
C100 H106 0.929 . S
C101 C81 1.449 . S
C101 C100 1.399 . S
C101 H107 0.930 . S
H102 C82 0.931 . S
H103 C83 0.930 1_565 S
H104 C91 0.931 . S
H105 C92 0.929 . S
H106 C100 0.929 . S
H107 C101 0.930 . S
Mn108 O113 2.095 . S
Mn108 O123 2.162 1_554 S
Mn108 O124 2.297 . S
Mn108 O132 2.385 1_455 S
Mn108 O133 2.209 1_455 S
Mn108 O134 2.094 1_454 S
Mn109 O114 2.121 1_655 S
Mn109 N116 2.257 . S
Mn109 N125 2.282 . S
Mn109 O133 2.215 . S
Mn109 O135 2.117 . S
C110 O132 1.234 . S
C110 O133 1.283 . S
C111 O123 1.281 . S
C111 O124 1.236 1_556 S
C112 O134 1.240 1_554 S
C112 O135 1.264 . S
O113 Mn108 2.095 . S
O113 C122 1.250 . S
O114 Mn109 2.121 1_455 S
O114 C122 1.258 . S
C115 N116 1.326 . S
C115 C119 1.460 . S
C115 H121 0.929 1_655 S
N116 Mn109 2.257 . S
N116 C115 1.326 . S
N116 C120 1.362 . S
C117 C118 1.258 . S
C117 C120 1.431 . S
C117 C137 1.449 . S
C118 C117 1.258 . S
C118 C119 1.477 . S
C118 H138 0.931 . S
C119 C115 1.460 . S
C119 C118 1.477 . S
C119 H139 0.930 1_655 S
C120 N116 1.362 . S
C120 C117 1.431 . S
C120 C130 1.476 . S
H121 C115 0.929 1_455 S
C122 O113 1.250 . S
C122 O114 1.258 . S
O123 Mn108 2.162 1_556 S
O123 C111 1.281 . S
O124 Mn108 2.297 . S
O124 C111 1.236 1_554 S
N125 Mn109 2.282 . S
N125 C126 1.328 . S
N125 C130 1.318 . S
C126 N125 1.328 . S
C126 C127 1.457 . S
C126 H131 0.929 . S
C127 C126 1.457 . S
C127 C128 1.291 . S
C127 H140 0.931 . S
C128 C127 1.291 . S
C128 C129 1.373 . S
C128 H141 0.929 . S
C129 C128 1.373 . S
C129 C130 1.396 . S
C129 C136 1.403 . S
C130 C120 1.476 . S
C130 N125 1.318 . S
C130 C129 1.396 . S
H131 C126 0.929 . S
O132 Mn108 2.385 1_655 S
O132 C110 1.234 . S
O133 Mn108 2.209 1_655 S
O133 Mn109 2.215 . S
O133 C110 1.283 . S
O134 Mn108 2.094 1_656 S
O134 C112 1.240 1_556 S
O135 Mn109 2.117 . S
O135 C112 1.264 . S
C136 C129 1.403 . S
C136 C137 1.399 . S
C136 H142 0.929 . S
C137 C117 1.449 . S
C137 C136 1.399 . S
C137 H143 0.930 . S
H138 C118 0.931 . S
H139 C119 0.930 1_455 S
H140 C127 0.931 . S
H141 C128 0.929 . S
H142 C136 0.929 . S
H143 C137 0.930 . S
Mn144 O149 2.095 . S
Mn144 O159 2.162 1_556 S
Mn144 O160 2.297 . S
Mn144 O168 2.385 1_545 S
Mn144 O169 2.209 1_545 S
Mn144 O170 2.094 1_546 S
Mn145 O150 2.121 1_565 S
Mn145 N152 2.257 . S
Mn145 N161 2.282 . S
Mn145 O169 2.215 . S
Mn145 O171 2.117 . S
C146 O168 1.234 . S
C146 O169 1.283 . S
C147 O159 1.281 . S
C147 O160 1.236 1_554 S
C148 O170 1.240 1_556 S
C148 O171 1.264 . S
O149 Mn144 2.095 . S
O149 C158 1.250 . S
O150 Mn145 2.121 1_545 S
O150 C158 1.258 . S
C151 N152 1.326 . S
C151 C155 1.460 . S
C151 H157 0.929 1_565 S
N152 Mn145 2.257 . S
N152 C151 1.326 . S
N152 C156 1.362 . S
C153 C154 1.258 . S
C153 C156 1.431 . S
C153 C173 1.449 . S
C154 C153 1.258 . S
C154 C155 1.477 . S
C154 H174 0.931 . S
C155 C151 1.460 . S
C155 C154 1.477 . S
C155 H175 0.930 1_565 S
C156 N152 1.362 . S
C156 C153 1.431 . S
C156 C166 1.476 . S
H157 C151 0.929 1_545 S
C158 O149 1.250 . S
C158 O150 1.258 . S
O159 Mn144 2.162 1_554 S
O159 C147 1.281 . S
O160 Mn144 2.297 . S
O160 C147 1.236 1_556 S
N161 Mn145 2.282 . S
N161 C162 1.328 . S
N161 C166 1.318 . S
C162 N161 1.328 . S
C162 C163 1.457 . S
C162 H167 0.929 . S
C163 C162 1.457 . S
C163 C164 1.291 . S
C163 H176 0.931 . S
C164 C163 1.291 . S
C164 C165 1.373 . S
C164 H177 0.929 . S
C165 C164 1.373 . S
C165 C166 1.396 . S
C165 C172 1.403 . S
C166 C156 1.476 . S
C166 N161 1.318 . S
C166 C165 1.396 . S
H167 C162 0.929 . S
O168 Mn144 2.385 1_565 S
O168 C146 1.234 . S
O169 Mn144 2.209 1_565 S
O169 Mn145 2.215 . S
O169 C146 1.283 . S
O170 Mn144 2.094 1_564 S
O170 C148 1.240 1_554 S
O171 Mn145 2.117 . S
O171 C148 1.264 . S
C172 C165 1.403 . S
C172 C173 1.399 . S
C172 H178 0.929 . S
C173 C153 1.449 . S
C173 C172 1.399 . S
C173 H179 0.930 . S
H174 C154 0.931 . S
H175 C155 0.930 1_545 S
H176 C163 0.931 . S
H177 C164 0.929 . S
H178 C172 0.929 . S
H179 C173 0.930 . S
Mn180 O185 2.095 . S
Mn180 O195 2.162 1_554 S
Mn180 O196 2.297 . S
Mn180 O204 2.385 1_655 S
Mn180 O205 2.209 1_655 S
Mn180 O206 2.094 1_654 S
Mn181 O186 2.121 1_455 S
Mn181 N188 2.257 . S
Mn181 N197 2.282 . S
Mn181 O205 2.215 . S
Mn181 O207 2.117 . S
C182 O204 1.234 . S
C182 O205 1.283 . S
C183 O195 1.281 . S
C183 O196 1.236 1_556 S
C184 O206 1.240 1_554 S
C184 O207 1.264 . S
O185 Mn180 2.095 . S
O185 C194 1.250 . S
O186 Mn181 2.121 1_655 S
O186 C194 1.258 . S
C187 N188 1.326 . S
C187 C191 1.460 . S
C187 H193 0.929 1_455 S
N188 Mn181 2.257 . S
N188 C187 1.326 . S
N188 C192 1.362 . S
C189 C190 1.258 . S
C189 C192 1.431 . S
C189 C209 1.449 . S
C190 C189 1.258 . S
C190 C191 1.477 . S
C190 H210 0.931 . S
C191 C187 1.460 . S
C191 C190 1.477 . S
C191 H211 0.930 1_455 S
C192 N188 1.362 . S
C192 C189 1.431 . S
C192 C202 1.476 . S
H193 C187 0.929 1_655 S
C194 O185 1.250 . S
C194 O186 1.258 . S
O195 Mn180 2.162 1_556 S
O195 C183 1.281 . S
O196 Mn180 2.297 . S
O196 C183 1.236 1_554 S
N197 Mn181 2.282 . S
N197 C198 1.328 . S
N197 C202 1.318 . S
C198 N197 1.328 . S
C198 C199 1.457 . S
C198 H203 0.929 . S
C199 C198 1.457 . S
C199 C200 1.291 . S
C199 H212 0.931 . S
C200 C199 1.291 . S
C200 C201 1.373 . S
C200 H213 0.929 . S
C201 C200 1.373 . S
C201 C202 1.396 . S
C201 C208 1.403 . S
C202 C192 1.476 . S
C202 N197 1.318 . S
C202 C201 1.396 . S
H203 C198 0.929 . S
O204 Mn180 2.385 1_455 S
O204 C182 1.234 . S
O205 Mn180 2.209 1_455 S
O205 Mn181 2.215 . S
O205 C182 1.283 . S
O206 Mn180 2.094 1_456 S
O206 C184 1.240 1_556 S
O207 Mn181 2.117 . S
O207 C184 1.264 . S
C208 C201 1.403 . S
C208 C209 1.399 . S
C208 H214 0.929 . S
C209 C189 1.449 . S
C209 C208 1.399 . S
C209 H215 0.930 . S
H210 C190 0.931 . S
H211 C191 0.930 1_655 S
H212 C199 0.931 . S
H213 C200 0.929 . S
H214 C208 0.929 . S
H215 C209 0.930 . S
Mn216 O221 2.095 . S
Mn216 O231 2.162 . S
Mn216 O232 2.297 . S
Mn216 O240 2.385 . S
Mn216 O241 2.209 . S
Mn216 O242 2.094 . S
Mn217 O222 2.121 . S
Mn217 N224 2.257 1_554 S
Mn217 N233 2.282 . S
Mn217 O241 2.215 . S
Mn217 O243 2.117 . S
C218 O240 1.234 . S
C218 O241 1.283 . S
C219 O231 1.281 . S
C219 O232 1.236 . S
C220 O242 1.240 . S
C220 O243 1.264 . S
O221 Mn216 2.095 . S
O221 C230 1.250 . S
O222 Mn217 2.121 . S
O222 C230 1.258 . S
C223 N224 1.326 . S
C223 C227 1.460 . S
C223 H229 0.929 . S
N224 Mn217 2.257 1_556 S
N224 C223 1.326 . S
N224 C228 1.362 . S
C225 C226 1.258 . S
C225 C228 1.431 . S
C225 C245 1.449 . S
C226 C225 1.258 . S
C226 C227 1.477 . S
C226 H246 0.931 . S
C227 C223 1.460 . S
C227 C226 1.477 . S
C227 H247 0.930 . S
C228 N224 1.362 . S
C228 C225 1.431 . S
C228 C238 1.476 . S
H229 C223 0.929 . S
C230 O221 1.250 . S
C230 O222 1.258 . S
O231 Mn216 2.162 . S
O231 C219 1.281 . S
O232 Mn216 2.297 . S
O232 C219 1.236 . S
N233 Mn217 2.282 . S
N233 C234 1.328 . S
N233 C238 1.318 1_554 S
C234 N233 1.328 . S
C234 C235 1.457 . S
C234 H239 0.929 . S
C235 C234 1.457 . S
C235 C236 1.291 . S
C235 H248 0.931 . S
C236 C235 1.291 . S
C236 C237 1.373 1_554 S
C236 H249 0.929 . S
C237 C236 1.373 1_556 S
C237 C238 1.396 . S
C237 C244 1.403 . S
C238 C228 1.476 . S
C238 N233 1.318 1_556 S
C238 C237 1.396 . S
H239 C234 0.929 . S
O240 Mn216 2.385 . S
O240 C218 1.234 . S
O241 Mn216 2.209 . S
O241 Mn217 2.215 . S
O241 C218 1.283 . S
O242 Mn216 2.094 . S
O242 C220 1.240 . S
O243 Mn217 2.117 . S
O243 C220 1.264 . S
C244 C237 1.403 . S
C244 C245 1.399 . S
C244 H250 0.929 . S
C245 C225 1.449 . S
C245 C244 1.399 . S
C245 H251 0.930 . S
H246 C226 0.931 . S
H247 C227 0.930 . S
H248 C235 0.931 . S
H249 C236 0.929 . S
H250 C244 0.929 . S
H251 C245 0.930 . S
Mn252 O257 2.095 . S
Mn252 O267 2.162 . S
Mn252 O268 2.297 . S
Mn252 O276 2.385 . S
Mn252 O277 2.209 . S
Mn252 O278 2.094 . S
Mn253 O258 2.121 . S
Mn253 N260 2.257 1_556 S
Mn253 N269 2.282 . S
Mn253 O277 2.215 . S
Mn253 O279 2.117 . S
C254 O276 1.234 . S
C254 O277 1.283 . S
C255 O267 1.281 . S
C255 O268 1.236 . S
C256 O278 1.240 . S
C256 O279 1.264 . S
O257 Mn252 2.095 . S
O257 C266 1.250 . S
O258 Mn253 2.121 . S
O258 C266 1.258 . S
C259 N260 1.326 . S
C259 C263 1.460 . S
C259 H265 0.929 . S
N260 Mn253 2.257 1_554 S
N260 C259 1.326 . S
N260 C264 1.362 . S
C261 C262 1.258 . S
C261 C264 1.431 . S
C261 C281 1.449 . S
C262 C261 1.258 . S
C262 C263 1.477 . S
C262 H282 0.931 . S
C263 C259 1.460 . S
C263 C262 1.477 . S
C263 H283 0.930 . S
C264 N260 1.362 . S
C264 C261 1.431 . S
C264 C274 1.476 . S
H265 C259 0.929 . S
C266 O257 1.250 . S
C266 O258 1.258 . S
O267 Mn252 2.162 . S
O267 C255 1.281 . S
O268 Mn252 2.297 . S
O268 C255 1.236 . S
N269 Mn253 2.282 . S
N269 C270 1.328 . S
N269 C274 1.318 1_556 S
C270 N269 1.328 . S
C270 C271 1.457 . S
C270 H275 0.929 . S
C271 C270 1.457 . S
C271 C272 1.291 . S
C271 H284 0.931 . S
C272 C271 1.291 . S
C272 C273 1.373 1_556 S
C272 H285 0.929 . S
C273 C272 1.373 1_554 S
C273 C274 1.396 . S
C273 C280 1.403 . S
C274 C264 1.476 . S
C274 N269 1.318 1_554 S
C274 C273 1.396 . S
H275 C270 0.929 . S
O276 Mn252 2.385 . S
O276 C254 1.234 . S
O277 Mn252 2.209 . S
O277 Mn253 2.215 . S
O277 C254 1.283 . S
O278 Mn252 2.094 . S
O278 C256 1.240 . S
O279 Mn253 2.117 . S
O279 C256 1.264 . S
C280 C273 1.403 . S
C280 C281 1.399 . S
C280 H286 0.929 . S
C281 C261 1.449 . S
C281 C280 1.399 . S
C281 H287 0.930 . S
H282 C262 0.931 . S
H283 C263 0.930 . S
H284 C271 0.931 . S
H285 C272 0.929 . S
H286 C280 0.929 . S
H287 C281 0.930 . S
C288 C289 1.363 . S
C288 C294 1.379 . S
C288 N296 1.356 . S
C289 C288 1.363 . S
C289 C295 1.363 1_556 S
C290 C291 1.363 . S
C290 C295 1.379 . S
C290 N297 1.356 . S
C291 C290 1.363 . S
C291 C294 1.363 1_554 S
N292 C294 1.356 1_554 S
N292 H304 0.984 1_554 S
N292 H305 0.985 . S
N293 C295 1.356 1_556 S
N293 H298 0.984 . S
N293 H299 0.985 1_556 S
C294 C288 1.379 . S
C294 C291 1.363 1_556 S
C294 N292 1.356 1_556 S
C295 C289 1.363 1_554 S
C295 C290 1.379 . S
C295 N293 1.356 1_554 S
N296 C288 1.356 . S
N296 H302 0.984 . S
N296 H303 0.984 . S
N297 C290 1.356 . S
N297 H300 0.984 . S
N297 H301 0.985 . S
H298 N293 0.984 . S
H299 N293 0.985 1_554 S
H300 N297 0.984 . S
H301 N297 0.985 . S
H302 N296 0.984 . S
H303 N296 0.984 . S
H304 N292 0.984 1_556 S
H305 N292 0.985 . S
C306 C307 1.363 . S
C306 C312 1.379 . S
C306 N314 1.356 . S
C307 C306 1.363 . S
C307 C313 1.363 . S
C308 C309 1.363 . S
C308 C313 1.379 . S
C308 N315 1.356 . S
C309 C308 1.363 . S
C309 C312 1.363 . S
N310 C312 1.356 1_556 S
N310 H322 0.984 . S
N310 H323 0.985 . S
N311 C313 1.356 . S
N311 H316 0.984 . S
N311 H317 0.985 . S
C312 C306 1.379 . S
C312 C309 1.363 . S
C312 N310 1.356 1_554 S
C313 C307 1.363 . S
C313 C308 1.379 . S
C313 N311 1.356 . S
N314 C306 1.356 . S
N314 H320 0.984 . S
N314 H321 0.984 . S
N315 C308 1.356 . S
N315 H318 0.984 . S
N315 H319 0.985 . S
H316 N311 0.984 . S
H317 N311 0.985 . S
H318 N315 0.984 . S
H319 N315 0.985 . S
H320 N314 0.984 . S
H321 N314 0.984 . S
H322 N310 0.984 . S
H323 N310 0.985 . S
C324 C325 1.363 . S
C324 C330 1.379 . S
C324 N332 1.356 . S
C325 C324 1.363 . S
C325 C331 1.363 . S
C326 C327 1.363 . S
C326 C331 1.379 . S
C326 N333 1.356 . S
C327 C326 1.363 . S
C327 C330 1.363 . S
N328 C330 1.356 . S
N328 H340 0.984 . S
N328 H341 0.985 . S
N329 C331 1.356 . S
N329 H334 0.984 . S
N329 H335 0.985 . S
C330 C324 1.379 . S
C330 C327 1.363 . S
C330 N328 1.356 . S
C331 C325 1.363 . S
C331 C326 1.379 . S
C331 N329 1.356 . S
N332 C324 1.356 . S
N332 H338 0.984 . S
N332 H339 0.984 . S
N333 C326 1.356 . S
N333 H336 0.984 . S
N333 H337 0.985 . S
H334 N329 0.984 . S
H335 N329 0.985 . S
H336 N333 0.984 . S
H337 N333 0.985 . S
H338 N332 0.984 . S
H339 N332 0.984 . S
H340 N328 0.984 . S
H341 N328 0.985 . S
C342 C343 1.363 . S
C342 C348 1.379 . S
C342 N350 1.356 . S
C343 C342 1.363 . S
C343 C349 1.363 . S
C344 C345 1.363 . S
C344 C349 1.379 . S
C344 N351 1.356 . S
C345 C344 1.363 . S
C345 C348 1.363 . S
N346 C348 1.356 . S
N346 H358 0.984 . S
N346 H359 0.985 . S
N347 C349 1.356 1_554 S
N347 H352 0.984 . S
N347 H353 0.985 . S
C348 C342 1.379 . S
C348 C345 1.363 . S
C348 N346 1.356 . S
C349 C343 1.363 . S
C349 C344 1.379 . S
C349 N347 1.356 1_556 S
N350 C342 1.356 . S
N350 H356 0.984 . S
N350 H357 0.984 . S
N351 C344 1.356 . S
N351 H354 0.984 . S
N351 H355 0.985 . S
H352 N347 0.984 . S
H353 N347 0.985 . S
H354 N351 0.984 . S
H355 N351 0.985 . S
H356 N350 0.984 . S
H357 N350 0.984 . S
H358 N346 0.984 . S
H359 N346 0.985 . S
C360 C361 1.363 . S
C360 C366 1.379 . S
C360 N368 1.356 . S
C361 C360 1.363 . S
C361 C367 1.363 . S
C362 C363 1.363 . S
C362 C367 1.379 . S
C362 N369 1.356 . S
C363 C362 1.363 . S
C363 C366 1.363 . S
N364 C366 1.356 . S
N364 H376 0.984 . S
N364 H377 0.985 . S
N365 C367 1.356 . S
N365 H370 0.984 . S
N365 H371 0.985 . S
C366 C360 1.379 . S
C366 C363 1.363 . S
C366 N364 1.356 . S
C367 C361 1.363 . S
C367 C362 1.379 . S
C367 N365 1.356 . S
N368 C360 1.356 . S
N368 H374 0.984 . S
N368 H375 0.984 . S
N369 C362 1.356 . S
N369 H372 0.984 . S
N369 H373 0.985 . S
H370 N365 0.984 . S
H371 N365 0.985 . S
H372 N369 0.984 . S
H373 N369 0.985 . S
H374 N368 0.984 . S
H375 N368 0.984 . S
H376 N364 0.984 . S
H377 N364 0.985 . S
C378 C379 1.363 . S
C378 C384 1.379 . S
C378 N386 1.356 . S
C379 C378 1.363 . S
C379 C385 1.363 . S
C380 C381 1.363 . S
C380 C385 1.379 . S
C380 N387 1.356 . S
C381 C380 1.363 . S
C381 C384 1.363 . S
N382 C384 1.356 . S
N382 H394 0.984 . S
N382 H395 0.985 . S
N383 C385 1.356 1_554 S
N383 H388 0.984 . S
N383 H389 0.985 . S
C384 C378 1.379 . S
C384 C381 1.363 . S
C384 N382 1.356 . S
C385 C379 1.363 . S
C385 C380 1.379 . S
C385 N383 1.356 1_556 S
N386 C378 1.356 . S
N386 H392 0.984 . S
N386 H393 0.984 . S
N387 C380 1.356 . S
N387 H390 0.984 . S
N387 H391 0.985 . S
H388 N383 0.984 . S
H389 N383 0.985 . S
H390 N387 0.984 . S
H391 N387 0.985 . S
H392 N386 0.984 . S
H393 N386 0.984 . S
H394 N382 0.984 . S
H395 N382 0.985 . S
C396 C397 1.363 . S
C396 C402 1.379 1_554 S
C396 N404 1.356 . S
C397 C396 1.363 . S
C397 C403 1.363 . S
C398 C399 1.363 . S
C398 C403 1.379 1_556 S
C398 N405 1.356 . S
C399 C398 1.363 . S
C399 C402 1.363 . S
N400 C402 1.356 . S
N400 H412 0.984 . S
N400 H413 0.985 . S
N401 C403 1.356 . S
N401 H406 0.984 . S
N401 H407 0.985 . S
C402 C396 1.379 1_556 S
C402 C399 1.363 . S
C402 N400 1.356 . S
C403 C397 1.363 . S
C403 C398 1.379 1_554 S
C403 N401 1.356 . S
N404 C396 1.356 . S
N404 H410 0.984 . S
N404 H411 0.984 . S
N405 C398 1.356 . S
N405 H408 0.984 . S
N405 H409 0.985 . S
H406 N401 0.984 . S
H407 N401 0.985 . S
H408 N405 0.984 . S
H409 N405 0.985 . S
H410 N404 0.984 . S
H411 N404 0.984 . S
H412 N400 0.984 . S
H413 N400 0.985 . S
C414 C415 1.363 . S
C414 C420 1.379 . S
C414 N422 1.356 . S
C415 C414 1.363 . S
C415 C421 1.363 . S
C416 C417 1.363 . S
C416 C421 1.379 . S
C416 N423 1.356 . S
C417 C416 1.363 . S
C417 C420 1.363 . S
N418 C420 1.356 . S
N418 H430 0.984 . S
N418 H431 0.985 . S
N419 C421 1.356 . S
N419 H424 0.984 . S
N419 H425 0.985 . S
C420 C414 1.379 . S
C420 C417 1.363 . S
C420 N418 1.356 . S
C421 C415 1.363 . S
C421 C416 1.379 . S
C421 N419 1.356 . S
N422 C414 1.356 . S
N422 H428 0.984 . S
N422 H429 0.984 . S
N423 C416 1.356 . S
N423 H426 0.984 . S
N423 H427 0.985 . S
H424 N419 0.984 . S
H425 N419 0.985 . S
H426 N423 0.984 . S
H427 N423 0.985 . S
H428 N422 0.984 . S
H429 N422 0.984 . S
H430 N418 0.984 . S
H431 N418 0.985 . S
C432 C433 1.363 . S
C432 C438 1.379 . S
C432 N440 1.356 . S
C433 C432 1.363 . S
C433 C439 1.363 . S
C434 C435 1.363 . S
C434 C439 1.379 . S
C434 N441 1.356 . S
C435 C434 1.363 . S
C435 C438 1.363 . S
N436 C438 1.356 . S
N436 H448 0.984 . S
N436 H449 0.985 . S
N437 C439 1.356 . S
N437 H442 0.984 . S
N437 H443 0.985 . S
C438 C432 1.379 . S
C438 C435 1.363 . S
C438 N436 1.356 . S
C439 C433 1.363 . S
C439 C434 1.379 . S
C439 N437 1.356 . S
N440 C432 1.356 . S
N440 H446 0.984 . S
N440 H447 0.984 . S
N441 C434 1.356 . S
N441 H444 0.984 . S
N441 H445 0.985 . S
H442 N437 0.984 . S
H443 N437 0.985 . S
H444 N441 0.984 . S
H445 N441 0.985 . S
H446 N440 0.984 . S
H447 N440 0.984 . S
H448 N436 0.984 . S
H449 N436 0.985 . S
C450 C451 1.363 . S
C450 C456 1.379 . S
C450 N458 1.356 . S
C451 C450 1.363 . S
C451 C457 1.363 . S
C452 C453 1.363 . S
C452 C457 1.379 . S
C452 N459 1.356 . S
C453 C452 1.363 . S
C453 C456 1.363 . S
N454 C456 1.356 . S
N454 H466 0.984 . S
N454 H467 0.985 . S
N455 C457 1.356 . S
N455 H460 0.984 . S
N455 H461 0.985 . S
C456 C450 1.379 . S
C456 C453 1.363 . S
C456 N454 1.356 . S
C457 C451 1.363 . S
C457 C452 1.379 . S
C457 N455 1.356 . S
N458 C450 1.356 . S
N458 H464 0.984 1_556 S
N458 H465 0.984 . S
N459 C452 1.356 . S
N459 H462 0.984 . S
N459 H463 0.985 . S
H460 N455 0.984 . S
H461 N455 0.985 . S
H462 N459 0.984 . S
H463 N459 0.985 . S
H464 N458 0.984 1_554 S
H465 N458 0.984 . S
H466 N454 0.984 . S
H467 N454 0.985 . S
C468 C469 1.363 . S
C468 C474 1.379 . S
C468 N476 1.356 . S
C469 C468 1.363 . S
C469 C475 1.363 1_554 S
C470 C471 1.363 . S
C470 C475 1.379 . S
C470 N477 1.356 . S
C471 C470 1.363 . S
C471 C474 1.363 1_556 S
N472 C474 1.356 . S
N472 H484 0.984 . S
N472 H485 0.985 . S
N473 C475 1.356 . S
N473 H478 0.984 . S
N473 H479 0.985 . S
C474 C468 1.379 . S
C474 C471 1.363 1_554 S
C474 N472 1.356 . S
C475 C469 1.363 1_556 S
C475 C470 1.379 . S
C475 N473 1.356 . S
N476 C468 1.356 . S
N476 H482 0.984 . S
N476 H483 0.984 . S
N477 C470 1.356 . S
N477 H480 0.984 . S
N477 H481 0.985 . S
H478 N473 0.984 . S
H479 N473 0.985 . S
H480 N477 0.984 . S
H481 N477 0.985 . S
H482 N476 0.984 . S
H483 N476 0.984 . S
H484 N472 0.984 . S
H485 N472 0.985 . S
C486 C487 1.363 . S
C486 C492 1.379 . S
C486 N494 1.356 . S
C487 C486 1.363 . S
C487 C493 1.363 . S
C488 C489 1.363 . S
C488 C493 1.379 . S
C488 N495 1.356 . S
C489 C488 1.363 . S
C489 C492 1.363 . S
N490 C492 1.356 . S
N490 H502 0.984 . S
N490 H503 0.985 . S
N491 C493 1.360 . S
N491 H496 0.985 . S
N491 H497 0.980 1_554 S
C492 C486 1.379 . S
C492 C489 1.363 . S
C492 N490 1.356 . S
C493 C487 1.363 . S
C493 C488 1.379 . S
C493 N491 1.360 . S
N494 C486 1.356 . S
N494 H500 0.984 . S
N494 H501 0.984 . S
N495 C488 1.356 . S
N495 H498 0.984 . S
N495 H499 0.985 1_554 S
H496 N491 0.985 . S
H497 N491 0.980 1_556 S
H498 N495 0.984 . S
H499 N495 0.985 1_556 S
H500 N494 0.984 . S
H501 N494 0.984 . S
H502 N490 0.984 . S
H503 N490 0.985 . S
C504 C505 1.363 . S
C504 C510 1.379 . S
C504 N512 1.356 . S
C505 C504 1.363 . S
C505 C511 1.363 . S
C506 C507 1.363 . S
C506 C511 1.379 . S
C506 N513 1.356 . S
C507 C506 1.363 . S
C507 C510 1.363 . S
N508 C510 1.356 . S
N508 H520 0.984 . S
N508 H521 0.985 . S
N509 C511 1.356 . S
N509 H514 0.984 1_545 S
N509 H515 0.985 1_545 S
C510 C504 1.379 . S
C510 C507 1.363 . S
C510 N508 1.356 . S
C511 C505 1.363 . S
C511 C506 1.379 . S
C511 N509 1.356 . S
N512 C504 1.356 . S
N512 H518 0.984 . S
N512 H519 0.984 . S
N513 C506 1.356 . S
N513 H516 0.984 . S
N513 H517 0.985 . S
H514 N509 0.984 1_565 S
H515 N509 0.985 1_565 S
H516 N513 0.984 . S
H517 N513 0.985 . S
H518 N512 0.984 . S
H519 N512 0.984 . S
H520 N508 0.984 . S
H521 N508 0.985 . S
C522 C523 1.363 1_554 S
C522 C528 1.379 . S
C522 N530 1.356 . S
C523 C522 1.363 1_556 S
C523 C529 1.363 . S
C524 C525 1.363 1_556 S
C524 C529 1.379 . S
C524 N531 1.356 . S
C525 C524 1.363 1_554 S
C525 C528 1.363 . S
N526 C528 1.356 . S
N526 H538 0.984 . S
N526 H539 0.985 . S
N527 C529 1.356 . S
N527 H532 0.984 . S
N527 H533 0.985 . S
C528 C522 1.379 . S
C528 C525 1.363 . S
C528 N526 1.356 . S
C529 C523 1.363 . S
C529 C524 1.379 . S
C529 N527 1.356 . S
N530 C522 1.356 . S
N530 H536 0.984 . S
N530 H537 0.984 . S
N531 C524 1.356 . S
N531 H534 0.984 . S
N531 H535 0.985 . S
H532 N527 0.984 . S
H533 N527 0.985 . S
H534 N531 0.984 . S
H535 N531 0.985 . S
H536 N530 0.984 . S
H537 N530 0.984 . S
H538 N526 0.984 . S
H539 N526 0.985 . S
C540 C541 1.363 . S
C540 C546 1.379 . S
C540 N548 1.356 . S
C541 C540 1.363 . S
C541 C547 1.363 . S
C542 C543 1.363 . S
C542 C547 1.379 . S
C542 N549 1.356 . S
C543 C542 1.363 . S
C543 C546 1.363 . S
N544 C546 1.356 . S
N544 H556 0.984 . S
N544 H557 0.985 . S
N545 C547 1.356 . S
N545 H550 0.984 . S
N545 H551 0.985 1_554 S
C546 C540 1.379 . S
C546 C543 1.363 . S
C546 N544 1.356 . S
C547 C541 1.363 . S
C547 C542 1.379 . S
C547 N545 1.356 . S
N548 C540 1.356 . S
N548 H554 0.984 . S
N548 H555 0.984 . S
N549 C542 1.356 . S
N549 H552 0.984 . S
N549 H553 0.985 1_554 S
H550 N545 0.984 . S
H551 N545 0.985 1_556 S
H552 N549 0.984 . S
H553 N549 0.985 1_556 S
H554 N548 0.984 . S
H555 N548 0.984 . S
H556 N544 0.984 . S
H557 N544 0.985 . S
C558 C559 1.363 . S
C558 C564 1.379 . S
C558 N566 1.356 . S
C559 C558 1.363 . S
C559 C565 1.363 . S
C560 C561 1.363 . S
C560 C565 1.379 . S
C560 N567 1.356 . S
C561 C560 1.363 . S
C561 C564 1.363 . S
N562 C564 1.356 . S
N562 H574 0.984 . S
N562 H575 0.985 . S
N563 C565 1.356 . S
N563 H568 0.984 . S
N563 H569 0.985 . S
C564 C558 1.379 . S
C564 C561 1.363 . S
C564 N562 1.356 . S
C565 C559 1.363 . S
C565 C560 1.379 . S
C565 N563 1.356 . S
N566 C558 1.356 . S
N566 H572 0.984 . S
N566 H573 0.984 . S
N567 C560 1.356 . S
N567 H570 0.984 . S
N567 H571 0.985 . S
H568 N563 0.984 . S
H569 N563 0.985 . S
H570 N567 0.984 . S
H571 N567 0.985 . S
H572 N566 0.984 . S
H573 N566 0.984 . S
H574 N562 0.984 . S
H575 N562 0.985 . S
C289 C50 1.377 . S
C291 C14 1.377 . S
C307 C39 1.455 . S
C309 C75 1.455 . S
C325 C122 1.377 . S
C327 C86 1.377 . S
C343 C111 1.455 . S
C345 C3 1.455 . S
C361 C158 1.377 . S
C363 C194 1.377 . S
C379 C183 1.455 . S
C381 C219 1.455 . S
C397 C230 1.377 . S
C399 C266 1.377 . S
C415 C147 1.455 . S
C417 C255 1.455 . S
C433 C4 1.462 . S
C435 C256 1.462 . S
C451 C146 1.445 . S
C453 C38 1.445 . S
C469 C184 1.462 . S
C471 C76 1.462 . S
C487 C110 1.445 . S
C489 C218 1.445 . S
C505 C74 1.445 . S
C507 C254 1.445 . S
C523 C148 1.462 . S
C525 C112 1.462 . S
C541 C182 1.445 . S
C543 C2 1.445 . S
C559 C40 1.462 . S
C561 C220 1.462 . S
