# Generated by pormake.
# Topology vbc, (5)-cn, num edge types: 1
# Building blocks:
#     Node 0, Type 0, BuildingBlock: BEQFEK_clean_sbu_0, # of connection points: 5
#     Node 1, Type 0, BuildingBlock: BEQFEK_clean_sbu_0, # of connection points: 5
#     Node 2, Type 0, BuildingBlock: BEQFEK_clean_sbu_0, # of connection points: 5
#     Node 3, Type 0, BuildingBlock: BEQFEK_clean_sbu_0, # of connection points: 5
#     Node 4, Type 0, BuildingBlock: BEQFEK_clean_sbu_0, # of connection points: 5
#     Node 5, Type 0, BuildingBlock: BEQFEK_clean_sbu_0, # of connection points: 5
#     Node 6, Type 0, BuildingBlock: BEQFEK_clean_sbu_0, # of connection points: 5
#     Node 7, Type 0, BuildingBlock: BEQFEK_clean_sbu_0, # of connection points: 5
#     Node 8, Type 0, BuildingBlock: BEQFEK_clean_sbu_0, # of connection points: 5
#     Node 9, Type 0, BuildingBlock: BEQFEK_clean_sbu_0, # of connection points: 5
#     Node 10, Type 0, BuildingBlock: BEQFEK_clean_sbu_0, # of connection points: 5
#     Node 11, Type 0, BuildingBlock: BEQFEK_clean_sbu_0, # of connection points: 5
#     Node 12, Type 0, BuildingBlock: BEQFEK_clean_sbu_0, # of connection points: 5
#     Node 13, Type 0, BuildingBlock: BEQFEK_clean_sbu_0, # of connection points: 5
#     Node 14, Type 0, BuildingBlock: BEQFEK_clean_sbu_0, # of connection points: 5
#     Node 15, Type 0, BuildingBlock: BEQFEK_clean_sbu_0, # of connection points: 5
#     Node 16, Type 0, BuildingBlock: BEQFEK_clean_sbu_0, # of connection points: 5
#     Node 17, Type 0, BuildingBlock: BEQFEK_clean_sbu_0, # of connection points: 5
#     Node 18, Type 0, BuildingBlock: BEQFEK_clean_sbu_0, # of connection points: 5
#     Node 19, Type 0, BuildingBlock: BEQFEK_clean_sbu_0, # of connection points: 5
#     Node 20, Type 0, BuildingBlock: BEQFEK_clean_sbu_0, # of connection points: 5
#     Node 21, Type 0, BuildingBlock: BEQFEK_clean_sbu_0, # of connection points: 5
#     Node 22, Type 0, BuildingBlock: BEQFEK_clean_sbu_0, # of connection points: 5
#     Node 23, Type 0, BuildingBlock: BEQFEK_clean_sbu_0, # of connection points: 5
#     Node 24, Type 0, BuildingBlock: BEQFEK_clean_sbu_0, # of connection points: 5
#     Node 25, Type 0, BuildingBlock: BEQFEK_clean_sbu_0, # of connection points: 5
#     Node 26, Type 0, BuildingBlock: BEQFEK_clean_sbu_0, # of connection points: 5
#     Node 27, Type 0, BuildingBlock: BEQFEK_clean_sbu_0, # of connection points: 5
#     Node 28, Type 0, BuildingBlock: BEQFEK_clean_sbu_0, # of connection points: 5
#     Node 29, Type 0, BuildingBlock: BEQFEK_clean_sbu_0, # of connection points: 5
#     Node 30, Type 0, BuildingBlock: BEQFEK_clean_sbu_0, # of connection points: 5
#     Node 31, Type 0, BuildingBlock: BEQFEK_clean_sbu_0, # of connection points: 5
#     Edge 32, Type (0, 0), None
#     Edge 33, Type (0, 0), None
#     Edge 34, Type (0, 0), None
#     Edge 35, Type (0, 0), None
#     Edge 36, Type (0, 0), None
#     Edge 37, Type (0, 0), None
#     Edge 38, Type (0, 0), None
#     Edge 39, Type (0, 0), None
#     Edge 40, Type (0, 0), None
#     Edge 41, Type (0, 0), None
#     Edge 42, Type (0, 0), None
#     Edge 43, Type (0, 0), None
#     Edge 44, Type (0, 0), None
#     Edge 45, Type (0, 0), None
#     Edge 46, Type (0, 0), None
#     Edge 47, Type (0, 0), None
#     Edge 48, Type (0, 0), None
#     Edge 49, Type (0, 0), None
#     Edge 50, Type (0, 0), None
#     Edge 51, Type (0, 0), None
#     Edge 52, Type (0, 0), None
#     Edge 53, Type (0, 0), None
#     Edge 54, Type (0, 0), None
#     Edge 55, Type (0, 0), None
#     Edge 56, Type (0, 0), None
#     Edge 57, Type (0, 0), None
#     Edge 58, Type (0, 0), None
#     Edge 59, Type (0, 0), None
#     Edge 60, Type (0, 0), None
#     Edge 61, Type (0, 0), None
#     Edge 62, Type (0, 0), None
#     Edge 63, Type (0, 0), None
#     Edge 64, Type (0, 0), None
#     Edge 65, Type (0, 0), None
#     Edge 66, Type (0, 0), None
#     Edge 67, Type (0, 0), None
#     Edge 68, Type (0, 0), None
#     Edge 69, Type (0, 0), None
#     Edge 70, Type (0, 0), None
#     Edge 71, Type (0, 0), None
#     Edge 72, Type (0, 0), None
#     Edge 73, Type (0, 0), None
#     Edge 74, Type (0, 0), None
#     Edge 75, Type (0, 0), None
#     Edge 76, Type (0, 0), None
#     Edge 77, Type (0, 0), None
#     Edge 78, Type (0, 0), None
#     Edge 79, Type (0, 0), None
#     Edge 80, Type (0, 0), None
#     Edge 81, Type (0, 0), None
#     Edge 82, Type (0, 0), None
#     Edge 83, Type (0, 0), None
#     Edge 84, Type (0, 0), None
#     Edge 85, Type (0, 0), None
#     Edge 86, Type (0, 0), None
#     Edge 87, Type (0, 0), None
#     Edge 88, Type (0, 0), None
#     Edge 89, Type (0, 0), None
#     Edge 90, Type (0, 0), None
#     Edge 91, Type (0, 0), None
#     Edge 92, Type (0, 0), None
#     Edge 93, Type (0, 0), None
#     Edge 94, Type (0, 0), None
#     Edge 95, Type (0, 0), None
#     Edge 96, Type (0, 0), None
#     Edge 97, Type (0, 0), None
#     Edge 98, Type (0, 0), None
#     Edge 99, Type (0, 0), None
#     Edge 100, Type (0, 0), None
#     Edge 101, Type (0, 0), None
#     Edge 102, Type (0, 0), None
#     Edge 103, Type (0, 0), None
#     Edge 104, Type (0, 0), None
#     Edge 105, Type (0, 0), None
#     Edge 106, Type (0, 0), None
#     Edge 107, Type (0, 0), None
#     Edge 108, Type (0, 0), None
#     Edge 109, Type (0, 0), None
#     Edge 110, Type (0, 0), None
#     Edge 111, Type (0, 0), None
# Relax obj value: 0.538
# Max RMSD: 0.154
# Mean RMSD: 0.154
data_MOF--net-vbc--node1-BEQFEK_clean_sbu_0--edge1-none
_symmetry_space_group_name_H-M    P1
_symmetry_Int_Tables_number       1
_symmetry_cell_setting            triclinic
loop_
_symmetry_equiv_pos_as_xyz
'x, y, z'
_cell_length_a     22.822833
_cell_length_b     33.515942
_cell_length_c     21.388724
_cell_angle_alpha  90.012466
_cell_angle_beta   89.99991
_cell_angle_gamma 90.000715
loop_
_atom_site_label
_atom_site_type_symbol
_atom_site_fract_x
_atom_site_fract_y
_atom_site_fract_z
_atom_type_partial_charge
Co0 Co 0.12985 0.07271 0.58727 0.0
Co1 Co 0.21099 0.10722 0.49617 0.0
C2 C 0.09403 0.06702 0.45218 0.0
O3 O 0.0857 1.05536 0.50781 0.0
O4 O 0.14134 0.0861 0.44013 0.0
C5 C 0.02932 1.04533 0.647 0.0
O6 O 1.00156 1.01658 0.67564 0.0
C7 C 0.32269 0.10125 0.46213 0.0
C8 C 0.33595 0.16623 0.46168 0.0
C9 C 0.36201 0.13081 0.48026 0.0
N10 N 0.27351 0.11921 0.44288 0.0
N11 N 0.28352 0.15772 0.43715 0.0
C12 C 0.32822 1.05679 0.46163 0.0
H13 H 0.33518 1.04462 0.50883 0.0
H14 H 0.36505 1.04809 0.43093 0.0
H15 H 0.28765 1.04311 0.44253 0.0
C16 C 0.2402 1.03922 0.64752 0.0
N17 N 0.21048 1.05552 0.59863 0.0
N18 N 0.24498 0.08055 0.57017 0.0
C19 C 0.29371 0.08589 0.60651 0.0
C20 C 0.29664 1.05615 0.65214 0.0
C21 C 0.21155 1.01343 0.69506 0.0
H22 H 0.17669 0.9953 0.67273 0.0
H23 H 0.24436 0.99394 0.71787 0.0
H24 H 0.19072 1.03272 0.7307 0.0
O25 O 0.12446 0.1345 0.59914 0.0
O26 O 0.18657 0.1574 0.52838 0.0
H27 H 0.30536 0.14845 0.58395 0.0
H28 H 0.29619 0.1375 0.6645 0.0
C29 C 0.31698 0.12666 0.62072 0.0
H30 H 0.36461 0.12544 0.6304 0.0
H31 H 0.25107 0.17877 0.42754 0.0
O32 O 0.08469 1.04572 0.65037 0.0
C33 C 0.15099 0.16363 0.57249 0.0
Co34 Co 0.14708 0.29479 0.58699 0.0
Co35 Co 0.06602 0.25995 0.49612 0.0
C36 C 0.18283 0.30033 0.452 0.0
O37 O 0.191 0.3123 0.5075 0.0
O38 O 0.13573 0.28098 0.44011 0.0
C39 C 0.24754 0.32243 0.64662 0.0
O40 O 0.27519 0.35125 0.6752 0.0
C41 C 0.95442 0.26613 0.46199 0.0
C42 C 0.94072 0.20118 0.46182 0.0
C43 C 0.9149 0.23673 0.48025 0.0
N44 N 1.00348 0.24797 0.44285 0.0
N45 N 0.99322 0.20948 0.43729 0.0
C46 C 0.9493 0.31061 0.46158 0.0
H47 H 0.9421 0.32277 0.50875 0.0
H48 H 0.91276 0.31948 0.4306 0.0
H49 H 0.99011 0.32414 0.44282 0.0
C50 C 0.03663 0.32818 0.64723 0.0
N51 N 0.06641 0.31181 0.59843 0.0
N52 N 0.032 0.28666 0.57008 0.0
C53 C 0.98327 0.28134 0.60641 0.0
C54 C 0.98023 0.31117 0.6519 0.0
C55 C 0.06519 0.3541 0.69467 0.0
H56 H 0.09996 0.37226 0.67226 0.0
H57 H 0.03232 0.37356 0.71745 0.0
H58 H 0.08613 0.3349 0.73035 0.0
O59 O 0.15278 0.23298 0.59881 0.0
O60 O 0.0904 0.20985 0.52845 0.0
H61 H 0.97158 0.21877 0.58391 0.0
H62 H 0.98092 0.22977 0.66444 0.0
C63 C 0.96004 0.24057 0.62069 0.0
H64 H 0.91242 0.24179 0.63048 0.0
H65 H 0.02553 0.18831 0.42779 0.0
O66 O 0.19217 0.3219 0.65007 0.0
C67 C 0.12618 0.20377 0.57243 0.0
Co68 Co 0.12989 0.29493 0.9138 0.0
Co69 Co 0.21102 0.26038 1.00485 0.0
C70 C 0.09407 0.30061 1.04886 0.0
O71 O 0.08576 0.31232 0.99326 0.0
O72 O 0.14134 0.28149 1.06088 0.0
C73 C 0.02935 0.32234 0.85411 0.0
O74 O 1.0016 0.3511 0.82551 0.0
C75 C 0.32272 0.26637 1.03888 0.0
C76 C 0.33597 0.20139 1.03932 0.0
C77 C 0.36202 0.23681 1.02074 0.0
N78 N 0.27354 0.24841 1.05814 0.0
N79 N 0.28355 0.2099 1.06387 0.0
C80 C 0.32825 0.31083 1.03938 0.0
H81 H 0.3352 0.323 0.99218 0.0
H82 H 0.36508 0.31953 1.07007 0.0
H83 H 0.28768 0.32451 1.0585 0.0
C84 C 0.24023 0.32843 0.85355 0.0
N85 N 0.21051 0.31211 0.90242 0.0
N86 N 0.24501 0.28706 0.93085 0.0
C87 C 0.29374 0.28174 0.8945 0.0
C88 C 0.29667 0.31151 0.8489 0.0
C89 C 0.21155 0.3542 0.806 0.0
H90 H 0.1767 0.37234 0.82834 0.0
H91 H 0.24435 0.37368 0.78315 0.0
H92 H 0.1907 0.33489 0.7704 0.0
O93 O 0.12446 0.23314 0.90195 0.0
O94 O 0.18662 0.21021 0.97262 0.0
H95 H 0.3054 0.21918 0.91702 0.0
H96 H 0.29622 0.23015 0.83648 0.0
C97 C 0.31701 0.24097 0.88027 0.0
H98 H 0.36465 0.2422 0.87058 0.0
H99 H 0.25111 0.18885 1.07349 0.0
O100 O 0.08472 0.32193 0.85072 0.0
C101 C 0.151 0.20399 0.92854 0.0
Co102 Co 0.14705 0.07281 0.91408 0.0
Co103 Co 0.06599 0.1077 1.00489 0.0
C104 C 0.18279 0.06729 1.04905 0.0
O105 O 0.19093 1.05528 0.99357 0.0
O106 O 0.13572 0.08668 1.06091 0.0
C107 C 0.2475 1.04514 0.85451 0.0
O108 O 0.27515 1.01629 0.82598 0.0
C109 C 0.95439 0.1015 1.03902 0.0
C110 C 0.94069 0.16644 1.03919 0.0
C111 C 0.91488 0.13089 1.02075 0.0
N112 N 1.00345 0.11965 1.05818 0.0
N113 N 0.99319 0.15814 1.06374 0.0
C114 C 0.94928 1.05701 1.03942 0.0
H115 H 0.94207 1.04486 0.99224 0.0
H116 H 0.91274 1.04813 1.07039 0.0
H117 H 0.9901 1.04348 1.05817 0.0
C118 C 0.0366 1.03943 0.85383 0.0
N119 N 0.06638 1.05581 0.90262 0.0
N120 N 0.03197 0.08097 0.93094 0.0
C121 C 0.98324 0.08629 0.89461 0.0
C122 C 0.98021 1.05643 0.84913 0.0
C123 C 0.06519 1.01354 0.80638 0.0
H124 H 0.09995 0.99536 0.8288 0.0
H125 H 0.03233 0.99408 0.78356 0.0
H126 H 0.08616 1.03274 0.77073 0.0
O127 O 0.15278 0.13463 0.90227 0.0
O128 O 0.09035 0.1578 0.97256 0.0
H129 H 0.97154 0.14886 0.91707 0.0
H130 H 0.98089 0.13785 0.83655 0.0
C131 C 0.96001 0.12705 0.8803 0.0
H132 H 0.91239 0.12582 0.8705 0.0
H133 H 0.02549 0.17932 1.07326 0.0
O134 O 0.19214 1.04569 0.85102 0.0
C135 C 0.12617 0.16386 0.92861 0.0
Co136 Co 0.89693 1.04513 0.66429 0.0
Co137 Co 0.81587 1.01018 0.75495 0.0
C138 C 0.93273 1.05053 0.79922 0.0
O139 O 0.94083 0.06267 0.7438 0.0
O140 O 0.88568 1.0311 0.81098 0.0
C141 C 0.99747 0.07269 0.60477 0.0
O142 O 0.02522 0.10148 0.5762 0.0
C143 C 0.70425 1.01627 0.78902 0.0
C144 C 0.69087 0.9513 0.78924 0.0
C145 C 0.66491 0.98677 0.77073 0.0
N146 N 0.75337 0.99825 0.80828 0.0
N147 N 0.74328 0.95974 0.81389 0.0
C148 C 0.69883 0.06074 0.78959 0.0
H149 H 0.69185 0.07295 0.74241 0.0
H150 H 0.66204 0.06946 0.82033 0.0
H151 H 0.73944 0.07436 0.80867 0.0
C152 C 0.78649 0.07852 0.60399 0.0
N153 N 0.81625 0.06214 0.65279 0.0
N154 N 0.78186 1.03696 0.68105 0.0
C155 C 0.73315 1.03163 0.64467 0.0
C156 C 0.73011 0.0615 0.59924 0.0
C157 C 0.8151 0.1044 0.55656 0.0
H158 H 0.84983 0.12259 0.579 0.0
H159 H 0.78223 0.12383 0.5337 0.0
H160 H 0.83609 0.08519 0.52092 0.0
O161 O 0.90264 0.9833 0.65244 0.0
O162 O 0.8401 0.96006 0.72251 0.0
H163 H 0.72156 0.96903 0.66699 0.0
H164 H 0.73085 0.98011 0.58649 0.0
C165 C 0.70997 0.99086 0.63028 0.0
H166 H 0.66235 0.99206 0.62051 0.0
H167 H 0.77567 0.93865 0.8235 0.0
O168 O 0.94211 0.07223 0.60129 0.0
C169 C 0.87601 0.95403 0.67863 0.0
Co170 Co 0.87999 0.82285 0.66401 0.0
Co171 Co 0.96106 0.85772 0.75479 0.0
C172 C 0.84421 0.81732 0.79893 0.0
O173 O 0.8361 0.80526 0.74347 0.0
O174 O 0.89126 0.83675 0.81076 0.0
C175 C 0.77954 0.79522 0.60438 0.0
O176 O 0.75189 0.76637 0.57583 0.0
C177 C 0.07265 0.85146 0.78893 0.0
C178 C 0.08633 0.9164 0.78923 0.0
C179 C 0.11215 0.88087 0.77071 0.0
N180 N 0.02359 0.86959 0.80814 0.0
N181 N 0.03385 0.90808 0.8138 0.0
C182 C 0.07779 0.80697 0.7893 0.0
H183 H 0.085 0.79484 0.7421 0.0
H184 H 0.11432 0.79809 0.82026 0.0
H185 H 0.03697 0.79343 0.80803 0.0
C186 C 0.99042 0.78946 0.60372 0.0
N187 N 0.96066 0.80584 0.65252 0.0
N188 N 0.99507 0.83099 0.68084 0.0
C189 C 0.04381 0.8363 0.64451 0.0
C190 C 0.04683 0.80645 0.59903 0.0
C191 C 0.96182 0.76358 0.55627 0.0
H192 H 0.92704 0.74541 0.57868 0.0
H193 H 0.99467 0.74411 0.53345 0.0
H194 H 0.94087 0.78279 0.52062 0.0
O195 O 0.87426 0.88468 0.65233 0.0
O196 O 0.93684 0.90787 0.72244 0.0
H197 H 0.05556 0.89886 0.66701 0.0
H198 H 0.0462 0.88787 0.58648 0.0
C199 C 0.06708 0.87705 0.63022 0.0
H200 H 0.1147 0.87581 0.62044 0.0
H201 H 1.00154 0.92923 0.82338 0.0
O202 O 0.8349 0.79577 0.60091 0.0
C203 C 0.90094 0.91392 0.67857 0.0
Co204 Co 0.89718 0.82267 0.33719 0.0
Co205 Co 0.81606 0.85721 0.24607 0.0
C206 C 0.93297 0.817 0.20206 0.0
O207 O 0.94132 0.80535 0.25769 0.0
O208 O 0.88566 0.83606 0.19 0.0
C209 C 0.99772 0.79525 0.39687 0.0
O210 O 0.02548 0.7665 0.42549 0.0
C211 C 0.70435 0.85129 0.21205 0.0
C212 C 0.69107 0.91628 0.21172 0.0
C213 C 0.66502 0.88083 0.23022 0.0
N214 N 0.75353 0.86927 0.19285 0.0
N215 N 0.74352 0.90779 0.1872 0.0
C216 C 0.69885 0.80683 0.2115 0.0
H217 H 0.69189 0.79464 0.25869 0.0
H218 H 0.66202 0.79813 0.1808 0.0
H219 H 0.73943 0.79317 0.19239 0.0
C220 C 0.78682 0.78919 0.3974 0.0
N221 N 0.81655 0.80549 0.34852 0.0
N222 N 0.78206 0.83054 0.32007 0.0
C223 C 0.73333 0.83588 0.35642 0.0
C224 C 0.73038 0.80613 0.40204 0.0
C225 C 0.81545 0.76339 0.44494 0.0
H226 H 0.8503 0.74524 0.42261 0.0
H227 H 0.78263 0.74391 0.46775 0.0
H228 H 0.8363 0.78267 0.48058 0.0
O229 O 0.90259 0.88444 0.34917 0.0
O230 O 0.84059 0.90734 0.2783 0.0
H231 H 0.72174 0.89845 0.3339 0.0
H232 H 0.7309 0.88748 0.41444 0.0
C233 C 0.7101 0.87666 0.37065 0.0
H234 H 0.66247 0.87545 0.38034 0.0
H235 H 0.77596 0.92886 0.17766 0.0
O236 O 0.94235 0.79564 0.40024 0.0
C237 C 0.87611 0.91357 0.32246 0.0
Co238 Co 0.87974 1.04462 0.33741 0.0
Co239 Co 0.96089 1.01011 0.24624 0.0
C240 C 0.84399 1.05036 0.20231 0.0
O241 O 0.83562 0.06199 0.25795 0.0
O242 O 0.89129 1.03128 0.19024 0.0
C243 C 0.7793 0.07214 0.39718 0.0
O244 O 0.75164 0.10095 0.42579 0.0
C245 C 0.07254 1.01624 0.21214 0.0
C246 C 0.08616 0.95129 0.21169 0.0
C247 C 0.11205 0.98679 0.23021 0.0
N248 N 0.02344 0.99815 0.19298 0.0
N249 N 0.03364 0.95965 0.18726 0.0
C250 C 0.07771 0.06072 0.2119 0.0
H251 H 0.08499 0.0728 0.25911 0.0
H252 H 0.11421 0.06963 0.1809 0.0
H253 H 0.03688 0.0743 0.19327 0.0
C254 C 0.99009 0.07806 0.39769 0.0
N255 N 0.96038 0.06177 0.34878 0.0
N256 N 0.99487 1.03673 0.3203 0.0
C257 C 0.04361 1.03139 0.35661 0.0
C258 C 0.04649 0.06108 0.40235 0.0
C259 C 0.96146 0.10388 0.44522 0.0
H260 H 0.9266 0.12201 0.42289 0.0
H261 H 0.99429 0.12339 0.46799 0.0
H262 H 0.94064 0.08462 0.48089 0.0
O263 O 0.87429 0.98284 0.34923 0.0
O264 O 0.93639 0.95996 0.27837 0.0
H265 H 0.05538 0.96887 0.33383 0.0
H266 H 0.04611 0.97971 0.41442 0.0
C267 C 0.06693 0.99062 0.37069 0.0
H268 H 0.11455 0.99186 0.38044 0.0
H269 H 1.00129 0.93851 0.17773 0.0
O270 O 0.83467 0.07165 0.40057 0.0
C271 C 0.90084 0.95373 0.32251 0.0
Co272 Co 0.12985 0.57271 1.08729 0.0
Co273 Co 0.211 0.60718 0.99614 0.0
C274 C 0.09406 0.567 0.95217 0.0
O275 O 0.08568 0.5554 1.00782 0.0
O276 O 0.1414 0.58601 0.94008 0.0
C277 C 0.02931 0.54532 0.14699 0.0
O278 O 1.00155 0.51656 0.1756 0.0
C279 C 0.32272 0.60126 0.96213 0.0
C280 C 0.33597 0.66625 0.96175 0.0
C281 C 0.36204 0.63082 0.98027 0.0
N282 N 0.27354 0.61923 0.94291 0.0
N283 N 0.28353 0.65775 0.93723 0.0
C284 C 0.32824 0.5568 0.96162 0.0
H285 H 0.3352 0.54463 1.00882 0.0
H286 H 0.36507 0.5481 0.93092 0.0
H287 H 0.28767 0.54313 0.94251 0.0
C288 C 0.24018 0.5392 0.14752 0.0
N289 N 0.21047 0.5555 1.09863 0.0
N290 N 0.24499 0.58052 1.07016 0.0
C291 C 0.29372 0.58585 1.10651 0.0
C292 C 0.29663 0.55611 0.15215 0.0
C293 C 0.2115 0.51345 0.19509 0.0
H294 H 0.17663 0.49532 0.17278 0.0
H295 H 0.24428 0.49396 0.21793 0.0
H296 H 0.19067 0.53277 0.2307 0.0
O297 O 0.12448 0.63448 1.09925 0.0
O298 O 0.18648 0.65733 1.02832 0.0
H299 H 0.30535 0.64841 1.08397 0.0
H300 H 0.2962 0.63745 0.16452 0.0
C301 C 0.31698 0.62662 1.12072 0.0
H302 H 0.36462 0.6254 0.1304 0.0
H303 H 0.25109 0.67881 0.92766 0.0
O304 O 0.08468 0.5457 0.15037 0.0
C305 C 0.15097 0.66359 1.0725 0.0
Co306 Co 0.14729 0.79467 1.08731 0.0
Co307 Co 0.06617 0.76008 0.99618 0.0
C308 C 0.18304 0.80035 0.95221 0.0
O309 O 0.19137 0.81205 1.00783 0.0
O310 O 0.13578 0.78123 0.94017 0.0
C311 C 0.24773 0.82219 0.14707 0.0
O312 O 0.27539 0.85099 0.17571 0.0
C313 C 0.95453 0.76621 0.96206 0.0
C314 C 0.94088 0.70126 0.96167 0.0
C315 C 0.91501 0.73678 0.98016 0.0
N316 N 1.00362 0.7481 0.94292 0.0
N317 N 0.99341 0.7096 0.93724 0.0
C318 C 0.94938 0.81069 0.96178 0.0
H319 H 0.94211 0.82279 1.00899 0.0
H320 H 0.91289 0.8196 0.93077 0.0
H321 H 0.99022 0.82425 0.94314 0.0
C322 C 0.0369 0.82808 0.14757 0.0
N323 N 0.06664 0.81179 1.09867 0.0
N324 N 0.03218 0.78671 1.07022 0.0
C325 C 0.98343 0.78136 1.10653 0.0
C326 C 0.98053 0.81107 0.15224 0.0
C327 C 0.06548 0.85396 0.19505 0.0
H328 H 0.10032 0.8721 0.1727 0.0
H329 H 0.03263 0.87345 0.2178 0.0
H330 H 0.08633 0.83473 0.23076 0.0
O331 O 0.15279 0.73288 1.09914 0.0
O332 O 0.09066 0.70994 1.02836 0.0
H333 H 0.97169 0.71883 1.08378 0.0
H334 H 0.98098 0.72969 0.16435 0.0
C335 C 0.96014 0.74058 1.12063 0.0
H336 H 0.91252 0.74182 0.13039 0.0
H337 H 0.02574 0.68845 0.92774 0.0
O338 O 0.19236 0.82171 0.15045 0.0
C339 C 0.12625 0.70375 1.07249 0.0
Co340 Co 0.1301 0.79509 0.41418 0.0
Co341 Co 0.21119 0.76022 0.50488 0.0
C342 C 0.0943 0.80054 0.54911 0.0
O343 O 0.08617 0.81262 0.49368 0.0
O344 O 0.14139 0.78115 0.56091 0.0
C345 C 0.02956 0.82263 0.35465 0.0
O346 O 1.00182 0.85142 0.3261 0.0
C347 C 0.32282 0.7663 0.53894 0.0
C348 C 0.33617 0.70133 0.53922 0.0
C349 C 0.36215 0.73679 0.52067 0.0
N350 N 0.27369 0.7483 0.55822 0.0
N351 N 0.28376 0.70979 0.56387 0.0
C352 C 0.32827 0.81077 0.53947 0.0
H353 H 0.33526 0.82296 0.49229 0.0
H354 H 0.36505 0.81949 0.57021 0.0
H355 H 0.28766 0.82441 0.55854 0.0
C356 C 0.24051 0.82851 0.35387 0.0
N357 N 0.21076 0.81214 0.40269 0.0
N358 N 0.24519 0.78698 0.43097 0.0
C359 C 0.29389 0.78166 0.39458 0.0
C360 C 0.29691 0.81152 0.34913 0.0
C361 C 0.21185 0.85434 0.3064 0.0
H362 H 0.17709 0.87251 0.32882 0.0
H363 H 0.24468 0.87378 0.28352 0.0
H364 H 0.19088 0.83509 0.2708 0.0
O365 O 0.12444 0.73326 0.40236 0.0
O366 O 0.18696 0.71007 0.47248 0.0
H367 H 0.30552 0.71907 0.41693 0.0
H368 H 0.29624 0.73013 0.33642 0.0
C369 C 0.3171 0.7409 0.38021 0.0
H370 H 0.36473 0.74211 0.37046 0.0
H371 H 0.25136 0.68871 0.5735 0.0
O372 O 0.08492 0.82216 0.35116 0.0
C373 C 0.15108 0.70401 0.4286 0.0
Co374 Co 0.14704 0.5728 0.41412 0.0
Co375 Co 0.066 0.60776 0.50485 0.0
C376 C 0.18282 0.56733 0.54902 0.0
O377 O 0.19089 0.5552 0.49359 0.0
O378 O 0.13581 0.5868 0.56083 0.0
C379 C 0.24749 0.54516 0.35449 0.0
O380 O 0.27514 0.51633 0.3259 0.0
C381 C 0.95442 0.60149 0.53901 0.0
C382 C 0.94071 0.66643 0.53925 0.0
C383 C 0.91491 0.63089 0.52077 0.0
N384 N 1.00347 0.61963 0.5582 0.0
N385 N 0.9932 0.65812 0.56382 0.0
C386 C 0.9493 0.557 0.53941 0.0
H387 H 0.94209 0.54485 0.49223 0.0
H388 H 0.91277 0.54812 0.57039 0.0
H389 H 0.99012 0.54347 0.55815 0.0
C390 C 0.03657 0.53945 0.35384 0.0
N391 N 0.06636 0.55583 0.40263 0.0
N392 N 0.03197 0.58101 0.43092 0.0
C393 C 0.98324 0.58632 0.39459 0.0
C394 C 0.98019 0.55646 0.34914 0.0
C395 C 0.06513 0.5135 0.30643 0.0
H396 H 0.09988 0.49533 0.32887 0.0
H397 H 0.03225 0.49405 0.28365 0.0
H398 H 0.0861 0.53268 0.27074 0.0
O399 O 0.15282 0.63464 0.40241 0.0
O400 O 0.09022 0.65789 0.47246 0.0
H401 H 0.97152 0.64889 0.41707 0.0
H402 H 0.98089 0.63789 0.33654 0.0
C403 C 0.96 0.62708 0.38029 0.0
H404 H 0.91238 0.62585 0.37049 0.0
H405 H 0.0255 0.67929 0.57338 0.0
O406 O 0.19213 0.54571 0.35103 0.0
C407 C 0.12615 0.6639 0.4286 0.0
Co408 Co 0.89693 0.54513 0.16426 0.0
Co409 Co 0.81586 0.51023 0.25497 0.0
C410 C 0.9327 0.55056 0.29923 0.0
O411 O 0.94085 0.56262 0.24379 0.0
O412 O 0.88561 0.53118 0.31104 0.0
C413 C 0.99748 0.57271 1.10478 0.0
O414 O 0.02523 0.6015 1.07624 0.0
C415 C 0.70422 0.51626 0.28902 0.0
C416 C 0.69085 0.45128 0.28917 0.0
C417 C 0.66488 0.48676 0.27071 0.0
N418 N 0.75334 0.49822 0.30825 0.0
N419 N 0.74326 0.45971 0.31381 0.0
C420 C 0.6988 0.56073 0.2896 0.0
H421 H 0.69182 0.57293 0.24243 0.0
H422 H 0.66202 0.56944 0.32034 0.0
H423 H 0.73942 0.57434 0.30869 0.0
C424 C 0.78651 0.57854 1.10398 0.0
N425 N 0.81626 0.56217 0.15279 0.0
N426 N 0.78185 0.53699 0.18106 0.0
C427 C 0.73315 0.53167 0.14467 0.0
C428 C 0.73012 0.56153 1.09923 0.0
C429 C 0.81515 0.60438 1.05652 0.0
H430 H 0.8499 0.62257 1.07895 0.0
H431 H 0.78231 0.62382 1.03364 0.0
H432 H 0.83614 0.58514 1.02092 0.0
O433 O 0.90261 0.48332 0.15234 0.0
O434 O 0.84019 0.46013 0.22256 0.0
H435 H 0.72157 0.46907 0.16698 0.0
H436 H 0.73084 0.48015 1.08648 0.0
C437 C 0.70997 0.4909 0.13027 0.0
H438 H 0.66234 0.4921 1.12052 0.0
H439 H 0.77566 0.43861 0.32338 0.0
O440 O 0.94211 0.57225 1.10129 0.0
C441 C 0.87602 0.45407 0.17862 0.0
Co442 Co 0.87979 0.32298 0.1637 0.0
Co443 Co 0.96091 0.3576 0.25473 0.0
C444 C 0.844 0.3173 0.29871 0.0
O445 O 0.83573 0.30551 0.24314 0.0
O446 O 0.89121 0.33651 0.3107 0.0
C447 C 0.77934 0.29545 1.10393 0.0
O448 O 0.75169 0.26664 1.07532 0.0
C449 C 0.07254 0.35138 0.28887 0.0
C450 C 0.08617 0.41633 0.28938 0.0
C451 C 0.11204 0.38083 0.2708 0.0
N452 N 0.02345 0.36947 0.30807 0.0
N453 N 0.03366 0.40796 0.31384 0.0
C454 C 0.0777 0.30689 0.28909 0.0
H455 H 0.08499 0.29483 0.24188 0.0
H456 H 0.1142 0.29798 0.32009 0.0
H457 H 0.03687 0.29331 0.30772 0.0
C458 C 0.99014 0.28956 1.10338 0.0
N459 N 0.96043 0.30587 0.15227 0.0
N460 N 0.9949 0.33094 0.18071 0.0
C461 C 0.04364 0.33628 0.14439 0.0
C462 C 0.04653 0.30656 1.0987 0.0
C463 C 0.96152 0.26371 1.05589 0.0
H464 H 0.92669 0.24558 1.07824 0.0
H465 H 0.99435 0.24422 1.03311 0.0
H466 H 0.94067 0.28296 1.02021 0.0
O467 O 0.87426 0.38479 0.152 0.0
O468 O 0.93659 0.40778 0.22253 0.0
H469 H 0.05544 0.39879 0.16714 0.0
H470 H 0.04615 0.38794 1.08656 0.0
C471 C 0.06697 0.37704 0.13029 0.0
H472 H 0.11459 0.37578 1.12053 0.0
H473 H 1.00133 0.42909 0.32343 0.0
O474 O 0.83471 0.29596 1.10052 0.0
C475 C 0.90087 0.41394 0.17851 0.0
Co476 Co 0.89697 0.32251 0.83681 0.0
Co477 Co 0.81589 0.35737 0.74604 0.0
C478 C 0.93274 0.31707 0.70181 0.0
O479 O 0.94092 0.30505 0.75727 0.0
O480 O 0.88562 0.3364 0.68997 0.0
C481 C 0.99751 0.29496 0.89633 0.0
O482 O 0.02526 0.26618 0.92491 0.0
C483 C 0.70424 0.35136 0.71199 0.0
C484 C 0.69087 0.41634 0.71182 0.0
C485 C 0.6649 0.38086 0.73028 0.0
N486 N 0.75337 0.36939 0.69277 0.0
N487 N 0.7433 0.40791 0.6872 0.0
C488 C 0.69883 0.30689 0.71141 0.0
H489 H 0.69184 0.29469 0.75859 0.0
H490 H 0.66205 0.29817 0.68066 0.0
H491 H 0.73945 0.29327 0.69234 0.0
C492 C 0.78654 0.28911 0.89708 0.0
N493 N 0.8163 0.30546 0.84826 0.0
N494 N 0.78188 0.33062 0.81996 0.0
C495 C 0.73318 0.33596 0.85634 0.0
C496 C 0.73015 0.30611 0.9018 0.0
C497 C 0.81515 0.26324 0.94454 0.0
H498 H 0.84991 0.24507 0.92212 0.0
H499 H 0.7823 0.2438 0.96738 0.0
H500 H 0.83611 0.28247 0.98017 0.0
O501 O 0.90261 0.38432 0.84875 0.0
O502 O 0.84025 0.40747 0.77844 0.0
H503 H 0.72161 0.39855 0.83399 0.0
H504 H 0.73088 0.3875 0.9145 0.0
C505 C 0.71001 0.37673 0.87071 0.0
H506 H 0.66238 0.37554 0.88046 0.0
H507 H 0.7757 0.42901 0.67765 0.0
O508 O 0.94214 0.29541 0.89979 0.0
C509 C 0.87604 0.41355 0.82241 0.0
Co510 Co 0.87975 0.54463 0.83737 0.0
Co511 Co 0.96088 0.51005 0.74629 0.0
C512 C 0.84396 0.55032 0.70233 0.0
O513 O 0.83566 0.56207 0.75793 0.0
O514 O 0.8912 0.53116 0.69032 0.0
C515 C 0.77931 0.57212 0.89719 0.0
O516 O 0.75165 0.60091 0.92586 0.0
C517 C 0.07251 0.51625 0.71214 0.0
C518 C 0.08614 0.4513 0.71163 0.0
C519 C 0.11202 0.4868 0.7302 0.0
N520 N 0.02342 0.49816 0.69296 0.0
N521 N 0.03362 0.45967 0.68718 0.0
C522 C 0.07769 0.56073 0.7119 0.0
H523 H 0.08497 0.5728 0.75912 0.0
H524 H 0.11419 0.56964 0.6809 0.0
H525 H 0.03686 0.57431 0.69328 0.0
C526 C 0.99012 0.57805 0.89768 0.0
N527 N 0.96039 0.56176 0.84878 0.0
N528 N 0.99487 0.5367 0.82032 0.0
C529 C 0.04362 0.53135 0.85663 0.0
C530 C 0.04651 0.56105 0.90234 0.0
C531 C 0.96152 0.60392 0.94517 0.0
H532 H 0.92667 0.62204 0.92283 0.0
H533 H 0.99437 0.62342 0.96791 0.0
H534 H 0.9407 0.58468 0.98088 0.0
O535 O 0.87425 0.48283 0.84908 0.0
O536 O 0.93653 0.45987 0.77847 0.0
H537 H 0.0554 0.46884 0.83384 0.0
H538 H 0.04612 0.47967 0.91442 0.0
C539 C 0.06694 0.49058 0.8707 0.0
H540 H 0.11456 0.49183 0.88045 0.0
H541 H 1.00128 0.43854 0.67761 0.0
O542 O 0.83467 0.57163 0.90057 0.0
C543 C 0.90086 0.45368 0.82252 0.0
Co544 Co 0.62982 0.07273 1.08725 0.0
Co545 Co 0.71101 0.1074 0.99639 0.0
C546 C 0.59405 0.06712 0.95226 0.0
O547 O 0.58581 1.05521 1.00778 0.0
O548 O 0.64122 0.0864 0.94039 0.0
C549 C 0.52932 1.04538 0.14707 0.0
O550 O 0.50159 1.01668 0.17585 0.0
C551 C 0.8227 0.10124 0.96246 0.0
C552 C 0.83607 0.16621 0.96198 0.0
C553 C 0.862 0.13078 0.98071 0.0
N554 N 0.77359 0.11923 0.94307 0.0
N555 N 0.78369 0.15773 0.93729 0.0
C556 C 0.82806 1.05677 0.96222 0.0
H557 H 0.83534 1.04472 1.00944 0.0
H558 H 0.86463 1.04792 0.93127 0.0
H559 H 0.78731 1.0431 0.94354 0.0
C560 C 0.74011 1.03932 0.14769 0.0
N561 N 0.71044 1.05562 1.09877 0.0
N562 N 0.74492 0.08071 1.07042 0.0
C563 C 0.79361 0.08606 1.10682 0.0
C564 C 0.79647 1.05633 0.15246 0.0
C565 C 0.71146 1.01347 0.19516 0.0
H566 H 0.67659 0.99537 0.1728 0.0
H567 H 0.74428 0.99396 0.21792 0.0
H568 H 0.69066 1.03273 0.23088 0.0
O569 O 0.62432 0.13456 1.09891 0.0
O570 O 0.68681 0.1576 1.02864 0.0
H571 H 0.80529 0.14862 1.08427 0.0
H572 H 0.796 0.13767 0.16481 0.0
C573 C 0.81685 0.12684 1.12106 0.0
H574 H 0.86447 0.12562 0.13082 0.0
H575 H 0.75131 0.17881 0.92755 0.0
O576 O 0.58469 1.04581 0.15045 0.0
C577 C 0.65099 0.16375 1.07256 0.0
Co578 Co 0.64696 0.29499 1.0867 0.0
Co579 Co 0.56586 0.25989 0.99617 0.0
C580 C 0.6827 0.30025 0.95177 0.0
O581 O 0.69076 0.31255 1.00712 0.0
O582 O 0.63571 0.28072 0.94011 0.0
C583 C 0.74742 0.32274 0.14623 0.0
O584 O 0.77507 0.35156 0.17482 0.0
C585 C 0.45429 0.26608 0.96216 0.0
C586 C 0.4407 0.20113 0.96226 0.0
C587 C 0.41492 0.23668 0.98073 0.0
N588 N 0.50332 0.24795 0.94288 0.0
N589 N 0.49309 0.20944 0.93744 0.0
C590 C 0.44904 0.31056 0.9615 0.0
H591 H 0.44217 0.32283 1.00866 0.0
H592 H 0.41227 0.31931 0.93077 0.0
H593 H 0.48969 0.32409 0.94233 0.0
C594 C 0.53651 0.32832 0.14708 0.0
N595 N 0.56626 0.31193 1.09828 0.0
N596 N 0.53188 0.28669 1.07009 0.0
C597 C 0.48321 0.28136 1.10652 0.0
C598 C 0.48016 0.31127 0.1519 0.0
C599 C 0.56512 0.35424 0.19449 0.0
H600 H 0.59983 0.37242 0.17202 0.0
H601 H 0.53226 0.37367 0.21735 0.0
H602 H 0.58614 0.33505 0.23013 0.0
O603 O 0.65281 0.23316 1.09851 0.0
O604 O 0.59007 0.20981 1.02867 0.0
H605 H 0.47169 0.21873 1.08432 0.0
H606 H 0.48111 0.22989 0.16478 0.0
C607 C 0.46014 0.24058 1.12102 0.0
H608 H 0.41252 0.24174 0.13087 0.0
H609 H 0.52539 0.18828 0.92782 0.0
O610 O 0.69206 0.32216 0.14972 0.0
C611 C 0.62609 0.20386 1.07247 0.0
Co612 Co 0.62986 0.29491 0.41382 0.0
Co613 Co 0.71104 0.26021 0.50462 0.0
C614 C 0.59409 0.30051 0.54878 0.0
O615 O 0.58588 0.31247 0.49329 0.0
O616 O 0.64123 0.28119 0.56063 0.0
C617 C 0.52936 0.32228 0.35403 0.0
O618 O 0.50163 0.351 0.3253 0.0
C619 C 0.82272 0.26638 0.53855 0.0
C620 C 0.83609 0.20141 0.53902 0.0
C621 C 0.86201 0.23684 0.52028 0.0
N622 N 0.77362 0.24839 0.55795 0.0
N623 N 0.78372 0.20989 0.56373 0.0
C624 C 0.82808 0.31085 0.53879 0.0
H625 H 0.83536 0.3229 0.49157 0.0
H626 H 0.86466 0.31969 0.56973 0.0
H627 H 0.78734 0.32452 0.55749 0.0
C628 C 0.74014 0.32833 0.35337 0.0
N629 N 0.71047 0.31201 0.40228 0.0
N630 N 0.74496 0.28691 0.4306 0.0
C631 C 0.79364 0.28157 0.39419 0.0
C632 C 0.79651 0.31132 0.34858 0.0
C633 C 0.71146 0.35415 0.3059 0.0
H634 H 0.6766 0.37227 0.32827 0.0
H635 H 0.74426 0.37366 0.2831 0.0
H636 H 0.69063 0.33489 0.27022 0.0
O637 O 0.62432 0.23308 0.40217 0.0
O638 O 0.68686 0.21 0.47236 0.0
H639 H 0.80533 0.21901 0.4167 0.0
H640 H 0.79604 0.22997 0.33617 0.0
C641 C 0.81689 0.2408 0.37993 0.0
H642 H 0.86451 0.24203 0.37016 0.0
H643 H 0.75134 0.18881 0.57349 0.0
O644 O 0.58472 0.32184 0.35063 0.0
C645 C 0.651 0.20387 0.42847 0.0
Co646 Co 0.64693 0.07261 0.41437 0.0
Co647 Co 0.56584 0.10775 0.50484 0.0
C648 C 0.68266 0.06737 0.54927 0.0
O649 O 0.69069 1.05503 0.49395 0.0
O650 O 0.6357 0.08694 0.56091 0.0
C651 C 0.74739 1.04483 0.3549 0.0
O652 O 0.77502 1.01598 0.32637 0.0
C653 C 0.45427 0.10154 0.53885 0.0
C654 C 0.44068 0.1665 0.53875 0.0
C655 C 0.41491 0.13095 0.52027 0.0
N656 N 0.50329 0.11968 0.55815 0.0
N657 N 0.49306 0.15818 0.56358 0.0
C658 C 0.44903 1.05706 0.5395 0.0
H659 H 0.44215 1.0448 0.49233 0.0
H660 H 0.41225 1.04831 0.57022 0.0
H661 H 0.48968 1.04354 0.55866 0.0
C662 C 0.53648 1.03929 0.35397 0.0
N663 N 0.56623 1.05569 0.40277 0.0
N664 N 0.53185 0.08094 0.43094 0.0
C665 C 0.48319 0.08626 0.39449 0.0
C666 C 0.48013 1.05634 0.34914 0.0
C667 C 0.56512 1.0134 0.30656 0.0
H668 H 0.59982 0.9952 0.32904 0.0
H669 H 0.53227 0.99398 0.28365 0.0
H670 H 0.58617 1.0326 0.27096 0.0
O671 O 0.65281 0.13446 0.40258 0.0
O672 O 0.59002 0.15783 0.47233 0.0
H673 H 0.47166 0.1489 0.41667 0.0
H674 H 0.48109 0.13773 0.33621 0.0
C675 C 0.46011 0.12704 0.37997 0.0
H676 H 0.4125 0.12587 0.37011 0.0
H677 H 0.52535 0.17934 0.57322 0.0
O678 O 0.69203 1.04542 0.35137 0.0
C679 C 0.62608 0.16377 0.42857 0.0
Co680 Co 0.39696 1.0451 0.16431 0.0
Co681 Co 0.31585 1.01001 0.25472 0.0
C682 C 0.43271 1.05043 0.29914 0.0
O683 O 0.44071 0.06281 0.24383 0.0
O684 O 0.38579 1.03081 0.31073 0.0
C685 C 0.49747 0.07264 1.10469 0.0
O686 O 0.52519 0.10137 1.07599 0.0
C687 C 0.20424 1.01628 0.28869 0.0
C688 C 0.19074 0.95132 0.28895 0.0
C689 C 0.16492 0.98681 0.27027 0.0
N690 N 0.25329 0.99822 0.30809 0.0
N691 N 0.2431 0.95973 0.31375 0.0
C692 C 0.199 0.06077 0.28899 0.0
H693 H 0.19168 0.07285 0.24179 0.0
H694 H 0.16248 0.06963 0.31999 0.0
H695 H 0.2398 0.07437 0.30765 0.0
C696 C 0.28658 0.07842 1.10382 0.0
N697 N 0.3163 0.06205 0.15265 0.0
N698 N 0.28191 1.0368 0.1808 0.0
C699 C 0.23326 1.03146 0.14435 0.0
C700 C 0.23028 0.06132 1.09892 0.0
C701 C 0.31519 0.10436 1.05645 0.0
H702 H 0.34993 0.12252 1.07893 0.0
H703 H 0.28232 0.12382 1.03366 0.0
H704 H 0.33615 0.08518 1.02074 0.0
O705 O 0.40276 0.98324 0.15266 0.0
O706 O 0.33987 0.95986 0.22225 0.0
H707 H 0.22163 0.96886 0.16667 0.0
H708 H 0.23104 0.97993 1.08618 0.0
C709 C 0.2101 0.99069 0.12993 0.0
H710 H 0.16249 0.99188 1.12009 0.0
H711 H 0.27543 0.93862 0.3235 0.0
O712 O 0.4421 0.07213 1.10121 0.0
C713 C 0.37601 0.95391 0.17856 0.0
Co714 Co 0.38011 0.82265 0.1643 0.0
Co715 Co 0.46122 0.85778 0.25474 0.0
C716 C 0.34435 0.8174 0.29915 0.0
O717 O 0.33635 0.80501 0.24384 0.0
O718 O 0.39128 0.837 0.31076 0.0
C719 C 0.27965 0.79491 1.10478 0.0
O720 O 0.25202 0.76606 1.07622 0.0
C721 C 0.57277 0.8515 0.28876 0.0
C722 C 0.58634 0.91645 0.28879 0.0
C723 C 0.61212 0.88093 0.27023 0.0
N724 N 0.52375 0.86962 0.30811 0.0
N725 N 0.53398 0.90811 0.31364 0.0
C726 C 0.57804 0.80702 0.28937 0.0
H727 H 0.58493 0.79478 0.24219 0.0
H728 H 0.61482 0.79827 0.32009 0.0
H729 H 0.5374 0.79348 0.30852 0.0
C730 C 0.49054 0.78932 1.10387 0.0
N731 N 0.4608 0.80572 0.15267 0.0
N732 N 0.49519 0.83096 0.18084 0.0
C733 C 0.54386 0.83627 0.1444 0.0
C734 C 0.5469 0.80635 1.09903 0.0
C735 C 0.46188 0.76344 1.05645 0.0
H736 H 0.42717 0.74525 1.07892 0.0
H737 H 0.49472 0.74401 1.03355 0.0
H738 H 0.44086 0.78265 1.02084 0.0
O739 O 0.37424 0.88451 0.15264 0.0
O740 O 0.43717 0.9079 0.22223 0.0
H741 H 0.55544 0.8989 0.1666 0.0
H742 H 0.54601 0.88775 1.08614 0.0
C743 C 0.56698 0.87704 0.1299 0.0
H744 H 0.61459 0.87586 1.12004 0.0
H745 H 0.50168 0.92925 0.32335 0.0
O746 O 0.33501 0.7955 1.10125 0.0
C747 C 0.40103 0.91383 0.17854 0.0
Co748 Co 0.39721 0.82269 0.83716 0.0
Co749 Co 0.31604 0.85738 0.7463 0.0
C750 C 0.43296 0.8171 0.70214 0.0
O751 O 0.4412 0.8052 0.75766 0.0
O752 O 0.38578 0.83636 0.69026 0.0
C753 C 0.49771 0.7953 0.89694 0.0
O754 O 0.52545 0.7666 0.9257 0.0
C755 C 0.20434 0.85128 0.71237 0.0
C756 C 0.19095 0.91626 0.71202 0.0
C757 C 0.16503 0.8808 0.73067 0.0
N758 N 0.25345 0.8693 0.69304 0.0
N759 N 0.24335 0.9078 0.68734 0.0
C760 C 0.19901 0.80681 0.7121 0.0
H761 H 0.19173 0.79474 0.75931 0.0
H762 H 0.16244 0.79797 0.68114 0.0
H763 H 0.23976 0.79316 0.6934 0.0
C764 C 0.28691 0.78928 0.89758 0.0
N765 N 0.31659 0.80558 0.84866 0.0
N766 N 0.28212 0.83069 0.82032 0.0
C767 C 0.23344 0.83606 0.85673 0.0
C768 C 0.23055 0.80631 0.90236 0.0
C769 C 0.31554 0.76343 0.94504 0.0
H770 H 0.35039 0.74531 0.92267 0.0
H771 H 0.28271 0.74392 0.9678 0.0
H772 H 0.33636 0.78267 0.98076 0.0
O773 O 0.40273 0.8845 0.84894 0.0
O774 O 0.34035 0.90754 0.77856 0.0
H775 H 0.22181 0.89862 0.83422 0.0
H776 H 0.23109 0.88765 0.91475 0.0
C777 C 0.21023 0.87683 0.87099 0.0
H778 H 0.1626 0.87563 0.88076 0.0
H779 H 0.27572 0.9289 0.67766 0.0
O780 O 0.44235 0.79573 0.90032 0.0
C781 C 0.37611 0.91369 0.82254 0.0
Co782 Co 0.37987 1.04482 0.83712 0.0
Co783 Co 0.46104 1.01005 0.74629 0.0
C784 C 0.34412 1.05028 0.70208 0.0
O785 O 0.33587 0.06224 0.75758 0.0
O786 O 0.3913 1.03102 0.69024 0.0
C787 C 0.27942 0.07245 0.89678 0.0
O788 O 0.25177 0.10126 0.9254 0.0
C789 C 0.57267 1.01619 0.7123 0.0
C790 C 0.58617 0.95123 0.71213 0.0
C791 C 0.61202 0.98673 0.7307 0.0
N792 N 0.5236 0.99811 0.693 0.0
N793 N 0.53377 0.95961 0.68741 0.0
C794 C 0.57796 0.06067 0.71181 0.0
H795 H 0.58491 0.07286 0.75901 0.0
H796 H 0.61471 0.06945 0.68107 0.0
H797 H 0.53731 0.07425 0.69276 0.0
C798 C 0.49021 0.0782 0.89754 0.0
N799 N 0.46052 0.06189 0.84863 0.0
N800 N 0.49499 1.03677 0.8203 0.0
C801 C 0.54367 1.03141 0.85672 0.0
C802 C 0.54656 0.06118 0.90235 0.0
C803 C 0.46153 0.10402 0.94503 0.0
H804 H 0.42673 0.12218 0.92265 0.0
H805 H 0.49434 0.12349 0.9679 0.0
H806 H 0.44064 0.08476 0.98066 0.0
O807 O 0.37427 0.98301 0.84892 0.0
O808 O 0.43673 0.95992 0.7786 0.0
H809 H 0.55526 0.96883 0.83424 0.0
H810 H 0.54592 0.97983 0.91476 0.0
C811 C 0.56683 0.99063 0.87102 0.0
H812 H 0.61445 0.99181 0.88083 0.0
H813 H 0.50143 0.93848 0.67776 0.0
O814 O 0.33478 0.07191 0.90023 0.0
C815 C 0.40093 0.95382 0.82255 0.0
Co816 Co 0.62982 0.57273 0.58727 0.0
Co817 Co 0.71102 0.60735 0.49637 0.0
C818 C 0.59407 0.56709 0.45225 0.0
O819 O 0.58579 0.55525 0.50779 0.0
O820 O 0.64128 0.58631 0.44033 0.0
C821 C 0.52932 0.54537 0.64706 0.0
O822 O 0.50158 0.51666 0.67581 0.0
C823 C 0.82273 0.60126 0.46245 0.0
C824 C 0.83609 0.66623 0.46205 0.0
C825 C 0.86203 0.63079 0.48073 0.0
N826 N 0.77361 0.61925 0.4431 0.0
N827 N 0.7837 0.65776 0.43737 0.0
C828 C 0.82808 0.55678 0.46221 0.0
H829 H 0.83537 0.54473 0.50943 0.0
H830 H 0.86465 0.54794 0.43126 0.0
H831 H 0.78733 0.54312 0.44352 0.0
C832 C 0.74009 0.53929 0.6477 0.0
N833 N 0.71043 0.55559 0.59877 0.0
N834 N 0.74493 0.58068 0.57041 0.0
C835 C 0.79361 0.58602 0.60682 0.0
C836 C 0.79646 0.55629 0.65247 0.0
C837 C 0.71141 0.51349 0.69519 0.0
H838 H 0.67653 0.49539 0.67284 0.0
H839 H 0.7442 0.49397 0.71798 0.0
H840 H 0.69061 0.53277 0.73087 0.0
O841 O 0.62435 0.63454 0.59902 0.0
O842 O 0.68672 0.65753 0.52859 0.0
H843 H 0.80528 0.64858 0.58429 0.0
H844 H 0.79601 0.63763 0.66482 0.0
C845 C 0.81686 0.6268 0.62106 0.0
H846 H 0.86448 0.62557 0.63082 0.0
H847 H 0.75132 0.67884 0.42767 0.0
O848 O 0.58468 0.54579 0.65044 0.0
C849 C 0.65097 0.66371 0.57257 0.0
Co850 Co 0.64717 0.79487 0.58701 0.0
Co851 Co 0.56601 0.76002 0.49623 0.0
C852 C 0.68291 0.80028 0.45199 0.0
O853 O 0.69113 0.8123 0.50745 0.0
O854 O 0.63576 0.78096 0.44017 0.0
C855 C 0.74761 0.8225 0.64668 0.0
O856 O 0.77527 0.8513 0.67533 0.0
C857 C 0.4544 0.76616 0.46223 0.0
C858 C 0.44086 0.7012 0.46211 0.0
C859 C 0.41503 0.73672 0.48065 0.0
N860 N 0.50346 0.74807 0.44295 0.0
N861 N 0.49327 0.70956 0.43739 0.0
C862 C 0.44913 0.81064 0.4617 0.0
H863 H 0.44219 0.82285 0.50889 0.0
H864 H 0.41239 0.81942 0.43094 0.0
H865 H 0.4898 0.8242 0.44263 0.0
C866 C 0.53679 0.82822 0.64742 0.0
N867 N 0.56649 0.8119 0.59852 0.0
N868 N 0.53205 0.78675 0.57022 0.0
C869 C 0.48338 0.78138 0.60664 0.0
C870 C 0.48045 0.81116 0.65223 0.0
C871 C 0.56542 0.8541 0.69487 0.0
H872 H 0.60019 0.87226 0.67247 0.0
H873 H 0.53257 0.87356 0.7177 0.0
H874 H 0.58634 0.83488 0.73053 0.0
O875 O 0.65281 0.73305 0.59883 0.0
O876 O 0.59033 0.7099 0.52859 0.0
H877 H 0.47181 0.71879 0.58418 0.0
H878 H 0.48117 0.72981 0.66469 0.0
C879 C 0.46024 0.74059 0.62096 0.0
H880 H 0.41263 0.74177 0.63078 0.0
H881 H 0.5256 0.68843 0.42777 0.0
O882 O 0.69225 0.82197 0.65011 0.0
C883 C 0.62616 0.70384 0.57252 0.0
Co884 Co 0.63007 0.79506 0.9142 0.0
Co885 Co 0.71121 0.76005 1.00466 0.0
C886 C 0.59432 0.80044 1.04903 0.0
O887 O 0.58628 0.81275 0.9937 0.0
O888 O 0.64127 0.78086 1.06066 0.0
C889 C 0.52956 0.82257 0.85457 0.0
O890 O 0.50184 0.85132 0.82588 0.0
C891 C 0.82283 0.76631 1.03861 0.0
C892 C 0.83629 0.70135 1.03892 0.0
C893 C 0.86214 0.73682 1.02022 0.0
N894 N 0.77377 0.74827 1.05803 0.0
N895 N 0.78394 0.70978 1.06373 0.0
C896 C 0.8281 0.81079 1.03887 0.0
H897 H 0.83542 0.82286 0.99167 0.0
H898 H 0.86462 0.81966 1.06987 0.0
H899 H 0.78731 0.82442 1.05752 0.0
C900 C 0.74042 0.82841 0.8537 0.0
N901 N 0.71072 0.81204 0.90254 0.0
N902 N 0.74513 0.78682 0.93072 0.0
C903 C 0.79379 0.78149 0.89427 0.0
C904 C 0.79674 0.81134 0.84881 0.0
C905 C 0.71176 0.8543 0.8063 0.0
H906 H 0.67699 0.87244 0.82876 0.0
H907 H 0.74459 0.87377 0.78347 0.0
H908 H 0.69082 0.83508 0.77062 0.0
O909 O 0.62431 0.73319 0.90259 0.0
O910 O 0.68719 0.70987 0.97223 0.0
H911 H 0.80545 0.7189 0.91661 0.0
H912 H 0.79606 0.72995 0.83611 0.0
C913 C 0.81698 0.74073 0.87987 0.0
H914 H 0.86459 0.74194 0.87004 0.0
H915 H 0.7516 0.68868 1.0735 0.0
O916 O 0.58492 0.82207 0.85108 0.0
C917 C 0.65107 0.70389 0.92853 0.0
Co918 Co 0.64692 0.57261 0.91441 0.0
Co919 Co 0.56584 0.60781 1.0048 0.0
C920 C 0.68268 0.5674 1.04925 0.0
O921 O 0.69065 0.55496 0.99397 0.0
O922 O 0.63579 0.58706 1.06083 0.0
C923 C 0.74738 0.54485 0.85488 0.0
O924 O 0.77502 0.51602 0.82629 0.0
C925 C 0.4543 0.60153 1.03884 0.0
C926 C 0.4407 0.66648 1.03882 0.0
C927 C 0.41494 0.63094 1.02028 0.0
N928 N 0.50331 0.61966 1.05817 0.0
N929 N 0.49307 0.65816 1.06366 0.0
C930 C 0.44905 0.55705 1.03949 0.0
H931 H 0.44216 0.54479 0.99232 0.0
H932 H 0.41227 0.5483 1.07022 0.0
H933 H 0.4897 0.54352 1.05864 0.0
C934 C 0.53645 0.5393 0.85399 0.0
N935 N 0.56621 0.55571 0.90278 0.0
N936 N 0.53185 0.58098 0.93092 0.0
C937 C 0.48319 0.5863 0.89448 0.0
C938 C 0.48011 0.55636 0.84914 0.0
C939 C 0.56506 0.51336 0.80661 0.0
H940 H 0.59975 0.49517 0.8291 0.0
H941 H 0.53219 0.49394 0.78374 0.0
H942 H 0.58611 0.53254 0.77097 0.0
O943 O 0.65284 0.63447 0.90272 0.0
O944 O 0.58989 0.65792 0.97224 0.0
H945 H 0.47164 0.64893 0.91666 0.0
H946 H 0.48108 0.63776 0.8362 0.0
C947 C 0.4601 0.62707 0.87996 0.0
H948 H 0.41249 0.6259 0.8701 0.0
H949 H 0.52536 0.67931 1.07335 0.0
O950 O 0.69202 0.54544 0.85137 0.0
C951 C 0.62606 0.66381 0.92857 0.0
Co952 Co 0.39696 0.54511 0.66428 0.0
Co953 Co 0.31584 0.51006 0.75475 0.0
C954 C 0.43269 0.55046 0.79915 0.0
O955 O 0.44073 0.56277 0.74382 0.0
O956 O 0.38573 0.53088 0.81078 0.0
C957 C 0.49747 0.57265 0.6047 0.0
O958 O 0.5252 0.6014 0.57602 0.0
C959 C 0.20422 0.51627 0.78869 0.0
C960 C 0.19072 0.4513 0.78888 0.0
C961 C 0.16489 0.48679 0.77025 0.0
N962 N 0.25327 0.4982 0.80806 0.0
N963 N 0.24309 0.4597 0.81367 0.0
C964 C 0.19897 0.56075 0.789 0.0
H965 H 0.19166 0.57284 0.74181 0.0
H966 H 0.16245 0.56961 0.82 0.0
H967 H 0.23977 0.57435 0.80767 0.0
C968 C 0.2866 0.57844 0.60381 0.0
N969 N 0.3163 0.56207 0.65265 0.0
N970 N 0.28191 0.53683 0.68081 0.0
C971 C 0.23326 0.53149 0.64435 0.0
C972 C 0.23029 0.56135 0.59891 0.0
C973 C 0.31524 0.60434 0.55642 0.0
H974 H 0.35 0.6225 0.57889 0.0
H975 H 0.2824 0.6238 0.53359 0.0
H976 H 0.3362 0.58514 0.52075 0.0
O977 O 0.40274 0.48326 0.65256 0.0
O978 O 0.33995 0.45992 0.7223 0.0
H979 H 0.22163 0.4689 0.66666 0.0
H980 H 0.23103 0.47997 0.58617 0.0
C981 C 0.2101 0.49073 0.62993 0.0
H982 H 0.16248 0.49193 0.6201 0.0
H983 H 0.27542 0.43858 0.82337 0.0
O984 O 0.44211 0.57215 0.60121 0.0
C985 C 0.37602 0.45395 0.67855 0.0
Co986 Co 0.37991 0.32278 0.66399 0.0
Co987 Co 0.46107 0.35765 0.75468 0.0
C988 C 0.34413 0.31737 0.79894 0.0
O989 O 0.33597 0.30526 0.74351 0.0
O990 O 0.39123 0.33676 0.8107 0.0
C991 C 0.27946 0.29514 0.60432 0.0
O992 O 0.25182 0.26633 0.5757 0.0
C993 C 0.57266 0.35142 0.7887 0.0
C994 C 0.58618 0.41638 0.78894 0.0
C995 C 0.61201 0.38088 0.77031 0.0
N996 N 0.52361 0.3695 0.80804 0.0
N997 N 0.5338 0.40799 0.81369 0.0
C998 C 0.57796 0.30694 0.78918 0.0
H999 H 0.58491 0.29476 0.74197 0.0
H1000 H 0.6147 0.29816 0.81993 0.0
H1001 H 0.53729 0.29337 0.80822 0.0
C1002 C 0.49026 0.28942 0.60353 0.0
N1003 N 0.46057 0.30575 0.65243 0.0
N1004 N 0.49502 0.33091 0.68071 0.0
C1005 C 0.54369 0.33625 0.64428 0.0
C1006 C 0.54661 0.30646 0.5987 0.0
C1007 C 0.46159 0.26357 0.55607 0.0
H1008 H 0.42681 0.24541 0.57847 0.0
H1009 H 0.49441 0.24411 0.5332 0.0
H1010 H 0.44066 0.28282 0.52044 0.0
O1011 O 0.37423 0.38461 0.65231 0.0
O1012 O 0.43691 0.40781 0.72231 0.0
H1013 H 0.55533 0.39883 0.66674 0.0
H1014 H 0.54595 0.38782 0.58622 0.0
C1015 C 0.56687 0.37703 0.62996 0.0
H1016 H 0.61449 0.37583 0.62014 0.0
H1017 H 0.50147 0.42911 0.8234 0.0
O1018 O 0.33482 0.2957 0.60087 0.0
C1019 C 0.40096 0.41385 0.67848 0.0
Co1020 Co 0.397 0.32254 0.33679 0.0
Co1021 Co 0.31587 0.35754 0.24626 0.0
C1022 C 0.43273 0.31717 0.20189 0.0
O1023 O 0.4408 0.30491 0.25724 0.0
O1024 O 0.38574 0.3367 0.19023 0.0
C1025 C 0.4975 0.29501 0.39641 0.0
O1026 O 0.52523 0.26629 0.42512 0.0
C1027 C 0.20424 0.35135 0.21231 0.0
C1028 C 0.19075 0.41632 0.21212 0.0
C1029 C 0.16491 0.38083 0.23074 0.0
N1030 N 0.2533 0.36942 0.19296 0.0
N1031 N 0.24313 0.40792 0.18734 0.0
C1032 C 0.19899 0.30687 0.21201 0.0
H1033 H 0.19168 0.29479 0.2592 0.0
H1034 H 0.16248 0.29801 0.181 0.0
H1035 H 0.2398 0.29327 0.19336 0.0
C1036 C 0.28663 0.2892 0.39725 0.0
N1037 N 0.31634 0.30556 0.3484 0.0
N1038 N 0.28194 0.33078 0.32021 0.0
C1039 C 0.23329 0.33613 0.35665 0.0
C1040 C 0.23032 0.3063 0.40213 0.0
C1041 C 0.31524 0.26329 0.44464 0.0
H1042 H 0.35001 0.24514 0.42219 0.0
H1043 H 0.28238 0.24382 0.46743 0.0
H1044 H 0.33617 0.28248 0.48035 0.0
O1045 O 0.40274 0.38438 0.34852 0.0
O1046 O 0.34001 0.40768 0.2787 0.0
H1047 H 0.22168 0.39873 0.33431 0.0
H1048 H 0.23107 0.38767 0.4148 0.0
C1049 C 0.21014 0.37691 0.37105 0.0
H1050 H 0.16252 0.37572 0.38088 0.0
H1051 H 0.27546 0.42904 0.17766 0.0
O1052 O 0.44214 0.2955 0.39987 0.0
C1053 C 0.37604 0.41367 0.32248 0.0
Co1054 Co 0.37987 0.54483 0.33708 0.0
Co1055 Co 0.46104 0.50999 0.24634 0.0
C1056 C 0.34409 0.55025 0.20211 0.0
O1057 O 0.3359 0.56232 0.25756 0.0
O1058 O 0.39122 0.5309 0.19032 0.0
C1059 C 0.27942 0.57243 0.3968 0.0
O1060 O 0.25178 0.60122 0.42548 0.0
C1061 C 0.57264 0.51621 0.21231 0.0
C1062 C 0.58615 0.45124 0.21206 0.0
C1063 C 0.61199 0.48674 0.23068 0.0
N1064 N 0.52358 0.49813 0.19298 0.0
N1065 N 0.53376 0.45964 0.18734 0.0
C1066 C 0.57794 0.56068 0.21182 0.0
H1067 H 0.5849 0.57287 0.25903 0.0
H1068 H 0.61469 0.56946 0.18107 0.0
H1069 H 0.53728 0.57426 0.19278 0.0
C1070 C 0.49023 0.57819 0.39753 0.0
N1071 N 0.46054 0.56187 0.34862 0.0
N1072 N 0.49499 0.53673 0.32032 0.0
C1073 C 0.54367 0.53137 0.35673 0.0
C1074 C 0.54658 0.56115 0.40234 0.0
C1075 C 0.46159 0.60406 0.44499 0.0
H1076 H 0.4268 0.62221 0.42259 0.0
H1077 H 0.49443 0.62353 0.46781 0.0
H1078 H 0.44069 0.58482 0.48065 0.0
O1079 O 0.37423 0.483 0.34877 0.0
O1080 O 0.43686 0.45984 0.27869 0.0
H1081 H 0.55529 0.4688 0.33424 0.0
H1082 H 0.54592 0.47979 0.41476 0.0
C1083 C 0.56684 0.49059 0.37103 0.0
H1084 H 0.61446 0.49178 0.38084 0.0
H1085 H 0.50142 0.43852 0.17764 0.0
O1086 O 0.33479 0.57189 0.40023 0.0
C1087 C 0.40095 0.45378 0.32255 0.0
loop_
_geom_bond_atom_site_label_1
_geom_bond_atom_site_label_2
_geom_bond_distance
_geom_bond_site_symmetry_2
_ccdc_geom_bond_type
Co0 O3 1.970 . S
Co0 N17 1.989 . S
Co0 O25 1.967 . S
Co0 O32 1.920 . S
Co1 O4 1.966 . S
Co1 N10 2.022 . S
Co1 N18 1.993 . S
Co1 O26 1.941 . S
C2 O3 1.258 . S
C2 O4 1.263 . S
O3 Co0 1.970 . S
O3 C2 1.258 . S
O4 Co1 1.966 . S
O4 C2 1.263 . S
C5 O6 1.235 . S
C5 O32 1.289 1_565 S
O6 C5 1.235 . S
C7 C9 1.400 . S
C7 N10 1.351 . S
C7 C12 1.501 . S
C8 C9 1.387 . S
C8 N11 1.341 . S
C9 C7 1.400 . S
C9 C8 1.387 . S
N10 Co1 2.022 . S
N10 C7 1.351 . S
N10 N11 1.365 . S
N11 C8 1.341 . S
N11 N10 1.365 . S
N11 H31 0.862 . S
C12 C7 1.501 . S
C12 H13 0.961 . S
C12 H14 0.961 1_545 S
C12 H15 0.960 . S
H13 C12 0.961 . S
H14 C12 0.961 1_565 S
H15 C12 0.960 . S
C16 N17 1.342 . S
C16 C20 1.399 1_545 S
C16 C21 1.499 1_545 S
N17 Co0 1.989 . S
N17 C16 1.342 . S
N17 N18 1.388 . S
N18 Co1 1.993 . S
N18 N17 1.388 . S
N18 C19 1.346 . S
C19 N18 1.346 . S
C19 C20 1.389 1_545 S
C19 C29 1.510 . S
C20 C16 1.399 1_565 S
C20 C19 1.389 1_565 S
C21 C16 1.499 1_565 S
C21 H22 0.959 1_565 S
C21 H23 0.960 . S
C21 H24 0.961 1_565 S
H22 C21 0.959 1_545 S
H23 C21 0.960 . S
H24 C21 0.961 1_545 S
O25 Co0 1.967 . S
O25 C33 1.258 . S
O26 Co1 1.941 . S
O26 C33 1.266 . S
H27 C29 0.959 . S
H28 C29 0.961 1_565 S
C29 C19 1.510 . S
C29 H27 0.959 . S
C29 H28 0.961 1_545 S
C29 H30 0.960 . S
H30 C29 0.960 . S
H31 N11 0.862 . S
O32 Co0 1.920 . S
O32 C5 1.289 1_545 S
C33 O25 1.258 . S
C33 O26 1.266 . S
Co34 O37 1.970 . S
Co34 N51 1.989 . S
Co34 O59 1.967 . S
Co34 O66 1.920 . S
Co35 O38 1.966 . S
Co35 N44 2.022 1_455 S
Co35 N52 1.993 . S
Co35 O60 1.941 . S
C36 O37 1.258 . S
C36 O38 1.263 . S
O37 Co34 1.970 . S
O37 C36 1.258 . S
O38 Co35 1.966 . S
O38 C36 1.263 . S
C39 O40 1.235 . S
C39 O66 1.289 . S
O40 C39 1.235 . S
C41 C43 1.400 . S
C41 N44 1.351 . S
C41 C46 1.501 . S
C42 C43 1.387 . S
C42 N45 1.341 . S
C43 C41 1.400 . S
C43 C42 1.387 . S
N44 Co35 2.022 1_655 S
N44 C41 1.351 . S
N44 N45 1.365 . S
N45 C42 1.341 . S
N45 N44 1.365 . S
N45 H65 0.862 . S
C46 C41 1.501 . S
C46 H47 0.961 1_655 S
C46 H48 0.961 . S
C46 H49 0.960 . S
H47 C46 0.961 1_455 S
H48 C46 0.961 . S
H49 C46 0.960 . S
C50 N51 1.342 . S
C50 C54 1.401 . S
C50 C55 1.499 . S
N51 Co34 1.989 . S
N51 C50 1.342 . S
N51 N52 1.388 . S
N52 Co35 1.993 . S
N52 N51 1.388 . S
N52 C53 1.346 1_455 S
C53 N52 1.346 1_655 S
C53 C54 1.396 1_655 S
C53 C63 1.510 . S
C54 C50 1.401 . S
C54 C53 1.396 1_455 S
C55 C50 1.499 . S
C55 H56 0.959 . S
C55 H57 0.960 . S
C55 H58 0.961 . S
H56 C55 0.959 . S
H57 C55 0.960 . S
H58 C55 0.961 . S
O59 Co34 1.967 . S
O59 C67 1.258 . S
O60 Co35 1.941 . S
O60 C67 1.266 . S
H61 C63 0.959 . S
H62 C63 0.961 . S
C63 C53 1.510 . S
C63 H61 0.959 . S
C63 H62 0.961 . S
C63 H64 0.960 . S
H64 C63 0.960 . S
H65 N45 0.862 . S
O66 Co34 1.920 . S
O66 C39 1.289 . S
C67 O59 1.258 . S
C67 O60 1.266 . S
Co68 O71 1.970 . S
Co68 N85 1.989 . S
Co68 O93 1.967 . S
Co68 O100 1.920 . S
Co69 O72 1.966 . S
Co69 N78 2.022 . S
Co69 N86 1.993 . S
Co69 O94 1.941 . S
C70 O71 1.258 . S
C70 O72 1.263 . S
O71 Co68 1.970 . S
O71 C70 1.258 . S
O72 Co69 1.966 . S
O72 C70 1.263 . S
C73 O74 1.235 . S
C73 O100 1.289 . S
O74 C73 1.235 . S
C75 C77 1.400 . S
C75 N78 1.351 . S
C75 C80 1.501 . S
C76 C77 1.387 . S
C76 N79 1.341 . S
C77 C75 1.400 . S
C77 C76 1.387 . S
N78 Co69 2.022 . S
N78 C75 1.351 . S
N78 N79 1.365 . S
N79 C76 1.341 . S
N79 N78 1.365 . S
N79 H99 0.862 . S
C80 C75 1.501 . S
C80 H81 0.961 . S
C80 H82 0.961 . S
C80 H83 0.960 . S
H81 C80 0.961 . S
H82 C80 0.961 . S
H83 C80 0.960 . S
C84 N85 1.342 . S
C84 C88 1.401 . S
C84 C89 1.499 . S
N85 Co68 1.989 . S
N85 C84 1.342 . S
N85 N86 1.388 . S
N86 Co69 1.993 . S
N86 N85 1.388 . S
N86 C87 1.346 . S
C87 N86 1.346 . S
C87 C88 1.396 . S
C87 C97 1.510 . S
C88 C84 1.401 . S
C88 C87 1.396 . S
C89 C84 1.499 . S
C89 H90 0.959 . S
C89 H91 0.960 . S
C89 H92 0.961 . S
H90 C89 0.959 . S
H91 C89 0.960 . S
H92 C89 0.961 . S
O93 Co68 1.967 . S
O93 C101 1.258 . S
O94 Co69 1.941 . S
O94 C101 1.266 . S
H95 C97 0.959 . S
H96 C97 0.961 . S
C97 C87 1.510 . S
C97 H95 0.959 . S
C97 H96 0.961 . S
C97 H98 0.960 . S
H98 C97 0.960 . S
H99 N79 0.862 . S
O100 Co68 1.920 . S
O100 C73 1.289 . S
C101 O93 1.258 . S
C101 O94 1.266 . S
Co102 O105 1.970 . S
Co102 N119 1.989 . S
Co102 O127 1.967 . S
Co102 O134 1.920 . S
Co103 O106 1.966 . S
Co103 N112 2.022 1_455 S
Co103 N120 1.993 . S
Co103 O128 1.941 . S
C104 O105 1.258 . S
C104 O106 1.263 . S
O105 Co102 1.970 . S
O105 C104 1.258 . S
O106 Co103 1.966 . S
O106 C104 1.263 . S
C107 O108 1.235 . S
C107 O134 1.289 1_565 S
O108 C107 1.235 . S
C109 C111 1.400 . S
C109 N112 1.351 . S
C109 C114 1.501 . S
C110 C111 1.387 . S
C110 N113 1.341 . S
C111 C109 1.400 . S
C111 C110 1.387 . S
N112 Co103 2.022 1_655 S
N112 C109 1.351 . S
N112 N113 1.365 . S
N113 C110 1.341 . S
N113 N112 1.365 . S
N113 H133 0.862 . S
C114 C109 1.501 . S
C114 H115 0.961 1_655 S
C114 H116 0.961 1_545 S
C114 H117 0.960 . S
H115 C114 0.961 1_455 S
H116 C114 0.961 1_565 S
H117 C114 0.960 . S
C118 N119 1.342 . S
C118 C122 1.399 1_545 S
C118 C123 1.499 1_545 S
N119 Co102 1.989 . S
N119 C118 1.342 . S
N119 N120 1.388 . S
N120 Co103 1.993 . S
N120 N119 1.388 . S
N120 C121 1.346 1_455 S
C121 N120 1.346 1_655 S
C121 C122 1.389 1_645 S
C121 C131 1.510 . S
C122 C118 1.399 1_565 S
C122 C121 1.389 1_465 S
C123 C118 1.499 1_565 S
C123 H124 0.959 1_565 S
C123 H125 0.960 . S
C123 H126 0.961 1_565 S
H124 C123 0.959 1_545 S
H125 C123 0.960 . S
H126 C123 0.961 1_545 S
O127 Co102 1.967 . S
O127 C135 1.258 . S
O128 Co103 1.941 . S
O128 C135 1.266 . S
H129 C131 0.959 . S
H130 C131 0.961 1_565 S
C131 C121 1.510 . S
C131 H129 0.959 . S
C131 H130 0.961 1_545 S
C131 H132 0.960 . S
H132 C131 0.960 . S
H133 N113 0.862 . S
O134 Co102 1.920 . S
O134 C107 1.289 1_545 S
C135 O127 1.258 . S
C135 O128 1.266 . S
Co136 O139 1.970 . S
Co136 N153 1.989 . S
Co136 O161 1.967 . S
Co136 O168 1.920 . S
Co137 O140 1.966 . S
Co137 N146 2.022 . S
Co137 N154 1.993 . S
Co137 O162 1.941 . S
C138 O139 1.258 . S
C138 O140 1.263 . S
O139 Co136 1.970 . S
O139 C138 1.258 . S
O140 Co137 1.966 . S
O140 C138 1.263 . S
C141 O142 1.235 . S
C141 O168 1.289 1_545 S
O142 C141 1.235 . S
C143 C145 1.400 . S
C143 N146 1.351 . S
C143 C148 1.501 . S
C144 C145 1.387 . S
C144 N147 1.341 . S
C145 C143 1.400 . S
C145 C144 1.387 . S
N146 Co137 2.022 . S
N146 C143 1.351 . S
N146 N147 1.365 . S
N147 C144 1.341 . S
N147 N146 1.365 . S
N147 H167 0.862 . S
C148 C143 1.501 . S
C148 H149 0.961 . S
C148 H150 0.961 1_565 S
C148 H151 0.960 . S
H149 C148 0.961 . S
H150 C148 0.961 1_545 S
H151 C148 0.960 . S
C152 N153 1.342 . S
C152 C156 1.399 1_565 S
C152 C157 1.499 1_565 S
N153 Co136 1.989 . S
N153 C152 1.342 . S
N153 N154 1.388 . S
N154 Co137 1.993 . S
N154 N153 1.388 . S
N154 C155 1.346 . S
C155 N154 1.346 . S
C155 C156 1.389 1_565 S
C155 C165 1.510 . S
C156 C152 1.399 1_545 S
C156 C155 1.389 1_545 S
C157 C152 1.499 1_545 S
C157 H158 0.959 1_545 S
C157 H159 0.960 . S
C157 H160 0.961 1_545 S
H158 C157 0.959 1_565 S
H159 C157 0.960 . S
H160 C157 0.961 1_565 S
O161 Co136 1.967 . S
O161 C169 1.258 . S
O162 Co137 1.941 . S
O162 C169 1.266 . S
H163 C165 0.959 . S
H164 C165 0.961 1_545 S
C165 C155 1.510 . S
C165 H163 0.959 . S
C165 H164 0.961 1_565 S
C165 H166 0.960 . S
H166 C165 0.960 . S
H167 N147 0.862 . S
O168 Co136 1.920 . S
O168 C141 1.289 1_565 S
C169 O161 1.258 . S
C169 O162 1.266 . S
Co170 O173 1.970 . S
Co170 N187 1.989 . S
Co170 O195 1.967 . S
Co170 O202 1.920 . S
Co171 O174 1.966 . S
Co171 N180 2.022 1_655 S
Co171 N188 1.993 . S
Co171 O196 1.941 . S
C172 O173 1.258 . S
C172 O174 1.263 . S
O173 Co170 1.970 . S
O173 C172 1.258 . S
O174 Co171 1.966 . S
O174 C172 1.263 . S
C175 O176 1.235 . S
C175 O202 1.289 . S
O176 C175 1.235 . S
C177 C179 1.400 . S
C177 N180 1.351 . S
C177 C182 1.501 . S
C178 C179 1.387 . S
C178 N181 1.341 . S
C179 C177 1.400 . S
C179 C178 1.387 . S
N180 Co171 2.022 1_455 S
N180 C177 1.351 . S
N180 N181 1.365 . S
N181 C178 1.341 . S
N181 N180 1.365 . S
N181 H201 0.862 . S
C182 C177 1.501 . S
C182 H183 0.961 1_455 S
C182 H184 0.961 . S
C182 H185 0.960 . S
H183 C182 0.961 1_655 S
H184 C182 0.961 . S
H185 C182 0.960 . S
C186 N187 1.342 . S
C186 C190 1.401 . S
C186 C191 1.499 . S
N187 Co170 1.989 . S
N187 C186 1.342 . S
N187 N188 1.388 . S
N188 Co171 1.993 . S
N188 N187 1.388 . S
N188 C189 1.346 1_655 S
C189 N188 1.346 1_455 S
C189 C190 1.396 1_455 S
C189 C199 1.510 . S
C190 C186 1.401 . S
C190 C189 1.396 1_655 S
C191 C186 1.499 . S
C191 H192 0.959 . S
C191 H193 0.960 . S
C191 H194 0.961 . S
H192 C191 0.959 . S
H193 C191 0.960 . S
H194 C191 0.961 . S
O195 Co170 1.967 . S
O195 C203 1.258 . S
O196 Co171 1.941 . S
O196 C203 1.266 . S
H197 C199 0.959 . S
H198 C199 0.961 . S
C199 C189 1.510 . S
C199 H197 0.959 . S
C199 H198 0.961 . S
C199 H200 0.960 . S
H200 C199 0.960 . S
H201 N181 0.862 . S
O202 Co170 1.920 . S
O202 C175 1.289 . S
C203 O195 1.258 . S
C203 O196 1.266 . S
Co204 O207 1.970 . S
Co204 N221 1.989 . S
Co204 O229 1.967 . S
Co204 O236 1.920 . S
Co205 O208 1.966 . S
Co205 N214 2.022 . S
Co205 N222 1.993 . S
Co205 O230 1.941 . S
C206 O207 1.258 . S
C206 O208 1.263 . S
O207 Co204 1.970 . S
O207 C206 1.258 . S
O208 Co205 1.966 . S
O208 C206 1.263 . S
C209 O210 1.235 . S
C209 O236 1.289 . S
O210 C209 1.235 . S
C211 C213 1.400 . S
C211 N214 1.351 . S
C211 C216 1.501 . S
C212 C213 1.387 . S
C212 N215 1.341 . S
C213 C211 1.400 . S
C213 C212 1.387 . S
N214 Co205 2.022 . S
N214 C211 1.351 . S
N214 N215 1.365 . S
N215 C212 1.341 . S
N215 N214 1.365 . S
N215 H235 0.862 . S
C216 C211 1.501 . S
C216 H217 0.961 . S
C216 H218 0.961 . S
C216 H219 0.960 . S
H217 C216 0.961 . S
H218 C216 0.961 . S
H219 C216 0.960 . S
C220 N221 1.342 . S
C220 C224 1.401 . S
C220 C225 1.499 . S
N221 Co204 1.989 . S
N221 C220 1.342 . S
N221 N222 1.388 . S
N222 Co205 1.993 . S
N222 N221 1.388 . S
N222 C223 1.346 . S
C223 N222 1.346 . S
C223 C224 1.396 . S
C223 C233 1.510 . S
C224 C220 1.401 . S
C224 C223 1.396 . S
C225 C220 1.499 . S
C225 H226 0.959 . S
C225 H227 0.960 . S
C225 H228 0.961 . S
H226 C225 0.959 . S
H227 C225 0.960 . S
H228 C225 0.961 . S
O229 Co204 1.967 . S
O229 C237 1.258 . S
O230 Co205 1.941 . S
O230 C237 1.266 . S
H231 C233 0.959 . S
H232 C233 0.961 . S
C233 C223 1.510 . S
C233 H231 0.959 . S
C233 H232 0.961 . S
C233 H234 0.960 . S
H234 C233 0.960 . S
H235 N215 0.862 . S
O236 Co204 1.920 . S
O236 C209 1.289 . S
C237 O229 1.258 . S
C237 O230 1.266 . S
Co238 O241 1.970 . S
Co238 N255 1.989 . S
Co238 O263 1.967 . S
Co238 O270 1.920 . S
Co239 O242 1.966 . S
Co239 N248 2.022 1_655 S
Co239 N256 1.993 . S
Co239 O264 1.941 . S
C240 O241 1.258 . S
C240 O242 1.263 . S
O241 Co238 1.970 . S
O241 C240 1.258 . S
O242 Co239 1.966 . S
O242 C240 1.263 . S
C243 O244 1.235 . S
C243 O270 1.289 1_545 S
O244 C243 1.235 . S
C245 C247 1.400 . S
C245 N248 1.351 . S
C245 C250 1.501 . S
C246 C247 1.387 . S
C246 N249 1.341 . S
C247 C245 1.400 . S
C247 C246 1.387 . S
N248 Co239 2.022 1_455 S
N248 C245 1.351 . S
N248 N249 1.365 . S
N249 C246 1.341 . S
N249 N248 1.365 . S
N249 H269 0.862 . S
C250 C245 1.501 . S
C250 H251 0.961 1_455 S
C250 H252 0.961 1_565 S
C250 H253 0.960 . S
H251 C250 0.961 1_655 S
H252 C250 0.961 1_545 S
H253 C250 0.960 . S
C254 N255 1.342 . S
C254 C258 1.399 1_565 S
C254 C259 1.499 1_565 S
N255 Co238 1.989 . S
N255 C254 1.342 . S
N255 N256 1.388 . S
N256 Co239 1.993 . S
N256 N255 1.388 . S
N256 C257 1.346 1_655 S
C257 N256 1.346 1_455 S
C257 C258 1.389 1_465 S
C257 C267 1.510 . S
C258 C254 1.399 1_545 S
C258 C257 1.389 1_645 S
C259 C254 1.499 1_545 S
C259 H260 0.959 1_545 S
C259 H261 0.960 . S
C259 H262 0.961 1_545 S
H260 C259 0.959 1_565 S
H261 C259 0.960 . S
H262 C259 0.961 1_565 S
O263 Co238 1.967 . S
O263 C271 1.258 . S
O264 Co239 1.941 . S
O264 C271 1.266 . S
H265 C267 0.959 . S
H266 C267 0.961 1_545 S
C267 C257 1.510 . S
C267 H265 0.959 . S
C267 H266 0.961 1_565 S
C267 H268 0.960 . S
H268 C267 0.960 . S
H269 N249 0.862 . S
O270 Co238 1.920 . S
O270 C243 1.289 1_565 S
C271 O263 1.258 . S
C271 O264 1.266 . S
Co272 O275 1.970 . S
Co272 N289 1.989 1_556 S
Co272 O297 1.967 . S
Co272 O304 1.920 1_556 S
Co273 O276 1.966 . S
Co273 N282 2.022 . S
Co273 N290 1.993 . S
Co273 O298 1.941 . S
C274 O275 1.258 . S
C274 O276 1.263 . S
O275 Co272 1.970 . S
O275 C274 1.258 . S
O276 Co273 1.966 . S
O276 C274 1.263 . S
C277 O278 1.235 . S
C277 O304 1.289 . S
O278 C277 1.235 . S
C279 C281 1.400 . S
C279 N282 1.351 . S
C279 C284 1.501 . S
C280 C281 1.387 . S
C280 N283 1.341 . S
C281 C279 1.400 . S
C281 C280 1.387 . S
N282 Co273 2.022 . S
N282 C279 1.351 . S
N282 N283 1.365 . S
N283 C280 1.341 . S
N283 N282 1.365 . S
N283 H303 0.862 . S
C284 C279 1.501 . S
C284 H285 0.961 . S
C284 H286 0.961 . S
C284 H287 0.960 . S
H285 C284 0.961 . S
H286 C284 0.961 . S
H287 C284 0.960 . S
C288 N289 1.342 . S
C288 C292 1.401 . S
C288 C293 1.499 . S
N289 Co272 1.989 1_554 S
N289 C288 1.342 . S
N289 N290 1.388 1_554 S
N290 Co273 1.993 . S
N290 N289 1.388 1_556 S
N290 C291 1.346 1_556 S
C291 N290 1.346 1_554 S
C291 C292 1.396 . S
C291 C301 1.510 1_554 S
C292 C288 1.401 . S
C292 C291 1.396 . S
C293 C288 1.499 . S
C293 H294 0.959 . S
C293 H295 0.960 . S
C293 H296 0.961 . S
H294 C293 0.959 . S
H295 C293 0.960 . S
H296 C293 0.961 . S
O297 Co272 1.967 . S
O297 C305 1.258 . S
O298 Co273 1.941 . S
O298 C305 1.266 . S
H299 C301 0.959 1_554 S
H300 C301 0.961 . S
C301 C291 1.510 1_556 S
C301 H299 0.959 1_556 S
C301 H300 0.961 . S
C301 H302 0.960 . S
H302 C301 0.960 . S
H303 N283 0.862 . S
O304 Co272 1.920 1_554 S
O304 C277 1.289 . S
C305 O297 1.258 . S
C305 O298 1.266 . S
Co306 O309 1.970 . S
Co306 N323 1.989 1_556 S
Co306 O331 1.967 . S
Co306 O338 1.920 1_556 S
Co307 O310 1.966 . S
Co307 N316 2.022 1_455 S
Co307 N324 1.993 . S
Co307 O332 1.941 . S
C308 O309 1.258 . S
C308 O310 1.263 . S
O309 Co306 1.970 . S
O309 C308 1.258 . S
O310 Co307 1.966 . S
O310 C308 1.263 . S
C311 O312 1.235 . S
C311 O338 1.289 . S
O312 C311 1.235 . S
C313 C315 1.400 . S
C313 N316 1.351 . S
C313 C318 1.501 . S
C314 C315 1.387 . S
C314 N317 1.341 . S
C315 C313 1.400 . S
C315 C314 1.387 . S
N316 Co307 2.022 1_655 S
N316 C313 1.351 . S
N316 N317 1.365 . S
N317 C314 1.341 . S
N317 N316 1.365 . S
N317 H337 0.862 . S
C318 C313 1.501 . S
C318 H319 0.961 1_655 S
C318 H320 0.961 . S
C318 H321 0.960 . S
H319 C318 0.961 1_455 S
H320 C318 0.961 . S
H321 C318 0.960 . S
C322 N323 1.342 . S
C322 C326 1.401 . S
C322 C327 1.499 . S
N323 Co306 1.989 1_554 S
N323 C322 1.342 . S
N323 N324 1.388 1_554 S
N324 Co307 1.993 . S
N324 N323 1.388 1_556 S
N324 C325 1.346 1_456 S
C325 N324 1.346 1_654 S
C325 C326 1.396 1_655 S
C325 C335 1.510 1_554 S
C326 C322 1.401 . S
C326 C325 1.396 1_455 S
C327 C322 1.499 . S
C327 H328 0.959 . S
C327 H329 0.960 . S
C327 H330 0.961 . S
H328 C327 0.959 . S
H329 C327 0.960 . S
H330 C327 0.961 . S
O331 Co306 1.967 . S
O331 C339 1.258 . S
O332 Co307 1.941 . S
O332 C339 1.266 . S
H333 C335 0.959 1_554 S
H334 C335 0.961 . S
C335 C325 1.510 1_556 S
C335 H333 0.959 1_556 S
C335 H334 0.961 . S
C335 H336 0.960 . S
H336 C335 0.960 . S
H337 N317 0.862 . S
O338 Co306 1.920 1_554 S
O338 C311 1.289 . S
C339 O331 1.258 . S
C339 O332 1.266 . S
Co340 O343 1.970 . S
Co340 N357 1.989 . S
Co340 O365 1.967 . S
Co340 O372 1.920 . S
Co341 O344 1.966 . S
Co341 N350 2.022 . S
Co341 N358 1.993 . S
Co341 O366 1.941 . S
C342 O343 1.258 . S
C342 O344 1.263 . S
O343 Co340 1.970 . S
O343 C342 1.258 . S
O344 Co341 1.966 . S
O344 C342 1.263 . S
C345 O346 1.235 . S
C345 O372 1.289 . S
O346 C345 1.235 . S
C347 C349 1.400 . S
C347 N350 1.351 . S
C347 C352 1.501 . S
C348 C349 1.387 . S
C348 N351 1.341 . S
C349 C347 1.400 . S
C349 C348 1.387 . S
N350 Co341 2.022 . S
N350 C347 1.351 . S
N350 N351 1.365 . S
N351 C348 1.341 . S
N351 N350 1.365 . S
N351 H371 0.862 . S
C352 C347 1.501 . S
C352 H353 0.961 . S
C352 H354 0.961 . S
C352 H355 0.960 . S
H353 C352 0.961 . S
H354 C352 0.961 . S
H355 C352 0.960 . S
C356 N357 1.342 . S
C356 C360 1.401 . S
C356 C361 1.499 . S
N357 Co340 1.989 . S
N357 C356 1.342 . S
N357 N358 1.388 . S
N358 Co341 1.993 . S
N358 N357 1.388 . S
N358 C359 1.346 . S
C359 N358 1.346 . S
C359 C360 1.396 . S
C359 C369 1.510 . S
C360 C356 1.401 . S
C360 C359 1.396 . S
C361 C356 1.499 . S
C361 H362 0.959 . S
C361 H363 0.960 . S
C361 H364 0.961 . S
H362 C361 0.959 . S
H363 C361 0.960 . S
H364 C361 0.961 . S
O365 Co340 1.967 . S
O365 C373 1.258 . S
O366 Co341 1.941 . S
O366 C373 1.266 . S
H367 C369 0.959 . S
H368 C369 0.961 . S
C369 C359 1.510 . S
C369 H367 0.959 . S
C369 H368 0.961 . S
C369 H370 0.960 . S
H370 C369 0.960 . S
H371 N351 0.862 . S
O372 Co340 1.920 . S
O372 C345 1.289 . S
C373 O365 1.258 . S
C373 O366 1.266 . S
Co374 O377 1.970 . S
Co374 N391 1.989 . S
Co374 O399 1.967 . S
Co374 O406 1.920 . S
Co375 O378 1.966 . S
Co375 N384 2.022 1_455 S
Co375 N392 1.993 . S
Co375 O400 1.941 . S
C376 O377 1.258 . S
C376 O378 1.263 . S
O377 Co374 1.970 . S
O377 C376 1.258 . S
O378 Co375 1.966 . S
O378 C376 1.263 . S
C379 O380 1.235 . S
C379 O406 1.289 . S
O380 C379 1.235 . S
C381 C383 1.400 . S
C381 N384 1.351 . S
C381 C386 1.501 . S
C382 C383 1.387 . S
C382 N385 1.341 . S
C383 C381 1.400 . S
C383 C382 1.387 . S
N384 Co375 2.022 1_655 S
N384 C381 1.351 . S
N384 N385 1.365 . S
N385 C382 1.341 . S
N385 N384 1.365 . S
N385 H405 0.862 . S
C386 C381 1.501 . S
C386 H387 0.961 1_655 S
C386 H388 0.961 . S
C386 H389 0.960 . S
H387 C386 0.961 1_455 S
H388 C386 0.961 . S
H389 C386 0.960 . S
C390 N391 1.342 . S
C390 C394 1.401 . S
C390 C395 1.499 . S
N391 Co374 1.989 . S
N391 C390 1.342 . S
N391 N392 1.388 . S
N392 Co375 1.993 . S
N392 N391 1.388 . S
N392 C393 1.346 1_455 S
C393 N392 1.346 1_655 S
C393 C394 1.396 1_655 S
C393 C403 1.510 . S
C394 C390 1.401 . S
C394 C393 1.396 1_455 S
C395 C390 1.499 . S
C395 H396 0.959 . S
C395 H397 0.960 . S
C395 H398 0.961 . S
H396 C395 0.959 . S
H397 C395 0.960 . S
H398 C395 0.961 . S
O399 Co374 1.967 . S
O399 C407 1.258 . S
O400 Co375 1.941 . S
O400 C407 1.266 . S
H401 C403 0.959 . S
H402 C403 0.961 . S
C403 C393 1.510 . S
C403 H401 0.959 . S
C403 H402 0.961 . S
C403 H404 0.960 . S
H404 C403 0.960 . S
H405 N385 0.862 . S
O406 Co374 1.920 . S
O406 C379 1.289 . S
C407 O399 1.258 . S
C407 O400 1.266 . S
Co408 O411 1.970 . S
Co408 N425 1.989 1_554 S
Co408 O433 1.967 . S
Co408 O440 1.920 1_554 S
Co409 O412 1.966 . S
Co409 N418 2.022 . S
Co409 N426 1.993 . S
Co409 O434 1.941 . S
C410 O411 1.258 . S
C410 O412 1.263 . S
O411 Co408 1.970 . S
O411 C410 1.258 . S
O412 Co409 1.966 . S
O412 C410 1.263 . S
C413 O414 1.235 . S
C413 O440 1.289 . S
O414 C413 1.235 . S
C415 C417 1.400 . S
C415 N418 1.351 . S
C415 C420 1.501 . S
C416 C417 1.387 . S
C416 N419 1.341 . S
C417 C415 1.400 . S
C417 C416 1.387 . S
N418 Co409 2.022 . S
N418 C415 1.351 . S
N418 N419 1.365 . S
N419 C416 1.341 . S
N419 N418 1.365 . S
N419 H439 0.862 . S
C420 C415 1.501 . S
C420 H421 0.961 . S
C420 H422 0.961 . S
C420 H423 0.960 . S
H421 C420 0.961 . S
H422 C420 0.961 . S
H423 C420 0.960 . S
C424 N425 1.342 . S
C424 C428 1.401 . S
C424 C429 1.499 . S
N425 Co408 1.989 1_556 S
N425 C424 1.342 . S
N425 N426 1.388 1_556 S
N426 Co409 1.993 . S
N426 N425 1.388 1_554 S
N426 C427 1.346 1_554 S
C427 N426 1.346 1_556 S
C427 C428 1.396 . S
C427 C437 1.510 1_556 S
C428 C424 1.401 . S
C428 C427 1.396 . S
C429 C424 1.499 . S
C429 H430 0.959 . S
C429 H431 0.960 . S
C429 H432 0.961 . S
H430 C429 0.959 . S
H431 C429 0.960 . S
H432 C429 0.961 . S
O433 Co408 1.967 . S
O433 C441 1.258 . S
O434 Co409 1.941 . S
O434 C441 1.266 . S
H435 C437 0.959 1_556 S
H436 C437 0.961 . S
C437 C427 1.510 1_554 S
C437 H435 0.959 1_554 S
C437 H436 0.961 . S
C437 H438 0.960 . S
H438 C437 0.960 . S
H439 N419 0.862 . S
O440 Co408 1.920 1_556 S
O440 C413 1.289 . S
C441 O433 1.258 . S
C441 O434 1.266 . S
Co442 O445 1.970 . S
Co442 N459 1.989 1_554 S
Co442 O467 1.967 . S
Co442 O474 1.920 1_554 S
Co443 O446 1.966 . S
Co443 N452 2.022 1_655 S
Co443 N460 1.993 . S
Co443 O468 1.941 . S
C444 O445 1.258 . S
C444 O446 1.263 . S
O445 Co442 1.970 . S
O445 C444 1.258 . S
O446 Co443 1.966 . S
O446 C444 1.263 . S
C447 O448 1.235 . S
C447 O474 1.289 . S
O448 C447 1.235 . S
C449 C451 1.400 . S
C449 N452 1.351 . S
C449 C454 1.501 . S
C450 C451 1.387 . S
C450 N453 1.341 . S
C451 C449 1.400 . S
C451 C450 1.387 . S
N452 Co443 2.022 1_455 S
N452 C449 1.351 . S
N452 N453 1.365 . S
N453 C450 1.341 . S
N453 N452 1.365 . S
N453 H473 0.862 . S
C454 C449 1.501 . S
C454 H455 0.961 1_455 S
C454 H456 0.961 . S
C454 H457 0.960 . S
H455 C454 0.961 1_655 S
H456 C454 0.961 . S
H457 C454 0.960 . S
C458 N459 1.342 . S
C458 C462 1.401 . S
C458 C463 1.499 . S
N459 Co442 1.989 1_556 S
N459 C458 1.342 . S
N459 N460 1.388 1_556 S
N460 Co443 1.993 . S
N460 N459 1.388 1_554 S
N460 C461 1.346 1_654 S
C461 N460 1.346 1_456 S
C461 C462 1.396 1_455 S
C461 C471 1.510 1_556 S
C462 C458 1.401 . S
C462 C461 1.396 1_655 S
C463 C458 1.499 . S
C463 H464 0.959 . S
C463 H465 0.960 . S
C463 H466 0.961 . S
H464 C463 0.959 . S
H465 C463 0.960 . S
H466 C463 0.961 . S
O467 Co442 1.967 . S
O467 C475 1.258 . S
O468 Co443 1.941 . S
O468 C475 1.266 . S
H469 C471 0.959 1_556 S
H470 C471 0.961 . S
C471 C461 1.510 1_554 S
C471 H469 0.959 1_554 S
C471 H470 0.961 . S
C471 H472 0.960 . S
H472 C471 0.960 . S
H473 N453 0.862 . S
O474 Co442 1.920 1_556 S
O474 C447 1.289 . S
C475 O467 1.258 . S
C475 O468 1.266 . S
Co476 O479 1.970 . S
Co476 N493 1.989 . S
Co476 O501 1.967 . S
Co476 O508 1.920 . S
Co477 O480 1.966 . S
Co477 N486 2.022 . S
Co477 N494 1.993 . S
Co477 O502 1.941 . S
C478 O479 1.258 . S
C478 O480 1.263 . S
O479 Co476 1.970 . S
O479 C478 1.258 . S
O480 Co477 1.966 . S
O480 C478 1.263 . S
C481 O482 1.235 . S
C481 O508 1.289 . S
O482 C481 1.235 . S
C483 C485 1.400 . S
C483 N486 1.351 . S
C483 C488 1.501 . S
C484 C485 1.387 . S
C484 N487 1.341 . S
C485 C483 1.400 . S
C485 C484 1.387 . S
N486 Co477 2.022 . S
N486 C483 1.351 . S
N486 N487 1.365 . S
N487 C484 1.341 . S
N487 N486 1.365 . S
N487 H507 0.862 . S
C488 C483 1.501 . S
C488 H489 0.961 . S
C488 H490 0.961 . S
C488 H491 0.960 . S
H489 C488 0.961 . S
H490 C488 0.961 . S
H491 C488 0.960 . S
C492 N493 1.342 . S
C492 C496 1.401 . S
C492 C497 1.499 . S
N493 Co476 1.989 . S
N493 C492 1.342 . S
N493 N494 1.388 . S
N494 Co477 1.993 . S
N494 N493 1.388 . S
N494 C495 1.346 . S
C495 N494 1.346 . S
C495 C496 1.396 . S
C495 C505 1.510 . S
C496 C492 1.401 . S
C496 C495 1.396 . S
C497 C492 1.499 . S
C497 H498 0.959 . S
C497 H499 0.960 . S
C497 H500 0.961 . S
H498 C497 0.959 . S
H499 C497 0.960 . S
H500 C497 0.961 . S
O501 Co476 1.967 . S
O501 C509 1.258 . S
O502 Co477 1.941 . S
O502 C509 1.266 . S
H503 C505 0.959 . S
H504 C505 0.961 . S
C505 C495 1.510 . S
C505 H503 0.959 . S
C505 H504 0.961 . S
C505 H506 0.960 . S
H506 C505 0.960 . S
H507 N487 0.862 . S
O508 Co476 1.920 . S
O508 C481 1.289 . S
C509 O501 1.258 . S
C509 O502 1.266 . S
Co510 O513 1.970 . S
Co510 N527 1.989 . S
Co510 O535 1.967 . S
Co510 O542 1.920 . S
Co511 O514 1.966 . S
Co511 N520 2.022 1_655 S
Co511 N528 1.993 . S
Co511 O536 1.941 . S
C512 O513 1.258 . S
C512 O514 1.263 . S
O513 Co510 1.970 . S
O513 C512 1.258 . S
O514 Co511 1.966 . S
O514 C512 1.263 . S
C515 O516 1.235 . S
C515 O542 1.289 . S
O516 C515 1.235 . S
C517 C519 1.400 . S
C517 N520 1.351 . S
C517 C522 1.501 . S
C518 C519 1.387 . S
C518 N521 1.341 . S
C519 C517 1.400 . S
C519 C518 1.387 . S
N520 Co511 2.022 1_455 S
N520 C517 1.351 . S
N520 N521 1.365 . S
N521 C518 1.341 . S
N521 N520 1.365 . S
N521 H541 0.862 . S
C522 C517 1.501 . S
C522 H523 0.961 1_455 S
C522 H524 0.961 . S
C522 H525 0.960 . S
H523 C522 0.961 1_655 S
H524 C522 0.961 . S
H525 C522 0.960 . S
C526 N527 1.342 . S
C526 C530 1.401 . S
C526 C531 1.499 . S
N527 Co510 1.989 . S
N527 C526 1.342 . S
N527 N528 1.388 . S
N528 Co511 1.993 . S
N528 N527 1.388 . S
N528 C529 1.346 1_655 S
C529 N528 1.346 1_455 S
C529 C530 1.396 1_455 S
C529 C539 1.510 . S
C530 C526 1.401 . S
C530 C529 1.396 1_655 S
C531 C526 1.499 . S
C531 H532 0.959 . S
C531 H533 0.960 . S
C531 H534 0.961 . S
H532 C531 0.959 . S
H533 C531 0.960 . S
H534 C531 0.961 . S
O535 Co510 1.967 . S
O535 C543 1.258 . S
O536 Co511 1.941 . S
O536 C543 1.266 . S
H537 C539 0.959 . S
H538 C539 0.961 . S
C539 C529 1.510 . S
C539 H537 0.959 . S
C539 H538 0.961 . S
C539 H540 0.960 . S
H540 C539 0.960 . S
H541 N521 0.862 . S
O542 Co510 1.920 . S
O542 C515 1.289 . S
C543 O535 1.258 . S
C543 O536 1.266 . S
Co544 O547 1.970 . S
Co544 N561 1.989 1_556 S
Co544 O569 1.967 . S
Co544 O576 1.920 1_556 S
Co545 O548 1.966 . S
Co545 N554 2.022 . S
Co545 N562 1.993 . S
Co545 O570 1.941 . S
C546 O547 1.258 . S
C546 O548 1.263 . S
O547 Co544 1.970 . S
O547 C546 1.258 . S
O548 Co545 1.966 . S
O548 C546 1.263 . S
C549 O550 1.235 . S
C549 O576 1.289 1_565 S
O550 C549 1.235 . S
C551 C553 1.400 . S
C551 N554 1.351 . S
C551 C556 1.501 . S
C552 C553 1.387 . S
C552 N555 1.341 . S
C553 C551 1.400 . S
C553 C552 1.387 . S
N554 Co545 2.022 . S
N554 C551 1.351 . S
N554 N555 1.365 . S
N555 C552 1.341 . S
N555 N554 1.365 . S
N555 H575 0.862 . S
C556 C551 1.501 . S
C556 H557 0.961 . S
C556 H558 0.961 1_545 S
C556 H559 0.960 . S
H557 C556 0.961 . S
H558 C556 0.961 1_565 S
H559 C556 0.960 . S
C560 N561 1.342 . S
C560 C564 1.399 1_545 S
C560 C565 1.499 1_545 S
N561 Co544 1.989 1_554 S
N561 C560 1.342 . S
N561 N562 1.388 1_554 S
N562 Co545 1.993 . S
N562 N561 1.388 1_556 S
N562 C563 1.346 1_556 S
C563 N562 1.346 1_554 S
C563 C564 1.389 1_545 S
C563 C573 1.510 1_554 S
C564 C560 1.399 1_565 S
C564 C563 1.389 1_565 S
C565 C560 1.499 1_565 S
C565 H566 0.959 1_565 S
C565 H567 0.960 . S
C565 H568 0.961 1_565 S
H566 C565 0.959 1_545 S
H567 C565 0.960 . S
H568 C565 0.961 1_545 S
O569 Co544 1.967 . S
O569 C577 1.258 . S
O570 Co545 1.941 . S
O570 C577 1.266 . S
H571 C573 0.959 1_554 S
H572 C573 0.961 1_565 S
C573 C563 1.510 1_556 S
C573 H571 0.959 1_556 S
C573 H572 0.961 1_545 S
C573 H574 0.960 . S
H574 C573 0.960 . S
H575 N555 0.862 . S
O576 Co544 1.920 1_554 S
O576 C549 1.289 1_545 S
C577 O569 1.258 . S
C577 O570 1.266 . S
Co578 O581 1.970 . S
Co578 N595 1.989 1_556 S
Co578 O603 1.967 . S
Co578 O610 1.920 1_556 S
Co579 O582 1.966 . S
Co579 N588 2.022 . S
Co579 N596 1.993 . S
Co579 O604 1.941 . S
C580 O581 1.258 . S
C580 O582 1.263 . S
O581 Co578 1.970 . S
O581 C580 1.258 . S
O582 Co579 1.966 . S
O582 C580 1.263 . S
C583 O584 1.235 . S
C583 O610 1.289 . S
O584 C583 1.235 . S
C585 C587 1.400 . S
C585 N588 1.351 . S
C585 C590 1.501 . S
C586 C587 1.387 . S
C586 N589 1.341 . S
C587 C585 1.400 . S
C587 C586 1.387 . S
N588 Co579 2.022 . S
N588 C585 1.351 . S
N588 N589 1.365 . S
N589 C586 1.341 . S
N589 N588 1.365 . S
N589 H609 0.862 . S
C590 C585 1.501 . S
C590 H591 0.961 . S
C590 H592 0.961 . S
C590 H593 0.960 . S
H591 C590 0.961 . S
H592 C590 0.961 . S
H593 C590 0.960 . S
C594 N595 1.342 . S
C594 C598 1.401 . S
C594 C599 1.499 . S
N595 Co578 1.989 1_554 S
N595 C594 1.342 . S
N595 N596 1.388 1_554 S
N596 Co579 1.993 . S
N596 N595 1.388 1_556 S
N596 C597 1.346 1_556 S
C597 N596 1.346 1_554 S
C597 C598 1.396 . S
C597 C607 1.510 1_554 S
C598 C594 1.401 . S
C598 C597 1.396 . S
C599 C594 1.499 . S
C599 H600 0.959 . S
C599 H601 0.960 . S
C599 H602 0.961 . S
H600 C599 0.959 . S
H601 C599 0.960 . S
H602 C599 0.961 . S
O603 Co578 1.967 . S
O603 C611 1.258 . S
O604 Co579 1.941 . S
O604 C611 1.266 . S
H605 C607 0.959 1_554 S
H606 C607 0.961 . S
C607 C597 1.510 1_556 S
C607 H605 0.959 1_556 S
C607 H606 0.961 . S
C607 H608 0.960 . S
H608 C607 0.960 . S
H609 N589 0.862 . S
O610 Co578 1.920 1_554 S
O610 C583 1.289 . S
C611 O603 1.258 . S
C611 O604 1.266 . S
Co612 O615 1.970 . S
Co612 N629 1.989 . S
Co612 O637 1.967 . S
Co612 O644 1.920 . S
Co613 O616 1.966 . S
Co613 N622 2.022 . S
Co613 N630 1.993 . S
Co613 O638 1.941 . S
C614 O615 1.258 . S
C614 O616 1.263 . S
O615 Co612 1.970 . S
O615 C614 1.258 . S
O616 Co613 1.966 . S
O616 C614 1.263 . S
C617 O618 1.235 . S
C617 O644 1.289 . S
O618 C617 1.235 . S
C619 C621 1.400 . S
C619 N622 1.351 . S
C619 C624 1.501 . S
C620 C621 1.387 . S
C620 N623 1.341 . S
C621 C619 1.400 . S
C621 C620 1.387 . S
N622 Co613 2.022 . S
N622 C619 1.351 . S
N622 N623 1.365 . S
N623 C620 1.341 . S
N623 N622 1.365 . S
N623 H643 0.862 . S
C624 C619 1.501 . S
C624 H625 0.961 . S
C624 H626 0.961 . S
C624 H627 0.960 . S
H625 C624 0.961 . S
H626 C624 0.961 . S
H627 C624 0.960 . S
C628 N629 1.342 . S
C628 C632 1.401 . S
C628 C633 1.499 . S
N629 Co612 1.989 . S
N629 C628 1.342 . S
N629 N630 1.388 . S
N630 Co613 1.993 . S
N630 N629 1.388 . S
N630 C631 1.346 . S
C631 N630 1.346 . S
C631 C632 1.396 . S
C631 C641 1.510 . S
C632 C628 1.401 . S
C632 C631 1.396 . S
C633 C628 1.499 . S
C633 H634 0.959 . S
C633 H635 0.960 . S
C633 H636 0.961 . S
H634 C633 0.959 . S
H635 C633 0.960 . S
H636 C633 0.961 . S
O637 Co612 1.967 . S
O637 C645 1.258 . S
O638 Co613 1.941 . S
O638 C645 1.266 . S
H639 C641 0.959 . S
H640 C641 0.961 . S
C641 C631 1.510 . S
C641 H639 0.959 . S
C641 H640 0.961 . S
C641 H642 0.960 . S
H642 C641 0.960 . S
H643 N623 0.862 . S
O644 Co612 1.920 . S
O644 C617 1.289 . S
C645 O637 1.258 . S
C645 O638 1.266 . S
Co646 O649 1.970 . S
Co646 N663 1.989 . S
Co646 O671 1.967 . S
Co646 O678 1.920 . S
Co647 O650 1.966 . S
Co647 N656 2.022 . S
Co647 N664 1.993 . S
Co647 O672 1.941 . S
C648 O649 1.258 . S
C648 O650 1.263 . S
O649 Co646 1.970 . S
O649 C648 1.258 . S
O650 Co647 1.966 . S
O650 C648 1.263 . S
C651 O652 1.235 . S
C651 O678 1.289 1_565 S
O652 C651 1.235 . S
C653 C655 1.400 . S
C653 N656 1.351 . S
C653 C658 1.501 . S
C654 C655 1.387 . S
C654 N657 1.341 . S
C655 C653 1.400 . S
C655 C654 1.387 . S
N656 Co647 2.022 . S
N656 C653 1.351 . S
N656 N657 1.365 . S
N657 C654 1.341 . S
N657 N656 1.365 . S
N657 H677 0.862 . S
C658 C653 1.501 . S
C658 H659 0.961 . S
C658 H660 0.961 1_545 S
C658 H661 0.960 . S
H659 C658 0.961 . S
H660 C658 0.961 1_565 S
H661 C658 0.960 . S
C662 N663 1.342 . S
C662 C666 1.399 1_545 S
C662 C667 1.499 1_545 S
N663 Co646 1.989 . S
N663 C662 1.342 . S
N663 N664 1.388 . S
N664 Co647 1.993 . S
N664 N663 1.388 . S
N664 C665 1.346 . S
C665 N664 1.346 . S
C665 C666 1.389 1_545 S
C665 C675 1.510 . S
C666 C662 1.399 1_565 S
C666 C665 1.389 1_565 S
C667 C662 1.499 1_565 S
C667 H668 0.959 1_565 S
C667 H669 0.960 . S
C667 H670 0.961 1_565 S
H668 C667 0.959 1_545 S
H669 C667 0.960 . S
H670 C667 0.961 1_545 S
O671 Co646 1.967 . S
O671 C679 1.258 . S
O672 Co647 1.941 . S
O672 C679 1.266 . S
H673 C675 0.959 . S
H674 C675 0.961 1_565 S
C675 C665 1.510 . S
C675 H673 0.959 . S
C675 H674 0.961 1_545 S
C675 H676 0.960 . S
H676 C675 0.960 . S
H677 N657 0.862 . S
O678 Co646 1.920 . S
O678 C651 1.289 1_545 S
C679 O671 1.258 . S
C679 O672 1.266 . S
Co680 O683 1.970 . S
Co680 N697 1.989 1_554 S
Co680 O705 1.967 . S
Co680 O712 1.920 1_554 S
Co681 O684 1.966 . S
Co681 N690 2.022 . S
Co681 N698 1.993 . S
Co681 O706 1.941 . S
C682 O683 1.258 . S
C682 O684 1.263 . S
O683 Co680 1.970 . S
O683 C682 1.258 . S
O684 Co681 1.966 . S
O684 C682 1.263 . S
C685 O686 1.235 . S
C685 O712 1.289 1_545 S
O686 C685 1.235 . S
C687 C689 1.400 . S
C687 N690 1.351 . S
C687 C692 1.501 . S
C688 C689 1.387 . S
C688 N691 1.341 . S
C689 C687 1.400 . S
C689 C688 1.387 . S
N690 Co681 2.022 . S
N690 C687 1.351 . S
N690 N691 1.365 . S
N691 C688 1.341 . S
N691 N690 1.365 . S
N691 H711 0.862 . S
C692 C687 1.501 . S
C692 H693 0.961 . S
C692 H694 0.961 1_565 S
C692 H695 0.960 . S
H693 C692 0.961 . S
H694 C692 0.961 1_545 S
H695 C692 0.960 . S
C696 N697 1.342 . S
C696 C700 1.399 1_565 S
C696 C701 1.499 1_565 S
N697 Co680 1.989 1_556 S
N697 C696 1.342 . S
N697 N698 1.388 1_556 S
N698 Co681 1.993 . S
N698 N697 1.388 1_554 S
N698 C699 1.346 1_554 S
C699 N698 1.346 1_556 S
C699 C700 1.389 1_565 S
C699 C709 1.510 1_556 S
C700 C696 1.399 1_545 S
C700 C699 1.389 1_545 S
C701 C696 1.499 1_545 S
C701 H702 0.959 1_545 S
C701 H703 0.960 . S
C701 H704 0.961 1_545 S
H702 C701 0.959 1_565 S
H703 C701 0.960 . S
H704 C701 0.961 1_565 S
O705 Co680 1.967 . S
O705 C713 1.258 . S
O706 Co681 1.941 . S
O706 C713 1.266 . S
H707 C709 0.959 1_556 S
H708 C709 0.961 1_545 S
C709 C699 1.510 1_554 S
C709 H707 0.959 1_554 S
C709 H708 0.961 1_565 S
C709 H710 0.960 . S
H710 C709 0.960 . S
H711 N691 0.862 . S
O712 Co680 1.920 1_556 S
O712 C685 1.289 1_565 S
C713 O705 1.258 . S
C713 O706 1.266 . S
Co714 O717 1.970 . S
Co714 N731 1.989 1_554 S
Co714 O739 1.967 . S
Co714 O746 1.920 1_554 S
Co715 O718 1.966 . S
Co715 N724 2.022 . S
Co715 N732 1.993 . S
Co715 O740 1.941 . S
C716 O717 1.258 . S
C716 O718 1.263 . S
O717 Co714 1.970 . S
O717 C716 1.258 . S
O718 Co715 1.966 . S
O718 C716 1.263 . S
C719 O720 1.235 . S
C719 O746 1.289 . S
O720 C719 1.235 . S
C721 C723 1.400 . S
C721 N724 1.351 . S
C721 C726 1.501 . S
C722 C723 1.387 . S
C722 N725 1.341 . S
C723 C721 1.400 . S
C723 C722 1.387 . S
N724 Co715 2.022 . S
N724 C721 1.351 . S
N724 N725 1.365 . S
N725 C722 1.341 . S
N725 N724 1.365 . S
N725 H745 0.862 . S
C726 C721 1.501 . S
C726 H727 0.961 . S
C726 H728 0.961 . S
C726 H729 0.960 . S
H727 C726 0.961 . S
H728 C726 0.961 . S
H729 C726 0.960 . S
C730 N731 1.342 . S
C730 C734 1.401 . S
C730 C735 1.499 . S
N731 Co714 1.989 1_556 S
N731 C730 1.342 . S
N731 N732 1.388 1_556 S
N732 Co715 1.993 . S
N732 N731 1.388 1_554 S
N732 C733 1.346 1_554 S
C733 N732 1.346 1_556 S
C733 C734 1.396 . S
C733 C743 1.510 1_556 S
C734 C730 1.401 . S
C734 C733 1.396 . S
C735 C730 1.499 . S
C735 H736 0.959 . S
C735 H737 0.960 . S
C735 H738 0.961 . S
H736 C735 0.959 . S
H737 C735 0.960 . S
H738 C735 0.961 . S
O739 Co714 1.967 . S
O739 C747 1.258 . S
O740 Co715 1.941 . S
O740 C747 1.266 . S
H741 C743 0.959 1_556 S
H742 C743 0.961 . S
C743 C733 1.510 1_554 S
C743 H741 0.959 1_554 S
C743 H742 0.961 . S
C743 H744 0.960 . S
H744 C743 0.960 . S
H745 N725 0.862 . S
O746 Co714 1.920 1_556 S
O746 C719 1.289 . S
C747 O739 1.258 . S
C747 O740 1.266 . S
Co748 O751 1.970 . S
Co748 N765 1.989 . S
Co748 O773 1.967 . S
Co748 O780 1.920 . S
Co749 O752 1.966 . S
Co749 N758 2.022 . S
Co749 N766 1.993 . S
Co749 O774 1.941 . S
C750 O751 1.258 . S
C750 O752 1.263 . S
O751 Co748 1.970 . S
O751 C750 1.258 . S
O752 Co749 1.966 . S
O752 C750 1.263 . S
C753 O754 1.235 . S
C753 O780 1.289 . S
O754 C753 1.235 . S
C755 C757 1.400 . S
C755 N758 1.351 . S
C755 C760 1.501 . S
C756 C757 1.387 . S
C756 N759 1.341 . S
C757 C755 1.400 . S
C757 C756 1.387 . S
N758 Co749 2.022 . S
N758 C755 1.351 . S
N758 N759 1.365 . S
N759 C756 1.341 . S
N759 N758 1.365 . S
N759 H779 0.862 . S
C760 C755 1.501 . S
C760 H761 0.961 . S
C760 H762 0.961 . S
C760 H763 0.960 . S
H761 C760 0.961 . S
H762 C760 0.961 . S
H763 C760 0.960 . S
C764 N765 1.342 . S
C764 C768 1.401 . S
C764 C769 1.499 . S
N765 Co748 1.989 . S
N765 C764 1.342 . S
N765 N766 1.388 . S
N766 Co749 1.993 . S
N766 N765 1.388 . S
N766 C767 1.346 . S
C767 N766 1.346 . S
C767 C768 1.396 . S
C767 C777 1.510 . S
C768 C764 1.401 . S
C768 C767 1.396 . S
C769 C764 1.499 . S
C769 H770 0.959 . S
C769 H771 0.960 . S
C769 H772 0.961 . S
H770 C769 0.959 . S
H771 C769 0.960 . S
H772 C769 0.961 . S
O773 Co748 1.967 . S
O773 C781 1.258 . S
O774 Co749 1.941 . S
O774 C781 1.266 . S
H775 C777 0.959 . S
H776 C777 0.961 . S
C777 C767 1.510 . S
C777 H775 0.959 . S
C777 H776 0.961 . S
C777 H778 0.960 . S
H778 C777 0.960 . S
H779 N759 0.862 . S
O780 Co748 1.920 . S
O780 C753 1.289 . S
C781 O773 1.258 . S
C781 O774 1.266 . S
Co782 O785 1.970 . S
Co782 N799 1.989 . S
Co782 O807 1.967 . S
Co782 O814 1.920 . S
Co783 O786 1.966 . S
Co783 N792 2.022 . S
Co783 N800 1.993 . S
Co783 O808 1.941 . S
C784 O785 1.258 . S
C784 O786 1.263 . S
O785 Co782 1.970 . S
O785 C784 1.258 . S
O786 Co783 1.966 . S
O786 C784 1.263 . S
C787 O788 1.235 . S
C787 O814 1.289 1_545 S
O788 C787 1.235 . S
C789 C791 1.400 . S
C789 N792 1.351 . S
C789 C794 1.501 . S
C790 C791 1.387 . S
C790 N793 1.341 . S
C791 C789 1.400 . S
C791 C790 1.387 . S
N792 Co783 2.022 . S
N792 C789 1.351 . S
N792 N793 1.365 . S
N793 C790 1.341 . S
N793 N792 1.365 . S
N793 H813 0.862 . S
C794 C789 1.501 . S
C794 H795 0.961 . S
C794 H796 0.961 1_565 S
C794 H797 0.960 . S
H795 C794 0.961 . S
H796 C794 0.961 1_545 S
H797 C794 0.960 . S
C798 N799 1.342 . S
C798 C802 1.399 1_565 S
C798 C803 1.499 1_565 S
N799 Co782 1.989 . S
N799 C798 1.342 . S
N799 N800 1.388 . S
N800 Co783 1.993 . S
N800 N799 1.388 . S
N800 C801 1.346 . S
C801 N800 1.346 . S
C801 C802 1.389 1_565 S
C801 C811 1.510 . S
C802 C798 1.399 1_545 S
C802 C801 1.389 1_545 S
C803 C798 1.499 1_545 S
C803 H804 0.959 1_545 S
C803 H805 0.960 . S
C803 H806 0.961 1_545 S
H804 C803 0.959 1_565 S
H805 C803 0.960 . S
H806 C803 0.961 1_565 S
O807 Co782 1.967 . S
O807 C815 1.258 . S
O808 Co783 1.941 . S
O808 C815 1.266 . S
H809 C811 0.959 . S
H810 C811 0.961 1_545 S
C811 C801 1.510 . S
C811 H809 0.959 . S
C811 H810 0.961 1_565 S
C811 H812 0.960 . S
H812 C811 0.960 . S
H813 N793 0.862 . S
O814 Co782 1.920 . S
O814 C787 1.289 1_565 S
C815 O807 1.258 . S
C815 O808 1.266 . S
Co816 O819 1.970 . S
Co816 N833 1.989 . S
Co816 O841 1.967 . S
Co816 O848 1.920 . S
Co817 O820 1.966 . S
Co817 N826 2.022 . S
Co817 N834 1.993 . S
Co817 O842 1.941 . S
C818 O819 1.258 . S
C818 O820 1.263 . S
O819 Co816 1.970 . S
O819 C818 1.258 . S
O820 Co817 1.966 . S
O820 C818 1.263 . S
C821 O822 1.235 . S
C821 O848 1.289 . S
O822 C821 1.235 . S
C823 C825 1.400 . S
C823 N826 1.351 . S
C823 C828 1.501 . S
C824 C825 1.387 . S
C824 N827 1.341 . S
C825 C823 1.400 . S
C825 C824 1.387 . S
N826 Co817 2.022 . S
N826 C823 1.351 . S
N826 N827 1.365 . S
N827 C824 1.341 . S
N827 N826 1.365 . S
N827 H847 0.862 . S
C828 C823 1.501 . S
C828 H829 0.961 . S
C828 H830 0.961 . S
C828 H831 0.960 . S
H829 C828 0.961 . S
H830 C828 0.961 . S
H831 C828 0.960 . S
C832 N833 1.342 . S
C832 C836 1.401 . S
C832 C837 1.499 . S
N833 Co816 1.989 . S
N833 C832 1.342 . S
N833 N834 1.388 . S
N834 Co817 1.993 . S
N834 N833 1.388 . S
N834 C835 1.346 . S
C835 N834 1.346 . S
C835 C836 1.396 . S
C835 C845 1.510 . S
C836 C832 1.401 . S
C836 C835 1.396 . S
C837 C832 1.499 . S
C837 H838 0.959 . S
C837 H839 0.960 . S
C837 H840 0.961 . S
H838 C837 0.959 . S
H839 C837 0.960 . S
H840 C837 0.961 . S
O841 Co816 1.967 . S
O841 C849 1.258 . S
O842 Co817 1.941 . S
O842 C849 1.266 . S
H843 C845 0.959 . S
H844 C845 0.961 . S
C845 C835 1.510 . S
C845 H843 0.959 . S
C845 H844 0.961 . S
C845 H846 0.960 . S
H846 C845 0.960 . S
H847 N827 0.862 . S
O848 Co816 1.920 . S
O848 C821 1.289 . S
C849 O841 1.258 . S
C849 O842 1.266 . S
Co850 O853 1.970 . S
Co850 N867 1.989 . S
Co850 O875 1.967 . S
Co850 O882 1.920 . S
Co851 O854 1.966 . S
Co851 N860 2.022 . S
Co851 N868 1.993 . S
Co851 O876 1.941 . S
C852 O853 1.258 . S
C852 O854 1.263 . S
O853 Co850 1.970 . S
O853 C852 1.258 . S
O854 Co851 1.966 . S
O854 C852 1.263 . S
C855 O856 1.235 . S
C855 O882 1.289 . S
O856 C855 1.235 . S
C857 C859 1.400 . S
C857 N860 1.351 . S
C857 C862 1.501 . S
C858 C859 1.387 . S
C858 N861 1.341 . S
C859 C857 1.400 . S
C859 C858 1.387 . S
N860 Co851 2.022 . S
N860 C857 1.351 . S
N860 N861 1.365 . S
N861 C858 1.341 . S
N861 N860 1.365 . S
N861 H881 0.862 . S
C862 C857 1.501 . S
C862 H863 0.961 . S
C862 H864 0.961 . S
C862 H865 0.960 . S
H863 C862 0.961 . S
H864 C862 0.961 . S
H865 C862 0.960 . S
C866 N867 1.342 . S
C866 C870 1.401 . S
C866 C871 1.499 . S
N867 Co850 1.989 . S
N867 C866 1.342 . S
N867 N868 1.388 . S
N868 Co851 1.993 . S
N868 N867 1.388 . S
N868 C869 1.346 . S
C869 N868 1.346 . S
C869 C870 1.396 . S
C869 C879 1.510 . S
C870 C866 1.401 . S
C870 C869 1.396 . S
C871 C866 1.499 . S
C871 H872 0.959 . S
C871 H873 0.960 . S
C871 H874 0.961 . S
H872 C871 0.959 . S
H873 C871 0.960 . S
H874 C871 0.961 . S
O875 Co850 1.967 . S
O875 C883 1.258 . S
O876 Co851 1.941 . S
O876 C883 1.266 . S
H877 C879 0.959 . S
H878 C879 0.961 . S
C879 C869 1.510 . S
C879 H877 0.959 . S
C879 H878 0.961 . S
C879 H880 0.960 . S
H880 C879 0.960 . S
H881 N861 0.862 . S
O882 Co850 1.920 . S
O882 C855 1.289 . S
C883 O875 1.258 . S
C883 O876 1.266 . S
Co884 O887 1.970 . S
Co884 N901 1.989 . S
Co884 O909 1.967 . S
Co884 O916 1.920 . S
Co885 O888 1.966 . S
Co885 N894 2.022 . S
Co885 N902 1.993 . S
Co885 O910 1.941 . S
C886 O887 1.258 . S
C886 O888 1.263 . S
O887 Co884 1.970 . S
O887 C886 1.258 . S
O888 Co885 1.966 . S
O888 C886 1.263 . S
C889 O890 1.235 . S
C889 O916 1.289 . S
O890 C889 1.235 . S
C891 C893 1.400 . S
C891 N894 1.351 . S
C891 C896 1.501 . S
C892 C893 1.387 . S
C892 N895 1.341 . S
C893 C891 1.400 . S
C893 C892 1.387 . S
N894 Co885 2.022 . S
N894 C891 1.351 . S
N894 N895 1.365 . S
N895 C892 1.341 . S
N895 N894 1.365 . S
N895 H915 0.862 . S
C896 C891 1.501 . S
C896 H897 0.961 . S
C896 H898 0.961 . S
C896 H899 0.960 . S
H897 C896 0.961 . S
H898 C896 0.961 . S
H899 C896 0.960 . S
C900 N901 1.342 . S
C900 C904 1.401 . S
C900 C905 1.499 . S
N901 Co884 1.989 . S
N901 C900 1.342 . S
N901 N902 1.388 . S
N902 Co885 1.993 . S
N902 N901 1.388 . S
N902 C903 1.346 . S
C903 N902 1.346 . S
C903 C904 1.396 . S
C903 C913 1.510 . S
C904 C900 1.401 . S
C904 C903 1.396 . S
C905 C900 1.499 . S
C905 H906 0.959 . S
C905 H907 0.960 . S
C905 H908 0.961 . S
H906 C905 0.959 . S
H907 C905 0.960 . S
H908 C905 0.961 . S
O909 Co884 1.967 . S
O909 C917 1.258 . S
O910 Co885 1.941 . S
O910 C917 1.266 . S
H911 C913 0.959 . S
H912 C913 0.961 . S
C913 C903 1.510 . S
C913 H911 0.959 . S
C913 H912 0.961 . S
C913 H914 0.960 . S
H914 C913 0.960 . S
H915 N895 0.862 . S
O916 Co884 1.920 . S
O916 C889 1.289 . S
C917 O909 1.258 . S
C917 O910 1.266 . S
Co918 O921 1.970 . S
Co918 N935 1.989 . S
Co918 O943 1.967 . S
Co918 O950 1.920 . S
Co919 O922 1.966 . S
Co919 N928 2.022 . S
Co919 N936 1.993 . S
Co919 O944 1.941 . S
C920 O921 1.258 . S
C920 O922 1.263 . S
O921 Co918 1.970 . S
O921 C920 1.258 . S
O922 Co919 1.966 . S
O922 C920 1.263 . S
C923 O924 1.235 . S
C923 O950 1.289 . S
O924 C923 1.235 . S
C925 C927 1.400 . S
C925 N928 1.351 . S
C925 C930 1.501 . S
C926 C927 1.387 . S
C926 N929 1.341 . S
C927 C925 1.400 . S
C927 C926 1.387 . S
N928 Co919 2.022 . S
N928 C925 1.351 . S
N928 N929 1.365 . S
N929 C926 1.341 . S
N929 N928 1.365 . S
N929 H949 0.862 . S
C930 C925 1.501 . S
C930 H931 0.961 . S
C930 H932 0.961 . S
C930 H933 0.960 . S
H931 C930 0.961 . S
H932 C930 0.961 . S
H933 C930 0.960 . S
C934 N935 1.342 . S
C934 C938 1.401 . S
C934 C939 1.499 . S
N935 Co918 1.989 . S
N935 C934 1.342 . S
N935 N936 1.388 . S
N936 Co919 1.993 . S
N936 N935 1.388 . S
N936 C937 1.346 . S
C937 N936 1.346 . S
C937 C938 1.396 . S
C937 C947 1.510 . S
C938 C934 1.401 . S
C938 C937 1.396 . S
C939 C934 1.499 . S
C939 H940 0.959 . S
C939 H941 0.960 . S
C939 H942 0.961 . S
H940 C939 0.959 . S
H941 C939 0.960 . S
H942 C939 0.961 . S
O943 Co918 1.967 . S
O943 C951 1.258 . S
O944 Co919 1.941 . S
O944 C951 1.266 . S
H945 C947 0.959 . S
H946 C947 0.961 . S
C947 C937 1.510 . S
C947 H945 0.959 . S
C947 H946 0.961 . S
C947 H948 0.960 . S
H948 C947 0.960 . S
H949 N929 0.862 . S
O950 Co918 1.920 . S
O950 C923 1.289 . S
C951 O943 1.258 . S
C951 O944 1.266 . S
Co952 O955 1.970 . S
Co952 N969 1.989 . S
Co952 O977 1.967 . S
Co952 O984 1.920 . S
Co953 O956 1.966 . S
Co953 N962 2.022 . S
Co953 N970 1.993 . S
Co953 O978 1.941 . S
C954 O955 1.258 . S
C954 O956 1.263 . S
O955 Co952 1.970 . S
O955 C954 1.258 . S
O956 Co953 1.966 . S
O956 C954 1.263 . S
C957 O958 1.235 . S
C957 O984 1.289 . S
O958 C957 1.235 . S
C959 C961 1.400 . S
C959 N962 1.351 . S
C959 C964 1.501 . S
C960 C961 1.387 . S
C960 N963 1.341 . S
C961 C959 1.400 . S
C961 C960 1.387 . S
N962 Co953 2.022 . S
N962 C959 1.351 . S
N962 N963 1.365 . S
N963 C960 1.341 . S
N963 N962 1.365 . S
N963 H983 0.862 . S
C964 C959 1.501 . S
C964 H965 0.961 . S
C964 H966 0.961 . S
C964 H967 0.960 . S
H965 C964 0.961 . S
H966 C964 0.961 . S
H967 C964 0.960 . S
C968 N969 1.342 . S
C968 C972 1.401 . S
C968 C973 1.499 . S
N969 Co952 1.989 . S
N969 C968 1.342 . S
N969 N970 1.388 . S
N970 Co953 1.993 . S
N970 N969 1.388 . S
N970 C971 1.346 . S
C971 N970 1.346 . S
C971 C972 1.396 . S
C971 C981 1.510 . S
C972 C968 1.401 . S
C972 C971 1.396 . S
C973 C968 1.499 . S
C973 H974 0.959 . S
C973 H975 0.960 . S
C973 H976 0.961 . S
H974 C973 0.959 . S
H975 C973 0.960 . S
H976 C973 0.961 . S
O977 Co952 1.967 . S
O977 C985 1.258 . S
O978 Co953 1.941 . S
O978 C985 1.266 . S
H979 C981 0.959 . S
H980 C981 0.961 . S
C981 C971 1.510 . S
C981 H979 0.959 . S
C981 H980 0.961 . S
C981 H982 0.960 . S
H982 C981 0.960 . S
H983 N963 0.862 . S
O984 Co952 1.920 . S
O984 C957 1.289 . S
C985 O977 1.258 . S
C985 O978 1.266 . S
Co986 O989 1.970 . S
Co986 N1003 1.989 . S
Co986 O1011 1.967 . S
Co986 O1018 1.920 . S
Co987 O990 1.966 . S
Co987 N996 2.022 . S
Co987 N1004 1.993 . S
Co987 O1012 1.941 . S
C988 O989 1.258 . S
C988 O990 1.263 . S
O989 Co986 1.970 . S
O989 C988 1.258 . S
O990 Co987 1.966 . S
O990 C988 1.263 . S
C991 O992 1.235 . S
C991 O1018 1.289 . S
O992 C991 1.235 . S
C993 C995 1.400 . S
C993 N996 1.351 . S
C993 C998 1.501 . S
C994 C995 1.387 . S
C994 N997 1.341 . S
C995 C993 1.400 . S
C995 C994 1.387 . S
N996 Co987 2.022 . S
N996 C993 1.351 . S
N996 N997 1.365 . S
N997 C994 1.341 . S
N997 N996 1.365 . S
N997 H1017 0.862 . S
C998 C993 1.501 . S
C998 H999 0.961 . S
C998 H1000 0.961 . S
C998 H1001 0.960 . S
H999 C998 0.961 . S
H1000 C998 0.961 . S
H1001 C998 0.960 . S
C1002 N1003 1.342 . S
C1002 C1006 1.401 . S
C1002 C1007 1.499 . S
N1003 Co986 1.989 . S
N1003 C1002 1.342 . S
N1003 N1004 1.388 . S
N1004 Co987 1.993 . S
N1004 N1003 1.388 . S
N1004 C1005 1.346 . S
C1005 N1004 1.346 . S
C1005 C1006 1.396 . S
C1005 C1015 1.510 . S
C1006 C1002 1.401 . S
C1006 C1005 1.396 . S
C1007 C1002 1.499 . S
C1007 H1008 0.959 . S
C1007 H1009 0.960 . S
C1007 H1010 0.961 . S
H1008 C1007 0.959 . S
H1009 C1007 0.960 . S
H1010 C1007 0.961 . S
O1011 Co986 1.967 . S
O1011 C1019 1.258 . S
O1012 Co987 1.941 . S
O1012 C1019 1.266 . S
H1013 C1015 0.959 . S
H1014 C1015 0.961 . S
C1015 C1005 1.510 . S
C1015 H1013 0.959 . S
C1015 H1014 0.961 . S
C1015 H1016 0.960 . S
H1016 C1015 0.960 . S
H1017 N997 0.862 . S
O1018 Co986 1.920 . S
O1018 C991 1.289 . S
C1019 O1011 1.258 . S
C1019 O1012 1.266 . S
Co1020 O1023 1.970 . S
Co1020 N1037 1.989 . S
Co1020 O1045 1.967 . S
Co1020 O1052 1.920 . S
Co1021 O1024 1.966 . S
Co1021 N1030 2.022 . S
Co1021 N1038 1.993 . S
Co1021 O1046 1.941 . S
C1022 O1023 1.258 . S
C1022 O1024 1.263 . S
O1023 Co1020 1.970 . S
O1023 C1022 1.258 . S
O1024 Co1021 1.966 . S
O1024 C1022 1.263 . S
C1025 O1026 1.235 . S
C1025 O1052 1.289 . S
O1026 C1025 1.235 . S
C1027 C1029 1.400 . S
C1027 N1030 1.351 . S
C1027 C1032 1.501 . S
C1028 C1029 1.387 . S
C1028 N1031 1.341 . S
C1029 C1027 1.400 . S
C1029 C1028 1.387 . S
N1030 Co1021 2.022 . S
N1030 C1027 1.351 . S
N1030 N1031 1.365 . S
N1031 C1028 1.341 . S
N1031 N1030 1.365 . S
N1031 H1051 0.862 . S
C1032 C1027 1.501 . S
C1032 H1033 0.961 . S
C1032 H1034 0.961 . S
C1032 H1035 0.960 . S
H1033 C1032 0.961 . S
H1034 C1032 0.961 . S
H1035 C1032 0.960 . S
C1036 N1037 1.342 . S
C1036 C1040 1.401 . S
C1036 C1041 1.499 . S
N1037 Co1020 1.989 . S
N1037 C1036 1.342 . S
N1037 N1038 1.388 . S
N1038 Co1021 1.993 . S
N1038 N1037 1.388 . S
N1038 C1039 1.346 . S
C1039 N1038 1.346 . S
C1039 C1040 1.396 . S
C1039 C1049 1.510 . S
C1040 C1036 1.401 . S
C1040 C1039 1.396 . S
C1041 C1036 1.499 . S
C1041 H1042 0.959 . S
C1041 H1043 0.960 . S
C1041 H1044 0.961 . S
H1042 C1041 0.959 . S
H1043 C1041 0.960 . S
H1044 C1041 0.961 . S
O1045 Co1020 1.967 . S
O1045 C1053 1.258 . S
O1046 Co1021 1.941 . S
O1046 C1053 1.266 . S
H1047 C1049 0.959 . S
H1048 C1049 0.961 . S
C1049 C1039 1.510 . S
C1049 H1047 0.959 . S
C1049 H1048 0.961 . S
C1049 H1050 0.960 . S
H1050 C1049 0.960 . S
H1051 N1031 0.862 . S
O1052 Co1020 1.920 . S
O1052 C1025 1.289 . S
C1053 O1045 1.258 . S
C1053 O1046 1.266 . S
Co1054 O1057 1.970 . S
Co1054 N1071 1.989 . S
Co1054 O1079 1.967 . S
Co1054 O1086 1.920 . S
Co1055 O1058 1.966 . S
Co1055 N1064 2.022 . S
Co1055 N1072 1.993 . S
Co1055 O1080 1.941 . S
C1056 O1057 1.258 . S
C1056 O1058 1.263 . S
O1057 Co1054 1.970 . S
O1057 C1056 1.258 . S
O1058 Co1055 1.966 . S
O1058 C1056 1.263 . S
C1059 O1060 1.235 . S
C1059 O1086 1.289 . S
O1060 C1059 1.235 . S
C1061 C1063 1.400 . S
C1061 N1064 1.351 . S
C1061 C1066 1.501 . S
C1062 C1063 1.387 . S
C1062 N1065 1.341 . S
C1063 C1061 1.400 . S
C1063 C1062 1.387 . S
N1064 Co1055 2.022 . S
N1064 C1061 1.351 . S
N1064 N1065 1.365 . S
N1065 C1062 1.341 . S
N1065 N1064 1.365 . S
N1065 H1085 0.862 . S
C1066 C1061 1.501 . S
C1066 H1067 0.961 . S
C1066 H1068 0.961 . S
C1066 H1069 0.960 . S
H1067 C1066 0.961 . S
H1068 C1066 0.961 . S
H1069 C1066 0.960 . S
C1070 N1071 1.342 . S
C1070 C1074 1.401 . S
C1070 C1075 1.499 . S
N1071 Co1054 1.989 . S
N1071 C1070 1.342 . S
N1071 N1072 1.388 . S
N1072 Co1055 1.993 . S
N1072 N1071 1.388 . S
N1072 C1073 1.346 . S
C1073 N1072 1.346 . S
C1073 C1074 1.396 . S
C1073 C1083 1.510 . S
C1074 C1070 1.401 . S
C1074 C1073 1.396 . S
C1075 C1070 1.499 . S
C1075 H1076 0.959 . S
C1075 H1077 0.960 . S
C1075 H1078 0.961 . S
H1076 C1075 0.959 . S
H1077 C1075 0.960 . S
H1078 C1075 0.961 . S
O1079 Co1054 1.967 . S
O1079 C1087 1.258 . S
O1080 Co1055 1.941 . S
O1080 C1087 1.266 . S
H1081 C1083 0.959 . S
H1082 C1083 0.961 . S
C1083 C1073 1.510 . S
C1083 H1081 0.959 . S
C1083 H1082 0.961 . S
C1083 H1084 0.960 . S
H1084 C1083 0.960 . S
H1085 N1065 0.862 . S
O1086 Co1054 1.920 . S
O1086 C1059 1.289 . S
C1087 O1079 1.258 . S
C1087 O1080 1.266 . S
C33 C67 1.468 . S
C135 C101 1.468 . S
C203 C169 1.468 . S
C271 C237 1.468 . S
C339 C305 1.468 . S
C407 C373 1.468 . S
C441 C475 1.468 . S
C543 C509 1.468 . S
C577 C611 1.468 . S
C645 C679 1.468 . S
C747 C713 1.468 . S
C781 C815 1.468 . S
C849 C883 1.468 . S
C917 C951 1.468 . S
C985 C1019 1.468 . S
C1053 C1087 1.468 . S
C9 C655 0.939 . S
C621 C43 0.939 . S
C587 C77 0.939 . S
C111 C553 0.939 . S
C791 C145 0.939 . S
C757 C179 0.939 . S
C723 C213 0.939 . S
C689 C247 0.939 . S
C281 C927 0.939 . S
C893 C315 0.939 . S
C349 C859 0.939 . S
C825 C383 0.939 . S
C417 C1063 0.939 . S
C451 C1029 0.939 . S
C995 C485 0.939 . S
C519 C961 0.939 . S
C141 C5 1.940 1_645 S
C991 C39 1.940 . S
C481 C73 1.940 1_655 S
C107 C787 1.940 1_565 S
C175 C855 1.940 . S
C209 C345 1.940 1_655 S
C651 C243 1.940 1_565 S
C277 C413 1.940 1_454 S
C719 C311 1.940 1_556 S
C1059 C379 1.940 . S
C447 C583 1.940 1_556 S
C923 C515 1.940 . S
C685 C549 1.940 1_546 S
C1025 C617 1.940 . S
C753 C889 1.940 . S
C957 C821 1.940 . S
C784 C20 3.327 . S
C478 C54 3.323 1_655 S
C988 C88 3.323 . S
C122 C138 3.327 1_455 S
C156 C648 3.327 . S
C342 C190 3.323 1_455 S
C224 C852 3.323 . S
C258 C2 3.327 1_655 S
C292 C1056 3.323 . S
C206 C326 3.323 1_655 S
C360 C716 3.323 . S
C394 C410 3.323 1_455 S
C428 C920 3.323 . S
C70 C462 3.323 1_455 S
C580 C496 3.323 . S
C530 C274 3.323 1_655 S
C240 C564 3.327 . S
C1022 C598 3.323 . S
C444 C632 3.323 . S
C666 C682 3.327 . S
C700 C104 3.327 . S
C886 C734 3.323 . S
C768 C308 3.323 . S
C802 C546 3.327 . S
C512 C836 3.323 . S
C870 C750 3.323 . S
C904 C172 3.323 . S
C954 C938 3.323 . S
C972 C376 3.323 . S
C1006 C614 3.323 . S
C36 C1040 3.323 . S
C818 C1074 3.323 . S
