# Generated by pormake.
# Topology smm, (6)-cn, num edge types: 1
# Building blocks:
#     Node 0, Type 0, BuildingBlock: INOVEN_clean_sbu_0, # of connection points: 6
#     Node 1, Type 0, BuildingBlock: INOVEN_clean_sbu_0, # of connection points: 6
#     Node 2, Type 0, BuildingBlock: INOVEN_clean_sbu_0, # of connection points: 6
#     Node 3, Type 0, BuildingBlock: INOVEN_clean_sbu_0, # of connection points: 6
#     Node 4, Type 0, BuildingBlock: INOVEN_clean_sbu_0, # of connection points: 6
#     Node 5, Type 0, BuildingBlock: INOVEN_clean_sbu_0, # of connection points: 6
#     Node 6, Type 0, BuildingBlock: INOVEN_clean_sbu_0, # of connection points: 6
#     Node 7, Type 0, BuildingBlock: INOVEN_clean_sbu_0, # of connection points: 6
#     Node 8, Type 0, BuildingBlock: INOVEN_clean_sbu_0, # of connection points: 6
#     Edge 9, Type (0, 0), BuildingBlock: UVAHIK_clean_linker_0, # of connection points: 2
#     Edge 10, Type (0, 0), BuildingBlock: UVAHIK_clean_linker_0, # of connection points: 2
#     Edge 11, Type (0, 0), BuildingBlock: UVAHIK_clean_linker_0, # of connection points: 2
#     Edge 12, Type (0, 0), BuildingBlock: UVAHIK_clean_linker_0, # of connection points: 2
#     Edge 13, Type (0, 0), BuildingBlock: UVAHIK_clean_linker_0, # of connection points: 2
#     Edge 14, Type (0, 0), BuildingBlock: UVAHIK_clean_linker_0, # of connection points: 2
#     Edge 15, Type (0, 0), BuildingBlock: UVAHIK_clean_linker_0, # of connection points: 2
#     Edge 16, Type (0, 0), BuildingBlock: UVAHIK_clean_linker_0, # of connection points: 2
#     Edge 17, Type (0, 0), BuildingBlock: UVAHIK_clean_linker_0, # of connection points: 2
#     Edge 18, Type (0, 0), BuildingBlock: UVAHIK_clean_linker_0, # of connection points: 2
#     Edge 19, Type (0, 0), BuildingBlock: UVAHIK_clean_linker_0, # of connection points: 2
#     Edge 20, Type (0, 0), BuildingBlock: UVAHIK_clean_linker_0, # of connection points: 2
#     Edge 21, Type (0, 0), BuildingBlock: UVAHIK_clean_linker_0, # of connection points: 2
#     Edge 22, Type (0, 0), BuildingBlock: UVAHIK_clean_linker_0, # of connection points: 2
#     Edge 23, Type (0, 0), BuildingBlock: UVAHIK_clean_linker_0, # of connection points: 2
#     Edge 24, Type (0, 0), BuildingBlock: UVAHIK_clean_linker_0, # of connection points: 2
#     Edge 25, Type (0, 0), BuildingBlock: UVAHIK_clean_linker_0, # of connection points: 2
#     Edge 26, Type (0, 0), BuildingBlock: UVAHIK_clean_linker_0, # of connection points: 2
#     Edge 27, Type (0, 0), BuildingBlock: UVAHIK_clean_linker_0, # of connection points: 2
#     Edge 28, Type (0, 0), BuildingBlock: UVAHIK_clean_linker_0, # of connection points: 2
#     Edge 29, Type (0, 0), BuildingBlock: UVAHIK_clean_linker_0, # of connection points: 2
#     Edge 30, Type (0, 0), BuildingBlock: UVAHIK_clean_linker_0, # of connection points: 2
#     Edge 31, Type (0, 0), BuildingBlock: UVAHIK_clean_linker_0, # of connection points: 2
#     Edge 32, Type (0, 0), BuildingBlock: UVAHIK_clean_linker_0, # of connection points: 2
#     Edge 33, Type (0, 0), BuildingBlock: UVAHIK_clean_linker_0, # of connection points: 2
#     Edge 34, Type (0, 0), BuildingBlock: UVAHIK_clean_linker_0, # of connection points: 2
#     Edge 35, Type (0, 0), BuildingBlock: UVAHIK_clean_linker_0, # of connection points: 2
# Relax obj value: 0.056
# Max RMSD: 0.134
# Mean RMSD: 0.134
data_MOF--net-smm--node1-INOVEN_clean_sbu_0--edge1-UVAHIK_clean_linker_0
_symmetry_space_group_name_H-M    P1
_symmetry_Int_Tables_number       1
_symmetry_cell_setting            triclinic
loop_
_symmetry_equiv_pos_as_xyz
'x, y, z'
_cell_length_a     85.51446
_cell_length_b     85.496123
_cell_length_c     18.502754
_cell_angle_alpha  89.909448
_cell_angle_beta   90.053269
_cell_angle_gamma 119.95679
loop_
_atom_site_label
_atom_site_type_symbol
_atom_site_fract_x
_atom_site_fract_y
_atom_site_fract_z
_atom_type_partial_charge
Gd0 Gd 0.05927 0.21992 0.97276 0.0
Gd1 Gd 1.02733 0.18319 0.02529 0.0
C2 C 1.02367 0.2194 0.02533 0.0
C3 C 0.08409 0.24699 0.90114 0.0
C4 C 0.09059 0.26636 0.88728 0.0
C5 C 0.09791 0.27933 0.94259 0.0
C6 C 0.09017 0.2721 0.8165 0.0
C7 C 0.10461 0.30345 0.85597 0.0
C8 C 0.09702 0.29041 0.80103 0.0
C9 C 0.10487 0.29767 0.92704 0.0
C10 C 0.05524 0.2158 0.11681 0.0
C11 C 0.06413 0.18429 -0.01349 0.0
C12 C 1.00125 0.15513 0.08694 0.0
C13 C 0.99304 0.13537 0.07911 0.0
C14 C 0.99017 0.1273 0.01061 0.0
C15 C 0.98806 0.1244 0.1409 0.0
C16 C 0.97714 0.09749 0.06598 0.0
C17 C 0.98024 0.10565 0.13448 0.0
C18 C 0.98223 0.10855 0.00413 0.0
C19 C 0.03199 0.18721 0.88148 0.0
O20 O 0.0378 0.22752 0.98194 0.0
O21 O 1.01879 0.20353 0.05551 0.0
O22 O 0.08666 0.24235 0.96572 0.0
O23 O 0.06841 0.23541 0.8735 0.0
O24 O 0.06114 0.23127 0.08467 0.0
O25 O 0.053 0.20378 0.07216 0.0
O26 O 0.04891 0.17582 0.02344 0.0
O27 O 0.06968 0.20028 0.95584 0.0
O28 O 0.99885 0.16373 0.03323 0.0
O29 O 1.01765 0.16374 0.11328 0.0
O30 O 1.02541 0.17172 0.9135 0.0
O31 O 0.03389 0.19921 0.92544 0.0
H32 H 0.09844 0.27538 -0.00223 0.0
H33 H 0.08475 0.26241 0.77274 0.0
H34 H 0.09681 0.29439 0.7456 0.0
H35 H 0.11043 0.30735 0.97076 0.0
H36 H 0.99407 0.13546 0.96201 0.0
H37 H 0.99019 0.13035 0.19423 0.0
H38 H 0.97635 0.09751 0.18314 0.0
H39 H 0.98026 0.10272 0.95066 0.0
Gd40 Gd 0.85895 0.86435 0.97948 0.0
Gd41 Gd 0.89413 0.86606 0.03226 0.0
C42 C 0.85893 0.82698 0.01992 0.0
C43 C 0.83111 0.85903 0.90476 0.0
C44 C 0.81177 0.84619 0.89255 0.0
C45 C 0.80025 0.8531 0.87904 0.0
C46 C 0.8047 0.82741 0.8919 0.0
C47 C 0.77473 0.8227 0.86358 0.0
C48 C 0.78633 0.81576 0.87734 0.0
C49 C 0.78196 0.84153 0.86474 0.0
C50 C 0.86383 0.86661 0.12343 0.0
C51 C 0.89298 0.90332 0.00724 0.0
C52 C 0.92371 0.87253 0.09612 0.0
C53 C 0.94328 0.88485 0.08662 0.0
C54 C 0.95117 0.88914 0.01759 0.0
C55 C 0.95433 0.89204 0.14759 0.0
C56 C 0.98109 0.90709 0.07099 0.0
C57 C 0.97303 0.90307 0.13994 0.0
C58 C 0.96988 0.90008 0.00987 0.0
C59 C 0.88958 0.86521 0.88766 0.0
O60 O 0.85134 0.83465 0.98195 0.0
O61 O 0.87441 0.83684 0.05435 0.0
O62 O 0.83548 0.86753 0.96677 0.0
O63 O 0.84278 0.85441 0.88237 0.0
O64 O 0.85498 0.87313 0.08994 0.0
O65 O 0.86781 0.85775 0.08079 0.0
O66 O 0.9004 0.89507 0.042 0.0
O67 O 0.87814 0.89417 0.9682 0.0
O68 O 0.91565 0.86006 0.04676 0.0
O69 O 0.91412 0.87982 0.11653 0.0
O70 O 0.89798 0.85806 0.91963 0.0
O71 O 0.8856 0.87359 0.93249 0.0
H72 H 0.80546 0.86755 0.8788 0.0
H73 H 0.81335 0.82177 0.90233 0.0
H74 H 0.78117 0.80133 0.87751 0.0
H75 H 0.77354 0.84738 0.85325 0.0
H76 H 0.94291 0.88381 0.96958 0.0
H77 H 0.94851 0.88899 0.20131 0.0
H78 H 0.98115 0.90849 0.18818 0.0
H79 H 0.97556 0.9027 0.95599 0.0
Gd80 Gd 0.21403 1.01863 0.97838 0.0
Gd81 Gd 0.21279 0.05244 0.02973 0.0
C82 C 0.25158 0.05557 0.02041 0.0
C83 C 0.21973 0.99624 0.90477 0.0
C84 C 0.23318 0.9904 0.89349 0.0
C85 C 0.23973 0.98454 0.95105 0.0
C86 C 0.23864 0.98955 0.82282 0.0
C87 C 0.25631 0.97627 0.86672 0.0
C88 C 0.25012 0.98262 0.80954 0.0
C89 C 0.25114 0.97751 0.93775 0.0
C90 C 0.21143 0.02129 0.12195 0.0
C91 C 0.17526 1.01429 0.00477 0.0
C92 C 0.20662 0.076 0.09123 0.0
C93 C 0.19489 0.08373 0.07728 0.0
C94 C 0.18905 0.08438 0.00697 0.0
C95 C 0.18984 0.09099 0.13448 0.0
C96 C 0.17371 0.10011 0.05098 0.0
C97 C 0.17933 0.09906 0.12157 0.0
C98 C 0.17862 0.09254 -0.00609 0.0
C99 C 0.21398 0.04871 0.88549 0.0
O100 O 0.24384 0.04039 -0.01778 0.0
O101 O 0.24178 0.06137 0.05407 0.0
O102 O 0.21112 0.99216 0.96662 0.0
O103 O 0.22385 1.01229 0.88083 0.0
O104 O 0.20482 1.0059 0.08879 0.0
O105 O 0.22054 0.03408 0.07932 0.0
O106 O 0.18365 0.02999 0.03901 0.0
O107 O 0.18427 1.00827 0.96663 0.0
O108 O 0.21959 0.08019 0.04444 0.0
O109 O 0.1986 0.05901 0.11083 0.0
O110 O 0.22125 0.06424 0.91728 0.0
O111 O 0.20531 0.03639 0.93021 0.0
H112 H 0.23579 0.98508 0.00621 0.0
H113 H 0.23367 0.99387 0.77752 0.0
H114 H 0.25365 0.98169 0.75415 0.0
H115 H 0.25586 0.97296 -0.01692 0.0
H116 H 0.19276 0.07881 0.96197 0.0
H117 H 0.19413 0.09052 0.18917 0.0
H118 H 0.17554 0.10441 0.16707 0.0
H119 H 0.17475 0.09324 0.9388 0.0
Gd120 Gd 0.72578 0.55242 0.31292 0.0
Gd121 Gd 0.69232 0.51721 0.36571 0.0
C122 C 0.68832 0.55231 0.35269 0.0
C123 C 0.74772 0.58055 0.23822 0.0
C124 C 0.75305 0.59968 0.22507 0.0
C125 C 0.76019 0.61268 0.28034 0.0
C126 C 0.75228 0.6053 0.15446 0.0
C127 C 0.76658 0.63668 0.19353 0.0
C128 C 0.75891 0.62356 0.13885 0.0
C129 C 0.7669 0.63097 0.26467 0.0
C130 C 0.7231 0.5475 0.45682 0.0
C131 C 0.73072 0.51829 0.33993 0.0
C132 C 0.6693 0.48772 0.43036 0.0
C133 C 0.66231 0.46821 0.4214 0.0
C134 C 0.66292 0.461 0.35406 0.0
C135 C 0.65434 0.45657 0.48026 0.0
C136 C 0.64688 0.43049 0.40398 0.0
C137 C 0.64673 0.43791 0.47175 0.0
C138 C 0.65525 0.44232 0.34538 0.0
C139 C 0.6959 0.52183 0.22126 0.0
O140 O 0.70361 0.55991 0.31512 0.0
O141 O 0.68268 0.53683 0.3872 0.0
O142 O 0.75191 0.57642 0.30079 0.0
O143 O 0.73188 0.56821 0.21429 0.0
O144 O 0.73849 0.55629 0.42357 0.0
O145 O 0.7103 0.54356 0.4139 0.0
O146 O 0.71498 0.51077 0.37399 0.0
O147 O 0.73663 0.53338 0.3021 0.0
O148 O 0.6649 0.4955 0.37964 0.0
O149 O 0.68613 0.49746 0.45105 0.0
O150 O 0.68039 0.51343 0.25331 0.0
O151 O 0.7083 0.52577 0.26595 0.0
H152 H 0.76095 0.6088 0.3354 0.0
H153 H 0.74699 0.59558 0.11077 0.0
H154 H 0.75862 0.62747 0.08338 0.0
H155 H 0.7725 0.64069 0.30822 0.0
H156 H 0.66906 0.46978 0.3079 0.0
H157 H 0.65383 0.46191 0.53273 0.0
H158 H 0.64074 0.42929 0.5184 0.0
H159 H 0.65548 0.43713 0.29228 0.0
Gd160 Gd 0.52561 0.19721 0.31139 0.0
Gd161 Gd 0.56082 0.19893 0.36395 0.0
C162 C 0.52569 0.15987 0.35166 0.0
C163 C 0.49767 0.19181 0.23709 0.0
C164 C 0.47832 0.17893 0.22534 0.0
C165 C 0.46674 0.18579 0.21243 0.0
C166 C 0.47129 0.16015 0.22456 0.0
C167 C 0.44124 0.15536 0.1973 0.0
C168 C 0.4529 0.14846 0.21046 0.0
C169 C 0.44843 0.17417 0.19859 0.0
C170 C 0.53058 0.19956 0.45526 0.0
C171 C 0.55982 0.23622 0.33782 0.0
C172 C 0.59031 0.20532 0.42834 0.0
C173 C 0.60981 0.21777 0.41912 0.0
C174 C 0.61703 0.22547 0.35155 0.0
C175 C 0.62144 0.22155 0.47806 0.0
C176 C 0.64751 0.24002 0.40144 0.0
C177 C 0.6401 0.23258 0.46943 0.0
C178 C 0.6357 0.23645 0.34274 0.0
C179 C 0.55616 0.19793 0.21943 0.0
O180 O 0.51803 0.16751 0.31397 0.0
O181 O 0.54118 0.16975 0.38598 0.0
O182 O 0.50212 0.20037 0.29893 0.0
O183 O 0.50933 0.18718 0.21457 0.0
O184 O 0.52173 0.20607 0.42183 0.0
O185 O 0.53452 0.19066 0.41262 0.0
O186 O 0.56728 0.22801 0.37243 0.0
O187 O 0.54483 0.22704 0.2996 0.0
O188 O 0.58248 0.19312 0.37787 0.0
O189 O 0.58062 0.21248 0.44895 0.0
O190 O 0.56459 0.19083 0.25143 0.0
O191 O 0.55222 0.20636 0.26416 0.0
H192 H 0.47191 0.20023 0.21231 0.0
H193 H 0.47998 0.15454 0.23452 0.0
H194 H 0.44778 0.13404 0.21051 0.0
H195 H 0.43996 0.17999 0.18757 0.0
H196 H 0.60825 0.22274 0.30533 0.0
H197 H 0.61611 0.2158 0.53072 0.0
H198 H 0.64872 0.2353 0.51614 0.0
H199 H 0.64088 0.24177 0.28949 0.0
Gd200 Gd 0.88071 0.35144 0.31247 0.0
Gd201 Gd 0.87908 0.3851 0.3636 0.0
C202 C 0.91805 0.38861 0.35477 0.0
C203 C 0.8867 0.3292 0.23919 0.0
C204 C 0.90021 0.32344 0.22804 0.0
C205 C 0.90668 0.3175 0.28561 0.0
C206 C 0.90577 0.32268 0.15744 0.0
C207 C 0.92337 0.30932 0.20138 0.0
C208 C 0.91725 0.31576 0.14421 0.0
C209 C 0.91812 0.31048 0.27235 0.0
C210 C 0.87781 0.354 0.45589 0.0
C211 C 0.84174 0.34685 0.33668 0.0
C212 C 0.87237 0.40819 0.426 0.0
C213 C 0.85995 0.4153 0.41532 0.0
C214 C 0.85552 0.41846 0.34572 0.0
C215 C 0.85276 0.41942 0.47561 0.0
C216 C 0.83741 0.43045 0.39713 0.0
C217 C 0.84156 0.42688 0.46667 0.0
C218 C 0.84443 0.42604 0.33674 0.0
C219 C 0.88049 0.38141 0.21937 0.0
O220 O 0.91044 0.37336 0.31698 0.0
O221 O 0.90815 0.3944 0.38775 0.0
O222 O 0.87804 0.32507 0.30093 0.0
O223 O 0.89075 0.34523 0.21521 0.0
O224 O 0.87133 0.33864 0.42259 0.0
O225 O 0.88694 0.36685 0.41348 0.0
O226 O 0.84993 0.36256 0.37088 0.0
O227 O 0.85094 0.34089 0.29951 0.0
O228 O 0.88493 0.4126 0.37699 0.0
O229 O 0.86515 0.39136 0.44703 0.0
O230 O 0.8876 0.39695 0.25111 0.0
O231 O 0.87187 0.36908 0.26412 0.0
H232 H 0.90268 0.31796 0.34072 0.0
H233 H 0.90086 0.32705 0.11212 0.0
H234 H 0.92085 0.31489 0.08885 0.0
H235 H 0.92277 0.30586 0.31769 0.0
H236 H 0.86076 0.41523 0.29825 0.0
H237 H 0.856 0.41708 0.52975 0.0
H238 H 0.83649 0.43025 0.5143 0.0
H239 H 0.84129 0.42838 0.28247 0.0
Gd240 Gd 0.39177 0.8863 0.63903 0.0
Gd241 Gd 0.35976 0.84971 0.69165 0.0
C242 C 0.35633 0.88606 0.69113 0.0
C243 C 0.41675 0.91299 0.56635 0.0
C244 C 0.42307 0.93209 0.54842 0.0
C245 C 0.42671 0.9451 0.60207 0.0
C246 C 0.42612 0.93752 0.47579 0.0
C247 C 0.43706 0.96881 0.51042 0.0
C248 C 0.43297 0.95562 0.45693 0.0
C249 C 0.43365 0.96327 0.58324 0.0
C250 C 0.38781 0.88226 0.78306 0.0
C251 C 0.39649 0.85057 0.65379 0.0
C252 C 0.33348 0.82176 0.753 0.0
C253 C 0.32518 0.802 0.74508 0.0
C254 C 0.32236 0.79394 0.67655 0.0
C255 C 0.3201 0.791 0.80681 0.0
C256 C 0.30918 0.76411 0.73175 0.0
C257 C 0.31222 0.77225 0.80029 0.0
C258 C 0.31436 0.77519 0.66997 0.0
C259 C 0.3644 0.85373 0.54788 0.0
O260 O 0.37042 0.89406 0.64744 0.0
O261 O 0.35145 0.87023 0.72175 0.0
O262 O 0.41893 0.90915 0.63289 0.0
O263 O 0.40135 0.90097 0.53806 0.0
O264 O 0.39374 0.89773 0.75081 0.0
O265 O 0.38549 0.87019 0.73849 0.0
O266 O 0.38117 0.8421 0.6901 0.0
O267 O 0.40217 0.86662 0.62347 0.0
O268 O 0.33123 0.83042 0.69914 0.0
O269 O 0.34985 0.83027 0.77969 0.0
O270 O 0.35792 0.83825 0.5799 0.0
O271 O 0.3663 0.86573 0.59186 0.0
H272 H 0.42446 0.94131 0.6586 0.0
H273 H 0.42336 0.92773 0.43345 0.0
H274 H 0.43508 0.95928 0.40027 0.0
H275 H 0.43678 0.97304 0.62595 0.0
H276 H 0.32634 0.80213 0.62799 0.0
H277 H 0.32219 0.79693 0.86017 0.0
H278 H 0.30826 0.76408 0.8489 0.0
H279 H 0.31244 0.76938 0.61648 0.0
Gd280 Gd 0.1923 0.53087 0.64477 0.0
Gd281 Gd 0.22778 0.53316 0.69724 0.0
C282 C 0.19291 0.49384 0.68579 0.0
C283 C 0.16427 0.52516 0.57039 0.0
C284 C 0.1449 0.51228 0.55901 0.0
C285 C 0.13334 0.51917 0.54585 0.0
C286 C 0.13782 0.4935 0.55879 0.0
C287 C 0.10778 0.48874 0.53159 0.0
C288 C 0.1194 0.48182 0.545 0.0
C289 C 0.11501 0.50757 0.53233 0.0
C290 C 0.19728 0.53332 0.78865 0.0
C291 C 0.22602 0.57007 0.67209 0.0
C292 C 0.25755 0.5401 0.76068 0.0
C293 C 0.27706 0.55255 0.75038 0.0
C294 C 0.2847 0.55704 0.68093 0.0
C295 C 0.28832 0.55969 0.8109 0.0
C296 C 0.31474 0.5751 0.73295 0.0
C297 C 0.30696 0.57089 0.80234 0.0
C298 C 0.30336 0.56813 0.67233 0.0
C299 C 0.22309 0.53214 0.5527 0.0
O300 O 0.18508 0.50128 0.64782 0.0
O301 O 0.20839 0.50392 0.7199 0.0
O302 O 0.16877 0.53394 0.63175 0.0
O303 O 0.1759 0.52044 0.54839 0.0
O304 O 0.18819 0.53956 0.7552 0.0
O305 O 0.20143 0.52458 0.74605 0.0
O306 O 0.23361 0.56202 0.707 0.0
O307 O 0.21122 0.56076 0.633 0.0
O308 O 0.24951 0.52748 0.71187 0.0
O309 O 0.24786 0.5473 0.78085 0.0
O310 O 0.23172 0.52524 0.58462 0.0
O311 O 0.21897 0.54041 0.59751 0.0
H312 H 0.13855 0.53362 0.54529 0.0
H313 H 0.14649 0.48786 0.56895 0.0
H314 H 0.11425 0.4674 0.54548 0.0
H315 H 0.10657 0.5134 0.52108 0.0
H316 H 0.27628 0.55184 0.6333 0.0
H317 H 0.2827 0.55639 0.86492 0.0
H318 H 0.31535 0.57591 0.85014 0.0
H319 H 0.30889 0.57132 0.61817 0.0
Gd320 Gd 0.54785 0.68642 0.64095 0.0
Gd321 Gd 0.54651 0.72012 0.69293 0.0
C322 C 0.58536 0.72344 0.68231 0.0
C323 C 0.55339 0.66414 0.56576 0.0
C324 C 0.56699 0.65882 0.54886 0.0
C325 C 0.57543 0.65412 0.60314 0.0
C326 C 0.5706 0.65715 0.47622 0.0
C327 C 0.58997 0.64508 0.51182 0.0
C328 C 0.58198 0.65042 0.45786 0.0
C329 C 0.58681 0.64733 0.58477 0.0
C330 C 0.54535 0.68904 0.78461 0.0
C331 C 0.50902 0.68181 0.66919 0.0
C332 C 0.54031 0.74358 0.75515 0.0
C333 C 0.5284 0.75114 0.74198 0.0
C334 C 0.52228 0.75163 0.67203 0.0
C335 C 0.52344 0.75838 0.79954 0.0
C336 C 0.50685 0.76716 0.71709 0.0
C337 C 0.51275 0.76628 0.78733 0.0
C338 C 0.51167 0.75961 0.65966 0.0
C339 C 0.54742 0.71639 0.54856 0.0
O340 O 0.57763 0.70828 0.64397 0.0
O341 O 0.57555 0.72917 0.71641 0.0
O342 O 0.54618 0.66044 0.63044 0.0
O343 O 0.55634 0.67973 0.54074 0.0
O344 O 0.53863 0.67365 0.75128 0.0
O345 O 0.55443 0.70185 0.74198 0.0
O346 O 0.5174 0.69762 0.70265 0.0
O347 O 0.51799 0.67571 0.6313 0.0
O348 O 0.55315 0.74782 0.70765 0.0
O349 O 0.53247 0.72662 0.77499 0.0
O350 O 0.55475 0.73192 0.58035 0.0
O351 O 0.53889 0.70406 0.59345 0.0
H352 H 0.5729 0.65526 0.65969 0.0
H353 H 0.56426 0.66069 0.43342 0.0
H354 H 0.58435 0.64921 0.4012 0.0
H355 H 0.59262 0.64325 0.62775 0.0
H356 H 0.52592 0.74606 0.62677 0.0
H357 H 0.52795 0.75803 0.85396 0.0
H358 H 0.50904 0.77162 0.83309 0.0
H359 H 0.50757 0.76019 0.60479 0.0
C360 C 0.10414 0.32907 0.79025 0.0
C361 C 0.11268 0.32302 0.83874 0.0
C362 C 0.11198 0.34742 0.77289 0.0
C363 C 0.14634 0.39307 0.83731 0.0
H364 H 0.14472 0.4075 0.63988 0.0
C365 C 0.19113 0.46632 0.74185 0.0
C366 C 0.18332 0.474 0.69767 0.0
C367 C 0.18188 0.44786 0.75729 0.0
C368 C 0.14512 0.40369 0.69541 0.0
H369 H 0.13633 0.33157 0.90608 0.0
H370 H 0.15006 0.36345 0.87553 0.0
H371 H 0.12975 0.37546 0.671 0.0
H372 H 0.15972 0.46805 0.63371 0.0
H373 H 0.14354 0.43568 0.66071 0.0
H374 H 0.16189 0.42125 0.86154 0.0
C375 C 0.1371 0.3541 0.85198 0.0
C376 C 0.13652 0.38531 0.71335 0.0
C377 C 0.12923 0.33579 0.86953 0.0
C378 C 0.16615 0.46261 0.66791 0.0
C379 C 0.15689 0.44405 0.68321 0.0
C380 C 0.15499 0.4114 0.81933 0.0
C381 C 0.1286 0.36019 0.80339 0.0
C382 C 0.13715 0.37975 0.78446 0.0
C383 C 0.16458 0.43651 0.7289 0.0
C384 C 0.15464 0.41695 0.74804 0.0
H385 H 0.09128 0.31963 0.76623 0.0
H386 H 0.1049 0.35161 0.73616 0.0
H387 H 0.1468 0.38935 0.89292 0.0
H388 H 0.20436 0.47459 0.76547 0.0
H389 H 0.18835 0.44247 0.79154 0.0
C390 C 0.74219 0.81425 0.87627 0.0
C391 C 0.75521 0.81055 0.84745 0.0
C392 C 0.72396 0.80353 0.85839 0.0
C393 C 0.69357 0.77186 0.71928 0.0
H394 H 0.65693 0.76172 0.86394 0.0
C395 C 0.61618 0.72673 0.66617 0.0
C396 C 0.60516 0.73306 0.69522 0.0
C397 C 0.63464 0.73531 0.68305 0.0
C398 C 0.66698 0.76455 0.82271 0.0
H399 H 0.75913 0.79244 0.77766 0.0
H400 H 0.72718 0.77349 0.74736 0.0
H401 H 0.68863 0.7777 0.89838 0.0
H402 H 0.60513 0.75373 0.7632 0.0
H403 H 0.63707 0.76858 0.79198 0.0
H404 H 0.67178 0.7587 0.6436 0.0
C405 C 0.73116 0.78486 0.78322 0.0
C406 C 0.68519 0.77373 0.84247 0.0
C407 C 0.74945 0.7956 0.80126 0.0
C408 C 0.61311 0.74837 0.74011 0.0
C409 C 0.63145 0.75684 0.75712 0.0
C410 C 0.6753 0.7626 0.69952 0.0
C411 C 0.71819 0.78876 0.81128 0.0
C412 C 0.69876 0.77778 0.79086 0.0
C413 C 0.64242 0.75031 0.72965 0.0
C414 C 0.66181 0.7591 0.75081 0.0
H415 H 0.74609 0.82551 0.91268 0.0
H416 H 0.71443 0.80709 0.88044 0.0
H417 H 0.70365 0.77489 0.67794 0.0
H418 H 0.61052 0.71498 0.63144 0.0
H419 H 0.64271 0.72991 0.66115 0.0
C420 C 0.2641 0.95188 0.88781 0.0
C421 C 0.26754 0.96778 0.85181 0.0
C422 C 0.27405 0.94339 0.87139 0.0
C423 C 0.30269 0.94043 0.72763 0.0
H424 H 0.31628 0.91801 0.87861 0.0
C425 C 0.35055 0.91197 0.67583 0.0
C426 C 0.34611 0.89541 0.7087 0.0
C427 C 0.34111 0.92092 0.69336 0.0
C428 C 0.31243 0.92405 0.83569 0.0
H429 H 0.28452 0.9875 0.77171 0.0
H430 H 0.30199 0.97284 0.74358 0.0
H431 H 0.29993 0.93364 0.90989 0.0
H432 H 0.32816 0.87529 0.78586 0.0
H433 H 0.31168 0.89085 0.81598 0.0
H434 H 0.31526 0.93088 0.65349 0.0
C435 C 0.29134 0.96669 0.78349 0.0
C436 C 0.30304 0.93301 0.85362 0.0
C437 C 0.28135 0.97514 0.79974 0.0
C438 C 0.33197 0.88802 0.75943 0.0
C439 C 0.32259 0.897 0.77713 0.0
C440 C 0.31213 0.93151 0.70974 0.0
C441 C 0.28774 0.95062 0.8187 0.0
C442 C 0.298 0.9413 0.79981 0.0
C443 C 0.32704 0.91357 0.7444 0.0
C444 C 0.31709 0.92317 0.76351 0.0
H445 H 0.25338 0.94568 0.92738 0.0
H446 H 0.27068 0.9309 0.89884 0.0
H447 H 0.29877 0.94637 0.68456 0.0
H448 H 0.36138 0.91811 0.63668 0.0
H449 H 0.34504 0.93375 0.66771 0.0
C450 C 0.40869 0.14681 0.21104 0.0
C451 C 0.42169 0.14316 0.18166 0.0
C452 C 0.39043 0.13604 0.19369 0.0
C453 C 0.35984 0.10428 0.05524 0.0
H454 H 0.32343 0.09402 0.20114 0.0
C455 C 0.28241 0.05891 0.00396 0.0
C456 C 0.27138 0.06517 0.03342 0.0
C457 C 0.30089 0.06753 0.02052 0.0
C458 C 0.33342 0.09688 0.15957 0.0
H459 H 0.42555 0.12509 0.11141 0.0
H460 H 0.39356 0.10605 0.08201 0.0
H461 H 0.3552 0.11013 0.2346 0.0
H462 H 0.27133 0.08575 0.10196 0.0
H463 H 0.3033 0.10068 0.13019 0.0
H464 H 0.33791 0.09101 0.9802 0.0
C465 C 0.39757 0.11742 0.11791 0.0
C466 C 0.35166 0.10613 0.17877 0.0
C467 C 0.41589 0.12821 0.13543 0.0
C468 C 0.27933 0.08044 0.07852 0.0
C469 C 0.29769 0.08896 0.09523 0.0
C470 C 0.34153 0.09494 0.03604 0.0
C471 C 0.38461 0.12126 0.14655 0.0
C472 C 0.36514 0.11022 0.1267 0.0
C473 C 0.30868 0.08252 0.06721 0.0
C474 C 0.32811 0.09139 0.08779 0.0
H475 H 0.41262 0.15807 0.24751 0.0
H476 H 0.38091 0.13956 0.21617 0.0
H477 H 0.36984 0.10733 0.01356 0.0
H478 H 0.27675 0.04719 0.96905 0.0
H479 H 0.30897 0.06219 -0.00178 0.0
C480 C 0.94845 0.3082 0.13459 0.0
C481 C 0.93459 0.30082 0.18648 0.0
C482 C 0.95842 0.29974 0.11832 0.0
C483 C 0.97002 0.26597 0.18814 0.0
H484 H 0.98239 0.26402 -0.01194 0.0
C485 C 0.99921 0.22119 0.09361 0.0
C486 C 1.01337 0.22867 0.043 0.0
C487 C 0.98976 0.23011 0.11139 0.0
C488 C 0.97921 0.2646 0.0443 0.0
H489 H 0.92034 0.27866 0.26173 0.0
H490 H 0.93764 0.26387 0.23317 0.0
H491 H 0.96587 0.27947 0.0192 0.0
H492 H 1.02861 0.25144 0.97128 0.0
H493 H 1.01216 0.26696 0.00244 0.0
H494 H 0.98326 0.25096 0.21304 0.0
C495 C 0.94104 0.27638 0.20587 0.0
C496 C 0.96976 0.2735 0.06223 0.0
C497 C 0.93111 0.28488 0.2223 0.0
C498 C 1.01777 0.24524 0.01034 0.0
C499 C 1.00826 0.25411 0.02793 0.0
C500 C 0.97944 0.25703 0.17016 0.0
C501 C 0.95477 0.28364 0.15333 0.0
C502 C 0.96502 0.27431 0.1344 0.0
C503 C 0.99417 0.24669 0.07884 0.0
C504 C 0.98415 0.25622 0.098 0.0
H505 H 0.95165 0.3206 0.10671 0.0
H506 H 0.9691 0.30591 0.07854 0.0
H507 H 0.96687 0.26654 0.2444 0.0
H508 H 0.99543 0.20846 0.11989 0.0
H509 H 0.97884 0.22389 0.15014 0.0
C510 C 0.83204 0.79594 -2e-05 0.0
C511 C 0.84912 0.8071 0.03097 0.0
C512 C 0.82265 0.7773 0.01362 0.0
C513 C 0.82946 0.73998 0.08035 0.0
H514 H 0.77796 0.71543 0.11707 0.0
C515 C 0.79181 0.66876 0.20569 0.0
C516 C 0.77505 0.65625 0.1756 0.0
C517 C 0.80033 0.68699 0.18602 0.0
C518 C 0.79231 0.72205 0.10623 0.0
H519 H 0.86968 0.80726 0.1004 0.0
H520 H 0.85334 0.77509 0.12468 0.0
H521 H 0.79383 0.7474 0.08433 0.0
H522 H 0.7539 0.65327 0.10251 0.0
H523 H 0.76882 0.68512 0.06793 0.0
H524 H 0.82801 0.71474 0.10316 0.0
C525 C 0.84725 0.78059 0.08889 0.0
C526 C 0.80141 0.74038 0.08725 0.0
C527 C 0.85661 0.79913 0.07523 0.0
C528 C 0.76687 0.66251 0.12626 0.0
C529 C 0.77535 0.68079 0.1069 0.0
C530 C 0.82039 0.72173 0.09959 0.0
C531 C 0.83013 0.76939 0.05848 0.0
C532 C 0.82015 0.74964 0.07475 0.0
C533 C 0.79229 0.69322 0.13594 0.0
C534 C 0.80173 0.71256 0.11344 0.0
H535 H 0.82586 0.8016 0.96558 0.0
H536 H 0.80958 0.76908 -0.01137 0.0
H537 H 0.84381 0.74653 0.06965 0.0
H538 H 0.7986 0.6644 0.24324 0.0
H539 H 0.81325 0.69623 0.21014 0.0
C540 C 0.08234 0.46153 0.47042 0.0
C541 C 0.08821 0.47657 0.5162 0.0
C542 C 0.06401 0.45077 0.45301 0.0
C543 C 1.01814 0.43979 0.51336 0.0
H544 H 1.00439 0.42425 0.31517 0.0
C545 C 0.94572 0.41367 0.41267 0.0
C546 C 0.93784 0.39833 0.36792 0.0
C547 C 0.96409 0.4223 0.42947 0.0
C548 C 1.00801 0.4283 0.37092 0.0
H549 H 0.07924 0.49166 0.5814 0.0
H550 H 0.0475 0.47321 0.55023 0.0
H551 H 0.03632 0.4406 0.34856 0.0
H552 H 0.94336 0.38033 0.30431 0.0
H553 H 0.97556 0.3955 0.33365 0.0
H554 H 0.98991 0.42775 0.53561 0.0
C555 C 0.05698 0.46959 0.52802 0.0
C556 C 1.02631 0.43765 0.39014 0.0
C557 C 0.07525 0.48033 0.54527 0.0
C558 C 0.94896 0.39211 0.33894 0.0
C559 C 0.96743 0.40083 0.35559 0.0
C560 C 0.9999 0.43051 0.49415 0.0
C561 C 0.0511 0.45473 0.48129 0.0
C562 C 1.03163 0.44373 0.46146 0.0
C563 C 0.97515 0.41589 0.40189 0.0
C564 C 0.99459 0.42487 0.42251 0.0
H565 H 0.09196 0.45832 0.44664 0.0
H566 H 0.05995 0.43933 0.41746 0.0
H567 H 1.02168 0.44389 0.5691 0.0
H568 H 0.93766 0.41895 0.43575 0.0
H569 H 0.96964 0.43406 0.46414 0.0
C570 C 0.59531 0.62404 0.43452 0.0
C571 C 0.60083 0.63647 0.49185 0.0
C572 C 0.60513 0.61554 0.41647 0.0
C573 C 0.64977 0.61873 0.43788 0.0
H574 H 0.623 0.56786 0.38919 0.0
C575 C 0.6847 0.57958 0.33464 0.0
C576 C 0.67824 0.56214 0.36297 0.0
C577 C 0.67546 0.58899 0.34764 0.0
C578 C 0.63071 0.58204 0.40299 0.0
H579 H 0.62126 0.64986 0.57447 0.0
H580 H 0.63823 0.63476 0.54381 0.0
H581 H 0.60678 0.58362 0.41917 0.0
H582 H 0.65685 0.5409 0.42675 0.0
H583 H 0.64094 0.55727 0.4496 0.0
H584 H 0.67372 0.61697 0.42333 0.0
C585 C 0.62637 0.63174 0.51227 0.0
C586 C 0.62139 0.59115 0.41942 0.0
C587 C 0.61653 0.64026 0.5304 0.0
C588 C 0.66223 0.55428 0.40381 0.0
C589 C 0.65301 0.56365 0.41666 0.0
C590 C 0.65911 0.6096 0.42132 0.0
C591 C 0.62072 0.61918 0.45533 0.0
C592 C 0.63078 0.60961 0.43726 0.0
C593 C 0.65951 0.58115 0.389 0.0
C594 C 0.64969 0.59111 0.40404 0.0
H595 H 0.58318 0.62058 0.40419 0.0
H596 H 0.60048 0.60611 0.37178 0.0
H597 H 0.65745 0.63298 0.45069 0.0
H598 H 0.69699 0.58605 0.30295 0.0
H599 H 0.68074 0.60237 0.32485 0.0
C600 C 0.4989 0.12875 0.33209 0.0
C601 C 0.51608 0.13998 0.36202 0.0
C602 C 0.48982 0.11006 0.34458 0.0
C603 C 0.49789 0.07302 0.40236 0.0
H604 H 0.44658 0.0472 0.44334 0.0
C605 C 0.45838 0.99561 0.43516 0.0
C606 C 0.44532 0.98826 0.49023 0.0
C607 C 0.46638 1.01386 0.41657 0.0
C608 C 0.46094 0.05423 0.43245 0.0
H609 H 0.53715 0.14023 0.42851 0.0
H610 H 0.52136 0.10797 0.45063 0.0
H611 H 0.46177 0.07948 0.41638 0.0
H612 H 0.4303 0.99449 0.56822 0.0
H613 H 0.4446 0.02646 0.53703 0.0
H614 H 0.49726 0.04801 0.42044 0.0
C615 C 0.51495 0.11347 0.41664 0.0
C616 C 0.46961 0.0727 0.41606 0.0
C617 C 0.52398 0.13206 0.40422 0.0
C618 C 0.44043 0.9997 0.52604 0.0
C619 C 0.44847 1.018 0.50749 0.0
C620 C 0.48925 0.05461 0.41876 0.0
C621 C 0.49775 0.10219 0.38708 0.0
C622 C 0.48823 0.08236 0.4013 0.0
C623 C 0.46162 0.02535 0.45272 0.0
C624 C 0.47067 0.04495 0.43428 0.0
H625 H 0.4924 0.13438 0.29934 0.0
H626 H 0.47666 0.10176 0.32039 0.0
H627 H 0.5122 0.07994 0.39042 0.0
H628 H 0.46268 0.98731 0.40696 0.0
H629 H 0.47628 1.01895 0.37353 0.0
C630 C 0.16651 0.12485 0.07514 0.0
C631 C 0.16295 0.10919 0.03693 0.0
C632 C 0.15634 0.13329 0.06248 0.0
C633 C 0.11242 0.12442 -0.01243 0.0
H634 H 0.13446 0.1765 -0.00152 0.0
C635 C 0.06995 0.15911 0.01728 0.0
C636 C 0.07556 0.17574 -0.01744 0.0
C637 C 0.08083 0.15122 0.01709 0.0
C638 C 0.12811 0.16196 -0.00568 0.0
H639 H 0.14576 0.0902 0.95508 0.0
H640 H 0.12842 0.10519 0.93156 0.0
H641 H 0.15324 0.16257 0.00952 0.0
H642 H 0.09704 0.19693 0.91922 0.0
H643 H 0.116 0.18297 0.91806 0.0
H644 H 0.08736 0.12379 0.97121 0.0
C645 C 0.13892 0.11081 0.97223 0.0
C646 C 0.13886 0.15394 0.00167 0.0
C647 C 0.14904 0.10232 -0.01488 0.0
C648 C 0.09229 0.18414 0.94663 0.0
C649 C 0.10322 0.17619 0.94635 0.0
C650 C 0.10171 0.13244 0.97996 0.0
C651 C 0.14236 0.12636 0.011 0.0
C652 C 0.13112 0.13504 -0.00069 0.0
C653 C 0.09764 0.15964 0.9819 0.0
C654 C 0.10935 0.15129 -0.0157 0.0
H655 H 0.17727 0.13071 0.11467 0.0
H656 H 0.15926 0.14509 0.09408 0.0
H657 H 0.10592 0.10984 -0.01393 0.0
H658 H 0.0572 0.15221 0.0458 0.0
H659 H 0.07619 0.13866 0.04615 0.0
C660 C 0.89549 0.93277 0.96945 0.0
C661 C 0.90182 0.9233 0.01114 0.0
C662 C 0.9037 0.95159 0.97423 0.0
C663 C 0.93172 0.98979 0.09538 0.0
H664 H 0.94147 1.01889 0.92247 0.0
C665 C 0.97381 0.06772 0.1043 0.0
C666 C 0.96858 0.07752 0.059 0.0
C667 C 0.96575 0.04896 0.09774 0.0
C668 C 0.93864 1.01098 0.97145 0.0
H669 H 0.92186 0.92631 0.09045 0.0
H670 H 0.93613 0.95905 0.09865 0.0
H671 H 0.92714 0.98614 0.91223 0.0
H672 H 0.95058 0.07523 0.97197 0.0
H673 H 0.93633 0.04252 0.96117 0.0
H674 H 0.94298 1.01451 0.15481 0.0
C675 C 0.92472 0.95191 0.06263 0.0
C676 C 0.93044 0.99218 0.96549 0.0
C677 C 0.9166 0.93312 0.05754 0.0
C678 C 0.95509 0.06811 0.00704 0.0
C679 C 0.94694 0.04933 0.00077 0.0
C680 C 0.93981 1.00856 0.10139 0.0
C681 C 0.91836 0.96138 0.02118 0.0
C682 C 0.92693 0.98137 0.02737 0.0
C683 C 0.95216 0.03948 0.04601 0.0
C684 C 0.94344 1.01944 0.03951 0.0
H685 H 0.88413 0.92566 0.93318 0.0
H686 H 0.89837 0.95846 0.94203 0.0
H687 H 0.92895 0.98183 0.14422 0.0
H688 H 0.98434 0.07459 0.14419 0.0
H689 H 0.97038 0.04192 0.13265 0.0
C690 C 1.00888 0.93064 0.00573 0.0
C691 C 1.00111 0.91824 0.063 0.0
C692 C 1.02765 0.94093 -0.00196 0.0
C693 C 0.07008 0.95819 0.10106 0.0
H694 H 0.09218 0.96518 0.91199 0.0
C695 C 0.14556 1.00906 0.05251 0.0
C696 C 0.15526 1.00343 0.00861 0.0
C697 C 0.12677 0.99869 0.05784 0.0
C698 C 0.08622 0.96327 0.96521 0.0
H699 H 1.00723 0.90679 0.15624 0.0
H700 H 0.03987 0.9249 0.14336 0.0
H701 H 0.0594 0.94687 0.92404 0.0
H702 H 0.15265 0.98248 0.93525 0.0
H703 H 0.11982 0.96439 0.94465 0.0
H704 H 0.09687 0.97444 0.1424 0.0
C705 C 1.03141 0.9268 0.10485 0.0
C706 C 0.06743 0.95293 0.97201 0.0
C707 C 1.01266 0.91644 0.11232 0.0
C708 C 0.14564 0.98725 0.96954 0.0
C709 C 0.1268 0.97691 0.97462 0.0
C710 C 0.08884 0.96861 0.0942 0.0
C711 C 0.03915 0.93917 0.04762 0.0
C712 C 0.05913 0.95024 0.04006 0.0
C713 C 0.11715 0.98245 0.01922 0.0
C714 C 0.09716 0.97129 0.02621 0.0
H715 H 1.00046 0.93262 0.9673 0.0
H716 H 0.03317 0.95051 0.95389 0.0
H717 H 0.06413 0.95652 0.15416 0.0
H718 H 0.15248 0.02146 0.0833 0.0
H719 H 0.11975 1.00348 0.09191 0.0
C720 C 0.73617 0.49382 0.38633 0.0
C721 C 0.74163 0.50917 0.34266 0.0
C722 C 0.74643 0.48523 0.38963 0.0
C723 C 0.79235 0.49263 0.35332 0.0
H724 H 0.76825 0.44043 0.36716 0.0
C725 C 0.83098 0.4531 0.33737 0.0
C726 C 0.8261 0.43907 0.38773 0.0
C727 C 0.82062 0.46152 0.32976 0.0
C728 C 0.77518 0.45503 0.36394 0.0
H729 H 0.76218 0.52741 0.2677 0.0
H730 H 0.77991 0.51226 0.27253 0.0
H731 H 0.75036 0.45534 0.35689 0.0
H732 H 0.8063 0.42268 0.46862 0.0
H733 H 0.78825 0.43742 0.4555 0.0
H734 H 0.81717 0.49225 0.35994 0.0
C735 C 0.76783 0.50702 0.30525 0.0
C736 C 0.76493 0.4636 0.35816 0.0
C737 C 0.75759 0.51567 0.30215 0.0
C738 C 0.81051 0.43354 0.42976 0.0
C739 C 0.80007 0.44187 0.42175 0.0
C740 C 0.8026 0.48404 0.35871 0.0
C741 C 0.7624 0.49169 0.34913 0.0
C742 C 0.77336 0.48253 0.35323 0.0
C743 C 0.80505 0.45603 0.37191 0.0
C744 C 0.79414 0.46514 0.3645 0.0
H745 H 0.724 0.48846 0.41862 0.0
H746 H 0.74195 0.47366 0.42496 0.0
H747 H 0.79933 0.50723 0.35078 0.0
H748 H 0.84299 0.45779 0.30462 0.0
H749 H 0.82475 0.47227 0.29043 0.0
C750 C 0.62169 0.39891 0.4295 0.0
C751 C 0.63804 0.41053 0.39424 0.0
C752 C 0.6133 0.3802 0.42028 0.0
C753 C 0.62236 0.34394 0.36261 0.0
H754 H 0.57016 0.31542 0.35318 0.0
C755 C 0.58436 0.26614 0.38331 0.0
C756 C 0.56888 0.25624 0.34044 0.0
C757 C 0.59283 0.28496 0.38686 0.0
C758 C 0.58476 0.32317 0.35495 0.0
H759 H 0.65838 0.41141 0.32172 0.0
H760 H 0.64353 0.37884 0.3042 0.0
H761 H 0.58476 0.34814 0.36313 0.0
H762 H 0.5503 0.2585 0.2671 0.0
H763 H 0.56523 0.29136 0.2725 0.0
H764 H 0.62237 0.319 0.35292 0.0
C765 C 0.6373 0.38419 0.33986 0.0
C766 C 0.59314 0.34196 0.36165 0.0
C767 C 0.64573 0.40292 0.34924 0.0
C768 C 0.56215 0.26566 0.30088 0.0
C769 C 0.57066 0.28453 0.30431 0.0
C770 C 0.61398 0.32516 0.35575 0.0
C771 C 0.62098 0.37257 0.37531 0.0
C772 C 0.61206 0.35259 0.36606 0.0
C773 C 0.5861 0.29443 0.34749 0.0
C774 C 0.59505 0.3145 0.35233 0.0
H775 H 0.61521 0.40425 0.46376 0.0
H776 H 0.60087 0.3717 0.44919 0.0
H777 H 0.63694 0.35163 0.36651 0.0
H778 H 0.5899 0.25936 0.41482 0.0
H779 H 0.6045 0.29207 0.4216 0.0
C780 C 0.67507 0.26634 0.34607 0.0
C781 C 0.66746 0.25111 0.3916 0.0
C782 C 0.69379 0.27662 0.33664 0.0
C783 C 0.73603 0.27471 0.3595 0.0
H784 H 0.75895 0.32686 0.34925 0.0
C785 C 0.81234 0.31983 0.29946 0.0
C786 C 0.82172 0.336 0.33879 0.0
C787 C 0.79348 0.30954 0.30252 0.0
C788 C 0.7528 0.31232 0.35249 0.0
H789 H 0.67375 0.23467 0.46204 0.0
H790 H 0.7063 0.25286 0.44738 0.0
H791 H 0.72631 0.30884 0.36268 0.0
H792 H 0.81853 0.35397 0.4123 0.0
H793 H 0.78581 0.33595 0.41847 0.0
H794 H 0.76257 0.27823 0.35164 0.0
C795 C 0.69779 0.25674 0.41808 0.0
C796 C 0.73402 0.30195 0.35927 0.0
C797 C 0.67909 0.24644 0.42735 0.0
C798 C 0.81178 0.34164 0.38099 0.0
C799 C 0.79295 0.33134 0.38419 0.0
C800 C 0.75481 0.28509 0.3529 0.0
C801 C 0.70541 0.27197 0.37257 0.0
C802 C 0.72538 0.28301 0.36329 0.0
C803 C 0.78353 0.31514 0.34511 0.0
C804 C 0.76346 0.30404 0.34974 0.0
H805 H 0.66657 0.27046 0.31817 0.0
H806 H 0.69913 0.28814 0.30057 0.0
H807 H 0.72985 0.26016 0.36142 0.0
H808 H 0.81954 0.3151 0.26617 0.0
H809 H 0.78668 0.29727 0.27094 0.0
C810 C 0.49946 0.79175 0.74179 0.0
C811 C 0.49589 0.77606 0.70373 0.0
C812 C 0.48915 0.80005 0.72966 0.0
C813 C 0.44495 0.79085 0.65664 0.0
H814 H 0.46686 0.84293 0.66571 0.0
C815 C 0.40235 0.82546 0.68555 0.0
C816 C 0.40791 0.842 0.65022 0.0
C817 C 0.41324 0.81759 0.68563 0.0
C818 C 0.46054 0.82838 0.66207 0.0
H819 H 0.47852 0.75688 0.62281 0.0
H820 H 0.46092 0.77163 0.60018 0.0
H821 H 0.48575 0.82913 0.67652 0.0
H822 H 0.4293 0.86306 0.58606 0.0
H823 H 0.44827 0.84913 0.58534 0.0
H824 H 0.4198 0.79008 0.64096 0.0
C825 C 0.47154 0.77738 0.64032 0.0
C826 C 0.47135 0.82043 0.66931 0.0
C827 C 0.48181 0.76902 0.65268 0.0
C828 C 0.4246 0.85034 0.61397 0.0
C829 C 0.43553 0.8424 0.61395 0.0
C830 C 0.43416 0.79879 0.64914 0.0
C831 C 0.47501 0.79297 0.67888 0.0
C832 C 0.46367 0.80154 0.66755 0.0
C833 C 0.43002 0.82595 0.65012 0.0
C834 C 0.44176 0.81764 0.65276 0.0
H835 H 0.51035 0.79774 0.78075 0.0
H836 H 0.49209 0.81189 0.76109 0.0
H837 H 0.43849 0.77626 0.65563 0.0
H838 H 0.38963 0.81863 0.71434 0.0
H839 H 0.40866 0.8051 0.71515 0.0
C840 C 0.24935 0.59998 0.72248 0.0
C841 C 0.23464 0.59004 0.67596 0.0
C842 C 0.25728 0.61874 0.72761 0.0
C843 C 0.26267 0.65887 0.63055 0.0
H844 H 0.27492 0.68111 0.82007 0.0
C845 C 0.28716 0.73476 0.67251 0.0
C846 C 0.30061 0.74415 0.72467 0.0
C847 C 0.27902 0.71599 0.6661 0.0
C848 C 0.27183 0.67518 0.7666 0.0
H849 H 0.21685 0.59216 0.59781 0.0
H850 H 0.23075 0.62494 0.60672 0.0
H851 H 0.26105 0.64846 0.80928 0.0
H852 H 0.3163 0.74118 0.81006 0.0
H853 H 0.30234 0.70851 0.79829 0.0
H854 H 0.27364 0.68558 0.58769 0.0
C855 C 0.23619 0.61817 0.63899 0.0
C856 C 0.26382 0.65643 0.76047 0.0
C857 C 0.22816 0.59937 0.63418 0.0
C858 C 0.30579 0.73432 0.77003 0.0
C859 C 0.29774 0.71557 0.76333 0.0
C860 C 0.27078 0.67765 0.63663 0.0
C861 C 0.25078 0.62807 0.68609 0.0
C862 C 0.25916 0.64804 0.69239 0.0
C863 C 0.2842 0.70612 0.71141 0.0
C864 C 0.27549 0.68608 0.70476 0.0
H865 H 0.25473 0.59328 0.75546 0.0
H866 H 0.26865 0.62597 0.76373 0.0
H867 H 0.25945 0.65285 0.57724 0.0
H868 H 0.28269 0.74191 0.63737 0.0
H869 H 0.26844 0.7092 0.62634 0.0
C870 C 0.47936 0.65484 0.63379 0.0
C871 C 0.48902 0.67093 0.67339 0.0
C872 C 0.46052 0.64456 0.6387 0.0
C873 C 0.42245 0.63618 0.7578 0.0
H874 H 0.39331 0.61573 0.58595 0.0
C875 C 0.34468 0.60193 0.76635 0.0
C876 C 0.33466 0.58641 0.72397 0.0
C877 C 0.36344 0.61233 0.75891 0.0
C878 C 0.40123 0.62114 0.63466 0.0
H879 H 0.48631 0.68882 0.7491 0.0
H880 H 0.45356 0.67092 0.75749 0.0
H881 H 0.4261 0.63343 0.57545 0.0
H882 H 0.33657 0.56958 0.64098 0.0
H883 H 0.36927 0.58754 0.62861 0.0
H884 H 0.39769 0.62377 0.81725 0.0
C885 C 0.46056 0.66617 0.72306 0.0
C886 C 0.42005 0.63132 0.62857 0.0
C887 C 0.47936 0.67649 0.71786 0.0
C888 C 0.34385 0.58159 0.67374 0.0
C889 C 0.36263 0.59193 0.66659 0.0
C890 C 0.40366 0.62593 0.76397 0.0
C891 C 0.4509 0.65006 0.68369 0.0
C892 C 0.43088 0.63902 0.69004 0.0
C893 C 0.3727 0.60743 0.70923 0.0
C894 C 0.39276 0.61831 0.70247 0.0
H895 H 0.48634 0.65013 0.59904 0.0
H896 H 0.4535 0.63213 0.60816 0.0
H897 H 0.4304 0.64168 0.8064 0.0
H898 H 0.33798 0.60615 0.80482 0.0
H899 H 0.37066 0.62435 0.79171 0.0
C900 C 1.01912 0.18191 0.75782 0.0
C901 C 0.03423 0.18983 0.8033 0.0
C902 C 1.02123 0.18477 0.68324 0.0
C903 C 1.03014 0.20378 0.53588 0.0
H904 H 0.06584 0.19663 0.43497 0.0
C905 C 0.05198 0.22584 0.23959 0.0
C906 C 0.05243 0.2128 0.19509 0.0
C907 C 0.0494 0.22295 0.31405 0.0
C908 C 0.0558 0.19863 0.46252 0.0
H909 H 0.06331 0.20613 0.80809 0.0
H910 H 0.06711 0.21116 0.67731 0.0
H911 H 0.062 0.19159 0.5655 0.0
H912 H 0.05057 0.18657 0.1927 0.0
H913 H 0.04632 0.18163 0.32306 0.0
H914 H 1.02403 0.21094 0.43285 0.0
C915 C 0.05365 0.20295 0.6991 0.0
C916 C 0.05369 0.19587 0.53708 0.0
C917 C 0.05149 0.20026 0.77369 0.0
C918 C 0.05025 0.19683 0.22597 0.0
C919 C 0.04792 0.19404 0.30043 0.0
C920 C 0.03242 0.20678 0.46142 0.0
C921 C 0.03852 0.19533 0.65326 0.0
C922 C 0.0408 0.19835 0.57435 0.0
C923 C 0.04749 0.20708 0.34513 0.0
C924 C 0.04521 0.20415 0.42408 0.0
H925 H 1.0057 0.17371 0.78007 0.0
H926 H 1.00939 0.17859 0.64892 0.0
H927 H 1.02019 0.2059 0.56355 0.0
H928 H 0.05357 0.23824 0.21683 0.0
H929 H 0.04921 0.23324 0.34751 0.0
C930 C 0.87929 0.87537 0.78114 0.0
C931 C 0.8872 0.8657 0.80931 0.0
C932 C 0.87713 0.87609 0.7068 0.0
C933 C 0.89468 0.87112 0.53292 0.0
H934 H 0.84936 0.86434 0.45755 0.0
C935 C 0.87635 0.85945 0.23144 0.0
C936 C 0.86734 0.86786 0.20142 0.0
C937 C 0.87939 0.86016 0.30563 0.0
C938 C 0.86218 0.86652 0.47785 0.0
H939 H 0.8991 0.84924 0.78272 0.0
H940 H 0.89528 0.85045 0.65212 0.0
H941 H 0.85329 0.86329 0.58765 0.0
H942 H 0.85476 0.88389 0.22436 0.0
H943 H 0.8602 0.88526 0.35466 0.0
H944 H 0.90357 0.87431 0.42312 0.0
C945 C 0.89087 0.85757 0.68757 0.0
C946 C 0.86441 0.86587 0.55225 0.0
C947 C 0.89297 0.85679 0.7621 0.0
C948 C 0.86165 0.87722 0.24649 0.0
C949 C 0.86469 0.87793 0.32089 0.0
C950 C 0.89247 0.8718 0.45851 0.0
C951 C 0.88292 0.86723 0.65929 0.0
C952 C 0.88065 0.86807 0.58044 0.0
C953 C 0.8735 0.86931 0.35119 0.0
C954 C 0.87616 0.86941 0.43022 0.0
H955 H 0.87484 0.88246 0.8165 0.0
H956 H 0.87116 0.88382 0.68645 0.0
H957 H 0.90744 0.87315 0.55331 0.0
H958 H 0.88089 0.85215 0.19773 0.0
H959 H 0.88601 0.8532 0.32748 0.0
C960 C 0.20383 0.02835 0.77903 0.0
C961 C 0.21365 0.04587 0.80729 0.0
C962 C 0.20328 0.02553 0.70475 0.0
C963 C 0.22751 0.04664 0.53664 0.0
H964 H 0.18228 1.01241 0.44558 0.0
C965 C 0.21907 0.04113 0.22917 0.0
C966 C 0.21048 0.02367 0.19993 0.0
C967 C 0.21892 0.04362 0.3034 0.0
C968 C 0.19502 0.02187 0.47048 0.0
H969 H 0.23051 0.0742 0.78103 0.0
H970 H 0.22935 0.06933 0.65056 0.0
H971 H 0.18324 1.01743 0.57576 0.0
H972 H 0.19461 0.99512 0.22423 0.0
H973 H 0.19439 0.99945 0.35497 0.0
H974 H 0.23927 0.05114 0.43137 0.0
C975 C 0.22231 0.05775 0.68587 0.0
C976 C 0.19558 0.02474 0.54485 0.0
C977 C 0.22291 0.06056 0.76032 0.0
C978 C 0.20136 1.00871 0.24577 0.0
C979 C 0.20117 1.0112 0.32028 0.0
C980 C 0.22693 0.0438 0.46234 0.0
C981 C 0.21248 0.0402 0.65741 0.0
C982 C 0.21184 0.03717 0.5786 0.0
C983 C 0.21014 0.02868 0.34971 0.0
C984 C 0.21068 0.03143 0.42859 0.0
H985 H 0.19655 1.0168 0.81429 0.0
H986 H 0.19581 1.01184 0.68445 0.0
H987 H 0.24029 0.05606 0.56136 0.0
H988 H 0.22606 0.05291 0.19479 0.0
H989 H 0.22566 0.05724 0.32459 0.0
C990 C 0.70326 0.53549 0.56437 0.0
C991 C 0.72072 0.54428 0.53496 0.0
C992 C 0.70078 0.53282 0.63866 0.0
C993 C 0.72262 0.53043 0.80545 0.0
H994 H 0.68819 0.54101 0.8974 0.0
C995 C 0.71619 0.53216 0.11438 0.0
C996 C 0.69868 0.52437 0.14295 0.0
C997 C 0.71896 0.53453 0.04005 0.0
C998 C 0.69768 0.5378 0.87239 0.0
H999 H 0.74926 0.55687 0.55917 0.0
H1000 H 0.74493 0.55228 0.68994 0.0
H1001 H 0.69308 0.54519 0.76742 0.0
H1002 H 0.67033 0.51285 0.11708 0.0
H1003 H 0.67512 0.51675 -0.01345 0.0
H1004 H 0.72716 0.52295 0.91042 0.0
C1005 C 0.73319 0.54739 0.65535 0.0
C1006 C 0.7005 0.54021 0.79806 0.0
C1007 C 0.73567 0.55009 0.58079 0.0
C1008 C 0.68396 0.51895 0.09617 0.0
C1009 C 0.68673 0.52127 0.02167 0.0
C1010 C 0.71976 0.52797 0.87984 0.0
C1011 C 0.71571 0.53888 0.68493 0.0
C1012 C 0.71296 0.53651 0.76388 0.0
C1013 C 0.70426 0.52909 -0.00709 0.0
C1014 C 0.70725 0.53162 0.91401 0.0
H1015 H 0.69149 0.53075 0.53005 0.0
H1016 H 0.68716 0.52596 0.6599 0.0
H1017 H 0.73214 0.52727 0.78028 0.0
H1018 H 0.72777 0.53642 0.14945 0.0
H1019 H 0.73264 0.54082 0.01957 0.0
C1020 C 0.52844 0.21018 0.57831 0.0
C1021 C 0.53411 0.2008 0.53323 0.0
C1022 C 0.53147 0.21088 0.65271 0.0
C1023 C 0.55919 0.20468 0.79036 0.0
H1024 H 0.51994 0.19607 0.9193 0.0
C1025 C 0.55958 0.18953 0.09388 0.0
C1026 C 0.55378 0.19842 0.14109 0.0
C1027 C 0.55751 0.19033 0.01934 0.0
C1028 C 0.53108 0.19868 0.88396 0.0
H1029 H 0.54762 0.18506 0.52951 0.0
H1030 H 0.55274 0.18609 0.65926 0.0
H1031 H 0.51608 0.1972 0.7892 0.0
H1032 H 0.54138 0.21515 0.14827 0.0
H1033 H 0.53776 0.21655 0.01823 0.0
H1034 H 0.57413 0.20598 0.88523 0.0
C1035 C 0.54614 0.19307 0.63742 0.0
C1036 C 0.52889 0.19937 0.80956 0.0
C1037 C 0.5431 0.19237 0.56324 0.0
C1038 C 0.54586 0.20807 0.11291 0.0
C1039 C 0.54373 0.20883 0.03858 0.0
C1040 C 0.56137 0.20395 0.86477 0.0
C1041 C 0.54026 0.20223 0.68299 0.0
C1042 C 0.54289 0.20229 0.76202 0.0
C1043 C 0.54955 0.19999 -0.00894 0.0
C1044 C 0.54731 0.20087 0.91222 0.0
H1045 H 0.52157 0.21687 0.5562 0.0
H1046 H 0.52699 0.21821 0.6865 0.0
H1047 H 0.57031 0.20721 0.75502 0.0
H1048 H 0.56572 0.18199 0.11451 0.0
H1049 H 0.56194 0.18324 -0.01612 0.0
C1050 C 0.88487 0.37367 0.56357 0.0
C1051 C 0.87644 0.35627 0.53372 0.0
C1052 C 0.88418 0.376 0.63771 0.0
C1053 C 0.87811 0.35244 0.80968 0.0
H1054 H 0.87185 0.39121 0.88591 0.0
C1055 C 0.87017 0.36094 0.11329 0.0
C1056 C 0.87996 0.37852 0.1411 0.0
C1057 C 0.86927 0.35802 0.03902 0.0
C1058 C 0.87378 0.38045 0.86527 0.0
H1059 H 0.86031 0.32768 0.55685 0.0
H1060 H 0.85897 0.33173 0.68714 0.0
H1061 H 0.87023 0.38608 0.75574 0.0
H1062 H 0.89649 0.40683 0.11396 0.0
H1063 H 0.89498 0.40173 -0.01663 0.0
H1064 H 0.88172 0.34685 0.91919 0.0
C1065 C 0.86632 0.34355 0.65324 0.0
C1066 C 0.87282 0.37748 0.79091 0.0
C1067 C 0.86701 0.34122 0.57887 0.0
C1068 C 0.88886 0.39316 0.09361 0.0
C1069 C 0.8879 0.39025 0.0191 0.0
C1070 C 0.87904 0.35538 0.88403 0.0
C1071 C 0.87502 0.36097 0.68337 0.0
C1072 C 0.87509 0.36352 0.76238 0.0
C1073 C 0.87808 0.37264 -0.00879 0.0
C1074 C 0.87698 0.36947 0.91245 0.0
H1075 H 0.89222 0.3855 0.52977 0.0
H1076 H 0.8912 0.38957 0.65945 0.0
H1077 H 0.8802 0.34177 0.78913 0.0
H1078 H 0.86307 0.34942 0.14887 0.0
H1079 H 0.86144 0.34433 0.01895 0.0
C1080 C 0.38399 0.86579 0.43986 0.0
C1081 C 0.36666 0.85638 0.46975 0.0
C1082 C 0.38619 0.86853 0.3653 0.0
C1083 C 0.38571 0.86173 0.20314 0.0
H1084 H 0.35765 0.87891 0.1 0.0
C1085 C 0.38246 0.86319 0.89221 0.0
C1086 C 0.38503 0.87931 0.86138 0.0
C1087 C 0.38012 0.86043 0.96668 0.0
C1088 C 0.3656 0.87417 0.12824 0.0
H1089 H 0.33803 0.84212 0.44714 0.0
H1090 H 0.34179 0.84701 0.31605 0.0
H1091 H 0.35381 0.87394 0.23064 0.0
H1092 H 0.38692 0.90508 0.88326 0.0
H1093 H 0.38263 0.90018 0.01394 0.0
H1094 H 0.39747 0.86191 0.1008 0.0
C1095 C 0.35367 0.8524 0.35008 0.0
C1096 C 0.36331 0.8712 0.20271 0.0
C1097 C 0.35151 0.84952 0.42463 0.0
C1098 C 0.38501 0.89256 0.90596 0.0
C1099 C 0.38246 0.88972 0.98045 0.0
C1100 C 0.38785 0.8645 0.12859 0.0
C1101 C 0.37104 0.86195 0.31976 0.0
C1102 C 0.37337 0.86499 0.24083 0.0
C1103 C 0.38012 0.87367 0.0115 0.0
C1104 C 0.37784 0.87077 0.0905 0.0
H1105 H 0.39582 0.87089 0.47405 0.0
H1106 H 0.39972 0.87598 0.34333 0.0
H1107 H 0.39354 0.85683 0.2312 0.0
H1108 H 0.38245 0.85277 0.85889 0.0
H1109 H 0.37817 0.84787 -0.01079 0.0
C1110 C 0.21014 0.52655 0.8966 0.0
C1111 C 0.20084 0.53466 0.86659 0.0
C1112 C 0.2132 0.52732 0.97079 0.0
C1113 C 0.19556 0.53311 0.14285 0.0
H1114 H 0.24114 0.54067 0.21867 0.0
C1115 C 0.21244 0.54196 0.4463 0.0
C1116 C 0.22067 0.53259 0.47438 0.0
C1117 C 0.21028 0.54269 0.37198 0.0
C1118 C 0.22829 0.53838 0.19817 0.0
H1119 H 0.18777 0.55023 0.88952 0.0
H1120 H 0.19322 0.5517 0.01982 0.0
H1121 H 0.23729 0.54185 0.08846 0.0
H1122 H 0.23311 0.51663 0.44765 0.0
H1123 H 0.22928 0.51784 0.31706 0.0
H1124 H 0.18655 0.52959 0.25256 0.0
C1125 C 0.19793 0.54456 -0.01396 0.0
C1126 C 0.22609 0.53907 0.12376 0.0
C1127 C 0.19488 0.54379 0.91165 0.0
C1128 C 0.22673 0.52395 0.4271 0.0
C1129 C 0.22464 0.52473 0.35257 0.0
C1130 C 0.19777 0.53244 0.21725 0.0
C1131 C 0.20703 0.53623 0.01633 0.0
C1132 C 0.20967 0.53634 0.09536 0.0
C1133 C 0.21638 0.53412 0.32439 0.0
C1134 C 0.21412 0.53498 0.24556 0.0
H1135 H 0.21489 0.51944 0.86289 0.0
H1136 H 0.22004 0.52059 -0.00736 0.0
H1137 H 0.18265 0.53066 0.12244 0.0
H1138 H 0.20774 0.54884 0.48173 0.0
H1139 H 0.20407 0.5502 0.35169 0.0
C1140 C 0.55648 0.7282 0.42336 0.0
C1141 C 0.54697 0.71355 0.47027 0.0
C1142 C 0.55589 0.72539 0.3489 0.0
C1143 C 0.52902 0.69256 0.20722 0.0
H1144 H 0.573 0.71851 0.09506 0.0
C1145 C 0.53506 0.67643 0.90835 0.0
C1146 C 0.54439 0.6914 0.86265 0.0
C1147 C 0.5348 0.6789 -0.01714 0.0
C1148 C 0.56058 0.71129 0.12565 0.0
H1149 H 0.52931 0.68455 0.47703 0.0
H1150 H 0.5286 0.67958 0.34721 0.0
H1151 H 0.57383 0.72342 0.225 0.0
H1152 H 0.56032 0.72062 0.85788 0.0
H1153 H 0.5598 0.72491 -0.01233 0.0
H1154 H 0.51584 0.68035 0.1076 0.0
C1155 C 0.53629 0.69325 0.36756 0.0
C1156 C 0.56105 0.71413 0.19993 0.0
C1157 C 0.53683 0.69607 0.44186 0.0
C1158 C 0.55315 0.70884 0.89211 0.0
C1159 C 0.55293 0.7113 0.96635 0.0
C1160 C 0.52857 0.68968 0.13286 0.0
C1161 C 0.54581 0.70787 0.3203 0.0
C1162 C 0.54527 0.70484 0.24145 0.0
C1163 C 0.54391 0.69636 0.0125 0.0
C1164 C 0.54434 0.69909 0.09142 0.0
H1165 H 0.56433 0.74181 0.44415 0.0
H1166 H 0.56317 0.73695 0.31368 0.0
H1167 H 0.5166 0.68538 0.23772 0.0
H1168 H 0.52817 0.66286 0.88666 0.0
H1169 H 0.52782 0.66715 0.01741 0.0
loop_
_geom_bond_atom_site_label_1
_geom_bond_atom_site_label_2
_geom_bond_distance
_geom_bond_site_symmetry_2
_ccdc_geom_bond_type
Gd0 C3 2.818 1_554 S
Gd0 O20 2.377 . S
Gd0 O22 2.448 . S
Gd0 O23 2.506 1_554 S
Gd0 O24 2.435 . S
Gd0 O25 2.717 . S
Gd0 O27 2.395 . S
Gd0 O31 2.327 1_554 S
Gd1 C12 2.820 . S
Gd1 O21 2.395 . S
Gd1 O25 2.335 1_655 S
Gd1 O26 2.375 1_654 S
Gd1 O28 2.445 1_554 S
Gd1 O29 2.512 . S
Gd1 O30 2.424 1_554 S
Gd1 O31 2.711 1_654 S
C2 O20 1.240 1_655 S
C2 O21 1.241 . S
C3 Gd0 2.818 1_556 S
C3 C4 1.510 . S
C3 O22 1.249 1_556 S
C3 O23 1.252 . S
C4 C3 1.510 . S
C4 C5 1.404 1_556 S
C4 C6 1.352 . S
C5 C4 1.404 1_554 S
C5 C9 1.389 . S
C5 H32 0.930 . S
C6 C4 1.352 . S
C6 C8 1.374 . S
C6 H33 0.931 . S
C7 C8 1.359 . S
C7 C9 1.364 1_556 S
C8 C6 1.374 . S
C8 C7 1.359 . S
C8 H34 0.931 . S
C9 C5 1.389 . S
C9 C7 1.364 1_554 S
C9 H35 0.931 . S
C10 O24 1.256 . S
C10 O25 1.257 . S
C11 O26 1.244 . S
C11 O27 1.238 1_556 S
C12 Gd1 2.820 . S
C12 C13 1.510 . S
C12 O28 1.249 1_554 S
C12 O29 1.252 . S
C13 C12 1.510 . S
C13 C14 1.404 1_554 S
C13 C15 1.352 . S
C14 C13 1.404 1_556 S
C14 C18 1.389 . S
C14 H36 0.930 . S
C15 C13 1.352 . S
C15 C17 1.374 . S
C15 H37 0.931 . S
C16 C17 1.359 . S
C16 C18 1.364 1_554 S
C17 C15 1.374 . S
C17 C16 1.359 . S
C17 H38 0.931 . S
C18 C14 1.389 . S
C18 C16 1.364 1_556 S
C18 H39 0.931 . S
C19 O30 1.256 1_455 S
C19 O31 1.257 . S
O20 Gd0 2.377 . S
O20 C2 1.240 1_455 S
O21 Gd1 2.395 . S
O21 C2 1.241 . S
O22 Gd0 2.448 . S
O22 C3 1.249 1_554 S
O23 Gd0 2.506 1_556 S
O23 C3 1.252 . S
O24 Gd0 2.435 . S
O24 C10 1.256 . S
O25 Gd0 2.717 . S
O25 Gd1 2.335 1_455 S
O25 C10 1.257 . S
O26 Gd1 2.375 1_456 S
O26 C11 1.244 . S
O27 Gd0 2.395 . S
O27 C11 1.238 1_554 S
O28 Gd1 2.445 1_556 S
O28 C12 1.249 1_556 S
O29 Gd1 2.512 . S
O29 C12 1.252 . S
O30 Gd1 2.424 1_556 S
O30 C19 1.256 1_655 S
O31 Gd0 2.327 1_556 S
O31 Gd1 2.711 1_456 S
O31 C19 1.257 . S
H32 C5 0.930 . S
H33 C6 0.931 . S
H34 C8 0.931 . S
H35 C9 0.931 . S
H36 C14 0.930 . S
H37 C15 0.931 . S
H38 C17 0.931 . S
H39 C18 0.931 . S
Gd40 C43 2.818 1_554 S
Gd40 O60 2.377 . S
Gd40 O62 2.448 . S
Gd40 O63 2.506 1_554 S
Gd40 O64 2.435 . S
Gd40 O65 2.717 . S
Gd40 O67 2.395 . S
Gd40 O71 2.327 1_554 S
Gd41 C52 2.820 . S
Gd41 O61 2.395 . S
Gd41 O65 2.335 . S
Gd41 O66 2.375 1_554 S
Gd41 O68 2.445 1_554 S
Gd41 O69 2.512 . S
Gd41 O70 2.424 1_554 S
Gd41 O71 2.711 1_554 S
C42 O60 1.240 . S
C42 O61 1.241 . S
C43 Gd40 2.818 1_556 S
C43 C44 1.510 . S
C43 O62 1.249 1_556 S
C43 O63 1.252 . S
C44 C43 1.510 . S
C44 C45 1.404 1_556 S
C44 C46 1.352 . S
C45 C44 1.404 1_554 S
C45 C49 1.389 . S
C45 H72 0.930 . S
C46 C44 1.352 . S
C46 C48 1.374 . S
C46 H73 0.931 . S
C47 C48 1.359 . S
C47 C49 1.364 1_556 S
C48 C46 1.374 . S
C48 C47 1.359 . S
C48 H74 0.931 . S
C49 C45 1.389 . S
C49 C47 1.364 1_554 S
C49 H75 0.931 . S
C50 O64 1.256 . S
C50 O65 1.257 . S
C51 O66 1.244 . S
C51 O67 1.238 1_556 S
C52 Gd41 2.820 . S
C52 C53 1.510 . S
C52 O68 1.249 1_554 S
C52 O69 1.252 . S
C53 C52 1.510 . S
C53 C54 1.404 1_554 S
C53 C55 1.352 . S
C54 C53 1.404 1_556 S
C54 C58 1.389 . S
C54 H76 0.930 . S
C55 C53 1.352 . S
C55 C57 1.374 . S
C55 H77 0.931 . S
C56 C57 1.359 . S
C56 C58 1.364 1_554 S
C57 C55 1.374 . S
C57 C56 1.359 . S
C57 H78 0.931 . S
C58 C54 1.389 . S
C58 C56 1.364 1_556 S
C58 H79 0.931 . S
C59 O70 1.256 . S
C59 O71 1.257 . S
O60 Gd40 2.377 . S
O60 C42 1.240 . S
O61 Gd41 2.395 . S
O61 C42 1.241 . S
O62 Gd40 2.448 . S
O62 C43 1.249 1_554 S
O63 Gd40 2.506 1_556 S
O63 C43 1.252 . S
O64 Gd40 2.435 . S
O64 C50 1.256 . S
O65 Gd40 2.717 . S
O65 Gd41 2.335 . S
O65 C50 1.257 . S
O66 Gd41 2.375 1_556 S
O66 C51 1.244 . S
O67 Gd40 2.395 . S
O67 C51 1.238 1_554 S
O68 Gd41 2.445 1_556 S
O68 C52 1.249 1_556 S
O69 Gd41 2.512 . S
O69 C52 1.252 . S
O70 Gd41 2.424 1_556 S
O70 C59 1.256 . S
O71 Gd40 2.327 1_556 S
O71 Gd41 2.711 1_556 S
O71 C59 1.257 . S
H72 C45 0.930 . S
H73 C46 0.931 . S
H74 C48 0.931 . S
H75 C49 0.931 . S
H76 C54 0.930 . S
H77 C55 0.931 . S
H78 C57 0.931 . S
H79 C58 0.931 . S
Gd80 C83 2.818 1_554 S
Gd80 O100 2.377 1_565 S
Gd80 O102 2.448 . S
Gd80 O103 2.506 1_554 S
Gd80 O104 2.435 . S
Gd80 O105 2.717 1_565 S
Gd80 O107 2.395 . S
Gd80 O111 2.327 1_564 S
Gd81 C92 2.820 . S
Gd81 O101 2.395 . S
Gd81 O105 2.335 . S
Gd81 O106 2.375 1_554 S
Gd81 O108 2.445 1_554 S
Gd81 O109 2.512 . S
Gd81 O110 2.424 1_554 S
Gd81 O111 2.711 1_554 S
C82 O100 1.240 . S
C82 O101 1.241 . S
C83 Gd80 2.818 1_556 S
C83 C84 1.510 . S
C83 O102 1.249 1_556 S
C83 O103 1.252 . S
C84 C83 1.510 . S
C84 C85 1.404 1_556 S
C84 C86 1.352 . S
C85 C84 1.404 1_554 S
C85 C89 1.389 . S
C85 H112 0.930 . S
C86 C84 1.352 . S
C86 C88 1.374 . S
C86 H113 0.931 . S
C87 C88 1.359 . S
C87 C89 1.364 1_556 S
C88 C86 1.374 . S
C88 C87 1.359 . S
C88 H114 0.931 . S
C89 C85 1.389 . S
C89 C87 1.364 1_554 S
C89 H115 0.931 . S
C90 O104 1.256 1_545 S
C90 O105 1.257 . S
C91 O106 1.243 1_565 S
C91 O107 1.238 1_556 S
C92 Gd81 2.820 . S
C92 C93 1.510 . S
C92 O108 1.249 1_554 S
C92 O109 1.252 . S
C93 C92 1.510 . S
C93 C94 1.404 1_554 S
C93 C95 1.352 . S
C94 C93 1.404 1_556 S
C94 C98 1.389 . S
C94 H116 0.930 . S
C95 C93 1.352 . S
C95 C97 1.374 . S
C95 H117 0.931 . S
C96 C97 1.359 . S
C96 C98 1.364 1_554 S
C97 C95 1.374 . S
C97 C96 1.359 . S
C97 H118 0.931 . S
C98 C94 1.389 . S
C98 C96 1.364 1_556 S
C98 H119 0.931 . S
C99 O110 1.256 . S
C99 O111 1.257 . S
O100 Gd80 2.377 1_545 S
O100 C82 1.240 . S
O101 Gd81 2.395 . S
O101 C82 1.241 . S
O102 Gd80 2.448 . S
O102 C83 1.249 1_554 S
O103 Gd80 2.506 1_556 S
O103 C83 1.252 . S
O104 Gd80 2.435 . S
O104 C90 1.256 1_565 S
O105 Gd80 2.717 1_545 S
O105 Gd81 2.335 . S
O105 C90 1.257 . S
O106 Gd81 2.375 1_556 S
O106 C91 1.243 1_545 S
O107 Gd80 2.395 . S
O107 C91 1.238 1_554 S
O108 Gd81 2.445 1_556 S
O108 C92 1.249 1_556 S
O109 Gd81 2.512 . S
O109 C92 1.252 . S
O110 Gd81 2.424 1_556 S
O110 C99 1.256 . S
O111 Gd80 2.327 1_546 S
O111 Gd81 2.711 1_556 S
O111 C99 1.257 . S
H112 C85 0.930 . S
H113 C86 0.931 . S
H114 C88 0.931 . S
H115 C89 0.931 . S
H116 C94 0.930 . S
H117 C95 0.931 . S
H118 C97 0.931 . S
H119 C98 0.931 . S
Gd120 C123 2.818 . S
Gd120 O140 2.377 . S
Gd120 O142 2.448 . S
Gd120 O143 2.506 . S
Gd120 O144 2.435 . S
Gd120 O145 2.717 . S
Gd120 O147 2.395 . S
Gd120 O151 2.327 . S
Gd121 C132 2.818 . S
Gd121 O141 2.395 . S
Gd121 O145 2.327 . S
Gd121 O146 2.377 . S
Gd121 O148 2.448 . S
Gd121 O149 2.506 . S
Gd121 O150 2.435 . S
Gd121 O151 2.717 . S
C122 O140 1.240 . S
C122 O141 1.240 . S
C123 Gd120 2.818 . S
C123 C124 1.510 . S
C123 O142 1.249 . S
C123 O143 1.252 . S
C124 C123 1.510 . S
C124 C125 1.404 . S
C124 C126 1.352 . S
C125 C124 1.404 . S
C125 C129 1.389 . S
C125 H152 0.930 . S
C126 C124 1.352 . S
C126 C128 1.374 . S
C126 H153 0.931 . S
C127 C128 1.359 . S
C127 C129 1.364 . S
C128 C126 1.374 . S
C128 C127 1.359 . S
C128 H154 0.931 . S
C129 C125 1.389 . S
C129 C127 1.364 . S
C129 H155 0.931 . S
C130 O144 1.256 . S
C130 O145 1.257 . S
C131 O146 1.240 . S
C131 O147 1.240 . S
C132 Gd121 2.818 . S
C132 C133 1.510 . S
C132 O148 1.249 . S
C132 O149 1.252 . S
C133 C132 1.510 . S
C133 C134 1.404 . S
C133 C135 1.352 . S
C134 C133 1.404 . S
C134 C138 1.389 . S
C134 H156 0.930 . S
C135 C133 1.352 . S
C135 C137 1.374 . S
C135 H157 0.931 . S
C136 C137 1.359 . S
C136 C138 1.364 . S
C137 C135 1.374 . S
C137 C136 1.359 . S
C137 H158 0.931 . S
C138 C134 1.389 . S
C138 C136 1.364 . S
C138 H159 0.931 . S
C139 O150 1.256 . S
C139 O151 1.257 . S
O140 Gd120 2.377 . S
O140 C122 1.240 . S
O141 Gd121 2.395 . S
O141 C122 1.240 . S
O142 Gd120 2.448 . S
O142 C123 1.249 . S
O143 Gd120 2.506 . S
O143 C123 1.252 . S
O144 Gd120 2.435 . S
O144 C130 1.256 . S
O145 Gd120 2.717 . S
O145 Gd121 2.327 . S
O145 C130 1.257 . S
O146 Gd121 2.377 . S
O146 C131 1.240 . S
O147 Gd120 2.395 . S
O147 C131 1.240 . S
O148 Gd121 2.448 . S
O148 C132 1.249 . S
O149 Gd121 2.506 . S
O149 C132 1.252 . S
O150 Gd121 2.435 . S
O150 C139 1.256 . S
O151 Gd120 2.327 . S
O151 Gd121 2.717 . S
O151 C139 1.257 . S
H152 C125 0.930 . S
H153 C126 0.931 . S
H154 C128 0.931 . S
H155 C129 0.931 . S
H156 C134 0.930 . S
H157 C135 0.931 . S
H158 C137 0.931 . S
H159 C138 0.931 . S
Gd160 C163 2.818 . S
Gd160 O180 2.377 . S
Gd160 O182 2.448 . S
Gd160 O183 2.506 . S
Gd160 O184 2.435 . S
Gd160 O185 2.717 . S
Gd160 O187 2.395 . S
Gd160 O191 2.327 . S
Gd161 C172 2.818 . S
Gd161 O181 2.395 . S
Gd161 O185 2.327 . S
Gd161 O186 2.377 . S
Gd161 O188 2.448 . S
Gd161 O189 2.506 . S
Gd161 O190 2.435 . S
Gd161 O191 2.717 . S
C162 O180 1.240 . S
C162 O181 1.240 . S
C163 Gd160 2.818 . S
C163 C164 1.510 . S
C163 O182 1.249 . S
C163 O183 1.252 . S
C164 C163 1.510 . S
C164 C165 1.404 . S
C164 C166 1.352 . S
C165 C164 1.404 . S
C165 C169 1.389 . S
C165 H192 0.930 . S
C166 C164 1.352 . S
C166 C168 1.374 . S
C166 H193 0.931 . S
C167 C168 1.359 . S
C167 C169 1.364 . S
C168 C166 1.374 . S
C168 C167 1.359 . S
C168 H194 0.931 . S
C169 C165 1.389 . S
C169 C167 1.364 . S
C169 H195 0.931 . S
C170 O184 1.256 . S
C170 O185 1.257 . S
C171 O186 1.240 . S
C171 O187 1.240 . S
C172 Gd161 2.818 . S
C172 C173 1.510 . S
C172 O188 1.249 . S
C172 O189 1.252 . S
C173 C172 1.510 . S
C173 C174 1.404 . S
C173 C175 1.352 . S
C174 C173 1.404 . S
C174 C178 1.389 . S
C174 H196 0.930 . S
C175 C173 1.352 . S
C175 C177 1.374 . S
C175 H197 0.931 . S
C176 C177 1.359 . S
C176 C178 1.364 . S
C177 C175 1.374 . S
C177 C176 1.359 . S
C177 H198 0.931 . S
C178 C174 1.389 . S
C178 C176 1.364 . S
C178 H199 0.931 . S
C179 O190 1.256 . S
C179 O191 1.257 . S
O180 Gd160 2.377 . S
O180 C162 1.240 . S
O181 Gd161 2.395 . S
O181 C162 1.240 . S
O182 Gd160 2.448 . S
O182 C163 1.249 . S
O183 Gd160 2.506 . S
O183 C163 1.252 . S
O184 Gd160 2.435 . S
O184 C170 1.256 . S
O185 Gd160 2.717 . S
O185 Gd161 2.327 . S
O185 C170 1.257 . S
O186 Gd161 2.377 . S
O186 C171 1.240 . S
O187 Gd160 2.395 . S
O187 C171 1.240 . S
O188 Gd161 2.448 . S
O188 C172 1.249 . S
O189 Gd161 2.506 . S
O189 C172 1.252 . S
O190 Gd161 2.435 . S
O190 C179 1.256 . S
O191 Gd160 2.327 . S
O191 Gd161 2.717 . S
O191 C179 1.257 . S
H192 C165 0.930 . S
H193 C166 0.931 . S
H194 C168 0.931 . S
H195 C169 0.931 . S
H196 C174 0.930 . S
H197 C175 0.931 . S
H198 C177 0.931 . S
H199 C178 0.931 . S
Gd200 C203 2.818 . S
Gd200 O220 2.377 . S
Gd200 O222 2.448 . S
Gd200 O223 2.506 . S
Gd200 O224 2.435 . S
Gd200 O225 2.717 . S
Gd200 O227 2.395 . S
Gd200 O231 2.327 . S
Gd201 C212 2.818 . S
Gd201 O221 2.395 . S
Gd201 O225 2.327 . S
Gd201 O226 2.377 . S
Gd201 O228 2.448 . S
Gd201 O229 2.506 . S
Gd201 O230 2.435 . S
Gd201 O231 2.717 . S
C202 O220 1.240 . S
C202 O221 1.240 . S
C203 Gd200 2.818 . S
C203 C204 1.510 . S
C203 O222 1.249 . S
C203 O223 1.252 . S
C204 C203 1.510 . S
C204 C205 1.404 . S
C204 C206 1.352 . S
C205 C204 1.404 . S
C205 C209 1.389 . S
C205 H232 0.930 . S
C206 C204 1.352 . S
C206 C208 1.374 . S
C206 H233 0.931 . S
C207 C208 1.359 . S
C207 C209 1.364 . S
C208 C206 1.374 . S
C208 C207 1.359 . S
C208 H234 0.931 . S
C209 C205 1.389 . S
C209 C207 1.364 . S
C209 H235 0.931 . S
C210 O224 1.256 . S
C210 O225 1.257 . S
C211 O226 1.240 . S
C211 O227 1.240 . S
C212 Gd201 2.818 . S
C212 C213 1.510 . S
C212 O228 1.249 . S
C212 O229 1.252 . S
C213 C212 1.510 . S
C213 C214 1.404 . S
C213 C215 1.352 . S
C214 C213 1.404 . S
C214 C218 1.389 . S
C214 H236 0.930 . S
C215 C213 1.352 . S
C215 C217 1.374 . S
C215 H237 0.931 . S
C216 C217 1.359 . S
C216 C218 1.364 . S
C217 C215 1.374 . S
C217 C216 1.359 . S
C217 H238 0.931 . S
C218 C214 1.389 . S
C218 C216 1.364 . S
C218 H239 0.931 . S
C219 O230 1.256 . S
C219 O231 1.257 . S
O220 Gd200 2.377 . S
O220 C202 1.240 . S
O221 Gd201 2.395 . S
O221 C202 1.240 . S
O222 Gd200 2.448 . S
O222 C203 1.249 . S
O223 Gd200 2.506 . S
O223 C203 1.252 . S
O224 Gd200 2.435 . S
O224 C210 1.256 . S
O225 Gd200 2.717 . S
O225 Gd201 2.327 . S
O225 C210 1.257 . S
O226 Gd201 2.377 . S
O226 C211 1.240 . S
O227 Gd200 2.395 . S
O227 C211 1.240 . S
O228 Gd201 2.448 . S
O228 C212 1.249 . S
O229 Gd201 2.506 . S
O229 C212 1.252 . S
O230 Gd201 2.435 . S
O230 C219 1.256 . S
O231 Gd200 2.327 . S
O231 Gd201 2.717 . S
O231 C219 1.257 . S
H232 C205 0.930 . S
H233 C206 0.931 . S
H234 C208 0.931 . S
H235 C209 0.931 . S
H236 C214 0.930 . S
H237 C215 0.931 . S
H238 C217 0.931 . S
H239 C218 0.931 . S
Gd240 C243 2.818 . S
Gd240 O260 2.377 . S
Gd240 O262 2.448 . S
Gd240 O263 2.506 . S
Gd240 O264 2.435 . S
Gd240 O265 2.717 . S
Gd240 O267 2.395 . S
Gd240 O271 2.327 . S
Gd241 C252 2.818 . S
Gd241 O261 2.395 . S
Gd241 O265 2.327 . S
Gd241 O266 2.377 . S
Gd241 O268 2.448 . S
Gd241 O269 2.506 . S
Gd241 O270 2.435 . S
Gd241 O271 2.717 . S
C242 O260 1.240 . S
C242 O261 1.240 . S
C243 Gd240 2.818 . S
C243 C244 1.510 . S
C243 O262 1.249 . S
C243 O263 1.252 . S
C244 C243 1.510 . S
C244 C245 1.404 . S
C244 C246 1.352 . S
C245 C244 1.404 . S
C245 C249 1.389 . S
C245 H272 0.930 . S
C246 C244 1.352 . S
C246 C248 1.374 . S
C246 H273 0.931 . S
C247 C248 1.359 . S
C247 C249 1.364 . S
C248 C246 1.374 . S
C248 C247 1.359 . S
C248 H274 0.931 . S
C249 C245 1.389 . S
C249 C247 1.364 . S
C249 H275 0.931 . S
C250 O264 1.256 . S
C250 O265 1.257 . S
C251 O266 1.240 . S
C251 O267 1.240 . S
C252 Gd241 2.818 . S
C252 C253 1.510 . S
C252 O268 1.249 . S
C252 O269 1.252 . S
C253 C252 1.510 . S
C253 C254 1.404 . S
C253 C255 1.352 . S
C254 C253 1.404 . S
C254 C258 1.389 . S
C254 H276 0.930 . S
C255 C253 1.352 . S
C255 C257 1.374 . S
C255 H277 0.931 . S
C256 C257 1.359 . S
C256 C258 1.364 . S
C257 C255 1.374 . S
C257 C256 1.359 . S
C257 H278 0.931 . S
C258 C254 1.389 . S
C258 C256 1.364 . S
C258 H279 0.931 . S
C259 O270 1.256 . S
C259 O271 1.257 . S
O260 Gd240 2.377 . S
O260 C242 1.240 . S
O261 Gd241 2.395 . S
O261 C242 1.240 . S
O262 Gd240 2.448 . S
O262 C243 1.249 . S
O263 Gd240 2.506 . S
O263 C243 1.252 . S
O264 Gd240 2.435 . S
O264 C250 1.256 . S
O265 Gd240 2.717 . S
O265 Gd241 2.327 . S
O265 C250 1.257 . S
O266 Gd241 2.377 . S
O266 C251 1.240 . S
O267 Gd240 2.395 . S
O267 C251 1.240 . S
O268 Gd241 2.448 . S
O268 C252 1.249 . S
O269 Gd241 2.506 . S
O269 C252 1.252 . S
O270 Gd241 2.435 . S
O270 C259 1.256 . S
O271 Gd240 2.327 . S
O271 Gd241 2.717 . S
O271 C259 1.257 . S
H272 C245 0.930 . S
H273 C246 0.931 . S
H274 C248 0.931 . S
H275 C249 0.931 . S
H276 C254 0.930 . S
H277 C255 0.931 . S
H278 C257 0.931 . S
H279 C258 0.931 . S
Gd280 C283 2.818 . S
Gd280 O300 2.377 . S
Gd280 O302 2.448 . S
Gd280 O303 2.506 . S
Gd280 O304 2.435 . S
Gd280 O305 2.717 . S
Gd280 O307 2.395 . S
Gd280 O311 2.327 . S
Gd281 C292 2.818 . S
Gd281 O301 2.395 . S
Gd281 O305 2.327 . S
Gd281 O306 2.377 . S
Gd281 O308 2.448 . S
Gd281 O309 2.506 . S
Gd281 O310 2.435 . S
Gd281 O311 2.717 . S
C282 O300 1.240 . S
C282 O301 1.240 . S
C283 Gd280 2.818 . S
C283 C284 1.510 . S
C283 O302 1.249 . S
C283 O303 1.252 . S
C284 C283 1.510 . S
C284 C285 1.404 . S
C284 C286 1.352 . S
C285 C284 1.404 . S
C285 C289 1.389 . S
C285 H312 0.930 . S
C286 C284 1.352 . S
C286 C288 1.374 . S
C286 H313 0.931 . S
C287 C288 1.359 . S
C287 C289 1.364 . S
C288 C286 1.374 . S
C288 C287 1.359 . S
C288 H314 0.931 . S
C289 C285 1.389 . S
C289 C287 1.364 . S
C289 H315 0.931 . S
C290 O304 1.256 . S
C290 O305 1.257 . S
C291 O306 1.240 . S
C291 O307 1.240 . S
C292 Gd281 2.818 . S
C292 C293 1.510 . S
C292 O308 1.249 . S
C292 O309 1.252 . S
C293 C292 1.510 . S
C293 C294 1.404 . S
C293 C295 1.352 . S
C294 C293 1.404 . S
C294 C298 1.389 . S
C294 H316 0.930 . S
C295 C293 1.352 . S
C295 C297 1.374 . S
C295 H317 0.931 . S
C296 C297 1.359 . S
C296 C298 1.364 . S
C297 C295 1.374 . S
C297 C296 1.359 . S
C297 H318 0.931 . S
C298 C294 1.389 . S
C298 C296 1.364 . S
C298 H319 0.931 . S
C299 O310 1.256 . S
C299 O311 1.257 . S
O300 Gd280 2.377 . S
O300 C282 1.240 . S
O301 Gd281 2.395 . S
O301 C282 1.240 . S
O302 Gd280 2.448 . S
O302 C283 1.249 . S
O303 Gd280 2.506 . S
O303 C283 1.252 . S
O304 Gd280 2.435 . S
O304 C290 1.256 . S
O305 Gd280 2.717 . S
O305 Gd281 2.327 . S
O305 C290 1.257 . S
O306 Gd281 2.377 . S
O306 C291 1.240 . S
O307 Gd280 2.395 . S
O307 C291 1.240 . S
O308 Gd281 2.448 . S
O308 C292 1.249 . S
O309 Gd281 2.506 . S
O309 C292 1.252 . S
O310 Gd281 2.435 . S
O310 C299 1.256 . S
O311 Gd280 2.327 . S
O311 Gd281 2.717 . S
O311 C299 1.257 . S
H312 C285 0.930 . S
H313 C286 0.931 . S
H314 C288 0.931 . S
H315 C289 0.931 . S
H316 C294 0.930 . S
H317 C295 0.931 . S
H318 C297 0.931 . S
H319 C298 0.931 . S
Gd320 C323 2.818 . S
Gd320 O340 2.377 . S
Gd320 O342 2.448 . S
Gd320 O343 2.506 . S
Gd320 O344 2.435 . S
Gd320 O345 2.717 . S
Gd320 O347 2.395 . S
Gd320 O351 2.327 . S
Gd321 C332 2.818 . S
Gd321 O341 2.395 . S
Gd321 O345 2.327 . S
Gd321 O346 2.377 . S
Gd321 O348 2.448 . S
Gd321 O349 2.506 . S
Gd321 O350 2.435 . S
Gd321 O351 2.717 . S
C322 O340 1.240 . S
C322 O341 1.240 . S
C323 Gd320 2.818 . S
C323 C324 1.510 . S
C323 O342 1.249 . S
C323 O343 1.252 . S
C324 C323 1.510 . S
C324 C325 1.404 . S
C324 C326 1.352 . S
C325 C324 1.404 . S
C325 C329 1.389 . S
C325 H352 0.930 . S
C326 C324 1.352 . S
C326 C328 1.374 . S
C326 H353 0.931 . S
C327 C328 1.359 . S
C327 C329 1.364 . S
C328 C326 1.374 . S
C328 C327 1.359 . S
C328 H354 0.931 . S
C329 C325 1.389 . S
C329 C327 1.364 . S
C329 H355 0.931 . S
C330 O344 1.256 . S
C330 O345 1.257 . S
C331 O346 1.240 . S
C331 O347 1.240 . S
C332 Gd321 2.818 . S
C332 C333 1.510 . S
C332 O348 1.249 . S
C332 O349 1.252 . S
C333 C332 1.510 . S
C333 C334 1.404 . S
C333 C335 1.352 . S
C334 C333 1.404 . S
C334 C338 1.389 . S
C334 H356 0.930 . S
C335 C333 1.352 . S
C335 C337 1.374 . S
C335 H357 0.931 . S
C336 C337 1.359 . S
C336 C338 1.364 . S
C337 C335 1.374 . S
C337 C336 1.359 . S
C337 H358 0.931 . S
C338 C334 1.389 . S
C338 C336 1.364 . S
C338 H359 0.931 . S
C339 O350 1.256 . S
C339 O351 1.257 . S
O340 Gd320 2.377 . S
O340 C322 1.240 . S
O341 Gd321 2.395 . S
O341 C322 1.240 . S
O342 Gd320 2.448 . S
O342 C323 1.249 . S
O343 Gd320 2.506 . S
O343 C323 1.252 . S
O344 Gd320 2.435 . S
O344 C330 1.256 . S
O345 Gd320 2.717 . S
O345 Gd321 2.327 . S
O345 C330 1.257 . S
O346 Gd321 2.377 . S
O346 C331 1.240 . S
O347 Gd320 2.395 . S
O347 C331 1.240 . S
O348 Gd321 2.448 . S
O348 C332 1.249 . S
O349 Gd321 2.506 . S
O349 C332 1.252 . S
O350 Gd321 2.435 . S
O350 C339 1.256 . S
O351 Gd320 2.327 . S
O351 Gd321 2.717 . S
O351 C339 1.257 . S
H352 C325 0.930 . S
H353 C326 0.931 . S
H354 C328 0.931 . S
H355 C329 0.931 . S
H356 C334 0.930 . S
H357 C335 0.931 . S
H358 C337 0.931 . S
H359 C338 0.931 . S
C360 C361 1.349 . S
C360 C362 1.327 . S
C360 H385 0.950 . S
C361 C360 1.349 . S
C361 C377 1.349 . S
C362 C360 1.327 . S
C362 C381 1.429 . S
C362 H386 0.950 . S
C363 C380 1.574 . S
C363 C382 1.368 . S
C363 H387 0.949 . S
H364 C368 0.949 . S
C365 C366 1.349 . S
C365 C367 1.327 . S
C365 H388 0.950 . S
C366 C365 1.349 . S
C366 C378 1.349 . S
C367 C365 1.327 . S
C367 C383 1.429 . S
C367 H389 0.950 . S
C368 H364 0.949 . S
C368 C376 1.574 . S
C368 C384 1.368 . S
H369 C377 0.950 1_554 S
H370 C375 0.950 . S
H371 C376 0.949 . S
H372 C378 0.950 . S
H373 C379 0.950 . S
H374 C380 0.949 . S
C375 H370 0.950 . S
C375 C377 1.327 . S
C375 C381 1.429 . S
C376 C368 1.574 . S
C376 H371 0.949 . S
C376 C382 1.368 . S
C377 C361 1.349 . S
C377 H369 0.950 1_556 S
C377 C375 1.327 . S
C378 C366 1.349 . S
C378 H372 0.950 . S
C378 C379 1.327 . S
C379 H373 0.950 . S
C379 C378 1.327 . S
C379 C383 1.429 . S
C380 C363 1.574 . S
C380 H374 0.949 . S
C380 C384 1.368 . S
C381 C362 1.429 . S
C381 C375 1.429 . S
C381 C382 1.523 . S
C382 C363 1.368 . S
C382 C376 1.368 . S
C382 C381 1.523 . S
C383 C367 1.429 . S
C383 C379 1.429 . S
C383 C384 1.523 . S
C384 C368 1.368 . S
C384 C380 1.368 . S
C384 C383 1.523 . S
H385 C360 0.950 . S
H386 C362 0.950 . S
H387 C363 0.949 . S
H388 C365 0.950 . S
H389 C367 0.950 . S
C390 C391 1.349 . S
C390 C392 1.327 . S
C390 H415 0.950 1_556 S
C391 C390 1.349 . S
C391 C407 1.349 . S
C392 C390 1.327 . S
C392 C411 1.429 . S
C392 H416 0.950 . S
C393 C410 1.574 . S
C393 C412 1.368 . S
C393 H417 0.949 . S
H394 C398 0.949 . S
C395 C396 1.349 . S
C395 C397 1.327 . S
C395 H418 0.950 . S
C396 C395 1.349 . S
C396 C408 1.349 . S
C397 C395 1.327 . S
C397 C413 1.429 . S
C397 H419 0.950 . S
C398 H394 0.949 . S
C398 C406 1.574 . S
C398 C414 1.368 . S
H399 C407 0.950 . S
H400 C405 0.950 . S
H401 C406 0.949 . S
H402 C408 0.950 . S
H403 C409 0.950 . S
H404 C410 0.949 . S
C405 H400 0.950 . S
C405 C407 1.327 . S
C405 C411 1.429 . S
C406 C398 1.574 . S
C406 H401 0.949 . S
C406 C412 1.368 . S
C407 C391 1.349 . S
C407 H399 0.950 . S
C407 C405 1.327 . S
C408 C396 1.349 . S
C408 H402 0.950 . S
C408 C409 1.327 . S
C409 H403 0.950 . S
C409 C408 1.327 . S
C409 C413 1.429 . S
C410 C393 1.574 . S
C410 H404 0.949 . S
C410 C414 1.368 . S
C411 C392 1.429 . S
C411 C405 1.429 . S
C411 C412 1.523 . S
C412 C393 1.368 . S
C412 C406 1.368 . S
C412 C411 1.523 . S
C413 C397 1.429 . S
C413 C409 1.429 . S
C413 C414 1.523 . S
C414 C398 1.368 . S
C414 C410 1.368 . S
C414 C413 1.523 . S
H415 C390 0.950 1_554 S
H416 C392 0.950 . S
H417 C393 0.949 . S
H418 C395 0.950 . S
H419 C397 0.950 . S
C420 C421 1.349 . S
C420 C422 1.327 . S
C420 H445 0.950 1_556 S
C421 C420 1.349 . S
C421 C437 1.349 . S
C422 C420 1.327 . S
C422 C441 1.429 . S
C422 H446 0.950 . S
C423 C440 1.574 . S
C423 C442 1.368 . S
C423 H447 0.949 . S
H424 C428 0.949 . S
C425 C426 1.349 . S
C425 C427 1.327 . S
C425 H448 0.950 . S
C426 C425 1.349 . S
C426 C438 1.349 . S
C427 C425 1.327 . S
C427 C443 1.429 . S
C427 H449 0.950 . S
C428 H424 0.949 . S
C428 C436 1.574 . S
C428 C444 1.368 . S
H429 C437 0.950 . S
H430 C435 0.950 . S
H431 C436 0.949 . S
H432 C438 0.950 . S
H433 C439 0.950 . S
H434 C440 0.949 . S
C435 H430 0.950 . S
C435 C437 1.327 . S
C435 C441 1.429 . S
C436 C428 1.574 . S
C436 H431 0.949 . S
C436 C442 1.368 . S
C437 C421 1.349 . S
C437 H429 0.950 . S
C437 C435 1.327 . S
C438 C426 1.349 . S
C438 H432 0.950 . S
C438 C439 1.327 . S
C439 H433 0.950 . S
C439 C438 1.327 . S
C439 C443 1.429 . S
C440 C423 1.574 . S
C440 H434 0.949 . S
C440 C444 1.368 . S
C441 C422 1.429 . S
C441 C435 1.429 . S
C441 C442 1.523 . S
C442 C423 1.368 . S
C442 C436 1.368 . S
C442 C441 1.523 . S
C443 C427 1.429 . S
C443 C439 1.429 . S
C443 C444 1.523 . S
C444 C428 1.368 . S
C444 C440 1.368 . S
C444 C443 1.523 . S
H445 C420 0.950 1_554 S
H446 C422 0.950 . S
H447 C423 0.949 . S
H448 C425 0.950 . S
H449 C427 0.950 . S
C450 C451 1.349 . S
C450 C452 1.327 . S
C450 H475 0.950 . S
C451 C450 1.349 . S
C451 C467 1.349 . S
C452 C450 1.327 . S
C452 C471 1.429 . S
C452 H476 0.950 . S
C453 C470 1.574 . S
C453 C472 1.368 . S
C453 H477 0.949 . S
H454 C458 0.949 . S
C455 C456 1.349 1_556 S
C455 C457 1.327 1_556 S
C455 H478 0.950 . S
C456 C455 1.349 1_554 S
C456 C468 1.349 . S
C457 C455 1.327 1_554 S
C457 C473 1.429 . S
C457 H479 0.950 1_554 S
C458 H454 0.949 . S
C458 C466 1.574 . S
C458 C474 1.368 . S
H459 C467 0.950 . S
H460 C465 0.950 . S
H461 C466 0.949 . S
H462 C468 0.950 . S
H463 C469 0.950 . S
H464 C470 0.949 . S
C465 H460 0.950 . S
C465 C467 1.327 . S
C465 C471 1.429 . S
C466 C458 1.574 . S
C466 H461 0.949 . S
C466 C472 1.368 . S
C467 C451 1.349 . S
C467 H459 0.950 . S
C467 C465 1.327 . S
C468 C456 1.349 . S
C468 H462 0.950 . S
C468 C469 1.327 . S
C469 H463 0.950 . S
C469 C468 1.327 . S
C469 C473 1.429 . S
C470 C453 1.574 . S
C470 H464 0.949 . S
C470 C474 1.368 . S
C471 C452 1.429 . S
C471 C465 1.429 . S
C471 C472 1.523 . S
C472 C453 1.368 . S
C472 C466 1.368 . S
C472 C471 1.523 . S
C473 C457 1.429 . S
C473 C469 1.429 . S
C473 C474 1.523 . S
C474 C458 1.368 . S
C474 C470 1.368 . S
C474 C473 1.523 . S
H475 C450 0.950 . S
H476 C452 0.950 . S
H477 C453 0.949 . S
H478 C455 0.950 . S
H479 C457 0.950 1_556 S
C480 C481 1.349 . S
C480 C482 1.327 . S
C480 H505 0.950 . S
C481 C480 1.349 . S
C481 C497 1.349 . S
C482 C480 1.327 . S
C482 C501 1.429 . S
C482 H506 0.950 . S
C483 C500 1.574 . S
C483 C502 1.368 . S
C483 H507 0.949 . S
H484 C488 0.949 . S
C485 C486 1.349 . S
C485 C487 1.327 . S
C485 H508 0.950 . S
C486 C485 1.349 . S
C486 C498 1.349 . S
C487 C485 1.327 . S
C487 C503 1.429 . S
C487 H509 0.950 . S
C488 H484 0.949 . S
C488 C496 1.574 . S
C488 C504 1.368 . S
H489 C497 0.950 . S
H490 C495 0.950 . S
H491 C496 0.949 . S
H492 C498 0.973 1_556 S
H493 C499 0.950 . S
H494 C500 0.949 . S
C495 H490 0.950 . S
C495 C497 1.327 . S
C495 C501 1.429 . S
C496 C488 1.574 . S
C496 H491 0.949 . S
C496 C502 1.368 . S
C497 C481 1.349 . S
C497 H489 0.950 . S
C497 C495 1.327 . S
C498 C486 1.349 . S
C498 H492 0.973 1_554 S
C498 C499 1.327 . S
C499 H493 0.950 . S
C499 C498 1.327 . S
C499 C503 1.429 . S
C500 C483 1.574 . S
C500 H494 0.949 . S
C500 C504 1.368 . S
C501 C482 1.429 . S
C501 C495 1.429 . S
C501 C502 1.523 . S
C502 C483 1.368 . S
C502 C496 1.368 . S
C502 C501 1.523 . S
C503 C487 1.429 . S
C503 C499 1.429 . S
C503 C504 1.523 . S
C504 C488 1.368 . S
C504 C500 1.368 . S
C504 C503 1.523 . S
H505 C480 0.950 . S
H506 C482 0.950 . S
H507 C483 0.949 . S
H508 C485 0.950 . S
H509 C487 0.950 . S
C510 C511 1.349 . S
C510 C512 1.327 . S
C510 H535 0.950 . S
C511 C510 1.349 . S
C511 C527 1.349 . S
C512 C510 1.327 . S
C512 C531 1.429 . S
C512 H536 0.950 . S
C513 C530 1.574 . S
C513 C532 1.368 . S
C513 H537 0.949 . S
H514 C518 0.949 . S
C515 C516 1.349 . S
C515 C517 1.327 . S
C515 H538 0.950 . S
C516 C515 1.349 . S
C516 C528 1.349 . S
C517 C515 1.327 . S
C517 C533 1.429 . S
C517 H539 0.950 . S
C518 H514 0.949 . S
C518 C526 1.574 . S
C518 C534 1.368 . S
H519 C527 0.950 1_556 S
H520 C525 0.950 . S
H521 C526 0.949 . S
H522 C528 0.950 . S
H523 C529 0.950 . S
H524 C530 0.949 . S
C525 H520 0.950 . S
C525 C527 1.327 . S
C525 C531 1.429 . S
C526 C518 1.574 . S
C526 H521 0.949 . S
C526 C532 1.368 . S
C527 C511 1.349 . S
C527 H519 0.950 1_554 S
C527 C525 1.327 . S
C528 C516 1.349 . S
C528 H522 0.950 . S
C528 C529 1.327 . S
C529 H523 0.950 . S
C529 C528 1.327 . S
C529 C533 1.429 . S
C530 C513 1.574 . S
C530 H524 0.949 . S
C530 C534 1.368 . S
C531 C512 1.429 . S
C531 C525 1.429 . S
C531 C532 1.523 . S
C532 C513 1.368 . S
C532 C526 1.368 . S
C532 C531 1.523 . S
C533 C517 1.429 . S
C533 C529 1.429 . S
C533 C534 1.523 . S
C534 C518 1.368 . S
C534 C530 1.368 . S
C534 C533 1.523 . S
H535 C510 0.950 . S
H536 C512 0.950 . S
H537 C513 0.949 . S
H538 C515 0.950 . S
H539 C517 0.950 . S
C540 C541 1.349 . S
C540 C542 1.327 . S
C540 H565 0.950 . S
C541 C540 1.349 . S
C541 C557 1.349 . S
C542 C540 1.327 . S
C542 C561 1.429 . S
C542 H566 0.950 . S
C543 C560 1.574 . S
C543 C562 1.368 . S
C543 H567 0.949 . S
H544 C548 0.949 . S
C545 C546 1.349 . S
C545 C547 1.327 . S
C545 H568 0.950 . S
C546 C545 1.349 . S
C546 C558 1.349 . S
C547 C545 1.327 . S
C547 C563 1.429 . S
C547 H569 0.950 . S
C548 H544 0.949 . S
C548 C556 1.574 . S
C548 C564 1.368 . S
H549 C557 0.950 . S
H550 C555 0.950 . S
H551 C556 0.943 1_455 S
H552 C558 0.950 . S
H553 C559 0.950 . S
H554 C560 0.949 . S
C555 H550 0.950 . S
C555 C557 1.327 . S
C555 C561 1.429 . S
C556 C548 1.574 . S
C556 H551 0.943 1_655 S
C556 C562 1.368 . S
C557 C541 1.349 . S
C557 H549 0.950 . S
C557 C555 1.327 . S
C558 C546 1.349 . S
C558 H552 0.950 . S
C558 C559 1.327 . S
C559 H553 0.950 . S
C559 C558 1.327 . S
C559 C563 1.429 . S
C560 C543 1.574 . S
C560 H554 0.949 . S
C560 C564 1.368 . S
C561 C542 1.429 . S
C561 C555 1.429 . S
C561 C562 1.523 1_455 S
C562 C543 1.368 . S
C562 C556 1.368 . S
C562 C561 1.523 1_655 S
C563 C547 1.429 . S
C563 C559 1.429 . S
C563 C564 1.523 . S
C564 C548 1.368 . S
C564 C560 1.368 . S
C564 C563 1.523 . S
H565 C540 0.950 . S
H566 C542 0.950 . S
H567 C543 0.949 . S
H568 C545 0.950 . S
H569 C547 0.950 . S
C570 C571 1.349 . S
C570 C572 1.327 . S
C570 H595 0.950 . S
C571 C570 1.349 . S
C571 C587 1.349 . S
C572 C570 1.327 . S
C572 C591 1.429 . S
C572 H596 0.950 . S
C573 C590 1.574 . S
C573 C592 1.368 . S
C573 H597 0.949 . S
H574 C578 0.949 . S
C575 C576 1.349 . S
C575 C577 1.327 . S
C575 H598 0.950 . S
C576 C575 1.349 . S
C576 C588 1.349 . S
C577 C575 1.327 . S
C577 C593 1.429 . S
C577 H599 0.950 . S
C578 H574 0.949 . S
C578 C586 1.574 . S
C578 C594 1.368 . S
H579 C587 0.950 . S
H580 C585 0.950 . S
H581 C586 0.949 . S
H582 C588 0.950 . S
H583 C589 0.950 . S
H584 C590 0.949 . S
C585 H580 0.950 . S
C585 C587 1.327 . S
C585 C591 1.429 . S
C586 C578 1.574 . S
C586 H581 0.949 . S
C586 C592 1.368 . S
C587 C571 1.349 . S
C587 H579 0.950 . S
C587 C585 1.327 . S
C588 C576 1.349 . S
C588 H582 0.950 . S
C588 C589 1.327 . S
C589 H583 0.950 . S
C589 C588 1.327 . S
C589 C593 1.429 . S
C590 C573 1.574 . S
C590 H584 0.949 . S
C590 C594 1.368 . S
C591 C572 1.429 . S
C591 C585 1.429 . S
C591 C592 1.523 . S
C592 C573 1.368 . S
C592 C586 1.368 . S
C592 C591 1.523 . S
C593 C577 1.429 . S
C593 C589 1.429 . S
C593 C594 1.523 . S
C594 C578 1.368 . S
C594 C590 1.368 . S
C594 C593 1.523 . S
H595 C570 0.950 . S
H596 C572 0.950 . S
H597 C573 0.949 . S
H598 C575 0.950 . S
H599 C577 0.950 . S
C600 C601 1.349 . S
C600 C602 1.327 . S
C600 H625 0.950 . S
C601 C600 1.349 . S
C601 C617 1.349 . S
C602 C600 1.327 . S
C602 C621 1.429 . S
C602 H626 0.950 . S
C603 C620 1.574 . S
C603 C622 1.368 . S
C603 H627 0.949 . S
H604 C608 0.949 . S
C605 C606 1.349 . S
C605 C607 1.327 1_565 S
C605 H628 0.950 . S
C606 C605 1.349 . S
C606 C618 1.349 . S
C607 C605 1.327 1_545 S
C607 C623 1.429 . S
C607 H629 0.950 . S
C608 H604 0.949 . S
C608 C616 1.574 . S
C608 C624 1.368 . S
H609 C617 0.950 . S
H610 C615 0.950 . S
H611 C616 0.949 . S
H612 C618 0.950 . S
H613 C619 0.950 . S
H614 C620 0.949 . S
C615 H610 0.950 . S
C615 C617 1.327 . S
C615 C621 1.429 . S
C616 C608 1.574 . S
C616 H611 0.949 . S
C616 C622 1.368 . S
C617 C601 1.349 . S
C617 H609 0.950 . S
C617 C615 1.327 . S
C618 C606 1.349 . S
C618 H612 0.950 . S
C618 C619 1.327 1_565 S
C619 H613 0.950 . S
C619 C618 1.327 1_545 S
C619 C623 1.429 . S
C620 C603 1.574 . S
C620 H614 0.949 . S
C620 C624 1.368 . S
C621 C602 1.429 . S
C621 C615 1.429 . S
C621 C622 1.523 . S
C622 C603 1.368 . S
C622 C616 1.368 . S
C622 C621 1.523 . S
C623 C607 1.429 . S
C623 C619 1.429 . S
C623 C624 1.523 . S
C624 C608 1.368 . S
C624 C620 1.368 . S
C624 C623 1.523 . S
H625 C600 0.950 . S
H626 C602 0.950 . S
H627 C603 0.949 . S
H628 C605 0.950 . S
H629 C607 0.950 . S
C630 C631 1.349 . S
C630 C632 1.327 . S
C630 H655 0.950 . S
C631 C630 1.349 . S
C631 C647 1.349 . S
C632 C630 1.327 . S
C632 C651 1.429 . S
C632 H656 0.950 . S
C633 C650 1.574 . S
C633 C652 1.368 1_556 S
C633 H657 0.949 . S
H634 C638 0.949 . S
C635 C636 1.349 1_556 S
C635 C637 1.327 . S
C635 H658 0.950 . S
C636 C635 1.349 1_554 S
C636 C648 1.349 . S
C637 C635 1.327 . S
C637 C653 1.429 1_556 S
C637 H659 0.950 . S
C638 H634 0.949 . S
C638 C646 1.574 . S
C638 C654 1.368 . S
H639 C647 0.950 1_556 S
H640 C645 0.950 1_556 S
H641 C646 0.949 . S
H642 C648 0.950 . S
H643 C649 0.950 . S
H644 C650 0.949 . S
C645 H640 0.950 1_554 S
C645 C647 1.327 . S
C645 C651 1.429 . S
C646 C638 1.574 . S
C646 H641 0.949 . S
C646 C652 1.368 . S
C647 C631 1.349 . S
C647 H639 0.950 1_554 S
C647 C645 1.327 . S
C648 C636 1.349 . S
C648 H642 0.950 . S
C648 C649 1.327 . S
C649 H643 0.950 . S
C649 C648 1.327 . S
C649 C653 1.429 . S
C650 C633 1.574 . S
C650 H644 0.949 . S
C650 C654 1.368 1_556 S
C651 C632 1.429 . S
C651 C645 1.429 . S
C651 C652 1.523 . S
C652 C633 1.368 1_554 S
C652 C646 1.368 . S
C652 C651 1.523 . S
C653 C637 1.429 1_554 S
C653 C649 1.429 . S
C653 C654 1.523 . S
C654 C638 1.368 . S
C654 C650 1.368 1_554 S
C654 C653 1.523 . S
H655 C630 0.950 . S
H656 C632 0.950 . S
H657 C633 0.949 . S
H658 C635 0.950 . S
H659 C637 0.950 . S
C660 C661 1.349 1_556 S
C660 C662 1.327 . S
C660 H685 0.950 . S
C661 C660 1.349 1_554 S
C661 C677 1.349 . S
C662 C660 1.327 . S
C662 C681 1.429 1_556 S
C662 H686 0.950 . S
C663 C680 1.574 . S
C663 C682 1.368 . S
C663 H687 0.949 . S
H664 C668 0.949 . S
C665 C666 1.349 . S
C665 C667 1.327 . S
C665 H688 0.950 . S
C666 C665 1.349 . S
C666 C678 1.349 1_554 S
C667 C665 1.327 . S
C667 C683 1.429 . S
C667 H689 0.950 . S
C668 H664 0.949 . S
C668 C676 1.574 . S
C668 C684 1.368 1_556 S
H669 C677 0.950 . S
H670 C675 0.950 . S
H671 C676 0.949 . S
H672 C678 0.950 . S
H673 C679 0.950 . S
H674 C680 0.949 . S
C675 H670 0.950 . S
C675 C677 1.327 . S
C675 C681 1.429 . S
C676 C668 1.574 . S
C676 H671 0.949 . S
C676 C682 1.368 1_556 S
C677 C661 1.349 . S
C677 H669 0.950 . S
C677 C675 1.327 . S
C678 C666 1.349 1_556 S
C678 H672 0.950 . S
C678 C679 1.327 . S
C679 H673 0.950 . S
C679 C678 1.327 . S
C679 C683 1.429 1_556 S
C680 C663 1.574 . S
C680 H674 0.949 . S
C680 C684 1.368 . S
C681 C662 1.429 1_554 S
C681 C675 1.429 . S
C681 C682 1.523 . S
C682 C663 1.368 . S
C682 C676 1.368 1_554 S
C682 C681 1.523 . S
C683 C667 1.429 . S
C683 C679 1.429 1_554 S
C683 C684 1.523 1_545 S
C684 C668 1.368 1_554 S
C684 C680 1.368 . S
C684 C683 1.523 1_565 S
H685 C660 0.950 . S
H686 C662 0.950 . S
H687 C663 0.949 . S
H688 C665 0.950 . S
H689 C667 0.950 . S
C690 C691 1.349 1_556 S
C690 C692 1.327 1_655 S
C690 H715 0.950 . S
C691 C690 1.349 1_554 S
C691 C707 1.349 . S
C692 C690 1.327 1_455 S
C692 C711 1.429 1_556 S
C692 H716 0.950 . S
C693 C710 1.574 . S
C693 C712 1.368 . S
C693 H717 0.949 . S
H694 C698 0.949 . S
C695 C696 1.349 . S
C695 C697 1.327 . S
C695 H718 0.950 . S
C696 C695 1.349 . S
C696 C708 1.349 1_554 S
C697 C695 1.327 . S
C697 C713 1.429 . S
C697 H719 0.950 . S
C698 H694 0.949 . S
C698 C706 1.574 . S
C698 C714 1.368 1_556 S
H699 C707 0.950 . S
H700 C705 0.950 . S
H701 C706 0.949 . S
H702 C708 0.950 . S
H703 C709 0.950 . S
H704 C710 0.949 . S
C705 H700 0.950 . S
C705 C707 1.327 1_455 S
C705 C711 1.429 . S
C706 C698 1.574 . S
C706 H701 0.949 . S
C706 C712 1.368 1_556 S
C707 C691 1.349 . S
C707 H699 0.950 . S
C707 C705 1.327 1_655 S
C708 C696 1.349 1_556 S
C708 H702 0.950 . S
C708 C709 1.327 . S
C709 H703 0.950 . S
C709 C708 1.327 . S
C709 C713 1.429 1_556 S
C710 C693 1.574 . S
C710 H704 0.949 . S
C710 C714 1.368 . S
C711 C692 1.429 1_554 S
C711 C705 1.429 . S
C711 C712 1.523 . S
C712 C693 1.368 . S
C712 C706 1.368 1_554 S
C712 C711 1.523 . S
C713 C697 1.429 . S
C713 C709 1.429 1_554 S
C713 C714 1.523 . S
C714 C698 1.368 1_554 S
C714 C710 1.368 . S
C714 C713 1.523 . S
H715 C690 0.950 . S
H716 C692 0.950 . S
H717 C693 0.949 . S
H718 C695 0.950 . S
H719 C697 0.950 . S
C720 C721 1.349 . S
C720 C722 1.327 . S
C720 H745 0.950 . S
C721 C720 1.349 . S
C721 C737 1.349 . S
C722 C720 1.327 . S
C722 C741 1.429 . S
C722 H746 0.950 . S
C723 C740 1.574 . S
C723 C742 1.368 . S
C723 H747 0.949 . S
H724 C728 0.949 . S
C725 C726 1.349 . S
C725 C727 1.327 . S
C725 H748 0.950 . S
C726 C725 1.349 . S
C726 C738 1.349 . S
C727 C725 1.327 . S
C727 C743 1.429 . S
C727 H749 0.950 . S
C728 H724 0.949 . S
C728 C736 1.574 . S
C728 C744 1.368 . S
H729 C737 0.950 . S
H730 C735 0.950 . S
H731 C736 0.949 . S
H732 C738 0.950 . S
H733 C739 0.950 . S
H734 C740 0.949 . S
C735 H730 0.950 . S
C735 C737 1.327 . S
C735 C741 1.429 . S
C736 C728 1.574 . S
C736 H731 0.949 . S
C736 C742 1.368 . S
C737 C721 1.349 . S
C737 H729 0.950 . S
C737 C735 1.327 . S
C738 C726 1.349 . S
C738 H732 0.950 . S
C738 C739 1.327 . S
C739 H733 0.950 . S
C739 C738 1.327 . S
C739 C743 1.429 . S
C740 C723 1.574 . S
C740 H734 0.949 . S
C740 C744 1.368 . S
C741 C722 1.429 . S
C741 C735 1.429 . S
C741 C742 1.523 . S
C742 C723 1.368 . S
C742 C736 1.368 . S
C742 C741 1.523 . S
C743 C727 1.429 . S
C743 C739 1.429 . S
C743 C744 1.523 . S
C744 C728 1.368 . S
C744 C740 1.368 . S
C744 C743 1.523 . S
H745 C720 0.950 . S
H746 C722 0.950 . S
H747 C723 0.949 . S
H748 C725 0.950 . S
H749 C727 0.950 . S
C750 C751 1.349 . S
C750 C752 1.327 . S
C750 H775 0.950 . S
C751 C750 1.349 . S
C751 C767 1.349 . S
C752 C750 1.327 . S
C752 C771 1.429 . S
C752 H776 0.950 . S
C753 C770 1.574 . S
C753 C772 1.368 . S
C753 H777 0.949 . S
H754 C758 0.949 . S
C755 C756 1.349 . S
C755 C757 1.327 . S
C755 H778 0.950 . S
C756 C755 1.349 . S
C756 C768 1.349 . S
C757 C755 1.327 . S
C757 C773 1.429 . S
C757 H779 0.950 . S
C758 H754 0.949 . S
C758 C766 1.574 . S
C758 C774 1.368 . S
H759 C767 0.950 . S
H760 C765 0.950 . S
H761 C766 0.949 . S
H762 C768 0.950 . S
H763 C769 0.950 . S
H764 C770 0.949 . S
C765 H760 0.950 . S
C765 C767 1.327 . S
C765 C771 1.429 . S
C766 C758 1.574 . S
C766 H761 0.949 . S
C766 C772 1.368 . S
C767 C751 1.349 . S
C767 H759 0.950 . S
C767 C765 1.327 . S
C768 C756 1.349 . S
C768 H762 0.950 . S
C768 C769 1.327 . S
C769 H763 0.950 . S
C769 C768 1.327 . S
C769 C773 1.429 . S
C770 C753 1.574 . S
C770 H764 0.949 . S
C770 C774 1.368 . S
C771 C752 1.429 . S
C771 C765 1.429 . S
C771 C772 1.523 . S
C772 C753 1.368 . S
C772 C766 1.368 . S
C772 C771 1.523 . S
C773 C757 1.429 . S
C773 C769 1.429 . S
C773 C774 1.523 . S
C774 C758 1.368 . S
C774 C770 1.368 . S
C774 C773 1.523 . S
H775 C750 0.950 . S
H776 C752 0.950 . S
H777 C753 0.949 . S
H778 C755 0.950 . S
H779 C757 0.950 . S
C780 C781 1.349 . S
C780 C782 1.327 . S
C780 H805 0.950 . S
C781 C780 1.349 . S
C781 C797 1.349 . S
C782 C780 1.327 . S
C782 C801 1.429 . S
C782 H806 0.950 . S
C783 C800 1.574 . S
C783 C802 1.368 . S
C783 H807 0.949 . S
H784 C788 0.949 . S
C785 C786 1.349 . S
C785 C787 1.327 . S
C785 H808 0.950 . S
C786 C785 1.349 . S
C786 C798 1.349 . S
C787 C785 1.327 . S
C787 C803 1.429 . S
C787 H809 0.950 . S
C788 H784 0.949 . S
C788 C796 1.574 . S
C788 C804 1.368 . S
H789 C797 0.950 . S
H790 C795 0.950 . S
H791 C796 0.949 . S
H792 C798 0.950 . S
H793 C799 0.950 . S
H794 C800 0.949 . S
C795 H790 0.950 . S
C795 C797 1.327 . S
C795 C801 1.429 . S
C796 C788 1.574 . S
C796 H791 0.949 . S
C796 C802 1.368 . S
C797 C781 1.349 . S
C797 H789 0.950 . S
C797 C795 1.327 . S
C798 C786 1.349 . S
C798 H792 0.950 . S
C798 C799 1.327 . S
C799 H793 0.950 . S
C799 C798 1.327 . S
C799 C803 1.429 . S
C800 C783 1.574 . S
C800 H794 0.949 . S
C800 C804 1.368 . S
C801 C782 1.429 . S
C801 C795 1.429 . S
C801 C802 1.523 . S
C802 C783 1.368 . S
C802 C796 1.368 . S
C802 C801 1.523 . S
C803 C787 1.429 . S
C803 C799 1.429 . S
C803 C804 1.523 . S
C804 C788 1.368 . S
C804 C800 1.368 . S
C804 C803 1.523 . S
H805 C780 0.950 . S
H806 C782 0.950 . S
H807 C783 0.949 . S
H808 C785 0.950 . S
H809 C787 0.950 . S
C810 C811 1.349 . S
C810 C812 1.327 . S
C810 H835 0.950 . S
C811 C810 1.349 . S
C811 C827 1.349 . S
C812 C810 1.327 . S
C812 C831 1.429 . S
C812 H836 0.950 . S
C813 C830 1.574 . S
C813 C832 1.368 . S
C813 H837 0.949 . S
H814 C818 0.949 . S
C815 C816 1.349 . S
C815 C817 1.327 . S
C815 H838 0.950 . S
C816 C815 1.349 . S
C816 C828 1.349 . S
C817 C815 1.327 . S
C817 C833 1.429 . S
C817 H839 0.950 . S
C818 H814 0.949 . S
C818 C826 1.574 . S
C818 C834 1.368 . S
H819 C827 0.950 . S
H820 C825 0.950 . S
H821 C826 0.949 . S
H822 C828 0.950 . S
H823 C829 0.950 . S
H824 C830 0.949 . S
C825 H820 0.950 . S
C825 C827 1.327 . S
C825 C831 1.429 . S
C826 C818 1.574 . S
C826 H821 0.949 . S
C826 C832 1.368 . S
C827 C811 1.349 . S
C827 H819 0.950 . S
C827 C825 1.327 . S
C828 C816 1.349 . S
C828 H822 0.950 . S
C828 C829 1.327 . S
C829 H823 0.950 . S
C829 C828 1.327 . S
C829 C833 1.429 . S
C830 C813 1.574 . S
C830 H824 0.949 . S
C830 C834 1.368 . S
C831 C812 1.429 . S
C831 C825 1.429 . S
C831 C832 1.523 . S
C832 C813 1.368 . S
C832 C826 1.368 . S
C832 C831 1.523 . S
C833 C817 1.429 . S
C833 C829 1.429 . S
C833 C834 1.523 . S
C834 C818 1.368 . S
C834 C830 1.368 . S
C834 C833 1.523 . S
H835 C810 0.950 . S
H836 C812 0.950 . S
H837 C813 0.949 . S
H838 C815 0.950 . S
H839 C817 0.950 . S
C840 C841 1.349 . S
C840 C842 1.327 . S
C840 H865 0.950 . S
C841 C840 1.349 . S
C841 C857 1.349 . S
C842 C840 1.327 . S
C842 C861 1.429 . S
C842 H866 0.950 . S
C843 C860 1.574 . S
C843 C862 1.368 . S
C843 H867 0.949 . S
H844 C848 0.949 . S
C845 C846 1.349 . S
C845 C847 1.327 . S
C845 H868 0.950 . S
C846 C845 1.349 . S
C846 C858 1.349 . S
C847 C845 1.327 . S
C847 C863 1.429 . S
C847 H869 0.950 . S
C848 H844 0.949 . S
C848 C856 1.574 . S
C848 C864 1.368 . S
H849 C857 0.950 . S
H850 C855 0.950 . S
H851 C856 0.949 . S
H852 C858 0.950 . S
H853 C859 0.950 . S
H854 C860 0.949 . S
C855 H850 0.950 . S
C855 C857 1.327 . S
C855 C861 1.429 . S
C856 C848 1.574 . S
C856 H851 0.949 . S
C856 C862 1.368 . S
C857 C841 1.349 . S
C857 H849 0.950 . S
C857 C855 1.327 . S
C858 C846 1.349 . S
C858 H852 0.950 . S
C858 C859 1.327 . S
C859 H853 0.950 . S
C859 C858 1.327 . S
C859 C863 1.429 . S
C860 C843 1.574 . S
C860 H854 0.949 . S
C860 C864 1.368 . S
C861 C842 1.429 . S
C861 C855 1.429 . S
C861 C862 1.523 . S
C862 C843 1.368 . S
C862 C856 1.368 . S
C862 C861 1.523 . S
C863 C847 1.429 . S
C863 C859 1.429 . S
C863 C864 1.523 . S
C864 C848 1.368 . S
C864 C860 1.368 . S
C864 C863 1.523 . S
H865 C840 0.950 . S
H866 C842 0.950 . S
H867 C843 0.949 . S
H868 C845 0.950 . S
H869 C847 0.950 . S
C870 C871 1.349 . S
C870 C872 1.327 . S
C870 H895 0.950 . S
C871 C870 1.349 . S
C871 C887 1.349 . S
C872 C870 1.327 . S
C872 C891 1.429 . S
C872 H896 0.950 . S
C873 C890 1.574 . S
C873 C892 1.368 . S
C873 H897 0.949 . S
H874 C878 0.949 . S
C875 C876 1.349 . S
C875 C877 1.327 . S
C875 H898 0.950 . S
C876 C875 1.349 . S
C876 C888 1.349 . S
C877 C875 1.327 . S
C877 C893 1.429 . S
C877 H899 0.950 . S
C878 H874 0.949 . S
C878 C886 1.574 . S
C878 C894 1.368 . S
H879 C887 0.950 . S
H880 C885 0.950 . S
H881 C886 0.949 . S
H882 C888 0.950 . S
H883 C889 0.950 . S
H884 C890 0.949 . S
C885 H880 0.950 . S
C885 C887 1.327 . S
C885 C891 1.429 . S
C886 C878 1.574 . S
C886 H881 0.949 . S
C886 C892 1.368 . S
C887 C871 1.349 . S
C887 H879 0.950 . S
C887 C885 1.327 . S
C888 C876 1.349 . S
C888 H882 0.950 . S
C888 C889 1.327 . S
C889 H883 0.950 . S
C889 C888 1.327 . S
C889 C893 1.429 . S
C890 C873 1.574 . S
C890 H884 0.949 . S
C890 C894 1.368 . S
C891 C872 1.429 . S
C891 C885 1.429 . S
C891 C892 1.523 . S
C892 C873 1.368 . S
C892 C886 1.368 . S
C892 C891 1.523 . S
C893 C877 1.429 . S
C893 C889 1.429 . S
C893 C894 1.523 . S
C894 C878 1.368 . S
C894 C890 1.368 . S
C894 C893 1.523 . S
H895 C870 0.950 . S
H896 C872 0.950 . S
H897 C873 0.949 . S
H898 C875 0.950 . S
H899 C877 0.950 . S
C900 C901 1.349 1_655 S
C900 C902 1.327 . S
C900 H925 0.950 . S
C901 C900 1.349 1_455 S
C901 C917 1.349 . S
C902 C900 1.327 . S
C902 C921 1.429 1_655 S
C902 H926 0.950 . S
C903 C920 1.574 . S
C903 C922 1.368 . S
C903 H927 0.949 . S
H904 C908 0.949 . S
C905 C906 1.349 . S
C905 C907 1.327 . S
C905 H928 0.950 . S
C906 C905 1.349 . S
C906 C918 1.379 . S
C907 C905 1.327 . S
C907 C923 1.429 . S
C907 H929 0.950 . S
C908 H904 0.949 . S
C908 C916 1.574 . S
C908 C924 1.368 1_655 S
H909 C917 0.950 . S
H910 C915 0.950 . S
H911 C916 0.949 . S
H912 C918 0.925 1_655 S
H913 C919 0.953 . S
H914 C920 0.949 . S
C915 H910 0.950 . S
C915 C917 1.327 . S
C915 C921 1.429 . S
C916 C908 1.574 . S
C916 H911 0.949 . S
C916 C922 1.368 1_655 S
C917 C901 1.349 . S
C917 H909 0.950 . S
C917 C915 1.327 . S
C918 C906 1.379 . S
C918 H912 0.925 1_455 S
C918 C919 1.325 1_455 S
C919 H913 0.953 . S
C919 C918 1.325 1_655 S
C919 C923 1.426 1_655 S
C920 C903 1.574 . S
C920 H914 0.949 . S
C920 C924 1.368 . S
C921 C902 1.429 1_455 S
C921 C915 1.429 . S
C921 C922 1.523 . S
C922 C903 1.368 . S
C922 C916 1.368 1_455 S
C922 C921 1.523 . S
C923 C907 1.429 . S
C923 C919 1.426 1_455 S
C923 C924 1.523 . S
C924 C908 1.368 1_455 S
C924 C920 1.368 . S
C924 C923 1.523 . S
H925 C900 0.950 . S
H926 C902 0.950 . S
H927 C903 0.949 . S
H928 C905 0.950 . S
H929 C907 0.950 . S
C930 C931 1.349 . S
C930 C932 1.327 . S
C930 H955 0.950 . S
C931 C930 1.349 . S
C931 C947 1.349 . S
C932 C930 1.327 . S
C932 C951 1.429 . S
C932 H956 0.950 . S
C933 C950 1.574 . S
C933 C952 1.368 . S
C933 H957 0.949 . S
H934 C938 0.949 . S
C935 C936 1.349 . S
C935 C937 1.327 . S
C935 H958 0.950 . S
C936 C935 1.349 . S
C936 C948 1.349 . S
C937 C935 1.327 . S
C937 C953 1.429 . S
C937 H959 0.950 . S
C938 H934 0.949 . S
C938 C946 1.574 . S
C938 C954 1.368 . S
H939 C947 0.950 . S
H940 C945 0.950 . S
H941 C946 0.949 . S
H942 C948 0.950 . S
H943 C949 0.950 . S
H944 C950 0.949 . S
C945 H940 0.950 . S
C945 C947 1.327 . S
C945 C951 1.429 . S
C946 C938 1.574 . S
C946 H941 0.949 . S
C946 C952 1.368 . S
C947 C931 1.349 . S
C947 H939 0.950 . S
C947 C945 1.327 . S
C948 C936 1.349 . S
C948 H942 0.950 . S
C948 C949 1.327 . S
C949 H943 0.950 . S
C949 C948 1.327 . S
C949 C953 1.429 . S
C950 C933 1.574 . S
C950 H944 0.949 . S
C950 C954 1.368 . S
C951 C932 1.429 . S
C951 C945 1.429 . S
C951 C952 1.523 . S
C952 C933 1.368 . S
C952 C946 1.368 . S
C952 C951 1.523 . S
C953 C937 1.429 . S
C953 C949 1.429 . S
C953 C954 1.523 . S
C954 C938 1.368 . S
C954 C950 1.368 . S
C954 C953 1.523 . S
H955 C930 0.950 . S
H956 C932 0.950 . S
H957 C933 0.949 . S
H958 C935 0.950 . S
H959 C937 0.950 . S
C960 C961 1.349 . S
C960 C962 1.327 . S
C960 H985 0.950 1_545 S
C961 C960 1.349 . S
C961 C977 1.349 . S
C962 C960 1.327 . S
C962 C981 1.429 . S
C962 H986 0.950 1_545 S
C963 C980 1.574 . S
C963 C982 1.368 . S
C963 H987 0.949 . S
H964 C968 0.966 . S
C965 C966 1.349 . S
C965 C967 1.327 . S
C965 H988 0.950 . S
C966 C965 1.349 . S
C966 C978 1.349 1_545 S
C967 C965 1.327 . S
C967 C983 1.429 . S
C967 H989 0.950 . S
C968 H964 0.966 . S
C968 C976 1.574 1_565 S
C968 C984 1.352 1_565 S
H969 C977 0.950 . S
H970 C975 0.950 . S
H971 C976 0.951 1_565 S
H972 C978 0.950 . S
H973 C979 0.950 . S
H974 C980 0.949 . S
C975 H970 0.950 . S
C975 C977 1.327 . S
C975 C981 1.429 . S
C976 C968 1.574 1_545 S
C976 H971 0.951 1_545 S
C976 C982 1.366 . S
C977 C961 1.349 . S
C977 H969 0.950 . S
C977 C975 1.327 . S
C978 C966 1.349 1_565 S
C978 H972 0.950 . S
C978 C979 1.327 . S
C979 H973 0.950 . S
C979 C978 1.327 . S
C979 C983 1.429 1_565 S
C980 C963 1.574 . S
C980 H974 0.949 . S
C980 C984 1.368 . S
C981 C962 1.429 . S
C981 C975 1.429 . S
C981 C982 1.523 . S
C982 C963 1.368 . S
C982 C976 1.366 . S
C982 C981 1.523 . S
C983 C967 1.429 . S
C983 C979 1.429 1_545 S
C983 C984 1.523 . S
C984 C968 1.352 1_545 S
C984 C980 1.368 . S
C984 C983 1.523 . S
H985 C960 0.950 1_565 S
H986 C962 0.950 1_565 S
H987 C963 0.949 . S
H988 C965 0.950 . S
H989 C967 0.950 . S
C990 C991 1.349 . S
C990 C992 1.327 . S
C990 H1015 0.950 . S
C991 C990 1.349 . S
C991 C1007 1.349 . S
C992 C990 1.327 . S
C992 C1011 1.429 . S
C992 H1016 0.950 . S
C993 C1010 1.574 . S
C993 C1012 1.368 . S
C993 H1017 0.949 . S
H994 C998 0.949 . S
C995 C996 1.349 . S
C995 C997 1.327 . S
C995 H1018 0.950 . S
C996 C995 1.349 . S
C996 C1008 1.349 . S
C997 C995 1.327 . S
C997 C1013 1.429 1_554 S
C997 H1019 0.950 . S
C998 H994 0.949 . S
C998 C1006 1.574 . S
C998 C1014 1.368 . S
H999 C1007 0.950 . S
H1000 C1005 0.950 . S
H1001 C1006 0.949 . S
H1002 C1008 0.950 . S
H1003 C1009 0.950 . S
H1004 C1010 0.949 . S
C1005 H1000 0.950 . S
C1005 C1007 1.327 . S
C1005 C1011 1.429 . S
C1006 C998 1.574 . S
C1006 H1001 0.949 . S
C1006 C1012 1.368 . S
C1007 C991 1.349 . S
C1007 H999 0.950 . S
C1007 C1005 1.327 . S
C1008 C996 1.349 . S
C1008 H1002 0.950 . S
C1008 C1009 1.327 . S
C1009 H1003 0.950 . S
C1009 C1008 1.327 . S
C1009 C1013 1.429 1_554 S
C1010 C993 1.574 . S
C1010 H1004 0.949 . S
C1010 C1014 1.368 . S
C1011 C992 1.429 . S
C1011 C1005 1.429 . S
C1011 C1012 1.523 . S
C1012 C993 1.368 . S
C1012 C1006 1.368 . S
C1012 C1011 1.523 . S
C1013 C997 1.429 1_556 S
C1013 C1009 1.429 1_556 S
C1013 C1014 1.523 . S
C1014 C998 1.368 . S
C1014 C1010 1.368 . S
C1014 C1013 1.523 . S
H1015 C990 0.950 . S
H1016 C992 0.950 . S
H1017 C993 0.949 . S
H1018 C995 0.950 . S
H1019 C997 0.950 . S
C1020 C1021 1.349 . S
C1020 C1022 1.327 . S
C1020 H1045 0.950 . S
C1021 C1020 1.349 . S
C1021 C1037 1.349 . S
C1022 C1020 1.327 . S
C1022 C1041 1.429 . S
C1022 H1046 0.950 . S
C1023 C1040 1.574 . S
C1023 C1042 1.368 . S
C1023 H1047 0.949 . S
H1024 C1028 0.949 . S
C1025 C1026 1.349 . S
C1025 C1027 1.327 . S
C1025 H1048 0.950 . S
C1026 C1025 1.349 . S
C1026 C1038 1.349 . S
C1027 C1025 1.327 . S
C1027 C1043 1.429 1_554 S
C1027 H1049 0.950 . S
C1028 H1024 0.949 . S
C1028 C1036 1.574 . S
C1028 C1044 1.368 . S
H1029 C1037 0.950 . S
H1030 C1035 0.950 . S
H1031 C1036 0.949 . S
H1032 C1038 0.950 . S
H1033 C1039 0.950 . S
H1034 C1040 0.949 . S
C1035 H1030 0.950 . S
C1035 C1037 1.327 . S
C1035 C1041 1.429 . S
C1036 C1028 1.574 . S
C1036 H1031 0.949 . S
C1036 C1042 1.368 . S
C1037 C1021 1.349 . S
C1037 H1029 0.950 . S
C1037 C1035 1.327 . S
C1038 C1026 1.349 . S
C1038 H1032 0.950 . S
C1038 C1039 1.327 . S
C1039 H1033 0.950 . S
C1039 C1038 1.327 . S
C1039 C1043 1.429 1_554 S
C1040 C1023 1.574 . S
C1040 H1034 0.949 . S
C1040 C1044 1.368 . S
C1041 C1022 1.429 . S
C1041 C1035 1.429 . S
C1041 C1042 1.523 . S
C1042 C1023 1.368 . S
C1042 C1036 1.368 . S
C1042 C1041 1.523 . S
C1043 C1027 1.429 1_556 S
C1043 C1039 1.429 1_556 S
C1043 C1044 1.523 . S
C1044 C1028 1.368 . S
C1044 C1040 1.368 . S
C1044 C1043 1.523 . S
H1045 C1020 0.950 . S
H1046 C1022 0.950 . S
H1047 C1023 0.949 . S
H1048 C1025 0.950 . S
H1049 C1027 0.950 . S
C1050 C1051 1.349 . S
C1050 C1052 1.327 . S
C1050 H1075 0.950 . S
C1051 C1050 1.349 . S
C1051 C1067 1.349 . S
C1052 C1050 1.327 . S
C1052 C1071 1.429 . S
C1052 H1076 0.950 . S
C1053 C1070 1.574 . S
C1053 C1072 1.368 . S
C1053 H1077 0.949 . S
H1054 C1058 0.949 . S
C1055 C1056 1.349 . S
C1055 C1057 1.327 . S
C1055 H1078 0.950 . S
C1056 C1055 1.349 . S
C1056 C1068 1.349 . S
C1057 C1055 1.327 . S
C1057 C1073 1.429 1_554 S
C1057 H1079 0.950 . S
C1058 H1054 0.949 . S
C1058 C1066 1.574 . S
C1058 C1074 1.368 . S
H1059 C1067 0.950 . S
H1060 C1065 0.950 . S
H1061 C1066 0.949 . S
H1062 C1068 0.950 . S
H1063 C1069 0.950 . S
H1064 C1070 0.949 . S
C1065 H1060 0.950 . S
C1065 C1067 1.327 . S
C1065 C1071 1.429 . S
C1066 C1058 1.574 . S
C1066 H1061 0.949 . S
C1066 C1072 1.368 . S
C1067 C1051 1.349 . S
C1067 H1059 0.950 . S
C1067 C1065 1.327 . S
C1068 C1056 1.349 . S
C1068 H1062 0.950 . S
C1068 C1069 1.327 . S
C1069 H1063 0.950 . S
C1069 C1068 1.327 . S
C1069 C1073 1.429 1_554 S
C1070 C1053 1.574 . S
C1070 H1064 0.949 . S
C1070 C1074 1.368 . S
C1071 C1052 1.429 . S
C1071 C1065 1.429 . S
C1071 C1072 1.523 . S
C1072 C1053 1.368 . S
C1072 C1066 1.368 . S
C1072 C1071 1.523 . S
C1073 C1057 1.429 1_556 S
C1073 C1069 1.429 1_556 S
C1073 C1074 1.523 . S
C1074 C1058 1.368 . S
C1074 C1070 1.368 . S
C1074 C1073 1.523 . S
H1075 C1050 0.950 . S
H1076 C1052 0.950 . S
H1077 C1053 0.949 . S
H1078 C1055 0.950 . S
H1079 C1057 0.950 . S
C1080 C1081 1.349 . S
C1080 C1082 1.327 . S
C1080 H1105 0.950 . S
C1081 C1080 1.349 . S
C1081 C1097 1.349 . S
C1082 C1080 1.327 . S
C1082 C1101 1.429 . S
C1082 H1106 0.950 . S
C1083 C1100 1.574 . S
C1083 C1102 1.368 . S
C1083 H1107 0.949 . S
H1084 C1088 0.949 . S
C1085 C1086 1.349 . S
C1085 C1087 1.327 . S
C1085 H1108 0.950 . S
C1086 C1085 1.349 . S
C1086 C1098 1.349 . S
C1087 C1085 1.327 . S
C1087 C1103 1.429 1_556 S
C1087 H1109 0.950 . S
C1088 H1084 0.949 . S
C1088 C1096 1.574 . S
C1088 C1104 1.368 . S
H1089 C1097 0.950 . S
H1090 C1095 0.950 . S
H1091 C1096 0.949 . S
H1092 C1098 0.950 . S
H1093 C1099 0.950 . S
H1094 C1100 0.949 . S
C1095 H1090 0.950 . S
C1095 C1097 1.327 . S
C1095 C1101 1.429 . S
C1096 C1088 1.574 . S
C1096 H1091 0.949 . S
C1096 C1102 1.368 . S
C1097 C1081 1.349 . S
C1097 H1089 0.950 . S
C1097 C1095 1.327 . S
C1098 C1086 1.349 . S
C1098 H1092 0.950 . S
C1098 C1099 1.327 . S
C1099 H1093 0.950 . S
C1099 C1098 1.327 . S
C1099 C1103 1.429 1_556 S
C1100 C1083 1.574 . S
C1100 H1094 0.949 . S
C1100 C1104 1.368 . S
C1101 C1082 1.429 . S
C1101 C1095 1.429 . S
C1101 C1102 1.523 . S
C1102 C1083 1.368 . S
C1102 C1096 1.368 . S
C1102 C1101 1.523 . S
C1103 C1087 1.429 1_554 S
C1103 C1099 1.429 1_554 S
C1103 C1104 1.523 . S
C1104 C1088 1.368 . S
C1104 C1100 1.368 . S
C1104 C1103 1.523 . S
H1105 C1080 0.950 . S
H1106 C1082 0.950 . S
H1107 C1083 0.949 . S
H1108 C1085 0.950 . S
H1109 C1087 0.950 . S
C1110 C1111 1.349 . S
C1110 C1112 1.327 . S
C1110 H1135 0.950 . S
C1111 C1110 1.349 . S
C1111 C1127 1.349 . S
C1112 C1110 1.327 . S
C1112 C1131 1.429 1_556 S
C1112 H1136 0.950 . S
C1113 C1130 1.574 . S
C1113 C1132 1.368 . S
C1113 H1137 0.949 . S
H1114 C1118 0.949 . S
C1115 C1116 1.349 . S
C1115 C1117 1.327 . S
C1115 H1138 0.950 . S
C1116 C1115 1.349 . S
C1116 C1128 1.349 . S
C1117 C1115 1.327 . S
C1117 C1133 1.429 . S
C1117 H1139 0.950 . S
C1118 H1114 0.949 . S
C1118 C1126 1.574 . S
C1118 C1134 1.368 . S
H1119 C1127 0.950 . S
H1120 C1125 0.948 1_554 S
H1121 C1126 0.949 . S
H1122 C1128 0.950 . S
H1123 C1129 0.950 . S
H1124 C1130 0.949 . S
C1125 H1120 0.948 1_556 S
C1125 C1127 1.327 . S
C1125 C1131 1.429 1_556 S
C1126 C1118 1.574 . S
C1126 H1121 0.949 . S
C1126 C1132 1.368 . S
C1127 C1111 1.349 . S
C1127 H1119 0.950 . S
C1127 C1125 1.327 . S
C1128 C1116 1.349 . S
C1128 H1122 0.950 . S
C1128 C1129 1.327 . S
C1129 H1123 0.950 . S
C1129 C1128 1.327 . S
C1129 C1133 1.429 . S
C1130 C1113 1.574 . S
C1130 H1124 0.949 . S
C1130 C1134 1.368 . S
C1131 C1112 1.429 1_554 S
C1131 C1125 1.429 1_554 S
C1131 C1132 1.523 . S
C1132 C1113 1.368 . S
C1132 C1126 1.368 . S
C1132 C1131 1.523 . S
C1133 C1117 1.429 . S
C1133 C1129 1.429 . S
C1133 C1134 1.523 . S
C1134 C1118 1.368 . S
C1134 C1130 1.368 . S
C1134 C1133 1.523 . S
H1135 C1110 0.950 . S
H1136 C1112 0.950 . S
H1137 C1113 0.949 . S
H1138 C1115 0.950 . S
H1139 C1117 0.950 . S
C1140 C1141 1.349 . S
C1140 C1142 1.327 . S
C1140 H1165 0.950 . S
C1141 C1140 1.349 . S
C1141 C1157 1.349 . S
C1142 C1140 1.327 . S
C1142 C1161 1.429 . S
C1142 H1166 0.950 . S
C1143 C1160 1.574 . S
C1143 C1162 1.368 . S
C1143 H1167 0.949 . S
H1144 C1148 0.949 . S
C1145 C1146 1.349 . S
C1145 C1147 1.327 . S
C1145 H1168 0.950 . S
C1146 C1145 1.349 . S
C1146 C1158 1.349 . S
C1147 C1145 1.327 . S
C1147 C1163 1.429 1_556 S
C1147 H1169 0.943 1_556 S
C1148 H1144 0.949 . S
C1148 C1156 1.574 . S
C1148 C1164 1.368 . S
H1149 C1157 0.950 . S
H1150 C1155 0.950 . S
H1151 C1156 0.949 . S
H1152 C1158 0.950 . S
H1153 C1159 0.950 . S
H1154 C1160 0.949 . S
C1155 H1150 0.950 . S
C1155 C1157 1.327 . S
C1155 C1161 1.429 . S
C1156 C1148 1.574 . S
C1156 H1151 0.949 . S
C1156 C1162 1.368 . S
C1157 C1141 1.349 . S
C1157 H1149 0.950 . S
C1157 C1155 1.327 . S
C1158 C1146 1.349 . S
C1158 H1152 0.950 . S
C1158 C1159 1.327 . S
C1159 H1153 0.950 . S
C1159 C1158 1.327 . S
C1159 C1163 1.429 1_556 S
C1160 C1143 1.574 . S
C1160 H1154 0.949 . S
C1160 C1164 1.368 . S
C1161 C1142 1.429 . S
C1161 C1155 1.429 . S
C1161 C1162 1.523 . S
C1162 C1143 1.368 . S
C1162 C1156 1.368 . S
C1162 C1161 1.523 . S
C1163 C1147 1.429 1_554 S
C1163 C1159 1.429 1_554 S
C1163 C1164 1.523 . S
C1164 C1148 1.368 . S
C1164 C1160 1.368 . S
C1164 C1163 1.523 . S
H1165 C1140 0.950 . S
H1166 C1142 0.950 . S
H1167 C1143 0.949 . S
H1168 C1145 0.950 . S
H1169 C1147 0.943 1_554 S
C361 C7 1.971 . S
C366 C282 1.937 . S
C391 C47 1.972 . S
C396 C322 1.937 . S
C421 C87 1.972 . S
C426 C242 1.938 . S
C451 C167 1.972 . S
C456 C82 1.937 . S
C481 C207 1.972 . S
C486 C2 1.938 . S
C511 C42 1.937 . S
C516 C127 1.971 . S
C541 C287 1.971 . S
C546 C202 1.937 . S
C571 C327 1.972 . S
C576 C122 1.937 . S
C601 C162 1.937 . S
C606 C247 1.971 . S
C631 C96 1.743 . S
C636 C11 1.746 1_554 S
C661 C51 1.746 1_554 S
C666 C16 1.743 . S
C691 C56 1.743 . S
C696 C91 1.746 1_554 S
C721 C131 1.747 . S
C726 C216 1.743 . S
C751 C136 1.743 . S
C756 C171 1.747 . S
C781 C176 1.743 . S
C786 C211 1.747 . S
C811 C336 1.743 . S
C816 C251 1.747 . S
C841 C291 1.747 . S
C846 C256 1.743 . S
C871 C331 1.747 . S
C876 C296 1.743 . S
C901 C19 0.853 . S
C906 C10 0.853 . S
C931 C59 0.852 . S
C936 C50 0.852 . S
C961 C99 0.852 . S
C966 C90 0.852 . S
C991 C130 0.853 . S
C996 C139 0.853 . S
C1021 C170 0.852 . S
C1026 C179 0.852 . S
C1051 C210 0.852 . S
C1056 C219 0.853 . S
C1081 C259 0.853 . S
C1086 C250 0.853 . S
C1111 C290 0.852 . S
C1116 C299 0.852 . S
C1141 C339 0.852 . S
C1146 C330 0.852 . S
