# Generated by pormake.
# Topology unf, (4)-cn, num edge types: 1
# Building blocks:
#     Node 0, Type 0, BuildingBlock: KUFVIS_clean_sbu_0, # of connection points: 4
#     Node 1, Type 0, BuildingBlock: KUFVIS_clean_sbu_0, # of connection points: 4
#     Node 2, Type 0, BuildingBlock: KUFVIS_clean_sbu_0, # of connection points: 4
#     Node 3, Type 0, BuildingBlock: KUFVIS_clean_sbu_0, # of connection points: 4
#     Node 4, Type 0, BuildingBlock: KUFVIS_clean_sbu_0, # of connection points: 4
#     Node 5, Type 0, BuildingBlock: KUFVIS_clean_sbu_0, # of connection points: 4
#     Node 6, Type 0, BuildingBlock: KUFVIS_clean_sbu_0, # of connection points: 4
#     Node 7, Type 0, BuildingBlock: KUFVIS_clean_sbu_0, # of connection points: 4
#     Node 8, Type 0, BuildingBlock: KUFVIS_clean_sbu_0, # of connection points: 4
#     Node 9, Type 0, BuildingBlock: KUFVIS_clean_sbu_0, # of connection points: 4
#     Node 10, Type 0, BuildingBlock: KUFVIS_clean_sbu_0, # of connection points: 4
#     Node 11, Type 0, BuildingBlock: KUFVIS_clean_sbu_0, # of connection points: 4
#     Edge 12, Type (0, 0), BuildingBlock: ZUJKAS_clean_linker_0, # of connection points: 2
#     Edge 13, Type (0, 0), BuildingBlock: ZUJKAS_clean_linker_0, # of connection points: 2
#     Edge 14, Type (0, 0), BuildingBlock: ZUJKAS_clean_linker_0, # of connection points: 2
#     Edge 15, Type (0, 0), BuildingBlock: ZUJKAS_clean_linker_0, # of connection points: 2
#     Edge 16, Type (0, 0), BuildingBlock: ZUJKAS_clean_linker_0, # of connection points: 2
#     Edge 17, Type (0, 0), BuildingBlock: ZUJKAS_clean_linker_0, # of connection points: 2
#     Edge 18, Type (0, 0), BuildingBlock: ZUJKAS_clean_linker_0, # of connection points: 2
#     Edge 19, Type (0, 0), BuildingBlock: ZUJKAS_clean_linker_0, # of connection points: 2
#     Edge 20, Type (0, 0), BuildingBlock: ZUJKAS_clean_linker_0, # of connection points: 2
#     Edge 21, Type (0, 0), BuildingBlock: ZUJKAS_clean_linker_0, # of connection points: 2
#     Edge 22, Type (0, 0), BuildingBlock: ZUJKAS_clean_linker_0, # of connection points: 2
#     Edge 23, Type (0, 0), BuildingBlock: ZUJKAS_clean_linker_0, # of connection points: 2
#     Edge 24, Type (0, 0), BuildingBlock: ZUJKAS_clean_linker_0, # of connection points: 2
#     Edge 25, Type (0, 0), BuildingBlock: ZUJKAS_clean_linker_0, # of connection points: 2
#     Edge 26, Type (0, 0), BuildingBlock: ZUJKAS_clean_linker_0, # of connection points: 2
#     Edge 27, Type (0, 0), BuildingBlock: ZUJKAS_clean_linker_0, # of connection points: 2
#     Edge 28, Type (0, 0), BuildingBlock: ZUJKAS_clean_linker_0, # of connection points: 2
#     Edge 29, Type (0, 0), BuildingBlock: ZUJKAS_clean_linker_0, # of connection points: 2
#     Edge 30, Type (0, 0), BuildingBlock: ZUJKAS_clean_linker_0, # of connection points: 2
#     Edge 31, Type (0, 0), BuildingBlock: ZUJKAS_clean_linker_0, # of connection points: 2
#     Edge 32, Type (0, 0), BuildingBlock: ZUJKAS_clean_linker_0, # of connection points: 2
#     Edge 33, Type (0, 0), BuildingBlock: ZUJKAS_clean_linker_0, # of connection points: 2
#     Edge 34, Type (0, 0), BuildingBlock: ZUJKAS_clean_linker_0, # of connection points: 2
#     Edge 35, Type (0, 0), BuildingBlock: ZUJKAS_clean_linker_0, # of connection points: 2
# Relax obj value: 0.237
# Max RMSD: 0.187
# Mean RMSD: 0.183
data_MOF--net-unf--node1-KUFVIS_clean_sbu_0--edge1-ZUJKAS_clean_linker_0
_symmetry_space_group_name_H-M    P1
_symmetry_Int_Tables_number       1
_symmetry_cell_setting            triclinic
loop_
_symmetry_equiv_pos_as_xyz
'x, y, z'
_cell_length_a     49.140225
_cell_length_b     49.949979
_cell_length_c     46.104051
_cell_angle_alpha  90.109191
_cell_angle_beta   89.785312
_cell_angle_gamma 119.44409
loop_
_atom_site_label
_atom_site_type_symbol
_atom_site_fract_x
_atom_site_fract_y
_atom_site_fract_z
_atom_type_partial_charge
Mn0 Mn 0.05688 0.38112 0.09212 0.0
Mn1 Mn 0.03384 0.31244 0.12401 0.0
C2 C 0.01378 0.33791 0.075 0.0
C3 C 0.05555 0.42667 0.08719 0.0
C4 C 0.08644 0.34046 0.08037 0.0
O5 O 0.08121 0.39371 0.12976 0.0
O6 O 0.06479 0.34669 0.14857 0.0
C7 C -0.00019 0.32114 0.17297 0.0
N8 N 8e-05 0.30442 0.14971 0.0
C9 C 0.94607 0.26676 0.15727 0.0
C10 C 0.94526 0.28349 0.18141 0.0
C11 C 0.97223 0.31083 0.18925 0.0
C12 C 0.9742 0.2782 0.14187 0.0
H13 H 0.02048 0.3422 0.17902 0.0
C14 C 0.08163 0.37605 0.14944 0.0
O15 O 0.07891 0.42401 0.07736 0.0
O16 O 0.0343 0.40369 0.10185 0.0
N17 N 0.00411 0.27688 0.10324 0.0
C18 C 0.00884 0.26343 0.07944 0.0
C19 C 0.98418 0.23581 0.06879 0.0
C20 C 0.95509 0.22204 0.08298 0.0
C21 C 0.95097 0.23596 0.10779 0.0
C22 C 0.97648 0.26337 0.11752 0.0
H23 H 0.0312 0.27381 0.06853 0.0
O24 O 0.02853 0.36203 0.0588 0.0
O25 O 0.02404 0.33986 0.1014 0.0
O26 O 0.08558 0.36537 0.07687 0.0
O27 O 0.06792 0.3188 0.09725 0.0
C28 C 0.92249 0.22387 0.1231 0.0
C29 C 0.92001 0.23932 0.14776 0.0
H30 H 0.92403 0.27563 0.19401 0.0
H31 H 0.97176 0.32392 0.20778 0.0
H32 H 0.98758 0.22515 0.0497 0.0
H33 H 0.93613 0.20075 0.07467 0.0
H34 H 0.90229 0.20282 0.11598 0.0
H35 H 0.89793 0.22992 0.15923 0.0
Mn36 Mn 0.61143 0.68979 0.08356 0.0
Mn37 Mn 0.68101 0.73996 0.113 0.0
C38 C 0.65677 0.69415 0.06463 0.0
C39 C 0.56832 0.64072 0.08069 0.0
C40 C 0.64672 0.75895 0.07063 0.0
O41 O 0.59836 0.70038 0.12183 0.0
O42 O 0.64603 0.73327 0.13935 0.0
C43 C 0.67892 0.70017 0.16145 0.0
N44 N 0.69373 0.71744 0.13768 0.0
C45 C 0.73603 0.70652 0.14272 0.0
C46 C 0.72132 0.68877 0.16736 0.0
C47 C 0.69262 0.68554 0.17672 0.0
C48 C 0.72126 0.72055 0.12839 0.0
H49 H 0.6568 0.69754 0.16865 0.0
C50 C 0.61614 0.7188 0.14129 0.0
O51 O 0.56728 0.66444 0.07047 0.0
O52 O 0.59336 0.64601 0.09458 0.0
N53 N 0.71727 0.74902 0.0904 0.0
C54 C 0.72833 0.76682 0.06617 0.0
C55 C 0.75683 0.77229 0.05395 0.0
C56 C 0.77389 0.75982 0.067 0.0
C57 C 0.76239 0.74213 0.09228 0.0
C58 C 0.73395 0.73764 0.10359 0.0
H59 H 0.71538 0.77655 0.05607 0.0
O60 O 0.63141 0.68234 0.04945 0.0
O61 O 0.65485 0.70229 0.0911 0.0
O62 O 0.62277 0.73234 0.06754 0.0
O63 O 0.66973 0.76431 0.08712 0.0
C64 C 0.77782 0.72847 0.10651 0.0
C65 C 0.7646 0.71059 0.13165 0.0
H66 H 0.73178 0.6774 0.17917 0.0
H67 H 0.68106 0.67178 0.19565 0.0
H68 H 0.76561 0.78606 0.0345 0.0
H69 H 0.7958 0.764 0.05744 0.0
H70 H 0.79974 0.73136 0.09816 0.0
H71 H 0.77655 0.7 0.14227 0.0
Mn72 Mn 0.31882 0.9192 0.09426 0.0
Mn73 Mn 0.32537 0.8586 0.07219 0.0
C74 C 0.36755 0.92501 0.08316 0.0
C75 C 0.31205 0.96063 0.08156 0.0
C76 C 0.30861 0.86663 0.13399 0.0
O77 O 0.27487 0.8885 0.08127 0.0
O78 O 0.28322 0.85168 0.06152 0.0
C79 C 0.32335 0.86484 0.00853 0.0
N80 N 0.33881 0.86394 0.03264 0.0
C81 C 0.38267 0.8703 0.00409 0.0
C82 C 0.36709 0.871 0.97892 0.0
C83 C 0.33738 0.86842 0.98117 0.0
C84 C 0.36753 0.8667 0.03074 0.0
H85 H 0.30049 0.86284 0.01018 0.0
C86 C 0.26579 0.86361 0.06695 0.0
O87 O 0.30558 0.94928 0.10765 0.0
O88 O 0.32189 0.94767 0.0632 0.0
N89 N 0.36565 0.86369 0.08113 0.0
C90 C 0.37798 0.86374 0.10756 0.0
C91 C 0.40797 0.86694 0.10917 0.0
C92 C 0.42491 0.86997 0.08362 0.0
C93 C 0.4117 0.86978 0.05666 0.0
C94 C 0.38169 0.86644 0.0564 0.0
H95 H 0.36504 0.86137 0.12726 0.0
O96 O 0.36521 0.94441 0.10034 0.0
O97 O 0.34116 0.90248 0.07464 0.0
O98 O 0.3128 0.8938 0.13088 0.0
O99 O 0.31195 0.85139 0.1133 0.0
C100 C 0.42729 0.87318 0.03007 0.0
C101 C 0.41274 0.87335 0.0038 0.0
H102 H 0.37784 0.87378 0.95777 0.0
H103 H 0.32531 0.86915 0.96186 0.0
H104 H 0.41802 0.8671 0.13006 0.0
H105 H 0.44809 0.87257 0.08496 0.0
H106 H 0.45055 0.87588 0.02958 0.0
H107 H 0.42504 0.87615 0.9835 0.0
Mn108 Mn 0.59792 0.91909 0.4138 0.0
Mn109 Mn 0.52804 0.86218 0.43539 0.0
C110 C 0.55659 0.92838 0.4209 0.0
C111 C 0.6467 0.95927 0.42679 0.0
C112 C 0.55504 0.86574 0.37506 0.0
O113 O 0.60787 0.88708 0.43015 0.0
O114 O 0.56098 0.85331 0.44939 0.0
C115 C 0.53457 0.87258 0.49882 0.0
N116 N 0.51923 0.87067 0.47369 0.0
C117 C 0.48378 0.88328 0.49842 0.0
C118 C 0.49909 0.88521 0.52459 0.0
C119 C 0.52461 0.87987 0.52477 0.0
C120 C 0.49469 0.87584 0.47326 0.0
H121 H 0.55439 0.86878 0.499 0.0
C122 C 0.59027 0.86325 0.44524 0.0
O123 O 0.64222 0.94648 0.40136 0.0
O124 O 0.62316 0.94829 0.44447 0.0
N125 N 0.49487 0.86926 0.42329 0.0
C126 C 0.48404 0.86857 0.39599 0.0
C127 C 0.45888 0.87404 0.39194 0.0
C128 C 0.44517 0.8802 0.41597 0.0
C129 C 0.45672 0.88079 0.44387 0.0
C130 C 0.48163 0.87484 0.44659 0.0
H131 H 0.49455 0.86393 0.37743 0.0
O132 O 0.57968 0.94631 0.40412 0.0
O133 O 0.55836 0.90534 0.43142 0.0
O134 O 0.57882 0.89245 0.37787 0.0
O135 O 0.5352 0.85208 0.39544 0.0
C136 C 0.44499 0.88778 0.46898 0.0
C137 C 0.45854 0.88907 0.49623 0.0
H138 H 0.49163 0.89106 0.54461 0.0
H139 H 0.53668 0.88151 0.54485 0.0
H140 H 0.45016 0.87364 0.37033 0.0
H141 H 0.42597 0.88472 0.41272 0.0
H142 H 0.42584 0.89263 0.46752 0.0
H143 H 0.4496 0.89488 0.51531 0.0
Mn144 Mn 0.07061 0.69399 0.42122 0.0
Mn145 Mn 0.05472 0.74428 0.3867 0.0
C146 C 0.03041 0.70138 0.4374 0.0
C147 C 0.06279 0.6444 0.42692 0.0
C148 C 0.10602 0.76372 0.43128 0.0
O149 O 0.09572 0.70209 0.38391 0.0
O150 O 0.08328 0.73537 0.36327 0.0
C151 C 0.01846 0.70231 0.3389 0.0
N152 N 0.02045 0.72114 0.36118 0.0
C153 C 0.96833 0.71191 0.35227 0.0
C154 C 0.96577 0.69256 0.32912 0.0
C155 C 0.99092 0.68768 0.32247 0.0
C156 C -0.00372 0.72571 0.36797 0.0
H157 H 0.03771 0.69846 0.33374 0.0
C158 C 0.09785 0.72005 0.36334 0.0
O159 O 0.08756 0.66805 0.43721 0.0
O160 O 0.04401 0.6499 0.41165 0.0
N161 N 0.02739 0.7556 0.40607 0.0
C162 C 0.0338 0.77529 0.42879 0.0
C163 C 0.01127 0.78308 0.43786 0.0
C164 C 0.98263 0.77097 0.42317 0.0
C165 C 0.9767 0.75107 0.39966 0.0
C166 C 0.00016 0.74439 0.39142 0.0
H167 H 0.05596 0.78499 0.43988 0.0
O168 O 0.04246 0.68915 0.45404 0.0
O169 O 0.04114 0.7077 0.41092 0.0
O170 O 0.10228 0.73691 0.43615 0.0
O171 O 0.08949 0.76909 0.41331 0.0
C172 C 0.94847 0.73767 0.38402 0.0
C173 C 0.94421 0.71795 0.36045 0.0
H174 H 0.9446 0.68128 0.31636 0.0
H175 H 0.98909 0.67269 0.3047 0.0
H176 H 0.01603 0.79852 0.456 0.0
H177 H 0.96539 0.77722 0.43004 0.0
H178 H 0.92984 0.74229 0.39001 0.0
H179 H 0.92234 0.70763 0.3487 0.0
Mn180 Mn 0.31709 0.3765 0.4006 0.0
Mn181 Mn 0.27058 0.31023 0.36536 0.0
C182 C 0.31284 0.33112 0.41688 0.0
C183 C 0.36518 0.42001 0.40814 0.0
C184 C 0.24605 0.3387 0.40869 0.0
O185 O 0.30842 0.39194 0.36296 0.0
O186 O 0.27772 0.34632 0.34164 0.0
C187 C 0.31585 0.31866 0.3189 0.0
N188 N 0.29687 0.30156 0.34104 0.0
C189 C 0.31136 0.26244 0.33421 0.0
C190 C 0.33097 0.27956 0.31124 0.0
C191 C 0.33328 0.30783 0.30361 0.0
C192 C 0.29477 0.27453 0.34879 0.0
H193 H 0.3177 0.3404 0.31299 0.0
C194 C 0.29135 0.37574 0.34204 0.0
O195 O 0.33944 0.41868 0.4171 0.0
O196 O 0.36261 0.39711 0.39277 0.0
N197 N 0.26115 0.27307 0.38519 0.0
C198 C 0.24017 0.25883 0.40704 0.0
C199 C 0.23449 0.22994 0.41685 0.0
C200 C 0.24992 0.21572 0.4037 0.0
C201 C 0.27089 0.23051 0.38082 0.0
C202 C 0.27548 0.25921 0.37188 0.0
H203 H 0.22792 0.26946 0.41698 0.0
O204 O 0.32301 0.35481 0.43377 0.0
O205 O 0.30661 0.33488 0.39024 0.0
O206 O 0.27239 0.36235 0.41407 0.0
O207 O 0.24252 0.3176 0.39083 0.0
C208 C 0.28718 0.21779 0.36632 0.0
C209 C 0.30758 0.23384 0.34318 0.0
H210 H 0.34436 0.27123 0.29933 0.0
H211 H 0.34842 0.32121 0.28596 0.0
H212 H 0.21811 0.21857 0.43438 0.0
H213 H 0.24522 0.1933 0.41117 0.0
H214 H 0.28418 0.19565 0.37278 0.0
H215 H 0.32006 0.22388 0.33228 0.0
Mn216 Mn 0.93756 0.63499 0.91441 0.0
Mn217 Mn 0.95489 0.69944 0.87689 0.0
C218 C 0.97673 0.68188 0.93012 0.0
C219 C 0.9446 0.59323 0.92406 0.0
C220 C 0.90061 0.66946 0.91885 0.0
O221 O 0.91492 0.61764 0.87648 0.0
O222 O 0.92846 0.66216 0.85326 0.0
C223 C 0.99507 0.69296 0.83261 0.0
N224 N 0.99113 0.70978 0.85381 0.0
C225 C 0.04378 0.75119 0.8476 0.0
C226 C 0.04832 0.73442 0.82552 0.0
C227 C 0.02388 0.70514 0.81806 0.0
C228 C 0.01458 0.73785 0.86135 0.0
H229 H 0.97641 0.67039 0.82691 0.0
C230 C 0.9142 0.63274 0.85454 0.0
O231 O 0.91926 0.59337 0.93199 0.0
O232 O 0.96466 0.61635 0.90875 0.0
N233 N 0.98038 0.73741 0.89663 0.0
C234 C 0.97228 0.75048 0.91857 0.0
C235 C 0.99416 0.77978 0.92871 0.0
C236 C 0.02395 0.79551 0.91594 0.0
C237 C 0.0316 0.78181 0.89309 0.0
C238 C 0.00876 0.75264 0.88378 0.0
H239 H 0.94939 0.73854 0.92841 0.0
O240 O 0.96369 0.65875 0.94772 0.0
O241 O 0.96733 0.67675 0.90328 0.0
O242 O 0.90481 0.64699 0.92555 0.0
O243 O 0.91798 0.69061 0.90095 0.0
C244 C 0.061 0.79589 0.87925 0.0
C245 C 0.06715 0.78052 0.85664 0.0
H246 H 0.07052 0.74372 0.81426 0.0
H247 H 0.02726 0.69198 0.80115 0.0
H248 H 0.98806 0.79023 0.94631 0.0
H249 H 0.04072 0.81814 0.9238 0.0
H250 H 0.07912 0.81846 0.88594 0.0
H251 H 0.08995 0.79146 0.84637 0.0
Mn252 Mn 0.37308 0.29981 0.93977 0.0
Mn253 Mn 0.30523 0.25008 0.90733 0.0
C254 C 0.3269 0.29676 0.95473 0.0
C255 C 0.41652 0.34853 0.94382 0.0
C256 C 0.33641 0.23082 0.95297 0.0
O257 O 0.38828 0.2884 0.9031 0.0
O258 O 0.34151 0.25652 0.88312 0.0
C259 C 0.31005 0.28934 0.85737 0.0
N260 N 0.294 0.27243 0.8809 0.0
C261 C 0.25214 0.28336 0.87252 0.0
C262 C 0.26812 0.30072 0.84807 0.0
C263 C 0.29724 0.30376 0.84051 0.0
C264 C 0.26603 0.26945 0.88844 0.0
H265 H 0.33249 0.29184 0.85155 0.0
C266 C 0.37146 0.2705 0.88285 0.0
O267 O 0.4163 0.32465 0.95526 0.0
O268 O 0.39267 0.34356 0.92811 0.0
N269 N 0.26801 0.24164 0.92803 0.0
C270 C 0.25597 0.22473 0.95263 0.0
C271 C 0.22713 0.2199 0.96341 0.0
C272 C 0.2108 0.23215 0.94861 0.0
C273 C 0.22336 0.24896 0.92302 0.0
C274 C 0.2521 0.25286 0.91322 0.0
H275 H 0.26839 0.21521 0.96408 0.0
O276 O 0.35098 0.30813 0.97164 0.0
O277 O 0.33057 0.28799 0.92912 0.0
O278 O 0.36002 0.25741 0.95703 0.0
O279 O 0.31474 0.22554 0.93479 0.0
C280 C 0.20873 0.26238 0.9071 0.0
C281 C 0.22315 0.27965 0.88191 0.0
H282 H 0.25837 0.31197 0.83506 0.0
H283 H 0.30979 0.31724 0.82175 0.0
H284 H 0.21755 0.20683 0.98313 0.0
H285 H 0.18868 0.22855 0.95711 0.0
H286 H 0.18653 0.25981 0.91417 0.0
H287 H 0.21183 0.29012 0.87003 0.0
Mn288 Mn 0.68788 0.06832 0.90266 0.0
Mn289 Mn 0.74264 0.0514 0.87893 0.0
C290 C 0.69164 0.02823 0.92299 0.0
C291 C 0.6375 0.061 0.90259 0.0
C292 C 0.75666 0.10319 0.92077 0.0
O293 O 0.70081 0.09137 0.86442 0.0
O294 O 0.73766 0.07931 0.85125 0.0
C295 C 0.70823 0.01514 0.82748 0.0
N296 N 0.72308 0.01725 0.85297 0.0
C297 C 0.71325 0.96523 0.84846 0.0
C298 C 0.69803 0.96258 0.82207 0.0
C299 C 0.69548 0.98763 0.81156 0.0
C300 C 0.72562 0.99326 0.8633 0.0
H301 H 0.70607 0.03427 0.81938 0.0
C302 C 0.72193 0.0932 0.84705 0.0
O303 O 0.66058 0.08596 0.91314 0.0
O304 O 0.6444 0.04208 0.88953 0.0
N305 N 0.74984 0.02447 0.90322 0.0
C306 C 0.76442 0.03047 0.92943 0.0
C307 C 0.76836 0.00755 0.94319 0.0
C308 C 0.75759 0.97885 0.92974 0.0
C309 C 0.74317 0.9734 0.90253 0.0
C310 C 0.74007 0.99719 0.88977 0.0
H311 H 0.77266 0.05245 0.93992 0.0
O312 O 0.67857 0.04137 0.93707 0.0
O313 O 0.70201 0.03868 0.89707 0.0
O314 O 0.72924 0.09993 0.9208 0.0
O315 O 0.76427 0.08606 0.90618 0.0
C316 C 0.73126 0.94513 0.8878 0.0
C317 C 0.71625 0.94103 0.86082 0.0
H318 H 0.68804 0.94135 0.80979 0.0
H319 H 0.68364 0.98571 0.79128 0.0
H320 H 0.77954 0.01194 0.96418 0.0
H321 H 0.7604 0.96113 0.94056 0.0
H322 H 0.73323 0.92628 0.89716 0.0
H323 H 0.7069 0.91908 0.84984 0.0
Mn324 Mn 0.37005 0.06907 0.60089 0.0
Mn325 Mn 0.3032 0.05867 0.63161 0.0
C326 C 0.32239 0.03191 0.58332 0.0
C327 C 0.40999 0.05732 0.59629 0.0
C328 C 0.34094 0.10979 0.58901 0.0
O329 O 0.3856 0.09204 0.6391 0.0
O330 O 0.33933 0.083 0.65756 0.0
C331 C 0.30088 0.01856 0.67987 0.0
N332 N 0.28732 0.02338 0.65622 0.0
C333 C 0.24156 0.97367 0.66149 0.0
C334 C 0.25495 0.96825 0.68602 0.0
C335 C 0.28478 0.99077 0.69519 0.0
C336 C 0.25876 0.00176 0.64705 0.0
H337 H 0.32382 0.03578 0.68696 0.0
C338 C 0.36909 0.09486 0.65904 0.0
O339 O 0.41331 0.08323 0.58677 0.0
O340 O 0.38467 0.03968 0.61066 0.0
N341 N 0.26624 0.03539 0.60914 0.0
C342 C 0.25683 0.04408 0.58486 0.0
C343 C 0.22741 0.02421 0.57294 0.0
C344 C 0.20786 0.99582 0.58627 0.0
C345 C 0.218 0.98742 0.61129 0.0
C346 C 0.24744 0.00828 0.62232 0.0
H347 H 0.27165 0.06601 0.57467 0.0
O348 O 0.34719 0.0428 0.56719 0.0
O349 O 0.32619 0.04269 0.60959 0.0
O350 O 0.36273 0.10324 0.58541 0.0
O351 O 0.31759 0.09476 0.60589 0.0
C352 C 0.20006 0.95918 0.62572 0.0
C353 C 0.21192 0.95223 0.6507 0.0
H354 H 0.2426 0.94684 0.6979 0.0
H355 H 0.29532 0.98671 0.71403 0.0
H356 H 0.21974 0.03084 0.55362 0.0
H357 H 0.18506 0.98074 0.57717 0.0
H358 H 0.17719 0.94258 0.61773 0.0
H359 H 0.19803 0.93034 0.66145 0.0
Mn360 Mn 0.92482 0.30046 0.56221 0.0
Mn361 Mn 0.94491 0.25213 0.59467 0.0
C362 C 0.96781 0.29772 0.54622 0.0
C363 C 0.92902 0.3488 0.5583 0.0
C364 C 0.89306 0.23128 0.55027 0.0
O365 O 0.89899 0.28909 0.5994 0.0
O366 O 0.91584 0.25888 0.61967 0.0
C367 C 0.98115 0.29329 0.64294 0.0
N368 N 0.9795 0.27563 0.61976 0.0
C369 C 0.03283 0.2875 0.62632 0.0
C370 C 0.03504 0.30564 0.65041 0.0
C371 C 0.0091 0.30861 0.6587 0.0
C372 C 0.00438 0.27281 0.61146 0.0
H373 H 0.96131 0.29573 0.64931 0.0
C374 C 0.89918 0.27214 0.61999 0.0
O375 O 0.90542 0.32462 0.5472 0.0
O376 O 0.94861 0.34436 0.57346 0.0
N377 N 0.97303 0.24331 0.57332 0.0
C378 C 0.96706 0.22499 0.54955 0.0
C379 C 0.99057 0.21955 0.53851 0.0
C380 C 0.0198 0.23264 0.55221 0.0
C381 C 0.02524 0.25099 0.57691 0.0
C382 C 0.00081 0.25534 0.58711 0.0
H383 H 0.94456 0.21469 0.53904 0.0
O384 O 0.95456 0.30885 0.52968 0.0
O385 O 0.95616 0.28929 0.57213 0.0
O386 O 0.89571 0.25767 0.54562 0.0
O387 O 0.90989 0.22662 0.56846 0.0
C388 C 0.05399 0.26529 0.5917 0.0
C389 C 0.05783 0.28364 0.61632 0.0
H390 H 0.05658 0.31753 0.66259 0.0
H391 H 0.01067 0.32268 0.67718 0.0
H392 H 0.98615 0.20527 0.5195 0.0
H393 H 0.03784 0.22832 0.54367 0.0
H394 H 0.07338 0.26251 0.5842 0.0
H395 H 0.08012 0.29472 0.62738 0.0
Mn396 Mn 0.68507 0.62143 0.58897 0.0
Mn397 Mn 0.72864 0.68704 0.6264 0.0
C398 C 0.68771 0.66646 0.57395 0.0
C399 C 0.63797 0.57722 0.58007 0.0
C400 C 0.75604 0.66071 0.58352 0.0
O401 O 0.69379 0.6057 0.62641 0.0
O402 O 0.7208 0.65073 0.65018 0.0
C403 C 0.68142 0.67764 0.67117 0.0
N404 N 0.70119 0.69513 0.64963 0.0
C405 C 0.68547 0.73351 0.65521 0.0
C406 C 0.66512 0.71603 0.67762 0.0
C407 C 0.66306 0.68795 0.68559 0.0
C408 C 0.70329 0.72213 0.64173 0.0
H409 H 0.67959 0.65594 0.67721 0.0
C410 C 0.70851 0.62143 0.64854 0.0
O411 O 0.6643 0.57972 0.57132 0.0
O412 O 0.63941 0.5993 0.596 0.0
N413 N 0.7381 0.72413 0.60631 0.0
C414 C 0.75852 0.73799 0.58399 0.0
C415 C 0.76296 0.76611 0.5731 0.0
C416 C 0.74668 0.77986 0.5855 0.0
C417 C 0.72639 0.76554 0.60892 0.0
C418 C 0.72309 0.73766 0.619 0.0
H419 H 0.77106 0.72751 0.57434 0.0
O420 O 0.6789 0.64354 0.55626 0.0
O421 O 0.69369 0.66209 0.60048 0.0
O422 O 0.73022 0.63738 0.57629 0.0
O423 O 0.75834 0.6806 0.60231 0.0
C424 C 0.70892 0.77758 0.62236 0.0
C425 C 0.68843 0.76155 0.64546 0.0
H426 H 0.65081 0.72383 0.68871 0.0
H427 H 0.64728 0.67425 0.70275 0.0
H428 H 0.77878 0.77709 0.5551 0.0
H429 H 0.7499 0.80137 0.57683 0.0
H430 H 0.71083 0.799 0.61492 0.0
H431 H 0.67491 0.7709 0.65544 0.0
H432 H 0.13395 0.3827 0.04635 0.0
H433 H 0.17297 0.37572 0.01947 0.0
H434 H 0.13139 0.28219 0.04992 0.0
H435 H 0.09215 0.28872 0.07676 0.0
H436 H 0.21529 0.35934 0.04449 0.0
H437 H 0.1403 0.27504 0.96124 0.0
H438 H 0.12811 0.29827 0.98167 0.0
H439 H 0.12628 0.2647 0.99782 0.0
C440 C 0.13291 0.36054 0.04721 0.0
C441 C 0.1099 0.33627 0.06377 0.0
C442 C 0.15521 0.35663 0.03179 0.0
C443 C 0.15469 0.32833 0.03241 0.0
C444 C 0.13174 0.30402 0.04874 0.0
H445 H 0.29495 0.27761 0.00505 0.0
H446 H 0.25247 0.28627 0.02192 0.0
C447 C 0.10951 0.30792 0.06427 0.0
C448 C 0.1794 0.3248 0.01761 0.0
H449 H 0.19183 0.28229 0.96665 0.0
C450 C 0.21025 0.34274 0.02726 0.0
C451 C 0.17266 0.30327 0.99501 0.0
C452 C 0.14009 0.28438 0.98308 0.0
C453 C 0.23444 0.33888 0.0156 0.0
C454 C 0.22745 0.31645 0.99392 0.0
C455 C 0.19688 0.29928 0.98347 0.0
C456 C 0.25158 0.30975 0.98286 0.0
C457 C 0.26726 0.35842 0.02678 0.0
C458 C 0.2647 0.31994 0.95529 0.0
C459 C 0.28888 0.315 0.94569 0.0
C460 C 0.29952 0.29921 0.96331 0.0
C461 C 0.28644 0.28919 0.99092 0.0
C462 C 0.26237 0.29415 0.00053 0.0
H463 H 0.26973 0.3783 0.03968 0.0
H464 H 0.27344 0.34421 0.04084 0.0
H465 H 0.28422 0.36711 0.0085 0.0
H466 H 0.25673 0.33226 0.94154 0.0
H467 H 0.29961 0.32395 0.92477 0.0
H468 H 0.60234 0.75949 0.03488 0.0
H469 H 0.60756 0.80214 0.00475 0.0
H470 H 0.70108 0.85935 0.0367 0.0
H471 H 0.69631 0.81724 0.06678 0.0
H472 H 0.62211 0.86268 0.02429 0.0
H473 H 0.7103 0.86569 0.94684 0.0
H474 H 0.6864 0.83268 0.96933 0.0
H475 H 0.72002 0.86542 0.98433 0.0
C476 C 0.62403 0.78114 0.03552 0.0
C477 C 0.64893 0.78485 0.05323 0.0
C478 C 0.62696 0.80541 0.01825 0.0
C479 C 0.6549 0.83359 0.01816 0.0
C480 C 0.67957 0.83753 0.03605 0.0
H481 H 0.70572 0.01815 0.97693 0.0
H482 H 0.69496 0.9688 0.99795 0.0
C483 C 0.67665 0.81344 0.05342 0.0
C484 C 0.65812 0.85952 0.00034 0.0
H485 H 0.7031 0.90969 0.94743 0.0
C486 C 0.6395 0.87274 0.00721 0.0
C487 C 0.68068 0.87235 0.97795 0.0
C488 C 0.70033 0.85817 0.96892 0.0
C489 C 0.64387 0.89942 0.99313 0.0
C490 C 0.66754 0.91314 0.97184 0.0
C491 C 0.68519 0.89916 0.96399 0.0
C492 C 0.67523 0.94286 0.95859 0.0
C493 C 0.62358 0.91311 0.00143 0.0
C494 C 0.66809 0.94444 0.92945 0.0
C495 C 0.67427 0.97256 0.91747 0.0
C496 C 0.6884 -0.00058 0.93431 0.0
C497 C 0.69549 0.99775 0.96344 0.0
C498 C 0.68924 0.96968 0.97543 0.0
H499 H 0.6023 0.89644 0.01343 0.0
H500 H 0.63709 0.93339 0.01558 0.0
H501 H 0.61639 0.92099 0.98186 0.0
H502 H 0.65714 0.92386 0.91623 0.0
H503 H 0.66751 0.97326 0.89527 0.0
H504 H 0.22496 0.88607 0.06351 0.0
H505 H 0.17322 0.86133 0.04096 0.0
H506 H 0.18295 0.78232 0.01993 0.0
H507 H 0.2345 0.8066 0.04232 0.0
H508 H 0.1594 0.83859 0.9804 0.0
H509 H 0.09724 0.74838 0.06373 0.0
H510 H 0.13357 0.78312 0.07095 0.0
H511 H 0.13366 0.75197 0.05149 0.0
C512 C 0.21599 0.8633 0.05435 0.0
C513 C 0.23385 0.84826 0.05482 0.0
C514 C 0.18652 0.84932 0.04138 0.0
C515 C 0.17436 0.82002 0.02905 0.0
C516 C 0.19193 0.80486 0.02966 0.0
H517 H 0.03503 0.70955 0.90697 0.0
H518 H 0.08272 0.74931 0.93005 0.0
C519 C 0.22141 0.81883 0.0424 0.0
C520 C 0.14353 0.80524 0.0149 0.0
H521 H 0.07164 0.74147 0.01839 0.0
C522 C 0.13998 0.81757 0.9888 0.0
C523 C 0.11833 0.77809 0.02621 0.0
C524 C 0.12066 0.76468 0.05477 0.0
C525 C 0.11208 0.80256 0.97297 0.0
C526 C 0.08741 0.77451 0.98353 0.0
C527 C 0.09062 0.76296 0.01028 0.0
C528 C 0.05865 0.75555 0.9667 0.0
C529 C 0.10924 0.81672 0.94513 0.0
C530 C 0.02936 0.74607 0.9795 0.0
C531 C 0.00229 0.72326 0.96646 0.0
C532 C 0.00405 0.71005 0.94016 0.0
C533 C 0.03315 0.72031 0.92673 0.0
C534 C 0.06032 0.74301 0.93988 0.0
H535 H 0.1264 0.84168 0.94405 0.0
H536 H 0.11371 0.80532 0.92648 0.0
H537 H 0.08537 0.81353 0.94287 0.0
H538 H 0.02763 0.75522 0.00032 0.0
H539 H 0.98005 0.71511 0.9774 0.0
H540 H 0.65365 0.68987 0.59843 0.0
H541 H 0.64375 0.72959 0.57777 0.0
H542 H 0.70496 0.74069 0.50595 0.0
H543 H 0.71487 0.70105 0.5266 0.0
H544 H 0.68748 0.79462 0.55674 0.0
H545 H 0.61455 0.70992 0.47228 0.0
H546 H 0.62535 0.69859 0.50555 0.0
H547 H 0.6535 0.71597 0.47691 0.0
C548 C 0.66568 0.70157 0.57873 0.0
C549 C 0.6857 0.69333 0.56442 0.0
C550 C 0.65995 0.72404 0.56693 0.0
C551 C 0.67371 0.73795 0.54043 0.0
C552 C 0.69426 0.73019 0.52648 0.0
H553 H 0.65218 0.87863 0.44682 0.0
H554 H 0.6748 0.85024 0.47048 0.0
C555 C 0.6999 0.70769 0.53823 0.0
C556 C 0.66393 0.75803 0.52585 0.0
H557 H 0.62 0.75933 0.46938 0.0
C558 C 0.67289 0.78711 0.53755 0.0
C559 C 0.64469 0.74781 0.50101 0.0
C560 C 0.63369 0.7163 0.4882 0.0
C561 C 0.66289 0.80636 0.52493 0.0
C562 C 0.64365 0.79609 0.50009 0.0
C563 C 0.63492 0.76709 0.48836 0.0
C564 C 0.63061 0.81415 0.48681 0.0
C565 C 0.67215 0.83709 0.53862 0.0
C566 C 0.59831 0.80293 0.48793 0.0
C567 C 0.58529 0.8189 0.47442 0.0
C568 C 0.60434 0.84635 0.4593 0.0
C569 C 0.63681 0.85754 0.45821 0.0
C570 C 0.64983 0.84152 0.47187 0.0
H571 H 0.68314 0.8396 0.5602 0.0
H572 H 0.68913 0.85568 0.52428 0.0
H573 H 0.65143 0.84027 0.54111 0.0
H574 H 0.58313 0.7817 0.49925 0.0
H575 H 0.56022 0.80956 0.47577 0.0
H576 H 0.12829 0.82486 0.42134 0.0
H577 H 0.16353 0.86796 0.45174 0.0
H578 H 0.17114 0.80539 0.51116 0.0
H579 H 0.1363 0.76198 0.48052 0.0
H580 H 0.15298 0.87744 0.50834 0.0
H581 H 0.26211 0.87033 0.49889 0.0
H582 H 0.22945 0.84996 0.47471 0.0
H583 H 0.2283 0.83563 0.51067 0.0
C584 C 0.13772 0.8202 0.44068 0.0
C585 C 0.12949 0.78993 0.44846 0.0
C586 C 0.15782 0.84489 0.45805 0.0
C587 C 0.17011 0.83988 0.48356 0.0
C588 C 0.16238 0.80979 0.49126 0.0
H589 H 0.29152 0.97697 0.61094 0.0
H590 H 0.25041 0.92839 0.59045 0.0
C591 C 0.1424 0.78501 0.47374 0.0
C592 C 0.18977 0.86623 0.50261 0.0
H593 H 0.26312 0.90798 0.5307 0.0
C594 C 0.17705 0.88409 0.51326 0.0
C595 C 0.22105 0.87463 0.50922 0.0
C596 C 0.23621 0.85683 0.49762 0.0
C597 C 0.19504 0.91057 0.52979 0.0
C598 C 0.22641 0.9193 0.53585 0.0
C599 C 0.2389 0.90097 0.52606 0.0
C600 C 0.24754 0.9488 0.55005 0.0
C601 C 0.1805 0.92903 0.54088 0.0
C602 C 0.25907 0.97618 0.53417 0.0
C603 C 0.28243 0.00373 0.54576 0.0
C604 C 0.29411 0.00435 0.57359 0.0
C605 C 0.28202 0.9771 0.58981 0.0
C606 C 0.25881 0.94942 0.57809 0.0
H607 H 0.1551 0.91792 0.53612 0.0
H608 H 0.18386 0.93195 0.56468 0.0
H609 H 0.19228 0.95223 0.53086 0.0
H610 H 0.25094 0.97596 0.51231 0.0
H611 H 0.29202 0.02442 0.5327 0.0
H612 H 0.02412 0.32703 0.57296 0.0
H613 H 0.07416 0.33417 0.55405 0.0
H614 H 0.02713 0.28166 0.47791 0.0
H615 H 0.97723 0.27457 0.49675 0.0
H616 H 0.07394 0.2676 0.51025 0.0
H617 H 0.11641 0.38935 0.47795 0.0
H618 H 0.09999 0.37708 0.51368 0.0
H619 H 0.07532 0.36227 0.48249 0.0
C620 C 0.02456 0.31656 0.55248 0.0
C621 C -0.00299 0.29944 0.5366 0.0
C622 C 0.05301 0.32084 0.54165 0.0
C623 C 0.05409 0.30833 0.5147 0.0
C624 C 0.02655 0.29125 0.49885 0.0
H625 H 0.18468 0.29656 0.39897 0.0
H626 H 0.13921 0.28951 0.42666 0.0
C627 C -0.00178 0.28721 0.50956 0.0
C628 C 0.08406 0.31399 0.50222 0.0
H629 H 0.1483 0.36803 0.46616 0.0
C630 C 0.0904 0.28959 0.50085 0.0
C631 C 0.10532 0.34276 0.4901 0.0
C632 C 0.09909 0.36947 0.49089 0.0
C633 C 0.11756 0.29312 0.48733 0.0
C634 C 0.13828 0.32156 0.47412 0.0
C635 C 0.13227 0.34621 0.47619 0.0
C636 C 0.16585 0.32598 0.45729 0.0
C637 C 0.12382 0.26642 0.4875 0.0
C638 C 0.19576 0.3496 0.46467 0.0
C639 C 0.22178 0.35404 0.44861 0.0
C640 C 0.21833 0.33491 0.42485 0.0
C641 C 0.18822 0.31156 0.41726 0.0
C642 C 0.16221 0.30731 0.43321 0.0
H643 H 0.11158 0.25047 0.50578 0.0
H644 H 0.11505 0.25325 0.46702 0.0
H645 H 0.14922 0.27443 0.48915 0.0
H646 H 0.19899 0.36442 0.48305 0.0
H647 H 0.24461 0.37221 0.45511 0.0
H648 H 0.68376 0.71728 0.01303 0.0
H649 H 0.7261 0.71253 0.98968 0.0
H650 H 0.73199 0.66386 0.06446 0.0
H651 H 0.68934 0.66845 0.08782 0.0
H652 H 0.79226 0.71436 0.03953 0.0
H653 H 0.71325 0.62702 0.96006 0.0
H654 H 0.70924 0.66081 0.96328 0.0
H655 H 0.69926 0.63499 0.99349 0.0
C656 C 0.69446 0.70595 0.02455 0.0
C657 C 0.6843 0.69413 0.05248 0.0
C658 C 0.71841 0.70314 0.01122 0.0
C659 C 0.73197 0.68782 0.0254 0.0
C660 C 0.72181 0.67589 0.05333 0.0
H661 H 0.85298 0.62527 0.9511 0.0
H662 H 0.81238 0.62981 0.97772 0.0
C663 C 0.69777 0.67872 0.06669 0.0
C664 C 0.75614 0.68358 0.01052 0.0
H665 H 0.76773 0.64792 0.95244 0.0
C666 C 0.78699 0.69984 0.02054 0.0
C667 C 0.7489 0.66425 0.98601 0.0
C668 C 0.71584 0.64552 0.97511 0.0
C669 C 0.81111 0.69793 0.00603 0.0
C670 C 0.80398 0.67931 0.98102 0.0
C671 C 0.77301 0.66241 0.97149 0.0
C672 C 0.82837 0.67675 0.96461 0.0
C673 C 0.84401 0.7157 0.01748 0.0
C674 C 0.85031 0.70154 0.94804 0.0
C675 C 0.87342 0.69901 0.93257 0.0
C676 C 0.87502 0.67166 0.93361 0.0
C677 C 0.85257 0.64672 0.94994 0.0
C678 C 0.82935 0.64922 0.96518 0.0
H679 H 0.84477 0.72492 0.0396 0.0
H680 H 0.855 0.70089 0.01803 0.0
H681 H 0.85817 0.73531 0.00278 0.0
H682 H 0.84954 0.72283 0.94714 0.0
H683 H 0.8903 0.71864 0.92021 0.0
H684 H 0.37342 0.23229 0.99811 0.0
H685 H 0.36824 0.18887 0.02677 0.0
H686 H 0.2879 0.12695 0.97635 0.0
H687 H 0.29239 0.17008 0.94798 0.0
H688 H 0.27977 0.11471 0.03572 0.0
H689 H 0.39226 0.12661 0.996 0.0
H690 H 0.39498 0.16023 0.01298 0.0
H691 H 0.3742 0.14661 0.97939 0.0
C692 C 0.35465 0.20945 0.99306 0.0
C693 C 0.33352 0.20469 0.97049 0.0
C694 C 0.35176 0.18466 0.00947 0.0
C695 C 0.32792 0.15469 0.00343 0.0
C696 C 0.30647 0.14993 0.98135 0.0
H697 H 0.31389 0.98099 0.02686 0.0
H698 H 0.31631 0.02874 0.0117 0.0
C699 C 0.3092 0.17465 0.96504 0.0
C700 C 0.32576 0.12796 0.01928 0.0
H701 H 0.36348 0.08677 0.02909 0.0
C702 C 0.29815 0.10867 0.03454 0.0
C703 C 0.34974 0.12014 0.01748 0.0
C704 C 0.37938 0.13928 0.00041 0.0
C705 C 0.29356 0.08129 0.04745 0.0
C706 C 0.31738 0.07333 0.04527 0.0
C707 C 0.34533 0.09309 0.03079 0.0
C708 C 0.31286 0.04324 0.05515 0.0
C709 C 0.26282 0.06045 0.06217 0.0
C710 C 0.30946 0.03525 0.08467 0.0
C711 C 0.30785 0.00765 0.09348 0.0
C712 C 0.30995 0.98798 0.07285 0.0
C713 C 0.3124 0.99574 0.04331 0.0
C714 C 0.31382 0.02304 0.03459 0.0
H715 H 0.24502 0.06752 0.05784 0.0
H716 H 0.25355 0.03633 0.05482 0.0
H717 H 0.26646 0.06107 0.08595 0.0
H718 H 0.30905 0.05075 0.10091 0.0
H719 H 0.30613 0.00229 0.11639 0.0
H720 H 0.00743 0.30877 0.02431 0.0
H721 H 0.959 0.26885 0.00245 0.0
H722 H 0.90703 0.27033 0.07749 0.0
H723 H 0.95571 0.31065 0.09937 0.0
H724 H 0.89344 0.20868 0.05518 0.0
H725 H 0.88865 0.28613 0.97167 0.0
H726 H 0.92594 0.28786 0.97464 0.0
H727 H 0.91126 0.30022 0.00454 0.0
C728 C 0.98567 0.30026 0.03621 0.0
C729 C 0.98516 0.31182 0.0638 0.0
C730 C 0.95812 0.27768 0.02371 0.0
C731 C 0.92957 0.26688 0.03835 0.0
C732 C 0.92894 0.27842 0.06596 0.0
H733 H 0.75319 0.14963 0.94925 0.0
H734 H 0.7926 0.18897 0.98072 0.0
C735 C 0.95662 0.30112 0.07849 0.0
C736 C 0.90054 0.2438 0.02429 0.0
H737 H 0.8563 0.23222 0.96384 0.0
C738 C 0.88509 0.2138 0.03537 0.0
C739 C 0.88945 0.25083 0.99879 0.0
C740 C 0.90447 0.28307 0.98678 0.0
C741 C 0.85977 0.19013 0.02058 0.0
C742 C 0.84986 0.19684 0.99417 0.0
C743 C 0.86423 0.22718 0.98397 0.0
C744 C 0.82565 0.17249 0.97601 0.0
C745 C 0.84412 0.15807 0.033 0.0
C746 C 0.83155 0.15061 0.96267 0.0
C747 C 0.80929 0.12829 0.94447 0.0
C748 C 0.78065 0.12743 0.93937 0.0
C749 C 0.77493 0.14955 0.95276 0.0
C750 C 0.79735 0.17201 0.97078 0.0
H751 H 0.84936 0.15813 0.05644 0.0
H752 H 0.81839 0.14668 0.03014 0.0
H753 H 0.85273 0.1442 0.02136 0.0
H754 H 0.85356 0.15102 0.96608 0.0
H755 H 0.8145 0.11165 0.93457 0.0
H756 H 0.38172 0.14213 0.54517 0.0
H757 H 0.38019 0.18047 0.51338 0.0
H758 H 0.30025 0.17207 0.56019 0.0
H759 H 0.30146 0.13376 0.59214 0.0
H760 H 0.32716 0.17025 0.47826 0.0
H761 H 0.36265 0.26615 0.55656 0.0
H762 H 0.37033 0.23472 0.56238 0.0
H763 H 0.3321 0.22969 0.56938 0.0
C764 C 0.36402 0.14867 0.549 0.0
C765 C 0.34173 0.13486 0.5713 0.0
C766 C 0.36317 0.17051 0.53073 0.0
C767 C 0.34028 0.17918 0.53465 0.0
C768 C 0.31835 0.16592 0.55712 0.0
H769 H 0.28063 0.29833 0.46324 0.0
H770 H 0.28701 0.25882 0.48851 0.0
C771 C 0.31905 0.14396 0.5753 0.0
C772 C 0.33828 0.20107 0.51451 0.0
H773 H 0.34021 0.2701 0.51233 0.0
C774 C 0.33025 0.19225 0.48551 0.0
C775 C 0.34262 0.22973 0.52414 0.0
C776 C 0.35269 0.24086 0.55474 0.0
C777 C 0.32479 0.21075 0.46614 0.0
C778 C 0.32791 0.23895 0.47608 0.0
C779 C 0.33729 0.24825 0.50482 0.0
C780 C 0.3205 0.2589 0.45777 0.0
C781 C 0.31449 0.19927 0.43571 0.0
C782 C 0.33639 0.27135 0.43153 0.0
C783 C 0.33203 0.29337 0.41667 0.0
C784 C 0.31197 0.30329 0.42804 0.0
C785 C 0.29569 0.29042 0.45386 0.0
C786 C 0.2995 0.26805 0.46833 0.0
H787 H 0.3053 0.17409 0.4339 0.0
H788 H 0.29615 0.20449 0.42854 0.0
H789 H 0.33472 0.21091 0.42074 0.0
H790 H 0.35332 0.2653 0.42333 0.0
H791 H 0.34559 0.30387 0.39726 0.0
H792 H 0.87563 0.17059 0.55755 0.0
H793 H 0.83803 0.12689 0.52918 0.0
H794 H 0.82121 0.18768 0.47522 0.0
H795 H 0.85836 0.23166 0.50394 0.0
H796 H 0.7679 0.13942 0.49262 0.0
H797 H 0.84536 0.09766 0.44945 0.0
H798 H 0.84801 0.10133 0.48818 0.0
H799 H 0.86029 0.13504 0.46604 0.0
C800 C 0.86409 0.17479 0.53958 0.0
C801 C 0.87003 0.20471 0.53309 0.0
C802 C 0.84283 0.14975 0.52316 0.0
C803 C 0.82739 0.15409 0.49964 0.0
C804 C 0.83315 0.18387 0.4931 0.0
H805 H 0.69644 0.99695 0.39191 0.0
H806 H 0.74232 0.04582 0.40601 0.0
C807 C 0.85429 0.20896 0.50964 0.0
C808 C 0.80345 0.12722 0.48342 0.0
H809 H 0.79001 0.0609 0.44964 0.0
C810 C 0.77288 0.12254 0.4828 0.0
C811 C 0.81002 0.10543 0.47013 0.0
C812 C 0.84279 0.11028 0.46819 0.0
C813 C 0.74838 0.09581 0.47077 0.0
C814 C 0.75453 0.07291 0.45964 0.0
C815 C 0.78534 0.07833 0.45863 0.0
C816 C 0.72878 0.04238 0.45116 0.0
C817 C 0.71596 0.09203 0.47065 0.0
C818 C 0.70685 0.02393 0.4721 0.0
C819 C 0.68086 0.99632 0.46418 0.0
C820 C 0.6764 0.98643 0.43517 0.0
C821 C 0.69929 0.00407 0.41441 0.0
C822 C 0.72539 0.03194 0.4224 0.0
H823 H 0.71671 0.11461 0.47167 0.0
H824 H 0.70288 0.07961 0.45094 0.0
H825 H 0.70291 0.07851 0.48995 0.0
H826 H 0.70947 0.03129 0.49453 0.0
H827 H 0.66384 0.98308 0.48075 0.0
H828 H 0.97258 0.67809 0.4137 0.0
H829 H 0.9262 0.67544 0.43681 0.0
H830 H 0.98186 0.72444 0.511 0.0
H831 H 0.02822 0.72799 0.48745 0.0
H832 H 0.90227 0.64556 0.4877 0.0
H833 H 0.93133 0.76708 0.49895 0.0
H834 H 0.9552 0.75594 0.47806 0.0
H835 H 0.95923 0.75949 0.51676 0.0
C836 C 0.97498 0.68932 0.4344 0.0
C837 C 0.00395 0.70421 0.44844 0.0
C838 C 0.94854 0.68755 0.44771 0.0
C839 C 0.9507 0.70022 0.47543 0.0
C840 C 0.9798 0.71531 0.4893 0.0
H841 H 0.81648 0.69419 0.60211 0.0
H842 H 0.86373 0.70242 0.57651 0.0
C843 C 0.00618 0.7172 0.47594 0.0
C844 C 0.92209 0.69466 0.4912 0.0
H845 H 0.88769 0.7302 0.5269 0.0
C846 C 0.89891 0.66407 0.49601 0.0
C847 C 0.91816 0.71882 0.50272 0.0
C848 C 0.94224 0.75217 0.49866 0.0
C849 C 0.87203 0.65692 0.51226 0.0
C850 C 0.8677 0.6811 0.52311 0.0
C851 C 0.89096 0.71169 0.51844 0.0
C852 C 0.83906 0.67524 0.53901 0.0
C853 C 0.84911 0.62356 0.51838 0.0
C854 C 0.80959 0.65747 0.52633 0.0
C855 C 0.78262 0.65231 0.54108 0.0
C856 C 0.78465 0.66547 0.56852 0.0
C857 C 0.81421 0.68373 0.581 0.0
C858 C 0.84118 0.68845 0.56641 0.0
H859 H 0.86057 0.60916 0.51722 0.0
H860 H 0.8382 0.62054 0.54013 0.0
H861 H 0.83038 0.61485 0.5018 0.0
H862 H 0.80743 0.64791 0.50481 0.0
H863 H 0.76021 0.63856 0.53068 0.0
H864 H 0.29675 0.43321 0.34233 0.0
H865 H 0.2711 0.45193 0.30893 0.0
H866 H 0.24035 0.37048 0.25662 0.0
H867 H 0.26631 0.35201 0.28925 0.0
H868 H 0.25587 0.4228 0.22384 0.0
H869 H 0.17568 0.4096 0.31534 0.0
H870 H 0.21661 0.43596 0.32031 0.0
H871 H 0.20305 0.39548 0.31752 0.0
C872 C 0.28533 0.41974 0.32322 0.0
C873 C 0.28308 0.39082 0.31874 0.0
C874 C 0.27045 0.43036 0.30432 0.0
C875 C 0.25315 0.41221 0.28075 0.0
C876 C 0.25336 0.38476 0.27482 0.0
H877 H 0.08529 0.34764 0.19859 0.0
H878 H 0.12933 0.36562 0.23163 0.0
C879 C 0.26816 0.37417 0.29359 0.0
C880 C 0.23186 0.41937 0.26392 0.0
H881 H 0.16064 0.41551 0.26891 0.0
C882 C 0.2354 0.42201 0.23368 0.0
C883 C 0.20508 0.4181 0.27692 0.0
C884 C 0.19958 0.41446 0.30926 0.0
C885 C 0.21188 0.42123 0.21589 0.0
C886 C 0.18436 0.41829 0.22882 0.0
C887 C 0.18184 0.41788 0.25915 0.0
C888 C 0.15607 0.41023 0.21138 0.0
C889 C 0.21562 0.42108 0.18338 0.0
C890 C 0.15584 0.42988 0.18978 0.0
C891 C 0.13058 0.41957 0.17063 0.0
C892 C 0.10519 0.38945 0.17287 0.0
C893 C 0.10457 0.3708 0.19596 0.0
C894 C 0.12974 0.3811 0.21498 0.0
H895 H 0.23643 0.41918 0.17699 0.0
H896 H 0.19459 0.40164 0.1735 0.0
H897 H 0.21829 0.44275 0.17419 0.0
H898 H 0.17568 0.45269 0.18701 0.0
H899 H 0.13176 0.43461 0.1532 0.0
H900 H 0.55537 0.70627 0.14831 0.0
H901 H 0.53457 0.72456 0.18735 0.0
H902 H 0.62416 0.7663 0.22983 0.0
H903 H 0.64501 0.74796 0.19137 0.0
H904 H 0.57247 0.73544 0.26787 0.0
H905 H 0.56009 0.81682 0.19392 0.0
H906 H 0.54056 0.77698 0.18344 0.0
H907 H 0.58247 0.79834 0.18413 0.0
C908 C 0.5705 0.71892 0.1662 0.0
C909 C 0.60198 0.72592 0.16652 0.0
C910 C 0.55863 0.72955 0.18836 0.0
C911 C 0.57801 0.74724 0.21117 0.0
C912 C 0.60888 0.75284 0.21231 0.0
H913 H 0.59372 0.88489 0.32754 0.0
H914 H 0.59354 0.85364 0.28674 0.0
C915 C 0.62077 0.74238 0.19022 0.0
C916 C 0.56704 0.76131 0.23336 0.0
H917 H 0.54929 0.81882 0.24331 0.0
C918 C 0.56691 0.75334 0.26253 0.0
C919 C 0.56018 0.7849 0.22624 0.0
C920 C 0.56097 0.79505 0.19529 0.0
C921 C 0.56103 0.76894 0.2849 0.0
C922 C 0.55469 0.7929 0.27782 0.0
C923 C 0.55392 0.80028 0.2486 0.0
C924 C 0.55193 0.81246 0.30057 0.0
C925 C 0.56325 0.76074 0.31597 0.0
C926 C 0.52787 0.79998 0.32129 0.0
C927 C 0.52789 0.81779 0.34476 0.0
C928 C 0.55197 0.84846 0.34788 0.0
C929 C 0.57491 0.86136 0.32602 0.0
C930 C 0.57485 0.84352 0.30261 0.0
H931 H 0.57395 0.74571 0.31772 0.0
H932 H 0.5773 0.78181 0.32904 0.0
H933 H 0.53947 0.74832 0.32556 0.0
H934 H 0.50963 0.77619 0.31979 0.0
H935 H 0.50968 0.80712 0.36099 0.0
H936 H 0.30124 0.81093 0.15128 0.0
H937 H 0.27143 0.78031 0.19301 0.0
H938 H 0.25632 0.85431 0.22126 0.0
H939 H 0.28642 0.88532 0.17991 0.0
H940 H 0.26698 0.82341 0.26718 0.0
H941 H 0.17599 0.74233 0.19101 0.0
H942 H 0.21463 0.74782 0.18564 0.0
H943 H 0.20729 0.77922 0.17954 0.0
C944 C 0.29205 0.82096 0.16661 0.0
C945 C 0.29584 0.85047 0.16193 0.0
C946 C 0.2749 0.80333 0.1904 0.0
C947 C 0.26106 0.81477 0.20982 0.0
C948 C 0.26665 0.84497 0.2064 0.0
H949 H 0.09798 0.7437 0.31021 0.0
H950 H 0.1391 0.76198 0.27362 0.0
C951 C 0.28391 0.86269 0.18271 0.0
C952 C 0.23869 0.79468 0.23229 0.0
H953 H 0.16551 0.73305 0.24075 0.0
C954 C 0.24497 0.80337 0.26152 0.0
C955 C 0.20988 0.76872 0.22471 0.0
C956 C 0.20128 0.75898 0.19354 0.0
C957 C 0.22279 0.78737 0.28332 0.0
C958 C 0.19376 0.76178 0.27564 0.0
C959 C 0.18793 0.75246 0.24655 0.0
C960 C 0.16762 0.74716 0.29671 0.0
C961 C 0.22988 0.79897 0.31413 0.0
C962 C 0.16945 0.73169 0.32139 0.0
C963 C 0.14579 0.72107 0.3425 0.0
C964 C 0.12008 0.72593 0.33919 0.0
C965 C 0.1176 0.73986 0.3136 0.0
C966 C 0.14107 0.75029 0.2926 0.0
H967 H 0.25141 0.82173 0.31565 0.0
H968 H 0.21008 0.80093 0.3235 0.0
H969 H 0.2332 0.78239 0.32755 0.0
H970 H 0.18954 0.72859 0.32471 0.0
H971 H 0.14839 0.71043 0.36195 0.0
H972 H 0.85409 0.58712 0.85927 0.0
H973 H 0.81415 0.57132 0.82176 0.0
H974 H 0.88539 0.62512 0.75866 0.0
H975 H 0.92501 0.64256 0.79667 0.0
H976 H 0.84563 0.64332 0.76055 0.0
H977 H 0.77763 0.51675 0.75368 0.0
H978 H 0.77948 0.52935 0.7904 0.0
H979 H 0.81483 0.53645 0.77196 0.0
C980 C 0.86129 0.59458 0.83714 0.0
C981 C 0.8925 0.61611 0.83077 0.0
C982 C 0.83843 0.58539 0.81561 0.0
C983 C 0.84665 0.5969 0.78724 0.0
C984 C 0.8784 0.616 0.78039 0.0
H985 H 0.72465 0.57678 0.64308 0.0
H986 H 0.75438 0.56524 0.67862 0.0
C987 C 0.90107 0.62589 0.80204 0.0
C988 C 0.82229 0.59416 0.76652 0.0
H989 H 0.75166 0.54427 0.73639 0.0
C990 C 0.82538 0.62152 0.755 0.0
C991 C 0.79575 0.5658 0.75915 0.0
C992 C 0.7919 0.53543 0.76923 0.0
C993 C 0.80269 0.6215 0.73682 0.0
C994 C 0.77526 0.59342 0.73087 0.0
C995 C 0.77235 0.56584 0.74162 0.0
C996 C 0.75021 0.59286 0.71269 0.0
C997 C 0.80861 0.65168 0.72388 0.0
C998 C 0.73621 0.61041 0.72079 0.0
C999 C 0.71981 0.61753 0.70042 0.0
C1000 C 0.71637 0.60637 0.67193 0.0
C1001 C 0.72688 0.58556 0.66496 0.0
C1002 C 0.74393 0.579 0.68522 0.0
H1003 H 0.83386 0.66909 0.72403 0.0
H1004 H 0.80012 0.64864 0.70117 0.0
H1005 H 0.79606 0.66097 0.73687 0.0
H1006 H 0.74023 0.62076 0.74214 0.0
H1007 H 0.71173 0.63345 0.70635 0.0
H1008 H 0.3464 0.24749 0.83005 0.0
H1009 H 0.36693 0.22766 0.79284 0.0
H1010 H 0.4513 0.25751 0.84235 0.0
H1011 H 0.43055 0.27724 0.88033 0.0
H1012 H 0.42187 0.2532 0.75868 0.0
H1013 H 0.41451 0.16351 0.83525 0.0
H1014 H 0.3965 0.18658 0.84349 0.0
H1015 H 0.4382 0.2033 0.84511 0.0
C1016 C 0.36951 0.25025 0.83299 0.0
C1017 C 0.38663 0.26353 0.8584 0.0
C1018 C 0.3813 0.23902 0.81157 0.0
C1019 C 0.41042 0.24069 0.81502 0.0
C1020 C 0.42856 0.25563 0.83948 0.0
H1021 H 0.42985 0.1418 0.66378 0.0
H1022 H 0.45148 0.18007 0.70293 0.0
C1023 C 0.41676 0.26705 0.86104 0.0
C1024 C 0.41967 0.22411 0.79396 0.0
H1025 H 0.41794 0.15535 0.78582 0.0
C1026 C 0.42203 0.23226 0.76457 0.0
C1027 C 0.4198 0.1968 0.80184 0.0
C1028 C 0.41701 0.18677 0.83308 0.0
C1029 C 0.42162 0.21249 0.74268 0.0
C1030 C 0.41926 0.18403 0.75051 0.0
C1031 C 0.41982 0.17722 0.77995 0.0
C1032 C 0.40945 0.15876 0.72913 0.0
C1033 C 0.42078 0.22089 0.71139 0.0
C1034 C 0.37934 0.13336 0.73164 0.0
C1035 C 0.36705 0.11158 0.70955 0.0
C1036 C 0.38465 0.11465 0.68443 0.0
C1037 C 0.4157 0.13886 0.68284 0.0
C1038 C 0.42801 0.16085 0.70507 0.0
H1039 H 0.41981 0.24255 0.7092 0.0
H1040 H 0.44205 0.22391 0.70003 0.0
H1041 H 0.40015 0.20218 0.7003 0.0
H1042 H 0.36463 0.13122 0.75005 0.0
H1043 H 0.3432 0.09302 0.71165 0.0
H1044 H 0.75577 0.09412 0.79973 0.0
H1045 H 0.77529 0.13161 0.76054 0.0
H1046 H 0.72684 0.1763 0.79654 0.0
H1047 H 0.70723 0.13881 0.83635 0.0
H1048 H 0.74398 0.14966 0.71878 0.0
H1049 H 0.82068 0.24409 0.7942 0.0
H1050 H 0.80282 0.20419 0.80471 0.0
H1051 H 0.77947 0.2226 0.80197 0.0
C1052 C 0.74896 0.11171 0.7993 0.0
C1053 C 0.73023 0.11366 0.82142 0.0
C1054 C 0.76005 0.13306 0.77676 0.0
C1055 C 0.75282 0.15692 0.77585 0.0
C1056 C 0.73296 0.15823 0.79708 0.0
H1057 H 0.8438 0.27327 0.62196 0.0
H1058 H 0.80387 0.25154 0.66033 0.0
C1059 C 0.72167 0.1367 0.81969 0.0
C1060 C 0.76807 0.18118 0.75355 0.0
H1061 H 0.83012 0.25333 0.74445 0.0
C1062 C 0.76226 0.17266 0.72425 0.0
C1063 C 0.79194 0.21108 0.76092 0.0
C1064 C 0.79938 0.22122 0.79211 0.0
C1065 C 0.78117 0.19247 0.70218 0.0
C1066 C 0.80632 0.22166 0.70969 0.0
C1067 C 0.81069 0.23101 0.73882 0.0
C1068 C 0.83156 0.2399 0.68861 0.0
C1069 C 0.7757 0.18105 0.67126 0.0
C1070 C 0.86078 0.24191 0.6925 0.0
C1071 C 0.88347 0.25424 0.67083 0.0
C1072 C 0.87749 0.26501 0.64479 0.0
C1073 C 0.84906 0.26513 0.64177 0.0
C1074 C 0.82617 0.25255 0.66355 0.0
H1075 H 0.75711 0.15661 0.66957 0.0
H1076 H 0.76861 0.19515 0.65808 0.0
H1077 H 0.79757 0.18341 0.66174 0.0
H1078 H 0.86545 0.23237 0.71171 0.0
H1079 H 0.90524 0.25411 0.67398 0.0
H1080 H 0.091 0.47307 0.0494 0.0
H1081 H 0.07421 0.5048 0.02298 0.0
H1082 H 0.98969 0.46682 0.0741 0.0
H1083 H 0.00642 0.43539 0.10085 0.0
H1084 H 0.01992 0.47653 0.99023 0.0
H1085 H 0.01421 0.55739 0.06936 0.0
H1086 H 0.03644 0.53803 0.07595 0.0
H1087 H 0.99483 0.51818 0.0815 0.0
C1088 C 0.06936 0.47226 0.05572 0.0
C1089 C 0.04991 0.45154 0.07706 0.0
C1090 C 0.05973 0.4903 0.04049 0.0
C1091 C 0.03071 0.48812 0.04657 0.0
C1092 C 0.01237 0.46919 0.06934 0.0
H1093 H 0.91214 0.54825 0.96409 0.0
H1094 H 0.93189 0.5198 0.99198 0.0
C1095 C 0.02197 0.45116 0.08457 0.0
C1096 C 0.01776 0.50234 0.02683 0.0
H1097 H 0.98724 0.5506 0.02466 0.0
C1098 C 0.01305 0.49297 0.99767 0.0
C1099 C 0.00852 0.52346 0.0367 0.0
C1100 C 0.01399 0.5351 0.06753 0.0
C1101 C -0.0012 0.50378 0.97818 0.0
C1102 C 0.98942 0.52478 0.98809 0.0
C1103 C 0.99424 0.53426 0.01722 0.0
C1104 C 0.97559 0.5382 0.96845 0.0
C1105 C 0.99329 0.49212 0.94736 0.0
C1106 C 0.99325 0.55719 0.94544 0.0
C1107 C 0.982 0.57334 0.92939 0.0
C1108 C 0.95298 0.57095 0.93625 0.0
C1109 C 0.93453 0.5505 0.95821 0.0
C1110 C 0.94584 0.53438 0.97428 0.0
H1111 H 0.99402 0.47031 0.94531 0.0
H1112 H 0.97037 0.48829 0.93931 0.0
H1113 H 0.01185 0.5095 0.93319 0.0
H1114 H 0.01644 0.56077 0.94085 0.0
H1115 H -0.00317 0.589 0.91269 0.0
H1116 H 0.52294 0.62247 0.03922 0.0
H1117 H 0.49529 0.57166 0.01644 0.0
H1118 H 0.53614 0.53701 0.07815 0.0
H1119 H 0.56353 0.58745 0.10114 0.0
H1120 H 0.52888 0.54535 0.99122 0.0
H1121 H 0.44544 0.46757 0.07409 0.0
H1122 H 0.4624 0.50885 0.07574 0.0
H1123 H 0.48453 0.49093 0.08728 0.0
C1124 C 0.52516 0.60376 0.04857 0.0
C1125 C 0.5455 0.60899 0.07193 0.0
C1126 C 0.50954 0.57481 0.03539 0.0
C1127 C 0.51367 0.55059 0.04561 0.0
C1128 C 0.53227 0.55524 0.07014 0.0
H1129 H 0.46077 0.36637 0.98637 0.0
H1130 H 0.48825 0.4171 0.00928 0.0
C1131 C 0.54796 0.58415 0.08324 0.0
C1132 C 0.50156 0.52163 0.02885 0.0
H1133 H 0.45553 0.44379 0.03384 0.0
C1134 C 0.51263 0.52314 0.00043 0.0
C1135 C 0.48071 0.49272 0.04105 0.0
C1136 C 0.46733 0.48982 0.07113 0.0
C1137 C 0.50374 0.49642 0.984 0.0
C1138 C 0.48286 0.46749 0.9962 0.0
C1139 C 0.47178 0.466 0.02462 0.0
C1140 C 0.47081 0.43851 0.97947 0.0
C1141 C 0.51727 0.49936 0.95399 0.0
C1142 C 0.4528 0.43404 0.95454 0.0
C1143 C 0.43725 0.40518 0.94132 0.0
C1144 C 0.43921 0.38017 0.95295 0.0
C1145 C 0.45892 0.38519 0.97679 0.0
C1146 C 0.47445 0.41411 0.99004 0.0
H1147 H 0.53938 0.52145 0.95125 0.0
H1148 H 0.52188 0.48014 0.94925 0.0
H1149 H 0.50033 0.49872 0.93778 0.0
H1150 H 0.44926 0.45237 0.94626 0.0
H1151 H 0.42217 0.40206 0.92305 0.0
H1152 H 0.36791 0.94551 0.02985 0.0
H1153 H 0.41167 0.97078 0.9965 0.0
H1154 H 0.47024 0.95584 0.05652 0.0
H1155 H 0.42681 0.93377 0.09166 0.0
H1156 H 0.50242 0.00772 0.03606 0.0
H1157 H 0.44404 0.93627 0.94065 0.0
H1158 H 0.42349 0.95602 0.95114 0.0
H1159 H 0.42498 0.92847 0.97537 0.0
C1160 C 0.39015 0.94752 0.03582 0.0
C1161 C 0.39404 0.93724 0.06294 0.0
C1162 C 0.4151 0.96161 0.01655 0.0
C1163 C 0.44415 0.96428 0.02328 0.0
C1164 C 0.44802 0.95386 0.05057 0.0
H1165 H 0.5881 0.00336 0.89814 0.0
H1166 H 0.54021 0.98224 0.92625 0.0
C1167 C 0.42327 0.94103 0.07056 0.0
C1168 C 0.47078 0.97957 0.00252 0.0
H1169 H 0.49047 0.98441 0.93082 0.0
C1170 C 0.49984 0.00224 0.01312 0.0
C1171 C 0.46771 0.97259 0.97244 0.0
C1172 C 0.43842 0.94677 0.95937 0.0
C1173 C 0.52582 0.0178 0.99474 0.0
C1174 C 0.52225 0.01185 0.96451 0.0
C1175 C 0.49315 0.98945 0.95387 0.0
C1176 C 0.54907 0.02601 0.94398 0.0
C1177 C 0.557 0.03946 0.00825 0.0
C1178 C 0.56925 0.05797 0.94298 0.0
C1179 C 0.5973 0.07014 0.92733 0.0
C1180 C 0.60499 0.05058 0.91172 0.0
C1181 C 0.583 0.01911 0.91003 0.0
C1182 C 0.55552 0.00692 0.92625 0.0
H1183 H 0.55736 0.03482 0.03177 0.0
H1184 H 0.57625 0.03758 0.99751 0.0
H1185 H 0.56161 0.06344 0.00599 0.0
H1186 H 0.56411 0.07335 0.95543 0.0
H1187 H 0.61367 0.09454 0.92878 0.0
H1188 H 0.51142 0.943 0.4053 0.0
H1189 H 0.48728 0.96513 0.43724 0.0
H1190 H 0.54788 0.96961 0.50703 0.0
H1191 H 0.56959 0.94528 0.47613 0.0
H1192 H 0.49541 0.95079 0.52828 0.0
H1193 H 0.51797 0.05088 0.46031 0.0
H1194 H 0.49392 0.01534 0.4419 0.0
H1195 H 0.53356 0.02595 0.4513 0.0
C1196 C 0.51927 0.94872 0.42751 0.0
C1197 C 0.54185 0.94216 0.43856 0.0
C1198 C 0.50586 0.96169 0.44566 0.0
C1199 C 0.51613 0.96964 0.47452 0.0
C1200 C 0.53934 0.96363 0.48502 0.0
H1201 H 0.46982 0.08991 0.57537 0.0
H1202 H 0.49869 0.06896 0.54916 0.0
C1203 C 0.55183 0.94981 0.46733 0.0
C1204 C 0.50247 0.98339 0.49443 0.0
H1205 H 0.48453 0.04098 0.50114 0.0
C1206 C 0.49329 0.97069 0.52232 0.0
C1207 C 0.50031 0.0098 0.48711 0.0
C1208 C 0.51229 0.02648 0.45865 0.0
C1209 C 0.48205 0.98348 0.54299 0.0
C1210 C 0.47806 0.00871 0.53508 0.0
C1211 C 0.48739 0.02156 0.50726 0.0
C1212 C 0.46302 0.02131 0.55469 0.0
C1213 C 0.47549 0.97021 0.57325 0.0
C1214 C 0.43386 0.0016 0.56732 0.0
C1215 C 0.418 0.01348 0.58317 0.0
C1216 C 0.43036 0.0454 0.58577 0.0
C1217 C 0.45989 0.06521 0.57387 0.0
C1218 C 0.47623 0.05323 0.55869 0.0
H1219 H 0.49094 0.96054 0.5787 0.0
H1220 H 0.47887 0.98773 0.58981 0.0
H1221 H 0.45104 0.95109 0.57447 0.0
H1222 H 0.42253 0.97703 0.56378 0.0
H1223 H 0.39498 0.99763 0.59157 0.0
H1224 H 0.97575 0.40275 0.57954 0.0
H1225 H -0.00314 0.45349 0.55756 0.0
H1226 H 0.92234 0.41712 0.49482 0.0
H1227 H 0.9012 0.36597 0.51652 0.0
H1228 H 0.9817 0.44693 0.47007 0.0
H1229 H 0.9715 0.51974 0.55556 0.0
H1230 H 0.98941 0.49803 0.56794 0.0
H1231 H 0.94929 0.47827 0.55646 0.0
C1232 C 0.96329 0.40567 0.56158 0.0
C1233 C 0.93685 0.3803 0.5497 0.0
C1234 C 0.97537 0.43477 0.54908 0.0
C1235 C 0.96113 0.43912 0.52461 0.0
C1236 C 0.93365 0.41423 0.51374 0.0
H1237 H 0.01392 0.59131 0.40667 0.0
H1238 H 0.99107 0.54053 0.42896 0.0
C1239 C 0.92148 0.38507 0.52629 0.0
C1240 C 0.97686 0.46869 0.50863 0.0
H1241 H 0.00577 0.54599 0.51603 0.0
C1242 C 0.98672 0.46858 0.48001 0.0
C1243 C 0.98367 0.4969 0.52176 0.0
C1244 C 0.97268 0.49832 0.55203 0.0
C1245 C 0.00369 0.496 0.46432 0.0
C1246 C 0.01062 0.52422 0.4775 0.0
C1247 C 0.00068 0.52433 0.50608 0.0
C1248 C 0.0269 0.55383 0.46166 0.0
C1249 C 0.01463 0.49461 0.43402 0.0
C1250 C 0.05494 0.57809 0.47236 0.0
C1251 C 0.06815 0.60725 0.4596 0.0
C1252 C 0.05326 0.61265 0.43617 0.0
C1253 C 0.02604 0.58789 0.42462 0.0
C1254 C 0.01295 0.55878 0.4373 0.0
H1255 H 0.01507 0.47286 0.43017 0.0
H1256 H -0.00166 0.49576 0.41813 0.0
H1257 H 0.03835 0.51427 0.42987 0.0
H1258 H 0.06603 0.57471 0.49119 0.0
H1259 H 0.08899 0.62588 0.46913 0.0
H1260 H 0.42245 0.42722 0.39442 0.0
H1261 H 0.47023 0.45489 0.42292 0.0
H1262 H 0.42473 0.49084 0.47813 0.0
H1263 H 0.37692 0.46356 0.44955 0.0
H1264 H 0.48875 0.53307 0.46597 0.0
H1265 H 0.47032 0.41978 0.50401 0.0
H1266 H 0.47251 0.42471 0.46533 0.0
H1267 H 0.4406 0.42405 0.48509 0.0
C1268 C 0.42284 0.44166 0.41215 0.0
C1269 C 0.39578 0.44287 0.42 0.0
C1270 C 0.45007 0.45722 0.42855 0.0
C1271 C 0.4506 0.47409 0.4531 0.0
C1272 C 0.42459 0.4776 0.45944 0.0
H1273 H 0.57982 0.56799 0.59315 0.0
H1274 H 0.53287 0.54027 0.56361 0.0
C1275 C 0.39735 0.46211 0.44299 0.0
C1276 C 0.47731 0.48617 0.47334 0.0
H1277 H 0.51624 0.46379 0.51999 0.0
C1278 C 0.49477 0.51798 0.47782 0.0
C1279 C 0.48491 0.46629 0.48886 0.0
C1280 C 0.46598 0.43178 0.48586 0.0
C1281 C 0.52007 0.53055 0.49709 0.0
C1282 C 0.52763 0.51066 0.51262 0.0
C1283 C 0.51024 0.47887 0.50809 0.0
C1284 C 0.55397 0.52274 0.53326 0.0
C1285 C 0.53886 0.56504 0.50031 0.0
C1286 C 0.58059 0.52024 0.52703 0.0
C1287 C 0.60741 0.53583 0.54401 0.0
C1288 C 0.60791 0.55412 0.56745 0.0
C1289 C 0.58026 0.55428 0.57511 0.0
C1290 C 0.55349 0.53867 0.55814 0.0
H1291 H 0.53448 0.57713 0.48226 0.0
H1292 H 0.53228 0.57191 0.52093 0.0
H1293 H 0.56427 0.57284 0.50108 0.0
H1294 H 0.58121 0.50772 0.50805 0.0
H1295 H 0.62832 0.53521 0.53758 0.0
loop_
_geom_bond_atom_site_label_1
_geom_bond_atom_site_label_2
_geom_bond_distance
_geom_bond_site_symmetry_2
_ccdc_geom_bond_type
Mn0 O5 2.095 . S
Mn0 O15 2.162 . S
Mn0 O16 2.297 . S
Mn0 O24 2.385 . S
Mn0 O25 2.209 . S
Mn0 O26 2.094 . S
Mn1 O6 2.121 . S
Mn1 N8 2.257 . S
Mn1 N17 2.282 . S
Mn1 O25 2.215 . S
Mn1 O27 2.117 . S
C2 O24 1.234 . S
C2 O25 1.283 . S
C3 O15 1.281 . S
C3 O16 1.236 . S
C4 O26 1.240 . S
C4 O27 1.264 . S
O5 Mn0 2.095 . S
O5 C14 1.250 . S
O6 Mn1 2.121 . S
O6 C14 1.258 . S
C7 N8 1.326 . S
C7 C11 1.460 1_455 S
C7 H13 0.929 . S
N8 Mn1 2.257 . S
N8 C7 1.326 . S
N8 C12 1.362 . S
C9 C10 1.258 . S
C9 C12 1.431 1_655 S
C9 C29 1.449 . S
C10 C9 1.258 . S
C10 C11 1.477 . S
C10 H30 0.931 . S
C11 C7 1.460 1_655 S
C11 C10 1.477 . S
C11 H31 0.930 . S
C12 N8 1.362 . S
C12 C9 1.431 1_455 S
C12 C22 1.476 . S
H13 C7 0.929 . S
C14 O5 1.250 . S
C14 O6 1.258 . S
O15 Mn0 2.162 . S
O15 C3 1.281 . S
O16 Mn0 2.297 . S
O16 C3 1.236 . S
N17 Mn1 2.282 . S
N17 C18 1.328 . S
N17 C22 1.318 . S
C18 N17 1.328 . S
C18 C19 1.457 . S
C18 H23 0.929 . S
C19 C18 1.457 . S
C19 C20 1.291 . S
C19 H32 0.931 1_554 S
C20 C19 1.291 . S
C20 C21 1.373 . S
C20 H33 0.929 1_455 S
C21 C20 1.373 . S
C21 C22 1.396 . S
C21 C28 1.403 1_455 S
C22 C12 1.476 . S
C22 N17 1.318 . S
C22 C21 1.396 . S
H23 C18 0.929 . S
O24 Mn0 2.385 . S
O24 C2 1.234 . S
O25 Mn0 2.209 . S
O25 Mn1 2.215 . S
O25 C2 1.283 . S
O26 Mn0 2.094 . S
O26 C4 1.240 . S
O27 Mn1 2.117 . S
O27 C4 1.264 . S
C28 C21 1.403 1_655 S
C28 C29 1.399 . S
C28 H34 0.929 . S
C29 C9 1.449 . S
C29 C28 1.399 . S
C29 H35 0.930 . S
H30 C10 0.931 . S
H31 C11 0.930 . S
H32 C19 0.931 1_556 S
H33 C20 0.929 1_655 S
H34 C28 0.929 . S
H35 C29 0.930 . S
Mn36 O41 2.095 . S
Mn36 O51 2.162 . S
Mn36 O52 2.297 . S
Mn36 O60 2.385 . S
Mn36 O61 2.209 . S
Mn36 O62 2.094 . S
Mn37 O42 2.121 . S
Mn37 N44 2.257 . S
Mn37 N53 2.282 . S
Mn37 O61 2.215 . S
Mn37 O63 2.117 . S
C38 O60 1.234 . S
C38 O61 1.283 . S
C39 O51 1.281 . S
C39 O52 1.236 . S
C40 O62 1.240 . S
C40 O63 1.264 . S
O41 Mn36 2.095 . S
O41 C50 1.250 . S
O42 Mn37 2.121 . S
O42 C50 1.258 . S
C43 N44 1.326 . S
C43 C47 1.460 . S
C43 H49 0.929 . S
N44 Mn37 2.257 . S
N44 C43 1.326 . S
N44 C48 1.362 . S
C45 C46 1.258 . S
C45 C48 1.431 . S
C45 C65 1.449 . S
C46 C45 1.258 . S
C46 C47 1.477 . S
C46 H66 0.931 . S
C47 C43 1.460 . S
C47 C46 1.477 . S
C47 H67 0.930 . S
C48 N44 1.362 . S
C48 C45 1.431 . S
C48 C58 1.476 . S
H49 C43 0.929 . S
C50 O41 1.250 . S
C50 O42 1.258 . S
O51 Mn36 2.162 . S
O51 C39 1.281 . S
O52 Mn36 2.297 . S
O52 C39 1.236 . S
N53 Mn37 2.282 . S
N53 C54 1.328 . S
N53 C58 1.318 . S
C54 N53 1.328 . S
C54 C55 1.457 . S
C54 H59 0.929 . S
C55 C54 1.457 . S
C55 C56 1.291 . S
C55 H68 0.931 1_554 S
C56 C55 1.291 . S
C56 C57 1.373 . S
C56 H69 0.929 . S
C57 C56 1.373 . S
C57 C58 1.396 . S
C57 C64 1.403 . S
C58 C48 1.476 . S
C58 N53 1.318 . S
C58 C57 1.396 . S
H59 C54 0.929 . S
O60 Mn36 2.385 . S
O60 C38 1.234 . S
O61 Mn36 2.209 . S
O61 Mn37 2.215 . S
O61 C38 1.283 . S
O62 Mn36 2.094 . S
O62 C40 1.240 . S
O63 Mn37 2.117 . S
O63 C40 1.264 . S
C64 C57 1.403 . S
C64 C65 1.399 . S
C64 H70 0.929 . S
C65 C45 1.449 . S
C65 C64 1.399 . S
C65 H71 0.930 . S
H66 C46 0.931 . S
H67 C47 0.930 . S
H68 C55 0.931 1_556 S
H69 C56 0.929 . S
H70 C64 0.929 . S
H71 C65 0.930 . S
Mn72 O77 2.095 . S
Mn72 O87 2.162 . S
Mn72 O88 2.297 . S
Mn72 O96 2.385 . S
Mn72 O97 2.209 . S
Mn72 O98 2.094 . S
Mn73 O78 2.121 . S
Mn73 N80 2.257 . S
Mn73 N89 2.282 . S
Mn73 O97 2.215 . S
Mn73 O99 2.117 . S
C74 O96 1.234 . S
C74 O97 1.283 . S
C75 O87 1.281 . S
C75 O88 1.236 . S
C76 O98 1.240 . S
C76 O99 1.264 . S
O77 Mn72 2.095 . S
O77 C86 1.250 . S
O78 Mn73 2.121 . S
O78 C86 1.258 . S
C79 N80 1.326 . S
C79 C83 1.460 1_554 S
C79 H85 0.929 . S
N80 Mn73 2.257 . S
N80 C79 1.326 . S
N80 C84 1.362 . S
C81 C82 1.258 . S
C81 C84 1.431 . S
C81 C101 1.449 . S
C82 C81 1.258 . S
C82 C83 1.477 1_554 S
C82 H102 0.931 1_554 S
C83 C79 1.460 1_556 S
C83 C82 1.477 1_556 S
C83 H103 0.930 . S
C84 N80 1.362 . S
C84 C81 1.431 . S
C84 C94 1.476 . S
H85 C79 0.929 . S
C86 O77 1.250 . S
C86 O78 1.258 . S
O87 Mn72 2.162 . S
O87 C75 1.281 . S
O88 Mn72 2.297 . S
O88 C75 1.236 . S
N89 Mn73 2.282 . S
N89 C90 1.328 . S
N89 C94 1.318 . S
C90 N89 1.328 . S
C90 C91 1.457 . S
C90 H95 0.929 . S
C91 C90 1.457 . S
C91 C92 1.291 . S
C91 H104 0.931 . S
C92 C91 1.291 . S
C92 C93 1.373 . S
C92 H105 0.929 . S
C93 C92 1.373 . S
C93 C94 1.396 . S
C93 C100 1.403 . S
C94 C84 1.476 . S
C94 N89 1.318 . S
C94 C93 1.396 . S
H95 C90 0.929 . S
O96 Mn72 2.385 . S
O96 C74 1.234 . S
O97 Mn72 2.209 . S
O97 Mn73 2.215 . S
O97 C74 1.283 . S
O98 Mn72 2.094 . S
O98 C76 1.240 . S
O99 Mn73 2.117 . S
O99 C76 1.264 . S
C100 C93 1.403 . S
C100 C101 1.399 . S
C100 H106 0.929 . S
C101 C81 1.449 . S
C101 C100 1.399 . S
C101 H107 0.930 . S
H102 C82 0.931 1_556 S
H103 C83 0.930 . S
H104 C91 0.931 . S
H105 C92 0.929 . S
H106 C100 0.929 . S
H107 C101 0.930 . S
Mn108 O113 2.095 . S
Mn108 O123 2.162 . S
Mn108 O124 2.297 . S
Mn108 O132 2.385 . S
Mn108 O133 2.209 . S
Mn108 O134 2.094 . S
Mn109 O114 2.121 . S
Mn109 N116 2.257 . S
Mn109 N125 2.282 . S
Mn109 O133 2.215 . S
Mn109 O135 2.117 . S
C110 O132 1.234 . S
C110 O133 1.283 . S
C111 O123 1.281 . S
C111 O124 1.236 . S
C112 O134 1.240 . S
C112 O135 1.264 . S
O113 Mn108 2.095 . S
O113 C122 1.250 . S
O114 Mn109 2.121 . S
O114 C122 1.258 . S
C115 N116 1.326 . S
C115 C119 1.460 . S
C115 H121 0.929 . S
N116 Mn109 2.257 . S
N116 C115 1.326 . S
N116 C120 1.362 . S
C117 C118 1.258 . S
C117 C120 1.431 . S
C117 C137 1.449 . S
C118 C117 1.258 . S
C118 C119 1.477 . S
C118 H138 0.931 . S
C119 C115 1.460 . S
C119 C118 1.477 . S
C119 H139 0.930 . S
C120 N116 1.362 . S
C120 C117 1.431 . S
C120 C130 1.476 . S
H121 C115 0.929 . S
C122 O113 1.250 . S
C122 O114 1.258 . S
O123 Mn108 2.162 . S
O123 C111 1.281 . S
O124 Mn108 2.297 . S
O124 C111 1.236 . S
N125 Mn109 2.282 . S
N125 C126 1.328 . S
N125 C130 1.318 . S
C126 N125 1.328 . S
C126 C127 1.457 . S
C126 H131 0.929 . S
C127 C126 1.457 . S
C127 C128 1.291 . S
C127 H140 0.931 . S
C128 C127 1.291 . S
C128 C129 1.373 . S
C128 H141 0.929 . S
C129 C128 1.373 . S
C129 C130 1.396 . S
C129 C136 1.403 . S
C130 C120 1.476 . S
C130 N125 1.318 . S
C130 C129 1.396 . S
H131 C126 0.929 . S
O132 Mn108 2.385 . S
O132 C110 1.234 . S
O133 Mn108 2.209 . S
O133 Mn109 2.215 . S
O133 C110 1.283 . S
O134 Mn108 2.094 . S
O134 C112 1.240 . S
O135 Mn109 2.117 . S
O135 C112 1.264 . S
C136 C129 1.403 . S
C136 C137 1.399 . S
C136 H142 0.929 . S
C137 C117 1.449 . S
C137 C136 1.399 . S
C137 H143 0.930 . S
H138 C118 0.931 . S
H139 C119 0.930 . S
H140 C127 0.931 . S
H141 C128 0.929 . S
H142 C136 0.929 . S
H143 C137 0.930 . S
Mn144 O149 2.095 . S
Mn144 O159 2.162 . S
Mn144 O160 2.297 . S
Mn144 O168 2.385 . S
Mn144 O169 2.209 . S
Mn144 O170 2.094 . S
Mn145 O150 2.121 . S
Mn145 N152 2.257 . S
Mn145 N161 2.282 . S
Mn145 O169 2.215 . S
Mn145 O171 2.117 . S
C146 O168 1.234 . S
C146 O169 1.283 . S
C147 O159 1.281 . S
C147 O160 1.236 . S
C148 O170 1.240 . S
C148 O171 1.264 . S
O149 Mn144 2.095 . S
O149 C158 1.250 . S
O150 Mn145 2.121 . S
O150 C158 1.258 . S
C151 N152 1.326 . S
C151 C155 1.460 . S
C151 H157 0.929 . S
N152 Mn145 2.257 . S
N152 C151 1.326 . S
N152 C156 1.362 . S
C153 C154 1.258 . S
C153 C156 1.431 1_655 S
C153 C173 1.449 . S
C154 C153 1.258 . S
C154 C155 1.477 1_655 S
C154 H174 0.931 . S
C155 C151 1.460 . S
C155 C154 1.477 1_455 S
C155 H175 0.930 1_455 S
C156 N152 1.362 . S
C156 C153 1.431 1_455 S
C156 C166 1.476 . S
H157 C151 0.929 . S
C158 O149 1.250 . S
C158 O150 1.258 . S
O159 Mn144 2.162 . S
O159 C147 1.281 . S
O160 Mn144 2.297 . S
O160 C147 1.236 . S
N161 Mn145 2.282 . S
N161 C162 1.328 . S
N161 C166 1.318 . S
C162 N161 1.328 . S
C162 C163 1.457 . S
C162 H167 0.929 . S
C163 C162 1.457 . S
C163 C164 1.291 . S
C163 H176 0.931 . S
C164 C163 1.291 . S
C164 C165 1.373 . S
C164 H177 0.943 . S
C165 C164 1.373 . S
C165 C166 1.396 . S
C165 C172 1.403 1_455 S
C166 C156 1.476 . S
C166 N161 1.318 . S
C166 C165 1.396 . S
H167 C162 0.929 . S
O168 Mn144 2.385 . S
O168 C146 1.234 . S
O169 Mn144 2.209 . S
O169 Mn145 2.215 . S
O169 C146 1.283 . S
O170 Mn144 2.094 . S
O170 C148 1.240 . S
O171 Mn145 2.117 . S
O171 C148 1.264 . S
C172 C165 1.403 1_655 S
C172 C173 1.399 . S
C172 H178 0.929 . S
C173 C153 1.449 . S
C173 C172 1.399 . S
C173 H179 0.930 . S
H174 C154 0.931 . S
H175 C155 0.930 1_655 S
H176 C163 0.931 . S
H177 C164 0.943 . S
H178 C172 0.929 . S
H179 C173 0.930 . S
Mn180 O185 2.095 . S
Mn180 O195 2.162 . S
Mn180 O196 2.297 . S
Mn180 O204 2.385 . S
Mn180 O205 2.209 . S
Mn180 O206 2.094 . S
Mn181 O186 2.121 . S
Mn181 N188 2.257 . S
Mn181 N197 2.282 . S
Mn181 O205 2.215 . S
Mn181 O207 2.117 . S
C182 O204 1.234 . S
C182 O205 1.283 . S
C183 O195 1.281 . S
C183 O196 1.236 . S
C184 O206 1.240 . S
C184 O207 1.264 . S
O185 Mn180 2.095 . S
O185 C194 1.250 . S
O186 Mn181 2.121 . S
O186 C194 1.258 . S
C187 N188 1.326 . S
C187 C191 1.460 . S
C187 H193 0.929 . S
N188 Mn181 2.257 . S
N188 C187 1.326 . S
N188 C192 1.362 . S
C189 C190 1.258 . S
C189 C192 1.431 . S
C189 C209 1.449 . S
C190 C189 1.258 . S
C190 C191 1.477 . S
C190 H210 0.931 . S
C191 C187 1.460 . S
C191 C190 1.477 . S
C191 H211 0.930 . S
C192 N188 1.362 . S
C192 C189 1.431 . S
C192 C202 1.476 . S
H193 C187 0.929 . S
C194 O185 1.250 . S
C194 O186 1.258 . S
O195 Mn180 2.162 . S
O195 C183 1.281 . S
O196 Mn180 2.297 . S
O196 C183 1.236 . S
N197 Mn181 2.282 . S
N197 C198 1.328 . S
N197 C202 1.318 . S
C198 N197 1.328 . S
C198 C199 1.457 . S
C198 H203 0.929 . S
C199 C198 1.457 . S
C199 C200 1.291 . S
C199 H212 0.931 . S
C200 C199 1.291 . S
C200 C201 1.373 . S
C200 H213 0.929 . S
C201 C200 1.373 . S
C201 C202 1.396 . S
C201 C208 1.403 . S
C202 C192 1.476 . S
C202 N197 1.318 . S
C202 C201 1.396 . S
H203 C198 0.929 . S
O204 Mn180 2.385 . S
O204 C182 1.234 . S
O205 Mn180 2.209 . S
O205 Mn181 2.215 . S
O205 C182 1.283 . S
O206 Mn180 2.094 . S
O206 C184 1.240 . S
O207 Mn181 2.117 . S
O207 C184 1.264 . S
C208 C201 1.403 . S
C208 C209 1.399 . S
C208 H214 0.929 . S
C209 C189 1.449 . S
C209 C208 1.399 . S
C209 H215 0.930 . S
H210 C190 0.931 . S
H211 C191 0.930 . S
H212 C199 0.931 . S
H213 C200 0.929 . S
H214 C208 0.929 . S
H215 C209 0.930 . S
Mn216 O221 2.095 . S
Mn216 O231 2.162 . S
Mn216 O232 2.297 . S
Mn216 O240 2.385 . S
Mn216 O241 2.209 . S
Mn216 O242 2.094 . S
Mn217 O222 2.121 . S
Mn217 N224 2.257 . S
Mn217 N233 2.282 . S
Mn217 O241 2.215 . S
Mn217 O243 2.117 . S
C218 O240 1.234 . S
C218 O241 1.283 . S
C219 O231 1.281 . S
C219 O232 1.236 . S
C220 O242 1.240 . S
C220 O243 1.264 . S
O221 Mn216 2.095 . S
O221 C230 1.250 . S
O222 Mn217 2.121 . S
O222 C230 1.258 . S
C223 N224 1.326 . S
C223 C227 1.460 1_655 S
C223 H229 0.929 . S
N224 Mn217 2.257 . S
N224 C223 1.326 . S
N224 C228 1.362 . S
C225 C226 1.258 . S
C225 C228 1.431 1_455 S
C225 C245 1.449 . S
C226 C225 1.258 . S
C226 C227 1.477 . S
C226 H246 0.931 . S
C227 C223 1.460 1_455 S
C227 C226 1.477 . S
C227 H247 0.930 . S
C228 N224 1.362 . S
C228 C225 1.431 1_655 S
C228 C238 1.476 . S
H229 C223 0.929 . S
C230 O221 1.250 . S
C230 O222 1.258 . S
O231 Mn216 2.162 . S
O231 C219 1.281 . S
O232 Mn216 2.297 . S
O232 C219 1.236 . S
N233 Mn217 2.282 . S
N233 C234 1.328 . S
N233 C238 1.318 . S
C234 N233 1.328 . S
C234 C235 1.457 . S
C234 H239 0.929 . S
C235 C234 1.457 . S
C235 C236 1.291 . S
C235 H248 0.931 1_556 S
C236 C235 1.291 . S
C236 C237 1.362 1_655 S
C236 H249 0.929 1_655 S
C237 C236 1.362 1_455 S
C237 C238 1.389 1_455 S
C237 C244 1.423 . S
C238 C228 1.476 . S
C238 N233 1.318 . S
C238 C237 1.389 1_655 S
H239 C234 0.929 . S
O240 Mn216 2.385 . S
O240 C218 1.234 . S
O241 Mn216 2.209 . S
O241 Mn217 2.215 . S
O241 C218 1.283 . S
O242 Mn216 2.094 . S
O242 C220 1.240 . S
O243 Mn217 2.117 . S
O243 C220 1.264 . S
C244 C237 1.423 . S
C244 C245 1.399 . S
C244 H250 0.929 . S
C245 C225 1.449 . S
C245 C244 1.399 . S
C245 H251 0.930 . S
H246 C226 0.931 . S
H247 C227 0.930 . S
H248 C235 0.931 1_554 S
H249 C236 0.929 1_455 S
H250 C244 0.929 . S
H251 C245 0.930 . S
Mn252 O257 2.095 . S
Mn252 O267 2.162 . S
Mn252 O268 2.297 . S
Mn252 O276 2.385 . S
Mn252 O277 2.209 . S
Mn252 O278 2.094 . S
Mn253 O258 2.121 . S
Mn253 N260 2.257 . S
Mn253 N269 2.282 . S
Mn253 O277 2.215 . S
Mn253 O279 2.117 . S
C254 O276 1.234 . S
C254 O277 1.283 . S
C255 O267 1.281 . S
C255 O268 1.236 . S
C256 O278 1.240 . S
C256 O279 1.264 . S
O257 Mn252 2.095 . S
O257 C266 1.250 . S
O258 Mn253 2.121 . S
O258 C266 1.258 . S
C259 N260 1.326 . S
C259 C263 1.460 . S
C259 H265 0.929 . S
N260 Mn253 2.257 . S
N260 C259 1.326 . S
N260 C264 1.362 . S
C261 C262 1.258 . S
C261 C264 1.431 . S
C261 C281 1.449 . S
C262 C261 1.258 . S
C262 C263 1.477 . S
C262 H282 0.931 . S
C263 C259 1.460 . S
C263 C262 1.477 . S
C263 H283 0.930 . S
C264 N260 1.362 . S
C264 C261 1.431 . S
C264 C274 1.476 . S
H265 C259 0.929 . S
C266 O257 1.250 . S
C266 O258 1.258 . S
O267 Mn252 2.162 . S
O267 C255 1.281 . S
O268 Mn252 2.297 . S
O268 C255 1.236 . S
N269 Mn253 2.282 . S
N269 C270 1.328 . S
N269 C274 1.318 . S
C270 N269 1.328 . S
C270 C271 1.457 . S
C270 H275 0.929 . S
C271 C270 1.457 . S
C271 C272 1.291 . S
C271 H284 0.931 1_556 S
C272 C271 1.291 . S
C272 C273 1.373 . S
C272 H285 0.929 . S
C273 C272 1.373 . S
C273 C274 1.396 . S
C273 C280 1.403 . S
C274 C264 1.476 . S
C274 N269 1.318 . S
C274 C273 1.396 . S
H275 C270 0.929 . S
O276 Mn252 2.385 . S
O276 C254 1.234 . S
O277 Mn252 2.209 . S
O277 Mn253 2.215 . S
O277 C254 1.283 . S
O278 Mn252 2.094 . S
O278 C256 1.240 . S
O279 Mn253 2.117 . S
O279 C256 1.264 . S
C280 C273 1.403 . S
C280 C281 1.399 . S
C280 H286 0.929 . S
C281 C261 1.449 . S
C281 C280 1.399 . S
C281 H287 0.930 . S
H282 C262 0.931 . S
H283 C263 0.930 . S
H284 C271 0.931 1_554 S
H285 C272 0.929 . S
H286 C280 0.929 . S
H287 C281 0.930 . S
Mn288 O293 2.095 . S
Mn288 O303 2.162 . S
Mn288 O304 2.297 . S
Mn288 O312 2.385 . S
Mn288 O313 2.209 . S
Mn288 O314 2.094 . S
Mn289 O294 2.121 . S
Mn289 N296 2.257 . S
Mn289 N305 2.282 . S
Mn289 O313 2.215 . S
Mn289 O315 2.117 . S
C290 O312 1.234 . S
C290 O313 1.283 . S
C291 O303 1.281 . S
C291 O304 1.236 . S
C292 O314 1.240 . S
C292 O315 1.264 . S
O293 Mn288 2.095 . S
O293 C302 1.250 . S
O294 Mn289 2.121 . S
O294 C302 1.258 . S
C295 N296 1.326 . S
C295 C299 1.463 1_545 S
C295 H301 0.929 . S
N296 Mn289 2.257 . S
N296 C295 1.326 . S
N296 C300 1.362 . S
C297 C298 1.258 . S
C297 C300 1.431 1_565 S
C297 C317 1.449 . S
C298 C297 1.258 . S
C298 C299 1.475 . S
C298 H318 0.931 . S
C299 C295 1.463 1_565 S
C299 C298 1.475 . S
C299 H319 0.930 . S
C300 N296 1.362 . S
C300 C297 1.431 1_545 S
C300 C310 1.476 . S
H301 C295 0.929 . S
C302 O293 1.250 . S
C302 O294 1.258 . S
O303 Mn288 2.162 . S
O303 C291 1.281 . S
O304 Mn288 2.297 . S
O304 C291 1.236 . S
N305 Mn289 2.282 . S
N305 C306 1.328 . S
N305 C310 1.318 . S
C306 N305 1.328 . S
C306 C307 1.457 . S
C306 H311 0.929 . S
C307 C306 1.457 . S
C307 C308 1.291 . S
C307 H320 0.931 1_556 S
C308 C307 1.291 . S
C308 C309 1.373 . S
C308 H321 0.929 1_545 S
C309 C308 1.373 . S
C309 C310 1.396 . S
C309 C316 1.403 1_545 S
C310 C300 1.476 . S
C310 N305 1.318 . S
C310 C309 1.396 . S
H311 C306 0.929 . S
O312 Mn288 2.385 . S
O312 C290 1.234 . S
O313 Mn288 2.209 . S
O313 Mn289 2.215 . S
O313 C290 1.283 . S
O314 Mn288 2.094 . S
O314 C292 1.240 . S
O315 Mn289 2.117 . S
O315 C292 1.264 . S
C316 C309 1.403 1_565 S
C316 C317 1.399 . S
C316 H322 0.929 . S
C317 C297 1.449 . S
C317 C316 1.399 . S
C317 H323 0.930 . S
H318 C298 0.931 . S
H319 C299 0.930 . S
H320 C307 0.931 1_554 S
H321 C308 0.929 1_565 S
H322 C316 0.929 . S
H323 C317 0.930 . S
Mn324 O329 2.095 . S
Mn324 O339 2.162 . S
Mn324 O340 2.297 . S
Mn324 O348 2.385 . S
Mn324 O349 2.209 . S
Mn324 O350 2.094 . S
Mn325 O330 2.121 . S
Mn325 N332 2.257 . S
Mn325 N341 2.282 . S
Mn325 O349 2.215 . S
Mn325 O351 2.117 . S
C326 O348 1.234 . S
C326 O349 1.283 . S
C327 O339 1.281 . S
C327 O340 1.236 . S
C328 O350 1.240 . S
C328 O351 1.264 . S
O329 Mn324 2.095 . S
O329 C338 1.250 . S
O330 Mn325 2.121 . S
O330 C338 1.258 . S
C331 N332 1.326 . S
C331 C335 1.461 1_545 S
C331 H337 0.929 . S
N332 Mn325 2.257 . S
N332 C331 1.326 . S
N332 C336 1.362 . S
C333 C334 1.258 . S
C333 C336 1.431 1_565 S
C333 C353 1.449 . S
C334 C333 1.258 . S
C334 C335 1.477 . S
C334 H354 0.931 . S
C335 C331 1.461 1_565 S
C335 C334 1.477 . S
C335 H355 0.929 . S
C336 N332 1.362 . S
C336 C333 1.431 1_545 S
C336 C346 1.476 . S
H337 C331 0.929 . S
C338 O329 1.250 . S
C338 O330 1.258 . S
O339 Mn324 2.162 . S
O339 C327 1.281 . S
O340 Mn324 2.297 . S
O340 C327 1.236 . S
N341 Mn325 2.282 . S
N341 C342 1.328 . S
N341 C346 1.318 . S
C342 N341 1.328 . S
C342 C343 1.457 . S
C342 H347 0.929 . S
C343 C342 1.457 . S
C343 C344 1.291 . S
C343 H356 0.931 . S
C344 C343 1.291 . S
C344 C345 1.373 . S
C344 H357 0.929 1_545 S
C345 C344 1.373 . S
C345 C346 1.396 . S
C345 C352 1.403 1_545 S
C346 C336 1.476 . S
C346 N341 1.318 . S
C346 C345 1.396 . S
H347 C342 0.929 . S
O348 Mn324 2.385 . S
O348 C326 1.234 . S
O349 Mn324 2.209 . S
O349 Mn325 2.215 . S
O349 C326 1.283 . S
O350 Mn324 2.094 . S
O350 C328 1.240 . S
O351 Mn325 2.117 . S
O351 C328 1.264 . S
C352 C345 1.403 1_565 S
C352 C353 1.399 . S
C352 H358 0.929 . S
C353 C333 1.449 . S
C353 C352 1.399 . S
C353 H359 0.930 . S
H354 C334 0.931 . S
H355 C335 0.929 . S
H356 C343 0.931 . S
H357 C344 0.929 1_565 S
H358 C352 0.929 . S
H359 C353 0.930 . S
Mn360 O365 2.095 . S
Mn360 O375 2.162 . S
Mn360 O376 2.297 . S
Mn360 O384 2.385 . S
Mn360 O385 2.209 . S
Mn360 O386 2.094 . S
Mn361 O366 2.121 . S
Mn361 N368 2.257 . S
Mn361 N377 2.282 . S
Mn361 O385 2.215 . S
Mn361 O387 2.117 . S
C362 O384 1.234 . S
C362 O385 1.283 . S
C363 O375 1.281 . S
C363 O376 1.236 . S
C364 O386 1.240 . S
C364 O387 1.264 . S
O365 Mn360 2.095 . S
O365 C374 1.250 . S
O366 Mn361 2.121 . S
O366 C374 1.258 . S
C367 N368 1.326 . S
C367 C371 1.460 . S
C367 H373 0.929 . S
N368 Mn361 2.257 . S
N368 C367 1.326 . S
N368 C372 1.362 . S
C369 C370 1.258 . S
C369 C372 1.431 1_455 S
C369 C389 1.449 . S
C370 C369 1.258 . S
C370 C371 1.477 1_455 S
C370 H390 0.931 . S
C371 C367 1.460 . S
C371 C370 1.477 1_655 S
C371 H391 0.930 1_655 S
C372 N368 1.362 . S
C372 C369 1.431 1_655 S
C372 C382 1.476 . S
H373 C367 0.929 . S
C374 O365 1.250 . S
C374 O366 1.258 . S
O375 Mn360 2.162 . S
O375 C363 1.281 . S
O376 Mn360 2.297 . S
O376 C363 1.236 . S
N377 Mn361 2.282 . S
N377 C378 1.328 . S
N377 C382 1.318 . S
C378 N377 1.328 . S
C378 C379 1.457 . S
C378 H383 0.929 . S
C379 C378 1.457 . S
C379 C380 1.291 . S
C379 H392 0.931 . S
C380 C379 1.291 . S
C380 C381 1.373 . S
C380 H393 0.929 1_655 S
C381 C380 1.373 . S
C381 C382 1.396 . S
C381 C388 1.403 1_655 S
C382 C372 1.476 . S
C382 N377 1.318 . S
C382 C381 1.396 . S
H383 C378 0.929 . S
O384 Mn360 2.385 . S
O384 C362 1.234 . S
O385 Mn360 2.209 . S
O385 Mn361 2.215 . S
O385 C362 1.283 . S
O386 Mn360 2.094 . S
O386 C364 1.240 . S
O387 Mn361 2.117 . S
O387 C364 1.264 . S
C388 C381 1.403 1_455 S
C388 C389 1.399 . S
C388 H394 0.929 . S
C389 C369 1.449 . S
C389 C388 1.399 . S
C389 H395 0.930 . S
H390 C370 0.931 . S
H391 C371 0.930 1_455 S
H392 C379 0.931 . S
H393 C380 0.929 1_455 S
H394 C388 0.929 . S
H395 C389 0.930 . S
Mn396 O401 2.095 . S
Mn396 O411 2.162 . S
Mn396 O412 2.297 . S
Mn396 O420 2.385 . S
Mn396 O421 2.209 . S
Mn396 O422 2.094 . S
Mn397 O402 2.121 . S
Mn397 N404 2.257 . S
Mn397 N413 2.282 . S
Mn397 O421 2.215 . S
Mn397 O423 2.117 . S
C398 O420 1.234 . S
C398 O421 1.283 . S
C399 O411 1.281 . S
C399 O412 1.236 . S
C400 O422 1.240 . S
C400 O423 1.264 . S
O401 Mn396 2.095 . S
O401 C410 1.250 . S
O402 Mn397 2.121 . S
O402 C410 1.258 . S
C403 N404 1.326 . S
C403 C407 1.460 . S
C403 H409 0.929 . S
N404 Mn397 2.257 . S
N404 C403 1.326 . S
N404 C408 1.362 . S
C405 C406 1.258 . S
C405 C408 1.431 . S
C405 C425 1.449 . S
C406 C405 1.258 . S
C406 C407 1.477 . S
C406 H426 0.931 . S
C407 C403 1.460 . S
C407 C406 1.477 . S
C407 H427 0.930 . S
C408 N404 1.362 . S
C408 C405 1.431 . S
C408 C418 1.476 . S
H409 C403 0.929 . S
C410 O401 1.250 . S
C410 O402 1.258 . S
O411 Mn396 2.162 . S
O411 C399 1.281 . S
O412 Mn396 2.297 . S
O412 C399 1.236 . S
N413 Mn397 2.282 . S
N413 C414 1.328 . S
N413 C418 1.318 . S
C414 N413 1.328 . S
C414 C415 1.457 . S
C414 H419 0.929 . S
C415 C414 1.457 . S
C415 C416 1.291 . S
C415 H428 0.931 . S
C416 C415 1.291 . S
C416 C417 1.373 . S
C416 H429 0.929 . S
C417 C416 1.373 . S
C417 C418 1.396 . S
C417 C424 1.403 . S
C418 C408 1.476 . S
C418 N413 1.318 . S
C418 C417 1.396 . S
H419 C414 0.929 . S
O420 Mn396 2.385 . S
O420 C398 1.234 . S
O421 Mn396 2.209 . S
O421 Mn397 2.215 . S
O421 C398 1.283 . S
O422 Mn396 2.094 . S
O422 C400 1.240 . S
O423 Mn397 2.117 . S
O423 C400 1.264 . S
C424 C417 1.403 . S
C424 C425 1.399 . S
C424 H430 0.929 . S
C425 C405 1.449 . S
C425 C424 1.399 . S
C425 H431 0.930 . S
H426 C406 0.931 . S
H427 C407 0.930 . S
H428 C415 0.931 . S
H429 C416 0.929 . S
H430 C424 0.929 . S
H431 C425 0.930 . S
H432 C440 0.929 1_556 S
H433 C442 0.930 . S
H434 C444 0.930 . S
H435 C447 0.929 . S
H436 C450 0.930 . S
H437 C452 0.960 . S
H438 C452 0.960 . S
H439 C452 0.960 1_554 S
C440 H432 0.929 1_554 S
C440 C441 1.377 . S
C440 C442 1.384 1_554 S
C441 C440 1.377 . S
C441 C447 1.390 . S
C442 H433 0.930 . S
C442 C440 1.384 1_556 S
C442 C443 1.372 1_556 S
C443 C442 1.372 1_554 S
C443 C444 1.400 . S
C443 C448 1.481 1_554 S
C444 H434 0.930 . S
C444 C443 1.400 . S
C444 C447 1.386 . S
H445 C461 0.930 . S
H446 C462 0.931 1_554 S
C447 H435 0.929 . S
C447 C441 1.390 . S
C447 C444 1.386 . S
C448 C443 1.481 1_556 S
C448 C450 1.399 . S
C448 C451 1.409 . S
H449 C455 0.930 . S
C450 H436 0.930 . S
C450 C448 1.399 . S
C450 C453 1.403 . S
C451 C448 1.409 . S
C451 C452 1.524 . S
C451 C455 1.400 . S
C452 H437 0.960 . S
C452 H438 0.960 . S
C452 H439 0.960 1_556 S
C452 C451 1.524 . S
C453 C450 1.403 . S
C453 C454 1.392 . S
C453 C457 1.495 . S
C454 C453 1.392 . S
C454 C455 1.385 . S
C454 C456 1.478 . S
C455 H449 0.930 . S
C455 C451 1.400 . S
C455 C454 1.385 . S
C456 C454 1.478 . S
C456 C458 1.381 . S
C456 C462 1.383 . S
C457 C453 1.495 . S
C457 H463 0.959 . S
C457 H464 0.961 . S
C457 H465 0.960 . S
C458 C456 1.381 . S
C458 C459 1.394 . S
C458 H466 0.930 . S
C459 C458 1.394 . S
C459 C460 1.383 . S
C459 H467 0.929 . S
C460 C459 1.383 . S
C460 C461 1.377 . S
C461 H445 0.930 . S
C461 C460 1.377 . S
C461 C462 1.379 . S
C462 H446 0.931 1_556 S
C462 C456 1.383 . S
C462 C461 1.379 . S
H463 C457 0.959 . S
H464 C457 0.961 . S
H465 C457 0.960 . S
H466 C458 0.930 . S
H467 C459 0.929 . S
H468 C476 0.929 1_556 S
H469 C478 0.930 . S
H470 C480 0.930 . S
H471 C483 0.929 . S
H472 C486 0.930 . S
H473 C488 0.960 . S
H474 C488 0.960 . S
H475 C488 0.960 1_554 S
C476 H468 0.929 1_554 S
C476 C477 1.377 . S
C476 C478 1.384 1_554 S
C477 C476 1.377 . S
C477 C483 1.390 . S
C478 H469 0.930 . S
C478 C476 1.384 1_556 S
C478 C479 1.372 1_556 S
C479 C478 1.372 1_554 S
C479 C480 1.400 . S
C479 C484 1.490 1_554 S
C480 H470 0.930 . S
C480 C479 1.400 . S
C480 C483 1.386 . S
H481 C497 0.930 . S
H482 C498 0.931 1_554 S
C483 H471 0.929 . S
C483 C477 1.390 . S
C483 C480 1.386 . S
C484 C479 1.490 1_556 S
C484 C486 1.395 . S
C484 C487 1.403 . S
H485 C491 0.930 . S
C486 H472 0.930 . S
C486 C484 1.395 . S
C486 C489 1.403 . S
C487 C484 1.403 . S
C487 C488 1.524 . S
C487 C491 1.400 . S
C488 H473 0.960 . S
C488 H474 0.960 . S
C488 H475 0.960 1_556 S
C488 C487 1.524 . S
C489 C486 1.403 . S
C489 C490 1.392 . S
C489 C493 1.495 . S
C490 C489 1.392 . S
C490 C491 1.385 . S
C490 C492 1.478 . S
C491 H485 0.930 . S
C491 C487 1.400 . S
C491 C490 1.385 . S
C492 C490 1.478 . S
C492 C494 1.381 . S
C492 C498 1.383 . S
C493 C489 1.495 . S
C493 H499 0.959 . S
C493 H500 0.961 . S
C493 H501 0.960 . S
C494 C492 1.381 . S
C494 C495 1.394 . S
C494 H502 0.930 . S
C495 C494 1.394 . S
C495 C496 1.383 1_565 S
C495 H503 0.944 . S
C496 C495 1.383 1_545 S
C496 C497 1.377 . S
C497 H481 0.930 . S
C497 C496 1.377 . S
C497 C498 1.379 1_545 S
C498 H482 0.931 1_556 S
C498 C492 1.383 . S
C498 C497 1.379 1_565 S
H499 C493 0.959 . S
H500 C493 0.961 . S
H501 C493 0.960 . S
H502 C494 0.930 . S
H503 C495 0.944 . S
H504 C512 0.929 . S
H505 C514 0.930 . S
H506 C516 0.893 1_556 S
H507 C519 0.905 1_556 S
H508 C522 0.930 . S
H509 C524 0.960 . S
H510 C524 0.960 1_554 S
H511 C524 0.960 . S
C512 H504 0.929 . S
C512 C513 1.377 . S
C512 C514 1.384 . S
C513 C512 1.377 . S
C513 C519 1.390 . S
C514 H505 0.930 . S
C514 C512 1.384 . S
C514 C515 1.372 . S
C515 C514 1.372 . S
C515 C516 1.423 . S
C515 C520 1.490 . S
C516 H506 0.893 1_554 S
C516 C515 1.423 . S
C516 C519 1.400 . S
H517 C533 0.930 . S
H518 C534 0.931 . S
C519 H507 0.905 1_554 S
C519 C513 1.390 . S
C519 C516 1.400 . S
C520 C515 1.490 . S
C520 C522 1.395 . S
C520 C523 1.403 1_554 S
H521 C527 0.930 . S
C522 H508 0.930 . S
C522 C520 1.395 . S
C522 C525 1.403 1_554 S
C523 C520 1.403 1_556 S
C523 C524 1.524 . S
C523 C527 1.400 . S
C524 H509 0.960 . S
C524 H510 0.960 1_556 S
C524 H511 0.960 . S
C524 C523 1.524 . S
C525 C522 1.403 1_556 S
C525 C526 1.392 . S
C525 C529 1.495 . S
C526 C525 1.392 . S
C526 C527 1.385 . S
C526 C528 1.478 . S
C527 H521 0.930 . S
C527 C523 1.400 . S
C527 C526 1.385 . S
C528 C526 1.478 . S
C528 C530 1.381 . S
C528 C534 1.383 . S
C529 C525 1.495 . S
C529 H535 0.959 1_556 S
C529 H536 0.961 . S
C529 H537 0.960 1_556 S
C530 C528 1.381 . S
C530 C531 1.394 1_455 S
C530 H538 0.930 1_556 S
C531 C530 1.394 1_655 S
C531 C532 1.383 . S
C531 H539 0.929 . S
C532 C531 1.383 . S
C532 C533 1.377 1_655 S
C533 H517 0.930 . S
C533 C532 1.377 1_455 S
C533 C534 1.379 . S
C534 H518 0.931 . S
C534 C528 1.383 . S
C534 C533 1.379 . S
H535 C529 0.959 1_554 S
H536 C529 0.961 . S
H537 C529 0.960 1_554 S
H538 C530 0.930 1_554 S
H539 C531 0.929 . S
H540 C548 0.929 . S
H541 C550 0.930 . S
H542 C552 0.930 . S
H543 C555 0.929 . S
H544 C558 0.930 . S
H545 C560 0.960 . S
H546 C560 0.960 . S
H547 C560 0.960 . S
C548 H540 0.929 . S
C548 C549 1.377 . S
C548 C550 1.384 . S
C549 C548 1.377 . S
C549 C555 1.390 . S
C550 H541 0.930 . S
C550 C548 1.384 . S
C550 C551 1.372 . S
C551 C550 1.372 . S
C551 C552 1.400 . S
C551 C556 1.490 . S
C552 H542 0.930 . S
C552 C551 1.400 . S
C552 C555 1.386 . S
H553 C569 0.930 . S
H554 C570 0.931 . S
C555 H543 0.929 . S
C555 C549 1.390 . S
C555 C552 1.386 . S
C556 C551 1.490 . S
C556 C558 1.395 . S
C556 C559 1.403 . S
H557 C563 0.930 . S
C558 H544 0.930 . S
C558 C556 1.395 . S
C558 C561 1.403 . S
C559 C556 1.403 . S
C559 C560 1.524 . S
C559 C563 1.400 . S
C560 H545 0.960 . S
C560 H546 0.960 . S
C560 H547 0.960 . S
C560 C559 1.524 . S
C561 C558 1.403 . S
C561 C562 1.392 . S
C561 C565 1.495 . S
C562 C561 1.392 . S
C562 C563 1.385 . S
C562 C564 1.478 . S
C563 H557 0.930 . S
C563 C559 1.400 . S
C563 C562 1.385 . S
C564 C562 1.478 . S
C564 C566 1.381 . S
C564 C570 1.383 . S
C565 C561 1.495 . S
C565 H571 0.959 . S
C565 H572 0.961 . S
C565 H573 0.960 . S
C566 C564 1.381 . S
C566 C567 1.394 . S
C566 H574 0.930 . S
C567 C566 1.394 . S
C567 C568 1.383 . S
C567 H575 0.929 . S
C568 C567 1.383 . S
C568 C569 1.377 . S
C569 H553 0.930 . S
C569 C568 1.377 . S
C569 C570 1.379 . S
C570 H554 0.931 . S
C570 C564 1.383 . S
C570 C569 1.379 . S
H571 C565 0.959 . S
H572 C565 0.961 . S
H573 C565 0.960 . S
H574 C566 0.930 . S
H575 C567 0.929 . S
H576 C584 0.929 . S
H577 C586 0.930 . S
H578 C588 0.930 . S
H579 C591 0.929 . S
H580 C594 0.930 . S
H581 C596 0.960 . S
H582 C596 0.960 . S
H583 C596 0.960 . S
C584 H576 0.929 . S
C584 C585 1.377 . S
C584 C586 1.384 . S
C585 C584 1.377 . S
C585 C591 1.390 . S
C586 H577 0.930 . S
C586 C584 1.384 . S
C586 C587 1.372 . S
C587 C586 1.372 . S
C587 C588 1.400 . S
C587 C592 1.490 . S
C588 H578 0.930 . S
C588 C587 1.400 . S
C588 C591 1.386 . S
H589 C605 0.930 . S
H590 C606 0.931 . S
C591 H579 0.929 . S
C591 C585 1.390 . S
C591 C588 1.386 . S
C592 C587 1.490 . S
C592 C594 1.395 . S
C592 C595 1.403 . S
H593 C599 0.930 . S
C594 H580 0.930 . S
C594 C592 1.395 . S
C594 C597 1.403 . S
C595 C592 1.403 . S
C595 C596 1.524 . S
C595 C599 1.400 . S
C596 H581 0.960 . S
C596 H582 0.960 . S
C596 H583 0.960 . S
C596 C595 1.524 . S
C597 C594 1.403 . S
C597 C598 1.392 . S
C597 C601 1.495 . S
C598 C597 1.392 . S
C598 C599 1.385 . S
C598 C600 1.478 . S
C599 H593 0.930 . S
C599 C595 1.400 . S
C599 C598 1.385 . S
C600 C598 1.478 . S
C600 C602 1.381 . S
C600 C606 1.383 . S
C601 C597 1.495 . S
C601 H607 0.959 . S
C601 H608 0.961 . S
C601 H609 0.960 . S
C602 C600 1.381 . S
C602 C603 1.394 1_565 S
C602 H610 0.930 . S
C603 C602 1.394 1_545 S
C603 C604 1.383 . S
C603 H611 0.929 . S
C604 C603 1.383 . S
C604 C605 1.377 . S
C605 H589 0.930 . S
C605 C604 1.377 . S
C605 C606 1.379 1_545 S
C606 H590 0.931 . S
C606 C600 1.383 . S
C606 C605 1.379 1_565 S
H607 C601 0.959 . S
H608 C601 0.961 . S
H609 C601 0.960 . S
H610 C602 0.930 . S
H611 C603 0.929 . S
H612 C620 0.929 . S
H613 C622 0.930 . S
H614 C624 0.930 . S
H615 C627 0.929 . S
H616 C630 0.930 . S
H617 C632 0.960 . S
H618 C632 0.960 . S
H619 C632 0.960 . S
C620 H612 0.929 . S
C620 C621 1.377 . S
C620 C622 1.384 1_655 S
C621 C620 1.377 . S
C621 C627 1.390 . S
C622 H613 0.930 . S
C622 C620 1.384 1_455 S
C622 C623 1.372 . S
C623 C622 1.372 . S
C623 C624 1.400 . S
C623 C628 1.490 . S
C624 H614 0.930 . S
C624 C623 1.400 . S
C624 C627 1.386 1_455 S
H625 C641 0.930 . S
H626 C642 0.931 . S
C627 H615 0.929 . S
C627 C621 1.390 . S
C627 C624 1.386 1_655 S
C628 C623 1.490 . S
C628 C630 1.395 . S
C628 C631 1.403 . S
H629 C635 0.930 . S
C630 H616 0.930 . S
C630 C628 1.395 . S
C630 C633 1.403 . S
C631 C628 1.403 . S
C631 C632 1.524 . S
C631 C635 1.400 . S
C632 H617 0.960 . S
C632 H618 0.960 . S
C632 H619 0.960 . S
C632 C631 1.524 . S
C633 C630 1.403 . S
C633 C634 1.392 . S
C633 C637 1.495 . S
C634 C633 1.392 . S
C634 C635 1.385 . S
C634 C636 1.478 . S
C635 H629 0.930 . S
C635 C631 1.400 . S
C635 C634 1.385 . S
C636 C634 1.478 . S
C636 C638 1.381 . S
C636 C642 1.383 . S
C637 C633 1.495 . S
C637 H643 0.959 . S
C637 H644 0.961 . S
C637 H645 0.960 . S
C638 C636 1.381 . S
C638 C639 1.394 . S
C638 H646 0.930 . S
C639 C638 1.394 . S
C639 C640 1.383 . S
C639 H647 0.929 . S
C640 C639 1.383 . S
C640 C641 1.377 . S
C641 H625 0.930 . S
C641 C640 1.377 . S
C641 C642 1.379 . S
C642 H626 0.931 . S
C642 C636 1.383 . S
C642 C641 1.379 . S
H643 C637 0.959 . S
H644 C637 0.961 . S
H645 C637 0.960 . S
H646 C638 0.930 . S
H647 C639 0.929 . S
H648 C656 0.929 . S
H649 C658 0.930 . S
H650 C660 0.930 . S
H651 C663 0.929 . S
H652 C666 0.930 . S
H653 C668 0.960 . S
H654 C668 0.960 . S
H655 C668 0.960 . S
C656 H648 0.929 . S
C656 C657 1.377 . S
C656 C658 1.384 . S
C657 C656 1.377 . S
C657 C663 1.390 . S
C658 H649 0.930 . S
C658 C656 1.384 . S
C658 C659 1.372 . S
C659 C658 1.372 . S
C659 C660 1.400 . S
C659 C664 1.490 . S
C660 H650 0.930 . S
C660 C659 1.400 . S
C660 C663 1.386 . S
H661 C677 0.930 . S
H662 C678 0.931 1_554 S
C663 H651 0.929 . S
C663 C657 1.390 . S
C663 C660 1.386 . S
C664 C659 1.490 . S
C664 C666 1.395 . S
C664 C667 1.403 1_554 S
H665 C671 0.930 . S
C666 H652 0.930 . S
C666 C664 1.395 . S
C666 C669 1.403 . S
C667 C664 1.403 1_556 S
C667 C668 1.524 . S
C667 C671 1.400 . S
C668 H653 0.960 . S
C668 H654 0.960 . S
C668 H655 0.960 . S
C668 C667 1.524 . S
C669 C666 1.403 . S
C669 C670 1.392 1_554 S
C669 C673 1.495 . S
C670 C669 1.392 1_556 S
C670 C671 1.385 . S
C670 C672 1.478 . S
C671 H665 0.930 . S
C671 C667 1.400 . S
C671 C670 1.385 . S
C672 C670 1.478 . S
C672 C674 1.381 . S
C672 C678 1.383 . S
C673 C669 1.495 . S
C673 H679 0.959 . S
C673 H680 0.961 . S
C673 H681 0.960 . S
C674 C672 1.381 . S
C674 C675 1.394 . S
C674 H682 0.930 . S
C675 C674 1.394 . S
C675 C676 1.383 . S
C675 H683 0.929 . S
C676 C675 1.383 . S
C676 C677 1.377 . S
C677 H661 0.930 . S
C677 C676 1.377 . S
C677 C678 1.379 . S
C678 H662 0.931 1_556 S
C678 C672 1.383 . S
C678 C677 1.379 . S
H679 C673 0.959 . S
H680 C673 0.961 . S
H681 C673 0.960 . S
H682 C674 0.930 . S
H683 C675 0.929 . S
H684 C692 0.929 1_554 S
H685 C694 0.963 . S
H686 C696 0.930 . S
H687 C699 0.929 . S
H688 C702 0.930 . S
H689 C704 0.960 . S
H690 C704 0.960 . S
H691 C704 0.960 . S
C692 H684 0.929 1_556 S
C692 C693 1.377 . S
C692 C694 1.372 1_556 S
C693 C692 1.377 . S
C693 C699 1.390 . S
C694 H685 0.963 . S
C694 C692 1.372 1_554 S
C694 C695 1.353 1_554 S
C695 C694 1.353 1_556 S
C695 C696 1.400 . S
C695 C700 1.490 . S
C696 H686 0.930 . S
C696 C695 1.400 . S
C696 C699 1.386 . S
H697 C713 0.930 . S
H698 C714 0.931 1_556 S
C699 H687 0.929 . S
C699 C693 1.390 . S
C699 C696 1.386 . S
C700 C695 1.490 . S
C700 C702 1.395 1_556 S
C700 C703 1.403 . S
H701 C707 0.935 . S
C702 H688 0.930 . S
C702 C700 1.395 1_554 S
C702 C705 1.403 . S
C703 C700 1.403 . S
C703 C704 1.524 . S
C703 C707 1.407 . S
C704 H689 0.960 . S
C704 H690 0.960 . S
C704 H691 0.960 . S
C704 C703 1.524 . S
C705 C702 1.403 . S
C705 C706 1.392 . S
C705 C709 1.495 . S
C706 C705 1.392 . S
C706 C707 1.374 1_554 S
C706 C708 1.478 . S
C707 H701 0.935 . S
C707 C703 1.407 . S
C707 C706 1.374 1_556 S
C708 C706 1.478 . S
C708 C710 1.381 . S
C708 C714 1.383 . S
C709 C705 1.495 . S
C709 H715 0.959 . S
C709 H716 0.961 . S
C709 H717 0.960 . S
C710 C708 1.381 . S
C710 C711 1.394 . S
C710 H718 0.930 . S
C711 C710 1.394 . S
C711 C712 1.383 1_545 S
C711 H719 0.929 . S
C712 C711 1.383 1_565 S
C712 C713 1.377 . S
C713 H697 0.930 . S
C713 C712 1.377 . S
C713 C714 1.379 1_565 S
C714 H698 0.931 1_554 S
C714 C708 1.383 . S
C714 C713 1.379 1_545 S
H715 C709 0.959 . S
H716 C709 0.961 . S
H717 C709 0.960 . S
H718 C710 0.930 . S
H719 C711 0.929 . S
H720 C728 0.929 . S
H721 C730 0.930 . S
H722 C732 0.930 . S
H723 C735 0.922 . S
H724 C738 0.930 . S
H725 C740 0.960 . S
H726 C740 0.960 . S
H727 C740 0.960 . S
C728 H720 0.929 . S
C728 C729 1.377 . S
C728 C730 1.384 1_455 S
C729 C728 1.377 . S
C729 C735 1.390 1_455 S
C730 H721 0.930 . S
C730 C728 1.384 1_655 S
C730 C731 1.372 . S
C731 C730 1.372 . S
C731 C732 1.400 . S
C731 C736 1.490 . S
C732 H722 0.930 . S
C732 C731 1.400 . S
C732 C735 1.386 . S
H733 C749 0.930 . S
H734 C750 0.931 1_554 S
C735 H723 0.922 . S
C735 C729 1.390 1_655 S
C735 C732 1.386 . S
C736 C731 1.490 . S
C736 C738 1.395 . S
C736 C739 1.403 1_554 S
H737 C743 0.930 . S
C738 H724 0.930 . S
C738 C736 1.395 . S
C738 C741 1.403 . S
C739 C736 1.403 1_556 S
C739 C740 1.524 . S
C739 C743 1.400 . S
C740 H725 0.960 . S
C740 H726 0.960 . S
C740 H727 0.960 . S
C740 C739 1.524 . S
C741 C738 1.403 . S
C741 C742 1.392 . S
C741 C745 1.495 . S
C742 C741 1.392 . S
C742 C743 1.385 1_554 S
C742 C744 1.478 1_554 S
C743 H737 0.930 . S
C743 C739 1.400 . S
C743 C742 1.385 1_556 S
C744 C742 1.478 1_556 S
C744 C746 1.381 . S
C744 C750 1.383 . S
C745 C741 1.495 . S
C745 H751 0.959 . S
C745 H752 0.961 . S
C745 H753 0.960 . S
C746 C744 1.381 . S
C746 C747 1.394 . S
C746 H754 0.930 . S
C747 C746 1.394 . S
C747 C748 1.383 . S
C747 H755 0.929 . S
C748 C747 1.383 . S
C748 C749 1.377 . S
C749 H733 0.930 . S
C749 C748 1.377 . S
C749 C750 1.379 . S
C750 H734 0.931 1_556 S
C750 C744 1.383 . S
C750 C749 1.379 . S
H751 C745 0.959 . S
H752 C745 0.961 . S
H753 C745 0.960 . S
H754 C746 0.930 . S
H755 C747 0.929 . S
H756 C764 0.929 . S
H757 C766 0.930 . S
H758 C768 0.930 . S
H759 C771 0.929 . S
H760 C774 0.930 . S
H761 C776 0.960 . S
H762 C776 0.960 . S
H763 C776 0.960 . S
C764 H756 0.929 . S
C764 C765 1.377 . S
C764 C766 1.384 . S
C765 C764 1.377 . S
C765 C771 1.390 . S
C766 H757 0.930 . S
C766 C764 1.384 . S
C766 C767 1.372 . S
C767 C766 1.372 . S
C767 C768 1.400 . S
C767 C772 1.490 . S
C768 H758 0.930 . S
C768 C767 1.400 . S
C768 C771 1.386 . S
H769 C785 0.930 . S
H770 C786 0.931 . S
C771 H759 0.929 . S
C771 C765 1.390 . S
C771 C768 1.386 . S
C772 C767 1.490 . S
C772 C774 1.395 . S
C772 C775 1.403 . S
H773 C779 0.930 . S
C774 H760 0.930 . S
C774 C772 1.395 . S
C774 C777 1.403 . S
C775 C772 1.403 . S
C775 C776 1.524 . S
C775 C779 1.400 . S
C776 H761 0.960 . S
C776 H762 0.960 . S
C776 H763 0.960 . S
C776 C775 1.524 . S
C777 C774 1.403 . S
C777 C778 1.392 . S
C777 C781 1.495 . S
C778 C777 1.392 . S
C778 C779 1.385 . S
C778 C780 1.478 . S
C779 H773 0.930 . S
C779 C775 1.400 . S
C779 C778 1.385 . S
C780 C778 1.478 . S
C780 C782 1.381 . S
C780 C786 1.383 . S
C781 C777 1.495 . S
C781 H787 0.959 . S
C781 H788 0.961 . S
C781 H789 0.960 . S
C782 C780 1.381 . S
C782 C783 1.394 . S
C782 H790 0.930 . S
C783 C782 1.394 . S
C783 C784 1.383 . S
C783 H791 0.929 . S
C784 C783 1.383 . S
C784 C785 1.377 . S
C785 H769 0.930 . S
C785 C784 1.377 . S
C785 C786 1.379 . S
C786 H770 0.931 . S
C786 C780 1.383 . S
C786 C785 1.379 . S
H787 C781 0.959 . S
H788 C781 0.961 . S
H789 C781 0.960 . S
H790 C782 0.930 . S
H791 C783 0.929 . S
H792 C800 0.929 . S
H793 C802 0.930 . S
H794 C804 0.930 . S
H795 C807 0.929 . S
H796 C810 0.930 . S
H797 C812 0.960 . S
H798 C812 0.960 . S
H799 C812 0.960 . S
C800 H792 0.929 . S
C800 C801 1.377 . S
C800 C802 1.384 . S
C801 C800 1.377 . S
C801 C807 1.390 . S
C802 H793 0.930 . S
C802 C800 1.384 . S
C802 C803 1.372 . S
C803 C802 1.372 . S
C803 C804 1.400 . S
C803 C808 1.490 . S
C804 H794 0.930 . S
C804 C803 1.400 . S
C804 C807 1.386 . S
H805 C821 0.962 . S
H806 C822 0.931 . S
C807 H795 0.929 . S
C807 C801 1.390 . S
C807 C804 1.386 . S
C808 C803 1.490 . S
C808 C810 1.395 . S
C808 C811 1.403 . S
H809 C815 0.930 . S
C810 H796 0.930 . S
C810 C808 1.395 . S
C810 C813 1.403 . S
C811 C808 1.403 . S
C811 C812 1.524 . S
C811 C815 1.400 . S
C812 H797 0.960 . S
C812 H798 0.960 . S
C812 H799 0.960 . S
C812 C811 1.524 . S
C813 C810 1.403 . S
C813 C814 1.392 . S
C813 C817 1.495 . S
C814 C813 1.392 . S
C814 C815 1.385 . S
C814 C816 1.478 . S
C815 H809 0.930 . S
C815 C811 1.400 . S
C815 C814 1.385 . S
C816 C814 1.478 . S
C816 C818 1.381 . S
C816 C822 1.383 . S
C817 C813 1.495 . S
C817 H823 0.959 . S
C817 H824 0.961 . S
C817 H825 0.960 . S
C818 C816 1.381 . S
C818 C819 1.394 1_545 S
C818 H826 0.930 . S
C819 C818 1.394 1_565 S
C819 C820 1.383 . S
C819 H827 0.929 . S
C820 C819 1.383 . S
C820 C821 1.377 . S
C821 H805 0.962 . S
C821 C820 1.377 . S
C821 C822 1.349 1_565 S
C822 H806 0.931 . S
C822 C816 1.383 . S
C822 C821 1.349 1_545 S
H823 C817 0.959 . S
H824 C817 0.961 . S
H825 C817 0.960 . S
H826 C818 0.930 . S
H827 C819 0.929 . S
H828 C836 0.929 . S
H829 C838 0.930 . S
H830 C840 0.930 . S
H831 C843 0.929 . S
H832 C846 0.930 . S
H833 C848 0.960 . S
H834 C848 0.960 . S
H835 C848 0.960 . S
C836 H828 0.929 . S
C836 C837 1.377 . S
C836 C838 1.384 1_455 S
C837 C836 1.377 . S
C837 C843 1.390 . S
C838 H829 0.930 . S
C838 C836 1.384 1_655 S
C838 C839 1.372 . S
C839 C838 1.372 . S
C839 C840 1.400 . S
C839 C844 1.490 . S
C840 H830 0.930 . S
C840 C839 1.400 . S
C840 C843 1.386 1_655 S
H841 C857 0.930 . S
H842 C858 0.931 . S
C843 H831 0.929 . S
C843 C837 1.390 . S
C843 C840 1.386 1_455 S
C844 C839 1.490 . S
C844 C846 1.395 . S
C844 C847 1.403 . S
H845 C851 0.930 . S
C846 H832 0.930 . S
C846 C844 1.395 . S
C846 C849 1.403 . S
C847 C844 1.403 . S
C847 C848 1.524 . S
C847 C851 1.400 . S
C848 H833 0.960 . S
C848 H834 0.960 . S
C848 H835 0.960 . S
C848 C847 1.524 . S
C849 C846 1.403 . S
C849 C850 1.392 . S
C849 C853 1.495 . S
C850 C849 1.392 . S
C850 C851 1.385 . S
C850 C852 1.478 . S
C851 H845 0.930 . S
C851 C847 1.400 . S
C851 C850 1.385 . S
C852 C850 1.478 . S
C852 C854 1.381 . S
C852 C858 1.383 . S
C853 C849 1.495 . S
C853 H859 0.959 . S
C853 H860 0.961 . S
C853 H861 0.960 . S
C854 C852 1.381 . S
C854 C855 1.394 . S
C854 H862 0.930 . S
C855 C854 1.394 . S
C855 C856 1.383 . S
C855 H863 0.929 . S
C856 C855 1.383 . S
C856 C857 1.377 . S
C857 H841 0.930 . S
C857 C856 1.377 . S
C857 C858 1.379 . S
C858 H842 0.931 . S
C858 C852 1.383 . S
C858 C857 1.379 . S
H859 C853 0.959 . S
H860 C853 0.961 . S
H861 C853 0.960 . S
H862 C854 0.930 . S
H863 C855 0.929 . S
H864 C872 0.929 . S
H865 C874 0.930 . S
H866 C876 0.930 . S
H867 C879 0.929 . S
H868 C882 0.930 . S
H869 C884 0.960 . S
H870 C884 0.960 . S
H871 C884 0.960 . S
C872 H864 0.929 . S
C872 C873 1.377 . S
C872 C874 1.384 . S
C873 C872 1.377 . S
C873 C879 1.390 . S
C874 H865 0.930 . S
C874 C872 1.384 . S
C874 C875 1.372 . S
C875 C874 1.372 . S
C875 C876 1.400 . S
C875 C880 1.490 . S
C876 H866 0.930 . S
C876 C875 1.400 . S
C876 C879 1.386 . S
H877 C893 0.930 . S
H878 C894 0.931 . S
C879 H867 0.929 . S
C879 C873 1.390 . S
C879 C876 1.386 . S
C880 C875 1.490 . S
C880 C882 1.395 . S
C880 C883 1.403 . S
H881 C887 0.930 . S
C882 H868 0.930 . S
C882 C880 1.395 . S
C882 C885 1.403 . S
C883 C880 1.403 . S
C883 C884 1.524 . S
C883 C887 1.400 . S
C884 H869 0.960 . S
C884 H870 0.960 . S
C884 H871 0.960 . S
C884 C883 1.524 . S
C885 C882 1.403 . S
C885 C886 1.392 . S
C885 C889 1.495 . S
C886 C885 1.392 . S
C886 C887 1.385 . S
C886 C888 1.478 . S
C887 H881 0.930 . S
C887 C883 1.400 . S
C887 C886 1.385 . S
C888 C886 1.478 . S
C888 C890 1.381 . S
C888 C894 1.383 . S
C889 C885 1.495 . S
C889 H895 0.959 . S
C889 H896 0.961 . S
C889 H897 0.960 . S
C890 C888 1.381 . S
C890 C891 1.394 . S
C890 H898 0.930 . S
C891 C890 1.394 . S
C891 C892 1.383 . S
C891 H899 0.929 . S
C892 C891 1.383 . S
C892 C893 1.377 . S
C893 H877 0.930 . S
C893 C892 1.377 . S
C893 C894 1.379 . S
C894 H878 0.931 . S
C894 C888 1.383 . S
C894 C893 1.379 . S
H895 C889 0.959 . S
H896 C889 0.961 . S
H897 C889 0.960 . S
H898 C890 0.930 . S
H899 C891 0.929 . S
H900 C908 0.929 . S
H901 C910 0.930 . S
H902 C912 0.930 . S
H903 C915 0.929 . S
H904 C918 0.930 . S
H905 C920 0.960 . S
H906 C920 0.960 . S
H907 C920 0.960 . S
C908 H900 0.929 . S
C908 C909 1.377 . S
C908 C910 1.384 . S
C909 C908 1.377 . S
C909 C915 1.390 . S
C910 H901 0.930 . S
C910 C908 1.384 . S
C910 C911 1.372 . S
C911 C910 1.372 . S
C911 C912 1.400 . S
C911 C916 1.490 . S
C912 H902 0.930 . S
C912 C911 1.400 . S
C912 C915 1.386 . S
H913 C929 0.930 . S
H914 C930 0.931 . S
C915 H903 0.929 . S
C915 C909 1.390 . S
C915 C912 1.386 . S
C916 C911 1.490 . S
C916 C918 1.395 . S
C916 C919 1.403 . S
H917 C923 0.930 . S
C918 H904 0.930 . S
C918 C916 1.395 . S
C918 C921 1.403 . S
C919 C916 1.403 . S
C919 C920 1.524 . S
C919 C923 1.400 . S
C920 H905 0.960 . S
C920 H906 0.960 . S
C920 H907 0.960 . S
C920 C919 1.524 . S
C921 C918 1.403 . S
C921 C922 1.392 . S
C921 C925 1.495 . S
C922 C921 1.392 . S
C922 C923 1.385 . S
C922 C924 1.478 . S
C923 H917 0.930 . S
C923 C919 1.400 . S
C923 C922 1.385 . S
C924 C922 1.478 . S
C924 C926 1.381 . S
C924 C930 1.383 . S
C925 C921 1.495 . S
C925 H931 0.959 . S
C925 H932 0.961 . S
C925 H933 0.960 . S
C926 C924 1.381 . S
C926 C927 1.394 . S
C926 H934 0.930 . S
C927 C926 1.394 . S
C927 C928 1.383 . S
C927 H935 0.929 . S
C928 C927 1.383 . S
C928 C929 1.377 . S
C929 H913 0.930 . S
C929 C928 1.377 . S
C929 C930 1.379 . S
C930 H914 0.931 . S
C930 C924 1.383 . S
C930 C929 1.379 . S
H931 C925 0.959 . S
H932 C925 0.961 . S
H933 C925 0.960 . S
H934 C926 0.930 . S
H935 C927 0.929 . S
H936 C944 0.929 . S
H937 C946 0.930 . S
H938 C948 0.930 . S
H939 C951 0.929 . S
H940 C954 0.930 . S
H941 C956 0.960 . S
H942 C956 0.960 . S
H943 C956 0.960 . S
C944 H936 0.929 . S
C944 C945 1.377 . S
C944 C946 1.384 . S
C945 C944 1.377 . S
C945 C951 1.390 . S
C946 H937 0.930 . S
C946 C944 1.384 . S
C946 C947 1.372 . S
C947 C946 1.372 . S
C947 C948 1.400 . S
C947 C952 1.490 . S
C948 H938 0.930 . S
C948 C947 1.400 . S
C948 C951 1.386 . S
H949 C965 0.930 . S
H950 C966 0.931 . S
C951 H939 0.929 . S
C951 C945 1.390 . S
C951 C948 1.386 . S
C952 C947 1.490 . S
C952 C954 1.395 . S
C952 C955 1.403 . S
H953 C959 0.930 . S
C954 H940 0.930 . S
C954 C952 1.395 . S
C954 C957 1.403 . S
C955 C952 1.403 . S
C955 C956 1.524 . S
C955 C959 1.400 . S
C956 H941 0.960 . S
C956 H942 0.960 . S
C956 H943 0.960 . S
C956 C955 1.524 . S
C957 C954 1.403 . S
C957 C958 1.392 . S
C957 C961 1.495 . S
C958 C957 1.392 . S
C958 C959 1.385 . S
C958 C960 1.478 . S
C959 H953 0.930 . S
C959 C955 1.400 . S
C959 C958 1.385 . S
C960 C958 1.478 . S
C960 C962 1.381 . S
C960 C966 1.383 . S
C961 C957 1.495 . S
C961 H967 0.959 . S
C961 H968 0.961 . S
C961 H969 0.960 . S
C962 C960 1.381 . S
C962 C963 1.394 . S
C962 H970 0.930 . S
C963 C962 1.394 . S
C963 C964 1.383 . S
C963 H971 0.929 . S
C964 C963 1.383 . S
C964 C965 1.377 . S
C965 H949 0.930 . S
C965 C964 1.377 . S
C965 C966 1.379 . S
C966 H950 0.931 . S
C966 C960 1.383 . S
C966 C965 1.379 . S
H967 C961 0.959 . S
H968 C961 0.961 . S
H969 C961 0.960 . S
H970 C962 0.930 . S
H971 C963 0.929 . S
H972 C980 0.929 . S
H973 C982 0.930 . S
H974 C984 0.930 . S
H975 C987 0.929 . S
H976 C990 0.930 . S
H977 C992 0.960 . S
H978 C992 0.960 . S
H979 C992 0.960 . S
C980 H972 0.929 . S
C980 C981 1.377 . S
C980 C982 1.384 . S
C981 C980 1.377 . S
C981 C987 1.390 . S
C982 H973 0.930 . S
C982 C980 1.384 . S
C982 C983 1.372 . S
C983 C982 1.372 . S
C983 C984 1.400 . S
C983 C988 1.490 . S
C984 H974 0.930 . S
C984 C983 1.400 . S
C984 C987 1.386 . S
H985 C1001 0.930 . S
H986 C1002 0.931 . S
C987 H975 0.929 . S
C987 C981 1.390 . S
C987 C984 1.386 . S
C988 C983 1.490 . S
C988 C990 1.395 . S
C988 C991 1.403 . S
H989 C995 0.930 . S
C990 H976 0.930 . S
C990 C988 1.395 . S
C990 C993 1.403 . S
C991 C988 1.403 . S
C991 C992 1.524 . S
C991 C995 1.400 . S
C992 H977 0.960 . S
C992 H978 0.960 . S
C992 H979 0.960 . S
C992 C991 1.524 . S
C993 C990 1.403 . S
C993 C994 1.392 . S
C993 C997 1.495 . S
C994 C993 1.392 . S
C994 C995 1.385 . S
C994 C996 1.478 . S
C995 H989 0.930 . S
C995 C991 1.400 . S
C995 C994 1.385 . S
C996 C994 1.478 . S
C996 C998 1.381 . S
C996 C1002 1.383 . S
C997 C993 1.495 . S
C997 H1003 0.959 . S
C997 H1004 0.961 . S
C997 H1005 0.960 . S
C998 C996 1.381 . S
C998 C999 1.394 . S
C998 H1006 0.930 . S
C999 C998 1.394 . S
C999 C1000 1.383 . S
C999 H1007 0.929 . S
C1000 C999 1.383 . S
C1000 C1001 1.377 . S
C1001 H985 0.930 . S
C1001 C1000 1.377 . S
C1001 C1002 1.379 . S
C1002 H986 0.931 . S
C1002 C996 1.383 . S
C1002 C1001 1.379 . S
H1003 C997 0.959 . S
H1004 C997 0.961 . S
H1005 C997 0.960 . S
H1006 C998 0.930 . S
H1007 C999 0.929 . S
H1008 C1016 0.929 . S
H1009 C1018 0.930 . S
H1010 C1020 0.930 . S
H1011 C1023 0.929 . S
H1012 C1026 0.930 . S
H1013 C1028 0.960 . S
H1014 C1028 0.960 . S
H1015 C1028 0.960 . S
C1016 H1008 0.929 . S
C1016 C1017 1.377 . S
C1016 C1018 1.384 . S
C1017 C1016 1.377 . S
C1017 C1023 1.390 . S
C1018 H1009 0.930 . S
C1018 C1016 1.384 . S
C1018 C1019 1.372 . S
C1019 C1018 1.372 . S
C1019 C1020 1.400 . S
C1019 C1024 1.490 . S
C1020 H1010 0.930 . S
C1020 C1019 1.400 . S
C1020 C1023 1.386 . S
H1021 C1037 0.930 . S
H1022 C1038 0.931 . S
C1023 H1011 0.929 . S
C1023 C1017 1.390 . S
C1023 C1020 1.386 . S
C1024 C1019 1.490 . S
C1024 C1026 1.395 . S
C1024 C1027 1.403 . S
H1025 C1031 0.930 . S
C1026 H1012 0.930 . S
C1026 C1024 1.395 . S
C1026 C1029 1.403 . S
C1027 C1024 1.403 . S
C1027 C1028 1.524 . S
C1027 C1031 1.400 . S
C1028 H1013 0.960 . S
C1028 H1014 0.960 . S
C1028 H1015 0.960 . S
C1028 C1027 1.524 . S
C1029 C1026 1.403 . S
C1029 C1030 1.392 . S
C1029 C1033 1.495 . S
C1030 C1029 1.392 . S
C1030 C1031 1.385 . S
C1030 C1032 1.478 . S
C1031 H1025 0.930 . S
C1031 C1027 1.400 . S
C1031 C1030 1.385 . S
C1032 C1030 1.478 . S
C1032 C1034 1.381 . S
C1032 C1038 1.383 . S
C1033 C1029 1.495 . S
C1033 H1039 0.959 . S
C1033 H1040 0.961 . S
C1033 H1041 0.960 . S
C1034 C1032 1.381 . S
C1034 C1035 1.394 . S
C1034 H1042 0.930 . S
C1035 C1034 1.394 . S
C1035 C1036 1.383 . S
C1035 H1043 0.929 . S
C1036 C1035 1.383 . S
C1036 C1037 1.377 . S
C1037 H1021 0.930 . S
C1037 C1036 1.377 . S
C1037 C1038 1.379 . S
C1038 H1022 0.931 . S
C1038 C1032 1.383 . S
C1038 C1037 1.379 . S
H1039 C1033 0.959 . S
H1040 C1033 0.961 . S
H1041 C1033 0.960 . S
H1042 C1034 0.930 . S
H1043 C1035 0.929 . S
H1044 C1052 0.929 . S
H1045 C1054 0.930 . S
H1046 C1056 0.930 . S
H1047 C1059 0.929 . S
H1048 C1062 0.930 . S
H1049 C1064 0.960 . S
H1050 C1064 0.960 . S
H1051 C1064 0.960 . S
C1052 H1044 0.929 . S
C1052 C1053 1.377 . S
C1052 C1054 1.384 . S
C1053 C1052 1.377 . S
C1053 C1059 1.390 . S
C1054 H1045 0.930 . S
C1054 C1052 1.384 . S
C1054 C1055 1.372 . S
C1055 C1054 1.372 . S
C1055 C1056 1.400 . S
C1055 C1060 1.490 . S
C1056 H1046 0.930 . S
C1056 C1055 1.400 . S
C1056 C1059 1.386 . S
H1057 C1073 0.930 . S
H1058 C1074 0.931 . S
C1059 H1047 0.929 . S
C1059 C1053 1.390 . S
C1059 C1056 1.386 . S
C1060 C1055 1.490 . S
C1060 C1062 1.395 . S
C1060 C1063 1.403 . S
H1061 C1067 0.930 . S
C1062 H1048 0.930 . S
C1062 C1060 1.395 . S
C1062 C1065 1.403 . S
C1063 C1060 1.403 . S
C1063 C1064 1.524 . S
C1063 C1067 1.400 . S
C1064 H1049 0.960 . S
C1064 H1050 0.960 . S
C1064 H1051 0.960 . S
C1064 C1063 1.524 . S
C1065 C1062 1.403 . S
C1065 C1066 1.392 . S
C1065 C1069 1.495 . S
C1066 C1065 1.392 . S
C1066 C1067 1.385 . S
C1066 C1068 1.478 . S
C1067 H1061 0.930 . S
C1067 C1063 1.400 . S
C1067 C1066 1.385 . S
C1068 C1066 1.478 . S
C1068 C1070 1.381 . S
C1068 C1074 1.383 . S
C1069 C1065 1.495 . S
C1069 H1075 0.959 . S
C1069 H1076 0.961 . S
C1069 H1077 0.960 . S
C1070 C1068 1.381 . S
C1070 C1071 1.394 . S
C1070 H1078 0.930 . S
C1071 C1070 1.394 . S
C1071 C1072 1.383 . S
C1071 H1079 0.929 . S
C1072 C1071 1.383 . S
C1072 C1073 1.377 . S
C1073 H1057 0.930 . S
C1073 C1072 1.377 . S
C1073 C1074 1.379 . S
C1074 H1058 0.931 . S
C1074 C1068 1.383 . S
C1074 C1073 1.379 . S
H1075 C1069 0.959 . S
H1076 C1069 0.961 . S
H1077 C1069 0.960 . S
H1078 C1070 0.930 . S
H1079 C1071 0.929 . S
H1080 C1088 0.929 . S
H1081 C1090 0.930 . S
H1082 C1092 0.930 1_655 S
H1083 C1095 0.929 . S
H1084 C1098 0.930 . S
H1085 C1100 0.960 . S
H1086 C1100 0.960 . S
H1087 C1100 0.960 . S
C1088 H1080 0.929 . S
C1088 C1089 1.377 . S
C1088 C1090 1.384 . S
C1089 C1088 1.377 . S
C1089 C1095 1.390 . S
C1090 H1081 0.930 . S
C1090 C1088 1.384 . S
C1090 C1091 1.372 . S
C1091 C1090 1.372 . S
C1091 C1092 1.400 . S
C1091 C1096 1.490 . S
C1092 H1082 0.930 1_455 S
C1092 C1091 1.400 . S
C1092 C1095 1.386 . S
H1093 C1109 0.930 . S
H1094 C1110 0.931 . S
C1095 H1083 0.929 . S
C1095 C1089 1.390 . S
C1095 C1092 1.386 . S
C1096 C1091 1.490 . S
C1096 C1098 1.395 1_554 S
C1096 C1099 1.403 1_455 S
H1097 C1103 0.930 . S
C1098 H1084 0.930 . S
C1098 C1096 1.395 1_556 S
C1098 C1101 1.403 . S
C1099 C1096 1.403 1_655 S
C1099 C1100 1.524 . S
C1099 C1103 1.400 . S
C1100 H1085 0.960 . S
C1100 H1086 0.960 . S
C1100 H1087 0.960 . S
C1100 C1099 1.524 . S
C1101 C1098 1.403 . S
C1101 C1102 1.392 1_455 S
C1101 C1105 1.495 . S
C1102 C1101 1.392 1_655 S
C1102 C1103 1.385 1_556 S
C1102 C1104 1.478 . S
C1103 H1097 0.930 . S
C1103 C1099 1.400 . S
C1103 C1102 1.385 1_554 S
C1104 C1102 1.478 . S
C1104 C1106 1.381 . S
C1104 C1110 1.383 . S
C1105 C1101 1.495 . S
C1105 H1111 0.959 . S
C1105 H1112 0.961 . S
C1105 H1113 0.960 . S
C1106 C1104 1.381 . S
C1106 C1107 1.394 . S
C1106 H1114 0.930 1_655 S
C1107 C1106 1.394 . S
C1107 C1108 1.383 . S
C1107 H1115 0.929 . S
C1108 C1107 1.383 . S
C1108 C1109 1.377 . S
C1109 H1093 0.930 . S
C1109 C1108 1.377 . S
C1109 C1110 1.379 . S
C1110 H1094 0.931 . S
C1110 C1104 1.383 . S
C1110 C1109 1.379 . S
H1111 C1105 0.959 . S
H1112 C1105 0.961 . S
H1113 C1105 0.960 . S
H1114 C1106 0.930 1_455 S
H1115 C1107 0.929 . S
H1116 C1124 0.929 . S
H1117 C1126 0.930 . S
H1118 C1128 0.930 . S
H1119 C1131 0.929 . S
H1120 C1134 0.930 . S
H1121 C1136 0.960 . S
H1122 C1136 0.960 . S
H1123 C1136 0.960 . S
C1124 H1116 0.929 . S
C1124 C1125 1.377 . S
C1124 C1126 1.384 . S
C1125 C1124 1.377 . S
C1125 C1131 1.390 . S
C1126 H1117 0.930 . S
C1126 C1124 1.384 . S
C1126 C1127 1.372 . S
C1127 C1126 1.372 . S
C1127 C1128 1.400 . S
C1127 C1132 1.490 . S
C1128 H1118 0.930 . S
C1128 C1127 1.400 . S
C1128 C1131 1.386 . S
H1129 C1145 0.930 . S
H1130 C1146 0.931 . S
C1131 H1119 0.929 . S
C1131 C1125 1.390 . S
C1131 C1128 1.386 . S
C1132 C1127 1.490 . S
C1132 C1134 1.395 1_554 S
C1132 C1135 1.403 . S
H1133 C1139 0.938 . S
C1134 H1120 0.930 . S
C1134 C1132 1.395 1_556 S
C1134 C1137 1.403 . S
C1135 C1132 1.403 . S
C1135 C1136 1.524 . S
C1135 C1139 1.413 . S
C1136 H1121 0.960 . S
C1136 H1122 0.960 . S
C1136 H1123 0.960 . S
C1136 C1135 1.524 . S
C1137 C1134 1.403 . S
C1137 C1138 1.392 . S
C1137 C1141 1.495 . S
C1138 C1137 1.392 . S
C1138 C1139 1.365 1_556 S
C1138 C1140 1.478 . S
C1139 H1133 0.938 . S
C1139 C1135 1.413 . S
C1139 C1138 1.365 1_554 S
C1140 C1138 1.478 . S
C1140 C1142 1.381 . S
C1140 C1146 1.383 . S
C1141 C1137 1.495 . S
C1141 H1147 0.959 . S
C1141 H1148 0.961 . S
C1141 H1149 0.960 . S
C1142 C1140 1.381 . S
C1142 C1143 1.394 . S
C1142 H1150 0.930 . S
C1143 C1142 1.394 . S
C1143 C1144 1.383 . S
C1143 H1151 0.929 . S
C1144 C1143 1.383 . S
C1144 C1145 1.377 . S
C1145 H1129 0.930 . S
C1145 C1144 1.377 . S
C1145 C1146 1.379 . S
C1146 H1130 0.931 . S
C1146 C1140 1.383 . S
C1146 C1145 1.379 . S
H1147 C1141 0.959 . S
H1148 C1141 0.961 . S
H1149 C1141 0.960 . S
H1150 C1142 0.930 . S
H1151 C1143 0.929 . S
H1152 C1160 0.929 . S
H1153 C1162 0.930 . S
H1154 C1164 0.930 . S
H1155 C1167 0.929 . S
H1156 C1170 0.930 . S
H1157 C1172 0.960 . S
H1158 C1172 0.960 . S
H1159 C1172 0.960 1_554 S
C1160 H1152 0.929 . S
C1160 C1161 1.377 . S
C1160 C1162 1.384 . S
C1161 C1160 1.377 . S
C1161 C1167 1.390 . S
C1162 H1153 0.930 . S
C1162 C1160 1.384 . S
C1162 C1163 1.372 . S
C1163 C1162 1.372 . S
C1163 C1164 1.400 . S
C1163 C1168 1.490 . S
C1164 H1154 0.930 . S
C1164 C1163 1.400 . S
C1164 C1167 1.386 . S
H1165 C1181 0.930 . S
H1166 C1182 0.931 1_554 S
C1167 H1155 0.929 . S
C1167 C1161 1.390 . S
C1167 C1164 1.386 . S
C1168 C1163 1.490 . S
C1168 C1170 1.395 1_565 S
C1168 C1171 1.382 1_554 S
H1169 C1175 0.930 . S
C1170 H1156 0.930 . S
C1170 C1168 1.395 1_545 S
C1170 C1173 1.403 . S
C1171 C1168 1.382 1_556 S
C1171 C1172 1.533 . S
C1171 C1175 1.414 . S
C1172 H1157 0.960 . S
C1172 H1158 0.960 . S
C1172 H1159 0.960 1_556 S
C1172 C1171 1.533 . S
C1173 C1170 1.403 . S
C1173 C1174 1.392 1_554 S
C1173 C1177 1.495 . S
C1174 C1173 1.392 1_556 S
C1174 C1175 1.385 1_545 S
C1174 C1176 1.478 . S
C1175 H1169 0.930 . S
C1175 C1171 1.414 . S
C1175 C1174 1.385 1_565 S
C1176 C1174 1.478 . S
C1176 C1178 1.381 . S
C1176 C1182 1.383 . S
C1177 C1173 1.495 . S
C1177 H1183 0.959 . S
C1177 H1184 0.961 . S
C1177 H1185 0.960 1_554 S
C1178 C1176 1.381 . S
C1178 C1179 1.394 . S
C1178 H1186 0.930 . S
C1179 C1178 1.394 . S
C1179 C1180 1.383 . S
C1179 H1187 0.929 . S
C1180 C1179 1.383 . S
C1180 C1181 1.377 . S
C1181 H1165 0.930 . S
C1181 C1180 1.377 . S
C1181 C1182 1.379 . S
C1182 H1166 0.931 1_556 S
C1182 C1176 1.383 . S
C1182 C1181 1.379 . S
H1183 C1177 0.959 . S
H1184 C1177 0.961 . S
H1185 C1177 0.960 1_556 S
H1186 C1178 0.930 . S
H1187 C1179 0.929 . S
H1188 C1196 0.929 . S
H1189 C1198 0.930 . S
H1190 C1200 0.930 . S
H1191 C1203 0.929 . S
H1192 C1206 0.930 . S
H1193 C1208 0.960 . S
H1194 C1208 0.960 . S
H1195 C1208 0.960 . S
C1196 H1188 0.929 . S
C1196 C1197 1.377 . S
C1196 C1198 1.384 . S
C1197 C1196 1.377 . S
C1197 C1203 1.390 . S
C1198 H1189 0.930 . S
C1198 C1196 1.384 . S
C1198 C1199 1.372 . S
C1199 C1198 1.372 . S
C1199 C1200 1.400 . S
C1199 C1204 1.490 . S
C1200 H1190 0.930 . S
C1200 C1199 1.400 . S
C1200 C1203 1.386 . S
H1201 C1217 0.930 . S
H1202 C1218 0.931 . S
C1203 H1191 0.929 . S
C1203 C1197 1.390 . S
C1203 C1200 1.386 . S
C1204 C1199 1.490 . S
C1204 C1206 1.395 . S
C1204 C1207 1.403 1_565 S
H1205 C1211 0.930 . S
C1206 H1192 0.930 . S
C1206 C1204 1.395 . S
C1206 C1209 1.403 . S
C1207 C1204 1.403 1_545 S
C1207 C1208 1.524 . S
C1207 C1211 1.400 . S
C1208 H1193 0.960 . S
C1208 H1194 0.960 . S
C1208 H1195 0.960 . S
C1208 C1207 1.524 . S
C1209 C1206 1.403 . S
C1209 C1210 1.392 1_565 S
C1209 C1213 1.495 . S
C1210 C1209 1.392 1_545 S
C1210 C1211 1.385 . S
C1210 C1212 1.478 . S
C1211 H1205 0.930 . S
C1211 C1207 1.400 . S
C1211 C1210 1.385 . S
C1212 C1210 1.478 . S
C1212 C1214 1.381 . S
C1212 C1218 1.383 . S
C1213 C1209 1.495 . S
C1213 H1219 0.959 . S
C1213 H1220 0.961 . S
C1213 H1221 0.960 . S
C1214 C1212 1.381 . S
C1214 C1215 1.394 . S
C1214 H1222 0.930 1_545 S
C1215 C1214 1.394 . S
C1215 C1216 1.383 . S
C1215 H1223 0.929 . S
C1216 C1215 1.383 . S
C1216 C1217 1.377 . S
C1217 H1201 0.930 . S
C1217 C1216 1.377 . S
C1217 C1218 1.379 . S
C1218 H1202 0.931 . S
C1218 C1212 1.383 . S
C1218 C1217 1.379 . S
H1219 C1213 0.959 . S
H1220 C1213 0.961 . S
H1221 C1213 0.960 . S
H1222 C1214 0.930 1_565 S
H1223 C1215 0.929 . S
H1224 C1232 0.929 . S
H1225 C1234 0.937 . S
H1226 C1236 0.930 . S
H1227 C1239 0.929 . S
H1228 C1242 0.930 . S
H1229 C1244 0.960 1_455 S
H1230 C1244 0.957 1_455 S
H1231 C1244 0.962 . S
C1232 H1224 0.929 . S
C1232 C1233 1.377 . S
C1232 C1234 1.384 . S
C1233 C1232 1.377 . S
C1233 C1239 1.390 . S
C1234 H1225 0.937 . S
C1234 C1232 1.384 . S
C1234 C1235 1.372 . S
C1235 C1234 1.372 . S
C1235 C1236 1.400 . S
C1235 C1240 1.490 . S
C1236 H1226 0.930 . S
C1236 C1235 1.400 . S
C1236 C1239 1.386 . S
H1237 C1253 0.930 . S
H1238 C1254 0.931 1_655 S
C1239 H1227 0.929 . S
C1239 C1233 1.390 . S
C1239 C1236 1.386 . S
C1240 C1235 1.490 . S
C1240 C1242 1.395 . S
C1240 C1243 1.402 . S
H1241 C1247 0.930 . S
C1242 H1228 0.930 . S
C1242 C1240 1.395 . S
C1242 C1245 1.403 1_655 S
C1243 C1240 1.402 . S
C1243 C1244 1.523 . S
C1243 C1247 1.401 1_655 S
C1244 H1229 0.960 1_655 S
C1244 H1230 0.957 1_655 S
C1244 H1231 0.962 . S
C1244 C1243 1.523 . S
C1245 C1242 1.403 1_455 S
C1245 C1246 1.392 . S
C1245 C1249 1.495 . S
C1246 C1245 1.392 . S
C1246 C1247 1.385 . S
C1246 C1248 1.478 . S
C1247 H1241 0.930 . S
C1247 C1243 1.401 1_455 S
C1247 C1246 1.385 . S
C1248 C1246 1.478 . S
C1248 C1250 1.381 . S
C1248 C1254 1.383 . S
C1249 C1245 1.495 . S
C1249 H1255 0.959 1_455 S
C1249 H1256 0.961 1_455 S
C1249 H1257 0.960 . S
C1250 C1248 1.381 . S
C1250 C1251 1.394 . S
C1250 H1258 0.930 . S
C1251 C1250 1.394 . S
C1251 C1252 1.383 . S
C1251 H1259 0.929 . S
C1252 C1251 1.383 . S
C1252 C1253 1.377 . S
C1253 H1237 0.930 . S
C1253 C1252 1.377 . S
C1253 C1254 1.379 . S
C1254 H1238 0.931 1_455 S
C1254 C1248 1.383 . S
C1254 C1253 1.379 . S
H1255 C1249 0.959 1_655 S
H1256 C1249 0.961 1_655 S
H1257 C1249 0.960 . S
H1258 C1250 0.930 . S
H1259 C1251 0.929 . S
H1260 C1268 0.929 . S
H1261 C1270 0.930 . S
H1262 C1272 0.930 . S
H1263 C1275 0.929 . S
H1264 C1278 0.930 . S
H1265 C1280 0.960 . S
H1266 C1280 0.960 . S
H1267 C1280 0.960 . S
C1268 H1260 0.929 . S
C1268 C1269 1.377 . S
C1268 C1270 1.384 . S
C1269 C1268 1.377 . S
C1269 C1275 1.390 . S
C1270 H1261 0.930 . S
C1270 C1268 1.384 . S
C1270 C1271 1.372 . S
C1271 C1270 1.372 . S
C1271 C1272 1.400 . S
C1271 C1276 1.490 . S
C1272 H1262 0.930 . S
C1272 C1271 1.400 . S
C1272 C1275 1.386 . S
H1273 C1289 0.930 . S
H1274 C1290 0.931 . S
C1275 H1263 0.929 . S
C1275 C1269 1.390 . S
C1275 C1272 1.386 . S
C1276 C1271 1.490 . S
C1276 C1278 1.395 . S
C1276 C1279 1.403 . S
H1277 C1283 0.930 . S
C1278 H1264 0.930 . S
C1278 C1276 1.395 . S
C1278 C1281 1.403 . S
C1279 C1276 1.403 . S
C1279 C1280 1.524 . S
C1279 C1283 1.400 . S
C1280 H1265 0.960 . S
C1280 H1266 0.960 . S
C1280 H1267 0.960 . S
C1280 C1279 1.524 . S
C1281 C1278 1.403 . S
C1281 C1282 1.392 . S
C1281 C1285 1.495 . S
C1282 C1281 1.392 . S
C1282 C1283 1.385 . S
C1282 C1284 1.478 . S
C1283 H1277 0.930 . S
C1283 C1279 1.400 . S
C1283 C1282 1.385 . S
C1284 C1282 1.478 . S
C1284 C1286 1.381 . S
C1284 C1290 1.383 . S
C1285 C1281 1.495 . S
C1285 H1291 0.959 . S
C1285 H1292 0.961 . S
C1285 H1293 0.960 . S
C1286 C1284 1.381 . S
C1286 C1287 1.394 . S
C1286 H1294 0.930 . S
C1287 C1286 1.394 . S
C1287 C1288 1.383 . S
C1287 H1295 0.929 . S
C1288 C1287 1.383 . S
C1288 C1289 1.377 . S
C1289 H1273 0.930 . S
C1289 C1288 1.377 . S
C1289 C1290 1.379 . S
C1290 H1274 0.931 . S
C1290 C1284 1.383 . S
C1290 C1289 1.379 . S
H1291 C1285 0.959 . S
H1292 C1285 0.961 . S
H1293 C1285 0.960 . S
H1294 C1286 0.930 . S
H1295 C1287 0.929 . S
C441 C4 0.456 . S
C460 C254 0.440 . S
C477 C40 0.444 . S
C496 C290 0.405 . S
C513 C86 0.515 . S
C532 C218 0.524 . S
C549 C398 0.503 . S
C568 C122 0.595 . S
C585 C148 0.450 . S
C604 C326 0.399 . S
C621 C362 0.476 . S
C640 C184 0.416 . S
C657 C38 0.407 . S
C676 C220 0.421 . S
C693 C256 0.416 . S
C712 C75 0.386 . S
C729 C2 0.519 . S
C748 C292 0.536 . S
C765 C328 0.525 . S
C784 C182 0.563 . S
C801 C364 0.399 . S
C820 C111 0.360 . S
C837 C146 0.416 . S
C856 C400 0.459 . S
C873 C194 1.491 . S
C892 C14 1.471 . S
C909 C50 1.434 . S
C928 C112 1.517 . S
C945 C76 1.533 . S
C964 C158 1.436 . S
C981 C230 1.437 . S
C1000 C410 1.406 . S
C1017 C266 1.451 . S
C1036 C338 1.416 . S
C1053 C302 1.449 . S
C1072 C374 1.416 . S
C1089 C3 1.637 . S
C1108 C219 1.635 . S
C1125 C39 1.599 . S
C1144 C255 1.592 . S
C1161 C74 1.626 . S
C1180 C291 1.653 . S
C1197 C110 1.628 . S
C1216 C327 1.647 . S
C1233 C363 1.593 . S
C1252 C147 1.603 . S
C1269 C183 1.635 . S
C1288 C399 1.621 . S
