# Generated by pormake.
# Topology bva, (3)-cn, num edge types: 1
# Building blocks:
#     Node 0, Type 0, BuildingBlock: OLANEW_clean_sbu_2, # of connection points: 3
#     Node 1, Type 0, BuildingBlock: OLANEW_clean_sbu_2, # of connection points: 3
#     Node 2, Type 0, BuildingBlock: OLANEW_clean_sbu_2, # of connection points: 3
#     Node 3, Type 0, BuildingBlock: OLANEW_clean_sbu_2, # of connection points: 3
#     Node 4, Type 0, BuildingBlock: OLANEW_clean_sbu_2, # of connection points: 3
#     Node 5, Type 0, BuildingBlock: OLANEW_clean_sbu_2, # of connection points: 3
#     Node 6, Type 0, BuildingBlock: OLANEW_clean_sbu_2, # of connection points: 3
#     Node 7, Type 0, BuildingBlock: OLANEW_clean_sbu_2, # of connection points: 3
#     Node 8, Type 0, BuildingBlock: OLANEW_clean_sbu_2, # of connection points: 3
#     Node 9, Type 0, BuildingBlock: OLANEW_clean_sbu_2, # of connection points: 3
#     Node 10, Type 0, BuildingBlock: OLANEW_clean_sbu_2, # of connection points: 3
#     Node 11, Type 0, BuildingBlock: OLANEW_clean_sbu_2, # of connection points: 3
#     Node 12, Type 0, BuildingBlock: OLANEW_clean_sbu_2, # of connection points: 3
#     Node 13, Type 0, BuildingBlock: OLANEW_clean_sbu_2, # of connection points: 3
#     Node 14, Type 0, BuildingBlock: OLANEW_clean_sbu_2, # of connection points: 3
#     Node 15, Type 0, BuildingBlock: OLANEW_clean_sbu_2, # of connection points: 3
#     Node 16, Type 0, BuildingBlock: OLANEW_clean_sbu_2, # of connection points: 3
#     Node 17, Type 0, BuildingBlock: OLANEW_clean_sbu_2, # of connection points: 3
#     Node 18, Type 0, BuildingBlock: OLANEW_clean_sbu_2, # of connection points: 3
#     Node 19, Type 0, BuildingBlock: OLANEW_clean_sbu_2, # of connection points: 3
#     Node 20, Type 0, BuildingBlock: OLANEW_clean_sbu_2, # of connection points: 3
#     Node 21, Type 0, BuildingBlock: OLANEW_clean_sbu_2, # of connection points: 3
#     Node 22, Type 0, BuildingBlock: OLANEW_clean_sbu_2, # of connection points: 3
#     Node 23, Type 0, BuildingBlock: OLANEW_clean_sbu_2, # of connection points: 3
#     Node 24, Type 0, BuildingBlock: OLANEW_clean_sbu_2, # of connection points: 3
#     Node 25, Type 0, BuildingBlock: OLANEW_clean_sbu_2, # of connection points: 3
#     Node 26, Type 0, BuildingBlock: OLANEW_clean_sbu_2, # of connection points: 3
#     Node 27, Type 0, BuildingBlock: OLANEW_clean_sbu_2, # of connection points: 3
#     Node 28, Type 0, BuildingBlock: OLANEW_clean_sbu_2, # of connection points: 3
#     Node 29, Type 0, BuildingBlock: OLANEW_clean_sbu_2, # of connection points: 3
#     Node 30, Type 0, BuildingBlock: OLANEW_clean_sbu_2, # of connection points: 3
#     Node 31, Type 0, BuildingBlock: OLANEW_clean_sbu_2, # of connection points: 3
#     Node 32, Type 0, BuildingBlock: OLANEW_clean_sbu_2, # of connection points: 3
#     Node 33, Type 0, BuildingBlock: OLANEW_clean_sbu_2, # of connection points: 3
#     Node 34, Type 0, BuildingBlock: OLANEW_clean_sbu_2, # of connection points: 3
#     Node 35, Type 0, BuildingBlock: OLANEW_clean_sbu_2, # of connection points: 3
#     Node 36, Type 0, BuildingBlock: OLANEW_clean_sbu_2, # of connection points: 3
#     Node 37, Type 0, BuildingBlock: OLANEW_clean_sbu_2, # of connection points: 3
#     Node 38, Type 0, BuildingBlock: OLANEW_clean_sbu_2, # of connection points: 3
#     Node 39, Type 0, BuildingBlock: OLANEW_clean_sbu_2, # of connection points: 3
#     Node 40, Type 0, BuildingBlock: OLANEW_clean_sbu_2, # of connection points: 3
#     Node 41, Type 0, BuildingBlock: OLANEW_clean_sbu_2, # of connection points: 3
#     Node 42, Type 0, BuildingBlock: OLANEW_clean_sbu_2, # of connection points: 3
#     Node 43, Type 0, BuildingBlock: OLANEW_clean_sbu_2, # of connection points: 3
#     Node 44, Type 0, BuildingBlock: OLANEW_clean_sbu_2, # of connection points: 3
#     Node 45, Type 0, BuildingBlock: OLANEW_clean_sbu_2, # of connection points: 3
#     Node 46, Type 0, BuildingBlock: OLANEW_clean_sbu_2, # of connection points: 3
#     Node 47, Type 0, BuildingBlock: OLANEW_clean_sbu_2, # of connection points: 3
#     Edge 48, Type (0, 0), BuildingBlock: XIVTED_clean_linker_0, # of connection points: 2
#     Edge 49, Type (0, 0), BuildingBlock: XIVTED_clean_linker_0, # of connection points: 2
#     Edge 50, Type (0, 0), BuildingBlock: XIVTED_clean_linker_0, # of connection points: 2
#     Edge 51, Type (0, 0), BuildingBlock: XIVTED_clean_linker_0, # of connection points: 2
#     Edge 52, Type (0, 0), BuildingBlock: XIVTED_clean_linker_0, # of connection points: 2
#     Edge 53, Type (0, 0), BuildingBlock: XIVTED_clean_linker_0, # of connection points: 2
#     Edge 54, Type (0, 0), BuildingBlock: XIVTED_clean_linker_0, # of connection points: 2
#     Edge 55, Type (0, 0), BuildingBlock: XIVTED_clean_linker_0, # of connection points: 2
#     Edge 56, Type (0, 0), BuildingBlock: XIVTED_clean_linker_0, # of connection points: 2
#     Edge 57, Type (0, 0), BuildingBlock: XIVTED_clean_linker_0, # of connection points: 2
#     Edge 58, Type (0, 0), BuildingBlock: XIVTED_clean_linker_0, # of connection points: 2
#     Edge 59, Type (0, 0), BuildingBlock: XIVTED_clean_linker_0, # of connection points: 2
#     Edge 60, Type (0, 0), BuildingBlock: XIVTED_clean_linker_0, # of connection points: 2
#     Edge 61, Type (0, 0), BuildingBlock: XIVTED_clean_linker_0, # of connection points: 2
#     Edge 62, Type (0, 0), BuildingBlock: XIVTED_clean_linker_0, # of connection points: 2
#     Edge 63, Type (0, 0), BuildingBlock: XIVTED_clean_linker_0, # of connection points: 2
#     Edge 64, Type (0, 0), BuildingBlock: XIVTED_clean_linker_0, # of connection points: 2
#     Edge 65, Type (0, 0), BuildingBlock: XIVTED_clean_linker_0, # of connection points: 2
#     Edge 66, Type (0, 0), BuildingBlock: XIVTED_clean_linker_0, # of connection points: 2
#     Edge 67, Type (0, 0), BuildingBlock: XIVTED_clean_linker_0, # of connection points: 2
#     Edge 68, Type (0, 0), BuildingBlock: XIVTED_clean_linker_0, # of connection points: 2
#     Edge 69, Type (0, 0), BuildingBlock: XIVTED_clean_linker_0, # of connection points: 2
#     Edge 70, Type (0, 0), BuildingBlock: XIVTED_clean_linker_0, # of connection points: 2
#     Edge 71, Type (0, 0), BuildingBlock: XIVTED_clean_linker_0, # of connection points: 2
#     Edge 72, Type (0, 0), BuildingBlock: XIVTED_clean_linker_0, # of connection points: 2
#     Edge 73, Type (0, 0), BuildingBlock: XIVTED_clean_linker_0, # of connection points: 2
#     Edge 74, Type (0, 0), BuildingBlock: XIVTED_clean_linker_0, # of connection points: 2
#     Edge 75, Type (0, 0), BuildingBlock: XIVTED_clean_linker_0, # of connection points: 2
#     Edge 76, Type (0, 0), BuildingBlock: XIVTED_clean_linker_0, # of connection points: 2
#     Edge 77, Type (0, 0), BuildingBlock: XIVTED_clean_linker_0, # of connection points: 2
#     Edge 78, Type (0, 0), BuildingBlock: XIVTED_clean_linker_0, # of connection points: 2
#     Edge 79, Type (0, 0), BuildingBlock: XIVTED_clean_linker_0, # of connection points: 2
#     Edge 80, Type (0, 0), BuildingBlock: XIVTED_clean_linker_0, # of connection points: 2
#     Edge 81, Type (0, 0), BuildingBlock: XIVTED_clean_linker_0, # of connection points: 2
#     Edge 82, Type (0, 0), BuildingBlock: XIVTED_clean_linker_0, # of connection points: 2
#     Edge 83, Type (0, 0), BuildingBlock: XIVTED_clean_linker_0, # of connection points: 2
#     Edge 84, Type (0, 0), BuildingBlock: XIVTED_clean_linker_0, # of connection points: 2
#     Edge 85, Type (0, 0), BuildingBlock: XIVTED_clean_linker_0, # of connection points: 2
#     Edge 86, Type (0, 0), BuildingBlock: XIVTED_clean_linker_0, # of connection points: 2
#     Edge 87, Type (0, 0), BuildingBlock: XIVTED_clean_linker_0, # of connection points: 2
#     Edge 88, Type (0, 0), BuildingBlock: XIVTED_clean_linker_0, # of connection points: 2
#     Edge 89, Type (0, 0), BuildingBlock: XIVTED_clean_linker_0, # of connection points: 2
#     Edge 90, Type (0, 0), BuildingBlock: XIVTED_clean_linker_0, # of connection points: 2
#     Edge 91, Type (0, 0), BuildingBlock: XIVTED_clean_linker_0, # of connection points: 2
#     Edge 92, Type (0, 0), BuildingBlock: XIVTED_clean_linker_0, # of connection points: 2
#     Edge 93, Type (0, 0), BuildingBlock: XIVTED_clean_linker_0, # of connection points: 2
#     Edge 94, Type (0, 0), BuildingBlock: XIVTED_clean_linker_0, # of connection points: 2
#     Edge 95, Type (0, 0), BuildingBlock: XIVTED_clean_linker_0, # of connection points: 2
#     Edge 96, Type (0, 0), BuildingBlock: XIVTED_clean_linker_0, # of connection points: 2
#     Edge 97, Type (0, 0), BuildingBlock: XIVTED_clean_linker_0, # of connection points: 2
#     Edge 98, Type (0, 0), BuildingBlock: XIVTED_clean_linker_0, # of connection points: 2
#     Edge 99, Type (0, 0), BuildingBlock: XIVTED_clean_linker_0, # of connection points: 2
#     Edge 100, Type (0, 0), BuildingBlock: XIVTED_clean_linker_0, # of connection points: 2
#     Edge 101, Type (0, 0), BuildingBlock: XIVTED_clean_linker_0, # of connection points: 2
#     Edge 102, Type (0, 0), BuildingBlock: XIVTED_clean_linker_0, # of connection points: 2
#     Edge 103, Type (0, 0), BuildingBlock: XIVTED_clean_linker_0, # of connection points: 2
#     Edge 104, Type (0, 0), BuildingBlock: XIVTED_clean_linker_0, # of connection points: 2
#     Edge 105, Type (0, 0), BuildingBlock: XIVTED_clean_linker_0, # of connection points: 2
#     Edge 106, Type (0, 0), BuildingBlock: XIVTED_clean_linker_0, # of connection points: 2
#     Edge 107, Type (0, 0), BuildingBlock: XIVTED_clean_linker_0, # of connection points: 2
#     Edge 108, Type (0, 0), BuildingBlock: XIVTED_clean_linker_0, # of connection points: 2
#     Edge 109, Type (0, 0), BuildingBlock: XIVTED_clean_linker_0, # of connection points: 2
#     Edge 110, Type (0, 0), BuildingBlock: XIVTED_clean_linker_0, # of connection points: 2
#     Edge 111, Type (0, 0), BuildingBlock: XIVTED_clean_linker_0, # of connection points: 2
#     Edge 112, Type (0, 0), BuildingBlock: XIVTED_clean_linker_0, # of connection points: 2
#     Edge 113, Type (0, 0), BuildingBlock: XIVTED_clean_linker_0, # of connection points: 2
#     Edge 114, Type (0, 0), BuildingBlock: XIVTED_clean_linker_0, # of connection points: 2
#     Edge 115, Type (0, 0), BuildingBlock: XIVTED_clean_linker_0, # of connection points: 2
#     Edge 116, Type (0, 0), BuildingBlock: XIVTED_clean_linker_0, # of connection points: 2
#     Edge 117, Type (0, 0), BuildingBlock: XIVTED_clean_linker_0, # of connection points: 2
#     Edge 118, Type (0, 0), BuildingBlock: XIVTED_clean_linker_0, # of connection points: 2
#     Edge 119, Type (0, 0), BuildingBlock: XIVTED_clean_linker_0, # of connection points: 2
# Relax obj value: 0.051
# Max RMSD: 0.071
# Mean RMSD: 0.036
data_MOF--net-bva--node1-OLANEW_clean_sbu_2--edge1-XIVTED_clean_linker_0
_symmetry_space_group_name_H-M    P1
_symmetry_Int_Tables_number       1
_symmetry_cell_setting            triclinic
loop_
_symmetry_equiv_pos_as_xyz
'x, y, z'
_cell_length_a     62.475443
_cell_length_b     63.105106
_cell_length_c     63.422856
_cell_angle_alpha  104.17267
_cell_angle_beta   90.007386
_cell_angle_gamma 89.998707
loop_
_atom_site_label
_atom_site_type_symbol
_atom_site_fract_x
_atom_site_fract_y
_atom_site_fract_z
_atom_type_partial_charge
O0 O 0.21103 0.22836 0.48794 0.0
Cd1 Cd 0.22404 0.19073 0.47568 0.0
O2 O 0.18585 0.22 0.50874 0.0
Cd3 Cd 0.1881 0.18559 0.4916 0.0
O4 O 0.1778 0.16255 0.46171 0.0
C5 C 0.15857 0.15578 0.46051 0.0
O6 O 0.14635 0.16135 0.47786 0.0
C7 C 0.19639 0.23434 0.5021 0.0
C8 C 0.26807 0.19008 0.46808 0.0
O9 O 0.25465 0.18924 0.45261 0.0
O10 O 0.26068 0.19102 0.48714 0.0
O11 O 0.27631 0.47762 0.76679 0.0
Cd12 Cd 0.31341 0.47355 0.77751 0.0
O13 O 0.28467 0.47246 0.73222 0.0
Cd14 Cd 0.31857 0.47829 0.73957 0.0
O15 O 0.34273 0.50408 0.74664 0.0
C16 C 0.33521 0.52298 0.74744 0.0
O17 O 0.3146 0.52493 0.74421 0.0
C18 C 0.27055 0.475 0.74707 0.0
C19 C 0.31711 0.43851 0.79691 0.0
O20 O 0.3182 0.43555 0.77621 0.0
O21 O 0.31449 0.45806 0.80845 0.0
O22 O 0.77569 0.93808 0.57008 0.0
Cd23 Cd 0.78079 0.97638 0.57013 0.0
O24 O 0.74633 0.93587 0.55074 0.0
Cd25 Cd 0.71982 0.91996 0.5301 0.0
O26 O 0.69053 0.90593 0.51342 0.0
C27 C 0.68844 0.88542 0.50593 0.0
O28 O 0.70435 0.87247 0.508 0.0
C29 C 0.76049 0.92662 0.55985 0.0
C30 C 0.81372 0.97732 0.54068 0.0
O31 O 0.81771 0.97953 0.56093 0.0
O32 O 0.79411 0.97548 0.53455 0.0
O33 O 0.61692 0.47937 0.78569 0.0
Cd34 Cd 0.57908 0.48918 0.78638 0.0
O35 O 0.61456 0.44511 0.76683 0.0
Cd36 Cd 0.5797 0.44248 0.76612 0.0
O37 O 0.55253 0.42034 0.76481 0.0
C38 C 0.54944 0.40576 0.74731 0.0
O39 O 0.56159 0.40571 0.73038 0.0
C40 C 0.62584 0.46141 0.77638 0.0
C41 C 0.57695 0.53457 0.80161 0.0
O42 O 0.57496 0.52206 0.81465 0.0
O43 O 0.5792 0.5256 0.7813 0.0
O44 O 0.22139 0.79222 0.5157 0.0
Cd45 Cd 0.23448 0.82938 0.53065 0.0
O46 O 0.21586 0.78605 0.54793 0.0
Cd47 Cd 0.21745 0.82035 0.56549 0.0
O48 O 0.19404 0.84286 0.58447 0.0
C49 C 0.17683 0.84516 0.57456 0.0
O50 O 0.17539 0.8358 0.55368 0.0
C51 C 0.21637 0.77919 0.52734 0.0
C52 C 0.27782 0.82841 0.54105 0.0
O53 O 0.26328 0.82829 0.55528 0.0
O54 O 0.27187 0.82928 0.52194 0.0
O55 O 0.59223 0.50114 0.16226 0.0
Cd56 Cd 0.5551 0.48994 0.15423 0.0
O57 O 0.58687 0.50381 0.19706 0.0
Cd58 Cd 0.55264 0.50945 0.19415 0.0
O59 O 0.5294 0.53593 0.19706 0.0
C60 C 0.53486 0.55375 0.2102 0.0
O61 O 0.55284 0.5543 0.22108 0.0
C62 C 0.59965 0.50321 0.18132 0.0
C63 C 0.55487 0.44436 0.1449 0.0
O64 O 0.55294 0.45587 0.16448 0.0
O65 O 0.55612 0.4544 0.12965 0.0
O66 O 0.76079 0.05198 0.42528 0.0
Cd67 Cd 0.77019 0.01383 0.42227 0.0
O68 O 0.73196 0.04886 0.44409 0.0
Cd69 Cd 0.70254 0.06161 0.46158 0.0
O70 O 0.67302 0.07639 0.47713 0.0
C71 C 0.67295 0.09606 0.4884 0.0
O72 O 0.69089 0.10726 0.49081 0.0
C73 C 0.74456 0.06067 0.43607 0.0
C74 C 0.80555 0.01346 0.44902 0.0
O75 O 0.80797 0.01282 0.4288 0.0
O76 O 0.78643 0.01361 0.45637 0.0
O77 O 0.27921 0.51286 0.19365 0.0
Cd78 Cd 0.31623 0.51519 0.18189 0.0
O79 O 0.28887 0.51449 0.22735 0.0
Cd80 Cd 0.32172 0.50486 0.21798 0.0
O81 O 0.34193 0.4757 0.21118 0.0
C82 C 0.33226 0.45872 0.2136 0.0
O83 O 0.31209 0.46047 0.21966 0.0
C84 C 0.27423 0.51454 0.21343 0.0
C85 C 0.32088 0.55137 0.16426 0.0
O86 O 0.31712 0.53232 0.15207 0.0
O87 O 0.32275 0.55326 0.18476 0.0
O88 O 0.4438 0.2724 0.22028 0.0
Cd89 Cd 0.42644 0.27321 0.18597 0.0
O90 O 0.4609 0.24153 0.207 0.0
Cd91 Cd 0.44252 0.23252 0.17686 0.0
O92 O 0.42254 0.20491 0.16055 0.0
C93 C 0.43095 0.18618 0.15859 0.0
O94 O 0.45092 0.18508 0.16473 0.0
C95 C 0.45717 0.25798 0.22269 0.0
C96 C 0.40622 0.31344 0.18985 0.0
O97 O 0.39625 0.29721 0.19409 0.0
O98 O 0.42572 0.31057 0.1835 0.0
O99 O 0.50558 0.78334 0.61242 0.0
Cd100 Cd 0.50125 0.80621 0.58672 0.0
O101 O 0.48253 0.75804 0.59669 0.0
Cd102 Cd 0.47037 0.77657 0.57433 0.0
O103 O 0.44214 0.79131 0.56337 0.0
C104 C 0.42903 0.80001 0.57831 0.0
O105 O 0.43398 0.8005 0.59856 0.0
C106 C 0.49634 0.76518 0.61144 0.0
C107 C 0.53389 0.83733 0.59364 0.0
O108 O 0.51604 0.84125 0.60381 0.0
O109 O 0.53614 0.81886 0.57987 0.0
O110 O 0.42854 0.80978 0.232 0.0
Cd111 Cd 0.42008 0.80877 0.1941 0.0
O112 O 0.43913 0.77568 0.223 0.0
Cd113 Cd 0.45388 0.74522 0.22661 0.0
O114 O 0.46806 0.71392 0.2281 0.0
C115 C 0.46044 0.69611 0.21664 0.0
O116 O 0.44388 0.69682 0.20405 0.0
C117 C 0.43622 0.79331 0.23759 0.0
C118 C 0.44381 0.84048 0.1805 0.0
O119 O 0.42533 0.8449 0.18925 0.0
O120 O 0.45092 0.82095 0.17787 0.0
O121 O 0.48713 0.19359 0.59858 0.0
Cd122 Cd 0.49752 0.19196 0.56103 0.0
O123 O 0.46245 0.16903 0.58623 0.0
Cd124 Cd 0.43686 0.14586 0.58846 0.0
O125 O 0.41016 0.12449 0.59179 0.0
C126 C 0.39343 0.13268 0.60202 0.0
O127 O 0.39259 0.15388 0.61037 0.0
C128 C 0.47167 0.1819 0.60227 0.0
C129 C 0.53633 0.17065 0.54862 0.0
O130 O 0.53572 0.19124 0.55733 0.0
O131 O 0.51861 0.16009 0.54605 0.0
O132 O 0.46718 0.70017 0.74641 0.0
Cd133 Cd 0.45159 0.69554 0.78037 0.0
O134 O 0.48418 0.73027 0.7626 0.0
Cd135 Cd 0.4661 0.73459 0.79277 0.0
O136 O 0.44109 0.75556 0.81089 0.0
C137 C 0.44555 0.77576 0.81738 0.0
O138 O 0.46507 0.78226 0.81446 0.0
C139 C 0.48018 0.71543 0.74551 0.0
C140 C 0.42633 0.65804 0.77359 0.0
O141 O 0.41827 0.6765 0.77278 0.0
O142 O 0.44637 0.6573 0.77765 0.0
O143 O 0.49664 0.7996 0.39686 0.0
Cd144 Cd 0.50722 0.80279 0.43469 0.0
O145 O 0.4732 0.82565 0.40851 0.0
Cd146 Cd 0.44598 0.84666 0.40559 0.0
O147 O 0.41863 0.86836 0.40581 0.0
C148 C 0.40149 0.86119 0.39576 0.0
O149 O 0.40049 0.84057 0.38502 0.0
C150 C 0.48184 0.81183 0.3928 0.0
C151 C 0.54781 0.82067 0.44572 0.0
O152 O 0.54528 0.8 0.43848 0.0
O153 O 0.53121 0.8329 0.44735 0.0
O154 O 0.42027 0.17145 0.75954 0.0
Cd155 Cd 0.41189 0.16863 0.79643 0.0
O156 O 0.43399 0.20404 0.77238 0.0
Cd157 Cd 0.44808 0.235 0.7695 0.0
O158 O 0.46181 0.26653 0.76826 0.0
C159 C 0.46727 0.27034 0.75024 0.0
O160 O 0.46452 0.25504 0.73223 0.0
C161 C 0.42965 0.18821 0.75624 0.0
C162 C 0.4415 0.14142 0.80971 0.0
O163 O 0.42421 0.13366 0.79992 0.0
O164 O 0.44461 0.16209 0.8135 0.0
O165 O 0.49245 0.21192 0.36709 0.0
Cd166 Cd 0.49107 0.19369 0.39687 0.0
O167 O 0.46759 0.23634 0.37999 0.0
Cd168 Cd 0.45699 0.22049 0.40514 0.0
O169 O 0.42883 0.20641 0.41697 0.0
C170 C 0.42176 0.21272 0.43627 0.0
O171 O 0.43256 0.22743 0.45057 0.0
C172 C 0.48169 0.22863 0.36573 0.0
C173 C 0.52565 0.16497 0.3925 0.0
O174 O 0.52734 0.18483 0.40354 0.0
O175 O 0.50744 0.15856 0.38396 0.0
O176 O 0.11439 0.47013 0.24071 0.0
Cd177 Cd 0.08151 0.45095 0.24557 0.0
O178 O 0.12346 0.48192 0.27518 0.0
Cd179 Cd 0.0977 0.4673 0.29007 0.0
O180 O 0.09229 0.46004 0.32162 0.0
C181 C 0.10582 0.46937 0.33586 0.0
O182 O 0.1204 0.48203 0.33032 0.0
C183 C 0.1271 0.48062 0.25519 0.0
C184 C 0.0711 0.42398 0.20501 0.0
O185 O 0.0643 0.44372 0.21076 0.0
O186 O 0.08222 0.41674 0.21874 0.0
O187 O 0.11175 0.52887 0.72779 0.0
Cd188 Cd 0.07859 0.54871 0.72566 0.0
O189 O 0.11969 0.51858 0.69289 0.0
Cd190 Cd 0.09334 0.53448 0.68009 0.0
O191 O 0.0823 0.54584 0.652 0.0
C192 C 0.08831 0.5342 0.63364 0.0
O193 O 0.09935 0.51634 0.63309 0.0
C194 C 0.12397 0.51887 0.71256 0.0
C195 C 0.06818 0.57135 0.76803 0.0
O196 O 0.06175 0.55171 0.76025 0.0
O197 O 0.07896 0.58056 0.75555 0.0
O198 O 0.78974 0.75537 0.51442 0.0
Cd199 Cd 0.79905 0.7168 0.50091 0.0
O200 O 0.75553 0.75196 0.50617 0.0
Cd201 Cd 0.76043 0.71816 0.48815 0.0
O202 O 0.7675 0.68995 0.46142 0.0
C203 C 0.78052 0.69272 0.44693 0.0
O204 O 0.78947 0.71198 0.44914 0.0
C205 C 0.77121 0.7638 0.51477 0.0
C206 C 0.82526 0.70479 0.53162 0.0
O207 O 0.83326 0.71214 0.51621 0.0
O208 O 0.80489 0.7026 0.53218 0.0
O209 O 0.79143 0.45121 0.8128 0.0
Cd210 Cd 0.8278 0.44123 0.82057 0.0
O211 O 0.79521 0.43039 0.77986 0.0
Cd212 Cd 0.78478 0.41547 0.74656 0.0
O213 O 0.77324 0.39848 0.71435 0.0
C214 C 0.784 0.39862 0.69738 0.0
O215 O 0.8022 0.40937 0.69938 0.0
C216 C 0.78351 0.4427 0.79421 0.0
C217 C 0.82615 0.40551 0.83915 0.0
O218 O 0.8266 0.4251 0.85108 0.0
O219 O 0.82686 0.40282 0.81847 0.0
O220 O 0.13777 0.39644 0.52198 0.0
Cd221 Cd 0.11736 0.43 0.52457 0.0
O222 O 0.11987 0.39117 0.54983 0.0
Cd223 Cd 0.10715 0.37545 0.57439 0.0
O224 O 0.09356 0.36357 0.60107 0.0
C225 C 0.07446 0.36873 0.60713 0.0
O226 O 0.06336 0.3809 0.597 0.0
C227 C 0.13404 0.38468 0.53522 0.0
C228 C 0.11291 0.43916 0.48393 0.0
O229 O 0.12866 0.44678 0.49647 0.0
O230 O 0.09916 0.42724 0.49065 0.0
O231 O 0.75924 0.56154 0.20887 0.0
Cd232 Cd 0.79141 0.58334 0.22018 0.0
O233 O 0.75712 0.54859 0.23803 0.0
Cd234 Cd 0.7834 0.56796 0.25551 0.0
O235 O 0.79365 0.58908 0.28649 0.0
C236 C 0.78662 0.58378 0.3033 0.0
O237 O 0.77511 0.5659 0.30074 0.0
C238 C 0.74997 0.54954 0.21952 0.0
C239 C 0.79654 0.61243 0.19375 0.0
O240 O 0.80495 0.59333 0.18859 0.0
O241 O 0.78604 0.61792 0.21162 0.0
O242 O 0.75732 0.23343 0.46534 0.0
Cd243 Cd 0.76777 0.27185 0.4741 0.0
O244 O 0.74091 0.23396 0.49616 0.0
Cd245 Cd 0.74808 0.26819 0.5112 0.0
O246 O 0.75503 0.2966 0.53784 0.0
C247 C 0.74243 0.30022 0.55406 0.0
O248 O 0.72566 0.28751 0.55343 0.0
C249 C 0.74687 0.22361 0.47729 0.0
C250 C 0.79804 0.27675 0.44335 0.0
O251 O 0.80382 0.27299 0.46148 0.0
O252 O 0.77799 0.27885 0.44007 0.0
O253 O 0.12129 0.63693 0.47512 0.0
Cd254 Cd 0.09233 0.61037 0.46494 0.0
O255 O 0.12907 0.64039 0.44225 0.0
Cd256 Cd 0.10341 0.61964 0.42511 0.0
O257 O 0.08119 0.61389 0.39767 0.0
C258 C 0.08941 0.61157 0.37891 0.0
O259 O 0.11036 0.61113 0.37708 0.0
C260 C 0.13265 0.64527 0.4626 0.0
C261 C 0.08575 0.59031 0.49909 0.0
O262 O 0.09827 0.58187 0.48326 0.0
O263 O 0.07594 0.60801 0.49855 0.0
O264 O -0.00295 0.84333 0.69123 0.0
Cd265 Cd 0.00282 0.87813 0.68147 0.0
O266 O 0.96657 0.83673 0.67342 0.0
Cd267 Cd 0.96489 0.86747 0.66355 0.0
O268 O 0.94609 0.89356 0.65545 0.0
C269 C 0.93247 0.88794 0.64021 0.0
O270 O 0.93149 0.86732 0.62948 0.0
C271 C 0.981 0.83097 0.68501 0.0
C272 C 0.04113 0.87787 0.65874 0.0
O273 O 0.04068 0.88387 0.67956 0.0
O274 O 0.02346 0.87214 0.6487 0.0
O275 O 0.64504 0.24609 0.0736 0.0
Cd276 Cd 0.6133 0.24476 0.09585 0.0
O277 O 0.63859 0.21407 0.05132 0.0
Cd278 Cd 0.61395 0.20427 0.07148 0.0
O279 O 0.60021 0.18076 0.08794 0.0
C280 C 0.604 0.16076 0.07909 0.0
O281 O 0.61491 0.15586 0.06083 0.0
C282 C 0.64962 0.23151 0.05649 0.0
C283 C 0.59464 0.28621 0.10797 0.0
O284 O 0.60798 0.27984 0.1205 0.0
O285 O 0.58986 0.27285 0.08988 0.0
O286 O 0.96752 0.07097 0.61666 0.0
Cd287 Cd 0.97008 0.03558 0.59031 0.0
O288 O 0.98007 0.0884 0.59321 0.0
Cd289 Cd 0.97396 0.06066 0.56569 0.0
O290 O 0.95091 0.04347 0.54166 0.0
C291 C 0.93207 0.04217 0.54881 0.0
O292 O 0.92843 0.04984 0.5697 0.0
C293 C 0.97423 0.08852 0.61246 0.0
C294 C 0.01082 0.0184 0.59333 0.0
O295 O 0.00724 0.03102 0.58066 0.0
O296 O -0.00496 0.01356 0.60419 0.0
O297 O 0.27099 0.70157 0.05601 0.0
Cd298 Cd 0.3043 0.71198 0.07605 0.0
O299 O 0.2677 0.73009 0.04199 0.0
Cd300 Cd 0.29516 0.74808 0.0588 0.0
O301 O 0.31289 0.77764 0.07448 0.0
C302 C 0.31217 0.7935 0.0654 0.0
O303 O 0.30179 0.79091 0.04693 0.0
C304 C 0.26093 0.7117 0.04404 0.0
C305 C 0.3144 0.6791 0.09695 0.0
O306 O 0.3206 0.67796 0.07744 0.0
O307 O 0.30392 0.6961 0.10682 0.0
O308 O 0.04731 0.1343 0.27117 0.0
Cd309 Cd 0.0654 0.10141 0.27608 0.0
O310 O 0.01786 0.12192 0.28233 0.0
Cd311 Cd 0.98452 0.12006 0.29234 0.0
O312 O 0.95319 0.10894 0.30046 0.0
C313 C 0.9497 0.08848 0.29507 0.0
O314 O 0.96483 0.07542 0.28493 0.0
C315 C 0.02743 0.13666 0.27534 0.0
C316 C 0.08738 0.10861 0.3155 0.0
O317 O 0.09669 0.11104 0.29824 0.0
O318 O 0.06766 0.10281 0.31412 0.0
O319 O 0.27471 0.29071 0.91311 0.0
Cd320 Cd 0.30582 0.28021 0.88953 0.0
O321 O 0.27002 0.25881 0.92073 0.0
Cd322 Cd 0.29509 0.24119 0.8995 0.0
O323 O 0.30816 0.20995 0.88122 0.0
C324 C 0.29874 0.19996 0.86385 0.0
O325 O 0.28258 0.20954 0.85669 0.0
C326 C 0.26456 0.27866 0.92308 0.0
C327 C 0.31297 0.31248 0.86708 0.0
O328 O 0.30193 0.29541 0.85856 0.0
O329 O 0.32103 0.31403 0.88598 0.0
O330 O 0.98006 0.882 0.37486 0.0
Cd331 Cd 0.98154 0.91644 0.40278 0.0
O332 O 0.95251 0.89168 0.35773 0.0
Cd333 Cd 0.94562 0.921 0.38332 0.0
O334 O 0.92454 0.93984 0.40854 0.0
C335 C 0.92944 0.94442 0.4286 0.0
O336 O 0.94842 0.93891 0.43441 0.0
C337 C 0.96702 0.87791 0.35898 0.0
C338 C 0.02033 0.93772 0.40038 0.0
O339 O 0.01844 0.92401 0.4122 0.0
O340 O 0.00381 0.94154 0.38989 0.0
O341 O 0.65159 0.73428 0.9058 0.0
Cd342 Cd 0.62188 0.73576 0.88102 0.0
O343 O 0.64321 0.76568 0.92821 0.0
Cd344 Cd 0.62004 0.77529 0.90646 0.0
O345 O 0.60699 0.79783 0.88847 0.0
C346 C 0.60866 0.81808 0.89763 0.0
O347 O 0.61715 0.82387 0.91716 0.0
C348 C 0.65474 0.74856 0.92351 0.0
C349 C 0.60746 0.6936 0.86155 0.0
O350 O 0.62139 0.70308 0.85217 0.0
O351 O 0.60014 0.70416 0.88002 0.0
O352 O 0.60956 0.96486 0.76838 0.0
Cd353 Cd 0.57762 0.96303 0.79025 0.0
O354 O 0.61892 -0.00256 0.78774 0.0
Cd355 Cd 0.58942 0.00277 0.80674 0.0
O356 O 0.55955 0.02079 0.81538 0.0
C357 C 0.56093 0.04114 0.82409 0.0
O358 O 0.57999 0.04983 0.8288 0.0
C359 C 0.62266 0.98077 0.77228 0.0
C360 C 0.58154 0.93137 0.81401 0.0
O361 O 0.57386 0.92652 0.79469 0.0
O362 O 0.58732 0.95118 0.8221 0.0
O363 O 0.74542 0.00688 0.31456 0.0
Cd364 Cd 0.77235 0.00907 0.34294 0.0
O365 O 0.7266 0.0311 0.33782 0.0
Cd366 Cd 0.70017 0.05398 0.34888 0.0
O367 O 0.67223 0.0748 0.35915 0.0
C368 C 0.65353 0.06678 0.35557 0.0
O369 O 0.65139 0.04599 0.34577 0.0
C370 C 0.72865 0.01851 0.31889 0.0
C371 C 0.81056 0.027 0.33268 0.0
O372 O 0.80725 0.00634 0.327 0.0
O373 O 0.79578 0.0392 0.34326 0.0
O374 O 0.28863 0.92645 0.81276 0.0
Cd375 Cd 0.29705 0.91918 0.84802 0.0
O376 O 0.30321 0.95883 0.82374 0.0
Cd377 Cd 0.31051 -0.00747 0.82274 0.0
O378 O 0.31557 0.02756 0.82684 0.0
C379 C 0.3071 0.03774 0.81398 0.0
O380 O 0.29551 0.0268 0.79761 0.0
C381 C 0.29356 0.94473 0.80902 0.0
C382 C 0.32872 0.88749 0.84517 0.0
O383 O 0.3089 0.88215 0.84302 0.0
O384 O 0.33352 0.9078 0.84861 0.0
O385 O 0.25921 0.00574 0.35583 0.0
Cd386 Cd 0.24631 0.99077 0.38549 0.0
O387 O 0.22866 0.0177 0.34581 0.0
Cd388 Cd 0.20876 0.00683 0.3695 0.0
O389 O 0.17907 -0.00425 0.38167 0.0
C390 C 0.16176 0.00282 0.37534 0.0
O391 O 0.16287 0.01655 0.36279 0.0
C392 C 0.24877 0.01506 0.34344 0.0
C393 C 0.27707 0.9609 0.39208 0.0
O394 O 0.26124 0.95473 0.37917 0.0
O395 O 0.27797 0.98106 0.4024 0.0
O396 O 0.59899 0.01524 0.20737 0.0
Cd397 Cd 0.56948 0.01255 0.18155 0.0
O398 O 0.61737 0.98835 0.18657 0.0
Cd399 Cd 0.58987 0.97651 0.16567 0.0
O400 O 0.56369 0.95298 0.15676 0.0
C401 C 0.54507 0.95762 0.16462 0.0
O402 O 0.5414 0.97729 0.17686 0.0
C403 C 0.61598 0.00383 0.20366 0.0
C404 C 0.57338 0.04439 0.15801 0.0
O405 O 0.56317 0.04833 0.17608 0.0
O406 O 0.58156 0.02533 0.15098 0.0
O407 O 0.25148 -0.00504 0.66453 0.0
Cd408 Cd 0.2405 0.0081 0.63299 0.0
O409 O 0.22367 0.97342 0.66414 0.0
Cd410 Cd 0.20617 0.9829 0.63806 0.0
O411 O 0.17626 0.9889 0.62253 0.0
C412 C 0.16006 0.9784 0.62665 0.0
O413 O 0.16262 0.96458 0.63894 0.0
C414 C 0.24146 0.9811 0.67236 0.0
C415 C 0.27239 0.0352 0.62318 0.0
O416 O 0.25695 0.04305 0.63603 0.0
O417 O 0.27256 0.01456 0.61467 0.0
O418 O 0.30485 0.02338 0.18788 0.0
Cd419 Cd 0.31652 0.01717 0.15004 0.0
O420 O 0.3337 0.00857 0.19812 0.0
Cd421 Cd 0.34333 -0.00718 0.16491 0.0
O422 O 0.34459 0.96159 0.14062 0.0
C423 C 0.34976 0.9451 0.1477 0.0
O424 O 0.35503 0.94817 0.16829 0.0
C425 C 0.31619 0.01892 0.20288 0.0
C426 C 0.34204 0.05195 0.1451 0.0
O427 O 0.32167 0.05246 0.14288 0.0
O428 O 0.35033 0.03487 0.14933 0.0
O429 O 0.74816 0.00438 0.66517 0.0
Cd430 Cd 0.77126 0.01061 0.63611 0.0
O431 O 0.73013 0.98027 0.64099 0.0
Cd432 Cd 0.70332 0.9582 0.62927 0.0
O433 O 0.67612 0.93628 0.61957 0.0
C434 C 0.65883 0.93976 0.63041 0.0
O435 O 0.65769 0.95661 0.64732 0.0
C436 C 0.73299 0.9906 0.6607 0.0
C437 C 0.80901 0.98652 0.63301 0.0
O438 O 0.80772 0.00578 0.64554 0.0
O439 O 0.79246 0.9787 0.62183 0.0
O440 O 0.77465 0.73992 0.04192 0.0
Cd441 Cd 0.80574 0.74116 0.06566 0.0
O442 O 0.79655 0.73105 0.01429 0.0
Cd443 Cd 0.80781 0.72519 0.98066 0.0
O444 O 0.8284 0.71978 0.95199 0.0
C445 C 0.82184 0.71147 0.93277 0.0
O446 O 0.80159 0.706 0.92958 0.0
C447 C 0.77763 0.73532 0.02148 0.0
C448 C 0.80276 0.71324 0.09349 0.0
O449 O 0.79554 0.73283 0.09915 0.0
O450 O 0.81117 0.70678 0.07457 0.0
O451 O 0.7748 0.23947 0.94279 0.0
Cd452 Cd 0.80732 0.23994 0.92145 0.0
O453 O 0.79508 0.24896 0.97163 0.0
Cd454 Cd 0.8047 0.25514 0.00578 0.0
O455 O 0.8247 0.26119 0.0349 0.0
C456 C 0.81763 0.26173 0.05382 0.0
O457 O 0.79711 0.25862 0.05647 0.0
C458 C 0.77664 0.24406 0.96336 0.0
C459 C 0.81021 0.27611 0.90368 0.0
O460 O 0.80185 0.25816 0.8929 0.0
O461 O 0.81701 0.27701 0.92295 0.0
O462 O 0.98419 0.24525 0.72476 0.0
Cd463 Cd 0.98893 0.28181 0.74831 0.0
O464 O 0.96396 0.23117 0.74625 0.0
Cd465 Cd 0.96634 0.26075 0.77257 0.0
O466 O 0.9748 0.28473 0.80251 0.0
C467 C 0.96889 0.28146 0.82063 0.0
O468 O 0.9571 0.26424 0.8207 0.0
C469 C 0.97356 0.22926 0.72821 0.0
C470 C 0.00857 0.30678 0.72312 0.0
O471 O 0.01971 0.2962 0.7341 0.0
O472 O 0.98814 0.30618 0.72468 0.0
O473 O 0.10389 0.66982 0.98118 0.0
Cd474 Cd 0.06621 0.66249 0.97162 0.0
O475 O 0.10805 0.64085 -0.00575 0.0
Cd476 Cd 0.07376 0.63422 -0.00559 0.0
O477 O 0.04515 0.63554 0.01448 0.0
C478 C 0.0458 0.62514 0.02928 0.0
O479 O 0.06268 0.61308 0.03051 0.0
C480 C 0.11592 0.6575 0.98914 0.0
C481 C 0.06205 0.64379 0.92712 0.0
O482 O 0.06235 0.66459 0.93457 0.0
O483 O 0.06349 0.63183 0.94074 0.0
O484 O 0.96411 0.69716 0.75918 0.0
Cd485 Cd 0.95651 0.66658 0.77535 0.0
O486 O 0.94179 0.68287 0.73294 0.0
Cd487 Cd 0.92488 0.68009 0.70214 0.0
O488 O 0.90616 0.68007 0.67308 0.0
C489 C 0.91426 0.68718 0.65777 0.0
O490 O 0.9341 0.69431 0.6596 0.0
C491 C 0.95466 0.69813 0.7417 0.0
C492 C 0.92638 0.67754 0.80874 0.0
O493 O 0.94645 0.68049 0.8126 0.0
O494 O 0.92053 0.66942 0.78905 0.0
O495 O 0.11118 0.31063 -0.00297 0.0
Cd496 Cd 0.07322 0.31544 0.00657 0.0
O497 O 0.11461 0.34232 0.98872 0.0
Cd498 Cd 0.08008 0.34745 0.9892 0.0
O499 O 0.05111 0.34268 0.96939 0.0
C500 C 0.05078 0.35155 0.95343 0.0
O501 O 0.0668 0.36424 0.95101 0.0
C502 C 0.12291 0.32473 0.99132 0.0
C503 C 0.06813 0.3375 0.05012 0.0
O504 O 0.0702 0.31667 0.04453 0.0
O505 O 0.06829 0.34788 0.03509 0.0
O506 O 0.97966 0.71439 0.25898 0.0
Cd507 Cd 0.98124 0.67627 0.23819 0.0
O508 O 0.95664 0.72588 0.23798 0.0
Cd509 Cd 0.95829 0.69532 0.2128 0.0
O510 O 0.96735 0.67344 0.18176 0.0
C511 C 0.96125 0.67824 0.16437 0.0
O512 O 0.94884 0.69536 0.16583 0.0
C513 C 0.96808 0.72955 0.25508 0.0
C514 C 0.00261 0.65253 0.26353 0.0
O515 O 0.01272 0.66052 0.24967 0.0
O516 O 0.98229 0.65522 0.26496 0.0
O517 O 0.96274 0.27312 0.22622 0.0
Cd518 Cd 0.94624 0.30456 0.21647 0.0
O519 O 0.93648 0.27391 0.24917 0.0
Cd520 Cd 0.91871 0.26587 0.27586 0.0
O521 O 0.89648 0.26599 0.30245 0.0
C522 C 0.90296 0.2693 0.32197 0.0
O523 O 0.92353 0.272 0.32608 0.0
C524 C 0.95379 0.26527 0.24062 0.0
C525 C 0.91798 0.29299 0.18146 0.0
O526 O 0.93792 0.29611 0.17849 0.0
O527 O 0.91142 0.29514 0.20103 0.0
H528 H 0.12957 0.11954 0.32345 0.0
H529 H 0.11819 0.13896 0.45231 0.0
H530 H 0.07157 0.10705 0.35538 0.0
H531 H 0.17738 0.14747 0.42022 0.0
H532 H 0.10156 0.12478 0.41682 0.0
H533 H 0.14794 0.12776 0.35853 0.0
C534 C 0.1207 0.11845 0.33783 0.0
C535 C 0.09894 0.11274 0.33649 0.0
C536 C 0.11824 0.12957 0.41753 0.0
C537 C 0.11989 0.12215 0.37674 0.0
C538 C 0.12777 0.13764 0.43781 0.0
C539 C 0.14918 0.14461 0.43926 0.0
C540 C 0.13013 0.12857 0.39851 0.0
C541 C 0.16081 0.14239 0.4199 0.0
C542 C 0.13123 0.1231 0.35786 0.0
C543 C 0.08832 0.11147 0.35564 0.0
N544 N 0.15108 0.13477 0.40033 0.0
N545 N 0.09886 0.11627 0.37498 0.0
H546 H 0.30305 0.31192 0.82487 0.0
H547 H 0.32188 0.4397 0.84008 0.0
H548 H 0.32865 0.35366 0.88377 0.0
H549 H 0.31504 0.39483 0.77707 0.0
H550 H 0.32258 0.40865 0.85679 0.0
H551 H 0.3056 0.34232 0.80733 0.0
C552 C 0.3093 0.32744 0.83408 0.0
C553 C 0.31561 0.33027 0.85583 0.0
C554 C 0.32105 0.4056 0.8393 0.0
C555 C 0.31836 0.36517 0.83593 0.0
C556 C 0.32058 0.42331 0.82975 0.0
C557 C 0.31836 0.41985 0.80715 0.0
C558 C 0.31899 0.38426 0.82619 0.0
C559 C 0.31681 0.39825 0.79456 0.0
C560 C 0.31079 0.34477 0.82404 0.0
C561 C 0.32363 0.35074 0.86696 0.0
N562 N 0.31699 0.38128 0.80426 0.0
N563 N 0.32461 0.36745 0.85695 0.0
H564 H 0.88748 0.95364 0.42207 0.0
H565 H 0.85689 0.98177 0.54844 0.0
H566 H 0.93371 0.95518 0.47304 0.0
H567 H 0.81051 0.96884 0.49638 0.0
H568 H 0.88561 0.97641 0.52142 0.0
H569 H 0.85958 0.96403 0.44956 0.0
C570 C 0.89183 0.95635 0.43905 0.0
C571 C 0.91296 0.95325 0.44522 0.0
C572 C 0.86914 0.97474 0.51594 0.0
C573 C 0.88098 0.96504 0.47681 0.0
C574 C 0.85273 0.9779 0.53134 0.0
C575 C 0.83124 0.97568 0.52467 0.0
C576 C 0.86404 0.96941 0.4937 0.0
C577 C 0.82682 0.97067 0.50229 0.0
C578 C 0.87585 0.96219 0.45474 0.0
C579 C 0.91762 0.95717 0.46751 0.0
N580 N 0.84307 0.96765 0.48763 0.0
N581 N 0.90172 0.96274 0.4825 0.0
H582 H 0.56905 0.55888 0.84299 0.0
H583 H 0.61582 0.66883 0.82052 0.0
H584 H 0.58765 0.56501 0.77921 0.0
H585 H 0.58342 0.66663 0.88005 0.0
H586 H 0.60586 0.63071 0.80518 0.0
H587 H 0.5742 0.59825 0.857 0.0
C588 C 0.57404 0.56853 0.83189 0.0
C589 C 0.57802 0.55861 0.80991 0.0
C590 C 0.60079 0.63861 0.82154 0.0
C591 C 0.58417 0.60364 0.82589 0.0
C592 C 0.60653 0.66036 0.83034 0.0
C593 C 0.60053 0.67092 0.85164 0.0
C594 C 0.58918 0.62721 0.83422 0.0
C595 C 0.58841 0.65914 0.86357 0.0
C596 C 0.57696 0.59101 0.8399 0.0
C597 C 0.58441 0.57194 0.79627 0.0
N598 N 0.58329 0.63787 0.85476 0.0
N599 N 0.58749 0.59372 0.80453 0.0
H600 H 0.08172 0.88577 0.6753 0.0
H601 H 0.13738 0.85106 0.55826 0.0
H602 H 0.04705 0.86788 0.61465 0.0
H603 H 0.17233 0.86152 0.61867 0.0
H604 H 0.10461 0.86251 0.57876 0.0
H605 H 0.11533 0.88186 0.65492 0.0
C606 C 0.08116 0.88117 0.6577 0.0
C607 C 0.06153 0.87696 0.64667 0.0
C608 C 0.11946 0.86249 0.58755 0.0
C609 C 0.09995 0.87249 0.62325 0.0
C610 C 0.13823 0.85601 0.57584 0.0
C611 C 0.15762 0.85507 0.58675 0.0
C612 C 0.12001 0.86805 0.61037 0.0
C613 C 0.15772 0.86184 0.60957 0.0
C614 C 0.10036 0.87893 0.64608 0.0
C615 C 0.06179 0.87113 0.62385 0.0
N616 N 0.13916 0.86785 0.62063 0.0
N617 N 0.08068 0.86896 0.61292 0.0
H618 H 0.57205 0.30717 0.08209 0.0
H619 H 0.56078 0.41903 0.17383 0.0
H620 H 0.5969 0.3163 0.14721 0.0
H621 H 0.55422 0.4149 0.10519 0.0
H622 H 0.56791 0.37974 0.16541 0.0
H623 H 0.55946 0.34505 0.09147 0.0
C624 C 0.5747 0.31707 0.09841 0.0
C625 C 0.58567 0.3086 0.11385 0.0
C626 C 0.56477 0.38742 0.15221 0.0
C627 C 0.57124 0.3519 0.12469 0.0
C628 C 0.56059 0.40983 0.157 0.0
C629 C 0.55703 0.4203 0.14017 0.0
C630 C 0.5652 0.37534 0.13045 0.0
C631 C 0.55702 0.40753 0.11866 0.0
C632 C 0.56757 0.3387 0.10372 0.0
C633 C 0.58865 0.3222 0.13475 0.0
N634 N 0.5611 0.38573 0.11442 0.0
N635 N 0.5815 0.34318 0.13955 0.0
H636 H 0.93319 0.02674 0.50434 0.0
H637 H 0.80548 0.02068 0.49331 0.0
H638 H 0.88971 0.04049 0.55891 0.0
H639 H 0.84814 0.01034 0.43819 0.0
H640 H 0.83642 0.02582 0.51748 0.0
H641 H 0.9025 0.01787 0.47973 0.0
C642 C 0.91722 0.02778 0.51116 0.0
C643 C 0.91402 0.0346 0.53373 0.0
C644 C 0.83905 0.02242 0.5001 0.0
C645 C 0.87887 0.02479 0.50567 0.0
C646 C 0.82137 0.01937 0.48627 0.0
C647 C 0.82422 0.01514 0.46368 0.0
C648 C 0.85978 0.02106 0.49132 0.0
C649 C 0.8452 0.01364 0.4555 0.0
C650 C 0.89971 0.02282 0.4971 0.0
C651 C 0.89297 0.03549 0.54164 0.0
N652 N 0.86219 0.01663 0.46932 0.0
N653 N 0.87622 0.03081 0.52764 0.0
H654 H 0.32107 0.5946 0.18602 0.0
H655 H 0.32976 0.63827 0.07803 0.0
H656 H 0.32401 0.55213 0.12141 0.0
H657 H 0.30766 0.67824 0.13945 0.0
H658 H 0.33343 0.60743 0.09476 0.0
H659 H 0.32169 0.62629 0.17016 0.0
C660 C 0.322 0.59193 0.16851 0.0
C661 C 0.32238 0.57068 0.155 0.0
C662 C 0.32787 0.62298 0.10459 0.0
C663 C 0.32319 0.60684 0.1368 0.0
C664 C 0.32586 0.64063 0.09508 0.0
C665 C 0.31827 0.66085 0.10733 0.0
C666 C 0.32246 0.6256 0.12657 0.0
C667 C 0.31345 0.66292 0.12937 0.0
C668 C 0.32228 0.61002 0.15948 0.0
C669 C 0.32356 0.56821 0.13242 0.0
N670 N 0.3156 0.6455 0.13828 0.0
N671 N 0.32392 0.58607 0.12404 0.0
H672 H 0.38571 0.05501 0.14701 0.0
H673 H 0.3879 0.18232 0.1493 0.0
H674 H 0.32914 0.09191 0.13987 0.0
H675 H 0.44425 0.14402 0.15368 0.0
H676 H 0.36631 0.14898 0.14298 0.0
H677 H 0.40758 0.08701 0.14687 0.0
C678 C 0.37788 0.06981 0.14529 0.0
C679 C 0.35553 0.07081 0.1436 0.0
C680 C 0.38342 0.14786 0.14513 0.0
C681 C 0.38051 0.10763 0.14351 0.0
C682 C 0.39578 0.16689 0.14869 0.0
C683 C 0.41791 0.16601 0.15222 0.0
C684 C 0.39327 0.12784 0.14516 0.0
C685 C 0.42724 0.14554 0.15121 0.0
C686 C 0.39039 0.0881 0.14519 0.0
C687 C 0.3463 0.09042 0.1413 0.0
N688 N 0.41486 0.12734 0.14795 0.0
N689 N 0.35882 0.1081 0.14149 0.0
H690 H 0.65611 0.90284 0.59707 0.0
H691 H 0.53485 0.87694 0.62339 0.0
H692 H 0.6192 0.94297 0.64944 0.0
H693 H 0.5734 0.8342 0.57437 0.0
H694 H 0.56492 0.90238 0.6318 0.0
H695 H 0.62538 0.87849 0.58729 0.0
C696 C 0.64154 0.90656 0.60651 0.0
C697 C 0.64026 0.92498 0.62414 0.0
C698 C 0.56679 0.88746 0.61917 0.0
C699 C 0.60497 0.89713 0.61299 0.0
C700 C 0.5496 0.87294 0.61432 0.0
C701 C 0.55162 0.85337 0.59818 0.0
C702 C 0.58615 0.88242 0.60778 0.0
C703 C 0.57113 0.84907 0.58697 0.0
C704 C 0.62399 0.89263 0.60091 0.0
C705 C 0.62094 0.92896 0.63575 0.0
N706 N 0.58764 0.86344 0.59201 0.0
N707 N 0.60408 0.91515 0.62997 0.0
H708 H 0.549 0.91387 0.14529 0.0
H709 H 0.43441 0.88395 0.18655 0.0
H710 H 0.50368 0.96188 0.17924 0.0
H711 H 0.48318 0.83614 0.16084 0.0
H712 H 0.45756 0.91249 0.17915 0.0
H713 H 0.52298 0.8851 0.14587 0.0
C714 C 0.5335 0.91841 0.15264 0.0
C715 C 0.52861 0.94033 0.16244 0.0
C716 C 0.46314 0.89574 0.175 0.0
C717 C 0.49878 0.90743 0.16324 0.0
C718 C 0.44992 0.87941 0.17919 0.0
C719 C 0.45694 0.85763 0.1745 0.0
C720 C 0.48354 0.89026 0.16601 0.0
C721 C 0.47716 0.85273 0.16488 0.0
C722 C 0.51867 0.90195 0.15303 0.0
C723 C 0.50822 0.9452 0.17166 0.0
N724 N 0.4898 0.86893 0.16107 0.0
N725 N 0.49412 0.92888 0.17197 0.0
H726 H 0.30818 0.02333 0.59806 0.0
H727 H 0.35582 0.14486 0.62373 0.0
H728 H 0.27633 0.07955 0.63836 0.0
H729 H 0.38935 0.08832 0.58613 0.0
H730 H 0.32596 0.12134 0.62806 0.0
H731 H 0.33739 0.04703 0.5922 0.0
C732 C 0.30728 0.04067 0.60561 0.0
C733 C 0.28979 0.04945 0.61877 0.0
C734 C 0.33983 0.11406 0.61884 0.0
C735 C 0.32322 0.07668 0.61215 0.0
C736 C 0.35691 0.1275 0.61636 0.0
C737 C 0.37516 0.11856 0.60458 0.0
C738 C 0.34094 0.09149 0.60947 0.0
C739 C 0.37562 0.09593 0.59538 0.0
C740 C 0.32399 0.05419 0.60228 0.0
C741 C 0.2895 0.07205 0.62812 0.0
N742 N 0.35879 0.08318 0.59804 0.0
N743 N 0.30597 0.08486 0.62467 0.0
H744 H 0.44996 0.81995 0.83268 0.0
H745 H 0.32388 0.84305 0.83734 0.0
H746 H 0.40232 0.76884 0.81993 0.0
H747 H 0.37202 0.89367 0.84922 0.0
H748 H 0.3522 0.8156 0.83348 0.0
H749 H 0.42149 0.84709 0.84178 0.0
C750 C 0.43351 0.8144 0.83199 0.0
C751 C 0.42853 0.79207 0.82536 0.0
C752 C 0.35656 0.83272 0.83703 0.0
C753 C 0.39576 0.82315 0.8356 0.0
C754 C 0.3404 0.84841 0.83922 0.0
C755 C 0.34559 0.8707 0.84349 0.0
C756 C 0.37808 0.83936 0.83911 0.0
C757 C 0.36726 0.87667 0.84582 0.0
C758 C 0.41723 0.82994 0.83715 0.0
C759 C 0.4069 0.78588 0.82488 0.0
N760 N 0.38269 0.8611 0.84352 0.0
N761 N 0.39131 0.80135 0.82975 0.0
H762 H 0.39775 0.90438 0.41725 0.0
H763 H 0.27976 0.91717 0.3725 0.0
H764 H 0.36273 0.85143 0.37546 0.0
H765 H 0.31387 0.96948 0.41617 0.0
H766 H 0.30956 0.89258 0.37421 0.0
H767 H 0.36692 0.92827 0.41764 0.0
C768 C 0.38358 0.89775 0.40816 0.0
C769 C 0.38287 0.87585 0.39625 0.0
C770 C 0.3105 0.90941 0.3835 0.0
C771 C 0.34745 0.90316 0.39665 0.0
C772 C 0.29345 0.92346 0.38256 0.0
C773 C 0.29433 0.94546 0.39417 0.0
C774 C 0.32861 0.91739 0.39608 0.0
C775 C 0.3125 0.95267 0.40694 0.0
C776 C 0.36595 0.91141 0.40842 0.0
C777 C 0.36404 0.86819 0.38483 0.0
N778 N 0.32895 0.93871 0.40747 0.0
N779 N 0.34711 0.88184 0.38527 0.0
H780 H 0.51945 0.02922 0.81273 0.0
H781 H 0.47973 0.15284 0.83051 0.0
H782 H 0.5588 0.08549 0.8401 0.0
H783 H 0.44046 0.09678 0.80229 0.0
H784 H 0.50759 0.12834 0.83759 0.0
H785 H 0.48907 0.05356 0.81243 0.0
C786 C 0.52166 0.04667 0.8189 0.0
C787 C 0.54178 0.05533 0.82623 0.0
C788 C 0.49282 0.12139 0.82999 0.0
C789 C 0.50709 0.0833 0.82578 0.0
C790 C 0.47689 0.13538 0.82594 0.0
C791 C 0.45779 0.12685 0.81562 0.0
C792 C 0.4897 0.09866 0.82361 0.0
C793 C 0.45498 0.10409 0.81017 0.0
C794 C 0.50431 0.06057 0.81868 0.0
C795 C 0.54364 0.07807 0.83412 0.0
N796 N 0.47082 0.09078 0.81408 0.0
N797 N 0.52659 0.09126 0.83351 0.0
H798 H 0.56691 0.17439 0.40622 0.0
H799 H 0.61143 0.0554 0.34804 0.0
H800 H 0.52708 0.12181 0.37059 0.0
H801 H 0.65202 0.10984 0.37798 0.0
H802 H 0.5801 0.07878 0.35835 0.0
H803 H 0.59798 0.15021 0.39837 0.0
C804 C 0.56467 0.15772 0.39685 0.0
C805 C 0.54436 0.15014 0.38899 0.0
C806 C 0.59585 0.08561 0.3627 0.0
C807 C 0.57989 0.12238 0.37988 0.0
C808 C 0.61377 0.07226 0.35683 0.0
C809 C 0.63441 0.08068 0.36209 0.0
C810 C 0.59855 0.10755 0.37397 0.0
C811 C 0.63643 0.10266 0.37351 0.0
C812 C 0.58243 0.14393 0.39233 0.0
C813 C 0.54243 0.12838 0.37694 0.0
N814 N 0.61873 0.11533 0.37905 0.0
N815 N 0.55997 0.11528 0.37271 0.0
H816 H 0.0529 0.43637 0.17063 0.0
H817 H 0.07273 0.32109 0.08606 0.0
H818 H 0.08102 0.38076 0.18854 0.0
H819 H 0.05896 0.38077 0.06692 0.0
H820 H 0.07095 0.34132 0.12422 0.0
H821 H 0.04992 0.41468 0.13312 0.0
C822 C 0.05826 0.41953 0.16673 0.0
C823 C 0.06736 0.41041 0.18274 0.0
C824 C 0.06824 0.34995 0.11166 0.0
C825 C 0.06404 0.38552 0.13979 0.0
C826 C 0.06921 0.33842 0.08987 0.0
C827 C 0.06611 0.34929 0.07326 0.0
C828 C 0.06399 0.37249 0.11689 0.0
C829 C 0.06158 0.37175 0.07918 0.0
C830 C 0.05663 0.40719 0.14529 0.0
C831 C 0.07402 0.3885 0.17671 0.0
N832 N 0.06069 0.38261 0.1005 0.0
N833 N 0.07229 0.37683 0.1557 0.0
H834 H 0.05134 0.5542 0.8001 0.0
H835 H 0.06495 0.66429 0.89382 0.0
H836 H 0.0764 0.6141 0.78856 0.0
H837 H 0.05599 0.60072 0.9065 0.0
H838 H 0.06421 0.6473 0.85477 0.0
H839 H 0.0478 0.57227 0.8387 0.0
C840 C 0.05592 0.57121 0.80563 0.0
C841 C 0.06429 0.58262 0.79108 0.0
C842 C 0.06234 0.63709 0.86611 0.0
C843 C 0.0603 0.60338 0.83527 0.0
C844 C 0.0627 0.64677 0.8884 0.0
C845 C 0.06064 0.63388 0.90346 0.0
C846 C 0.05971 0.61437 0.85879 0.0
C847 C 0.05777 0.61127 0.89549 0.0
C848 C 0.05398 0.58148 0.8277 0.0
C849 C 0.06997 0.60464 0.79921 0.0
N850 N 0.0574 0.60224 0.87371 0.0
N851 N 0.06792 0.61429 0.82077 0.0
H852 H 0.86872 0.70964 0.53612 0.0
H853 H 0.87229 0.67534 0.6496 0.0
H854 H 0.81322 0.689 0.56642 0.0
H855 H 0.92675 0.7007 0.62175 0.0
H856 H 0.85099 0.67775 0.61799 0.0
H857 H 0.89081 0.7038 0.56598 0.0
C858 C 0.86119 0.70374 0.54898 0.0
C859 C 0.83905 0.6999 0.54881 0.0
C860 C 0.86761 0.68274 0.61876 0.0
C861 C 0.86427 0.69326 0.58311 0.0
C862 C 0.87981 0.68136 0.63681 0.0
C863 C 0.90134 0.68792 0.63839 0.0
C864 C 0.877 0.69071 0.6021 0.0
C865 C 0.9102 0.69553 0.62128 0.0
C866 C 0.87382 0.70046 0.56606 0.0
C867 C 0.8302 0.69225 0.5659 0.0
N868 N 0.89798 0.69676 0.60388 0.0
N869 N 0.84282 0.68926 0.58239 0.0
H870 H 0.80174 0.27793 0.8618 0.0
H871 H 0.82838 0.40535 0.88226 0.0
H872 H 0.82339 0.3176 0.92356 0.0
H873 H 0.81972 0.36256 0.81839 0.0
H874 H 0.82444 0.37393 0.89811 0.0
H875 H 0.80586 0.30937 0.84604 0.0
C876 C 0.80731 0.29326 0.87207 0.0
C877 C 0.81224 0.29512 0.89404 0.0
C878 C 0.82347 0.37141 0.88062 0.0
C879 C 0.81698 0.3312 0.87609 0.0
C880 C 0.82569 0.38935 0.87156 0.0
C881 C 0.82439 0.38658 0.84895 0.0
C882 C 0.81973 0.35057 0.86701 0.0
C883 C 0.82089 0.36545 0.83589 0.0
C884 C 0.80973 0.31119 0.86304 0.0
C885 C 0.81944 0.3154 0.90654 0.0
N886 N 0.8186 0.34828 0.84512 0.0
N887 N 0.82155 0.33266 0.89741 0.0
H888 H 0.03341 0.37477 0.62254 0.0
H889 H 0.05125 0.30839 0.71379 0.0
H890 H 0.09358 0.34537 0.63318 0.0
H891 H 0.98951 0.33108 0.69799 0.0
H892 H 0.06768 0.32482 0.68664 0.0
H893 H 0.01767 0.36156 0.6522 0.0
C894 C 0.04334 0.36557 0.63113 0.0
C895 C 0.06484 0.36109 0.62528 0.0
C896 C 0.05055 0.32629 0.68918 0.0
C897 C 0.04691 0.34598 0.65933 0.0
C898 C 0.04116 0.31698 0.70475 0.0
C899 C 0.01894 0.31827 0.70811 0.0
C900 C 0.03765 0.33702 0.67689 0.0
C901 C 0.00668 0.32961 0.69589 0.0
C902 C 0.03433 0.35803 0.64807 0.0
C903 C 0.07692 0.34914 0.63705 0.0
N904 N 0.01619 0.33847 0.68077 0.0
N905 N 0.06779 0.34198 0.65348 0.0
H906 H 0.81642 0.60501 0.15412 0.0
H907 H 0.7853 0.7218 0.13433 0.0
H908 H 0.78074 0.65403 0.20014 0.0
H909 H 0.81797 0.67141 0.08692 0.0
H910 H 0.78426 0.69758 0.15904 0.0
H911 H 0.81815 0.62957 0.12979 0.0
C912 C 0.80901 0.62097 0.15916 0.0
C913 C 0.7984 0.62745 0.17921 0.0
C914 C 0.79164 0.69181 0.14323 0.0
C915 C 0.80026 0.65566 0.15136 0.0
C916 C 0.79223 0.70563 0.1291 0.0
C917 C 0.80172 0.69862 0.1085 0.0
C918 C 0.80064 0.67081 0.13677 0.0
C919 C 0.81046 0.6775 0.10262 0.0
C920 C 0.80997 0.63498 0.14522 0.0
C921 C 0.78908 0.64833 0.18484 0.0
N922 N 0.80973 0.66436 0.11669 0.0
N923 N 0.79021 0.66166 0.17098 0.0
H924 H 0.85921 0.26864 0.31955 0.0
H925 H 0.84178 0.27499 0.44589 0.0
H926 H 0.91126 0.27361 0.36528 0.0
H927 H 0.79048 0.28 0.40176 0.0
H928 H 0.86754 0.27386 0.41659 0.0
H929 H 0.83381 0.27175 0.34938 0.0
C930 C 0.86532 0.27035 0.33586 0.0
C931 C 0.88742 0.27083 0.3399 0.0
C932 C 0.85065 0.27532 0.41336 0.0
C933 C 0.85837 0.27443 0.37419 0.0
C934 C 0.83593 0.27599 0.43008 0.0
C935 C 0.81393 0.27755 0.42626 0.0
C936 C 0.84331 0.27606 0.39262 0.0
C937 C 0.80728 0.27879 0.40545 0.0
C938 C 0.85078 0.2722 0.35291 0.0
C939 C 0.89437 0.27315 0.3614 0.0
N940 N 0.8219 0.27789 0.3894 0.0
N941 N 0.87989 0.2748 0.37773 0.0
H942 H 0.10235 0.60955 0.33728 0.0
H943 H 0.98664 0.63851 0.29803 0.0
H944 H 0.04568 0.6156 0.37726 0.0
H945 H 0.04519 0.64217 0.26298 0.0
H946 H 0.00696 0.6243 0.32456 0.0
H947 H 0.08052 0.61546 0.30735 0.0
C948 C 0.08527 0.61189 0.33972 0.0
C949 C 0.07588 0.61234 0.35993 0.0
C950 C 0.01532 0.62803 0.31095 0.0
C951 C 0.05078 0.61925 0.32567 0.0
C952 C 0.00373 0.6361 0.29576 0.0
C953 C 0.01426 0.64174 0.27836 0.0
C954 C 0.0376 0.62553 0.30869 0.0
C955 C 0.03642 0.63822 0.27623 0.0
C956 C 0.07282 0.61532 0.3226 0.0
C957 C 0.05363 0.61529 0.36203 0.0
N958 N 0.04736 0.63047 0.29128 0.0
N959 N 0.04186 0.61882 0.34517 0.0
H960 H 0.39287 0.18735 0.40881 0.0
H961 H 0.30036 0.19937 0.4982 0.0
H962 H 0.40149 0.22214 0.47591 0.0
H963 H 0.28888 0.18193 0.42898 0.0
H964 H 0.3387 0.20207 0.49117 0.0
H965 H 0.35606 0.17923 0.417 0.0
C966 C 0.38712 0.1931 0.42533 0.0
C967 C 0.40027 0.20565 0.44166 0.0
C968 C 0.32777 0.19755 0.47755 0.0
C969 C 0.35803 0.19641 0.4511 0.0
C970 C 0.30591 0.19595 0.48153 0.0
C971 C 0.29138 0.19056 0.46414 0.0
C972 C 0.33517 0.19352 0.45603 0.0
C973 C 0.29948 0.18629 0.44288 0.0
C974 C 0.36605 0.18852 0.42996 0.0
C975 C 0.39189 0.21256 0.46278 0.0
N976 N 0.32082 0.18789 0.43942 0.0
N977 N 0.37127 0.20794 0.46688 0.0
H978 H 0.37859 0.52548 0.75517 0.0
H979 H 0.38335 0.65454 0.76526 0.0
H980 H 0.3236 0.56506 0.7492 0.0
H981 H 0.4386 0.61626 0.77349 0.0
H982 H 0.36137 0.62165 0.7591 0.0
H983 H 0.40104 0.55829 0.76173 0.0
C984 C 0.37124 0.54105 0.75525 0.0
C985 C 0.34918 0.54251 0.75162 0.0
C986 C 0.3783 0.62041 0.76227 0.0
C987 C 0.37475 0.58006 0.75908 0.0
C988 C 0.39087 0.63921 0.76578 0.0
C989 C 0.41286 0.63817 0.7699 0.0
C990 C 0.38774 0.60035 0.76284 0.0
C991 C 0.42171 0.61783 0.77038 0.0
C992 C 0.38405 0.55976 0.759 0.0
C993 C 0.34053 0.56311 0.75192 0.0
N994 N 0.40912 0.59971 0.76688 0.0
N995 N 0.35331 0.58103 0.75555 0.0
H996 H 0.65192 0.90746 0.50024 0.0
H997 H 0.58581 0.79899 0.44595 0.0
H998 H 0.67848 0.84243 0.48811 0.0
H999 H 0.55844 0.86377 0.46153 0.0
H1000 H 0.62045 0.81474 0.45929 0.0
H1001 H 0.61815 0.89188 0.48419 0.0
C1002 C 0.65069 0.8899 0.49415 0.0
C1003 C 0.66808 0.87623 0.49561 0.0
C1004 C 0.60689 0.82552 0.45973 0.0
C1005 C 0.62936 0.85826 0.47719 0.0
C1006 C 0.58709 0.81654 0.45207 0.0
C1007 C 0.56915 0.83007 0.45268 0.0
C1008 C 0.60879 0.84821 0.46806 0.0
C1009 C 0.5718 0.8527 0.46079 0.0
C1010 C 0.63137 0.88101 0.48499 0.0
C1011 C 0.66551 0.8536 0.48739 0.0
N1012 N 0.59122 0.86104 0.46821 0.0
N1013 N 0.64651 0.84533 0.47858 0.0
H1014 H 0.53879 0.37234 0.71247 0.0
H1015 H 0.47387 0.30608 0.7842 0.0
H1016 H 0.52588 0.39743 0.78091 0.0
H1017 H 0.4832 0.28292 0.71491 0.0
H1018 H 0.49145 0.34034 0.78302 0.0
H1019 H 0.51683 0.34039 0.71266 0.0
C1020 C 0.53119 0.37124 0.72751 0.0
C1021 C 0.53433 0.38755 0.74674 0.0
C1022 C 0.48956 0.32782 0.76805 0.0
C1023 C 0.50927 0.35084 0.74711 0.0
C1024 C 0.47955 0.30821 0.76871 0.0
C1025 C 0.47716 0.29152 0.74964 0.0
C1026 C 0.49735 0.33077 0.74819 0.0
C1027 C 0.48476 0.29528 0.73004 0.0
C1028 C 0.51866 0.35295 0.72761 0.0
C1029 C 0.52398 0.38525 0.76572 0.0
N1030 N 0.4946 0.31444 0.72985 0.0
N1031 N 0.51207 0.36715 0.76546 0.0
H1032 H 0.39692 0.81721 0.60655 0.0
H1033 H 0.31227 0.82342 0.51346 0.0
H1034 H 0.41234 0.79978 0.53811 0.0
H1035 H 0.29561 0.82997 0.5808 0.0
H1036 H 0.34985 0.81906 0.52248 0.0
H1037 H 0.36072 0.82653 0.59765 0.0
C1038 C 0.39276 0.81549 0.58963 0.0
C1039 C 0.40768 0.80752 0.57304 0.0
C1040 C 0.33797 0.82155 0.53528 0.0
C1041 C 0.3661 0.81812 0.56272 0.0
C1042 C 0.31652 0.82408 0.53016 0.0
C1043 C 0.30074 0.82694 0.54639 0.0
C1044 C 0.34371 0.822 0.5568 0.0
C1045 C 0.30719 0.82768 0.56775 0.0
C1046 C 0.37203 0.82077 0.58456 0.0
C1047 C 0.40134 0.80575 0.55142 0.0
N1048 N 0.32815 0.82518 0.57231 0.0
N1049 N 0.38099 0.8109 0.54688 0.0
H1050 H 0.49819 0.55969 0.18831 0.0
H1051 H 0.49451 0.68876 0.2411 0.0
H1052 H 0.54271 0.59404 0.23685 0.0
H1053 H 0.44921 0.65514 0.19302 0.0
H1054 H 0.51143 0.65381 0.24069 0.0
H1055 H 0.47897 0.59406 0.19081 0.0
C1056 C 0.50385 0.57441 0.19958 0.0
C1057 C 0.52215 0.57398 0.21232 0.0
C1058 C 0.49775 0.65404 0.23026 0.0
C1059 C 0.50031 0.61336 0.21519 0.0
C1060 C 0.48807 0.67403 0.23048 0.0
C1061 C 0.47045 0.67493 0.21701 0.0
C1062 C 0.4898 0.63475 0.21643 0.0
C1063 C 0.46279 0.65525 0.20365 0.0
C1064 C 0.4929 0.59403 0.20098 0.0
C1065 C 0.52874 0.59356 0.22664 0.0
N1066 N 0.47255 0.63598 0.20364 0.0
N1067 N 0.51789 0.61243 0.22762 0.0
H1068 H 0.63304 0.07765 0.48695 0.0
H1069 H 0.57659 0.18838 0.55206 0.0
H1070 H 0.66705 0.1381 0.51228 0.0
H1071 H 0.54279 0.12757 0.52817 0.0
H1072 H 0.61003 0.17001 0.53839 0.0
H1073 H 0.59996 0.09541 0.50263 0.0
C1074 C 0.63357 0.09464 0.49585 0.0
C1075 C 0.65286 0.10641 0.49825 0.0
C1076 C 0.59531 0.16065 0.53619 0.0
C1077 C 0.615 0.12687 0.51624 0.0
C1078 C 0.5762 0.17114 0.54401 0.0
C1079 C 0.55683 0.15952 0.54121 0.0
C1080 C 0.59509 0.13837 0.52543 0.0
C1081 C 0.55733 0.13719 0.53067 0.0
C1082 C 0.61467 0.10478 0.50481 0.0
C1083 C 0.65256 0.12838 0.50999 0.0
N1084 N 0.57612 0.12737 0.5231 0.0
N1085 N 0.63394 0.13791 0.51848 0.0
H1086 H 0.31566 0.42009 0.21811 0.0
H1087 H 0.42322 0.3514 0.18327 0.0
H1088 H 0.37377 0.44847 0.20039 0.0
H1089 H 0.36508 0.32448 0.20275 0.0
H1090 H 0.40546 0.3869 0.18871 0.0
H1091 H 0.33359 0.38486 0.21191 0.0
C1092 C 0.33222 0.41893 0.2129 0.0
C1093 C 0.34322 0.43731 0.20978 0.0
C1094 C 0.39659 0.37321 0.19176 0.0
C1095 C 0.36393 0.39682 0.2026 0.0
C1096 C 0.40671 0.35293 0.18864 0.0
C1097 C 0.39562 0.33492 0.19257 0.0
C1098 C 0.37522 0.37551 0.19885 0.0
C1099 C 0.37426 0.33788 0.19952 0.0
C1100 C 0.34246 0.39875 0.20936 0.0
C1101 C 0.36467 0.43475 0.20301 0.0
N1102 N 0.36479 0.35777 0.20244 0.0
N1103 N 0.37433 0.41486 0.19965 0.0
H1104 H 0.08245 0.42407 0.45266 0.0
H1105 H 0.13302 0.48699 0.36913 0.0
H1106 H 0.13864 0.46499 0.46586 0.0
H1107 H 0.07903 0.4433 0.35312 0.0
H1108 H 0.1341 0.48012 0.40522 0.0
H1109 H 0.07981 0.43181 0.41675 0.0
C1110 C 0.0942 0.43471 0.44803 0.0
C1111 C 0.11082 0.44388 0.46229 0.0
C1112 C 0.12197 0.47203 0.39387 0.0
C1113 C 0.10787 0.4528 0.42125 0.0
C1114 C 0.12133 0.47597 0.37321 0.0
C1115 C 0.10593 0.46566 0.35801 0.0
C1116 C 0.10712 0.45766 0.39951 0.0
C1117 C 0.09119 0.45158 0.36431 0.0
C1118 C 0.09269 0.43911 0.42753 0.0
C1119 C 0.12559 0.45753 0.45542 0.0
N1120 N 0.09216 0.44795 0.38459 0.0
N1121 N 0.12377 0.46156 0.43542 0.0
H1122 H 0.06798 0.57133 0.62861 0.0
H1123 H 0.1021 0.55148 0.50371 0.0
H1124 H 0.10064 0.51353 0.59243 0.0
H1125 H 0.06436 0.60673 0.53739 0.0
H1126 H 0.10031 0.53668 0.53578 0.0
H1127 H 0.06498 0.58396 0.59516 0.0
C1128 C 0.07437 0.56121 0.61362 0.0
C1129 C 0.08471 0.5414 0.61338 0.0
C1130 C 0.09229 0.55198 0.53615 0.0
C1131 C 0.08145 0.55581 0.57508 0.0
C1132 C 0.09332 0.56045 0.51781 0.0
C1133 C 0.08345 0.58044 0.51788 0.0
C1134 C 0.08145 0.56364 0.55481 0.0
C1135 C 0.07223 0.59128 0.53662 0.0
C1136 C 0.07267 0.56844 0.59453 0.0
C1137 C 0.09265 0.52896 0.59347 0.0
N1138 N 0.07167 0.58283 0.55439 0.0
N1139 N 0.09097 0.53643 0.57519 0.0
H1140 H 0.76498 0.65081 0.43716 0.0
H1141 H 0.80768 0.62315 0.3146 0.0
H1142 H 0.80452 0.6946 0.41132 0.0
H1143 H 0.77151 0.57804 0.34195 0.0
H1144 H 0.80883 0.6486 0.35052 0.0
H1145 H 0.76921 0.62303 0.40306 0.0
C1146 C 0.77467 0.65454 0.42437 0.0
C1147 C 0.78427 0.67514 0.42705 0.0
C1148 C 0.80079 0.63306 0.34869 0.0
C1149 C 0.7891 0.64342 0.38788 0.0
C1150 C 0.80015 0.61851 0.32818 0.0
C1151 C 0.78933 0.5985 0.32521 0.0
C1152 C 0.79046 0.62761 0.36633 0.0
C1153 C 0.77992 0.59333 0.34343 0.0
C1154 C 0.77709 0.63866 0.40489 0.0
C1155 C 0.79673 0.67899 0.40994 0.0
N1156 N 0.78056 0.60785 0.36315 0.0
N1157 N 0.79865 0.66335 0.39104 0.0
H1158 H 0.777 0.32793 0.56207 0.0
H1159 H 0.74682 0.37533 0.68745 0.0
H1160 H 0.71941 0.31101 0.59184 0.0
H1161 H 0.80417 0.39327 0.65802 0.0
H1162 H 0.73558 0.35335 0.65196 0.0
H1163 H 0.78622 0.3537 0.5964 0.0
C1164 C 0.76621 0.32974 0.57576 0.0
C1165 C 0.74747 0.31717 0.5741 0.0
C1166 C 0.75059 0.36216 0.65323 0.0
C1167 C 0.75798 0.34656 0.61347 0.0
C1168 C 0.75703 0.37472 0.67351 0.0
C1169 C 0.77655 0.38607 0.67576 0.0
C1170 C 0.76376 0.36085 0.635 0.0
C1171 C 0.78904 0.38473 0.65708 0.0
C1172 C 0.7715 0.34444 0.59537 0.0
C1173 C 0.73408 0.32026 0.59238 0.0
N1174 N 0.78249 0.37226 0.63751 0.0
N1175 N 0.73965 0.33453 0.61131 0.0
H1176 H 0.9004 0.88069 0.60993 0.0
H1177 H 0.84595 -0.00241 0.65636 0.0
H1178 H 0.92757 0.93108 0.66164 0.0
H1179 H 0.81719 0.94565 0.60735 0.0
H1180 H 0.87767 0.97485 0.65598 0.0
H1181 H 0.8717 0.9057 0.60611 0.0
C1182 C 0.90045 0.89708 0.62037 0.0
C1183 C 0.91634 0.90372 0.63627 0.0
C1184 C 0.86447 0.96847 0.64523 0.0
C1185 C 0.88338 0.93244 0.63205 0.0
C1186 C 0.84635 0.98145 0.64542 0.0
C1187 C 0.82881 0.97345 0.63199 0.0
C1188 C 0.86509 0.94731 0.6315 0.0
C1189 C 0.83027 0.95244 0.6181 0.0
C1190 C 0.88401 0.91135 0.6182 0.0
C1191 C 0.9156 0.92521 0.64924 0.0
N1192 N 0.84804 0.94007 0.6183 0.0
N1193 N 0.8993 0.93875 0.64695 0.0
H1194 H 0.5599 0.08703 0.16961 0.0
H1195 H 0.61076 0.11683 0.06458 0.0
H1196 H 0.59297 0.0407 0.11866 0.0
H1197 H 0.58256 0.1648 0.11775 0.0
H1198 H 0.60186 0.08832 0.08301 0.0
H1199 H 0.56567 0.11526 0.14978 0.0
C1200 C 0.5683 0.08276 0.15422 0.0
C1201 C 0.57603 0.06147 0.14583 0.0
C1202 C 0.59755 0.10506 0.09064 0.0
C1203 C 0.58269 0.09373 0.12305 0.0
C1204 C 0.6026 0.12138 0.0801 0.0
C1205 C 0.5975 0.14329 0.08968 0.0
C1206 C 0.5873 0.11061 0.11095 0.0
C1207 C 0.58686 0.14814 0.10979 0.0
C1208 C 0.57161 0.0989 0.14291 0.0
C1209 C 0.58678 0.05689 0.12579 0.0
N1210 N 0.58218 0.13194 0.1198 0.0
N1211 N 0.58983 0.07289 0.11512 0.0
H1212 H 0.02303 0.98911 0.61649 0.0
H1213 H 0.14844 0.00626 0.60139 0.0
H1214 H 0.04842 0.02953 0.57649 0.0
H1215 H 0.12222 0.96023 0.63484 0.0
H1216 H 0.1121 0.01446 0.59127 0.0
H1217 H 0.05938 0.97778 0.62263 0.0
C1218 C 0.03624 -0.00448 0.60889 0.0
C1219 C 0.03267 0.01036 0.59602 0.0
C1220 C 0.11433 0.00247 0.60071 0.0
C1221 C 0.07443 -0.00245 0.6031 0.0
C1222 C 0.13508 -0.00222 0.6065 0.0
C1223 C 0.1384 0.98263 0.6191 0.0
C1224 C 0.09678 0.99201 0.60767 0.0
C1225 C 0.12047 0.9721 0.6252 0.0
C1226 C 0.05702 0.98903 0.6124 0.0
C1227 C 0.05043 0.01808 0.58655 0.0
N1228 N 0.10046 0.97709 0.61955 0.0
N1229 N 0.07055 0.0117 0.5904 0.0
H1230 H 0.33313 0.80536 0.1046 0.0
H1231 H 0.33651 0.93233 0.10518 0.0
H1232 H 0.31173 0.83099 0.05102 0.0
H1233 H 0.35829 0.9066 0.15856 0.0
H1234 H 0.33021 0.89498 0.08383 0.0
H1235 H 0.34526 0.84194 0.12338 0.0
C1236 C 0.33112 0.81863 0.0967 0.0
C1237 C 0.32123 0.81511 0.07626 0.0
C1238 C 0.33652 0.8975 0.10016 0.0
C1239 C 0.335 0.85708 0.09773 0.0
C1240 C 0.34015 0.91883 0.11235 0.0
C1241 C 0.34778 0.92263 0.13376 0.0
C1242 C 0.34048 0.87982 0.10946 0.0
C1243 C 0.35226 0.90448 0.14217 0.0
C1244 C 0.33804 0.83953 0.10745 0.0
C1245 C 0.31914 0.83293 0.06681 0.0
N1246 N 0.3484 0.8839 0.13007 0.0
N1247 N 0.32582 0.85315 0.07767 0.0
H1248 H 0.93743 0.0456 0.28567 0.0
H1249 H 0.82241 0.07013 0.34217 0.0
H1250 H 0.91502 0.11054 0.31641 0.0
H1251 H 0.84499 0.00547 0.31068 0.0
H1252 H 0.85613 0.08533 0.33292 0.0
H1253 H 0.90357 0.03071 0.29469 0.0
C1254 C 0.92538 0.05675 0.29431 0.0
C1255 C 0.9291 0.07937 0.3003 0.0
C1256 C 0.8537 0.06781 0.32803 0.0
C1257 C 0.89021 0.06238 0.31071 0.0
C1258 C 0.83445 0.05912 0.33331 0.0
C1259 C 0.83086 0.03648 0.3272 0.0
C1260 C 0.8695 0.05378 0.31655 0.0
C1261 C 0.84704 0.02301 0.31573 0.0
C1262 C 0.90603 0.04822 0.29946 0.0
C1263 C 0.91286 0.093 0.31147 0.0
N1264 N 0.86564 0.03187 0.3108 0.0
N1265 N 0.89413 0.08429 0.31633 0.0
H1266 H 0.28795 0.06522 0.79219 0.0
H1267 H 0.32828 0.17367 0.87699 0.0
H1268 H 0.33039 0.06521 0.84592 0.0
H1269 H 0.28074 0.17337 0.82749 0.0
H1270 H 0.33317 0.13438 0.86249 0.0
H1271 H 0.28891 0.10516 0.80174 0.0
C1272 C 0.29761 0.07359 0.80589 0.0
C1273 C 0.30893 0.06182 0.81841 0.0
C1274 C 0.3218 0.14294 0.85469 0.0
C1275 C 0.31008 0.10758 0.82944 0.0
C1276 C 0.31904 0.16541 0.86292 0.0
C1277 C 0.30389 0.17681 0.8536 0.0
C1278 C 0.30933 0.13177 0.83701 0.0
C1279 C 0.29246 0.16523 0.83533 0.0
C1280 C 0.29813 0.09641 0.81134 0.0
C1281 C 0.32125 0.07358 0.83591 0.0
N1282 N 0.29529 0.14332 0.82775 0.0
N1283 N 0.32139 0.09579 0.84098 0.0
H1284 H 0.12217 0.01403 0.36327 0.0
H1285 H 0.05883 0.93144 0.41871 0.0
H1286 H 0.15325 0.97336 0.39981 0.0
H1287 H 0.02914 0.96843 0.37768 0.0
H1288 H 0.09318 0.94841 0.41419 0.0
H1289 H 0.08764 -0.00061 0.37071 0.0
C1290 C 0.12175 0.00208 0.37295 0.0
C1291 C 0.14069 -0.00516 0.38084 0.0
C1292 C 0.07913 0.95286 0.40623 0.0
C1293 C 0.10107 0.97792 0.38938 0.0
C1294 C 0.0595 0.9432 0.40882 0.0
C1295 C 0.04107 0.94846 0.3985 0.0
C1296 C 0.08036 0.96794 0.39325 0.0
C1297 C 0.04292 0.96382 0.38589 0.0
C1298 C 0.10199 -0.0063 0.37717 0.0
C1299 C 0.13908 0.97937 0.39334 0.0
N1300 N 0.0622 0.97297 0.3836 0.0
N1301 N 0.11962 0.97137 0.39717 0.0
H1302 H 0.61131 0.86245 0.91259 0.0
H1303 H 0.57237 0.88761 0.80086 0.0
H1304 H 0.59226 0.81222 0.85638 0.0
H1305 H 0.59603 0.93677 0.85574 0.0
H1306 H 0.57725 0.86 0.82161 0.0
H1307 H 0.60331 0.89008 0.89276 0.0
C1308 C 0.60534 0.85721 0.89609 0.0
C1309 C 0.60257 0.83494 0.8861 0.0
C1310 C 0.58133 0.87684 0.82912 0.0
C1311 C 0.59342 0.8666 0.86322 0.0
C1312 C 0.57854 0.89262 0.81729 0.0
C1313 C 0.58388 0.91454 0.82654 0.0
C1314 C 0.58948 0.883 0.85039 0.0
C1315 C 0.59177 0.92007 0.84791 0.0
C1316 C 0.6008 0.87303 0.88476 0.0
C1317 C 0.59471 0.82918 0.86471 0.0
N1318 N 0.59436 0.90441 0.85908 0.0
N1319 N 0.59049 0.84491 0.85395 0.0
H1320 H 0.88281 0.67211 0.80622 0.0
H1321 H 0.86479 0.72021 0.93406 0.0
H1322 H 0.93375 0.69584 0.8519 0.0
H1323 H 0.81378 0.69359 0.88948 0.0
H1324 H 0.88996 0.71268 0.90378 0.0
H1325 H 0.85702 0.68107 0.83611 0.0
C1326 C 0.88858 0.67924 0.82252 0.0
C1327 C 0.9105 0.68318 0.82656 0.0
C1328 C 0.87326 0.7085 0.90058 0.0
C1329 C 0.88105 0.69348 0.86084 0.0
C1330 C 0.85884 0.71282 0.91789 0.0
C1331 C 0.83711 0.70747 0.91435 0.0
C1332 C 0.86596 0.69875 0.87949 0.0
C1333 C 0.83039 0.69795 0.893 0.0
C1334 C 0.87384 0.68433 0.83958 0.0
C1335 C 0.91702 0.69246 0.84801 0.0
N1336 N 0.84477 0.69386 0.87638 0.0
N1337 N 0.90238 0.69727 0.86432 0.0
H1338 H 0.87474 0.28568 0.18228 0.0
H1339 H 0.86095 0.268 0.05357 0.0
H1340 H 0.92696 0.28784 0.13827 0.0
H1341 H 0.80831 0.2648 0.0968 0.0
H1342 H 0.8853 0.27491 0.08452 0.0
H1343 H 0.85015 0.27756 0.15131 0.0
C1344 C 0.88105 0.28439 0.16611 0.0
C1345 C 0.90295 0.28748 0.16288 0.0
C1346 C 0.86843 0.27268 0.08727 0.0
C1347 C 0.87488 0.27823 0.12737 0.0
C1348 C 0.85448 0.26874 0.06958 0.0
C1349 C 0.83251 0.26583 0.07257 0.0
C1350 C 0.86042 0.27377 0.1082 0.0
C1351 C 0.82512 0.26695 0.09372 0.0
C1352 C 0.86699 0.27977 0.14844 0.0
C1353 C 0.91021 0.28561 0.14156 0.0
N1354 N 0.83904 0.27086 0.11074 0.0
N1355 N 0.89621 0.28115 0.12465 0.0
H1356 H 0.01731 0.3229 0.95124 0.0
H1357 H -0.00612 0.31815 0.82643 0.0
H1358 H 0.04727 0.36536 0.91592 0.0
H1359 H 0.96266 0.27661 0.86194 0.0
H1360 H 0.01035 0.33856 0.86023 0.0
H1361 H -0.00611 0.30883 0.92008 0.0
C1362 C 0.01879 0.32948 0.93705 0.0
C1363 C 0.03448 0.34513 0.93609 0.0
C1364 C -0.00026 0.32511 0.86068 0.0
C1365 C 0.00784 0.32896 0.90029 0.0
C1366 C 0.99032 0.31344 0.84136 0.0
C1367 C 0.97707 0.29546 0.84129 0.0
C1368 C -0.004 0.3187 0.88008 0.0
C1369 C 0.97291 0.29023 0.86118 0.0
C1370 C 0.00543 0.3214 0.91924 0.0
C1371 C 0.03556 0.35313 0.91732 0.0
N1372 N 0.98252 0.30164 0.87972 0.0
N1373 N 0.0226 0.34479 0.90009 0.0
H1374 H 0.98845 0.64304 0.15552 0.0
H1375 H 0.01042 0.65169 0.03385 0.0
H1376 H 0.95413 0.6866 0.12458 0.0
H1377 H 0.04405 0.60755 0.06461 0.0
H1378 H 0.98656 0.6614 0.06529 0.0
H1379 H 0.00586 0.62665 0.12088 0.0
C1380 C 0.9844 0.64902 0.1414 0.0
C1381 C 0.96999 0.66642 0.14304 0.0
C1382 C -0.00098 0.64941 0.06506 0.0
C1383 C 0.99 0.6478 0.10333 0.0
C1384 C 0.01264 0.64383 0.04708 0.0
C1385 C 0.02945 0.62898 0.0467 0.0
C1386 C 0.00229 0.64015 0.08283 0.0
C1387 C 0.03145 0.61923 0.06428 0.0
C1388 C -0.00563 0.63965 0.12161 0.0
C1389 C 0.96527 0.67336 0.12414 0.0
N1390 N 0.01819 0.62516 0.08171 0.0
N1391 N 0.97541 0.66419 0.10514 0.0
H1392 H 0.13969 0.3595 0.56504 0.0
H1393 H 0.20845 0.26783 0.48429 0.0
H1394 H 0.15555 0.36196 0.49946 0.0
H1395 H 0.17051 0.25404 0.53626 0.0
H1396 H 0.19534 0.30545 0.49397 0.0
H1397 H 0.15652 0.32354 0.55855 0.0
C1398 C 0.14626 0.35241 0.54917 0.0
C1399 C 0.14535 0.3635 0.53251 0.0
C1400 C 0.19002 0.29421 0.50334 0.0
C1401 C 0.16572 0.32282 0.52539 0.0
C1402 C 0.19758 0.27276 0.49792 0.0
C1403 C 0.19043 0.25769 0.50938 0.0
C1404 C 0.17542 0.30075 0.52051 0.0
C1405 C 0.1763 0.26506 0.52687 0.0
C1406 C 0.15619 0.33198 0.5456 0.0
C1407 C 0.15557 0.35394 0.51273 0.0
N1408 N 0.16921 0.28608 0.53189 0.0
N1409 N 0.16526 0.33417 0.5097 0.0
H1410 H 0.13889 0.5167 0.75269 0.0
H1411 H 0.25255 0.46871 0.70664 0.0
H1412 H 0.15464 0.49752 0.68435 0.0
H1413 H 0.23645 0.48558 0.77493 0.0
H1414 H 0.21561 0.47589 0.69805 0.0
H1415 H 0.17333 0.50231 0.76103 0.0
C1416 C 0.14949 0.50931 0.73942 0.0
C1417 C 0.14391 0.50852 0.71779 0.0
C1418 C 0.22009 0.47784 0.71491 0.0
C1419 C 0.18344 0.49208 0.72726 0.0
C1420 C 0.2412 0.47371 0.71984 0.0
C1421 C 0.24769 0.47675 0.74156 0.0
C1422 C 0.20533 0.48521 0.73182 0.0
C1423 C 0.23222 0.48313 0.75795 0.0
C1424 C 0.16917 0.50109 0.7442 0.0
C1425 C 0.15829 0.49864 0.70128 0.0
N1426 N 0.21181 0.48736 0.75276 0.0
N1427 N 0.17743 0.49098 0.70637 0.0
H1428 H 0.79547 0.90139 0.5607 0.0
H1429 H 0.73426 0.78803 0.5175 0.0
H1430 H 0.72688 0.89708 0.55295 0.0
H1431 H 0.80146 0.79362 0.53388 0.0
H1432 H 0.73062 0.82765 0.53134 0.0
H1433 H 0.79736 0.86171 0.55246 0.0
C1434 C 0.78075 0.8921 0.55728 0.0
C1435 C 0.76104 0.90261 0.55677 0.0
C1436 C 0.74611 0.82015 0.53205 0.0
C1437 C 0.76311 0.85697 0.54715 0.0
C1438 C 0.74821 0.79753 0.52413 0.0
C1439 C 0.76824 0.78747 0.52437 0.0
C1440 C 0.76418 0.83277 0.54018 0.0
C1441 C 0.78573 0.80062 0.53323 0.0
C1442 C 0.78186 0.86938 0.55251 0.0
C1443 C 0.74251 0.88969 0.55244 0.0
N1444 N 0.78331 0.82256 0.54062 0.0
N1445 N 0.74401 0.8675 0.54758 0.0
H1446 H 0.76014 0.47968 0.81007 0.0
H1447 H 0.65041 0.42592 0.75736 0.0
H1448 H 0.75502 0.41418 0.76954 0.0
H1449 H 0.65506 0.49189 0.79722 0.0
H1450 H 0.68908 0.42205 0.76019 0.0
H1451 H 0.72195 0.48515 0.8044 0.0
C1452 C 0.75102 0.46656 0.79974 0.0
C1453 C 0.76086 0.44665 0.78979 0.0
C1454 C 0.68167 0.43741 0.76825 0.0
C1455 C 0.71718 0.45263 0.78344 0.0
C1456 C 0.65955 0.43963 0.76665 0.0
C1457 C 0.64941 0.45923 0.77716 0.0
C1458 C 0.69379 0.45487 0.78052 0.0
C1459 C 0.66216 0.47645 0.7889 0.0
C1460 C 0.72925 0.46968 0.7965 0.0
C1461 C 0.7483 0.43009 0.77679 0.0
N1462 N 0.68366 0.47383 0.79034 0.0
N1463 N 0.72711 0.43342 0.77404 0.0
H1464 H 0.21296 0.75935 0.48381 0.0
H1465 H 0.14532 0.65934 0.50515 0.0
H1466 H 0.20279 0.74781 0.54742 0.0
H1467 H 0.1574 0.6692 0.4412 0.0
H1468 H 0.16965 0.68941 0.52051 0.0
H1469 H 0.19621 0.72416 0.46751 0.0
C1470 C 0.20747 0.74931 0.49435 0.0
C1471 C 0.20906 0.7567 0.51705 0.0
C1472 C 0.16715 0.68488 0.50309 0.0
C1473 C 0.18969 0.71646 0.49849 0.0
C1474 C 0.15323 0.66768 0.4943 0.0
C1475 C 0.14909 0.66186 0.47186 0.0
C1476 C 0.17692 0.69647 0.48939 0.0
C1477 C 0.15996 0.6732 0.4586 0.0
C1478 C 0.19786 0.72922 0.48503 0.0
C1479 C 0.20174 0.74291 0.52986 0.0
N1480 N 0.17319 0.69009 0.46759 0.0
N1481 N 0.19217 0.72359 0.52042 0.0
H1482 H 0.62138 0.50215 0.21848 0.0
H1483 H 0.73005 0.5471 0.1804 0.0
H1484 H 0.6309 0.51076 0.15366 0.0
H1485 H 0.72354 0.52652 0.2402 0.0
H1486 H 0.69446 0.53234 0.16944 0.0
H1487 H 0.65927 0.50967 0.22606 0.0
C1488 C 0.63147 0.5055 0.20578 0.0
C1489 C 0.62291 0.50601 0.18546 0.0
C1490 C 0.70093 0.53084 0.18484 0.0
C1491 C 0.66635 0.51478 0.19409 0.0
C1492 C 0.72126 0.53926 0.19112 0.0
C1493 C 0.72974 0.53826 0.21136 0.0
C1494 C 0.68891 0.52153 0.19899 0.0
C1495 C 0.71763 0.52781 0.22452 0.0
C1496 C 0.65314 0.50973 0.21011 0.0
C1497 C 0.6368 0.51027 0.16959 0.0
N1498 N 0.69776 0.52009 0.21821 0.0
N1499 N 0.6578 0.51472 0.17432 0.0
H1500 H 0.75348 0.08709 0.40893 0.0
H1501 H 0.72673 0.19686 0.49921 0.0
H1502 H 0.7298 0.0885 0.47309 0.0
H1503 H 0.75787 0.19606 0.43822 0.0
H1504 H 0.72312 0.15719 0.48777 0.0
H1505 H 0.75107 0.12706 0.41743 0.0
C1506 C 0.74741 0.09581 0.42466 0.0
C1507 C 0.74126 0.08448 0.44014 0.0
C1508 C 0.73063 0.1657 0.47683 0.0
C1509 C 0.73874 0.13009 0.4501 0.0
C1510 C 0.73266 0.18839 0.48334 0.0
C1511 C 0.74281 0.19983 0.46975 0.0
C1512 C 0.73881 0.15432 0.4566 0.0
C1513 C 0.75008 0.18793 0.44931 0.0
C1514 C 0.74605 0.11859 0.42952 0.0
C1515 C 0.7338 0.09652 0.46037 0.0
N1516 N 0.74807 0.16581 0.44342 0.0
N1517 N 0.73282 0.11867 0.4648 0.0
H1518 H 0.25792 0.52186 0.25463 0.0
H1519 H 0.14091 0.48066 0.21407 0.0
H1520 H 0.2387 0.50717 0.18721 0.0
H1521 H 0.15889 0.50208 0.28171 0.0
H1522 H 0.17564 0.49302 0.20392 0.0
H1523 H 0.22087 0.51758 0.26492 0.0
C1524 C 0.24587 0.51795 0.24199 0.0
C1525 C 0.25149 0.51465 0.22 0.0
C1526 C 0.17189 0.49522 0.22099 0.0
C1527 C 0.20897 0.5095 0.23168 0.0
C1528 C 0.15205 0.48815 0.22681 0.0
C1529 C 0.14704 0.4901 0.24878 0.0
C1530 C 0.18687 0.50418 0.23725 0.0
C1531 C 0.16209 0.50006 0.26456 0.0
C1532 C 0.22468 0.5155 0.24788 0.0
C1533 C 0.23513 0.50976 0.20436 0.0
N1534 N 0.18138 0.50652 0.25848 0.0
N1535 N 0.21466 0.50708 0.21048 0.0
H1536 H 0.44797 0.28688 0.26155 0.0
H1537 H 0.50735 0.21386 0.33008 0.0
H1538 H 0.48737 0.2309 0.23334 0.0
H1539 H 0.46093 0.26385 0.35706 0.0
H1540 H 0.50635 0.22523 0.29597 0.0
H1541 H 0.4588 0.28393 0.29775 0.0
C1542 C 0.45918 0.2742 0.26293 0.0
C1543 C 0.46648 0.25888 0.24436 0.0
C1544 C 0.49659 0.2339 0.30945 0.0
C1545 C 0.47881 0.25534 0.28577 0.0
C1546 C 0.49718 0.22745 0.32897 0.0
C1547 C 0.48392 0.23766 0.34637 0.0
C1548 C 0.48262 0.25067 0.30727 0.0
C1549 C 0.47122 0.2553 0.344 0.0
C1550 C 0.4653 0.27248 0.28362 0.0
C1551 C 0.48109 0.24288 0.24718 0.0
N1552 N 0.47069 0.26107 0.32472 0.0
N1553 N 0.48656 0.24137 0.26749 0.0
H1554 H 0.52265 0.77702 0.64699 0.0
H1555 H 0.47012 0.69071 0.70476 0.0
H1556 H 0.47808 0.72687 0.61558 0.0
H1557 H 0.50904 0.74533 0.73781 0.0
H1558 H 0.47903 0.69892 0.67009 0.0
H1559 H 0.52388 0.76082 0.67819 0.0
C1560 C 0.51335 0.76242 0.64649 0.0
C1561 C 0.49995 0.75353 0.62876 0.0
C1562 C 0.48587 0.70891 0.68491 0.0
C1563 C 0.50119 0.73498 0.66455 0.0
C1564 C 0.48085 0.70419 0.70472 0.0
C1565 C 0.48854 0.71758 0.72429 0.0
C1566 C 0.49866 0.72715 0.68465 0.0
C1567 C 0.50248 0.73474 0.72318 0.0
C1568 C 0.51404 0.75319 0.66436 0.0
C1569 C 0.48843 0.73447 0.62899 0.0
N1570 N 0.50686 0.73919 0.70374 0.0
N1571 N 0.48911 0.726 0.64673 0.0
H1572 H 0.46804 0.84378 0.37353 0.0
H1573 H 0.43887 0.76114 0.2602 0.0
H1574 H 0.47964 0.77442 0.36048 0.0
H1575 H 0.44637 0.83058 0.2679 0.0
H1576 H 0.45017 0.76549 0.2979 0.0
H1577 H 0.45597 0.83912 0.33596 0.0
C1578 C 0.46772 0.82753 0.36285 0.0
C1579 C 0.47448 0.8094 0.3702 0.0
C1580 C 0.44952 0.77973 0.29125 0.0
C1581 C 0.4611 0.80398 0.32711 0.0
C1582 C 0.44336 0.77721 0.26959 0.0
C1583 C 0.44239 0.79539 0.26057 0.0
C1584 C 0.45435 0.80066 0.30411 0.0
C1585 C 0.44708 0.81605 0.27409 0.0
C1586 C 0.46108 0.82491 0.34134 0.0
C1587 C 0.4745 0.78881 0.35543 0.0
N1588 N 0.45287 0.81812 0.29514 0.0
N1589 N 0.46779 0.78662 0.33462 0.0
H1590 H 0.43145 0.17626 0.61739 0.0
H1591 H 0.46545 0.20606 0.74261 0.0
H1592 H 0.49616 0.19251 0.639 0.0
H1593 H 0.40753 0.17109 0.71893 0.0
H1594 H 0.47534 0.20563 0.70517 0.0
H1595 H 0.42094 0.17803 0.65486 0.0
C1596 C 0.44357 0.1796 0.62992 0.0
C1597 C 0.4649 0.18331 0.62492 0.0
C1598 C 0.46039 0.19818 0.70818 0.0
C1599 C 0.45275 0.1866 0.66807 0.0
C1600 C 0.4546 0.19869 0.72957 0.0
C1601 C 0.43544 0.18898 0.73387 0.0
C1602 C 0.44687 0.18795 0.69101 0.0
C1603 C 0.4224 0.17886 0.71628 0.0
C1604 C 0.43749 0.18099 0.65138 0.0
C1605 C 0.4796 0.18922 0.6421 0.0
N1606 N 0.42831 0.17868 0.69561 0.0
N1607 N 0.47327 0.19064 0.66291 0.0
H1608 H 0.92715 0.71752 0.71832 0.0
H1609 H 0.00861 0.81265 0.70934 0.0
H1610 H 0.99136 0.72202 0.74402 0.0
H1611 H 0.94751 0.80221 0.67659 0.0
H1612 H 0.00287 0.7795 0.72212 0.0
H1613 H 0.93454 0.74839 0.70269 0.0
C1614 C 0.943 0.72461 0.72018 0.0
C1615 C 0.95887 0.71671 0.7319 0.0
C1616 C 0.99078 0.78443 0.71204 0.0
C1617 C 0.9672 0.75284 0.71489 0.0
C1618 C -0.00595 0.80336 0.70474 0.0
C1619 C 0.97849 0.81031 0.69193 0.0
C1620 C 0.97177 0.77243 0.7066 0.0
C1621 C 0.95994 0.79756 0.68646 0.0
C1622 C 0.94713 0.7425 0.71152 0.0
C1623 C 0.97871 0.72749 0.73494 0.0
N1624 N 0.95707 0.77933 0.69391 0.0
N1625 N 0.98232 0.74501 0.7265 0.0
H1626 H 0.68044 0.26355 0.06515 0.0
H1627 H 0.74158 0.21822 0.95216 0.0
H1628 H 0.66082 0.2062 0.01653 0.0
H1629 H 0.76827 0.26731 0.00525 0.0
H1630 H 0.71032 0.21579 0.97456 0.0
H1631 H 0.71129 0.26725 0.0425 0.0
C1632 C 0.68255 0.25179 0.0497 0.0
C1633 C 0.66802 0.2345 0.04277 0.0
C1634 C 0.72306 0.22701 0.98139 0.0
C1635 C 0.70325 0.23868 0.01679 0.0
C1636 C 0.74089 0.22845 0.96859 0.0
C1637 C 0.75776 0.24267 0.97701 0.0
C1638 C 0.72192 0.2401 0.00273 0.0
C1639 C 0.75597 0.25563 -0.00165 0.0
C1640 C 0.7002 0.25388 0.03681 0.0
C1641 C 0.67161 0.21974 0.02259 0.0
N1642 N 0.73835 0.25405 0.01048 0.0
N1643 N 0.68883 0.22219 0.01033 0.0
H1644 H 0.98949 0.12836 0.60957 0.0
H1645 H 0.95534 0.19029 0.73071 0.0
H1646 H 0.95978 0.09583 0.65451 0.0
H1647 H 0.99046 0.22056 0.68723 0.0
H1648 H 0.95559 0.15581 0.70275 0.0
H1649 H 0.98903 0.16251 0.63769 0.0
C1650 C 0.98291 0.12837 0.62537 0.0
C1651 C 0.97466 0.10917 0.62966 0.0
C1652 C 0.96323 0.17002 0.69935 0.0
C1653 C 0.97398 0.14835 0.66198 0.0
C1654 C 0.96304 0.18973 0.71528 0.0
C1655 C 0.97291 0.20837 0.71134 0.0
C1656 C 0.97329 0.16896 0.67931 0.0
C1657 C 0.98267 0.20663 0.69104 0.0
C1658 C 0.98264 0.14791 0.64144 0.0
C1659 C 0.96634 0.11022 0.65047 0.0
N1660 N 0.98261 0.18731 0.67582 0.0
N1661 N 0.96616 0.1295 0.66584 0.0
H1662 H 0.14593 0.63554 0.00714 0.0
H1663 H 0.23448 0.72928 0.01824 0.0
H1664 H 0.13777 0.69295 0.98235 0.0
H1665 H 0.24151 0.67297 0.04499 0.0
H1666 H 0.20037 0.71468 0.00222 0.0
H1667 H 0.18233 0.64734 0.01815 0.0
C1668 C 0.15184 0.65054 0.00383 0.0
C1669 C 0.13868 0.66335 -0.00607 0.0
C1670 C 0.20943 0.70546 0.01149 0.0
C1671 C 0.18037 0.67704 0.00665 0.0
C1672 C 0.22893 0.71379 0.02065 0.0
C1673 C 0.24085 0.70242 0.03312 0.0
C1674 C 0.20173 0.68562 0.01482 0.0
C1675 C 0.23285 0.68238 0.03561 0.0
C1676 C 0.17263 0.65729 0.01017 0.0
C1677 C 0.14728 0.68259 0.99002 0.0
N1678 N 0.21376 0.67468 0.02664 0.0
N1679 N 0.16752 0.68892 -0.00348 0.0
H1680 H 0.93435 0.23199 0.25444 0.0
H1681 H 0.04498 0.17582 0.27405 0.0
H1682 H -0.0037 0.25633 0.24168 0.0
H1683 H 0.98442 0.142 0.26789 0.0
H1684 H 0.02688 0.20768 0.26701 0.0
H1685 H 0.95192 0.20119 0.26461 0.0
C1686 C 0.95165 0.23107 0.25415 0.0
C1687 C 0.96392 0.24689 0.2475 0.0
C1688 C 0.01751 0.19335 0.26742 0.0
C1689 C 0.98407 0.21159 0.25875 0.0
C1690 C 0.02783 0.17513 0.27145 0.0
C1691 C 0.01616 0.15628 0.27204 0.0
C1692 C -0.00469 0.19278 0.26393 0.0
C1693 C -0.00602 0.15636 0.26845 0.0
C1694 C 0.96165 0.21336 0.25971 0.0
C1695 C 0.98625 0.24449 0.24672 0.0
N1696 N 0.98427 0.17434 0.26456 0.0
N1697 N -0.00439 0.22723 0.25235 0.0
H1698 H 0.14573 0.28836 -0.00607 0.0
H1699 H 0.24685 0.31963 0.93036 0.0
H1700 H 0.15203 0.34971 0.97578 0.0
H1701 H 0.23922 0.25752 0.94668 0.0
H1702 H 0.21409 0.33255 0.95046 0.0
H1703 H 0.18189 0.27857 0.9805 0.0
C1704 C 0.15479 0.29989 0.98734 0.0
C1705 C 0.14571 0.31981 0.98579 0.0
C1706 C 0.21967 0.31615 0.94978 0.0
C1707 C 0.18714 0.30858 0.97019 0.0
C1708 C 0.2384 0.30875 0.9383 0.0
C1709 C 0.24572 0.28737 0.93663 0.0
C1710 C 0.20814 0.30206 0.95965 0.0
C1711 C 0.23412 0.27407 0.94736 0.0
C1712 C 0.17545 0.29426 0.97962 0.0
C1713 C 0.1583 0.33411 0.97718 0.0
N1714 N 0.21585 0.28158 0.95827 0.0
N1715 N 0.17828 0.32814 0.96953 0.0
H1716 H 0.94241 0.86409 0.32237 0.0
H1717 H -0.00767 0.74362 0.29182 0.0
H1718 H -0.0062 0.84329 0.35819 0.0
H1719 H 0.94447 0.76566 0.2529 0.0
H1720 H -0.00714 0.78001 0.3164 0.0
H1721 H 0.94296 0.82826 0.29667 0.0
C1722 C 0.95389 0.85205 0.32479 0.0
C1723 C 0.96804 0.85673 0.34254 0.0
C1724 C 0.98225 0.77691 0.30247 0.0
C1725 C 0.96865 0.81557 0.31319 0.0
C1726 C 0.98189 0.75609 0.28844 0.0
C1727 C 0.9683 0.75152 0.27025 0.0
C1728 C 0.96888 0.79334 0.29839 0.0
C1729 C 0.95519 0.76841 0.26671 0.0
C1730 C 0.95418 0.83156 0.3101 0.0
C1731 C 0.98257 0.84044 0.34478 0.0
N1732 N 0.95578 0.78854 0.28067 0.0
N1733 N 0.98243 0.82058 0.33035 0.0
H1734 H 0.66272 0.77317 0.96464 0.0
H1735 H 0.77178 0.71183 0.97918 0.0
H1736 H 0.68655 0.71754 0.9164 0.0
H1737 H 0.74166 0.76014 0.03061 0.0
H1738 H 0.74161 0.71444 0.9553 0.0
H1739 H 0.69226 0.76924 0.98852 0.0
C1740 C 0.67413 0.76007 0.95907 0.0
C1741 C 0.67214 0.74568 0.93844 0.0
C1742 C 0.74163 0.72449 0.9718 0.0
C1743 C 0.70617 0.74116 0.96575 0.0
C1744 C 0.75899 0.72322 0.98535 0.0
C1745 C 0.75946 0.73615 0.00676 0.0
C1746 C 0.72466 0.73884 0.97973 0.0
C1747 C 0.742 0.74994 0.01417 0.0
C1748 C 0.691 0.75782 0.97275 0.0
C1749 C 0.68743 0.72899 0.93217 0.0
N1750 N 0.72539 0.75102 0.00066 0.0
N1751 N 0.70387 0.72726 0.94573 0.0
H1752 H 0.71148 0.95348 0.66398 0.0
H1753 H 0.65284 0.0128 0.77498 0.0
H1754 H 0.72223 0.0207 0.69785 0.0
H1755 H 0.63496 0.94889 0.7365 0.0
H1756 H 0.68129 0.01419 0.74903 0.0
H1757 H 0.68595 0.94999 0.69213 0.0
C1758 C 0.70817 0.96763 0.6771 0.0
C1759 C 0.71838 0.98766 0.67812 0.0
C1760 C 0.67123 -0.0002 0.74631 0.0
C1761 C 0.6899 0.98352 0.71095 0.0
C1762 C 0.65499 -0.00104 0.76118 0.0
C1763 C 0.64134 0.98076 0.75786 0.0
C1764 C 0.67391 0.98234 0.72794 0.0
C1765 C 0.64501 0.9633 0.73969 0.0
C1766 C 0.69383 0.96553 0.69337 0.0
C1767 C 0.7145 0.00503 0.69628 0.0
N1768 N 0.66086 0.96457 0.72535 0.0
N1769 N 0.70048 0.00261 0.7119 0.0
H1770 H 0.65714 0.98831 0.19835 0.0
H1771 H 0.68531 0.02425 0.32415 0.0
H1772 H 0.61472 0.02777 0.24589 0.0
H1773 H 0.73419 0.00851 0.27485 0.0
H1774 H 0.65849 0.02291 0.29587 0.0
H1775 H 0.68506 -0.00721 0.22621 0.0
C1776 C 0.65373 -0.00199 0.2146 0.0
C1777 C 0.63354 0.00765 0.21981 0.0
C1778 C 0.67513 0.02006 0.29125 0.0
C1779 C 0.66529 0.01256 0.25176 0.0
C1780 C 0.6905 0.02118 0.30744 0.0
C1781 C 0.71213 0.01742 0.30195 0.0
C1782 C 0.68136 0.01455 0.26932 0.0
C1783 C 0.7177 0.0118 0.27982 0.0
C1784 C 0.66968 0.00058 0.23046 0.0
C1785 C 0.63005 0.02009 0.24113 0.0
N1786 N 0.70241 0.0105 0.26429 0.0
N1787 N 0.64569 0.02201 0.25637 0.0
H1788 H 0.31352 0.97129 0.78652 0.0
H1789 H 0.22448 0.95151 0.69287 0.0
H1790 H 0.25923 0.92847 0.78378 0.0
H1791 H 0.27791 -0.00447 0.69572 0.0
H1792 H 0.23783 0.94195 0.72546 0.0
H1793 H 0.30141 0.97979 0.75287 0.0
C1794 C 0.29885 0.96399 0.77907 0.0
C1795 C 0.28702 0.94966 0.78832 0.0
C1796 C 0.24669 0.95366 0.71895 0.0
C1797 C 0.27346 0.95868 0.74937 0.0
C1798 C 0.23908 0.95912 0.70029 0.0
C1799 C 0.25004 0.97442 0.69154 0.0
C1800 C 0.26542 0.96357 0.72903 0.0
C1801 C 0.2689 0.98369 0.70189 0.0
C1802 C 0.29209 0.96861 0.75967 0.0
C1803 C 0.26875 0.93975 0.7773 0.0
N1804 N 0.27595 0.97817 0.72013 0.0
N1805 N 0.26247 0.94453 0.75848 0.0
H1806 H 0.23141 0.03344 0.31231 0.0
H1807 H 0.33685 0.01299 0.2391 0.0
H1808 H 0.29127 0.01052 0.33263 0.0
H1809 H 0.27723 0.03601 0.21837 0.0
H1810 H 0.32173 0.01673 0.27527 0.0
H1811 H 0.24913 0.03914 0.2798 0.0
C1812 C 0.24833 0.02983 0.31009 0.0
C1813 C 0.25979 0.02121 0.32512 0.0
C1814 C 0.31201 0.02118 0.26289 0.0
C1815 C 0.28015 0.02759 0.28784 0.0
C1816 C 0.32065 0.01907 0.2422 0.0
C1817 C 0.30821 0.02392 0.22555 0.0
C1818 C 0.2907 0.02807 0.26699 0.0
C1819 C 0.28737 0.0319 0.23063 0.0
C1820 C 0.25844 0.03308 0.29149 0.0
C1821 C 0.28172 0.01699 0.32141 0.0
N1822 N 0.27919 0.03348 0.25082 0.0
N1823 N 0.29111 0.02001 0.30305 0.0
loop_
_geom_bond_atom_site_label_1
_geom_bond_atom_site_label_2
_geom_bond_distance
_geom_bond_site_symmetry_2
_ccdc_geom_bond_type
O0 Cd1 2.300 . S
O0 C7 1.275 . S
Cd1 O0 2.300 . S
Cd1 O9 2.381 . S
Cd1 O10 2.378 . S
O2 Cd3 2.385 . S
O2 C7 1.255 . S
Cd3 O2 2.385 . S
Cd3 O4 2.317 . S
O4 Cd3 2.317 . S
O4 C5 1.232 . S
C5 O4 1.232 . S
C5 O6 1.218 . S
O6 C5 1.218 . S
C7 O0 1.275 . S
C7 O2 1.255 . S
C8 O9 1.258 . S
C8 O10 1.256 . S
O9 Cd1 2.381 . S
O9 C8 1.258 . S
O10 Cd1 2.378 . S
O10 C8 1.256 . S
O11 Cd12 2.300 . S
O11 C18 1.275 . S
Cd12 O11 2.300 . S
Cd12 O20 2.381 . S
Cd12 O21 2.378 . S
O13 Cd14 2.385 . S
O13 C18 1.255 . S
Cd14 O13 2.385 . S
Cd14 O15 2.317 . S
O15 Cd14 2.317 . S
O15 C16 1.232 . S
C16 O15 1.232 . S
C16 O17 1.218 . S
O17 C16 1.218 . S
C18 O11 1.275 . S
C18 O13 1.255 . S
C19 O20 1.258 . S
C19 O21 1.256 . S
O20 Cd12 2.381 . S
O20 C19 1.258 . S
O21 Cd12 2.378 . S
O21 C19 1.256 . S
O22 Cd23 2.300 . S
O22 C29 1.275 . S
Cd23 O22 2.300 . S
Cd23 O31 2.381 . S
Cd23 O32 2.378 . S
O24 Cd25 2.385 . S
O24 C29 1.255 . S
Cd25 O24 2.385 . S
Cd25 O26 2.317 . S
O26 Cd25 2.317 . S
O26 C27 1.232 . S
C27 O26 1.232 . S
C27 O28 1.218 . S
O28 C27 1.218 . S
C29 O22 1.275 . S
C29 O24 1.255 . S
C30 O31 1.258 . S
C30 O32 1.256 . S
O31 Cd23 2.381 . S
O31 C30 1.258 . S
O32 Cd23 2.378 . S
O32 C30 1.256 . S
O33 Cd34 2.300 . S
O33 C40 1.275 . S
Cd34 O33 2.300 . S
Cd34 O42 2.381 . S
Cd34 O43 2.378 . S
O35 Cd36 2.385 . S
O35 C40 1.255 . S
Cd36 O35 2.385 . S
Cd36 O37 2.317 . S
O37 Cd36 2.317 . S
O37 C38 1.232 . S
C38 O37 1.232 . S
C38 O39 1.218 . S
O39 C38 1.218 . S
C40 O33 1.275 . S
C40 O35 1.255 . S
C41 O42 1.258 . S
C41 O43 1.256 . S
O42 Cd34 2.381 . S
O42 C41 1.258 . S
O43 Cd34 2.378 . S
O43 C41 1.256 . S
O44 Cd45 2.300 . S
O44 C51 1.275 . S
Cd45 O44 2.300 . S
Cd45 O53 2.381 . S
Cd45 O54 2.378 . S
O46 Cd47 2.385 . S
O46 C51 1.255 . S
Cd47 O46 2.385 . S
Cd47 O48 2.317 . S
O48 Cd47 2.317 . S
O48 C49 1.232 . S
C49 O48 1.232 . S
C49 O50 1.218 . S
O50 C49 1.218 . S
C51 O44 1.275 . S
C51 O46 1.255 . S
C52 O53 1.258 . S
C52 O54 1.256 . S
O53 Cd45 2.381 . S
O53 C52 1.258 . S
O54 Cd45 2.378 . S
O54 C52 1.256 . S
O55 Cd56 2.300 . S
O55 C62 1.275 . S
Cd56 O55 2.300 . S
Cd56 O64 2.381 . S
Cd56 O65 2.378 . S
O57 Cd58 2.385 . S
O57 C62 1.255 . S
Cd58 O57 2.385 . S
Cd58 O59 2.317 . S
O59 Cd58 2.317 . S
O59 C60 1.232 . S
C60 O59 1.232 . S
C60 O61 1.218 . S
O61 C60 1.218 . S
C62 O55 1.275 . S
C62 O57 1.255 . S
C63 O64 1.258 . S
C63 O65 1.256 . S
O64 Cd56 2.381 . S
O64 C63 1.258 . S
O65 Cd56 2.378 . S
O65 C63 1.256 . S
O66 Cd67 2.300 . S
O66 C73 1.275 . S
Cd67 O66 2.300 . S
Cd67 O75 2.381 . S
Cd67 O76 2.378 . S
O68 Cd69 2.385 . S
O68 C73 1.255 . S
Cd69 O68 2.385 . S
Cd69 O70 2.317 . S
O70 Cd69 2.317 . S
O70 C71 1.232 . S
C71 O70 1.232 . S
C71 O72 1.218 . S
O72 C71 1.218 . S
C73 O66 1.275 . S
C73 O68 1.255 . S
C74 O75 1.258 . S
C74 O76 1.256 . S
O75 Cd67 2.381 . S
O75 C74 1.258 . S
O76 Cd67 2.378 . S
O76 C74 1.256 . S
O77 Cd78 2.300 . S
O77 C84 1.275 . S
Cd78 O77 2.300 . S
Cd78 O86 2.381 . S
Cd78 O87 2.378 . S
O79 Cd80 2.385 . S
O79 C84 1.255 . S
Cd80 O79 2.385 . S
Cd80 O81 2.317 . S
O81 Cd80 2.317 . S
O81 C82 1.232 . S
C82 O81 1.232 . S
C82 O83 1.218 . S
O83 C82 1.218 . S
C84 O77 1.275 . S
C84 O79 1.255 . S
C85 O86 1.258 . S
C85 O87 1.256 . S
O86 Cd78 2.381 . S
O86 C85 1.258 . S
O87 Cd78 2.378 . S
O87 C85 1.256 . S
O88 Cd89 2.300 . S
O88 C95 1.275 . S
Cd89 O88 2.300 . S
Cd89 O97 2.381 . S
Cd89 O98 2.378 . S
O90 Cd91 2.385 . S
O90 C95 1.255 . S
Cd91 O90 2.385 . S
Cd91 O92 2.317 . S
O92 Cd91 2.317 . S
O92 C93 1.232 . S
C93 O92 1.232 . S
C93 O94 1.218 . S
O94 C93 1.218 . S
C95 O88 1.275 . S
C95 O90 1.255 . S
C96 O97 1.258 . S
C96 O98 1.256 . S
O97 Cd89 2.381 . S
O97 C96 1.258 . S
O98 Cd89 2.378 . S
O98 C96 1.256 . S
O99 Cd100 2.300 . S
O99 C106 1.275 . S
Cd100 O99 2.300 . S
Cd100 O108 2.381 . S
Cd100 O109 2.378 . S
O101 Cd102 2.385 . S
O101 C106 1.255 . S
Cd102 O101 2.385 . S
Cd102 O103 2.317 . S
O103 Cd102 2.317 . S
O103 C104 1.232 . S
C104 O103 1.232 . S
C104 O105 1.218 . S
O105 C104 1.218 . S
C106 O99 1.275 . S
C106 O101 1.255 . S
C107 O108 1.258 . S
C107 O109 1.256 . S
O108 Cd100 2.381 . S
O108 C107 1.258 . S
O109 Cd100 2.378 . S
O109 C107 1.256 . S
O110 Cd111 2.300 . S
O110 C117 1.275 . S
Cd111 O110 2.300 . S
Cd111 O119 2.381 . S
Cd111 O120 2.378 . S
O112 Cd113 2.385 . S
O112 C117 1.255 . S
Cd113 O112 2.385 . S
Cd113 O114 2.317 . S
O114 Cd113 2.317 . S
O114 C115 1.232 . S
C115 O114 1.232 . S
C115 O116 1.218 . S
O116 C115 1.218 . S
C117 O110 1.275 . S
C117 O112 1.255 . S
C118 O119 1.258 . S
C118 O120 1.256 . S
O119 Cd111 2.381 . S
O119 C118 1.258 . S
O120 Cd111 2.378 . S
O120 C118 1.256 . S
O121 Cd122 2.300 . S
O121 C128 1.275 . S
Cd122 O121 2.300 . S
Cd122 O130 2.381 . S
Cd122 O131 2.378 . S
O123 Cd124 2.385 . S
O123 C128 1.255 . S
Cd124 O123 2.385 . S
Cd124 O125 2.317 . S
O125 Cd124 2.317 . S
O125 C126 1.232 . S
C126 O125 1.232 . S
C126 O127 1.218 . S
O127 C126 1.218 . S
C128 O121 1.275 . S
C128 O123 1.255 . S
C129 O130 1.258 . S
C129 O131 1.256 . S
O130 Cd122 2.381 . S
O130 C129 1.258 . S
O131 Cd122 2.378 . S
O131 C129 1.256 . S
O132 Cd133 2.300 . S
O132 C139 1.275 . S
Cd133 O132 2.300 . S
Cd133 O141 2.381 . S
Cd133 O142 2.378 . S
O134 Cd135 2.385 . S
O134 C139 1.255 . S
Cd135 O134 2.385 . S
Cd135 O136 2.317 . S
O136 Cd135 2.317 . S
O136 C137 1.232 . S
C137 O136 1.232 . S
C137 O138 1.218 . S
O138 C137 1.218 . S
C139 O132 1.275 . S
C139 O134 1.255 . S
C140 O141 1.258 . S
C140 O142 1.256 . S
O141 Cd133 2.381 . S
O141 C140 1.258 . S
O142 Cd133 2.378 . S
O142 C140 1.256 . S
O143 Cd144 2.300 . S
O143 C150 1.275 . S
Cd144 O143 2.300 . S
Cd144 O152 2.381 . S
Cd144 O153 2.378 . S
O145 Cd146 2.385 . S
O145 C150 1.255 . S
Cd146 O145 2.385 . S
Cd146 O147 2.317 . S
O147 Cd146 2.317 . S
O147 C148 1.232 . S
C148 O147 1.232 . S
C148 O149 1.218 . S
O149 C148 1.218 . S
C150 O143 1.275 . S
C150 O145 1.255 . S
C151 O152 1.258 . S
C151 O153 1.256 . S
O152 Cd144 2.381 . S
O152 C151 1.258 . S
O153 Cd144 2.378 . S
O153 C151 1.256 . S
O154 Cd155 2.300 . S
O154 C161 1.275 . S
Cd155 O154 2.300 . S
Cd155 O163 2.381 . S
Cd155 O164 2.378 . S
O156 Cd157 2.385 . S
O156 C161 1.255 . S
Cd157 O156 2.385 . S
Cd157 O158 2.317 . S
O158 Cd157 2.317 . S
O158 C159 1.232 . S
C159 O158 1.232 . S
C159 O160 1.218 . S
O160 C159 1.218 . S
C161 O154 1.275 . S
C161 O156 1.255 . S
C162 O163 1.258 . S
C162 O164 1.256 . S
O163 Cd155 2.381 . S
O163 C162 1.258 . S
O164 Cd155 2.378 . S
O164 C162 1.256 . S
O165 Cd166 2.300 . S
O165 C172 1.275 . S
Cd166 O165 2.300 . S
Cd166 O174 2.381 . S
Cd166 O175 2.378 . S
O167 Cd168 2.385 . S
O167 C172 1.255 . S
Cd168 O167 2.385 . S
Cd168 O169 2.317 . S
O169 Cd168 2.317 . S
O169 C170 1.232 . S
C170 O169 1.232 . S
C170 O171 1.218 . S
O171 C170 1.218 . S
C172 O165 1.275 . S
C172 O167 1.255 . S
C173 O174 1.258 . S
C173 O175 1.256 . S
O174 Cd166 2.381 . S
O174 C173 1.258 . S
O175 Cd166 2.378 . S
O175 C173 1.256 . S
O176 Cd177 2.300 . S
O176 C183 1.275 . S
Cd177 O176 2.300 . S
Cd177 O185 2.381 . S
Cd177 O186 2.378 . S
O178 Cd179 2.385 . S
O178 C183 1.255 . S
Cd179 O178 2.385 . S
Cd179 O180 2.317 . S
O180 Cd179 2.317 . S
O180 C181 1.232 . S
C181 O180 1.232 . S
C181 O182 1.218 . S
O182 C181 1.218 . S
C183 O176 1.275 . S
C183 O178 1.255 . S
C184 O185 1.258 . S
C184 O186 1.256 . S
O185 Cd177 2.381 . S
O185 C184 1.258 . S
O186 Cd177 2.378 . S
O186 C184 1.256 . S
O187 Cd188 2.300 . S
O187 C194 1.275 . S
Cd188 O187 2.300 . S
Cd188 O196 2.381 . S
Cd188 O197 2.378 . S
O189 Cd190 2.385 . S
O189 C194 1.255 . S
Cd190 O189 2.385 . S
Cd190 O191 2.317 . S
O191 Cd190 2.317 . S
O191 C192 1.232 . S
C192 O191 1.232 . S
C192 O193 1.218 . S
O193 C192 1.218 . S
C194 O187 1.275 . S
C194 O189 1.255 . S
C195 O196 1.258 . S
C195 O197 1.256 . S
O196 Cd188 2.381 . S
O196 C195 1.258 . S
O197 Cd188 2.378 . S
O197 C195 1.256 . S
O198 Cd199 2.300 . S
O198 C205 1.275 . S
Cd199 O198 2.300 . S
Cd199 O207 2.381 . S
Cd199 O208 2.378 . S
O200 Cd201 2.385 . S
O200 C205 1.255 . S
Cd201 O200 2.385 . S
Cd201 O202 2.317 . S
O202 Cd201 2.317 . S
O202 C203 1.232 . S
C203 O202 1.232 . S
C203 O204 1.218 . S
O204 C203 1.218 . S
C205 O198 1.275 . S
C205 O200 1.255 . S
C206 O207 1.258 . S
C206 O208 1.256 . S
O207 Cd199 2.381 . S
O207 C206 1.258 . S
O208 Cd199 2.378 . S
O208 C206 1.256 . S
O209 Cd210 2.300 . S
O209 C216 1.275 . S
Cd210 O209 2.300 . S
Cd210 O218 2.381 . S
Cd210 O219 2.378 . S
O211 Cd212 2.385 . S
O211 C216 1.255 . S
Cd212 O211 2.385 . S
Cd212 O213 2.317 . S
O213 Cd212 2.317 . S
O213 C214 1.232 . S
C214 O213 1.232 . S
C214 O215 1.218 . S
O215 C214 1.218 . S
C216 O209 1.275 . S
C216 O211 1.255 . S
C217 O218 1.258 . S
C217 O219 1.256 . S
O218 Cd210 2.381 . S
O218 C217 1.258 . S
O219 Cd210 2.378 . S
O219 C217 1.256 . S
O220 Cd221 2.300 . S
O220 C227 1.275 . S
Cd221 O220 2.300 . S
Cd221 O229 2.381 . S
Cd221 O230 2.378 . S
O222 Cd223 2.385 . S
O222 C227 1.255 . S
Cd223 O222 2.385 . S
Cd223 O224 2.317 . S
O224 Cd223 2.317 . S
O224 C225 1.232 . S
C225 O224 1.232 . S
C225 O226 1.218 . S
O226 C225 1.218 . S
C227 O220 1.275 . S
C227 O222 1.255 . S
C228 O229 1.258 . S
C228 O230 1.256 . S
O229 Cd221 2.381 . S
O229 C228 1.258 . S
O230 Cd221 2.378 . S
O230 C228 1.256 . S
O231 Cd232 2.300 . S
O231 C238 1.275 . S
Cd232 O231 2.300 . S
Cd232 O240 2.381 . S
Cd232 O241 2.378 . S
O233 Cd234 2.385 . S
O233 C238 1.255 . S
Cd234 O233 2.385 . S
Cd234 O235 2.317 . S
O235 Cd234 2.317 . S
O235 C236 1.232 . S
C236 O235 1.232 . S
C236 O237 1.218 . S
O237 C236 1.218 . S
C238 O231 1.275 . S
C238 O233 1.255 . S
C239 O240 1.258 . S
C239 O241 1.256 . S
O240 Cd232 2.381 . S
O240 C239 1.258 . S
O241 Cd232 2.378 . S
O241 C239 1.256 . S
O242 Cd243 2.300 . S
O242 C249 1.275 . S
Cd243 O242 2.300 . S
Cd243 O251 2.381 . S
Cd243 O252 2.378 . S
O244 Cd245 2.385 . S
O244 C249 1.255 . S
Cd245 O244 2.385 . S
Cd245 O246 2.317 . S
O246 Cd245 2.317 . S
O246 C247 1.232 . S
C247 O246 1.232 . S
C247 O248 1.218 . S
O248 C247 1.218 . S
C249 O242 1.275 . S
C249 O244 1.255 . S
C250 O251 1.258 . S
C250 O252 1.256 . S
O251 Cd243 2.381 . S
O251 C250 1.258 . S
O252 Cd243 2.378 . S
O252 C250 1.256 . S
O253 Cd254 2.300 . S
O253 C260 1.275 . S
Cd254 O253 2.300 . S
Cd254 O262 2.381 . S
Cd254 O263 2.378 . S
O255 Cd256 2.385 . S
O255 C260 1.255 . S
Cd256 O255 2.385 . S
Cd256 O257 2.317 . S
O257 Cd256 2.317 . S
O257 C258 1.232 . S
C258 O257 1.232 . S
C258 O259 1.218 . S
O259 C258 1.218 . S
C260 O253 1.275 . S
C260 O255 1.255 . S
C261 O262 1.258 . S
C261 O263 1.256 . S
O262 Cd254 2.381 . S
O262 C261 1.258 . S
O263 Cd254 2.378 . S
O263 C261 1.256 . S
O264 Cd265 2.300 . S
O264 C271 1.275 1_455 S
Cd265 O264 2.300 . S
Cd265 O273 2.381 . S
Cd265 O274 2.378 . S
O266 Cd267 2.385 . S
O266 C271 1.255 . S
Cd267 O266 2.385 . S
Cd267 O268 2.317 . S
O268 Cd267 2.317 . S
O268 C269 1.232 . S
C269 O268 1.232 . S
C269 O270 1.218 . S
O270 C269 1.218 . S
C271 O264 1.275 1_655 S
C271 O266 1.255 . S
C272 O273 1.258 . S
C272 O274 1.256 . S
O273 Cd265 2.381 . S
O273 C272 1.258 . S
O274 Cd265 2.378 . S
O274 C272 1.256 . S
O275 Cd276 2.300 . S
O275 C282 1.275 . S
Cd276 O275 2.300 . S
Cd276 O284 2.381 . S
Cd276 O285 2.378 . S
O277 Cd278 2.385 . S
O277 C282 1.255 . S
Cd278 O277 2.385 . S
Cd278 O279 2.317 . S
O279 Cd278 2.317 . S
O279 C280 1.232 . S
C280 O279 1.232 . S
C280 O281 1.218 . S
O281 C280 1.218 . S
C282 O275 1.275 . S
C282 O277 1.255 . S
C283 O284 1.258 . S
C283 O285 1.256 . S
O284 Cd276 2.381 . S
O284 C283 1.258 . S
O285 Cd276 2.378 . S
O285 C283 1.256 . S
O286 Cd287 2.300 . S
O286 C293 1.275 1_455 S
Cd287 O286 2.300 . S
Cd287 O295 2.381 . S
Cd287 O296 2.378 . S
O288 Cd289 2.385 . S
O288 C293 1.255 . S
Cd289 O288 2.385 . S
Cd289 O290 2.317 . S
O290 Cd289 2.317 . S
O290 C291 1.232 . S
C291 O290 1.232 . S
C291 O292 1.218 . S
O292 C291 1.218 . S
C293 O286 1.275 1_655 S
C293 O288 1.255 . S
C294 O295 1.258 . S
C294 O296 1.256 . S
O295 Cd287 2.381 . S
O295 C294 1.258 . S
O296 Cd287 2.378 . S
O296 C294 1.256 . S
O297 Cd298 2.300 . S
O297 C304 1.275 . S
Cd298 O297 2.300 . S
Cd298 O306 2.381 . S
Cd298 O307 2.378 . S
O299 Cd300 2.385 . S
O299 C304 1.255 . S
Cd300 O299 2.385 . S
Cd300 O301 2.317 . S
O301 Cd300 2.317 . S
O301 C302 1.232 . S
C302 O301 1.232 . S
C302 O303 1.218 . S
O303 C302 1.218 . S
C304 O297 1.275 . S
C304 O299 1.255 . S
C305 O306 1.258 . S
C305 O307 1.256 . S
O306 Cd298 2.381 . S
O306 C305 1.258 . S
O307 Cd298 2.378 . S
O307 C305 1.256 . S
O308 Cd309 2.300 . S
O308 C315 1.275 1_455 S
Cd309 O308 2.300 . S
Cd309 O317 2.381 . S
Cd309 O318 2.378 . S
O310 Cd311 2.385 . S
O310 C315 1.255 . S
Cd311 O310 2.385 . S
Cd311 O312 2.317 . S
O312 Cd311 2.317 . S
O312 C313 1.232 . S
C313 O312 1.232 . S
C313 O314 1.218 . S
O314 C313 1.218 . S
C315 O308 1.275 1_655 S
C315 O310 1.255 . S
C316 O317 1.258 . S
C316 O318 1.256 . S
O317 Cd309 2.381 . S
O317 C316 1.258 . S
O318 Cd309 2.378 . S
O318 C316 1.256 . S
O319 Cd320 2.300 . S
O319 C326 1.275 . S
Cd320 O319 2.300 . S
Cd320 O328 2.381 . S
Cd320 O329 2.378 . S
O321 Cd322 2.385 . S
O321 C326 1.255 . S
Cd322 O321 2.385 . S
Cd322 O323 2.317 . S
O323 Cd322 2.317 . S
O323 C324 1.232 . S
C324 O323 1.232 . S
C324 O325 1.218 . S
O325 C324 1.218 . S
C326 O319 1.275 . S
C326 O321 1.255 . S
C327 O328 1.258 . S
C327 O329 1.256 . S
O328 Cd320 2.381 . S
O328 C327 1.258 . S
O329 Cd320 2.378 . S
O329 C327 1.256 . S
O330 Cd331 2.300 . S
O330 C337 1.275 1_455 S
Cd331 O330 2.300 . S
Cd331 O339 2.381 . S
Cd331 O340 2.378 . S
O332 Cd333 2.385 . S
O332 C337 1.255 . S
Cd333 O332 2.385 . S
Cd333 O334 2.317 . S
O334 Cd333 2.317 . S
O334 C335 1.232 . S
C335 O334 1.232 . S
C335 O336 1.218 . S
O336 C335 1.218 . S
C337 O330 1.275 1_655 S
C337 O332 1.255 . S
C338 O339 1.258 . S
C338 O340 1.256 . S
O339 Cd331 2.381 . S
O339 C338 1.258 . S
O340 Cd331 2.378 . S
O340 C338 1.256 . S
O341 Cd342 2.300 . S
O341 C348 1.275 . S
Cd342 O341 2.300 . S
Cd342 O350 2.381 . S
Cd342 O351 2.378 . S
O343 Cd344 2.385 . S
O343 C348 1.255 . S
Cd344 O343 2.385 . S
Cd344 O345 2.317 . S
O345 Cd344 2.317 . S
O345 C346 1.232 . S
C346 O345 1.232 . S
C346 O347 1.218 . S
O347 C346 1.218 . S
C348 O341 1.275 . S
C348 O343 1.255 . S
C349 O350 1.258 . S
C349 O351 1.256 . S
O350 Cd342 2.381 . S
O350 C349 1.258 . S
O351 Cd342 2.378 . S
O351 C349 1.256 . S
O352 Cd353 2.300 . S
O352 C359 1.275 . S
Cd353 O352 2.300 . S
Cd353 O361 2.381 . S
Cd353 O362 2.378 . S
O354 Cd355 2.385 . S
O354 C359 1.255 1_545 S
Cd355 O354 2.385 . S
Cd355 O356 2.317 . S
O356 Cd355 2.317 . S
O356 C357 1.232 . S
C357 O356 1.232 . S
C357 O358 1.218 . S
O358 C357 1.218 . S
C359 O352 1.275 . S
C359 O354 1.255 1_565 S
C360 O361 1.258 . S
C360 O362 1.256 . S
O361 Cd353 2.381 . S
O361 C360 1.258 . S
O362 Cd353 2.378 . S
O362 C360 1.256 . S
O363 Cd364 2.300 . S
O363 C370 1.275 . S
Cd364 O363 2.300 . S
Cd364 O372 2.381 . S
Cd364 O373 2.378 . S
O365 Cd366 2.385 . S
O365 C370 1.255 . S
Cd366 O365 2.385 . S
Cd366 O367 2.317 . S
O367 Cd366 2.317 . S
O367 C368 1.232 . S
C368 O367 1.232 . S
C368 O369 1.218 . S
O369 C368 1.218 . S
C370 O363 1.275 . S
C370 O365 1.255 . S
C371 O372 1.258 . S
C371 O373 1.256 . S
O372 Cd364 2.381 . S
O372 C371 1.258 . S
O373 Cd364 2.378 . S
O373 C371 1.256 . S
O374 Cd375 2.300 . S
O374 C381 1.295 . S
Cd375 O374 2.300 . S
Cd375 O383 2.381 . S
Cd375 O384 2.378 . S
O376 Cd377 2.385 . S
O376 C381 1.245 1_545 S
Cd377 O376 2.385 . S
Cd377 O378 2.317 . S
O378 Cd377 2.317 . S
O378 C379 1.232 . S
C379 O378 1.232 . S
C379 O380 1.218 . S
O380 C379 1.218 . S
C381 O374 1.295 . S
C381 O376 1.245 1_565 S
C382 O383 1.258 . S
C382 O384 1.256 . S
O383 Cd375 2.381 . S
O383 C382 1.258 . S
O384 Cd375 2.378 . S
O384 C382 1.256 . S
O385 Cd386 2.300 . S
O385 C392 1.275 1_565 S
Cd386 O385 2.300 . S
Cd386 O394 2.381 . S
Cd386 O395 2.378 . S
O387 Cd388 2.385 . S
O387 C392 1.255 . S
Cd388 O387 2.385 . S
Cd388 O389 2.353 . S
O389 Cd388 2.353 . S
O389 C390 1.235 1_545 S
C390 O389 1.235 1_565 S
C390 O391 1.222 1_565 S
O391 C390 1.222 1_545 S
C392 O385 1.275 1_545 S
C392 O387 1.255 . S
C393 O394 1.258 . S
C393 O395 1.256 . S
O394 Cd386 2.381 . S
O394 C393 1.258 . S
O395 Cd386 2.378 . S
O395 C393 1.256 . S
O396 Cd397 2.300 . S
O396 C403 1.275 . S
Cd397 O396 2.300 . S
Cd397 O405 2.381 . S
Cd397 O406 2.378 . S
O398 Cd399 2.385 . S
O398 C403 1.255 1_565 S
Cd399 O398 2.385 . S
Cd399 O400 2.317 . S
O400 Cd399 2.317 . S
O400 C401 1.232 . S
C401 O400 1.232 . S
C401 O402 1.218 . S
O402 C401 1.218 . S
C403 O396 1.275 . S
C403 O398 1.255 1_545 S
C404 O405 1.258 . S
C404 O406 1.256 . S
O405 Cd397 2.381 . S
O405 C404 1.258 . S
O406 Cd397 2.378 . S
O406 C404 1.256 . S
O407 Cd408 2.300 . S
O407 C414 1.275 1_545 S
Cd408 O407 2.300 . S
Cd408 O416 2.381 . S
Cd408 O417 2.378 . S
O409 Cd410 2.385 . S
O409 C414 1.255 . S
Cd410 O409 2.385 . S
Cd410 O411 2.353 . S
O411 Cd410 2.353 . S
O411 C412 1.235 1_565 S
C412 O411 1.235 1_545 S
C412 O413 1.222 1_545 S
O413 C412 1.222 1_565 S
C414 O407 1.275 1_565 S
C414 O409 1.255 . S
C415 O416 1.258 . S
C415 O417 1.256 . S
O416 Cd408 2.381 . S
O416 C415 1.258 . S
O417 Cd408 2.378 . S
O417 C415 1.256 . S
O418 Cd419 2.300 . S
O418 C425 1.295 . S
Cd419 O418 2.300 . S
Cd419 O427 2.381 . S
Cd419 O428 2.378 . S
O420 Cd421 2.385 . S
O420 C425 1.245 1_565 S
Cd421 O420 2.385 . S
Cd421 O422 2.317 . S
O422 Cd421 2.317 . S
O422 C423 1.232 . S
C423 O422 1.232 . S
C423 O424 1.218 . S
O424 C423 1.218 . S
C425 O418 1.295 . S
C425 O420 1.245 1_545 S
C426 O427 1.258 . S
C426 O428 1.256 . S
O427 Cd419 2.381 . S
O427 C426 1.258 . S
O428 Cd419 2.378 . S
O428 C426 1.256 . S
O429 Cd430 2.300 . S
O429 C436 1.275 . S
Cd430 O429 2.300 . S
Cd430 O438 2.381 . S
Cd430 O439 2.378 . S
O431 Cd432 2.385 . S
O431 C436 1.255 . S
Cd432 O431 2.385 . S
Cd432 O433 2.317 . S
O433 Cd432 2.317 . S
O433 C434 1.232 . S
C434 O433 1.232 . S
C434 O435 1.218 . S
O435 C434 1.218 . S
C436 O429 1.275 . S
C436 O431 1.255 . S
C437 O438 1.258 . S
C437 O439 1.256 . S
O438 Cd430 2.381 . S
O438 C437 1.258 . S
O439 Cd430 2.378 . S
O439 C437 1.256 . S
O440 Cd441 2.300 . S
O440 C447 1.275 1_554 S
Cd441 O440 2.300 . S
Cd441 O449 2.381 . S
Cd441 O450 2.378 . S
O442 Cd443 2.385 . S
O442 C447 1.255 . S
Cd443 O442 2.385 . S
Cd443 O444 2.317 . S
O444 Cd443 2.317 . S
O444 C445 1.232 . S
C445 O444 1.232 . S
C445 O446 1.218 . S
O446 C445 1.218 . S
C447 O440 1.275 1_556 S
C447 O442 1.255 . S
C448 O449 1.258 . S
C448 O450 1.256 . S
O449 Cd441 2.381 . S
O449 C448 1.258 . S
O450 Cd441 2.378 . S
O450 C448 1.256 . S
O451 Cd452 2.300 . S
O451 C458 1.275 1_556 S
Cd452 O451 2.300 . S
Cd452 O460 2.381 . S
Cd452 O461 2.378 . S
O453 Cd454 2.385 . S
O453 C458 1.255 . S
Cd454 O453 2.385 . S
Cd454 O455 2.317 . S
O455 Cd454 2.317 . S
O455 C456 1.232 . S
C456 O455 1.232 . S
C456 O457 1.218 . S
O457 C456 1.218 . S
C458 O451 1.275 1_554 S
C458 O453 1.255 . S
C459 O460 1.258 . S
C459 O461 1.256 . S
O460 Cd452 2.381 . S
O460 C459 1.258 . S
O461 Cd452 2.378 . S
O461 C459 1.256 . S
O462 Cd463 2.300 . S
O462 C469 1.275 . S
Cd463 O462 2.300 . S
Cd463 O471 2.381 1_655 S
Cd463 O472 2.378 . S
O464 Cd465 2.385 . S
O464 C469 1.255 . S
Cd465 O464 2.385 . S
Cd465 O466 2.317 . S
O466 Cd465 2.317 . S
O466 C467 1.232 . S
C467 O466 1.232 . S
C467 O468 1.218 . S
O468 C467 1.218 . S
C469 O462 1.275 . S
C469 O464 1.255 . S
C470 O471 1.258 . S
C470 O472 1.257 1_455 S
O471 Cd463 2.381 1_455 S
O471 C470 1.258 . S
O472 Cd463 2.378 . S
O472 C470 1.257 1_655 S
O473 Cd474 2.300 1_554 S
O473 C480 1.275 . S
Cd474 O473 2.300 1_556 S
Cd474 O482 2.381 . S
Cd474 O483 2.378 . S
O475 Cd476 2.385 . S
O475 C480 1.255 . S
Cd476 O475 2.385 . S
Cd476 O477 2.317 . S
O477 Cd476 2.317 . S
O477 C478 1.232 . S
C478 O477 1.232 . S
C478 O479 1.218 . S
O479 C478 1.218 . S
C480 O473 1.275 . S
C480 O475 1.255 . S
C481 O482 1.258 . S
C481 O483 1.256 . S
O482 Cd474 2.381 . S
O482 C481 1.258 . S
O483 Cd474 2.378 . S
O483 C481 1.256 . S
O484 Cd485 2.300 . S
O484 C491 1.275 . S
Cd485 O484 2.300 . S
Cd485 O493 2.381 . S
Cd485 O494 2.378 . S
O486 Cd487 2.385 . S
O486 C491 1.255 . S
Cd487 O486 2.385 . S
Cd487 O488 2.317 . S
O488 Cd487 2.317 . S
O488 C489 1.232 . S
C489 O488 1.232 . S
C489 O490 1.218 . S
O490 C489 1.218 . S
C491 O484 1.275 . S
C491 O486 1.255 . S
C492 O493 1.258 . S
C492 O494 1.256 . S
O493 Cd485 2.381 . S
O493 C492 1.258 . S
O494 Cd485 2.378 . S
O494 C492 1.256 . S
O495 Cd496 2.300 1_556 S
O495 C502 1.275 . S
Cd496 O495 2.300 1_554 S
Cd496 O504 2.381 . S
Cd496 O505 2.378 . S
O497 Cd498 2.385 . S
O497 C502 1.255 . S
Cd498 O497 2.385 . S
Cd498 O499 2.317 . S
O499 Cd498 2.317 . S
O499 C500 1.232 . S
C500 O499 1.232 . S
C500 O501 1.218 . S
O501 C500 1.218 . S
C502 O495 1.275 . S
C502 O497 1.255 . S
C503 O504 1.258 . S
C503 O505 1.256 . S
O504 Cd496 2.381 . S
O504 C503 1.258 . S
O505 Cd496 2.378 . S
O505 C503 1.256 . S
O506 Cd507 2.300 . S
O506 C513 1.275 . S
Cd507 O506 2.300 . S
Cd507 O515 2.381 1_655 S
Cd507 O516 2.378 . S
O508 Cd509 2.385 . S
O508 C513 1.255 . S
Cd509 O508 2.385 . S
Cd509 O510 2.317 . S
O510 Cd509 2.317 . S
O510 C511 1.232 . S
C511 O510 1.232 . S
C511 O512 1.218 . S
O512 C511 1.218 . S
C513 O506 1.275 . S
C513 O508 1.255 . S
C514 O515 1.258 . S
C514 O516 1.257 1_455 S
O515 Cd507 2.381 1_455 S
O515 C514 1.258 . S
O516 Cd507 2.378 . S
O516 C514 1.257 1_655 S
O517 Cd518 2.300 . S
O517 C524 1.275 . S
Cd518 O517 2.300 . S
Cd518 O526 2.381 . S
Cd518 O527 2.378 . S
O519 Cd520 2.385 . S
O519 C524 1.255 . S
Cd520 O519 2.385 . S
Cd520 O521 2.317 . S
O521 Cd520 2.317 . S
O521 C522 1.232 . S
C522 O521 1.232 . S
C522 O523 1.218 . S
O523 C522 1.218 . S
C524 O517 1.275 . S
C524 O519 1.255 . S
C525 O526 1.258 . S
C525 O527 1.256 . S
O526 Cd518 2.381 . S
O526 C525 1.258 . S
O527 Cd518 2.378 . S
O527 C525 1.256 . S
H528 C534 0.930 . S
H529 C538 0.930 . S
H530 C543 0.929 . S
H531 C541 0.929 . S
H532 C536 0.929 . S
H533 C542 0.929 . S
C534 H528 0.930 . S
C534 C535 1.367 . S
C534 C542 1.378 . S
C535 C534 1.367 . S
C535 C543 1.433 . S
C536 H532 0.929 . S
C536 C538 1.378 . S
C536 C540 1.350 . S
C537 C540 1.463 . S
C537 C542 1.350 . S
C537 N545 1.427 . S
C538 H529 0.930 . S
C538 C536 1.378 . S
C538 C539 1.367 . S
C539 C538 1.367 . S
C539 C541 1.433 . S
C540 C536 1.350 . S
C540 C537 1.463 . S
C540 N544 1.427 . S
C541 H531 0.929 . S
C541 C539 1.433 . S
C541 N544 1.384 . S
C542 H533 0.929 . S
C542 C534 1.378 . S
C542 C537 1.350 . S
C543 H530 0.929 . S
C543 C535 1.433 . S
C543 N545 1.384 . S
N544 C540 1.427 . S
N544 C541 1.384 . S
N545 C537 1.427 . S
N545 C543 1.384 . S
H546 C552 0.930 . S
H547 C556 0.930 . S
H548 C561 0.929 . S
H549 C559 0.929 . S
H550 C554 0.929 . S
H551 C560 0.929 . S
C552 H546 0.930 . S
C552 C553 1.367 . S
C552 C560 1.378 . S
C553 C552 1.367 . S
C553 C561 1.433 . S
C554 H550 0.929 . S
C554 C556 1.378 . S
C554 C558 1.350 . S
C555 C558 1.463 . S
C555 C560 1.350 . S
C555 N563 1.427 . S
C556 H547 0.930 . S
C556 C554 1.378 . S
C556 C557 1.367 . S
C557 C556 1.367 . S
C557 C559 1.433 . S
C558 C554 1.350 . S
C558 C555 1.463 . S
C558 N562 1.427 . S
C559 H549 0.929 . S
C559 C557 1.433 . S
C559 N562 1.384 . S
C560 H551 0.929 . S
C560 C552 1.378 . S
C560 C555 1.350 . S
C561 H548 0.929 . S
C561 C553 1.433 . S
C561 N563 1.384 . S
N562 C558 1.427 . S
N562 C559 1.384 . S
N563 C555 1.427 . S
N563 C561 1.384 . S
H564 C570 0.930 . S
H565 C574 0.930 . S
H566 C579 0.929 . S
H567 C577 0.929 . S
H568 C572 0.929 . S
H569 C578 0.929 . S
C570 H564 0.930 . S
C570 C571 1.367 . S
C570 C578 1.378 . S
C571 C570 1.367 . S
C571 C579 1.433 . S
C572 H568 0.929 . S
C572 C574 1.378 . S
C572 C576 1.350 . S
C573 C576 1.463 . S
C573 C578 1.350 . S
C573 N581 1.427 . S
C574 H565 0.930 . S
C574 C572 1.378 . S
C574 C575 1.367 . S
C575 C574 1.367 . S
C575 C577 1.433 . S
C576 C572 1.350 . S
C576 C573 1.463 . S
C576 N580 1.427 . S
C577 H567 0.929 . S
C577 C575 1.433 . S
C577 N580 1.384 . S
C578 H569 0.929 . S
C578 C570 1.378 . S
C578 C573 1.350 . S
C579 H566 0.929 . S
C579 C571 1.433 . S
C579 N581 1.384 . S
N580 C576 1.427 . S
N580 C577 1.384 . S
N581 C573 1.427 . S
N581 C579 1.384 . S
H582 C588 0.930 . S
H583 C592 0.930 . S
H584 C597 0.929 . S
H585 C595 0.929 . S
H586 C590 0.929 . S
H587 C596 0.929 . S
C588 H582 0.930 . S
C588 C589 1.367 . S
C588 C596 1.378 . S
C589 C588 1.367 . S
C589 C597 1.433 . S
C590 H586 0.929 . S
C590 C592 1.378 . S
C590 C594 1.350 . S
C591 C594 1.463 . S
C591 C596 1.350 . S
C591 N599 1.427 . S
C592 H583 0.930 . S
C592 C590 1.378 . S
C592 C593 1.367 . S
C593 C592 1.367 . S
C593 C595 1.433 . S
C594 C590 1.350 . S
C594 C591 1.463 . S
C594 N598 1.427 . S
C595 H585 0.929 . S
C595 C593 1.433 . S
C595 N598 1.384 . S
C596 H587 0.929 . S
C596 C588 1.378 . S
C596 C591 1.350 . S
C597 H584 0.929 . S
C597 C589 1.433 . S
C597 N599 1.384 . S
N598 C594 1.427 . S
N598 C595 1.384 . S
N599 C591 1.427 . S
N599 C597 1.384 . S
H600 C606 0.930 . S
H601 C610 0.930 . S
H602 C615 0.929 . S
H603 C613 0.929 . S
H604 C608 0.929 . S
H605 C614 0.929 . S
C606 H600 0.930 . S
C606 C607 1.367 . S
C606 C614 1.378 . S
C607 C606 1.367 . S
C607 C615 1.433 . S
C608 H604 0.929 . S
C608 C610 1.378 . S
C608 C612 1.350 . S
C609 C612 1.463 . S
C609 C614 1.350 . S
C609 N617 1.427 . S
C610 H601 0.930 . S
C610 C608 1.378 . S
C610 C611 1.367 . S
C611 C610 1.367 . S
C611 C613 1.433 . S
C612 C608 1.350 . S
C612 C609 1.463 . S
C612 N616 1.427 . S
C613 H603 0.929 . S
C613 C611 1.433 . S
C613 N616 1.384 . S
C614 H605 0.929 . S
C614 C606 1.378 . S
C614 C609 1.350 . S
C615 H602 0.929 . S
C615 C607 1.433 . S
C615 N617 1.384 . S
N616 C612 1.427 . S
N616 C613 1.384 . S
N617 C609 1.427 . S
N617 C615 1.384 . S
H618 C624 0.930 . S
H619 C628 0.930 . S
H620 C633 0.929 . S
H621 C631 0.929 . S
H622 C626 0.929 . S
H623 C632 0.929 . S
C624 H618 0.930 . S
C624 C625 1.367 . S
C624 C632 1.378 . S
C625 C624 1.367 . S
C625 C633 1.433 . S
C626 H622 0.929 . S
C626 C628 1.378 . S
C626 C630 1.350 . S
C627 C630 1.463 . S
C627 C632 1.350 . S
C627 N635 1.427 . S
C628 H619 0.930 . S
C628 C626 1.378 . S
C628 C629 1.367 . S
C629 C628 1.367 . S
C629 C631 1.433 . S
C630 C626 1.350 . S
C630 C627 1.463 . S
C630 N634 1.427 . S
C631 H621 0.929 . S
C631 C629 1.433 . S
C631 N634 1.384 . S
C632 H623 0.929 . S
C632 C624 1.378 . S
C632 C627 1.350 . S
C633 H620 0.929 . S
C633 C625 1.433 . S
C633 N635 1.384 . S
N634 C630 1.427 . S
N634 C631 1.384 . S
N635 C627 1.427 . S
N635 C633 1.384 . S
H636 C642 0.930 . S
H637 C646 0.930 . S
H638 C651 0.929 . S
H639 C649 0.929 . S
H640 C644 0.929 . S
H641 C650 0.929 . S
C642 H636 0.930 . S
C642 C643 1.367 . S
C642 C650 1.378 . S
C643 C642 1.367 . S
C643 C651 1.433 . S
C644 H640 0.929 . S
C644 C646 1.378 . S
C644 C648 1.350 . S
C645 C648 1.463 . S
C645 C650 1.350 . S
C645 N653 1.427 . S
C646 H637 0.930 . S
C646 C644 1.378 . S
C646 C647 1.367 . S
C647 C646 1.367 . S
C647 C649 1.433 . S
C648 C644 1.350 . S
C648 C645 1.463 . S
C648 N652 1.427 . S
C649 H639 0.929 . S
C649 C647 1.433 . S
C649 N652 1.384 . S
C650 H641 0.929 . S
C650 C642 1.378 . S
C650 C645 1.350 . S
C651 H638 0.929 . S
C651 C643 1.433 . S
C651 N653 1.384 . S
N652 C648 1.427 . S
N652 C649 1.384 . S
N653 C645 1.427 . S
N653 C651 1.384 . S
H654 C660 0.930 . S
H655 C664 0.930 . S
H656 C669 0.929 . S
H657 C667 0.929 . S
H658 C662 0.929 . S
H659 C668 0.929 . S
C660 H654 0.930 . S
C660 C661 1.367 . S
C660 C668 1.378 . S
C661 C660 1.367 . S
C661 C669 1.433 . S
C662 H658 0.929 . S
C662 C664 1.378 . S
C662 C666 1.350 . S
C663 C666 1.463 . S
C663 C668 1.350 . S
C663 N671 1.427 . S
C664 H655 0.930 . S
C664 C662 1.378 . S
C664 C665 1.367 . S
C665 C664 1.367 . S
C665 C667 1.433 . S
C666 C662 1.350 . S
C666 C663 1.463 . S
C666 N670 1.427 . S
C667 H657 0.929 . S
C667 C665 1.433 . S
C667 N670 1.384 . S
C668 H659 0.929 . S
C668 C660 1.378 . S
C668 C663 1.350 . S
C669 H656 0.929 . S
C669 C661 1.433 . S
C669 N671 1.384 . S
N670 C666 1.427 . S
N670 C667 1.384 . S
N671 C663 1.427 . S
N671 C669 1.384 . S
H672 C678 0.930 . S
H673 C682 0.930 . S
H674 C687 0.929 . S
H675 C685 0.929 . S
H676 C680 0.929 . S
H677 C686 0.929 . S
C678 H672 0.930 . S
C678 C679 1.367 . S
C678 C686 1.378 . S
C679 C678 1.367 . S
C679 C687 1.433 . S
C680 H676 0.929 . S
C680 C682 1.378 . S
C680 C684 1.350 . S
C681 C684 1.463 . S
C681 C686 1.350 . S
C681 N689 1.427 . S
C682 H673 0.930 . S
C682 C680 1.378 . S
C682 C683 1.367 . S
C683 C682 1.367 . S
C683 C685 1.433 . S
C684 C680 1.350 . S
C684 C681 1.463 . S
C684 N688 1.427 . S
C685 H675 0.929 . S
C685 C683 1.433 . S
C685 N688 1.384 . S
C686 H677 0.929 . S
C686 C678 1.378 . S
C686 C681 1.350 . S
C687 H674 0.929 . S
C687 C679 1.433 . S
C687 N689 1.384 . S
N688 C684 1.427 . S
N688 C685 1.384 . S
N689 C681 1.427 . S
N689 C687 1.384 . S
H690 C696 0.930 . S
H691 C700 0.930 . S
H692 C705 0.929 . S
H693 C703 0.929 . S
H694 C698 0.929 . S
H695 C704 0.929 . S
C696 H690 0.930 . S
C696 C697 1.367 . S
C696 C704 1.378 . S
C697 C696 1.367 . S
C697 C705 1.433 . S
C698 H694 0.929 . S
C698 C700 1.378 . S
C698 C702 1.350 . S
C699 C702 1.463 . S
C699 C704 1.350 . S
C699 N707 1.427 . S
C700 H691 0.930 . S
C700 C698 1.378 . S
C700 C701 1.367 . S
C701 C700 1.367 . S
C701 C703 1.433 . S
C702 C698 1.350 . S
C702 C699 1.463 . S
C702 N706 1.427 . S
C703 H693 0.929 . S
C703 C701 1.433 . S
C703 N706 1.384 . S
C704 H695 0.929 . S
C704 C696 1.378 . S
C704 C699 1.350 . S
C705 H692 0.929 . S
C705 C697 1.433 . S
C705 N707 1.384 . S
N706 C702 1.427 . S
N706 C703 1.384 . S
N707 C699 1.427 . S
N707 C705 1.384 . S
H708 C714 0.930 . S
H709 C718 0.930 . S
H710 C723 0.929 . S
H711 C721 0.929 . S
H712 C716 0.929 . S
H713 C722 0.929 . S
C714 H708 0.930 . S
C714 C715 1.367 . S
C714 C722 1.378 . S
C715 C714 1.367 . S
C715 C723 1.433 . S
C716 H712 0.929 . S
C716 C718 1.378 . S
C716 C720 1.350 . S
C717 C720 1.463 . S
C717 C722 1.350 . S
C717 N725 1.427 . S
C718 H709 0.930 . S
C718 C716 1.378 . S
C718 C719 1.367 . S
C719 C718 1.367 . S
C719 C721 1.433 . S
C720 C716 1.350 . S
C720 C717 1.463 . S
C720 N724 1.427 . S
C721 H711 0.929 . S
C721 C719 1.433 . S
C721 N724 1.384 . S
C722 H713 0.929 . S
C722 C714 1.378 . S
C722 C717 1.350 . S
C723 H710 0.929 . S
C723 C715 1.433 . S
C723 N725 1.384 . S
N724 C720 1.427 . S
N724 C721 1.384 . S
N725 C717 1.427 . S
N725 C723 1.384 . S
H726 C732 0.930 . S
H727 C736 0.930 . S
H728 C741 0.929 . S
H729 C739 0.929 . S
H730 C734 0.929 . S
H731 C740 0.929 . S
C732 H726 0.930 . S
C732 C733 1.367 . S
C732 C740 1.378 . S
C733 C732 1.367 . S
C733 C741 1.433 . S
C734 H730 0.929 . S
C734 C736 1.378 . S
C734 C738 1.350 . S
C735 C738 1.463 . S
C735 C740 1.350 . S
C735 N743 1.427 . S
C736 H727 0.930 . S
C736 C734 1.378 . S
C736 C737 1.367 . S
C737 C736 1.367 . S
C737 C739 1.433 . S
C738 C734 1.350 . S
C738 C735 1.463 . S
C738 N742 1.427 . S
C739 H729 0.929 . S
C739 C737 1.433 . S
C739 N742 1.384 . S
C740 H731 0.929 . S
C740 C732 1.378 . S
C740 C735 1.350 . S
C741 H728 0.929 . S
C741 C733 1.433 . S
C741 N743 1.384 . S
N742 C738 1.427 . S
N742 C739 1.384 . S
N743 C735 1.427 . S
N743 C741 1.384 . S
H744 C750 0.930 . S
H745 C754 0.930 . S
H746 C759 0.929 . S
H747 C757 0.929 . S
H748 C752 0.929 . S
H749 C758 0.929 . S
C750 H744 0.930 . S
C750 C751 1.367 . S
C750 C758 1.378 . S
C751 C750 1.367 . S
C751 C759 1.433 . S
C752 H748 0.929 . S
C752 C754 1.378 . S
C752 C756 1.350 . S
C753 C756 1.463 . S
C753 C758 1.350 . S
C753 N761 1.427 . S
C754 H745 0.930 . S
C754 C752 1.378 . S
C754 C755 1.367 . S
C755 C754 1.367 . S
C755 C757 1.433 . S
C756 C752 1.350 . S
C756 C753 1.463 . S
C756 N760 1.427 . S
C757 H747 0.929 . S
C757 C755 1.433 . S
C757 N760 1.384 . S
C758 H749 0.929 . S
C758 C750 1.378 . S
C758 C753 1.350 . S
C759 H746 0.929 . S
C759 C751 1.433 . S
C759 N761 1.384 . S
N760 C756 1.427 . S
N760 C757 1.384 . S
N761 C753 1.427 . S
N761 C759 1.384 . S
H762 C768 0.930 . S
H763 C772 0.930 . S
H764 C777 0.929 . S
H765 C775 0.929 . S
H766 C770 0.929 . S
H767 C776 0.929 . S
C768 H762 0.930 . S
C768 C769 1.367 . S
C768 C776 1.378 . S
C769 C768 1.367 . S
C769 C777 1.433 . S
C770 H766 0.929 . S
C770 C772 1.378 . S
C770 C774 1.350 . S
C771 C774 1.463 . S
C771 C776 1.350 . S
C771 N779 1.427 . S
C772 H763 0.930 . S
C772 C770 1.378 . S
C772 C773 1.367 . S
C773 C772 1.367 . S
C773 C775 1.433 . S
C774 C770 1.350 . S
C774 C771 1.463 . S
C774 N778 1.427 . S
C775 H765 0.929 . S
C775 C773 1.433 . S
C775 N778 1.384 . S
C776 H767 0.929 . S
C776 C768 1.378 . S
C776 C771 1.350 . S
C777 H764 0.929 . S
C777 C769 1.433 . S
C777 N779 1.384 . S
N778 C774 1.427 . S
N778 C775 1.384 . S
N779 C771 1.427 . S
N779 C777 1.384 . S
H780 C786 0.930 . S
H781 C790 0.930 . S
H782 C795 0.929 . S
H783 C793 0.929 . S
H784 C788 0.929 . S
H785 C794 0.929 . S
C786 H780 0.930 . S
C786 C787 1.367 . S
C786 C794 1.378 . S
C787 C786 1.367 . S
C787 C795 1.433 . S
C788 H784 0.929 . S
C788 C790 1.378 . S
C788 C792 1.350 . S
C789 C792 1.463 . S
C789 C794 1.350 . S
C789 N797 1.427 . S
C790 H781 0.930 . S
C790 C788 1.378 . S
C790 C791 1.367 . S
C791 C790 1.367 . S
C791 C793 1.433 . S
C792 C788 1.350 . S
C792 C789 1.463 . S
C792 N796 1.427 . S
C793 H783 0.929 . S
C793 C791 1.433 . S
C793 N796 1.384 . S
C794 H785 0.929 . S
C794 C786 1.378 . S
C794 C789 1.350 . S
C795 H782 0.929 . S
C795 C787 1.433 . S
C795 N797 1.384 . S
N796 C792 1.427 . S
N796 C793 1.384 . S
N797 C789 1.427 . S
N797 C795 1.384 . S
H798 C804 0.930 . S
H799 C808 0.930 . S
H800 C813 0.929 . S
H801 C811 0.929 . S
H802 C806 0.929 . S
H803 C812 0.929 . S
C804 H798 0.930 . S
C804 C805 1.367 . S
C804 C812 1.378 . S
C805 C804 1.367 . S
C805 C813 1.433 . S
C806 H802 0.929 . S
C806 C808 1.378 . S
C806 C810 1.350 . S
C807 C810 1.463 . S
C807 C812 1.350 . S
C807 N815 1.427 . S
C808 H799 0.930 . S
C808 C806 1.378 . S
C808 C809 1.367 . S
C809 C808 1.367 . S
C809 C811 1.433 . S
C810 C806 1.350 . S
C810 C807 1.463 . S
C810 N814 1.427 . S
C811 H801 0.929 . S
C811 C809 1.433 . S
C811 N814 1.384 . S
C812 H803 0.929 . S
C812 C804 1.378 . S
C812 C807 1.350 . S
C813 H800 0.929 . S
C813 C805 1.433 . S
C813 N815 1.384 . S
N814 C810 1.427 . S
N814 C811 1.384 . S
N815 C807 1.427 . S
N815 C813 1.384 . S
H816 C822 0.930 . S
H817 C826 0.930 . S
H818 C831 0.929 . S
H819 C829 0.929 . S
H820 C824 0.929 . S
H821 C830 0.929 . S
C822 H816 0.930 . S
C822 C823 1.367 . S
C822 C830 1.378 . S
C823 C822 1.367 . S
C823 C831 1.433 . S
C824 H820 0.929 . S
C824 C826 1.378 . S
C824 C828 1.350 . S
C825 C828 1.463 . S
C825 C830 1.350 . S
C825 N833 1.427 . S
C826 H817 0.930 . S
C826 C824 1.378 . S
C826 C827 1.367 . S
C827 C826 1.367 . S
C827 C829 1.433 . S
C828 C824 1.350 . S
C828 C825 1.463 . S
C828 N832 1.427 . S
C829 H819 0.929 . S
C829 C827 1.433 . S
C829 N832 1.384 . S
C830 H821 0.929 . S
C830 C822 1.378 . S
C830 C825 1.350 . S
C831 H818 0.929 . S
C831 C823 1.433 . S
C831 N833 1.384 . S
N832 C828 1.427 . S
N832 C829 1.384 . S
N833 C825 1.427 . S
N833 C831 1.384 . S
H834 C840 0.930 . S
H835 C844 0.930 . S
H836 C849 0.929 . S
H837 C847 0.929 . S
H838 C842 0.929 . S
H839 C848 0.929 . S
C840 H834 0.930 . S
C840 C841 1.367 . S
C840 C848 1.378 . S
C841 C840 1.367 . S
C841 C849 1.433 . S
C842 H838 0.929 . S
C842 C844 1.378 . S
C842 C846 1.350 . S
C843 C846 1.463 . S
C843 C848 1.350 . S
C843 N851 1.427 . S
C844 H835 0.930 . S
C844 C842 1.378 . S
C844 C845 1.367 . S
C845 C844 1.367 . S
C845 C847 1.433 . S
C846 C842 1.350 . S
C846 C843 1.463 . S
C846 N850 1.427 . S
C847 H837 0.929 . S
C847 C845 1.433 . S
C847 N850 1.384 . S
C848 H839 0.929 . S
C848 C840 1.378 . S
C848 C843 1.350 . S
C849 H836 0.929 . S
C849 C841 1.433 . S
C849 N851 1.384 . S
N850 C846 1.427 . S
N850 C847 1.384 . S
N851 C843 1.427 . S
N851 C849 1.384 . S
H852 C858 0.930 . S
H853 C862 0.930 . S
H854 C867 0.929 . S
H855 C865 0.929 . S
H856 C860 0.929 . S
H857 C866 0.929 . S
C858 H852 0.930 . S
C858 C859 1.367 . S
C858 C866 1.378 . S
C859 C858 1.367 . S
C859 C867 1.433 . S
C860 H856 0.929 . S
C860 C862 1.378 . S
C860 C864 1.350 . S
C861 C864 1.463 . S
C861 C866 1.350 . S
C861 N869 1.427 . S
C862 H853 0.930 . S
C862 C860 1.378 . S
C862 C863 1.367 . S
C863 C862 1.367 . S
C863 C865 1.433 . S
C864 C860 1.350 . S
C864 C861 1.463 . S
C864 N868 1.427 . S
C865 H855 0.929 . S
C865 C863 1.433 . S
C865 N868 1.384 . S
C866 H857 0.929 . S
C866 C858 1.378 . S
C866 C861 1.350 . S
C867 H854 0.929 . S
C867 C859 1.433 . S
C867 N869 1.384 . S
N868 C864 1.427 . S
N868 C865 1.384 . S
N869 C861 1.427 . S
N869 C867 1.384 . S
H870 C876 0.930 . S
H871 C880 0.930 . S
H872 C885 0.929 . S
H873 C883 0.929 . S
H874 C878 0.929 . S
H875 C884 0.929 . S
C876 H870 0.930 . S
C876 C877 1.367 . S
C876 C884 1.378 . S
C877 C876 1.367 . S
C877 C885 1.433 . S
C878 H874 0.929 . S
C878 C880 1.378 . S
C878 C882 1.350 . S
C879 C882 1.463 . S
C879 C884 1.350 . S
C879 N887 1.427 . S
C880 H871 0.930 . S
C880 C878 1.378 . S
C880 C881 1.367 . S
C881 C880 1.367 . S
C881 C883 1.433 . S
C882 C878 1.350 . S
C882 C879 1.463 . S
C882 N886 1.427 . S
C883 H873 0.929 . S
C883 C881 1.433 . S
C883 N886 1.384 . S
C884 H875 0.929 . S
C884 C876 1.378 . S
C884 C879 1.350 . S
C885 H872 0.929 . S
C885 C877 1.433 . S
C885 N887 1.384 . S
N886 C882 1.427 . S
N886 C883 1.384 . S
N887 C879 1.427 . S
N887 C885 1.384 . S
H888 C894 0.930 . S
H889 C898 0.930 . S
H890 C903 0.929 . S
H891 C901 0.929 . S
H892 C896 0.929 . S
H893 C902 0.929 . S
C894 H888 0.930 . S
C894 C895 1.367 . S
C894 C902 1.378 . S
C895 C894 1.367 . S
C895 C903 1.433 . S
C896 H892 0.929 . S
C896 C898 1.378 . S
C896 C900 1.350 . S
C897 C900 1.463 . S
C897 C902 1.350 . S
C897 N905 1.427 . S
C898 H889 0.930 . S
C898 C896 1.378 . S
C898 C899 1.367 . S
C899 C898 1.367 . S
C899 C901 1.433 . S
C900 C896 1.350 . S
C900 C897 1.463 . S
C900 N904 1.427 . S
C901 H891 0.929 . S
C901 C899 1.433 . S
C901 N904 1.384 . S
C902 H893 0.929 . S
C902 C894 1.378 . S
C902 C897 1.350 . S
C903 H890 0.929 . S
C903 C895 1.433 . S
C903 N905 1.384 . S
N904 C900 1.427 . S
N904 C901 1.384 . S
N905 C897 1.427 . S
N905 C903 1.384 . S
H906 C912 0.930 . S
H907 C916 0.930 . S
H908 C921 0.929 . S
H909 C919 0.929 . S
H910 C914 0.929 . S
H911 C920 0.929 . S
C912 H906 0.930 . S
C912 C913 1.367 . S
C912 C920 1.378 . S
C913 C912 1.367 . S
C913 C921 1.433 . S
C914 H910 0.929 . S
C914 C916 1.378 . S
C914 C918 1.350 . S
C915 C918 1.463 . S
C915 C920 1.350 . S
C915 N923 1.427 . S
C916 H907 0.930 . S
C916 C914 1.378 . S
C916 C917 1.367 . S
C917 C916 1.367 . S
C917 C919 1.433 . S
C918 C914 1.350 . S
C918 C915 1.463 . S
C918 N922 1.427 . S
C919 H909 0.929 . S
C919 C917 1.433 . S
C919 N922 1.384 . S
C920 H911 0.929 . S
C920 C912 1.378 . S
C920 C915 1.350 . S
C921 H908 0.929 . S
C921 C913 1.433 . S
C921 N923 1.384 . S
N922 C918 1.427 . S
N922 C919 1.384 . S
N923 C915 1.427 . S
N923 C921 1.384 . S
H924 C930 0.930 . S
H925 C934 0.930 . S
H926 C939 0.929 . S
H927 C937 0.929 . S
H928 C932 0.929 . S
H929 C938 0.929 . S
C930 H924 0.930 . S
C930 C931 1.367 . S
C930 C938 1.378 . S
C931 C930 1.367 . S
C931 C939 1.433 . S
C932 H928 0.929 . S
C932 C934 1.378 . S
C932 C936 1.350 . S
C933 C936 1.463 . S
C933 C938 1.350 . S
C933 N941 1.427 . S
C934 H925 0.930 . S
C934 C932 1.378 . S
C934 C935 1.367 . S
C935 C934 1.367 . S
C935 C937 1.433 . S
C936 C932 1.350 . S
C936 C933 1.463 . S
C936 N940 1.427 . S
C937 H927 0.929 . S
C937 C935 1.433 . S
C937 N940 1.384 . S
C938 H929 0.929 . S
C938 C930 1.378 . S
C938 C933 1.350 . S
C939 H926 0.929 . S
C939 C931 1.433 . S
C939 N941 1.384 . S
N940 C936 1.427 . S
N940 C937 1.384 . S
N941 C933 1.427 . S
N941 C939 1.384 . S
H942 C948 0.930 . S
H943 C952 0.930 . S
H944 C957 0.929 . S
H945 C955 0.929 . S
H946 C950 0.929 . S
H947 C956 0.929 . S
C948 H942 0.930 . S
C948 C949 1.367 . S
C948 C956 1.378 . S
C949 C948 1.367 . S
C949 C957 1.433 . S
C950 H946 0.929 . S
C950 C952 1.378 . S
C950 C954 1.350 . S
C951 C954 1.463 . S
C951 C956 1.350 . S
C951 N959 1.427 . S
C952 H943 0.930 . S
C952 C950 1.378 . S
C952 C953 1.367 . S
C953 C952 1.367 . S
C953 C955 1.433 . S
C954 C950 1.350 . S
C954 C951 1.463 . S
C954 N958 1.427 . S
C955 H945 0.929 . S
C955 C953 1.433 . S
C955 N958 1.384 . S
C956 H947 0.929 . S
C956 C948 1.378 . S
C956 C951 1.350 . S
C957 H944 0.929 . S
C957 C949 1.433 . S
C957 N959 1.384 . S
N958 C954 1.427 . S
N958 C955 1.384 . S
N959 C951 1.427 . S
N959 C957 1.384 . S
H960 C966 0.930 . S
H961 C970 0.930 . S
H962 C975 0.929 . S
H963 C973 0.929 . S
H964 C968 0.929 . S
H965 C974 0.929 . S
C966 H960 0.930 . S
C966 C967 1.367 . S
C966 C974 1.378 . S
C967 C966 1.367 . S
C967 C975 1.433 . S
C968 H964 0.929 . S
C968 C970 1.378 . S
C968 C972 1.350 . S
C969 C972 1.463 . S
C969 C974 1.350 . S
C969 N977 1.427 . S
C970 H961 0.930 . S
C970 C968 1.378 . S
C970 C971 1.367 . S
C971 C970 1.367 . S
C971 C973 1.433 . S
C972 C968 1.350 . S
C972 C969 1.463 . S
C972 N976 1.427 . S
C973 H963 0.929 . S
C973 C971 1.433 . S
C973 N976 1.384 . S
C974 H965 0.929 . S
C974 C966 1.378 . S
C974 C969 1.350 . S
C975 H962 0.929 . S
C975 C967 1.433 . S
C975 N977 1.384 . S
N976 C972 1.427 . S
N976 C973 1.384 . S
N977 C969 1.427 . S
N977 C975 1.384 . S
H978 C984 0.930 . S
H979 C988 0.930 . S
H980 C993 0.929 . S
H981 C991 0.929 . S
H982 C986 0.929 . S
H983 C992 0.929 . S
C984 H978 0.930 . S
C984 C985 1.367 . S
C984 C992 1.378 . S
C985 C984 1.367 . S
C985 C993 1.433 . S
C986 H982 0.929 . S
C986 C988 1.378 . S
C986 C990 1.350 . S
C987 C990 1.463 . S
C987 C992 1.350 . S
C987 N995 1.427 . S
C988 H979 0.930 . S
C988 C986 1.378 . S
C988 C989 1.367 . S
C989 C988 1.367 . S
C989 C991 1.433 . S
C990 C986 1.350 . S
C990 C987 1.463 . S
C990 N994 1.427 . S
C991 H981 0.929 . S
C991 C989 1.433 . S
C991 N994 1.384 . S
C992 H983 0.929 . S
C992 C984 1.378 . S
C992 C987 1.350 . S
C993 H980 0.929 . S
C993 C985 1.433 . S
C993 N995 1.384 . S
N994 C990 1.427 . S
N994 C991 1.384 . S
N995 C987 1.427 . S
N995 C993 1.384 . S
H996 C1002 0.930 . S
H997 C1006 0.930 . S
H998 C1011 0.929 . S
H999 C1009 0.929 . S
H1000 C1004 0.929 . S
H1001 C1010 0.929 . S
C1002 H996 0.930 . S
C1002 C1003 1.367 . S
C1002 C1010 1.378 . S
C1003 C1002 1.367 . S
C1003 C1011 1.433 . S
C1004 H1000 0.929 . S
C1004 C1006 1.378 . S
C1004 C1008 1.350 . S
C1005 C1008 1.463 . S
C1005 C1010 1.350 . S
C1005 N1013 1.427 . S
C1006 H997 0.930 . S
C1006 C1004 1.378 . S
C1006 C1007 1.367 . S
C1007 C1006 1.367 . S
C1007 C1009 1.433 . S
C1008 C1004 1.350 . S
C1008 C1005 1.463 . S
C1008 N1012 1.427 . S
C1009 H999 0.929 . S
C1009 C1007 1.433 . S
C1009 N1012 1.384 . S
C1010 H1001 0.929 . S
C1010 C1002 1.378 . S
C1010 C1005 1.350 . S
C1011 H998 0.929 . S
C1011 C1003 1.433 . S
C1011 N1013 1.384 . S
N1012 C1008 1.427 . S
N1012 C1009 1.384 . S
N1013 C1005 1.427 . S
N1013 C1011 1.384 . S
H1014 C1020 0.930 . S
H1015 C1024 0.930 . S
H1016 C1029 0.929 . S
H1017 C1027 0.929 . S
H1018 C1022 0.929 . S
H1019 C1028 0.929 . S
C1020 H1014 0.930 . S
C1020 C1021 1.367 . S
C1020 C1028 1.378 . S
C1021 C1020 1.367 . S
C1021 C1029 1.433 . S
C1022 H1018 0.929 . S
C1022 C1024 1.378 . S
C1022 C1026 1.350 . S
C1023 C1026 1.463 . S
C1023 C1028 1.350 . S
C1023 N1031 1.427 . S
C1024 H1015 0.930 . S
C1024 C1022 1.378 . S
C1024 C1025 1.367 . S
C1025 C1024 1.367 . S
C1025 C1027 1.433 . S
C1026 C1022 1.350 . S
C1026 C1023 1.463 . S
C1026 N1030 1.427 . S
C1027 H1017 0.929 . S
C1027 C1025 1.433 . S
C1027 N1030 1.384 . S
C1028 H1019 0.929 . S
C1028 C1020 1.378 . S
C1028 C1023 1.350 . S
C1029 H1016 0.929 . S
C1029 C1021 1.433 . S
C1029 N1031 1.384 . S
N1030 C1026 1.427 . S
N1030 C1027 1.384 . S
N1031 C1023 1.427 . S
N1031 C1029 1.384 . S
H1032 C1038 0.930 . S
H1033 C1042 0.930 . S
H1034 C1047 0.929 . S
H1035 C1045 0.929 . S
H1036 C1040 0.929 . S
H1037 C1046 0.929 . S
C1038 H1032 0.930 . S
C1038 C1039 1.367 . S
C1038 C1046 1.378 . S
C1039 C1038 1.367 . S
C1039 C1047 1.433 . S
C1040 H1036 0.929 . S
C1040 C1042 1.378 . S
C1040 C1044 1.350 . S
C1041 C1044 1.463 . S
C1041 C1046 1.350 . S
C1041 N1049 1.427 . S
C1042 H1033 0.930 . S
C1042 C1040 1.378 . S
C1042 C1043 1.367 . S
C1043 C1042 1.367 . S
C1043 C1045 1.433 . S
C1044 C1040 1.350 . S
C1044 C1041 1.463 . S
C1044 N1048 1.427 . S
C1045 H1035 0.929 . S
C1045 C1043 1.433 . S
C1045 N1048 1.384 . S
C1046 H1037 0.929 . S
C1046 C1038 1.378 . S
C1046 C1041 1.350 . S
C1047 H1034 0.929 . S
C1047 C1039 1.433 . S
C1047 N1049 1.384 . S
N1048 C1044 1.427 . S
N1048 C1045 1.384 . S
N1049 C1041 1.427 . S
N1049 C1047 1.384 . S
H1050 C1056 0.930 . S
H1051 C1060 0.930 . S
H1052 C1065 0.929 . S
H1053 C1063 0.929 . S
H1054 C1058 0.929 . S
H1055 C1064 0.929 . S
C1056 H1050 0.930 . S
C1056 C1057 1.367 . S
C1056 C1064 1.378 . S
C1057 C1056 1.367 . S
C1057 C1065 1.433 . S
C1058 H1054 0.929 . S
C1058 C1060 1.378 . S
C1058 C1062 1.350 . S
C1059 C1062 1.463 . S
C1059 C1064 1.350 . S
C1059 N1067 1.427 . S
C1060 H1051 0.930 . S
C1060 C1058 1.378 . S
C1060 C1061 1.367 . S
C1061 C1060 1.367 . S
C1061 C1063 1.433 . S
C1062 C1058 1.350 . S
C1062 C1059 1.463 . S
C1062 N1066 1.427 . S
C1063 H1053 0.929 . S
C1063 C1061 1.433 . S
C1063 N1066 1.384 . S
C1064 H1055 0.929 . S
C1064 C1056 1.378 . S
C1064 C1059 1.350 . S
C1065 H1052 0.929 . S
C1065 C1057 1.433 . S
C1065 N1067 1.384 . S
N1066 C1062 1.427 . S
N1066 C1063 1.384 . S
N1067 C1059 1.427 . S
N1067 C1065 1.384 . S
H1068 C1074 0.930 . S
H1069 C1078 0.930 . S
H1070 C1083 0.929 . S
H1071 C1081 0.929 . S
H1072 C1076 0.929 . S
H1073 C1082 0.929 . S
C1074 H1068 0.930 . S
C1074 C1075 1.367 . S
C1074 C1082 1.378 . S
C1075 C1074 1.367 . S
C1075 C1083 1.433 . S
C1076 H1072 0.929 . S
C1076 C1078 1.378 . S
C1076 C1080 1.350 . S
C1077 C1080 1.463 . S
C1077 C1082 1.350 . S
C1077 N1085 1.427 . S
C1078 H1069 0.930 . S
C1078 C1076 1.378 . S
C1078 C1079 1.367 . S
C1079 C1078 1.367 . S
C1079 C1081 1.433 . S
C1080 C1076 1.350 . S
C1080 C1077 1.463 . S
C1080 N1084 1.427 . S
C1081 H1071 0.929 . S
C1081 C1079 1.433 . S
C1081 N1084 1.384 . S
C1082 H1073 0.929 . S
C1082 C1074 1.378 . S
C1082 C1077 1.350 . S
C1083 H1070 0.929 . S
C1083 C1075 1.433 . S
C1083 N1085 1.384 . S
N1084 C1080 1.427 . S
N1084 C1081 1.384 . S
N1085 C1077 1.427 . S
N1085 C1083 1.384 . S
H1086 C1092 0.930 . S
H1087 C1096 0.930 . S
H1088 C1101 0.929 . S
H1089 C1099 0.929 . S
H1090 C1094 0.929 . S
H1091 C1100 0.929 . S
C1092 H1086 0.930 . S
C1092 C1093 1.367 . S
C1092 C1100 1.378 . S
C1093 C1092 1.367 . S
C1093 C1101 1.433 . S
C1094 H1090 0.929 . S
C1094 C1096 1.378 . S
C1094 C1098 1.350 . S
C1095 C1098 1.463 . S
C1095 C1100 1.350 . S
C1095 N1103 1.427 . S
C1096 H1087 0.930 . S
C1096 C1094 1.378 . S
C1096 C1097 1.367 . S
C1097 C1096 1.367 . S
C1097 C1099 1.433 . S
C1098 C1094 1.350 . S
C1098 C1095 1.463 . S
C1098 N1102 1.427 . S
C1099 H1089 0.929 . S
C1099 C1097 1.433 . S
C1099 N1102 1.384 . S
C1100 H1091 0.929 . S
C1100 C1092 1.378 . S
C1100 C1095 1.350 . S
C1101 H1088 0.929 . S
C1101 C1093 1.433 . S
C1101 N1103 1.384 . S
N1102 C1098 1.427 . S
N1102 C1099 1.384 . S
N1103 C1095 1.427 . S
N1103 C1101 1.384 . S
H1104 C1110 0.930 . S
H1105 C1114 0.930 . S
H1106 C1119 0.929 . S
H1107 C1117 0.929 . S
H1108 C1112 0.929 . S
H1109 C1118 0.929 . S
C1110 H1104 0.930 . S
C1110 C1111 1.367 . S
C1110 C1118 1.378 . S
C1111 C1110 1.367 . S
C1111 C1119 1.433 . S
C1112 H1108 0.929 . S
C1112 C1114 1.378 . S
C1112 C1116 1.350 . S
C1113 C1116 1.463 . S
C1113 C1118 1.350 . S
C1113 N1121 1.427 . S
C1114 H1105 0.930 . S
C1114 C1112 1.378 . S
C1114 C1115 1.367 . S
C1115 C1114 1.367 . S
C1115 C1117 1.433 . S
C1116 C1112 1.350 . S
C1116 C1113 1.463 . S
C1116 N1120 1.427 . S
C1117 H1107 0.929 . S
C1117 C1115 1.433 . S
C1117 N1120 1.384 . S
C1118 H1109 0.929 . S
C1118 C1110 1.378 . S
C1118 C1113 1.350 . S
C1119 H1106 0.929 . S
C1119 C1111 1.433 . S
C1119 N1121 1.384 . S
N1120 C1116 1.427 . S
N1120 C1117 1.384 . S
N1121 C1113 1.427 . S
N1121 C1119 1.384 . S
H1122 C1128 0.930 . S
H1123 C1132 0.930 . S
H1124 C1137 0.929 . S
H1125 C1135 0.929 . S
H1126 C1130 0.929 . S
H1127 C1136 0.929 . S
C1128 H1122 0.930 . S
C1128 C1129 1.367 . S
C1128 C1136 1.378 . S
C1129 C1128 1.367 . S
C1129 C1137 1.433 . S
C1130 H1126 0.929 . S
C1130 C1132 1.378 . S
C1130 C1134 1.350 . S
C1131 C1134 1.463 . S
C1131 C1136 1.350 . S
C1131 N1139 1.427 . S
C1132 H1123 0.930 . S
C1132 C1130 1.378 . S
C1132 C1133 1.367 . S
C1133 C1132 1.367 . S
C1133 C1135 1.433 . S
C1134 C1130 1.350 . S
C1134 C1131 1.463 . S
C1134 N1138 1.427 . S
C1135 H1125 0.929 . S
C1135 C1133 1.433 . S
C1135 N1138 1.384 . S
C1136 H1127 0.929 . S
C1136 C1128 1.378 . S
C1136 C1131 1.350 . S
C1137 H1124 0.929 . S
C1137 C1129 1.433 . S
C1137 N1139 1.384 . S
N1138 C1134 1.427 . S
N1138 C1135 1.384 . S
N1139 C1131 1.427 . S
N1139 C1137 1.384 . S
H1140 C1146 0.930 . S
H1141 C1150 0.930 . S
H1142 C1155 0.929 . S
H1143 C1153 0.929 . S
H1144 C1148 0.929 . S
H1145 C1154 0.929 . S
C1146 H1140 0.930 . S
C1146 C1147 1.367 . S
C1146 C1154 1.378 . S
C1147 C1146 1.367 . S
C1147 C1155 1.433 . S
C1148 H1144 0.929 . S
C1148 C1150 1.378 . S
C1148 C1152 1.350 . S
C1149 C1152 1.463 . S
C1149 C1154 1.350 . S
C1149 N1157 1.427 . S
C1150 H1141 0.930 . S
C1150 C1148 1.378 . S
C1150 C1151 1.367 . S
C1151 C1150 1.367 . S
C1151 C1153 1.433 . S
C1152 C1148 1.350 . S
C1152 C1149 1.463 . S
C1152 N1156 1.427 . S
C1153 H1143 0.929 . S
C1153 C1151 1.433 . S
C1153 N1156 1.384 . S
C1154 H1145 0.929 . S
C1154 C1146 1.378 . S
C1154 C1149 1.350 . S
C1155 H1142 0.929 . S
C1155 C1147 1.433 . S
C1155 N1157 1.384 . S
N1156 C1152 1.427 . S
N1156 C1153 1.384 . S
N1157 C1149 1.427 . S
N1157 C1155 1.384 . S
H1158 C1164 0.930 . S
H1159 C1168 0.930 . S
H1160 C1173 0.929 . S
H1161 C1171 0.929 . S
H1162 C1166 0.929 . S
H1163 C1172 0.929 . S
C1164 H1158 0.930 . S
C1164 C1165 1.367 . S
C1164 C1172 1.378 . S
C1165 C1164 1.367 . S
C1165 C1173 1.433 . S
C1166 H1162 0.929 . S
C1166 C1168 1.378 . S
C1166 C1170 1.350 . S
C1167 C1170 1.463 . S
C1167 C1172 1.350 . S
C1167 N1175 1.427 . S
C1168 H1159 0.930 . S
C1168 C1166 1.378 . S
C1168 C1169 1.367 . S
C1169 C1168 1.367 . S
C1169 C1171 1.433 . S
C1170 C1166 1.350 . S
C1170 C1167 1.463 . S
C1170 N1174 1.427 . S
C1171 H1161 0.929 . S
C1171 C1169 1.433 . S
C1171 N1174 1.384 . S
C1172 H1163 0.929 . S
C1172 C1164 1.378 . S
C1172 C1167 1.350 . S
C1173 H1160 0.929 . S
C1173 C1165 1.433 . S
C1173 N1175 1.384 . S
N1174 C1170 1.427 . S
N1174 C1171 1.384 . S
N1175 C1167 1.427 . S
N1175 C1173 1.384 . S
H1176 C1182 0.930 . S
H1177 C1186 0.930 . S
H1178 C1191 0.929 . S
H1179 C1189 0.929 . S
H1180 C1184 0.929 . S
H1181 C1190 0.929 . S
C1182 H1176 0.930 . S
C1182 C1183 1.367 . S
C1182 C1190 1.378 . S
C1183 C1182 1.367 . S
C1183 C1191 1.433 . S
C1184 H1180 0.929 . S
C1184 C1186 1.378 . S
C1184 C1188 1.350 . S
C1185 C1188 1.463 . S
C1185 C1190 1.350 . S
C1185 N1193 1.427 . S
C1186 H1177 0.930 . S
C1186 C1184 1.378 . S
C1186 C1187 1.367 . S
C1187 C1186 1.367 . S
C1187 C1189 1.433 . S
C1188 C1184 1.350 . S
C1188 C1185 1.463 . S
C1188 N1192 1.427 . S
C1189 H1179 0.929 . S
C1189 C1187 1.433 . S
C1189 N1192 1.384 . S
C1190 H1181 0.929 . S
C1190 C1182 1.378 . S
C1190 C1185 1.350 . S
C1191 H1178 0.929 . S
C1191 C1183 1.433 . S
C1191 N1193 1.384 . S
N1192 C1188 1.427 . S
N1192 C1189 1.384 . S
N1193 C1185 1.427 . S
N1193 C1191 1.384 . S
H1194 C1200 0.930 . S
H1195 C1204 0.930 . S
H1196 C1209 0.929 . S
H1197 C1207 0.929 . S
H1198 C1202 0.929 . S
H1199 C1208 0.929 . S
C1200 H1194 0.930 . S
C1200 C1201 1.367 . S
C1200 C1208 1.378 . S
C1201 C1200 1.367 . S
C1201 C1209 1.433 . S
C1202 H1198 0.929 . S
C1202 C1204 1.378 . S
C1202 C1206 1.350 . S
C1203 C1206 1.463 . S
C1203 C1208 1.350 . S
C1203 N1211 1.427 . S
C1204 H1195 0.930 . S
C1204 C1202 1.378 . S
C1204 C1205 1.367 . S
C1205 C1204 1.367 . S
C1205 C1207 1.433 . S
C1206 C1202 1.350 . S
C1206 C1203 1.463 . S
C1206 N1210 1.427 . S
C1207 H1197 0.929 . S
C1207 C1205 1.433 . S
C1207 N1210 1.384 . S
C1208 H1199 0.929 . S
C1208 C1200 1.378 . S
C1208 C1203 1.350 . S
C1209 H1196 0.929 . S
C1209 C1201 1.433 . S
C1209 N1211 1.384 . S
N1210 C1206 1.427 . S
N1210 C1207 1.384 . S
N1211 C1203 1.427 . S
N1211 C1209 1.384 . S
H1212 C1218 0.922 1_565 S
H1213 C1222 0.930 . S
H1214 C1227 0.929 . S
H1215 C1225 0.929 . S
H1216 C1220 0.929 . S
H1217 C1226 0.929 1_565 S
C1218 H1212 0.922 1_545 S
C1218 C1219 1.367 . S
C1218 C1226 1.378 . S
C1219 C1218 1.367 . S
C1219 C1227 1.433 . S
C1220 H1216 0.929 . S
C1220 C1222 1.378 . S
C1220 C1224 1.350 . S
C1221 C1224 1.463 . S
C1221 C1226 1.350 . S
C1221 N1229 1.427 . S
C1222 H1213 0.930 . S
C1222 C1220 1.378 . S
C1222 C1223 1.367 . S
C1223 C1222 1.367 . S
C1223 C1225 1.433 1_545 S
C1224 C1220 1.350 . S
C1224 C1221 1.463 . S
C1224 N1228 1.406 1_545 S
C1225 H1215 0.929 . S
C1225 C1223 1.433 1_565 S
C1225 N1228 1.386 . S
C1226 H1217 0.929 1_545 S
C1226 C1218 1.378 . S
C1226 C1221 1.350 . S
C1227 H1214 0.929 . S
C1227 C1219 1.433 . S
C1227 N1229 1.384 . S
N1228 C1224 1.406 1_565 S
N1228 C1225 1.386 . S
N1229 C1221 1.427 . S
N1229 C1227 1.384 . S
H1230 C1236 0.930 . S
H1231 C1240 0.930 . S
H1232 C1245 0.929 . S
H1233 C1243 0.929 . S
H1234 C1238 0.929 . S
H1235 C1244 0.929 . S
C1236 H1230 0.930 . S
C1236 C1237 1.367 . S
C1236 C1244 1.378 . S
C1237 C1236 1.367 . S
C1237 C1245 1.433 . S
C1238 H1234 0.929 . S
C1238 C1240 1.378 . S
C1238 C1242 1.350 . S
C1239 C1242 1.463 . S
C1239 C1244 1.350 . S
C1239 N1247 1.427 . S
C1240 H1231 0.930 . S
C1240 C1238 1.378 . S
C1240 C1241 1.367 . S
C1241 C1240 1.367 . S
C1241 C1243 1.433 . S
C1242 C1238 1.350 . S
C1242 C1239 1.463 . S
C1242 N1246 1.427 . S
C1243 H1233 0.929 . S
C1243 C1241 1.433 . S
C1243 N1246 1.384 . S
C1244 H1235 0.929 . S
C1244 C1236 1.378 . S
C1244 C1239 1.350 . S
C1245 H1232 0.929 . S
C1245 C1237 1.433 . S
C1245 N1247 1.384 . S
N1246 C1242 1.427 . S
N1246 C1243 1.384 . S
N1247 C1239 1.427 . S
N1247 C1245 1.384 . S
H1248 C1254 0.930 . S
H1249 C1258 0.930 . S
H1250 C1263 0.929 . S
H1251 C1261 0.929 . S
H1252 C1256 0.929 . S
H1253 C1262 0.929 . S
C1254 H1248 0.930 . S
C1254 C1255 1.367 . S
C1254 C1262 1.378 . S
C1255 C1254 1.367 . S
C1255 C1263 1.433 . S
C1256 H1252 0.929 . S
C1256 C1258 1.378 . S
C1256 C1260 1.350 . S
C1257 C1260 1.463 . S
C1257 C1262 1.350 . S
C1257 N1265 1.427 . S
C1258 H1249 0.930 . S
C1258 C1256 1.378 . S
C1258 C1259 1.367 . S
C1259 C1258 1.367 . S
C1259 C1261 1.433 . S
C1260 C1256 1.350 . S
C1260 C1257 1.463 . S
C1260 N1264 1.427 . S
C1261 H1251 0.929 . S
C1261 C1259 1.433 . S
C1261 N1264 1.384 . S
C1262 H1253 0.929 . S
C1262 C1254 1.378 . S
C1262 C1257 1.350 . S
C1263 H1250 0.929 . S
C1263 C1255 1.433 . S
C1263 N1265 1.384 . S
N1264 C1260 1.427 . S
N1264 C1261 1.384 . S
N1265 C1257 1.427 . S
N1265 C1263 1.384 . S
H1266 C1272 0.930 . S
H1267 C1276 0.930 . S
H1268 C1281 0.929 . S
H1269 C1279 0.929 . S
H1270 C1274 0.929 . S
H1271 C1280 0.929 . S
C1272 H1266 0.930 . S
C1272 C1273 1.367 . S
C1272 C1280 1.378 . S
C1273 C1272 1.367 . S
C1273 C1281 1.433 . S
C1274 H1270 0.929 . S
C1274 C1276 1.378 . S
C1274 C1278 1.350 . S
C1275 C1278 1.463 . S
C1275 C1280 1.350 . S
C1275 N1283 1.427 . S
C1276 H1267 0.930 . S
C1276 C1274 1.378 . S
C1276 C1277 1.367 . S
C1277 C1276 1.367 . S
C1277 C1279 1.433 . S
C1278 C1274 1.350 . S
C1278 C1275 1.463 . S
C1278 N1282 1.427 . S
C1279 H1269 0.929 . S
C1279 C1277 1.433 . S
C1279 N1282 1.384 . S
C1280 H1271 0.929 . S
C1280 C1272 1.378 . S
C1280 C1275 1.350 . S
C1281 H1268 0.929 . S
C1281 C1273 1.433 . S
C1281 N1283 1.384 . S
N1282 C1278 1.427 . S
N1282 C1279 1.384 . S
N1283 C1275 1.427 . S
N1283 C1281 1.384 . S
H1284 C1290 0.930 . S
H1285 C1294 0.930 . S
H1286 C1299 0.929 . S
H1287 C1297 0.929 . S
H1288 C1292 0.929 . S
H1289 C1298 0.929 1_545 S
C1290 H1284 0.930 . S
C1290 C1291 1.367 1_545 S
C1290 C1298 1.378 1_545 S
C1291 C1290 1.367 1_565 S
C1291 C1299 1.433 . S
C1292 H1288 0.929 . S
C1292 C1294 1.378 . S
C1292 C1296 1.350 . S
C1293 C1296 1.463 . S
C1293 C1298 1.350 . S
C1293 N1301 1.427 . S
C1294 H1285 0.930 . S
C1294 C1292 1.378 . S
C1294 C1295 1.367 . S
C1295 C1294 1.367 . S
C1295 C1297 1.433 . S
C1296 C1292 1.350 . S
C1296 C1293 1.463 . S
C1296 N1300 1.427 . S
C1297 H1287 0.929 . S
C1297 C1295 1.433 . S
C1297 N1300 1.384 . S
C1298 H1289 0.929 1_565 S
C1298 C1290 1.378 1_565 S
C1298 C1293 1.350 . S
C1299 H1286 0.929 . S
C1299 C1291 1.433 . S
C1299 N1301 1.384 . S
N1300 C1296 1.427 . S
N1300 C1297 1.384 . S
N1301 C1293 1.427 . S
N1301 C1299 1.384 . S
H1302 C1308 0.930 . S
H1303 C1312 0.930 . S
H1304 C1317 0.929 . S
H1305 C1315 0.929 . S
H1306 C1310 0.929 . S
H1307 C1316 0.929 . S
C1308 H1302 0.930 . S
C1308 C1309 1.367 . S
C1308 C1316 1.378 . S
C1309 C1308 1.367 . S
C1309 C1317 1.433 . S
C1310 H1306 0.929 . S
C1310 C1312 1.378 . S
C1310 C1314 1.350 . S
C1311 C1314 1.463 . S
C1311 C1316 1.350 . S
C1311 N1319 1.427 . S
C1312 H1303 0.930 . S
C1312 C1310 1.378 . S
C1312 C1313 1.367 . S
C1313 C1312 1.367 . S
C1313 C1315 1.433 . S
C1314 C1310 1.350 . S
C1314 C1311 1.463 . S
C1314 N1318 1.427 . S
C1315 H1305 0.929 . S
C1315 C1313 1.433 . S
C1315 N1318 1.384 . S
C1316 H1307 0.929 . S
C1316 C1308 1.378 . S
C1316 C1311 1.350 . S
C1317 H1304 0.929 . S
C1317 C1309 1.433 . S
C1317 N1319 1.384 . S
N1318 C1314 1.427 . S
N1318 C1315 1.384 . S
N1319 C1311 1.427 . S
N1319 C1317 1.384 . S
H1320 C1326 0.930 . S
H1321 C1330 0.930 . S
H1322 C1335 0.929 . S
H1323 C1333 0.929 . S
H1324 C1328 0.929 . S
H1325 C1334 0.929 . S
C1326 H1320 0.930 . S
C1326 C1327 1.367 . S
C1326 C1334 1.378 . S
C1327 C1326 1.367 . S
C1327 C1335 1.433 . S
C1328 H1324 0.929 . S
C1328 C1330 1.378 . S
C1328 C1332 1.350 . S
C1329 C1332 1.463 . S
C1329 C1334 1.350 . S
C1329 N1337 1.427 . S
C1330 H1321 0.930 . S
C1330 C1328 1.378 . S
C1330 C1331 1.367 . S
C1331 C1330 1.367 . S
C1331 C1333 1.433 . S
C1332 C1328 1.350 . S
C1332 C1329 1.463 . S
C1332 N1336 1.427 . S
C1333 H1323 0.929 . S
C1333 C1331 1.433 . S
C1333 N1336 1.384 . S
C1334 H1325 0.929 . S
C1334 C1326 1.378 . S
C1334 C1329 1.350 . S
C1335 H1322 0.929 . S
C1335 C1327 1.433 . S
C1335 N1337 1.384 . S
N1336 C1332 1.427 . S
N1336 C1333 1.384 . S
N1337 C1329 1.427 . S
N1337 C1335 1.384 . S
H1338 C1344 0.930 . S
H1339 C1348 0.930 . S
H1340 C1353 0.929 . S
H1341 C1351 0.929 . S
H1342 C1346 0.929 . S
H1343 C1352 0.929 . S
C1344 H1338 0.930 . S
C1344 C1345 1.367 . S
C1344 C1352 1.378 . S
C1345 C1344 1.367 . S
C1345 C1353 1.433 . S
C1346 H1342 0.929 . S
C1346 C1348 1.378 . S
C1346 C1350 1.350 . S
C1347 C1350 1.463 . S
C1347 C1352 1.350 . S
C1347 N1355 1.427 . S
C1348 H1339 0.930 . S
C1348 C1346 1.378 . S
C1348 C1349 1.367 . S
C1349 C1348 1.367 . S
C1349 C1351 1.433 . S
C1350 C1346 1.350 . S
C1350 C1347 1.463 . S
C1350 N1354 1.427 . S
C1351 H1341 0.929 . S
C1351 C1349 1.433 . S
C1351 N1354 1.384 . S
C1352 H1343 0.929 . S
C1352 C1344 1.378 . S
C1352 C1347 1.350 . S
C1353 H1340 0.929 . S
C1353 C1345 1.433 . S
C1353 N1355 1.384 . S
N1354 C1350 1.427 . S
N1354 C1351 1.384 . S
N1355 C1347 1.427 . S
N1355 C1353 1.384 . S
H1356 C1362 0.930 . S
H1357 C1366 0.930 . S
H1358 C1371 0.929 . S
H1359 C1369 0.929 . S
H1360 C1364 0.929 . S
H1361 C1370 0.929 . S
C1362 H1356 0.930 . S
C1362 C1363 1.367 . S
C1362 C1370 1.378 . S
C1363 C1362 1.367 . S
C1363 C1371 1.433 . S
C1364 H1360 0.929 . S
C1364 C1366 1.378 . S
C1364 C1368 1.350 . S
C1365 C1368 1.463 . S
C1365 C1370 1.350 . S
C1365 N1373 1.427 . S
C1366 H1357 0.930 . S
C1366 C1364 1.378 . S
C1366 C1367 1.367 . S
C1367 C1366 1.367 . S
C1367 C1369 1.433 1_455 S
C1368 C1364 1.350 . S
C1368 C1365 1.463 . S
C1368 N1372 1.427 . S
C1369 H1359 0.929 . S
C1369 C1367 1.433 1_655 S
C1369 N1372 1.384 1_655 S
C1370 H1361 0.929 . S
C1370 C1362 1.378 . S
C1370 C1365 1.350 . S
C1371 H1358 0.929 . S
C1371 C1363 1.433 . S
C1371 N1373 1.384 . S
N1372 C1368 1.427 . S
N1372 C1369 1.384 1_455 S
N1373 C1365 1.427 . S
N1373 C1371 1.384 . S
H1374 C1380 0.930 . S
H1375 C1384 0.930 . S
H1376 C1389 0.929 . S
H1377 C1387 0.929 . S
H1378 C1382 0.929 . S
H1379 C1388 0.929 . S
C1380 H1374 0.930 . S
C1380 C1381 1.367 . S
C1380 C1388 1.378 . S
C1381 C1380 1.367 . S
C1381 C1389 1.433 1_455 S
C1382 H1378 0.929 . S
C1382 C1384 1.378 . S
C1382 C1386 1.350 . S
C1383 C1386 1.463 . S
C1383 C1388 1.350 . S
C1383 N1391 1.472 . S
C1384 H1375 0.930 . S
C1384 C1382 1.378 . S
C1384 C1385 1.367 . S
C1385 C1384 1.367 . S
C1385 C1387 1.433 . S
C1386 C1382 1.350 . S
C1386 C1383 1.463 . S
C1386 N1390 1.427 . S
C1387 H1377 0.929 . S
C1387 C1385 1.433 . S
C1387 N1390 1.384 . S
C1388 H1379 0.929 . S
C1388 C1380 1.378 . S
C1388 C1383 1.350 . S
C1389 H1376 0.929 . S
C1389 C1381 1.433 1_655 S
C1389 N1391 1.368 1_655 S
N1390 C1386 1.427 . S
N1390 C1387 1.384 . S
N1391 C1383 1.472 . S
N1391 C1389 1.368 1_455 S
H1392 C1398 0.930 . S
H1393 C1402 0.930 . S
H1394 C1407 0.929 . S
H1395 C1405 0.929 . S
H1396 C1400 0.929 . S
H1397 C1406 0.929 . S
C1398 H1392 0.930 . S
C1398 C1399 1.367 . S
C1398 C1406 1.378 . S
C1399 C1398 1.367 . S
C1399 C1407 1.433 . S
C1400 H1396 0.929 . S
C1400 C1402 1.378 . S
C1400 C1404 1.350 . S
C1401 C1404 1.463 . S
C1401 C1406 1.350 . S
C1401 N1409 1.427 . S
C1402 H1393 0.930 . S
C1402 C1400 1.378 . S
C1402 C1403 1.367 . S
C1403 C1402 1.367 . S
C1403 C1405 1.433 . S
C1404 C1400 1.350 . S
C1404 C1401 1.463 . S
C1404 N1408 1.427 . S
C1405 H1395 0.929 . S
C1405 C1403 1.433 . S
C1405 N1408 1.384 . S
C1406 H1397 0.929 . S
C1406 C1398 1.378 . S
C1406 C1401 1.350 . S
C1407 H1394 0.929 . S
C1407 C1399 1.433 . S
C1407 N1409 1.384 . S
N1408 C1404 1.427 . S
N1408 C1405 1.384 . S
N1409 C1401 1.427 . S
N1409 C1407 1.384 . S
H1410 C1416 0.930 . S
H1411 C1420 0.930 . S
H1412 C1425 0.929 . S
H1413 C1423 0.929 . S
H1414 C1418 0.929 . S
H1415 C1424 0.929 . S
C1416 H1410 0.930 . S
C1416 C1417 1.367 . S
C1416 C1424 1.378 . S
C1417 C1416 1.367 . S
C1417 C1425 1.433 . S
C1418 H1414 0.929 . S
C1418 C1420 1.378 . S
C1418 C1422 1.350 . S
C1419 C1422 1.463 . S
C1419 C1424 1.350 . S
C1419 N1427 1.427 . S
C1420 H1411 0.930 . S
C1420 C1418 1.378 . S
C1420 C1421 1.367 . S
C1421 C1420 1.367 . S
C1421 C1423 1.433 . S
C1422 C1418 1.350 . S
C1422 C1419 1.463 . S
C1422 N1426 1.427 . S
C1423 H1413 0.929 . S
C1423 C1421 1.433 . S
C1423 N1426 1.384 . S
C1424 H1415 0.929 . S
C1424 C1416 1.378 . S
C1424 C1419 1.350 . S
C1425 H1412 0.929 . S
C1425 C1417 1.433 . S
C1425 N1427 1.384 . S
N1426 C1422 1.427 . S
N1426 C1423 1.384 . S
N1427 C1419 1.427 . S
N1427 C1425 1.384 . S
H1428 C1434 0.930 . S
H1429 C1438 0.930 . S
H1430 C1443 0.929 . S
H1431 C1441 0.929 . S
H1432 C1436 0.929 . S
H1433 C1442 0.929 . S
C1434 H1428 0.930 . S
C1434 C1435 1.367 . S
C1434 C1442 1.378 . S
C1435 C1434 1.367 . S
C1435 C1443 1.433 . S
C1436 H1432 0.929 . S
C1436 C1438 1.378 . S
C1436 C1440 1.350 . S
C1437 C1440 1.463 . S
C1437 C1442 1.350 . S
C1437 N1445 1.427 . S
C1438 H1429 0.930 . S
C1438 C1436 1.378 . S
C1438 C1439 1.367 . S
C1439 C1438 1.367 . S
C1439 C1441 1.433 . S
C1440 C1436 1.350 . S
C1440 C1437 1.463 . S
C1440 N1444 1.427 . S
C1441 H1431 0.929 . S
C1441 C1439 1.433 . S
C1441 N1444 1.384 . S
C1442 H1433 0.929 . S
C1442 C1434 1.378 . S
C1442 C1437 1.350 . S
C1443 H1430 0.929 . S
C1443 C1435 1.433 . S
C1443 N1445 1.384 . S
N1444 C1440 1.427 . S
N1444 C1441 1.384 . S
N1445 C1437 1.427 . S
N1445 C1443 1.384 . S
H1446 C1452 0.930 . S
H1447 C1456 0.930 . S
H1448 C1461 0.929 . S
H1449 C1459 0.929 . S
H1450 C1454 0.929 . S
H1451 C1460 0.929 . S
C1452 H1446 0.930 . S
C1452 C1453 1.367 . S
C1452 C1460 1.378 . S
C1453 C1452 1.367 . S
C1453 C1461 1.433 . S
C1454 H1450 0.929 . S
C1454 C1456 1.378 . S
C1454 C1458 1.350 . S
C1455 C1458 1.463 . S
C1455 C1460 1.350 . S
C1455 N1463 1.427 . S
C1456 H1447 0.930 . S
C1456 C1454 1.378 . S
C1456 C1457 1.367 . S
C1457 C1456 1.367 . S
C1457 C1459 1.433 . S
C1458 C1454 1.350 . S
C1458 C1455 1.463 . S
C1458 N1462 1.427 . S
C1459 H1449 0.929 . S
C1459 C1457 1.433 . S
C1459 N1462 1.384 . S
C1460 H1451 0.929 . S
C1460 C1452 1.378 . S
C1460 C1455 1.350 . S
C1461 H1448 0.929 . S
C1461 C1453 1.433 . S
C1461 N1463 1.384 . S
N1462 C1458 1.427 . S
N1462 C1459 1.384 . S
N1463 C1455 1.427 . S
N1463 C1461 1.384 . S
H1464 C1470 0.930 . S
H1465 C1474 0.930 . S
H1466 C1479 0.929 . S
H1467 C1477 0.929 . S
H1468 C1472 0.929 . S
H1469 C1478 0.929 . S
C1470 H1464 0.930 . S
C1470 C1471 1.367 . S
C1470 C1478 1.378 . S
C1471 C1470 1.367 . S
C1471 C1479 1.433 . S
C1472 H1468 0.929 . S
C1472 C1474 1.378 . S
C1472 C1476 1.350 . S
C1473 C1476 1.463 . S
C1473 C1478 1.350 . S
C1473 N1481 1.427 . S
C1474 H1465 0.930 . S
C1474 C1472 1.378 . S
C1474 C1475 1.367 . S
C1475 C1474 1.367 . S
C1475 C1477 1.433 . S
C1476 C1472 1.350 . S
C1476 C1473 1.463 . S
C1476 N1480 1.427 . S
C1477 H1467 0.929 . S
C1477 C1475 1.433 . S
C1477 N1480 1.384 . S
C1478 H1469 0.929 . S
C1478 C1470 1.378 . S
C1478 C1473 1.350 . S
C1479 H1466 0.929 . S
C1479 C1471 1.433 . S
C1479 N1481 1.384 . S
N1480 C1476 1.427 . S
N1480 C1477 1.384 . S
N1481 C1473 1.427 . S
N1481 C1479 1.384 . S
H1482 C1488 0.930 . S
H1483 C1492 0.930 . S
H1484 C1497 0.929 . S
H1485 C1495 0.929 . S
H1486 C1490 0.929 . S
H1487 C1496 0.929 . S
C1488 H1482 0.930 . S
C1488 C1489 1.367 . S
C1488 C1496 1.378 . S
C1489 C1488 1.367 . S
C1489 C1497 1.433 . S
C1490 H1486 0.929 . S
C1490 C1492 1.378 . S
C1490 C1494 1.350 . S
C1491 C1494 1.463 . S
C1491 C1496 1.350 . S
C1491 N1499 1.427 . S
C1492 H1483 0.930 . S
C1492 C1490 1.378 . S
C1492 C1493 1.367 . S
C1493 C1492 1.367 . S
C1493 C1495 1.433 . S
C1494 C1490 1.350 . S
C1494 C1491 1.463 . S
C1494 N1498 1.427 . S
C1495 H1485 0.929 . S
C1495 C1493 1.433 . S
C1495 N1498 1.384 . S
C1496 H1487 0.929 . S
C1496 C1488 1.378 . S
C1496 C1491 1.350 . S
C1497 H1484 0.929 . S
C1497 C1489 1.433 . S
C1497 N1499 1.384 . S
N1498 C1494 1.427 . S
N1498 C1495 1.384 . S
N1499 C1491 1.427 . S
N1499 C1497 1.384 . S
H1500 C1506 0.930 . S
H1501 C1510 0.930 . S
H1502 C1515 0.929 . S
H1503 C1513 0.929 . S
H1504 C1508 0.929 . S
H1505 C1514 0.929 . S
C1506 H1500 0.930 . S
C1506 C1507 1.367 . S
C1506 C1514 1.378 . S
C1507 C1506 1.367 . S
C1507 C1515 1.433 . S
C1508 H1504 0.929 . S
C1508 C1510 1.378 . S
C1508 C1512 1.350 . S
C1509 C1512 1.463 . S
C1509 C1514 1.350 . S
C1509 N1517 1.427 . S
C1510 H1501 0.930 . S
C1510 C1508 1.378 . S
C1510 C1511 1.367 . S
C1511 C1510 1.367 . S
C1511 C1513 1.433 . S
C1512 C1508 1.350 . S
C1512 C1509 1.463 . S
C1512 N1516 1.427 . S
C1513 H1503 0.929 . S
C1513 C1511 1.433 . S
C1513 N1516 1.384 . S
C1514 H1505 0.929 . S
C1514 C1506 1.378 . S
C1514 C1509 1.350 . S
C1515 H1502 0.929 . S
C1515 C1507 1.433 . S
C1515 N1517 1.384 . S
N1516 C1512 1.427 . S
N1516 C1513 1.384 . S
N1517 C1509 1.427 . S
N1517 C1515 1.384 . S
H1518 C1524 0.930 . S
H1519 C1528 0.930 . S
H1520 C1533 0.929 . S
H1521 C1531 0.929 . S
H1522 C1526 0.929 . S
H1523 C1532 0.929 . S
C1524 H1518 0.930 . S
C1524 C1525 1.367 . S
C1524 C1532 1.378 . S
C1525 C1524 1.367 . S
C1525 C1533 1.433 . S
C1526 H1522 0.929 . S
C1526 C1528 1.378 . S
C1526 C1530 1.350 . S
C1527 C1530 1.463 . S
C1527 C1532 1.350 . S
C1527 N1535 1.427 . S
C1528 H1519 0.930 . S
C1528 C1526 1.378 . S
C1528 C1529 1.367 . S
C1529 C1528 1.367 . S
C1529 C1531 1.433 . S
C1530 C1526 1.350 . S
C1530 C1527 1.463 . S
C1530 N1534 1.427 . S
C1531 H1521 0.929 . S
C1531 C1529 1.433 . S
C1531 N1534 1.384 . S
C1532 H1523 0.929 . S
C1532 C1524 1.378 . S
C1532 C1527 1.350 . S
C1533 H1520 0.929 . S
C1533 C1525 1.433 . S
C1533 N1535 1.384 . S
N1534 C1530 1.427 . S
N1534 C1531 1.384 . S
N1535 C1527 1.427 . S
N1535 C1533 1.384 . S
H1536 C1542 0.930 . S
H1537 C1546 0.930 . S
H1538 C1551 0.929 . S
H1539 C1549 0.929 . S
H1540 C1544 0.929 . S
H1541 C1550 0.929 . S
C1542 H1536 0.930 . S
C1542 C1543 1.367 . S
C1542 C1550 1.378 . S
C1543 C1542 1.367 . S
C1543 C1551 1.433 . S
C1544 H1540 0.929 . S
C1544 C1546 1.378 . S
C1544 C1548 1.350 . S
C1545 C1548 1.463 . S
C1545 C1550 1.350 . S
C1545 N1553 1.427 . S
C1546 H1537 0.930 . S
C1546 C1544 1.378 . S
C1546 C1547 1.367 . S
C1547 C1546 1.367 . S
C1547 C1549 1.433 . S
C1548 C1544 1.350 . S
C1548 C1545 1.463 . S
C1548 N1552 1.427 . S
C1549 H1539 0.929 . S
C1549 C1547 1.433 . S
C1549 N1552 1.384 . S
C1550 H1541 0.929 . S
C1550 C1542 1.378 . S
C1550 C1545 1.350 . S
C1551 H1538 0.929 . S
C1551 C1543 1.433 . S
C1551 N1553 1.384 . S
N1552 C1548 1.427 . S
N1552 C1549 1.384 . S
N1553 C1545 1.427 . S
N1553 C1551 1.384 . S
H1554 C1560 0.930 . S
H1555 C1564 0.930 . S
H1556 C1569 0.929 . S
H1557 C1567 0.929 . S
H1558 C1562 0.929 . S
H1559 C1568 0.929 . S
C1560 H1554 0.930 . S
C1560 C1561 1.367 . S
C1560 C1568 1.378 . S
C1561 C1560 1.367 . S
C1561 C1569 1.433 . S
C1562 H1558 0.929 . S
C1562 C1564 1.378 . S
C1562 C1566 1.350 . S
C1563 C1566 1.463 . S
C1563 C1568 1.350 . S
C1563 N1571 1.427 . S
C1564 H1555 0.930 . S
C1564 C1562 1.378 . S
C1564 C1565 1.367 . S
C1565 C1564 1.367 . S
C1565 C1567 1.433 . S
C1566 C1562 1.350 . S
C1566 C1563 1.463 . S
C1566 N1570 1.427 . S
C1567 H1557 0.929 . S
C1567 C1565 1.433 . S
C1567 N1570 1.384 . S
C1568 H1559 0.929 . S
C1568 C1560 1.378 . S
C1568 C1563 1.350 . S
C1569 H1556 0.929 . S
C1569 C1561 1.433 . S
C1569 N1571 1.384 . S
N1570 C1566 1.427 . S
N1570 C1567 1.384 . S
N1571 C1563 1.427 . S
N1571 C1569 1.384 . S
H1572 C1578 0.930 . S
H1573 C1582 0.930 . S
H1574 C1587 0.929 . S
H1575 C1585 0.929 . S
H1576 C1580 0.929 . S
H1577 C1586 0.929 . S
C1578 H1572 0.930 . S
C1578 C1579 1.367 . S
C1578 C1586 1.378 . S
C1579 C1578 1.367 . S
C1579 C1587 1.433 . S
C1580 H1576 0.929 . S
C1580 C1582 1.378 . S
C1580 C1584 1.350 . S
C1581 C1584 1.463 . S
C1581 C1586 1.350 . S
C1581 N1589 1.427 . S
C1582 H1573 0.930 . S
C1582 C1580 1.378 . S
C1582 C1583 1.367 . S
C1583 C1582 1.367 . S
C1583 C1585 1.433 . S
C1584 C1580 1.350 . S
C1584 C1581 1.463 . S
C1584 N1588 1.427 . S
C1585 H1575 0.929 . S
C1585 C1583 1.433 . S
C1585 N1588 1.384 . S
C1586 H1577 0.929 . S
C1586 C1578 1.378 . S
C1586 C1581 1.350 . S
C1587 H1574 0.929 . S
C1587 C1579 1.433 . S
C1587 N1589 1.384 . S
N1588 C1584 1.427 . S
N1588 C1585 1.384 . S
N1589 C1581 1.427 . S
N1589 C1587 1.384 . S
H1590 C1596 0.930 . S
H1591 C1600 0.930 . S
H1592 C1605 0.929 . S
H1593 C1603 0.929 . S
H1594 C1598 0.929 . S
H1595 C1604 0.929 . S
C1596 H1590 0.930 . S
C1596 C1597 1.367 . S
C1596 C1604 1.378 . S
C1597 C1596 1.367 . S
C1597 C1605 1.433 . S
C1598 H1594 0.929 . S
C1598 C1600 1.378 . S
C1598 C1602 1.350 . S
C1599 C1602 1.463 . S
C1599 C1604 1.350 . S
C1599 N1607 1.427 . S
C1600 H1591 0.930 . S
C1600 C1598 1.378 . S
C1600 C1601 1.367 . S
C1601 C1600 1.367 . S
C1601 C1603 1.433 . S
C1602 C1598 1.350 . S
C1602 C1599 1.463 . S
C1602 N1606 1.427 . S
C1603 H1593 0.929 . S
C1603 C1601 1.433 . S
C1603 N1606 1.384 . S
C1604 H1595 0.929 . S
C1604 C1596 1.378 . S
C1604 C1599 1.350 . S
C1605 H1592 0.929 . S
C1605 C1597 1.433 . S
C1605 N1607 1.384 . S
N1606 C1602 1.427 . S
N1606 C1603 1.384 . S
N1607 C1599 1.427 . S
N1607 C1605 1.384 . S
H1608 C1614 0.930 . S
H1609 C1618 0.930 1_455 S
H1610 C1623 0.929 . S
H1611 C1621 0.929 . S
H1612 C1616 0.929 . S
H1613 C1622 0.929 . S
C1614 H1608 0.930 . S
C1614 C1615 1.367 . S
C1614 C1622 1.378 . S
C1615 C1614 1.367 . S
C1615 C1623 1.433 . S
C1616 H1612 0.929 . S
C1616 C1618 1.378 . S
C1616 C1620 1.350 . S
C1617 C1620 1.463 . S
C1617 C1622 1.350 . S
C1617 N1625 1.427 . S
C1618 H1609 0.930 1_655 S
C1618 C1616 1.378 . S
C1618 C1619 1.367 . S
C1619 C1618 1.367 . S
C1619 C1621 1.433 . S
C1620 C1616 1.350 . S
C1620 C1617 1.463 . S
C1620 N1624 1.427 . S
C1621 H1611 0.929 . S
C1621 C1619 1.433 . S
C1621 N1624 1.384 . S
C1622 H1613 0.929 . S
C1622 C1614 1.378 . S
C1622 C1617 1.350 . S
C1623 H1610 0.929 . S
C1623 C1615 1.433 . S
C1623 N1625 1.384 . S
N1624 C1620 1.427 . S
N1624 C1621 1.384 . S
N1625 C1617 1.427 . S
N1625 C1623 1.384 . S
H1626 C1632 0.930 . S
H1627 C1636 0.930 . S
H1628 C1641 0.929 . S
H1629 C1639 0.929 . S
H1630 C1634 0.929 . S
H1631 C1640 0.929 . S
C1632 H1626 0.930 . S
C1632 C1633 1.367 . S
C1632 C1640 1.378 . S
C1633 C1632 1.367 . S
C1633 C1641 1.433 . S
C1634 H1630 0.929 . S
C1634 C1636 1.378 . S
C1634 C1638 1.350 . S
C1635 C1638 1.463 . S
C1635 C1640 1.350 . S
C1635 N1643 1.427 . S
C1636 H1627 0.930 . S
C1636 C1634 1.378 . S
C1636 C1637 1.367 . S
C1637 C1636 1.367 . S
C1637 C1639 1.433 . S
C1638 C1634 1.350 . S
C1638 C1635 1.463 . S
C1638 N1642 1.427 . S
C1639 H1629 0.929 . S
C1639 C1637 1.433 . S
C1639 N1642 1.384 . S
C1640 H1631 0.929 . S
C1640 C1632 1.378 . S
C1640 C1635 1.350 . S
C1641 H1628 0.929 . S
C1641 C1633 1.433 . S
C1641 N1643 1.384 . S
N1642 C1638 1.427 . S
N1642 C1639 1.384 . S
N1643 C1635 1.427 . S
N1643 C1641 1.384 . S
H1644 C1650 0.930 . S
H1645 C1654 0.930 . S
H1646 C1659 0.929 1_455 S
H1647 C1657 0.929 . S
H1648 C1652 0.929 . S
H1649 C1658 0.929 . S
C1650 H1644 0.930 . S
C1650 C1651 1.367 . S
C1650 C1658 1.378 . S
C1651 C1650 1.367 . S
C1651 C1659 1.433 . S
C1652 H1648 0.929 . S
C1652 C1654 1.378 . S
C1652 C1656 1.350 . S
C1653 C1656 1.463 . S
C1653 C1658 1.350 . S
C1653 N1661 1.427 . S
C1654 H1645 0.930 . S
C1654 C1652 1.378 . S
C1654 C1655 1.367 . S
C1655 C1654 1.367 . S
C1655 C1657 1.433 . S
C1656 C1652 1.350 . S
C1656 C1653 1.463 . S
C1656 N1660 1.427 . S
C1657 H1647 0.929 . S
C1657 C1655 1.433 . S
C1657 N1660 1.384 . S
C1658 H1649 0.929 . S
C1658 C1650 1.378 . S
C1658 C1653 1.350 . S
C1659 H1646 0.929 1_655 S
C1659 C1651 1.433 . S
C1659 N1661 1.384 . S
N1660 C1656 1.427 . S
N1660 C1657 1.384 . S
N1661 C1653 1.427 . S
N1661 C1659 1.384 . S
H1662 C1668 0.930 . S
H1663 C1672 0.930 . S
H1664 C1677 0.929 . S
H1665 C1675 0.929 . S
H1666 C1670 0.929 . S
H1667 C1676 0.929 . S
C1668 H1662 0.930 . S
C1668 C1669 1.367 . S
C1668 C1676 1.378 . S
C1669 C1668 1.367 . S
C1669 C1677 1.433 . S
C1670 H1666 0.929 . S
C1670 C1672 1.378 . S
C1670 C1674 1.350 . S
C1671 C1674 1.463 . S
C1671 C1676 1.350 . S
C1671 N1679 1.427 . S
C1672 H1663 0.930 . S
C1672 C1670 1.378 . S
C1672 C1673 1.367 . S
C1673 C1672 1.367 . S
C1673 C1675 1.433 . S
C1674 C1670 1.350 . S
C1674 C1671 1.463 . S
C1674 N1678 1.427 . S
C1675 H1665 0.929 . S
C1675 C1673 1.433 . S
C1675 N1678 1.384 . S
C1676 H1667 0.929 . S
C1676 C1668 1.378 . S
C1676 C1671 1.350 . S
C1677 H1664 0.929 . S
C1677 C1669 1.433 . S
C1677 N1679 1.384 . S
N1678 C1674 1.427 . S
N1678 C1675 1.384 . S
N1679 C1671 1.427 . S
N1679 C1677 1.384 . S
H1680 C1686 0.930 . S
H1681 C1690 0.930 1_455 S
H1682 C1695 0.929 . S
H1683 C1693 0.929 . S
H1684 C1688 0.907 1_455 S
H1685 C1694 0.929 . S
C1686 H1680 0.930 . S
C1686 C1687 1.367 . S
C1686 C1694 1.378 . S
C1687 C1686 1.367 . S
C1687 C1695 1.433 . S
C1688 H1684 0.907 1_655 S
C1688 C1690 1.378 . S
C1688 C1692 1.350 . S
C1689 C1692 1.463 . S
C1689 C1694 1.350 . S
C1689 N1697 1.427 . S
C1690 H1681 0.930 1_655 S
C1690 C1688 1.378 . S
C1690 C1691 1.367 . S
C1691 C1690 1.367 . S
C1691 C1693 1.433 . S
C1692 C1688 1.350 . S
C1692 C1689 1.463 . S
C1692 N1696 1.427 . S
C1693 H1683 0.929 . S
C1693 C1691 1.433 . S
C1693 N1696 1.384 . S
C1694 H1685 0.929 . S
C1694 C1686 1.378 . S
C1694 C1689 1.350 . S
C1695 H1682 0.929 . S
C1695 C1687 1.433 . S
C1695 N1697 1.384 . S
N1696 C1692 1.427 . S
N1696 C1693 1.384 . S
N1697 C1689 1.427 . S
N1697 C1695 1.384 . S
H1698 C1704 0.930 . S
H1699 C1708 0.930 . S
H1700 C1713 0.929 . S
H1701 C1711 0.929 . S
H1702 C1706 0.929 . S
H1703 C1712 0.929 . S
C1704 H1698 0.930 . S
C1704 C1705 1.367 . S
C1704 C1712 1.378 . S
C1705 C1704 1.367 . S
C1705 C1713 1.433 . S
C1706 H1702 0.929 . S
C1706 C1708 1.378 . S
C1706 C1710 1.350 . S
C1707 C1710 1.463 . S
C1707 C1712 1.350 . S
C1707 N1715 1.427 . S
C1708 H1699 0.930 . S
C1708 C1706 1.378 . S
C1708 C1709 1.367 . S
C1709 C1708 1.367 . S
C1709 C1711 1.433 . S
C1710 C1706 1.350 . S
C1710 C1707 1.463 . S
C1710 N1714 1.427 . S
C1711 H1701 0.929 . S
C1711 C1709 1.433 . S
C1711 N1714 1.384 . S
C1712 H1703 0.929 . S
C1712 C1704 1.378 . S
C1712 C1707 1.350 . S
C1713 H1700 0.929 . S
C1713 C1705 1.433 . S
C1713 N1715 1.384 . S
N1714 C1710 1.427 . S
N1714 C1711 1.384 . S
N1715 C1707 1.427 . S
N1715 C1713 1.384 . S
H1716 C1722 0.930 . S
H1717 C1726 0.930 . S
H1718 C1731 0.929 . S
H1719 C1729 0.929 . S
H1720 C1724 0.929 . S
H1721 C1730 0.929 . S
C1722 H1716 0.930 . S
C1722 C1723 1.367 . S
C1722 C1730 1.378 . S
C1723 C1722 1.367 . S
C1723 C1731 1.433 1_655 S
C1724 H1720 0.929 . S
C1724 C1726 1.378 . S
C1724 C1728 1.350 1_455 S
C1725 C1728 1.463 . S
C1725 C1730 1.350 . S
C1725 N1733 1.427 1_655 S
C1726 H1717 0.930 . S
C1726 C1724 1.378 . S
C1726 C1727 1.367 1_455 S
C1727 C1726 1.367 1_655 S
C1727 C1729 1.433 . S
C1728 C1724 1.350 1_655 S
C1728 C1725 1.463 . S
C1728 N1732 1.427 . S
C1729 H1719 0.929 . S
C1729 C1727 1.433 . S
C1729 N1732 1.384 . S
C1730 H1721 0.929 . S
C1730 C1722 1.378 . S
C1730 C1725 1.350 . S
C1731 H1718 0.929 . S
C1731 C1723 1.433 1_455 S
C1731 N1733 1.384 . S
N1732 C1728 1.427 . S
N1732 C1729 1.384 . S
N1733 C1725 1.427 1_455 S
N1733 C1731 1.384 . S
H1734 C1740 0.930 . S
H1735 C1744 0.930 . S
H1736 C1749 0.929 . S
H1737 C1747 0.929 . S
H1738 C1742 0.929 . S
H1739 C1748 0.929 . S
C1740 H1734 0.930 . S
C1740 C1741 1.367 . S
C1740 C1748 1.378 . S
C1741 C1740 1.367 . S
C1741 C1749 1.433 . S
C1742 H1738 0.929 . S
C1742 C1744 1.378 . S
C1742 C1746 1.350 . S
C1743 C1746 1.463 . S
C1743 C1748 1.350 . S
C1743 N1751 1.427 . S
C1744 H1735 0.930 . S
C1744 C1742 1.378 . S
C1744 C1745 1.367 . S
C1745 C1744 1.367 . S
C1745 C1747 1.433 . S
C1746 C1742 1.350 . S
C1746 C1743 1.463 . S
C1746 N1750 1.427 . S
C1747 H1737 0.929 . S
C1747 C1745 1.433 . S
C1747 N1750 1.384 . S
C1748 H1739 0.929 . S
C1748 C1740 1.378 . S
C1748 C1743 1.350 . S
C1749 H1736 0.929 . S
C1749 C1741 1.433 . S
C1749 N1751 1.384 . S
N1750 C1746 1.427 . S
N1750 C1747 1.384 . S
N1751 C1743 1.427 . S
N1751 C1749 1.384 . S
H1752 C1758 0.930 . S
H1753 C1762 0.930 . S
H1754 C1767 0.929 . S
H1755 C1765 0.929 . S
H1756 C1760 0.929 . S
H1757 C1766 0.929 . S
C1758 H1752 0.930 . S
C1758 C1759 1.367 . S
C1758 C1766 1.378 . S
C1759 C1758 1.367 . S
C1759 C1767 1.433 1_565 S
C1760 H1756 0.929 . S
C1760 C1762 1.378 . S
C1760 C1764 1.350 1_545 S
C1761 C1764 1.463 . S
C1761 C1766 1.350 . S
C1761 N1769 1.427 1_565 S
C1762 H1753 0.930 . S
C1762 C1760 1.378 . S
C1762 C1763 1.367 1_545 S
C1763 C1762 1.367 1_565 S
C1763 C1765 1.433 . S
C1764 C1760 1.350 1_565 S
C1764 C1761 1.463 . S
C1764 N1768 1.427 . S
C1765 H1755 0.929 . S
C1765 C1763 1.433 . S
C1765 N1768 1.384 . S
C1766 H1757 0.929 . S
C1766 C1758 1.378 . S
C1766 C1761 1.350 . S
C1767 H1754 0.929 . S
C1767 C1759 1.433 1_545 S
C1767 N1769 1.384 . S
N1768 C1764 1.427 . S
N1768 C1765 1.384 . S
N1769 C1761 1.427 1_545 S
N1769 C1767 1.384 . S
H1770 C1776 0.930 . S
H1771 C1780 0.930 . S
H1772 C1785 0.929 . S
H1773 C1783 0.929 . S
H1774 C1778 0.929 . S
H1775 C1784 0.929 . S
C1776 H1770 0.930 . S
C1776 C1777 1.367 1_565 S
C1776 C1784 1.378 . S
C1777 C1776 1.367 1_545 S
C1777 C1785 1.433 . S
C1778 H1774 0.929 . S
C1778 C1780 1.378 . S
C1778 C1782 1.350 . S
C1779 C1782 1.463 . S
C1779 C1784 1.350 1_545 S
C1779 N1787 1.427 . S
C1780 H1771 0.930 . S
C1780 C1778 1.378 . S
C1780 C1781 1.367 . S
C1781 C1780 1.367 . S
C1781 C1783 1.433 1_545 S
C1782 C1778 1.350 . S
C1782 C1779 1.463 . S
C1782 N1786 1.427 1_545 S
C1783 H1773 0.929 . S
C1783 C1781 1.433 1_565 S
C1783 N1786 1.384 . S
C1784 H1775 0.929 . S
C1784 C1776 1.378 . S
C1784 C1779 1.350 1_565 S
C1785 H1772 0.929 . S
C1785 C1777 1.433 . S
C1785 N1787 1.384 . S
N1786 C1782 1.427 1_565 S
N1786 C1783 1.384 . S
N1787 C1779 1.427 . S
N1787 C1785 1.384 . S
H1788 C1794 0.931 . S
H1789 C1798 0.930 . S
H1790 C1803 0.929 . S
H1791 C1801 0.929 . S
H1792 C1796 0.929 . S
H1793 C1802 0.929 . S
C1794 H1788 0.931 . S
C1794 C1795 1.365 . S
C1794 C1802 1.384 1_545 S
C1795 C1794 1.365 . S
C1795 C1803 1.433 . S
C1796 H1792 0.929 . S
C1796 C1798 1.378 . S
C1796 C1800 1.350 . S
C1797 C1800 1.463 . S
C1797 C1802 1.350 . S
C1797 N1805 1.429 1_565 S
C1798 H1789 0.930 . S
C1798 C1796 1.378 . S
C1798 C1799 1.367 . S
C1799 C1798 1.367 . S
C1799 C1801 1.433 . S
C1800 C1796 1.350 . S
C1800 C1797 1.463 . S
C1800 N1804 1.427 . S
C1801 H1791 0.929 . S
C1801 C1799 1.433 . S
C1801 N1804 1.384 . S
C1802 H1793 0.929 . S
C1802 C1794 1.384 1_565 S
C1802 C1797 1.350 . S
C1803 H1790 0.929 . S
C1803 C1795 1.433 . S
C1803 N1805 1.379 . S
N1804 C1800 1.427 . S
N1804 C1801 1.384 . S
N1805 C1797 1.429 1_545 S
N1805 C1803 1.379 . S
H1806 C1812 0.930 . S
H1807 C1816 0.930 . S
H1808 C1821 0.929 . S
H1809 C1819 0.929 . S
H1810 C1814 0.929 . S
H1811 C1820 0.929 . S
C1812 H1806 0.930 . S
C1812 C1813 1.367 1_565 S
C1812 C1820 1.378 . S
C1813 C1812 1.367 1_545 S
C1813 C1821 1.433 . S
C1814 H1810 0.929 . S
C1814 C1816 1.378 . S
C1814 C1818 1.350 . S
C1815 C1818 1.463 . S
C1815 C1820 1.350 1_545 S
C1815 N1823 1.427 . S
C1816 H1807 0.930 . S
C1816 C1814 1.378 . S
C1816 C1817 1.367 1_545 S
C1817 C1816 1.367 1_565 S
C1817 C1819 1.433 . S
C1818 C1814 1.350 . S
C1818 C1815 1.463 . S
C1818 N1822 1.427 1_545 S
C1819 H1809 0.929 . S
C1819 C1817 1.433 . S
C1819 N1822 1.384 . S
C1820 H1811 0.929 . S
C1820 C1812 1.378 . S
C1820 C1815 1.350 1_565 S
C1821 H1808 0.929 . S
C1821 C1813 1.433 . S
C1821 N1823 1.384 . S
N1822 C1818 1.427 1_565 S
N1822 C1819 1.384 . S
N1823 C1815 1.427 . S
N1823 C1821 1.384 . S
C535 C316 1.829 . S
C539 C5 1.807 . S
C553 C327 1.895 . S
C557 C19 1.893 . S
C571 C335 1.737 . S
C575 C30 1.744 . S
C589 C41 1.760 . S
C593 C349 1.753 . S
C607 C272 1.829 . S
C611 C49 1.807 . S
C625 C283 1.756 . S
C629 C63 1.760 . S
C643 C291 1.749 . S
C647 C74 1.742 . S
C661 C85 1.895 . S
C665 C305 1.897 . S
C679 C426 1.759 . S
C683 C93 1.742 . S
C697 C434 1.384 . S
C701 C107 1.826 . S
C715 C401 1.767 . S
C719 C118 1.798 . S
C733 C415 1.720 . S
C737 C126 1.304 . S
C751 C137 1.729 . S
C755 C382 1.774 . S
C769 C148 1.304 . S
C773 C393 1.714 . S
C787 C357 1.773 . S
C791 C162 1.793 . S
C805 C173 1.828 . S
C809 C368 1.385 . S
C823 C184 1.768 . S
C827 C503 1.795 . S
C841 C195 1.772 . S
C845 C481 1.796 . S
C859 C206 1.643 . S
C863 C489 1.233 . S
C877 C459 1.806 . S
C881 C217 1.805 . S
C895 C225 1.496 . S
C899 C470 1.882 . S
C913 C239 1.796 . S
C917 C448 1.811 . S
C931 C522 1.236 . S
C935 C250 1.642 . S
C949 C258 1.476 . S
C953 C514 1.888 . S
C967 C170 1.768 . S
C971 C8 1.848 . S
C985 C16 1.958 . S
C989 C140 2.010 . S
C1003 C27 1.385 . S
C1007 C151 1.737 . S
C1021 C38 1.761 . S
C1025 C159 1.414 . S
C1039 C104 1.764 . S
C1043 C52 1.850 . S
C1057 C60 1.776 . S
C1061 C115 1.390 . S
C1075 C71 1.385 . S
C1079 C129 1.737 . S
C1093 C82 1.951 . S
C1097 C96 2.014 . S
C1111 C228 1.780 . S
C1115 C181 1.455 . S
C1129 C192 1.464 . S
C1133 C261 1.791 . S
C1147 C203 1.617 . S
C1151 C236 1.313 . S
C1165 C247 1.630 . S
C1169 C214 1.292 . S
C1183 C269 1.409 . S
C1187 C437 1.733 . S
C1201 C404 1.774 . S
C1205 C280 1.607 . S
C1219 C294 1.736 . S
C1223 C412 1.589 . S
C1237 C302 1.521 . S
C1241 C423 1.226 . S
C1255 C313 1.431 . S
C1259 C371 1.729 . S
C1273 C379 1.220 . S
C1277 C324 1.497 . S
C1291 C390 1.574 . S
C1295 C338 1.724 . S
C1309 C346 1.614 . S
C1313 C360 1.768 . S
C1327 C492 1.680 . S
C1331 C445 1.363 . S
C1345 C525 1.681 . S
C1349 C456 1.359 . S
C1363 C500 1.473 . S
C1367 C467 1.789 1_455 S
C1381 C511 1.793 1_455 S
C1385 C478 1.469 . S
C1399 C227 1.555 . S
C1403 C7 1.637 . S
C1417 C194 1.604 . S
C1421 C18 1.716 . S
C1435 C29 1.345 . S
C1439 C205 1.451 . S
C1453 C216 1.603 . S
C1457 C40 1.690 . S
C1471 C51 1.635 . S
C1475 C260 1.538 . S
C1489 C62 1.684 . S
C1493 C238 1.588 . S
C1507 C73 1.368 . S
C1511 C249 1.461 . S
C1525 C84 1.710 . S
C1529 C183 1.595 . S
C1543 C95 1.727 . S
C1547 C172 1.721 . S
C1561 C106 1.720 . S
C1565 C139 1.727 . S
C1579 C150 1.515 . S
C1583 C117 1.507 . S
C1597 C128 1.534 . S
C1601 C161 1.489 . S
C1615 C491 1.536 . S
C1619 C271 1.557 . S
C1633 C282 1.664 . S
C1637 C458 1.561 . S
C1651 C293 1.729 . S
C1655 C469 1.722 . S
C1669 C480 1.667 . S
C1673 C304 1.794 . S
C1687 C524 1.536 . S
C1691 C315 1.560 . S
C1705 C502 1.661 . S
C1709 C326 1.790 . S
C1723 C337 1.731 . S
C1727 C513 1.716 . S
C1741 C348 1.672 . S
C1745 C447 1.544 . S
C1759 C436 1.463 . S
C1763 C359 1.628 . S
C1777 C403 1.626 . S
C1781 C370 1.468 . S
C1795 C381 1.406 1_545 S
C1799 C414 1.539 . S
C1813 C392 1.540 . S
C1817 C425 1.403 1_565 S
