# Generated by pormake.
# Topology whw, (6)-cn, num edge types: 1
# Building blocks:
#     Node 0, Type 0, BuildingBlock: KUMJIN_clean_sbu_1, # of connection points: 6
#     Node 1, Type 0, BuildingBlock: KUMJIN_clean_sbu_1, # of connection points: 6
#     Node 2, Type 0, BuildingBlock: KUMJIN_clean_sbu_1, # of connection points: 6
#     Node 3, Type 0, BuildingBlock: KUMJIN_clean_sbu_1, # of connection points: 6
#     Node 4, Type 0, BuildingBlock: KUMJIN_clean_sbu_1, # of connection points: 6
#     Node 5, Type 0, BuildingBlock: KUMJIN_clean_sbu_1, # of connection points: 6
#     Node 6, Type 0, BuildingBlock: KUMJIN_clean_sbu_1, # of connection points: 6
#     Node 7, Type 0, BuildingBlock: KUMJIN_clean_sbu_1, # of connection points: 6
#     Node 8, Type 0, BuildingBlock: KUMJIN_clean_sbu_1, # of connection points: 6
#     Node 9, Type 0, BuildingBlock: KUMJIN_clean_sbu_1, # of connection points: 6
#     Node 10, Type 0, BuildingBlock: KUMJIN_clean_sbu_1, # of connection points: 6
#     Node 11, Type 0, BuildingBlock: KUMJIN_clean_sbu_1, # of connection points: 6
#     Node 12, Type 0, BuildingBlock: KUMJIN_clean_sbu_1, # of connection points: 6
#     Node 13, Type 0, BuildingBlock: KUMJIN_clean_sbu_1, # of connection points: 6
#     Node 14, Type 0, BuildingBlock: KUMJIN_clean_sbu_1, # of connection points: 6
#     Node 15, Type 0, BuildingBlock: KUMJIN_clean_sbu_1, # of connection points: 6
#     Edge 16, Type (0, 0), BuildingBlock: XUDNAN_clean_linker_2, # of connection points: 2
#     Edge 17, Type (0, 0), BuildingBlock: XUDNAN_clean_linker_2, # of connection points: 2
#     Edge 18, Type (0, 0), BuildingBlock: XUDNAN_clean_linker_2, # of connection points: 2
#     Edge 19, Type (0, 0), BuildingBlock: XUDNAN_clean_linker_2, # of connection points: 2
#     Edge 20, Type (0, 0), BuildingBlock: XUDNAN_clean_linker_2, # of connection points: 2
#     Edge 21, Type (0, 0), BuildingBlock: XUDNAN_clean_linker_2, # of connection points: 2
#     Edge 22, Type (0, 0), BuildingBlock: XUDNAN_clean_linker_2, # of connection points: 2
#     Edge 23, Type (0, 0), BuildingBlock: XUDNAN_clean_linker_2, # of connection points: 2
#     Edge 24, Type (0, 0), BuildingBlock: XUDNAN_clean_linker_2, # of connection points: 2
#     Edge 25, Type (0, 0), BuildingBlock: XUDNAN_clean_linker_2, # of connection points: 2
#     Edge 26, Type (0, 0), BuildingBlock: XUDNAN_clean_linker_2, # of connection points: 2
#     Edge 27, Type (0, 0), BuildingBlock: XUDNAN_clean_linker_2, # of connection points: 2
#     Edge 28, Type (0, 0), BuildingBlock: XUDNAN_clean_linker_2, # of connection points: 2
#     Edge 29, Type (0, 0), BuildingBlock: XUDNAN_clean_linker_2, # of connection points: 2
#     Edge 30, Type (0, 0), BuildingBlock: XUDNAN_clean_linker_2, # of connection points: 2
#     Edge 31, Type (0, 0), BuildingBlock: XUDNAN_clean_linker_2, # of connection points: 2
#     Edge 32, Type (0, 0), BuildingBlock: XUDNAN_clean_linker_2, # of connection points: 2
#     Edge 33, Type (0, 0), BuildingBlock: XUDNAN_clean_linker_2, # of connection points: 2
#     Edge 34, Type (0, 0), BuildingBlock: XUDNAN_clean_linker_2, # of connection points: 2
#     Edge 35, Type (0, 0), BuildingBlock: XUDNAN_clean_linker_2, # of connection points: 2
#     Edge 36, Type (0, 0), BuildingBlock: XUDNAN_clean_linker_2, # of connection points: 2
#     Edge 37, Type (0, 0), BuildingBlock: XUDNAN_clean_linker_2, # of connection points: 2
#     Edge 38, Type (0, 0), BuildingBlock: XUDNAN_clean_linker_2, # of connection points: 2
#     Edge 39, Type (0, 0), BuildingBlock: XUDNAN_clean_linker_2, # of connection points: 2
#     Edge 40, Type (0, 0), BuildingBlock: XUDNAN_clean_linker_2, # of connection points: 2
#     Edge 41, Type (0, 0), BuildingBlock: XUDNAN_clean_linker_2, # of connection points: 2
#     Edge 42, Type (0, 0), BuildingBlock: XUDNAN_clean_linker_2, # of connection points: 2
#     Edge 43, Type (0, 0), BuildingBlock: XUDNAN_clean_linker_2, # of connection points: 2
#     Edge 44, Type (0, 0), BuildingBlock: XUDNAN_clean_linker_2, # of connection points: 2
#     Edge 45, Type (0, 0), BuildingBlock: XUDNAN_clean_linker_2, # of connection points: 2
#     Edge 46, Type (0, 0), BuildingBlock: XUDNAN_clean_linker_2, # of connection points: 2
#     Edge 47, Type (0, 0), BuildingBlock: XUDNAN_clean_linker_2, # of connection points: 2
#     Edge 48, Type (0, 0), BuildingBlock: XUDNAN_clean_linker_2, # of connection points: 2
#     Edge 49, Type (0, 0), BuildingBlock: XUDNAN_clean_linker_2, # of connection points: 2
#     Edge 50, Type (0, 0), BuildingBlock: XUDNAN_clean_linker_2, # of connection points: 2
#     Edge 51, Type (0, 0), BuildingBlock: XUDNAN_clean_linker_2, # of connection points: 2
#     Edge 52, Type (0, 0), BuildingBlock: XUDNAN_clean_linker_2, # of connection points: 2
#     Edge 53, Type (0, 0), BuildingBlock: XUDNAN_clean_linker_2, # of connection points: 2
#     Edge 54, Type (0, 0), BuildingBlock: XUDNAN_clean_linker_2, # of connection points: 2
#     Edge 55, Type (0, 0), BuildingBlock: XUDNAN_clean_linker_2, # of connection points: 2
#     Edge 56, Type (0, 0), BuildingBlock: XUDNAN_clean_linker_2, # of connection points: 2
#     Edge 57, Type (0, 0), BuildingBlock: XUDNAN_clean_linker_2, # of connection points: 2
#     Edge 58, Type (0, 0), BuildingBlock: XUDNAN_clean_linker_2, # of connection points: 2
#     Edge 59, Type (0, 0), BuildingBlock: XUDNAN_clean_linker_2, # of connection points: 2
#     Edge 60, Type (0, 0), BuildingBlock: XUDNAN_clean_linker_2, # of connection points: 2
#     Edge 61, Type (0, 0), BuildingBlock: XUDNAN_clean_linker_2, # of connection points: 2
#     Edge 62, Type (0, 0), BuildingBlock: XUDNAN_clean_linker_2, # of connection points: 2
#     Edge 63, Type (0, 0), BuildingBlock: XUDNAN_clean_linker_2, # of connection points: 2
# Relax obj value: 0.409
# Max RMSD: 0.284
# Mean RMSD: 0.243
data_MOF--net-whw--node1-KUMJIN_clean_sbu_1--edge1-XUDNAN_clean_linker_2
_symmetry_space_group_name_H-M    P1
_symmetry_Int_Tables_number       1
_symmetry_cell_setting            triclinic
loop_
_symmetry_equiv_pos_as_xyz
'x, y, z'
_cell_length_a     46.256813
_cell_length_b     45.992859
_cell_length_c     32.27583
_cell_angle_alpha  101.69403
_cell_angle_beta   88.243896
_cell_angle_gamma 125.08865
loop_
_atom_site_label
_atom_site_type_symbol
_atom_site_fract_x
_atom_site_fract_y
_atom_site_fract_z
_atom_type_partial_charge
Eu0 Eu 0.04081 0.10546 0.19814 0.0
C1 C 0.19951 0.18007 0.26923 0.0
N2 N 0.19502 0.19865 0.24519 0.0
C3 C 0.24883 0.25483 0.28095 0.0
C4 C 0.22914 0.1986 0.30022 0.0
C5 C 0.2191 0.2356 0.25093 0.0
C6 C 0.25404 0.23626 0.30548 0.0
C7 C 0.17573 0.12426 0.29324 0.0
C8 C 0.17311 0.14291 0.2653 0.0
C9 C 0.20599 0.14235 0.3225 0.0
C10 C 0.23264 0.17937 0.32591 0.0
Eu11 Eu 0.14638 0.16206 0.19106 0.0
N12 N 0.14345 0.12598 0.23735 0.0
C13 C 0.14705 0.08842 0.29263 0.0
C14 C 0.11443 0.09218 0.23974 0.0
C15 C 0.11597 0.07265 0.26647 0.0
H16 H 0.21626 0.25059 0.23187 0.0
H17 H 0.09291 0.04563 0.26735 0.0
H18 H 9e-05 0.02751 0.12184 0.0
H19 H 0.98718 0.18415 0.25707 0.0
H20 H 0.08969 0.08023 0.22192 0.0
H21 H 0.14802 0.07336 0.31374 0.0
H22 H 0.02046 0.15795 0.26326 0.0
H23 H 0.26785 0.28402 0.28496 0.0
H24 H 0.20846 0.12825 0.34375 0.0
H25 H 0.25535 0.19318 0.34954 0.0
H26 H 0.95704 0.99791 0.05811 0.0
H27 H 0.27708 0.25133 0.32888 0.0
H28 H 0.94993 0.16519 0.19023 0.0
N29 N 0.99607 0.07218 0.13967 0.0
C30 C 0.97758 0.08565 0.13295 0.0
C31 C 0.96298 0.02293 0.07847 0.0
C32 C 0.95218 0.06924 0.09721 0.0
C33 C 0.98785 0.04018 0.11436 0.0
C34 C 0.94558 0.03796 0.06932 0.0
N35 N 0.0049 0.12723 0.19921 0.0
C36 C 0.00511 0.15032 0.23349 0.0
C37 C 0.96211 0.1277 0.15896 0.0
C38 C 0.98248 0.11441 0.16347 0.0
C39 C 0.96497 0.15413 0.19249 0.0
C40 C 0.98595 0.16486 0.23029 0.0
H41 H 0.92619 0.02447 0.0416 0.0
H42 H 0.91418 0.07194 0.06374 0.0
H43 H 0.92296 0.1233 0.11778 0.0
O44 O 0.99121 0.07338 0.22572 0.0
O45 O 0.05258 0.12017 0.13233 0.0
O46 O 0.11412 0.15981 0.13535 0.0
O47 O 0.02924 0.06009 0.22451 0.0
O48 O 0.07148 0.16517 0.22917 0.0
O49 O 0.11722 0.18735 0.18748 0.0
O50 O 0.18088 0.15335 0.15142 0.0
O51 O 0.13812 0.17886 0.25841 0.0
O52 O 0.07813 0.13429 0.26374 0.0
O53 O 0.19024 0.20681 0.16544 0.0
O54 O 0.12003 0.10465 0.15792 0.0
O55 O 0.05883 0.07449 0.15403 0.0
C56 C 0.08165 0.14299 0.1158 0.0
C57 C 0.99692 0.05253 0.28434 0.0
C58 C 0.98839 0.07371 0.35625 0.0
C59 C 0.99486 0.05101 0.37094 0.0
C60 C 0.00278 0.02961 0.29952 0.0
C61 C 0.00181 0.02896 0.34261 0.0
C62 C 0.9893 0.07426 0.31289 0.0
C63 C 0.09924 0.19234 0.21653 0.0
C64 C 0.00024 0.05448 0.23919 0.0
C65 C 0.9334 0.0838 0.09132 0.0
C66 C 0.93845 0.11308 0.12207 0.0
C67 C 0.11171 0.16096 0.28109 0.0
C68 C 0.23494 0.20201 0.13167 0.0
C69 C 0.2703 0.21411 0.07196 0.0
C70 C 0.29975 0.22478 0.09853 0.0
C71 C 0.26424 0.21262 0.15847 0.0
C72 C 0.23829 0.20326 0.08889 0.0
C73 C 0.29672 0.22429 0.14186 0.0
C74 C 0.08764 0.0766 0.14386 0.0
C75 C 0.1994 0.1863 0.14514 0.0
H76 H 0.99431 0.05019 0.40428 0.0
H77 H 0.00856 0.01256 0.27811 0.0
H78 H 0.00658 0.01138 0.35412 0.0
H79 H 0.98507 0.0924 0.30182 0.0
H80 H 0.32466 0.23301 0.08578 0.0
H81 H 0.26187 0.21136 0.19166 0.0
H82 H 0.21534 0.19445 0.06808 0.0
H83 H 0.31936 0.23233 0.1624 0.0
Eu84 Eu 0.17514 0.67567 0.44576 0.0
C85 C 0.15688 0.79336 0.39366 0.0
N86 N 0.13946 0.75763 0.37312 0.0
C87 C 0.08581 0.75329 0.36326 0.0
C88 C 0.1389 0.81011 0.40056 0.0
C89 C 0.10454 0.73767 0.35739 0.0
C90 C 0.10308 0.78966 0.38486 0.0
C91 C 0.21139 0.85033 0.42938 0.0
C92 C 0.19335 0.81404 0.40588 0.0
C93 C 0.19351 0.867 0.43617 0.0
C94 C 0.15744 0.84702 0.42157 0.0
Eu95 Eu 0.17597 0.7373 0.3565 0.0
N96 N 0.21101 0.79836 0.3957 0.0
C97 C 0.24655 0.86834 0.4465 0.0
C98 C 0.24628 0.81707 0.40897 0.0
C99 C 0.26352 0.85097 0.43759 0.0
H100 H 0.09131 0.71006 0.33881 0.0
H101 H 0.29025 0.86409 0.4519 0.0
H102 H 0.2572 0.70528 0.48001 0.0
H103 H 0.06034 0.53299 0.39247 0.0
H104 H 0.2599 0.80425 0.40083 0.0
H105 H 0.26069 0.89544 0.46698 0.0
H106 H 0.09104 0.59835 0.42659 0.0
H107 H 0.05822 0.73747 0.35045 0.0
H108 H 0.20721 0.89518 0.45329 0.0
H109 H 0.14401 0.86029 0.42707 0.0
H110 H 0.2959 0.68374 0.47048 0.0
H111 H 0.08865 0.80185 0.38892 0.0
H112 H 0.09556 0.50907 0.36761 0.0
N113 N 0.21262 0.65616 0.44259 0.0
C114 C 0.19855 0.62152 0.42075 0.0
C115 C 0.26861 0.66602 0.45618 0.0
C116 C 0.21957 0.60816 0.41412 0.0
C117 C 0.24671 0.67807 0.46169 0.0
C118 C 0.2552 0.63118 0.43151 0.0
N119 N 0.14265 0.61169 0.41785 0.0
C120 C 0.10642 0.58829 0.41477 0.0
C121 C 0.14617 0.56133 0.38902 0.0
C122 C 0.16238 0.59849 0.40808 0.0
C123 C 0.10904 0.53782 0.38204 0.0
C124 C 0.08906 0.55121 0.396 0.0
H125 H 0.27224 0.62196 0.42715 0.0
H126 H 0.21988 0.56137 0.38577 0.0
H127 H 0.15545 0.52025 0.36408 0.0
O128 O 0.13977 0.66825 0.49618 0.0
O129 O 0.14464 0.64725 0.38132 0.0
O130 O 0.17214 0.68413 0.33256 0.0
O131 O 0.18824 0.67535 0.51091 0.0
O132 O 0.14169 0.69569 0.43496 0.0
O133 O 0.12286 0.68913 0.36752 0.0
O134 O 0.20508 0.76863 0.30804 0.0
O135 O 0.18746 0.75835 0.42974 0.0
O136 O 0.21558 0.73652 0.45733 0.0
O137 O 0.14916 0.72871 0.2949 0.0
O138 O 0.2241 0.73565 0.35863 0.0
O139 O 0.22566 0.70629 0.41077 0.0
C140 C 0.15831 0.65329 0.34543 0.0
C141 C 0.13898 0.63709 0.54773 0.0
C142 C 0.11169 0.61129 0.61067 0.0
C143 C 0.09917 0.57655 0.5858 0.0
C144 C 0.1269 0.60193 0.5253 0.0
C145 C 0.10691 0.57205 0.54387 0.0
C146 C 0.13178 0.64182 0.59112 0.0
C147 C 0.11581 0.67987 0.40442 0.0
C148 C 0.15855 0.66789 0.52498 0.0
C149 C 0.20404 0.57194 0.39193 0.0
C150 C 0.16736 0.54853 0.37949 0.0
C151 C 0.20717 0.75964 0.46018 0.0
C152 C 0.17373 0.781 0.26398 0.0
C153 C 0.16334 0.80353 0.20566 0.0
C154 C 0.16588 0.83127 0.23676 0.0
C155 C 0.17788 0.81065 0.29292 0.0
C156 C 0.167 0.77786 0.21948 0.0
C157 C 0.17333 0.83492 0.27972 0.0
C158 C 0.23885 0.72424 0.37933 0.0
C159 C 0.17723 0.75472 0.28141 0.0
H160 H 0.08437 0.55271 0.5993 0.0
H161 H 0.13316 0.59746 0.49326 0.0
H162 H 0.09771 0.54514 0.52573 0.0
H163 H 0.14157 0.66889 0.60937 0.0
H164 H 0.16345 0.85123 0.22757 0.0
H165 H 0.18536 0.81561 0.32603 0.0
H166 H 0.16513 0.75619 0.19603 0.0
H167 H 0.17636 0.8573 0.30304 0.0
Eu168 Eu 0.71962 0.97732 0.6559 0.0
C169 C 0.57199 0.83216 0.66828 0.0
N170 N 0.59797 0.83658 0.64358 0.0
C171 C 0.59075 0.78417 0.65913 0.0
C172 C 0.55393 0.80286 0.68892 0.0
C173 C 0.60742 0.81316 0.63854 0.0
C174 C 0.56359 0.77871 0.68395 0.0
C175 C 0.53869 0.85464 0.70157 0.0
C176 C 0.56498 0.85827 0.67506 0.0
C177 C 0.51974 0.82472 0.72075 0.0
C178 C 0.52751 0.79904 0.71468 0.0
Eu179 Eu 0.62528 0.88601 0.61009 0.0
N180 N 0.58471 0.88778 0.65727 0.0
C181 C 0.53242 0.88143 0.70868 0.0
C182 C 0.57886 0.91437 0.66523 0.0
C183 C 0.5528 0.91153 0.69075 0.0
H184 H 0.62792 0.81731 0.61869 0.0
H185 H 0.54847 0.9327 0.69655 0.0
H186 H 0.72236 0.05171 0.65741 0.0
H187 H 0.82266 0.95453 0.61604 0.0
H188 H 0.59367 0.93819 0.65244 0.0
H189 H 0.51229 0.87942 0.72851 0.0
H190 H 0.76121 0.93589 0.61356 0.0
H191 H 0.59841 0.7657 0.65569 0.0
H192 H 0.49947 0.82159 0.74105 0.0
H193 H 0.51324 0.77656 0.73051 0.0
H194 H 0.76927 0.1187 0.67803 0.0
H195 H 0.55058 0.75605 0.69954 0.0
H196 H 0.87219 0.01935 0.64392 0.0
N197 N 0.75927 0.03838 0.65122 0.0
C198 C 0.79391 0.05066 0.65578 0.0
C199 C 0.77638 0.09973 0.67143 0.0
C200 C 0.82089 0.08788 0.67172 0.0
C201 C 0.75009 0.06214 0.65833 0.0
C202 C 0.81182 0.11257 0.67907 0.0
N203 N 0.77512 0.98948 0.63743 0.0
C204 C 0.7822 0.96417 0.62481 0.0
C205 C 0.8377 0.03723 0.65277 0.0
C206 C 0.80213 0.02552 0.64776 0.0
C207 C 0.84514 0.01136 0.64119 0.0
C208 C 0.81726 0.97477 0.62582 0.0
H209 H 0.8319 0.14146 0.69119 0.0
H210 H 0.87592 0.12672 0.69811 0.0
H211 H 0.89148 0.08317 0.6777 0.0
O212 O 0.75672 0.99277 0.70887 0.0
O213 O 0.72149 0.95359 0.58562 0.0
O214 O 0.66471 0.90135 0.55797 0.0
O215 O 0.7247 0.01448 0.71478 0.0
O216 O 0.70648 0.92472 0.66418 0.0
O217 O 0.6704 0.87903 0.60685 0.0
O218 O 0.5811 0.87528 0.57203 0.0
O219 O 0.64185 0.89313 0.67837 0.0
O220 O 0.66997 0.95446 0.69452 0.0
O221 O 0.59339 0.83571 0.5608 0.0
O222 O 0.63863 0.94252 0.61808 0.0
O223 O 0.69341 0.98724 0.60765 0.0
C224 C 0.69887 0.92572 0.55368 0.0
C225 C 0.75252 0.01726 0.77875 0.0
C226 C 0.75684 0.99381 0.83824 0.0
C227 C 0.77538 0.02961 0.86373 0.0
C228 C 0.7703 0.05225 0.80508 0.0
C229 C 0.78175 0.05833 0.84728 0.0
C230 C 0.74478 0.98788 0.79561 0.0
C231 C 0.69869 0.8966 0.63483 0.0
C232 C 0.74952 0.01406 0.7327 0.0
C233 C 0.85556 0.09889 0.68198 0.0
C234 C 0.86427 0.07392 0.67115 0.0
C235 C 0.65403 0.92321 0.70704 0.0
C236 C 0.57761 0.84807 0.50103 0.0
C237 C 0.58246 0.87909 0.44586 0.0
C238 C 0.58597 0.85459 0.41642 0.0
C239 C 0.58194 0.8242 0.47156 0.0
C240 C 0.57731 0.87518 0.48766 0.0
C241 C 0.58562 0.82722 0.42933 0.0
C242 C 0.65912 0.96681 0.59637 0.0
C243 C 0.57612 0.84672 0.54618 0.0
H244 H 0.78683 0.03622 0.89586 0.0
H245 H 0.77728 0.07531 0.79228 0.0
H246 H 0.79745 0.08579 0.8667 0.0
H247 H 0.73107 0.96102 0.77472 0.0
H248 H 0.58864 0.85646 0.38341 0.0
H249 H 0.58267 0.80336 0.48117 0.0
H250 H 0.57361 0.89371 0.50967 0.0
H251 H 0.58856 0.8085 0.40662 0.0
Eu252 Eu 0.51374 0.27764 0.87142 0.0
C253 C 0.33866 0.16063 0.85264 0.0
N254 N 0.36415 0.18012 0.88637 0.0
C255 C 0.33012 0.19922 0.92366 0.0
C256 C 0.30817 0.16058 0.85275 0.0
C257 C 0.35972 0.19811 0.92236 0.0
C258 C 0.30456 0.18082 0.88841 0.0
C259 C 0.31472 0.11642 0.78492 0.0
C260 C 0.34208 0.13905 0.81885 0.0
C261 C 0.28506 0.11757 0.78411 0.0
C262 C 0.28184 0.13966 0.81791 0.0
Eu263 Eu 0.41467 0.17953 0.87851 0.0
N264 N 0.37084 0.13817 0.82061 0.0
C265 C 0.31732 0.09224 0.75365 0.0
C266 C 0.37226 0.11284 0.79189 0.0
C267 C 0.34592 0.09 0.75758 0.0
H268 H 0.37953 0.21248 0.94958 0.0
H269 H 0.3475 0.07045 0.73444 0.0
H270 H 0.57503 0.29246 0.94123 0.0
H271 H 0.46621 0.36188 0.8608 0.0
H272 H 0.39372 0.11014 0.79547 0.0
H273 H 0.29676 0.07428 0.72724 0.0
H274 H 0.47564 0.31465 0.83358 0.0
H275 H 0.3271 0.21435 0.95169 0.0
H276 H 0.26399 0.10069 0.75809 0.0
H277 H 0.25836 0.13957 0.81738 0.0
H278 H 0.61553 0.33952 1.00396 0.0
H279 H 0.28183 0.18188 0.88904 0.0
H280 H 0.49472 0.40295 0.93155 0.0
N281 N 0.54802 0.31664 0.93594 0.0
C282 C 0.54533 0.34471 0.95126 0.0
C283 C 0.5958 0.34116 0.98961 0.0
C284 C 0.56777 0.37199 0.9873 0.0
C285 C 0.57283 0.31455 0.95418 0.0
C286 C 0.59353 0.3702 1.00594 0.0
N287 N 0.50334 0.32328 0.89169 0.0
C288 C 0.4856 0.32981 0.86606 0.0
C289 C 0.51906 0.37683 0.94481 0.0
C290 C 0.52152 0.34734 0.92951 0.0
C291 C 0.49742 0.3808 0.92073 0.0
C292 C 0.48118 0.35761 0.88083 0.0
H293 H 0.61188 0.39118 1.03294 0.0
H294 H 0.58113 0.42152 1.03102 0.0
H295 H 0.53803 0.4253 0.99447 0.0
O296 O 0.55642 0.33001 0.8593 0.0
O297 O 0.49851 0.26705 0.93923 0.0
O298 O 0.43815 0.22113 0.94351 0.0
O299 O 0.55545 0.28284 0.83234 0.0
O300 O 0.46188 0.25708 0.83328 0.0
O301 O 0.4172 0.22963 0.87609 0.0
O302 O 0.38415 0.12344 0.88775 0.0
O303 O 0.43916 0.17627 0.81347 0.0
O304 O 0.48637 0.23528 0.80618 0.0
O305 O 0.4294 0.1661 0.93155 0.0
O306 O 0.46994 0.21184 0.87308 0.0
O307 O 0.52513 0.23884 0.88716 0.0
C308 C 0.47098 0.24902 0.96115 0.0
C309 C 0.5762 0.32813 0.79315 0.0
C310 C 0.55263 0.33489 0.73254 0.0
C311 C 0.58729 0.35871 0.72258 0.0
C312 C 0.61077 0.35128 0.78259 0.0
C313 C 0.61624 0.36645 0.74724 0.0
C314 C 0.54714 0.31958 0.76772 0.0
C315 C 0.42936 0.2446 0.84334 0.0
C316 C 0.57055 0.31718 0.83369 0.0
C317 C 0.5644 0.40056 1.00307 0.0
C318 C 0.53977 0.40265 0.98229 0.0
C319 C 0.46324 0.1992 0.79054 0.0
C320 C 0.38245 0.12055 0.96067 0.0
C321 C 0.38136 0.10996 1.03227 0.0
C322 C 0.34852 0.10523 0.03483 0.0
C323 C 0.34982 0.11602 0.96423 0.0
C324 C 0.39804 0.11728 0.99469 0.0
C325 C 0.33296 0.10824 1.00107 0.0
C326 C 0.49431 0.20863 0.8839 0.0
C327 C 0.40222 0.13238 0.92377 0.0
H328 H 0.59189 0.3711 0.6957 0.0
H329 H 0.63345 0.35846 0.80237 0.0
H330 H 0.64295 0.38467 0.73932 0.0
H331 H 0.52038 0.30206 0.77616 0.0
H332 H 0.33469 0.09898 0.06293 0.0
H333 H 0.33766 0.11912 0.93888 0.0
H334 H 0.42367 0.1217 0.99244 0.0
H335 H 0.30792 0.10495 1.00375 0.0
Eu336 Eu 0.03555 0.80886 0.86747 0.0
C337 C 0.17079 0.97517 0.88388 0.0
N338 N 0.14001 0.94561 0.86125 0.0
C339 C 0.12359 0.98387 0.8477 0.0
C340 C 0.17906 0.01048 0.88975 0.0
C341 C 0.11691 0.94945 0.84215 0.0
C342 C 0.15474 0.01452 0.87175 0.0
C343 C 0.22708 1.00008 0.92316 0.0
C344 C 0.19441 0.97005 0.90042 0.0
C345 C 0.23548 0.03535 0.92915 0.0
C346 C 0.21149 0.04055 0.91261 0.0
Eu347 Eu 0.13183 0.88906 0.85123 0.0
N348 N 0.18586 0.93578 0.89321 0.0
C349 C 0.25052 0.99375 0.93861 0.0
C350 C 0.20847 0.92933 0.90815 0.0
C351 C 0.24111 0.95817 0.93112 0.0
H352 H 0.0936 0.92597 0.82227 0.0
H353 H 0.25911 0.95298 0.94261 0.0
H354 H -5e-05 0.72446 0.81451 0.0
H355 H 0.02288 0.91387 0.82966 0.0
H356 H 0.20161 0.90193 0.90135 0.0
H357 H 0.27596 0.01611 0.95607 0.0
H358 H 0.04689 0.89179 0.86943 0.0
H359 H 0.10498 0.98681 0.83293 0.0
H360 H 0.26054 0.05879 0.94621 0.0
H361 H 0.21844 0.06795 0.91728 0.0
H362 H 0.95751 0.68072 0.75076 0.0
H363 H 0.16007 0.0412 0.87559 0.0
H364 H 0.97876 0.87294 0.76712 0.0
N365 N -0.00258 0.76747 0.80627 0.0
C366 C 0.98283 0.7787 0.78371 0.0
C367 C 0.96442 0.70815 0.75961 0.0
C368 C 0.95823 0.75464 0.74754 0.0
C369 C 0.98839 0.7328 0.79541 0.0
C370 C 0.94926 0.71913 0.73552 0.0
N371 N 0.01754 0.83754 0.83102 0.0
C372 C 0.02789 0.87279 0.84287 0.0
C373 C 0.97842 0.8266 0.77243 0.0
C374 C 0.9931 0.81454 0.79626 0.0
C375 C 0.98932 0.86267 0.7847 0.0
C376 C 0.01418 0.88581 0.81996 0.0
H377 H 0.93061 0.69997 0.70781 0.0
H378 H 0.92423 0.74848 0.69687 0.0
H379 H 0.94171 0.81132 0.71873 0.0
O380 O 0.98109 0.7839 0.88191 0.0
O381 O 0.05589 0.80204 0.80529 0.0
O382 O 0.08398 0.86018 0.80041 0.0
O383 O 0.00836 0.76135 0.89667 0.0
O384 O 0.05367 0.8606 0.91574 0.0
O385 O 0.11082 0.90845 0.90537 0.0
O386 O 0.17724 0.89378 0.82316 0.0
O387 O 0.13216 0.86625 0.90937 0.0
O388 O 0.07406 0.82594 0.92551 0.0
O389 O 0.14319 0.90082 0.78791 0.0
O390 O 0.12936 0.83892 0.84843 0.0
O391 O 0.07084 0.7896 0.85083 0.0
C392 C 0.0684 0.82565 0.7816 0.0
C393 C 0.96067 0.75188 0.93637 0.0
C394 C 0.94009 0.77067 0.99973 0.0
C395 C 0.92019 0.73454 1.00516 0.0
C396 C 0.94082 0.7162 0.94244 0.0
C397 C 0.92063 0.7076 0.97671 0.0
C398 C 0.96035 0.7791 0.96506 0.0
C399 C 0.08255 0.89425 0.92613 0.0
C400 C 0.97915 0.7593 0.89809 0.0
C401 C 0.94334 0.76663 0.72456 0.0
C402 C 0.95332 0.80243 0.73703 0.0
C403 C 0.1091 0.84524 0.93425 0.0
C404 C 0.20239 0.9269 0.76985 0.0
C405 C 0.24163 0.93553 0.71453 0.0
C406 C 0.265 0.97258 0.73455 0.0
C407 C 0.22539 0.96405 0.78957 0.0
C408 C 0.21047 0.91303 0.73241 0.0
C409 C 0.25662 0.98683 0.77178 0.0
C410 C 0.10482 0.80429 0.84575 0.0
C411 C 0.17128 0.90063 0.7885 0.0
H412 H 0.90525 0.72727 1.03231 0.0
H413 H 0.94062 0.6949 0.92036 0.0
H414 H 0.90549 0.68004 0.98144 0.0
H415 H 0.9758 0.80674 0.96041 0.0
H416 H 0.28929 0.99039 0.72123 0.0
H417 H 0.21955 0.97521 0.8187 0.0
H418 H 0.19279 0.88414 0.71761 0.0
H419 H 0.2745 0.01548 0.78707 0.0
Eu420 Eu 0.51662 0.7634 0.23413 0.0
C421 C 0.47606 0.87688 0.1918 0.0
N422 N 0.4596 0.84185 0.17009 0.0
C423 C 0.40297 0.83188 0.17563 0.0
C424 C 0.45654 0.89055 0.20822 0.0
C425 C 0.42366 0.81961 0.16029 0.0
C426 C 0.41941 0.86713 0.20088 0.0
C427 C 0.53091 0.93719 0.21315 0.0
C428 C 0.51252 0.89965 0.19463 0.0
C429 C 0.51196 0.95069 0.23219 0.0
C430 C 0.47482 0.92732 0.22991 0.0
Eu431 Eu 0.49556 0.82105 0.15235 0.0
N432 N 0.52976 0.88543 0.17624 0.0
C433 C 0.56748 0.96007 0.21046 0.0
C434 C 0.56479 0.90794 0.17038 0.0
C435 C 0.58431 0.94548 0.18796 0.0
H436 H 0.41097 0.79204 0.14169 0.0
H437 H 0.61229 0.96309 0.18418 0.0
H438 H 0.60037 0.78987 0.22258 0.0
H439 H 0.38979 0.63144 0.17037 0.0
H440 H 0.57787 0.89712 0.15228 0.0
H441 H 0.58264 0.9891 0.2242 0.0
H442 H 0.42768 0.69556 0.20791 0.0
H443 H 0.37439 0.81401 0.16839 0.0
H444 H 0.52558 0.97929 0.2475 0.0
H445 H 0.4606 0.93835 0.24365 0.0
H446 H 0.63056 0.76364 0.18708 0.0
H447 H 0.40327 0.87622 0.21343 0.0
H448 H 0.41684 0.60072 0.13609 0.0
N449 N 0.54844 0.742 0.19942 0.0
C450 C 0.52864 0.70621 0.17883 0.0
C451 C 0.60197 0.74728 0.18409 0.0
C452 C 0.54516 0.68976 0.15945 0.0
C453 C 0.58463 0.7623 0.20353 0.0
C454 C 0.58221 0.71092 0.1618 0.0
N455 N 0.47628 0.70194 0.19655 0.0
C456 C 0.44014 0.68283 0.19414 0.0
C457 C 0.47079 0.64868 0.15531 0.0
C458 C 0.49174 0.68569 0.17735 0.0
C459 C 0.43378 0.62906 0.15299 0.0
C460 C 0.41842 0.64627 0.17237 0.0
H461 H 0.59572 0.69919 0.14706 0.0
H462 H 0.53672 0.63973 0.12383 0.0
H463 H 0.47161 0.60398 0.11933 0.0
O464 O 0.49809 0.72581 0.27702 0.0
O465 O 0.51145 0.76061 0.16245 0.0
O466 O 0.46646 0.76029 0.13364 0.0
O467 O 0.55152 0.77373 0.28942 0.0
O468 O 0.46451 0.75941 0.23883 0.0
O469 O 0.44944 0.7846 0.19179 0.0
O470 O 0.52359 0.82061 0.09584 0.0
O471 O 0.51164 0.81419 0.20955 0.0
O472 O 0.52527 0.81525 0.27335 0.0
O473 O 0.4752 0.81602 0.08854 0.0
O474 O 0.55157 0.83813 0.16852 0.0
O475 O 0.56688 0.81385 0.21574 0.0
C476 C 0.481 0.74339 0.13837 0.0
C477 C 0.52541 0.74365 0.34831 0.0
C478 C 0.53323 0.72647 0.41443 0.0
C479 C 0.5143 0.73992 0.43442 0.0
C480 C 0.50694 0.7564 0.37052 0.0
C481 C 0.50147 0.75449 0.41288 0.0
C482 C 0.53867 0.72862 0.37053 0.0
C483 C 0.4432 0.76651 0.22305 0.0
C484 C 0.52794 0.74364 0.30138 0.0
C485 C 0.52436 0.65274 0.13866 0.0
C486 C 0.4873 0.63237 0.13618 0.0
C487 C 0.52072 0.83186 0.24905 0.0
C488 C 0.52115 0.85162 0.04606 0.0
C489 C 0.55222 0.87911 0.98505 0.0
C490 C 0.55548 0.91108 1.00581 0.0
C491 C 0.52492 0.88417 0.06431 0.0
C492 C 0.53519 0.84922 1.00612 0.0
C493 C 0.54198 0.91344 0.04458 0.0
C494 C 0.57436 0.83593 0.18931 0.0
C495 C 0.50304 0.82148 0.07017 0.0
H496 H 0.51022 0.74062 0.46765 0.0
H497 H 0.49644 0.76772 0.35488 0.0
H498 H 0.48739 0.76485 0.42953 0.0
H499 H 0.55251 0.71816 0.35342 0.0
H500 H 0.5692 0.93501 0.99248 0.0
H501 H 0.51469 0.88714 0.0943 0.0
H502 H 0.5325 0.8243 0.9915 0.0
H503 H 0.54492 0.93842 0.05965 0.0
Eu504 Eu 0.56109 0.11411 0.4356 0.0
C505 C 0.39097 0.95898 0.42144 0.0
N506 N 0.4251 0.96966 0.42232 0.0
C507 C 0.40506 0.9072 0.40718 0.0
C508 C 0.36254 0.92192 0.40903 0.0
C509 C 0.43257 0.94453 0.41631 0.0
C510 C 0.36986 0.89581 0.40224 0.0
C511 C 0.3496 0.97561 0.42741 0.0
C512 C 0.3846 0.9855 0.42889 0.0
C513 C 0.32135 0.9389 0.41216 0.0
C514 C 0.32818 0.91243 0.40115 0.0
Eu515 Eu 0.46469 0.02804 0.4087 0.0
N516 N 0.41274 0.0209 0.43451 0.0
C517 C 0.34439 0.00319 0.43861 0.0
C518 C 0.40807 0.04805 0.44715 0.0
C519 C 0.37387 0.03956 0.45006 0.0
H520 H 0.45964 0.95323 0.41528 0.0
H521 H 0.37025 0.06114 0.4595 0.0
H522 H 0.57782 0.19553 0.45507 0.0
H523 H 0.6074 0.05202 0.30913 0.0
H524 H 0.43032 0.07627 0.45469 0.0
H525 H 0.31787 0.99673 0.43851 0.0
H526 H 0.57091 0.05029 0.36428 0.0
H527 H 0.4111 0.8873 0.40153 0.0
H528 H 0.29442 0.93093 0.40737 0.0
H529 H 0.30696 0.88482 0.38573 0.0
H530 H 0.60978 0.25063 0.42385 0.0
H531 H 0.34861 0.86696 0.39295 0.0
H532 H 0.64882 0.1087 0.28509 0.0
N533 N 0.59512 0.1686 0.41261 0.0
C534 C 0.61482 0.16959 0.38008 0.0
C535 C 0.61193 0.22833 0.41216 0.0
C536 C 0.6348 0.20101 0.36313 0.0
C537 C 0.59355 0.19723 0.42908 0.0
C538 C 0.63299 0.23044 0.37948 0.0
N539 N 0.59217 0.10752 0.37692 0.0
C540 C 0.58916 0.07635 0.35679 0.0
C541 C 0.63443 0.13976 0.32852 0.0
C542 C 0.61397 0.13874 0.36248 0.0
C543 C 0.63291 0.10863 0.31045 0.0
C544 C 0.60977 0.07671 0.32415 0.0
H545 H 0.64737 0.25472 0.36672 0.0
H546 H 0.67073 0.22582 0.31652 0.0
H547 H 0.67088 0.17245 0.28669 0.0
O548 O 0.57951 0.10948 0.493 0.0
O549 O 0.5381 0.11222 0.37532 0.0
O550 O 0.50405 0.05048 0.35558 0.0
O551 O 0.61399 0.15806 0.46843 0.0
O552 O 0.5422 0.0558 0.41821 0.0
O553 O 0.49664 0.01855 0.44956 0.0
O554 O 0.42167 0.0035 0.35902 0.0
O555 O 0.47243 0.05735 0.48049 0.0
O556 O 0.52704 0.11424 0.48856 0.0
O557 O 0.459 0.98842 0.35242 0.0
O558 O 0.47017 0.07714 0.39986 0.0
O559 O 0.52085 0.12844 0.44135 0.0
C560 C 0.52059 0.0828 0.34531 0.0
C561 C 0.64086 0.13616 0.50196 0.0
C562 C 0.6647 0.11316 0.54189 0.0
C563 C 0.69808 0.13602 0.52738 0.0
C564 C 0.67421 0.15881 0.48813 0.0
C565 C 0.70241 0.15789 0.4999 0.0
C566 C 0.63597 0.11194 0.52615 0.0
C567 C 0.53019 0.03476 0.44505 0.0
C568 C 0.61144 0.13923 0.4953 0.0
C569 C 0.65518 0.20186 0.32974 0.0
C570 C 0.65524 0.17147 0.31277 0.0
C571 C 0.49681 0.091 0.50326 0.0
C572 C 0.42685 0.98051 0.28922 0.0
C573 C 0.42767 0.00472 0.22778 0.0
C574 C 0.40961 0.96904 0.20224 0.0
C575 C 0.40838 0.94539 0.26308 0.0
C576 C 0.43647 0.01024 0.27159 0.0
C577 C 0.40013 0.9398 0.21978 0.0
C578 C 0.48879 0.11118 0.42059 0.0
C579 C 0.43093 0.98408 0.33537 0.0
H580 H 0.72148 0.13874 0.53846 0.0
H581 H 0.67867 0.17756 0.46895 0.0
H582 H 0.72824 0.1756 0.48947 0.0
H583 H 0.60952 0.09305 0.53398 0.0
H584 H 0.40116 0.96319 0.16889 0.0
H585 H 0.39983 0.92209 0.27634 0.0
H586 H 0.44968 0.0372 0.29217 0.0
H587 H 0.38535 0.91251 0.19984 0.0
Eu588 Eu 0.28096 0.33688 0.65807 0.0
C589 C 0.16226 0.1622 0.6249 0.0
N590 N 0.15456 0.18681 0.62712 0.0
C591 C 0.10945 0.14759 0.56813 0.0
C592 C 0.14489 0.12991 0.59257 0.0
C593 C 0.12753 0.17929 0.60047 0.0
C594 C 0.11858 0.12306 0.5637 0.0
C595 C 0.19124 0.14099 0.6578 0.0
C596 C 0.18495 0.16756 0.65738 0.0
C597 C 0.17615 0.1102 0.62389 0.0
C598 C 0.15291 0.1046 0.59142 0.0
Eu599 Eu 0.1855 0.23903 0.68382 0.0
N600 N 0.19809 0.19688 0.69055 0.0
C601 C 0.21093 0.14514 0.69336 0.0
C602 C 0.21472 0.19935 0.72668 0.0
C603 C 0.22207 0.17405 0.72831 0.0
H604 H 0.12086 0.19853 0.60339 0.0
H605 H 0.23613 0.17674 0.7566 0.0
H606 H 0.33758 0.31232 0.62994 0.0
H607 H 0.32405 0.46819 0.75972 0.0
H608 H 0.2234 0.22157 0.75392 0.0
H609 H 0.21633 0.12534 0.6949 0.0
H610 H 0.28904 0.41431 0.69991 0.0
H611 H 0.08859 0.14215 0.54662 0.0
H612 H 0.18102 0.08975 0.62345 0.0
H613 H 0.1402 0.07991 0.56647 0.0
H614 H 0.38698 0.31722 0.66602 0.0
H615 H 0.10437 0.09837 0.53875 0.0
H616 H 0.36942 0.4738 0.80616 0.0
N617 N 0.33429 0.34617 0.68282 0.0
C618 C 0.35121 0.37117 0.72013 0.0
C619 C 0.37745 0.33286 0.68141 0.0
C620 C 0.38102 0.37664 0.74061 0.0
C621 C 0.34898 0.32962 0.66148 0.0
C622 C 0.39308 0.35587 0.72159 0.0
N623 N 0.31415 0.3899 0.71295 0.0
C624 C 0.30891 0.41676 0.71992 0.0
C625 C 0.36143 0.42404 0.77019 0.0
C626 C 0.34122 0.39424 0.73524 0.0
C627 C 0.35439 0.45038 0.77975 0.0
C628 C 0.32883 0.44735 0.75358 0.0
H629 H 0.41546 0.35869 0.73662 0.0
H630 H 0.42136 0.40794 0.79476 0.0
H631 H 0.40425 0.44959 0.82063 0.0
O632 O 0.27227 0.36896 0.62472 0.0
O633 O 0.2583 0.34323 0.72349 0.0
O634 O 0.22126 0.28615 0.74264 0.0
O635 O 0.31615 0.36566 0.61185 0.0
O636 O 0.22606 0.30314 0.66875 0.0
O637 O 0.16975 0.27149 0.65934 0.0
O638 O 0.13898 0.19325 0.70378 0.0
O639 O 0.19182 0.24147 0.61229 0.0
O640 O 0.24656 0.29183 0.59779 0.0
O641 O 0.15295 0.24724 0.72896 0.0
O642 O 0.24377 0.26607 0.70661 0.0
O643 O 0.27789 0.28508 0.65199 0.0
C644 C 0.23923 0.32252 0.75143 0.0
C645 C 0.29052 0.37275 0.55498 0.0
C646 C 0.28134 0.39402 0.49566 0.0
C647 C 0.27496 0.36287 0.46737 0.0
C648 C 0.28584 0.34301 0.5254 0.0
C649 C 0.27759 0.33788 0.48211 0.0
C650 C 0.28884 0.39864 0.53978 0.0
C651 C 0.19891 0.30247 0.65879 0.0
C652 C 0.29811 0.37726 0.60128 0.0
C653 C 0.39887 0.40385 0.77814 0.0
C654 C 0.38917 0.42763 0.79282 0.0
C655 C 0.21445 0.26021 0.58577 0.0
C656 C 0.12748 0.20507 0.77349 0.0
C657 C 0.14853 0.19484 0.83345 0.0
C658 C 0.11411 0.17637 0.8461 0.0
C659 C 0.09328 0.18683 0.78663 0.0
C660 C 0.15533 0.21012 0.79784 0.0
C661 C 0.08674 0.17268 0.82295 0.0
C662 C 0.26763 0.26694 0.68246 0.0
C663 C 0.1325 0.21316 0.73111 0.0
H664 H 0.26953 0.35868 0.43346 0.0
H665 H 0.28773 0.32315 0.53581 0.0
H666 H 0.2734 0.31445 0.45978 0.0
H667 H 0.29381 0.42249 0.56208 0.0
H668 H 0.10832 0.16431 0.87349 0.0
H669 H 0.07142 0.18232 0.76793 0.0
H670 H 0.18172 0.22421 0.78784 0.0
H671 H 0.06017 0.15772 0.83242 0.0
Eu672 Eu 0.0156 0.26354 0.7018 0.0
C673 C 0.95771 0.35393 0.65312 0.0
N674 N 0.9475 0.32077 0.62987 0.0
C675 C 0.88637 0.29861 0.63028 0.0
C676 C 0.93236 0.36017 0.66789 0.0
C677 C 0.91255 0.29349 0.61711 0.0
C678 C 0.89627 0.3318 0.65661 0.0
C679 C 0.00527 0.41731 0.68297 0.0
C680 C 0.99368 0.38218 0.66059 0.0
C681 C 0.98027 0.42291 0.70066 0.0
C682 C 0.94388 0.39453 0.69287 0.0
Eu683 Eu 0.99347 0.3133 0.61794 0.0
N684 N 0.01734 0.37539 0.64507 0.0
C685 C 0.04156 0.44567 0.68642 0.0
C686 C 0.05212 0.40332 0.64453 0.0
C687 C 0.0649 0.43885 0.66603 0.0
H688 H 0.90497 0.26744 0.59794 0.0
H689 H 0.09277 0.4608 0.66749 0.0
H690 H 0.0895 0.26771 0.68744 0.0
H691 H 0.8792 0.15552 0.63015 0.0
H692 H 0.07016 0.39757 0.62986 0.0
H693 H 0.05171 0.47303 0.70373 0.0
H694 H 0.92434 0.21239 0.67941 0.0
H695 H 0.8586 0.27681 0.62062 0.0
H696 H 0.9887 0.44911 0.71984 0.0
H697 H 0.92487 0.39965 0.70564 0.0
H698 H 0.10552 0.22476 0.66192 0.0
H699 H 0.87591 0.33549 0.66729 0.0
H700 H 0.89201 0.11098 0.5984 0.0
N701 N 0.03413 0.22653 0.67329 0.0
C702 C 0.00775 0.19077 0.65678 0.0
C703 C 0.07808 0.21499 0.66015 0.0
C704 C 0.01597 0.16583 0.6403 0.0
C705 C 0.06893 0.23915 0.67447 0.0
C706 C 0.05155 0.17814 0.64339 0.0
N707 N 0.9651 0.20418 0.66984 0.0
C708 C 0.93137 0.19469 0.66414 0.0
C709 C 0.94602 0.14479 0.62871 0.0
C710 C 0.97257 0.17965 0.65331 0.0
C711 C 0.9126 0.13677 0.61893 0.0
C712 C 0.90533 0.16193 0.63658 0.0
H713 H 0.05886 0.15964 0.63169 0.0
H714 H 0.99464 0.11042 0.60686 0.0
H715 H 0.93376 0.09261 0.59463 0.0
O716 O 0.99624 0.24658 0.76152 0.0
O717 O 0.00637 0.24356 0.62904 0.0
O718 O 0.96556 0.25199 0.60487 0.0
O719 O 0.04908 0.26392 0.75031 0.0
O720 O 0.97599 0.27693 0.71756 0.0
O721 O 0.95084 0.27309 0.65398 0.0
O722 O 0.02647 0.32823 0.56497 0.0
O723 O 0.02339 0.34859 0.68271 0.0
O724 O 0.03986 0.32393 0.72675 0.0
O725 O 0.97187 0.3089 0.55547 0.0
O726 O 0.03715 0.30603 0.61918 0.0
O727 O 0.06528 0.31151 0.67975 0.0
C728 C 0.98297 0.23694 0.59917 0.0
C729 C 0.01831 0.21965 0.79438 0.0
C730 C 0.02334 0.19431 0.85354 0.0
C731 C -0.00138 0.15919 0.82833 0.0
C732 C 0.99416 0.18381 0.77104 0.0
C733 C 0.98458 0.1541 0.78774 0.0
C734 C 0.03348 0.22489 0.83586 0.0
C735 C 0.95406 0.2795 0.69605 0.0
C736 C 0.02456 0.2504 0.776 0.0
C737 C 0.98876 0.12993 0.61969 0.0
C738 C 0.95407 0.11974 0.61284 0.0
C739 C 0.03864 0.35011 0.71766 0.0
C740 C 0.01343 0.35355 0.51742 0.0
C741 C 0.04406 0.38804 0.46203 0.0
C742 C 0.03536 0.41231 0.47935 0.0
C743 C 0.00547 0.37863 0.53368 0.0
C744 C 0.03294 0.35841 0.48128 0.0
C745 C 0.01624 0.40759 0.5147 0.0
C746 C 0.06515 0.32464 0.64659 0.0
C747 C 0.00218 0.32331 0.53918 0.0
H748 H 0.99062 0.13519 0.83962 0.0
H749 H 0.98193 0.17864 0.73991 0.0
H750 H 0.9658 0.1267 0.76905 0.0
H751 H 0.05222 0.25233 0.8545 0.0
H752 H 0.0437 0.4353 0.46559 0.0
H753 H 0.991 0.37595 0.56135 0.0
H754 H 0.03984 0.3397 0.46869 0.0
H755 H 0.00996 0.42672 0.5277 0.0
Eu756 Eu 0.8052 0.85393 0.1782 0.0
C757 C 0.66368 0.69794 0.10644 0.0
N758 N 0.67171 0.73161 0.12495 0.0
C759 C 0.63678 0.72719 0.06722 0.0
C760 C 0.64123 0.67751 0.06784 0.0
C761 C 0.65877 0.74642 0.10564 0.0
C762 C 0.62782 0.69257 0.04838 0.0
C763 C 0.67206 0.65008 0.10559 0.0
C764 C 0.67933 0.68435 0.12484 0.0
C765 C 0.64887 0.62946 0.06796 0.0
C766 C 0.63361 0.64316 0.04912 0.0
Eu767 Eu 0.70683 0.75802 0.19183 0.0
N768 N 0.7025 0.70505 0.16072 0.0
C769 C 0.68853 0.63759 0.12462 0.0
C770 C 0.71809 0.69284 0.17993 0.0
C771 C 0.7116 0.65904 0.16197 0.0
H772 H 0.6648 0.77291 0.11914 0.0
H773 H 0.72404 0.64936 0.1772 0.0
H774 H 0.86704 0.83613 0.18888 0.0
H775 H 0.81781 0.97976 0.24749 0.0
H776 H 0.73477 0.70877 0.20969 0.0
H777 H 0.68353 0.61137 0.1108 0.0
H778 H 0.79584 0.92263 0.19441 0.0
H779 H 0.62664 0.73908 0.05218 0.0
H780 H 0.64296 0.60307 0.0528 0.0
H781 H 0.61635 0.62718 1.01957 0.0
H782 H 0.91554 0.85614 0.2421 0.0
H783 H 0.61097 0.67793 1.01844 0.0
H784 H 0.86391 0.00144 0.30577 0.0
N785 N 0.85512 0.87223 0.22308 0.0
C786 C 0.86749 0.90285 0.25439 0.0
C787 C 0.90187 0.86908 0.24624 0.0
C788 C 0.89665 0.9165 0.28415 0.0
C789 C 0.87357 0.8571 0.21682 0.0
C790 C 0.91301 0.89843 0.28051 0.0
N791 N 0.82562 0.90982 0.22532 0.0
C792 C 0.81438 0.93081 0.22099 0.0
C793 C 0.86723 0.95567 0.28523 0.0
C794 C 0.85288 0.92242 0.25506 0.0
C795 C 0.85359 0.97583 0.28316 0.0
C796 C 0.82747 0.96363 0.25044 0.0
H797 H 0.93535 0.90801 0.30282 0.0
H798 H 0.93161 0.95897 0.33886 0.0
H799 H 0.90616 0.99343 0.33954 0.0
O800 O 0.80992 0.88652 0.13379 0.0
O801 O 0.78271 0.8608 0.24364 0.0
O802 O 0.72814 0.80642 0.25088 0.0
O803 O 0.85033 0.87721 0.14181 0.0
O804 O 0.74839 0.81906 0.17335 0.0
O805 O 0.69583 0.79909 0.18632 0.0
O806 O 0.69211 0.73059 0.24412 0.0
O807 O 0.73867 0.75745 0.1346 0.0
O808 O 0.76913 0.81282 0.11521 0.0
O809 O 0.65098 0.72221 0.20257 0.0
O810 O 0.76111 0.78022 0.22496 0.0
O811 O 0.80441 0.80449 0.17942 0.0
C812 C 0.75544 0.84118 0.26599 0.0
C813 C 0.84129 0.88417 0.07362 0.0
C814 C 0.826 0.88388 1.00123 0.0
C815 C 0.85193 0.87832 0.98698 0.0
C816 C 0.86676 0.87841 0.05805 0.0
C817 C 0.87179 0.87528 1.01509 0.0
C818 C 0.82073 0.88657 0.0449 0.0
C819 C 0.72451 0.82517 0.17501 0.0
C820 C 0.8386 0.89025 0.12013 0.0
C821 C 0.90959 0.94853 0.31551 0.0
C822 C 0.89508 0.96816 0.31592 0.0
C823 C 0.74795 0.77643 0.10466 0.0
C824 C 0.63797 0.67292 0.23229 0.0
C825 C 0.62282 0.62727 0.27222 0.0
C826 C 0.60389 0.59948 0.2356 0.0
C827 C 0.61822 0.6451 0.19573 0.0
C828 C 0.64011 0.66368 0.26995 0.0
C829 C 0.60157 0.60851 0.19739 0.0
C830 C 0.7887 0.78368 0.207 0.0
C831 C 0.65815 0.71204 0.23318 0.0
H832 H 0.85778 0.87729 0.95422 0.0
H833 H 0.88337 0.87691 0.0792 0.0
H834 H 0.89176 0.87125 1.00366 0.0
H835 H 0.80094 0.89078 0.05667 0.0
H836 H 0.59041 0.57116 0.23681 0.0
H837 H 0.61583 0.6515 0.16611 0.0
H838 H 0.65542 0.68526 0.29816 0.0
H839 H 0.58663 0.58713 0.16912 0.0
Eu840 Eu 0.70074 0.20383 0.91983 0.0
C841 C 0.68799 0.31424 0.85663 0.0
N842 N 0.66278 0.27749 0.84707 0.0
C843 C 0.61823 0.28563 0.87157 0.0
C844 C 0.67909 0.33817 0.87546 0.0
C845 C 0.628 0.26296 0.85225 0.0
C846 C 0.64376 0.32337 0.88326 0.0
C847 C 0.74946 0.3657 0.85879 0.0
C848 C 0.72296 0.32772 0.84877 0.0
C849 C 0.74068 0.38959 0.87788 0.0
C850 C 0.70564 0.37588 0.88623 0.0
Eu851 Eu 0.68227 0.24161 0.81709 0.0
N852 N 0.73089 0.30396 0.83047 0.0
C853 C 0.78393 0.37866 0.84865 0.0
C854 C 0.76389 0.31669 0.81794 0.0
C855 C 0.79102 0.35408 0.82761 0.0
H856 H 0.60832 0.23375 0.84317 0.0
H857 H 0.81728 0.36397 0.81827 0.0
H858 H 0.7889 0.25004 0.94325 0.0
H859 H 0.59857 0.05794 0.89661 0.0
H860 H 0.76947 0.29839 0.79963 0.0
H861 H 0.805 0.40763 0.85585 0.0
H862 H 0.62269 0.12342 0.91151 0.0
H863 H 0.5911 0.27382 0.87779 0.0
H864 H 0.76078 0.41881 0.88599 0.0
H865 H 0.69932 0.39469 0.90086 0.0
H866 H 0.83426 0.23735 0.93906 0.0
H867 H 0.63591 0.34081 0.89815 0.0
H868 H 0.63957 0.03962 0.88528 0.0
N869 N 0.74586 0.19456 0.91993 0.0
C870 C 0.73507 0.15937 0.90873 0.0
C871 C 0.80647 0.21519 0.93019 0.0
C872 C 0.75983 0.15073 0.90748 0.0
C873 C 0.7808 0.22233 0.93206 0.0
C874 C 0.79597 0.17924 0.91749 0.0
N875 N 0.67583 0.14103 0.90492 0.0
C876 C 0.64036 0.1153 0.90526 0.0
C877 C 0.68663 0.0949 0.89361 0.0
C878 C 0.69897 0.13175 0.90147 0.0
C879 C 0.65001 0.06811 0.89075 0.0
C880 C 0.62679 0.07838 0.89723 0.0
H881 H 0.81584 0.17372 0.91669 0.0
H882 H 0.7663 0.10698 0.89747 0.0
H883 H 0.70227 0.05794 0.88469 0.0
O884 O 0.66552 0.19579 0.97068 0.0
O885 O 0.67707 0.16435 0.85586 0.0
O886 O 0.6922 0.19735 0.80197 0.0
O887 O 0.71915 0.21537 0.98709 0.0
O888 O 0.65134 0.19905 0.90225 0.0
O889 O 0.63321 0.19018 0.83299 0.0
O890 O 0.68839 0.26501 0.75998 0.0
O891 O 0.67822 0.25958 0.88667 0.0
O892 O 0.7228 0.26147 0.91693 0.0
O893 O 0.64345 0.21118 0.76107 0.0
O894 O 0.73166 0.24198 0.8203 0.0
O895 O 0.74877 0.24806 0.89124 0.0
C896 C 0.68376 0.16872 0.81689 0.0
C897 C 0.67478 0.17359 1.02627 0.0
C898 C 0.63988 0.14125 0.08257 0.0
C899 C 0.65325 0.12 0.07343 0.0
C900 C 0.68617 0.15074 1.01828 0.0
C901 C 0.67555 0.12442 0.04156 0.0
C902 C 0.65116 0.16846 0.05832 0.0
C903 C 0.6283 0.17844 0.86856 0.0
C904 C 0.68791 0.20219 1.0006 0.0
C905 C 0.74769 0.11401 0.89788 0.0
C906 C 0.7112 0.08612 0.89086 0.0
C907 C 0.70106 0.27107 0.91964 0.0
C908 C 0.63472 0.23851 0.7104 0.0
C909 C 0.62144 0.26452 0.65869 0.0
C910 C 0.5872 0.23173 0.6493 0.0
C911 C 0.59964 0.20694 0.69953 0.0
C912 C 0.64577 0.26783 0.68944 0.0
C913 C 0.57651 0.20363 0.66948 0.0
C914 C 0.75438 0.24751 0.85038 0.0
C915 C 0.65865 0.23642 0.73931 0.0
H916 H 0.64737 0.10017 0.0915 0.0
H917 H 0.70381 0.15346 0.99415 0.0
H918 H 0.68517 0.10751 0.03523 0.0
H919 H 0.64172 0.18552 0.06398 0.0
H920 H 0.56809 0.22809 0.62647 0.0
H921 H 0.58991 0.18375 0.71351 0.0
H922 H 0.67246 0.29262 0.69707 0.0
H923 H 0.54992 0.17878 0.66166 0.0
Eu924 Eu 0.97721 0.74491 0.39507 0.0
C925 C 0.81744 0.56129 0.37775 0.0
N926 N 0.82555 0.59536 0.38594 0.0
C927 C 0.76548 0.57135 0.36338 0.0
C928 C 0.78302 0.53064 0.36068 0.0
C929 C 0.80023 0.60088 0.37925 0.0
C930 C 0.75683 0.5361 0.35427 0.0
C931 C 0.83416 0.52168 0.38667 0.0
C932 C 0.84241 0.5569 0.39121 0.0
C933 C 0.80125 0.4912 0.3654 0.0
C934 C 0.77548 0.49563 0.35295 0.0
Eu935 Eu 0.88322 0.64386 0.41779 0.0
N936 N 0.87297 0.58675 0.41362 0.0
C937 C 0.85813 0.51807 0.4064 0.0
C938 C 0.89389 0.58288 0.43723 0.0
C939 C 0.88766 0.54875 0.43288 0.0
H940 H 0.80635 0.62795 0.38753 0.0
H941 H 0.90503 0.546 0.45081 0.0
H942 H 0.03663 0.73089 0.43747 0.0
H943 H 0.95821 0.85113 0.45528 0.0
H944 H 0.91459 0.60595 0.46042 0.0
H945 H 0.85281 0.49151 0.40381 0.0
H946 H 0.94171 0.79136 0.41335 0.0
H947 H 0.74524 0.57567 0.35897 0.0
H948 H 0.79472 0.46398 0.3607 0.0
H949 H 0.74945 0.47175 0.33893 0.0
H950 H 0.09002 0.7667 0.48703 0.0
H951 H 0.72958 0.51338 0.34385 0.0
H952 H 0.01475 0.89199 0.50243 0.0
N953 N 0.02742 0.77242 0.44603 0.0
C954 C 0.03883 0.80645 0.46852 0.0
C955 C 0.07597 0.77827 0.48189 0.0
C956 C 0.07037 0.82821 0.4968 0.0
C957 C 0.04515 0.75789 0.45336 0.0
C958 C 0.08895 0.81373 0.50313 0.0
N959 N 0.98737 0.79773 0.4387 0.0
C960 C 0.96583 0.80857 0.435 0.0
C961 C 0.02929 0.85415 0.48813 0.0
C962 C 0.01837 0.81938 0.46461 0.0
C963 C 0.00729 0.86552 0.48474 0.0
C964 C 0.97529 0.8425 0.45828 0.0
H965 H 0.11293 0.82946 0.52502 0.0
H966 H 0.10664 0.88074 0.53972 0.0
H967 H 0.07074 0.90344 0.53204 0.0
O968 O 0.9726 0.77231 0.35064 0.0
O969 O 0.95939 0.74208 0.46294 0.0
O970 O 0.93317 0.68185 0.46705 0.0
O971 O 0.02367 0.78302 0.3667 0.0
O972 O 0.92092 0.72495 0.40563 0.0
O973 O 0.86943 0.67159 0.3801 0.0
O974 O 0.88213 0.64301 0.48414 0.0
O975 O 0.89884 0.63894 0.34794 0.0
O976 O 0.94831 0.69582 0.33499 0.0
O977 O 0.85361 0.66102 0.45753 0.0
O978 O 0.93896 0.68018 0.40759 0.0
O979 O 0.99079 0.70417 0.38628 0.0
C980 C 0.95189 0.71751 0.48497 0.0
C981 C 0.01476 0.79395 0.30102 0.0
C982 C 0.0136 0.81827 0.24129 0.0
C983 C 0.03273 0.8058 0.21958 0.0
C984 C 0.03361 0.78142 0.27898 0.0
C985 C 0.04265 0.78751 0.23839 0.0
C986 C 0.00498 0.81238 0.28215 0.0
C987 C 0.8936 0.70489 0.37663 0.0
C988 C 0.00609 0.78989 0.34442 0.0
C989 C 0.08217 0.86354 0.5185 0.0
C990 C 0.06169 0.87646 0.51422 0.0
C991 C 0.92214 0.65989 0.32249 0.0
C992 C 0.831 0.62943 0.51537 0.0
C993 C 0.81287 0.59745 0.57398 0.0
C994 C 0.77724 0.58225 0.56074 0.0
C995 C 0.7953 0.61357 0.50262 0.0
C996 C 0.83953 0.62167 0.55143 0.0
C997 C 0.76868 0.59057 0.52568 0.0
C998 C 0.96444 0.67645 0.39872 0.0
C999 C 0.86008 0.65216 0.49068 0.0
H1000 H 0.03907 0.80916 0.18755 0.0
H1001 H 0.04142 0.76712 0.29305 0.0
H1002 H 0.05705 0.77772 0.22129 0.0
H1003 H 0.99052 0.82211 0.29936 0.0
H1004 H 0.7558 0.56326 0.57681 0.0
H1005 H 0.78793 0.61875 0.47489 0.0
H1006 H 0.86718 0.6343 0.56157 0.0
H1007 H 0.74116 0.57867 0.51593 0.0
Eu1008 Eu 0.5714 0.61682 0.72899 0.0
C1009 C 0.73087 0.7007 0.7913 0.0
N1010 N 0.72209 0.7143 0.76427 0.0
C1011 C 0.7643 0.77528 0.80395 0.0
C1012 C 0.75643 0.7243 0.82671 0.0
C1013 C 0.73868 0.75088 0.76935 0.0
C1014 C 0.77311 0.76194 0.83284 0.0
C1015 C 0.7207 0.6483 0.81337 0.0
C1016 C 0.7127 0.66287 0.78485 0.0
C1017 C 0.74641 0.67184 0.84847 0.0
C1018 C 0.76409 0.70966 0.85521 0.0
Eu1019 Eu 0.67775 0.67095 0.70863 0.0
N1020 N 0.68676 0.64041 0.75155 0.0
C1021 C 0.70228 0.61039 0.8061 0.0
C1022 C 0.66948 0.60354 0.74366 0.0
C1023 C 0.67679 0.58798 0.77096 0.0
H1024 H 0.7317 0.76106 0.74697 0.0
H1025 H 0.66282 0.55868 0.76479 0.0
H1026 H 0.57437 0.55442 0.76314 0.0
H1027 H 0.46608 0.60092 0.6331 0.0
H1028 H 0.65043 0.58596 0.71616 0.0
H1029 H 0.70768 0.59817 0.8273 0.0
H1030 H 0.52346 0.63479 0.6779 0.0
H1031 H 0.77712 0.80431 0.80843 0.0
H1032 H 0.75263 0.66103 0.87084 0.0
H1033 H 0.78354 0.72736 0.88271 0.0
H1034 H 0.53692 0.48717 0.75504 0.0
H1035 H 0.79277 0.78092 0.85981 0.0
H1036 H 0.42674 0.53348 0.61823 0.0
N1037 N 0.53893 0.55299 0.72117 0.0
C1038 C 0.50688 0.53238 0.697 0.0
C1039 C 0.52833 0.49958 0.73838 0.0
C1040 C 0.48465 0.49419 0.69179 0.0
C1041 C 0.54945 0.53746 0.7429 0.0
C1042 C 0.49593 0.47784 0.71253 0.0
N1043 N 0.51717 0.58692 0.68623 0.0
C1044 C 0.50682 0.6053 0.67037 0.0
C1045 C 0.46263 0.52951 0.65426 0.0
C1046 C 0.4959 0.5499 0.67879 0.0
C1047 C 0.45211 0.54816 0.63722 0.0
C1048 C 0.47426 0.58624 0.64546 0.0
H1049 H 0.47953 0.44855 0.70941 0.0
H1050 H 0.43413 0.44434 0.66263 0.0
H1051 H 0.41503 0.47522 0.6295 0.0
O1052 O 0.53206 0.62489 0.7566 0.0
O1053 O 0.58338 0.6416 0.6694 0.0
O1054 O 0.6418 0.66436 0.65202 0.0
O1055 O 0.5638 0.61848 0.79638 0.0
O1056 O 0.60233 0.67809 0.72948 0.0
O1057 O 0.66382 0.71001 0.72012 0.0
O1058 O 0.7077 0.65174 0.67595 0.0
O1059 O 0.66699 0.68865 0.77538 0.0
O1060 O 0.61751 0.63214 0.77723 0.0
O1061 O 0.72093 0.70486 0.67253 0.0
O1062 O 0.62623 0.62036 0.6977 0.0
O1063 O 0.57417 0.57494 0.679 0.0
C1064 C 0.60855 0.65429 0.6429 0.0
C1065 C 0.50612 0.59759 0.81441 0.0
C1066 C 0.46989 0.58984 0.87342 0.0
C1067 C 0.44692 0.5523 0.85494 0.0
C1068 C 0.48294 0.56013 0.79667 0.0
C1069 C 0.45347 0.53768 0.81667 0.0
C1070 C 0.49941 0.61237 0.85263 0.0
C1071 C 0.63464 0.70795 0.72845 0.0
C1072 C 0.53766 0.6216 0.79406 0.0
C1073 C 0.45163 0.47374 0.667 0.0
C1074 C 0.44071 0.49133 0.64818 0.0
C1075 C 0.64371 0.66587 0.79763 0.0
C1076 C 0.74208 0.67779 0.62098 0.0
C1077 C 0.73793 0.67007 0.54389 0.0
C1078 C 0.76839 0.67024 0.543 0.0
C1079 C 0.77233 0.67764 0.61948 0.0
C1080 C 0.72501 0.67407 0.58326 0.0
C1081 C 0.78548 0.67404 0.5807 0.0
C1082 C 0.6065 0.58938 0.67122 0.0
C1083 C 0.72901 0.6815 0.66238 0.0
H1084 H 0.42425 0.53414 0.87032 0.0
H1085 H 0.48751 0.54811 0.76758 0.0
H1086 H 0.43587 0.50883 0.80253 0.0
H1087 H 0.51713 0.64147 0.86595 0.0
H1088 H 0.7793 0.66805 0.51333 0.0
H1089 H 0.78587 0.68044 0.64841 0.0
H1090 H 0.70145 0.67381 0.5846 0.0
H1091 H 0.80903 0.67428 0.5799 0.0
Eu1092 Eu 0.22254 0.47263 0.13334 0.0
C1093 C 0.09002 0.29899 0.13049 0.0
N1094 N 0.11749 0.31915 0.10844 0.0
C1095 C 0.13368 0.27758 0.10405 0.0
C1096 C 0.08384 0.2678 0.14139 0.0
C1097 C 0.13861 0.30823 0.09392 0.0
C1098 C 0.10651 0.25756 0.12845 0.0
C1099 C 0.03711 0.28773 0.16142 0.0
C1100 C 0.06721 0.30889 0.14065 0.0
C1101 C 0.03139 0.25734 0.17375 0.0
C1102 C 0.05479 0.24743 0.16384 0.0
Eu1103 Eu 0.12535 0.37208 0.09483 0.0
N1104 N 0.07369 0.33843 0.12848 0.0
C1105 C 0.0133 0.29735 0.16824 0.0
C1106 C 0.05016 0.34738 0.13379 0.0
C1107 C 0.01975 0.32719 0.1541 0.0
H1108 H 0.15955 0.3233 0.07477 0.0
H1109 H 0.00137 0.33466 0.15886 0.0
H1110 H 0.23331 0.53983 0.09497 0.0
H1111 H 0.29031 0.40471 0.10428 0.0
H1112 H 0.05519 0.37041 0.12267 0.0
H1113 H 0.98977 0.28176 0.18398 0.0
H1114 H 0.24702 0.41448 0.13539 0.0
H1115 H 0.1509 0.26945 0.09306 0.0
H1116 H 0.00863 0.24094 0.19019 0.0
H1117 H 0.04971 0.22351 0.17275 0.0
H1118 H 0.2736 0.58157 0.04979 0.0
H1119 H 0.10277 0.23385 0.13627 0.0
H1120 H 0.3319 0.44405 0.05824 0.0
N1121 N 0.25711 0.51136 0.0888 0.0
C1122 C 0.28286 0.50805 0.07282 0.0
C1123 C 0.27639 0.56097 0.0559 0.0
C1124 C 0.30642 0.53133 0.04702 0.0
C1125 C 0.25354 0.53726 0.08116 0.0
C1126 C 0.30298 0.55804 0.0388 0.0
N1127 N 0.2618 0.45797 0.10578 0.0
C1128 C 0.26393 0.43142 0.11464 0.0
C1129 C 0.31093 0.47615 0.06324 0.0
C1130 C 0.28506 0.48056 0.08107 0.0
C1131 C 0.31247 0.44833 0.07145 0.0
C1132 C 0.28895 0.42598 0.09731 0.0
H1133 H 0.32063 0.57644 1.0192 0.0
H1134 H 0.35063 0.54469 1.00997 0.0
H1135 H 0.35449 0.49643 1.02397 0.0
O1136 O 0.27365 0.5078 0.17182 0.0
O1137 O 0.207 0.44344 0.06183 0.0
O1138 O 0.17333 0.38195 0.0603 0.0
O1139 O 0.23944 0.52605 0.17274 0.0
O1140 O 0.21087 0.4338 0.17351 0.0
O1141 O 0.17685 0.38525 0.12009 0.0
O1142 O 0.12161 0.38047 1.0322 0.0
O1143 O 0.12411 0.40561 0.15763 0.0
O1144 O 0.18221 0.45676 0.18306 0.0
O1145 O 0.08054 0.32901 0.04725 0.0
O1146 O 0.1259 0.42273 0.10735 0.0
O1147 O 0.18076 0.4728 0.09721 0.0
C1148 C 0.19438 0.40944 0.042 0.0
C1149 C 0.27934 0.5477 0.23556 0.0
C1150 C 0.28922 0.54388 0.30833 0.0
C1151 C 0.30245 0.58091 0.32228 0.0
C1152 C 0.29524 0.58511 0.25045 0.0
C1153 C 0.30569 0.60126 0.29361 0.0
C1154 C 0.27654 0.52692 0.26467 0.0
C1155 C 0.1885 0.39887 0.16038 0.0
C1156 C 0.26877 0.5326 0.18907 0.0
C1157 C 0.3323 0.52702 1.0298 0.0
C1158 C 0.33447 0.49949 0.03777 0.0
C1159 C 0.14827 0.43337 0.18831 0.0
C1160 C 0.06432 0.34947 0.99594 0.0
C1161 C 0.05262 0.37935 0.95113 0.0
C1162 C 0.01838 0.34672 0.93806 0.0
C1163 C 0.03003 0.31745 0.98291 0.0
C1164 C 0.07469 0.38052 0.98128 0.0
C1165 C 0.007 0.31637 0.95466 0.0
C1166 C 0.14551 0.45165 0.0912 0.0
C1167 C 0.091 0.34926 1.01947 0.0
H1168 H 0.31126 0.59454 0.35557 0.0
H1169 H 0.29843 0.60167 0.22871 0.0
H1170 H 0.31653 0.6298 0.30492 0.0
H1171 H 0.26601 0.49841 0.2532 0.0
H1172 H 0.00066 0.34402 0.91405 0.0
H1173 H 0.02147 0.29298 0.99345 0.0
H1174 H 0.10088 0.40526 0.99192 0.0
H1175 H 0.98076 0.29142 0.94416 0.0
Eu1176 Eu 0.52803 0.34701 0.3655 0.0
C1177 C 0.69948 0.42902 0.39823 0.0
N1178 N 0.67848 0.44006 0.39266 0.0
C1179 C 0.71537 0.49423 0.4473 0.0
C1180 C 0.72845 0.44961 0.43034 0.0
C1181 C 0.68692 0.47287 0.41527 0.0
C1182 C 0.73582 0.48222 0.4555 0.0
C1183 C 0.71703 0.38848 0.37262 0.0
C1184 C 0.69372 0.39862 0.36964 0.0
C1185 C 0.7444 0.4075 0.40627 0.0
C1186 C 0.7501 0.43799 0.43505 0.0
Eu1187 Eu 0.62923 0.40005 0.34043 0.0
N1188 N 0.6672 0.38079 0.33709 0.0
C1189 C 0.71312 0.3605 0.34066 0.0
C1190 C 0.6652 0.35558 0.30409 0.0
C1191 C 0.68759 0.34453 0.30581 0.0
H1192 H 0.67268 0.48328 0.40753 0.0
H1193 H 0.6852 0.32378 0.2802 0.0
H1194 H 0.46831 0.26014 0.3175 0.0
H1195 H 0.55059 0.47114 0.33103 0.0
H1196 H 0.64566 0.34328 0.27684 0.0
H1197 H 0.73055 0.35199 0.34178 0.0
H1198 H 0.55288 0.43566 0.37559 0.0
H1199 H 0.72177 0.52016 0.46515 0.0
H1200 H 0.76225 0.39977 0.40931 0.0
H1201 H 0.77225 0.45329 0.45976 0.0
H1202 H 0.42501 0.22452 0.25296 0.0
H1203 H 0.75809 0.49903 0.4801 0.0
H1204 H 0.51572 0.44051 0.26044 0.0
N1205 N 0.486 0.3114 0.30541 0.0
C1206 C 0.48247 0.3297 0.28018 0.0
C1207 C 0.44098 0.25403 0.26023 0.0
C1208 C 0.45841 0.31046 0.24286 0.0
C1209 C 0.46525 0.27416 0.29676 0.0
C1210 C 0.43772 0.27225 0.23299 0.0
N1211 N 0.52582 0.38576 0.32835 0.0
C1212 C 0.54064 0.42204 0.34366 0.0
C1213 C 0.49943 0.38699 0.26567 0.0
C1214 C 0.5033 0.36775 0.29146 0.0
C1215 C 0.51807 0.42481 0.27926 0.0
C1216 C 0.53804 0.44224 0.3189 0.0
H1217 H 0.41903 0.25657 0.20454 0.0
H1218 H 0.4374 0.31546 0.1878 0.0
H1219 H 0.47313 0.38237 0.20776 0.0
O1220 O 0.48415 0.34702 0.39329 0.0
O1221 O 0.53765 0.32469 0.30142 0.0
O1222 O 0.58318 0.37858 0.28864 0.0
O1223 O 0.48803 0.3019 0.39384 0.0
O1224 O 0.56494 0.40029 0.41189 0.0
O1225 O 0.6119 0.43506 0.37546 0.0
O1226 O 0.63448 0.40383 0.27423 0.0
O1227 O 0.6232 0.38307 0.40563 0.0
O1228 O 0.56432 0.3561 0.42149 0.0
O1229 O 0.67617 0.44768 0.32237 0.0
O1230 O 0.60279 0.33956 0.32724 0.0
O1231 O 0.5502 0.31442 0.36031 0.0
C1232 C 0.55687 0.34386 0.27414 0.0
C1233 C 0.43758 0.29809 0.42368 0.0
C1234 C 0.40919 0.28028 0.48728 0.0
C1235 C 0.37745 0.27147 0.46827 0.0
C1236 C 0.40578 0.28908 0.4046 0.0
C1237 C 0.37564 0.27528 0.42668 0.0
C1238 C 0.43893 0.2928 0.46447 0.0
C1239 C 0.59565 0.4307 0.41033 0.0
C1240 C 0.47018 0.3157 0.40284 0.0
C1241 C 0.45565 0.32979 0.21665 0.0
C1242 C 0.47611 0.36791 0.22797 0.0
C1243 C 0.59775 0.36786 0.43117 0.0
C1244 C 0.69282 0.43613 0.25366 0.0
C1245 C 0.70901 0.40777 0.19411 0.0
C1246 C 0.74169 0.44172 0.19613 0.0
C1247 C 0.72479 0.46998 0.25357 0.0
C1248 C 0.68523 0.40504 0.22391 0.0
C1249 C 0.7495 0.47257 0.22585 0.0
C1250 C 0.57697 0.31446 0.34468 0.0
C1251 C 0.66623 0.43419 0.2818 0.0
H1252 H 0.35444 0.26227 0.48577 0.0
H1253 H 0.40442 0.29309 0.37297 0.0
H1254 H 0.35117 0.26852 0.41199 0.0
H1255 H 0.46387 0.30074 0.47957 0.0
H1256 H 0.76043 0.44492 0.17332 0.0
H1257 H 0.73032 0.49464 0.27398 0.0
H1258 H 0.66017 0.37889 0.2227 0.0
H1259 H 0.77417 0.49885 0.22625 0.0
Eu1260 Eu 0.06459 0.59734 1.00941 0.0
C1261 C 0.89491 0.50884 1.00812 0.0
N1262 N 0.91268 0.49581 0.98744 0.0
C1263 C 0.87656 0.44069 1.01235 0.0
C1264 C 0.86754 0.48828 1.0327 0.0
C1265 C 0.9036 0.46205 0.98854 0.0
C1266 C 0.85857 0.45391 0.03467 0.0
C1267 C 0.8875 0.55785 1.02821 0.0
C1268 C 0.90484 0.54335 1.00584 0.0
C1269 C 0.86049 0.53752 0.05297 0.0
C1270 C 0.85047 0.50281 0.05509 0.0
Eu1271 Eu 0.95634 0.53298 0.94647 0.0
N1272 N 0.93124 0.56265 0.98179 0.0
C1273 C 0.89755 0.59227 1.02475 0.0
C1274 C 0.93978 0.59542 0.97663 0.0
C1275 C 0.92352 0.61093 0.9985 0.0
H1276 H 0.91695 0.45132 0.9709 0.0
H1277 H 0.93067 0.63707 0.99459 0.0
H1278 H 0.07303 0.65889 0.09158 0.0
H1279 H 0.16604 0.60994 0.90505 0.0
H1280 H 0.95839 0.60951 0.95486 0.0
H1281 H 0.88489 0.60432 0.04148 0.0
H1282 H 0.11161 0.57737 0.94017 0.0
H1283 H 0.86955 0.414 1.01341 0.0
H1284 H 0.84704 0.54835 0.07046 0.0
H1285 H 0.82956 0.48748 0.07433 0.0
H1286 H 0.11385 0.725 0.1217 0.0
H1287 H 0.83786 0.43745 0.05338 0.0
H1288 H 0.2048 0.6774 0.92222 0.0
N1289 N 0.10285 0.65989 0.03981 0.0
C1290 C 0.13268 0.67993 1.02098 0.0
C1291 C 0.11924 0.71286 0.09301 0.0
C1292 C 0.15651 0.7179 0.03669 0.0
C1293 C 0.09618 0.67541 0.07595 0.0
C1294 C 0.14928 0.73425 0.07291 0.0
N1295 N 0.11753 0.62535 0.97459 0.0
C1296 C 0.12767 0.60659 0.9472 0.0
C1297 C 0.17187 0.68219 0.96823 0.0
C1298 C 0.14005 0.66225 0.98704 0.0
C1299 C 0.1806 0.66311 0.93734 0.0
C1300 C 0.15882 0.62507 0.92758 0.0
H1301 H 0.16729 0.76314 0.08606 0.0
H1302 H 0.20542 0.76745 1.02769 0.0
H1303 H 0.21899 0.73611 0.96771 0.0
O1304 O 0.06321 0.55399 1.02929 0.0
O1305 O 0.06175 0.58701 0.93605 0.0
O1306 O 0.00308 0.55556 0.90254 0.0
O1307 O 0.09468 0.60772 0.06837 0.0
O1308 O 0.01623 0.54593 0.97546 0.0
O1309 O 0.97167 0.49343 0.94277 0.0
O1310 O 0.91942 0.53158 0.90373 0.0
O1311 O 0.96847 0.54233 1.02015 0.0
O1312 O 0.02243 0.59802 0.04895 0.0
O1313 O 0.92211 0.48551 0.8946 0.0
O1314 O -0.00272 0.59118 0.94301 0.0
O1315 O 0.03369 0.62096 1.0062 0.0
C1316 C 0.03844 0.57326 0.90174 0.0
C1317 C 0.11595 0.57163 0.06656 0.0
C1318 C 0.14473 0.55197 0.10402 0.0
C1319 C 0.17251 0.5661 0.07801 0.0
C1320 C 0.14387 0.58548 0.0409 0.0
C1321 C 0.1719 0.58259 0.04647 0.0
C1322 C 0.1169 0.5556 0.09839 0.0
C1323 C 0.00343 0.51161 0.96152 0.0
C1324 C 0.08639 0.57494 0.06204 0.0
C1325 C 0.18708 0.73815 1.01644 0.0
C1326 C 0.19473 0.72031 0.9822 0.0
C1327 C 0.98791 0.57306 0.05032 0.0
C1328 C 0.91019 0.49924 0.83223 0.0
C1329 C 0.8961 0.51273 0.76863 0.0
C1330 C 0.90857 0.49396 0.74378 0.0
C1331 C 0.92281 0.48117 0.80634 0.0
C1332 C 0.89707 0.51516 0.81312 0.0
C1333 C 0.92198 0.47863 0.76256 0.0
C1334 C 0.02289 0.62125 0.96922 0.0
C1335 C 0.90975 0.50074 0.87877 0.0
H1336 H 0.19459 0.56435 0.08198 0.0
H1337 H 0.14452 0.59925 1.01738 0.0
H1338 H 0.19339 0.59349 1.02655 0.0
H1339 H 0.09667 0.54754 0.12013 0.0
H1340 H 0.90749 0.49043 0.70955 0.0
H1341 H 0.93313 0.4687 0.81978 0.0
H1342 H 0.8878 0.52952 0.8331 0.0
H1343 H 0.93147 0.46434 0.74292 0.0
H1344 H 0.28272 0.26533 1.03102 0.0
H1345 H 0.25255 0.15509 1.01114 0.0
H1346 H 0.22728 0.14146 0.93782 0.0
H1347 H 0.20843 0.24415 0.98906 0.0
H1348 H 0.22497 0.28152 0.96359 0.0
H1349 H 0.25102 0.28688 1.00813 0.0
H1350 H 0.30395 0.30474 0.96365 0.0
H1351 H 0.27839 0.29991 0.91837 0.0
H1352 H 0.2978 0.27499 0.91366 0.0
H1353 H 0.19176 0.13503 0.87669 0.0
H1354 H 0.15166 0.13747 0.83081 0.0
H1355 H 0.20635 0.25251 0.88713 0.0
C1356 C 0.27322 0.2393 1.00992 0.0
C1357 C 0.27051 0.21158 1.02584 0.0
C1358 C 0.25587 0.17693 0.99874 0.0
C1359 C 0.24115 0.16891 0.95724 0.0
C1360 C 0.24212 0.19617 0.94313 0.0
C1361 C 0.25866 0.23106 0.96825 0.0
C1362 C 0.25079 0.25343 0.94866 0.0
C1363 C 0.23272 0.26725 0.97916 0.0
C1364 C 0.28475 0.28514 0.93528 0.0
C1365 C 0.22549 0.22506 0.91015 0.0
C1366 C 0.22141 0.19241 0.90704 0.0
C1367 C 0.19559 0.16073 0.87792 0.0
C1368 C 0.17284 0.16227 0.85217 0.0
C1369 C 0.17623 0.19524 0.85557 0.0
C1370 C 0.20364 0.22721 0.88375 0.0
H1371 H 0.10345 0.77889 0.15245 0.0
H1372 H 0.21779 0.83807 0.15777 0.0
H1373 H 0.21653 0.85457 0.08968 0.0
H1374 H 0.08723 0.74443 0.03402 0.0
H1375 H 0.05024 0.74722 1.02939 0.0
H1376 H 0.06003 0.73832 0.07713 0.0
H1377 H 0.06444 0.7944 0.1223 0.0
H1378 H 0.05447 0.80269 0.07434 0.0
H1379 H 0.09421 0.83834 0.10948 0.0
H1380 H 0.20301 0.86823 1.0223 0.0
H1381 H 0.17884 0.87523 0.96111 0.0
H1382 H 0.07232 0.80567 0.99637 0.0
C1383 C 0.12807 0.79424 0.13847 0.0
C1384 C 0.16069 0.80576 0.15993 0.0
C1385 C 0.1924 0.82754 0.14141 0.0
C1386 C 0.19192 0.8374 0.10279 0.0
C1387 C 0.15942 0.82542 0.08237 0.0
C1388 C 0.12797 0.80385 0.09931 0.0
C1389 C 0.09671 0.79491 0.07103 0.0
C1390 C 0.072 0.75373 0.05176 0.0
C1391 C 0.07629 0.80847 0.09587 0.0
C1392 C 0.11546 0.816 0.03656 0.0
C1393 C 0.15166 0.83315 0.04361 0.0
C1394 C 0.17465 0.85464 1.01657 0.0
C1395 C 0.16054 0.85862 0.98162 0.0
C1396 C 0.12348 0.84128 0.97305 0.0
C1397 C 0.10078 0.81955 1.0014 0.0
H1398 H 0.47912 0.84716 0.29135 0.0
H1399 H 0.58184 0.89618 0.24589 0.0
H1400 H 0.60587 0.95124 0.3009 0.0
H1401 H 0.51658 0.95303 0.3793 0.0
H1402 H 0.48916 0.92581 0.41571 0.0
H1403 H 0.47151 0.91449 0.36104 0.0
H1404 H 0.45282 0.84954 0.35331 0.0
H1405 H 0.46966 0.86062 0.40753 0.0
H1406 H 0.48495 0.84137 0.36601 0.0
H1407 H 0.62757 0.96937 0.3726 0.0
H1408 H 0.63619 0.94035 0.42206 0.0
H1409 H 0.52435 0.87621 0.43486 0.0
C1410 C 0.50595 0.8711 0.29221 0.0
C1411 C 0.52865 0.86799 0.26508 0.0
C1412 C 0.56382 0.89834 0.26617 0.0
C1413 C 0.57765 0.92998 0.29782 0.0
C1414 C 0.55714 0.9293 0.33085 0.0
C1415 C 0.52064 0.90149 0.32664 0.0
C1416 C 0.50744 0.89933 0.3701 0.0
C1417 C 0.49552 0.92471 0.38218 0.0
C1418 C 0.47702 0.86035 0.37443 0.0
C1419 C 0.5421 0.9157 0.39617 0.0
C1420 C 0.57066 0.93892 0.3755 0.0
C1421 C 0.60534 0.95131 0.38853 0.0
C1422 C 0.61015 0.93436 0.41623 0.0
C1423 C 0.58053 0.90621 0.43141 0.0
C1424 C 0.54698 0.89869 0.42389 0.0
H1425 H 0.44275 0.12816 0.74584 0.0
H1426 H 0.49185 0.2383 0.72958 0.0
H1427 H 0.50263 0.2205 0.65713 0.0
H1428 H 0.50366 0.11462 0.68546 0.0
H1429 H 0.47098 0.06726 0.6608 0.0
H1430 H 0.46524 0.08697 0.71186 0.0
H1431 H 0.40355 0.06658 0.68199 0.0
H1432 H 0.40906 0.04673 0.63083 0.0
H1433 H 0.39964 0.08014 0.63502 0.0
H1434 H 0.50827 0.19347 0.5866 0.0
H1435 H 0.51521 0.15963 0.52338 0.0
H1436 H 0.46188 0.06356 0.57665 0.0
C1437 C 0.45495 0.14835 0.72672 0.0
C1438 C 0.46595 0.18498 0.74445 0.0
C1439 C 0.48287 0.2103 0.71791 0.0
C1440 C 0.48895 0.20039 0.67616 0.0
C1441 C 0.47767 0.16461 0.65971 0.0
C1442 C 0.46133 0.1388 0.68397 0.0
C1443 C 0.45426 0.1028 0.65802 0.0
C1444 C 0.47475 0.09228 0.68037 0.0
C1445 C 0.41424 0.07223 0.65106 0.0
C1446 C 0.46893 0.11261 0.61557 0.0
C1447 C 0.48205 0.1486 0.61794 0.0
C1448 C 0.49803 0.16526 0.58448 0.0
C1449 C 0.50162 0.14541 0.54809 0.0
C1450 C 0.48873 0.10831 0.54346 0.0
C1451 C 0.47162 0.09154 0.5781 0.0
H1452 H 0.04809 0.8678 0.1921 0.0
H1453 H 0.94688 0.8022 0.24032 0.0
H1454 H 0.9186 0.81194 0.18737 0.0
H1455 H 0.01554 0.92111 0.13615 0.0
H1456 H 0.04165 0.92121 0.09368 0.0
H1457 H 0.05869 0.93129 0.14803 0.0
H1458 H 0.06874 0.88093 0.12855 0.0
H1459 H 0.05284 0.87163 0.07463 0.0
H1460 H 0.03193 0.83525 0.10291 0.0
H1461 H 0.89721 0.80233 0.11694 0.0
H1462 H 0.88736 0.76866 0.04354 0.0
H1463 H 1e-05 0.83749 1.0331 0.0
C1464 C 0.02036 0.85735 0.19256 0.0
C1465 C -0.00037 0.83396 0.21959 0.0
C1466 C 0.96345 0.82045 0.22004 0.0
C1467 C 0.94714 0.82621 0.1901 0.0
C1468 C 0.96729 0.84589 0.16016 0.0
C1469 C 0.00374 0.86267 0.16224 0.0
C1470 C 0.01756 0.87348 0.12082 0.0
C1471 C 0.03433 0.91421 0.12502 0.0
C1472 C 0.04428 0.86469 0.10584 0.0
C1473 C 0.98274 0.85048 0.09224 0.0
C1474 C 0.95416 0.83887 0.11635 0.0
C1475 C 0.91935 0.81167 0.09796 0.0
C1476 C 0.91394 0.79227 0.0562 0.0
C1477 C 0.94324 0.79985 0.03355 0.0
C1478 C 0.97734 0.8315 0.05005 0.0
H1479 H 0.98791 0.1549 0.91556 0.0
H1480 H 0.09349 0.23747 0.88879 0.0
H1481 H 0.11908 0.2334 0.95202 0.0
H1482 H 0.0066 0.18516 0.03362 0.0
H1483 H 0.97869 0.13931 0.04144 0.0
H1484 H 0.9684 0.15026 0.99602 0.0
H1485 H 0.9692 0.0992 0.94597 0.0
H1486 H 0.97958 0.08816 0.99122 0.0
H1487 H 0.00807 0.09923 0.94901 0.0
H1488 H 0.13373 0.21669 1.01586 0.0
H1489 H 0.13612 0.19314 0.07666 0.0
H1490 H 0.02087 0.12157 0.06458 0.0
C1491 C 0.01646 0.17276 0.92334 0.0
C1492 C 0.03856 0.19697 0.89666 0.0
C1493 C 0.07575 0.21952 0.90865 0.0
C1494 C 0.09058 0.21704 0.94446 0.0
C1495 C 0.0681 0.19229 0.96913 0.0
C1496 C 0.0317 0.17096 0.95945 0.0
C1497 C 0.01342 0.14631 0.99101 0.0
C1498 C 0.99041 0.15583 1.01705 0.0
C1499 C 0.99125 0.10582 0.96791 0.0
C1500 C 0.04516 0.15625 1.01928 0.0
C1501 C 0.07644 0.18291 1.00603 0.0
C1502 C 0.10926 0.19602 1.02642 0.0
C1503 C 0.11029 0.18215 0.06119 0.0
C1504 C 0.07876 0.15508 0.07629 0.0
C1505 C 0.04566 0.14206 0.05445 0.0
H1506 H 0.62332 0.12101 0.76839 0.0
H1507 H 0.72885 0.14991 0.79274 0.0
H1508 H 0.72201 0.11177 0.72259 0.0
H1509 H 0.58368 0.02825 0.67897 0.0
H1510 H 0.56084 0.04309 0.65503 0.0
H1511 H 0.5681 0.05216 0.71188 0.0
H1512 H 0.59637 0.12026 0.70998 0.0
H1513 H 0.59227 0.11003 0.65347 0.0
H1514 H 0.63552 0.1438 0.68275 0.0
H1515 H 0.71386 0.09279 0.64529 0.0
H1516 H 0.70845 0.09683 0.5724 0.0
H1517 H 0.61253 0.09105 0.59733 0.0
C1518 C 0.64381 0.11707 0.75947 0.0
C1519 C 0.67611 0.13731 0.78511 0.0
C1520 C 0.70354 0.13357 0.77318 0.0
C1521 C 0.69974 0.11193 0.73342 0.0
C1522 C 0.66867 0.09505 0.70619 0.0
C1523 C 0.64092 0.09722 0.71914 0.0
C1524 C 0.61554 0.08708 0.68186 0.0
C1525 C 0.57998 0.05041 0.68183 0.0
C1526 C 0.60975 0.11711 0.68204 0.0
C1527 C 0.63588 0.08384 0.64568 0.0
C1528 C 0.66491 0.08585 0.66006 0.0
C1529 C 0.69053 0.0895 0.63342 0.0
C1530 C 0.68777 0.09319 0.59206 0.0
C1531 C 0.66084 0.09598 0.57845 0.0
C1532 C 0.63353 0.08885 0.60511 0.0
H1533 H 0.66344 0.87156 0.47675 0.0
H1534 H 0.7685 0.96493 0.53386 0.0
H1535 H 0.79391 0.95405 0.46915 0.0
H1536 H 0.68593 0.81262 0.42112 0.0
H1537 H 0.65653 0.79607 0.37354 0.0
H1538 H 0.64639 0.81163 0.42392 0.0
H1539 H 0.64487 0.85919 0.39293 0.0
H1540 H 0.65295 0.84157 0.34232 0.0
H1541 H 0.68151 0.88967 0.36763 0.0
H1542 H 0.80879 0.93243 0.39479 0.0
H1543 H 0.81053 0.90238 0.32288 0.0
H1544 H 0.69656 0.82251 0.31234 0.0
C1545 C 0.69183 0.88988 0.47585 0.0
C1546 C 0.7136 0.91936 0.51177 0.0
C1547 C 0.75067 0.94225 0.50785 0.0
C1548 C 0.76557 0.93618 0.47075 0.0
C1549 C 0.74352 0.90692 0.43642 0.0
C1550 C 0.70732 0.88424 0.43863 0.0
C1551 C 0.6894 0.85546 0.39659 0.0
C1552 C 0.66831 0.81664 0.40425 0.0
C1553 C 0.66568 0.86165 0.37328 0.0
C1554 C 0.72103 0.86382 0.37154 0.0
C1555 C 0.75203 0.89435 0.39459 0.0
C1556 C 0.78442 0.9085 0.37692 0.0
C1557 C 0.78519 0.8913 0.33539 0.0
C1558 C 0.75393 0.85975 0.3107 0.0
C1559 C 0.72136 0.84611 0.3298 0.0
H1560 H 0.65417 0.59707 0.29925 0.0
H1561 H 0.59722 0.64499 0.34054 0.0
H1562 H 0.62359 0.66257 0.41403 0.0
H1563 H 0.64181 0.56138 0.40124 0.0
H1564 H 0.68451 0.56853 0.4013 0.0
H1565 H 0.65914 0.55622 0.35166 0.0
H1566 H 0.71298 0.61269 0.33036 0.0
H1567 H 0.73856 0.62724 0.38066 0.0
H1568 H 0.73091 0.65732 0.36334 0.0
H1569 H 0.676 0.69795 0.46927 0.0
H1570 H 0.71201 0.70828 0.53239 0.0
H1571 H 0.72557 0.62588 0.46381 0.0
C1572 C 0.64575 0.6094 0.32423 0.0
C1573 C 0.62438 0.62053 0.31443 0.0
C1574 C 0.61389 0.63671 0.34763 0.0
C1575 C 0.62926 0.64753 0.38917 0.0
C1576 C 0.65339 0.64011 0.39713 0.0
C1577 C 0.65933 0.61872 0.36686 0.0
C1578 C 0.68473 0.61285 0.38615 0.0
C1579 C 0.66645 0.57232 0.38505 0.0
C1580 C 0.71881 0.62841 0.36375 0.0
C1581 C 0.69239 0.63513 0.43142 0.0
C1582 C 0.67571 0.65235 0.43556 0.0
C1583 C 0.68463 0.68064 0.46995 0.0
C1584 C 0.70603 0.68702 0.50486 0.0
C1585 C 0.71942 0.666 0.50427 0.0
C1586 C 0.71408 0.64099 0.46612 0.0
H1587 H 0.66276 0.29464 0.59198 0.0
H1588 H 0.58807 0.29723 0.67407 0.0
H1589 H 0.57809 0.32766 0.62768 0.0
H1590 H 0.69872 0.38883 0.56526 0.0
H1591 H 0.70477 0.37373 0.51177 0.0
H1592 H 0.71054 0.35711 0.55464 0.0
H1593 H 0.66593 0.29219 0.51242 0.0
H1594 H 0.65691 0.30705 0.47018 0.0
H1595 H 0.62119 0.27651 0.4982 0.0
H1596 H 0.56923 0.35002 0.56869 0.0
H1597 H 0.56437 0.36602 0.50242 0.0
H1598 H 0.64755 0.35506 0.45636 0.0
C1599 C 0.64604 0.30368 0.60166 0.0
C1600 C 0.62712 0.2943 0.63819 0.0
C1601 C 0.60395 0.30507 0.64772 0.0
C1602 C 0.59785 0.32225 0.62119 0.0
C1603 C 0.616 0.33024 0.58524 0.0
C1604 C 0.64056 0.32248 0.57596 0.0
C1605 C 0.65507 0.33301 0.53386 0.0
C1606 C 0.69463 0.36507 0.54186 0.0
C1607 C 0.64941 0.30023 0.50167 0.0
C1608 C 0.63273 0.34499 0.51951 0.0
C1609 C 0.61093 0.34369 0.55044 0.0
C1610 C 0.5866 0.35164 0.54462 0.0
C1611 C 0.584 0.36075 0.50645 0.0
C1612 C 0.60555 0.36229 0.47346 0.0
C1613 C 0.63094 0.3549 0.48082 0.0
H1614 H 0.01661 0.40139 0.91606 0.0
H1615 H 0.12211 0.42795 0.9368 0.0
H1616 H 0.14208 0.46394 0.88447 0.0
H1617 H 0.99377 0.37022 0.8363 0.0
H1618 H 0.97795 0.38943 0.80773 0.0
H1619 H 0.9802 0.39792 0.8644 0.0
H1620 H 0.01682 0.46519 0.86691 0.0
H1621 H 0.01884 0.459 0.81037 0.0
H1622 H 0.0593 0.48781 0.84597 0.0
H1623 H 0.13531 0.44278 0.81216 0.0
H1624 H 0.10694 0.39038 0.75267 0.0
H1625 H 0.01064 0.38451 0.7554 0.0
C1626 C 0.04415 0.41582 0.91 0.0
C1627 C 0.06699 0.41025 0.92956 0.0
C1628 C 0.10327 0.43084 0.92265 0.0
C1629 C 0.11518 0.45198 0.89258 0.0
C1630 C 0.09023 0.45014 0.86694 0.0
C1631 C 0.05588 0.43574 0.8779 0.0
C1632 C 0.03223 0.42883 0.84012 0.0
C1633 C 0.9938 0.39446 0.83686 0.0
C1634 C 0.0319 0.46224 0.84099 0.0
C1635 C 0.05314 0.42558 0.80475 0.0
C1636 C 0.08808 0.44174 0.82074 0.0
C1637 C 0.10888 0.43188 0.79888 0.0
C1638 C 0.09267 0.4019 0.76456 0.0
C1639 C 0.0573 0.38491 0.74875 0.0
C1640 C 0.03829 0.3986 0.76684 0.0
H1641 H 0.96952 0.68914 0.26183 0.0
H1642 H 0.87828 0.58646 0.28357 0.0
H1643 H 0.88445 0.55382 0.21703 0.0
H1644 H 0.95014 0.66491 0.14458 0.0
H1645 H 0.99641 0.68881 0.13599 0.0
H1646 H 0.9835 0.70425 0.18401 0.0
H1647 H 0.02565 0.69978 0.22872 0.0
H1648 H 0.0383 0.68386 0.18085 0.0
H1649 H 0.02073 0.65713 0.22066 0.0
H1650 H 0.9036 0.53111 0.14962 0.0
H1651 H 0.93145 0.52155 0.08659 0.0
H1652 H 0.00855 0.63849 0.10548 0.0
C1653 C 0.95034 0.65983 0.25242 0.0
C1654 C 0.92315 0.6407 0.27872 0.0
C1655 C 0.89916 0.60219 0.26457 0.0
C1656 C 0.90258 0.58324 0.22661 0.0
C1657 C 0.93002 0.60281 0.20217 0.0
C1658 C 0.95325 0.64039 0.21428 0.0
C1659 C 0.98079 0.65488 0.18252 0.0
C1660 C 0.9775 0.67968 0.16047 0.0
C1661 C 0.0186 0.6751 0.20451 0.0
C1662 C 0.96985 0.61961 0.15111 0.0
C1663 C 0.94045 0.58988 0.16303 0.0
C1664 C 0.92622 0.55438 0.13979 0.0
C1665 C 0.94205 0.54914 0.10354 0.0
C1666 C 0.97167 0.57905 0.08978 0.0
C1667 C 0.98578 0.61481 0.11454 0.0
H1668 H 0.42514 0.24126 0.52142 0.0
H1669 H 0.40828 0.32608 0.5535 0.0
H1670 H 0.43605 0.34357 0.6265 0.0
H1671 H 0.41435 0.22018 0.63439 0.0
H1672 H 0.44813 0.21212 0.62774 0.0
H1673 H 0.41864 0.20031 0.58248 0.0
H1674 H 0.47328 0.23933 0.54404 0.0
H1675 H 0.50334 0.25321 0.58937 0.0
H1676 H 0.50517 0.28723 0.56742 0.0
H1677 H 0.47427 0.35878 0.69064 0.0
H1678 H 0.52284 0.37206 0.73953 0.0
H1679 H 0.51515 0.27785 0.6658 0.0
C1680 C 0.42515 0.26178 0.54486 0.0
C1681 C 0.41386 0.28175 0.53263 0.0
C1682 C 0.41573 0.30975 0.56302 0.0
C1683 C 0.4313 0.31972 0.60458 0.0
C1684 C 0.44334 0.30033 0.61558 0.0
C1685 C 0.43989 0.27147 0.58672 0.0
C1686 C 0.45988 0.25885 0.60418 0.0
C1687 C 0.4337 0.22062 0.61273 0.0
C1688 C 0.48704 0.25979 0.5745 0.0
C1689 C 0.47792 0.28736 0.64536 0.0
C1690 C 0.46699 0.31017 0.6522 0.0
C1691 C 0.48244 0.34062 0.68617 0.0
C1692 C 0.51008 0.34817 0.71346 0.0
C1693 C 0.52204 0.3256 0.70604 0.0
C1694 C 0.50552 0.29468 0.67218 0.0
H1695 H 0.55236 0.658 0.62002 0.0
H1696 H 0.64325 0.66413 0.5699 0.0
H1697 H 0.63121 0.67847 0.50538 0.0
H1698 H 0.49713 0.61752 0.51518 0.0
H1699 H 0.47785 0.64244 0.52877 0.0
H1700 H 0.49139 0.62999 0.56985 0.0
H1701 H 0.53232 0.69829 0.61071 0.0
H1702 H 0.51713 0.70956 0.56991 0.0
H1703 H 0.56393 0.7316 0.58201 0.0
H1704 H 0.61788 0.70597 0.45154 0.0
H1705 H 0.59274 0.72491 0.40561 0.0
H1706 H 0.50727 0.69533 0.48623 0.0
C1707 C 0.56967 0.66175 0.59535 0.0
C1708 C 0.59932 0.66018 0.60139 0.0
C1709 C 0.6209 0.66566 0.56747 0.0
C1710 C 0.61444 0.67401 0.53035 0.0
C1711 C 0.58645 0.67722 0.52643 0.0
C1712 C 0.56373 0.67024 0.55769 0.0
C1713 C 0.53538 0.6753 0.54557 0.0
C1714 C 0.49822 0.63916 0.53948 0.0
C1715 C 0.53727 0.70544 0.57912 0.0
C1716 C 0.54627 0.6871 0.50331 0.0
C1717 C 0.57623 0.6887 0.49314 0.0
C1718 C 0.59316 0.70251 0.45797 0.0
C1719 C 0.57862 0.71358 0.43189 0.0
C1720 C 0.54732 0.71163 0.44073 0.0
C1721 C 0.53116 0.69775 0.47738 0.0
H1722 H 0.20869 0.64859 0.30799 0.0
H1723 H 0.09618 0.58687 0.32023 0.0
H1724 H 0.08689 0.53268 0.27248 0.0
H1725 H 0.21801 0.63427 0.21847 0.0
H1726 H 0.24787 0.62058 0.21337 0.0
H1727 H 0.24832 0.64637 0.26315 0.0
H1728 H 0.24086 0.59817 0.29645 0.0
H1729 H 0.23067 0.56445 0.2479 0.0
H1730 H 0.19998 0.55308 0.28669 0.0
H1731 H 0.08643 0.49515 0.20913 0.0
H1732 H 0.09016 0.49484 0.13406 0.0
H1733 H 0.20277 0.57863 0.15814 0.0
C1734 C 0.18241 0.62321 0.30101 0.0
C1735 C 0.15304 0.62166 0.31635 0.0
C1736 C 0.11887 0.58843 0.30773 0.0
C1737 C 0.11356 0.55724 0.28167 0.0
C1738 C 0.14291 0.55946 0.26549 0.0
C1739 C 0.17687 0.59161 0.2757 0.0
C1740 C 0.20226 0.58878 0.24812 0.0
C1741 C 0.23069 0.62463 0.23492 0.0
C1742 C 0.21962 0.57557 0.27136 0.0
C1743 C 0.17578 0.558 0.2119 0.0
C1744 C 0.1425 0.5373 0.22618 0.0
C1745 C 0.11225 0.51123 0.19791 0.0
C1746 C 0.11449 0.51144 0.15491 0.0
C1747 C 0.14642 0.53799 0.14082 0.0
C1748 C 0.17806 0.55826 0.1685 0.0
H1749 H 0.18987 0.29311 0.81097 0.0
H1750 H 0.285 0.39411 0.79318 0.0
H1751 H 0.28234 0.42661 0.8621 0.0
H1752 H 0.14647 0.33502 0.86471 0.0
H1753 H 0.12701 0.30546 0.90141 0.0
H1754 H 0.1349 0.28934 0.84953 0.0
H1755 H 0.16988 0.27256 0.8847 0.0
H1756 H 0.16607 0.29072 0.93786 0.0
H1757 H 0.20939 0.30736 0.92085 0.0
H1758 H 0.2677 0.4494 0.93221 0.0
H1759 H 0.24666 0.45939 1.00068 0.0
H1760 H 0.16432 0.34343 0.9805 0.0
C1761 C 0.21023 0.32207 0.82151 0.0
C1762 C 0.23768 0.34113 0.79533 0.0
C1763 C 0.26343 0.37897 0.81122 0.0
C1764 C 0.26213 0.39768 0.85083 0.0
C1765 C 0.2347 0.3784 0.87528 0.0
C1766 C 0.20921 0.34134 0.86143 0.0
C1767 C 0.18284 0.32737 0.89468 0.0
C1768 C 0.14559 0.31345 0.87649 0.0
C1769 C 0.182 0.29767 0.91045 0.0
C1770 C 0.19852 0.36191 0.93006 0.0
C1771 C 0.22779 0.39118 0.91735 0.0
C1772 C 0.24539 0.42639 0.9428 0.0
C1773 C 0.23341 0.43183 0.98235 0.0
C1774 C 0.20489 0.40232 0.99797 0.0
C1775 C 0.18695 0.36673 0.97069 0.0
H1776 H 0.22487 0.37788 0.1918 0.0
H1777 H 0.12707 0.36895 0.19777 0.0
H1778 H 0.11046 0.33553 0.25268 0.0
H1779 H 0.18485 0.29528 0.16947 0.0
H1780 H 0.21387 0.2887 0.19546 0.0
H1781 H 0.23152 0.33153 0.1833 0.0
H1782 H 0.25438 0.36507 0.26482 0.0
H1783 H 0.23867 0.32044 0.27188 0.0
H1784 H 0.22404 0.34531 0.30376 0.0
H1785 H 0.09127 0.28604 0.28153 0.0
H1786 H 0.06565 0.22091 0.25958 0.0
H1787 H 0.16738 0.24672 0.22563 0.0
C1788 C 0.20054 0.36947 0.20616 0.0
C1789 C 0.17766 0.37674 0.19163 0.0
C1790 C 0.14581 0.36529 0.20968 0.0
C1791 C 0.13631 0.34628 0.24164 0.0
C1792 C 0.15771 0.33644 0.25334 0.0
C1793 C 0.18933 0.34733 0.23545 0.0
C1794 C 0.19952 0.32181 0.23773 0.0
C1795 C 0.20777 0.30851 0.19392 0.0
C1796 C 0.23104 0.33932 0.27155 0.0
C1797 C 0.16576 0.29201 0.25206 0.0
C1798 C 0.14392 0.30275 0.26577 0.0
C1799 C 0.10841 0.27756 0.27177 0.0
C1800 C 0.09377 0.24049 0.25874 0.0
C1801 C 0.11481 0.22952 0.24001 0.0
C1802 C 0.15139 0.25523 0.23999 0.0
H1803 H 0.98598 0.66996 0.4682 0.0
H1804 H 0.94384 0.61561 0.33756 0.0
H1805 H 0.95823 0.5728 0.34198 0.0
H1806 H 0.04615 0.68733 0.48914 0.0
H1807 H 0.05213 0.66898 0.52993 0.0
H1808 H 0.01451 0.67053 0.52758 0.0
H1809 H 0.97299 0.60245 0.52463 0.0
H1810 H 0.01082 0.60061 0.52704 0.0
H1811 H 0.97507 0.57014 0.48506 0.0
H1812 H 0.00919 0.57387 0.34299 0.0
H1813 H 0.07189 0.62052 0.34049 0.0
H1814 H 0.0841 0.66476 0.47479 0.0
C1815 C 0.97763 0.64704 0.44199 0.0
C1816 C 0.96378 0.64537 0.40302 0.0
C1817 C 0.9542 0.61684 0.36787 0.0
C1818 C 0.96169 0.59191 0.37061 0.0
C1819 C 0.97941 0.59651 0.40846 0.0
C1820 C 0.98391 0.62124 0.44527 0.0
C1821 C 0.01032 0.62714 0.4781 0.0
C1822 C 0.03213 0.66586 0.50775 0.0
C1823 C 0.99116 0.59835 0.50521 0.0
C1824 C 0.03137 0.61859 0.44783 0.0
C1825 C 0.01008 0.59511 0.40962 0.0
C1826 C 0.0255 0.59211 0.37246 0.0
C1827 C 0.0612 0.61915 0.37091 0.0
C1828 C 0.0818 0.64633 0.40759 0.0
C1829 C 0.06793 0.64355 0.44689 0.0
H1830 H 0.62111 0.72096 0.65807 0.0
H1831 H 0.6618 0.77027 0.79029 0.0
H1832 H 0.70874 0.82811 0.7707 0.0
H1833 H 0.72588 0.77596 0.63733 0.0
H1834 H 0.71318 0.7711 0.58286 0.0
H1835 H 0.68599 0.73434 0.60942 0.0
H1836 H 0.6319 0.73364 0.5913 0.0
H1837 H 0.65937 0.7684 0.56281 0.0
H1838 H 0.63422 0.77407 0.60275 0.0
H1839 H 0.74743 0.87866 0.7368 0.0
H1840 H 0.7477 0.92038 0.70122 0.0
H1841 H 0.68769 0.83344 0.58932 0.0
C1842 C 0.63996 0.74398 0.68267 0.0
C1843 C 0.6388 0.74093 0.72512 0.0
C1844 C 0.6624 0.77214 0.7573 0.0
C1845 C 0.69032 0.80417 0.74627 0.0
C1846 C 0.69492 0.80332 0.70315 0.0
C1847 C 0.67038 0.77368 0.67183 0.0
C1848 C 0.68115 0.77988 0.62825 0.0
C1849 C 0.70284 0.76447 0.61365 0.0
C1850 C 0.64988 0.76324 0.59433 0.0
C1851 C 0.70549 0.821 0.63987 0.0
C1852 C 0.71834 0.83304 0.68297 0.0
C1853 C 0.73715 0.86953 0.70358 0.0
C1854 C 0.73634 0.89285 0.68315 0.0
C1855 C 0.71484 0.87858 0.64395 0.0
C1856 C 0.70318 0.84401 0.61989 0.0
H1857 H 0.60217 0.17178 0.94427 0.0
H1858 H 0.57308 0.12153 0.81021 0.0
H1859 H 0.51026 0.0878 0.82202 0.0
H1860 H 0.49494 0.09728 0.97432 0.0
H1861 H 0.50309 0.13566 1.01383 0.0
H1862 H 0.536 0.12618 1.00876 0.0
H1863 H 0.58259 0.19148 1.00188 0.0
H1864 H 0.55016 0.20104 1.00626 0.0
H1865 H 0.57532 0.20879 0.96085 0.0
H1866 H 0.46297 0.09272 0.83338 0.0
H1867 H 0.45801 0.14159 0.83009 0.0
H1868 H 0.51604 0.20081 0.95442 0.0
C1869 C 0.5823 0.15223 0.91794 0.0
C1870 C 0.59201 0.15019 0.87621 0.0
C1871 C 0.56597 0.12429 0.84235 0.0
C1872 C 0.53012 0.10453 0.84925 0.0
C1873 C 0.52075 0.11272 0.88954 0.0
C1874 C 0.54654 0.1349 0.92437 0.0
C1875 C 0.53325 0.15078 0.95889 0.0
C1876 C 0.51577 0.12598 0.99074 0.0
C1877 C 0.56208 0.1904 0.98321 0.0
C1878 C 0.50505 0.14727 0.93148 0.0
C1879 C 0.49332 0.1191 0.89533 0.0
C1880 C 0.47233 0.11472 0.86124 0.0
C1881 C 0.46994 0.1432 0.85932 0.0
C1882 C 0.48768 0.17519 0.89182 0.0
C1883 C 0.50281 0.17616 0.92946 0.0
H1884 H 0.07149 0.73555 0.80217 0.0
H1885 H 0.16327 0.82171 0.89031 0.0
H1886 H 0.15988 0.77676 0.9239 0.0
H1887 H 0.02488 0.7013 0.87131 0.0
H1888 H -0.00104 0.65315 0.84716 0.0
H1889 H 0.01731 0.68526 0.81414 0.0
H1890 H 0.04766 0.65956 0.77619 0.0
H1891 H 0.03383 0.62653 0.80819 0.0
H1892 H 0.08058 0.65939 0.8034 0.0
H1893 H 0.12624 0.73552 0.96954 0.0
H1894 H 0.08094 0.68961 1.0064 0.0
H1895 H 0.01461 0.62481 0.88762 0.0
C1896 C 0.0924 0.74426 0.82626 0.0
C1897 C 0.11673 0.78126 0.84488 0.0
C1898 C 0.14414 0.79297 0.87616 0.0
C1899 C 0.14213 0.7676 0.89572 0.0
C1900 C 0.11322 0.73127 0.88232 0.0
C1901 C 0.08966 0.71931 0.84692 0.0
C1902 C 0.05661 0.68156 0.8447 0.0
C1903 C 0.02252 0.68038 0.84443 0.0
C1904 C 0.05449 0.65498 0.80582 0.0
C1905 C 0.06397 0.67515 0.88579 0.0
C1906 C 0.09626 0.7045 0.90767 0.0
C1907 C 0.10297 0.71037 0.95145 0.0
C1908 C 0.07732 0.68422 0.97233 0.0
C1909 C 0.04661 0.65185 0.94931 0.0
C1910 C 0.03936 0.64797 0.90572 0.0
H1911 H 0.72789 0.87168 0.24206 0.0
H1912 H 0.73242 0.85382 0.10683 0.0
H1913 H 0.71699 0.89613 0.10315 0.0
H1914 H 0.67326 0.86347 0.26618 0.0
H1915 H 0.6759 0.90107 0.30116 0.0
H1916 H 0.7141 0.90021 0.299 0.0
H1917 H 0.75062 0.96343 0.28251 0.0
H1918 H 0.71197 0.96408 0.28513 0.0
H1919 H 0.73585 0.97238 0.23889 0.0
H1920 H 0.66475 0.89384 0.10628 0.0
H1921 H 0.6018 0.85593 0.11673 0.0
H1922 H 0.62865 0.87827 0.25143 0.0
C1923 C 0.72878 0.8796 0.21266 0.0
C1924 C 0.73107 0.86003 0.175 0.0
C1925 C 0.73077 0.86901 0.13609 0.0
C1926 C 0.72253 0.89353 0.13402 0.0
C1927 C 0.71449 0.90831 0.17112 0.0
C1928 C 0.72161 0.90497 0.21094 0.0
C1929 C 0.70287 0.91479 0.24382 0.0
C1930 C 0.69075 0.89342 0.2795 0.0
C1931 C 0.72671 0.95609 0.26367 0.0
C1932 C 0.6728 0.90566 0.21432 0.0
C1933 C 0.68273 0.9079 0.17313 0.0
C1934 C 0.65726 0.89259 0.13831 0.0
C1935 C 0.62145 0.87022 0.14428 0.0
C1936 C 0.61141 0.86344 0.18477 0.0
C1937 C 0.6368 0.88312 0.22031 0.0
H1938 H 0.50067 0.17393 0.46679 0.0
H1939 H 0.45289 0.09605 0.3459 0.0
H1940 H 0.46477 0.14364 0.31182 0.0
H1941 H 0.48183 0.24414 0.41578 0.0
H1942 H 0.51986 0.28187 0.45161 0.0
H1943 H 0.48562 0.24237 0.47028 0.0
H1944 H 0.53322 0.23761 0.4981 0.0
H1945 H 0.56741 0.27544 0.47759 0.0
H1946 H 0.56108 0.23227 0.46235 0.0
H1947 H 0.51004 0.19745 0.28721 0.0
H1948 H 0.56007 0.25833 0.27778 0.0
H1949 H 0.5844 0.29689 0.41413 0.0
C1950 C 0.49005 0.16674 0.43414 0.0
C1951 C 0.4779 0.13258 0.40851 0.0
C1952 C 0.46338 0.12276 0.36592 0.0
C1953 C 0.46955 0.14961 0.34612 0.0
C1954 C 0.48839 0.18511 0.37027 0.0
C1955 C 0.49481 0.19338 0.41456 0.0
C1956 C 0.521 0.23405 0.43133 0.0
C1957 C 0.5009 0.25164 0.44286 0.0
C1958 C 0.54731 0.24546 0.46949 0.0
C1959 C 0.53796 0.24326 0.39112 0.0
C1960 C 0.51646 0.21634 0.35578 0.0
C1961 C 0.52608 0.21944 0.31462 0.0
C1962 C 0.55555 0.25322 0.30948 0.0
C1963 C 0.57459 0.28207 0.34555 0.0
C1964 C 0.56944 0.27502 0.3864 0.0
H1965 H 0.17212 0.2952 0.58267 0.0
H1966 H 0.22726 0.37134 0.70173 0.0
H1967 H 0.22182 0.41579 0.67956 0.0
H1968 H 0.19422 0.38772 0.52946 0.0
H1969 H 0.15387 0.35391 0.49485 0.0
H1970 H 0.18717 0.34588 0.50114 0.0
H1971 H 0.14011 0.28543 0.51972 0.0
H1972 H 0.1069 0.2933 0.51447 0.0
H1973 H 0.11427 0.28391 0.56328 0.0
H1974 H 0.17984 0.42777 0.67103 0.0
H1975 H 0.11828 0.39441 0.68744 0.0
H1976 H 0.08528 0.31544 0.5696 0.0
C1977 C 0.18546 0.32264 0.60179 0.0
C1978 C 0.20106 0.3308 0.64266 0.0
C1979 C 0.21611 0.3653 0.66959 0.0
C1980 C 0.21356 0.39093 0.65671 0.0
C1981 C 0.1944 0.38099 0.61753 0.0
C1982 C 0.18316 0.34849 0.58855 0.0
C1983 C 0.15552 0.33948 0.55504 0.0
C1984 C 0.17378 0.35789 0.51804 0.0
C1985 C 0.12751 0.29807 0.53726 0.0
C1986 C 0.14135 0.35903 0.58133 0.0
C1987 C 0.168 0.38827 0.61256 0.0
C1988 C 0.15932 0.40426 0.6477 0.0
C1989 C 0.12446 0.38455 0.65793 0.0
C1990 C 0.0986 0.35093 0.63138 0.0
C1991 C 0.10594 0.34082 0.59059 0.0
H1992 H 0.04113 0.02461 0.07362 0.0
H1993 H 0.12847 0.05556 0.16159 0.0
H1994 H 0.13242 0.00801 0.11791 0.0
H1995 H 0.00152 0.92326 0.04643 0.0
H1996 H 0.9896 0.91866 0.99171 0.0
H1997 H 0.98981 0.95169 1.03306 0.0
H1998 H 0.03258 0.00247 0.99377 0.0
H1999 H 0.03299 0.96976 0.95278 0.0
H2000 H 0.07418 0.00956 0.98144 0.0
H2001 H 0.13483 0.96639 0.06067 0.0
H2002 H 0.13013 0.92539 0.99446 0.0
H2003 H 0.03865 0.91619 0.94419 0.0
C2004 C 0.06008 0.02033 0.08434 0.0
C2005 C 0.08454 0.04375 0.12081 0.0
C2006 C 0.10969 0.03809 0.13347 0.0
C2007 C 0.11212 0.01109 0.109 0.0
C2008 C 0.08891 0.9896 0.07219 0.0
C2009 C 0.06274 0.99305 0.06021 0.0
C2010 C 0.0427 0.96738 1.01763 0.0
C2011 C 0.0036 0.93854 1.02252 0.0
C2012 C 0.04582 0.98857 0.98446 0.0
C2013 C 0.06286 0.95041 1.00707 0.0
C2014 C 0.08935 0.96373 0.03919 0.0
C2015 C 0.11375 0.95505 0.03559 0.0
C2016 C 0.11108 0.93207 0.99797 0.0
C2017 C 0.08397 0.91779 0.96499 0.0
C2018 C 0.05923 0.92654 0.96959 0.0
H2019 H 0.28836 0.77524 0.33527 0.0
H2020 H 0.25928 0.67925 0.37834 0.0
H2021 H 0.30823 0.68092 0.3445 0.0
H2022 H 0.30721 0.74747 0.23238 0.0
H2023 H 0.34381 0.79275 0.2289 0.0
H2024 H 0.30872 0.78654 0.26042 0.0
H2025 H 0.35532 0.83032 0.32535 0.0
H2026 H 0.39064 0.83615 0.29437 0.0
H2027 H 0.38497 0.82071 0.34301 0.0
H2028 H 0.36035 0.69316 0.30773 0.0
H2029 H 0.41021 0.71159 0.2659 0.0
H2030 H 0.40435 0.79645 0.23728 0.0
C2031 C 0.29285 0.75508 0.33837 0.0
C2032 C 0.27089 0.72814 0.36182 0.0
C2033 C 0.27701 0.70159 0.36359 0.0
C2034 C 0.30443 0.70189 0.3435 0.0
C2035 C 0.32548 0.72869 0.3209 0.0
C2036 C 0.32012 0.7548 0.31795 0.0
C2037 C 0.34565 0.77917 0.28938 0.0
C2038 C 0.3251 0.77628 0.25045 0.0
C2039 C 0.37063 0.81895 0.31453 0.0
C2040 C 0.36591 0.76237 0.27658 0.0
C2041 C 0.35383 0.73357 0.29574 0.0
C2042 C 0.36924 0.71482 0.29139 0.0
C2043 C 0.39764 0.72546 0.26678 0.0
C2044 C 0.41042 0.75425 0.24545 0.0
C2045 C 0.39421 0.77309 0.25085 0.0
H2046 H 0.51464 0.98967 0.5017 0.0
H2047 H 0.59749 0.05844 0.42837 0.0
H2048 H 0.6359 0.04429 0.4544 0.0
H2049 H 0.57556 0.01992 0.59161 0.0
H2050 H 0.55313 0.97732 0.60785 0.0
H2051 H 0.52825 0.9878 0.57979 0.0
H2052 H 0.50273 0.92957 0.52184 0.0
H2053 H 0.52628 0.91795 0.5505 0.0
H2054 H 0.53219 0.92015 0.49588 0.0
H2055 H 0.66867 0.02884 0.49278 0.0
H2056 H 0.69268 0.00955 0.53958 0.0
H2057 H 0.59066 0.95001 0.58963 0.0
C2058 C 0.54061 0.00118 0.49059 0.0
C2059 C 0.5523 0.02443 0.46159 0.0
C2060 C 0.58691 0.03949 0.44887 0.0
C2061 C 0.60934 0.03185 0.46392 0.0
C2062 C 0.5974 0.00945 0.49263 0.0
C2063 C 0.56386 0.99412 0.50597 0.0
C2064 C 0.55925 0.97333 0.53986 0.0
C2065 C 0.55367 0.99058 0.58234 0.0
C2066 C 0.52827 0.93285 0.52618 0.0
C2067 C 0.59516 0.979 0.54245 0.0
C2068 C 0.61677 1.00038 0.51528 0.0
C2069 C 0.65188 0.01163 0.51383 0.0
C2070 C 0.66539 1.0007 0.54077 0.0
C2071 C 0.64388 0.97835 0.56867 0.0
C2072 C 0.60809 0.96716 0.56905 0.0
H2073 H 0.37836 0.25769 0.86022 0.0
H2074 H 0.42601 0.22887 0.75713 0.0
H2075 H 0.38782 0.22838 0.70486 0.0
H2076 H 0.28923 0.20704 0.80805 0.0
H2077 H 0.28221 0.24191 0.82742 0.0
H2078 H 0.3115 0.23866 0.85848 0.0
H2079 H 0.3636 0.30501 0.86084 0.0
H2080 H 0.33473 0.30998 0.8316 0.0
H2081 H 0.37585 0.32045 0.81194 0.0
H2082 H 0.3443 0.23086 0.66328 0.0
H2083 H 0.30238 0.24155 0.63613 0.0
H2084 H 0.28724 0.27476 0.76582 0.0
C2085 C 0.38025 0.25073 0.8266 0.0
C2086 C 0.4048 0.2428 0.81268 0.0
C2087 C 0.40725 0.23479 0.76849 0.0
C2088 C 0.38558 0.23433 0.73852 0.0
C2089 C 0.36187 0.24255 0.75312 0.0
C2090 C 0.35938 0.25111 0.79614 0.0
C2091 C 0.33382 0.26192 0.80326 0.0
C2092 C 0.30229 0.2358 0.8256 0.0
C2093 C 0.35317 0.30171 0.82839 0.0
C2094 C 0.3221 0.25761 0.75766 0.0
C2095 C 0.33828 0.24603 0.7292 0.0
C2096 C 0.33149 0.23998 0.68531 0.0
C2097 C 0.30774 0.24618 0.67014 0.0
C2098 C 0.2915 0.2589 0.69873 0.0
C2099 C 0.2989 0.26464 0.74308 0.0
H2100 H 0.76471 0.22031 0.77294 0.0
H2101 H 0.82129 0.29432 0.89456 0.0
H2102 H 0.87841 0.31219 0.86618 0.0
H2103 H 0.82299 0.19097 0.75051 0.0
H2104 H 0.81866 0.18802 0.69421 0.0
H2105 H 0.78289 0.18058 0.72524 0.0
H2106 H 0.78459 0.23138 0.69895 0.0
H2107 H 0.82001 0.23779 0.66798 0.0
H2108 H 0.82602 0.27602 0.70592 0.0
H2109 H 0.92853 0.32219 0.82426 0.0
H2110 H 0.96963 0.32213 0.77366 0.0
H2111 H 0.88064 0.24171 0.67824 0.0
C2112 C 0.78915 0.24019 0.79373 0.0
C2113 C 0.78865 0.25599 0.83606 0.0
C2114 C 0.82106 0.2816 0.86232 0.0
C2115 C 0.85357 0.29209 0.84627 0.0
C2116 C 0.85305 0.27655 0.80404 0.0
C2117 C 0.82166 0.2508 0.7783 0.0
C2118 C 0.82835 0.23784 0.73429 0.0
C2119 C 0.81227 0.19692 0.7256 0.0
C2120 C 0.8139 0.24632 0.69977 0.0
C2121 C 0.86864 0.26078 0.73888 0.0
C2122 C 0.88217 0.28285 0.77947 0.0
C2123 C 0.91841 0.30555 0.79226 0.0
C2124 C 0.94146 0.30537 0.76327 0.0
C2125 C 0.92846 0.2826 0.7218 0.0
C2126 C 0.89147 0.26025 0.70923 0.0
H2127 H 0.85271 0.73048 0.3884 0.0
H2128 H 0.91424 0.71206 0.29701 0.0
H2129 H 0.89553 0.73179 0.24444 0.0
H2130 H 0.77934 0.69631 0.31544 0.0
H2131 H 0.77073 0.72925 0.3393 0.0
H2132 H 0.79173 0.71724 0.37151 0.0
H2133 H 0.84487 0.78508 0.39583 0.0
H2134 H 0.82385 0.79747 0.36418 0.0
H2135 H 0.86832 0.81086 0.35639 0.0
H2136 H 0.86681 0.74964 0.2 0.0
H2137 H 0.83234 0.76693 0.1682 0.0
H2138 H 0.78846 0.77293 0.28779 0.0
C2139 C 0.8628 0.73145 0.3576 0.0
C2140 C 0.8857 0.72072 0.34713 0.0
C2141 C 0.8975 0.72109 0.30615 0.0
C2142 C 0.88681 0.73209 0.27593 0.0
C2143 C 0.86395 0.74225 0.28702 0.0
C2144 C 0.85223 0.74225 0.32697 0.0
C2145 C 0.82661 0.75296 0.33013 0.0
C2146 C 0.78993 0.7221 0.33964 0.0
C2147 C 0.84183 0.78872 0.36362 0.0
C2148 C 0.82521 0.75824 0.28555 0.0
C2149 C 0.84712 0.75216 0.26127 0.0
C2150 C 0.84987 0.75487 0.21888 0.0
C2151 C 0.83015 0.76463 0.20107 0.0
C2152 C 0.80791 0.77151 0.22555 0.0
C2153 C 0.8052 0.76783 0.26822 0.0
H2154 H 0.57966 0.51818 0.64091 0.0
H2155 H 0.65582 0.62494 0.6159 0.0
H2156 H 0.66359 0.59686 0.54715 0.0
H2157 H 0.62951 0.48021 0.59226 0.0
H2158 H 0.58895 0.43557 0.573 0.0
H2159 H 0.59119 0.46474 0.62138 0.0
H2160 H 0.53652 0.45864 0.59011 0.0
H2161 H 0.53433 0.42981 0.5416 0.0
H2162 H 0.53775 0.47062 0.53991 0.0
H2163 H 0.65542 0.55549 0.47556 0.0
H2164 H 0.6386 0.50509 0.41302 0.0
H2165 H 0.57565 0.42662 0.49002 0.0
C2166 C 0.59856 0.53567 0.62133 0.0
C2167 C 0.61668 0.57387 0.63364 0.0
C2168 C 0.6413 0.59581 0.60733 0.0
C2169 C 0.646 0.57999 0.56803 0.0
C2170 C 0.62692 0.54214 0.55627 0.0
C2171 C 0.6046 0.52036 0.5829 0.0
C2172 C 0.58738 0.48042 0.56315 0.0
C2173 C 0.60002 0.46429 0.58898 0.0
C2174 C 0.54659 0.45861 0.55841 0.0
C2175 C 0.60187 0.48302 0.52033 0.0
C2176 C 0.62462 0.51877 0.51673 0.0
C2177 C 0.63855 0.52741 0.47846 0.0
C2178 C 0.62911 0.49871 0.44319 0.0
C2179 C 0.60677 0.46194 0.44679 0.0
C2180 C 0.59324 0.45438 0.48612 0.0
H2181 H 0.98947 0.46272 1.00961 0.0
H2182 H 0.06061 0.52432 0.92282 0.0
H2183 H 0.10499 0.51569 0.94727 0.0
H2184 H 0.04666 0.49105 0.09281 0.0
H2185 H 0.03034 0.44865 0.10788 0.0
H2186 H 0.00094 0.45366 0.08011 0.0
H2187 H 0.98143 0.3991 1.02518 0.0
H2188 H 0.01121 0.39045 0.04509 0.0
H2189 H 0.01123 0.39616 0.99146 0.0
H2190 H 0.14361 0.5075 0.98695 0.0
H2191 H 0.17327 0.49319 1.03263 0.0
H2192 H 0.07553 0.43046 0.09014 0.0
C2193 C 0.01382 0.47301 0.99464 0.0
C2194 C 0.02277 0.49549 0.9655 0.0
C2195 C 0.05466 0.50871 0.94663 0.0
C2196 C 0.07964 0.50364 0.96013 0.0
C2197 C 0.07139 0.48369 0.99123 0.0
C2198 C 0.03868 0.46715 1.00699 0.0
C2199 C 0.03683 0.44699 0.04016 0.0
C2200 C 0.02837 0.46099 0.08283 0.0
C2201 C 0.00863 0.40575 1.02463 0.0
C2202 C 0.0745 0.45663 0.0421 0.0
C2203 C 0.0936 0.47763 1.0133 0.0
C2204 C 0.12902 0.49093 1.00952 0.0
C2205 C 0.14577 0.48287 0.03591 0.0
C2206 C 0.12714 0.46132 0.06565 0.0
C2207 C 0.09069 0.4474 0.06809 0.0
H2208 H 0.1138 0.13165 0.34874 0.0
H2209 H 0.13336 0.22905 0.31964 0.0
H2210 H 0.16046 0.26304 0.39279 0.0
H2211 H 0.09481 0.14967 0.46296 0.0
H2212 H 0.11624 0.13038 0.47868 0.0
H2213 H 0.09495 0.11486 0.42549 0.0
H2214 H 0.15552 0.13028 0.39993 0.0
H2215 H 0.17644 0.14882 0.45389 0.0
H2216 H 0.19462 0.17658 0.41515 0.0
H2217 H 0.19112 0.28892 0.46607 0.0
H2218 H 0.21726 0.30386 0.53879 0.0
H2219 H 0.17734 0.19094 0.52754 0.0
C2220 C 0.12259 0.15975 0.35835 0.0
C2221 C 0.12031 0.17729 0.32819 0.0
C2222 C 0.13378 0.2146 0.34186 0.0
C2223 C 0.14961 0.23434 0.38355 0.0
C2224 C 0.15215 0.21672 0.41214 0.0
C2225 C 0.13859 0.18015 0.40059 0.0
C2226 C 0.14598 0.16866 0.43802 0.0
C2227 C 0.11088 0.13917 0.45215 0.0
C2228 C 0.16953 0.15528 0.42602 0.0
C2229 C 0.16592 0.20452 0.47214 0.0
C2230 C 0.16939 0.23178 0.45576 0.0
C2231 C 0.18821 0.26766 0.4793 0.0
C2232 C 0.20348 0.27605 0.52073 0.0
C2233 C 0.19993 0.24905 0.53953 0.0
C2234 C 0.18055 0.21245 0.51458 0.0
H2235 H 0.17651 0.79347 0.49455 0.0
H2236 H 0.26792 0.79171 0.51323 0.0
H2237 H 0.2908 0.84213 0.57728 0.0
H2238 H 0.21935 0.88989 0.52939 0.0
H2239 H 0.18338 0.88581 0.55759 0.0
H2240 H 0.17409 0.85052 0.51233 0.0
H2241 H 0.14253 0.80106 0.55524 0.0
H2242 H 0.14953 0.83531 0.60057 0.0
H2243 H 0.16465 0.80748 0.60473 0.0
H2244 H 0.30256 0.89208 0.6409 0.0
H2245 H 0.29851 0.932 0.70179 0.0
H2246 H 0.19897 0.89925 0.64056 0.0
C2247 C 0.20155 0.80396 0.51186 0.0
C2248 C 0.22069 0.78908 0.49886 0.0
C2249 C 0.25291 0.80288 0.52279 0.0
C2250 C 0.26622 0.83165 0.55894 0.0
C2251 C 0.24679 0.84596 0.57076 0.0
C2252 C 0.21489 0.83218 0.54817 0.0
C2253 C 0.1975 0.84999 0.56931 0.0
C2254 C 0.19343 0.87034 0.54038 0.0
C2255 C 0.16145 0.82179 0.58332 0.0
C2256 C 0.22471 0.87626 0.60698 0.0
C2257 C 0.25313 0.87387 0.60738 0.0
C2258 C 0.28064 0.89449 0.64059 0.0
C2259 C 0.27837 0.91731 0.67475 0.0
C2260 C 0.24872 0.91892 0.67522 0.0
C2261 C 0.22218 0.89885 0.64044 0.0
H2262 H 0.55414 0.91191 0.9199 0.0
H2263 H 0.58708 0.84742 0.9529 0.0
H2264 H 0.61844 0.85411 0.88793 0.0
H2265 H 0.54109 0.87891 0.80536 0.0
H2266 H 0.55804 0.92307 0.79543 0.0
H2267 H 0.53718 0.91094 0.84299 0.0
H2268 H 0.61486 0.98024 0.83917 0.0
H2269 H 0.63618 0.97626 0.88134 0.0
H2270 H 0.59389 0.9694 0.88714 0.0
H2271 H 0.64807 0.86968 0.81851 0.0
H2272 H 0.66879 0.88824 0.75083 0.0
H2273 H 0.6188 0.94492 0.76377 0.0
C2274 C 0.56797 0.89914 0.91388 0.0
C2275 C 0.56793 0.87913 0.94261 0.0
C2276 C 0.58602 0.8625 0.93194 0.0
C2277 C 0.60432 0.86652 0.89505 0.0
C2278 C 0.60456 0.88729 0.86844 0.0
C2279 C 0.58654 0.90308 0.87737 0.0
C2280 C 0.59086 0.92417 0.84388 0.0
C2281 C 0.55462 0.90828 0.8205 0.0
C2282 C 0.61009 0.96494 0.86416 0.0
C2283 C 0.61399 0.9178 0.8143 0.0
C2284 C 0.62171 0.89652 0.82922 0.0
C2285 C 0.64215 0.88644 0.80702 0.0
C2286 C 0.65413 0.89744 0.76857 0.0
C2287 C 0.6465 0.91903 0.75215 0.0
C2288 C 0.62628 0.92957 0.77587 0.0
H2289 H 0.44356 0.01513 0.14677 0.0
H2290 H 0.42272 0.06099 0.26527 0.0
H2291 H 0.41917 0.10144 0.22948 0.0
H2292 H 0.49133 0.09966 0.10141 0.0
H2293 H 0.47036 0.07224 0.04871 0.0
H2294 H 0.48053 0.05428 0.08617 0.0
H2295 H 0.41449 0.99842 0.07518 0.0
H2296 H 0.40413 0.01664 0.03857 0.0
H2297 H 0.38027 0.00572 0.08468 0.0
H2298 H 0.40605 0.12781 0.17826 0.0
H2299 H 0.38638 0.13908 0.11689 0.0
H2300 H 0.41251 0.07374 1.03073 0.0
C2301 C 0.4391 0.03427 0.16559 0.0
C2302 C 0.43335 0.03459 0.20899 0.0
C2303 C 0.42782 0.06037 0.23227 0.0
C2304 C 0.42555 0.08344 0.21206 0.0
C2305 C 0.42915 0.08069 0.16861 0.0
C2306 C 0.43631 0.05707 0.14577 0.0
C2307 C 0.43458 0.05586 0.09854 0.0
C2308 C 0.4714 0.07145 0.08279 0.0
C2309 C 0.40671 0.01686 0.07276 0.0
C2310 C 0.42322 0.08082 0.09799 0.0
C2311 C 0.42104 0.09553 0.13883 0.0
C2312 C 0.40825 0.11693 0.14624 0.0
C2313 C 0.39681 0.1229 0.11113 0.0
C2314 C 0.39778 0.10719 0.06896 0.0
C2315 C 0.41202 0.08664 0.06252 0.0
H2316 H 0.98434 0.78566 0.54198 0.0
H2317 H 0.95974 0.67752 0.52922 0.0
H2318 H 0.9917 0.69692 0.5994 0.0
H2319 H 0.07092 0.83833 0.60259 0.0
H2320 H 0.06511 0.86894 0.64032 0.0
H2321 H 0.04199 0.84988 0.58766 0.0
H2322 H 0.98304 0.82485 0.61529 0.0
H2323 H 0.00228 0.8418 0.66992 0.0
H2324 H 0.96772 0.79388 0.64995 0.0
H2325 H 0.02795 0.72716 0.66826 0.0
H2326 H 0.05714 0.76292 0.7399 0.0
H2327 H 0.05302 0.85059 0.71762 0.0
C2328 C 0.98604 0.76623 0.55383 0.0
C2329 C 0.97026 0.73019 0.52896 0.0
C2330 C 0.9722 0.70543 0.54653 0.0
C2331 C 0.9904 0.71621 0.58665 0.0
C2332 C 0.00599 0.75176 0.60991 0.0
C2333 C 0.00342 0.77631 0.59488 0.0
C2334 C 0.01977 0.81164 0.62909 0.0
C2335 C 0.05141 0.84413 0.61399 0.0
C2336 C 0.99157 0.8185 0.64193 0.0
C2337 C 0.03212 0.80302 0.66525 0.0
C2338 C 0.02439 0.76848 0.65255 0.0
C2339 C 0.0338 0.75408 0.67876 0.0
C2340 C 0.05059 0.77486 0.71953 0.0
C2341 C 0.05738 0.80965 0.7349 0.0
C2342 C 0.04859 0.82432 0.7069 0.0
H2343 H 0.0261 0.21645 0.5701 0.0
H2344 H 0.9283 0.20251 0.53494 0.0
H2345 H 0.91977 0.1606 0.46697 0.0
H2346 H 0.05481 0.21589 0.46486 0.0
H2347 H 0.07323 0.19129 0.47087 0.0
H2348 H 0.07239 0.22041 0.51669 0.0
H2349 H 0.03912 0.16803 0.55447 0.0
H2350 H 0.03885 0.13741 0.50975 0.0
H2351 H -0.00244 0.12607 0.52956 0.0
H2352 H 0.92141 0.11834 0.40354 0.0
H2353 H 0.93289 0.0794 0.35112 0.0
H2354 H 0.02949 0.12203 0.42918 0.0
C2355 C 0.00283 0.20467 0.54819 0.0
C2356 C 0.97774 0.21265 0.55786 0.0
C2357 C 0.94789 0.19687 0.52807 0.0
C2358 C 0.94285 0.17305 0.48946 0.0
C2359 C 0.96809 0.16567 0.48107 0.0
C2360 C -0.00242 0.18121 0.50961 0.0
C2361 C 0.02072 0.16879 0.49344 0.0
C2362 C 0.05745 0.20102 0.48596 0.0
C2363 C 0.02421 0.14886 0.52366 0.0
C2364 C -0.00088 0.1429 0.45197 0.0
C2365 C 0.96906 0.1417 0.44497 0.0
C2366 C 0.94493 0.11922 0.40872 0.0
C2367 C 0.95163 0.09727 0.37917 0.0
C2368 C 0.98192 0.0977 0.38647 0.0
C2369 C 0.00597 0.12099 0.42317 0.0
H2370 H 0.59582 0.07842 0.11602 0.0
H2371 H 0.6288 0.19018 0.13309 0.0
H2372 H 0.59482 0.18251 0.19509 0.0
H2373 H 0.50772 0.03994 0.15532 0.0
H2374 H 0.51091 0.01129 0.18282 0.0
H2375 H 0.53278 0.02229 0.13537 0.0
H2376 H 0.59113 0.0459 0.17565 0.0
H2377 H 0.5725 0.03851 0.22547 0.0
H2378 H 0.60984 0.08334 0.22138 0.0
H2379 H 0.55936 0.16413 0.25748 0.0
H2380 H 0.53245 0.1406 0.32007 0.0
H2381 H 0.52853 0.04314 0.27075 0.0
C2382 C 0.59642 0.10171 0.13247 0.0
C2383 C 0.6159 0.13533 0.11848 0.0
C2384 C 0.61415 0.16398 0.14154 0.0
C2385 C 0.59486 0.15989 0.17732 0.0
C2386 C 0.57716 0.12698 0.19052 0.0
C2387 C 0.57786 0.09837 0.16891 0.0
C2388 C 0.55918 0.06701 0.19212 0.0
C2389 C 0.52565 0.0331 0.16478 0.0
C2390 C 0.58465 0.05813 0.20444 0.0
C2391 C 0.54921 0.08311 0.23128 0.0
C2392 C 0.55879 0.11722 0.22853 0.0
C2393 C 0.55205 0.1376 0.25987 0.0
C2394 C 0.53651 0.12372 0.29551 0.0
C2395 C 0.52837 0.08994 0.30117 0.0
C2396 C 0.53402 0.06883 0.26769 0.0
H2397 H 0.75466 0.98634 0.92156 0.0
H2398 H 0.7554 0.93482 0.79297 0.0
H2399 H 0.76231 0.89355 0.82158 0.0
H2400 H 0.82651 0.9933 0.96149 0.0
H2401 H 0.81216 0.98643 1.01336 0.0
H2402 H 0.79723 0.0051 0.98315 0.0
H2403 H 0.7317 0.95353 0.98872 0.0
H2404 H 0.74644 0.93466 1.01918 0.0
H2405 H 0.71626 0.90656 0.97137 0.0
H2406 H 0.77899 0.86457 0.86376 0.0
H2407 H 0.80528 0.85144 0.91559 0.0
H2408 H 0.80199 0.92763 1.01674 0.0
C2409 C 0.75586 0.96623 0.89908 0.0
C2410 C 0.75446 0.96437 0.85473 0.0
C2411 C 0.75548 0.9368 0.82692 0.0
C2412 C 0.75969 0.91315 0.84294 0.0
C2413 C 0.76318 0.91741 0.88687 0.0
C2414 C 0.76131 0.94328 0.91458 0.0
C2415 C 0.77133 0.94625 0.96031 0.0
C2416 C 0.80373 0.98506 0.98074 0.0
C2417 C 0.73953 0.93454 0.98643 0.0
C2418 C 0.78049 0.919 0.95382 0.0
C2419 C 0.77473 0.90202 0.91135 0.0
C2420 C 0.78337 0.87753 0.89714 0.0
C2421 C 0.79886 0.8707 0.92695 0.0
C2422 C 0.80609 0.88857 0.97066 0.0
C2423 C 0.79614 0.91265 0.98404 0.0
H2424 H 0.67164 0.73128 0.8575 0.0
H2425 H 0.64366 0.62222 0.84516 0.0
H2426 H 0.66955 0.63943 0.91963 0.0
H2427 H 0.7529 0.78183 0.92552 0.0
H2428 H 0.74473 0.81237 0.95895 0.0
H2429 H 0.7251 0.79234 0.90438 0.0
H2430 H 0.66293 0.76683 0.92977 0.0
H2431 H 0.68278 0.78732 0.98419 0.0
H2432 H 0.64824 0.7391 0.96853 0.0
H2433 H 0.70381 0.67107 0.99536 0.0
H2434 H 0.7327 0.70926 0.06728 0.0
H2435 H 0.73267 0.79634 0.03545 0.0
C2436 C 0.67053 0.71083 0.87065 0.0
C2437 C 0.65537 0.67512 0.84482 0.0
C2438 C 0.6546 0.64947 0.8638 0.0
C2439 C 0.66961 0.65921 0.90625 0.0
C2440 C 0.68461 0.69462 0.93058 0.0
C2441 C 0.68419 0.71972 0.91376 0.0
C2442 C 0.70003 0.75522 0.94761 0.0
C2443 C 0.73264 0.78733 0.93314 0.0
C2444 C 0.67182 0.76255 0.95814 0.0
C2445 C 0.71067 0.74688 0.98565 0.0
C2446 C 0.70177 0.71178 0.97488 0.0
C2447 C 0.7101 0.69826 1.00401 0.0
C2448 C 0.72659 0.72031 0.04518 0.0
C2449 C 0.7345 0.7558 0.05824 0.0
C2450 C 0.72696 0.76937 1.02721 0.0
H2451 H 0.74981 0.38599 0.1565 0.0
H2452 H 0.64368 0.36041 0.14827 0.0
H2453 H 0.62753 0.3151 0.08158 0.0
H2454 H 0.76154 0.38719 0.05251 0.0
H2455 H 0.78552 0.36685 0.04556 0.0
H2456 H 0.78689 0.39127 0.09741 0.0
H2457 H 0.76401 0.33441 0.12788 0.0
H2458 H 0.76292 0.30989 0.076 0.0
H2459 H 0.7235 0.29133 0.1033 0.0
H2460 H 0.62588 0.28162 1.01062 0.0
H2461 H 0.63824 0.25983 0.941 0.0
H2462 H 0.7455 0.30699 0.99344 0.0
C2463 C 0.72291 0.37016 0.14121 0.0
C2464 C 0.69796 0.37655 0.15793 0.0
C2465 C 0.66306 0.35546 0.13679 0.0
C2466 C 0.65362 0.32968 0.0987 0.0
C2467 C 0.67922 0.32504 0.08229 0.0
C2468 C 0.71305 0.34431 0.10306 0.0
C2469 C 0.73668 0.33714 0.0762 0.0
C2470 C 0.76957 0.37272 0.06741 0.0
C2471 C 0.7474 0.31699 0.0971 0.0
C2472 C 0.71147 0.31265 0.0362 0.0
C2473 C 0.67828 0.30548 0.04072 0.0
C2474 C 0.6515 0.28635 1.00694 0.0
C2475 C 0.65893 0.27444 0.96738 0.0
C2476 C 0.69288 0.28183 0.96196 0.0
C2477 C 0.7192 0.30057 0.997 0.0
H2478 H 0.08204 0.38936 0.21687 0.0
H2479 H 0.19119 0.48025 0.26264 0.0
H2480 H 0.17714 0.47666 0.33653 0.0
H2481 H 0.04099 0.41403 0.3012 0.0
H2482 H 0.00727 0.3675 0.30389 0.0
H2483 H 0.02564 0.37766 0.25448 0.0
H2484 H 0.0451 0.3336 0.25049 0.0
H2485 H 0.02356 0.32224 0.29794 0.0
H2486 H 0.06923 0.33799 0.29677 0.0
H2487 H 0.15153 0.46108 0.40668 0.0
H2488 H 0.11538 0.43879 0.46604 0.0
H2489 H 0.0227 0.3583 0.37563 0.0
C2490 C 0.10292 0.40901 0.24226 0.0
C2491 C 0.13784 0.43521 0.23312 0.0
C2492 C 0.16419 0.46002 0.26804 0.0
C2493 C 0.1565 0.45801 0.31043 0.0
C2494 C 0.12217 0.43113 0.31804 0.0
C2495 C 0.0957 0.40731 0.28489 0.0
C2496 C 0.06095 0.38088 0.30172 0.0
C2497 C 0.03199 0.38529 0.28961 0.0
C2498 C 0.049 0.34133 0.28573 0.0
C2499 C 0.07186 0.39352 0.34948 0.0
C2500 C 0.10744 0.42235 0.3582 0.0
C2501 C 0.12371 0.43846 0.4 0.0
C2502 C 0.10306 0.42538 0.43358 0.0
C2503 C 0.06644 0.3962 0.4256 0.0
C2504 C 0.0508 0.38 0.38278 0.0
H2505 H 0.91633 0.54221 0.6971 0.0
H2506 H 0.84118 0.51849 0.7915 0.0
H2507 H 0.81466 0.54127 0.75491 0.0
H2508 H 0.92713 0.62314 0.67854 0.0
H2509 H 0.92843 0.61141 0.62207 0.0
H2510 H 0.9439 0.59666 0.65802 0.0
H2511 H 0.90016 0.5296 0.61641 0.0
H2512 H 0.88466 0.54423 0.58041 0.0
H2513 H 0.85349 0.51027 0.60855 0.0
H2514 H 0.79427 0.56431 0.70595 0.0
H2515 H 0.78095 0.58402 0.64808 0.0
H2516 H 0.86593 0.58756 0.58239 0.0
C2517 C 0.89422 0.54159 0.71025 0.0
C2518 C 0.88116 0.5285 0.74768 0.0
C2519 C 0.85245 0.52897 0.76364 0.0
C2520 C 0.83692 0.54166 0.74281 0.0
C2521 C 0.8501 0.55368 0.70573 0.0
C2522 C 0.87805 0.55364 0.68952 0.0
C2523 C 0.88596 0.56604 0.64787 0.0
C2524 C 0.92359 0.60142 0.65189 0.0
C2525 C 0.88075 0.53573 0.61115 0.0
C2526 C 0.85783 0.57272 0.64296 0.0
C2527 C 0.83766 0.56579 0.67689 0.0
C2528 C 0.80986 0.5697 0.67918 0.0
C2529 C 0.8023 0.58065 0.64586 0.0
C2530 C 0.82216 0.58731 0.61024 0.0
C2531 C 0.85045 0.58336 0.60923 0.0
H2532 H 0.5593 0.37308 0.2033 0.0
H2533 H 0.52261 0.2719 0.23867 0.0
H2534 H 0.49528 0.23779 0.16545 0.0
H2535 H 0.47908 0.33197 0.12834 0.0
H2536 H 0.50376 0.36044 0.09175 0.0
H2537 H 0.51948 0.3768 0.14766 0.0
H2538 H 0.58086 0.38732 0.13158 0.0
H2539 H 0.56369 0.37522 0.07732 0.0
H2540 H 0.57972 0.35138 0.09468 0.0
H2541 H 0.46959 0.21319 0.08801 0.0
H2542 H 0.45289 0.20105 1.01145 0.0
H2543 H 0.50731 0.31691 1.0211 0.0
C2544 C 0.54606 0.34386 0.19541 0.0
C2545 C 0.54384 0.32553 0.22738 0.0
C2546 C 0.52522 0.28698 0.21533 0.0
C2547 C 0.50928 0.26713 0.17354 0.0
C2548 C 0.51163 0.28574 0.14301 0.0
C2549 C 0.52953 0.32323 0.15327 0.0
C2550 C 0.52777 0.33613 0.11392 0.0
C2551 C 0.50626 0.35232 0.12088 0.0
C2552 C 0.56531 0.36408 0.10372 0.0
C2553 C 0.50792 0.30042 0.07945 0.0
C2554 C 0.49788 0.2716 0.09764 0.0
C2555 C 0.47766 0.23569 0.07348 0.0
C2556 C 0.46799 0.22894 1.0297 0.0
C2557 C 0.47885 0.25775 1.00927 0.0
C2558 C 0.49906 0.29414 0.03504 0.0
H2559 H 0.52592 0.73093 0.09549 0.0
H2560 H 0.4146 0.6875 0.10099 0.0
H2561 H 0.39872 0.63924 0.03662 0.0
H2562 H 0.52306 0.72226 0.98651 0.0
H2563 H 0.55437 0.71076 0.97817 0.0
H2564 H 0.55684 0.73777 1.0286 0.0
H2565 H 0.55168 0.69112 0.06756 0.0
H2566 H 0.55037 0.66496 1.01703 0.0
H2567 H 0.51535 0.64337 0.05013 0.0
H2568 H 0.39577 0.59988 0.96815 0.0
H2569 H 0.40588 0.57251 0.90027 0.0
H2570 H 0.51944 0.6429 0.93938 0.0
C2571 C 0.49813 0.71056 0.08386 0.0
C2572 C 0.4713 0.71232 0.10334 0.0
C2573 C 0.43536 0.68618 0.08645 0.0
C2574 C 0.42615 0.65871 0.05013 0.0
C2575 C 0.45332 0.65823 1.03095 0.0
C2576 C 0.4886 0.68343 0.04728 0.0
C2577 C 0.51301 0.67965 1.01802 0.0
C2578 C 0.53828 0.71468 1.00187 0.0
C2579 C 0.53383 0.66917 0.0396 0.0
C2580 C 0.48598 0.64856 0.98267 0.0
C2581 C 0.45171 0.63636 0.99079 0.0
C2582 C 0.42246 0.60882 0.96173 0.0
C2583 C 0.42846 0.59335 0.92336 0.0
C2584 C 0.46345 0.60551 0.91447 0.0
C2585 C 0.4924 0.63325 0.94488 0.0
H2586 H 0.04955 0.56762 0.64737 0.0
H2587 H 0.15965 0.66067 0.68032 0.0
H2588 H 0.15266 0.65941 0.75642 0.0
H2589 H 0.01628 0.59557 0.73476 0.0
H2590 H 0.98502 0.55264 0.74893 0.0
H2591 H 0.99432 0.55414 0.69448 0.0
H2592 H 0.01503 0.51311 0.68559 0.0
H2593 H 0.0006 0.50535 0.73727 0.0
H2594 H 0.04509 0.51995 0.72698 0.0
H2595 H 0.13448 0.64723 0.82905 0.0
H2596 H 0.1057 0.62975 0.89309 0.0
H2597 H 0.00678 0.54226 0.81604 0.0
C2598 C 0.07218 0.58802 0.67061 0.0
C2599 C 0.1054 0.61437 0.65729 0.0
C2600 C 0.13395 0.64057 0.68918 0.0
C2601 C 0.13028 0.63972 0.73263 0.0
C2602 C 0.0977 0.61271 0.74433 0.0
C2603 C 0.06884 0.58781 0.71435 0.0
C2604 C 0.03639 0.56253 0.73588 0.0
C2605 C 0.00625 0.56647 0.72817 0.0
C2606 C 0.02354 0.52281 0.72035 0.0
C2607 C 0.05162 0.57669 0.78269 0.0
C2608 C 0.08722 0.60531 0.78642 0.0
C2609 C 0.10702 0.62396 0.82612 0.0
C2610 C 0.09039 0.61322 0.86272 0.0
C2611 C 0.05434 0.58302 0.86051 0.0
C2612 C 0.03459 0.56481 0.81942 0.0
H2613 H 0.23941 0.47435 0.32406 0.0
H2614 H 0.3468 0.57172 0.36355 0.0
H2615 H 0.35303 0.54631 0.41979 0.0
H2616 H 0.21713 0.45887 0.43173 0.0
H2617 H 0.19223 0.40994 0.41514 0.0
H2618 H 0.19448 0.43598 0.37867 0.0
H2619 H 0.2188 0.40814 0.32361 0.0
H2620 H 0.21567 0.3815 0.35967 0.0
H2621 H 0.25748 0.41085 0.33946 0.0
H2622 H 0.34862 0.51175 0.47243 0.0
H2623 H 0.33686 0.46563 0.51141 0.0
H2624 H 0.23398 0.38789 0.43736 0.0
C2625 C 0.26423 0.49016 0.34446 0.0
C2626 C 0.29241 0.52547 0.33959 0.0
C2627 C 0.32449 0.54508 0.36701 0.0
C2628 C 0.32835 0.53089 0.39924 0.0
C2629 C 0.29999 0.49669 0.40402 0.0
C2630 C 0.26866 0.47625 0.37719 0.0
C2631 C 0.24314 0.43945 0.38859 0.0
C2632 C 0.20977 0.43586 0.40447 0.0
C2633 C 0.23321 0.40812 0.35053 0.0
C2634 C 0.26574 0.44197 0.42457 0.0
C2635 C 0.29798 0.4758 0.4337 0.0
C2636 C 0.32346 0.48511 0.4656 0.0
C2637 C 0.31645 0.45882 0.48789 0.0
C2638 C 0.28453 0.42322 0.47774 0.0
C2639 C 0.25859 0.41496 0.44601 0.0
loop_
_geom_bond_atom_site_label_1
_geom_bond_atom_site_label_2
_geom_bond_distance
_geom_bond_site_symmetry_2
_ccdc_geom_bond_type
Eu0 N29 2.600 1_455 S
Eu0 N35 2.562 1_455 S
Eu0 O44 2.462 1_455 S
Eu0 O45 2.376 . S
Eu0 O47 2.432 1_455 S
Eu0 O48 2.291 . S
Eu0 O52 2.335 . S
Eu0 O55 2.372 . S
Eu0 C64 2.787 1_455 S
C1 N2 1.365 . S
C1 C4 1.405 . S
C1 C8 1.448 . S
N2 C1 1.365 . S
N2 C5 1.319 . S
N2 Eu11 2.600 . S
C3 C5 1.397 . S
C3 C6 1.367 . S
C3 H23 0.931 . S
C4 C1 1.405 . S
C4 C6 1.403 . S
C4 C10 1.439 . S
C5 N2 1.319 . S
C5 C3 1.397 . S
C5 H16 0.930 . S
C6 C3 1.367 . S
C6 C4 1.403 . S
C6 H27 0.929 . S
C7 C8 1.430 . S
C7 C9 1.387 . S
C7 C13 1.404 . S
C8 C1 1.448 . S
C8 C7 1.430 . S
C8 N12 1.351 . S
C9 C7 1.387 . S
C9 C10 1.374 . S
C9 H24 0.931 . S
C10 C4 1.439 . S
C10 C9 1.374 . S
C10 H25 0.931 . S
Eu11 N2 2.600 . S
Eu11 N12 2.562 . S
Eu11 O46 2.335 . S
Eu11 O49 2.372 . S
Eu11 O50 2.462 . S
Eu11 O51 2.373 . S
Eu11 O53 2.432 . S
Eu11 O54 2.291 . S
Eu11 C75 2.787 . S
N12 C8 1.351 . S
N12 Eu11 2.562 . S
N12 C14 1.325 . S
C13 C7 1.404 . S
C13 C15 1.366 . S
C13 H21 0.930 . S
C14 N12 1.325 . S
C14 C15 1.416 . S
C14 H20 0.929 . S
C15 C13 1.366 . S
C15 C14 1.416 . S
C15 H17 0.930 . S
H16 C5 0.930 . S
H17 C15 0.930 . S
H18 C33 0.930 . S
H19 C40 0.930 . S
H20 C14 0.929 . S
H21 C13 0.930 . S
H22 C36 0.929 . S
H23 C3 0.931 . S
H24 C9 0.931 . S
H25 C10 0.931 . S
H26 C31 0.931 . S
H27 C6 0.929 . S
H28 C39 0.930 . S
N29 Eu0 2.600 1_655 S
N29 C30 1.365 . S
N29 C33 1.319 . S
C30 N29 1.365 . S
C30 C32 1.405 . S
C30 C38 1.448 . S
C31 H26 0.931 . S
C31 C33 1.397 1_565 S
C31 C34 1.367 . S
C32 C30 1.405 . S
C32 C34 1.403 1_545 S
C32 C65 1.439 . S
C33 H18 0.930 . S
C33 N29 1.319 . S
C33 C31 1.397 1_545 S
C34 C31 1.367 . S
C34 C32 1.403 1_565 S
C34 H41 0.929 . S
N35 Eu0 2.562 1_655 S
N35 C36 1.325 . S
N35 C38 1.351 . S
C36 H22 0.929 . S
C36 N35 1.325 . S
C36 C40 1.416 . S
C37 C38 1.430 . S
C37 C39 1.404 . S
C37 C66 1.387 . S
C38 C30 1.448 . S
C38 N35 1.351 . S
C38 C37 1.430 . S
C39 H28 0.930 . S
C39 C37 1.404 . S
C39 C40 1.366 . S
C40 H19 0.930 . S
C40 C36 1.416 . S
C40 C39 1.366 . S
H41 C34 0.929 . S
H42 C65 0.931 1_565 S
H43 C66 0.931 . S
O44 Eu0 2.462 1_655 S
O44 C64 1.252 . S
O45 Eu0 2.376 . S
O45 C56 1.259 . S
O46 Eu11 2.335 . S
O46 C56 1.264 . S
O47 Eu0 2.432 1_655 S
O47 C64 1.268 . S
O48 Eu0 2.291 . S
O48 C63 1.255 . S
O49 Eu11 2.372 . S
O49 C63 1.257 . S
O50 Eu11 2.462 . S
O50 C75 1.252 . S
O51 Eu11 2.373 . S
O51 C67 1.249 . S
O52 Eu0 2.335 . S
O52 C67 1.264 . S
O53 Eu11 2.432 . S
O53 C75 1.268 . S
O54 Eu11 2.291 . S
O54 C74 1.255 . S
O55 Eu0 2.372 . S
O55 C74 1.257 . S
C56 O45 1.259 . S
C56 O46 1.264 . S
C57 C60 1.382 . S
C57 C62 1.390 . S
C57 C64 1.506 . S
C58 C59 1.398 . S
C58 C62 1.392 . S
C59 C58 1.398 . S
C59 C61 1.372 . S
C59 H76 0.931 . S
C60 C57 1.382 . S
C60 C61 1.390 . S
C60 H77 0.931 . S
C61 C59 1.372 . S
C61 C60 1.390 . S
C61 H78 0.929 . S
C62 C57 1.390 . S
C62 C58 1.392 . S
C62 H79 0.930 . S
C63 O48 1.255 . S
C63 O49 1.257 . S
C64 Eu0 2.787 1_655 S
C64 O44 1.252 . S
C64 O47 1.268 . S
C64 C57 1.506 . S
C65 C32 1.439 . S
C65 H42 0.931 1_545 S
C65 C66 1.374 . S
C66 C37 1.387 . S
C66 H43 0.931 . S
C66 C65 1.374 . S
C67 O51 1.249 . S
C67 O52 1.264 . S
C68 C71 1.382 . S
C68 C72 1.390 1_554 S
C68 C75 1.506 . S
C69 C70 1.398 . S
C69 C72 1.392 . S
C70 C69 1.398 . S
C70 C73 1.372 . S
C70 H80 0.931 . S
C71 C68 1.382 . S
C71 C73 1.390 1_554 S
C71 H81 0.931 . S
C72 C68 1.390 1_556 S
C72 C69 1.392 . S
C72 H82 0.930 . S
C73 C70 1.372 . S
C73 C71 1.390 1_556 S
C73 H83 0.929 . S
C74 O54 1.255 . S
C74 O55 1.257 . S
C75 Eu11 2.787 . S
C75 O50 1.252 . S
C75 O53 1.268 . S
C75 C68 1.506 . S
H76 C59 0.931 . S
H77 C60 0.931 . S
H78 C61 0.929 . S
H79 C62 0.930 . S
H80 C70 0.931 . S
H81 C71 0.931 . S
H82 C72 0.930 . S
H83 C73 0.929 . S
Eu84 N113 2.600 . S
Eu84 N119 2.562 . S
Eu84 O128 2.462 . S
Eu84 O129 2.373 . S
Eu84 O131 2.432 . S
Eu84 O132 2.291 . S
Eu84 O136 2.335 . S
Eu84 O139 2.372 . S
Eu84 C148 2.787 . S
C85 N86 1.365 . S
C85 C88 1.405 . S
C85 C92 1.448 . S
N86 C85 1.365 . S
N86 C89 1.319 . S
N86 Eu95 2.600 . S
C87 C89 1.397 . S
C87 C90 1.367 . S
C87 H107 0.931 . S
C88 C85 1.405 . S
C88 C90 1.403 . S
C88 C94 1.439 . S
C89 N86 1.319 . S
C89 C87 1.397 . S
C89 H100 0.930 . S
C90 C87 1.367 . S
C90 C88 1.403 . S
C90 H111 0.929 . S
C91 C92 1.430 . S
C91 C93 1.387 . S
C91 C97 1.404 . S
C92 C85 1.448 . S
C92 C91 1.430 . S
C92 N96 1.351 . S
C93 C91 1.387 . S
C93 C94 1.374 . S
C93 H108 0.931 . S
C94 C88 1.439 . S
C94 C93 1.374 . S
C94 H109 0.931 . S
Eu95 N86 2.600 . S
Eu95 N96 2.562 . S
Eu95 O130 2.335 . S
Eu95 O133 2.372 . S
Eu95 O134 2.462 . S
Eu95 O135 2.373 . S
Eu95 O137 2.432 . S
Eu95 O138 2.291 . S
Eu95 C159 2.787 . S
N96 C92 1.351 . S
N96 Eu95 2.562 . S
N96 C98 1.325 . S
C97 C91 1.404 . S
C97 C99 1.366 . S
C97 H105 0.930 . S
C98 N96 1.325 . S
C98 C99 1.416 . S
C98 H104 0.929 . S
C99 C97 1.366 . S
C99 C98 1.416 . S
C99 H101 0.930 . S
H100 C89 0.930 . S
H101 C99 0.930 . S
H102 C117 0.930 . S
H103 C124 0.930 . S
H104 C98 0.929 . S
H105 C97 0.930 . S
H106 C120 0.929 . S
H107 C87 0.931 . S
H108 C93 0.931 . S
H109 C94 0.931 . S
H110 C115 0.931 . S
H111 C90 0.929 . S
H112 C123 0.930 . S
N113 Eu84 2.600 . S
N113 C114 1.365 . S
N113 C117 1.319 . S
C114 N113 1.365 . S
C114 C116 1.405 . S
C114 C122 1.448 . S
C115 H110 0.931 . S
C115 C117 1.397 . S
C115 C118 1.367 . S
C116 C114 1.405 . S
C116 C118 1.403 . S
C116 C149 1.439 . S
C117 H102 0.930 . S
C117 N113 1.319 . S
C117 C115 1.397 . S
C118 C115 1.367 . S
C118 C116 1.403 . S
C118 H125 0.929 . S
N119 Eu84 2.562 . S
N119 C120 1.325 . S
N119 C122 1.351 . S
C120 H106 0.929 . S
C120 N119 1.325 . S
C120 C124 1.416 . S
C121 C122 1.430 . S
C121 C123 1.404 . S
C121 C150 1.387 . S
C122 C114 1.448 . S
C122 N119 1.351 . S
C122 C121 1.430 . S
C123 H112 0.930 . S
C123 C121 1.404 . S
C123 C124 1.366 . S
C124 H103 0.930 . S
C124 C120 1.416 . S
C124 C123 1.366 . S
H125 C118 0.929 . S
H126 C149 0.931 . S
H127 C150 0.931 . S
O128 Eu84 2.462 . S
O128 C148 1.252 . S
O129 Eu84 2.373 . S
O129 C140 1.249 . S
O130 Eu95 2.335 . S
O130 C140 1.264 . S
O131 Eu84 2.432 . S
O131 C148 1.268 . S
O132 Eu84 2.291 . S
O132 C147 1.255 . S
O133 Eu95 2.372 . S
O133 C147 1.257 . S
O134 Eu95 2.462 . S
O134 C159 1.252 . S
O135 Eu95 2.373 . S
O135 C151 1.249 . S
O136 Eu84 2.335 . S
O136 C151 1.264 . S
O137 Eu95 2.432 . S
O137 C159 1.268 . S
O138 Eu95 2.291 . S
O138 C158 1.255 . S
O139 Eu84 2.372 . S
O139 C158 1.257 . S
C140 O129 1.249 . S
C140 O130 1.264 . S
C141 C144 1.382 . S
C141 C146 1.390 . S
C141 C148 1.506 . S
C142 C143 1.398 . S
C142 C146 1.392 . S
C143 C142 1.398 . S
C143 C145 1.372 . S
C143 H160 0.931 . S
C144 C141 1.382 . S
C144 C145 1.390 . S
C144 H161 0.931 . S
C145 C143 1.372 . S
C145 C144 1.390 . S
C145 H162 0.929 . S
C146 C141 1.390 . S
C146 C142 1.392 . S
C146 H163 0.930 . S
C147 O132 1.255 . S
C147 O133 1.257 . S
C148 Eu84 2.787 . S
C148 O128 1.252 . S
C148 O131 1.268 . S
C148 C141 1.506 . S
C149 C116 1.439 . S
C149 H126 0.931 . S
C149 C150 1.374 . S
C150 C121 1.387 . S
C150 H127 0.931 . S
C150 C149 1.374 . S
C151 O135 1.249 . S
C151 O136 1.264 . S
C152 C155 1.382 . S
C152 C156 1.390 . S
C152 C159 1.506 . S
C153 C154 1.398 . S
C153 C156 1.392 . S
C154 C153 1.398 . S
C154 C157 1.372 . S
C154 H164 0.931 . S
C155 C152 1.382 . S
C155 C157 1.390 . S
C155 H165 0.931 . S
C156 C152 1.390 . S
C156 C153 1.392 . S
C156 H166 0.930 . S
C157 C154 1.372 . S
C157 C155 1.390 . S
C157 H167 0.929 . S
C158 O138 1.255 . S
C158 O139 1.257 . S
C159 Eu95 2.787 . S
C159 O134 1.252 . S
C159 O137 1.268 . S
C159 C152 1.506 . S
H160 C143 0.931 . S
H161 C144 0.931 . S
H162 C145 0.929 . S
H163 C146 0.930 . S
H164 C154 0.931 . S
H165 C155 0.931 . S
H166 C156 0.930 . S
H167 C157 0.929 . S
Eu168 N197 2.600 . S
Eu168 N203 2.562 . S
Eu168 O212 2.462 . S
Eu168 O213 2.373 . S
Eu168 O215 2.432 . S
Eu168 O216 2.291 1_545 S
Eu168 O220 2.335 1_545 S
Eu168 O223 2.372 . S
Eu168 C232 2.787 . S
C169 N170 1.365 . S
C169 C172 1.405 . S
C169 C176 1.448 . S
N170 C169 1.365 . S
N170 C173 1.319 . S
N170 Eu179 2.600 . S
C171 C173 1.397 . S
C171 C174 1.367 . S
C171 H191 0.931 . S
C172 C169 1.405 . S
C172 C174 1.403 . S
C172 C178 1.439 . S
C173 N170 1.319 . S
C173 C171 1.397 . S
C173 H184 0.930 . S
C174 C171 1.367 . S
C174 C172 1.403 . S
C174 H195 0.929 . S
C175 C176 1.430 . S
C175 C177 1.387 . S
C175 C181 1.404 . S
C176 C169 1.448 . S
C176 C175 1.430 . S
C176 N180 1.351 . S
C177 C175 1.387 . S
C177 C178 1.374 . S
C177 H192 0.931 . S
C178 C172 1.439 . S
C178 C177 1.374 . S
C178 H193 0.931 . S
Eu179 N170 2.600 . S
Eu179 N180 2.562 . S
Eu179 O214 2.335 . S
Eu179 O217 2.372 . S
Eu179 O218 2.462 . S
Eu179 O219 2.373 . S
Eu179 O221 2.432 . S
Eu179 O222 2.291 1_565 S
Eu179 C243 2.787 . S
N180 C176 1.351 . S
N180 Eu179 2.562 . S
N180 C182 1.325 . S
C181 C175 1.404 . S
C181 C183 1.366 . S
C181 H189 0.930 . S
C182 N180 1.325 . S
C182 C183 1.416 . S
C182 H188 0.929 . S
C183 C181 1.366 . S
C183 C182 1.416 . S
C183 H185 0.930 . S
H184 C173 0.930 . S
H185 C183 0.930 . S
H186 C201 0.930 . S
H187 C208 0.930 . S
H188 C182 0.929 . S
H189 C181 0.930 . S
H190 C204 0.929 . S
H191 C171 0.931 . S
H192 C177 0.931 . S
H193 C178 0.931 . S
H194 C199 0.931 . S
H195 C174 0.929 . S
H196 C207 0.930 . S
N197 Eu168 2.600 . S
N197 C198 1.365 . S
N197 C201 1.319 . S
C198 N197 1.365 . S
C198 C200 1.405 . S
C198 C206 1.448 . S
C199 H194 0.931 . S
C199 C201 1.397 . S
C199 C202 1.367 . S
C200 C198 1.405 . S
C200 C202 1.403 . S
C200 C233 1.439 . S
C201 H186 0.930 . S
C201 N197 1.319 . S
C201 C199 1.397 . S
C202 C199 1.367 . S
C202 C200 1.403 . S
C202 H209 0.929 . S
N203 Eu168 2.562 . S
N203 C204 1.325 1_545 S
N203 C206 1.351 . S
C204 H190 0.929 . S
C204 N203 1.325 1_565 S
C204 C208 1.416 . S
C205 C206 1.430 . S
C205 C207 1.404 . S
C205 C234 1.387 . S
C206 C198 1.448 . S
C206 N203 1.351 . S
C206 C205 1.430 . S
C207 H196 0.930 . S
C207 C205 1.404 . S
C207 C208 1.366 1_545 S
C208 H187 0.930 . S
C208 C204 1.416 . S
C208 C207 1.366 1_565 S
H209 C202 0.929 . S
H210 C233 0.931 . S
H211 C234 0.931 . S
O212 Eu168 2.462 . S
O212 C232 1.252 . S
O213 Eu168 2.373 . S
O213 C224 1.249 1_545 S
O214 Eu179 2.335 . S
O214 C224 1.264 . S
O215 Eu168 2.432 . S
O215 C232 1.268 . S
O216 Eu168 2.291 1_565 S
O216 C231 1.255 . S
O217 Eu179 2.372 . S
O217 C231 1.257 . S
O218 Eu179 2.462 . S
O218 C243 1.252 . S
O219 Eu179 2.373 . S
O219 C235 1.249 . S
O220 Eu168 2.335 1_565 S
O220 C235 1.264 . S
O221 Eu179 2.432 . S
O221 C243 1.268 . S
O222 Eu179 2.291 1_545 S
O222 C242 1.255 . S
O223 Eu168 2.372 . S
O223 C242 1.257 . S
C224 O213 1.249 1_565 S
C224 O214 1.264 . S
C225 C228 1.382 . S
C225 C230 1.390 . S
C225 C232 1.506 . S
C226 C227 1.398 . S
C226 C230 1.392 . S
C227 C226 1.398 . S
C227 C229 1.372 . S
C227 H244 0.931 . S
C228 C225 1.382 . S
C228 C229 1.390 . S
C228 H245 0.931 . S
C229 C227 1.372 . S
C229 C228 1.390 . S
C229 H246 0.929 . S
C230 C225 1.390 . S
C230 C226 1.392 . S
C230 H247 0.930 1_545 S
C231 O216 1.255 . S
C231 O217 1.257 . S
C232 Eu168 2.787 . S
C232 O212 1.252 . S
C232 O215 1.268 . S
C232 C225 1.506 . S
C233 C200 1.439 . S
C233 H210 0.931 . S
C233 C234 1.374 . S
C234 C205 1.387 . S
C234 H211 0.931 . S
C234 C233 1.374 . S
C235 O219 1.249 . S
C235 O220 1.264 . S
C236 C239 1.382 . S
C236 C240 1.390 . S
C236 C243 1.506 . S
C237 C238 1.398 . S
C237 C240 1.392 . S
C238 C237 1.398 . S
C238 C241 1.372 . S
C238 H248 0.931 . S
C239 C236 1.382 . S
C239 C241 1.390 . S
C239 H249 0.931 . S
C240 C236 1.390 . S
C240 C237 1.392 . S
C240 H250 0.930 . S
C241 C238 1.372 . S
C241 C239 1.390 . S
C241 H251 0.929 . S
C242 O222 1.255 . S
C242 O223 1.257 . S
C243 Eu179 2.787 . S
C243 O218 1.252 . S
C243 O221 1.268 . S
C243 C236 1.506 . S
H244 C227 0.931 . S
H245 C228 0.931 . S
H246 C229 0.929 . S
H247 C230 0.930 1_565 S
H248 C238 0.931 . S
H249 C239 0.931 . S
H250 C240 0.930 . S
H251 C241 0.929 . S
Eu252 N281 2.600 . S
Eu252 N287 2.562 . S
Eu252 O296 2.462 . S
Eu252 O297 2.373 . S
Eu252 O299 2.432 . S
Eu252 O300 2.291 . S
Eu252 O304 2.335 . S
Eu252 O307 2.372 . S
Eu252 C316 2.787 . S
C253 N254 1.365 . S
C253 C256 1.405 . S
C253 C260 1.448 . S
N254 C253 1.365 . S
N254 C257 1.319 . S
N254 Eu263 2.600 . S
C255 C257 1.397 . S
C255 C258 1.367 . S
C255 H275 0.931 . S
C256 C253 1.405 . S
C256 C258 1.403 . S
C256 C262 1.439 1_545 S
C257 N254 1.319 . S
C257 C255 1.397 . S
C257 H268 0.930 . S
C258 C255 1.367 . S
C258 C256 1.403 . S
C258 H279 0.929 . S
C259 C260 1.430 . S
C259 C261 1.387 1_545 S
C259 C265 1.404 . S
C260 C253 1.448 . S
C260 C259 1.430 . S
C260 N264 1.351 . S
C261 C259 1.387 1_565 S
C261 C262 1.374 . S
C261 H276 0.931 . S
C262 C256 1.439 1_565 S
C262 C261 1.374 . S
C262 H277 0.931 . S
Eu263 N254 2.600 . S
Eu263 N264 2.562 . S
Eu263 O298 2.335 . S
Eu263 O301 2.372 . S
Eu263 O302 2.462 . S
Eu263 O303 2.373 . S
Eu263 O305 2.432 . S
Eu263 O306 2.291 . S
Eu263 C327 2.787 . S
N264 C260 1.351 . S
N264 Eu263 2.562 . S
N264 C266 1.325 . S
C265 C259 1.404 . S
C265 C267 1.366 . S
C265 H273 0.930 1_545 S
C266 N264 1.325 . S
C266 C267 1.416 . S
C266 H272 0.929 . S
C267 C265 1.366 . S
C267 C266 1.416 . S
C267 H269 0.930 . S
H268 C257 0.930 . S
H269 C267 0.930 . S
H270 C285 0.930 . S
H271 C292 0.930 . S
H272 C266 0.929 . S
H273 C265 0.930 1_565 S
H274 C288 0.929 . S
H275 C255 0.931 . S
H276 C261 0.931 . S
H277 C262 0.931 . S
H278 C283 0.931 . S
H279 C258 0.929 . S
H280 C291 0.930 . S
N281 Eu252 2.600 . S
N281 C282 1.365 . S
N281 C285 1.319 . S
C282 N281 1.365 . S
C282 C284 1.405 . S
C282 C290 1.448 . S
C283 H278 0.931 . S
C283 C285 1.397 . S
C283 C286 1.367 . S
C284 C282 1.405 . S
C284 C286 1.403 . S
C284 C317 1.439 . S
C285 H270 0.930 . S
C285 N281 1.319 . S
C285 C283 1.397 . S
C286 C283 1.367 . S
C286 C284 1.403 . S
C286 H293 0.929 . S
N287 Eu252 2.562 . S
N287 C288 1.325 . S
N287 C290 1.351 . S
C288 H274 0.929 . S
C288 N287 1.325 . S
C288 C292 1.416 . S
C289 C290 1.430 . S
C289 C291 1.404 . S
C289 C318 1.387 . S
C290 C282 1.448 . S
C290 N287 1.351 . S
C290 C289 1.430 . S
C291 H280 0.930 . S
C291 C289 1.404 . S
C291 C292 1.366 . S
C292 H271 0.930 . S
C292 C288 1.416 . S
C292 C291 1.366 . S
H293 C286 0.929 . S
H294 C317 0.931 . S
H295 C318 0.931 . S
O296 Eu252 2.462 . S
O296 C316 1.252 . S
O297 Eu252 2.373 . S
O297 C308 1.249 . S
O298 Eu263 2.335 . S
O298 C308 1.264 . S
O299 Eu252 2.432 . S
O299 C316 1.268 . S
O300 Eu252 2.291 . S
O300 C315 1.255 . S
O301 Eu263 2.372 . S
O301 C315 1.257 . S
O302 Eu263 2.462 . S
O302 C327 1.252 . S
O303 Eu263 2.373 . S
O303 C319 1.249 . S
O304 Eu252 2.335 . S
O304 C319 1.264 . S
O305 Eu263 2.432 . S
O305 C327 1.268 . S
O306 Eu263 2.291 . S
O306 C326 1.255 . S
O307 Eu252 2.372 . S
O307 C326 1.257 . S
C308 O297 1.249 . S
C308 O298 1.264 . S
C309 C312 1.382 . S
C309 C314 1.390 . S
C309 C316 1.506 . S
C310 C311 1.398 . S
C310 C314 1.392 . S
C311 C310 1.398 . S
C311 C313 1.372 . S
C311 H328 0.931 . S
C312 C309 1.382 . S
C312 C313 1.390 . S
C312 H329 0.931 . S
C313 C311 1.372 . S
C313 C312 1.390 . S
C313 H330 0.929 . S
C314 C309 1.390 . S
C314 C310 1.392 . S
C314 H331 0.930 . S
C315 O300 1.255 . S
C315 O301 1.257 . S
C316 Eu252 2.787 . S
C316 O296 1.252 . S
C316 O299 1.268 . S
C316 C309 1.506 . S
C317 C284 1.439 . S
C317 H294 0.931 . S
C317 C318 1.374 . S
C318 C289 1.387 . S
C318 H295 0.931 . S
C318 C317 1.374 . S
C319 O303 1.249 . S
C319 O304 1.264 . S
C320 C323 1.373 1_556 S
C320 C324 1.390 1_556 S
C320 C327 1.506 . S
C321 C322 1.398 . S
C321 C324 1.392 . S
C322 C321 1.398 . S
C322 C325 1.372 . S
C322 H332 0.931 . S
C323 C320 1.373 1_554 S
C323 C325 1.412 . S
C323 H333 0.918 1_554 S
C324 C320 1.390 1_554 S
C324 C321 1.392 . S
C324 H334 0.930 1_554 S
C325 C322 1.372 . S
C325 C323 1.412 . S
C325 H335 0.929 . S
C326 O306 1.255 . S
C326 O307 1.257 . S
C327 Eu263 2.787 . S
C327 O302 1.252 . S
C327 O305 1.268 . S
C327 C320 1.506 . S
H328 C311 0.931 . S
H329 C312 0.931 . S
H330 C313 0.929 . S
H331 C314 0.930 . S
H332 C322 0.931 . S
H333 C323 0.918 1_556 S
H334 C324 0.930 1_556 S
H335 C325 0.929 . S
Eu336 N365 2.600 . S
Eu336 N371 2.562 . S
Eu336 O380 2.462 . S
Eu336 O381 2.373 . S
Eu336 O383 2.432 . S
Eu336 O384 2.291 . S
Eu336 O388 2.335 . S
Eu336 O391 2.372 . S
Eu336 C400 2.787 . S
C337 N338 1.365 . S
C337 C340 1.405 . S
C337 C344 1.448 . S
N338 C337 1.365 . S
N338 C341 1.319 . S
N338 Eu347 2.600 . S
C339 C341 1.397 1_545 S
C339 C342 1.367 . S
C339 H359 0.931 . S
C340 C337 1.405 . S
C340 C342 1.403 1_565 S
C340 C346 1.439 . S
C341 N338 1.319 . S
C341 C339 1.397 1_565 S
C341 H352 0.930 . S
C342 C339 1.367 . S
C342 C340 1.403 1_545 S
C342 H363 0.929 . S
C343 C344 1.430 . S
C343 C345 1.387 . S
C343 C349 1.404 . S
C344 C337 1.448 . S
C344 C343 1.430 . S
C344 N348 1.351 . S
C345 C343 1.387 . S
C345 C346 1.374 . S
C345 H360 0.931 . S
C346 C340 1.439 . S
C346 C345 1.374 . S
C346 H361 0.931 1_565 S
Eu347 N338 2.600 . S
Eu347 N348 2.562 . S
Eu347 O382 2.335 . S
Eu347 O385 2.372 . S
Eu347 O386 2.462 . S
Eu347 O387 2.373 . S
Eu347 O389 2.432 . S
Eu347 O390 2.291 . S
Eu347 C411 2.787 . S
N348 C344 1.351 . S
N348 Eu347 2.562 . S
N348 C350 1.325 . S
C349 C343 1.404 . S
C349 C351 1.366 . S
C349 H357 0.930 . S
C350 N348 1.325 . S
C350 C351 1.416 . S
C350 H356 0.929 . S
C351 C349 1.366 . S
C351 C350 1.416 . S
C351 H353 0.930 . S
H352 C341 0.930 . S
H353 C351 0.930 . S
H354 C369 0.930 . S
H355 C376 0.930 . S
H356 C350 0.929 . S
H357 C349 0.930 . S
H358 C372 0.929 . S
H359 C339 0.931 . S
H360 C345 0.931 . S
H361 C346 0.931 1_545 S
H362 C367 0.931 . S
H363 C342 0.929 . S
H364 C375 0.930 . S
N365 Eu336 2.600 . S
N365 C366 1.389 . S
N365 C369 1.319 . S
C366 N365 1.389 . S
C366 C368 1.394 1_455 S
C366 C374 1.436 . S
C367 H362 0.931 . S
C367 C369 1.397 1_655 S
C367 C370 1.367 . S
C368 C366 1.394 1_655 S
C368 C370 1.403 . S
C368 C401 1.439 . S
C369 H354 0.930 . S
C369 N365 1.319 . S
C369 C367 1.397 1_455 S
C370 C367 1.367 . S
C370 C368 1.403 . S
C370 H377 0.929 . S
N371 Eu336 2.562 . S
N371 C372 1.325 . S
N371 C374 1.351 . S
C372 H358 0.929 . S
C372 N371 1.325 . S
C372 C376 1.416 . S
C373 C374 1.430 1_655 S
C373 C375 1.404 . S
C373 C402 1.387 . S
C374 C366 1.436 . S
C374 N371 1.351 . S
C374 C373 1.430 1_455 S
C375 H364 0.930 . S
C375 C373 1.404 . S
C375 C376 1.366 1_655 S
C376 H355 0.930 . S
C376 C372 1.416 . S
C376 C375 1.366 1_455 S
H377 C370 0.929 . S
H378 C401 0.931 . S
H379 C402 0.931 . S
O380 Eu336 2.462 . S
O380 C400 1.252 . S
O381 Eu336 2.373 . S
O381 C392 1.249 . S
O382 Eu347 2.335 . S
O382 C392 1.264 . S
O383 Eu336 2.432 . S
O383 C400 1.268 . S
O384 Eu336 2.291 . S
O384 C399 1.255 . S
O385 Eu347 2.372 . S
O385 C399 1.257 . S
O386 Eu347 2.462 . S
O386 C411 1.252 . S
O387 Eu347 2.373 . S
O387 C403 1.249 . S
O388 Eu336 2.335 . S
O388 C403 1.264 . S
O389 Eu347 2.432 . S
O389 C411 1.268 . S
O390 Eu347 2.291 . S
O390 C410 1.255 . S
O391 Eu336 2.372 . S
O391 C410 1.257 . S
C392 O381 1.249 . S
C392 O382 1.264 . S
C393 C396 1.382 . S
C393 C398 1.390 1_556 S
C393 C400 1.506 . S
C394 C395 1.398 . S
C394 C398 1.392 . S
C395 C394 1.398 . S
C395 C397 1.372 . S
C395 H412 0.931 . S
C396 C393 1.382 . S
C396 C397 1.390 1_556 S
C396 H413 0.931 . S
C397 C395 1.372 . S
C397 C396 1.390 1_554 S
C397 H414 0.929 1_455 S
C398 C393 1.390 1_554 S
C398 C394 1.392 . S
C398 H415 0.930 . S
C399 O384 1.255 . S
C399 O385 1.257 . S
C400 Eu336 2.787 . S
C400 O380 1.252 . S
C400 O383 1.268 . S
C400 C393 1.506 . S
C401 C368 1.439 . S
C401 H378 0.931 . S
C401 C402 1.374 . S
C402 C373 1.387 . S
C402 H379 0.931 . S
C402 C401 1.374 . S
C403 O387 1.249 . S
C403 O388 1.264 . S
C404 C407 1.382 . S
C404 C408 1.390 . S
C404 C411 1.506 . S
C405 C406 1.398 . S
C405 C408 1.392 . S
C406 C405 1.398 . S
C406 C409 1.372 . S
C406 H416 0.931 . S
C407 C404 1.382 . S
C407 C409 1.390 . S
C407 H417 0.931 . S
C408 C404 1.390 . S
C408 C405 1.392 . S
C408 H418 0.930 . S
C409 C406 1.372 . S
C409 C407 1.390 . S
C409 H419 0.929 . S
C410 O390 1.255 . S
C410 O391 1.257 . S
C411 Eu347 2.787 . S
C411 O386 1.252 . S
C411 O389 1.268 . S
C411 C404 1.506 . S
H412 C395 0.931 . S
H413 C396 0.931 . S
H414 C397 0.929 1_655 S
H415 C398 0.930 . S
H416 C406 0.931 . S
H417 C407 0.931 . S
H418 C408 0.930 . S
H419 C409 0.929 . S
Eu420 N449 2.600 . S
Eu420 N455 2.562 . S
Eu420 O464 2.462 . S
Eu420 O465 2.373 . S
Eu420 O467 2.432 . S
Eu420 O468 2.291 . S
Eu420 O472 2.335 . S
Eu420 O475 2.372 . S
Eu420 C484 2.787 . S
C421 N422 1.365 . S
C421 C424 1.405 . S
C421 C428 1.448 . S
N422 C421 1.365 . S
N422 C425 1.319 . S
N422 Eu431 2.600 . S
C423 C425 1.397 . S
C423 C426 1.367 . S
C423 H443 0.931 . S
C424 C421 1.405 . S
C424 C426 1.403 . S
C424 C430 1.439 1_565 S
C425 N422 1.319 . S
C425 C423 1.397 . S
C425 H436 0.930 . S
C426 C423 1.367 . S
C426 C424 1.403 . S
C426 H447 0.929 . S
C427 C428 1.430 . S
C427 C429 1.387 1_565 S
C427 C433 1.404 1_565 S
C428 C421 1.448 . S
C428 C427 1.430 . S
C428 N432 1.351 . S
C429 C427 1.387 1_545 S
C429 C430 1.374 . S
C429 H444 0.931 . S
C430 C424 1.439 1_545 S
C430 C429 1.374 . S
C430 H445 0.931 . S
Eu431 N422 2.600 . S
Eu431 N432 2.562 . S
Eu431 O466 2.335 . S
Eu431 O469 2.372 . S
Eu431 O470 2.462 . S
Eu431 O471 2.373 . S
Eu431 O473 2.432 . S
Eu431 O474 2.291 . S
Eu431 C495 2.787 . S
N432 C428 1.351 . S
N432 Eu431 2.562 . S
N432 C434 1.325 . S
C433 C427 1.404 1_545 S
C433 C435 1.366 1_545 S
C433 H441 0.930 . S
C434 N432 1.325 . S
C434 C435 1.416 . S
C434 H440 0.929 . S
C435 C433 1.366 1_565 S
C435 C434 1.416 . S
C435 H437 0.930 . S
H436 C425 0.930 . S
H437 C435 0.930 . S
H438 C453 0.930 . S
H439 C460 0.930 . S
H440 C434 0.929 . S
H441 C433 0.930 . S
H442 C456 0.929 . S
H443 C423 0.931 . S
H444 C429 0.931 . S
H445 C430 0.931 . S
H446 C451 0.931 . S
H447 C426 0.929 . S
H448 C459 0.930 . S
N449 Eu420 2.600 . S
N449 C450 1.365 . S
N449 C453 1.319 . S
C450 N449 1.365 . S
C450 C452 1.405 . S
C450 C458 1.448 . S
C451 H446 0.931 . S
C451 C453 1.397 . S
C451 C454 1.367 . S
C452 C450 1.405 . S
C452 C454 1.403 . S
C452 C485 1.439 . S
C453 H438 0.930 . S
C453 N449 1.319 . S
C453 C451 1.397 . S
C454 C451 1.367 . S
C454 C452 1.403 . S
C454 H461 0.929 . S
N455 Eu420 2.562 . S
N455 C456 1.325 . S
N455 C458 1.351 . S
C456 H442 0.929 . S
C456 N455 1.325 . S
C456 C460 1.416 . S
C457 C458 1.430 . S
C457 C459 1.404 . S
C457 C486 1.387 . S
C458 C450 1.448 . S
C458 N455 1.351 . S
C458 C457 1.430 . S
C459 H448 0.930 . S
C459 C457 1.404 . S
C459 C460 1.366 . S
C460 H439 0.930 . S
C460 C456 1.416 . S
C460 C459 1.366 . S
H461 C454 0.929 . S
H462 C485 0.931 . S
H463 C486 0.931 . S
O464 Eu420 2.462 . S
O464 C484 1.252 . S
O465 Eu420 2.373 . S
O465 C476 1.249 . S
O466 Eu431 2.335 . S
O466 C476 1.264 . S
O467 Eu420 2.432 . S
O467 C484 1.268 . S
O468 Eu420 2.291 . S
O468 C483 1.255 . S
O469 Eu431 2.372 . S
O469 C483 1.257 . S
O470 Eu431 2.462 . S
O470 C495 1.252 . S
O471 Eu431 2.373 . S
O471 C487 1.249 . S
O472 Eu420 2.335 . S
O472 C487 1.264 . S
O473 Eu431 2.432 . S
O473 C495 1.268 . S
O474 Eu431 2.291 . S
O474 C494 1.255 . S
O475 Eu420 2.372 . S
O475 C494 1.257 . S
C476 O465 1.249 . S
C476 O466 1.264 . S
C477 C480 1.382 . S
C477 C482 1.390 . S
C477 C484 1.506 . S
C478 C479 1.398 . S
C478 C482 1.392 . S
C479 C478 1.398 . S
C479 C481 1.372 . S
C479 H496 0.931 . S
C480 C477 1.382 . S
C480 C481 1.390 . S
C480 H497 0.931 . S
C481 C479 1.372 . S
C481 C480 1.390 . S
C481 H498 0.929 . S
C482 C477 1.390 . S
C482 C478 1.392 . S
C482 H499 0.930 . S
C483 O468 1.255 . S
C483 O469 1.257 . S
C484 Eu420 2.787 . S
C484 O464 1.252 . S
C484 O467 1.268 . S
C484 C477 1.506 . S
C485 C452 1.439 . S
C485 H462 0.931 . S
C485 C486 1.374 . S
C486 C457 1.387 . S
C486 H463 0.931 . S
C486 C485 1.374 . S
C487 O471 1.249 . S
C487 O472 1.264 . S
C488 C491 1.382 . S
C488 C492 1.390 . S
C488 C495 1.506 . S
C489 C490 1.398 . S
C489 C492 1.392 1_556 S
C490 C489 1.398 . S
C490 C493 1.372 . S
C490 H500 0.931 . S
C491 C488 1.382 . S
C491 C493 1.390 1_554 S
C491 H501 0.931 . S
C492 C488 1.390 . S
C492 C489 1.392 1_554 S
C492 H502 0.930 . S
C493 C490 1.372 . S
C493 C491 1.390 1_556 S
C493 H503 0.929 . S
C494 O474 1.255 . S
C494 O475 1.257 . S
C495 Eu431 2.787 . S
C495 O470 1.252 . S
C495 O473 1.268 . S
C495 C488 1.506 . S
H496 C479 0.931 . S
H497 C480 0.931 . S
H498 C481 0.929 . S
H499 C482 0.930 . S
H500 C490 0.931 . S
H501 C491 0.931 . S
H502 C492 0.930 . S
H503 C493 0.929 . S
Eu504 N533 2.600 . S
Eu504 N539 2.562 . S
Eu504 O548 2.462 . S
Eu504 O549 2.373 . S
Eu504 O551 2.432 . S
Eu504 O552 2.291 1_545 S
Eu504 O556 2.335 . S
Eu504 O559 2.372 . S
Eu504 C568 2.787 . S
C505 N506 1.365 . S
C505 C508 1.405 . S
C505 C512 1.448 . S
N506 C505 1.365 . S
N506 C509 1.319 . S
N506 Eu515 2.600 . S
C507 C509 1.397 . S
C507 C510 1.367 . S
C507 H527 0.931 . S
C508 C505 1.405 . S
C508 C510 1.403 . S
C508 C514 1.439 . S
C509 N506 1.319 . S
C509 C507 1.397 . S
C509 H520 0.930 . S
C510 C507 1.367 . S
C510 C508 1.403 . S
C510 H531 0.929 . S
C511 C512 1.430 . S
C511 C513 1.387 . S
C511 C517 1.404 . S
C512 C505 1.448 . S
C512 C511 1.430 . S
C512 N516 1.351 . S
C513 C511 1.387 . S
C513 C514 1.374 . S
C513 H528 0.931 . S
C514 C508 1.439 . S
C514 C513 1.374 . S
C514 H529 0.931 . S
Eu515 N506 2.600 . S
Eu515 N516 2.562 . S
Eu515 O550 2.335 1_565 S
Eu515 O553 2.372 . S
Eu515 O554 2.462 . S
Eu515 O555 2.373 . S
Eu515 O557 2.432 . S
Eu515 O558 2.291 1_565 S
Eu515 C579 2.787 . S
N516 C512 1.351 . S
N516 Eu515 2.562 . S
N516 C518 1.325 1_565 S
C517 C511 1.404 . S
C517 C519 1.366 1_565 S
C517 H525 0.930 . S
C518 N516 1.325 1_545 S
C518 C519 1.416 . S
C518 H524 0.929 . S
C519 C517 1.366 1_545 S
C519 C518 1.416 . S
C519 H521 0.930 . S
H520 C509 0.930 . S
H521 C519 0.930 . S
H522 C537 0.930 . S
H523 C544 0.930 . S
H524 C518 0.929 . S
H525 C517 0.930 . S
H526 C540 0.929 . S
H527 C507 0.931 . S
H528 C513 0.931 . S
H529 C514 0.931 . S
H530 C535 0.931 . S
H531 C510 0.929 . S
H532 C543 0.930 . S
N533 Eu504 2.600 . S
N533 C534 1.365 . S
N533 C537 1.319 . S
C534 N533 1.365 . S
C534 C536 1.405 . S
C534 C542 1.448 . S
C535 H530 0.931 . S
C535 C537 1.397 . S
C535 C538 1.367 . S
C536 C534 1.405 . S
C536 C538 1.403 . S
C536 C569 1.439 . S
C537 H522 0.930 . S
C537 N533 1.319 . S
C537 C535 1.397 . S
C538 C535 1.367 . S
C538 C536 1.403 . S
C538 H545 0.929 . S
N539 Eu504 2.562 . S
N539 C540 1.325 . S
N539 C542 1.351 . S
C540 H526 0.929 . S
C540 N539 1.325 . S
C540 C544 1.416 . S
C541 C542 1.430 . S
C541 C543 1.404 . S
C541 C570 1.387 . S
C542 C534 1.448 . S
C542 N539 1.351 . S
C542 C541 1.430 . S
C543 H532 0.930 . S
C543 C541 1.404 . S
C543 C544 1.366 . S
C544 H523 0.930 . S
C544 C540 1.416 . S
C544 C543 1.366 . S
H545 C538 0.929 . S
H546 C569 0.931 . S
H547 C570 0.931 . S
O548 Eu504 2.462 . S
O548 C568 1.252 . S
O549 Eu504 2.373 . S
O549 C560 1.249 . S
O550 Eu515 2.335 1_545 S
O550 C560 1.264 . S
O551 Eu504 2.432 . S
O551 C568 1.268 . S
O552 Eu504 2.291 1_565 S
O552 C567 1.255 . S
O553 Eu515 2.372 . S
O553 C567 1.257 . S
O554 Eu515 2.462 . S
O554 C579 1.252 . S
O555 Eu515 2.373 . S
O555 C571 1.249 1_565 S
O556 Eu504 2.335 . S
O556 C571 1.264 . S
O557 Eu515 2.432 . S
O557 C579 1.268 . S
O558 Eu515 2.291 1_545 S
O558 C578 1.255 . S
O559 Eu504 2.372 . S
O559 C578 1.257 . S
C560 O549 1.249 . S
C560 O550 1.264 . S
C561 C564 1.382 . S
C561 C566 1.390 . S
C561 C568 1.506 . S
C562 C563 1.398 . S
C562 C566 1.392 . S
C563 C562 1.398 . S
C563 C565 1.372 . S
C563 H580 0.931 . S
C564 C561 1.382 . S
C564 C565 1.390 . S
C564 H581 0.931 . S
C565 C563 1.372 . S
C565 C564 1.390 . S
C565 H582 0.929 . S
C566 C561 1.390 . S
C566 C562 1.392 . S
C566 H583 0.930 . S
C567 O552 1.255 . S
C567 O553 1.257 . S
C568 Eu504 2.787 . S
C568 O548 1.252 . S
C568 O551 1.268 . S
C568 C561 1.506 . S
C569 C536 1.439 . S
C569 H546 0.931 . S
C569 C570 1.374 . S
C570 C541 1.387 . S
C570 H547 0.931 . S
C570 C569 1.374 . S
C571 O555 1.249 1_545 S
C571 O556 1.264 . S
C572 C575 1.382 . S
C572 C576 1.390 . S
C572 C579 1.506 . S
C573 C574 1.398 . S
C573 C576 1.392 . S
C574 C573 1.398 . S
C574 C577 1.372 . S
C574 H584 0.931 . S
C575 C572 1.382 . S
C575 C577 1.390 . S
C575 H585 0.931 . S
C576 C572 1.390 . S
C576 C573 1.392 . S
C576 H586 0.930 1_565 S
C577 C574 1.372 . S
C577 C575 1.390 . S
C577 H587 0.929 . S
C578 O558 1.255 . S
C578 O559 1.257 . S
C579 Eu515 2.787 . S
C579 O554 1.252 . S
C579 O557 1.268 . S
C579 C572 1.506 . S
H580 C563 0.931 . S
H581 C564 0.931 . S
H582 C565 0.929 . S
H583 C566 0.930 . S
H584 C574 0.931 . S
H585 C575 0.931 . S
H586 C576 0.930 1_545 S
H587 C577 0.929 . S
Eu588 N617 2.600 . S
Eu588 N623 2.562 . S
Eu588 O632 2.462 . S
Eu588 O633 2.373 . S
Eu588 O635 2.432 . S
Eu588 O636 2.291 . S
Eu588 O640 2.335 . S
Eu588 O643 2.372 . S
Eu588 C652 2.787 . S
C589 N590 1.365 . S
C589 C592 1.405 . S
C589 C596 1.448 . S
N590 C589 1.365 . S
N590 C593 1.319 . S
N590 Eu599 2.600 . S
C591 C593 1.397 . S
C591 C594 1.367 . S
C591 H611 0.931 . S
C592 C589 1.405 . S
C592 C594 1.403 . S
C592 C598 1.439 . S
C593 N590 1.319 . S
C593 C591 1.397 . S
C593 H604 0.930 . S
C594 C591 1.367 . S
C594 C592 1.403 . S
C594 H615 0.929 . S
C595 C596 1.430 . S
C595 C597 1.387 . S
C595 C601 1.404 . S
C596 C589 1.448 . S
C596 C595 1.430 . S
C596 N600 1.351 . S
C597 C595 1.387 . S
C597 C598 1.374 . S
C597 H612 0.931 . S
C598 C592 1.439 . S
C598 C597 1.374 . S
C598 H613 0.931 . S
Eu599 N590 2.600 . S
Eu599 N600 2.562 . S
Eu599 O634 2.335 . S
Eu599 O637 2.372 . S
Eu599 O638 2.462 . S
Eu599 O639 2.373 . S
Eu599 O641 2.432 . S
Eu599 O642 2.291 . S
Eu599 C663 2.787 . S
N600 C596 1.351 . S
N600 Eu599 2.562 . S
N600 C602 1.325 . S
C601 C595 1.404 . S
C601 C603 1.366 . S
C601 H609 0.930 . S
C602 N600 1.325 . S
C602 C603 1.416 . S
C602 H608 0.929 . S
C603 C601 1.366 . S
C603 C602 1.416 . S
C603 H605 0.930 . S
H604 C593 0.930 . S
H605 C603 0.930 . S
H606 C621 0.930 . S
H607 C628 0.930 . S
H608 C602 0.929 . S
H609 C601 0.930 . S
H610 C624 0.929 . S
H611 C591 0.931 . S
H612 C597 0.931 . S
H613 C598 0.931 . S
H614 C619 0.931 . S
H615 C594 0.929 . S
H616 C627 0.930 . S
N617 Eu588 2.600 . S
N617 C618 1.365 . S
N617 C621 1.319 . S
C618 N617 1.365 . S
C618 C620 1.405 . S
C618 C626 1.448 . S
C619 H614 0.931 . S
C619 C621 1.397 . S
C619 C622 1.367 . S
C620 C618 1.405 . S
C620 C622 1.403 . S
C620 C653 1.439 . S
C621 H606 0.930 . S
C621 N617 1.319 . S
C621 C619 1.397 . S
C622 C619 1.367 . S
C622 C620 1.403 . S
C622 H629 0.929 . S
N623 Eu588 2.562 . S
N623 C624 1.325 . S
N623 C626 1.351 . S
C624 H610 0.929 . S
C624 N623 1.325 . S
C624 C628 1.416 . S
C625 C626 1.430 . S
C625 C627 1.404 . S
C625 C654 1.387 . S
C626 C618 1.448 . S
C626 N623 1.351 . S
C626 C625 1.430 . S
C627 H616 0.930 . S
C627 C625 1.404 . S
C627 C628 1.366 . S
C628 H607 0.930 . S
C628 C624 1.416 . S
C628 C627 1.366 . S
H629 C622 0.929 . S
H630 C653 0.931 . S
H631 C654 0.931 . S
O632 Eu588 2.462 . S
O632 C652 1.252 . S
O633 Eu588 2.373 . S
O633 C644 1.249 . S
O634 Eu599 2.335 . S
O634 C644 1.264 . S
O635 Eu588 2.432 . S
O635 C652 1.268 . S
O636 Eu588 2.291 . S
O636 C651 1.255 . S
O637 Eu599 2.372 . S
O637 C651 1.257 . S
O638 Eu599 2.462 . S
O638 C663 1.252 . S
O639 Eu599 2.373 . S
O639 C655 1.249 . S
O640 Eu588 2.335 . S
O640 C655 1.264 . S
O641 Eu599 2.432 . S
O641 C663 1.268 . S
O642 Eu599 2.291 . S
O642 C662 1.255 . S
O643 Eu588 2.372 . S
O643 C662 1.257 . S
C644 O633 1.249 . S
C644 O634 1.264 . S
C645 C648 1.382 . S
C645 C650 1.390 . S
C645 C652 1.506 . S
C646 C647 1.398 . S
C646 C650 1.392 . S
C647 C646 1.398 . S
C647 C649 1.372 . S
C647 H664 0.931 . S
C648 C645 1.382 . S
C648 C649 1.390 . S
C648 H665 0.931 . S
C649 C647 1.372 . S
C649 C648 1.390 . S
C649 H666 0.929 . S
C650 C645 1.390 . S
C650 C646 1.392 . S
C650 H667 0.930 . S
C651 O636 1.255 . S
C651 O637 1.257 . S
C652 Eu588 2.787 . S
C652 O632 1.252 . S
C652 O635 1.268 . S
C652 C645 1.506 . S
C653 C620 1.439 . S
C653 H630 0.931 . S
C653 C654 1.374 . S
C654 C625 1.387 . S
C654 H631 0.931 . S
C654 C653 1.374 . S
C655 O639 1.249 . S
C655 O640 1.264 . S
C656 C659 1.382 . S
C656 C660 1.390 . S
C656 C663 1.506 . S
C657 C658 1.398 . S
C657 C660 1.392 . S
C658 C657 1.398 . S
C658 C661 1.372 . S
C658 H668 0.931 . S
C659 C656 1.382 . S
C659 C661 1.390 . S
C659 H669 0.931 . S
C660 C656 1.390 . S
C660 C657 1.392 . S
C660 H670 0.930 . S
C661 C658 1.372 . S
C661 C659 1.390 . S
C661 H671 0.929 . S
C662 O642 1.255 . S
C662 O643 1.257 . S
C663 Eu599 2.787 . S
C663 O638 1.252 . S
C663 O641 1.268 . S
C663 C656 1.506 . S
H664 C647 0.931 . S
H665 C648 0.931 . S
H666 C649 0.929 . S
H667 C650 0.930 . S
H668 C658 0.931 . S
H669 C659 0.931 . S
H670 C660 0.930 . S
H671 C661 0.929 . S
Eu672 N701 2.600 1_655 S
Eu672 N707 2.562 . S
Eu672 O716 2.462 . S
Eu672 O717 2.373 . S
Eu672 O719 2.432 1_655 S
Eu672 O720 2.291 . S
Eu672 O724 2.335 1_655 S
Eu672 O727 2.372 1_655 S
Eu672 C736 2.787 . S
C673 N674 1.365 1_455 S
C673 C676 1.405 . S
C673 C680 1.448 . S
N674 C673 1.365 1_655 S
N674 C677 1.319 . S
N674 Eu683 2.600 1_655 S
C675 C677 1.397 . S
C675 C678 1.367 . S
C675 H695 0.931 . S
C676 C673 1.405 . S
C676 C678 1.403 1_455 S
C676 C682 1.439 . S
C677 N674 1.319 . S
C677 C675 1.397 . S
C677 H688 0.930 . S
C678 C675 1.367 . S
C678 C676 1.403 1_655 S
C678 H699 0.929 . S
C679 C680 1.430 . S
C679 C681 1.387 . S
C679 C685 1.404 . S
C680 C673 1.448 . S
C680 C679 1.430 . S
C680 N684 1.351 . S
C681 C679 1.387 . S
C681 C682 1.374 . S
C681 H696 0.931 . S
C682 C676 1.439 . S
C682 C681 1.374 . S
C682 H697 0.931 . S
Eu683 N674 2.600 1_455 S
Eu683 N684 2.562 . S
Eu683 O718 2.335 1_455 S
Eu683 O721 2.372 1_455 S
Eu683 O722 2.462 . S
Eu683 O723 2.373 . S
Eu683 O725 2.432 1_455 S
Eu683 O726 2.291 . S
Eu683 C747 2.787 . S
N684 C680 1.351 . S
N684 Eu683 2.562 . S
N684 C686 1.325 . S
C685 C679 1.404 . S
C685 C687 1.366 . S
C685 H693 0.930 . S
C686 N684 1.325 . S
C686 C687 1.416 . S
C686 H692 0.929 . S
C687 C685 1.366 . S
C687 C686 1.416 . S
C687 H689 0.930 . S
H688 C677 0.930 . S
H689 C687 0.930 . S
H690 C705 0.930 . S
H691 C712 0.930 . S
H692 C686 0.929 . S
H693 C685 0.930 . S
H694 C708 0.929 . S
H695 C675 0.931 . S
H696 C681 0.931 . S
H697 C682 0.931 . S
H698 C703 0.931 . S
H699 C678 0.929 . S
H700 C711 0.930 . S
N701 Eu672 2.600 1_455 S
N701 C702 1.365 1_455 S
N701 C705 1.319 . S
C702 N701 1.365 1_655 S
C702 C704 1.405 . S
C702 C710 1.448 . S
C703 H698 0.931 . S
C703 C705 1.397 . S
C703 C706 1.367 . S
C704 C702 1.405 . S
C704 C706 1.403 1_655 S
C704 C737 1.439 . S
C705 H690 0.930 . S
C705 N701 1.319 . S
C705 C703 1.397 . S
C706 C703 1.367 . S
C706 C704 1.403 1_455 S
C706 H713 0.929 . S
N707 Eu672 2.562 . S
N707 C708 1.325 . S
N707 C710 1.351 . S
C708 H694 0.929 . S
C708 N707 1.325 . S
C708 C712 1.416 . S
C709 C710 1.430 . S
C709 C711 1.404 . S
C709 C738 1.387 . S
C710 C702 1.448 . S
C710 N707 1.351 . S
C710 C709 1.430 . S
C711 H700 0.930 . S
C711 C709 1.404 . S
C711 C712 1.366 . S
C712 H691 0.930 . S
C712 C708 1.416 . S
C712 C711 1.366 . S
H713 C706 0.929 . S
H714 C737 0.931 . S
H715 C738 0.931 . S
O716 Eu672 2.462 . S
O716 C736 1.252 . S
O717 Eu672 2.373 . S
O717 C728 1.249 . S
O718 Eu683 2.335 1_655 S
O718 C728 1.264 . S
O719 Eu672 2.432 1_455 S
O719 C736 1.268 1_455 S
O720 Eu672 2.291 . S
O720 C735 1.255 . S
O721 Eu683 2.372 1_655 S
O721 C735 1.257 . S
O722 Eu683 2.462 . S
O722 C747 1.252 . S
O723 Eu683 2.373 . S
O723 C739 1.249 . S
O724 Eu672 2.335 1_455 S
O724 C739 1.264 . S
O725 Eu683 2.432 1_655 S
O725 C747 1.268 1_655 S
O726 Eu683 2.291 . S
O726 C746 1.255 . S
O727 Eu672 2.372 1_455 S
O727 C746 1.257 . S
C728 O717 1.249 . S
C728 O718 1.264 . S
C729 C732 1.374 1_655 S
C729 C734 1.390 . S
C729 C736 1.506 . S
C730 C731 1.398 . S
C730 C734 1.392 . S
C731 C730 1.398 . S
C731 C733 1.372 . S
C731 H748 0.931 . S
C732 C729 1.374 1_455 S
C732 C733 1.391 1_455 S
C732 H749 0.938 . S
C733 C731 1.372 . S
C733 C732 1.391 1_655 S
C733 H750 0.929 1_655 S
C734 C729 1.390 . S
C734 C730 1.392 . S
C734 H751 0.930 . S
C735 O720 1.255 . S
C735 O721 1.257 . S
C736 Eu672 2.787 . S
C736 O716 1.252 . S
C736 O719 1.268 1_655 S
C736 C729 1.506 . S
C737 C704 1.439 . S
C737 H714 0.931 . S
C737 C738 1.374 . S
C738 C709 1.387 . S
C738 H715 0.931 . S
C738 C737 1.374 . S
C739 O723 1.249 . S
C739 O724 1.264 . S
C740 C743 1.366 1_455 S
C740 C744 1.390 . S
C740 C747 1.506 . S
C741 C742 1.398 . S
C741 C744 1.392 . S
C742 C741 1.398 . S
C742 C745 1.372 . S
C742 H752 0.931 . S
C743 C740 1.366 1_655 S
C743 C745 1.392 1_655 S
C743 H753 0.945 . S
C744 C740 1.390 . S
C744 C741 1.392 . S
C744 H754 0.930 . S
C745 C742 1.372 . S
C745 C743 1.392 1_455 S
C745 H755 0.929 1_455 S
C746 O726 1.255 . S
C746 O727 1.257 . S
C747 Eu683 2.787 . S
C747 O722 1.252 . S
C747 O725 1.268 1_455 S
C747 C740 1.506 . S
H748 C731 0.931 . S
H749 C732 0.938 . S
H750 C733 0.929 1_455 S
H751 C734 0.930 . S
H752 C742 0.931 . S
H753 C743 0.945 . S
H754 C744 0.930 . S
H755 C745 0.929 1_655 S
Eu756 N785 2.600 . S
Eu756 N791 2.562 . S
Eu756 O800 2.462 . S
Eu756 O801 2.373 . S
Eu756 O803 2.432 . S
Eu756 O804 2.291 . S
Eu756 O808 2.335 . S
Eu756 O811 2.372 . S
Eu756 C820 2.787 . S
C757 N758 1.365 . S
C757 C760 1.405 . S
C757 C764 1.448 . S
N758 C757 1.365 . S
N758 C761 1.319 . S
N758 Eu767 2.600 . S
C759 C761 1.397 . S
C759 C762 1.367 . S
C759 H779 0.931 . S
C760 C757 1.405 . S
C760 C762 1.403 . S
C760 C766 1.439 . S
C761 N758 1.319 . S
C761 C759 1.397 . S
C761 H772 0.930 . S
C762 C759 1.367 . S
C762 C760 1.403 . S
C762 H783 0.929 . S
C763 C764 1.430 . S
C763 C765 1.387 . S
C763 C769 1.404 . S
C764 C757 1.448 . S
C764 C763 1.430 . S
C764 N768 1.351 . S
C765 C763 1.387 . S
C765 C766 1.374 . S
C765 H780 0.931 . S
C766 C760 1.439 . S
C766 C765 1.374 . S
C766 H781 0.931 . S
Eu767 N758 2.600 . S
Eu767 N768 2.562 . S
Eu767 O802 2.335 . S
Eu767 O805 2.372 . S
Eu767 O806 2.462 . S
Eu767 O807 2.373 . S
Eu767 O809 2.432 . S
Eu767 O810 2.291 . S
Eu767 C831 2.787 . S
N768 C764 1.351 . S
N768 Eu767 2.562 . S
N768 C770 1.325 . S
C769 C763 1.404 . S
C769 C771 1.366 . S
C769 H777 0.930 . S
C770 N768 1.325 . S
C770 C771 1.416 . S
C770 H776 0.929 . S
C771 C769 1.366 . S
C771 C770 1.416 . S
C771 H773 0.930 . S
H772 C761 0.930 . S
H773 C771 0.930 . S
H774 C789 0.930 . S
H775 C796 0.930 . S
H776 C770 0.929 . S
H777 C769 0.930 . S
H778 C792 0.929 . S
H779 C759 0.931 . S
H780 C765 0.931 . S
H781 C766 0.931 . S
H782 C787 0.931 . S
H783 C762 0.929 . S
H784 C795 0.930 1_545 S
N785 Eu756 2.600 . S
N785 C786 1.365 . S
N785 C789 1.319 . S
C786 N785 1.365 . S
C786 C788 1.405 . S
C786 C794 1.448 . S
C787 H782 0.931 . S
C787 C789 1.397 . S
C787 C790 1.367 . S
C788 C786 1.405 . S
C788 C790 1.403 . S
C788 C821 1.439 1_565 S
C789 H774 0.930 . S
C789 N785 1.319 . S
C789 C787 1.397 . S
C790 C787 1.367 . S
C790 C788 1.403 . S
C790 H797 0.929 . S
N791 Eu756 2.562 . S
N791 C792 1.325 . S
N791 C794 1.351 . S
C792 H778 0.929 . S
C792 N791 1.325 . S
C792 C796 1.416 . S
C793 C794 1.430 . S
C793 C795 1.404 . S
C793 C822 1.387 1_565 S
C794 C786 1.448 . S
C794 N791 1.351 . S
C794 C793 1.430 . S
C795 H784 0.930 1_565 S
C795 C793 1.404 . S
C795 C796 1.366 . S
C796 H775 0.930 . S
C796 C792 1.416 . S
C796 C795 1.366 . S
H797 C790 0.929 . S
H798 C821 0.931 . S
H799 C822 0.931 . S
O800 Eu756 2.462 . S
O800 C820 1.252 . S
O801 Eu756 2.373 . S
O801 C812 1.249 . S
O802 Eu767 2.335 . S
O802 C812 1.264 . S
O803 Eu756 2.432 . S
O803 C820 1.268 . S
O804 Eu756 2.291 . S
O804 C819 1.255 . S
O805 Eu767 2.372 . S
O805 C819 1.257 . S
O806 Eu767 2.462 . S
O806 C831 1.252 . S
O807 Eu767 2.373 . S
O807 C823 1.249 . S
O808 Eu756 2.335 . S
O808 C823 1.264 . S
O809 Eu767 2.432 . S
O809 C831 1.268 . S
O810 Eu767 2.291 . S
O810 C830 1.255 . S
O811 Eu756 2.372 . S
O811 C830 1.257 . S
C812 O801 1.249 . S
C812 O802 1.264 . S
C813 C816 1.373 1_554 S
C813 C818 1.390 1_554 S
C813 C820 1.506 . S
C814 C815 1.398 . S
C814 C818 1.392 . S
C815 C814 1.398 . S
C815 C817 1.372 . S
C815 H832 0.931 . S
C816 C813 1.373 1_556 S
C816 C817 1.411 . S
C816 H833 0.918 1_556 S
C817 C815 1.372 . S
C817 C816 1.411 . S
C817 H834 0.929 . S
C818 C813 1.390 1_556 S
C818 C814 1.392 . S
C818 H835 0.930 1_556 S
C819 O804 1.255 . S
C819 O805 1.257 . S
C820 Eu756 2.787 . S
C820 O800 1.252 . S
C820 O803 1.268 . S
C820 C813 1.506 . S
C821 C788 1.439 1_545 S
C821 H798 0.931 . S
C821 C822 1.374 . S
C822 C793 1.387 1_545 S
C822 H799 0.931 . S
C822 C821 1.374 . S
C823 O807 1.249 . S
C823 O808 1.264 . S
C824 C827 1.382 . S
C824 C828 1.390 . S
C824 C831 1.506 . S
C825 C826 1.398 . S
C825 C828 1.392 . S
C826 C825 1.398 . S
C826 C829 1.372 . S
C826 H836 0.931 . S
C827 C824 1.382 . S
C827 C829 1.390 . S
C827 H837 0.931 . S
C828 C824 1.390 . S
C828 C825 1.392 . S
C828 H838 0.930 . S
C829 C826 1.372 . S
C829 C827 1.390 . S
C829 H839 0.929 . S
C830 O810 1.255 . S
C830 O811 1.257 . S
C831 Eu767 2.787 . S
C831 O806 1.252 . S
C831 O809 1.268 . S
C831 C824 1.506 . S
H832 C815 0.931 . S
H833 C816 0.918 1_554 S
H834 C817 0.929 . S
H835 C818 0.930 1_554 S
H836 C826 0.931 . S
H837 C827 0.931 . S
H838 C828 0.930 . S
H839 C829 0.929 . S
Eu840 N869 2.600 . S
Eu840 N875 2.562 . S
Eu840 O884 2.462 . S
Eu840 O885 2.373 . S
Eu840 O887 2.432 . S
Eu840 O888 2.291 . S
Eu840 O892 2.335 . S
Eu840 O895 2.372 . S
Eu840 C904 2.787 . S
C841 N842 1.365 . S
C841 C844 1.405 . S
C841 C848 1.448 . S
N842 C841 1.365 . S
N842 C845 1.319 . S
N842 Eu851 2.600 . S
C843 C845 1.397 . S
C843 C846 1.367 . S
C843 H863 0.931 . S
C844 C841 1.405 . S
C844 C846 1.403 . S
C844 C850 1.439 . S
C845 N842 1.319 . S
C845 C843 1.397 . S
C845 H856 0.930 . S
C846 C843 1.367 . S
C846 C844 1.403 . S
C846 H867 0.929 . S
C847 C848 1.430 . S
C847 C849 1.387 . S
C847 C853 1.404 . S
C848 C841 1.448 . S
C848 C847 1.430 . S
C848 N852 1.351 . S
C849 C847 1.387 . S
C849 C850 1.374 . S
C849 H864 0.931 . S
C850 C844 1.439 . S
C850 C849 1.374 . S
C850 H865 0.931 . S
Eu851 N842 2.600 . S
Eu851 N852 2.562 . S
Eu851 O886 2.335 . S
Eu851 O889 2.372 . S
Eu851 O890 2.462 . S
Eu851 O891 2.373 . S
Eu851 O893 2.432 . S
Eu851 O894 2.291 . S
Eu851 C915 2.787 . S
N852 C848 1.351 . S
N852 Eu851 2.562 . S
N852 C854 1.325 . S
C853 C847 1.404 . S
C853 C855 1.366 . S
C853 H861 0.930 . S
C854 N852 1.325 . S
C854 C855 1.416 . S
C854 H860 0.929 . S
C855 C853 1.366 . S
C855 C854 1.416 . S
C855 H857 0.930 . S
H856 C845 0.930 . S
H857 C855 0.930 . S
H858 C873 0.930 . S
H859 C880 0.930 . S
H860 C854 0.929 . S
H861 C853 0.930 . S
H862 C876 0.929 . S
H863 C843 0.931 . S
H864 C849 0.931 . S
H865 C850 0.931 . S
H866 C871 0.931 . S
H867 C846 0.929 . S
H868 C879 0.930 . S
N869 Eu840 2.600 . S
N869 C870 1.365 . S
N869 C873 1.319 . S
C870 N869 1.365 . S
C870 C872 1.405 . S
C870 C878 1.448 . S
C871 H866 0.931 . S
C871 C873 1.397 . S
C871 C874 1.367 . S
C872 C870 1.405 . S
C872 C874 1.403 . S
C872 C905 1.439 1_545 S
C873 H858 0.930 . S
C873 N869 1.319 . S
C873 C871 1.397 . S
C874 C871 1.367 . S
C874 C872 1.403 . S
C874 H881 0.929 . S
N875 Eu840 2.562 . S
N875 C876 1.325 . S
N875 C878 1.351 . S
C876 H862 0.929 . S
C876 N875 1.325 . S
C876 C880 1.416 . S
C877 C878 1.430 . S
C877 C879 1.404 1_545 S
C877 C906 1.387 1_545 S
C878 C870 1.448 . S
C878 N875 1.351 . S
C878 C877 1.430 . S
C879 H868 0.930 . S
C879 C877 1.404 1_565 S
C879 C880 1.366 1_565 S
C880 H859 0.930 . S
C880 C876 1.416 . S
C880 C879 1.366 1_545 S
H881 C874 0.929 . S
H882 C905 0.931 . S
H883 C906 0.931 . S
O884 Eu840 2.462 . S
O884 C904 1.252 . S
O885 Eu840 2.373 . S
O885 C896 1.249 . S
O886 Eu851 2.335 . S
O886 C896 1.264 . S
O887 Eu840 2.432 . S
O887 C904 1.268 . S
O888 Eu840 2.291 . S
O888 C903 1.255 . S
O889 Eu851 2.372 . S
O889 C903 1.257 . S
O890 Eu851 2.462 . S
O890 C915 1.252 . S
O891 Eu851 2.373 . S
O891 C907 1.249 . S
O892 Eu840 2.335 . S
O892 C907 1.264 . S
O893 Eu851 2.432 . S
O893 C915 1.268 . S
O894 Eu851 2.291 . S
O894 C914 1.255 . S
O895 Eu840 2.372 . S
O895 C914 1.257 . S
C896 O885 1.249 . S
C896 O886 1.264 . S
C897 C900 1.382 . S
C897 C902 1.390 . S
C897 C904 1.506 . S
C898 C899 1.398 . S
C898 C902 1.392 1_554 S
C899 C898 1.398 . S
C899 C901 1.372 . S
C899 H916 0.931 . S
C900 C897 1.382 . S
C900 C901 1.390 1_556 S
C900 H917 0.931 . S
C901 C899 1.372 . S
C901 C900 1.390 1_554 S
C901 H918 0.929 . S
C902 C897 1.390 . S
C902 C898 1.392 1_556 S
C902 H919 0.930 . S
C903 O888 1.255 . S
C903 O889 1.257 . S
C904 Eu840 2.787 . S
C904 O884 1.252 . S
C904 O887 1.268 . S
C904 C897 1.506 . S
C905 C872 1.439 1_565 S
C905 H882 0.931 . S
C905 C906 1.374 . S
C906 C877 1.387 1_565 S
C906 H883 0.931 . S
C906 C905 1.374 . S
C907 O891 1.249 . S
C907 O892 1.264 . S
C908 C911 1.382 . S
C908 C912 1.390 . S
C908 C915 1.506 . S
C909 C910 1.398 . S
C909 C912 1.392 . S
C910 C909 1.398 . S
C910 C913 1.372 . S
C910 H920 0.931 . S
C911 C908 1.382 . S
C911 C913 1.390 . S
C911 H921 0.931 . S
C912 C908 1.390 . S
C912 C909 1.392 . S
C912 H922 0.930 . S
C913 C910 1.372 . S
C913 C911 1.390 . S
C913 H923 0.929 . S
C914 O894 1.255 . S
C914 O895 1.257 . S
C915 Eu851 2.787 . S
C915 O890 1.252 . S
C915 O893 1.268 . S
C915 C908 1.506 . S
H916 C899 0.931 . S
H917 C900 0.931 . S
H918 C901 0.929 . S
H919 C902 0.930 . S
H920 C910 0.931 . S
H921 C911 0.931 . S
H922 C912 0.930 . S
H923 C913 0.929 . S
Eu924 N953 2.600 1_655 S
Eu924 N959 2.562 . S
Eu924 O968 2.462 . S
Eu924 O969 2.373 . S
Eu924 O971 2.432 . S
Eu924 O972 2.291 . S
Eu924 O976 2.335 . S
Eu924 O979 2.372 . S
Eu924 C988 2.787 . S
C925 N926 1.365 . S
C925 C928 1.405 . S
C925 C932 1.448 . S
N926 C925 1.365 . S
N926 C929 1.319 . S
N926 Eu935 2.600 . S
C927 C929 1.397 . S
C927 C930 1.367 . S
C927 H947 0.931 . S
C928 C925 1.405 . S
C928 C930 1.403 . S
C928 C934 1.439 . S
C929 N926 1.319 . S
C929 C927 1.397 . S
C929 H940 0.930 . S
C930 C927 1.367 . S
C930 C928 1.403 . S
C930 H951 0.929 . S
C931 C932 1.430 . S
C931 C933 1.387 . S
C931 C937 1.404 . S
C932 C925 1.448 . S
C932 C931 1.430 . S
C932 N936 1.351 . S
C933 C931 1.387 . S
C933 C934 1.374 . S
C933 H948 0.931 . S
C934 C928 1.439 . S
C934 C933 1.374 . S
C934 H949 0.931 . S
Eu935 N926 2.600 . S
Eu935 N936 2.562 . S
Eu935 O970 2.335 . S
Eu935 O973 2.372 . S
Eu935 O974 2.462 . S
Eu935 O975 2.373 . S
Eu935 O977 2.432 . S
Eu935 O978 2.291 . S
Eu935 C999 2.787 . S
N936 C932 1.351 . S
N936 Eu935 2.562 . S
N936 C938 1.325 . S
C937 C931 1.404 . S
C937 C939 1.366 . S
C937 H945 0.930 . S
C938 N936 1.325 . S
C938 C939 1.416 . S
C938 H944 0.929 . S
C939 C937 1.366 . S
C939 C938 1.416 . S
C939 H941 0.930 . S
H940 C929 0.930 . S
H941 C939 0.930 . S
H942 C957 0.930 . S
H943 C964 0.930 . S
H944 C938 0.929 . S
H945 C937 0.930 . S
H946 C960 0.929 . S
H947 C927 0.931 . S
H948 C933 0.931 . S
H949 C934 0.931 . S
H950 C955 0.931 . S
H951 C930 0.929 . S
H952 C963 0.930 . S
N953 Eu924 2.600 1_455 S
N953 C954 1.365 . S
N953 C957 1.319 . S
C954 N953 1.365 . S
C954 C956 1.405 . S
C954 C962 1.448 . S
C955 H950 0.931 . S
C955 C957 1.397 . S
C955 C958 1.367 . S
C956 C954 1.405 . S
C956 C958 1.403 . S
C956 C989 1.439 . S
C957 H942 0.930 . S
C957 N953 1.319 . S
C957 C955 1.397 . S
C958 C955 1.367 . S
C958 C956 1.403 . S
C958 H965 0.929 . S
N959 Eu924 2.562 . S
N959 C960 1.325 . S
N959 C962 1.351 1_655 S
C960 H946 0.929 . S
C960 N959 1.325 . S
C960 C964 1.416 . S
C961 C962 1.430 . S
C961 C963 1.404 1_455 S
C961 C990 1.387 . S
C962 C954 1.448 . S
C962 N959 1.351 1_455 S
C962 C961 1.430 . S
C963 H952 0.930 . S
C963 C961 1.404 1_655 S
C963 C964 1.366 . S
C964 H943 0.930 . S
C964 C960 1.416 . S
C964 C963 1.366 . S
H965 C958 0.929 . S
H966 C989 0.931 . S
H967 C990 0.931 . S
O968 Eu924 2.462 . S
O968 C988 1.252 . S
O969 Eu924 2.373 . S
O969 C980 1.249 . S
O970 Eu935 2.335 . S
O970 C980 1.264 . S
O971 Eu924 2.432 . S
O971 C988 1.268 . S
O972 Eu924 2.291 . S
O972 C987 1.255 . S
O973 Eu935 2.372 . S
O973 C987 1.257 . S
O974 Eu935 2.462 . S
O974 C999 1.252 . S
O975 Eu935 2.373 . S
O975 C991 1.249 . S
O976 Eu924 2.335 . S
O976 C991 1.264 . S
O977 Eu935 2.432 . S
O977 C999 1.268 . S
O978 Eu935 2.291 . S
O978 C998 1.255 . S
O979 Eu924 2.372 . S
O979 C998 1.257 . S
C980 O969 1.249 . S
C980 O970 1.264 . S
C981 C984 1.382 1_655 S
C981 C986 1.390 . S
C981 C988 1.506 . S
C982 C983 1.398 1_655 S
C982 C986 1.392 . S
C983 C982 1.398 1_455 S
C983 C985 1.372 . S
C983 H1000 0.931 . S
C984 C981 1.382 1_455 S
C984 C985 1.390 . S
C984 H1001 0.931 . S
C985 C983 1.372 . S
C985 C984 1.390 . S
C985 H1002 0.929 . S
C986 C981 1.390 . S
C986 C982 1.392 . S
C986 H1003 0.930 . S
C987 O972 1.255 . S
C987 O973 1.257 . S
C988 Eu924 2.787 . S
C988 O968 1.252 . S
C988 O971 1.268 . S
C988 C981 1.506 . S
C989 C956 1.439 . S
C989 H966 0.931 . S
C989 C990 1.374 . S
C990 C961 1.387 . S
C990 H967 0.931 . S
C990 C989 1.374 . S
C991 O975 1.249 . S
C991 O976 1.264 . S
C992 C995 1.382 . S
C992 C996 1.390 . S
C992 C999 1.506 . S
C993 C994 1.398 . S
C993 C996 1.392 . S
C994 C993 1.398 . S
C994 C997 1.372 . S
C994 H1004 0.931 . S
C995 C992 1.382 . S
C995 C997 1.390 . S
C995 H1005 0.931 . S
C996 C992 1.390 . S
C996 C993 1.392 . S
C996 H1006 0.930 . S
C997 C994 1.372 . S
C997 C995 1.390 . S
C997 H1007 0.929 . S
C998 O978 1.255 . S
C998 O979 1.257 . S
C999 Eu935 2.787 . S
C999 O974 1.252 . S
C999 O977 1.268 . S
C999 C992 1.506 . S
H1000 C983 0.931 . S
H1001 C984 0.931 . S
H1002 C985 0.929 . S
H1003 C986 0.930 . S
H1004 C994 0.931 . S
H1005 C995 0.931 . S
H1006 C996 0.930 . S
H1007 C997 0.929 . S
Eu1008 N1037 2.600 . S
Eu1008 N1043 2.562 . S
Eu1008 O1052 2.462 . S
Eu1008 O1053 2.373 . S
Eu1008 O1055 2.432 . S
Eu1008 O1056 2.291 . S
Eu1008 O1060 2.335 . S
Eu1008 O1063 2.372 . S
Eu1008 C1072 2.787 . S
C1009 N1010 1.365 . S
C1009 C1012 1.405 . S
C1009 C1016 1.448 . S
N1010 C1009 1.365 . S
N1010 C1013 1.319 . S
N1010 Eu1019 2.600 . S
C1011 C1013 1.397 . S
C1011 C1014 1.367 . S
C1011 H1031 0.931 . S
C1012 C1009 1.405 . S
C1012 C1014 1.403 . S
C1012 C1018 1.439 . S
C1013 N1010 1.319 . S
C1013 C1011 1.397 . S
C1013 H1024 0.930 . S
C1014 C1011 1.367 . S
C1014 C1012 1.403 . S
C1014 H1035 0.929 . S
C1015 C1016 1.430 . S
C1015 C1017 1.387 . S
C1015 C1021 1.404 . S
C1016 C1009 1.448 . S
C1016 C1015 1.430 . S
C1016 N1020 1.351 . S
C1017 C1015 1.387 . S
C1017 C1018 1.374 . S
C1017 H1032 0.931 . S
C1018 C1012 1.439 . S
C1018 C1017 1.374 . S
C1018 H1033 0.931 . S
Eu1019 N1010 2.600 . S
Eu1019 N1020 2.562 . S
Eu1019 O1054 2.335 . S
Eu1019 O1057 2.372 . S
Eu1019 O1058 2.462 . S
Eu1019 O1059 2.373 . S
Eu1019 O1061 2.432 . S
Eu1019 O1062 2.291 . S
Eu1019 C1083 2.787 . S
N1020 C1016 1.351 . S
N1020 Eu1019 2.562 . S
N1020 C1022 1.325 . S
C1021 C1015 1.404 . S
C1021 C1023 1.366 . S
C1021 H1029 0.930 . S
C1022 N1020 1.325 . S
C1022 C1023 1.416 . S
C1022 H1028 0.929 . S
C1023 C1021 1.366 . S
C1023 C1022 1.416 . S
C1023 H1025 0.930 . S
H1024 C1013 0.930 . S
H1025 C1023 0.930 . S
H1026 C1041 0.930 . S
H1027 C1048 0.930 . S
H1028 C1022 0.929 . S
H1029 C1021 0.930 . S
H1030 C1044 0.929 . S
H1031 C1011 0.931 . S
H1032 C1017 0.931 . S
H1033 C1018 0.931 . S
H1034 C1039 0.931 . S
H1035 C1014 0.929 . S
H1036 C1047 0.930 . S
N1037 Eu1008 2.600 . S
N1037 C1038 1.365 . S
N1037 C1041 1.319 . S
C1038 N1037 1.365 . S
C1038 C1040 1.405 . S
C1038 C1046 1.448 . S
C1039 H1034 0.931 . S
C1039 C1041 1.397 . S
C1039 C1042 1.367 . S
C1040 C1038 1.405 . S
C1040 C1042 1.403 . S
C1040 C1073 1.439 . S
C1041 H1026 0.930 . S
C1041 N1037 1.319 . S
C1041 C1039 1.397 . S
C1042 C1039 1.367 . S
C1042 C1040 1.403 . S
C1042 H1049 0.929 . S
N1043 Eu1008 2.562 . S
N1043 C1044 1.325 . S
N1043 C1046 1.351 . S
C1044 H1030 0.929 . S
C1044 N1043 1.325 . S
C1044 C1048 1.416 . S
C1045 C1046 1.430 . S
C1045 C1047 1.404 . S
C1045 C1074 1.387 . S
C1046 C1038 1.448 . S
C1046 N1043 1.351 . S
C1046 C1045 1.430 . S
C1047 H1036 0.930 . S
C1047 C1045 1.404 . S
C1047 C1048 1.366 . S
C1048 H1027 0.930 . S
C1048 C1044 1.416 . S
C1048 C1047 1.366 . S
H1049 C1042 0.929 . S
H1050 C1073 0.931 . S
H1051 C1074 0.931 . S
O1052 Eu1008 2.462 . S
O1052 C1072 1.252 . S
O1053 Eu1008 2.373 . S
O1053 C1064 1.249 . S
O1054 Eu1019 2.335 . S
O1054 C1064 1.264 . S
O1055 Eu1008 2.432 . S
O1055 C1072 1.268 . S
O1056 Eu1008 2.291 . S
O1056 C1071 1.255 . S
O1057 Eu1019 2.372 . S
O1057 C1071 1.257 . S
O1058 Eu1019 2.462 . S
O1058 C1083 1.252 . S
O1059 Eu1019 2.373 . S
O1059 C1075 1.249 . S
O1060 Eu1008 2.335 . S
O1060 C1075 1.264 . S
O1061 Eu1019 2.432 . S
O1061 C1083 1.268 . S
O1062 Eu1019 2.291 . S
O1062 C1082 1.255 . S
O1063 Eu1008 2.372 . S
O1063 C1082 1.257 . S
C1064 O1053 1.249 . S
C1064 O1054 1.264 . S
C1065 C1068 1.382 . S
C1065 C1070 1.390 . S
C1065 C1072 1.506 . S
C1066 C1067 1.398 . S
C1066 C1070 1.392 . S
C1067 C1066 1.398 . S
C1067 C1069 1.372 . S
C1067 H1084 0.931 . S
C1068 C1065 1.382 . S
C1068 C1069 1.390 . S
C1068 H1085 0.931 . S
C1069 C1067 1.372 . S
C1069 C1068 1.390 . S
C1069 H1086 0.929 . S
C1070 C1065 1.390 . S
C1070 C1066 1.392 . S
C1070 H1087 0.930 . S
C1071 O1056 1.255 . S
C1071 O1057 1.257 . S
C1072 Eu1008 2.787 . S
C1072 O1052 1.252 . S
C1072 O1055 1.268 . S
C1072 C1065 1.506 . S
C1073 C1040 1.439 . S
C1073 H1050 0.931 . S
C1073 C1074 1.374 . S
C1074 C1045 1.387 . S
C1074 H1051 0.931 . S
C1074 C1073 1.374 . S
C1075 O1059 1.249 . S
C1075 O1060 1.264 . S
C1076 C1079 1.382 . S
C1076 C1080 1.390 . S
C1076 C1083 1.506 . S
C1077 C1078 1.398 . S
C1077 C1080 1.392 . S
C1078 C1077 1.398 . S
C1078 C1081 1.372 . S
C1078 H1088 0.931 . S
C1079 C1076 1.382 . S
C1079 C1081 1.390 . S
C1079 H1089 0.931 . S
C1080 C1076 1.390 . S
C1080 C1077 1.392 . S
C1080 H1090 0.930 . S
C1081 C1078 1.372 . S
C1081 C1079 1.390 . S
C1081 H1091 0.929 . S
C1082 O1062 1.255 . S
C1082 O1063 1.257 . S
C1083 Eu1019 2.787 . S
C1083 O1058 1.252 . S
C1083 O1061 1.268 . S
C1083 C1076 1.506 . S
H1084 C1067 0.931 . S
H1085 C1068 0.931 . S
H1086 C1069 0.929 . S
H1087 C1070 0.930 . S
H1088 C1078 0.931 . S
H1089 C1079 0.931 . S
H1090 C1080 0.930 . S
H1091 C1081 0.929 . S
Eu1092 N1121 2.600 . S
Eu1092 N1127 2.562 . S
Eu1092 O1136 2.462 . S
Eu1092 O1137 2.373 . S
Eu1092 O1139 2.432 . S
Eu1092 O1140 2.291 . S
Eu1092 O1144 2.335 . S
Eu1092 O1147 2.372 . S
Eu1092 C1156 2.787 . S
C1093 N1094 1.365 . S
C1093 C1096 1.405 . S
C1093 C1100 1.448 . S
N1094 C1093 1.365 . S
N1094 C1097 1.319 . S
N1094 Eu1103 2.600 . S
C1095 C1097 1.397 . S
C1095 C1098 1.367 . S
C1095 H1115 0.931 . S
C1096 C1093 1.405 . S
C1096 C1098 1.403 . S
C1096 C1102 1.439 . S
C1097 N1094 1.319 . S
C1097 C1095 1.397 . S
C1097 H1108 0.930 . S
C1098 C1095 1.367 . S
C1098 C1096 1.403 . S
C1098 H1119 0.929 . S
C1099 C1100 1.430 . S
C1099 C1101 1.387 . S
C1099 C1105 1.404 . S
C1100 C1093 1.448 . S
C1100 C1099 1.430 . S
C1100 N1104 1.351 . S
C1101 C1099 1.387 . S
C1101 C1102 1.374 . S
C1101 H1116 0.931 1_455 S
C1102 C1096 1.439 . S
C1102 C1101 1.374 . S
C1102 H1117 0.931 1_455 S
Eu1103 N1094 2.600 . S
Eu1103 N1104 2.562 . S
Eu1103 O1138 2.335 . S
Eu1103 O1141 2.372 . S
Eu1103 O1142 2.462 . S
Eu1103 O1143 2.373 . S
Eu1103 O1145 2.432 . S
Eu1103 O1146 2.291 . S
Eu1103 C1167 2.787 1_554 S
N1104 C1100 1.351 . S
N1104 Eu1103 2.562 . S
N1104 C1106 1.325 . S
C1105 C1099 1.404 . S
C1105 C1107 1.366 . S
C1105 H1113 0.930 . S
C1106 N1104 1.325 . S
C1106 C1107 1.416 . S
C1106 H1112 0.929 . S
C1107 C1105 1.366 . S
C1107 C1106 1.416 . S
C1107 H1109 0.930 . S
H1108 C1097 0.930 . S
H1109 C1107 0.930 . S
H1110 C1125 0.930 . S
H1111 C1132 0.930 . S
H1112 C1106 0.929 . S
H1113 C1105 0.930 . S
H1114 C1128 0.929 . S
H1115 C1095 0.931 . S
H1116 C1101 0.931 1_655 S
H1117 C1102 0.931 1_655 S
H1118 C1123 0.931 . S
H1119 C1098 0.929 . S
H1120 C1131 0.930 . S
N1121 Eu1092 2.600 . S
N1121 C1122 1.365 . S
N1121 C1125 1.319 . S
C1122 N1121 1.365 . S
C1122 C1124 1.405 . S
C1122 C1130 1.448 . S
C1123 H1118 0.931 . S
C1123 C1125 1.397 . S
C1123 C1126 1.367 . S
C1124 C1122 1.405 . S
C1124 C1126 1.403 . S
C1124 C1157 1.439 . S
C1125 H1110 0.930 . S
C1125 N1121 1.319 . S
C1125 C1123 1.397 . S
C1126 C1123 1.367 . S
C1126 C1124 1.403 . S
C1126 H1133 0.929 . S
N1127 Eu1092 2.562 . S
N1127 C1128 1.325 . S
N1127 C1130 1.351 . S
C1128 H1114 0.929 . S
C1128 N1127 1.325 . S
C1128 C1132 1.416 . S
C1129 C1130 1.430 . S
C1129 C1131 1.404 . S
C1129 C1158 1.387 . S
C1130 C1122 1.448 . S
C1130 N1127 1.351 . S
C1130 C1129 1.430 . S
C1131 H1120 0.930 . S
C1131 C1129 1.404 . S
C1131 C1132 1.366 . S
C1132 H1111 0.930 . S
C1132 C1128 1.416 . S
C1132 C1131 1.366 . S
H1133 C1126 0.929 . S
H1134 C1157 0.931 . S
H1135 C1158 0.931 . S
O1136 Eu1092 2.462 . S
O1136 C1156 1.252 . S
O1137 Eu1092 2.373 . S
O1137 C1148 1.249 . S
O1138 Eu1103 2.335 . S
O1138 C1148 1.264 . S
O1139 Eu1092 2.432 . S
O1139 C1156 1.268 . S
O1140 Eu1092 2.291 . S
O1140 C1155 1.255 . S
O1141 Eu1103 2.372 . S
O1141 C1155 1.257 . S
O1142 Eu1103 2.462 . S
O1142 C1167 1.252 1_554 S
O1143 Eu1103 2.373 . S
O1143 C1159 1.249 . S
O1144 Eu1092 2.335 . S
O1144 C1159 1.264 . S
O1145 Eu1103 2.432 . S
O1145 C1167 1.268 1_554 S
O1146 Eu1103 2.291 . S
O1146 C1166 1.255 . S
O1147 Eu1092 2.372 . S
O1147 C1166 1.257 . S
C1148 O1137 1.249 . S
C1148 O1138 1.264 . S
C1149 C1152 1.382 . S
C1149 C1154 1.390 . S
C1149 C1156 1.506 . S
C1150 C1151 1.398 . S
C1150 C1154 1.392 . S
C1151 C1150 1.398 . S
C1151 C1153 1.372 . S
C1151 H1168 0.931 . S
C1152 C1149 1.382 . S
C1152 C1153 1.390 . S
C1152 H1169 0.931 . S
C1153 C1151 1.372 . S
C1153 C1152 1.390 . S
C1153 H1170 0.929 . S
C1154 C1149 1.390 . S
C1154 C1150 1.392 . S
C1154 H1171 0.930 . S
C1155 O1140 1.255 . S
C1155 O1141 1.257 . S
C1156 Eu1092 2.787 . S
C1156 O1136 1.252 . S
C1156 O1139 1.268 . S
C1156 C1149 1.506 . S
C1157 C1124 1.439 . S
C1157 H1134 0.931 . S
C1157 C1158 1.374 . S
C1158 C1129 1.387 . S
C1158 H1135 0.931 . S
C1158 C1157 1.374 . S
C1159 O1143 1.249 . S
C1159 O1144 1.264 . S
C1160 C1163 1.382 . S
C1160 C1164 1.390 . S
C1160 C1167 1.506 . S
C1161 C1162 1.398 . S
C1161 C1164 1.392 . S
C1162 C1161 1.398 . S
C1162 C1165 1.372 . S
C1162 H1172 0.931 . S
C1163 C1160 1.382 . S
C1163 C1165 1.390 . S
C1163 H1173 0.931 . S
C1164 C1160 1.390 . S
C1164 C1161 1.392 . S
C1164 H1174 0.930 . S
C1165 C1162 1.372 . S
C1165 C1163 1.390 . S
C1165 H1175 0.929 . S
C1166 O1146 1.255 . S
C1166 O1147 1.257 . S
C1167 Eu1103 2.787 1_556 S
C1167 O1142 1.252 1_556 S
C1167 O1145 1.268 1_556 S
C1167 C1160 1.506 . S
H1168 C1151 0.931 . S
H1169 C1152 0.931 . S
H1170 C1153 0.929 . S
H1171 C1154 0.930 . S
H1172 C1162 0.931 . S
H1173 C1163 0.931 . S
H1174 C1164 0.930 . S
H1175 C1165 0.929 . S
Eu1176 N1205 2.600 . S
Eu1176 N1211 2.562 . S
Eu1176 O1220 2.462 . S
Eu1176 O1221 2.373 . S
Eu1176 O1223 2.432 . S
Eu1176 O1224 2.291 . S
Eu1176 O1228 2.335 . S
Eu1176 O1231 2.372 . S
Eu1176 C1240 2.787 . S
C1177 N1178 1.365 . S
C1177 C1180 1.405 . S
C1177 C1184 1.448 . S
N1178 C1177 1.365 . S
N1178 C1181 1.319 . S
N1178 Eu1187 2.600 . S
C1179 C1181 1.397 . S
C1179 C1182 1.367 . S
C1179 H1199 0.931 . S
C1180 C1177 1.405 . S
C1180 C1182 1.403 . S
C1180 C1186 1.439 . S
C1181 N1178 1.319 . S
C1181 C1179 1.397 . S
C1181 H1192 0.930 . S
C1182 C1179 1.367 . S
C1182 C1180 1.403 . S
C1182 H1203 0.929 . S
C1183 C1184 1.430 . S
C1183 C1185 1.387 . S
C1183 C1189 1.404 . S
C1184 C1177 1.448 . S
C1184 C1183 1.430 . S
C1184 N1188 1.351 . S
C1185 C1183 1.387 . S
C1185 C1186 1.374 . S
C1185 H1200 0.931 . S
C1186 C1180 1.439 . S
C1186 C1185 1.374 . S
C1186 H1201 0.931 . S
Eu1187 N1178 2.600 . S
Eu1187 N1188 2.562 . S
Eu1187 O1222 2.335 . S
Eu1187 O1225 2.372 . S
Eu1187 O1226 2.462 . S
Eu1187 O1227 2.373 . S
Eu1187 O1229 2.432 . S
Eu1187 O1230 2.291 . S
Eu1187 C1251 2.787 . S
N1188 C1184 1.351 . S
N1188 Eu1187 2.562 . S
N1188 C1190 1.325 . S
C1189 C1183 1.404 . S
C1189 C1191 1.366 . S
C1189 H1197 0.930 . S
C1190 N1188 1.325 . S
C1190 C1191 1.416 . S
C1190 H1196 0.929 . S
C1191 C1189 1.366 . S
C1191 C1190 1.416 . S
C1191 H1193 0.930 . S
H1192 C1181 0.930 . S
H1193 C1191 0.930 . S
H1194 C1209 0.930 . S
H1195 C1216 0.930 . S
H1196 C1190 0.929 . S
H1197 C1189 0.930 . S
H1198 C1212 0.929 . S
H1199 C1179 0.931 . S
H1200 C1185 0.931 . S
H1201 C1186 0.931 . S
H1202 C1207 0.931 . S
H1203 C1182 0.929 . S
H1204 C1215 0.930 . S
N1205 Eu1176 2.600 . S
N1205 C1206 1.365 . S
N1205 C1209 1.319 . S
C1206 N1205 1.365 . S
C1206 C1208 1.405 . S
C1206 C1214 1.448 . S
C1207 H1202 0.931 . S
C1207 C1209 1.397 . S
C1207 C1210 1.367 . S
C1208 C1206 1.405 . S
C1208 C1210 1.403 . S
C1208 C1241 1.439 . S
C1209 H1194 0.930 . S
C1209 N1205 1.319 . S
C1209 C1207 1.397 . S
C1210 C1207 1.367 . S
C1210 C1208 1.403 . S
C1210 H1217 0.929 . S
N1211 Eu1176 2.562 . S
N1211 C1212 1.325 . S
N1211 C1214 1.351 . S
C1212 H1198 0.929 . S
C1212 N1211 1.325 . S
C1212 C1216 1.416 . S
C1213 C1214 1.430 . S
C1213 C1215 1.404 . S
C1213 C1242 1.387 . S
C1214 C1206 1.448 . S
C1214 N1211 1.351 . S
C1214 C1213 1.430 . S
C1215 H1204 0.930 . S
C1215 C1213 1.404 . S
C1215 C1216 1.366 . S
C1216 H1195 0.930 . S
C1216 C1212 1.416 . S
C1216 C1215 1.366 . S
H1217 C1210 0.929 . S
H1218 C1241 0.931 . S
H1219 C1242 0.931 . S
O1220 Eu1176 2.462 . S
O1220 C1240 1.252 . S
O1221 Eu1176 2.373 . S
O1221 C1232 1.249 . S
O1222 Eu1187 2.335 . S
O1222 C1232 1.264 . S
O1223 Eu1176 2.432 . S
O1223 C1240 1.268 . S
O1224 Eu1176 2.291 . S
O1224 C1239 1.255 . S
O1225 Eu1187 2.372 . S
O1225 C1239 1.257 . S
O1226 Eu1187 2.462 . S
O1226 C1251 1.252 . S
O1227 Eu1187 2.373 . S
O1227 C1243 1.249 . S
O1228 Eu1176 2.335 . S
O1228 C1243 1.264 . S
O1229 Eu1187 2.432 . S
O1229 C1251 1.268 . S
O1230 Eu1187 2.291 . S
O1230 C1250 1.255 . S
O1231 Eu1176 2.372 . S
O1231 C1250 1.257 . S
C1232 O1221 1.249 . S
C1232 O1222 1.264 . S
C1233 C1236 1.382 . S
C1233 C1238 1.390 . S
C1233 C1240 1.506 . S
C1234 C1235 1.398 . S
C1234 C1238 1.392 . S
C1235 C1234 1.398 . S
C1235 C1237 1.372 . S
C1235 H1252 0.931 . S
C1236 C1233 1.382 . S
C1236 C1237 1.390 . S
C1236 H1253 0.931 . S
C1237 C1235 1.372 . S
C1237 C1236 1.390 . S
C1237 H1254 0.929 . S
C1238 C1233 1.390 . S
C1238 C1234 1.392 . S
C1238 H1255 0.930 . S
C1239 O1224 1.255 . S
C1239 O1225 1.257 . S
C1240 Eu1176 2.787 . S
C1240 O1220 1.252 . S
C1240 O1223 1.268 . S
C1240 C1233 1.506 . S
C1241 C1208 1.439 . S
C1241 H1218 0.931 . S
C1241 C1242 1.374 . S
C1242 C1213 1.387 . S
C1242 H1219 0.931 . S
C1242 C1241 1.374 . S
C1243 O1227 1.249 . S
C1243 O1228 1.264 . S
C1244 C1247 1.382 . S
C1244 C1248 1.390 . S
C1244 C1251 1.506 . S
C1245 C1246 1.398 . S
C1245 C1248 1.392 . S
C1246 C1245 1.398 . S
C1246 C1249 1.372 . S
C1246 H1256 0.931 . S
C1247 C1244 1.382 . S
C1247 C1249 1.390 . S
C1247 H1257 0.931 . S
C1248 C1244 1.390 . S
C1248 C1245 1.392 . S
C1248 H1258 0.930 . S
C1249 C1246 1.372 . S
C1249 C1247 1.390 . S
C1249 H1259 0.929 . S
C1250 O1230 1.255 . S
C1250 O1231 1.257 . S
C1251 Eu1187 2.787 . S
C1251 O1226 1.252 . S
C1251 O1229 1.268 . S
C1251 C1244 1.506 . S
H1252 C1235 0.931 . S
H1253 C1236 0.931 . S
H1254 C1237 0.929 . S
H1255 C1238 0.930 . S
H1256 C1246 0.931 . S
H1257 C1247 0.931 . S
H1258 C1248 0.930 . S
H1259 C1249 0.929 . S
Eu1260 N1289 2.600 . S
Eu1260 N1295 2.562 . S
Eu1260 O1304 2.462 . S
Eu1260 O1305 2.373 . S
Eu1260 O1307 2.432 . S
Eu1260 O1308 2.291 . S
Eu1260 O1312 2.335 . S
Eu1260 O1315 2.372 . S
Eu1260 C1324 2.787 1_556 S
C1261 N1262 1.365 . S
C1261 C1264 1.405 . S
C1261 C1268 1.448 . S
N1262 C1261 1.365 . S
N1262 C1265 1.319 . S
N1262 Eu1271 2.600 . S
C1263 C1265 1.397 . S
C1263 C1266 1.367 . S
C1263 H1283 0.931 . S
C1264 C1261 1.405 . S
C1264 C1266 1.403 . S
C1264 C1270 1.439 . S
C1265 N1262 1.319 . S
C1265 C1263 1.397 . S
C1265 H1276 0.930 . S
C1266 C1263 1.367 . S
C1266 C1264 1.403 . S
C1266 H1287 0.929 . S
C1267 C1268 1.430 . S
C1267 C1269 1.387 . S
C1267 C1273 1.404 . S
C1268 C1261 1.448 . S
C1268 C1267 1.430 . S
C1268 N1272 1.351 . S
C1269 C1267 1.387 . S
C1269 C1270 1.374 . S
C1269 H1284 0.931 . S
C1270 C1264 1.439 . S
C1270 C1269 1.374 . S
C1270 H1285 0.931 . S
Eu1271 N1262 2.600 . S
Eu1271 N1272 2.562 . S
Eu1271 O1306 2.362 . S
Eu1271 O1309 2.372 . S
Eu1271 O1310 2.462 . S
Eu1271 O1311 2.373 . S
Eu1271 O1313 2.432 . S
Eu1271 O1314 2.291 . S
Eu1271 C1335 2.787 . S
N1272 C1268 1.351 . S
N1272 Eu1271 2.562 . S
N1272 C1274 1.325 . S
C1273 C1267 1.404 . S
C1273 C1275 1.366 . S
C1273 H1281 0.930 . S
C1274 N1272 1.325 . S
C1274 C1275 1.416 . S
C1274 H1280 0.929 . S
C1275 C1273 1.366 . S
C1275 C1274 1.416 . S
C1275 H1277 0.930 . S
H1276 C1265 0.930 . S
H1277 C1275 0.930 . S
H1278 C1293 0.930 . S
H1279 C1300 0.930 . S
H1280 C1274 0.929 . S
H1281 C1273 0.930 . S
H1282 C1296 0.929 . S
H1283 C1263 0.931 . S
H1284 C1269 0.931 . S
H1285 C1270 0.931 . S
H1286 C1291 0.931 . S
H1287 C1266 0.929 . S
H1288 C1299 0.930 . S
N1289 Eu1260 2.600 . S
N1289 C1290 1.365 . S
N1289 C1293 1.319 . S
C1290 N1289 1.365 . S
C1290 C1292 1.405 . S
C1290 C1298 1.448 . S
C1291 H1286 0.931 . S
C1291 C1293 1.397 . S
C1291 C1294 1.367 . S
C1292 C1290 1.405 . S
C1292 C1294 1.403 . S
C1292 C1325 1.439 . S
C1293 H1278 0.930 . S
C1293 N1289 1.319 . S
C1293 C1291 1.397 . S
C1294 C1291 1.367 . S
C1294 C1292 1.403 . S
C1294 H1301 0.929 . S
N1295 Eu1260 2.562 . S
N1295 C1296 1.325 . S
N1295 C1298 1.351 . S
C1296 H1282 0.929 . S
C1296 N1295 1.325 . S
C1296 C1300 1.416 . S
C1297 C1298 1.430 . S
C1297 C1299 1.404 . S
C1297 C1326 1.387 . S
C1298 C1290 1.448 . S
C1298 N1295 1.351 . S
C1298 C1297 1.430 . S
C1299 H1288 0.930 . S
C1299 C1297 1.404 . S
C1299 C1300 1.366 . S
C1300 H1279 0.930 . S
C1300 C1296 1.416 . S
C1300 C1299 1.366 . S
H1301 C1294 0.929 . S
H1302 C1325 0.931 . S
H1303 C1326 0.931 . S
O1304 Eu1260 2.462 . S
O1304 C1324 1.252 1_556 S
O1305 Eu1260 2.373 . S
O1305 C1316 1.249 . S
O1306 Eu1271 2.362 . S
O1306 C1316 1.236 1_655 S
O1307 Eu1260 2.432 . S
O1307 C1324 1.268 1_556 S
O1308 Eu1260 2.291 . S
O1308 C1323 1.255 1_455 S
O1309 Eu1271 2.372 . S
O1309 C1323 1.257 . S
O1310 Eu1271 2.462 . S
O1310 C1335 1.252 . S
O1311 Eu1271 2.373 . S
O1311 C1327 1.249 . S
O1312 Eu1260 2.335 . S
O1312 C1327 1.264 1_455 S
O1313 Eu1271 2.432 . S
O1313 C1335 1.268 . S
O1314 Eu1271 2.291 . S
O1314 C1334 1.255 1_655 S
O1315 Eu1260 2.372 . S
O1315 C1334 1.257 . S
C1316 O1305 1.249 . S
C1316 O1306 1.236 1_455 S
C1317 C1320 1.382 . S
C1317 C1322 1.390 . S
C1317 C1324 1.506 . S
C1318 C1319 1.398 . S
C1318 C1322 1.392 . S
C1319 C1318 1.398 . S
C1319 C1321 1.372 . S
C1319 H1336 0.931 . S
C1320 C1317 1.382 . S
C1320 C1321 1.390 . S
C1320 H1337 0.931 . S
C1321 C1319 1.372 . S
C1321 C1320 1.390 . S
C1321 H1338 0.929 . S
C1322 C1317 1.390 . S
C1322 C1318 1.392 . S
C1322 H1339 0.930 . S
C1323 O1308 1.255 1_655 S
C1323 O1309 1.257 . S
C1324 Eu1260 2.787 1_554 S
C1324 O1304 1.252 1_554 S
C1324 O1307 1.268 1_554 S
C1324 C1317 1.506 . S
C1325 C1292 1.439 . S
C1325 H1302 0.931 . S
C1325 C1326 1.374 . S
C1326 C1297 1.387 . S
C1326 H1303 0.931 . S
C1326 C1325 1.374 . S
C1327 O1311 1.249 . S
C1327 O1312 1.264 1_655 S
C1328 C1331 1.382 . S
C1328 C1332 1.390 . S
C1328 C1335 1.506 . S
C1329 C1330 1.398 . S
C1329 C1332 1.392 . S
C1330 C1329 1.398 . S
C1330 C1333 1.372 . S
C1330 H1340 0.931 . S
C1331 C1328 1.382 . S
C1331 C1333 1.390 . S
C1331 H1341 0.931 . S
C1332 C1328 1.390 . S
C1332 C1329 1.392 . S
C1332 H1342 0.930 . S
C1333 C1330 1.372 . S
C1333 C1331 1.390 . S
C1333 H1343 0.929 . S
C1334 O1314 1.255 1_455 S
C1334 O1315 1.257 . S
C1335 Eu1271 2.787 . S
C1335 O1310 1.252 . S
C1335 O1313 1.268 . S
C1335 C1328 1.506 . S
H1336 C1319 0.931 . S
H1337 C1320 0.931 . S
H1338 C1321 0.929 . S
H1339 C1322 0.930 . S
H1340 C1330 0.931 . S
H1341 C1331 0.931 . S
H1342 C1332 0.930 . S
H1343 C1333 0.929 . S
H1344 C1356 0.930 . S
H1345 C1358 0.930 . S
H1346 C1359 0.930 . S
H1347 C1363 0.959 . S
H1348 C1363 0.959 . S
H1349 C1363 0.961 . S
H1350 C1364 0.960 . S
H1351 C1364 0.961 . S
H1352 C1364 0.959 . S
H1353 C1367 0.929 . S
H1354 C1368 0.931 . S
H1355 C1370 0.930 . S
C1356 H1344 0.930 . S
C1356 C1357 1.399 . S
C1356 C1361 1.399 . S
C1357 C1356 1.399 . S
C1357 C1358 1.376 . S
C1358 H1345 0.930 . S
C1358 C1357 1.376 . S
C1358 C1359 1.388 . S
C1359 H1346 0.930 . S
C1359 C1358 1.388 . S
C1359 C1360 1.390 . S
C1360 C1359 1.390 . S
C1360 C1361 1.394 . S
C1360 C1366 1.465 . S
C1361 C1356 1.399 . S
C1361 C1360 1.394 . S
C1361 C1362 1.516 . S
C1362 C1361 1.516 . S
C1362 C1363 1.502 . S
C1362 C1364 1.561 . S
C1362 C1365 1.526 . S
C1363 H1347 0.959 . S
C1363 H1348 0.959 . S
C1363 H1349 0.961 . S
C1363 C1362 1.502 . S
C1364 H1350 0.960 . S
C1364 H1351 0.961 . S
C1364 H1352 0.959 . S
C1364 C1362 1.561 . S
C1365 C1362 1.526 . S
C1365 C1366 1.396 . S
C1365 C1370 1.390 . S
C1366 C1360 1.465 . S
C1366 C1365 1.396 . S
C1366 C1367 1.399 . S
C1367 H1353 0.929 . S
C1367 C1366 1.399 . S
C1367 C1368 1.385 . S
C1368 H1354 0.931 . S
C1368 C1367 1.385 . S
C1368 C1369 1.389 . S
C1369 C1368 1.389 . S
C1369 C1370 1.387 . S
C1370 H1355 0.930 . S
C1370 C1365 1.390 . S
C1370 C1369 1.387 . S
H1371 C1383 0.930 . S
H1372 C1385 0.930 . S
H1373 C1386 0.930 . S
H1374 C1390 0.959 . S
H1375 C1390 0.959 . S
H1376 C1390 0.961 . S
H1377 C1391 0.960 . S
H1378 C1391 0.961 . S
H1379 C1391 0.959 . S
H1380 C1394 0.926 1_556 S
H1381 C1395 0.931 . S
H1382 C1397 0.930 . S
C1383 H1371 0.930 . S
C1383 C1384 1.399 . S
C1383 C1388 1.399 . S
C1384 C1383 1.399 . S
C1384 C1385 1.376 . S
C1385 H1372 0.930 . S
C1385 C1384 1.376 . S
C1385 C1386 1.388 . S
C1386 H1373 0.930 . S
C1386 C1385 1.388 . S
C1386 C1387 1.390 . S
C1387 C1386 1.390 . S
C1387 C1388 1.394 . S
C1387 C1393 1.465 . S
C1388 C1383 1.399 . S
C1388 C1387 1.394 . S
C1388 C1389 1.516 . S
C1389 C1388 1.516 . S
C1389 C1390 1.502 . S
C1389 C1391 1.561 . S
C1389 C1392 1.526 . S
C1390 H1374 0.959 . S
C1390 H1375 0.959 . S
C1390 H1376 0.961 . S
C1390 C1389 1.502 . S
C1391 H1377 0.960 . S
C1391 H1378 0.961 . S
C1391 H1379 0.959 . S
C1391 C1389 1.561 . S
C1392 C1389 1.526 . S
C1392 C1393 1.396 . S
C1392 C1397 1.390 . S
C1393 C1387 1.465 . S
C1393 C1392 1.396 . S
C1393 C1394 1.422 . S
C1394 H1380 0.926 1_554 S
C1394 C1393 1.422 . S
C1394 C1395 1.366 1_554 S
C1395 H1381 0.931 . S
C1395 C1394 1.366 1_556 S
C1395 C1396 1.389 . S
C1396 C1395 1.389 . S
C1396 C1397 1.387 1_556 S
C1397 H1382 0.930 . S
C1397 C1392 1.390 . S
C1397 C1396 1.387 1_554 S
H1398 C1410 0.930 . S
H1399 C1412 0.930 . S
H1400 C1413 0.930 . S
H1401 C1417 0.959 . S
H1402 C1417 0.959 . S
H1403 C1417 0.961 . S
H1404 C1418 0.960 . S
H1405 C1418 0.961 . S
H1406 C1418 0.959 . S
H1407 C1421 0.929 . S
H1408 C1422 0.931 . S
H1409 C1424 0.930 . S
C1410 H1398 0.930 . S
C1410 C1411 1.399 . S
C1410 C1415 1.399 . S
C1411 C1410 1.399 . S
C1411 C1412 1.376 . S
C1412 H1399 0.930 . S
C1412 C1411 1.376 . S
C1412 C1413 1.388 . S
C1413 H1400 0.930 . S
C1413 C1412 1.388 . S
C1413 C1414 1.390 . S
C1414 C1413 1.390 . S
C1414 C1415 1.394 . S
C1414 C1420 1.465 . S
C1415 C1410 1.399 . S
C1415 C1414 1.394 . S
C1415 C1416 1.516 . S
C1416 C1415 1.516 . S
C1416 C1417 1.502 . S
C1416 C1418 1.561 . S
C1416 C1419 1.526 . S
C1417 H1401 0.959 . S
C1417 H1402 0.959 . S
C1417 H1403 0.961 . S
C1417 C1416 1.502 . S
C1418 H1404 0.960 . S
C1418 H1405 0.961 . S
C1418 H1406 0.959 . S
C1418 C1416 1.561 . S
C1419 C1416 1.526 . S
C1419 C1420 1.396 . S
C1419 C1424 1.390 . S
C1420 C1414 1.465 . S
C1420 C1419 1.396 . S
C1420 C1421 1.399 . S
C1421 H1407 0.929 . S
C1421 C1420 1.399 . S
C1421 C1422 1.385 . S
C1422 H1408 0.931 . S
C1422 C1421 1.385 . S
C1422 C1423 1.389 . S
C1423 C1422 1.389 . S
C1423 C1424 1.387 . S
C1424 H1409 0.930 . S
C1424 C1419 1.390 . S
C1424 C1423 1.387 . S
H1425 C1437 0.930 . S
H1426 C1439 0.930 . S
H1427 C1440 0.930 . S
H1428 C1444 0.959 . S
H1429 C1444 0.959 1_565 S
H1430 C1444 0.961 . S
H1431 C1445 0.962 . S
H1432 C1445 0.961 1_565 S
H1433 C1445 0.959 . S
H1434 C1448 0.929 . S
H1435 C1449 0.931 . S
H1436 C1451 0.930 . S
C1437 H1425 0.930 . S
C1437 C1438 1.399 . S
C1437 C1442 1.399 . S
C1438 C1437 1.399 . S
C1438 C1439 1.376 . S
C1439 H1426 0.930 . S
C1439 C1438 1.376 . S
C1439 C1440 1.388 . S
C1440 H1427 0.930 . S
C1440 C1439 1.388 . S
C1440 C1441 1.390 . S
C1441 C1440 1.390 . S
C1441 C1442 1.394 . S
C1441 C1447 1.465 . S
C1442 C1437 1.399 . S
C1442 C1441 1.394 . S
C1442 C1443 1.516 . S
C1443 C1442 1.516 . S
C1443 C1444 1.502 . S
C1443 C1445 1.561 . S
C1443 C1446 1.526 . S
C1444 H1428 0.959 . S
C1444 H1429 0.959 1_545 S
C1444 H1430 0.961 . S
C1444 C1443 1.502 . S
C1445 H1431 0.962 . S
C1445 H1432 0.961 1_545 S
C1445 H1433 0.959 . S
C1445 C1443 1.561 . S
C1446 C1443 1.526 . S
C1446 C1447 1.396 . S
C1446 C1451 1.390 . S
C1447 C1441 1.465 . S
C1447 C1446 1.396 . S
C1447 C1448 1.399 . S
C1448 H1434 0.929 . S
C1448 C1447 1.399 . S
C1448 C1449 1.385 . S
C1449 H1435 0.931 . S
C1449 C1448 1.385 . S
C1449 C1450 1.389 . S
C1450 C1449 1.389 . S
C1450 C1451 1.387 . S
C1451 H1436 0.930 . S
C1451 C1446 1.390 . S
C1451 C1450 1.387 . S
H1452 C1464 0.932 1_455 S
H1453 C1466 0.930 . S
H1454 C1467 0.930 . S
H1455 C1471 0.959 . S
H1456 C1471 0.959 . S
H1457 C1471 0.961 . S
H1458 C1472 0.960 . S
H1459 C1472 0.961 . S
H1460 C1472 0.959 . S
H1461 C1475 0.929 . S
H1462 C1476 0.931 . S
H1463 C1478 0.930 . S
C1464 H1452 0.932 1_655 S
C1464 C1465 1.399 . S
C1464 C1469 1.399 . S
C1465 C1464 1.399 . S
C1465 C1466 1.376 . S
C1466 H1453 0.930 . S
C1466 C1465 1.376 . S
C1466 C1467 1.388 . S
C1467 H1454 0.930 . S
C1467 C1466 1.388 . S
C1467 C1468 1.390 . S
C1468 C1467 1.390 . S
C1468 C1469 1.394 . S
C1468 C1474 1.465 . S
C1469 C1464 1.399 . S
C1469 C1468 1.394 . S
C1469 C1470 1.516 1_655 S
C1470 C1469 1.516 1_455 S
C1470 C1471 1.502 . S
C1470 C1472 1.561 . S
C1470 C1473 1.526 . S
C1471 H1455 0.959 . S
C1471 H1456 0.959 . S
C1471 H1457 0.961 . S
C1471 C1470 1.502 . S
C1472 H1458 0.960 . S
C1472 H1459 0.961 . S
C1472 H1460 0.959 . S
C1472 C1470 1.561 . S
C1473 C1470 1.526 . S
C1473 C1474 1.396 1_455 S
C1473 C1478 1.390 . S
C1474 C1468 1.465 . S
C1474 C1473 1.396 1_655 S
C1474 C1475 1.399 . S
C1475 H1461 0.929 . S
C1475 C1474 1.399 . S
C1475 C1476 1.385 1_655 S
C1476 H1462 0.931 . S
C1476 C1475 1.385 1_455 S
C1476 C1477 1.389 . S
C1477 C1476 1.389 . S
C1477 C1478 1.387 . S
C1478 H1463 0.930 . S
C1478 C1473 1.390 . S
C1478 C1477 1.387 . S
H1479 C1491 0.930 . S
H1480 C1493 0.930 . S
H1481 C1494 0.930 1_455 S
H1482 C1498 0.959 . S
H1483 C1498 0.959 . S
H1484 C1498 0.961 . S
H1485 C1499 0.960 . S
H1486 C1499 0.961 . S
H1487 C1499 0.959 . S
H1488 C1502 0.929 . S
H1489 C1503 0.931 . S
H1490 C1505 0.930 . S
C1491 H1479 0.930 . S
C1491 C1492 1.399 . S
C1491 C1496 1.399 . S
C1492 C1491 1.399 . S
C1492 C1493 1.376 . S
C1493 H1480 0.930 . S
C1493 C1492 1.376 . S
C1493 C1494 1.388 . S
C1494 H1481 0.930 1_655 S
C1494 C1493 1.388 . S
C1494 C1495 1.390 . S
C1495 C1494 1.390 . S
C1495 C1496 1.394 . S
C1495 C1501 1.465 . S
C1496 C1491 1.399 . S
C1496 C1495 1.394 . S
C1496 C1497 1.516 . S
C1497 C1496 1.516 . S
C1497 C1498 1.502 . S
C1497 C1499 1.561 . S
C1497 C1500 1.526 . S
C1498 H1482 0.959 . S
C1498 H1483 0.959 . S
C1498 H1484 0.961 . S
C1498 C1497 1.502 . S
C1499 H1485 0.960 . S
C1499 H1486 0.961 . S
C1499 H1487 0.959 . S
C1499 C1497 1.561 . S
C1500 C1497 1.526 . S
C1500 C1501 1.396 . S
C1500 C1505 1.390 . S
C1501 C1495 1.465 . S
C1501 C1500 1.396 . S
C1501 C1502 1.399 1_656 S
C1502 H1488 0.929 . S
C1502 C1501 1.399 1_454 S
C1502 C1503 1.385 . S
C1503 H1489 0.931 . S
C1503 C1502 1.385 . S
C1503 C1504 1.389 1_455 S
C1504 C1503 1.389 1_655 S
C1504 C1505 1.387 1_554 S
C1505 H1490 0.930 . S
C1505 C1500 1.390 . S
C1505 C1504 1.387 1_556 S
H1506 C1518 0.930 . S
H1507 C1520 0.930 . S
H1508 C1521 0.930 . S
H1509 C1525 0.959 . S
H1510 C1525 0.959 . S
H1511 C1525 0.961 . S
H1512 C1526 0.960 . S
H1513 C1526 0.961 . S
H1514 C1526 0.959 . S
H1515 C1529 0.929 . S
H1516 C1530 0.931 . S
H1517 C1532 0.930 . S
C1518 H1506 0.930 . S
C1518 C1519 1.399 . S
C1518 C1523 1.399 . S
C1519 C1518 1.399 . S
C1519 C1520 1.376 . S
C1520 H1507 0.930 . S
C1520 C1519 1.376 . S
C1520 C1521 1.388 . S
C1521 H1508 0.930 . S
C1521 C1520 1.388 . S
C1521 C1522 1.390 . S
C1522 C1521 1.390 . S
C1522 C1523 1.394 . S
C1522 C1528 1.465 . S
C1523 C1518 1.399 . S
C1523 C1522 1.394 . S
C1523 C1524 1.516 . S
C1524 C1523 1.516 . S
C1524 C1525 1.502 . S
C1524 C1526 1.561 . S
C1524 C1527 1.526 . S
C1525 H1509 0.959 . S
C1525 H1510 0.959 . S
C1525 H1511 0.961 . S
C1525 C1524 1.502 . S
C1526 H1512 0.960 . S
C1526 H1513 0.961 . S
C1526 H1514 0.959 . S
C1526 C1524 1.561 . S
C1527 C1524 1.526 . S
C1527 C1528 1.396 . S
C1527 C1532 1.390 . S
C1528 C1522 1.465 . S
C1528 C1527 1.396 . S
C1528 C1529 1.399 . S
C1529 H1515 0.929 . S
C1529 C1528 1.399 . S
C1529 C1530 1.385 . S
C1530 H1516 0.931 . S
C1530 C1529 1.385 . S
C1530 C1531 1.389 . S
C1531 C1530 1.389 . S
C1531 C1532 1.387 . S
C1532 H1517 0.930 . S
C1532 C1527 1.390 . S
C1532 C1531 1.387 . S
H1533 C1545 0.930 . S
H1534 C1547 0.930 . S
H1535 C1548 0.930 . S
H1536 C1552 0.959 . S
H1537 C1552 0.959 . S
H1538 C1552 0.961 . S
H1539 C1553 0.960 . S
H1540 C1553 0.961 . S
H1541 C1553 0.959 . S
H1542 C1556 0.929 . S
H1543 C1557 0.931 . S
H1544 C1559 0.930 . S
C1545 H1533 0.930 . S
C1545 C1546 1.399 . S
C1545 C1550 1.399 . S
C1546 C1545 1.399 . S
C1546 C1547 1.376 . S
C1547 H1534 0.930 . S
C1547 C1546 1.376 . S
C1547 C1548 1.388 . S
C1548 H1535 0.930 . S
C1548 C1547 1.388 . S
C1548 C1549 1.390 . S
C1549 C1548 1.390 . S
C1549 C1550 1.394 . S
C1549 C1555 1.465 . S
C1550 C1545 1.399 . S
C1550 C1549 1.394 . S
C1550 C1551 1.516 . S
C1551 C1550 1.516 . S
C1551 C1552 1.502 . S
C1551 C1553 1.561 . S
C1551 C1554 1.526 . S
C1552 H1536 0.959 . S
C1552 H1537 0.959 . S
C1552 H1538 0.961 . S
C1552 C1551 1.502 . S
C1553 H1539 0.960 . S
C1553 H1540 0.961 . S
C1553 H1541 0.959 . S
C1553 C1551 1.561 . S
C1554 C1551 1.526 . S
C1554 C1555 1.396 . S
C1554 C1559 1.390 . S
C1555 C1549 1.465 . S
C1555 C1554 1.396 . S
C1555 C1556 1.399 . S
C1556 H1542 0.929 . S
C1556 C1555 1.399 . S
C1556 C1557 1.385 . S
C1557 H1543 0.931 . S
C1557 C1556 1.385 . S
C1557 C1558 1.389 . S
C1558 C1557 1.389 . S
C1558 C1559 1.387 . S
C1559 H1544 0.930 . S
C1559 C1554 1.390 . S
C1559 C1558 1.387 . S
H1560 C1572 0.930 . S
H1561 C1574 0.930 . S
H1562 C1575 0.930 . S
H1563 C1579 0.959 . S
H1564 C1579 0.959 . S
H1565 C1579 0.961 . S
H1566 C1580 0.960 . S
H1567 C1580 0.961 . S
H1568 C1580 0.959 . S
H1569 C1583 0.929 . S
H1570 C1584 0.931 . S
H1571 C1586 0.930 . S
C1572 H1560 0.930 . S
C1572 C1573 1.399 . S
C1572 C1577 1.399 . S
C1573 C1572 1.399 . S
C1573 C1574 1.376 . S
C1574 H1561 0.930 . S
C1574 C1573 1.376 . S
C1574 C1575 1.388 . S
C1575 H1562 0.930 . S
C1575 C1574 1.388 . S
C1575 C1576 1.390 . S
C1576 C1575 1.390 . S
C1576 C1577 1.394 . S
C1576 C1582 1.465 . S
C1577 C1572 1.399 . S
C1577 C1576 1.394 . S
C1577 C1578 1.516 . S
C1578 C1577 1.516 . S
C1578 C1579 1.502 . S
C1578 C1580 1.561 . S
C1578 C1581 1.526 . S
C1579 H1563 0.959 . S
C1579 H1564 0.959 . S
C1579 H1565 0.961 . S
C1579 C1578 1.502 . S
C1580 H1566 0.960 . S
C1580 H1567 0.961 . S
C1580 H1568 0.959 . S
C1580 C1578 1.561 . S
C1581 C1578 1.526 . S
C1581 C1582 1.396 . S
C1581 C1586 1.390 . S
C1582 C1576 1.465 . S
C1582 C1581 1.396 . S
C1582 C1583 1.399 . S
C1583 H1569 0.929 . S
C1583 C1582 1.399 . S
C1583 C1584 1.385 . S
C1584 H1570 0.931 . S
C1584 C1583 1.385 . S
C1584 C1585 1.389 . S
C1585 C1584 1.389 . S
C1585 C1586 1.387 . S
C1586 H1571 0.930 . S
C1586 C1581 1.390 . S
C1586 C1585 1.387 . S
H1587 C1599 0.930 . S
H1588 C1601 0.930 . S
H1589 C1602 0.930 . S
H1590 C1606 0.959 . S
H1591 C1606 0.959 . S
H1592 C1606 0.961 . S
H1593 C1607 0.960 . S
H1594 C1607 0.961 . S
H1595 C1607 0.959 . S
H1596 C1610 0.929 . S
H1597 C1611 0.931 . S
H1598 C1613 0.930 . S
C1599 H1587 0.930 . S
C1599 C1600 1.399 . S
C1599 C1604 1.399 . S
C1600 C1599 1.399 . S
C1600 C1601 1.376 . S
C1601 H1588 0.930 . S
C1601 C1600 1.376 . S
C1601 C1602 1.388 . S
C1602 H1589 0.930 . S
C1602 C1601 1.388 . S
C1602 C1603 1.390 . S
C1603 C1602 1.390 . S
C1603 C1604 1.394 . S
C1603 C1609 1.465 . S
C1604 C1599 1.399 . S
C1604 C1603 1.394 . S
C1604 C1605 1.516 . S
C1605 C1604 1.516 . S
C1605 C1606 1.502 . S
C1605 C1607 1.561 . S
C1605 C1608 1.526 . S
C1606 H1590 0.959 . S
C1606 H1591 0.959 . S
C1606 H1592 0.961 . S
C1606 C1605 1.502 . S
C1607 H1593 0.960 . S
C1607 H1594 0.961 . S
C1607 H1595 0.959 . S
C1607 C1605 1.561 . S
C1608 C1605 1.526 . S
C1608 C1609 1.396 . S
C1608 C1613 1.390 . S
C1609 C1603 1.465 . S
C1609 C1608 1.396 . S
C1609 C1610 1.399 . S
C1610 H1596 0.929 . S
C1610 C1609 1.399 . S
C1610 C1611 1.385 . S
C1611 H1597 0.931 . S
C1611 C1610 1.385 . S
C1611 C1612 1.389 . S
C1612 C1611 1.389 . S
C1612 C1613 1.387 . S
C1613 H1598 0.930 . S
C1613 C1608 1.390 . S
C1613 C1612 1.387 . S
H1614 C1626 0.930 . S
H1615 C1628 0.930 . S
H1616 C1629 0.930 . S
H1617 C1633 0.951 . S
H1618 C1633 0.982 . S
H1619 C1633 0.959 . S
H1620 C1634 0.960 . S
H1621 C1634 0.961 . S
H1622 C1634 0.959 . S
H1623 C1637 0.929 . S
H1624 C1638 0.931 . S
H1625 C1640 0.930 . S
C1626 H1614 0.930 . S
C1626 C1627 1.399 . S
C1626 C1631 1.399 . S
C1627 C1626 1.399 . S
C1627 C1628 1.376 . S
C1628 H1615 0.930 . S
C1628 C1627 1.376 . S
C1628 C1629 1.388 . S
C1629 H1616 0.930 . S
C1629 C1628 1.388 . S
C1629 C1630 1.390 . S
C1630 C1629 1.390 . S
C1630 C1631 1.394 . S
C1630 C1636 1.465 . S
C1631 C1626 1.399 . S
C1631 C1630 1.394 . S
C1631 C1632 1.516 . S
C1632 C1631 1.516 . S
C1632 C1633 1.475 1_455 S
C1632 C1634 1.561 . S
C1632 C1635 1.526 . S
C1633 H1617 0.951 . S
C1633 H1618 0.982 . S
C1633 H1619 0.959 . S
C1633 C1632 1.475 1_655 S
C1634 H1620 0.960 . S
C1634 H1621 0.961 . S
C1634 H1622 0.959 . S
C1634 C1632 1.561 . S
C1635 C1632 1.526 . S
C1635 C1636 1.396 . S
C1635 C1640 1.390 . S
C1636 C1630 1.465 . S
C1636 C1635 1.396 . S
C1636 C1637 1.399 . S
C1637 H1623 0.929 . S
C1637 C1636 1.399 . S
C1637 C1638 1.385 . S
C1638 H1624 0.931 . S
C1638 C1637 1.385 . S
C1638 C1639 1.389 . S
C1639 C1638 1.389 . S
C1639 C1640 1.387 . S
C1640 H1625 0.930 . S
C1640 C1635 1.390 . S
C1640 C1639 1.387 . S
H1641 C1653 0.930 . S
H1642 C1655 0.930 . S
H1643 C1656 0.930 . S
H1644 C1660 0.959 . S
H1645 C1660 0.959 . S
H1646 C1660 0.961 . S
H1647 C1661 0.960 . S
H1648 C1661 0.961 . S
H1649 C1661 0.959 . S
H1650 C1664 0.929 . S
H1651 C1665 0.931 . S
H1652 C1667 0.930 . S
C1653 H1641 0.930 . S
C1653 C1654 1.399 . S
C1653 C1658 1.399 . S
C1654 C1653 1.399 . S
C1654 C1655 1.376 . S
C1655 H1642 0.930 . S
C1655 C1654 1.376 . S
C1655 C1656 1.388 . S
C1656 H1643 0.930 . S
C1656 C1655 1.388 . S
C1656 C1657 1.390 . S
C1657 C1656 1.390 . S
C1657 C1658 1.394 . S
C1657 C1663 1.465 . S
C1658 C1653 1.399 . S
C1658 C1657 1.394 . S
C1658 C1659 1.516 . S
C1659 C1658 1.516 . S
C1659 C1660 1.502 . S
C1659 C1661 1.561 . S
C1659 C1662 1.526 . S
C1660 H1644 0.959 . S
C1660 H1645 0.959 . S
C1660 H1646 0.961 . S
C1660 C1659 1.502 . S
C1661 H1647 0.960 . S
C1661 H1648 0.961 . S
C1661 H1649 0.959 . S
C1661 C1659 1.561 . S
C1662 C1659 1.526 . S
C1662 C1663 1.396 . S
C1662 C1667 1.390 . S
C1663 C1657 1.465 . S
C1663 C1662 1.396 . S
C1663 C1664 1.399 . S
C1664 H1650 0.929 . S
C1664 C1663 1.399 . S
C1664 C1665 1.385 . S
C1665 H1651 0.931 . S
C1665 C1664 1.385 . S
C1665 C1666 1.389 . S
C1666 C1665 1.389 . S
C1666 C1667 1.387 . S
C1667 H1652 0.930 . S
C1667 C1662 1.390 . S
C1667 C1666 1.387 . S
H1668 C1680 0.930 . S
H1669 C1682 0.930 . S
H1670 C1683 0.930 . S
H1671 C1687 0.959 . S
H1672 C1687 0.959 . S
H1673 C1687 0.961 . S
H1674 C1688 0.960 . S
H1675 C1688 0.961 . S
H1676 C1688 0.959 . S
H1677 C1691 0.929 . S
H1678 C1692 0.931 . S
H1679 C1694 0.930 . S
C1680 H1668 0.930 . S
C1680 C1681 1.399 . S
C1680 C1685 1.399 . S
C1681 C1680 1.399 . S
C1681 C1682 1.376 . S
C1682 H1669 0.930 . S
C1682 C1681 1.376 . S
C1682 C1683 1.388 . S
C1683 H1670 0.930 . S
C1683 C1682 1.388 . S
C1683 C1684 1.390 . S
C1684 C1683 1.390 . S
C1684 C1685 1.394 . S
C1684 C1690 1.465 . S
C1685 C1680 1.399 . S
C1685 C1684 1.394 . S
C1685 C1686 1.516 . S
C1686 C1685 1.516 . S
C1686 C1687 1.502 . S
C1686 C1688 1.561 . S
C1686 C1689 1.526 . S
C1687 H1671 0.959 . S
C1687 H1672 0.959 . S
C1687 H1673 0.961 . S
C1687 C1686 1.502 . S
C1688 H1674 0.960 . S
C1688 H1675 0.961 . S
C1688 H1676 0.959 . S
C1688 C1686 1.561 . S
C1689 C1686 1.526 . S
C1689 C1690 1.396 . S
C1689 C1694 1.390 . S
C1690 C1684 1.465 . S
C1690 C1689 1.396 . S
C1690 C1691 1.399 . S
C1691 H1677 0.929 . S
C1691 C1690 1.399 . S
C1691 C1692 1.385 . S
C1692 H1678 0.931 . S
C1692 C1691 1.385 . S
C1692 C1693 1.389 . S
C1693 C1692 1.389 . S
C1693 C1694 1.387 . S
C1694 H1679 0.930 . S
C1694 C1689 1.390 . S
C1694 C1693 1.387 . S
H1695 C1707 0.930 . S
H1696 C1709 0.930 . S
H1697 C1710 0.930 . S
H1698 C1714 0.959 . S
H1699 C1714 0.959 . S
H1700 C1714 0.961 . S
H1701 C1715 0.960 . S
H1702 C1715 0.961 . S
H1703 C1715 0.959 . S
H1704 C1718 0.929 . S
H1705 C1719 0.931 . S
H1706 C1721 0.930 . S
C1707 H1695 0.930 . S
C1707 C1708 1.399 . S
C1707 C1712 1.399 . S
C1708 C1707 1.399 . S
C1708 C1709 1.376 . S
C1709 H1696 0.930 . S
C1709 C1708 1.376 . S
C1709 C1710 1.388 . S
C1710 H1697 0.930 . S
C1710 C1709 1.388 . S
C1710 C1711 1.390 . S
C1711 C1710 1.390 . S
C1711 C1712 1.394 . S
C1711 C1717 1.465 . S
C1712 C1707 1.399 . S
C1712 C1711 1.394 . S
C1712 C1713 1.516 . S
C1713 C1712 1.516 . S
C1713 C1714 1.502 . S
C1713 C1715 1.561 . S
C1713 C1716 1.526 . S
C1714 H1698 0.959 . S
C1714 H1699 0.959 . S
C1714 H1700 0.961 . S
C1714 C1713 1.502 . S
C1715 H1701 0.960 . S
C1715 H1702 0.961 . S
C1715 H1703 0.959 . S
C1715 C1713 1.561 . S
C1716 C1713 1.526 . S
C1716 C1717 1.396 . S
C1716 C1721 1.390 . S
C1717 C1711 1.465 . S
C1717 C1716 1.396 . S
C1717 C1718 1.399 . S
C1718 H1704 0.929 . S
C1718 C1717 1.399 . S
C1718 C1719 1.385 . S
C1719 H1705 0.931 . S
C1719 C1718 1.385 . S
C1719 C1720 1.389 . S
C1720 C1719 1.389 . S
C1720 C1721 1.387 . S
C1721 H1706 0.930 . S
C1721 C1716 1.390 . S
C1721 C1720 1.387 . S
H1722 C1734 0.930 . S
H1723 C1736 0.930 . S
H1724 C1737 0.930 . S
H1725 C1741 0.959 . S
H1726 C1741 0.959 . S
H1727 C1741 0.961 . S
H1728 C1742 0.960 . S
H1729 C1742 0.961 . S
H1730 C1742 0.959 . S
H1731 C1745 0.929 . S
H1732 C1746 0.931 . S
H1733 C1748 0.930 . S
C1734 H1722 0.930 . S
C1734 C1735 1.399 . S
C1734 C1739 1.399 . S
C1735 C1734 1.399 . S
C1735 C1736 1.376 . S
C1736 H1723 0.930 . S
C1736 C1735 1.376 . S
C1736 C1737 1.388 . S
C1737 H1724 0.930 . S
C1737 C1736 1.388 . S
C1737 C1738 1.390 . S
C1738 C1737 1.390 . S
C1738 C1739 1.394 . S
C1738 C1744 1.465 . S
C1739 C1734 1.399 . S
C1739 C1738 1.394 . S
C1739 C1740 1.516 . S
C1740 C1739 1.516 . S
C1740 C1741 1.502 . S
C1740 C1742 1.561 . S
C1740 C1743 1.526 . S
C1741 H1725 0.959 . S
C1741 H1726 0.959 . S
C1741 H1727 0.961 . S
C1741 C1740 1.502 . S
C1742 H1728 0.960 . S
C1742 H1729 0.961 . S
C1742 H1730 0.959 . S
C1742 C1740 1.561 . S
C1743 C1740 1.526 . S
C1743 C1744 1.396 . S
C1743 C1748 1.390 . S
C1744 C1738 1.465 . S
C1744 C1743 1.396 . S
C1744 C1745 1.399 . S
C1745 H1731 0.929 . S
C1745 C1744 1.399 . S
C1745 C1746 1.385 . S
C1746 H1732 0.931 . S
C1746 C1745 1.385 . S
C1746 C1747 1.389 . S
C1747 C1746 1.389 . S
C1747 C1748 1.387 . S
C1748 H1733 0.930 . S
C1748 C1743 1.390 . S
C1748 C1747 1.387 . S
H1749 C1761 0.930 . S
H1750 C1763 0.930 . S
H1751 C1764 0.930 . S
H1752 C1768 0.959 . S
H1753 C1768 0.959 . S
H1754 C1768 0.961 . S
H1755 C1769 0.960 . S
H1756 C1769 0.961 . S
H1757 C1769 0.959 . S
H1758 C1772 0.929 . S
H1759 C1773 0.931 . S
H1760 C1775 0.930 . S
C1761 H1749 0.930 . S
C1761 C1762 1.399 . S
C1761 C1766 1.399 . S
C1762 C1761 1.399 . S
C1762 C1763 1.376 . S
C1763 H1750 0.930 . S
C1763 C1762 1.376 . S
C1763 C1764 1.388 . S
C1764 H1751 0.930 . S
C1764 C1763 1.388 . S
C1764 C1765 1.390 . S
C1765 C1764 1.390 . S
C1765 C1766 1.394 . S
C1765 C1771 1.465 . S
C1766 C1761 1.399 . S
C1766 C1765 1.394 . S
C1766 C1767 1.516 . S
C1767 C1766 1.516 . S
C1767 C1768 1.502 . S
C1767 C1769 1.561 . S
C1767 C1770 1.526 . S
C1768 H1752 0.959 . S
C1768 H1753 0.959 . S
C1768 H1754 0.961 . S
C1768 C1767 1.502 . S
C1769 H1755 0.960 . S
C1769 H1756 0.961 . S
C1769 H1757 0.959 . S
C1769 C1767 1.561 . S
C1770 C1767 1.526 . S
C1770 C1771 1.396 . S
C1770 C1775 1.390 . S
C1771 C1765 1.465 . S
C1771 C1770 1.396 . S
C1771 C1772 1.399 . S
C1772 H1758 0.929 . S
C1772 C1771 1.399 . S
C1772 C1773 1.385 . S
C1773 H1759 0.931 . S
C1773 C1772 1.385 . S
C1773 C1774 1.389 . S
C1774 C1773 1.389 . S
C1774 C1775 1.387 . S
C1775 H1760 0.930 . S
C1775 C1770 1.390 . S
C1775 C1774 1.387 . S
H1776 C1788 0.930 . S
H1777 C1790 0.930 . S
H1778 C1791 0.930 . S
H1779 C1795 0.959 . S
H1780 C1795 0.959 . S
H1781 C1795 0.961 . S
H1782 C1796 0.960 . S
H1783 C1796 0.961 . S
H1784 C1796 0.959 . S
H1785 C1799 0.929 . S
H1786 C1800 0.931 . S
H1787 C1802 0.930 . S
C1788 H1776 0.930 . S
C1788 C1789 1.399 . S
C1788 C1793 1.399 . S
C1789 C1788 1.399 . S
C1789 C1790 1.376 . S
C1790 H1777 0.930 . S
C1790 C1789 1.376 . S
C1790 C1791 1.388 . S
C1791 H1778 0.930 . S
C1791 C1790 1.388 . S
C1791 C1792 1.390 . S
C1792 C1791 1.390 . S
C1792 C1793 1.394 . S
C1792 C1798 1.465 . S
C1793 C1788 1.399 . S
C1793 C1792 1.394 . S
C1793 C1794 1.516 . S
C1794 C1793 1.516 . S
C1794 C1795 1.502 . S
C1794 C1796 1.561 . S
C1794 C1797 1.526 . S
C1795 H1779 0.959 . S
C1795 H1780 0.959 . S
C1795 H1781 0.961 . S
C1795 C1794 1.502 . S
C1796 H1782 0.960 . S
C1796 H1783 0.961 . S
C1796 H1784 0.959 . S
C1796 C1794 1.561 . S
C1797 C1794 1.526 . S
C1797 C1798 1.396 . S
C1797 C1802 1.390 . S
C1798 C1792 1.465 . S
C1798 C1797 1.396 . S
C1798 C1799 1.399 . S
C1799 H1785 0.929 . S
C1799 C1798 1.399 . S
C1799 C1800 1.385 . S
C1800 H1786 0.931 . S
C1800 C1799 1.385 . S
C1800 C1801 1.389 . S
C1801 C1800 1.389 . S
C1801 C1802 1.387 . S
C1802 H1787 0.930 . S
C1802 C1797 1.390 . S
C1802 C1801 1.387 . S
H1803 C1815 0.930 1_455 S
H1804 C1817 0.930 . S
H1805 C1818 0.930 . S
H1806 C1822 0.959 . S
H1807 C1822 0.959 . S
H1808 C1822 0.961 . S
H1809 C1823 0.960 . S
H1810 C1823 0.961 . S
H1811 C1823 0.959 . S
H1812 C1826 0.929 . S
H1813 C1827 0.931 . S
H1814 C1829 0.930 . S
C1815 H1803 0.930 1_655 S
C1815 C1816 1.399 . S
C1815 C1820 1.399 1_655 S
C1816 C1815 1.399 . S
C1816 C1817 1.376 . S
C1817 H1804 0.930 . S
C1817 C1816 1.376 . S
C1817 C1818 1.388 . S
C1818 H1805 0.930 . S
C1818 C1817 1.388 . S
C1818 C1819 1.390 1_655 S
C1819 C1818 1.390 1_455 S
C1819 C1820 1.394 . S
C1819 C1825 1.465 . S
C1820 C1815 1.399 1_455 S
C1820 C1819 1.394 . S
C1820 C1821 1.516 . S
C1821 C1820 1.516 . S
C1821 C1822 1.502 . S
C1821 C1823 1.561 . S
C1821 C1824 1.526 . S
C1822 H1806 0.959 . S
C1822 H1807 0.959 . S
C1822 H1808 0.961 . S
C1822 C1821 1.502 . S
C1823 H1809 0.960 . S
C1823 H1810 0.961 . S
C1823 H1811 0.959 . S
C1823 C1821 1.561 . S
C1824 C1821 1.526 . S
C1824 C1825 1.396 . S
C1824 C1829 1.390 . S
C1825 C1819 1.465 . S
C1825 C1824 1.396 . S
C1825 C1826 1.399 . S
C1826 H1812 0.929 . S
C1826 C1825 1.399 . S
C1826 C1827 1.385 . S
C1827 H1813 0.931 . S
C1827 C1826 1.385 . S
C1827 C1828 1.389 . S
C1828 C1827 1.389 . S
C1828 C1829 1.387 . S
C1829 H1814 0.930 . S
C1829 C1824 1.390 . S
C1829 C1828 1.387 . S
H1830 C1842 0.930 . S
H1831 C1844 0.930 . S
H1832 C1845 0.930 . S
H1833 C1849 0.959 . S
H1834 C1849 0.959 . S
H1835 C1849 0.961 . S
H1836 C1850 0.960 . S
H1837 C1850 0.961 . S
H1838 C1850 0.959 . S
H1839 C1853 0.929 . S
H1840 C1854 0.931 . S
H1841 C1856 0.930 . S
C1842 H1830 0.930 . S
C1842 C1843 1.399 . S
C1842 C1847 1.399 . S
C1843 C1842 1.399 . S
C1843 C1844 1.376 . S
C1844 H1831 0.930 . S
C1844 C1843 1.376 . S
C1844 C1845 1.388 . S
C1845 H1832 0.930 . S
C1845 C1844 1.388 . S
C1845 C1846 1.390 . S
C1846 C1845 1.390 . S
C1846 C1847 1.394 . S
C1846 C1852 1.465 . S
C1847 C1842 1.399 . S
C1847 C1846 1.394 . S
C1847 C1848 1.516 . S
C1848 C1847 1.516 . S
C1848 C1849 1.502 . S
C1848 C1850 1.561 . S
C1848 C1851 1.526 . S
C1849 H1833 0.959 . S
C1849 H1834 0.959 . S
C1849 H1835 0.961 . S
C1849 C1848 1.502 . S
C1850 H1836 0.960 . S
C1850 H1837 0.961 . S
C1850 H1838 0.959 . S
C1850 C1848 1.561 . S
C1851 C1848 1.526 . S
C1851 C1852 1.396 . S
C1851 C1856 1.390 . S
C1852 C1846 1.465 . S
C1852 C1851 1.396 . S
C1852 C1853 1.399 . S
C1853 H1839 0.929 . S
C1853 C1852 1.399 . S
C1853 C1854 1.385 . S
C1854 H1840 0.931 . S
C1854 C1853 1.385 . S
C1854 C1855 1.389 . S
C1855 C1854 1.389 . S
C1855 C1856 1.387 . S
C1856 H1841 0.930 . S
C1856 C1851 1.390 . S
C1856 C1855 1.387 . S
H1857 C1869 0.930 . S
H1858 C1871 0.930 . S
H1859 C1872 0.930 . S
H1860 C1876 0.959 . S
H1861 C1876 0.959 . S
H1862 C1876 0.961 . S
H1863 C1877 0.960 . S
H1864 C1877 0.961 . S
H1865 C1877 0.959 . S
H1866 C1880 0.929 . S
H1867 C1881 0.931 . S
H1868 C1883 0.930 . S
C1869 H1857 0.930 . S
C1869 C1870 1.399 . S
C1869 C1874 1.399 . S
C1870 C1869 1.399 . S
C1870 C1871 1.376 . S
C1871 H1858 0.930 . S
C1871 C1870 1.376 . S
C1871 C1872 1.388 . S
C1872 H1859 0.930 . S
C1872 C1871 1.388 . S
C1872 C1873 1.390 . S
C1873 C1872 1.390 . S
C1873 C1874 1.394 . S
C1873 C1879 1.465 . S
C1874 C1869 1.399 . S
C1874 C1873 1.394 . S
C1874 C1875 1.516 . S
C1875 C1874 1.516 . S
C1875 C1876 1.502 . S
C1875 C1877 1.561 . S
C1875 C1878 1.526 . S
C1876 H1860 0.959 . S
C1876 H1861 0.959 . S
C1876 H1862 0.961 . S
C1876 C1875 1.502 . S
C1877 H1863 0.960 . S
C1877 H1864 0.961 . S
C1877 H1865 0.959 . S
C1877 C1875 1.561 . S
C1878 C1875 1.526 . S
C1878 C1879 1.396 . S
C1878 C1883 1.390 . S
C1879 C1873 1.465 . S
C1879 C1878 1.396 . S
C1879 C1880 1.399 . S
C1880 H1866 0.929 . S
C1880 C1879 1.399 . S
C1880 C1881 1.385 . S
C1881 H1867 0.931 . S
C1881 C1880 1.385 . S
C1881 C1882 1.389 . S
C1882 C1881 1.389 . S
C1882 C1883 1.387 . S
C1883 H1868 0.930 . S
C1883 C1878 1.390 . S
C1883 C1882 1.387 . S
H1884 C1896 0.930 . S
H1885 C1898 0.930 . S
H1886 C1899 0.930 . S
H1887 C1903 0.959 . S
H1888 C1903 0.959 . S
H1889 C1903 0.961 . S
H1890 C1904 0.960 . S
H1891 C1904 0.961 . S
H1892 C1904 0.959 . S
H1893 C1907 0.929 . S
H1894 C1908 0.931 . S
H1895 C1910 0.930 . S
C1896 H1884 0.930 . S
C1896 C1897 1.399 . S
C1896 C1901 1.399 . S
C1897 C1896 1.399 . S
C1897 C1898 1.376 . S
C1898 H1885 0.930 . S
C1898 C1897 1.376 . S
C1898 C1899 1.388 . S
C1899 H1886 0.930 . S
C1899 C1898 1.388 . S
C1899 C1900 1.390 . S
C1900 C1899 1.390 . S
C1900 C1901 1.394 . S
C1900 C1906 1.465 . S
C1901 C1896 1.399 . S
C1901 C1900 1.394 . S
C1901 C1902 1.516 . S
C1902 C1901 1.516 . S
C1902 C1903 1.502 . S
C1902 C1904 1.561 . S
C1902 C1905 1.526 . S
C1903 H1887 0.959 . S
C1903 H1888 0.959 . S
C1903 H1889 0.961 . S
C1903 C1902 1.502 . S
C1904 H1890 0.960 . S
C1904 H1891 0.961 . S
C1904 H1892 0.959 . S
C1904 C1902 1.561 . S
C1905 C1902 1.526 . S
C1905 C1906 1.396 . S
C1905 C1910 1.390 . S
C1906 C1900 1.465 . S
C1906 C1905 1.396 . S
C1906 C1907 1.399 . S
C1907 H1893 0.929 . S
C1907 C1906 1.399 . S
C1907 C1908 1.385 . S
C1908 H1894 0.931 . S
C1908 C1907 1.385 . S
C1908 C1909 1.389 . S
C1909 C1908 1.389 . S
C1909 C1910 1.387 . S
C1910 H1895 0.930 . S
C1910 C1905 1.390 . S
C1910 C1909 1.387 . S
H1911 C1923 0.930 . S
H1912 C1925 0.930 . S
H1913 C1926 0.930 . S
H1914 C1930 0.959 . S
H1915 C1930 0.959 . S
H1916 C1930 0.961 . S
H1917 C1931 0.960 . S
H1918 C1931 0.961 . S
H1919 C1931 0.959 . S
H1920 C1934 0.929 . S
H1921 C1935 0.931 . S
H1922 C1937 0.930 . S
C1923 H1911 0.930 . S
C1923 C1924 1.399 . S
C1923 C1928 1.399 . S
C1924 C1923 1.399 . S
C1924 C1925 1.376 . S
C1925 H1912 0.930 . S
C1925 C1924 1.376 . S
C1925 C1926 1.388 . S
C1926 H1913 0.930 . S
C1926 C1925 1.388 . S
C1926 C1927 1.390 . S
C1927 C1926 1.390 . S
C1927 C1928 1.394 . S
C1927 C1933 1.465 . S
C1928 C1923 1.399 . S
C1928 C1927 1.394 . S
C1928 C1929 1.516 . S
C1929 C1928 1.516 . S
C1929 C1930 1.502 . S
C1929 C1931 1.561 . S
C1929 C1932 1.526 . S
C1930 H1914 0.959 . S
C1930 H1915 0.959 . S
C1930 H1916 0.961 . S
C1930 C1929 1.502 . S
C1931 H1917 0.960 . S
C1931 H1918 0.961 . S
C1931 H1919 0.959 . S
C1931 C1929 1.561 . S
C1932 C1929 1.526 . S
C1932 C1933 1.396 . S
C1932 C1937 1.390 . S
C1933 C1927 1.465 . S
C1933 C1932 1.396 . S
C1933 C1934 1.399 . S
C1934 H1920 0.929 . S
C1934 C1933 1.399 . S
C1934 C1935 1.385 . S
C1935 H1921 0.931 . S
C1935 C1934 1.385 . S
C1935 C1936 1.389 . S
C1936 C1935 1.389 . S
C1936 C1937 1.387 . S
C1937 H1922 0.930 . S
C1937 C1932 1.390 . S
C1937 C1936 1.387 . S
H1938 C1950 0.930 . S
H1939 C1952 0.930 . S
H1940 C1953 0.930 . S
H1941 C1957 0.959 . S
H1942 C1957 0.959 . S
H1943 C1957 0.961 . S
H1944 C1958 0.960 . S
H1945 C1958 0.961 . S
H1946 C1958 0.959 . S
H1947 C1961 0.929 . S
H1948 C1962 0.931 . S
H1949 C1964 0.930 . S
C1950 H1938 0.930 . S
C1950 C1951 1.399 . S
C1950 C1955 1.399 . S
C1951 C1950 1.399 . S
C1951 C1952 1.376 . S
C1952 H1939 0.930 . S
C1952 C1951 1.376 . S
C1952 C1953 1.388 . S
C1953 H1940 0.930 . S
C1953 C1952 1.388 . S
C1953 C1954 1.390 . S
C1954 C1953 1.390 . S
C1954 C1955 1.394 . S
C1954 C1960 1.465 . S
C1955 C1950 1.399 . S
C1955 C1954 1.394 . S
C1955 C1956 1.516 . S
C1956 C1955 1.516 . S
C1956 C1957 1.502 . S
C1956 C1958 1.561 . S
C1956 C1959 1.526 . S
C1957 H1941 0.959 . S
C1957 H1942 0.959 . S
C1957 H1943 0.961 . S
C1957 C1956 1.502 . S
C1958 H1944 0.960 . S
C1958 H1945 0.961 . S
C1958 H1946 0.959 . S
C1958 C1956 1.561 . S
C1959 C1956 1.526 . S
C1959 C1960 1.396 . S
C1959 C1964 1.390 . S
C1960 C1954 1.465 . S
C1960 C1959 1.396 . S
C1960 C1961 1.399 . S
C1961 H1947 0.929 . S
C1961 C1960 1.399 . S
C1961 C1962 1.385 . S
C1962 H1948 0.931 . S
C1962 C1961 1.385 . S
C1962 C1963 1.389 . S
C1963 C1962 1.389 . S
C1963 C1964 1.387 . S
C1964 H1949 0.930 . S
C1964 C1959 1.390 . S
C1964 C1963 1.387 . S
H1965 C1977 0.930 . S
H1966 C1979 0.930 . S
H1967 C1980 0.930 . S
H1968 C1984 0.959 . S
H1969 C1984 0.959 . S
H1970 C1984 0.961 . S
H1971 C1985 0.960 . S
H1972 C1985 0.961 . S
H1973 C1985 0.959 . S
H1974 C1988 0.929 . S
H1975 C1989 0.931 . S
H1976 C1991 0.930 . S
C1977 H1965 0.930 . S
C1977 C1978 1.399 . S
C1977 C1982 1.399 . S
C1978 C1977 1.399 . S
C1978 C1979 1.376 . S
C1979 H1966 0.930 . S
C1979 C1978 1.376 . S
C1979 C1980 1.388 . S
C1980 H1967 0.930 . S
C1980 C1979 1.388 . S
C1980 C1981 1.390 . S
C1981 C1980 1.390 . S
C1981 C1982 1.394 . S
C1981 C1987 1.465 . S
C1982 C1977 1.399 . S
C1982 C1981 1.394 . S
C1982 C1983 1.516 . S
C1983 C1982 1.516 . S
C1983 C1984 1.502 . S
C1983 C1985 1.561 . S
C1983 C1986 1.526 . S
C1984 H1968 0.959 . S
C1984 H1969 0.959 . S
C1984 H1970 0.961 . S
C1984 C1983 1.502 . S
C1985 H1971 0.960 . S
C1985 H1972 0.961 . S
C1985 H1973 0.959 . S
C1985 C1983 1.561 . S
C1986 C1983 1.526 . S
C1986 C1987 1.396 . S
C1986 C1991 1.390 . S
C1987 C1981 1.465 . S
C1987 C1986 1.396 . S
C1987 C1988 1.399 . S
C1988 H1974 0.929 . S
C1988 C1987 1.399 . S
C1988 C1989 1.385 . S
C1989 H1975 0.931 . S
C1989 C1988 1.385 . S
C1989 C1990 1.389 . S
C1990 C1989 1.389 . S
C1990 C1991 1.387 . S
C1991 H1976 0.930 . S
C1991 C1986 1.390 . S
C1991 C1990 1.387 . S
H1992 C2004 0.930 . S
H1993 C2006 0.930 . S
H1994 C2007 0.930 . S
H1995 C2011 0.959 . S
H1996 C2011 0.959 1_556 S
H1997 C2011 0.961 . S
H1998 C2012 0.960 . S
H1999 C2012 0.961 . S
H2000 C2012 0.959 . S
H2001 C2015 0.929 . S
H2002 C2016 0.931 . S
H2003 C2018 0.930 . S
C2004 H1992 0.930 . S
C2004 C2005 1.399 1_565 S
C2004 C2009 1.399 . S
C2005 C2004 1.399 1_545 S
C2005 C2006 1.376 . S
C2006 H1993 0.930 . S
C2006 C2005 1.376 . S
C2006 C2007 1.388 . S
C2007 H1994 0.930 . S
C2007 C2006 1.388 . S
C2007 C2008 1.390 . S
C2008 C2007 1.390 . S
C2008 C2009 1.394 1_545 S
C2008 C2014 1.465 1_554 S
C2009 C2004 1.399 . S
C2009 C2008 1.394 1_565 S
C2009 C2010 1.516 1_554 S
C2010 C2009 1.516 1_556 S
C2010 C2011 1.502 1_556 S
C2010 C2012 1.561 . S
C2010 C2013 1.526 . S
C2011 H1995 0.959 . S
C2011 H1996 0.959 1_554 S
C2011 H1997 0.961 . S
C2011 C2010 1.502 1_554 S
C2012 H1998 0.960 . S
C2012 H1999 0.961 . S
C2012 H2000 0.959 . S
C2012 C2010 1.561 . S
C2013 C2010 1.526 . S
C2013 C2014 1.396 1_565 S
C2013 C2018 1.390 . S
C2014 C2008 1.465 1_556 S
C2014 C2013 1.396 1_545 S
C2014 C2015 1.399 . S
C2015 H2001 0.929 . S
C2015 C2014 1.399 . S
C2015 C2016 1.385 . S
C2016 H2002 0.931 . S
C2016 C2015 1.385 . S
C2016 C2017 1.389 1_545 S
C2017 C2016 1.389 1_565 S
C2017 C2018 1.387 . S
C2018 H2003 0.930 . S
C2018 C2013 1.390 . S
C2018 C2017 1.387 . S
H2019 C2031 0.930 . S
H2020 C2033 0.930 . S
H2021 C2034 0.930 . S
H2022 C2038 0.959 . S
H2023 C2038 0.959 . S
H2024 C2038 0.961 . S
H2025 C2039 0.960 . S
H2026 C2039 0.961 . S
H2027 C2039 0.959 . S
H2028 C2042 0.929 . S
H2029 C2043 0.931 . S
H2030 C2045 0.930 . S
C2031 H2019 0.930 . S
C2031 C2032 1.399 . S
C2031 C2036 1.399 . S
C2032 C2031 1.399 . S
C2032 C2033 1.376 . S
C2033 H2020 0.930 . S
C2033 C2032 1.376 . S
C2033 C2034 1.388 . S
C2034 H2021 0.930 . S
C2034 C2033 1.388 . S
C2034 C2035 1.390 . S
C2035 C2034 1.390 . S
C2035 C2036 1.394 . S
C2035 C2041 1.465 . S
C2036 C2031 1.399 . S
C2036 C2035 1.394 . S
C2036 C2037 1.516 . S
C2037 C2036 1.516 . S
C2037 C2038 1.502 . S
C2037 C2039 1.561 . S
C2037 C2040 1.526 . S
C2038 H2022 0.959 . S
C2038 H2023 0.959 . S
C2038 H2024 0.961 . S
C2038 C2037 1.502 . S
C2039 H2025 0.960 . S
C2039 H2026 0.961 . S
C2039 H2027 0.959 . S
C2039 C2037 1.561 . S
C2040 C2037 1.526 . S
C2040 C2041 1.396 . S
C2040 C2045 1.390 . S
C2041 C2035 1.465 . S
C2041 C2040 1.396 . S
C2041 C2042 1.399 . S
C2042 H2028 0.929 . S
C2042 C2041 1.399 . S
C2042 C2043 1.385 . S
C2043 H2029 0.931 . S
C2043 C2042 1.385 . S
C2043 C2044 1.389 . S
C2044 C2043 1.389 . S
C2044 C2045 1.387 . S
C2045 H2030 0.930 . S
C2045 C2040 1.390 . S
C2045 C2044 1.387 . S
H2046 C2058 0.930 . S
H2047 C2060 0.930 . S
H2048 C2061 0.930 . S
H2049 C2065 0.959 . S
H2050 C2065 0.959 . S
H2051 C2065 0.961 . S
H2052 C2066 0.960 . S
H2053 C2066 0.961 . S
H2054 C2066 0.959 . S
H2055 C2069 0.929 . S
H2056 C2070 0.931 . S
H2057 C2072 0.930 1_565 S
C2058 H2046 0.930 . S
C2058 C2059 1.399 . S
C2058 C2063 1.399 . S
C2059 C2058 1.399 . S
C2059 C2060 1.376 1_565 S
C2060 H2047 0.930 . S
C2060 C2059 1.376 1_545 S
C2060 C2061 1.388 . S
C2061 H2048 0.930 . S
C2061 C2060 1.388 . S
C2061 C2062 1.390 . S
C2062 C2061 1.390 . S
C2062 C2063 1.394 1_545 S
C2062 C2068 1.465 . S
C2063 C2058 1.399 . S
C2063 C2062 1.394 1_565 S
C2063 C2064 1.516 . S
C2064 C2063 1.516 . S
C2064 C2065 1.502 . S
C2064 C2066 1.561 . S
C2064 C2067 1.526 . S
C2065 H2049 0.959 . S
C2065 H2050 0.959 . S
C2065 H2051 0.961 . S
C2065 C2064 1.502 . S
C2066 H2052 0.960 . S
C2066 H2053 0.961 . S
C2066 H2054 0.959 . S
C2066 C2064 1.561 . S
C2067 C2064 1.526 . S
C2067 C2068 1.396 1_565 S
C2067 C2072 1.390 1_565 S
C2068 C2062 1.465 . S
C2068 C2067 1.396 1_545 S
C2068 C2069 1.399 . S
C2069 H2055 0.929 . S
C2069 C2068 1.399 . S
C2069 C2070 1.385 . S
C2070 H2056 0.931 . S
C2070 C2069 1.385 . S
C2070 C2071 1.389 . S
C2071 C2070 1.389 . S
C2071 C2072 1.387 . S
C2072 H2057 0.930 1_545 S
C2072 C2067 1.390 1_545 S
C2072 C2071 1.387 . S
H2073 C2085 0.930 . S
H2074 C2087 0.930 . S
H2075 C2088 0.930 . S
H2076 C2092 0.959 . S
H2077 C2092 0.959 . S
H2078 C2092 0.961 . S
H2079 C2093 0.960 . S
H2080 C2093 0.961 . S
H2081 C2093 0.959 . S
H2082 C2096 0.929 . S
H2083 C2097 0.931 . S
H2084 C2099 0.930 . S
C2085 H2073 0.930 . S
C2085 C2086 1.399 . S
C2085 C2090 1.399 . S
C2086 C2085 1.399 . S
C2086 C2087 1.376 . S
C2087 H2074 0.930 . S
C2087 C2086 1.376 . S
C2087 C2088 1.388 . S
C2088 H2075 0.930 . S
C2088 C2087 1.388 . S
C2088 C2089 1.390 . S
C2089 C2088 1.390 . S
C2089 C2090 1.394 . S
C2089 C2095 1.465 . S
C2090 C2085 1.399 . S
C2090 C2089 1.394 . S
C2090 C2091 1.516 . S
C2091 C2090 1.516 . S
C2091 C2092 1.502 . S
C2091 C2093 1.561 . S
C2091 C2094 1.526 . S
C2092 H2076 0.959 . S
C2092 H2077 0.959 . S
C2092 H2078 0.961 . S
C2092 C2091 1.502 . S
C2093 H2079 0.960 . S
C2093 H2080 0.961 . S
C2093 H2081 0.959 . S
C2093 C2091 1.561 . S
C2094 C2091 1.526 . S
C2094 C2095 1.396 . S
C2094 C2099 1.390 . S
C2095 C2089 1.465 . S
C2095 C2094 1.396 . S
C2095 C2096 1.399 . S
C2096 H2082 0.929 . S
C2096 C2095 1.399 . S
C2096 C2097 1.385 . S
C2097 H2083 0.931 . S
C2097 C2096 1.385 . S
C2097 C2098 1.389 . S
C2098 C2097 1.389 . S
C2098 C2099 1.387 . S
C2099 H2084 0.930 . S
C2099 C2094 1.390 . S
C2099 C2098 1.387 . S
H2100 C2112 0.930 . S
H2101 C2114 0.930 . S
H2102 C2115 0.930 . S
H2103 C2119 0.959 . S
H2104 C2119 0.959 . S
H2105 C2119 0.961 . S
H2106 C2120 0.960 . S
H2107 C2120 0.961 . S
H2108 C2120 0.959 . S
H2109 C2123 0.929 . S
H2110 C2124 0.931 . S
H2111 C2126 0.930 . S
C2112 H2100 0.930 . S
C2112 C2113 1.399 . S
C2112 C2117 1.399 . S
C2113 C2112 1.399 . S
C2113 C2114 1.376 . S
C2114 H2101 0.930 . S
C2114 C2113 1.376 . S
C2114 C2115 1.388 . S
C2115 H2102 0.930 . S
C2115 C2114 1.388 . S
C2115 C2116 1.390 . S
C2116 C2115 1.390 . S
C2116 C2117 1.394 . S
C2116 C2122 1.465 . S
C2117 C2112 1.399 . S
C2117 C2116 1.394 . S
C2117 C2118 1.516 . S
C2118 C2117 1.516 . S
C2118 C2119 1.502 . S
C2118 C2120 1.561 . S
C2118 C2121 1.526 . S
C2119 H2103 0.959 . S
C2119 H2104 0.959 . S
C2119 H2105 0.961 . S
C2119 C2118 1.502 . S
C2120 H2106 0.960 . S
C2120 H2107 0.961 . S
C2120 H2108 0.959 . S
C2120 C2118 1.561 . S
C2121 C2118 1.526 . S
C2121 C2122 1.396 . S
C2121 C2126 1.390 . S
C2122 C2116 1.465 . S
C2122 C2121 1.396 . S
C2122 C2123 1.399 . S
C2123 H2109 0.929 . S
C2123 C2122 1.399 . S
C2123 C2124 1.385 . S
C2124 H2110 0.931 . S
C2124 C2123 1.385 . S
C2124 C2125 1.389 . S
C2125 C2124 1.389 . S
C2125 C2126 1.387 . S
C2126 H2111 0.930 . S
C2126 C2121 1.390 . S
C2126 C2125 1.387 . S
H2127 C2139 0.930 . S
H2128 C2141 0.930 . S
H2129 C2142 0.930 . S
H2130 C2146 0.959 . S
H2131 C2146 0.959 . S
H2132 C2146 0.961 . S
H2133 C2147 0.960 . S
H2134 C2147 0.961 . S
H2135 C2147 0.959 . S
H2136 C2150 0.929 . S
H2137 C2151 0.931 . S
H2138 C2153 0.930 . S
C2139 H2127 0.930 . S
C2139 C2140 1.399 . S
C2139 C2144 1.399 . S
C2140 C2139 1.399 . S
C2140 C2141 1.376 . S
C2141 H2128 0.930 . S
C2141 C2140 1.376 . S
C2141 C2142 1.388 . S
C2142 H2129 0.930 . S
C2142 C2141 1.388 . S
C2142 C2143 1.390 . S
C2143 C2142 1.390 . S
C2143 C2144 1.394 . S
C2143 C2149 1.465 . S
C2144 C2139 1.399 . S
C2144 C2143 1.394 . S
C2144 C2145 1.516 . S
C2145 C2144 1.516 . S
C2145 C2146 1.502 . S
C2145 C2147 1.561 . S
C2145 C2148 1.526 . S
C2146 H2130 0.959 . S
C2146 H2131 0.959 . S
C2146 H2132 0.961 . S
C2146 C2145 1.502 . S
C2147 H2133 0.960 . S
C2147 H2134 0.961 . S
C2147 H2135 0.959 . S
C2147 C2145 1.561 . S
C2148 C2145 1.526 . S
C2148 C2149 1.396 . S
C2148 C2153 1.390 . S
C2149 C2143 1.465 . S
C2149 C2148 1.396 . S
C2149 C2150 1.399 . S
C2150 H2136 0.929 . S
C2150 C2149 1.399 . S
C2150 C2151 1.385 . S
C2151 H2137 0.931 . S
C2151 C2150 1.385 . S
C2151 C2152 1.389 . S
C2152 C2151 1.389 . S
C2152 C2153 1.387 . S
C2153 H2138 0.930 . S
C2153 C2148 1.390 . S
C2153 C2152 1.387 . S
H2154 C2166 0.930 . S
H2155 C2168 0.930 . S
H2156 C2169 0.930 . S
H2157 C2173 0.959 . S
H2158 C2173 0.959 . S
H2159 C2173 0.961 . S
H2160 C2174 0.960 . S
H2161 C2174 0.961 . S
H2162 C2174 0.959 . S
H2163 C2177 0.929 . S
H2164 C2178 0.931 . S
H2165 C2180 0.930 . S
C2166 H2154 0.930 . S
C2166 C2167 1.399 . S
C2166 C2171 1.399 . S
C2167 C2166 1.399 . S
C2167 C2168 1.376 . S
C2168 H2155 0.930 . S
C2168 C2167 1.376 . S
C2168 C2169 1.388 . S
C2169 H2156 0.930 . S
C2169 C2168 1.388 . S
C2169 C2170 1.390 . S
C2170 C2169 1.390 . S
C2170 C2171 1.394 . S
C2170 C2176 1.465 . S
C2171 C2166 1.399 . S
C2171 C2170 1.394 . S
C2171 C2172 1.516 . S
C2172 C2171 1.516 . S
C2172 C2173 1.502 . S
C2172 C2174 1.561 . S
C2172 C2175 1.526 . S
C2173 H2157 0.959 . S
C2173 H2158 0.959 . S
C2173 H2159 0.961 . S
C2173 C2172 1.502 . S
C2174 H2160 0.960 . S
C2174 H2161 0.961 . S
C2174 H2162 0.959 . S
C2174 C2172 1.561 . S
C2175 C2172 1.526 . S
C2175 C2176 1.396 . S
C2175 C2180 1.390 . S
C2176 C2170 1.465 . S
C2176 C2175 1.396 . S
C2176 C2177 1.399 . S
C2177 H2163 0.929 . S
C2177 C2176 1.399 . S
C2177 C2178 1.385 . S
C2178 H2164 0.931 . S
C2178 C2177 1.385 . S
C2178 C2179 1.389 . S
C2179 C2178 1.389 . S
C2179 C2180 1.387 . S
C2180 H2165 0.930 . S
C2180 C2175 1.390 . S
C2180 C2179 1.387 . S
H2181 C2193 0.930 . S
H2182 C2195 0.930 . S
H2183 C2196 0.930 . S
H2184 C2200 0.959 . S
H2185 C2200 0.959 . S
H2186 C2200 0.961 . S
H2187 C2201 0.960 . S
H2188 C2201 0.961 . S
H2189 C2201 0.959 . S
H2190 C2204 0.929 . S
H2191 C2205 0.931 . S
H2192 C2207 0.930 . S
C2193 H2181 0.930 . S
C2193 C2194 1.399 . S
C2193 C2198 1.399 . S
C2194 C2193 1.399 . S
C2194 C2195 1.376 . S
C2195 H2182 0.930 . S
C2195 C2194 1.376 . S
C2195 C2196 1.388 . S
C2196 H2183 0.930 . S
C2196 C2195 1.388 . S
C2196 C2197 1.390 . S
C2197 C2196 1.390 . S
C2197 C2198 1.394 . S
C2197 C2203 1.465 1_556 S
C2198 C2193 1.399 . S
C2198 C2197 1.394 . S
C2198 C2199 1.516 1_556 S
C2199 C2198 1.516 1_554 S
C2199 C2200 1.502 . S
C2199 C2201 1.561 1_554 S
C2199 C2202 1.526 . S
C2200 H2184 0.959 . S
C2200 H2185 0.959 . S
C2200 H2186 0.961 . S
C2200 C2199 1.502 . S
C2201 H2187 0.960 . S
C2201 H2188 0.961 . S
C2201 H2189 0.959 . S
C2201 C2199 1.561 1_556 S
C2202 C2199 1.526 . S
C2202 C2203 1.396 . S
C2202 C2207 1.390 . S
C2203 C2197 1.465 1_554 S
C2203 C2202 1.396 . S
C2203 C2204 1.399 . S
C2204 H2190 0.929 . S
C2204 C2203 1.399 . S
C2204 C2205 1.385 . S
C2205 H2191 0.931 . S
C2205 C2204 1.385 . S
C2205 C2206 1.389 . S
C2206 C2205 1.389 . S
C2206 C2207 1.387 . S
C2207 H2192 0.930 . S
C2207 C2202 1.390 . S
C2207 C2206 1.387 . S
H2208 C2220 0.930 . S
H2209 C2222 0.930 . S
H2210 C2223 0.930 . S
H2211 C2227 0.959 . S
H2212 C2227 0.959 . S
H2213 C2227 0.961 . S
H2214 C2228 0.960 . S
H2215 C2228 0.961 . S
H2216 C2228 0.959 . S
H2217 C2231 0.929 . S
H2218 C2232 0.931 . S
H2219 C2234 0.930 . S
C2220 H2208 0.930 . S
C2220 C2221 1.399 . S
C2220 C2225 1.399 . S
C2221 C2220 1.399 . S
C2221 C2222 1.376 . S
C2222 H2209 0.930 . S
C2222 C2221 1.376 . S
C2222 C2223 1.388 . S
C2223 H2210 0.930 . S
C2223 C2222 1.388 . S
C2223 C2224 1.390 . S
C2224 C2223 1.390 . S
C2224 C2225 1.394 . S
C2224 C2230 1.465 . S
C2225 C2220 1.399 . S
C2225 C2224 1.394 . S
C2225 C2226 1.516 . S
C2226 C2225 1.516 . S
C2226 C2227 1.502 . S
C2226 C2228 1.561 . S
C2226 C2229 1.526 . S
C2227 H2211 0.959 . S
C2227 H2212 0.959 . S
C2227 H2213 0.961 . S
C2227 C2226 1.502 . S
C2228 H2214 0.960 . S
C2228 H2215 0.961 . S
C2228 H2216 0.959 . S
C2228 C2226 1.561 . S
C2229 C2226 1.526 . S
C2229 C2230 1.396 . S
C2229 C2234 1.390 . S
C2230 C2224 1.465 . S
C2230 C2229 1.396 . S
C2230 C2231 1.399 . S
C2231 H2217 0.929 . S
C2231 C2230 1.399 . S
C2231 C2232 1.385 . S
C2232 H2218 0.931 . S
C2232 C2231 1.385 . S
C2232 C2233 1.389 . S
C2233 C2232 1.389 . S
C2233 C2234 1.387 . S
C2234 H2219 0.930 . S
C2234 C2229 1.390 . S
C2234 C2233 1.387 . S
H2235 C2247 0.930 . S
H2236 C2249 0.930 . S
H2237 C2250 0.930 . S
H2238 C2254 0.959 . S
H2239 C2254 0.959 . S
H2240 C2254 0.961 . S
H2241 C2255 0.960 . S
H2242 C2255 0.961 . S
H2243 C2255 0.959 . S
H2244 C2258 0.929 . S
H2245 C2259 0.931 . S
H2246 C2261 0.930 . S
C2247 H2235 0.930 . S
C2247 C2248 1.399 . S
C2247 C2252 1.399 . S
C2248 C2247 1.399 . S
C2248 C2249 1.376 . S
C2249 H2236 0.930 . S
C2249 C2248 1.376 . S
C2249 C2250 1.388 . S
C2250 H2237 0.930 . S
C2250 C2249 1.388 . S
C2250 C2251 1.390 . S
C2251 C2250 1.390 . S
C2251 C2252 1.394 . S
C2251 C2257 1.465 . S
C2252 C2247 1.399 . S
C2252 C2251 1.394 . S
C2252 C2253 1.516 . S
C2253 C2252 1.516 . S
C2253 C2254 1.502 . S
C2253 C2255 1.561 . S
C2253 C2256 1.526 . S
C2254 H2238 0.959 . S
C2254 H2239 0.959 . S
C2254 H2240 0.961 . S
C2254 C2253 1.502 . S
C2255 H2241 0.960 . S
C2255 H2242 0.961 . S
C2255 H2243 0.959 . S
C2255 C2253 1.561 . S
C2256 C2253 1.526 . S
C2256 C2257 1.396 . S
C2256 C2261 1.390 . S
C2257 C2251 1.465 . S
C2257 C2256 1.396 . S
C2257 C2258 1.399 . S
C2258 H2244 0.929 . S
C2258 C2257 1.399 . S
C2258 C2259 1.385 . S
C2259 H2245 0.931 . S
C2259 C2258 1.385 . S
C2259 C2260 1.389 . S
C2260 C2259 1.389 . S
C2260 C2261 1.387 . S
C2261 H2246 0.930 . S
C2261 C2256 1.390 . S
C2261 C2260 1.387 . S
H2262 C2274 0.930 . S
H2263 C2276 0.930 . S
H2264 C2277 0.930 . S
H2265 C2281 0.959 . S
H2266 C2281 0.959 . S
H2267 C2281 0.961 . S
H2268 C2282 0.960 . S
H2269 C2282 0.961 . S
H2270 C2282 0.959 . S
H2271 C2285 0.929 . S
H2272 C2286 0.931 . S
H2273 C2288 0.930 . S
C2274 H2262 0.930 . S
C2274 C2275 1.399 . S
C2274 C2279 1.399 . S
C2275 C2274 1.399 . S
C2275 C2276 1.376 . S
C2276 H2263 0.930 . S
C2276 C2275 1.376 . S
C2276 C2277 1.388 . S
C2277 H2264 0.930 . S
C2277 C2276 1.388 . S
C2277 C2278 1.390 . S
C2278 C2277 1.390 . S
C2278 C2279 1.394 . S
C2278 C2284 1.465 . S
C2279 C2274 1.399 . S
C2279 C2278 1.394 . S
C2279 C2280 1.516 . S
C2280 C2279 1.516 . S
C2280 C2281 1.502 . S
C2280 C2282 1.561 1_565 S
C2280 C2283 1.526 . S
C2281 H2265 0.959 . S
C2281 H2266 0.959 . S
C2281 H2267 0.961 . S
C2281 C2280 1.502 . S
C2282 H2268 0.960 . S
C2282 H2269 0.961 . S
C2282 H2270 0.959 . S
C2282 C2280 1.561 1_545 S
C2283 C2280 1.526 . S
C2283 C2284 1.396 . S
C2283 C2288 1.390 . S
C2284 C2278 1.465 . S
C2284 C2283 1.396 . S
C2284 C2285 1.399 . S
C2285 H2271 0.929 . S
C2285 C2284 1.399 . S
C2285 C2286 1.385 . S
C2286 H2272 0.931 . S
C2286 C2285 1.385 . S
C2286 C2287 1.389 . S
C2287 C2286 1.389 . S
C2287 C2288 1.387 . S
C2288 H2273 0.930 . S
C2288 C2283 1.390 . S
C2288 C2287 1.387 . S
H2289 C2301 0.930 . S
H2290 C2303 0.930 . S
H2291 C2304 0.930 . S
H2292 C2308 0.959 . S
H2293 C2308 0.959 . S
H2294 C2308 0.961 . S
H2295 C2309 0.960 . S
H2296 C2309 0.961 . S
H2297 C2309 0.959 . S
H2298 C2312 0.929 . S
H2299 C2313 0.931 . S
H2300 C2315 0.930 . S
C2301 H2289 0.930 . S
C2301 C2302 1.399 . S
C2301 C2306 1.399 1_565 S
C2302 C2301 1.399 . S
C2302 C2303 1.376 . S
C2303 H2290 0.930 . S
C2303 C2302 1.376 . S
C2303 C2304 1.388 1_565 S
C2304 H2291 0.930 . S
C2304 C2303 1.388 1_545 S
C2304 C2305 1.390 . S
C2305 C2304 1.390 . S
C2305 C2306 1.394 . S
C2305 C2311 1.465 . S
C2306 C2301 1.399 1_545 S
C2306 C2305 1.394 . S
C2306 C2307 1.516 . S
C2307 C2306 1.516 . S
C2307 C2308 1.502 . S
C2307 C2309 1.561 1_545 S
C2307 C2310 1.526 . S
C2308 H2292 0.959 . S
C2308 H2293 0.959 . S
C2308 H2294 0.961 . S
C2308 C2307 1.502 . S
C2309 H2295 0.960 . S
C2309 H2296 0.961 . S
C2309 H2297 0.959 . S
C2309 C2307 1.561 1_565 S
C2310 C2307 1.526 . S
C2310 C2311 1.396 . S
C2310 C2315 1.390 . S
C2311 C2305 1.465 . S
C2311 C2310 1.396 . S
C2311 C2312 1.399 . S
C2312 H2298 0.929 . S
C2312 C2311 1.399 . S
C2312 C2313 1.385 . S
C2313 H2299 0.931 . S
C2313 C2312 1.385 . S
C2313 C2314 1.389 . S
C2314 C2313 1.389 . S
C2314 C2315 1.387 . S
C2315 H2300 0.930 . S
C2315 C2310 1.390 . S
C2315 C2314 1.387 . S
H2316 C2328 0.930 1_455 S
H2317 C2330 0.930 . S
H2318 C2331 0.930 . S
H2319 C2335 0.959 . S
H2320 C2335 0.959 . S
H2321 C2335 0.961 . S
H2322 C2336 0.960 . S
H2323 C2336 0.961 . S
H2324 C2336 0.959 . S
H2325 C2339 0.929 1_655 S
H2326 C2340 0.931 . S
H2327 C2342 0.930 . S
C2328 H2316 0.930 1_655 S
C2328 C2329 1.399 . S
C2328 C2333 1.399 1_655 S
C2329 C2328 1.399 . S
C2329 C2330 1.376 . S
C2330 H2317 0.930 . S
C2330 C2329 1.376 . S
C2330 C2331 1.388 . S
C2331 H2318 0.930 . S
C2331 C2330 1.388 . S
C2331 C2332 1.390 . S
C2332 C2331 1.390 . S
C2332 C2333 1.394 1_655 S
C2332 C2338 1.465 1_655 S
C2333 C2328 1.399 1_455 S
C2333 C2332 1.394 1_455 S
C2333 C2334 1.516 . S
C2334 C2333 1.516 . S
C2334 C2335 1.502 . S
C2334 C2336 1.561 . S
C2334 C2337 1.526 . S
C2335 H2319 0.959 . S
C2335 H2320 0.959 . S
C2335 H2321 0.961 . S
C2335 C2334 1.502 . S
C2336 H2322 0.960 . S
C2336 H2323 0.961 . S
C2336 H2324 0.959 . S
C2336 C2334 1.561 . S
C2337 C2334 1.526 . S
C2337 C2338 1.396 . S
C2337 C2342 1.390 . S
C2338 C2332 1.465 1_455 S
C2338 C2337 1.396 . S
C2338 C2339 1.399 . S
C2339 H2325 0.929 1_455 S
C2339 C2338 1.399 . S
C2339 C2340 1.385 . S
C2340 H2326 0.931 . S
C2340 C2339 1.385 . S
C2340 C2341 1.389 . S
C2341 C2340 1.389 . S
C2341 C2342 1.387 . S
C2342 H2327 0.930 . S
C2342 C2337 1.390 . S
C2342 C2341 1.387 . S
H2343 C2355 0.930 1_455 S
H2344 C2357 0.930 . S
H2345 C2358 0.930 . S
H2346 C2362 0.959 1_655 S
H2347 C2362 0.959 . S
H2348 C2362 0.961 . S
H2349 C2363 0.960 . S
H2350 C2363 0.961 . S
H2351 C2363 0.959 . S
H2352 C2366 0.929 . S
H2353 C2367 0.931 . S
H2354 C2369 0.930 . S
C2355 H2343 0.930 1_655 S
C2355 C2356 1.399 . S
C2355 C2360 1.399 . S
C2356 C2355 1.399 . S
C2356 C2357 1.376 . S
C2357 H2344 0.930 . S
C2357 C2356 1.376 . S
C2357 C2358 1.388 . S
C2358 H2345 0.930 . S
C2358 C2357 1.388 . S
C2358 C2359 1.390 . S
C2359 C2358 1.390 . S
C2359 C2360 1.394 . S
C2359 C2365 1.465 . S
C2360 C2355 1.399 . S
C2360 C2359 1.394 . S
C2360 C2361 1.516 . S
C2361 C2360 1.516 . S
C2361 C2362 1.502 1_655 S
C2361 C2363 1.561 1_655 S
C2361 C2364 1.526 . S
C2362 H2346 0.959 1_455 S
C2362 H2347 0.959 . S
C2362 H2348 0.961 . S
C2362 C2361 1.502 1_455 S
C2363 H2349 0.960 . S
C2363 H2350 0.961 . S
C2363 H2351 0.959 . S
C2363 C2361 1.561 1_455 S
C2364 C2361 1.526 . S
C2364 C2365 1.396 . S
C2364 C2369 1.390 . S
C2365 C2359 1.465 . S
C2365 C2364 1.396 . S
C2365 C2366 1.399 . S
C2366 H2352 0.929 . S
C2366 C2365 1.399 . S
C2366 C2367 1.385 . S
C2367 H2353 0.931 . S
C2367 C2366 1.385 . S
C2367 C2368 1.389 . S
C2368 C2367 1.389 . S
C2368 C2369 1.387 . S
C2369 H2354 0.930 . S
C2369 C2364 1.390 . S
C2369 C2368 1.387 . S
H2370 C2382 0.930 . S
H2371 C2384 0.930 . S
H2372 C2385 0.930 . S
H2373 C2389 0.959 . S
H2374 C2389 0.959 . S
H2375 C2389 0.961 . S
H2376 C2390 0.960 . S
H2377 C2390 0.961 . S
H2378 C2390 0.959 1_545 S
H2379 C2393 0.929 . S
H2380 C2394 0.931 . S
H2381 C2396 0.930 1_565 S
C2382 H2370 0.930 . S
C2382 C2383 1.399 . S
C2382 C2387 1.399 . S
C2383 C2382 1.399 . S
C2383 C2384 1.376 . S
C2384 H2371 0.930 . S
C2384 C2383 1.376 . S
C2384 C2385 1.388 . S
C2385 H2372 0.930 . S
C2385 C2384 1.388 . S
C2385 C2386 1.390 . S
C2386 C2385 1.390 . S
C2386 C2387 1.394 . S
C2386 C2392 1.465 . S
C2387 C2382 1.399 . S
C2387 C2386 1.394 . S
C2387 C2388 1.516 . S
C2388 C2387 1.516 . S
C2388 C2389 1.502 1_545 S
C2388 C2390 1.561 1_545 S
C2388 C2391 1.526 . S
C2389 H2373 0.959 . S
C2389 H2374 0.959 . S
C2389 H2375 0.961 . S
C2389 C2388 1.502 1_565 S
C2390 H2376 0.960 . S
C2390 H2377 0.961 . S
C2390 H2378 0.959 1_565 S
C2390 C2388 1.561 1_565 S
C2391 C2388 1.526 . S
C2391 C2392 1.396 . S
C2391 C2396 1.390 . S
C2392 C2386 1.465 . S
C2392 C2391 1.396 . S
C2392 C2393 1.399 . S
C2393 H2379 0.929 . S
C2393 C2392 1.399 . S
C2393 C2394 1.385 . S
C2394 H2380 0.931 . S
C2394 C2393 1.385 . S
C2394 C2395 1.389 . S
C2395 C2394 1.389 . S
C2395 C2396 1.387 . S
C2396 H2381 0.930 1_545 S
C2396 C2391 1.390 . S
C2396 C2395 1.387 . S
H2397 C2409 0.930 . S
H2398 C2411 0.930 . S
H2399 C2412 0.930 . S
H2400 C2416 0.959 . S
H2401 C2416 0.959 . S
H2402 C2416 0.961 . S
H2403 C2417 0.960 . S
H2404 C2417 0.961 . S
H2405 C2417 0.959 1_565 S
H2406 C2420 0.929 . S
H2407 C2421 0.931 . S
H2408 C2423 0.930 . S
C2409 H2397 0.930 . S
C2409 C2410 1.399 . S
C2409 C2414 1.399 . S
C2410 C2409 1.399 . S
C2410 C2411 1.376 1_545 S
C2411 H2398 0.930 . S
C2411 C2410 1.376 1_565 S
C2411 C2412 1.388 . S
C2412 H2399 0.930 . S
C2412 C2411 1.388 . S
C2412 C2413 1.390 . S
C2413 C2412 1.390 . S
C2413 C2414 1.394 1_565 S
C2413 C2419 1.465 . S
C2414 C2409 1.399 . S
C2414 C2413 1.394 1_545 S
C2414 C2415 1.516 . S
C2415 C2414 1.516 . S
C2415 C2416 1.502 . S
C2415 C2417 1.561 . S
C2415 C2418 1.526 1_545 S
C2416 H2400 0.959 . S
C2416 H2401 0.959 . S
C2416 H2402 0.961 . S
C2416 C2415 1.502 . S
C2417 H2403 0.960 . S
C2417 H2404 0.961 . S
C2417 H2405 0.959 1_545 S
C2417 C2415 1.561 . S
C2418 C2415 1.526 1_565 S
C2418 C2419 1.396 . S
C2418 C2423 1.390 . S
C2419 C2413 1.465 . S
C2419 C2418 1.396 . S
C2419 C2420 1.399 . S
C2420 H2406 0.929 . S
C2420 C2419 1.399 . S
C2420 C2421 1.385 . S
C2421 H2407 0.931 . S
C2421 C2420 1.385 . S
C2421 C2422 1.389 . S
C2422 C2421 1.389 . S
C2422 C2423 1.387 . S
C2423 H2408 0.930 . S
C2423 C2418 1.390 . S
C2423 C2422 1.387 . S
H2424 C2436 0.930 . S
H2425 C2438 0.930 . S
H2426 C2439 0.930 . S
H2427 C2443 0.959 . S
H2428 C2443 0.959 . S
H2429 C2443 0.961 . S
H2430 C2444 0.960 . S
H2431 C2444 0.961 . S
H2432 C2444 0.959 . S
H2433 C2447 0.929 . S
H2434 C2448 0.919 1_554 S
H2435 C2450 0.930 . S
C2436 H2424 0.930 . S
C2436 C2437 1.399 . S
C2436 C2441 1.399 . S
C2437 C2436 1.399 . S
C2437 C2438 1.376 . S
C2438 H2425 0.930 . S
C2438 C2437 1.376 . S
C2438 C2439 1.388 . S
C2439 H2426 0.930 . S
C2439 C2438 1.388 . S
C2439 C2440 1.390 . S
C2440 C2439 1.390 . S
C2440 C2441 1.394 . S
C2440 C2446 1.465 . S
C2441 C2436 1.399 . S
C2441 C2440 1.394 . S
C2441 C2442 1.516 . S
C2442 C2441 1.516 . S
C2442 C2443 1.502 . S
C2442 C2444 1.561 . S
C2442 C2445 1.526 . S
C2443 H2427 0.959 . S
C2443 H2428 0.959 . S
C2443 H2429 0.961 . S
C2443 C2442 1.502 . S
C2444 H2430 0.960 . S
C2444 H2431 0.961 . S
C2444 H2432 0.959 . S
C2444 C2442 1.561 . S
C2445 C2442 1.526 . S
C2445 C2446 1.396 . S
C2445 C2450 1.390 . S
C2446 C2440 1.465 . S
C2446 C2445 1.396 . S
C2446 C2447 1.399 . S
C2447 H2433 0.929 . S
C2447 C2446 1.399 . S
C2447 C2448 1.385 . S
C2448 H2434 0.919 1_556 S
C2448 C2447 1.385 . S
C2448 C2449 1.389 . S
C2449 C2448 1.389 . S
C2449 C2450 1.387 . S
C2450 H2435 0.930 . S
C2450 C2445 1.390 . S
C2450 C2449 1.387 . S
H2451 C2463 0.930 . S
H2452 C2465 0.930 . S
H2453 C2466 0.930 . S
H2454 C2470 0.959 . S
H2455 C2470 0.959 . S
H2456 C2470 0.961 . S
H2457 C2471 0.960 . S
H2458 C2471 0.961 . S
H2459 C2471 0.959 . S
H2460 C2474 0.929 . S
H2461 C2475 0.931 . S
H2462 C2477 0.930 . S
C2463 H2451 0.930 . S
C2463 C2464 1.399 . S
C2463 C2468 1.399 . S
C2464 C2463 1.399 . S
C2464 C2465 1.376 . S
C2465 H2452 0.930 . S
C2465 C2464 1.376 . S
C2465 C2466 1.388 . S
C2466 H2453 0.930 . S
C2466 C2465 1.388 . S
C2466 C2467 1.390 . S
C2467 C2466 1.390 . S
C2467 C2468 1.394 . S
C2467 C2473 1.465 . S
C2468 C2463 1.399 . S
C2468 C2467 1.394 . S
C2468 C2469 1.516 . S
C2469 C2468 1.516 . S
C2469 C2470 1.502 . S
C2469 C2471 1.561 . S
C2469 C2472 1.526 . S
C2470 H2454 0.959 . S
C2470 H2455 0.959 . S
C2470 H2456 0.961 . S
C2470 C2469 1.502 . S
C2471 H2457 0.960 . S
C2471 H2458 0.961 . S
C2471 H2459 0.959 . S
C2471 C2469 1.561 . S
C2472 C2469 1.526 . S
C2472 C2473 1.396 . S
C2472 C2477 1.390 1_554 S
C2473 C2467 1.465 . S
C2473 C2472 1.396 . S
C2473 C2474 1.399 1_554 S
C2474 H2460 0.929 . S
C2474 C2473 1.399 1_556 S
C2474 C2475 1.385 . S
C2475 H2461 0.931 . S
C2475 C2474 1.385 . S
C2475 C2476 1.389 . S
C2476 C2475 1.389 . S
C2476 C2477 1.387 . S
C2477 H2462 0.930 . S
C2477 C2472 1.390 1_556 S
C2477 C2476 1.387 . S
H2478 C2490 0.930 . S
H2479 C2492 0.930 . S
H2480 C2493 0.930 . S
H2481 C2497 0.959 . S
H2482 C2497 0.959 . S
H2483 C2497 0.961 . S
H2484 C2498 0.960 . S
H2485 C2498 0.961 . S
H2486 C2498 0.959 . S
H2487 C2501 0.929 . S
H2488 C2502 0.931 . S
H2489 C2504 0.930 . S
C2490 H2478 0.930 . S
C2490 C2491 1.399 . S
C2490 C2495 1.399 . S
C2491 C2490 1.399 . S
C2491 C2492 1.376 . S
C2492 H2479 0.930 . S
C2492 C2491 1.376 . S
C2492 C2493 1.388 . S
C2493 H2480 0.930 . S
C2493 C2492 1.388 . S
C2493 C2494 1.390 . S
C2494 C2493 1.390 . S
C2494 C2495 1.394 . S
C2494 C2500 1.465 . S
C2495 C2490 1.399 . S
C2495 C2494 1.394 . S
C2495 C2496 1.516 . S
C2496 C2495 1.516 . S
C2496 C2497 1.502 . S
C2496 C2498 1.561 . S
C2496 C2499 1.526 . S
C2497 H2481 0.959 . S
C2497 H2482 0.959 . S
C2497 H2483 0.961 . S
C2497 C2496 1.502 . S
C2498 H2484 0.960 . S
C2498 H2485 0.961 . S
C2498 H2486 0.959 . S
C2498 C2496 1.561 . S
C2499 C2496 1.526 . S
C2499 C2500 1.396 . S
C2499 C2504 1.390 . S
C2500 C2494 1.465 . S
C2500 C2499 1.396 . S
C2500 C2501 1.399 . S
C2501 H2487 0.929 . S
C2501 C2500 1.399 . S
C2501 C2502 1.385 . S
C2502 H2488 0.931 . S
C2502 C2501 1.385 . S
C2502 C2503 1.389 . S
C2503 C2502 1.389 . S
C2503 C2504 1.387 . S
C2504 H2489 0.930 . S
C2504 C2499 1.390 . S
C2504 C2503 1.387 . S
H2505 C2517 0.930 . S
H2506 C2519 0.930 . S
H2507 C2520 0.930 . S
H2508 C2524 0.959 . S
H2509 C2524 0.959 . S
H2510 C2524 0.961 . S
H2511 C2525 0.960 . S
H2512 C2525 0.961 . S
H2513 C2525 0.959 . S
H2514 C2528 0.929 . S
H2515 C2529 0.931 . S
H2516 C2531 0.930 . S
C2517 H2505 0.930 . S
C2517 C2518 1.399 . S
C2517 C2522 1.399 . S
C2518 C2517 1.399 . S
C2518 C2519 1.376 . S
C2519 H2506 0.930 . S
C2519 C2518 1.376 . S
C2519 C2520 1.388 . S
C2520 H2507 0.930 . S
C2520 C2519 1.388 . S
C2520 C2521 1.390 . S
C2521 C2520 1.390 . S
C2521 C2522 1.394 . S
C2521 C2527 1.465 . S
C2522 C2517 1.399 . S
C2522 C2521 1.394 . S
C2522 C2523 1.516 . S
C2523 C2522 1.516 . S
C2523 C2524 1.502 . S
C2523 C2525 1.561 . S
C2523 C2526 1.526 . S
C2524 H2508 0.959 . S
C2524 H2509 0.959 . S
C2524 H2510 0.961 . S
C2524 C2523 1.502 . S
C2525 H2511 0.960 . S
C2525 H2512 0.961 . S
C2525 H2513 0.959 . S
C2525 C2523 1.561 . S
C2526 C2523 1.526 . S
C2526 C2527 1.396 . S
C2526 C2531 1.390 . S
C2527 C2521 1.465 . S
C2527 C2526 1.396 . S
C2527 C2528 1.399 . S
C2528 H2514 0.929 . S
C2528 C2527 1.399 . S
C2528 C2529 1.385 . S
C2529 H2515 0.931 . S
C2529 C2528 1.385 . S
C2529 C2530 1.389 . S
C2530 C2529 1.389 . S
C2530 C2531 1.387 . S
C2531 H2516 0.930 . S
C2531 C2526 1.390 . S
C2531 C2530 1.387 . S
H2532 C2544 0.930 . S
H2533 C2546 0.930 . S
H2534 C2547 0.930 . S
H2535 C2551 0.959 . S
H2536 C2551 0.959 . S
H2537 C2551 0.961 . S
H2538 C2552 0.960 . S
H2539 C2552 0.961 . S
H2540 C2552 0.959 . S
H2541 C2555 0.929 . S
H2542 C2556 0.931 . S
H2543 C2558 0.930 . S
C2544 H2532 0.930 . S
C2544 C2545 1.399 . S
C2544 C2549 1.399 . S
C2545 C2544 1.399 . S
C2545 C2546 1.376 . S
C2546 H2533 0.930 . S
C2546 C2545 1.376 . S
C2546 C2547 1.388 . S
C2547 H2534 0.930 . S
C2547 C2546 1.388 . S
C2547 C2548 1.390 . S
C2548 C2547 1.390 . S
C2548 C2549 1.394 . S
C2548 C2554 1.465 . S
C2549 C2544 1.399 . S
C2549 C2548 1.394 . S
C2549 C2550 1.516 . S
C2550 C2549 1.516 . S
C2550 C2551 1.502 . S
C2550 C2552 1.561 . S
C2550 C2553 1.526 . S
C2551 H2535 0.959 . S
C2551 H2536 0.959 . S
C2551 H2537 0.961 . S
C2551 C2550 1.502 . S
C2552 H2538 0.960 . S
C2552 H2539 0.961 . S
C2552 H2540 0.959 . S
C2552 C2550 1.561 . S
C2553 C2550 1.526 . S
C2553 C2554 1.396 . S
C2553 C2558 1.390 . S
C2554 C2548 1.465 . S
C2554 C2553 1.396 . S
C2554 C2555 1.399 . S
C2555 H2541 0.929 . S
C2555 C2554 1.399 . S
C2555 C2556 1.385 . S
C2556 H2542 0.931 . S
C2556 C2555 1.385 . S
C2556 C2557 1.389 . S
C2557 C2556 1.389 . S
C2557 C2558 1.387 . S
C2558 H2543 0.930 . S
C2558 C2553 1.390 . S
C2558 C2557 1.387 . S
H2559 C2571 0.930 . S
H2560 C2573 0.930 . S
H2561 C2574 0.930 . S
H2562 C2578 0.959 . S
H2563 C2578 0.959 . S
H2564 C2578 0.961 1_554 S
H2565 C2579 0.959 1_554 S
H2566 C2579 0.961 . S
H2567 C2579 0.959 . S
H2568 C2582 0.929 . S
H2569 C2583 0.931 . S
H2570 C2585 0.930 . S
C2571 H2559 0.930 . S
C2571 C2572 1.399 . S
C2571 C2576 1.399 1_554 S
C2572 C2571 1.399 . S
C2572 C2573 1.376 . S
C2573 H2560 0.930 . S
C2573 C2572 1.376 . S
C2573 C2574 1.388 1_554 S
C2574 H2561 0.930 . S
C2574 C2573 1.388 1_556 S
C2574 C2575 1.390 . S
C2575 C2574 1.390 . S
C2575 C2576 1.394 . S
C2575 C2581 1.465 . S
C2576 C2571 1.399 1_556 S
C2576 C2575 1.394 . S
C2576 C2577 1.516 . S
C2577 C2576 1.516 . S
C2577 C2578 1.502 . S
C2577 C2579 1.562 . S
C2577 C2580 1.526 . S
C2578 H2562 0.959 . S
C2578 H2563 0.959 . S
C2578 H2564 0.961 1_556 S
C2578 C2577 1.502 . S
C2579 H2565 0.959 1_556 S
C2579 H2566 0.961 . S
C2579 H2567 0.959 . S
C2579 C2577 1.562 . S
C2580 C2577 1.526 . S
C2580 C2581 1.396 . S
C2580 C2585 1.390 . S
C2581 C2575 1.465 . S
C2581 C2580 1.396 . S
C2581 C2582 1.399 . S
C2582 H2568 0.929 . S
C2582 C2581 1.399 . S
C2582 C2583 1.385 . S
C2583 H2569 0.931 . S
C2583 C2582 1.385 . S
C2583 C2584 1.389 . S
C2584 C2583 1.389 . S
C2584 C2585 1.387 . S
C2585 H2570 0.930 . S
C2585 C2580 1.390 . S
C2585 C2584 1.387 . S
H2586 C2598 0.930 . S
H2587 C2600 0.930 . S
H2588 C2601 0.930 . S
H2589 C2605 0.959 . S
H2590 C2605 0.959 . S
H2591 C2605 0.961 . S
H2592 C2606 0.960 . S
H2593 C2606 0.961 . S
H2594 C2606 0.959 . S
H2595 C2609 0.929 . S
H2596 C2610 0.931 . S
H2597 C2612 0.930 . S
C2598 H2586 0.930 . S
C2598 C2599 1.399 . S
C2598 C2603 1.399 . S
C2599 C2598 1.399 . S
C2599 C2600 1.376 . S
C2600 H2587 0.930 . S
C2600 C2599 1.376 . S
C2600 C2601 1.388 . S
C2601 H2588 0.930 . S
C2601 C2600 1.388 . S
C2601 C2602 1.390 . S
C2602 C2601 1.390 . S
C2602 C2603 1.394 . S
C2602 C2608 1.465 . S
C2603 C2598 1.399 . S
C2603 C2602 1.394 . S
C2603 C2604 1.516 . S
C2604 C2603 1.516 . S
C2604 C2605 1.502 . S
C2604 C2606 1.561 . S
C2604 C2607 1.526 . S
C2605 H2589 0.959 . S
C2605 H2590 0.959 . S
C2605 H2591 0.961 . S
C2605 C2604 1.502 . S
C2606 H2592 0.960 . S
C2606 H2593 0.961 . S
C2606 H2594 0.959 . S
C2606 C2604 1.561 . S
C2607 C2604 1.526 . S
C2607 C2608 1.396 . S
C2607 C2612 1.390 . S
C2608 C2602 1.465 . S
C2608 C2607 1.396 . S
C2608 C2609 1.399 . S
C2609 H2595 0.929 . S
C2609 C2608 1.399 . S
C2609 C2610 1.385 . S
C2610 H2596 0.931 . S
C2610 C2609 1.385 . S
C2610 C2611 1.389 . S
C2611 C2610 1.389 . S
C2611 C2612 1.387 . S
C2612 H2597 0.930 . S
C2612 C2607 1.390 . S
C2612 C2611 1.387 . S
H2613 C2625 0.930 . S
H2614 C2627 0.930 . S
H2615 C2628 0.930 . S
H2616 C2632 0.959 . S
H2617 C2632 0.959 . S
H2618 C2632 0.961 . S
H2619 C2633 0.960 . S
H2620 C2633 0.961 . S
H2621 C2633 0.959 . S
H2622 C2636 0.929 . S
H2623 C2637 0.931 . S
H2624 C2639 0.930 . S
C2625 H2613 0.930 . S
C2625 C2626 1.399 . S
C2625 C2630 1.399 . S
C2626 C2625 1.399 . S
C2626 C2627 1.376 . S
C2627 H2614 0.930 . S
C2627 C2626 1.376 . S
C2627 C2628 1.388 . S
C2628 H2615 0.930 . S
C2628 C2627 1.388 . S
C2628 C2629 1.390 . S
C2629 C2628 1.390 . S
C2629 C2630 1.394 . S
C2629 C2635 1.465 . S
C2630 C2625 1.399 . S
C2630 C2629 1.394 . S
C2630 C2631 1.516 . S
C2631 C2630 1.516 . S
C2631 C2632 1.502 . S
C2631 C2633 1.561 . S
C2631 C2634 1.526 . S
C2632 H2616 0.959 . S
C2632 H2617 0.959 . S
C2632 H2618 0.961 . S
C2632 C2631 1.502 . S
C2633 H2619 0.960 . S
C2633 H2620 0.961 . S
C2633 H2621 0.959 . S
C2633 C2631 1.561 . S
C2634 C2631 1.526 . S
C2634 C2635 1.396 . S
C2634 C2639 1.390 . S
C2635 C2629 1.465 . S
C2635 C2634 1.396 . S
C2635 C2636 1.399 . S
C2636 H2622 0.929 . S
C2636 C2635 1.399 . S
C2636 C2637 1.385 . S
C2637 H2623 0.931 . S
C2637 C2636 1.385 . S
C2637 C2638 1.389 . S
C2638 C2637 1.389 . S
C2638 C2639 1.387 . S
C2639 H2624 0.930 . S
C2639 C2634 1.390 . S
C2639 C2638 1.387 . S
C1357 C69 1.132 . S
C1369 C657 0.966 . S
C1384 C153 2.259 . S
C1396 C403 2.793 . S
C1411 C487 0.362 . S
C1423 C237 1.015 . S
C1438 C319 2.940 . S
C1450 C571 2.946 . S
C1465 C982 0.947 . S
C1477 C394 0.989 . S
C1492 C730 2.198 . S
C1504 C56 2.794 1_655 S
C1519 C896 0.284 . S
C1531 C562 1.047 . S
C1546 C224 2.960 . S
C1558 C812 2.952 . S
C1573 C825 0.793 . S
C1585 C1077 0.996 . S
C1600 C909 2.175 . S
C1612 C1243 2.788 . S
C1627 C1161 0.909 . S
C1639 C739 0.251 . S
C1654 C991 2.922 . S
C1666 C1327 2.942 1_554 S
C1681 C1234 1.143 . S
C1693 C310 0.938 . S
C1708 C1064 2.783 . S
C1720 C478 2.175 . S
C1735 C140 0.249 . S
C1747 C1318 0.849 . S
C1762 C644 2.929 . S
C1774 C1148 2.937 1_556 S
C1789 C1155 1.172 . S
C1801 C63 1.134 . S
C1816 C998 0.686 . S
C1828 C147 0.684 . S
C1843 C1071 1.144 . S
C1855 C231 1.177 . S
C1870 C903 0.582 . S
C1882 C326 0.589 . S
C1897 C410 0.942 . S
C1909 C1334 1.153 . S
C1924 C819 0.748 . S
C1936 C494 0.783 . S
C1951 C578 1.167 . S
C1963 C1250 1.152 . S
C1978 C651 0.624 . S
C1990 C746 0.660 . S
C2005 C74 2.438 . S
C2017 C399 2.481 . S
C2032 C158 1.578 . S
C2044 C483 1.550 . S
C2059 C567 2.340 . S
C2071 C242 2.401 . S
C2086 C315 1.414 . S
C2098 C662 1.491 . S
C2113 C914 1.532 . S
C2125 C735 1.547 . S
C2140 C987 1.418 . S
C2152 C830 1.495 . S
C2167 C1082 2.430 . S
C2179 C1239 2.449 . S
C2194 C1323 2.092 1_455 S
C2206 C1166 2.164 . S
C2221 C67 3.013 . S
C2233 C655 2.949 . S
C2248 C151 1.079 . S
C2260 C405 1.152 . S
C2275 C489 2.089 . S
C2287 C235 2.091 . S
C2302 C573 0.653 . S
C2314 C321 0.610 . S
C2329 C980 2.949 . S
C2341 C392 3.002 . S
C2356 C728 1.086 . S
C2368 C58 1.093 . S
C2383 C898 2.035 . S
C2395 C560 2.104 . S
C2410 C226 0.676 . S
C2422 C814 0.692 . S
C2437 C1075 3.007 . S
C2449 C823 2.935 1_556 S
C2464 C1245 1.075 . S
C2476 C907 1.046 . S
C2491 C1159 2.137 . S
C2503 C741 2.092 . S
C2518 C1329 0.586 . S
C2530 C993 0.545 . S
C2545 C1232 2.984 . S
C2557 C308 2.911 1_554 S
C2572 C476 1.129 . S
C2584 C1066 1.129 . S
C2599 C142 2.017 . S
C2611 C1316 2.092 . S
C2626 C1150 0.581 . S
C2638 C646 0.530 . S
