# Generated by pormake.
# Topology yfj, (5)-cn, num edge types: 1
# Building blocks:
#     Node 0, Type 0, BuildingBlock: BEQFEK_clean_sbu_0, # of connection points: 5
#     Node 1, Type 0, BuildingBlock: BEQFEK_clean_sbu_0, # of connection points: 5
#     Node 2, Type 0, BuildingBlock: BEQFEK_clean_sbu_0, # of connection points: 5
#     Node 3, Type 0, BuildingBlock: BEQFEK_clean_sbu_0, # of connection points: 5
#     Node 4, Type 0, BuildingBlock: BEQFEK_clean_sbu_0, # of connection points: 5
#     Node 5, Type 0, BuildingBlock: BEQFEK_clean_sbu_0, # of connection points: 5
#     Node 6, Type 0, BuildingBlock: BEQFEK_clean_sbu_0, # of connection points: 5
#     Node 7, Type 0, BuildingBlock: BEQFEK_clean_sbu_0, # of connection points: 5
#     Node 8, Type 0, BuildingBlock: BEQFEK_clean_sbu_0, # of connection points: 5
#     Node 9, Type 0, BuildingBlock: BEQFEK_clean_sbu_0, # of connection points: 5
#     Node 10, Type 0, BuildingBlock: BEQFEK_clean_sbu_0, # of connection points: 5
#     Node 11, Type 0, BuildingBlock: BEQFEK_clean_sbu_0, # of connection points: 5
#     Node 12, Type 0, BuildingBlock: BEQFEK_clean_sbu_0, # of connection points: 5
#     Node 13, Type 0, BuildingBlock: BEQFEK_clean_sbu_0, # of connection points: 5
#     Node 14, Type 0, BuildingBlock: BEQFEK_clean_sbu_0, # of connection points: 5
#     Node 15, Type 0, BuildingBlock: BEQFEK_clean_sbu_0, # of connection points: 5
#     Edge 16, Type (0, 0), BuildingBlock: KIFKEQ_clean_linker_1, # of connection points: 2
#     Edge 17, Type (0, 0), BuildingBlock: KIFKEQ_clean_linker_1, # of connection points: 2
#     Edge 18, Type (0, 0), BuildingBlock: KIFKEQ_clean_linker_1, # of connection points: 2
#     Edge 19, Type (0, 0), BuildingBlock: KIFKEQ_clean_linker_1, # of connection points: 2
#     Edge 20, Type (0, 0), BuildingBlock: KIFKEQ_clean_linker_1, # of connection points: 2
#     Edge 21, Type (0, 0), BuildingBlock: KIFKEQ_clean_linker_1, # of connection points: 2
#     Edge 22, Type (0, 0), BuildingBlock: KIFKEQ_clean_linker_1, # of connection points: 2
#     Edge 23, Type (0, 0), BuildingBlock: KIFKEQ_clean_linker_1, # of connection points: 2
#     Edge 24, Type (0, 0), BuildingBlock: KIFKEQ_clean_linker_1, # of connection points: 2
#     Edge 25, Type (0, 0), BuildingBlock: KIFKEQ_clean_linker_1, # of connection points: 2
#     Edge 26, Type (0, 0), BuildingBlock: KIFKEQ_clean_linker_1, # of connection points: 2
#     Edge 27, Type (0, 0), BuildingBlock: KIFKEQ_clean_linker_1, # of connection points: 2
#     Edge 28, Type (0, 0), BuildingBlock: KIFKEQ_clean_linker_1, # of connection points: 2
#     Edge 29, Type (0, 0), BuildingBlock: KIFKEQ_clean_linker_1, # of connection points: 2
#     Edge 30, Type (0, 0), BuildingBlock: KIFKEQ_clean_linker_1, # of connection points: 2
#     Edge 31, Type (0, 0), BuildingBlock: KIFKEQ_clean_linker_1, # of connection points: 2
#     Edge 32, Type (0, 0), BuildingBlock: KIFKEQ_clean_linker_1, # of connection points: 2
#     Edge 33, Type (0, 0), BuildingBlock: KIFKEQ_clean_linker_1, # of connection points: 2
#     Edge 34, Type (0, 0), BuildingBlock: KIFKEQ_clean_linker_1, # of connection points: 2
#     Edge 35, Type (0, 0), BuildingBlock: KIFKEQ_clean_linker_1, # of connection points: 2
#     Edge 36, Type (0, 0), BuildingBlock: KIFKEQ_clean_linker_1, # of connection points: 2
#     Edge 37, Type (0, 0), BuildingBlock: KIFKEQ_clean_linker_1, # of connection points: 2
#     Edge 38, Type (0, 0), BuildingBlock: KIFKEQ_clean_linker_1, # of connection points: 2
#     Edge 39, Type (0, 0), BuildingBlock: KIFKEQ_clean_linker_1, # of connection points: 2
#     Edge 40, Type (0, 0), BuildingBlock: KIFKEQ_clean_linker_1, # of connection points: 2
#     Edge 41, Type (0, 0), BuildingBlock: KIFKEQ_clean_linker_1, # of connection points: 2
#     Edge 42, Type (0, 0), BuildingBlock: KIFKEQ_clean_linker_1, # of connection points: 2
#     Edge 43, Type (0, 0), BuildingBlock: KIFKEQ_clean_linker_1, # of connection points: 2
#     Edge 44, Type (0, 0), BuildingBlock: KIFKEQ_clean_linker_1, # of connection points: 2
#     Edge 45, Type (0, 0), BuildingBlock: KIFKEQ_clean_linker_1, # of connection points: 2
#     Edge 46, Type (0, 0), BuildingBlock: KIFKEQ_clean_linker_1, # of connection points: 2
#     Edge 47, Type (0, 0), BuildingBlock: KIFKEQ_clean_linker_1, # of connection points: 2
#     Edge 48, Type (0, 0), BuildingBlock: KIFKEQ_clean_linker_1, # of connection points: 2
#     Edge 49, Type (0, 0), BuildingBlock: KIFKEQ_clean_linker_1, # of connection points: 2
#     Edge 50, Type (0, 0), BuildingBlock: KIFKEQ_clean_linker_1, # of connection points: 2
#     Edge 51, Type (0, 0), BuildingBlock: KIFKEQ_clean_linker_1, # of connection points: 2
#     Edge 52, Type (0, 0), BuildingBlock: KIFKEQ_clean_linker_1, # of connection points: 2
#     Edge 53, Type (0, 0), BuildingBlock: KIFKEQ_clean_linker_1, # of connection points: 2
#     Edge 54, Type (0, 0), BuildingBlock: KIFKEQ_clean_linker_1, # of connection points: 2
#     Edge 55, Type (0, 0), BuildingBlock: KIFKEQ_clean_linker_1, # of connection points: 2
# Relax obj value: 0.520
# Max RMSD: 0.226
# Mean RMSD: 0.226
data_MOF--net-yfj--node1-BEQFEK_clean_sbu_0--edge1-KIFKEQ_clean_linker_1
_symmetry_space_group_name_H-M    P1
_symmetry_Int_Tables_number       1
_symmetry_cell_setting            triclinic
loop_
_symmetry_equiv_pos_as_xyz
'x, y, z'
_cell_length_a     46.655561
_cell_length_b     46.65384
_cell_length_c     50.086425
_cell_angle_alpha  89.986817
_cell_angle_beta   90.018333
_cell_angle_gamma 90.010751
loop_
_atom_site_label
_atom_site_type_symbol
_atom_site_fract_x
_atom_site_fract_y
_atom_site_fract_z
_atom_type_partial_charge
Co0 Co 0.0957 0.12592 0.36679 0.0
Co1 Co 0.12104 0.14463 0.31043 0.0
C2 C 0.15546 0.11085 0.34931 0.0
O3 O 0.13507 0.11094 0.36609 0.0
O4 O 0.15303 0.12314 0.32675 0.0
C5 C 0.08815 0.08773 0.41063 0.0
O6 O 0.10679 0.07254 0.39702 0.0
C7 C 0.14967 0.1371 0.25806 0.0
C8 C 0.13577 0.17544 0.23572 0.0
C9 C 0.1526 0.15105 0.2336 0.0
N10 N 0.1318 0.15242 0.2737 0.0
N11 N 0.12344 0.17522 0.26009 0.0
C12 C 0.16603 0.11151 0.26776 0.0
H13 H 0.18433 0.1191 0.27996 0.0
H14 H 0.15215 0.09799 0.28059 0.0
H15 H 0.17477 0.09841 0.25129 0.0
C16 C 0.05583 0.09457 0.33262 0.0
N17 N 0.07636 0.1145 0.33559 0.0
N18 N 0.08684 0.12137 0.31199 0.0
C19 C 0.07324 0.10547 0.29327 0.0
C20 C 0.05332 0.08783 0.3058 0.0
C21 C 0.04162 0.07938 0.35536 0.0
H22 H 0.03558 0.09504 0.37102 0.0
H23 H 0.05686 0.06373 0.36411 0.0
H24 H 0.02219 0.06772 0.34857 0.0
O25 O 0.09777 0.16783 0.36961 0.0
O26 O 0.11792 0.18189 0.33148 0.0
H27 H 0.08395 0.126 0.25637 0.0
H28 H 0.06603 0.09183 0.25259 0.0
C29 C 0.08191 0.10402 0.26457 0.0
H30 H 0.10302 0.09328 0.26298 0.0
H31 H 0.10975 0.19094 0.26762 0.0
O32 O 0.07844 0.11085 0.40055 0.0
C33 C 0.10797 0.18744 0.35473 0.0
Co34 Co 0.8718 0.59527 0.61747 0.0
Co35 Co 0.85316 0.62069 0.56127 0.0
C36 C 0.88846 0.65437 0.59993 0.0
O37 O 0.88864 0.63393 0.6167 0.0
O38 O 0.87532 0.6522 0.57776 0.0
C39 C 0.90981 0.58398 0.66114 0.0
O40 O 0.92735 0.60003 0.64708 0.0
C41 C 0.86105 0.64912 0.50885 0.0
C42 C 0.82211 0.63619 0.48689 0.0
C43 C 0.84684 0.65249 0.48456 0.0
N44 N 0.8455 0.63154 0.52459 0.0
N45 N 0.82235 0.62375 0.5112 0.0
C46 C 0.88712 0.66479 0.51839 0.0
H47 H 0.88011 0.68324 0.53068 0.0
H48 H 0.90036 0.65051 0.5311 0.0
H49 H 0.90032 0.67323 0.50185 0.0
C50 C 0.89995 0.55284 0.58311 0.0
N51 N 0.88199 0.57509 0.58631 0.0
N52 N 0.87547 0.58595 0.56277 0.0
C53 C 0.88993 0.57117 0.54388 0.0
C54 C 0.90579 0.54965 0.55615 0.0
C55 C 0.91452 0.53775 0.60573 0.0
H56 H 0.89893 0.53362 0.62197 0.0
H57 H 0.93183 0.55165 0.61365 0.0
H58 H 0.92411 0.51716 0.59923 0.0
O59 O 0.83007 0.59898 0.62041 0.0
O60 O 0.81568 0.61796 0.58193 0.0
H61 H 0.90234 0.56272 0.50304 0.0
H62 H 0.90186 0.60003 0.51271 0.0
C63 C 0.89081 0.57913 0.51497 0.0
H64 H 0.86866 0.58144 0.50726 0.0
H65 H 0.80639 0.61042 0.51888 0.0
O66 O 0.88549 0.57746 0.65133 0.0
C67 C 0.8103 0.60874 0.60547 0.0
Co68 Co 0.41071 0.36762 0.86578 0.0
Co69 Co 0.38207 0.35236 0.80997 0.0
C70 C 0.35036 0.38481 0.85102 0.0
O71 O 0.37132 0.38262 0.86709 0.0
O72 O 0.35143 0.37454 0.82751 0.0
C73 C 0.42185 0.40534 0.90932 0.0
O74 O 0.40532 0.42245 0.89529 0.0
C75 C 0.34665 0.3527 0.76031 0.0
C76 C 0.37659 0.33454 0.73071 0.0
C77 C 0.34947 0.34621 0.73336 0.0
N78 N 0.37105 0.3453 0.77307 0.0
N79 N 0.38865 0.33406 0.7552 0.0
C80 C 0.32215 0.36798 0.77327 0.0
H81 H 0.32955 0.38935 0.7801 0.0
H82 H 0.30388 0.37089 0.75936 0.0
H83 H 0.31495 0.35572 0.79103 0.0
C84 C 0.44923 0.40033 0.83143 0.0
N85 N 0.42887 0.38021 0.83434 0.0
N86 N 0.41631 0.37559 0.81116 0.0
C87 C 0.42769 0.39383 0.79301 0.0
C88 C 0.44898 0.41004 0.8053 0.0
C89 C 0.46604 0.41287 0.85403 0.0
H90 H 0.47131 0.39599 0.86883 0.0
H91 H 0.45308 0.42968 0.86397 0.0
H92 H 0.48613 0.42286 0.84662 0.0
O93 O 0.40857 0.32602 0.86729 0.0
O94 O 0.38527 0.31417 0.83015 0.0
H95 H 0.42142 0.38233 0.75221 0.0
H96 H 0.42212 0.42038 0.75788 0.0
C97 C 0.41483 0.39956 0.76615 0.0
H98 H 0.3911 0.39951 0.76758 0.0
H99 H 0.40933 0.32694 0.75957 0.0
O100 O 0.42891 0.38116 0.89953 0.0
C101 C 0.39673 0.30732 0.85252 0.0
Co102 Co 0.62692 0.90774 0.11554 0.0
Co103 Co 0.64723 0.88147 0.06032 0.0
C104 C 0.61196 0.84801 0.09944 0.0
O105 O 0.61083 0.86884 0.11572 0.0
O106 O 0.62554 0.85004 0.0775 0.0
C107 C 0.58847 0.91915 0.15871 0.0
O108 O 0.57136 0.90249 0.1448 0.0
C109 C 0.63876 0.85079 0.00964 0.0
C110 C 0.67759 0.86147 0.98657 0.0
C111 C 0.65261 0.84536 0.98553 0.0
N112 N 0.65495 0.86879 0.02429 0.0
N113 N 0.6781 0.8752 0.01029 0.0
C114 C 0.60979 0.8404 0.0181 0.0
H115 H 0.59969 0.85593 0.03197 0.0
H116 H 0.59567 0.83721 1.00051 0.0
H117 H 0.61212 0.81966 0.02867 0.0
C118 C 0.59797 0.94829 0.07975 0.0
N119 N 0.61666 0.9268 0.08376 0.0
N120 N 0.62432 0.91588 0.06055 0.0
C121 C 0.61014 0.93009 0.04106 0.0
C122 C 0.59303 0.95104 0.05262 0.0
C123 C 0.58211 0.96326 0.10165 0.0
H124 H 0.59705 0.96857 0.11813 0.0
H125 H 0.56526 0.94877 0.10953 0.0
H126 H 0.57177 0.98318 0.09431 0.0
O127 O 0.66872 0.9048 0.11895 0.0
O128 O 0.68442 0.88538 0.08113 0.0
H129 H 0.63292 0.91793 1.00569 0.0
H130 H 0.60121 0.93938 0.99967 0.0
C131 C 0.61059 0.92209 0.01216 0.0
H132 H 0.59787 0.90229 1.00918 0.0
H133 H 0.69442 0.88867 0.01704 0.0
O134 O 0.61264 0.92616 0.14887 0.0
C135 C 0.68904 0.89519 0.10459 0.0
Co136 Co 0.09334 0.37257 0.90076 0.0
Co137 Co 0.12111 0.35552 0.95652 0.0
C138 C 0.15413 0.38728 0.91579 0.0
O139 O 0.13324 0.38583 0.89963 0.0
O140 O 0.15249 0.37698 0.93923 0.0
C141 C 0.0857 0.4119 0.85844 0.0
O142 O 0.10379 0.42667 0.8731 0.0
C143 C 0.1528 0.36182 1.00765 0.0
C144 C 0.13429 0.32742 0.03251 0.0
C145 C 0.15421 0.34947 0.03294 0.0
N146 N 0.13273 0.34797 0.99313 0.0
N147 N 0.12178 0.32743 1.00821 0.0
C148 C 0.17206 0.3845 0.99642 0.0
H149 H 0.18553 0.3748 0.98057 0.0
H150 H 0.15899 0.4017 0.98717 0.0
H151 H 0.18657 0.39383 0.01158 0.0
C152 C 0.05532 0.40536 0.93561 0.0
N153 N 0.07554 0.38518 0.93237 0.0
N154 N 0.0872 0.37914 0.95568 0.0
C155 C 0.07497 0.39608 0.97441 0.0
C156 C 0.05448 0.41337 0.96223 0.0
C157 C 0.03952 0.41935 0.91311 0.0
H158 H 0.03363 0.40314 0.89789 0.0
H159 H 0.05355 0.43564 0.90367 0.0
H160 H 0.01983 0.43017 0.92043 0.0
O161 O 0.09422 0.33079 0.8985 0.0
O162 O 0.11693 0.31789 0.93572 0.0
H163 H 0.08605 0.37759 0.01208 0.0
H164 H 0.0722 0.41372 0.01429 0.0
C165 C 0.08578 0.39895 1.00239 0.0
H166 H 0.10804 0.40724 1.002 0.0
H167 H 0.10582 0.31331 1.00187 0.0
O168 O 0.07594 0.38829 0.8674 0.0
C169 C 0.10558 0.31161 0.91314 0.0
Co170 Co 0.6282 0.59476 0.15149 0.0
Co171 Co 0.64738 0.6204 0.20741 0.0
C172 C 0.61241 0.6541 0.16827 0.0
O173 O 0.61182 0.63353 0.15167 0.0
O174 O 0.62561 0.65189 0.1904 0.0
C175 C 0.59052 0.58375 0.10749 0.0
O176 O 0.57321 0.60044 0.12112 0.0
C177 C 0.63842 0.65053 0.25845 0.0
C178 C 0.67733 0.64001 0.28147 0.0
C179 C 0.65225 0.65596 0.28261 0.0
N180 N 0.65472 0.63271 0.2437 0.0
N181 N 0.67791 0.6264 0.25769 0.0
C182 C 0.60941 0.66077 0.24995 0.0
H183 H 0.59947 0.64527 0.23595 0.0
H184 H 0.59521 0.66375 0.26751 0.0
H185 H 0.61165 0.68159 0.23948 0.0
C186 C 0.59868 0.55362 0.1863 0.0
N187 N 0.61748 0.57516 0.18293 0.0
N188 N 0.62467 0.5858 0.20638 0.0
C189 C 0.61012 0.57136 0.22546 0.0
C190 C 0.59309 0.55056 0.21339 0.0
C191 C 0.58301 0.53965 0.16367 0.0
H192 H 0.59828 0.53452 0.1474 0.0
H193 H 0.56676 0.55479 0.15579 0.0
H194 H 0.57195 0.51974 0.16986 0.0
O195 O 0.67005 0.59809 0.14859 0.0
O196 O 0.68484 0.61711 0.1869 0.0
H197 H 0.63306 0.58284 0.26096 0.0
H198 H 0.60163 0.56092 0.2667 0.0
C199 C 0.61073 0.57861 0.25453 0.0
H200 H 0.59786 0.59822 0.25803 0.0
H201 H 0.69435 0.61313 0.25086 0.0
O202 O 0.61452 0.57674 0.11768 0.0
C203 C 0.69001 0.60774 0.16338 0.0
Co204 Co 0.40739 0.13078 0.40176 0.0
Co205 Co 0.38096 0.15031 0.45739 0.0
C206 C 0.34804 0.11449 0.41876 0.0
O207 O 0.36865 0.11432 0.40225 0.0
O208 O 0.34987 0.1278 0.44082 0.0
C209 C 0.4167 0.09174 0.35899 0.0
O210 O 0.399 0.07604 0.37319 0.0
C211 C 0.35071 0.14107 0.50831 0.0
C212 C 0.35992 0.18041 0.53114 0.0
C213 C 0.34466 0.15489 0.53232 0.0
N214 N 0.36822 0.15777 0.49358 0.0
N215 N 0.37376 0.18122 0.50747 0.0
C216 C 0.34134 0.11171 0.49997 0.0
H217 H 0.35722 0.10207 0.48617 0.0
H218 H 0.3386 0.09759 0.51763 0.0
H219 H 0.32055 0.11327 0.48936 0.0
C220 C 0.44898 0.10302 0.4371 0.0
N221 N 0.42687 0.12104 0.43345 0.0
N222 N 0.41587 0.12811 0.4568 0.0
C223 C 0.43063 0.11411 0.47605 0.0
C224 C 0.45207 0.09783 0.46418 0.0
C225 C 0.46403 0.08782 0.41484 0.0
H226 H 0.46921 0.10327 0.39871 0.0
H227 H 0.44959 0.07117 0.40652 0.0
H228 H 0.48403 0.07736 0.42178 0.0
O229 O 0.40377 0.17255 0.39806 0.0
O230 O 0.38384 0.18743 0.43601 0.0
H231 H 0.44081 0.10559 0.51732 0.0
H232 H 0.40381 0.10055 0.50819 0.0
C233 C 0.42296 0.11418 0.50503 0.0
H234 H 0.41784 0.13629 0.51157 0.0
H235 H 0.38662 0.19799 0.50064 0.0
O236 O 0.42544 0.11554 0.36842 0.0
C237 C 0.39349 0.19249 0.41253 0.0
Co238 Co 0.87006 0.90632 0.65251 0.0
Co239 Co 0.85323 0.88043 0.70902 0.0
C240 C 0.88746 0.84707 0.66959 0.0
O241 O 0.88661 0.86751 0.65283 0.0
O242 O 0.87535 0.84908 0.69228 0.0
C243 C 0.90746 0.91724 0.60843 0.0
O244 O 0.92497 0.90101 0.62235 0.0
C245 C 0.86106 0.85151 0.76133 0.0
C246 C 0.82349 0.86655 0.78415 0.0
C247 C 0.84742 0.84905 0.78597 0.0
N248 N 0.84599 0.86977 0.74584 0.0
N249 N 0.82366 0.87878 0.75974 0.0
C250 C 0.886 0.83441 0.75135 0.0
H251 H 0.87772 0.81689 0.73857 0.0
H252 H 0.90019 0.84812 0.739 0.0
H253 H 0.89857 0.82456 0.76766 0.0
C254 C 0.90101 0.94715 0.68626 0.0
N255 N 0.88154 0.92613 0.68351 0.0
N256 N 0.87558 0.91523 0.70716 0.0
C257 C 0.89177 0.92888 0.72562 0.0
C258 C 0.90856 0.94941 0.71293 0.0
C259 C 0.91512 0.9622 0.66339 0.0
H260 H 0.89909 0.96702 0.64767 0.0
H261 H 0.93191 0.94812 0.65483 0.0
H262 H 0.92536 0.98245 0.6701 0.0
O263 O 0.82822 0.903 0.6504 0.0
O264 O 0.81543 0.88261 0.68876 0.0
H265 H 0.87291 0.91772 0.76315 0.0
H266 H 0.90756 0.93491 0.76583 0.0
C267 C 0.8945 0.91954 0.75407 0.0
H268 H 0.90485 0.89817 0.7548 0.0
H269 H 0.80822 0.89291 0.75238 0.0
O270 O 0.88331 0.92401 0.61843 0.0
C271 C 0.80917 0.89241 0.66563 0.0
Co272 Co 0.59441 0.62784 0.86563 0.0
Co273 Co 0.62036 0.64745 0.80998 0.0
C274 C 0.65392 0.61207 0.84874 0.0
O275 O 0.63322 0.61145 0.86522 0.0
O276 O 0.65192 0.62543 0.82666 0.0
C277 C 0.58305 0.58971 0.90923 0.0
O278 O 0.59951 0.57233 0.89543 0.0
C279 C 0.64906 0.64002 0.7577 0.0
C280 C 0.63647 0.67926 0.73602 0.0
C281 C 0.65259 0.65443 0.73355 0.0
N282 N 0.63154 0.65554 0.77351 0.0
N283 N 0.62396 0.67887 0.76029 0.0
C284 C 0.66448 0.61372 0.76706 0.0
H285 H 0.68309 0.62044 0.7793 0.0
H286 H 0.65013 0.60058 0.77978 0.0
H287 H 0.67265 0.60052 0.7504 0.0
C288 C 0.55272 0.59965 0.83055 0.0
N289 N 0.57478 0.61775 0.83419 0.0
N290 N 0.58578 0.62478 0.81084 0.0
C291 C 0.57125 0.61054 0.79162 0.0
C292 C 0.54978 0.59429 0.80349 0.0
C293 C 0.53754 0.58457 0.85282 0.0
H294 H 0.53282 0.59995 0.8691 0.0
H295 H 0.55167 0.56751 0.86086 0.0
H296 H 0.51727 0.5746 0.8459 0.0
O297 O 0.59757 0.66952 0.86884 0.0
O298 O 0.61697 0.68475 0.83083 0.0
H299 H 0.56303 0.59897 0.75053 0.0
H300 H 0.60026 0.59914 0.76042 0.0
C301 C 0.57939 0.61022 0.76275 0.0
H302 H 0.58182 0.63252 0.75543 0.0
H303 H 0.6107 0.69483 0.76805 0.0
O304 O 0.57627 0.61386 0.89923 0.0
C305 C 0.60725 0.68965 0.85428 0.0
Co306 Co 0.37212 0.09408 0.11686 0.0
Co307 Co 0.35265 0.11953 0.06079 0.0
C308 C 0.38641 0.15397 0.09991 0.0
O309 O 0.38689 0.13342 0.11649 0.0
O310 O 0.37373 0.1516 0.07755 0.0
C311 C 0.41082 0.08656 0.16021 0.0
O312 O 0.42594 0.10486 0.14613 0.0
C313 C 0.36137 0.14962 0.00969 0.0
C314 C 0.3228 0.13845 0.98646 0.0
C315 C 0.34772 0.15468 0.98537 0.0
N316 N 0.34513 0.13173 0.02446 0.0
N317 N 0.32213 0.12505 0.01035 0.0
C318 C 0.39021 0.16023 0.01834 0.0
H319 H 0.40007 0.14514 0.03277 0.0
H320 H 0.40465 0.16286 1.0009 0.0
H321 H 0.38772 0.18127 0.02836 0.0
C322 C 0.40365 0.05477 0.08225 0.0
N323 N 0.38357 0.07511 0.08541 0.0
N324 N 0.37628 0.08549 0.06187 0.0
C325 C 0.39196 0.07187 0.04299 0.0
C326 C 0.41004 0.05224 0.05537 0.0
C327 C 0.41915 0.04061 0.10485 0.0
H328 H 0.4037 0.0345 0.12067 0.0
H329 H 0.43486 0.05589 0.11343 0.0
H330 H 0.43079 0.02123 0.09794 0.0
O331 O 0.33019 0.09601 0.11982 0.0
O332 O 0.31538 0.11544 0.08163 0.0
H333 H 0.37057 0.08464 1.00699 0.0
H334 H 0.40182 0.06233 1.0019 0.0
C335 C 0.39255 0.07989 0.0141 0.0
H336 H 0.40602 0.09924 0.01142 0.0
H337 H 0.3058 0.11161 0.01714 0.0
O338 O 0.3875 0.07683 0.15055 0.0
C339 C 0.3102 0.10565 0.10503 0.0
Co340 Co 0.90476 0.87238 0.36686 0.0
Co341 Co 0.87964 0.85217 0.31113 0.0
C342 C 0.84585 0.88831 0.34938 0.0
O343 O 0.86622 0.88939 0.36617 0.0
O344 O 0.84826 0.87433 0.32771 0.0
C345 C 0.91611 0.91059 0.41032 0.0
O346 O 0.89978 0.92796 0.39636 0.0
C347 C 0.84973 0.86143 0.2602 0.0
C348 C 0.85979 0.82251 0.23704 0.0
C349 C 0.84417 0.84779 0.23603 0.0
N350 N 0.86734 0.84484 0.2749 0.0
N351 N 0.8734 0.82165 0.26083 0.0
C352 C 0.8398 0.89055 0.26869 0.0
H353 H 0.85547 0.9004 0.28258 0.0
H354 H 0.83681 0.90474 0.25112 0.0
H355 H 0.81901 0.88853 0.27924 0.0
C356 C 0.94637 0.9009 0.3318 0.0
N357 N 0.92474 0.88228 0.33543 0.0
N358 N 0.91432 0.8746 0.31201 0.0
C359 C 0.92904 0.88864 0.29277 0.0
C360 C 0.94977 0.90573 0.30472 0.0
C361 C 0.96086 0.91684 0.35393 0.0
H362 H 0.96586 0.90195 0.37054 0.0
H363 H 0.94619 0.93369 0.3615 0.0
H364 H 0.98092 0.92719 0.34692 0.0
O365 O 0.90095 0.83056 0.37034 0.0
O366 O 0.88267 0.81495 0.33199 0.0
H367 H 0.91723 0.86594 0.25724 0.0
H368 H 0.93931 0.89729 0.25155 0.0
C369 C 0.92162 0.88822 0.26374 0.0
H370 H 0.9021 0.90125 0.26037 0.0
H371 H 0.88648 0.80502 0.26761 0.0
O372 O 0.92285 0.88636 0.40047 0.0
C373 C 0.89162 0.81028 0.35574 0.0
Co374 Co 0.13423 0.40972 0.61757 0.0
Co375 Co 0.14677 0.38028 0.56174 0.0
C376 C 0.11485 0.34952 0.60297 0.0
O377 O 0.11919 0.37014 0.61903 0.0
O378 O 0.12328 0.35058 0.57888 0.0
C379 C 0.09588 0.41896 0.66031 0.0
O380 O 0.08018 0.40163 0.6457 0.0
C381 C 0.1476 0.34302 0.51379 0.0
C382 C 0.15933 0.37322 0.48173 0.0
C383 C 0.15067 0.34515 0.48612 0.0
N384 N 0.15314 0.36876 0.52491 0.0
N385 N 0.16071 0.38653 0.5056 0.0
C386 C 0.14155 0.31658 0.52976 0.0
H387 H 0.15293 0.31761 0.54918 0.0
H388 H 0.11819 0.31513 0.53367 0.0
H389 H 0.14863 0.29706 0.51897 0.0
C390 C 0.10153 0.44887 0.58391 0.0
N391 N 0.1213 0.42809 0.58631 0.0
N392 N 0.12464 0.41517 0.56312 0.0
C393 C 0.10576 0.42664 0.54558 0.0
C394 C 0.09062 0.44848 0.55819 0.0
C395 C 0.09037 0.46622 0.60678 0.0
H396 H 0.10798 0.47123 0.62089 0.0
H397 H 0.07368 0.45379 0.61746 0.0
H398 H 0.08057 0.48646 0.59952 0.0
O399 O 0.17598 0.40727 0.61888 0.0
O400 O 0.18484 0.38165 0.58227 0.0
H401 H 0.11305 0.42113 0.50385 0.0
H402 H 0.07598 0.41894 0.51318 0.0
C403 C 0.09809 0.41322 0.51938 0.0
H404 H 0.09998 0.38957 0.52067 0.0
H405 H 0.16589 0.40805 0.50861 0.0
O406 O 0.11987 0.42762 0.65124 0.0
C407 C 0.19323 0.39346 0.60403 0.0
Co408 Co 0.593 0.87228 0.40085 0.0
Co409 Co 0.61977 0.85544 0.45713 0.0
C410 C 0.65266 0.88957 0.41729 0.0
O411 O 0.632 0.88851 0.40075 0.0
O412 O 0.65093 0.87769 0.44012 0.0
C413 C 0.58205 0.90972 0.35681 0.0
O414 O 0.59847 0.92712 0.37064 0.0
C415 C 0.65548 0.85402 0.50628 0.0
C416 C 0.62453 0.84076 0.53713 0.0
C417 C 0.65251 0.85014 0.53376 0.0
N418 N 0.63026 0.84833 0.49423 0.0
N419 N 0.61204 0.83981 0.51283 0.0
C420 C 0.68233 0.86106 0.4914 0.0
H421 H 0.68251 0.84976 0.47192 0.0
H422 H 0.68307 0.88451 0.48778 0.0
H423 H 0.70162 0.85457 0.50286 0.0
C424 C 0.55333 0.90406 0.4346 0.0
N425 N 0.57372 0.88393 0.43202 0.0
N426 N 0.58566 0.87905 0.45545 0.0
C427 C 0.57391 0.89727 0.47342 0.0
C428 C 0.55294 0.91359 0.46078 0.0
C429 C 0.53712 0.91677 0.4117 0.0
H430 H 0.53201 0.89994 0.39681 0.0
H431 H 0.55046 0.93345 0.40199 0.0
H432 H 0.51697 0.92694 0.41873 0.0
O433 O 0.59588 0.83067 0.39885 0.0
O434 O 0.61662 0.81742 0.43688 0.0
H435 H 0.57782 0.88711 0.5148 0.0
H436 H 0.58024 0.92476 0.50778 0.0
C437 C 0.58627 0.90313 0.50047 0.0
H438 H 0.60995 0.90138 0.49986 0.0
H439 H 0.59075 0.83427 0.50906 0.0
O440 O 0.57513 0.88562 0.36687 0.0
C441 C 0.60635 0.81136 0.41385 0.0
Co442 Co 0.12816 0.09355 0.65245 0.0
Co443 Co 0.14627 0.12169 0.70779 0.0
C444 C 0.11246 0.15395 0.66773 0.0
O445 O 0.11362 0.13304 0.65156 0.0
O446 O 0.12378 0.15259 0.69079 0.0
C447 C 0.08961 0.08454 0.60932 0.0
O448 O 0.07443 0.10324 0.62287 0.0
C449 C 0.13952 0.15242 0.75931 0.0
C450 C 0.17679 0.13728 0.78251 0.0
C451 C 0.15308 0.15513 0.78397 0.0
N452 N 0.15434 0.13363 0.74418 0.0
N453 N 0.17655 0.12464 0.75828 0.0
C454 C 0.1147 0.16954 0.74904 0.0
H455 H 0.12278 0.18508 0.73407 0.0
H456 H 0.09919 0.15518 0.73891 0.0
H457 H 0.10371 0.18178 0.76494 0.0
C458 C 0.09821 0.05395 0.68823 0.0
N459 N 0.11699 0.07539 0.68435 0.0
N460 N 0.12354 0.08716 0.70749 0.0
C461 C 0.10832 0.07376 0.72679 0.0
C462 C 0.09193 0.05221 0.7152 0.0
C463 C 0.08342 0.03826 0.66611 0.0
H464 H 0.0992 0.0323 0.65051 0.0
H465 H 0.06715 0.05255 0.65697 0.0
H466 H 0.07256 0.01866 0.67355 0.0
O467 O 0.16989 0.09555 0.6495 0.0
O468 O 0.18361 0.11819 0.68648 0.0
H469 H 0.12894 0.08504 0.76345 0.0
H470 H 0.09425 0.06824 0.7676 0.0
C471 C 0.10694 0.08337 0.75523 0.0
H472 H 0.09691 0.10489 0.75616 0.0
H473 H 0.19175 0.11006 0.75126 0.0
O474 O 0.1129 0.07515 0.61931 0.0
C475 C 0.18936 0.10696 0.66375 0.0
Co476 Co 0.90603 0.6293 0.90268 0.0
Co477 Co 0.8797 0.64819 0.95839 0.0
C478 C 0.84663 0.61274 0.91935 0.0
O479 O 0.86737 0.6125 0.90292 0.0
O480 O 0.84843 0.62593 0.94153 0.0
C481 C 0.91791 0.5912 0.85927 0.0
O482 O 0.90175 0.57366 0.87323 0.0
C483 C 0.8508 0.64023 0.01056 0.0
C484 C 0.86332 0.67925 0.0326 0.0
C485 C 0.84722 0.65438 0.03484 0.0
N486 N 0.86833 0.65594 0.99491 0.0
N487 N 0.87586 0.67914 1.00833 0.0
C488 C 0.83542 0.61401 1.00096 0.0
H489 H 0.81698 0.62084 0.98856 0.0
H490 H 0.84988 0.6009 0.98832 0.0
H491 H 0.82701 0.60074 0.01747 0.0
C492 C 0.94781 0.60115 0.9378 0.0
N493 N 0.92568 0.61918 0.93416 0.0
N494 N 0.9145 0.62591 0.95751 0.0
C495 C 0.92899 0.61158 0.9767 0.0
C496 C 0.95062 0.59557 0.96483 0.0
C497 C 0.9633 0.58637 0.91557 0.0
H498 H 0.96781 0.60183 0.89928 0.0
H499 H 0.94952 0.56903 0.90752 0.0
H500 H 0.98372 0.57679 0.92259 0.0
O501 O 0.90232 0.67101 0.89952 0.0
O502 O 0.88274 0.68562 0.93764 0.0
H503 H 0.93687 0.59945 0.01771 0.0
H504 H 0.89973 0.59969 1.00754 0.0
C505 C 0.9206 0.61084 1.0055 0.0
H506 H 0.91807 0.63302 0.01306 0.0
H507 H 0.88913 0.69519 1.00074 0.0
O508 O 0.92435 0.61552 0.86911 0.0
C509 C 0.89231 0.69088 0.91419 0.0
Co510 Co 0.37445 0.40718 0.15068 0.0
Co511 Co 0.35407 0.38231 0.20658 0.0
C512 C 0.38927 0.34786 0.16831 0.0
O513 O 0.39036 0.36832 0.15161 0.0
O514 O 0.37571 0.35033 0.19022 0.0
C515 C 0.41304 0.41699 0.10722 0.0
O516 O 0.42994 0.40046 0.12148 0.0
C517 C 0.36197 0.35396 0.25902 0.0
C518 C 0.32196 0.36482 0.28022 0.0
C519 C 0.34731 0.34957 0.28295 0.0
N520 N 0.34604 0.37106 0.24313 0.0
N521 N 0.32226 0.37764 0.25608 0.0
C522 C 0.38895 0.33961 0.2499 0.0
H523 H 0.38316 0.31986 0.23885 0.0
H524 H 0.40096 0.35394 0.23621 0.0
H525 H 0.40299 0.33337 0.26669 0.0
C526 C 0.40366 0.44852 0.18543 0.0
N527 N 0.38478 0.42706 0.182 0.0
N528 N 0.37722 0.41664 0.20544 0.0
C529 C 0.39168 0.4311 0.22457 0.0
C530 C 0.40895 0.45174 0.21255 0.0
C531 C 0.41968 0.46221 0.16287 0.0
H532 H 0.40468 0.46711 0.14632 0.0
H533 H 0.43607 0.44698 0.15541 0.0
H534 H 0.43063 0.4822 0.169 0.0
O535 O 0.33269 0.40412 0.14718 0.0
O536 O 0.31688 0.3858 0.18543 0.0
H537 H 0.3683 0.42094 0.26012 0.0
H538 H 0.40094 0.44098 0.26583 0.0
C539 C 0.39082 0.42387 0.25365 0.0
H540 H 0.40249 0.4035 0.25705 0.0
H541 H 0.30589 0.3903 0.24818 0.0
O542 O 0.38893 0.42448 0.11687 0.0
C543 C 0.31231 0.39489 0.16168 0.0
H544 H 0.04214 0.10307 0.44148 0.0
H545 H 0.12237 0.05714 0.44389 0.0
H546 H 0.03659 0.0962 0.48949 0.0
H547 H 0.11821 0.05211 0.49178 0.0
H548 H 0.10574 0.03896 0.57823 0.0
H549 H 0.09943 0.03384 0.53011 0.0
H550 H 0.05401 0.11475 0.52823 0.0
H551 H 0.05851 0.11845 0.57618 0.0
C552 C 0.05852 0.09141 0.45231 0.0
C553 C 0.08273 0.08079 0.43898 0.0
C554 C 0.05555 0.08767 0.47992 0.0
C555 C 0.07716 0.07396 0.49495 0.0
C556 C 0.10078 0.06235 0.48119 0.0
C557 C 0.10333 0.06543 0.45357 0.0
C558 C 0.09388 0.05525 0.56746 0.0
C559 C 0.08276 0.07915 0.58093 0.0
C560 C 0.09048 0.05254 0.53979 0.0
C561 C 0.07661 0.07412 0.52485 0.0
C562 C 0.06443 0.09736 0.53873 0.0
C563 C 0.06718 0.09965 0.56641 0.0
H564 H 0.90517 0.54238 0.83142 0.0
H565 H 0.94432 0.62579 0.82263 0.0
H566 H 0.90822 0.53512 0.7833 0.0
H567 H 0.94671 0.61884 0.77457 0.0
H568 H 0.95874 0.59669 0.68885 0.0
H569 H 0.96628 0.59342 0.73692 0.0
H570 H 0.88256 0.55499 0.74591 0.0
H571 H 0.87533 0.5576 0.69789 0.0
C572 C 0.9148 0.55901 0.81929 0.0
C573 C 0.9242 0.58482 0.83087 0.0
C574 C 0.91638 0.55491 0.79166 0.0
C575 C 0.92736 0.57652 0.77497 0.0
C576 C 0.93835 0.6016 0.78677 0.0
C577 C 0.93684 0.60568 0.81439 0.0
C578 C 0.94216 0.58704 0.70102 0.0
C579 C 0.91628 0.57771 0.68953 0.0
C580 C 0.94643 0.58533 0.72863 0.0
C581 C 0.92491 0.57428 0.74538 0.0
C582 C 0.89974 0.5634 0.73366 0.0
C583 C 0.8955 0.56504 0.70606 0.0
H584 H 0.37935 0.4434 0.06985 0.0
H585 H 0.46181 0.40267 0.08001 0.0
H586 H 0.38681 0.44475 0.02183 0.0
H587 H 0.4696 0.40468 0.03191 0.0
H588 H 0.4474 0.37096 0.9467 0.0
H589 H 0.44973 0.3789 0.99465 0.0
H590 H 0.41293 0.46315 0.98419 0.0
H591 H 0.40992 0.4549 0.93622 0.0
C592 C 0.39938 0.43535 0.06191 0.0
C593 C 0.4198 0.42258 0.07877 0.0
C594 C 0.40375 0.43625 0.03431 0.0
C595 C 0.4287 0.42453 0.02291 0.0
C596 C 0.44991 0.4134 0.03996 0.0
C597 C 0.4455 0.41242 0.06757 0.0
C598 C 0.44028 0.39139 0.95455 0.0
C599 C 0.42811 0.41213 0.93764 0.0
C600 C 0.44175 0.39603 0.9821 0.0
C601 C 0.43121 0.42157 0.99338 0.0
C602 C 0.42072 0.44302 0.97624 0.0
C603 C 0.41916 0.43834 0.9487 0.0
H604 H 0.59373 0.95898 0.32929 0.0
H605 H 0.55625 0.87487 0.31997 0.0
H606 H 0.59011 0.96674 0.28128 0.0
H607 H 0.55332 0.88232 0.27198 0.0
H608 H 0.54002 0.90518 0.18659 0.0
H609 H 0.53286 0.90771 0.23475 0.0
H610 H 0.61572 0.94805 0.24347 0.0
H611 H 0.62254 0.94618 0.19539 0.0
C612 C 0.58438 0.94227 0.31706 0.0
C613 C 0.57558 0.91616 0.32845 0.0
C614 C 0.58246 0.94667 0.28949 0.0
C615 C 0.57177 0.92504 0.27266 0.0
C616 C 0.56143 0.89959 0.28429 0.0
C617 C 0.56325 0.89523 0.31187 0.0
C618 C 0.55647 0.91511 0.19873 0.0
C619 C 0.58201 0.92518 0.18714 0.0
C620 C 0.55243 0.91638 0.22638 0.0
C621 C 0.57385 0.92773 0.24308 0.0
C622 C 0.59862 0.93938 0.23128 0.0
C623 C 0.60262 0.93818 0.20364 0.0
H624 H 0.06305 0.38492 0.69169 0.0
H625 H 0.11165 0.4636 0.6927 0.0
H626 H 0.05637 0.38794 0.73943 0.0
H627 H 0.10311 0.46814 0.74057 0.0
H628 H 0.12152 0.44307 0.82727 0.0
H629 H 0.11959 0.44919 0.77941 0.0
H630 H 0.03742 0.40602 0.77762 0.0
H631 H 0.04079 0.39797 0.82565 0.0
C632 C 0.07158 0.40341 0.70209 0.0
C633 C 0.08815 0.42387 0.68853 0.0
C634 C 0.06755 0.40532 0.72963 0.0
C635 C 0.07939 0.42817 0.74432 0.0
C636 C 0.09435 0.44972 0.73028 0.0
C637 C 0.09907 0.44735 0.70276 0.0
C638 C 0.10283 0.43524 0.8167 0.0
C639 C 0.08145 0.41975 0.83014 0.0
C640 C 0.10157 0.43894 0.78908 0.0
C641 C 0.07848 0.42786 0.77419 0.0
C642 C 0.05603 0.41412 0.78809 0.0
C643 C 0.05773 0.40972 0.8157 0.0
H644 H 0.55634 0.62432 0.94564 0.0
H645 H 0.59618 0.54119 0.93741 0.0
H646 H 0.55391 0.61766 0.99372 0.0
H647 H 0.59307 0.53419 0.98556 0.0
H648 H 0.54173 0.59612 0.07948 0.0
H649 H 0.53443 0.59249 0.03141 0.0
H650 H 0.61829 0.55423 0.02303 0.0
H651 H 0.62525 0.55717 0.07107 0.0
C652 C 0.56397 0.60431 0.95401 0.0
C653 C 0.5768 0.58346 0.93767 0.0
C654 C 0.56244 0.6004 0.98165 0.0
C655 C 0.57358 0.57549 0.99362 0.0
C656 C 0.58478 0.55387 0.97707 0.0
C657 C 0.58639 0.55781 0.94942 0.0
C658 C 0.55839 0.58643 0.06744 0.0
C659 C 0.58422 0.57724 0.07911 0.0
C660 C 0.55427 0.58452 0.03984 0.0
C661 C 0.5759 0.57342 0.02324 0.0
C662 C 0.60103 0.56267 0.03515 0.0
C663 C 0.60511 0.5645 0.06276 0.0
H664 H 0.38249 0.05986 0.32681 0.0
H665 H 0.46147 0.10798 0.32695 0.0
H666 H 0.38541 0.05458 0.27889 0.0
H667 H 0.46588 0.10085 0.27888 0.0
H668 H 0.44158 0.1216 0.19254 0.0
H669 H 0.44713 0.11852 0.24043 0.0
H670 H 0.40329 0.0367 0.24015 0.0
H671 H 0.39586 0.04119 0.19211 0.0
C672 C 0.40103 0.06857 0.31662 0.0
C673 C 0.42161 0.0846 0.3306 0.0
C674 C 0.40287 0.06536 0.28896 0.0
C675 C 0.42576 0.07752 0.27454 0.0
C676 C 0.44742 0.0919 0.28896 0.0
C677 C 0.44513 0.09578 0.31661 0.0
C678 C 0.43345 0.10274 0.20266 0.0
C679 C 0.41802 0.08177 0.18862 0.0
C680 C 0.43683 0.10082 0.2303 0.0
C681 C 0.42547 0.07746 0.24463 0.0
C682 C 0.41164 0.05548 0.23015 0.0
C683 C 0.40759 0.05784 0.20252 0.0
H684 H 0.94281 0.87624 0.44698 0.0
H685 H 0.90272 0.9592 0.43822 0.0
H686 H 0.94495 0.8831 0.49505 0.0
H687 H 0.90552 0.96638 0.48636 0.0
H688 H 0.87272 0.9433 0.57168 0.0
H689 H 0.88002 0.94614 0.52367 0.0
H690 H 0.96414 0.90865 0.53276 0.0
H691 H 0.95653 0.90513 0.5808 0.0
C692 C 0.93506 0.89625 0.45523 0.0
C693 C 0.92224 0.91699 0.43875 0.0
C694 C 0.93643 0.90027 0.48286 0.0
C695 C 0.92512 0.92519 0.49467 0.0
C696 C 0.91394 0.94671 0.47799 0.0
C697 C 0.91251 0.94265 0.45035 0.0
C698 C 0.89298 0.93612 0.56352 0.0
C699 C 0.91387 0.92362 0.58006 0.0
C700 C 0.89726 0.93789 0.53594 0.0
C701 C 0.92257 0.92733 0.52426 0.0
C702 C 0.94418 0.91647 0.54103 0.0
C703 C 0.93987 0.91462 0.56861 0.0
H704 H 0.26948 0.14703 0.09569 0.0
H705 H 0.28654 0.07188 0.14339 0.0
H706 H 0.22745 0.15758 0.12343 0.0
H707 H 0.24483 0.0823 0.1709 0.0
H708 H 0.15812 0.09927 0.20806 0.0
H709 H 0.19209 0.08656 0.1728 0.0
H710 H 0.22201 0.17411 0.17056 0.0
H711 H 0.18843 0.18657 0.20624 0.0
C712 C 0.26379 0.13231 0.11156 0.0
C713 C 0.28137 0.10862 0.11734 0.0
C714 C 0.23992 0.13853 0.12766 0.0
C715 C 0.23288 0.12093 0.14957 0.0
C716 C 0.24943 0.09623 0.15414 0.0
C717 C 0.27341 0.09027 0.13835 0.0
C718 C 0.1723 0.11566 0.20033 0.0
C719 C 0.17147 0.14364 0.21068 0.0
C720 C 0.19153 0.10847 0.17992 0.0
C721 C 0.21004 0.12923 0.169 0.0
C722 C 0.208 0.1576 0.17836 0.0
C723 C 0.18888 0.16472 0.19892 0.0
H724 H 0.81124 0.68866 0.45774 0.0
H725 H 0.89842 0.65798 0.45855 0.0
H726 H 0.82343 0.7224 0.42211 0.0
H727 H 0.9109 0.69226 0.42345 0.0
H728 H 0.92502 0.78726 0.39465 0.0
H729 H 0.91478 0.74553 0.42225 0.0
H730 H 0.83989 0.72741 0.37448 0.0
H731 H 0.85034 0.76941 0.34659 0.0
C732 C 0.83301 0.68909 0.45023 0.0
C733 C 0.85415 0.67151 0.46171 0.0
C734 C 0.83996 0.7083 0.42971 0.0
C735 C 0.86824 0.7103 0.42012 0.0
C736 C 0.88906 0.69169 0.43076 0.0
C737 C 0.88201 0.67231 0.45111 0.0
C738 C 0.90675 0.77399 0.3896 0.0
C739 C 0.8885 0.78166 0.36841 0.0
C740 C 0.9009 0.74999 0.40541 0.0
C741 C 0.87638 0.73322 0.40074 0.0
C742 C 0.85881 0.74006 0.37875 0.0
C743 C 0.86496 0.76391 0.36259 0.0
H744 H 0.29576 0.32449 0.72641 0.0
H745 H 0.35754 0.38153 0.69073 0.0
H746 H 0.26182 0.33511 0.69019 0.0
H747 H 0.32324 0.39296 0.65495 0.0
H748 H 0.22902 0.43052 0.62957 0.0
H749 H 0.26988 0.41808 0.65805 0.0
H750 H 0.26111 0.32937 0.63531 0.0
H751 H 0.22082 0.34198 0.606 0.0
C752 C 0.30201 0.33927 0.71077 0.0
C753 C 0.32912 0.3523 0.71133 0.0
C754 C 0.28273 0.34521 0.69001 0.0
C755 C 0.28998 0.36475 0.66971 0.0
C756 C 0.31716 0.37776 0.6703 0.0
C757 C 0.33671 0.37125 0.69071 0.0
C758 C 0.23653 0.40855 0.62987 0.0
C759 C 0.22197 0.38729 0.61528 0.0
C760 C 0.2598 0.40141 0.64626 0.0
C761 C 0.26849 0.37274 0.64904 0.0
C762 C 0.25478 0.35163 0.63356 0.0
C763 C 0.23198 0.3589 0.61656 0.0
H764 H 0.66102 0.85139 0.93167 0.0
H765 H 0.62711 0.79275 0.99032 0.0
H766 H 0.64778 0.81777 0.89605 0.0
H767 H 0.61381 0.75961 0.95522 0.0
H768 H 0.57094 0.71358 0.89007 0.0
H769 H 0.58024 0.75422 0.9192 0.0
H770 H 0.65994 0.77018 0.87792 0.0
H771 H 0.65004 0.72967 0.84807 0.0
C772 C 0.65051 0.83148 0.93694 0.0
C773 C 0.64422 0.82525 0.96381 0.0
C774 C 0.643 0.81219 0.91655 0.0
C775 C 0.62916 0.78619 0.92264 0.0
C776 C 0.6235 0.77983 0.9496 0.0
C777 C 0.631 0.799 0.96985 0.0
C778 C 0.59009 0.72621 0.88674 0.0
C779 C 0.60983 0.71831 0.86688 0.0
C780 C 0.5956 0.74936 0.90364 0.0
C781 C 0.62122 0.76506 0.90144 0.0
C782 C 0.63999 0.75857 0.88022 0.0
C783 C 0.6343 0.73542 0.86303 0.0
H784 H 0.18562 0.31338 0.06428 0.0
H785 H 0.16452 0.40265 0.05389 0.0
H786 H 0.21956 0.32607 0.09964 0.0
H787 H 0.19828 0.41549 0.08923 0.0
H788 H 0.2911 0.4267 0.12081 0.0
H789 H 0.2497 0.41642 0.09308 0.0
H790 H 0.22738 0.34557 0.14457 0.0
H791 H 0.26949 0.35579 0.17239 0.0
C792 C 0.18811 0.33571 0.06973 0.0
C793 C 0.1732 0.35712 0.0557 0.0
C794 C 0.20741 0.343 0.09013 0.0
C795 C 0.21202 0.37188 0.09714 0.0
C796 C 0.19584 0.3931 0.08398 0.0
C797 C 0.1766 0.38579 0.06361 0.0
C798 C 0.27706 0.40928 0.12662 0.0
C799 C 0.2837 0.39204 0.14882 0.0
C800 C 0.25317 0.40342 0.1107 0.0
C801 C 0.2352 0.38 0.11638 0.0
C802 C 0.24096 0.36356 0.13941 0.0
C803 C 0.26487 0.36963 0.15556 0.0
H804 H 0.65079 0.77297 0.41929 0.0
H805 H 0.56928 0.78511 0.3802 0.0
H806 H 0.66099 0.73239 0.38957 0.0
H807 H 0.57903 0.74452 0.35112 0.0
H808 H 0.66229 0.65032 0.3363 0.0
H809 H 0.64933 0.6837 0.3722 0.0
H810 H 0.61199 0.74075 0.3139 0.0
H811 H 0.62519 0.708 0.27848 0.0
C812 C 0.63461 0.7663 0.40507 0.0
C813 C 0.60932 0.78235 0.40197 0.0
C814 C 0.6405 0.74314 0.38792 0.0
C815 C 0.62113 0.73562 0.36747 0.0
C816 C 0.59479 0.75019 0.3661 0.0
C817 C 0.58905 0.77329 0.38299 0.0
C818 C 0.65111 0.66993 0.33125 0.0
C819 C 0.64386 0.67591 0.30453 0.0
C820 C 0.64376 0.68908 0.35182 0.0
C821 C 0.62905 0.71468 0.34608 0.0
C822 C 0.6224 0.72082 0.31926 0.0
C823 C 0.62982 0.70183 0.29883 0.0
H824 H 0.22793 0.15126 0.66912 0.0
H825 H 0.21491 0.07055 0.62887 0.0
H826 H 0.26821 0.16181 0.63924 0.0
H827 H 0.25532 0.08059 0.59966 0.0
H828 H 0.29317 0.1269 0.52773 0.0
H829 H 0.26024 0.11316 0.56284 0.0
H830 H 0.31626 0.1511 0.62169 0.0
H831 H 0.3497 0.16475 0.58608 0.0
C832 C 0.2343 0.13533 0.65455 0.0
C833 C 0.21808 0.11016 0.65124 0.0
C834 C 0.25733 0.14141 0.63731 0.0
C835 C 0.26463 0.12237 0.61654 0.0
C836 C 0.24983 0.09616 0.61485 0.0
C837 C 0.22682 0.09024 0.63183 0.0
C838 C 0.29906 0.13158 0.54814 0.0
C839 C 0.32468 0.14606 0.55407 0.0
C840 C 0.27997 0.12382 0.56841 0.0
C841 C 0.28573 0.13049 0.5953 0.0
C842 C 0.31111 0.14553 0.60126 0.0
C843 C 0.33031 0.15328 0.58086 0.0
H844 H 0.92582 0.71447 0.87571 0.0
H845 H 0.8509 0.73163 0.92364 0.0
H846 H 0.9155 0.75625 0.84834 0.0
H847 H 0.84049 0.77389 0.89609 0.0
H848 H 0.81151 0.81406 0.81382 0.0
H849 H 0.82375 0.78028 0.84942 0.0
H850 H 0.91184 0.80855 0.84623 0.0
H851 H 0.89938 0.84253 0.81088 0.0
C852 C 0.90748 0.72762 0.88081 0.0
C853 C 0.88916 0.71967 0.90185 0.0
C854 C 0.90159 0.75168 0.86512 0.0
C855 C 0.87702 0.76837 0.86982 0.0
C856 C 0.85943 0.76131 0.89174 0.0
C857 C 0.86556 0.73732 0.90774 0.0
C858 C 0.83343 0.81318 0.82092 0.0
C859 C 0.85471 0.83012 0.80887 0.0
C860 C 0.84043 0.79397 0.84144 0.0
C861 C 0.86888 0.7914 0.85051 0.0
C862 C 0.88985 0.8095 0.83934 0.0
C863 C 0.88279 0.82877 0.81891 0.0
H864 H 0.68936 0.68977 0.70717 0.0
H865 H 0.65719 0.60311 0.70703 0.0
H866 H 0.72292 0.67745 0.67144 0.0
H867 H 0.69118 0.5905 0.67175 0.0
H868 H 0.78582 0.57483 0.64315 0.0
H869 H 0.744 0.58541 0.67043 0.0
H870 H 0.72824 0.66173 0.62391 0.0
H871 H 0.77041 0.65098 0.59637 0.0
C872 C 0.68941 0.66809 0.69941 0.0
C873 C 0.67148 0.6471 0.71065 0.0
C874 C 0.70851 0.66106 0.67882 0.0
C875 C 0.71001 0.63288 0.66891 0.0
C876 C 0.69101 0.61225 0.6793 0.0
C877 C 0.67179 0.61936 0.69974 0.0
C878 C 0.77303 0.59349 0.63827 0.0
C879 C 0.78145 0.61207 0.61759 0.0
C880 C 0.74897 0.59954 0.65391 0.0
C881 C 0.73286 0.62456 0.64954 0.0
C882 C 0.74038 0.64243 0.62796 0.0
C883 C 0.76432 0.63611 0.61198 0.0
H884 H 0.33746 0.14833 0.93178 0.0
H885 H 0.37549 0.20653 0.98862 0.0
H886 H 0.35098 0.18082 0.89532 0.0
H887 H 0.38947 0.23823 0.95261 0.0
H888 H 0.43367 0.27966 0.88538 0.0
H889 H 0.42291 0.23967 0.9149 0.0
H890 H 0.33994 0.23025 0.87774 0.0
H891 H 0.35102 0.27034 0.84769 0.0
C892 C 0.34897 0.16784 0.9365 0.0
C893 C 0.35631 0.17419 0.96314 0.0
C894 C 0.35666 0.18646 0.91562 0.0
C895 C 0.37189 0.21186 0.92092 0.0
C896 C 0.37863 0.21841 0.94762 0.0
C897 C 0.3708 0.19999 0.96839 0.0
C898 C 0.41344 0.26854 0.88293 0.0
C899 C 0.39314 0.2783 0.86428 0.0
C900 C 0.40714 0.24578 0.90007 0.0
C901 C 0.38026 0.2322 0.8992 0.0
C902 C 0.36083 0.24027 0.87899 0.0
C903 C 0.36723 0.26313 0.86164 0.0
H904 H 0.85031 0.84021 0.18207 0.0
H905 H 0.79171 0.87345 0.24104 0.0
H906 H 0.81684 0.85416 0.14655 0.0
H907 H 0.75866 0.88734 0.20607 0.0
H908 H 0.71235 0.93084 0.14141 0.0
H909 H 0.75284 0.9212 0.17064 0.0
H910 H 0.7697 0.84257 0.12791 0.0
H911 H 0.72941 0.85285 0.09796 0.0
C912 C 0.83043 0.85071 0.18743 0.0
C913 C 0.82416 0.85659 0.21436 0.0
C914 C 0.81122 0.85862 0.1671 0.0
C915 C 0.78523 0.87244 0.17331 0.0
C916 C 0.77886 0.8777 0.20034 0.0
C917 C 0.79797 0.86983 0.22053 0.0
C918 C 0.72515 0.91186 0.1378 0.0
C919 C 0.71757 0.89253 0.11747 0.0
C920 C 0.74821 0.90614 0.15476 0.0
C921 C 0.76414 0.88069 0.15216 0.0
C922 C 0.75793 0.86237 0.13054 0.0
C923 C 0.7349 0.86829 0.11328 0.0
H924 H 0.06909 0.21707 0.38408 0.0
H925 H 0.15572 0.22129 0.35455 0.0
H926 H 0.07819 0.25798 0.41298 0.0
H927 H 0.16579 0.26108 0.3848 0.0
H928 H 0.17368 0.34144 0.43597 0.0
H929 H 0.16154 0.30789 0.40034 0.0
H930 H 0.10051 0.26661 0.45272 0.0
H931 H 0.11069 0.3015 0.48693 0.0
C932 C 0.09 0.22716 0.38349 0.0
C933 C 0.11162 0.21612 0.36696 0.0
C934 C 0.09548 0.25034 0.40046 0.0
C935 C 0.12306 0.26259 0.40205 0.0
C936 C 0.14423 0.25253 0.38424 0.0
C937 C 0.13848 0.22971 0.36674 0.0
C938 C 0.15762 0.32519 0.4398 0.0
C939 C 0.14398 0.32369 0.46483 0.0
C940 C 0.15075 0.30575 0.41936 0.0
C941 C 0.13002 0.28419 0.42337 0.0
C942 C 0.11628 0.28297 0.44841 0.0
C943 C 0.12282 0.30264 0.46859 0.0
H944 H 0.69376 0.89232 0.53516 0.0
H945 H 0.65683 0.82485 0.583 0.0
H946 H 0.72812 0.90232 0.56988 0.0
H947 H 0.68987 0.8366 0.61927 0.0
H948 H 0.77728 0.8434 0.66418 0.0
H949 H 0.73719 0.83347 0.63419 0.0
H950 H 0.73594 0.92269 0.61065 0.0
H951 H 0.77718 0.93176 0.63918 0.0
C952 C 0.69318 0.87923 0.55295 0.0
C953 C 0.67322 0.85686 0.55564 0.0
C954 C 0.71251 0.88559 0.57344 0.0
C955 C 0.71201 0.87042 0.59777 0.0
C956 C 0.69142 0.84853 0.6008 0.0
C957 C 0.67229 0.84187 0.58002 0.0
C958 C 0.76782 0.86097 0.6531 0.0
C959 C 0.78028 0.88835 0.654 0.0
C960 C 0.74483 0.85531 0.63576 0.0
C961 C 0.7335 0.87707 0.61926 0.0
C962 C 0.74458 0.90503 0.62212 0.0
C963 C 0.76794 0.91045 0.63889 0.0
H964 H 0.07137 0.28654 0.87594 0.0
H965 H 0.1482 0.2719 0.92197 0.0
H966 H 0.08242 0.24537 0.84815 0.0
H967 H 0.15921 0.23006 0.89419 0.0
H968 H 0.1884 0.19016 0.8125 0.0
H969 H 0.17551 0.22336 0.84833 0.0
H970 H 0.08769 0.19433 0.84397 0.0
H971 H 0.10076 0.16127 0.80812 0.0
C972 C 0.09027 0.274 0.88061 0.0
C973 C 0.10893 0.28262 0.90117 0.0
C974 C 0.0966 0.25026 0.86465 0.0
C975 C 0.1219 0.23444 0.86864 0.0
C976 C 0.13974 0.24198 0.89027 0.0
C977 C 0.13324 0.26573 0.90646 0.0
C978 C 0.16639 0.1908 0.81936 0.0
C979 C 0.14539 0.17388 0.80688 0.0
C980 C 0.159 0.20968 0.84005 0.0
C981 C 0.13044 0.21186 0.84894 0.0
C982 C 0.10975 0.19377 0.83727 0.0
C983 C 0.11717 0.17494 0.8166 0.0
H984 H 0.8425 0.60269 0.06081 0.0
H985 H 0.8106 0.68943 0.06171 0.0
H986 H 0.80857 0.58971 0.09604 0.0
H987 H 0.77716 0.67674 0.09741 0.0
H988 H 0.73028 0.64957 0.17261 0.0
H989 H 0.77225 0.66043 0.14486 0.0
H990 H 0.75563 0.58482 0.09764 0.0
H991 H 0.71396 0.57412 0.12513 0.0
C992 C 0.82797 0.61889 0.0683 0.0
C993 C 0.82834 0.64677 0.05769 0.0
C994 C 0.80879 0.61155 0.08872 0.0
C995 C 0.78992 0.6321 0.09941 0.0
C996 C 0.79147 0.66041 0.08979 0.0
C997 C 0.81051 0.66765 0.06922 0.0
C998 C 0.73613 0.63486 0.15679 0.0
C999 C 0.71878 0.611 0.15106 0.0
C1000 C 0.75996 0.64125 0.1407 0.0
C1001 C 0.76717 0.62363 0.11886 0.0
C1002 C 0.75087 0.59876 0.11435 0.0
C1003 C 0.72691 0.59264 0.13011 0.0
H1004 H 0.39839 0.3455 0.31023 0.0
H1005 H 0.31238 0.31167 0.30841 0.0
H1006 H 0.41104 0.31129 0.34533 0.0
H1007 H 0.32469 0.27807 0.34412 0.0
H1008 H 0.35061 0.23197 0.42042 0.0
H1009 H 0.33969 0.27357 0.39218 0.0
H1010 H 0.41681 0.25816 0.3468 0.0
H1011 H 0.42753 0.21679 0.37475 0.0
C1012 C 0.38231 0.33044 0.31701 0.0
C1013 C 0.35474 0.33041 0.30569 0.0
C1014 C 0.38944 0.31112 0.33741 0.0
C1015 C 0.36897 0.29172 0.34741 0.0
C1016 C 0.34095 0.29279 0.33704 0.0
C1017 C 0.33393 0.31193 0.31647 0.0
C1018 C 0.3656 0.238 0.4049 0.0
C1019 C 0.38994 0.22108 0.39984 0.0
C1020 C 0.35919 0.26161 0.38851 0.0
C1021 C 0.37725 0.26907 0.36706 0.0
C1022 C 0.40251 0.25319 0.3632 0.0
C1023 C 0.40865 0.22942 0.37923 0.0
H1024 H 0.00643 0.0807 0.27372 0.0
H1025 H 0.07235 0.03448 0.31586 0.0
H1026 H 0.9818 0.03534 0.26399 0.0
H1027 H 0.04778 0.98951 0.30714 0.0
H1028 H 0.92787 0.9588 0.29869 0.0
H1029 H 0.95458 0.00292 0.29081 0.0
H1030 H 0.0316 0.95326 0.27778 0.0
H1031 H 0.00467 0.90923 0.28683 0.0
C1032 C 0.01587 0.06072 0.28034 0.0
C1033 C 0.04109 0.06083 0.29553 0.0
C1034 C 0.00175 0.0348 0.27502 0.0
C1035 C 0.01265 0.00867 0.28492 0.0
C1036 C 0.03888 0.00898 0.29879 0.0
C1037 C 0.05292 0.03476 0.30399 0.0
C1038 C 0.95032 0.95744 0.2933 0.0
C1039 C 0.96434 0.93088 0.29323 0.0
C1040 C 0.96567 0.98267 0.2887 0.0
C1041 C 0.99539 0.98178 0.28392 0.0
C1042 C 0.00886 0.95481 0.28187 0.0
C1043 C 0.99349 0.92958 0.28674 0.0
H1044 H 0.03954 0.43554 0.58024 0.0
H1045 H 0.07831 0.48732 0.51881 0.0
H1046 H 0.9935 0.45822 0.57209 0.0
H1047 H 0.03165 0.50994 0.50986 0.0
H1048 H 0.95684 0.57085 0.53962 0.0
H1049 H 0.00117 0.54377 0.53339 0.0
H1050 H 0.95393 0.46464 0.54262 0.0
H1051 H 0.90993 0.49207 0.5498 0.0
C1052 C 0.03796 0.45158 0.56466 0.0
C1053 C 0.06236 0.46007 0.55039 0.0
C1054 C 0.0115 0.46437 0.55972 0.0
C1055 C 0.00875 0.48595 0.54026 0.0
C1056 C 0.03307 0.49358 0.52514 0.0
C1057 C 0.05969 0.48063 0.53012 0.0
C1058 C 0.95594 0.54765 0.53941 0.0
C1059 C 0.93021 0.5334 0.5452 0.0
C1060 C 0.98128 0.53208 0.53582 0.0
C1061 C 0.98124 0.50199 0.53793 0.0
C1062 C 0.95485 0.4878 0.54143 0.0
C1063 C 0.92961 0.50339 0.54525 0.0
H1064 H 0.48925 0.42131 0.76695 0.0
H1065 H 0.43388 0.46177 0.82455 0.0
H1066 H 0.51188 0.46784 0.75752 0.0
H1067 H 0.4566 0.5077 0.81604 0.0
H1068 H 0.49253 0.59052 0.79475 0.0
H1069 H 0.46514 0.54664 0.78678 0.0
H1070 H 0.5443 0.49877 0.78151 0.0
H1071 H 0.57135 0.54298 0.78837 0.0
C1072 C 0.48172 0.44029 0.77724 0.0
C1073 C 0.46016 0.43816 0.79661 0.0
C1074 C 0.4947 0.46684 0.77202 0.0
C1075 C 0.48617 0.4916 0.78606 0.0
C1076 C 0.4635 0.48936 0.80447 0.0
C1077 C 0.45064 0.46298 0.80961 0.0
C1078 C 0.5039 0.57072 0.79085 0.0
C1079 C 0.53387 0.56991 0.79206 0.0
C1080 C 0.48832 0.54554 0.7866 0.0
C1081 C 0.50247 0.519 0.78401 0.0
C1082 C 0.53263 0.51874 0.78319 0.0
C1083 C 0.54819 0.54402 0.78715 0.0
H1084 H 0.41762 0.00633 0.02209 0.0
H1085 H 0.46321 0.07143 0.06589 0.0
H1086 H 0.46323 0.98252 0.01166 0.0
H1087 H 0.50838 0.04764 0.05656 0.0
H1088 H 0.58906 0.00633 0.03597 0.0
H1089 H 0.54481 0.03289 0.0271 0.0
H1090 H 0.49608 0.95476 0.03733 0.0
H1091 H 0.54048 0.92842 0.04492 0.0
C1092 C 0.43751 0.01577 0.02896 0.0
C1093 C 0.43714 0.0405 0.04483 0.0
C1094 C 0.46357 0.00212 0.02323 0.0
C1095 C 0.4896 0.01299 0.0334 0.0
C1096 C 0.48902 0.03877 0.04797 0.0
C1097 C 0.4631 0.05235 0.05355 0.0
C1098 C 0.56889 0.99484 0.03525 0.0
C1099 C 0.56793 0.96548 0.04091 0.0
C1100 C 0.54351 0.01 0.03051 0.0
C1101 C 0.51671 0.99611 0.03192 0.0
C1102 C 0.51619 0.96621 0.03575 0.0
C1103 C 0.54159 0.95106 0.04018 0.0
H1104 H 0.01151 0.42229 0.9985 0.0
H1105 H 0.07121 0.46614 0.94713 0.0
H1106 H 0.98771 0.46808 1.00835 0.0
H1107 H 0.04734 0.51139 0.95592 0.0
H1108 H 0.00733 0.59266 0.97661 0.0
H1109 H 0.03516 0.54912 0.98496 0.0
H1110 H 0.95694 0.49933 0.98369 0.0
H1111 H 0.92941 0.54316 0.97661 0.0
C1112 C 0.01979 0.44186 0.98979 0.0
C1113 C 0.04296 0.44091 0.97201 0.0
C1114 C 0.00611 0.46801 0.99519 0.0
C1115 C 0.01544 0.49354 0.98284 0.0
C1116 C 0.03972 0.49245 0.96621 0.0
C1117 C 0.05332 0.46647 0.96093 0.0
C1118 C 0.99619 0.57246 0.97914 0.0
C1119 C 0.9664 0.57104 0.97614 0.0
C1120 C 0.01205 0.54747 0.9836 0.0
C1121 C 0.9984 0.52053 0.98453 0.0
C1122 C 0.96825 0.5196 0.98338 0.0
C1123 C 0.95241 0.54466 0.97926 0.0
H1124 H 0.41933 0.50903 0.21127 0.0
H1125 H 0.4544 0.42903 0.23923 0.0
H1126 H 0.46485 0.5328 0.22021 0.0
H1127 H 0.4998 0.45285 0.24939 0.0
H1128 H 0.58277 0.49324 0.2125 0.0
H1129 H 0.53711 0.46955 0.22101 0.0
H1130 H 0.5017 0.54977 0.24898 0.0
H1131 H 0.54727 0.5735 0.23927 0.0
C1132 C 0.4366 0.4968 0.22019 0.0
C1133 C 0.4336 0.46724 0.22427 0.0
C1134 C 0.46269 0.5104 0.2255 0.0
C1135 C 0.48628 0.49469 0.23521 0.0
C1136 C 0.48232 0.46551 0.24143 0.0
C1137 C 0.45624 0.4519 0.23594 0.0
C1138 C 0.56536 0.50555 0.22107 0.0
C1139 C 0.5683 0.53515 0.22493 0.0
C1140 C 0.5392 0.492 0.22614 0.0
C1141 C 0.51546 0.5078 0.23537 0.0
C1142 C 0.51931 0.53704 0.24139 0.0
C1143 C 0.54548 0.55059 0.23616 0.0
H1144 H 0.56749 0.96553 0.44149 0.0
H1145 H 0.51275 0.9245 0.4993 0.0
H1146 H 0.54473 0.01132 0.45042 0.0
H1147 H 0.49007 0.97091 0.50915 0.0
H1148 H 0.43043 0.04655 0.47935 0.0
H1149 H 0.45741 0.00221 0.48569 0.0
H1150 H 0.53667 0.04993 0.48022 0.0
H1151 H 0.50935 0.09395 0.47277 0.0
C1152 C 0.55081 0.96656 0.45651 0.0
C1153 C 0.5415 0.94161 0.46946 0.0
C1154 C 0.53795 0.99287 0.46191 0.0
C1155 C 0.51548 0.99494 0.48055 0.0
C1156 C 0.5071 0.97005 0.49449 0.0
C1157 C 0.5201 0.94356 0.48902 0.0
C1158 C 0.45361 0.04754 0.48045 0.0
C1159 C 0.46796 0.07343 0.47562 0.0
C1160 C 0.46912 0.02217 0.48409 0.0
C1161 C 0.49928 0.02236 0.48303 0.0
C1162 C 0.51348 0.04889 0.48058 0.0
C1163 C 0.49794 0.07415 0.47664 0.0
H1164 H 0.08773 0.99656 0.73048 0.0
H1165 H 0.03923 0.07468 0.72308 0.0
H1166 H 0.04348 0.96979 0.73866 0.0
H1167 H 0.99476 0.04812 0.73003 0.0
H1168 H 0.91656 0.99533 0.74613 0.0
H1169 H 0.96217 0.01965 0.75569 0.0
H1170 H 0.00682 0.95573 0.70898 0.0
H1171 H 0.96167 0.93145 0.70043 0.0
C1172 C 0.06756 0.00802 0.73137 0.0
C1173 C 0.06666 0.03753 0.72638 0.0
C1174 C 0.04219 0.99275 0.73571 0.0
C1175 C 0.0154 0.00667 0.73458 0.0
C1176 C 0.01488 0.03666 0.73136 0.0
C1177 C 0.04032 0.05193 0.72732 0.0
C1178 C 0.93635 0.98629 0.7386 0.0
C1179 C 0.93584 0.96171 0.72254 0.0
C1180 C 0.9624 1.00024 0.74385 0.0
C1181 C 0.98828 0.98978 0.73303 0.0
C1182 C 0.98758 0.96425 0.71808 0.0
C1183 C 0.96168 0.9504 0.71295 0.0
H1184 H 0.33679 0.08266 0.37413 0.0
H1185 H 0.29701 0.11681 0.44534 0.0
H1186 H 0.28976 0.06961 0.35684 0.0
H1187 H 0.25024 0.10411 0.42792 0.0
H1188 H 0.16765 0.08029 0.39449 0.0
H1189 H 0.21503 0.06905 0.41203 0.0
H1190 H 0.25355 0.10329 0.34035 0.0
H1191 H 0.20645 0.11423 0.32273 0.0
C1192 C 0.31811 0.08684 0.38636 0.0
C1193 C 0.32055 0.10136 0.41087 0.0
C1194 C 0.29121 0.07933 0.37643 0.0
C1195 C 0.26634 0.08619 0.39084 0.0
C1196 C 0.26901 0.09831 0.41641 0.0
C1197 C 0.29587 0.10581 0.42634 0.0
C1198 C 0.1862 0.08479 0.38219 0.0
C1199 C 0.18333 0.09871 0.35741 0.0
C1200 C 0.2133 0.07831 0.39226 0.0
C1201 C 0.23796 0.08563 0.37774 0.0
C1202 C 0.23495 0.09714 0.35195 0.0
C1203 C 0.20788 0.10361 0.34189 0.0
H1204 H 0.92027 0.6664 0.64445 0.0
H1205 H 0.88487 0.70537 0.57338 0.0
H1206 H 0.9321 0.71378 0.66175 0.0
H1207 H 0.89638 0.75241 0.59073 0.0
H1208 H 0.91784 0.83573 0.6241 0.0
H1209 H 0.93022 0.78867 0.60644 0.0
H1210 H 0.89786 0.74917 0.67842 0.0
H1211 H 0.88582 0.79594 0.69613 0.0
C1212 C 0.91558 0.68499 0.63224 0.0
C1213 C 0.90108 0.68216 0.60775 0.0
C1214 C 0.92237 0.71209 0.64217 0.0
C1215 C 0.91481 0.7368 0.62779 0.0
C1216 C 0.90274 0.7338 0.60223 0.0
C1217 C 0.89594 0.70675 0.59231 0.0
C1218 C 0.91398 0.81704 0.63642 0.0
C1219 C 0.90028 0.81953 0.66133 0.0
C1220 C 0.92111 0.79012 0.62629 0.0
C1221 C 0.91466 0.76523 0.64087 0.0
C1222 C 0.90335 0.76793 0.66675 0.0
C1223 C 0.89624 0.79482 0.67688 0.0
H1224 H 0.19727 0.41215 0.94464 0.0
H1225 H 0.17284 0.38764 0.86469 0.0
H1226 H 0.2453 0.42381 0.92879 0.0
H1227 H 0.22084 0.3971 0.84915 0.0
H1228 H 0.30783 0.41087 0.82236 0.0
H1229 H 0.26021 0.42378 0.83834 0.0
H1230 H 0.2842 0.39639 0.91791 0.0
H1231 H 0.33193 0.38576 0.90224 0.0
C1232 C 0.20221 0.40938 0.92368 0.0
C1233 C 0.18164 0.39842 0.906 0.0
C1234 C 0.22972 0.41594 0.91456 0.0
C1235 C 0.23736 0.41079 0.88776 0.0
C1236 C 0.21597 0.40173 0.86983 0.0
C1237 C 0.18836 0.39595 0.87881 0.0
C1238 C 0.30293 0.40828 0.84335 0.0
C1239 C 0.32327 0.39681 0.86097 0.0
C1240 C 0.27563 0.41552 0.85254 0.0
C1241 C 0.26792 0.41049 0.87934 0.0
C1242 C 0.28914 0.40093 0.89723 0.0
C1243 C 0.31658 0.39449 0.88818 0.0
H1244 H 0.58136 0.83562 0.14459 0.0
H1245 H 0.61548 0.79708 0.07279 0.0
H1246 H 0.57003 0.78813 0.16193 0.0
H1247 H 0.60443 0.74989 0.0902 0.0
H1248 H 0.58162 0.6665 0.12324 0.0
H1249 H 0.57005 0.71397 0.10606 0.0
H1250 H 0.60438 0.75215 0.17786 0.0
H1251 H 0.61563 0.70493 0.19517 0.0
C1252 C 0.5859 0.8171 0.13225 0.0
C1253 C 0.59986 0.82008 0.10751 0.0
C1254 C 0.5794 0.78993 0.14221 0.0
C1255 C 0.58666 0.76531 0.12759 0.0
C1256 C 0.59832 0.76845 0.10188 0.0
C1257 C 0.60485 0.79557 0.09194 0.0
C1258 C 0.58609 0.68499 0.13564 0.0
C1259 C 0.60011 0.68199 0.16035 0.0
C1260 C 0.57945 0.71215 0.12576 0.0
C1261 C 0.58667 0.73676 0.14043 0.0
C1262 C 0.59833 0.7336 0.16614 0.0
C1263 C 0.60498 0.70647 0.17601 0.0
H1264 H 0.70511 0.61558 0.82247 0.0
H1265 H 0.66577 0.58075 0.89359 0.0
H1266 H 0.75209 0.60422 0.84019 0.0
H1267 H 0.71304 0.56914 0.91126 0.0
H1268 H 0.79538 0.61538 0.9456 0.0
H1269 H 0.74855 0.60371 0.92774 0.0
H1270 H 0.78802 0.5699 0.85636 0.0
H1271 H 0.83516 0.58182 0.87418 0.0
C1272 C 0.70639 0.60471 0.84151 0.0
C1273 C 0.68171 0.59965 0.85683 0.0
C1274 C 0.7334 0.598 0.85163 0.0
C1275 C 0.73624 0.58611 0.87728 0.0
C1276 C 0.71146 0.5787 0.89159 0.0
C1277 C 0.68441 0.58538 0.88145 0.0
C1278 C 0.79423 0.60471 0.92646 0.0
C1279 C 0.81898 0.6001 0.91111 0.0
C1280 C 0.76731 0.59782 0.91625 0.0
C1281 C 0.76462 0.5862 0.89048 0.0
C1282 C 0.78949 0.57924 0.87611 0.0
C1283 C 0.81646 0.58609 0.88635 0.0
H1284 H 0.38339 0.20493 0.07316 0.0
H1285 H 0.41706 0.16604 0.14503 0.0
H1286 H 0.39535 0.25202 0.09049 0.0
H1287 H 0.42934 0.21329 0.16219 0.0
H1288 H 0.42029 0.33494 0.12359 0.0
H1289 H 0.43085 0.28725 0.1064 0.0
H1290 H 0.39533 0.24974 0.178 0.0
H1291 H 0.38497 0.29715 0.19526 0.0
C1292 C 0.39406 0.20634 0.09231 0.0
C1293 C 0.39868 0.1818 0.10795 0.0
C1294 C 0.40114 0.23337 0.10218 0.0
C1295 C 0.41299 0.23631 0.12784 0.0
C1296 C 0.41985 0.21162 0.14251 0.0
C1297 C 0.41277 0.18459 0.13265 0.0
C1298 C 0.41535 0.31654 0.13596 0.0
C1299 C 0.40123 0.31979 0.16058 0.0
C1300 C 0.42142 0.28926 0.12607 0.0
C1301 C 0.41356 0.26482 0.14068 0.0
C1302 C 0.40185 0.26818 0.16634 0.0
C1303 C 0.39574 0.29542 0.1762 0.0
H1304 H 0.83322 0.92232 0.39231 0.0
H1305 H 0.79521 0.88301 0.32258 0.0
H1306 H 0.78561 0.93507 0.40845 0.0
H1307 H 0.74793 0.8953 0.33885 0.0
H1308 H 0.66411 0.91721 0.37026 0.0
H1309 H 0.71119 0.92921 0.35244 0.0
H1310 H 0.75021 0.90227 0.42658 0.0
H1311 H 0.70346 0.89086 0.44446 0.0
C1312 C 0.81479 0.91691 0.38015 0.0
C1313 C 0.81794 0.90111 0.35643 0.0
C1314 C 0.78755 0.92424 0.3894 0.0
C1315 C 0.76302 0.91583 0.37514 0.0
C1316 C 0.76637 0.90234 0.35024 0.0
C1317 C 0.79356 0.89508 0.34098 0.0
C1318 C 0.68268 0.91449 0.383 0.0
C1319 C 0.68009 0.90235 0.4086 0.0
C1320 C 0.70963 0.92138 0.37275 0.0
C1321 C 0.73443 0.91626 0.38793 0.0
C1322 C 0.73155 0.90669 0.41439 0.0
C1323 C 0.70465 0.89984 0.42462 0.0
H1324 H 0.10975 0.17252 0.61661 0.0
H1325 H 0.08837 0.19694 0.69732 0.0
H1326 H 0.09984 0.22058 0.60141 0.0
H1327 H 0.07636 0.24505 0.6819 0.0
H1328 H 0.11528 0.33109 0.65427 0.0
H1329 H 0.10415 0.28357 0.67023 0.0
H1330 H 0.07315 0.26039 0.59163 0.0
H1331 H 0.08645 0.30778 0.57527 0.0
C1332 C 0.10199 0.18804 0.63099 0.0
C1333 C 0.1006 0.18132 0.65825 0.0
C1334 C 0.09596 0.21569 0.62222 0.0
C1335 C 0.08778 0.23711 0.64048 0.0
C1336 C 0.08356 0.22944 0.6674 0.0
C1337 C 0.09033 0.20188 0.67628 0.0
C1338 C 0.10564 0.31599 0.64049 0.0
C1339 C 0.10245 0.32279 0.61337 0.0
C1340 C 0.09891 0.28867 0.64973 0.0
C1341 C 0.08822 0.26771 0.63214 0.0
C1342 C 0.08227 0.27561 0.60556 0.0
C1343 C 0.08975 0.30277 0.59616 0.0
loop_
_geom_bond_atom_site_label_1
_geom_bond_atom_site_label_2
_geom_bond_distance
_geom_bond_site_symmetry_2
_ccdc_geom_bond_type
Co0 O3 1.970 . S
Co0 N17 1.989 . S
Co0 O25 1.967 . S
Co0 O32 1.920 . S
Co1 O4 1.966 . S
Co1 N10 2.022 . S
Co1 N18 1.993 . S
Co1 O26 1.941 . S
C2 O3 1.258 . S
C2 O4 1.263 . S
O3 Co0 1.970 . S
O3 C2 1.258 . S
O4 Co1 1.966 . S
O4 C2 1.263 . S
C5 O6 1.235 . S
C5 O32 1.289 . S
O6 C5 1.235 . S
C7 C9 1.400 . S
C7 N10 1.351 . S
C7 C12 1.501 . S
C8 C9 1.387 . S
C8 N11 1.341 . S
C9 C7 1.400 . S
C9 C8 1.387 . S
N10 Co1 2.022 . S
N10 C7 1.351 . S
N10 N11 1.365 . S
N11 C8 1.341 . S
N11 N10 1.365 . S
N11 H31 0.862 . S
C12 C7 1.501 . S
C12 H13 0.961 . S
C12 H14 0.961 . S
C12 H15 0.960 . S
H13 C12 0.961 . S
H14 C12 0.961 . S
H15 C12 0.960 . S
C16 N17 1.342 . S
C16 C20 1.401 . S
C16 C21 1.499 . S
N17 Co0 1.989 . S
N17 C16 1.342 . S
N17 N18 1.388 . S
N18 Co1 1.993 . S
N18 N17 1.388 . S
N18 C19 1.346 . S
C19 N18 1.346 . S
C19 C20 1.396 . S
C19 C29 1.510 . S
C20 C16 1.401 . S
C20 C19 1.396 . S
C21 C16 1.499 . S
C21 H22 0.959 . S
C21 H23 0.960 . S
C21 H24 0.961 . S
H22 C21 0.959 . S
H23 C21 0.960 . S
H24 C21 0.961 . S
O25 Co0 1.967 . S
O25 C33 1.258 . S
O26 Co1 1.941 . S
O26 C33 1.266 . S
H27 C29 0.959 . S
H28 C29 0.961 . S
C29 C19 1.510 . S
C29 H27 0.959 . S
C29 H28 0.961 . S
C29 H30 0.960 . S
H30 C29 0.960 . S
H31 N11 0.862 . S
O32 Co0 1.920 . S
O32 C5 1.289 . S
C33 O25 1.258 . S
C33 O26 1.266 . S
Co34 O37 1.970 . S
Co34 N51 1.989 . S
Co34 O59 1.967 . S
Co34 O66 1.920 . S
Co35 O38 1.966 . S
Co35 N44 2.022 . S
Co35 N52 1.993 . S
Co35 O60 1.941 . S
C36 O37 1.258 . S
C36 O38 1.263 . S
O37 Co34 1.970 . S
O37 C36 1.258 . S
O38 Co35 1.966 . S
O38 C36 1.263 . S
C39 O40 1.235 . S
C39 O66 1.289 . S
O40 C39 1.235 . S
C41 C43 1.400 . S
C41 N44 1.351 . S
C41 C46 1.501 . S
C42 C43 1.387 . S
C42 N45 1.341 . S
C43 C41 1.400 . S
C43 C42 1.387 . S
N44 Co35 2.022 . S
N44 C41 1.351 . S
N44 N45 1.365 . S
N45 C42 1.341 . S
N45 N44 1.365 . S
N45 H65 0.862 . S
C46 C41 1.501 . S
C46 H47 0.961 . S
C46 H48 0.961 . S
C46 H49 0.960 . S
H47 C46 0.961 . S
H48 C46 0.961 . S
H49 C46 0.960 . S
C50 N51 1.342 . S
C50 C54 1.401 . S
C50 C55 1.499 . S
N51 Co34 1.989 . S
N51 C50 1.342 . S
N51 N52 1.388 . S
N52 Co35 1.993 . S
N52 N51 1.388 . S
N52 C53 1.346 . S
C53 N52 1.346 . S
C53 C54 1.396 . S
C53 C63 1.510 . S
C54 C50 1.401 . S
C54 C53 1.396 . S
C55 C50 1.499 . S
C55 H56 0.959 . S
C55 H57 0.960 . S
C55 H58 0.961 . S
H56 C55 0.959 . S
H57 C55 0.960 . S
H58 C55 0.961 . S
O59 Co34 1.967 . S
O59 C67 1.258 . S
O60 Co35 1.941 . S
O60 C67 1.266 . S
H61 C63 0.959 . S
H62 C63 0.961 . S
C63 C53 1.510 . S
C63 H61 0.959 . S
C63 H62 0.961 . S
C63 H64 0.960 . S
H64 C63 0.960 . S
H65 N45 0.862 . S
O66 Co34 1.920 . S
O66 C39 1.289 . S
C67 O59 1.258 . S
C67 O60 1.266 . S
Co68 O71 1.970 . S
Co68 N85 1.989 . S
Co68 O93 1.967 . S
Co68 O100 1.920 . S
Co69 O72 1.966 . S
Co69 N78 2.022 . S
Co69 N86 1.993 . S
Co69 O94 1.941 . S
C70 O71 1.258 . S
C70 O72 1.263 . S
O71 Co68 1.970 . S
O71 C70 1.258 . S
O72 Co69 1.966 . S
O72 C70 1.263 . S
C73 O74 1.235 . S
C73 O100 1.289 . S
O74 C73 1.235 . S
C75 C77 1.400 . S
C75 N78 1.351 . S
C75 C80 1.501 . S
C76 C77 1.387 . S
C76 N79 1.341 . S
C77 C75 1.400 . S
C77 C76 1.387 . S
N78 Co69 2.022 . S
N78 C75 1.351 . S
N78 N79 1.365 . S
N79 C76 1.341 . S
N79 N78 1.365 . S
N79 H99 0.862 . S
C80 C75 1.501 . S
C80 H81 0.961 . S
C80 H82 0.961 . S
C80 H83 0.960 . S
H81 C80 0.961 . S
H82 C80 0.961 . S
H83 C80 0.960 . S
C84 N85 1.342 . S
C84 C88 1.401 . S
C84 C89 1.499 . S
N85 Co68 1.989 . S
N85 C84 1.342 . S
N85 N86 1.388 . S
N86 Co69 1.993 . S
N86 N85 1.388 . S
N86 C87 1.346 . S
C87 N86 1.346 . S
C87 C88 1.396 . S
C87 C97 1.510 . S
C88 C84 1.401 . S
C88 C87 1.396 . S
C89 C84 1.499 . S
C89 H90 0.959 . S
C89 H91 0.960 . S
C89 H92 0.961 . S
H90 C89 0.959 . S
H91 C89 0.960 . S
H92 C89 0.961 . S
O93 Co68 1.967 . S
O93 C101 1.258 . S
O94 Co69 1.941 . S
O94 C101 1.266 . S
H95 C97 0.959 . S
H96 C97 0.961 . S
C97 C87 1.510 . S
C97 H95 0.959 . S
C97 H96 0.961 . S
C97 H98 0.960 . S
H98 C97 0.960 . S
H99 N79 0.862 . S
O100 Co68 1.920 . S
O100 C73 1.289 . S
C101 O93 1.258 . S
C101 O94 1.266 . S
Co102 O105 1.970 . S
Co102 N119 1.989 . S
Co102 O127 1.967 . S
Co102 O134 1.920 . S
Co103 O106 1.966 . S
Co103 N112 2.022 . S
Co103 N120 1.993 . S
Co103 O128 1.941 . S
C104 O105 1.258 . S
C104 O106 1.263 . S
O105 Co102 1.970 . S
O105 C104 1.258 . S
O106 Co103 1.966 . S
O106 C104 1.263 . S
C107 O108 1.235 . S
C107 O134 1.289 . S
O108 C107 1.235 . S
C109 C111 1.359 1_554 S
C109 N112 1.378 . S
C109 C114 1.516 . S
C110 C111 1.387 . S
C110 N113 1.307 1_556 S
C111 C109 1.359 1_556 S
C111 C110 1.387 . S
N112 Co103 2.022 . S
N112 C109 1.378 . S
N112 N113 1.387 . S
N113 C110 1.307 1_554 S
N113 N112 1.387 . S
N113 H133 0.874 . S
C114 C109 1.516 . S
C114 H115 0.961 . S
C114 H116 0.961 . S
C114 H117 0.960 . S
H115 C114 0.961 . S
H116 C114 0.961 . S
H117 C114 0.960 . S
C118 N119 1.342 . S
C118 C122 1.401 . S
C118 C123 1.499 . S
N119 Co102 1.989 . S
N119 C118 1.342 . S
N119 N120 1.388 . S
N120 Co103 1.993 . S
N120 N119 1.388 . S
N120 C121 1.346 . S
C121 N120 1.346 . S
C121 C122 1.396 . S
C121 C131 1.510 . S
C122 C118 1.401 . S
C122 C121 1.396 . S
C123 C118 1.499 . S
C123 H124 0.959 . S
C123 H125 0.960 . S
C123 H126 0.961 . S
H124 C123 0.959 . S
H125 C123 0.960 . S
H126 C123 0.961 . S
O127 Co102 1.967 . S
O127 C135 1.258 . S
O128 Co103 1.941 . S
O128 C135 1.266 . S
H129 C131 0.959 . S
H130 C131 0.961 . S
C131 C121 1.510 . S
C131 H129 0.959 . S
C131 H130 0.961 . S
C131 H132 0.960 . S
H132 C131 0.960 . S
H133 N113 0.874 . S
O134 Co102 1.920 . S
O134 C107 1.289 . S
C135 O127 1.258 . S
C135 O128 1.266 . S
Co136 O139 1.970 . S
Co136 N153 1.989 . S
Co136 O161 1.967 . S
Co136 O168 1.920 . S
Co137 O140 1.966 . S
Co137 N146 2.022 . S
Co137 N154 1.993 . S
Co137 O162 1.941 . S
C138 O139 1.258 . S
C138 O140 1.263 . S
O139 Co136 1.970 . S
O139 C138 1.258 . S
O140 Co137 1.966 . S
O140 C138 1.263 . S
C141 O142 1.235 . S
C141 O168 1.289 . S
O142 C141 1.235 . S
C143 C145 1.359 1_556 S
C143 N146 1.378 . S
C143 C148 1.516 . S
C144 C145 1.387 . S
C144 N147 1.307 1_554 S
C145 C143 1.359 1_554 S
C145 C144 1.387 . S
N146 Co137 2.022 . S
N146 C143 1.378 . S
N146 N147 1.387 . S
N147 C144 1.307 1_556 S
N147 N146 1.387 . S
N147 H167 0.874 . S
C148 C143 1.516 . S
C148 H149 0.961 . S
C148 H150 0.961 . S
C148 H151 0.960 . S
H149 C148 0.961 . S
H150 C148 0.961 . S
H151 C148 0.960 . S
C152 N153 1.342 . S
C152 C156 1.401 . S
C152 C157 1.499 . S
N153 Co136 1.989 . S
N153 C152 1.342 . S
N153 N154 1.388 . S
N154 Co137 1.993 . S
N154 N153 1.388 . S
N154 C155 1.346 . S
C155 N154 1.346 . S
C155 C156 1.396 . S
C155 C165 1.510 . S
C156 C152 1.401 . S
C156 C155 1.396 . S
C157 C152 1.499 . S
C157 H158 0.959 . S
C157 H159 0.960 . S
C157 H160 0.961 . S
H158 C157 0.959 . S
H159 C157 0.960 . S
H160 C157 0.961 . S
O161 Co136 1.967 . S
O161 C169 1.258 . S
O162 Co137 1.941 . S
O162 C169 1.266 . S
H163 C165 0.959 . S
H164 C165 0.961 . S
C165 C155 1.510 . S
C165 H163 0.959 . S
C165 H164 0.961 . S
C165 H166 0.960 . S
H166 C165 0.960 . S
H167 N147 0.874 . S
O168 Co136 1.920 . S
O168 C141 1.289 . S
C169 O161 1.258 . S
C169 O162 1.266 . S
Co170 O173 1.970 . S
Co170 N187 1.989 . S
Co170 O195 1.967 . S
Co170 O202 1.920 . S
Co171 O174 1.966 . S
Co171 N180 2.022 . S
Co171 N188 1.993 . S
Co171 O196 1.941 . S
C172 O173 1.258 . S
C172 O174 1.263 . S
O173 Co170 1.970 . S
O173 C172 1.258 . S
O174 Co171 1.966 . S
O174 C172 1.263 . S
C175 O176 1.235 . S
C175 O202 1.289 . S
O176 C175 1.235 . S
C177 C179 1.400 . S
C177 N180 1.351 . S
C177 C182 1.501 . S
C178 C179 1.387 . S
C178 N181 1.341 . S
C179 C177 1.400 . S
C179 C178 1.387 . S
N180 Co171 2.022 . S
N180 C177 1.351 . S
N180 N181 1.365 . S
N181 C178 1.341 . S
N181 N180 1.365 . S
N181 H201 0.862 . S
C182 C177 1.501 . S
C182 H183 0.961 . S
C182 H184 0.961 . S
C182 H185 0.960 . S
H183 C182 0.961 . S
H184 C182 0.961 . S
H185 C182 0.960 . S
C186 N187 1.342 . S
C186 C190 1.401 . S
C186 C191 1.499 . S
N187 Co170 1.989 . S
N187 C186 1.342 . S
N187 N188 1.388 . S
N188 Co171 1.993 . S
N188 N187 1.388 . S
N188 C189 1.346 . S
C189 N188 1.346 . S
C189 C190 1.396 . S
C189 C199 1.510 . S
C190 C186 1.401 . S
C190 C189 1.396 . S
C191 C186 1.499 . S
C191 H192 0.959 . S
C191 H193 0.960 . S
C191 H194 0.961 . S
H192 C191 0.959 . S
H193 C191 0.960 . S
H194 C191 0.961 . S
O195 Co170 1.967 . S
O195 C203 1.258 . S
O196 Co171 1.941 . S
O196 C203 1.266 . S
H197 C199 0.959 . S
H198 C199 0.961 . S
C199 C189 1.510 . S
C199 H197 0.959 . S
C199 H198 0.961 . S
C199 H200 0.960 . S
H200 C199 0.960 . S
H201 N181 0.862 . S
O202 Co170 1.920 . S
O202 C175 1.289 . S
C203 O195 1.258 . S
C203 O196 1.266 . S
Co204 O207 1.970 . S
Co204 N221 1.989 . S
Co204 O229 1.967 . S
Co204 O236 1.920 . S
Co205 O208 1.966 . S
Co205 N214 2.022 . S
Co205 N222 1.993 . S
Co205 O230 1.941 . S
C206 O207 1.258 . S
C206 O208 1.263 . S
O207 Co204 1.970 . S
O207 C206 1.258 . S
O208 Co205 1.966 . S
O208 C206 1.263 . S
C209 O210 1.235 . S
C209 O236 1.289 . S
O210 C209 1.235 . S
C211 C213 1.400 . S
C211 N214 1.351 . S
C211 C216 1.501 . S
C212 C213 1.387 . S
C212 N215 1.341 . S
C213 C211 1.400 . S
C213 C212 1.387 . S
N214 Co205 2.022 . S
N214 C211 1.351 . S
N214 N215 1.365 . S
N215 C212 1.341 . S
N215 N214 1.365 . S
N215 H235 0.862 . S
C216 C211 1.501 . S
C216 H217 0.961 . S
C216 H218 0.961 . S
C216 H219 0.960 . S
H217 C216 0.961 . S
H218 C216 0.961 . S
H219 C216 0.960 . S
C220 N221 1.342 . S
C220 C224 1.401 . S
C220 C225 1.499 . S
N221 Co204 1.989 . S
N221 C220 1.342 . S
N221 N222 1.388 . S
N222 Co205 1.993 . S
N222 N221 1.388 . S
N222 C223 1.346 . S
C223 N222 1.346 . S
C223 C224 1.396 . S
C223 C233 1.510 . S
C224 C220 1.401 . S
C224 C223 1.396 . S
C225 C220 1.499 . S
C225 H226 0.959 . S
C225 H227 0.960 . S
C225 H228 0.961 . S
H226 C225 0.959 . S
H227 C225 0.960 . S
H228 C225 0.961 . S
O229 Co204 1.967 . S
O229 C237 1.258 . S
O230 Co205 1.941 . S
O230 C237 1.266 . S
H231 C233 0.959 . S
H232 C233 0.961 . S
C233 C223 1.510 . S
C233 H231 0.959 . S
C233 H232 0.961 . S
C233 H234 0.960 . S
H234 C233 0.960 . S
H235 N215 0.862 . S
O236 Co204 1.920 . S
O236 C209 1.289 . S
C237 O229 1.258 . S
C237 O230 1.266 . S
Co238 O241 1.970 . S
Co238 N255 1.989 . S
Co238 O263 1.967 . S
Co238 O270 1.920 . S
Co239 O242 1.966 . S
Co239 N248 2.022 . S
Co239 N256 1.993 . S
Co239 O264 1.941 . S
C240 O241 1.258 . S
C240 O242 1.263 . S
O241 Co238 1.970 . S
O241 C240 1.258 . S
O242 Co239 1.966 . S
O242 C240 1.263 . S
C243 O244 1.235 . S
C243 O270 1.289 . S
O244 C243 1.235 . S
C245 C247 1.400 . S
C245 N248 1.351 . S
C245 C250 1.501 . S
C246 C247 1.387 . S
C246 N249 1.341 . S
C247 C245 1.400 . S
C247 C246 1.387 . S
N248 Co239 2.022 . S
N248 C245 1.351 . S
N248 N249 1.365 . S
N249 C246 1.341 . S
N249 N248 1.365 . S
N249 H269 0.862 . S
C250 C245 1.501 . S
C250 H251 0.961 . S
C250 H252 0.961 . S
C250 H253 0.960 . S
H251 C250 0.961 . S
H252 C250 0.961 . S
H253 C250 0.960 . S
C254 N255 1.342 . S
C254 C258 1.401 . S
C254 C259 1.499 . S
N255 Co238 1.989 . S
N255 C254 1.342 . S
N255 N256 1.388 . S
N256 Co239 1.993 . S
N256 N255 1.388 . S
N256 C257 1.346 . S
C257 N256 1.346 . S
C257 C258 1.396 . S
C257 C267 1.510 . S
C258 C254 1.401 . S
C258 C257 1.396 . S
C259 C254 1.499 . S
C259 H260 0.959 . S
C259 H261 0.960 . S
C259 H262 0.961 . S
H260 C259 0.959 . S
H261 C259 0.960 . S
H262 C259 0.961 . S
O263 Co238 1.967 . S
O263 C271 1.258 . S
O264 Co239 1.941 . S
O264 C271 1.266 . S
H265 C267 0.959 . S
H266 C267 0.961 . S
C267 C257 1.510 . S
C267 H265 0.959 . S
C267 H266 0.961 . S
C267 H268 0.960 . S
H268 C267 0.960 . S
H269 N249 0.862 . S
O270 Co238 1.920 . S
O270 C243 1.289 . S
C271 O263 1.258 . S
C271 O264 1.266 . S
Co272 O275 1.970 . S
Co272 N289 1.989 . S
Co272 O297 1.967 . S
Co272 O304 1.920 . S
Co273 O276 1.966 . S
Co273 N282 2.022 . S
Co273 N290 1.993 . S
Co273 O298 1.941 . S
C274 O275 1.258 . S
C274 O276 1.263 . S
O275 Co272 1.970 . S
O275 C274 1.258 . S
O276 Co273 1.966 . S
O276 C274 1.263 . S
C277 O278 1.235 . S
C277 O304 1.289 . S
O278 C277 1.235 . S
C279 C281 1.400 . S
C279 N282 1.351 . S
C279 C284 1.501 . S
C280 C281 1.387 . S
C280 N283 1.341 . S
C281 C279 1.400 . S
C281 C280 1.387 . S
N282 Co273 2.022 . S
N282 C279 1.351 . S
N282 N283 1.365 . S
N283 C280 1.341 . S
N283 N282 1.365 . S
N283 H303 0.862 . S
C284 C279 1.501 . S
C284 H285 0.961 . S
C284 H286 0.961 . S
C284 H287 0.960 . S
H285 C284 0.961 . S
H286 C284 0.961 . S
H287 C284 0.960 . S
C288 N289 1.342 . S
C288 C292 1.401 . S
C288 C293 1.499 . S
N289 Co272 1.989 . S
N289 C288 1.342 . S
N289 N290 1.388 . S
N290 Co273 1.993 . S
N290 N289 1.388 . S
N290 C291 1.346 . S
C291 N290 1.346 . S
C291 C292 1.396 . S
C291 C301 1.510 . S
C292 C288 1.401 . S
C292 C291 1.396 . S
C293 C288 1.499 . S
C293 H294 0.959 . S
C293 H295 0.960 . S
C293 H296 0.961 . S
H294 C293 0.959 . S
H295 C293 0.960 . S
H296 C293 0.961 . S
O297 Co272 1.967 . S
O297 C305 1.258 . S
O298 Co273 1.941 . S
O298 C305 1.266 . S
H299 C301 0.959 . S
H300 C301 0.961 . S
C301 C291 1.510 . S
C301 H299 0.959 . S
C301 H300 0.961 . S
C301 H302 0.960 . S
H302 C301 0.960 . S
H303 N283 0.862 . S
O304 Co272 1.920 . S
O304 C277 1.289 . S
C305 O297 1.258 . S
C305 O298 1.266 . S
Co306 O309 1.970 . S
Co306 N323 1.989 . S
Co306 O331 1.967 . S
Co306 O338 1.920 . S
Co307 O310 1.966 . S
Co307 N316 2.022 . S
Co307 N324 1.993 . S
Co307 O332 1.941 . S
C308 O309 1.258 . S
C308 O310 1.263 . S
O309 Co306 1.970 . S
O309 C308 1.258 . S
O310 Co307 1.966 . S
O310 C308 1.263 . S
C311 O312 1.235 . S
C311 O338 1.289 . S
O312 C311 1.235 . S
C313 C315 1.359 1_554 S
C313 N316 1.378 . S
C313 C318 1.516 . S
C314 C315 1.387 . S
C314 N317 1.307 1_556 S
C315 C313 1.359 1_556 S
C315 C314 1.387 . S
N316 Co307 2.022 . S
N316 C313 1.378 . S
N316 N317 1.387 . S
N317 C314 1.307 1_554 S
N317 N316 1.387 . S
N317 H337 0.874 . S
C318 C313 1.516 . S
C318 H319 0.961 . S
C318 H320 0.961 . S
C318 H321 0.960 . S
H319 C318 0.961 . S
H320 C318 0.961 . S
H321 C318 0.960 . S
C322 N323 1.342 . S
C322 C326 1.401 . S
C322 C327 1.499 . S
N323 Co306 1.989 . S
N323 C322 1.342 . S
N323 N324 1.388 . S
N324 Co307 1.993 . S
N324 N323 1.388 . S
N324 C325 1.346 . S
C325 N324 1.346 . S
C325 C326 1.396 . S
C325 C335 1.510 . S
C326 C322 1.401 . S
C326 C325 1.396 . S
C327 C322 1.499 . S
C327 H328 0.959 . S
C327 H329 0.960 . S
C327 H330 0.961 . S
H328 C327 0.959 . S
H329 C327 0.960 . S
H330 C327 0.961 . S
O331 Co306 1.967 . S
O331 C339 1.258 . S
O332 Co307 1.941 . S
O332 C339 1.266 . S
H333 C335 0.959 . S
H334 C335 0.961 . S
C335 C325 1.510 . S
C335 H333 0.959 . S
C335 H334 0.961 . S
C335 H336 0.960 . S
H336 C335 0.960 . S
H337 N317 0.874 . S
O338 Co306 1.920 . S
O338 C311 1.289 . S
C339 O331 1.258 . S
C339 O332 1.266 . S
Co340 O343 1.970 . S
Co340 N357 1.989 . S
Co340 O365 1.967 . S
Co340 O372 1.920 . S
Co341 O344 1.966 . S
Co341 N350 2.022 . S
Co341 N358 1.993 . S
Co341 O366 1.941 . S
C342 O343 1.258 . S
C342 O344 1.263 . S
O343 Co340 1.970 . S
O343 C342 1.258 . S
O344 Co341 1.966 . S
O344 C342 1.263 . S
C345 O346 1.235 . S
C345 O372 1.289 . S
O346 C345 1.235 . S
C347 C349 1.400 . S
C347 N350 1.351 . S
C347 C352 1.501 . S
C348 C349 1.387 . S
C348 N351 1.341 . S
C349 C347 1.400 . S
C349 C348 1.387 . S
N350 Co341 2.022 . S
N350 C347 1.351 . S
N350 N351 1.365 . S
N351 C348 1.341 . S
N351 N350 1.365 . S
N351 H371 0.862 . S
C352 C347 1.501 . S
C352 H353 0.961 . S
C352 H354 0.961 . S
C352 H355 0.960 . S
H353 C352 0.961 . S
H354 C352 0.961 . S
H355 C352 0.960 . S
C356 N357 1.342 . S
C356 C360 1.401 . S
C356 C361 1.499 . S
N357 Co340 1.989 . S
N357 C356 1.342 . S
N357 N358 1.388 . S
N358 Co341 1.993 . S
N358 N357 1.388 . S
N358 C359 1.346 . S
C359 N358 1.346 . S
C359 C360 1.396 . S
C359 C369 1.510 . S
C360 C356 1.401 . S
C360 C359 1.396 . S
C361 C356 1.499 . S
C361 H362 0.959 . S
C361 H363 0.960 . S
C361 H364 0.961 . S
H362 C361 0.959 . S
H363 C361 0.960 . S
H364 C361 0.961 . S
O365 Co340 1.967 . S
O365 C373 1.258 . S
O366 Co341 1.941 . S
O366 C373 1.266 . S
H367 C369 0.959 . S
H368 C369 0.961 . S
C369 C359 1.510 . S
C369 H367 0.959 . S
C369 H368 0.961 . S
C369 H370 0.960 . S
H370 C369 0.960 . S
H371 N351 0.862 . S
O372 Co340 1.920 . S
O372 C345 1.289 . S
C373 O365 1.258 . S
C373 O366 1.266 . S
Co374 O377 1.970 . S
Co374 N391 1.989 . S
Co374 O399 1.967 . S
Co374 O406 1.920 . S
Co375 O378 1.966 . S
Co375 N384 2.022 . S
Co375 N392 1.993 . S
Co375 O400 1.941 . S
C376 O377 1.258 . S
C376 O378 1.263 . S
O377 Co374 1.970 . S
O377 C376 1.258 . S
O378 Co375 1.966 . S
O378 C376 1.263 . S
C379 O380 1.235 . S
C379 O406 1.289 . S
O380 C379 1.235 . S
C381 C383 1.400 . S
C381 N384 1.351 . S
C381 C386 1.501 . S
C382 C383 1.387 . S
C382 N385 1.341 . S
C383 C381 1.400 . S
C383 C382 1.387 . S
N384 Co375 2.022 . S
N384 C381 1.351 . S
N384 N385 1.365 . S
N385 C382 1.341 . S
N385 N384 1.365 . S
N385 H405 0.862 . S
C386 C381 1.501 . S
C386 H387 0.961 . S
C386 H388 0.961 . S
C386 H389 0.960 . S
H387 C386 0.961 . S
H388 C386 0.961 . S
H389 C386 0.960 . S
C390 N391 1.342 . S
C390 C394 1.401 . S
C390 C395 1.499 . S
N391 Co374 1.989 . S
N391 C390 1.342 . S
N391 N392 1.388 . S
N392 Co375 1.993 . S
N392 N391 1.388 . S
N392 C393 1.346 . S
C393 N392 1.346 . S
C393 C394 1.396 . S
C393 C403 1.510 . S
C394 C390 1.401 . S
C394 C393 1.396 . S
C395 C390 1.499 . S
C395 H396 0.959 . S
C395 H397 0.960 . S
C395 H398 0.961 . S
H396 C395 0.959 . S
H397 C395 0.960 . S
H398 C395 0.961 . S
O399 Co374 1.967 . S
O399 C407 1.258 . S
O400 Co375 1.941 . S
O400 C407 1.266 . S
H401 C403 0.959 . S
H402 C403 0.961 . S
C403 C393 1.510 . S
C403 H401 0.959 . S
C403 H402 0.961 . S
C403 H404 0.960 . S
H404 C403 0.960 . S
H405 N385 0.862 . S
O406 Co374 1.920 . S
O406 C379 1.289 . S
C407 O399 1.258 . S
C407 O400 1.266 . S
Co408 O411 1.970 . S
Co408 N425 1.989 . S
Co408 O433 1.967 . S
Co408 O440 1.920 . S
Co409 O412 1.966 . S
Co409 N418 2.022 . S
Co409 N426 1.993 . S
Co409 O434 1.941 . S
C410 O411 1.258 . S
C410 O412 1.263 . S
O411 Co408 1.970 . S
O411 C410 1.258 . S
O412 Co409 1.966 . S
O412 C410 1.263 . S
C413 O414 1.235 . S
C413 O440 1.289 . S
O414 C413 1.235 . S
C415 C417 1.400 . S
C415 N418 1.351 . S
C415 C420 1.501 . S
C416 C417 1.387 . S
C416 N419 1.341 . S
C417 C415 1.400 . S
C417 C416 1.387 . S
N418 Co409 2.022 . S
N418 C415 1.351 . S
N418 N419 1.365 . S
N419 C416 1.341 . S
N419 N418 1.365 . S
N419 H439 0.862 . S
C420 C415 1.501 . S
C420 H421 0.961 . S
C420 H422 0.961 . S
C420 H423 0.960 . S
H421 C420 0.961 . S
H422 C420 0.961 . S
H423 C420 0.960 . S
C424 N425 1.342 . S
C424 C428 1.401 . S
C424 C429 1.499 . S
N425 Co408 1.989 . S
N425 C424 1.342 . S
N425 N426 1.388 . S
N426 Co409 1.993 . S
N426 N425 1.388 . S
N426 C427 1.346 . S
C427 N426 1.346 . S
C427 C428 1.396 . S
C427 C437 1.510 . S
C428 C424 1.401 . S
C428 C427 1.396 . S
C429 C424 1.499 . S
C429 H430 0.959 . S
C429 H431 0.960 . S
C429 H432 0.961 . S
H430 C429 0.959 . S
H431 C429 0.960 . S
H432 C429 0.961 . S
O433 Co408 1.967 . S
O433 C441 1.258 . S
O434 Co409 1.941 . S
O434 C441 1.266 . S
H435 C437 0.959 . S
H436 C437 0.961 . S
C437 C427 1.510 . S
C437 H435 0.959 . S
C437 H436 0.961 . S
C437 H438 0.960 . S
H438 C437 0.960 . S
H439 N419 0.862 . S
O440 Co408 1.920 . S
O440 C413 1.289 . S
C441 O433 1.258 . S
C441 O434 1.266 . S
Co442 O445 1.970 . S
Co442 N459 1.989 . S
Co442 O467 1.967 . S
Co442 O474 1.920 . S
Co443 O446 1.966 . S
Co443 N452 2.022 . S
Co443 N460 1.993 . S
Co443 O468 1.941 . S
C444 O445 1.258 . S
C444 O446 1.263 . S
O445 Co442 1.970 . S
O445 C444 1.258 . S
O446 Co443 1.966 . S
O446 C444 1.263 . S
C447 O448 1.235 . S
C447 O474 1.289 . S
O448 C447 1.235 . S
C449 C451 1.400 . S
C449 N452 1.351 . S
C449 C454 1.501 . S
C450 C451 1.387 . S
C450 N453 1.341 . S
C451 C449 1.400 . S
C451 C450 1.387 . S
N452 Co443 2.022 . S
N452 C449 1.351 . S
N452 N453 1.365 . S
N453 C450 1.341 . S
N453 N452 1.365 . S
N453 H473 0.862 . S
C454 C449 1.501 . S
C454 H455 0.961 . S
C454 H456 0.961 . S
C454 H457 0.960 . S
H455 C454 0.961 . S
H456 C454 0.961 . S
H457 C454 0.960 . S
C458 N459 1.342 . S
C458 C462 1.401 . S
C458 C463 1.499 . S
N459 Co442 1.989 . S
N459 C458 1.342 . S
N459 N460 1.388 . S
N460 Co443 1.993 . S
N460 N459 1.388 . S
N460 C461 1.346 . S
C461 N460 1.346 . S
C461 C462 1.396 . S
C461 C471 1.510 . S
C462 C458 1.401 . S
C462 C461 1.396 . S
C463 C458 1.499 . S
C463 H464 0.959 . S
C463 H465 0.960 . S
C463 H466 0.961 . S
H464 C463 0.959 . S
H465 C463 0.960 . S
H466 C463 0.961 . S
O467 Co442 1.967 . S
O467 C475 1.258 . S
O468 Co443 1.941 . S
O468 C475 1.266 . S
H469 C471 0.959 . S
H470 C471 0.961 . S
C471 C461 1.510 . S
C471 H469 0.959 . S
C471 H470 0.961 . S
C471 H472 0.960 . S
H472 C471 0.960 . S
H473 N453 0.862 . S
O474 Co442 1.920 . S
O474 C447 1.289 . S
C475 O467 1.258 . S
C475 O468 1.266 . S
Co476 O479 1.970 . S
Co476 N493 1.989 . S
Co476 O501 1.967 . S
Co476 O508 1.920 . S
Co477 O480 1.966 . S
Co477 N486 2.022 . S
Co477 N494 1.993 . S
Co477 O502 1.941 . S
C478 O479 1.258 . S
C478 O480 1.263 . S
O479 Co476 1.970 . S
O479 C478 1.258 . S
O480 Co477 1.966 . S
O480 C478 1.263 . S
C481 O482 1.235 . S
C481 O508 1.289 . S
O482 C481 1.235 . S
C483 C485 1.359 1_556 S
C483 N486 1.378 . S
C483 C488 1.516 . S
C484 C485 1.387 . S
C484 N487 1.307 1_554 S
C485 C483 1.359 1_554 S
C485 C484 1.387 . S
N486 Co477 2.022 . S
N486 C483 1.378 . S
N486 N487 1.387 . S
N487 C484 1.307 1_556 S
N487 N486 1.387 . S
N487 H507 0.874 . S
C488 C483 1.516 . S
C488 H489 0.961 . S
C488 H490 0.961 . S
C488 H491 0.960 . S
H489 C488 0.961 . S
H490 C488 0.961 . S
H491 C488 0.960 . S
C492 N493 1.342 . S
C492 C496 1.401 . S
C492 C497 1.499 . S
N493 Co476 1.989 . S
N493 C492 1.342 . S
N493 N494 1.388 . S
N494 Co477 1.993 . S
N494 N493 1.388 . S
N494 C495 1.346 . S
C495 N494 1.346 . S
C495 C496 1.396 . S
C495 C505 1.510 . S
C496 C492 1.401 . S
C496 C495 1.396 . S
C497 C492 1.499 . S
C497 H498 0.959 . S
C497 H499 0.960 . S
C497 H500 0.961 . S
H498 C497 0.959 . S
H499 C497 0.960 . S
H500 C497 0.961 . S
O501 Co476 1.967 . S
O501 C509 1.258 . S
O502 Co477 1.941 . S
O502 C509 1.266 . S
H503 C505 0.959 . S
H504 C505 0.961 . S
C505 C495 1.510 . S
C505 H503 0.959 . S
C505 H504 0.961 . S
C505 H506 0.960 . S
H506 C505 0.960 . S
H507 N487 0.874 . S
O508 Co476 1.920 . S
O508 C481 1.289 . S
C509 O501 1.258 . S
C509 O502 1.266 . S
Co510 O513 1.970 . S
Co510 N527 1.989 . S
Co510 O535 1.967 . S
Co510 O542 1.920 . S
Co511 O514 1.966 . S
Co511 N520 2.022 . S
Co511 N528 1.993 . S
Co511 O536 1.941 . S
C512 O513 1.258 . S
C512 O514 1.263 . S
O513 Co510 1.970 . S
O513 C512 1.258 . S
O514 Co511 1.966 . S
O514 C512 1.263 . S
C515 O516 1.235 . S
C515 O542 1.289 . S
O516 C515 1.235 . S
C517 C519 1.400 . S
C517 N520 1.351 . S
C517 C522 1.501 . S
C518 C519 1.387 . S
C518 N521 1.341 . S
C519 C517 1.400 . S
C519 C518 1.387 . S
N520 Co511 2.022 . S
N520 C517 1.351 . S
N520 N521 1.365 . S
N521 C518 1.341 . S
N521 N520 1.365 . S
N521 H541 0.862 . S
C522 C517 1.501 . S
C522 H523 0.961 . S
C522 H524 0.961 . S
C522 H525 0.960 . S
H523 C522 0.961 . S
H524 C522 0.961 . S
H525 C522 0.960 . S
C526 N527 1.342 . S
C526 C530 1.401 . S
C526 C531 1.499 . S
N527 Co510 1.989 . S
N527 C526 1.342 . S
N527 N528 1.388 . S
N528 Co511 1.993 . S
N528 N527 1.388 . S
N528 C529 1.346 . S
C529 N528 1.346 . S
C529 C530 1.396 . S
C529 C539 1.510 . S
C530 C526 1.401 . S
C530 C529 1.396 . S
C531 C526 1.499 . S
C531 H532 0.959 . S
C531 H533 0.960 . S
C531 H534 0.961 . S
H532 C531 0.959 . S
H533 C531 0.960 . S
H534 C531 0.961 . S
O535 Co510 1.967 . S
O535 C543 1.258 . S
O536 Co511 1.941 . S
O536 C543 1.266 . S
H537 C539 0.959 . S
H538 C539 0.961 . S
C539 C529 1.510 . S
C539 H537 0.959 . S
C539 H538 0.961 . S
C539 H540 0.960 . S
H540 C539 0.960 . S
H541 N521 0.862 . S
O542 Co510 1.920 . S
O542 C515 1.289 . S
C543 O535 1.258 . S
C543 O536 1.266 . S
H544 C552 0.950 . S
H545 C557 0.950 . S
H546 C554 0.950 . S
H547 C556 0.950 . S
H548 C558 0.950 . S
H549 C560 0.950 . S
H550 C562 0.950 . S
H551 C563 0.950 . S
C552 H544 0.950 . S
C552 C553 1.386 . S
C552 C554 1.391 . S
C553 C552 1.386 . S
C553 C557 1.393 . S
C554 H546 0.950 . S
C554 C552 1.391 . S
C554 C555 1.400 . S
C555 C554 1.400 . S
C555 C556 1.398 . S
C555 C561 1.491 . S
C556 H547 0.950 . S
C556 C555 1.398 . S
C556 C557 1.391 . S
C557 H545 0.950 . S
C557 C553 1.393 . S
C557 C556 1.391 . S
C558 H548 0.950 . S
C558 C559 1.386 . S
C558 C560 1.391 . S
C559 C558 1.386 . S
C559 C563 1.393 . S
C560 H549 0.950 . S
C560 C558 1.391 . S
C560 C561 1.400 . S
C561 C555 1.491 . S
C561 C560 1.400 . S
C561 C562 1.398 . S
C562 H550 0.950 . S
C562 C561 1.398 . S
C562 C563 1.391 . S
C563 H551 0.950 . S
C563 C559 1.393 . S
C563 C562 1.391 . S
H564 C572 0.950 . S
H565 C577 0.950 . S
H566 C574 0.950 . S
H567 C576 0.950 . S
H568 C578 0.950 . S
H569 C580 0.950 . S
H570 C582 0.950 . S
H571 C583 0.950 . S
C572 H564 0.950 . S
C572 C573 1.386 . S
C572 C574 1.391 . S
C573 C572 1.386 . S
C573 C577 1.393 . S
C574 H566 0.950 . S
C574 C572 1.391 . S
C574 C575 1.400 . S
C575 C574 1.400 . S
C575 C576 1.398 . S
C575 C581 1.491 . S
C576 H567 0.950 . S
C576 C575 1.398 . S
C576 C577 1.391 . S
C577 H565 0.950 . S
C577 C573 1.393 . S
C577 C576 1.391 . S
C578 H568 0.950 . S
C578 C579 1.386 . S
C578 C580 1.391 . S
C579 C578 1.386 . S
C579 C583 1.393 . S
C580 H569 0.950 . S
C580 C578 1.391 . S
C580 C581 1.400 . S
C581 C575 1.491 . S
C581 C580 1.400 . S
C581 C582 1.398 . S
C582 H570 0.950 . S
C582 C581 1.398 . S
C582 C583 1.391 . S
C583 H571 0.950 . S
C583 C579 1.393 . S
C583 C582 1.391 . S
H584 C592 0.950 . S
H585 C597 0.950 . S
H586 C594 0.950 . S
H587 C596 0.950 . S
H588 C598 0.950 . S
H589 C600 0.950 . S
H590 C602 0.950 . S
H591 C603 0.950 . S
C592 H584 0.950 . S
C592 C593 1.386 . S
C592 C594 1.391 . S
C593 C592 1.386 . S
C593 C597 1.393 . S
C594 H586 0.950 . S
C594 C592 1.391 . S
C594 C595 1.400 . S
C595 C594 1.400 . S
C595 C596 1.398 . S
C595 C601 1.491 1_554 S
C596 H587 0.950 . S
C596 C595 1.398 . S
C596 C597 1.391 . S
C597 H585 0.950 . S
C597 C593 1.393 . S
C597 C596 1.391 . S
C598 H588 0.950 . S
C598 C599 1.386 . S
C598 C600 1.391 . S
C599 C598 1.386 . S
C599 C603 1.393 . S
C600 H589 0.950 . S
C600 C598 1.391 . S
C600 C601 1.400 . S
C601 C595 1.491 1_556 S
C601 C600 1.400 . S
C601 C602 1.398 . S
C602 H590 0.950 . S
C602 C601 1.398 . S
C602 C603 1.391 . S
C603 H591 0.950 . S
C603 C599 1.393 . S
C603 C602 1.391 . S
H604 C612 0.950 . S
H605 C617 0.950 . S
H606 C614 0.950 . S
H607 C616 0.950 . S
H608 C618 0.950 . S
H609 C620 0.950 . S
H610 C622 0.950 . S
H611 C623 0.950 . S
C612 H604 0.950 . S
C612 C613 1.386 . S
C612 C614 1.391 . S
C613 C612 1.386 . S
C613 C617 1.393 . S
C614 H606 0.950 . S
C614 C612 1.391 . S
C614 C615 1.400 . S
C615 C614 1.400 . S
C615 C616 1.398 . S
C615 C621 1.491 . S
C616 H607 0.950 . S
C616 C615 1.398 . S
C616 C617 1.391 . S
C617 H605 0.950 . S
C617 C613 1.393 . S
C617 C616 1.391 . S
C618 H608 0.950 . S
C618 C619 1.386 . S
C618 C620 1.391 . S
C619 C618 1.386 . S
C619 C623 1.393 . S
C620 H609 0.950 . S
C620 C618 1.391 . S
C620 C621 1.400 . S
C621 C615 1.491 . S
C621 C620 1.400 . S
C621 C622 1.398 . S
C622 H610 0.950 . S
C622 C621 1.398 . S
C622 C623 1.391 . S
C623 H611 0.950 . S
C623 C619 1.393 . S
C623 C622 1.391 . S
H624 C632 0.950 . S
H625 C637 0.950 . S
H626 C634 0.950 . S
H627 C636 0.950 . S
H628 C638 0.950 . S
H629 C640 0.950 . S
H630 C642 0.950 . S
H631 C643 0.950 . S
C632 H624 0.950 . S
C632 C633 1.386 . S
C632 C634 1.391 . S
C633 C632 1.386 . S
C633 C637 1.393 . S
C634 H626 0.950 . S
C634 C632 1.391 . S
C634 C635 1.400 . S
C635 C634 1.400 . S
C635 C636 1.398 . S
C635 C641 1.491 . S
C636 H627 0.950 . S
C636 C635 1.398 . S
C636 C637 1.391 . S
C637 H625 0.950 . S
C637 C633 1.393 . S
C637 C636 1.391 . S
C638 H628 0.950 . S
C638 C639 1.386 . S
C638 C640 1.391 . S
C639 C638 1.386 . S
C639 C643 1.393 . S
C640 H629 0.950 . S
C640 C638 1.391 . S
C640 C641 1.400 . S
C641 C635 1.491 . S
C641 C640 1.400 . S
C641 C642 1.398 . S
C642 H630 0.950 . S
C642 C641 1.398 . S
C642 C643 1.391 . S
C643 H631 0.950 . S
C643 C639 1.393 . S
C643 C642 1.391 . S
H644 C652 0.950 . S
H645 C657 0.950 . S
H646 C654 0.950 . S
H647 C656 0.950 . S
H648 C658 0.950 . S
H649 C660 0.950 . S
H650 C662 0.950 . S
H651 C663 0.950 . S
C652 H644 0.950 . S
C652 C653 1.386 . S
C652 C654 1.391 . S
C653 C652 1.386 . S
C653 C657 1.393 . S
C654 H646 0.950 . S
C654 C652 1.391 . S
C654 C655 1.400 . S
C655 C654 1.400 . S
C655 C656 1.398 . S
C655 C661 1.491 1_556 S
C656 H647 0.950 . S
C656 C655 1.398 . S
C656 C657 1.391 . S
C657 H645 0.950 . S
C657 C653 1.393 . S
C657 C656 1.391 . S
C658 H648 0.950 . S
C658 C659 1.386 . S
C658 C660 1.391 . S
C659 C658 1.386 . S
C659 C663 1.393 . S
C660 H649 0.950 . S
C660 C658 1.391 . S
C660 C661 1.400 . S
C661 C655 1.491 1_554 S
C661 C660 1.400 . S
C661 C662 1.398 . S
C662 H650 0.950 . S
C662 C661 1.398 . S
C662 C663 1.391 . S
C663 H651 0.950 . S
C663 C659 1.393 . S
C663 C662 1.391 . S
H664 C672 0.950 . S
H665 C677 0.950 . S
H666 C674 0.950 . S
H667 C676 0.950 . S
H668 C678 0.950 . S
H669 C680 0.950 . S
H670 C682 0.950 . S
H671 C683 0.950 . S
C672 H664 0.950 . S
C672 C673 1.386 . S
C672 C674 1.391 . S
C673 C672 1.386 . S
C673 C677 1.393 . S
C674 H666 0.950 . S
C674 C672 1.391 . S
C674 C675 1.400 . S
C675 C674 1.400 . S
C675 C676 1.398 . S
C675 C681 1.491 . S
C676 H667 0.950 . S
C676 C675 1.398 . S
C676 C677 1.391 . S
C677 H665 0.950 . S
C677 C673 1.393 . S
C677 C676 1.391 . S
C678 H668 0.950 . S
C678 C679 1.386 . S
C678 C680 1.391 . S
C679 C678 1.386 . S
C679 C683 1.393 . S
C680 H669 0.950 . S
C680 C678 1.391 . S
C680 C681 1.400 . S
C681 C675 1.491 . S
C681 C680 1.400 . S
C681 C682 1.398 . S
C682 H670 0.950 . S
C682 C681 1.398 . S
C682 C683 1.391 . S
C683 H671 0.950 . S
C683 C679 1.393 . S
C683 C682 1.391 . S
H684 C692 0.950 . S
H685 C697 0.950 . S
H686 C694 0.950 . S
H687 C696 0.950 . S
H688 C698 0.950 . S
H689 C700 0.950 . S
H690 C702 0.950 . S
H691 C703 0.950 . S
C692 H684 0.950 . S
C692 C693 1.386 . S
C692 C694 1.391 . S
C693 C692 1.386 . S
C693 C697 1.393 . S
C694 H686 0.950 . S
C694 C692 1.391 . S
C694 C695 1.400 . S
C695 C694 1.400 . S
C695 C696 1.398 . S
C695 C701 1.491 . S
C696 H687 0.950 . S
C696 C695 1.398 . S
C696 C697 1.391 . S
C697 H685 0.950 . S
C697 C693 1.393 . S
C697 C696 1.391 . S
C698 H688 0.950 . S
C698 C699 1.386 . S
C698 C700 1.391 . S
C699 C698 1.386 . S
C699 C703 1.393 . S
C700 H689 0.950 . S
C700 C698 1.391 . S
C700 C701 1.400 . S
C701 C695 1.491 . S
C701 C700 1.400 . S
C701 C702 1.398 . S
C702 H690 0.950 . S
C702 C701 1.398 . S
C702 C703 1.391 . S
C703 H691 0.950 . S
C703 C699 1.393 . S
C703 C702 1.391 . S
H704 C712 0.950 . S
H705 C717 0.950 . S
H706 C714 0.950 . S
H707 C716 0.950 . S
H708 C718 0.950 . S
H709 C720 0.950 . S
H710 C722 0.950 . S
H711 C723 0.950 . S
C712 H704 0.950 . S
C712 C713 1.386 . S
C712 C714 1.391 . S
C713 C712 1.386 . S
C713 C717 1.393 . S
C714 H706 0.950 . S
C714 C712 1.391 . S
C714 C715 1.400 . S
C715 C714 1.400 . S
C715 C716 1.398 . S
C715 C721 1.491 . S
C716 H707 0.950 . S
C716 C715 1.398 . S
C716 C717 1.391 . S
C717 H705 0.950 . S
C717 C713 1.393 . S
C717 C716 1.391 . S
C718 H708 0.950 . S
C718 C719 1.386 . S
C718 C720 1.391 . S
C719 C718 1.386 . S
C719 C723 1.393 . S
C720 H709 0.950 . S
C720 C718 1.391 . S
C720 C721 1.400 . S
C721 C715 1.491 . S
C721 C720 1.400 . S
C721 C722 1.398 . S
C722 H710 0.950 . S
C722 C721 1.398 . S
C722 C723 1.391 . S
C723 H711 0.950 . S
C723 C719 1.393 . S
C723 C722 1.391 . S
H724 C732 0.950 . S
H725 C737 0.950 . S
H726 C734 0.950 . S
H727 C736 0.950 . S
H728 C738 0.950 . S
H729 C740 0.950 . S
H730 C742 0.950 . S
H731 C743 0.950 . S
C732 H724 0.950 . S
C732 C733 1.386 . S
C732 C734 1.391 . S
C733 C732 1.386 . S
C733 C737 1.393 . S
C734 H726 0.950 . S
C734 C732 1.391 . S
C734 C735 1.400 . S
C735 C734 1.400 . S
C735 C736 1.398 . S
C735 C741 1.491 . S
C736 H727 0.950 . S
C736 C735 1.398 . S
C736 C737 1.391 . S
C737 H725 0.950 . S
C737 C733 1.393 . S
C737 C736 1.391 . S
C738 H728 0.950 . S
C738 C739 1.386 . S
C738 C740 1.391 . S
C739 C738 1.386 . S
C739 C743 1.393 . S
C740 H729 0.950 . S
C740 C738 1.391 . S
C740 C741 1.400 . S
C741 C735 1.491 . S
C741 C740 1.400 . S
C741 C742 1.398 . S
C742 H730 0.950 . S
C742 C741 1.398 . S
C742 C743 1.391 . S
C743 H731 0.950 . S
C743 C739 1.393 . S
C743 C742 1.391 . S
H744 C752 0.950 . S
H745 C757 0.950 . S
H746 C754 0.950 . S
H747 C756 0.950 . S
H748 C758 0.950 . S
H749 C760 0.950 . S
H750 C762 0.950 . S
H751 C763 0.950 . S
C752 H744 0.950 . S
C752 C753 1.386 . S
C752 C754 1.391 . S
C753 C752 1.386 . S
C753 C757 1.393 . S
C754 H746 0.950 . S
C754 C752 1.391 . S
C754 C755 1.400 . S
C755 C754 1.400 . S
C755 C756 1.398 . S
C755 C761 1.491 . S
C756 H747 0.950 . S
C756 C755 1.398 . S
C756 C757 1.391 . S
C757 H745 0.950 . S
C757 C753 1.393 . S
C757 C756 1.391 . S
C758 H748 0.950 . S
C758 C759 1.386 . S
C758 C760 1.391 . S
C759 C758 1.386 . S
C759 C763 1.393 . S
C760 H749 0.950 . S
C760 C758 1.391 . S
C760 C761 1.400 . S
C761 C755 1.491 . S
C761 C760 1.400 . S
C761 C762 1.398 . S
C762 H750 0.950 . S
C762 C761 1.398 . S
C762 C763 1.391 . S
C763 H751 0.950 . S
C763 C759 1.393 . S
C763 C762 1.391 . S
H764 C772 0.950 . S
H765 C777 0.950 . S
H766 C774 0.950 . S
H767 C776 0.950 . S
H768 C778 0.950 . S
H769 C780 0.950 . S
H770 C782 0.950 . S
H771 C783 0.950 . S
C772 H764 0.950 . S
C772 C773 1.386 . S
C772 C774 1.391 . S
C773 C772 1.386 . S
C773 C777 1.393 . S
C774 H766 0.950 . S
C774 C772 1.391 . S
C774 C775 1.400 . S
C775 C774 1.400 . S
C775 C776 1.398 . S
C775 C781 1.491 . S
C776 H767 0.950 . S
C776 C775 1.398 . S
C776 C777 1.391 . S
C777 H765 0.950 . S
C777 C773 1.393 . S
C777 C776 1.391 . S
C778 H768 0.950 . S
C778 C779 1.386 . S
C778 C780 1.391 . S
C779 C778 1.386 . S
C779 C783 1.393 . S
C780 H769 0.950 . S
C780 C778 1.391 . S
C780 C781 1.400 . S
C781 C775 1.491 . S
C781 C780 1.400 . S
C781 C782 1.398 . S
C782 H770 0.950 . S
C782 C781 1.398 . S
C782 C783 1.391 . S
C783 H771 0.950 . S
C783 C779 1.393 . S
C783 C782 1.391 . S
H784 C792 0.950 . S
H785 C797 0.950 . S
H786 C794 0.950 . S
H787 C796 0.950 . S
H788 C798 0.950 . S
H789 C800 0.950 . S
H790 C802 0.950 . S
H791 C803 0.950 . S
C792 H784 0.950 . S
C792 C793 1.386 . S
C792 C794 1.391 . S
C793 C792 1.386 . S
C793 C797 1.393 . S
C794 H786 0.950 . S
C794 C792 1.391 . S
C794 C795 1.400 . S
C795 C794 1.400 . S
C795 C796 1.398 . S
C795 C801 1.491 . S
C796 H787 0.950 . S
C796 C795 1.398 . S
C796 C797 1.391 . S
C797 H785 0.950 . S
C797 C793 1.393 . S
C797 C796 1.391 . S
C798 H788 0.950 . S
C798 C799 1.386 . S
C798 C800 1.391 . S
C799 C798 1.386 . S
C799 C803 1.393 . S
C800 H789 0.950 . S
C800 C798 1.391 . S
C800 C801 1.400 . S
C801 C795 1.491 . S
C801 C800 1.400 . S
C801 C802 1.398 . S
C802 H790 0.950 . S
C802 C801 1.398 . S
C802 C803 1.391 . S
C803 H791 0.950 . S
C803 C799 1.393 . S
C803 C802 1.391 . S
H804 C812 0.950 . S
H805 C817 0.950 . S
H806 C814 0.950 . S
H807 C816 0.950 . S
H808 C818 0.950 . S
H809 C820 0.950 . S
H810 C822 0.950 . S
H811 C823 0.950 . S
C812 H804 0.950 . S
C812 C813 1.386 . S
C812 C814 1.391 . S
C813 C812 1.386 . S
C813 C817 1.393 . S
C814 H806 0.950 . S
C814 C812 1.391 . S
C814 C815 1.400 . S
C815 C814 1.400 . S
C815 C816 1.398 . S
C815 C821 1.491 . S
C816 H807 0.950 . S
C816 C815 1.398 . S
C816 C817 1.391 . S
C817 H805 0.950 . S
C817 C813 1.393 . S
C817 C816 1.391 . S
C818 H808 0.950 . S
C818 C819 1.386 . S
C818 C820 1.391 . S
C819 C818 1.386 . S
C819 C823 1.393 . S
C820 H809 0.950 . S
C820 C818 1.391 . S
C820 C821 1.400 . S
C821 C815 1.491 . S
C821 C820 1.400 . S
C821 C822 1.398 . S
C822 H810 0.950 . S
C822 C821 1.398 . S
C822 C823 1.391 . S
C823 H811 0.950 . S
C823 C819 1.393 . S
C823 C822 1.391 . S
H824 C832 0.950 . S
H825 C837 0.950 . S
H826 C834 0.950 . S
H827 C836 0.950 . S
H828 C838 0.950 . S
H829 C840 0.950 . S
H830 C842 0.950 . S
H831 C843 0.950 . S
C832 H824 0.950 . S
C832 C833 1.386 . S
C832 C834 1.391 . S
C833 C832 1.386 . S
C833 C837 1.393 . S
C834 H826 0.950 . S
C834 C832 1.391 . S
C834 C835 1.400 . S
C835 C834 1.400 . S
C835 C836 1.398 . S
C835 C841 1.491 . S
C836 H827 0.950 . S
C836 C835 1.398 . S
C836 C837 1.391 . S
C837 H825 0.950 . S
C837 C833 1.393 . S
C837 C836 1.391 . S
C838 H828 0.950 . S
C838 C839 1.386 . S
C838 C840 1.391 . S
C839 C838 1.386 . S
C839 C843 1.393 . S
C840 H829 0.950 . S
C840 C838 1.391 . S
C840 C841 1.400 . S
C841 C835 1.491 . S
C841 C840 1.400 . S
C841 C842 1.398 . S
C842 H830 0.950 . S
C842 C841 1.398 . S
C842 C843 1.391 . S
C843 H831 0.950 . S
C843 C839 1.393 . S
C843 C842 1.391 . S
H844 C852 0.950 . S
H845 C857 0.950 . S
H846 C854 0.950 . S
H847 C856 0.950 . S
H848 C858 0.950 . S
H849 C860 0.950 . S
H850 C862 0.950 . S
H851 C863 0.950 . S
C852 H844 0.950 . S
C852 C853 1.386 . S
C852 C854 1.391 . S
C853 C852 1.386 . S
C853 C857 1.393 . S
C854 H846 0.950 . S
C854 C852 1.391 . S
C854 C855 1.400 . S
C855 C854 1.400 . S
C855 C856 1.398 . S
C855 C861 1.491 . S
C856 H847 0.950 . S
C856 C855 1.398 . S
C856 C857 1.391 . S
C857 H845 0.950 . S
C857 C853 1.393 . S
C857 C856 1.391 . S
C858 H848 0.950 . S
C858 C859 1.386 . S
C858 C860 1.391 . S
C859 C858 1.386 . S
C859 C863 1.393 . S
C860 H849 0.950 . S
C860 C858 1.391 . S
C860 C861 1.400 . S
C861 C855 1.491 . S
C861 C860 1.400 . S
C861 C862 1.398 . S
C862 H850 0.950 . S
C862 C861 1.398 . S
C862 C863 1.391 . S
C863 H851 0.950 . S
C863 C859 1.393 . S
C863 C862 1.391 . S
H864 C872 0.950 . S
H865 C877 0.950 . S
H866 C874 0.950 . S
H867 C876 0.950 . S
H868 C878 0.950 . S
H869 C880 0.950 . S
H870 C882 0.950 . S
H871 C883 0.950 . S
C872 H864 0.950 . S
C872 C873 1.386 . S
C872 C874 1.391 . S
C873 C872 1.386 . S
C873 C877 1.393 . S
C874 H866 0.950 . S
C874 C872 1.391 . S
C874 C875 1.400 . S
C875 C874 1.400 . S
C875 C876 1.398 . S
C875 C881 1.491 . S
C876 H867 0.950 . S
C876 C875 1.398 . S
C876 C877 1.391 . S
C877 H865 0.950 . S
C877 C873 1.393 . S
C877 C876 1.391 . S
C878 H868 0.950 . S
C878 C879 1.386 . S
C878 C880 1.391 . S
C879 C878 1.386 . S
C879 C883 1.393 . S
C880 H869 0.950 . S
C880 C878 1.391 . S
C880 C881 1.400 . S
C881 C875 1.491 . S
C881 C880 1.400 . S
C881 C882 1.398 . S
C882 H870 0.950 . S
C882 C881 1.398 . S
C882 C883 1.391 . S
C883 H871 0.950 . S
C883 C879 1.393 . S
C883 C882 1.391 . S
H884 C892 0.950 . S
H885 C897 0.950 . S
H886 C894 0.950 . S
H887 C896 0.950 . S
H888 C898 0.950 . S
H889 C900 0.950 . S
H890 C902 0.950 . S
H891 C903 0.950 . S
C892 H884 0.950 . S
C892 C893 1.386 . S
C892 C894 1.391 . S
C893 C892 1.386 . S
C893 C897 1.393 . S
C894 H886 0.950 . S
C894 C892 1.391 . S
C894 C895 1.400 . S
C895 C894 1.400 . S
C895 C896 1.398 . S
C895 C901 1.491 . S
C896 H887 0.950 . S
C896 C895 1.398 . S
C896 C897 1.391 . S
C897 H885 0.950 . S
C897 C893 1.393 . S
C897 C896 1.391 . S
C898 H888 0.950 . S
C898 C899 1.386 . S
C898 C900 1.391 . S
C899 C898 1.386 . S
C899 C903 1.393 . S
C900 H889 0.950 . S
C900 C898 1.391 . S
C900 C901 1.400 . S
C901 C895 1.491 . S
C901 C900 1.400 . S
C901 C902 1.398 . S
C902 H890 0.950 . S
C902 C901 1.398 . S
C902 C903 1.391 . S
C903 H891 0.950 . S
C903 C899 1.393 . S
C903 C902 1.391 . S
H904 C912 0.950 . S
H905 C917 0.950 . S
H906 C914 0.950 . S
H907 C916 0.950 . S
H908 C918 0.950 . S
H909 C920 0.950 . S
H910 C922 0.950 . S
H911 C923 0.950 . S
C912 H904 0.950 . S
C912 C913 1.386 . S
C912 C914 1.391 . S
C913 C912 1.386 . S
C913 C917 1.393 . S
C914 H906 0.950 . S
C914 C912 1.391 . S
C914 C915 1.400 . S
C915 C914 1.400 . S
C915 C916 1.398 . S
C915 C921 1.491 . S
C916 H907 0.950 . S
C916 C915 1.398 . S
C916 C917 1.391 . S
C917 H905 0.950 . S
C917 C913 1.393 . S
C917 C916 1.391 . S
C918 H908 0.950 . S
C918 C919 1.386 . S
C918 C920 1.391 . S
C919 C918 1.386 . S
C919 C923 1.393 . S
C920 H909 0.950 . S
C920 C918 1.391 . S
C920 C921 1.400 . S
C921 C915 1.491 . S
C921 C920 1.400 . S
C921 C922 1.398 . S
C922 H910 0.950 . S
C922 C921 1.398 . S
C922 C923 1.391 . S
C923 H911 0.950 . S
C923 C919 1.393 . S
C923 C922 1.391 . S
H924 C932 0.950 . S
H925 C937 0.950 . S
H926 C934 0.950 . S
H927 C936 0.950 . S
H928 C938 0.950 . S
H929 C940 0.950 . S
H930 C942 0.950 . S
H931 C943 0.950 . S
C932 H924 0.950 . S
C932 C933 1.386 . S
C932 C934 1.391 . S
C933 C932 1.386 . S
C933 C937 1.393 . S
C934 H926 0.950 . S
C934 C932 1.391 . S
C934 C935 1.400 . S
C935 C934 1.400 . S
C935 C936 1.398 . S
C935 C941 1.491 . S
C936 H927 0.950 . S
C936 C935 1.398 . S
C936 C937 1.391 . S
C937 H925 0.950 . S
C937 C933 1.393 . S
C937 C936 1.391 . S
C938 H928 0.950 . S
C938 C939 1.386 . S
C938 C940 1.391 . S
C939 C938 1.386 . S
C939 C943 1.393 . S
C940 H929 0.950 . S
C940 C938 1.391 . S
C940 C941 1.400 . S
C941 C935 1.491 . S
C941 C940 1.400 . S
C941 C942 1.398 . S
C942 H930 0.950 . S
C942 C941 1.398 . S
C942 C943 1.391 . S
C943 H931 0.950 . S
C943 C939 1.393 . S
C943 C942 1.391 . S
H944 C952 0.950 . S
H945 C957 0.950 . S
H946 C954 0.950 . S
H947 C956 0.950 . S
H948 C958 0.950 . S
H949 C960 0.950 . S
H950 C962 0.950 . S
H951 C963 0.950 . S
C952 H944 0.950 . S
C952 C953 1.386 . S
C952 C954 1.391 . S
C953 C952 1.386 . S
C953 C957 1.393 . S
C954 H946 0.950 . S
C954 C952 1.391 . S
C954 C955 1.400 . S
C955 C954 1.400 . S
C955 C956 1.398 . S
C955 C961 1.491 . S
C956 H947 0.950 . S
C956 C955 1.398 . S
C956 C957 1.391 . S
C957 H945 0.950 . S
C957 C953 1.393 . S
C957 C956 1.391 . S
C958 H948 0.950 . S
C958 C959 1.386 . S
C958 C960 1.391 . S
C959 C958 1.386 . S
C959 C963 1.393 . S
C960 H949 0.950 . S
C960 C958 1.391 . S
C960 C961 1.400 . S
C961 C955 1.491 . S
C961 C960 1.400 . S
C961 C962 1.398 . S
C962 H950 0.950 . S
C962 C961 1.398 . S
C962 C963 1.391 . S
C963 H951 0.950 . S
C963 C959 1.393 . S
C963 C962 1.391 . S
H964 C972 0.950 . S
H965 C977 0.950 . S
H966 C974 0.950 . S
H967 C976 0.950 . S
H968 C978 0.950 . S
H969 C980 0.950 . S
H970 C982 0.950 . S
H971 C983 0.950 . S
C972 H964 0.950 . S
C972 C973 1.386 . S
C972 C974 1.391 . S
C973 C972 1.386 . S
C973 C977 1.393 . S
C974 H966 0.950 . S
C974 C972 1.391 . S
C974 C975 1.400 . S
C975 C974 1.400 . S
C975 C976 1.398 . S
C975 C981 1.491 . S
C976 H967 0.950 . S
C976 C975 1.398 . S
C976 C977 1.391 . S
C977 H965 0.950 . S
C977 C973 1.393 . S
C977 C976 1.391 . S
C978 H968 0.950 . S
C978 C979 1.386 . S
C978 C980 1.391 . S
C979 C978 1.386 . S
C979 C983 1.393 . S
C980 H969 0.950 . S
C980 C978 1.391 . S
C980 C981 1.400 . S
C981 C975 1.491 . S
C981 C980 1.400 . S
C981 C982 1.398 . S
C982 H970 0.950 . S
C982 C981 1.398 . S
C982 C983 1.391 . S
C983 H971 0.950 . S
C983 C979 1.393 . S
C983 C982 1.391 . S
H984 C992 0.950 . S
H985 C997 0.950 . S
H986 C994 0.950 . S
H987 C996 0.950 . S
H988 C998 0.950 . S
H989 C1000 0.950 . S
H990 C1002 0.950 . S
H991 C1003 0.950 . S
C992 H984 0.950 . S
C992 C993 1.386 . S
C992 C994 1.391 . S
C993 C992 1.386 . S
C993 C997 1.393 . S
C994 H986 0.950 . S
C994 C992 1.391 . S
C994 C995 1.400 . S
C995 C994 1.400 . S
C995 C996 1.398 . S
C995 C1001 1.491 . S
C996 H987 0.950 . S
C996 C995 1.398 . S
C996 C997 1.391 . S
C997 H985 0.950 . S
C997 C993 1.393 . S
C997 C996 1.391 . S
C998 H988 0.950 . S
C998 C999 1.386 . S
C998 C1000 1.391 . S
C999 C998 1.386 . S
C999 C1003 1.393 . S
C1000 H989 0.950 . S
C1000 C998 1.391 . S
C1000 C1001 1.400 . S
C1001 C995 1.491 . S
C1001 C1000 1.400 . S
C1001 C1002 1.398 . S
C1002 H990 0.950 . S
C1002 C1001 1.398 . S
C1002 C1003 1.391 . S
C1003 H991 0.950 . S
C1003 C999 1.393 . S
C1003 C1002 1.391 . S
H1004 C1012 0.950 . S
H1005 C1017 0.950 . S
H1006 C1014 0.950 . S
H1007 C1016 0.950 . S
H1008 C1018 0.950 . S
H1009 C1020 0.950 . S
H1010 C1022 0.950 . S
H1011 C1023 0.950 . S
C1012 H1004 0.950 . S
C1012 C1013 1.386 . S
C1012 C1014 1.391 . S
C1013 C1012 1.386 . S
C1013 C1017 1.393 . S
C1014 H1006 0.950 . S
C1014 C1012 1.391 . S
C1014 C1015 1.400 . S
C1015 C1014 1.400 . S
C1015 C1016 1.398 . S
C1015 C1021 1.491 . S
C1016 H1007 0.950 . S
C1016 C1015 1.398 . S
C1016 C1017 1.391 . S
C1017 H1005 0.950 . S
C1017 C1013 1.393 . S
C1017 C1016 1.391 . S
C1018 H1008 0.950 . S
C1018 C1019 1.386 . S
C1018 C1020 1.391 . S
C1019 C1018 1.386 . S
C1019 C1023 1.393 . S
C1020 H1009 0.950 . S
C1020 C1018 1.391 . S
C1020 C1021 1.400 . S
C1021 C1015 1.491 . S
C1021 C1020 1.400 . S
C1021 C1022 1.398 . S
C1022 H1010 0.950 . S
C1022 C1021 1.398 . S
C1022 C1023 1.391 . S
C1023 H1011 0.950 . S
C1023 C1019 1.393 . S
C1023 C1022 1.391 . S
H1024 C1032 0.950 . S
H1025 C1037 0.950 . S
H1026 C1034 0.950 . S
H1027 C1036 0.950 . S
H1028 C1038 0.950 . S
H1029 C1040 0.950 . S
H1030 C1042 0.950 . S
H1031 C1043 0.950 . S
C1032 H1024 0.950 . S
C1032 C1033 1.386 . S
C1032 C1034 1.391 . S
C1033 C1032 1.386 . S
C1033 C1037 1.393 . S
C1034 H1026 0.950 . S
C1034 C1032 1.391 . S
C1034 C1035 1.400 . S
C1035 C1034 1.400 . S
C1035 C1036 1.398 . S
C1035 C1041 1.491 1_445 S
C1036 H1027 0.950 . S
C1036 C1035 1.398 . S
C1036 C1037 1.391 . S
C1037 H1025 0.950 . S
C1037 C1033 1.393 . S
C1037 C1036 1.391 . S
C1038 H1028 0.950 . S
C1038 C1039 1.386 . S
C1038 C1040 1.391 . S
C1039 C1038 1.386 . S
C1039 C1043 1.393 . S
C1040 H1029 0.950 . S
C1040 C1038 1.391 . S
C1040 C1041 1.400 . S
C1041 C1035 1.491 1_665 S
C1041 C1040 1.400 . S
C1041 C1042 1.398 . S
C1042 H1030 0.950 . S
C1042 C1041 1.398 . S
C1042 C1043 1.391 . S
C1043 H1031 0.950 . S
C1043 C1039 1.393 . S
C1043 C1042 1.391 . S
H1044 C1052 0.950 . S
H1045 C1057 0.950 . S
H1046 C1054 0.950 . S
H1047 C1056 0.950 . S
H1048 C1058 0.950 . S
H1049 C1060 0.950 . S
H1050 C1062 0.950 . S
H1051 C1063 0.950 . S
C1052 H1044 0.950 . S
C1052 C1053 1.386 . S
C1052 C1054 1.391 . S
C1053 C1052 1.386 . S
C1053 C1057 1.393 . S
C1054 H1046 0.950 . S
C1054 C1052 1.391 . S
C1054 C1055 1.400 . S
C1055 C1054 1.400 . S
C1055 C1056 1.398 . S
C1055 C1061 1.491 1_455 S
C1056 H1047 0.950 . S
C1056 C1055 1.398 . S
C1056 C1057 1.391 . S
C1057 H1045 0.950 . S
C1057 C1053 1.393 . S
C1057 C1056 1.391 . S
C1058 H1048 0.950 . S
C1058 C1059 1.386 . S
C1058 C1060 1.391 . S
C1059 C1058 1.386 . S
C1059 C1063 1.393 . S
C1060 H1049 0.950 . S
C1060 C1058 1.391 . S
C1060 C1061 1.400 . S
C1061 C1055 1.491 1_655 S
C1061 C1060 1.400 . S
C1061 C1062 1.398 . S
C1062 H1050 0.950 . S
C1062 C1061 1.398 . S
C1062 C1063 1.391 . S
C1063 H1051 0.950 . S
C1063 C1059 1.393 . S
C1063 C1062 1.391 . S
H1064 C1072 0.950 . S
H1065 C1077 0.950 . S
H1066 C1074 0.950 . S
H1067 C1076 0.950 . S
H1068 C1078 0.950 . S
H1069 C1080 0.950 . S
H1070 C1082 0.950 . S
H1071 C1083 0.950 . S
C1072 H1064 0.950 . S
C1072 C1073 1.386 . S
C1072 C1074 1.391 . S
C1073 C1072 1.386 . S
C1073 C1077 1.393 . S
C1074 H1066 0.950 . S
C1074 C1072 1.391 . S
C1074 C1075 1.400 . S
C1075 C1074 1.400 . S
C1075 C1076 1.398 . S
C1075 C1081 1.491 . S
C1076 H1067 0.950 . S
C1076 C1075 1.398 . S
C1076 C1077 1.391 . S
C1077 H1065 0.950 . S
C1077 C1073 1.393 . S
C1077 C1076 1.391 . S
C1078 H1068 0.950 . S
C1078 C1079 1.386 . S
C1078 C1080 1.391 . S
C1079 C1078 1.386 . S
C1079 C1083 1.393 . S
C1080 H1069 0.950 . S
C1080 C1078 1.391 . S
C1080 C1081 1.400 . S
C1081 C1075 1.491 . S
C1081 C1080 1.400 . S
C1081 C1082 1.398 . S
C1082 H1070 0.950 . S
C1082 C1081 1.398 . S
C1082 C1083 1.391 . S
C1083 H1071 0.950 . S
C1083 C1079 1.393 . S
C1083 C1082 1.391 . S
H1084 C1092 0.950 . S
H1085 C1097 0.950 . S
H1086 C1094 0.950 . S
H1087 C1096 0.950 . S
H1088 C1098 0.950 . S
H1089 C1100 0.950 . S
H1090 C1102 0.950 . S
H1091 C1103 0.950 . S
C1092 H1084 0.950 . S
C1092 C1093 1.386 . S
C1092 C1094 1.391 1_545 S
C1093 C1092 1.386 . S
C1093 C1097 1.393 . S
C1094 H1086 0.950 . S
C1094 C1092 1.391 1_565 S
C1094 C1095 1.400 1_565 S
C1095 C1094 1.400 1_545 S
C1095 C1096 1.398 . S
C1095 C1101 1.491 1_545 S
C1096 H1087 0.950 . S
C1096 C1095 1.398 . S
C1096 C1097 1.391 . S
C1097 H1085 0.950 . S
C1097 C1093 1.393 . S
C1097 C1096 1.391 . S
C1098 H1088 0.950 . S
C1098 C1099 1.386 . S
C1098 C1100 1.391 1_565 S
C1099 C1098 1.386 . S
C1099 C1103 1.393 . S
C1100 H1089 0.950 . S
C1100 C1098 1.391 1_545 S
C1100 C1101 1.400 1_545 S
C1101 C1095 1.491 1_565 S
C1101 C1100 1.400 1_565 S
C1101 C1102 1.398 . S
C1102 H1090 0.950 . S
C1102 C1101 1.398 . S
C1102 C1103 1.391 . S
C1103 H1091 0.950 . S
C1103 C1099 1.393 . S
C1103 C1102 1.391 . S
H1104 C1112 0.950 . S
H1105 C1117 0.950 . S
H1106 C1114 0.950 1_655 S
H1107 C1116 0.950 . S
H1108 C1118 0.950 . S
H1109 C1120 0.950 1_455 S
H1110 C1122 0.950 . S
H1111 C1123 0.950 . S
C1112 H1104 0.950 . S
C1112 C1113 1.386 . S
C1112 C1114 1.391 . S
C1113 C1112 1.386 . S
C1113 C1117 1.393 . S
C1114 H1106 0.950 1_455 S
C1114 C1112 1.391 . S
C1114 C1115 1.400 . S
C1115 C1114 1.400 . S
C1115 C1116 1.398 . S
C1115 C1121 1.491 1_455 S
C1116 H1107 0.950 . S
C1116 C1115 1.398 . S
C1116 C1117 1.391 . S
C1117 H1105 0.950 . S
C1117 C1113 1.393 . S
C1117 C1116 1.391 . S
C1118 H1108 0.950 . S
C1118 C1119 1.386 . S
C1118 C1120 1.391 . S
C1119 C1118 1.386 . S
C1119 C1123 1.393 . S
C1120 H1109 0.950 1_655 S
C1120 C1118 1.391 . S
C1120 C1121 1.400 . S
C1121 C1115 1.491 1_655 S
C1121 C1120 1.400 . S
C1121 C1122 1.398 . S
C1122 H1110 0.950 . S
C1122 C1121 1.398 . S
C1122 C1123 1.391 . S
C1123 H1111 0.950 . S
C1123 C1119 1.393 . S
C1123 C1122 1.391 . S
H1124 C1132 0.950 . S
H1125 C1137 0.950 . S
H1126 C1134 0.950 . S
H1127 C1136 0.950 . S
H1128 C1138 0.950 . S
H1129 C1140 0.950 . S
H1130 C1142 0.950 . S
H1131 C1143 0.950 . S
C1132 H1124 0.950 . S
C1132 C1133 1.386 . S
C1132 C1134 1.391 . S
C1133 C1132 1.386 . S
C1133 C1137 1.393 . S
C1134 H1126 0.950 . S
C1134 C1132 1.391 . S
C1134 C1135 1.400 . S
C1135 C1134 1.400 . S
C1135 C1136 1.398 . S
C1135 C1141 1.491 . S
C1136 H1127 0.950 . S
C1136 C1135 1.398 . S
C1136 C1137 1.391 . S
C1137 H1125 0.950 . S
C1137 C1133 1.393 . S
C1137 C1136 1.391 . S
C1138 H1128 0.950 . S
C1138 C1139 1.386 . S
C1138 C1140 1.391 . S
C1139 C1138 1.386 . S
C1139 C1143 1.393 . S
C1140 H1129 0.950 . S
C1140 C1138 1.391 . S
C1140 C1141 1.400 . S
C1141 C1135 1.491 . S
C1141 C1140 1.400 . S
C1141 C1142 1.398 . S
C1142 H1130 0.950 . S
C1142 C1141 1.398 . S
C1142 C1143 1.391 . S
C1143 H1131 0.950 . S
C1143 C1139 1.393 . S
C1143 C1142 1.391 . S
H1144 C1152 0.950 . S
H1145 C1157 0.950 . S
H1146 C1154 0.950 . S
H1147 C1156 0.950 . S
H1148 C1158 0.950 . S
H1149 C1160 0.950 . S
H1150 C1162 0.950 . S
H1151 C1163 0.950 . S
C1152 H1144 0.950 . S
C1152 C1153 1.386 . S
C1152 C1154 1.391 . S
C1153 C1152 1.386 . S
C1153 C1157 1.393 . S
C1154 H1146 0.950 . S
C1154 C1152 1.391 . S
C1154 C1155 1.400 . S
C1155 C1154 1.400 . S
C1155 C1156 1.398 . S
C1155 C1161 1.491 1_565 S
C1156 H1147 0.950 . S
C1156 C1155 1.398 . S
C1156 C1157 1.391 . S
C1157 H1145 0.950 . S
C1157 C1153 1.393 . S
C1157 C1156 1.391 . S
C1158 H1148 0.950 . S
C1158 C1159 1.386 . S
C1158 C1160 1.391 . S
C1159 C1158 1.386 . S
C1159 C1163 1.393 . S
C1160 H1149 0.950 . S
C1160 C1158 1.391 . S
C1160 C1161 1.400 . S
C1161 C1155 1.491 1_545 S
C1161 C1160 1.400 . S
C1161 C1162 1.398 . S
C1162 H1150 0.950 . S
C1162 C1161 1.398 . S
C1162 C1163 1.391 . S
C1163 H1151 0.950 . S
C1163 C1159 1.393 . S
C1163 C1162 1.391 . S
H1164 C1172 0.950 . S
H1165 C1177 0.950 . S
H1166 C1174 0.950 . S
H1167 C1176 0.950 . S
H1168 C1178 0.950 . S
H1169 C1180 0.950 . S
H1170 C1182 0.950 . S
H1171 C1183 0.950 . S
C1172 H1164 0.950 . S
C1172 C1173 1.386 . S
C1172 C1174 1.391 1_545 S
C1173 C1172 1.386 . S
C1173 C1177 1.393 . S
C1174 H1166 0.950 . S
C1174 C1172 1.391 1_565 S
C1174 C1175 1.400 1_565 S
C1175 C1174 1.400 1_545 S
C1175 C1176 1.398 . S
C1175 C1181 1.491 1_445 S
C1176 H1167 0.950 . S
C1176 C1175 1.398 . S
C1176 C1177 1.391 . S
C1177 H1165 0.950 . S
C1177 C1173 1.393 . S
C1177 C1176 1.391 . S
C1178 H1168 0.950 . S
C1178 C1179 1.386 . S
C1178 C1180 1.391 1_565 S
C1179 C1178 1.386 . S
C1179 C1183 1.393 . S
C1180 H1169 0.950 . S
C1180 C1178 1.391 1_545 S
C1180 C1181 1.400 1_545 S
C1181 C1175 1.491 1_665 S
C1181 C1180 1.400 1_565 S
C1181 C1182 1.398 . S
C1182 H1170 0.950 . S
C1182 C1181 1.398 . S
C1182 C1183 1.391 . S
C1183 H1171 0.950 . S
C1183 C1179 1.393 . S
C1183 C1182 1.391 . S
H1184 C1192 0.950 . S
H1185 C1197 0.950 . S
H1186 C1194 0.950 . S
H1187 C1196 0.950 . S
H1188 C1198 0.950 . S
H1189 C1200 0.950 . S
H1190 C1202 0.950 . S
H1191 C1203 0.950 . S
C1192 H1184 0.950 . S
C1192 C1193 1.386 . S
C1192 C1194 1.391 . S
C1193 C1192 1.386 . S
C1193 C1197 1.393 . S
C1194 H1186 0.950 . S
C1194 C1192 1.391 . S
C1194 C1195 1.400 . S
C1195 C1194 1.400 . S
C1195 C1196 1.398 . S
C1195 C1201 1.491 . S
C1196 H1187 0.950 . S
C1196 C1195 1.398 . S
C1196 C1197 1.391 . S
C1197 H1185 0.950 . S
C1197 C1193 1.393 . S
C1197 C1196 1.391 . S
C1198 H1188 0.950 . S
C1198 C1199 1.386 . S
C1198 C1200 1.391 . S
C1199 C1198 1.386 . S
C1199 C1203 1.393 . S
C1200 H1189 0.950 . S
C1200 C1198 1.391 . S
C1200 C1201 1.400 . S
C1201 C1195 1.491 . S
C1201 C1200 1.400 . S
C1201 C1202 1.398 . S
C1202 H1190 0.950 . S
C1202 C1201 1.398 . S
C1202 C1203 1.391 . S
C1203 H1191 0.950 . S
C1203 C1199 1.393 . S
C1203 C1202 1.391 . S
H1204 C1212 0.950 . S
H1205 C1217 0.950 . S
H1206 C1214 0.950 . S
H1207 C1216 0.950 . S
H1208 C1218 0.950 . S
H1209 C1220 0.950 . S
H1210 C1222 0.950 . S
H1211 C1223 0.950 . S
C1212 H1204 0.950 . S
C1212 C1213 1.386 . S
C1212 C1214 1.391 . S
C1213 C1212 1.386 . S
C1213 C1217 1.393 . S
C1214 H1206 0.950 . S
C1214 C1212 1.391 . S
C1214 C1215 1.400 . S
C1215 C1214 1.400 . S
C1215 C1216 1.398 . S
C1215 C1221 1.491 . S
C1216 H1207 0.950 . S
C1216 C1215 1.398 . S
C1216 C1217 1.391 . S
C1217 H1205 0.950 . S
C1217 C1213 1.393 . S
C1217 C1216 1.391 . S
C1218 H1208 0.950 . S
C1218 C1219 1.386 . S
C1218 C1220 1.391 . S
C1219 C1218 1.386 . S
C1219 C1223 1.393 . S
C1220 H1209 0.950 . S
C1220 C1218 1.391 . S
C1220 C1221 1.400 . S
C1221 C1215 1.491 . S
C1221 C1220 1.400 . S
C1221 C1222 1.398 . S
C1222 H1210 0.950 . S
C1222 C1221 1.398 . S
C1222 C1223 1.391 . S
C1223 H1211 0.950 . S
C1223 C1219 1.393 . S
C1223 C1222 1.391 . S
H1224 C1232 0.950 . S
H1225 C1237 0.950 . S
H1226 C1234 0.950 . S
H1227 C1236 0.950 . S
H1228 C1238 0.950 . S
H1229 C1240 0.950 . S
H1230 C1242 0.950 . S
H1231 C1243 0.950 . S
C1232 H1224 0.950 . S
C1232 C1233 1.386 . S
C1232 C1234 1.391 . S
C1233 C1232 1.386 . S
C1233 C1237 1.393 . S
C1234 H1226 0.950 . S
C1234 C1232 1.391 . S
C1234 C1235 1.400 . S
C1235 C1234 1.400 . S
C1235 C1236 1.398 . S
C1235 C1241 1.491 . S
C1236 H1227 0.950 . S
C1236 C1235 1.398 . S
C1236 C1237 1.391 . S
C1237 H1225 0.950 . S
C1237 C1233 1.393 . S
C1237 C1236 1.391 . S
C1238 H1228 0.950 . S
C1238 C1239 1.386 . S
C1238 C1240 1.391 . S
C1239 C1238 1.386 . S
C1239 C1243 1.393 . S
C1240 H1229 0.950 . S
C1240 C1238 1.391 . S
C1240 C1241 1.400 . S
C1241 C1235 1.491 . S
C1241 C1240 1.400 . S
C1241 C1242 1.398 . S
C1242 H1230 0.950 . S
C1242 C1241 1.398 . S
C1242 C1243 1.391 . S
C1243 H1231 0.950 . S
C1243 C1239 1.393 . S
C1243 C1242 1.391 . S
H1244 C1252 0.950 . S
H1245 C1257 0.950 . S
H1246 C1254 0.950 . S
H1247 C1256 0.950 . S
H1248 C1258 0.950 . S
H1249 C1260 0.950 . S
H1250 C1262 0.950 . S
H1251 C1263 0.950 . S
C1252 H1244 0.950 . S
C1252 C1253 1.386 . S
C1252 C1254 1.391 . S
C1253 C1252 1.386 . S
C1253 C1257 1.393 . S
C1254 H1246 0.950 . S
C1254 C1252 1.391 . S
C1254 C1255 1.400 . S
C1255 C1254 1.400 . S
C1255 C1256 1.398 . S
C1255 C1261 1.491 . S
C1256 H1247 0.950 . S
C1256 C1255 1.398 . S
C1256 C1257 1.391 . S
C1257 H1245 0.950 . S
C1257 C1253 1.393 . S
C1257 C1256 1.391 . S
C1258 H1248 0.950 . S
C1258 C1259 1.386 . S
C1258 C1260 1.391 . S
C1259 C1258 1.386 . S
C1259 C1263 1.393 . S
C1260 H1249 0.950 . S
C1260 C1258 1.391 . S
C1260 C1261 1.400 . S
C1261 C1255 1.491 . S
C1261 C1260 1.400 . S
C1261 C1262 1.398 . S
C1262 H1250 0.950 . S
C1262 C1261 1.398 . S
C1262 C1263 1.391 . S
C1263 H1251 0.950 . S
C1263 C1259 1.393 . S
C1263 C1262 1.391 . S
H1264 C1272 0.950 . S
H1265 C1277 0.950 . S
H1266 C1274 0.950 . S
H1267 C1276 0.950 . S
H1268 C1278 0.950 . S
H1269 C1280 0.950 . S
H1270 C1282 0.950 . S
H1271 C1283 0.950 . S
C1272 H1264 0.950 . S
C1272 C1273 1.386 . S
C1272 C1274 1.391 . S
C1273 C1272 1.386 . S
C1273 C1277 1.393 . S
C1274 H1266 0.950 . S
C1274 C1272 1.391 . S
C1274 C1275 1.400 . S
C1275 C1274 1.400 . S
C1275 C1276 1.398 . S
C1275 C1281 1.491 . S
C1276 H1267 0.950 . S
C1276 C1275 1.398 . S
C1276 C1277 1.391 . S
C1277 H1265 0.950 . S
C1277 C1273 1.393 . S
C1277 C1276 1.391 . S
C1278 H1268 0.950 . S
C1278 C1279 1.386 . S
C1278 C1280 1.391 . S
C1279 C1278 1.386 . S
C1279 C1283 1.393 . S
C1280 H1269 0.950 . S
C1280 C1278 1.391 . S
C1280 C1281 1.400 . S
C1281 C1275 1.491 . S
C1281 C1280 1.400 . S
C1281 C1282 1.398 . S
C1282 H1270 0.950 . S
C1282 C1281 1.398 . S
C1282 C1283 1.391 . S
C1283 H1271 0.950 . S
C1283 C1279 1.393 . S
C1283 C1282 1.391 . S
H1284 C1292 0.950 . S
H1285 C1297 0.950 . S
H1286 C1294 0.950 . S
H1287 C1296 0.950 . S
H1288 C1298 0.950 . S
H1289 C1300 0.950 . S
H1290 C1302 0.950 . S
H1291 C1303 0.950 . S
C1292 H1284 0.950 . S
C1292 C1293 1.386 . S
C1292 C1294 1.391 . S
C1293 C1292 1.386 . S
C1293 C1297 1.393 . S
C1294 H1286 0.950 . S
C1294 C1292 1.391 . S
C1294 C1295 1.400 . S
C1295 C1294 1.400 . S
C1295 C1296 1.398 . S
C1295 C1301 1.491 . S
C1296 H1287 0.950 . S
C1296 C1295 1.398 . S
C1296 C1297 1.391 . S
C1297 H1285 0.950 . S
C1297 C1293 1.393 . S
C1297 C1296 1.391 . S
C1298 H1288 0.950 . S
C1298 C1299 1.386 . S
C1298 C1300 1.391 . S
C1299 C1298 1.386 . S
C1299 C1303 1.393 . S
C1300 H1289 0.950 . S
C1300 C1298 1.391 . S
C1300 C1301 1.400 . S
C1301 C1295 1.491 . S
C1301 C1300 1.400 . S
C1301 C1302 1.398 . S
C1302 H1290 0.950 . S
C1302 C1301 1.398 . S
C1302 C1303 1.391 . S
C1303 H1291 0.950 . S
C1303 C1299 1.393 . S
C1303 C1302 1.391 . S
H1304 C1312 0.950 . S
H1305 C1317 0.950 . S
H1306 C1314 0.950 . S
H1307 C1316 0.950 . S
H1308 C1318 0.950 . S
H1309 C1320 0.950 . S
H1310 C1322 0.950 . S
H1311 C1323 0.950 . S
C1312 H1304 0.950 . S
C1312 C1313 1.386 . S
C1312 C1314 1.391 . S
C1313 C1312 1.386 . S
C1313 C1317 1.393 . S
C1314 H1306 0.950 . S
C1314 C1312 1.391 . S
C1314 C1315 1.400 . S
C1315 C1314 1.400 . S
C1315 C1316 1.398 . S
C1315 C1321 1.491 . S
C1316 H1307 0.950 . S
C1316 C1315 1.398 . S
C1316 C1317 1.391 . S
C1317 H1305 0.950 . S
C1317 C1313 1.393 . S
C1317 C1316 1.391 . S
C1318 H1308 0.950 . S
C1318 C1319 1.386 . S
C1318 C1320 1.391 . S
C1319 C1318 1.386 . S
C1319 C1323 1.393 . S
C1320 H1309 0.950 . S
C1320 C1318 1.391 . S
C1320 C1321 1.400 . S
C1321 C1315 1.491 . S
C1321 C1320 1.400 . S
C1321 C1322 1.398 . S
C1322 H1310 0.950 . S
C1322 C1321 1.398 . S
C1322 C1323 1.391 . S
C1323 H1311 0.950 . S
C1323 C1319 1.393 . S
C1323 C1322 1.391 . S
H1324 C1332 0.950 . S
H1325 C1337 0.950 . S
H1326 C1334 0.950 . S
H1327 C1336 0.950 . S
H1328 C1338 0.950 . S
H1329 C1340 0.950 . S
H1330 C1342 0.950 . S
H1331 C1343 0.950 . S
C1332 H1324 0.950 . S
C1332 C1333 1.386 . S
C1332 C1334 1.391 . S
C1333 C1332 1.386 . S
C1333 C1337 1.393 . S
C1334 H1326 0.950 . S
C1334 C1332 1.391 . S
C1334 C1335 1.400 . S
C1335 C1334 1.400 . S
C1335 C1336 1.398 . S
C1335 C1341 1.491 . S
C1336 H1327 0.950 . S
C1336 C1335 1.398 . S
C1336 C1337 1.391 . S
C1337 H1325 0.950 . S
C1337 C1333 1.393 . S
C1337 C1336 1.391 . S
C1338 H1328 0.950 . S
C1338 C1339 1.386 . S
C1338 C1340 1.391 . S
C1339 C1338 1.386 . S
C1339 C1343 1.393 . S
C1340 H1329 0.950 . S
C1340 C1338 1.391 . S
C1340 C1341 1.400 . S
C1341 C1335 1.491 . S
C1341 C1340 1.400 . S
C1341 C1342 1.398 . S
C1342 H1330 0.950 . S
C1342 C1341 1.398 . S
C1342 C1343 1.391 . S
C1343 H1331 0.950 . S
C1343 C1339 1.393 . S
C1343 C1342 1.391 . S
C553 C5 0.890 . S
C559 C447 0.886 . S
C573 C481 0.886 . S
C579 C39 0.899 . S
C593 C515 0.894 . S
C599 C73 0.885 . S
C613 C413 0.885 . S
C619 C107 0.898 . S
C633 C379 0.894 . S
C639 C141 0.911 . S
C653 C277 0.913 . S
C659 C175 0.910 . S
C673 C209 0.892 . S
C679 C311 0.909 . S
C693 C345 0.895 . S
C699 C243 0.885 . S
C713 C339 1.719 . S
C719 C9 1.784 . S
C733 C43 1.785 . S
C739 C373 1.713 . S
C753 C77 1.788 . S
C759 C407 1.706 . S
C773 C111 1.787 . S
C779 C305 1.717 . S
C793 C145 1.785 . S
C799 C543 1.720 . S
C813 C441 1.706 . S
C819 C179 1.788 . S
C833 C475 1.712 . S
C839 C213 1.790 . S
C853 C509 1.694 . S
C859 C247 1.795 . S
C873 C281 1.784 . S
C879 C67 1.721 . S
C893 C315 1.787 . S
C899 C101 1.717 . S
C913 C349 1.786 . S
C919 C135 1.719 . S
C933 C33 1.695 . S
C939 C383 1.795 . S
C953 C417 1.795 . S
C959 C271 1.696 . S
C973 C169 1.701 . S
C979 C451 1.794 . S
C993 C485 1.795 . S
C999 C203 1.697 . S
C1013 C519 1.793 . S
C1019 C237 1.704 . S
C1033 C20 1.709 . S
C1039 C360 1.710 . S
C1053 C394 1.731 . S
C1059 C54 1.731 . S
C1073 C88 1.710 . S
C1079 C292 1.710 . S
C1093 C326 1.715 . S
C1099 C122 1.708 . S
C1113 C156 1.711 . S
C1119 C496 1.709 . S
C1133 C530 1.723 . S
C1139 C190 1.711 . S
C1153 C428 1.730 . S
C1159 C224 1.731 . S
C1173 C462 1.732 . S
C1179 C258 1.722 . S
C1193 C206 0.820 . S
C1199 C2 0.824 . S
C1213 C36 0.819 . S
C1219 C240 0.823 . S
C1233 C138 0.816 . S
C1239 C70 0.814 . S
C1253 C104 0.841 . S
C1259 C172 0.842 . S
C1273 C274 0.841 . S
C1279 C478 0.838 . S
C1293 C308 0.814 . S
C1299 C512 0.815 . S
C1313 C342 0.837 . S
C1319 C410 0.840 . S
C1333 C444 0.841 . S
C1339 C376 0.842 . S
