# Generated by pormake.
# Topology und, (4)-cn, num edge types: 1
# Building blocks:
#     Node 0, Type 0, BuildingBlock: GALJAG_clean_sbu_0, # of connection points: 4
#     Node 1, Type 0, BuildingBlock: GALJAG_clean_sbu_0, # of connection points: 4
#     Node 2, Type 0, BuildingBlock: GALJAG_clean_sbu_0, # of connection points: 4
#     Node 3, Type 0, BuildingBlock: GALJAG_clean_sbu_0, # of connection points: 4
#     Node 4, Type 0, BuildingBlock: GALJAG_clean_sbu_0, # of connection points: 4
#     Node 5, Type 0, BuildingBlock: GALJAG_clean_sbu_0, # of connection points: 4
#     Node 6, Type 0, BuildingBlock: GALJAG_clean_sbu_0, # of connection points: 4
#     Node 7, Type 0, BuildingBlock: GALJAG_clean_sbu_0, # of connection points: 4
#     Node 8, Type 0, BuildingBlock: GALJAG_clean_sbu_0, # of connection points: 4
#     Node 9, Type 0, BuildingBlock: GALJAG_clean_sbu_0, # of connection points: 4
#     Node 10, Type 0, BuildingBlock: GALJAG_clean_sbu_0, # of connection points: 4
#     Node 11, Type 0, BuildingBlock: GALJAG_clean_sbu_0, # of connection points: 4
#     Node 12, Type 0, BuildingBlock: GALJAG_clean_sbu_0, # of connection points: 4
#     Node 13, Type 0, BuildingBlock: GALJAG_clean_sbu_0, # of connection points: 4
#     Node 14, Type 0, BuildingBlock: GALJAG_clean_sbu_0, # of connection points: 4
#     Node 15, Type 0, BuildingBlock: GALJAG_clean_sbu_0, # of connection points: 4
#     Edge 16, Type (0, 0), BuildingBlock: EYOCIG_clean_linker_4, # of connection points: 2
#     Edge 17, Type (0, 0), BuildingBlock: EYOCIG_clean_linker_4, # of connection points: 2
#     Edge 18, Type (0, 0), BuildingBlock: EYOCIG_clean_linker_4, # of connection points: 2
#     Edge 19, Type (0, 0), BuildingBlock: EYOCIG_clean_linker_4, # of connection points: 2
#     Edge 20, Type (0, 0), BuildingBlock: EYOCIG_clean_linker_4, # of connection points: 2
#     Edge 21, Type (0, 0), BuildingBlock: EYOCIG_clean_linker_4, # of connection points: 2
#     Edge 22, Type (0, 0), BuildingBlock: EYOCIG_clean_linker_4, # of connection points: 2
#     Edge 23, Type (0, 0), BuildingBlock: EYOCIG_clean_linker_4, # of connection points: 2
#     Edge 24, Type (0, 0), BuildingBlock: EYOCIG_clean_linker_4, # of connection points: 2
#     Edge 25, Type (0, 0), BuildingBlock: EYOCIG_clean_linker_4, # of connection points: 2
#     Edge 26, Type (0, 0), BuildingBlock: EYOCIG_clean_linker_4, # of connection points: 2
#     Edge 27, Type (0, 0), BuildingBlock: EYOCIG_clean_linker_4, # of connection points: 2
#     Edge 28, Type (0, 0), BuildingBlock: EYOCIG_clean_linker_4, # of connection points: 2
#     Edge 29, Type (0, 0), BuildingBlock: EYOCIG_clean_linker_4, # of connection points: 2
#     Edge 30, Type (0, 0), BuildingBlock: EYOCIG_clean_linker_4, # of connection points: 2
#     Edge 31, Type (0, 0), BuildingBlock: EYOCIG_clean_linker_4, # of connection points: 2
#     Edge 32, Type (0, 0), BuildingBlock: EYOCIG_clean_linker_4, # of connection points: 2
#     Edge 33, Type (0, 0), BuildingBlock: EYOCIG_clean_linker_4, # of connection points: 2
#     Edge 34, Type (0, 0), BuildingBlock: EYOCIG_clean_linker_4, # of connection points: 2
#     Edge 35, Type (0, 0), BuildingBlock: EYOCIG_clean_linker_4, # of connection points: 2
#     Edge 36, Type (0, 0), BuildingBlock: EYOCIG_clean_linker_4, # of connection points: 2
#     Edge 37, Type (0, 0), BuildingBlock: EYOCIG_clean_linker_4, # of connection points: 2
#     Edge 38, Type (0, 0), BuildingBlock: EYOCIG_clean_linker_4, # of connection points: 2
#     Edge 39, Type (0, 0), BuildingBlock: EYOCIG_clean_linker_4, # of connection points: 2
#     Edge 40, Type (0, 0), BuildingBlock: EYOCIG_clean_linker_4, # of connection points: 2
#     Edge 41, Type (0, 0), BuildingBlock: EYOCIG_clean_linker_4, # of connection points: 2
#     Edge 42, Type (0, 0), BuildingBlock: EYOCIG_clean_linker_4, # of connection points: 2
#     Edge 43, Type (0, 0), BuildingBlock: EYOCIG_clean_linker_4, # of connection points: 2
#     Edge 44, Type (0, 0), BuildingBlock: EYOCIG_clean_linker_4, # of connection points: 2
#     Edge 45, Type (0, 0), BuildingBlock: EYOCIG_clean_linker_4, # of connection points: 2
#     Edge 46, Type (0, 0), BuildingBlock: EYOCIG_clean_linker_4, # of connection points: 2
#     Edge 47, Type (0, 0), BuildingBlock: EYOCIG_clean_linker_4, # of connection points: 2
# Relax obj value: 0.013
# Max RMSD: 0.034
# Mean RMSD: 0.034
data_MOF--net-und--node1-GALJAG_clean_sbu_0--edge1-EYOCIG_clean_linker_4
_symmetry_space_group_name_H-M    P1
_symmetry_Int_Tables_number       1
_symmetry_cell_setting            triclinic
loop_
_symmetry_equiv_pos_as_xyz
'x, y, z'
_cell_length_a     49.695855
_cell_length_b     49.678128
_cell_length_c     16.34432
_cell_angle_alpha  90.004626
_cell_angle_beta   90.021845
_cell_angle_gamma 89.980821
loop_
_atom_site_label
_atom_site_type_symbol
_atom_site_fract_x
_atom_site_fract_y
_atom_site_fract_z
_atom_type_partial_charge
In0 In 0.25445 0.34328 -0.00988 0.0
O1 O 0.21457 0.36592 0.98154 0.0
O2 O 0.24049 0.37424 0.08286 0.0
C3 C 0.25398 0.30678 0.86882 0.0
C4 C 0.29048 0.37913 0.93611 0.0
C5 C 0.2552 0.3065 0.11032 0.0
O6 O 0.2334 0.32062 0.88619 0.0
O7 O 0.27477 0.31196 0.9101 0.0
O8 O 0.27565 0.32053 0.09326 0.0
O9 O 0.23434 0.31161 0.06928 0.0
C10 C 0.21881 0.37933 0.04599 0.0
O11 O 0.29445 0.36545 0.00017 0.0
O12 O 0.26882 0.37444 0.89861 0.0
In13 In 0.91513 1.00423 0.23946 0.0
O14 O 0.89229 0.04398 0.248 0.0
O15 O 0.88408 0.01798 0.14673 0.0
C16 C 0.95158 0.00485 0.36086 0.0
C17 C 0.87947 0.96795 0.29357 0.0
C18 C 0.95189 1.00429 0.11907 0.0
O19 O 0.9375 0.02531 0.34388 0.0
O20 O 0.94669 0.9841 0.31909 0.0
O21 O 0.93815 0.98358 0.13574 0.0
O22 O 0.94654 0.02495 0.16073 0.0
C23 C 0.87891 0.03967 0.18351 0.0
O24 O 0.89322 0.96401 0.22965 0.0
O25 O 0.884 0.98969 0.33083 0.0
In26 In 0.25389 0.66535 0.48999 0.0
O27 O 0.2937 0.64266 0.47904 0.0
O28 O 0.26828 0.6341 0.58127 0.0
C29 C 0.25404 0.70225 0.36993 0.0
C30 C 0.21777 0.62961 0.43589 0.0
C31 C 0.25325 0.7019 0.61092 0.0
O32 O 0.27474 0.68853 0.38688 0.0
O33 O 0.23329 0.69673 0.41086 0.0
O34 O 0.23281 0.68784 0.59388 0.0
O35 O 0.27408 0.69686 0.56969 0.0
C36 C 0.28974 0.62903 0.54321 0.0
O37 O 0.214 0.64304 0.50054 0.0
O38 O 0.23926 0.63452 0.39784 0.0
In39 In 0.5931 0.00436 0.73979 0.0
O40 O 0.61523 0.04447 0.73163 0.0
O41 O 0.6238 0.0186 0.83294 0.0
C42 C 0.55597 0.00531 0.62044 0.0
C43 C 0.62947 0.96907 0.68337 0.0
C44 C 0.5564 1.0031 0.86025 0.0
O45 O 0.56998 0.02579 0.63766 0.0
O46 O 0.5614 0.98432 0.66048 0.0
O47 O 0.57043 0.98269 0.84238 0.0
O48 O 0.56156 0.02413 0.82013 0.0
C49 C 0.62863 0.04036 0.79618 0.0
O50 O 0.61606 0.96464 0.74766 0.0
O51 O 0.62418 0.99075 0.64672 0.0
In52 In 0.75404 0.66484 -0.01022 0.0
O53 O 0.71437 0.64201 0.97927 0.0
O54 O 0.73983 0.63371 0.08166 0.0
C55 C 0.75289 0.70154 0.86896 0.0
C56 C 0.79028 0.62903 0.93632 0.0
C57 C 0.75483 0.70146 0.11076 0.0
O58 O 0.73248 0.68755 0.88684 0.0
O59 O 0.77388 0.69637 0.90932 0.0
O60 O 0.77535 0.68763 0.0928 0.0
O61 O 0.73388 0.69618 0.07035 0.0
C62 C 0.7184 0.62852 0.04365 0.0
O63 O 0.79405 0.64264 0.0006 0.0
O64 O 0.76877 0.63383 0.89819 0.0
In65 In 0.09295 0.00447 0.73973 0.0
O66 O 0.11563 0.04424 0.75134 0.0
O67 O 0.12387 0.01924 0.64787 0.0
C68 C 0.05602 0.00527 0.85948 0.0
C69 C 0.12865 0.96809 0.79339 0.0
C70 C 0.05591 1.00398 0.62012 0.0
O71 O 0.0701 0.02572 0.84265 0.0
O72 O 0.06131 0.98436 0.81893 0.0
O73 O 0.06988 0.98343 0.63677 0.0
O74 O 0.06138 0.02484 0.66071 0.0
C75 C 0.12899 0.04059 0.68653 0.0
O76 O 0.11533 0.96452 0.72841 0.0
O77 O 0.12365 0.98949 0.83191 0.0
In78 In 0.75418 0.34325 0.4894 0.0
O79 O 0.71431 0.36583 0.49727 0.0
O80 O 0.74016 0.37383 0.39558 0.0
C81 C 0.75296 0.3066 0.61011 0.0
C82 C 0.78984 0.37953 0.54363 0.0
C83 C 0.75539 0.30627 0.36983 0.0
O84 O 0.73256 0.32063 0.59217 0.0
O85 O 0.77399 0.31177 0.57007 0.0
O86 O 0.77584 0.3202 0.38776 0.0
O87 O 0.73432 0.31164 0.40948 0.0
C88 C 0.7185 0.37903 0.43242 0.0
O89 O 0.79401 0.3658 0.4798 0.0
O90 O 0.76823 0.37457 0.58105 0.0
In91 In 0.41525 0.00433 0.23965 0.0
O92 O 0.39292 0.96436 0.25054 0.0
O93 O 0.38435 0.98958 0.14778 0.0
C94 C 0.45166 0.00439 0.36114 0.0
C95 C 0.37917 0.0405 0.29196 0.0
C96 C 0.45222 1.00426 0.11979 0.0
O97 O 0.43779 0.98377 0.3446 0.0
O98 O 0.44654 0.02501 0.319 0.0
O99 O 0.43833 0.02492 0.13587 0.0
O100 O 0.44684 0.98363 0.16151 0.0
C101 C 0.37948 0.96807 0.18586 0.0
O102 O 0.39282 0.04423 0.22772 0.0
O103 O 0.38402 0.01904 0.33037 0.0
In104 In 0.75415 0.84294 0.48963 0.0
O105 O 0.71451 0.86595 0.47939 0.0
O106 O 0.7402 0.87433 0.58124 0.0
C107 C 0.75398 0.80585 0.37008 0.0
C108 C 0.79024 0.87856 0.43403 0.0
C109 C 0.75396 0.80609 0.61 0.0
O110 O 0.73335 0.81979 0.38631 0.0
O111 O 0.7747 0.81131 0.41131 0.0
O112 O 0.77465 0.81993 0.59388 0.0
O113 O 0.73333 0.81156 0.56833 0.0
C114 C 0.7187 0.87955 0.54352 0.0
O115 O 0.79418 0.86523 0.49884 0.0
O116 O 0.76861 0.87361 0.39666 0.0
In117 In 0.41524 0.50432 0.7394 0.0
O118 O 0.39224 0.54395 0.7481 0.0
O119 O 0.3841 0.51793 0.64678 0.0
C120 C 0.45234 0.50464 0.85857 0.0
C121 C 0.37969 0.46838 0.7958 0.0
C122 C 0.45208 0.50449 0.61948 0.0
O123 O 0.43828 0.52521 0.84259 0.0
O124 O 0.44697 0.48389 0.81734 0.0
O125 O 0.43826 0.48378 0.63554 0.0
O126 O 0.44661 0.52515 0.66108 0.0
C127 C 0.37883 0.53958 0.68368 0.0
O128 O 0.39305 0.46425 0.73119 0.0
O129 O 0.38457 0.49014 0.8326 0.0
In130 In 0.7541 0.16544 0.98961 0.0
O131 O 0.79378 0.14264 0.97804 0.0
O132 O 0.76851 0.13419 0.08076 0.0
C133 C 0.75394 0.20228 0.86942 0.0
C134 C 0.71781 0.12971 0.93642 0.0
C135 C 0.75447 0.20209 0.11026 0.0
O136 O 0.77461 0.18841 0.88551 0.0
O137 O 0.73333 0.19693 0.91128 0.0
O138 O 0.73375 0.1883 0.09413 0.0
O139 O 0.77504 0.19674 0.06822 0.0
C140 C 0.7899 0.12907 0.04239 0.0
O141 O 0.71415 0.14321 0.00101 0.0
O142 O 0.73926 0.13455 0.89803 0.0
In143 In 0.09309 0.50415 0.23995 0.0
O144 O 0.1158 0.4644 0.25024 0.0
O145 O 0.12456 0.49014 0.14886 0.0
C146 C 0.05638 0.50324 0.36034 0.0
C147 C 0.12857 0.54033 0.29558 0.0
C148 C 0.05663 0.50442 0.11851 0.0
O149 O 0.07043 0.4828 0.343 0.0
O150 O 0.06142 0.52413 0.31942 0.0
O151 O 0.07041 0.52505 0.13583 0.0
O152 O 0.06186 0.48367 0.1599 0.0
C153 C 0.12953 0.46855 0.18641 0.0
O154 O 0.11512 0.54431 0.23106 0.0
O155 O 0.12382 0.51861 0.33263 0.0
In156 In 0.25425 0.1655 0.48972 0.0
O157 O 0.29404 0.1428 0.49809 0.0
O158 O 0.26812 0.13463 0.39657 0.0
C159 C 0.25504 0.2026 0.60902 0.0
C160 C 0.21832 0.12981 0.5459 0.0
C161 C 0.25415 0.20237 0.36988 0.0
O162 O 0.27543 0.18831 0.59288 0.0
O163 O 0.23421 0.19745 0.5679 0.0
O164 O 0.23347 0.18855 0.38632 0.0
O165 O 0.27488 0.1969 0.41108 0.0
C166 C 0.28982 0.12952 0.43335 0.0
O167 O 0.21419 0.14321 0.48135 0.0
O168 O 0.24007 0.13469 0.58267 0.0
In169 In 0.59294 0.50409 0.23934 0.0
O170 O 0.61518 0.46408 0.22977 0.0
O171 O 0.6243 0.48994 0.33062 0.0
C172 C 0.55641 0.50335 0.11843 0.0
C173 C 0.62904 0.53951 0.18339 0.0
C174 C 0.55633 0.50539 0.36016 0.0
O175 O 0.57006 0.48274 0.13672 0.0
O176 O 0.56175 0.52431 0.15869 0.0
O177 O 0.57038 0.52575 0.34223 0.0
O178 O 0.56139 0.48436 0.31987 0.0
C179 C 0.62905 0.46825 0.29331 0.0
O180 O 0.6157 0.54382 0.2479 0.0
O181 O 0.6238 0.51789 0.14637 0.0
In182 In 0.25395 0.84316 -0.01006 0.0
O183 O 0.21413 0.86576 -0.00064 0.0
O184 O 0.23968 0.874 0.89715 0.0
C185 C 0.25299 0.80644 0.11033 0.0
C186 C 0.29023 0.8788 0.04467 0.0
C187 C 0.2541 0.80616 0.87024 0.0
O188 O 0.23267 0.82074 0.09362 0.0
O189 O 0.27384 0.81134 0.06908 0.0
O190 O 0.27476 0.81999 0.88679 0.0
O191 O 0.23337 0.81166 0.91132 0.0
C192 C 0.21808 0.87903 0.93451 0.0
O193 O 0.29408 0.86531 0.98015 0.0
O194 O 0.26858 0.87405 0.08208 0.0
In195 In 0.91538 0.50414 0.73943 0.0
O196 O 0.89314 0.54421 0.73156 0.0
O197 O 0.88466 0.51819 0.83263 0.0
C198 C 0.95229 0.50427 0.61985 0.0
C199 C 0.8791 0.46892 0.68291 0.0
C200 C 0.95243 0.50339 0.8588 0.0
O201 O 0.93845 0.52495 0.63629 0.0
O202 O 0.94679 0.4835 0.66084 0.0
O203 O 0.93827 0.48294 0.8424 0.0
O204 O 0.94719 0.52425 0.81791 0.0
C205 C 0.87975 0.53998 0.79606 0.0
O206 O 0.89243 0.4645 0.74741 0.0
O207 O 0.88437 0.49061 0.64624 0.0
C208 C 0.25548 0.26586 0.21438 0.0
C209 C 0.25602 0.28455 0.16733 0.0
C210 C 0.25449 0.24334 0.26701 0.0
C211 C 0.25371 0.22452 0.31354 0.0
C212 C 0.99201 0.00487 0.46585 0.0
C213 C 0.97341 0.00556 0.41843 0.0
C214 C 0.01459 1.00386 0.51835 0.0
C215 C 0.03357 1.00327 0.56437 0.0
C216 C 0.2529 0.7426 0.71485 0.0
C217 C 0.25241 0.72389 0.66786 0.0
C218 C 0.25384 0.76516 0.76741 0.0
C219 C 0.25456 0.78399 0.81394 0.0
C220 C 0.49306 1.00378 0.01638 0.0
C221 C 0.4743 0.00462 0.06313 0.0
C222 C 0.51561 1.00268 0.96378 0.0
C223 C 0.53437 1.00211 0.91702 0.0
C224 C 0.25256 0.76563 0.21382 0.0
C225 C 0.25203 0.78441 0.16709 0.0
C226 C 0.25361 0.74308 0.26643 0.0
C227 C 0.25444 0.72433 0.31324 0.0
C228 C 0.49219 0.00474 0.46578 0.0
C229 C 0.47357 1.00396 0.41847 0.0
C230 C 0.51476 0.00573 0.51832 0.0
C231 C 0.5337 0.00621 0.56449 0.0
C232 C 0.25531 0.24376 0.71132 0.0
C233 C 0.25589 0.22483 0.66512 0.0
C234 C 0.25422 0.26631 0.76395 0.0
C235 C 0.25342 0.28492 0.81134 0.0
C236 C 0.01489 0.00567 0.96175 0.0
C237 C 0.03379 0.00614 0.91551 0.0
C238 C 0.99237 0.00472 0.01442 0.0
C239 C 0.97378 1.00394 0.06178 0.0
C240 C 0.75246 0.74237 0.76523 0.0
C241 C 0.75192 0.72359 0.81209 0.0
C242 C 0.7535 0.765 0.7128 0.0
C243 C 0.75432 0.78386 0.66632 0.0
C244 C 0.75593 0.26534 0.26676 0.0
C245 C 0.75637 0.28415 0.31338 0.0
C246 C 0.75498 0.24281 0.2141 0.0
C247 C 0.75418 0.22412 0.16711 0.0
C248 C 0.75342 0.24312 0.76589 0.0
C249 C 0.75426 0.22436 0.81271 0.0
C250 C 0.75239 0.26569 0.71336 0.0
C251 C 0.75192 0.2845 0.66671 0.0
C252 C 0.75516 0.74215 0.21488 0.0
C253 C 0.75567 0.72345 0.16778 0.0
C254 C 0.75422 0.76473 0.26747 0.0
C255 C 0.7535 0.78361 0.31387 0.0
C256 C 0.516 0.50332 0.0135 0.0
C257 C 0.53457 0.50265 0.06096 0.0
C258 C 0.49349 0.50443 0.96082 0.0
C259 C 0.47458 0.50519 0.91462 0.0
C260 C 0.01586 0.50296 0.46474 0.0
C261 C 0.0345 0.50239 0.41756 0.0
C262 C 0.99334 0.50398 0.51736 0.0
C263 C 0.97449 0.50473 0.56372 0.0
C264 C 0.01616 0.5042 0.01366 0.0
C265 C 0.03476 0.50495 0.06107 0.0
C266 C 0.99361 0.50317 0.96103 0.0
C267 C 0.97468 0.50259 0.91485 0.0
C268 C 0.49307 0.50498 0.51662 0.0
C269 C 0.47425 0.50416 0.56314 0.0
C270 C 0.51563 0.50599 0.46408 0.0
C271 C 0.53435 0.50645 0.41713 0.0
C272 C 0.16622 0.43457 0.13263 0.0
C273 C 0.14942 0.44995 0.15774 0.0
C274 C 0.18495 0.41583 0.10187 0.0
C275 C 0.20028 0.39912 0.07586 0.0
C276 C 0.82457 0.91469 0.37852 0.0
C277 C 0.80904 0.89815 0.4044 0.0
C278 C 0.84331 0.93344 0.34778 0.0
C279 C 0.85988 0.94903 0.32239 0.0
C280 C 0.3236 0.59215 0.59678 0.0
C281 C 0.30832 0.60905 0.5716 0.0
C282 C 0.34225 0.57333 0.62764 0.0
C283 C 0.35899 0.55802 0.65362 0.0
C284 C 0.68336 0.09344 0.88285 0.0
C285 C 0.6989 0.11006 0.90805 0.0
C286 C 0.66466 0.07466 0.85214 0.0
C287 C 0.64817 0.05912 0.82613 0.0
C288 C 0.16462 0.57468 0.3511 0.0
C289 C 0.14811 0.55915 0.32517 0.0
C290 C 0.18335 0.59341 0.38181 0.0
C291 C 0.19891 0.60999 0.40712 0.0
C292 C 0.66624 0.9354 0.62782 0.0
C293 C 0.64943 0.9507 0.65345 0.0
C294 C 0.68498 0.91656 0.59736 0.0
C295 C 0.70024 0.89963 0.57228 0.0
C296 C 0.34359 0.43415 0.85168 0.0
C297 C 0.36011 0.44967 0.82573 0.0
C298 C 0.32486 0.4154 0.88225 0.0
C299 C 0.3093 0.39879 0.90741 0.0
C300 C 0.82388 0.09232 0.096 0.0
C301 C 0.80855 0.10916 0.07076 0.0
C302 C 0.84252 0.07354 0.12706 0.0
C303 C 0.85918 0.05819 0.1533 0.0
C304 C 0.82475 0.59273 0.88294 0.0
C305 C 0.80917 0.60936 0.90795 0.0
C306 C 0.84353 0.57404 0.85225 0.0
C307 C 0.86011 0.55861 0.82612 0.0
C308 C 0.1841 0.0937 0.60207 0.0
C309 C 0.19959 0.11023 0.57591 0.0
C310 C 0.16535 0.07498 0.63291 0.0
C311 C 0.1487 0.05944 0.65808 0.0
C312 C 0.68462 0.41547 0.37652 0.0
C313 C 0.70001 0.39881 0.40237 0.0
C314 C 0.66582 0.43422 0.34629 0.0
C315 C 0.64899 0.44964 0.32162 0.0
C316 C 0.34343 0.93352 0.13118 0.0
C317 C 0.35995 0.94911 0.15688 0.0
C318 C 0.32473 0.9148 0.10005 0.0
C319 C 0.30916 0.8983 0.07406 0.0
C320 C 0.82373 0.4164 0.59682 0.0
C321 C 0.80836 0.39953 0.5721 0.0
C322 C 0.84247 0.43522 0.62704 0.0
C323 C 0.85922 0.45055 0.65278 0.0
C324 C 0.32396 0.09346 0.37653 0.0
C325 C 0.30848 0.10996 0.40291 0.0
C326 C 0.34275 0.07484 0.34542 0.0
C327 C 0.35945 0.05937 0.32015 0.0
C328 C 0.66573 0.57311 0.12797 0.0
C329 C 0.64894 0.55788 0.15371 0.0
C330 C 0.68451 0.59179 0.09743 0.0
C331 C 0.69985 0.60861 0.07235 0.0
C332 C 0.18364 0.91496 0.87853 0.0
C333 C 0.19924 0.89852 0.90459 0.0
C334 C 0.16484 0.9336 0.84752 0.0
C335 C 0.14825 0.94915 0.82201 0.0
loop_
_geom_bond_atom_site_label_1
_geom_bond_atom_site_label_2
_geom_bond_distance
_geom_bond_site_symmetry_2
_ccdc_geom_bond_type
In0 O1 2.294 1_554 S
In0 O2 2.326 . S
In0 O6 2.266 1_554 S
In0 O7 2.326 1_554 S
In0 O8 2.266 . S
In0 O9 2.326 . S
In0 O11 2.294 . S
In0 O12 2.326 1_554 S
O1 In0 2.294 1_556 S
O1 C10 1.240 1_556 S
O2 In0 2.326 . S
O2 C10 1.252 . S
C3 O6 1.252 . S
C3 O7 1.260 . S
C4 O11 1.240 1_556 S
C4 O12 1.252 . S
C5 O8 1.252 . S
C5 O9 1.260 . S
O6 In0 2.266 1_556 S
O6 C3 1.252 . S
O7 In0 2.326 1_556 S
O7 C3 1.260 . S
O8 In0 2.266 . S
O8 C5 1.252 . S
O9 In0 2.326 . S
O9 C5 1.260 . S
C10 O1 1.240 1_554 S
C10 O2 1.252 . S
O11 In0 2.294 . S
O11 C4 1.240 1_554 S
O12 In0 2.326 1_556 S
O12 C4 1.252 . S
In13 O14 2.294 . S
In13 O15 2.326 . S
In13 O19 2.266 . S
In13 O20 2.326 1_545 S
In13 O21 2.266 1_545 S
In13 O22 2.326 . S
In13 O24 2.294 1_545 S
In13 O25 2.326 1_545 S
O14 In13 2.294 . S
O14 C23 1.240 . S
O15 In13 2.326 . S
O15 C23 1.252 . S
C16 O19 1.253 . S
C16 O20 1.259 1_545 S
C17 O24 1.240 . S
C17 O25 1.252 . S
C18 O21 1.253 1_545 S
C18 O22 1.259 . S
O19 In13 2.266 . S
O19 C16 1.253 . S
O20 In13 2.326 1_565 S
O20 C16 1.259 1_565 S
O21 In13 2.266 1_565 S
O21 C18 1.253 1_565 S
O22 In13 2.326 . S
O22 C18 1.259 . S
C23 O14 1.240 . S
C23 O15 1.252 . S
O24 In13 2.294 1_565 S
O24 C17 1.240 . S
O25 In13 2.326 1_565 S
O25 C17 1.252 . S
In26 O27 2.294 . S
In26 O28 2.326 . S
In26 O32 2.266 . S
In26 O33 2.326 . S
In26 O34 2.266 . S
In26 O35 2.326 . S
In26 O37 2.294 . S
In26 O38 2.326 . S
O27 In26 2.294 . S
O27 C36 1.240 . S
O28 In26 2.326 . S
O28 C36 1.252 . S
C29 O32 1.252 . S
C29 O33 1.260 . S
C30 O37 1.240 . S
C30 O38 1.252 . S
C31 O34 1.252 . S
C31 O35 1.260 . S
O32 In26 2.266 . S
O32 C29 1.252 . S
O33 In26 2.326 . S
O33 C29 1.260 . S
O34 In26 2.266 . S
O34 C31 1.252 . S
O35 In26 2.326 . S
O35 C31 1.260 . S
C36 O27 1.240 . S
C36 O28 1.252 . S
O37 In26 2.294 . S
O37 C30 1.240 . S
O38 In26 2.326 . S
O38 C30 1.252 . S
In39 O40 2.294 . S
In39 O41 2.326 . S
In39 O45 2.266 . S
In39 O46 2.326 1_545 S
In39 O47 2.266 1_545 S
In39 O48 2.326 . S
In39 O50 2.294 1_545 S
In39 O51 2.326 1_545 S
O40 In39 2.294 . S
O40 C49 1.240 . S
O41 In39 2.326 . S
O41 C49 1.252 . S
C42 O45 1.253 . S
C42 O46 1.259 1_545 S
C43 O50 1.240 . S
C43 O51 1.252 . S
C44 O47 1.253 1_545 S
C44 O48 1.259 . S
O45 In39 2.266 . S
O45 C42 1.253 . S
O46 In39 2.326 1_565 S
O46 C42 1.259 1_565 S
O47 In39 2.266 1_565 S
O47 C44 1.253 1_565 S
O48 In39 2.326 . S
O48 C44 1.259 . S
C49 O40 1.240 . S
C49 O41 1.252 . S
O50 In39 2.294 1_565 S
O50 C43 1.240 . S
O51 In39 2.326 1_565 S
O51 C43 1.252 . S
In52 O53 2.294 1_554 S
In52 O54 2.326 . S
In52 O58 2.266 1_554 S
In52 O59 2.326 1_554 S
In52 O60 2.266 . S
In52 O61 2.326 . S
In52 O63 2.294 . S
In52 O64 2.326 1_554 S
O53 In52 2.294 1_556 S
O53 C62 1.240 1_556 S
O54 In52 2.326 . S
O54 C62 1.252 . S
C55 O58 1.252 . S
C55 O59 1.260 . S
C56 O63 1.240 1_556 S
C56 O64 1.252 . S
C57 O60 1.252 . S
C57 O61 1.260 . S
O58 In52 2.266 1_556 S
O58 C55 1.252 . S
O59 In52 2.326 1_556 S
O59 C55 1.260 . S
O60 In52 2.266 . S
O60 C57 1.252 . S
O61 In52 2.326 . S
O61 C57 1.260 . S
C62 O53 1.240 1_554 S
C62 O54 1.252 . S
O63 In52 2.294 . S
O63 C56 1.240 1_554 S
O64 In52 2.326 1_556 S
O64 C56 1.252 . S
In65 O66 2.294 . S
In65 O67 2.326 . S
In65 O71 2.266 . S
In65 O72 2.326 1_545 S
In65 O73 2.266 1_545 S
In65 O74 2.326 . S
In65 O76 2.294 1_545 S
In65 O77 2.326 1_545 S
O66 In65 2.294 . S
O66 C75 1.240 . S
O67 In65 2.326 . S
O67 C75 1.252 . S
C68 O71 1.253 . S
C68 O72 1.259 1_545 S
C69 O76 1.240 . S
C69 O77 1.252 . S
C70 O73 1.253 1_545 S
C70 O74 1.259 . S
O71 In65 2.266 . S
O71 C68 1.253 . S
O72 In65 2.326 1_565 S
O72 C68 1.259 1_565 S
O73 In65 2.266 1_565 S
O73 C70 1.253 1_565 S
O74 In65 2.326 . S
O74 C70 1.259 . S
C75 O66 1.240 . S
C75 O67 1.252 . S
O76 In65 2.294 1_565 S
O76 C69 1.240 . S
O77 In65 2.326 1_565 S
O77 C69 1.252 . S
In78 O79 2.294 . S
In78 O80 2.326 . S
In78 O84 2.266 . S
In78 O85 2.326 . S
In78 O86 2.266 . S
In78 O87 2.326 . S
In78 O89 2.294 . S
In78 O90 2.326 . S
O79 In78 2.294 . S
O79 C88 1.240 . S
O80 In78 2.326 . S
O80 C88 1.252 . S
C81 O84 1.252 . S
C81 O85 1.260 . S
C82 O89 1.240 . S
C82 O90 1.252 . S
C83 O86 1.252 . S
C83 O87 1.260 . S
O84 In78 2.266 . S
O84 C81 1.252 . S
O85 In78 2.326 . S
O85 C81 1.260 . S
O86 In78 2.266 . S
O86 C83 1.252 . S
O87 In78 2.326 . S
O87 C83 1.260 . S
C88 O79 1.240 . S
C88 O80 1.252 . S
O89 In78 2.294 . S
O89 C82 1.240 . S
O90 In78 2.326 . S
O90 C82 1.252 . S
In91 O92 2.294 1_545 S
In91 O93 2.326 1_545 S
In91 O97 2.266 1_545 S
In91 O98 2.326 . S
In91 O99 2.266 . S
In91 O100 2.326 1_545 S
In91 O102 2.294 . S
In91 O103 2.326 . S
O92 In91 2.294 1_565 S
O92 C101 1.240 . S
O93 In91 2.326 1_565 S
O93 C101 1.252 . S
C94 O97 1.253 1_545 S
C94 O98 1.259 . S
C95 O102 1.240 . S
C95 O103 1.252 . S
C96 O99 1.253 . S
C96 O100 1.259 1_545 S
O97 In91 2.266 1_565 S
O97 C94 1.253 1_565 S
O98 In91 2.326 . S
O98 C94 1.259 . S
O99 In91 2.266 . S
O99 C96 1.253 . S
O100 In91 2.326 1_565 S
O100 C96 1.259 1_565 S
C101 O92 1.240 . S
C101 O93 1.252 . S
O102 In91 2.294 . S
O102 C95 1.240 . S
O103 In91 2.326 . S
O103 C95 1.252 . S
In104 O105 2.294 . S
In104 O106 2.326 . S
In104 O110 2.266 . S
In104 O111 2.326 . S
In104 O112 2.266 . S
In104 O113 2.326 . S
In104 O115 2.294 . S
In104 O116 2.326 . S
O105 In104 2.294 . S
O105 C114 1.240 . S
O106 In104 2.326 . S
O106 C114 1.252 . S
C107 O110 1.252 . S
C107 O111 1.260 . S
C108 O115 1.240 . S
C108 O116 1.252 . S
C109 O112 1.252 . S
C109 O113 1.260 . S
O110 In104 2.266 . S
O110 C107 1.252 . S
O111 In104 2.326 . S
O111 C107 1.260 . S
O112 In104 2.266 . S
O112 C109 1.252 . S
O113 In104 2.326 . S
O113 C109 1.260 . S
C114 O105 1.240 . S
C114 O106 1.252 . S
O115 In104 2.294 . S
O115 C108 1.240 . S
O116 In104 2.326 . S
O116 C108 1.252 . S
In117 O118 2.294 . S
In117 O119 2.326 . S
In117 O123 2.266 . S
In117 O124 2.326 . S
In117 O125 2.266 . S
In117 O126 2.326 . S
In117 O128 2.294 . S
In117 O129 2.326 . S
O118 In117 2.294 . S
O118 C127 1.240 . S
O119 In117 2.326 . S
O119 C127 1.252 . S
C120 O123 1.252 . S
C120 O124 1.260 . S
C121 O128 1.240 . S
C121 O129 1.252 . S
C122 O125 1.252 . S
C122 O126 1.260 . S
O123 In117 2.266 . S
O123 C120 1.252 . S
O124 In117 2.326 . S
O124 C120 1.260 . S
O125 In117 2.266 . S
O125 C122 1.252 . S
O126 In117 2.326 . S
O126 C122 1.260 . S
C127 O118 1.240 . S
C127 O119 1.252 . S
O128 In117 2.294 . S
O128 C121 1.240 . S
O129 In117 2.326 . S
O129 C121 1.252 . S
In130 O131 2.294 1_554 S
In130 O132 2.326 . S
In130 O136 2.266 1_554 S
In130 O137 2.326 1_554 S
In130 O138 2.266 . S
In130 O139 2.326 . S
In130 O141 2.294 . S
In130 O142 2.326 1_554 S
O131 In130 2.294 1_556 S
O131 C140 1.240 1_556 S
O132 In130 2.326 . S
O132 C140 1.252 . S
C133 O136 1.252 . S
C133 O137 1.260 . S
C134 O141 1.240 1_556 S
C134 O142 1.252 . S
C135 O138 1.252 . S
C135 O139 1.260 . S
O136 In130 2.266 1_556 S
O136 C133 1.252 . S
O137 In130 2.326 1_556 S
O137 C133 1.260 . S
O138 In130 2.266 . S
O138 C135 1.252 . S
O139 In130 2.326 . S
O139 C135 1.260 . S
C140 O131 1.240 1_554 S
C140 O132 1.252 . S
O141 In130 2.294 . S
O141 C134 1.240 1_554 S
O142 In130 2.326 1_556 S
O142 C134 1.252 . S
In143 O144 2.294 . S
In143 O145 2.326 . S
In143 O149 2.266 . S
In143 O150 2.326 . S
In143 O151 2.266 . S
In143 O152 2.326 . S
In143 O154 2.294 . S
In143 O155 2.326 . S
O144 In143 2.294 . S
O144 C153 1.240 . S
O145 In143 2.326 . S
O145 C153 1.252 . S
C146 O149 1.252 . S
C146 O150 1.260 . S
C147 O154 1.240 . S
C147 O155 1.252 . S
C148 O151 1.252 . S
C148 O152 1.260 . S
O149 In143 2.266 . S
O149 C146 1.252 . S
O150 In143 2.326 . S
O150 C146 1.260 . S
O151 In143 2.266 . S
O151 C148 1.252 . S
O152 In143 2.326 . S
O152 C148 1.260 . S
C153 O144 1.240 . S
C153 O145 1.252 . S
O154 In143 2.294 . S
O154 C147 1.240 . S
O155 In143 2.326 . S
O155 C147 1.252 . S
In156 O157 2.294 . S
In156 O158 2.326 . S
In156 O162 2.266 . S
In156 O163 2.326 . S
In156 O164 2.266 . S
In156 O165 2.326 . S
In156 O167 2.294 . S
In156 O168 2.326 . S
O157 In156 2.294 . S
O157 C166 1.240 . S
O158 In156 2.326 . S
O158 C166 1.252 . S
C159 O162 1.252 . S
C159 O163 1.260 . S
C160 O167 1.240 . S
C160 O168 1.252 . S
C161 O164 1.252 . S
C161 O165 1.260 . S
O162 In156 2.266 . S
O162 C159 1.252 . S
O163 In156 2.326 . S
O163 C159 1.260 . S
O164 In156 2.266 . S
O164 C161 1.252 . S
O165 In156 2.326 . S
O165 C161 1.260 . S
C166 O157 1.240 . S
C166 O158 1.252 . S
O167 In156 2.294 . S
O167 C160 1.240 . S
O168 In156 2.326 . S
O168 C160 1.252 . S
In169 O170 2.294 . S
In169 O171 2.326 . S
In169 O175 2.266 . S
In169 O176 2.326 . S
In169 O177 2.266 . S
In169 O178 2.326 . S
In169 O180 2.294 . S
In169 O181 2.326 . S
O170 In169 2.294 . S
O170 C179 1.240 . S
O171 In169 2.326 . S
O171 C179 1.252 . S
C172 O175 1.252 . S
C172 O176 1.260 . S
C173 O180 1.240 . S
C173 O181 1.252 . S
C174 O177 1.252 . S
C174 O178 1.260 . S
O175 In169 2.266 . S
O175 C172 1.252 . S
O176 In169 2.326 . S
O176 C172 1.260 . S
O177 In169 2.266 . S
O177 C174 1.252 . S
O178 In169 2.326 . S
O178 C174 1.260 . S
C179 O170 1.240 . S
C179 O171 1.252 . S
O180 In169 2.294 . S
O180 C173 1.240 . S
O181 In169 2.326 . S
O181 C173 1.252 . S
In182 O183 2.294 . S
In182 O184 2.326 1_554 S
In182 O188 2.266 . S
In182 O189 2.326 . S
In182 O190 2.266 1_554 S
In182 O191 2.326 1_554 S
In182 O193 2.294 1_554 S
In182 O194 2.326 . S
O183 In182 2.294 . S
O183 C192 1.240 1_554 S
O184 In182 2.326 1_556 S
O184 C192 1.252 . S
C185 O188 1.252 . S
C185 O189 1.260 . S
C186 O193 1.240 1_554 S
C186 O194 1.252 . S
C187 O190 1.252 . S
C187 O191 1.260 . S
O188 In182 2.266 . S
O188 C185 1.252 . S
O189 In182 2.326 . S
O189 C185 1.260 . S
O190 In182 2.266 1_556 S
O190 C187 1.252 . S
O191 In182 2.326 1_556 S
O191 C187 1.260 . S
C192 O183 1.240 1_556 S
C192 O184 1.252 . S
O193 In182 2.294 1_556 S
O193 C186 1.240 1_556 S
O194 In182 2.326 . S
O194 C186 1.252 . S
In195 O196 2.294 . S
In195 O197 2.326 . S
In195 O201 2.266 . S
In195 O202 2.326 . S
In195 O203 2.266 . S
In195 O204 2.326 . S
In195 O206 2.294 . S
In195 O207 2.326 . S
O196 In195 2.294 . S
O196 C205 1.240 . S
O197 In195 2.326 . S
O197 C205 1.252 . S
C198 O201 1.252 . S
C198 O202 1.260 . S
C199 O206 1.240 . S
C199 O207 1.252 . S
C200 O203 1.252 . S
C200 O204 1.260 . S
O201 In195 2.266 . S
O201 C198 1.252 . S
O202 In195 2.326 . S
O202 C198 1.260 . S
O203 In195 2.266 . S
O203 C200 1.252 . S
O204 In195 2.326 . S
O204 C200 1.260 . S
C205 O196 1.240 . S
C205 O197 1.252 . S
O206 In195 2.294 . S
O206 C199 1.240 . S
O207 In195 2.326 . S
O207 C199 1.252 . S
C208 C209 1.170 . S
C208 C210 1.380 . S
C209 C208 1.170 . S
C210 C208 1.380 . S
C210 C211 1.170 . S
C211 C210 1.170 . S
C212 C213 1.170 . S
C212 C214 1.380 1_655 S
C213 C212 1.170 . S
C214 C212 1.380 1_455 S
C214 C215 1.170 . S
C215 C214 1.170 . S
C216 C217 1.170 . S
C216 C218 1.380 . S
C217 C216 1.170 . S
C218 C216 1.380 . S
C218 C219 1.170 . S
C219 C218 1.170 . S
C220 C221 1.173 . S
C220 C222 1.380 1_554 S
C221 C220 1.173 . S
C222 C220 1.380 1_556 S
C222 C223 1.170 . S
C223 C222 1.170 . S
C224 C225 1.170 . S
C224 C226 1.380 . S
C225 C224 1.170 . S
C226 C224 1.380 . S
C226 C227 1.170 . S
C227 C226 1.170 . S
C228 C229 1.170 . S
C228 C230 1.380 . S
C229 C228 1.170 . S
C230 C228 1.380 . S
C230 C231 1.170 . S
C231 C230 1.170 . S
C232 C233 1.170 . S
C232 C234 1.380 . S
C233 C232 1.170 . S
C234 C232 1.380 . S
C234 C235 1.170 . S
C235 C234 1.170 . S
C236 C237 1.170 . S
C236 C238 1.380 1_456 S
C237 C236 1.170 . S
C238 C236 1.380 1_654 S
C238 C239 1.172 . S
C239 C238 1.172 . S
C240 C241 1.170 . S
C240 C242 1.380 . S
C241 C240 1.170 . S
C242 C240 1.380 . S
C242 C243 1.170 . S
C243 C242 1.170 . S
C244 C245 1.170 . S
C244 C246 1.380 . S
C245 C244 1.170 . S
C246 C244 1.380 . S
C246 C247 1.170 . S
C247 C246 1.170 . S
C248 C249 1.170 . S
C248 C250 1.380 . S
C249 C248 1.170 . S
C250 C248 1.380 . S
C250 C251 1.170 . S
C251 C250 1.170 . S
C252 C253 1.170 . S
C252 C254 1.380 . S
C253 C252 1.170 . S
C254 C252 1.380 . S
C254 C255 1.170 . S
C255 C254 1.170 . S
C256 C257 1.170 . S
C256 C258 1.380 1_554 S
C257 C256 1.170 . S
C258 C256 1.380 1_556 S
C258 C259 1.170 . S
C259 C258 1.170 . S
C260 C261 1.170 . S
C260 C262 1.380 1_455 S
C261 C260 1.170 . S
C262 C260 1.380 1_655 S
C262 C263 1.170 . S
C263 C262 1.170 . S
C264 C265 1.170 . S
C264 C266 1.380 1_454 S
C265 C264 1.170 . S
C266 C264 1.380 1_656 S
C266 C267 1.170 . S
C267 C266 1.170 . S
C268 C269 1.170 . S
C268 C270 1.380 . S
C269 C268 1.170 . S
C270 C268 1.380 . S
C270 C271 1.170 . S
C271 C270 1.170 . S
C272 C273 1.170 . S
C272 C274 1.380 . S
C273 C272 1.170 . S
C274 C272 1.380 . S
C274 C275 1.170 . S
C275 C274 1.170 . S
C276 C277 1.170 . S
C276 C278 1.380 . S
C277 C276 1.170 . S
C278 C276 1.380 . S
C278 C279 1.170 . S
C279 C278 1.170 . S
C280 C281 1.170 . S
C280 C282 1.380 . S
C281 C280 1.170 . S
C282 C280 1.380 . S
C282 C283 1.170 . S
C283 C282 1.170 . S
C284 C285 1.170 . S
C284 C286 1.380 . S
C285 C284 1.170 . S
C286 C284 1.380 . S
C286 C287 1.170 . S
C287 C286 1.170 . S
C288 C289 1.170 . S
C288 C290 1.380 . S
C289 C288 1.170 . S
C290 C288 1.380 . S
C290 C291 1.170 . S
C291 C290 1.170 . S
C292 C293 1.170 . S
C292 C294 1.380 . S
C293 C292 1.170 . S
C294 C292 1.380 . S
C294 C295 1.170 . S
C295 C294 1.170 . S
C296 C297 1.170 . S
C296 C298 1.380 . S
C297 C296 1.170 . S
C298 C296 1.380 . S
C298 C299 1.170 . S
C299 C298 1.170 . S
C300 C301 1.170 . S
C300 C302 1.380 . S
C301 C300 1.170 . S
C302 C300 1.380 . S
C302 C303 1.170 . S
C303 C302 1.170 . S
C304 C305 1.170 . S
C304 C306 1.380 . S
C305 C304 1.170 . S
C306 C304 1.380 . S
C306 C307 1.170 . S
C307 C306 1.170 . S
C308 C309 1.170 . S
C308 C310 1.380 . S
C309 C308 1.170 . S
C310 C308 1.380 . S
C310 C311 1.170 . S
C311 C310 1.170 . S
C312 C313 1.170 . S
C312 C314 1.380 . S
C313 C312 1.170 . S
C314 C312 1.380 . S
C314 C315 1.170 . S
C315 C314 1.170 . S
C316 C317 1.170 . S
C316 C318 1.380 . S
C317 C316 1.170 . S
C318 C316 1.380 . S
C318 C319 1.170 . S
C319 C318 1.170 . S
C320 C321 1.170 . S
C320 C322 1.380 . S
C321 C320 1.170 . S
C322 C320 1.380 . S
C322 C323 1.170 . S
C323 C322 1.170 . S
C324 C325 1.170 . S
C324 C326 1.380 . S
C325 C324 1.170 . S
C326 C324 1.380 . S
C326 C327 1.170 . S
C327 C326 1.170 . S
C328 C329 1.170 . S
C328 C330 1.380 . S
C329 C328 1.170 . S
C330 C328 1.380 . S
C330 C331 1.170 . S
C331 C330 1.170 . S
C332 C333 1.170 . S
C332 C334 1.380 . S
C333 C332 1.170 . S
C334 C332 1.380 . S
C334 C335 1.170 . S
C335 C334 1.170 . S
C209 C5 1.475 . S
C211 C161 1.467 . S
C213 C16 1.473 1_565 S
C215 C70 1.466 1_565 S
C217 C31 1.475 . S
C219 C187 1.469 . S
C221 C96 1.468 1_565 S
C223 C44 1.474 1_565 S
C225 C185 1.472 . S
C227 C29 1.466 . S
C229 C94 1.473 . S
C231 C42 1.470 . S
C233 C159 1.468 . S
C235 C3 1.472 . S
C237 C68 1.468 . S
C239 C18 1.470 . S
C241 C55 1.473 . S
C243 C109 1.467 . S
C245 C83 1.470 . S
C247 C135 1.467 . S
C249 C133 1.467 . S
C251 C81 1.472 . S
C253 C57 1.474 . S
C255 C107 1.465 . S
C257 C172 1.475 . S
C259 C120 1.466 . S
C261 C146 1.475 . S
C263 C198 1.467 . S
C265 C148 1.472 . S
C267 C200 1.467 . S
C269 C122 1.467 . S
C271 C174 1.472 . S
C273 C153 1.546 . S
C275 C10 1.543 . S
C277 C108 1.543 . S
C279 C17 1.547 . S
C281 C36 1.546 . S
C283 C127 1.544 . S
C285 C134 1.545 . S
C287 C49 1.540 . S
C289 C147 1.542 . S
C291 C30 1.544 . S
C293 C43 1.544 . S
C295 C114 1.549 . S
C297 C121 1.542 . S
C299 C4 1.545 . S
C301 C140 1.546 . S
C303 C23 1.540 . S
C305 C56 1.546 . S
C307 C205 1.543 . S
C309 C160 1.543 . S
C311 C75 1.542 . S
C313 C88 1.542 . S
C315 C179 1.546 . S
C317 C101 1.545 . S
C319 C186 1.546 . S
C321 C82 1.545 . S
C323 C199 1.542 . S
C325 C166 1.543 . S
C327 C95 1.542 . S
C329 C173 1.543 . S
C331 C62 1.545 . S
C333 C192 1.544 . S
C335 C69 1.549 . S
