# Generated by pormake.
# Topology atn, (4)-cn, num edge types: 1
# Building blocks:
#     Node 0, Type 0, BuildingBlock: ICAMEG_clean_sbu_1, # of connection points: 4
#     Node 1, Type 0, BuildingBlock: ICAMEG_clean_sbu_1, # of connection points: 4
#     Node 2, Type 0, BuildingBlock: ICAMEG_clean_sbu_1, # of connection points: 4
#     Node 3, Type 0, BuildingBlock: ICAMEG_clean_sbu_1, # of connection points: 4
#     Node 4, Type 0, BuildingBlock: ICAMEG_clean_sbu_1, # of connection points: 4
#     Node 5, Type 0, BuildingBlock: ICAMEG_clean_sbu_1, # of connection points: 4
#     Node 6, Type 0, BuildingBlock: ICAMEG_clean_sbu_1, # of connection points: 4
#     Node 7, Type 0, BuildingBlock: ICAMEG_clean_sbu_1, # of connection points: 4
#     Node 8, Type 0, BuildingBlock: ICAMEG_clean_sbu_1, # of connection points: 4
#     Node 9, Type 0, BuildingBlock: ICAMEG_clean_sbu_1, # of connection points: 4
#     Node 10, Type 0, BuildingBlock: ICAMEG_clean_sbu_1, # of connection points: 4
#     Node 11, Type 0, BuildingBlock: ICAMEG_clean_sbu_1, # of connection points: 4
#     Node 12, Type 0, BuildingBlock: ICAMEG_clean_sbu_1, # of connection points: 4
#     Node 13, Type 0, BuildingBlock: ICAMEG_clean_sbu_1, # of connection points: 4
#     Node 14, Type 0, BuildingBlock: ICAMEG_clean_sbu_1, # of connection points: 4
#     Node 15, Type 0, BuildingBlock: ICAMEG_clean_sbu_1, # of connection points: 4
#     Edge 16, Type (0, 0), BuildingBlock: EZIPEK_clean_linker_0, # of connection points: 2
#     Edge 17, Type (0, 0), BuildingBlock: EZIPEK_clean_linker_0, # of connection points: 2
#     Edge 18, Type (0, 0), BuildingBlock: EZIPEK_clean_linker_0, # of connection points: 2
#     Edge 19, Type (0, 0), BuildingBlock: EZIPEK_clean_linker_0, # of connection points: 2
#     Edge 20, Type (0, 0), BuildingBlock: EZIPEK_clean_linker_0, # of connection points: 2
#     Edge 21, Type (0, 0), BuildingBlock: EZIPEK_clean_linker_0, # of connection points: 2
#     Edge 22, Type (0, 0), BuildingBlock: EZIPEK_clean_linker_0, # of connection points: 2
#     Edge 23, Type (0, 0), BuildingBlock: EZIPEK_clean_linker_0, # of connection points: 2
#     Edge 24, Type (0, 0), BuildingBlock: EZIPEK_clean_linker_0, # of connection points: 2
#     Edge 25, Type (0, 0), BuildingBlock: EZIPEK_clean_linker_0, # of connection points: 2
#     Edge 26, Type (0, 0), BuildingBlock: EZIPEK_clean_linker_0, # of connection points: 2
#     Edge 27, Type (0, 0), BuildingBlock: EZIPEK_clean_linker_0, # of connection points: 2
#     Edge 28, Type (0, 0), BuildingBlock: EZIPEK_clean_linker_0, # of connection points: 2
#     Edge 29, Type (0, 0), BuildingBlock: EZIPEK_clean_linker_0, # of connection points: 2
#     Edge 30, Type (0, 0), BuildingBlock: EZIPEK_clean_linker_0, # of connection points: 2
#     Edge 31, Type (0, 0), BuildingBlock: EZIPEK_clean_linker_0, # of connection points: 2
#     Edge 32, Type (0, 0), BuildingBlock: EZIPEK_clean_linker_0, # of connection points: 2
#     Edge 33, Type (0, 0), BuildingBlock: EZIPEK_clean_linker_0, # of connection points: 2
#     Edge 34, Type (0, 0), BuildingBlock: EZIPEK_clean_linker_0, # of connection points: 2
#     Edge 35, Type (0, 0), BuildingBlock: EZIPEK_clean_linker_0, # of connection points: 2
#     Edge 36, Type (0, 0), BuildingBlock: EZIPEK_clean_linker_0, # of connection points: 2
#     Edge 37, Type (0, 0), BuildingBlock: EZIPEK_clean_linker_0, # of connection points: 2
#     Edge 38, Type (0, 0), BuildingBlock: EZIPEK_clean_linker_0, # of connection points: 2
#     Edge 39, Type (0, 0), BuildingBlock: EZIPEK_clean_linker_0, # of connection points: 2
#     Edge 40, Type (0, 0), BuildingBlock: EZIPEK_clean_linker_0, # of connection points: 2
#     Edge 41, Type (0, 0), BuildingBlock: EZIPEK_clean_linker_0, # of connection points: 2
#     Edge 42, Type (0, 0), BuildingBlock: EZIPEK_clean_linker_0, # of connection points: 2
#     Edge 43, Type (0, 0), BuildingBlock: EZIPEK_clean_linker_0, # of connection points: 2
#     Edge 44, Type (0, 0), BuildingBlock: EZIPEK_clean_linker_0, # of connection points: 2
#     Edge 45, Type (0, 0), BuildingBlock: EZIPEK_clean_linker_0, # of connection points: 2
#     Edge 46, Type (0, 0), BuildingBlock: EZIPEK_clean_linker_0, # of connection points: 2
#     Edge 47, Type (0, 0), BuildingBlock: EZIPEK_clean_linker_0, # of connection points: 2
# Relax obj value: 0.029
# Max RMSD: 0.060
# Mean RMSD: 0.060
data_MOF--net-atn--node1-ICAMEG_clean_sbu_1--edge1-EZIPEK_clean_linker_0
_symmetry_space_group_name_H-M    P1
_symmetry_Int_Tables_number       1
_symmetry_cell_setting            triclinic
loop_
_symmetry_equiv_pos_as_xyz
'x, y, z'
_cell_length_a     46.091029
_cell_length_b     46.202102
_cell_length_c     22.422131
_cell_angle_alpha  90.000585
_cell_angle_beta   89.969065
_cell_angle_gamma 89.959597
loop_
_atom_site_label
_atom_site_type_symbol
_atom_site_fract_x
_atom_site_fract_y
_atom_site_fract_z
_atom_type_partial_charge
Co0 Co 0.17561 0.34117 0.01064 0.0
Co1 Co 0.23002 0.38826 0.05071 0.0
O2 O 0.19679 0.37765 1.00143 0.0
C3 C 0.18892 0.34598 0.88274 0.0
O4 O 0.21454 0.35614 0.89696 0.0
C5 C 0.19298 0.44242 0.04541 0.0
O6 O 0.16917 0.42744 0.05404 0.0
O7 O 0.20631 0.3812 0.1249 0.0
O8 O 0.17922 0.34271 0.09884 0.0
H9 H 0.29691 0.37942 0.22669 0.0
H10 H 0.14908 0.38855 0.93976 0.0
O11 O 0.17078 0.33887 0.9227 0.0
H12 H 0.08023 0.36965 0.10356 0.0
H13 H 0.09641 0.27017 0.96096 0.0
H14 H 0.1836 0.28793 0.08275 0.0
H15 H 0.12517 0.34107 0.09441 0.0
H16 H 0.12287 0.31639 0.95306 0.0
O17 O 0.21769 0.43005 0.04761 0.0
H18 H 0.25594 0.36552 0.16218 0.0
H19 H 0.27277 0.43683 0.04808 0.0
H20 H 0.15763 0.24154 0.09263 0.0
H21 H 0.10408 0.41724 0.94659 0.0
H22 H 0.11369 0.23241 0.03137 0.0
H23 H 0.06937 0.40798 0.02916 0.0
O24 O 0.21266 0.31855 1.00489 0.0
H25 H 0.24821 0.42905 0.84601 0.0
H26 H 0.28888 0.36991 0.00887 0.0
H27 H 0.31743 0.37737 0.91728 0.0
H28 H 0.2972 0.40724 0.83511 0.0
H29 H 0.22007 0.42051 0.93772 0.0
H30 H 0.31361 0.45188 0.11183 0.0
H31 H 0.32609 0.42295 0.20163 0.0
O32 O 0.24489 0.34704 0.05145 0.0
C33 C 0.18901 0.36036 0.13743 0.0
C34 C 0.29193 0.39201 0.18729 0.0
C35 C 0.30126 0.4327 0.1229 0.0
N36 N 0.26252 0.39972 0.10039 0.0
C37 C 0.26892 0.38404 0.15028 0.0
C38 C 0.27812 0.42403 0.08691 0.0
C39 C 0.30824 0.41647 0.17329 0.0
C40 C 0.13392 0.38412 0.97537 0.0
N41 N 0.13976 0.36309 0.0165 0.0
C42 C 0.10853 0.40054 0.97918 0.0
C43 C 0.08909 0.39537 0.02558 0.0
C44 C 0.09518 0.37389 0.06737 0.0
C45 C 0.12074 0.35785 0.06207 0.0
C46 C 0.11546 0.27393 0.98806 0.0
C47 C 0.16435 0.28424 0.05645 0.0
C48 C 0.13056 0.30005 0.98374 0.0
N49 N 0.15457 0.305 0.01801 0.0
C50 C 0.1498 0.25788 0.06201 0.0
C51 C 0.12517 0.25275 0.02757 0.0
C52 C 0.23797 0.32309 0.02635 0.0
C53 C 0.25731 0.41607 0.88158 0.0
C54 C 0.27972 0.38268 0.97314 0.0
C55 C 0.2961 0.38697 0.92147 0.0
C56 C 0.28476 0.40377 0.87543 0.0
N57 N 0.25276 0.39476 0.97884 0.0
C58 C 0.24155 0.41132 0.93388 0.0
Co59 Co 0.67926 0.17763 0.02035 0.0
Co60 Co 0.62748 0.2285 0.05601 0.0
O61 O 0.64078 0.19534 0.00786 0.0
C62 C 0.67455 0.18288 0.88892 0.0
O63 O 0.66201 0.20785 0.89797 0.0
C64 C 0.57265 0.19477 0.02093 0.0
O65 O 0.58815 0.17536 0.99271 0.0
O66 O 0.63395 0.20455 0.13017 0.0
O67 O 0.67785 0.18624 0.10838 0.0
H68 H 0.63486 0.29893 0.22674 0.0
H69 H 0.6314 0.14448 0.96545 0.0
O70 O 0.6822 0.16742 0.93309 0.0
H71 H 0.66454 0.08464 0.13398 0.0
H72 H 0.7582 0.10395 0.98579 0.0
H73 H 0.73138 0.19389 0.09017 0.0
H74 H 0.68783 0.13147 0.11224 0.0
H75 H 0.70947 0.12509 0.97331 0.0
O76 O 0.58507 0.21493 0.05089 0.0
H77 H 0.65102 0.25927 0.16166 0.0
H78 H 0.57483 0.26711 0.05757 0.0
H79 H 0.78029 0.17344 0.10445 0.0
H80 H 0.60731 0.09779 0.98541 0.0
H81 H 0.79398 0.12809 0.05195 0.0
H82 H 0.62395 0.06748 0.07033 0.0
O83 O 0.69738 0.21602 1.00367 0.0
H84 H 0.6005 0.24625 0.84062 0.0
H85 H 0.63869 0.29021 0.02463 0.0
H86 H 0.63204 0.32045 0.93551 0.0
H87 H 0.61282 0.29855 0.84245 0.0
H88 H 0.60683 0.21694 0.93097 0.0
H89 H 0.55753 0.30667 0.12148 0.0
H90 H 0.58765 0.32302 0.20686 0.0
O91 O 0.66872 0.24457 0.05974 0.0
C92 C 0.65721 0.19112 0.14508 0.0
C93 C 0.62148 0.29201 0.18974 0.0
C94 C 0.5781 0.2963 0.13078 0.0
N95 N 0.61403 0.26048 0.10585 0.0
C96 C 0.63061 0.26945 0.15274 0.0
C97 C 0.58798 0.27365 0.09482 0.0
C98 C 0.59501 0.30549 0.17861 0.0
C99 C 0.63883 0.13128 1.00196 0.0
N100 N 0.66119 0.14052 0.03688 0.0
C101 C 0.62508 0.10492 0.01329 0.0
C102 C 0.63441 0.08795 0.06095 0.0
C103 C 0.6572 0.09754 0.09662 0.0
C104 C 0.67033 0.12409 0.08401 0.0
C105 C 0.75251 0.12373 0.00887 0.0
C106 C 0.73715 0.17422 0.06734 0.0
C107 C 0.72497 0.1359 1.00178 0.0
N108 N 0.71755 0.1608 0.03108 0.0
C109 C 0.76489 0.1627 0.07551 0.0
C110 C 0.77257 0.13727 0.04603 0.0
C111 C 0.69143 0.24041 0.02755 0.0
C112 C 0.60856 0.25616 0.88109 0.0
C113 C 0.6296 0.28052 0.98498 0.0
C114 C 0.62613 0.29779 0.93436 0.0
C115 C 0.61546 0.28548 0.88213 0.0
N116 N 0.62208 0.25185 0.98427 0.0
C117 C 0.61217 0.2396 0.9327 0.0
Co118 Co 0.83907 0.6701 0.00846 0.0
Co119 Co 0.78807 0.62089 0.05591 0.0
O120 O 0.81968 0.63247 1.0026 0.0
C121 C 0.82561 0.66241 0.88081 0.0
O122 O 0.80152 0.64935 0.89602 0.0
C123 C 0.8282 0.56939 0.04645 0.0
O124 O 0.85069 0.58664 0.0503 0.0
O125 O 0.81316 0.62971 0.12728 0.0
O126 O 0.83623 0.66996 0.09705 0.0
H127 H 0.7248 0.62925 0.23762 0.0
H128 H 0.86804 0.62383 0.9387 0.0
O129 O 0.84314 0.6716 0.92011 0.0
H130 H 0.93653 0.64829 0.09979 0.0
H131 H 0.91361 0.74489 0.95186 0.0
H132 H 0.82825 0.72386 0.07713 0.0
H133 H 0.88994 0.67409 0.09077 0.0
H134 H 0.89001 0.69704 0.94782 0.0
O135 O 0.80253 0.57936 0.05272 0.0
H136 H 0.76356 0.64412 0.16827 0.0
H137 H 0.74783 0.57031 0.06043 0.0
H138 H 0.85133 0.77191 0.08303 0.0
H139 H 0.91464 0.59784 0.94544 0.0
H140 H 0.89433 0.78268 0.02002 0.0
H141 H 0.94921 0.60991 0.02668 0.0
O142 O 0.8008 0.6901 1.0024 0.0
H143 H 0.76573 0.57808 0.85461 0.0
H144 H 0.7274 0.63643 0.02105 0.0
H145 H 0.6966 0.6273 0.93338 0.0
H146 H 0.71564 0.59782 0.84938 0.0
H147 H 0.79595 0.58839 0.94252 0.0
H148 H 0.70914 0.55436 0.12896 0.0
H149 H 0.69726 0.58403 0.21809 0.0
O150 O 0.7714 0.66171 0.05676 0.0
C151 C 0.82863 0.65221 0.13749 0.0
C152 C 0.72956 0.61628 0.19861 0.0
C153 C 0.72082 0.57423 0.1377 0.0
N154 N 0.75742 0.60858 0.10953 0.0
C155 C 0.75133 0.62475 0.15894 0.0
C156 C 0.74274 0.58338 0.09903 0.0
C157 C 0.71417 0.59088 0.18771 0.0
C158 C 0.88309 0.62945 0.97373 0.0
N159 N 0.8762 0.65043 0.01429 0.0
C160 C 0.9094 0.61456 0.97751 0.0
C161 C 0.92876 0.6213 0.02315 0.0
C162 C 0.92165 0.64281 0.06423 0.0
C163 C 0.89514 0.65726 0.05904 0.0
C164 C 0.89495 0.74042 0.97969 0.0
C165 C 0.84711 0.72829 0.05003 0.0
C166 C 0.88148 0.71337 0.97758 0.0
N167 N 0.85798 0.70754 0.01279 0.0
C168 C 0.86002 0.75557 0.05336 0.0
C169 C 0.88412 0.76162 0.01795 0.0
C170 C 0.77649 0.68519 0.02797 0.0
C171 C 0.75711 0.59087 0.89099 0.0
C172 C 0.73604 0.62383 0.98452 0.0
C173 C 0.71839 0.6186 0.93507 0.0
C174 C 0.72906 0.60201 0.88802 0.0
N175 N 0.76362 0.61291 0.98707 0.0
C176 C 0.77412 0.59656 0.94115 0.0
Co177 Co 0.34272 0.83468 0.00798 0.0
Co178 Co 0.3925 0.78702 0.06397 0.0
O179 O 0.38175 0.8173 0.00605 0.0
C180 C 0.35364 0.82524 0.87842 0.0
O181 O 0.36611 0.80075 0.89223 0.0
C182 C 0.44867 0.81859 0.03061 0.0
O183 O 0.434 0.83738 0.99899 0.0
O184 O 0.38323 0.81496 0.13041 0.0
O185 O 0.34001 0.82983 0.09668 0.0
H186 H 0.37651 0.73069 0.25264 0.0
H187 H 0.39245 0.86681 0.95792 0.0
O188 O 0.34383 0.84168 0.91922 0.0
H189 H 0.35138 0.93127 0.1111 0.0
H190 H 0.26432 0.90515 0.9489 0.0
H191 H 0.28767 0.81817 0.06692 0.0
H192 H 0.32927 0.88376 0.09071 0.0
H193 H 0.31396 0.88517 0.94907 0.0
O194 O 0.4353 0.79965 0.06228 0.0
H195 H 0.36466 0.76635 0.17472 0.0
H196 H 0.44275 0.74632 0.08325 0.0
H197 H 0.23783 0.83759 0.06856 0.0
H198 H 0.41517 0.91437 0.97592 0.0
H199 H 0.22589 0.8814 0.00921 0.0
H200 H 0.3946 0.94695 0.0533 0.0
O201 O 0.32624 0.79518 0.99472 0.0
H202 H 0.42694 0.7574 0.85903 0.0
H203 H 0.38079 0.72418 0.04502 0.0
H204 H 0.38897 0.6895 0.96358 0.0
H205 H 0.41226 0.70596 0.86964 0.0
H206 H 0.41866 0.79131 0.94167 0.0
H207 H 0.45566 0.71074 0.16039 0.0
H208 H 0.42233 0.70255 0.24581 0.0
O209 O 0.35134 0.77138 0.0648 0.0
C210 C 0.35864 0.82736 0.13849 0.0
C211 C 0.39115 0.73393 0.21547 0.0
C212 C 0.43559 0.7228 0.16379 0.0
N213 N 0.40278 0.75827 0.12381 0.0
C214 C 0.38449 0.75403 0.171 0.0
C215 C 0.42821 0.74311 0.12021 0.0
C216 C 0.41687 0.7182 0.21168 0.0
C217 C 0.38316 0.88112 0.99057 0.0
N218 N 0.35931 0.87273 0.02205 0.0
C219 C 0.3962 0.90792 1.00105 0.0
C220 C 0.38468 0.92616 0.04455 0.0
C221 C 0.36043 0.91738 0.07696 0.0
C222 C 0.348 0.89043 0.06513 0.0
C223 C 0.26927 0.8861 0.97508 0.0
C224 C 0.28271 0.83737 0.04141 0.0
C225 C 0.29733 0.87464 0.97525 0.0
N226 N 0.30379 0.8507 0.00855 0.0
C227 C 0.25442 0.84821 0.04231 0.0
C228 C 0.24772 0.87277 0.00895 0.0
C229 C 0.33064 0.7727 0.02675 0.0
C230 C 0.41709 0.74986 0.9 0.0
C231 C 0.39153 0.73153 1.00494 0.0
C232 C 0.39588 0.71175 0.95869 0.0
C233 C 0.40884 0.72102 0.90595 0.0
N234 N 0.40022 0.75974 0.99942 0.0
C235 C 0.41239 0.76902 0.94724 0.0
Co236 Co 0.18269 0.67014 1.00273 0.0
Co237 Co 0.2307 0.61997 0.94914 0.0
O238 O 0.20053 0.63158 0.00652 0.0
C239 C 0.19463 0.66163 0.13119 0.0
O240 O 0.2196 0.65034 0.11673 0.0
C241 C 0.1975 0.56508 0.98326 0.0
O242 O 0.17805 0.5805 0.01167 0.0
O243 O 0.20278 0.62837 0.8821 0.0
O244 O 0.18631 0.67135 0.9139 0.0
H245 H 0.28714 0.63207 0.75919 0.0
H246 H 0.15065 0.62404 0.06675 0.0
O247 O 0.17723 0.6703 0.09117 0.0
H248 H 0.08504 0.65591 0.906 0.0
H249 H 0.11193 0.74828 0.06147 0.0
H250 H 0.19718 0.7241 0.93814 0.0
H251 H 0.13273 0.67903 0.91948 0.0
H252 H 0.1326 0.69904 0.06304 0.0
O253 O 0.21757 0.57757 0.95308 0.0
H254 H 0.25128 0.64539 0.83592 0.0
H255 H 0.27152 0.56961 0.9343 0.0
H256 H 0.17706 0.77355 0.93479 0.0
H257 H 0.10297 0.60051 0.05523 0.0
H258 H 0.13413 0.78591 0.99683 0.0
H259 H 0.06984 0.61635 0.97418 0.0
O260 O 0.2221 0.68753 0.01221 0.0
H261 H 0.25931 0.58756 0.15576 0.0
H262 H 0.29364 0.63187 0.96871 0.0
H263 H 0.32792 0.6247 0.05146 0.0
H264 H 0.31089 0.60234 0.1459 0.0
H265 H 0.22582 0.59488 0.07186 0.0
H266 H 0.30731 0.5552 0.85843 0.0
H267 H 0.3155 0.58664 0.77016 0.0
O268 O 0.24686 0.66092 0.94594 0.0
C269 C 0.18951 0.65236 0.87317 0.0
C270 C 0.28392 0.61826 0.79762 0.0
C271 C 0.29517 0.5751 0.85323 0.0
N272 N 0.25951 0.60856 0.89019 0.0
C273 C 0.26372 0.62578 0.84141 0.0
C274 C 0.27476 0.58333 0.89608 0.0
C275 C 0.29977 0.59275 0.80374 0.0
C276 C 0.13633 0.63111 0.03151 0.0
N277 N 0.14464 0.65268 0.99354 0.0
C278 C 0.10936 0.61769 0.02516 0.0
C279 C 0.09079 0.62657 0.97967 0.0
C280 C 0.09931 0.64876 0.94138 0.0
C281 C 0.12643 0.66168 0.9491 0.0
C282 C 0.13059 0.74314 0.0341 0.0
C283 C 0.17837 0.72925 0.96489 0.0
C284 C 0.14241 0.7153 0.03485 0.0
N285 N 0.16592 0.70863 1.00027 0.0
C286 C 0.16712 0.75732 0.96296 0.0
C287 C 0.14306 0.76424 0.99783 0.0
C288 C 0.2449 0.68265 0.98127 0.0
C289 C 0.26711 0.59702 0.1146 0.0
C290 C 0.28606 0.6216 0.00912 0.0
C291 C 0.3056 0.61779 0.05606 0.0
C292 C 0.29602 0.60534 0.10907 0.0
N293 N 0.25778 0.6129 0.01433 0.0
C294 C 0.2482 0.60117 0.06669 0.0
Co295 Co 0.34812 0.17277 0.01027 0.0
Co296 Co 0.3948 0.22848 0.97003 0.0
O297 O 0.38465 0.19427 0.01732 0.0
C298 C 0.35241 0.18771 0.13786 0.0
O299 O 0.36217 0.213 0.12109 0.0
C300 C 0.44856 0.19024 0.9683 0.0
O301 O 0.43312 0.16659 0.96205 0.0
O302 O 0.38486 0.20719 0.89408 0.0
O303 O 0.34911 0.17649 0.92136 0.0
H304 H 0.37988 0.30635 0.81531 0.0
H305 H 0.39875 0.14809 0.07351 0.0
O306 O 0.34651 0.16836 0.09938 0.0
H307 H 0.37306 0.07589 0.92091 0.0
H308 H 0.27719 0.09496 0.06939 0.0
H309 H 0.29567 0.17636 0.93293 0.0
H310 H 0.34527 0.12127 0.93018 0.0
H311 H 0.32313 0.12203 0.07461 0.0
O312 O 0.4364 0.21502 0.96677 0.0
H313 H 0.3659 0.26463 0.87673 0.0
H314 H 0.44756 0.26612 0.9638 0.0
H315 H 0.24951 0.14989 0.92588 0.0
H316 H 0.42686 0.10271 0.06703 0.0
H317 H 0.23996 0.10881 0.99459 0.0
H318 H 0.41411 0.06627 0.98991 0.0
O319 O 0.32514 0.20947 0.01697 0.0
H320 H 0.44052 0.23937 0.17244 0.0
H321 H 0.38293 0.28789 0.01641 0.0
H322 H 0.3957 0.31458 0.10788 0.0
H323 H 0.42462 0.29028 0.18681 0.0
H324 H 0.42733 0.21349 0.08028 0.0
H325 H 0.46258 0.30775 0.90305 0.0
H326 H 0.42867 0.32826 0.82807 0.0
O327 O 0.35368 0.24385 0.97614 0.0
C328 C 0.36508 0.18852 0.88203 0.0
C329 C 0.39497 0.29746 0.84743 0.0
C330 C 0.44136 0.29824 0.89661 0.0
N331 N 0.40596 0.26217 0.92285 0.0
C332 C 0.38715 0.27361 0.88217 0.0
C333 C 0.43276 0.27439 0.93057 0.0
C334 C 0.42232 0.30976 0.85465 0.0
C335 C 0.39269 0.13201 0.04113 0.0
N336 N 0.37005 0.13705 1.00341 0.0
C337 C 0.40885 0.10649 0.03709 0.0
C338 C 0.40173 0.0861 0.99371 0.0
C339 C 0.37871 0.09148 0.95499 0.0
C340 C 0.36305 0.11723 0.96049 0.0
C341 C 0.281 0.11295 0.03949 0.0
C342 C 0.29164 0.15882 0.96328 0.0
C343 C 0.30692 0.12853 0.04249 0.0
N344 N 0.31195 0.15126 1.00477 0.0
C345 C 0.26547 0.14375 0.95896 0.0
C346 C 0.26013 0.1207 0.99747 0.0
C347 C 0.32961 0.23533 0.99888 0.0
C348 C 0.42792 0.25021 0.13837 0.0
C349 C 0.39567 0.27719 0.05036 0.0
C350 C 0.40279 0.29242 0.10213 0.0
C351 C 0.41899 0.27876 0.1464 0.0
N352 N 0.40434 0.24912 0.04291 0.0
C353 C 0.42043 0.23568 0.08598 0.0
Co354 Co 0.8367 0.3482 0.014 0.0
Co355 Co 0.78822 0.39793 0.95861 0.0
O356 O 0.81823 0.38644 0.01592 0.0
C357 C 0.82177 0.35894 0.14095 0.0
O358 O 0.79908 0.37381 0.12387 0.0
C359 C 0.82877 0.4489 0.97074 0.0
O360 O 0.8511 0.43129 0.97026 0.0
O361 O 0.81505 0.38794 0.89047 0.0
O362 O 0.83563 0.34717 0.92489 0.0
H363 H 0.72957 0.38813 0.77097 0.0
H364 H 0.86561 0.39451 0.08342 0.0
O365 O 0.83888 0.34762 0.10306 0.0
H366 H 0.93656 0.36566 0.92988 0.0
H367 H 0.9076 0.2718 0.0807 0.0
H368 H 0.82569 0.29407 0.94694 0.0
H369 H 0.88904 0.34147 0.93634 0.0
H370 H 0.88546 0.32041 0.0804 0.0
O371 O 0.80321 0.43924 0.96149 0.0
H372 H 0.76613 0.37349 0.84538 0.0
H373 H 0.74911 0.44919 0.94681 0.0
H374 H 0.84734 0.24524 0.94541 0.0
H375 H 0.9131 0.41894 0.07923 0.0
H376 H 0.8886 0.23385 0.01268 0.0
H377 H 0.94891 0.40465 1.00179 0.0
O378 O 0.79787 0.32957 0.01833 0.0
H379 H 0.76095 0.44388 0.15449 0.0
H380 H 0.72648 0.38371 0.98742 0.0
H381 H 0.69346 0.39443 0.07086 0.0
H382 H 0.71055 0.42485 0.15515 0.0
H383 H 0.79342 0.43189 0.07091 0.0
H384 H 0.71259 0.46488 0.87321 0.0
H385 H 0.70248 0.43416 0.78471 0.0
O386 O 0.77085 0.35737 0.95792 0.0
C387 C 0.8299 0.36479 0.8828 0.0
C388 C 0.73358 0.40158 0.80962 0.0
C389 C 0.7241 0.44468 0.86694 0.0
N390 N 0.75925 0.41007 0.90107 0.0
C391 C 0.75411 0.39328 0.8521 0.0
C392 C 0.7448 0.43567 0.90847 0.0
C393 C 0.71844 0.42744 0.81729 0.0
C394 C 0.88118 0.38794 0.05005 0.0
N395 N 0.87448 0.36663 0.01016 0.0
C396 C 0.908 0.40195 0.04771 0.0
C397 C 0.92806 0.39395 1.00419 0.0
C398 C 0.92113 0.37211 0.96379 0.0
C399 C 0.89411 0.35857 0.96751 0.0
C400 C 0.88969 0.27652 0.05105 0.0
C401 C 0.84379 0.28934 0.97598 0.0
C402 C 0.87705 0.304 0.05072 0.0
N403 N 0.8545 0.31016 0.01322 0.0
C404 C 0.85589 0.26163 0.97508 0.0
C405 C 0.87902 0.25524 0.01288 0.0
C406 C 0.77444 0.33453 0.9897 0.0
C407 C 0.75319 0.43066 0.11798 0.0
C408 C 0.7343 0.39666 0.02417 0.0
C409 C 0.71538 0.40282 0.07118 0.0
C410 C 0.72496 0.41992 0.11839 0.0
N411 N 0.76206 0.40713 0.02418 0.0
C412 C 0.77149 0.42402 0.07022 0.0
Co413 Co 0.6732 0.83914 0.01198 0.0
Co414 Co 0.62699 0.78586 0.96259 0.0
O415 O 0.63643 0.81805 0.01596 0.0
C416 C 0.65736 0.83404 0.14248 0.0
O417 O 0.63297 0.821 0.12943 0.0
C418 C 0.57189 0.82177 0.96913 0.0
O419 O 0.58646 0.84573 0.95965 0.0
O420 O 0.63404 0.81173 0.89172 0.0
O421 O 0.67377 0.83581 0.92255 0.0
H422 H 0.6398 0.72077 0.78432 0.0
H423 H 0.62154 0.86594 0.07134 0.0
O424 O 0.67441 0.84305 0.10166 0.0
H425 H 0.65223 0.93591 0.91826 0.0
H426 H 0.74481 0.91599 0.0727 0.0
H427 H 0.72733 0.83216 0.94184 0.0
H428 H 0.6789 0.89022 0.932 0.0
H429 H 0.69799 0.89027 0.07537 0.0
O430 O 0.58474 0.79733 0.96676 0.0
H431 H 0.6531 0.75992 0.85351 0.0
H432 H 0.57758 0.74424 0.95652 0.0
H433 H 0.77444 0.85729 0.93726 0.0
H434 H 0.59453 0.91148 0.05982 0.0
H435 H 0.78342 0.89958 1.00312 0.0
H436 H 0.60976 0.94691 0.98264 0.0
O437 O 0.69458 0.80195 0.02065 0.0
H438 H 0.58538 0.7599 0.16324 0.0
H439 H 0.64561 0.72606 0.99538 0.0
H440 H 0.6377 0.69399 0.08162 0.0
H441 H 0.60757 0.71093 0.16662 0.0
H442 H 0.59362 0.79118 0.07592 0.0
H443 H 0.56318 0.70508 0.88825 0.0
H444 H 0.59443 0.693 0.80145 0.0
O445 O 0.66904 0.77227 0.96089 0.0
C446 C 0.65583 0.82832 0.88199 0.0
C447 C 0.62601 0.72579 0.82201 0.0
C448 C 0.583 0.71701 0.88027 0.0
N449 N 0.61632 0.75448 0.90908 0.0
C450 C 0.63353 0.74797 0.8614 0.0
C451 C 0.59126 0.73933 0.91868 0.0
C452 C 0.60055 0.71023 0.83161 0.0
C453 C 0.62868 0.8813 0.03846 0.0
N454 N 0.6522 0.87548 1.00342 0.0
C455 C 0.61315 0.90706 0.0318 0.0
C456 C 0.62166 0.9269 0.98843 0.0
C457 C 0.64548 0.92076 0.95236 0.0
C458 C 0.66052 0.8948 0.96043 0.0
C459 C 0.74119 0.89756 0.04387 0.0
C460 C 0.7311 0.85045 0.97057 0.0
C461 C 0.71476 0.88281 0.04538 0.0
N462 N 0.70997 0.85959 0.00889 0.0
C463 C 0.75781 0.86464 0.96782 0.0
C464 C 0.76284 0.88836 1.00479 0.0
C465 C 0.6913 0.778 0.99323 0.0
C466 C 0.5987 0.75233 0.12666 0.0
C467 C 0.63253 0.73368 0.0322 0.0
C468 C 0.62803 0.71534 0.08085 0.0
C469 C 0.61113 0.72486 0.12851 0.0
N470 N 0.62058 0.76079 0.03101 0.0
C471 C 0.60354 0.77001 0.07712 0.0
Co472 Co 0.67712 0.84701 0.51667 0.0
Co473 Co 0.73047 0.89558 0.55816 0.0
O474 O 0.69764 0.88392 0.50804 0.0
C475 C 0.69001 0.85156 0.38836 0.0
O476 O 0.71583 0.86095 0.40267 0.0
C477 C 0.69009 0.94711 0.55163 0.0
O478 O 0.66764 0.93002 0.55847 0.0
O479 O 0.70713 0.88713 0.63236 0.0
O480 O 0.68156 0.84778 0.60546 0.0
H481 H 0.80304 0.88543 0.72485 0.0
H482 H 0.64846 0.89353 0.44717 0.0
O483 O 0.67163 0.84522 0.42844 0.0
H484 H 0.58158 0.87203 0.61301 0.0
H485 H 0.6 0.77424 0.46376 0.0
H486 H 0.68489 0.79418 0.59054 0.0
H487 H 0.62744 0.84506 0.60221 0.0
H488 H 0.6254 0.82104 0.45723 0.0
O489 O 0.71583 0.93706 0.5555 0.0
H490 H 0.7632 0.8697 0.65959 0.0
H491 H 0.76731 0.94875 0.56395 0.0
H492 H 0.6601 0.74714 0.59892 0.0
H493 H 0.60262 0.92075 0.45577 0.0
H494 H 0.61729 0.73689 0.53508 0.0
H495 H 0.56887 0.91016 0.53939 0.0
O496 O 0.71463 0.82575 0.50854 0.0
H497 H 0.74752 0.93594 0.3527 0.0
H498 H 0.79172 0.88397 0.52184 0.0
H499 H 0.82143 0.89513 0.43338 0.0
H500 H 0.79932 0.9212 0.34781 0.0
H501 H 0.71882 0.92446 0.44233 0.0
H502 H 0.80707 0.96556 0.62837 0.0
H503 H 0.82531 0.93381 0.70951 0.0
O504 O 0.74669 0.85432 0.55699 0.0
C505 C 0.69063 0.86561 0.64457 0.0
C506 C 0.79522 0.89954 0.68982 0.0
C507 C 0.79744 0.9445 0.63576 0.0
N508 N 0.76247 0.90825 0.60846 0.0
C509 C 0.77253 0.89069 0.6528 0.0
C510 C 0.77471 0.9349 0.59967 0.0
C511 C 0.80769 0.92667 0.68121 0.0
C512 C 0.63379 0.88863 0.48335 0.0
N513 N 0.64074 0.86787 0.52432 0.0
C514 C 0.6079 0.90418 0.48812 0.0
C515 C 0.589 0.89826 0.53509 0.0
C516 C 0.59612 0.87689 0.57644 0.0
C517 C 0.62221 0.86178 0.57024 0.0
C518 C 0.61867 0.77841 0.49172 0.0
C519 C 0.6664 0.78989 0.56265 0.0
C520 C 0.63323 0.80486 0.48808 0.0
N521 N 0.65682 0.81032 0.52331 0.0
C522 C 0.65238 0.76321 0.56758 0.0
C523 C 0.62837 0.75747 0.53176 0.0
C524 C 0.73978 0.83059 0.53037 0.0
C525 C 0.75745 0.92463 0.38971 0.0
C526 C 0.78198 0.89557 0.48509 0.0
C527 C 0.79892 0.90176 0.435 0.0
C528 C 0.78649 0.91635 0.38699 0.0
N529 N 0.75345 0.90369 0.48737 0.0
C530 C 0.74125 0.91815 0.44062 0.0
Co531 Co 0.17315 0.67664 0.50797 0.0
Co532 Co 0.12635 0.73135 0.55116 0.0
O533 O 0.13665 0.6982 0.5 0.0
C534 C 0.15988 0.67938 0.37588 0.0
O535 O 0.13468 0.69141 0.38609 0.0
C536 C 0.06954 0.70006 0.52063 0.0
O537 O 0.08409 0.67828 0.49829 0.0
O538 O 0.13159 0.70596 0.62378 0.0
O539 O 0.1717 0.68111 0.59704 0.0
H540 H 0.1359 0.79758 0.72909 0.0
H541 H 0.12345 0.64787 0.44383 0.0
O542 O 0.17645 0.67167 0.4186 0.0
H543 H 0.15043 0.58132 0.60589 0.0
H544 H 0.24563 0.59863 0.45792 0.0
H545 H 0.22566 0.68409 0.58275 0.0
H546 H 0.17684 0.62704 0.59191 0.0
H547 H 0.1991 0.62464 0.44941 0.0
O548 O 0.083 0.72106 0.54584 0.0
H549 H 0.14955 0.75729 0.66347 0.0
H550 H 0.07875 0.77539 0.54951 0.0
H551 H 0.27241 0.65867 0.59324 0.0
H552 H 0.09668 0.60241 0.45589 0.0
H553 H 0.28266 0.61556 0.53042 0.0
H554 H 0.11001 0.56863 0.53755 0.0
O555 O 0.19492 0.71351 0.49936 0.0
H556 H 0.09736 0.75481 0.33959 0.0
H557 H 0.14588 0.79101 0.52055 0.0
H558 H 0.14358 0.82196 0.43137 0.0
H559 H 0.11934 0.80387 0.33978 0.0
H560 H 0.09958 0.7249 0.43023 0.0
H561 H 0.06386 0.81577 0.61391 0.0
H562 H 0.0926 0.82729 0.70451 0.0
O563 O 0.16867 0.744 0.5561 0.0
C564 C 0.15308 0.68921 0.63585 0.0
C565 C 0.1232 0.79285 0.68969 0.0
C566 C 0.08278 0.803 0.6252 0.0
N567 N 0.11525 0.76371 0.60239 0.0
C568 C 0.13099 0.76996 0.65225 0.0
C569 C 0.09127 0.77992 0.58892 0.0
C570 C 0.09891 0.80948 0.67595 0.0
C571 C 0.1297 0.63346 0.47907 0.0
N572 N 0.15194 0.64035 0.51664 0.0
C573 C 0.11431 0.60763 0.48588 0.0
C574 C 0.12177 0.5887 0.5317 0.0
C575 C 0.14444 0.59579 0.57 0.0
C576 C 0.15931 0.62182 0.56181 0.0
C577 C 0.24147 0.61742 0.48545 0.0
C578 C 0.22997 0.66545 0.55533 0.0
C579 C 0.2152 0.63233 0.48062 0.0
N580 N 0.20971 0.65601 0.51545 0.0
C581 C 0.25648 0.65109 0.56142 0.0
C582 C 0.26222 0.62691 0.52617 0.0
C583 C 0.19147 0.73768 0.5258 0.0
C584 C 0.10802 0.76295 0.37917 0.0
C585 C 0.13498 0.78299 0.48121 0.0
C586 C 0.13383 0.80066 0.43072 0.0
C587 C 0.1203 0.79048 0.37933 0.0
N588 N 0.12279 0.75598 0.4809 0.0
C589 C 0.10957 0.74594 0.43057 0.0
Co590 Co 0.33512 0.17515 0.5125 0.0
Co591 Co 0.28737 0.12441 0.56508 0.0
O592 O 0.31762 0.13639 0.50811 0.0
C593 C 0.32315 0.16674 0.38399 0.0
O594 O 0.29853 0.15485 0.39876 0.0
C595 C 0.32094 0.06972 0.53035 0.0
O596 O 0.34014 0.08529 0.50164 0.0
O597 O 0.31499 0.13288 0.63229 0.0
O598 O 0.33127 0.17609 0.60151 0.0
H599 H 0.23021 0.13638 0.75415 0.0
H600 H 0.36778 0.12901 0.45014 0.0
O601 O 0.34063 0.17566 0.42368 0.0
H602 H 0.43259 0.16209 0.61083 0.0
H603 H 0.40563 0.25383 0.45621 0.0
H604 H 0.31987 0.2289 0.57726 0.0
H605 H 0.38472 0.18474 0.59629 0.0
H606 H 0.38514 0.20454 0.45324 0.0
O607 O 0.3009 0.08207 0.56094 0.0
H608 H 0.26599 0.14999 0.67751 0.0
H609 H 0.24733 0.07343 0.58036 0.0
H610 H 0.33977 0.27838 0.58196 0.0
H611 H 0.41566 0.10591 0.46239 0.0
H612 H 0.38297 0.29111 0.52111 0.0
H613 H 0.44841 0.12238 0.54354 0.0
O614 O 0.29565 0.1922 0.50271 0.0
H615 H 0.25907 0.09176 0.35838 0.0
H616 H 0.22427 0.13549 0.54566 0.0
H617 H 0.18995 0.12761 0.4633 0.0
H618 H 0.20722 0.10555 0.36872 0.0
H619 H 0.2926 0.09973 0.44195 0.0
H620 H 0.21166 0.05876 0.65617 0.0
H621 H 0.20272 0.09043 0.74379 0.0
O622 O 0.27087 0.16525 0.56838 0.0
C623 C 0.32785 0.15699 0.64199 0.0
C624 C 0.23378 0.12246 0.71601 0.0
C625 C 0.22343 0.07888 0.66111 0.0
N626 N 0.25857 0.11275 0.62386 0.0
C627 C 0.25393 0.13013 0.67227 0.0
C628 C 0.24379 0.08725 0.6183 0.0
C629 C 0.21841 0.09666 0.71023 0.0
C630 C 0.38198 0.13638 0.48507 0.0
N631 N 0.37336 0.15807 0.52236 0.0
C632 C 0.40905 0.1232 0.492 0.0
C633 C 0.42739 0.13243 0.53756 0.0
C634 C 0.41853 0.15469 0.57534 0.0
C635 C 0.39131 0.16736 0.56699 0.0
C636 C 0.38684 0.24852 0.48305 0.0
C637 C 0.33879 0.23422 0.551 0.0
C638 C 0.37512 0.22066 0.48149 0.0
N639 N 0.3515 0.21378 0.51554 0.0
C640 C 0.34991 0.2623 0.55369 0.0
C641 C 0.37413 0.26943 0.51949 0.0
C642 C 0.27287 0.18712 0.53343 0.0
C643 C 0.25118 0.1011 0.39959 0.0
C644 C 0.23197 0.12533 0.50523 0.0
C645 C 0.2124 0.12113 0.45849 0.0
C646 C 0.22212 0.10884 0.4054 0.0
N647 N 0.26041 0.11716 0.49976 0.0
C648 C 0.27012 0.10562 0.44732 0.0
Co649 Co 0.83991 0.3366 0.51823 0.0
Co650 Co 0.89046 0.28544 0.55864 0.0
O651 O 0.87803 0.31815 0.5082 0.0
C652 C 0.85346 0.33839 0.38612 0.0
O653 O 0.87964 0.32842 0.39531 0.0
C654 C 0.94558 0.31847 0.52317 0.0
O655 O 0.93004 0.33908 0.49893 0.0
O656 O 0.88495 0.31089 0.63089 0.0
O657 O 0.84172 0.33043 0.60711 0.0
H658 H 0.88423 0.21955 0.73722 0.0
H659 H 0.88766 0.37041 0.45841 0.0
O660 O 0.83617 0.34335 0.42942 0.0
H661 H 0.85424 0.43144 0.62462 0.0
H662 H 0.76079 0.40928 0.47732 0.0
H663 H 0.78813 0.32189 0.59024 0.0
H664 H 0.83161 0.38412 0.60598 0.0
H665 H 0.80952 0.38788 0.46616 0.0
O666 O 0.93317 0.29764 0.55114 0.0
H667 H 0.86857 0.25886 0.67074 0.0
H668 H 0.94055 0.24396 0.55755 0.0
H669 H 0.73924 0.34269 0.60332 0.0
H670 H 0.9108 0.41743 0.47533 0.0
H671 H 0.7253 0.38673 0.54656 0.0
H672 H 0.89417 0.44848 0.55905 0.0
O673 O 0.82152 0.29832 0.50552 0.0
H674 H 0.91672 0.26305 0.34496 0.0
H675 H 0.87488 0.22428 0.53072 0.0
H676 H 0.87821 0.19294 0.4423 0.0
H677 H 0.8991 0.21229 0.34829 0.0
H678 H 0.91391 0.29324 0.43506 0.0
H679 H 0.95739 0.20467 0.62281 0.0
H680 H 0.92908 0.19205 0.71343 0.0
O681 O 0.84891 0.2707 0.56546 0.0
C682 C 0.86202 0.32528 0.64446 0.0
C683 C 0.89676 0.22479 0.69783 0.0
C684 C 0.93781 0.21649 0.63375 0.0
N685 N 0.90338 0.25391 0.61007 0.0
C686 C 0.88786 0.24708 0.65994 0.0
C687 C 0.92821 0.23895 0.59699 0.0
C688 C 0.92192 0.20939 0.68451 0.0
C689 C 0.88004 0.38356 0.49457 0.0
N690 N 0.85802 0.37429 0.53055 0.0
C691 C 0.89334 0.41032 0.50411 0.0
C692 C 0.88403 0.42772 0.55108 0.0
C693 C 0.86163 0.41819 0.58781 0.0
C694 C 0.84889 0.39129 0.57693 0.0
C695 C 0.7666 0.3901 0.50231 0.0
C696 C 0.78225 0.34108 0.56561 0.0
C697 C 0.79413 0.37781 0.49598 0.0
N698 N 0.80169 0.35369 0.52769 0.0
C699 C 0.75452 0.35275 0.57309 0.0
C700 C 0.74671 0.37744 0.54119 0.0
C701 C 0.8267 0.27448 0.53185 0.0
C702 C 0.90758 0.25433 0.38564 0.0
C703 C 0.88447 0.23284 0.49042 0.0
C704 C 0.88616 0.21496 0.44032 0.0
C705 C 0.89777 0.22585 0.38756 0.0
N706 N 0.89444 0.26074 0.48852 0.0
C707 C 0.9056 0.27153 0.43672 0.0
Co708 Co 0.68286 0.16808 0.51539 0.0
Co709 Co 0.7301 0.11751 0.45854 0.0
O710 O 0.70059 0.12947 0.51681 0.0
C711 C 0.69856 0.15748 0.64182 0.0
O712 O 0.72061 0.14197 0.62372 0.0
C713 C 0.68905 0.0671 0.47303 0.0
O714 O 0.66692 0.08495 0.47357 0.0
O715 O 0.70296 0.12784 0.39119 0.0
O716 O 0.68363 0.16912 0.42609 0.0
H717 H 0.78797 0.12675 0.26965 0.0
H718 H 0.65323 0.12251 0.58544 0.0
O719 O 0.68109 0.16885 0.60472 0.0
H720 H 0.58241 0.15253 0.43281 0.0
H721 H 0.61359 0.2459 0.58255 0.0
H722 H 0.69493 0.22196 0.44834 0.0
H723 H 0.63041 0.17582 0.43849 0.0
H724 H 0.63481 0.19687 0.58228 0.0
O725 O 0.71459 0.07642 0.46214 0.0
H726 H 0.75215 0.14192 0.3452 0.0
H727 H 0.76816 0.06555 0.44518 0.0
H728 H 0.67423 0.2712 0.44683 0.0
H729 H 0.60527 0.09899 0.5821 0.0
H730 H 0.63325 0.28343 0.51431 0.0
H731 H 0.56951 0.11387 0.50509 0.0
O732 O 0.72209 0.18573 0.51921 0.0
H733 H 0.75823 0.07147 0.65376 0.0
H734 H 0.79227 0.13079 0.48498 0.0
H735 H 0.8258 0.11968 0.56726 0.0
H736 H 0.80892 0.08969 0.6524 0.0
H737 H 0.72526 0.08386 0.57133 0.0
H738 H 0.80395 0.04935 0.37045 0.0
H739 H 0.81418 0.08014 0.28208 0.0
O740 O 0.74803 0.15779 0.45702 0.0
C741 C 0.68871 0.15138 0.3838 0.0
C742 C 0.78388 0.11325 0.30819 0.0
C743 C 0.7928 0.06979 0.3647 0.0
N744 N 0.7585 0.10496 0.40011 0.0
C745 C 0.76374 0.12183 0.35128 0.0
C746 C 0.7725 0.07907 0.40686 0.0
C747 C 0.79853 0.08707 0.31513 0.0
C748 C 0.63769 0.12933 0.55231 0.0
N749 N 0.64468 0.15046 0.51221 0.0
C750 C 0.6106 0.11584 0.55042 0.0
C751 C 0.59057 0.12417 0.50714 0.0
C752 C 0.5978 0.14583 0.46654 0.0
C753 C 0.62509 0.15885 0.4698 0.0
C754 C 0.63139 0.24081 0.55282 0.0
C755 C 0.67697 0.22706 0.47751 0.0
C756 C 0.64351 0.21309 0.55251 0.0
N757 N 0.66589 0.20649 0.51486 0.0
C758 C 0.6654 0.25501 0.4766 0.0
C759 C 0.64243 0.26186 0.51452 0.0
C760 C 0.74518 0.18042 0.48968 0.0
C761 C 0.76589 0.0845 0.61687 0.0
C762 C 0.78455 0.11802 0.52211 0.0
C763 C 0.80375 0.11165 0.56846 0.0
C764 C 0.79429 0.09478 0.61615 0.0
N765 N 0.75662 0.10802 0.52325 0.0
C766 C 0.74731 0.09137 0.56977 0.0
Co767 Co 0.84425 0.67765 0.50615 0.0
Co768 Co 0.89065 0.73112 0.4576 0.0
O769 O 0.88111 0.69879 0.51057 0.0
C770 C 0.85902 0.68337 0.63683 0.0
O771 O 0.88335 0.69671 0.62455 0.0
C772 C 0.94581 0.69533 0.46342 0.0
O773 O 0.93116 0.67117 0.45732 0.0
O774 O 0.88298 0.70569 0.38625 0.0
O775 O 0.84424 0.68017 0.41739 0.0
H776 H 0.87715 0.79434 0.27753 0.0
H777 H 0.89623 0.65197 0.56629 0.0
O778 O 0.84235 0.6742 0.5956 0.0
H779 H 0.86654 0.58045 0.41551 0.0
H780 H 0.77261 0.6004 0.56465 0.0
H781 H 0.78988 0.68574 0.43751 0.0
H782 H 0.83915 0.62579 0.42803 0.0
H783 H 0.81947 0.6261 0.56812 0.0
O784 O 0.93292 0.71969 0.45969 0.0
H785 H 0.86498 0.75472 0.34684 0.0
H786 H 0.93884 0.77429 0.45236 0.0
H787 H 0.74282 0.6605 0.43205 0.0
H788 H 0.92397 0.60682 0.55592 0.0
H789 H 0.73395 0.6175 0.49598 0.0
H790 H 0.90922 0.57058 0.47998 0.0
O791 O 0.82247 0.71485 0.51256 0.0
H792 H 0.93326 0.755 0.65834 0.0
H793 H 0.87131 0.79032 0.49461 0.0
H794 H 0.87841 0.82073 0.58352 0.0
H795 H 0.90958 0.80315 0.66628 0.0
H796 H 0.9252 0.72502 0.56913 0.0
H797 H 0.95209 0.81386 0.38381 0.0
H798 H 0.92103 0.82423 0.29584 0.0
O799 O 0.84919 0.74528 0.45753 0.0
C800 C 0.8615 0.68868 0.37665 0.0
C801 C 0.89073 0.79019 0.31596 0.0
C802 C 0.93281 0.80112 0.37555 0.0
N803 N 0.90079 0.76258 0.40424 0.0
C804 C 0.88382 0.76791 0.35556 0.0
C805 C 0.92519 0.77867 0.41422 0.0
C806 C 0.91538 0.80692 0.3262 0.0
C807 C 0.88925 0.63623 0.53402 0.0
N808 N 0.86553 0.64138 0.49914 0.0
C809 C 0.90522 0.6107 0.52799 0.0
C810 C 0.89699 0.59042 0.48529 0.0
C811 C 0.87304 0.59593 0.44917 0.0
C812 C 0.85757 0.62168 0.4566 0.0
C813 C 0.77624 0.61906 0.53644 0.0
C814 C 0.78627 0.6669 0.46504 0.0
C815 C 0.8027 0.63375 0.53832 0.0
N816 N 0.80751 0.65722 0.50254 0.0
C817 C 0.75954 0.65276 0.46195 0.0
C818 C 0.75457 0.62866 0.49789 0.0
C819 C 0.82646 0.73948 0.48803 0.0
C820 C 0.91957 0.76288 0.62265 0.0
C821 C 0.88465 0.78227 0.5306 0.0
C822 C 0.88873 0.79972 0.58075 0.0
C823 C 0.90626 0.78987 0.62711 0.0
N824 N 0.89751 0.75563 0.52678 0.0
C825 C 0.91498 0.74602 0.57183 0.0
Co826 Co 0.34077 0.84533 0.50109 0.0
Co827 Co 0.28547 0.89407 0.47029 0.0
O828 O 0.32095 0.88251 0.51255 0.0
C829 C 0.33042 0.8503 0.63059 0.0
O830 O 0.30652 0.86423 0.618 0.0
C831 C 0.32481 0.94701 0.46853 0.0
O832 O 0.34813 0.9314 0.45874 0.0
O833 O 0.30474 0.88553 0.39096 0.0
O834 O 0.33524 0.84859 0.41239 0.0
H835 H 0.19839 0.88205 0.33523 0.0
H836 H 0.36915 0.89248 0.5687 0.0
O837 O 0.34718 0.84146 0.58934 0.0
H838 H 0.43744 0.86796 0.40718 0.0
H839 H 0.41717 0.7697 0.54083 0.0
H840 H 0.32984 0.7944 0.42444 0.0
H841 H 0.39084 0.84215 0.41677 0.0
H842 H 0.39293 0.81686 0.55441 0.0
O843 O 0.29979 0.93526 0.46894 0.0
H844 H 0.24177 0.8659 0.38853 0.0
H845 H 0.25025 0.94858 0.46942 0.0
H846 H 0.35362 0.74713 0.40888 0.0
H847 H 0.41549 0.91887 0.56094 0.0
H848 H 0.3976 0.73452 0.46739 0.0
H849 H 0.45001 0.90667 0.47958 0.0
O850 O 0.30361 0.82372 0.5106 0.0
H851 H 0.27915 0.93819 0.67524 0.0
H852 H 0.22883 0.87809 0.52597 0.0
H853 H 0.20525 0.88787 0.62242 0.0
H854 H 0.23035 0.91822 0.69782 0.0
H855 H 0.30233 0.92729 0.57893 0.0
H856 H 0.20691 0.96557 0.41678 0.0
H857 H 0.18059 0.93235 0.34869 0.0
O858 O 0.26953 0.85341 0.47379 0.0
C859 C 0.32285 0.86567 0.37539 0.0
C860 C 0.21008 0.89699 0.3636 0.0
C861 C 0.21484 0.94381 0.40935 0.0
N862 N 0.25024 0.90667 0.42914 0.0
C863 C 0.23515 0.88805 0.39333 0.0
C864 C 0.23981 0.93409 0.43841 0.0
C865 C 0.20003 0.92515 0.37133 0.0
C866 C 0.3841 0.88699 0.53343 0.0
N867 N 0.37729 0.86584 0.4933 0.0
C868 C 0.41029 0.90203 0.52914 0.0
C869 C 0.42963 0.89519 0.48347 0.0
C870 C 0.4226 0.87347 0.44285 0.0
C871 C 0.39617 0.85895 0.44847 0.0
C872 C 0.39806 0.77496 0.515 0.0
C873 C 0.34911 0.78914 0.44969 0.0
C874 C 0.38419 0.8016 0.52263 0.0
N875 N 0.36015 0.80845 0.48985 0.0
C876 C 0.36241 0.76231 0.44086 0.0
C877 C 0.38707 0.75524 0.47376 0.0
C878 C 0.27761 0.82904 0.49485 0.0
C879 C 0.26794 0.92503 0.64266 0.0
C880 C 0.24009 0.89111 0.5586 0.0
C881 C 0.22652 0.89669 0.61312 0.0
C882 C 0.2406 0.91376 0.65536 0.0
N883 N 0.26699 0.90212 0.54648 0.0
C884 C 0.28085 0.919 0.58768 0.0
Co885 Co 0.17035 0.3376 0.50977 0.0
Co886 Co 0.12311 0.2871 0.45386 0.0
O887 O 0.13272 0.31794 0.51038 0.0
C888 C 0.15286 0.33104 0.63883 0.0
O889 O 0.12781 0.31974 0.62419 0.0
C890 C 0.06875 0.3238 0.46182 0.0
O891 O 0.08386 0.34771 0.45618 0.0
O892 O 0.1317 0.31416 0.38602 0.0
O893 O 0.17187 0.33611 0.42074 0.0
H894 H 0.13719 0.22794 0.26815 0.0
H895 H 0.11859 0.3651 0.56756 0.0
O896 O 0.17071 0.33981 0.59932 0.0
H897 H 0.15411 0.43665 0.42226 0.0
H898 H 0.24392 0.41112 0.57762 0.0
H899 H 0.22584 0.32765 0.44593 0.0
H900 H 0.17916 0.38997 0.43455 0.0
H901 H 0.19597 0.38746 0.57589 0.0
O902 O 0.08112 0.29923 0.45689 0.0
H903 H 0.14969 0.26535 0.34224 0.0
H904 H 0.07396 0.24538 0.44199 0.0
H905 H 0.27401 0.35082 0.44563 0.0
H906 H 0.09316 0.41157 0.55742 0.0
H907 H 0.2833 0.3929 0.51187 0.0
H908 H 0.11085 0.44784 0.48421 0.0
O909 O 0.19012 0.29936 0.51617 0.0
H910 H 0.08 0.25871 0.65169 0.0
H911 H 0.14107 0.22659 0.4837 0.0
H912 H 0.13352 0.19402 0.56918 0.0
H913 H 0.10284 0.21002 0.65412 0.0
H914 H 0.08843 0.29078 0.56572 0.0
H915 H 0.06045 0.20797 0.36868 0.0
H916 H 0.09226 0.19895 0.28114 0.0
O917 O 0.16435 0.27243 0.45227 0.0
C918 C 0.15452 0.32958 0.37856 0.0
C919 C 0.12324 0.23156 0.30627 0.0
C920 C 0.08015 0.22038 0.36265 0.0
N921 N 0.11281 0.25729 0.39679 0.0
C922 C 0.13028 0.25262 0.34851 0.0
C923 C 0.0879 0.24162 0.40399 0.0
C924 C 0.098 0.21533 0.31355 0.0
C925 C 0.12683 0.38079 0.53652 0.0
N926 N 0.15085 0.37488 0.503 0.0
C927 C 0.11217 0.4071 0.53059 0.0
C928 C 0.12205 0.4274 0.48943 0.0
C929 C 0.14632 0.42114 0.45471 0.0
C930 C 0.16045 0.39463 0.46199 0.0
C931 C 0.24011 0.39288 0.54837 0.0
C932 C 0.22962 0.34611 0.47432 0.0
C933 C 0.21302 0.37936 0.54728 0.0
N934 N 0.20799 0.35644 0.51014 0.0
C935 C 0.25698 0.35907 0.47422 0.0
C936 C 0.26219 0.38265 0.51147 0.0
C937 C 0.18622 0.27613 0.48644 0.0
C938 C 0.0935 0.25152 0.61505 0.0
C939 C 0.12788 0.23389 0.52061 0.0
C940 C 0.12356 0.21525 0.56881 0.0
C941 C 0.10633 0.22421 0.6164 0.0
N942 N 0.11559 0.26086 0.51995 0.0
C943 C 0.09834 0.2696 0.56613 0.0
C944 C 0.21866 0.51999 0.03042 0.0
C945 C 0.19753 0.53287 0.99264 0.0
C946 C 0.17351 0.48533 0.98525 0.0
C947 C 0.19212 0.47407 0.03049 0.0
N948 N 0.22737 0.48439 0.10717 0.0
N949 N 0.15239 0.52805 0.93928 0.0
C950 C 0.21313 0.49257 0.05644 0.0
C951 C 0.17402 0.51565 0.97212 0.0
N952 N 0.24461 0.53322 0.04006 0.0
N953 N 0.15678 0.46709 0.95192 0.0
H954 H 0.15302 0.5496 0.92537 0.0
H955 H 0.13314 0.51735 0.92894 0.0
H956 H 0.15704 0.44471 0.95709 0.0
H957 H 0.14501 0.47388 0.91481 0.0
H958 H 0.26149 0.52362 0.06387 0.0
H959 H 0.25075 0.55158 0.01685 0.0
H960 H 0.24111 0.49825 0.13056 0.0
H961 H 0.22278 0.46518 0.12975 0.0
C962 C 0.49244 0.17188 0.02691 0.0
C963 C 0.48058 0.18914 0.98013 0.0
C964 C 0.52727 0.21423 0.97141 0.0
C965 C 0.54033 0.19454 0.01213 0.0
N966 N 0.53573 0.15176 0.07289 0.0
N967 N 0.48961 0.22153 0.89789 0.0
C968 C 0.52305 0.17231 0.03772 0.0
C969 C 0.49891 0.20872 0.94941 0.0
N970 N 0.47452 0.15656 0.06372 0.0
N971 N 0.5414 0.23882 0.95489 0.0
H972 H 0.4695 0.21703 0.87869 0.0
H973 H 0.50311 0.23395 0.87075 0.0
H974 H 0.56106 0.24473 0.97345 0.0
H975 H 0.53184 0.25509 0.92936 0.0
H976 H 0.48175 0.14601 0.102 0.0
H977 H 0.45203 0.15679 0.05975 0.0
H978 H 0.5249 0.13322 0.08716 0.0
H979 H 0.55763 0.15236 0.08467 0.0
C980 C 0.83237 0.50231 0.94695 0.0
C981 C 0.83248 0.47973 0.9898 0.0
C982 C 0.83125 0.51597 0.07049 0.0
C983 C 0.83215 0.53854 0.02767 0.0
N984 N 0.84167 0.55302 0.92617 0.0
N985 N 0.83995 0.46524 0.09204 0.0
C986 C 0.83523 0.53165 0.96615 0.0
C987 C 0.83441 0.48662 0.05153 0.0
N988 N 0.82908 0.4958 0.8879 0.0
N989 N 0.82687 0.52251 0.12924 0.0
H990 H 0.84284 0.44367 0.07981 0.0
H991 H 0.84433 0.46919 0.13686 0.0
H992 H 0.82566 0.54375 0.14495 0.0
H993 H 0.82257 0.50696 0.16168 0.0
H994 H 0.82539 0.51138 0.8552 0.0
H995 H 0.82815 0.47457 0.87209 0.0
H996 H 0.8468 0.54906 0.88168 0.0
H997 H 0.84461 0.57453 0.93877 0.0
C998 C 0.52154 0.80111 0.96013 0.0
C999 C 0.54019 0.82231 0.98505 0.0
C1000 C 0.49852 0.84123 0.04251 0.0
C1001 C 0.48107 0.81778 0.02277 0.0
N1002 N 0.48023 0.77043 0.9772 0.0
N1003 N 0.54728 0.85819 0.06236 0.0
C1004 C 0.49388 0.79618 0.9861 0.0
C1005 C 0.52893 0.84135 0.02955 0.0
N1006 N 0.52966 0.78631 0.91005 0.0
N1007 N 0.48619 0.86328 0.07423 0.0
H1008 H 0.56971 0.85754 0.05751 0.0
H1009 H 0.54051 0.87038 0.0989 0.0
H1010 H 0.46454 0.86299 0.08786 0.0
H1011 H 0.49707 0.88248 0.08386 0.0
H1012 H 0.51571 0.7724 0.88731 0.0
H1013 H 0.5489 0.79058 0.88715 0.0
H1014 H 0.4897 0.75318 0.95438 0.0
H1015 H 0.46147 0.76497 0.99996 0.0
C1016 C 0.68379 0.02989 0.55498 0.0
C1017 C 0.6853 0.03641 0.49301 0.0
C1018 C 0.68218 0.98438 0.47084 0.0
C1019 C 0.68583 0.97784 0.53236 0.0
N1020 N 0.69199 0.99445 0.63329 0.0
N1021 N 0.68789 0.01969 0.39144 0.0
C1022 C 0.6871 1.00065 0.57457 0.0
C1023 C 0.68503 0.01357 0.45076 0.0
N1024 N 0.67858 0.05151 0.59514 0.0
N1025 N 0.67511 0.96284 0.43177 0.0
H1026 H 0.68876 0.04081 0.37501 0.0
H1027 H 0.69127 1.00387 0.35906 0.0
H1028 H 0.67181 0.94152 0.44529 0.0
H1029 H 0.66966 0.96655 0.38735 0.0
H1030 H 0.67452 0.04781 0.64019 0.0
H1031 H 0.67565 0.07302 0.58251 0.0
H1032 H 0.69656 0.0102 0.66516 0.0
H1033 H 0.69336 0.97331 0.64945 0.0
C1034 C 0.99623 0.71476 0.44771 0.0
C1035 C 0.97763 0.69516 0.47779 0.0
C1036 C 0.01948 0.67873 0.5377 0.0
C1037 C 0.03716 0.70063 0.51193 0.0
N1038 N 0.03869 0.74489 0.45452 0.0
N1039 N 0.97065 0.66331 0.56219 0.0
C1040 C 0.02442 0.72032 0.47074 0.0
C1041 C 0.98899 0.67829 0.52563 0.0
N1042 N 0.98745 0.72742 0.39564 0.0
N1043 N 0.03166 0.65851 0.57445 0.0
H1044 H 0.9482 0.66366 0.55741 0.0
H1045 H 0.97744 0.65303 0.60111 0.0
H1046 H 0.05328 0.65938 0.58806 0.0
H1047 H 0.02066 0.64005 0.58865 0.0
H1048 H 1.00123 0.73976 0.36895 0.0
H1049 H 0.96757 0.72285 0.37553 0.0
H1050 H 0.02932 0.76109 0.42853 0.0
H1051 H 0.05816 0.75092 0.47373 0.0
C1052 C 0.34475 0.02031 0.54044 0.0
C1053 C 0.32106 0.03751 0.52056 0.0
C1054 C 0.30542 0.99731 0.45659 0.0
C1055 C 0.32648 0.97876 0.48223 0.0
N1056 N 0.36249 0.97176 0.55949 0.0
N1057 N 0.27386 0.03784 0.47365 0.0
C1058 C 0.34536 0.99 0.52697 0.0
C1059 C 0.2999 0.02468 0.48284 0.0
N1060 N 0.36648 0.03272 0.57296 0.0
N1061 N 0.29102 0.98913 0.40607 0.0
H1062 H 0.2677 0.05611 0.49715 0.0
H1063 H 0.25695 0.02826 0.44993 0.0
H1064 H 0.2955 0.96984 0.38367 0.0
H1065 H 0.2772 1.00299 0.38283 0.0
H1066 H 0.38583 0.02207 0.58284 0.0
H1067 H 0.3658 0.05423 0.58708 0.0
H1068 H 0.37438 0.97849 0.59648 0.0
H1069 H 0.36268 0.94942 0.55355 0.0
C1070 C 0.01822 0.3048 0.44697 0.0
C1071 C 0.03698 0.3244 0.47655 0.0
C1072 C 0.99541 0.34077 0.53744 0.0
C1073 C 0.9778 0.31857 0.51274 0.0
N1074 N 0.97632 0.2741 0.45605 0.0
N1075 N 0.04427 0.35652 0.5605 0.0
C1076 C 0.99037 0.29895 0.47123 0.0
C1077 C 0.02582 0.34136 0.52454 0.0
N1078 N 0.02655 0.29234 0.39438 0.0
N1079 N 0.98326 0.36112 0.57396 0.0
H1080 H 0.06668 0.35629 0.55516 0.0
H1081 H 0.0376 0.36685 0.59947 0.0
H1082 H 0.96165 0.36027 0.58771 0.0
H1083 H 0.99424 0.37968 0.58761 0.0
H1084 H 0.0126 0.27989 0.36831 0.0
H1085 H 0.04613 0.29723 0.37331 0.0
H1086 H 0.98563 0.25802 0.42963 0.0
H1087 H 0.95728 0.26777 0.47668 0.0
C1088 C 0.28119 0.29427 0.0672 0.0
C1089 C 0.26101 0.29978 0.02019 0.0
C1090 C 0.28365 0.25983 0.96321 0.0
C1091 C 0.30576 0.25711 0.00664 0.0
N1092 N 0.32775 0.27499 0.09677 0.0
N1093 N 0.249 0.29136 0.9162 0.0
C1094 C 0.30519 0.27539 0.05746 0.0
C1095 C 0.26372 0.28337 0.96635 0.0
N1096 N 0.27685 0.30569 0.1226 0.0
N1097 N 0.28152 0.23991 0.91855 0.0
H1098 H 0.23591 0.3095 0.91413 0.0
H1099 H 0.2526 0.28209 0.87448 0.0
H1100 H 0.29622 0.22302 0.91381 0.0
H1101 H 0.26383 0.23872 0.88971 0.0
H1102 H 0.28869 0.29948 0.16005 0.0
H1103 H 0.25956 0.31902 0.13301 0.0
H1104 H 0.33062 0.29047 0.13005 0.0
H1105 H 0.3448 0.26044 0.0932 0.0
C1106 C 0.73329 0.30184 0.94977 0.0
C1107 C 0.74989 0.31321 0.99808 0.0
C1108 C 0.72942 0.27575 0.0638 0.0
C1109 C 0.71176 0.26526 0.01702 0.0
N1110 N 0.69262 0.27238 0.91816 0.0
N1111 N 0.75342 0.31746 0.10502 0.0
C1112 C 0.71252 0.27947 0.96073 0.0
C1113 C 0.74488 0.30202 0.05628 0.0
N1114 N 0.73745 0.31173 0.89314 0.0
N1115 N 0.7325 0.26008 0.11487 0.0
H1116 H 0.76174 0.33829 0.10114 0.0
H1117 H 0.74841 0.31142 0.14862 0.0
H1118 H 0.723 0.23986 0.11997 0.0
H1119 H 0.74719 0.26552 0.1484 0.0
H1120 H 0.72977 0.30104 0.85542 0.0
H1121 H 0.74933 0.3301 0.88323 0.0
H1122 H 0.6896 0.28407 0.87894 0.0
H1123 H 0.67722 0.2563 0.92459 0.0
C1124 C 0.73481 0.71713 0.06849 0.0
C1125 C 0.75271 0.70753 0.02029 0.0
C1126 C 0.73318 0.74708 0.95856 0.0
C1127 C 0.71326 0.75466 1.00371 0.0
N1128 N 0.69276 0.74485 0.10031 0.0
N1129 N 0.7598 0.70815 0.91348 0.0
C1130 C 0.71342 0.73905 0.05832 0.0
C1131 C 0.74929 0.72108 0.96364 0.0
N1132 N 0.73861 0.70628 0.12452 0.0
N1133 N 0.73781 0.7653 0.91177 0.0
H1134 H 0.76825 0.68735 0.91442 0.0
H1135 H 0.75607 0.71609 0.87064 0.0
H1136 H 0.72822 0.78564 0.90991 0.0
H1137 H 0.75392 0.76184 0.87988 0.0
H1138 H 0.7293 0.71537 0.16247 0.0
H1139 H 0.75242 0.68926 0.13417 0.0
H1140 H 0.6892 0.73202 0.13779 0.0
H1141 H 0.67755 0.76132 0.09513 0.0
C1142 C 0.2867 0.71507 0.94409 0.0
C1143 C 0.27093 0.70186 0.99135 0.0
C1144 C 0.29773 0.73172 0.06379 0.0
C1145 C 0.31204 0.74638 0.01642 0.0
N1146 N 0.32953 0.74193 0.9158 0.0
N1147 N 0.2733 0.68798 0.09432 0.0
C1148 C 0.3091 0.73528 0.95762 0.0
C1149 C 0.27972 0.70756 0.05084 0.0
N1150 N 0.28077 0.70843 0.8862 0.0
N1151 N 0.30132 0.74036 0.1214 0.0
H1152 H 0.26456 0.66794 0.08363 0.0
H1153 H 0.28088 0.68939 0.13799 0.0
H1154 H 0.31727 0.75475 0.13452 0.0
H1155 H 0.28792 0.73343 0.15604 0.0
H1156 H 0.28801 0.7209 0.85042 0.0
H1157 H 0.26869 0.69053 0.8739 0.0
H1158 H 0.3306 0.73219 0.87395 0.0
H1159 H 0.34758 0.75446 0.9259 0.0
C1160 C 0.79661 0.78307 0.45262 0.0
C1161 C 0.80442 0.76318 0.49858 0.0
C1162 C 0.76782 0.78607 0.56363 0.0
C1163 C 0.76264 0.80788 0.52054 0.0
N1164 N 0.77655 0.8298 0.42735 0.0
N1165 N 0.8028 0.75277 0.60452 0.0
C1166 C 0.77846 0.80719 0.46619 0.0
C1167 C 0.7915 0.76662 0.55601 0.0
N1168 N 0.80514 0.77845 0.39511 0.0
N1169 N 0.74971 0.78324 0.6113 0.0
H1170 H 0.82158 0.74033 0.60258 0.0
H1171 H 0.79572 0.75669 0.64794 0.0
H1172 H 0.73165 0.7964 0.61686 0.0
H1173 H 0.75085 0.76597 0.64113 0.0
H1174 H 0.79713 0.79025 0.3591 0.0
H1175 H 0.81787 0.76111 0.3821 0.0
H1176 H 0.79017 0.8323 0.39061 0.0
H1177 H 0.76326 0.84748 0.43527 0.0
C1178 C 0.24988 0.79375 0.5594 0.0
C1179 C 0.25547 0.80562 0.50214 0.0
C1180 C 0.2175 0.77416 0.46072 0.0
C1181 C 0.21425 0.76036 0.51702 0.0
N1182 N 0.23541 0.75097 0.6131 0.0
N1183 N 0.24895 0.80206 0.39582 0.0
C1184 C 0.2327 0.76844 0.56454 0.0
C1185 C 0.24043 0.79444 0.45196 0.0
N1186 N 0.25991 0.80718 0.60936 0.0
N1187 N 0.19846 0.76824 0.41582 0.0
H1188 H 0.26663 0.81557 0.38816 0.0
H1189 H 0.24057 0.79263 0.3573 0.0
H1190 H 0.18163 0.75343 0.42081 0.0
H1191 H 0.19784 0.77978 0.37592 0.0
H1192 H 0.25429 0.80064 0.65236 0.0
H1193 H 0.27094 0.82672 0.60749 0.0
H1194 H 0.25028 0.75482 0.64722 0.0
H1195 H 0.22589 0.73061 0.61436 0.0
C1196 C 0.23693 0.21078 0.46459 0.0
C1197 C 0.24691 0.20635 0.52372 0.0
C1198 C 0.21092 0.24204 0.55815 0.0
C1199 C 0.20595 0.25089 0.49819 0.0
N1200 N 0.21383 0.24206 0.39298 0.0
N1201 N 0.24031 0.21554 0.62877 0.0
C1202 C 0.21873 0.23473 0.45101 0.0
C1203 C 0.23293 0.22124 0.57115 0.0
N1204 N 0.24278 0.19044 0.42219 0.0
N1205 N 0.19299 0.2518 0.60236 0.0
H1206 H 0.25175 0.19716 0.64099 0.0
H1207 H 0.23494 0.22903 0.66434 0.0
H1208 H 0.17538 0.26534 0.59403 0.0
H1209 H 0.19334 0.2439 0.64582 0.0
H1210 H 0.23415 0.19077 0.37928 0.0
H1211 H 0.25275 0.171 0.43313 0.0
H1212 H 0.22618 0.23405 0.35768 0.0
H1213 H 0.19821 0.25687 0.37999 0.0
C1214 C 0.79038 0.2373 0.56653 0.0
C1215 C 0.80686 0.24954 0.51984 0.0
C1216 C 0.78563 0.21392 0.45015 0.0
C1217 C 0.7702 0.201 0.49839 0.0
N1218 N 0.76907 0.19353 0.60463 0.0
N1219 N 0.82381 0.24673 0.4183 0.0
C1220 C 0.77603 0.21063 0.55726 0.0
C1221 C 0.80549 0.23705 0.46184 0.0
N1222 N 0.78673 0.25198 0.61866 0.0
N1223 N 0.7813 0.20455 0.39321 0.0
H1224 H 0.83836 0.26362 0.42519 0.0
H1225 H 0.82643 0.23662 0.37716 0.0
H1226 H 0.77061 0.18544 0.38321 0.0
H1227 H 0.78798 0.21598 0.35563 0.0
H1228 H 0.77309 0.24481 0.65271 0.0
H1229 H 0.79394 0.27315 0.62359 0.0
H1230 H 0.77464 0.19864 0.64844 0.0
H1231 H 0.76157 0.17249 0.59862 0.0
C1232 C 0.1875 0.32471 0.2901 0.0
C1233 C 0.16333 0.33842 0.31727 0.0
C1234 C 0.15916 0.37052 0.22987 0.0
C1235 C 0.18108 0.3542 0.2005 0.0
N1236 N 0.20996 0.31052 0.19786 0.0
N1237 N 0.12494 0.37372 0.31259 0.0
C1238 C 0.19344 0.32979 0.22919 0.0
C1239 C 0.14871 0.36116 0.28691 0.0
N1240 N 0.20546 0.3073 0.32255 0.0
N1241 N 0.14833 0.3948 0.20313 0.0
H1242 H 0.11765 0.36822 0.35516 0.0
H1243 H 0.11149 0.3884 0.29078 0.0
H1244 H 0.15486 0.40152 0.16081 0.0
H1245 H 0.13429 0.40925 0.224 0.0
H1246 H 0.22509 0.29937 0.30615 0.0
H1247 H 0.20245 0.30332 0.36767 0.0
H1248 H 0.21684 0.29077 0.21538 0.0
H1249 H 0.21402 0.31262 0.15251 0.0
C1250 C 0.69358 0.18594 0.29767 0.0
C1251 C 0.68014 0.16098 0.32238 0.0
C1252 C 0.64908 0.15722 0.23286 0.0
C1253 C 0.66237 0.18245 0.20877 0.0
N1254 N 0.69366 0.22348 0.22249 0.0
N1255 N 0.64209 0.12541 0.31849 0.0
C1256 C 0.68363 0.19746 0.24249 0.0
C1257 C 0.65706 0.14726 0.29123 0.0
N1258 N 0.71659 0.1983 0.32638 0.0
N1259 N 0.62936 0.14238 0.19918 0.0
H1260 H 0.64763 0.11746 0.36052 0.0
H1261 H 0.62313 0.11638 0.30159 0.0
H1262 H 0.62211 0.1498 0.15783 0.0
H1263 H 0.62127 0.12209 0.21041 0.0
H1264 H 0.73014 0.21377 0.30738 0.0
H1265 H 0.72339 0.1918 0.36845 0.0
H1266 H 0.70629 0.23761 0.24759 0.0
H1267 H 0.6873 0.23209 0.18187 0.0
C1268 C 0.82924 0.69169 0.2867 0.0
C1269 C 0.8541 0.67965 0.31461 0.0
C1270 C 0.85965 0.646 0.22985 0.0
C1271 C 0.83655 0.66027 0.19981 0.0
N1272 N 0.80427 0.70144 0.19455 0.0
N1273 N 0.89429 0.64636 0.31206 0.0
C1274 C 0.82285 0.68451 0.22673 0.0
C1275 C 0.86978 0.6571 0.28582 0.0
N1276 N 0.81098 0.70936 0.31798 0.0
N1277 N 0.87185 0.62192 0.2048 0.0
H1278 H 0.90155 0.65332 0.3537 0.0
H1279 H 0.90838 0.63188 0.29144 0.0
H1280 H 0.86555 0.61396 0.16324 0.0
H1281 H 0.88688 0.60879 0.22634 0.0
H1282 H 0.79082 0.716 0.30198 0.0
H1283 H 0.81449 0.71498 0.36224 0.0
H1284 H 0.79639 0.72126 0.2098 0.0
H1285 H 0.79895 0.69724 0.15039 0.0
C1286 C 0.35839 0.86823 0.28886 0.0
C1287 C 0.33031 0.86113 0.31073 0.0
C1288 C 0.32189 0.83112 0.22217 0.0
C1289 C 0.34979 0.83835 0.19911 0.0
N1290 N 0.3916 0.86965 0.20444 0.0
N1291 N 0.2825 0.84403 0.28784 0.0
C1292 C 0.36733 0.85851 0.2309 0.0
C1293 C 0.31124 0.84512 0.27411 0.0
N1294 N 0.37631 0.88474 0.32331 0.0
N1295 N 0.30572 0.80992 0.19595 0.0
H1296 H 0.27415 0.85526 0.3239 0.0
H1297 H 0.26675 0.83526 0.25986 0.0
H1298 H 0.31222 0.79919 0.15767 0.0
H1299 H 0.28711 0.80115 0.21516 0.0
H1300 H 0.39824 0.88785 0.31419 0.0
H1301 H 0.36922 0.8946 0.36257 0.0
H1302 H 0.40375 0.88649 0.22246 0.0
H1303 H 0.39832 0.86385 0.16168 0.0
C1304 C 0.18134 0.69663 0.73027 0.0
C1305 C 0.15965 0.68101 0.69905 0.0
C1306 C 0.15686 0.64623 0.78261 0.0
C1307 C 0.17999 0.66091 0.81174 0.0
N1308 N 0.21557 0.69915 0.81158 0.0
N1309 N 0.12773 0.63999 0.69277 0.0
C1310 C 0.19236 0.68598 0.7852 0.0
C1311 C 0.1476 0.65555 0.72462 0.0
N1312 N 0.19117 0.72219 0.70761 0.0
N1313 N 0.14292 0.62421 0.81154 0.0
H1314 H 0.11938 0.64715 0.6521 0.0
H1315 H 0.12053 0.61948 0.70489 0.0
H1316 H 0.14928 0.61673 0.85344 0.0
H1317 H 0.12396 0.61456 0.79617 0.0
H1318 H 0.2034 0.73717 0.73145 0.0
H1319 H 0.18562 0.72925 0.66526 0.0
H1320 H 0.22853 0.71463 0.79095 0.0
H1321 H 0.22316 0.69336 0.85343 0.0
C1322 C 0.32692 0.1903 0.73126 0.0
C1323 C 0.33783 0.16475 0.70361 0.0
C1324 C 0.36858 0.15575 0.79183 0.0
C1325 C 0.35807 0.18162 0.81851 0.0
N1326 N 0.32976 0.22519 0.8116 0.0
N1327 N 0.37284 0.12599 0.70266 0.0
C1328 C 0.33806 0.19937 0.78739 0.0
C1329 C 0.35962 0.14813 0.73272 0.0
N1330 N 0.30486 0.20537 0.70495 0.0
N1331 N 0.38691 0.13828 0.82345 0.0
H1332 H 0.36708 0.11997 0.65943 0.0
H1333 H 0.39097 0.11497 0.71842 0.0
H1334 H 0.3955 0.14427 0.86468 0.0
H1335 H 0.39256 0.11741 0.81043 0.0
H1336 H 0.29293 0.22155 0.72596 0.0
H1337 H 0.29709 0.20055 0.66274 0.0
H1338 H 0.31871 0.2413 0.78843 0.0
H1339 H 0.33532 0.23123 0.85469 0.0
C1340 C 0.86122 0.36951 0.78996 0.0
C1341 C 0.83843 0.35539 0.8213 0.0
C1342 C 0.83512 0.31903 0.74122 0.0
C1343 C 0.85641 0.33417 0.70775 0.0
N1344 N 0.88878 0.37472 0.69774 0.0
N1345 N 0.80272 0.31739 0.82609 0.0
C1346 C 0.86933 0.35961 0.73163 0.0
C1347 C 0.8253 0.33024 0.79677 0.0
N1348 N 0.87582 0.39164 0.81703 0.0
N1349 N 0.8248 0.29328 0.72037 0.0
H1350 H 0.79623 0.32353 0.8686 0.0
H1351 H 0.78927 0.30173 0.80751 0.0
H1352 H 0.83055 0.28523 0.67887 0.0
H1353 H 0.81227 0.27891 0.7451 0.0
H1354 H 0.8946 0.40099 0.79997 0.0
H1355 H 0.87016 0.39956 0.85903 0.0
H1356 H 0.89655 0.39515 0.70882 0.0
H1357 H 0.89611 0.36736 0.6564 0.0
C1358 C 0.64914 0.86172 0.79309 0.0
C1359 C 0.66304 0.83747 0.81973 0.0
C1360 C 0.69816 0.83631 0.73729 0.0
C1361 C 0.68296 0.85882 0.70785 0.0
N1362 N 0.64246 0.89167 0.7047 0.0
N1363 N 0.69768 0.79871 0.81198 0.0
C1364 C 0.65801 0.87124 0.73503 0.0
C1365 C 0.68671 0.82403 0.79032 0.0
N1366 N 0.62801 0.87608 0.82399 0.0
N1367 N 0.72416 0.8271 0.71529 0.0
H1368 H 0.68999 0.7893 0.85095 0.0
H1369 H 0.71244 0.7858 0.78892 0.0
H1370 H 0.73278 0.83515 0.67586 0.0
H1371 H 0.73819 0.81339 0.73828 0.0
H1372 H 0.61921 0.89577 0.81049 0.0
H1373 H 0.6204 0.86904 0.86534 0.0
H1374 H 0.62225 0.89923 0.7184 0.0
H1375 H 0.64921 0.90003 0.66377 0.0
C1376 C 0.84569 0.70192 0.73825 0.0
C1377 C 0.85093 0.67806 0.69971 0.0
C1378 C 0.83659 0.64399 0.77844 0.0
C1379 C 0.8324 0.66775 0.81755 0.0
N1380 N 0.83269 0.71914 0.83702 0.0
N1381 N 0.85594 0.62659 0.68464 0.0
C1382 C 0.83691 0.69668 0.79806 0.0
C1383 C 0.84731 0.64914 0.72 0.0
N1384 N 0.84812 0.72959 0.71696 0.0
N1385 N 0.83068 0.61644 0.79739 0.0
H1386 H 0.8645 0.62943 0.64216 0.0
H1387 H 0.85702 0.60516 0.69868 0.0
H1388 H 0.8256 0.61124 0.84137 0.0
H1389 H 0.82932 0.59867 0.76904 0.0
H1390 H 0.84119 0.74793 0.73971 0.0
H1391 H 0.85611 0.73453 0.67476 0.0
H1392 H 0.83935 0.7403 0.82924 0.0
H1393 H 0.82297 0.71662 0.87871 0.0
C1394 C 0.34946 0.86554 0.73007 0.0
C1395 C 0.33721 0.84384 0.69332 0.0
C1396 C 0.33194 0.81202 0.77961 0.0
C1397 C 0.34773 0.83208 0.81487 0.0
N1398 N 0.37621 0.87583 0.82018 0.0
N1399 N 0.32109 0.79455 0.68035 0.0
C1400 C 0.3577 0.85838 0.78926 0.0
C1401 C 0.32994 0.8164 0.71716 0.0
N1402 N 0.35299 0.89303 0.70876 0.0
N1403 N 0.3172 0.78986 0.80622 0.0
H1404 H 0.31904 0.79704 0.63431 0.0
H1405 H 0.31821 0.77332 0.69489 0.0
H1406 H 0.31608 0.78755 0.85237 0.0
H1407 H 0.30327 0.77606 0.78323 0.0
H1408 H 0.35891 0.91044 0.73568 0.0
H1409 H 0.34766 0.89899 0.66527 0.0
H1410 H 0.38642 0.89381 0.8016 0.0
H1411 H 0.38375 0.87056 0.8624 0.0
C1412 C 0.16331 0.31023 0.73986 0.0
C1413 C 0.16042 0.33486 0.70237 0.0
C1414 C 0.17844 0.3665 0.782 0.0
C1415 C 0.18074 0.34201 0.81982 0.0
N1416 N 0.17445 0.29087 0.8378 0.0
N1417 N 0.15961 0.38671 0.69019 0.0
C1418 C 0.17283 0.31396 0.79962 0.0
C1419 C 0.16669 0.36307 0.72394 0.0
N1420 N 0.15806 0.28317 0.71761 0.0
N1421 N 0.18711 0.39314 0.80185 0.0
H1422 H 0.14996 0.3851 0.6484 0.0
H1423 H 0.16072 0.40797 0.70525 0.0
H1424 H 0.19295 0.39732 0.84587 0.0
H1425 H 0.18993 0.41099 0.77415 0.0
H1426 H 0.16336 0.26403 0.73944 0.0
H1427 H 0.14928 0.27947 0.6756 0.0
H1428 H 0.16521 0.27074 0.82945 0.0
H1429 H 0.18437 0.2919 0.87952 0.0
C1430 C 0.69883 0.19493 0.79232 0.0
C1431 C 0.68309 0.17468 0.82729 0.0
C1432 C 0.68276 0.14085 0.7428 0.0
C1433 C 0.69441 0.16289 0.70601 0.0
N1434 N 0.71091 0.2121 0.69341 0.0
N1435 N 0.65734 0.12925 0.83401 0.0
C1436 C 0.70162 0.19033 0.73004 0.0
C1437 C 0.67459 0.14769 0.80232 0.0
N1438 N 0.7124 0.21779 0.81916 0.0
N1439 N 0.67937 0.11345 0.72084 0.0
H1440 H 0.65073 0.13346 0.87737 0.0
H1441 H 0.64763 0.11094 0.81577 0.0
H1442 H 0.68412 0.10789 0.67682 0.0
H1443 H 0.67405 0.09572 0.74735 0.0
H1444 H 0.72635 0.2318 0.79674 0.0
H1445 H 0.71247 0.22078 0.86526 0.0
H1446 H 0.71331 0.23344 0.70755 0.0
H1447 H 0.71421 0.20937 0.64774 0.0
C1448 C 0.83883 0.37273 0.30457 0.0
C1449 C 0.8439 0.34391 0.32417 0.0
C1450 C 0.82931 0.32535 0.22636 0.0
C1451 C 0.82737 0.35414 0.20495 0.0
N1452 N 0.83388 0.4054 0.22049 0.0
N1453 N 0.84796 0.2929 0.30159 0.0
C1454 C 0.83277 0.37795 0.2433 0.0
C1455 C 0.84034 0.32025 0.28441 0.0
N1456 N 0.84024 0.39516 0.3442 0.0
N1457 N 0.81957 0.30291 0.19195 0.0
H1458 H 0.85536 0.28795 0.34417 0.0
H1459 H 0.84915 0.27545 0.27227 0.0
H1460 H 0.81085 0.3058 0.14944 0.0
H1461 H 0.81743 0.28179 0.20759 0.0
H1462 H 0.83321 0.41605 0.33442 0.0
H1463 H 0.84689 0.39265 0.38826 0.0
H1464 H 0.84103 0.42329 0.24457 0.0
H1465 H 0.82987 0.41015 0.17579 0.0
C1466 C 0.66871 0.81428 0.24403 0.0
C1467 C 0.6652 0.83859 0.20581 0.0
C1468 C 0.6802 0.87125 0.28645 0.0
C1469 C 0.68231 0.84709 0.32524 0.0
N1470 N 0.67683 0.79592 0.3439 0.0
N1471 N 0.66263 0.89035 0.19252 0.0
C1472 C 0.67594 0.81871 0.3049 0.0
C1473 C 0.66984 0.86713 0.22736 0.0
N1474 N 0.66645 0.78687 0.22147 0.0
N1475 N 0.6878 0.89821 0.30629 0.0
H1476 H 0.65425 0.88826 0.14966 0.0
H1477 H 0.66246 0.91166 0.2075 0.0
H1478 H 0.69295 0.90266 0.35059 0.0
H1479 H 0.69055 0.916 0.27839 0.0
H1480 H 0.67255 0.76828 0.24448 0.0
H1481 H 0.66007 0.78254 0.17795 0.0
H1482 H 0.66835 0.77555 0.33456 0.0
H1483 H 0.68495 0.79752 0.38717 0.0
C1484 C 0.17387 0.64616 0.29216 0.0
C1485 C 0.16922 0.67474 0.31346 0.0
C1486 C 0.18167 0.69466 0.21522 0.0
C1487 C 0.18711 0.66611 0.19451 0.0
N1488 N 0.19124 0.6148 0.21303 0.0
N1489 N 0.17077 0.72642 0.29826 0.0
C1490 C 0.18428 0.6419 0.23308 0.0
C1491 C 0.17347 0.69905 0.27563 0.0
N1492 N 0.16657 0.62304 0.32723 0.0
N1493 N 0.18448 0.7176 0.17698 0.0
H1494 H 0.16353 0.73059 0.3413 0.0
H1495 H 0.17699 0.74515 0.27597 0.0
H1496 H 0.19386 0.71592 0.13479 0.0
H1497 H 0.1768 0.73833 0.18587 0.0
H1498 H 0.16626 0.60169 0.31252 0.0
H1499 H 0.15851 0.62523 0.37036 0.0
H1500 H 0.19353 0.59687 0.24073 0.0
H1501 H 0.19625 0.61022 0.1687 0.0
C1502 C 0.31741 0.19568 0.29059 0.0
C1503 C 0.32983 0.17168 0.32062 0.0
C1504 C 0.3595 0.16055 0.23345 0.0
C1505 C 0.34513 0.18271 0.20121 0.0
N1506 N 0.30649 0.21798 0.19541 0.0
N1507 N 0.35718 0.12727 0.31656 0.0
C1508 C 0.32299 0.19944 0.22875 0.0
C1509 C 0.34925 0.15288 0.29085 0.0
N1510 N 0.30074 0.21511 0.32134 0.0
N1511 N 0.38378 0.1478 0.21054 0.0
H1512 H 0.34892 0.12042 0.35747 0.0
H1513 H 0.36928 0.11152 0.29444 0.0
H1514 H 0.39296 0.15437 0.17038 0.0
H1515 H 0.39662 0.13331 0.23444 0.0
H1516 H 0.29369 0.23467 0.30333 0.0
H1517 H 0.29578 0.21275 0.36648 0.0
H1518 H 0.2882 0.22856 0.21186 0.0
H1519 H 0.3094 0.22081 0.14967 0.0
loop_
_geom_bond_atom_site_label_1
_geom_bond_atom_site_label_2
_geom_bond_distance
_geom_bond_site_symmetry_2
_ccdc_geom_bond_type
Co0 O2 2.143 . S
Co0 O8 2.074 1_556 S
Co0 O11 2.093 . S
Co0 O24 2.097 . S
Co0 N41 2.151 . S
Co0 N49 2.214 1_556 S
Co1 O2 2.160 1_554 S
Co1 O7 2.058 . S
Co1 O17 2.057 . S
Co1 O32 2.037 . S
Co1 N36 2.145 . S
Co1 N57 2.257 1_554 S
O2 Co0 2.143 . S
O2 Co1 2.160 1_556 S
C3 O4 1.278 . S
C3 O11 1.224 . S
O4 C3 1.278 . S
C5 O6 1.246 . S
C5 O17 1.232 . S
O6 C5 1.246 . S
O7 Co1 2.058 . S
O7 C33 1.269 . S
O8 Co0 2.074 1_554 S
O8 C33 1.257 . S
H9 C34 0.930 . S
H10 C40 0.930 . S
O11 Co0 2.093 . S
O11 C3 1.224 . S
H12 C44 0.929 . S
H13 C46 0.930 . S
H14 C47 0.930 . S
H15 C45 0.929 . S
H16 C48 0.928 . S
O17 Co1 2.057 . S
O17 C5 1.232 . S
H18 C37 0.929 . S
H19 C38 0.929 . S
H20 C50 0.931 . S
H21 C42 0.929 . S
H22 C51 0.930 . S
H23 C43 0.931 . S
O24 Co0 2.097 . S
O24 C52 1.214 1_556 S
H25 C53 0.929 . S
H26 C54 0.929 . S
H27 C55 0.930 . S
H28 C56 0.929 . S
H29 C58 0.930 . S
H30 C35 0.930 . S
H31 C39 0.930 . S
O32 Co1 2.037 . S
O32 C52 1.234 . S
C33 O7 1.269 . S
C33 O8 1.257 . S
C34 H9 0.930 . S
C34 C37 1.388 . S
C34 C39 1.418 . S
C35 H30 0.930 . S
C35 C38 1.404 . S
C35 C39 1.353 . S
N36 Co1 2.145 . S
N36 C37 1.397 . S
N36 C38 1.334 . S
C37 H18 0.929 . S
C37 C34 1.388 . S
C37 N36 1.397 . S
C38 H19 0.929 . S
C38 C35 1.404 . S
C38 N36 1.334 . S
C39 H31 0.930 . S
C39 C34 1.418 . S
C39 C35 1.353 . S
C40 H10 0.930 . S
C40 N41 1.330 . S
C40 C42 1.446 . S
N41 Co0 2.151 . S
N41 C40 1.330 . S
N41 C45 1.418 1_556 S
C42 H21 0.929 . S
C42 C40 1.446 . S
C42 C43 1.344 . S
C43 H23 0.931 . S
C43 C42 1.344 . S
C43 C44 1.255 1_556 S
C44 H12 0.929 . S
C44 C43 1.255 1_554 S
C44 C45 1.251 . S
C45 H15 0.929 . S
C45 N41 1.418 1_554 S
C45 C44 1.251 . S
C46 H13 0.930 . S
C46 C48 1.406 . S
C46 C51 1.261 1_556 S
C47 H14 0.930 . S
C47 N49 1.325 . S
C47 C50 1.357 . S
C48 H16 0.928 . S
C48 C46 1.406 . S
C48 N49 1.261 1_556 S
N49 Co0 2.214 1_554 S
N49 C47 1.325 . S
N49 C48 1.261 1_554 S
C50 H20 0.931 . S
C50 C47 1.357 . S
C50 C51 1.312 . S
C51 H22 0.930 . S
C51 C46 1.261 1_554 S
C51 C50 1.312 . S
C52 O24 1.214 1_554 S
C52 O32 1.234 . S
C53 H25 0.929 . S
C53 C56 1.391 . S
C53 C58 1.391 . S
C54 H26 0.929 . S
C54 C55 1.390 . S
C54 N57 1.391 . S
C55 H27 0.930 . S
C55 C54 1.390 . S
C55 C56 1.392 . S
C56 H28 0.929 . S
C56 C53 1.391 . S
C56 C55 1.392 . S
N57 Co1 2.257 1_556 S
N57 C54 1.391 . S
N57 C58 1.388 . S
C58 H29 0.930 . S
C58 C53 1.391 . S
C58 N57 1.388 . S
Co59 O61 2.143 . S
Co59 O67 2.074 1_556 S
Co59 O70 2.093 . S
Co59 O83 2.097 . S
Co59 N100 2.151 . S
Co59 N108 2.214 1_556 S
Co60 O61 2.160 1_554 S
Co60 O66 2.058 . S
Co60 O76 2.057 . S
Co60 O91 2.037 . S
Co60 N95 2.145 . S
Co60 N116 2.257 1_554 S
O61 Co59 2.143 . S
O61 Co60 2.160 1_556 S
C62 O63 1.278 . S
C62 O70 1.224 . S
O63 C62 1.278 . S
C64 O65 1.246 . S
C64 O76 1.232 . S
O65 C64 1.246 . S
O66 Co60 2.058 . S
O66 C92 1.269 . S
O67 Co59 2.074 1_554 S
O67 C92 1.257 . S
H68 C93 0.930 . S
H69 C99 0.930 . S
O70 Co59 2.093 . S
O70 C62 1.224 . S
H71 C103 0.929 . S
H72 C105 0.930 . S
H73 C106 0.930 . S
H74 C104 0.929 . S
H75 C107 0.928 . S
O76 Co60 2.057 . S
O76 C64 1.232 . S
H77 C96 0.929 . S
H78 C97 0.929 . S
H79 C109 0.931 . S
H80 C101 0.929 . S
H81 C110 0.930 . S
H82 C102 0.931 . S
O83 Co59 2.097 . S
O83 C111 1.214 1_556 S
H84 C112 0.929 . S
H85 C113 0.929 . S
H86 C114 0.930 . S
H87 C115 0.929 . S
H88 C117 0.930 . S
H89 C94 0.930 . S
H90 C98 0.930 . S
O91 Co60 2.037 . S
O91 C111 1.234 . S
C92 O66 1.269 . S
C92 O67 1.257 . S
C93 H68 0.930 . S
C93 C96 1.388 . S
C93 C98 1.418 . S
C94 H89 0.930 . S
C94 C97 1.404 . S
C94 C98 1.353 . S
N95 Co60 2.145 . S
N95 C96 1.397 . S
N95 C97 1.334 . S
C96 H77 0.929 . S
C96 C93 1.388 . S
C96 N95 1.397 . S
C97 H78 0.929 . S
C97 C94 1.404 . S
C97 N95 1.334 . S
C98 H90 0.930 . S
C98 C93 1.418 . S
C98 C94 1.353 . S
C99 H69 0.930 . S
C99 N100 1.330 . S
C99 C101 1.446 . S
N100 Co59 2.151 . S
N100 C99 1.330 . S
N100 C104 1.418 1_556 S
C101 H80 0.929 . S
C101 C99 1.446 . S
C101 C102 1.344 . S
C102 H82 0.931 . S
C102 C101 1.344 . S
C102 C103 1.255 1_556 S
C103 H71 0.929 . S
C103 C102 1.255 1_554 S
C103 C104 1.251 . S
C104 H74 0.929 . S
C104 N100 1.418 1_554 S
C104 C103 1.251 . S
C105 H72 0.930 . S
C105 C107 1.406 . S
C105 C110 1.261 1_556 S
C106 H73 0.930 . S
C106 N108 1.325 . S
C106 C109 1.357 . S
C107 H75 0.928 . S
C107 C105 1.406 . S
C107 N108 1.261 1_556 S
N108 Co59 2.214 1_554 S
N108 C106 1.325 . S
N108 C107 1.261 1_554 S
C109 H79 0.931 . S
C109 C106 1.357 . S
C109 C110 1.312 . S
C110 H81 0.930 . S
C110 C105 1.261 1_554 S
C110 C109 1.312 . S
C111 O83 1.214 1_554 S
C111 O91 1.234 . S
C112 H84 0.929 . S
C112 C115 1.391 . S
C112 C117 1.391 . S
C113 H85 0.929 . S
C113 C114 1.390 . S
C113 N116 1.391 . S
C114 H86 0.930 . S
C114 C113 1.390 . S
C114 C115 1.392 . S
C115 H87 0.929 . S
C115 C112 1.391 . S
C115 C114 1.392 . S
N116 Co60 2.257 1_556 S
N116 C113 1.391 . S
N116 C117 1.388 . S
C117 H88 0.930 . S
C117 C112 1.391 . S
C117 N116 1.388 . S
Co118 O120 2.143 . S
Co118 O126 2.074 1_556 S
Co118 O129 2.093 . S
Co118 O142 2.097 . S
Co118 N159 2.151 . S
Co118 N167 2.214 1_556 S
Co119 O120 2.160 1_554 S
Co119 O125 2.058 . S
Co119 O135 2.057 . S
Co119 O150 2.037 . S
Co119 N154 2.145 . S
Co119 N175 2.257 1_554 S
O120 Co118 2.143 . S
O120 Co119 2.160 1_556 S
C121 O122 1.278 . S
C121 O129 1.224 . S
O122 C121 1.278 . S
C123 O124 1.246 . S
C123 O135 1.232 . S
O124 C123 1.246 . S
O125 Co119 2.058 . S
O125 C151 1.269 . S
O126 Co118 2.074 1_554 S
O126 C151 1.257 . S
H127 C152 0.930 . S
H128 C158 0.930 . S
O129 Co118 2.093 . S
O129 C121 1.224 . S
H130 C162 0.929 . S
H131 C164 0.930 . S
H132 C165 0.930 . S
H133 C163 0.929 . S
H134 C166 0.928 . S
O135 Co119 2.057 . S
O135 C123 1.232 . S
H136 C155 0.929 . S
H137 C156 0.929 . S
H138 C168 0.931 . S
H139 C160 0.929 . S
H140 C169 0.930 . S
H141 C161 0.931 . S
O142 Co118 2.097 . S
O142 C170 1.214 1_556 S
H143 C171 0.929 . S
H144 C172 0.929 . S
H145 C173 0.930 . S
H146 C174 0.929 . S
H147 C176 0.930 . S
H148 C153 0.930 . S
H149 C157 0.930 . S
O150 Co119 2.037 . S
O150 C170 1.234 . S
C151 O125 1.269 . S
C151 O126 1.257 . S
C152 H127 0.930 . S
C152 C155 1.388 . S
C152 C157 1.418 . S
C153 H148 0.930 . S
C153 C156 1.404 . S
C153 C157 1.353 . S
N154 Co119 2.145 . S
N154 C155 1.397 . S
N154 C156 1.334 . S
C155 H136 0.929 . S
C155 C152 1.388 . S
C155 N154 1.397 . S
C156 H137 0.929 . S
C156 C153 1.404 . S
C156 N154 1.334 . S
C157 H149 0.930 . S
C157 C152 1.418 . S
C157 C153 1.353 . S
C158 H128 0.930 . S
C158 N159 1.330 . S
C158 C160 1.446 . S
N159 Co118 2.151 . S
N159 C158 1.330 . S
N159 C163 1.418 1_556 S
C160 H139 0.929 . S
C160 C158 1.446 . S
C160 C161 1.344 . S
C161 H141 0.931 . S
C161 C160 1.344 . S
C161 C162 1.255 1_556 S
C162 H130 0.929 . S
C162 C161 1.255 1_554 S
C162 C163 1.251 . S
C163 H133 0.929 . S
C163 N159 1.418 1_554 S
C163 C162 1.251 . S
C164 H131 0.930 . S
C164 C166 1.406 . S
C164 C169 1.261 1_556 S
C165 H132 0.930 . S
C165 N167 1.325 . S
C165 C168 1.357 . S
C166 H134 0.928 . S
C166 C164 1.406 . S
C166 N167 1.261 1_556 S
N167 Co118 2.214 1_554 S
N167 C165 1.325 . S
N167 C166 1.261 1_554 S
C168 H138 0.931 . S
C168 C165 1.357 . S
C168 C169 1.312 . S
C169 H140 0.930 . S
C169 C164 1.261 1_554 S
C169 C168 1.312 . S
C170 O142 1.214 1_554 S
C170 O150 1.234 . S
C171 H143 0.929 . S
C171 C174 1.391 . S
C171 C176 1.391 . S
C172 H144 0.929 . S
C172 C173 1.390 . S
C172 N175 1.391 . S
C173 H145 0.930 . S
C173 C172 1.390 . S
C173 C174 1.392 . S
C174 H146 0.929 . S
C174 C171 1.391 . S
C174 C173 1.392 . S
N175 Co119 2.257 1_556 S
N175 C172 1.391 . S
N175 C176 1.388 . S
C176 H147 0.930 . S
C176 C171 1.391 . S
C176 N175 1.388 . S
Co177 O179 2.143 . S
Co177 O185 2.074 1_556 S
Co177 O188 2.093 . S
Co177 O201 2.097 . S
Co177 N218 2.151 . S
Co177 N226 2.214 1_556 S
Co178 O179 2.160 1_554 S
Co178 O184 2.058 . S
Co178 O194 2.057 . S
Co178 O209 2.037 . S
Co178 N213 2.145 . S
Co178 N234 2.257 1_554 S
O179 Co177 2.143 . S
O179 Co178 2.160 1_556 S
C180 O181 1.278 . S
C180 O188 1.224 . S
O181 C180 1.278 . S
C182 O183 1.246 . S
C182 O194 1.232 . S
O183 C182 1.246 . S
O184 Co178 2.058 . S
O184 C210 1.269 . S
O185 Co177 2.074 1_554 S
O185 C210 1.257 . S
H186 C211 0.930 . S
H187 C217 0.930 . S
O188 Co177 2.093 . S
O188 C180 1.224 . S
H189 C221 0.929 . S
H190 C223 0.930 . S
H191 C224 0.930 . S
H192 C222 0.929 . S
H193 C225 0.928 . S
O194 Co178 2.057 . S
O194 C182 1.232 . S
H195 C214 0.929 . S
H196 C215 0.929 . S
H197 C227 0.931 . S
H198 C219 0.929 . S
H199 C228 0.930 . S
H200 C220 0.931 . S
O201 Co177 2.097 . S
O201 C229 1.214 1_556 S
H202 C230 0.929 . S
H203 C231 0.929 . S
H204 C232 0.930 . S
H205 C233 0.929 . S
H206 C235 0.930 . S
H207 C212 0.930 . S
H208 C216 0.930 . S
O209 Co178 2.037 . S
O209 C229 1.234 . S
C210 O184 1.269 . S
C210 O185 1.257 . S
C211 H186 0.930 . S
C211 C214 1.388 . S
C211 C216 1.418 . S
C212 H207 0.930 . S
C212 C215 1.404 . S
C212 C216 1.353 . S
N213 Co178 2.145 . S
N213 C214 1.397 . S
N213 C215 1.334 . S
C214 H195 0.929 . S
C214 C211 1.388 . S
C214 N213 1.397 . S
C215 H196 0.929 . S
C215 C212 1.404 . S
C215 N213 1.334 . S
C216 H208 0.930 . S
C216 C211 1.418 . S
C216 C212 1.353 . S
C217 H187 0.930 . S
C217 N218 1.330 . S
C217 C219 1.446 . S
N218 Co177 2.151 . S
N218 C217 1.330 . S
N218 C222 1.418 1_556 S
C219 H198 0.929 . S
C219 C217 1.446 . S
C219 C220 1.344 . S
C220 H200 0.931 . S
C220 C219 1.344 . S
C220 C221 1.255 1_556 S
C221 H189 0.929 . S
C221 C220 1.255 1_554 S
C221 C222 1.251 . S
C222 H192 0.929 . S
C222 N218 1.418 1_554 S
C222 C221 1.251 . S
C223 H190 0.930 . S
C223 C225 1.406 . S
C223 C228 1.261 1_556 S
C224 H191 0.930 . S
C224 N226 1.325 . S
C224 C227 1.357 . S
C225 H193 0.928 . S
C225 C223 1.406 . S
C225 N226 1.261 1_556 S
N226 Co177 2.214 1_554 S
N226 C224 1.325 . S
N226 C225 1.261 1_554 S
C227 H197 0.931 . S
C227 C224 1.357 . S
C227 C228 1.312 . S
C228 H199 0.930 . S
C228 C223 1.261 1_554 S
C228 C227 1.312 . S
C229 O201 1.214 1_554 S
C229 O209 1.234 . S
C230 H202 0.929 . S
C230 C233 1.391 . S
C230 C235 1.391 . S
C231 H203 0.929 . S
C231 C232 1.390 . S
C231 N234 1.391 . S
C232 H204 0.930 . S
C232 C231 1.390 . S
C232 C233 1.392 . S
C233 H205 0.929 . S
C233 C230 1.391 . S
C233 C232 1.392 . S
N234 Co178 2.257 1_556 S
N234 C231 1.391 . S
N234 C235 1.388 . S
C235 H206 0.930 . S
C235 C230 1.391 . S
C235 N234 1.388 . S
Co236 O238 2.143 . S
Co236 O244 2.074 1_554 S
Co236 O247 2.093 . S
Co236 O260 2.097 . S
Co236 N277 2.151 . S
Co236 N285 2.214 . S
Co237 O238 2.160 1_556 S
Co237 O243 2.058 . S
Co237 O253 2.057 . S
Co237 O268 2.037 . S
Co237 N272 2.145 . S
Co237 N293 2.257 1_556 S
O238 Co236 2.143 . S
O238 Co237 2.160 1_554 S
C239 O240 1.278 . S
C239 O247 1.224 . S
O240 C239 1.278 . S
C241 O242 1.245 1_556 S
C241 O253 1.232 . S
O242 C241 1.245 1_554 S
O243 Co237 2.058 . S
O243 C269 1.269 . S
O244 Co236 2.074 1_556 S
O244 C269 1.257 . S
H245 C270 0.930 . S
H246 C276 0.930 . S
O247 Co236 2.093 . S
O247 C239 1.224 . S
H248 C280 0.929 . S
H249 C282 0.930 . S
H250 C283 0.930 . S
H251 C281 0.929 . S
H252 C284 0.928 . S
O253 Co237 2.057 . S
O253 C241 1.232 . S
H254 C273 0.929 . S
H255 C274 0.929 . S
H256 C286 0.931 . S
H257 C278 0.929 . S
H258 C287 0.930 . S
H259 C279 0.931 . S
O260 Co236 2.097 . S
O260 C288 1.214 1_554 S
H261 C289 0.929 . S
H262 C290 0.929 . S
H263 C291 0.930 . S
H264 C292 0.929 . S
H265 C294 0.930 . S
H266 C271 0.930 . S
H267 C275 0.930 . S
O268 Co237 2.037 . S
O268 C288 1.234 . S
C269 O243 1.269 . S
C269 O244 1.257 . S
C270 H245 0.930 . S
C270 C273 1.388 . S
C270 C275 1.418 . S
C271 H266 0.930 . S
C271 C274 1.404 . S
C271 C275 1.353 . S
N272 Co237 2.145 . S
N272 C273 1.397 . S
N272 C274 1.334 . S
C273 H254 0.929 . S
C273 C270 1.388 . S
C273 N272 1.397 . S
C274 H255 0.929 . S
C274 C271 1.404 . S
C274 N272 1.334 . S
C275 H267 0.930 . S
C275 C270 1.418 . S
C275 C271 1.353 . S
C276 H246 0.930 . S
C276 N277 1.330 . S
C276 C278 1.446 . S
N277 Co236 2.151 . S
N277 C276 1.330 . S
N277 C281 1.418 1_554 S
C278 H257 0.929 . S
C278 C276 1.446 . S
C278 C279 1.332 . S
C279 H259 0.931 . S
C279 C278 1.332 . S
C279 C280 1.267 1_554 S
C280 H248 0.929 . S
C280 C279 1.267 1_556 S
C280 C281 1.251 . S
C281 H251 0.929 . S
C281 N277 1.418 1_556 S
C281 C280 1.251 . S
C282 H249 0.930 . S
C282 C284 1.406 . S
C282 C287 1.261 1_554 S
C283 H250 0.930 . S
C283 N285 1.325 1_556 S
C283 C286 1.357 . S
C284 H252 0.928 . S
C284 C282 1.406 . S
C284 N285 1.261 . S
N285 Co236 2.214 . S
N285 C283 1.325 1_554 S
N285 C284 1.261 . S
C286 H256 0.931 . S
C286 C283 1.357 . S
C286 C287 1.312 . S
C287 H258 0.930 . S
C287 C282 1.261 1_556 S
C287 C286 1.312 . S
C288 O260 1.214 1_556 S
C288 O268 1.234 . S
C289 H261 0.929 . S
C289 C292 1.391 . S
C289 C294 1.391 . S
C290 H262 0.929 . S
C290 C291 1.390 . S
C290 N293 1.391 . S
C291 H263 0.930 . S
C291 C290 1.390 . S
C291 C292 1.392 . S
C292 H264 0.929 . S
C292 C289 1.391 . S
C292 C291 1.392 . S
N293 Co237 2.257 1_554 S
N293 C290 1.391 . S
N293 C294 1.388 . S
C294 H265 0.930 . S
C294 C289 1.391 . S
C294 N293 1.388 . S
Co295 O297 2.143 . S
Co295 O303 2.074 1_554 S
Co295 O306 2.093 . S
Co295 O319 2.097 . S
Co295 N336 2.151 . S
Co295 N344 2.214 . S
Co296 O297 2.160 1_556 S
Co296 O302 2.058 . S
Co296 O312 2.057 . S
Co296 O327 2.037 . S
Co296 N331 2.145 . S
Co296 N352 2.257 1_556 S
O297 Co295 2.143 . S
O297 Co296 2.160 1_554 S
C298 O299 1.278 . S
C298 O306 1.224 . S
O299 C298 1.278 . S
C300 O301 1.245 1_556 S
C300 O312 1.232 . S
O301 C300 1.245 1_554 S
O302 Co296 2.058 . S
O302 C328 1.269 . S
O303 Co295 2.074 1_556 S
O303 C328 1.257 . S
H304 C329 0.930 . S
H305 C335 0.930 . S
O306 Co295 2.093 . S
O306 C298 1.224 . S
H307 C339 0.929 . S
H308 C341 0.930 . S
H309 C342 0.930 . S
H310 C340 0.929 . S
H311 C343 0.928 . S
O312 Co296 2.057 . S
O312 C300 1.232 . S
H313 C332 0.929 . S
H314 C333 0.929 . S
H315 C345 0.931 . S
H316 C337 0.929 . S
H317 C346 0.930 . S
H318 C338 0.931 . S
O319 Co295 2.097 . S
O319 C347 1.214 1_554 S
H320 C348 0.929 . S
H321 C349 0.929 . S
H322 C350 0.930 . S
H323 C351 0.929 . S
H324 C353 0.930 . S
H325 C330 0.930 . S
H326 C334 0.930 . S
O327 Co296 2.037 . S
O327 C347 1.234 . S
C328 O302 1.269 . S
C328 O303 1.257 . S
C329 H304 0.930 . S
C329 C332 1.388 . S
C329 C334 1.418 . S
C330 H325 0.930 . S
C330 C333 1.404 . S
C330 C334 1.353 . S
N331 Co296 2.145 . S
N331 C332 1.397 . S
N331 C333 1.334 . S
C332 H313 0.929 . S
C332 C329 1.388 . S
C332 N331 1.397 . S
C333 H314 0.929 . S
C333 C330 1.404 . S
C333 N331 1.334 . S
C334 H326 0.930 . S
C334 C329 1.418 . S
C334 C330 1.353 . S
C335 H305 0.930 . S
C335 N336 1.330 . S
C335 C337 1.446 . S
N336 Co295 2.151 . S
N336 C335 1.330 . S
N336 C340 1.418 1_554 S
C337 H316 0.929 . S
C337 C335 1.446 . S
C337 C338 1.332 . S
C338 H318 0.931 . S
C338 C337 1.332 . S
C338 C339 1.267 1_554 S
C339 H307 0.929 . S
C339 C338 1.267 1_556 S
C339 C340 1.251 . S
C340 H310 0.929 . S
C340 N336 1.418 1_556 S
C340 C339 1.251 . S
C341 H308 0.930 . S
C341 C343 1.406 . S
C341 C346 1.261 1_554 S
C342 H309 0.930 . S
C342 N344 1.325 1_556 S
C342 C345 1.357 . S
C343 H311 0.928 . S
C343 C341 1.406 . S
C343 N344 1.261 . S
N344 Co295 2.214 . S
N344 C342 1.325 1_554 S
N344 C343 1.261 . S
C345 H315 0.931 . S
C345 C342 1.357 . S
C345 C346 1.312 . S
C346 H317 0.930 . S
C346 C341 1.261 1_556 S
C346 C345 1.312 . S
C347 O319 1.214 1_556 S
C347 O327 1.234 . S
C348 H320 0.929 . S
C348 C351 1.391 . S
C348 C353 1.391 . S
C349 H321 0.929 . S
C349 C350 1.390 . S
C349 N352 1.391 . S
C350 H322 0.930 . S
C350 C349 1.390 . S
C350 C351 1.392 . S
C351 H323 0.929 . S
C351 C348 1.391 . S
C351 C350 1.392 . S
N352 Co296 2.257 1_554 S
N352 C349 1.391 . S
N352 C353 1.388 . S
C353 H324 0.930 . S
C353 C348 1.391 . S
C353 N352 1.388 . S
Co354 O356 2.143 . S
Co354 O362 2.074 1_554 S
Co354 O365 2.093 . S
Co354 O378 2.097 . S
Co354 N395 2.151 . S
Co354 N403 2.214 . S
Co355 O356 2.160 1_556 S
Co355 O361 2.058 . S
Co355 O371 2.057 . S
Co355 O386 2.037 . S
Co355 N390 2.145 . S
Co355 N411 2.257 1_556 S
O356 Co354 2.143 . S
O356 Co355 2.160 1_554 S
C357 O358 1.278 . S
C357 O365 1.224 . S
O358 C357 1.278 . S
C359 O360 1.245 1_556 S
C359 O371 1.232 . S
O360 C359 1.245 1_554 S
O361 Co355 2.058 . S
O361 C387 1.269 . S
O362 Co354 2.074 1_556 S
O362 C387 1.257 . S
H363 C388 0.930 . S
H364 C394 0.930 . S
O365 Co354 2.093 . S
O365 C357 1.224 . S
H366 C398 0.929 . S
H367 C400 0.930 . S
H368 C401 0.930 . S
H369 C399 0.929 . S
H370 C402 0.928 . S
O371 Co355 2.057 . S
O371 C359 1.232 . S
H372 C391 0.929 . S
H373 C392 0.929 . S
H374 C404 0.931 . S
H375 C396 0.929 . S
H376 C405 0.930 . S
H377 C397 0.931 . S
O378 Co354 2.097 . S
O378 C406 1.214 1_554 S
H379 C407 0.929 . S
H380 C408 0.929 . S
H381 C409 0.930 . S
H382 C410 0.929 . S
H383 C412 0.930 . S
H384 C389 0.930 . S
H385 C393 0.930 . S
O386 Co355 2.037 . S
O386 C406 1.234 . S
C387 O361 1.269 . S
C387 O362 1.257 . S
C388 H363 0.930 . S
C388 C391 1.388 . S
C388 C393 1.418 . S
C389 H384 0.930 . S
C389 C392 1.404 . S
C389 C393 1.353 . S
N390 Co355 2.145 . S
N390 C391 1.397 . S
N390 C392 1.334 . S
C391 H372 0.929 . S
C391 C388 1.388 . S
C391 N390 1.397 . S
C392 H373 0.929 . S
C392 C389 1.404 . S
C392 N390 1.334 . S
C393 H385 0.930 . S
C393 C388 1.418 . S
C393 C389 1.353 . S
C394 H364 0.930 . S
C394 N395 1.330 . S
C394 C396 1.446 . S
N395 Co354 2.151 . S
N395 C394 1.330 . S
N395 C399 1.418 1_554 S
C396 H375 0.929 . S
C396 C394 1.446 . S
C396 C397 1.332 . S
C397 H377 0.931 . S
C397 C396 1.332 . S
C397 C398 1.267 1_554 S
C398 H366 0.929 . S
C398 C397 1.267 1_556 S
C398 C399 1.251 . S
C399 H369 0.929 . S
C399 N395 1.418 1_556 S
C399 C398 1.251 . S
C400 H367 0.930 . S
C400 C402 1.406 . S
C400 C405 1.261 1_554 S
C401 H368 0.930 . S
C401 N403 1.325 1_556 S
C401 C404 1.357 . S
C402 H370 0.928 . S
C402 C400 1.406 . S
C402 N403 1.261 . S
N403 Co354 2.214 . S
N403 C401 1.325 1_554 S
N403 C402 1.261 . S
C404 H374 0.931 . S
C404 C401 1.357 . S
C404 C405 1.312 . S
C405 H376 0.930 . S
C405 C400 1.261 1_556 S
C405 C404 1.312 . S
C406 O378 1.214 1_556 S
C406 O386 1.234 . S
C407 H379 0.929 . S
C407 C410 1.391 . S
C407 C412 1.391 . S
C408 H380 0.929 . S
C408 C409 1.390 . S
C408 N411 1.391 . S
C409 H381 0.930 . S
C409 C408 1.390 . S
C409 C410 1.392 . S
C410 H382 0.929 . S
C410 C407 1.391 . S
C410 C409 1.392 . S
N411 Co355 2.257 1_554 S
N411 C408 1.391 . S
N411 C412 1.388 . S
C412 H383 0.930 . S
C412 C407 1.391 . S
C412 N411 1.388 . S
Co413 O415 2.143 . S
Co413 O421 2.074 1_554 S
Co413 O424 2.093 . S
Co413 O437 2.097 . S
Co413 N454 2.151 . S
Co413 N462 2.214 . S
Co414 O415 2.160 1_556 S
Co414 O420 2.058 . S
Co414 O430 2.057 . S
Co414 O445 2.037 . S
Co414 N449 2.145 . S
Co414 N470 2.257 1_556 S
O415 Co413 2.143 . S
O415 Co414 2.160 1_554 S
C416 O417 1.278 . S
C416 O424 1.224 . S
O417 C416 1.278 . S
C418 O419 1.245 1_556 S
C418 O430 1.232 . S
O419 C418 1.245 1_554 S
O420 Co414 2.058 . S
O420 C446 1.269 . S
O421 Co413 2.074 1_556 S
O421 C446 1.257 . S
H422 C447 0.930 . S
H423 C453 0.930 . S
O424 Co413 2.093 . S
O424 C416 1.224 . S
H425 C457 0.929 . S
H426 C459 0.930 . S
H427 C460 0.930 . S
H428 C458 0.929 . S
H429 C461 0.928 . S
O430 Co414 2.057 . S
O430 C418 1.232 . S
H431 C450 0.929 . S
H432 C451 0.929 . S
H433 C463 0.931 . S
H434 C455 0.929 . S
H435 C464 0.930 . S
H436 C456 0.931 . S
O437 Co413 2.097 . S
O437 C465 1.214 1_554 S
H438 C466 0.929 . S
H439 C467 0.929 . S
H440 C468 0.930 . S
H441 C469 0.929 . S
H442 C471 0.930 . S
H443 C448 0.930 . S
H444 C452 0.930 . S
O445 Co414 2.037 . S
O445 C465 1.234 . S
C446 O420 1.269 . S
C446 O421 1.257 . S
C447 H422 0.930 . S
C447 C450 1.388 . S
C447 C452 1.418 . S
C448 H443 0.930 . S
C448 C451 1.404 . S
C448 C452 1.353 . S
N449 Co414 2.145 . S
N449 C450 1.397 . S
N449 C451 1.334 . S
C450 H431 0.929 . S
C450 C447 1.388 . S
C450 N449 1.397 . S
C451 H432 0.929 . S
C451 C448 1.404 . S
C451 N449 1.334 . S
C452 H444 0.930 . S
C452 C447 1.418 . S
C452 C448 1.353 . S
C453 H423 0.930 . S
C453 N454 1.330 . S
C453 C455 1.446 . S
N454 Co413 2.151 . S
N454 C453 1.330 . S
N454 C458 1.418 1_554 S
C455 H434 0.929 . S
C455 C453 1.446 . S
C455 C456 1.332 . S
C456 H436 0.931 . S
C456 C455 1.332 . S
C456 C457 1.267 1_554 S
C457 H425 0.929 . S
C457 C456 1.267 1_556 S
C457 C458 1.251 . S
C458 H428 0.929 . S
C458 N454 1.418 1_556 S
C458 C457 1.251 . S
C459 H426 0.930 . S
C459 C461 1.406 . S
C459 C464 1.261 1_554 S
C460 H427 0.930 . S
C460 N462 1.325 1_556 S
C460 C463 1.357 . S
C461 H429 0.928 . S
C461 C459 1.406 . S
C461 N462 1.261 . S
N462 Co413 2.214 . S
N462 C460 1.325 1_554 S
N462 C461 1.261 . S
C463 H433 0.931 . S
C463 C460 1.357 . S
C463 C464 1.312 . S
C464 H435 0.930 . S
C464 C459 1.261 1_556 S
C464 C463 1.312 . S
C465 O437 1.214 1_556 S
C465 O445 1.234 . S
C466 H438 0.929 . S
C466 C469 1.391 . S
C466 C471 1.391 . S
C467 H439 0.929 . S
C467 C468 1.390 . S
C467 N470 1.391 . S
C468 H440 0.930 . S
C468 C467 1.390 . S
C468 C469 1.392 . S
C469 H441 0.929 . S
C469 C466 1.391 . S
C469 C468 1.392 . S
N470 Co414 2.257 1_554 S
N470 C467 1.391 . S
N470 C471 1.388 . S
C471 H442 0.930 . S
C471 C466 1.391 . S
C471 N470 1.388 . S
Co472 O474 2.143 . S
Co472 O480 2.074 . S
Co472 O483 2.093 . S
Co472 O496 2.097 . S
Co472 N513 2.151 . S
Co472 N521 2.214 . S
Co473 O474 2.160 . S
Co473 O479 2.058 . S
Co473 O489 2.057 . S
Co473 O504 2.037 . S
Co473 N508 2.145 . S
Co473 N529 2.257 . S
O474 Co472 2.143 . S
O474 Co473 2.160 . S
C475 O476 1.278 . S
C475 O483 1.224 . S
O476 C475 1.278 . S
C477 O478 1.245 . S
C477 O489 1.232 . S
O478 C477 1.245 . S
O479 Co473 2.058 . S
O479 C505 1.269 . S
O480 Co472 2.074 . S
O480 C505 1.257 . S
H481 C506 0.930 . S
H482 C512 0.930 . S
O483 Co472 2.093 . S
O483 C475 1.224 . S
H484 C516 0.929 . S
H485 C518 0.930 . S
H486 C519 0.930 . S
H487 C517 0.929 . S
H488 C520 0.928 . S
O489 Co473 2.057 . S
O489 C477 1.232 . S
H490 C509 0.929 . S
H491 C510 0.929 . S
H492 C522 0.931 . S
H493 C514 0.929 . S
H494 C523 0.930 . S
H495 C515 0.931 . S
O496 Co472 2.097 . S
O496 C524 1.214 . S
H497 C525 0.929 . S
H498 C526 0.929 . S
H499 C527 0.930 . S
H500 C528 0.929 . S
H501 C530 0.930 . S
H502 C507 0.930 . S
H503 C511 0.930 . S
O504 Co473 2.037 . S
O504 C524 1.234 . S
C505 O479 1.269 . S
C505 O480 1.257 . S
C506 H481 0.930 . S
C506 C509 1.388 . S
C506 C511 1.418 . S
C507 H502 0.930 . S
C507 C510 1.404 . S
C507 C511 1.353 . S
N508 Co473 2.145 . S
N508 C509 1.397 . S
N508 C510 1.334 . S
C509 H490 0.929 . S
C509 C506 1.388 . S
C509 N508 1.397 . S
C510 H491 0.929 . S
C510 C507 1.404 . S
C510 N508 1.334 . S
C511 H503 0.930 . S
C511 C506 1.418 . S
C511 C507 1.353 . S
C512 H482 0.930 . S
C512 N513 1.330 . S
C512 C514 1.446 . S
N513 Co472 2.151 . S
N513 C512 1.330 . S
N513 C517 1.418 . S
C514 H493 0.929 . S
C514 C512 1.446 . S
C514 C515 1.332 . S
C515 H495 0.931 . S
C515 C514 1.332 . S
C515 C516 1.267 . S
C516 H484 0.929 . S
C516 C515 1.267 . S
C516 C517 1.251 . S
C517 H487 0.929 . S
C517 N513 1.418 . S
C517 C516 1.251 . S
C518 H485 0.930 . S
C518 C520 1.406 . S
C518 C523 1.261 . S
C519 H486 0.930 . S
C519 N521 1.325 . S
C519 C522 1.357 . S
C520 H488 0.928 . S
C520 C518 1.406 . S
C520 N521 1.261 . S
N521 Co472 2.214 . S
N521 C519 1.325 . S
N521 C520 1.261 . S
C522 H492 0.931 . S
C522 C519 1.357 . S
C522 C523 1.312 . S
C523 H494 0.930 . S
C523 C518 1.261 . S
C523 C522 1.312 . S
C524 O496 1.214 . S
C524 O504 1.234 . S
C525 H497 0.929 . S
C525 C528 1.391 . S
C525 C530 1.391 . S
C526 H498 0.929 . S
C526 C527 1.390 . S
C526 N529 1.391 . S
C527 H499 0.930 . S
C527 C526 1.390 . S
C527 C528 1.392 . S
C528 H500 0.929 . S
C528 C525 1.391 . S
C528 C527 1.392 . S
N529 Co473 2.257 . S
N529 C526 1.391 . S
N529 C530 1.388 . S
C530 H501 0.930 . S
C530 C525 1.391 . S
C530 N529 1.388 . S
Co531 O533 2.143 . S
Co531 O539 2.074 . S
Co531 O542 2.093 . S
Co531 O555 2.097 . S
Co531 N572 2.151 . S
Co531 N580 2.214 . S
Co532 O533 2.160 . S
Co532 O538 2.058 . S
Co532 O548 2.057 . S
Co532 O563 2.037 . S
Co532 N567 2.145 . S
Co532 N588 2.257 . S
O533 Co531 2.143 . S
O533 Co532 2.160 . S
C534 O535 1.278 . S
C534 O542 1.224 . S
O535 C534 1.278 . S
C536 O537 1.245 . S
C536 O548 1.232 . S
O537 C536 1.245 . S
O538 Co532 2.058 . S
O538 C564 1.269 . S
O539 Co531 2.074 . S
O539 C564 1.257 . S
H540 C565 0.930 . S
H541 C571 0.930 . S
O542 Co531 2.093 . S
O542 C534 1.224 . S
H543 C575 0.929 . S
H544 C577 0.930 . S
H545 C578 0.930 . S
H546 C576 0.929 . S
H547 C579 0.928 . S
O548 Co532 2.057 . S
O548 C536 1.232 . S
H549 C568 0.929 . S
H550 C569 0.929 . S
H551 C581 0.931 . S
H552 C573 0.929 . S
H553 C582 0.930 . S
H554 C574 0.931 . S
O555 Co531 2.097 . S
O555 C583 1.214 . S
H556 C584 0.929 . S
H557 C585 0.929 . S
H558 C586 0.930 . S
H559 C587 0.929 . S
H560 C589 0.930 . S
H561 C566 0.930 . S
H562 C570 0.930 . S
O563 Co532 2.037 . S
O563 C583 1.234 . S
C564 O538 1.269 . S
C564 O539 1.257 . S
C565 H540 0.930 . S
C565 C568 1.388 . S
C565 C570 1.418 . S
C566 H561 0.930 . S
C566 C569 1.404 . S
C566 C570 1.353 . S
N567 Co532 2.145 . S
N567 C568 1.397 . S
N567 C569 1.334 . S
C568 H549 0.929 . S
C568 C565 1.388 . S
C568 N567 1.397 . S
C569 H550 0.929 . S
C569 C566 1.404 . S
C569 N567 1.334 . S
C570 H562 0.930 . S
C570 C565 1.418 . S
C570 C566 1.353 . S
C571 H541 0.930 . S
C571 N572 1.330 . S
C571 C573 1.446 . S
N572 Co531 2.151 . S
N572 C571 1.330 . S
N572 C576 1.418 . S
C573 H552 0.929 . S
C573 C571 1.446 . S
C573 C574 1.332 . S
C574 H554 0.931 . S
C574 C573 1.332 . S
C574 C575 1.267 . S
C575 H543 0.929 . S
C575 C574 1.267 . S
C575 C576 1.251 . S
C576 H546 0.929 . S
C576 N572 1.418 . S
C576 C575 1.251 . S
C577 H544 0.930 . S
C577 C579 1.406 . S
C577 C582 1.261 . S
C578 H545 0.930 . S
C578 N580 1.325 . S
C578 C581 1.357 . S
C579 H547 0.928 . S
C579 C577 1.406 . S
C579 N580 1.261 . S
N580 Co531 2.214 . S
N580 C578 1.325 . S
N580 C579 1.261 . S
C581 H551 0.931 . S
C581 C578 1.357 . S
C581 C582 1.312 . S
C582 H553 0.930 . S
C582 C577 1.261 . S
C582 C581 1.312 . S
C583 O555 1.214 . S
C583 O563 1.234 . S
C584 H556 0.929 . S
C584 C587 1.391 . S
C584 C589 1.391 . S
C585 H557 0.929 . S
C585 C586 1.390 . S
C585 N588 1.391 . S
C586 H558 0.930 . S
C586 C585 1.390 . S
C586 C587 1.392 . S
C587 H559 0.929 . S
C587 C584 1.391 . S
C587 C586 1.392 . S
N588 Co532 2.257 . S
N588 C585 1.391 . S
N588 C589 1.388 . S
C589 H560 0.930 . S
C589 C584 1.391 . S
C589 N588 1.388 . S
Co590 O592 2.143 . S
Co590 O598 2.074 . S
Co590 O601 2.093 . S
Co590 O614 2.097 . S
Co590 N631 2.151 . S
Co590 N639 2.214 . S
Co591 O592 2.160 . S
Co591 O597 2.058 . S
Co591 O607 2.057 . S
Co591 O622 2.037 . S
Co591 N626 2.145 . S
Co591 N647 2.257 . S
O592 Co590 2.143 . S
O592 Co591 2.160 . S
C593 O594 1.278 . S
C593 O601 1.224 . S
O594 C593 1.278 . S
C595 O596 1.245 . S
C595 O607 1.232 . S
O596 C595 1.245 . S
O597 Co591 2.058 . S
O597 C623 1.269 . S
O598 Co590 2.074 . S
O598 C623 1.257 . S
H599 C624 0.930 . S
H600 C630 0.930 . S
O601 Co590 2.093 . S
O601 C593 1.224 . S
H602 C634 0.929 . S
H603 C636 0.930 . S
H604 C637 0.930 . S
H605 C635 0.929 . S
H606 C638 0.928 . S
O607 Co591 2.057 . S
O607 C595 1.232 . S
H608 C627 0.929 . S
H609 C628 0.929 . S
H610 C640 0.931 . S
H611 C632 0.929 . S
H612 C641 0.930 . S
H613 C633 0.931 . S
O614 Co590 2.097 . S
O614 C642 1.214 . S
H615 C643 0.929 . S
H616 C644 0.929 . S
H617 C645 0.930 . S
H618 C646 0.929 . S
H619 C648 0.930 . S
H620 C625 0.930 . S
H621 C629 0.930 . S
O622 Co591 2.037 . S
O622 C642 1.234 . S
C623 O597 1.269 . S
C623 O598 1.257 . S
C624 H599 0.930 . S
C624 C627 1.388 . S
C624 C629 1.418 . S
C625 H620 0.930 . S
C625 C628 1.404 . S
C625 C629 1.353 . S
N626 Co591 2.145 . S
N626 C627 1.397 . S
N626 C628 1.334 . S
C627 H608 0.929 . S
C627 C624 1.388 . S
C627 N626 1.397 . S
C628 H609 0.929 . S
C628 C625 1.404 . S
C628 N626 1.334 . S
C629 H621 0.930 . S
C629 C624 1.418 . S
C629 C625 1.353 . S
C630 H600 0.930 . S
C630 N631 1.330 . S
C630 C632 1.446 . S
N631 Co590 2.151 . S
N631 C630 1.330 . S
N631 C635 1.418 . S
C632 H611 0.929 . S
C632 C630 1.446 . S
C632 C633 1.332 . S
C633 H613 0.931 . S
C633 C632 1.332 . S
C633 C634 1.267 . S
C634 H602 0.929 . S
C634 C633 1.267 . S
C634 C635 1.251 . S
C635 H605 0.929 . S
C635 N631 1.418 . S
C635 C634 1.251 . S
C636 H603 0.930 . S
C636 C638 1.406 . S
C636 C641 1.261 . S
C637 H604 0.930 . S
C637 N639 1.325 . S
C637 C640 1.357 . S
C638 H606 0.928 . S
C638 C636 1.406 . S
C638 N639 1.261 . S
N639 Co590 2.214 . S
N639 C637 1.325 . S
N639 C638 1.261 . S
C640 H610 0.931 . S
C640 C637 1.357 . S
C640 C641 1.312 . S
C641 H612 0.930 . S
C641 C636 1.261 . S
C641 C640 1.312 . S
C642 O614 1.214 . S
C642 O622 1.234 . S
C643 H615 0.929 . S
C643 C646 1.391 . S
C643 C648 1.391 . S
C644 H616 0.929 . S
C644 C645 1.390 . S
C644 N647 1.391 . S
C645 H617 0.930 . S
C645 C644 1.390 . S
C645 C646 1.392 . S
C646 H618 0.929 . S
C646 C643 1.391 . S
C646 C645 1.392 . S
N647 Co591 2.257 . S
N647 C644 1.391 . S
N647 C648 1.388 . S
C648 H619 0.930 . S
C648 C643 1.391 . S
C648 N647 1.388 . S
Co649 O651 2.143 . S
Co649 O657 2.074 . S
Co649 O660 2.093 . S
Co649 O673 2.097 . S
Co649 N690 2.151 . S
Co649 N698 2.214 . S
Co650 O651 2.160 . S
Co650 O656 2.058 . S
Co650 O666 2.057 . S
Co650 O681 2.037 . S
Co650 N685 2.145 . S
Co650 N706 2.257 . S
O651 Co649 2.143 . S
O651 Co650 2.160 . S
C652 O653 1.278 . S
C652 O660 1.224 . S
O653 C652 1.278 . S
C654 O655 1.245 . S
C654 O666 1.232 . S
O655 C654 1.245 . S
O656 Co650 2.058 . S
O656 C682 1.269 . S
O657 Co649 2.074 . S
O657 C682 1.257 . S
H658 C683 0.930 . S
H659 C689 0.930 . S
O660 Co649 2.093 . S
O660 C652 1.224 . S
H661 C693 0.929 . S
H662 C695 0.930 . S
H663 C696 0.930 . S
H664 C694 0.929 . S
H665 C697 0.928 . S
O666 Co650 2.057 . S
O666 C654 1.232 . S
H667 C686 0.929 . S
H668 C687 0.929 . S
H669 C699 0.931 . S
H670 C691 0.929 . S
H671 C700 0.930 . S
H672 C692 0.931 . S
O673 Co649 2.097 . S
O673 C701 1.214 . S
H674 C702 0.929 . S
H675 C703 0.929 . S
H676 C704 0.930 . S
H677 C705 0.929 . S
H678 C707 0.930 . S
H679 C684 0.930 . S
H680 C688 0.930 . S
O681 Co650 2.037 . S
O681 C701 1.234 . S
C682 O656 1.269 . S
C682 O657 1.257 . S
C683 H658 0.930 . S
C683 C686 1.388 . S
C683 C688 1.418 . S
C684 H679 0.930 . S
C684 C687 1.404 . S
C684 C688 1.353 . S
N685 Co650 2.145 . S
N685 C686 1.397 . S
N685 C687 1.334 . S
C686 H667 0.929 . S
C686 C683 1.388 . S
C686 N685 1.397 . S
C687 H668 0.929 . S
C687 C684 1.404 . S
C687 N685 1.334 . S
C688 H680 0.930 . S
C688 C683 1.418 . S
C688 C684 1.353 . S
C689 H659 0.930 . S
C689 N690 1.330 . S
C689 C691 1.446 . S
N690 Co649 2.151 . S
N690 C689 1.330 . S
N690 C694 1.418 . S
C691 H670 0.929 . S
C691 C689 1.446 . S
C691 C692 1.332 . S
C692 H672 0.931 . S
C692 C691 1.332 . S
C692 C693 1.267 . S
C693 H661 0.929 . S
C693 C692 1.267 . S
C693 C694 1.251 . S
C694 H664 0.929 . S
C694 N690 1.418 . S
C694 C693 1.251 . S
C695 H662 0.930 . S
C695 C697 1.406 . S
C695 C700 1.261 . S
C696 H663 0.930 . S
C696 N698 1.325 . S
C696 C699 1.357 . S
C697 H665 0.928 . S
C697 C695 1.406 . S
C697 N698 1.261 . S
N698 Co649 2.214 . S
N698 C696 1.325 . S
N698 C697 1.261 . S
C699 H669 0.931 . S
C699 C696 1.357 . S
C699 C700 1.312 . S
C700 H671 0.930 . S
C700 C695 1.261 . S
C700 C699 1.312 . S
C701 O673 1.214 . S
C701 O681 1.234 . S
C702 H674 0.929 . S
C702 C705 1.391 . S
C702 C707 1.391 . S
C703 H675 0.929 . S
C703 C704 1.390 . S
C703 N706 1.391 . S
C704 H676 0.930 . S
C704 C703 1.390 . S
C704 C705 1.392 . S
C705 H677 0.929 . S
C705 C702 1.391 . S
C705 C704 1.392 . S
N706 Co650 2.257 . S
N706 C703 1.391 . S
N706 C707 1.388 . S
C707 H678 0.930 . S
C707 C702 1.391 . S
C707 N706 1.388 . S
Co708 O710 2.143 . S
Co708 O716 2.074 . S
Co708 O719 2.093 . S
Co708 O732 2.097 . S
Co708 N749 2.151 . S
Co708 N757 2.214 . S
Co709 O710 2.160 . S
Co709 O715 2.058 . S
Co709 O725 2.057 . S
Co709 O740 2.037 . S
Co709 N744 2.145 . S
Co709 N765 2.257 . S
O710 Co708 2.143 . S
O710 Co709 2.160 . S
C711 O712 1.278 . S
C711 O719 1.224 . S
O712 C711 1.278 . S
C713 O714 1.245 . S
C713 O725 1.232 . S
O714 C713 1.245 . S
O715 Co709 2.058 . S
O715 C741 1.269 . S
O716 Co708 2.074 . S
O716 C741 1.257 . S
H717 C742 0.930 . S
H718 C748 0.930 . S
O719 Co708 2.093 . S
O719 C711 1.224 . S
H720 C752 0.929 . S
H721 C754 0.930 . S
H722 C755 0.930 . S
H723 C753 0.929 . S
H724 C756 0.928 . S
O725 Co709 2.057 . S
O725 C713 1.232 . S
H726 C745 0.929 . S
H727 C746 0.929 . S
H728 C758 0.931 . S
H729 C750 0.929 . S
H730 C759 0.930 . S
H731 C751 0.931 . S
O732 Co708 2.097 . S
O732 C760 1.214 . S
H733 C761 0.929 . S
H734 C762 0.929 . S
H735 C763 0.930 . S
H736 C764 0.929 . S
H737 C766 0.930 . S
H738 C743 0.930 . S
H739 C747 0.930 . S
O740 Co709 2.037 . S
O740 C760 1.234 . S
C741 O715 1.269 . S
C741 O716 1.257 . S
C742 H717 0.930 . S
C742 C745 1.388 . S
C742 C747 1.418 . S
C743 H738 0.930 . S
C743 C746 1.404 . S
C743 C747 1.353 . S
N744 Co709 2.145 . S
N744 C745 1.397 . S
N744 C746 1.334 . S
C745 H726 0.929 . S
C745 C742 1.388 . S
C745 N744 1.397 . S
C746 H727 0.929 . S
C746 C743 1.404 . S
C746 N744 1.334 . S
C747 H739 0.930 . S
C747 C742 1.418 . S
C747 C743 1.353 . S
C748 H718 0.930 . S
C748 N749 1.330 . S
C748 C750 1.446 . S
N749 Co708 2.151 . S
N749 C748 1.330 . S
N749 C753 1.418 . S
C750 H729 0.929 . S
C750 C748 1.446 . S
C750 C751 1.332 . S
C751 H731 0.931 . S
C751 C750 1.332 . S
C751 C752 1.267 . S
C752 H720 0.929 . S
C752 C751 1.267 . S
C752 C753 1.251 . S
C753 H723 0.929 . S
C753 N749 1.418 . S
C753 C752 1.251 . S
C754 H721 0.930 . S
C754 C756 1.406 . S
C754 C759 1.261 . S
C755 H722 0.930 . S
C755 N757 1.325 . S
C755 C758 1.357 . S
C756 H724 0.928 . S
C756 C754 1.406 . S
C756 N757 1.261 . S
N757 Co708 2.214 . S
N757 C755 1.325 . S
N757 C756 1.261 . S
C758 H728 0.931 . S
C758 C755 1.357 . S
C758 C759 1.312 . S
C759 H730 0.930 . S
C759 C754 1.261 . S
C759 C758 1.312 . S
C760 O732 1.214 . S
C760 O740 1.234 . S
C761 H733 0.929 . S
C761 C764 1.391 . S
C761 C766 1.391 . S
C762 H734 0.929 . S
C762 C763 1.390 . S
C762 N765 1.391 . S
C763 H735 0.930 . S
C763 C762 1.390 . S
C763 C764 1.392 . S
C764 H736 0.929 . S
C764 C761 1.391 . S
C764 C763 1.392 . S
N765 Co709 2.257 . S
N765 C762 1.391 . S
N765 C766 1.388 . S
C766 H737 0.930 . S
C766 C761 1.391 . S
C766 N765 1.388 . S
Co767 O769 2.143 . S
Co767 O775 2.074 . S
Co767 O778 2.093 . S
Co767 O791 2.097 . S
Co767 N808 2.151 . S
Co767 N816 2.214 . S
Co768 O769 2.160 . S
Co768 O774 2.058 . S
Co768 O784 2.057 . S
Co768 O799 2.037 . S
Co768 N803 2.145 . S
Co768 N824 2.257 . S
O769 Co767 2.143 . S
O769 Co768 2.160 . S
C770 O771 1.278 . S
C770 O778 1.224 . S
O771 C770 1.278 . S
C772 O773 1.245 . S
C772 O784 1.232 . S
O773 C772 1.245 . S
O774 Co768 2.058 . S
O774 C800 1.269 . S
O775 Co767 2.074 . S
O775 C800 1.257 . S
H776 C801 0.930 . S
H777 C807 0.930 . S
O778 Co767 2.093 . S
O778 C770 1.224 . S
H779 C811 0.929 . S
H780 C813 0.930 . S
H781 C814 0.930 . S
H782 C812 0.929 . S
H783 C815 0.928 . S
O784 Co768 2.057 . S
O784 C772 1.232 . S
H785 C804 0.929 . S
H786 C805 0.929 . S
H787 C817 0.931 . S
H788 C809 0.929 . S
H789 C818 0.930 . S
H790 C810 0.931 . S
O791 Co767 2.097 . S
O791 C819 1.214 . S
H792 C820 0.929 . S
H793 C821 0.929 . S
H794 C822 0.930 . S
H795 C823 0.929 . S
H796 C825 0.930 . S
H797 C802 0.930 . S
H798 C806 0.930 . S
O799 Co768 2.037 . S
O799 C819 1.234 . S
C800 O774 1.269 . S
C800 O775 1.257 . S
C801 H776 0.930 . S
C801 C804 1.388 . S
C801 C806 1.418 . S
C802 H797 0.930 . S
C802 C805 1.404 . S
C802 C806 1.353 . S
N803 Co768 2.145 . S
N803 C804 1.397 . S
N803 C805 1.334 . S
C804 H785 0.929 . S
C804 C801 1.388 . S
C804 N803 1.397 . S
C805 H786 0.929 . S
C805 C802 1.404 . S
C805 N803 1.334 . S
C806 H798 0.930 . S
C806 C801 1.418 . S
C806 C802 1.353 . S
C807 H777 0.930 . S
C807 N808 1.330 . S
C807 C809 1.446 . S
N808 Co767 2.151 . S
N808 C807 1.330 . S
N808 C812 1.418 . S
C809 H788 0.929 . S
C809 C807 1.446 . S
C809 C810 1.332 . S
C810 H790 0.931 . S
C810 C809 1.332 . S
C810 C811 1.267 . S
C811 H779 0.929 . S
C811 C810 1.267 . S
C811 C812 1.251 . S
C812 H782 0.929 . S
C812 N808 1.418 . S
C812 C811 1.251 . S
C813 H780 0.930 . S
C813 C815 1.406 . S
C813 C818 1.261 . S
C814 H781 0.930 . S
C814 N816 1.325 . S
C814 C817 1.357 . S
C815 H783 0.928 . S
C815 C813 1.406 . S
C815 N816 1.261 . S
N816 Co767 2.214 . S
N816 C814 1.325 . S
N816 C815 1.261 . S
C817 H787 0.931 . S
C817 C814 1.357 . S
C817 C818 1.312 . S
C818 H789 0.930 . S
C818 C813 1.261 . S
C818 C817 1.312 . S
C819 O791 1.214 . S
C819 O799 1.234 . S
C820 H792 0.929 . S
C820 C823 1.391 . S
C820 C825 1.391 . S
C821 H793 0.929 . S
C821 C822 1.390 . S
C821 N824 1.391 . S
C822 H794 0.930 . S
C822 C821 1.390 . S
C822 C823 1.392 . S
C823 H795 0.929 . S
C823 C820 1.391 . S
C823 C822 1.392 . S
N824 Co768 2.257 . S
N824 C821 1.391 . S
N824 C825 1.388 . S
C825 H796 0.930 . S
C825 C820 1.391 . S
C825 N824 1.388 . S
Co826 O828 2.143 . S
Co826 O834 2.074 . S
Co826 O837 2.093 . S
Co826 O850 2.097 . S
Co826 N867 2.151 . S
Co826 N875 2.214 . S
Co827 O828 2.160 . S
Co827 O833 2.058 . S
Co827 O843 2.057 . S
Co827 O858 2.037 . S
Co827 N862 2.145 . S
Co827 N883 2.257 . S
O828 Co826 2.143 . S
O828 Co827 2.160 . S
C829 O830 1.278 . S
C829 O837 1.224 . S
O830 C829 1.278 . S
C831 O832 1.245 . S
C831 O843 1.232 . S
O832 C831 1.245 . S
O833 Co827 2.058 . S
O833 C859 1.269 . S
O834 Co826 2.074 . S
O834 C859 1.257 . S
H835 C860 0.930 . S
H836 C866 0.930 . S
O837 Co826 2.093 . S
O837 C829 1.224 . S
H838 C870 0.929 . S
H839 C872 0.930 . S
H840 C873 0.930 . S
H841 C871 0.929 . S
H842 C874 0.928 . S
O843 Co827 2.057 . S
O843 C831 1.232 . S
H844 C863 0.929 . S
H845 C864 0.929 . S
H846 C876 0.931 . S
H847 C868 0.929 . S
H848 C877 0.930 . S
H849 C869 0.931 . S
O850 Co826 2.097 . S
O850 C878 1.214 . S
H851 C879 0.929 . S
H852 C880 0.929 . S
H853 C881 0.930 . S
H854 C882 0.929 . S
H855 C884 0.930 . S
H856 C861 0.930 . S
H857 C865 0.930 . S
O858 Co827 2.037 . S
O858 C878 1.234 . S
C859 O833 1.269 . S
C859 O834 1.257 . S
C860 H835 0.930 . S
C860 C863 1.388 . S
C860 C865 1.418 . S
C861 H856 0.930 . S
C861 C864 1.404 . S
C861 C865 1.353 . S
N862 Co827 2.145 . S
N862 C863 1.397 . S
N862 C864 1.334 . S
C863 H844 0.929 . S
C863 C860 1.388 . S
C863 N862 1.397 . S
C864 H845 0.929 . S
C864 C861 1.404 . S
C864 N862 1.334 . S
C865 H857 0.930 . S
C865 C860 1.418 . S
C865 C861 1.353 . S
C866 H836 0.930 . S
C866 N867 1.330 . S
C866 C868 1.446 . S
N867 Co826 2.151 . S
N867 C866 1.330 . S
N867 C871 1.418 . S
C868 H847 0.929 . S
C868 C866 1.446 . S
C868 C869 1.332 . S
C869 H849 0.931 . S
C869 C868 1.332 . S
C869 C870 1.267 . S
C870 H838 0.929 . S
C870 C869 1.267 . S
C870 C871 1.251 . S
C871 H841 0.929 . S
C871 N867 1.418 . S
C871 C870 1.251 . S
C872 H839 0.930 . S
C872 C874 1.406 . S
C872 C877 1.261 . S
C873 H840 0.930 . S
C873 N875 1.325 . S
C873 C876 1.357 . S
C874 H842 0.928 . S
C874 C872 1.406 . S
C874 N875 1.261 . S
N875 Co826 2.214 . S
N875 C873 1.325 . S
N875 C874 1.261 . S
C876 H846 0.931 . S
C876 C873 1.357 . S
C876 C877 1.312 . S
C877 H848 0.930 . S
C877 C872 1.261 . S
C877 C876 1.312 . S
C878 O850 1.214 . S
C878 O858 1.234 . S
C879 H851 0.929 . S
C879 C882 1.391 . S
C879 C884 1.391 . S
C880 H852 0.929 . S
C880 C881 1.390 . S
C880 N883 1.391 . S
C881 H853 0.930 . S
C881 C880 1.390 . S
C881 C882 1.392 . S
C882 H854 0.929 . S
C882 C879 1.391 . S
C882 C881 1.392 . S
N883 Co827 2.257 . S
N883 C880 1.391 . S
N883 C884 1.388 . S
C884 H855 0.930 . S
C884 C879 1.391 . S
C884 N883 1.388 . S
Co885 O887 2.143 . S
Co885 O893 2.074 . S
Co885 O896 2.093 . S
Co885 O909 2.097 . S
Co885 N926 2.151 . S
Co885 N934 2.214 . S
Co886 O887 2.160 . S
Co886 O892 2.058 . S
Co886 O902 2.057 . S
Co886 O917 2.037 . S
Co886 N921 2.145 . S
Co886 N942 2.257 . S
O887 Co885 2.143 . S
O887 Co886 2.160 . S
C888 O889 1.278 . S
C888 O896 1.224 . S
O889 C888 1.278 . S
C890 O891 1.245 . S
C890 O902 1.232 . S
O891 C890 1.245 . S
O892 Co886 2.058 . S
O892 C918 1.269 . S
O893 Co885 2.074 . S
O893 C918 1.257 . S
H894 C919 0.930 . S
H895 C925 0.930 . S
O896 Co885 2.093 . S
O896 C888 1.224 . S
H897 C929 0.929 . S
H898 C931 0.930 . S
H899 C932 0.930 . S
H900 C930 0.929 . S
H901 C933 0.928 . S
O902 Co886 2.057 . S
O902 C890 1.232 . S
H903 C922 0.929 . S
H904 C923 0.929 . S
H905 C935 0.931 . S
H906 C927 0.929 . S
H907 C936 0.930 . S
H908 C928 0.931 . S
O909 Co885 2.097 . S
O909 C937 1.214 . S
H910 C938 0.929 . S
H911 C939 0.929 . S
H912 C940 0.930 . S
H913 C941 0.929 . S
H914 C943 0.930 . S
H915 C920 0.930 . S
H916 C924 0.930 . S
O917 Co886 2.037 . S
O917 C937 1.234 . S
C918 O892 1.269 . S
C918 O893 1.257 . S
C919 H894 0.930 . S
C919 C922 1.388 . S
C919 C924 1.418 . S
C920 H915 0.930 . S
C920 C923 1.404 . S
C920 C924 1.353 . S
N921 Co886 2.145 . S
N921 C922 1.397 . S
N921 C923 1.334 . S
C922 H903 0.929 . S
C922 C919 1.388 . S
C922 N921 1.397 . S
C923 H904 0.929 . S
C923 C920 1.404 . S
C923 N921 1.334 . S
C924 H916 0.930 . S
C924 C919 1.418 . S
C924 C920 1.353 . S
C925 H895 0.930 . S
C925 N926 1.330 . S
C925 C927 1.446 . S
N926 Co885 2.151 . S
N926 C925 1.330 . S
N926 C930 1.418 . S
C927 H906 0.929 . S
C927 C925 1.446 . S
C927 C928 1.332 . S
C928 H908 0.931 . S
C928 C927 1.332 . S
C928 C929 1.267 . S
C929 H897 0.929 . S
C929 C928 1.267 . S
C929 C930 1.251 . S
C930 H900 0.929 . S
C930 N926 1.418 . S
C930 C929 1.251 . S
C931 H898 0.930 . S
C931 C933 1.406 . S
C931 C936 1.261 . S
C932 H899 0.930 . S
C932 N934 1.325 . S
C932 C935 1.357 . S
C933 H901 0.928 . S
C933 C931 1.406 . S
C933 N934 1.261 . S
N934 Co885 2.214 . S
N934 C932 1.325 . S
N934 C933 1.261 . S
C935 H905 0.931 . S
C935 C932 1.357 . S
C935 C936 1.312 . S
C936 H907 0.930 . S
C936 C931 1.261 . S
C936 C935 1.312 . S
C937 O909 1.214 . S
C937 O917 1.234 . S
C938 H910 0.929 . S
C938 C941 1.391 . S
C938 C943 1.391 . S
C939 H911 0.929 . S
C939 C940 1.390 . S
C939 N942 1.391 . S
C940 H912 0.930 . S
C940 C939 1.390 . S
C940 C941 1.392 . S
C941 H913 0.929 . S
C941 C938 1.391 . S
C941 C940 1.392 . S
N942 Co886 2.257 . S
N942 C939 1.391 . S
N942 C943 1.388 . S
C943 H914 0.930 . S
C943 C938 1.391 . S
C943 N942 1.388 . S
C944 C945 1.363 1_554 S
C944 C950 1.379 . S
C944 N952 1.356 . S
C945 C944 1.363 1_556 S
C945 C951 1.363 . S
C946 C947 1.363 1_556 S
C946 C951 1.379 . S
C946 N953 1.356 . S
C947 C946 1.363 1_554 S
C947 C950 1.363 . S
N948 C950 1.356 . S
N948 H960 0.984 . S
N948 H961 0.985 . S
N949 C951 1.356 . S
N949 H954 0.984 . S
N949 H955 0.985 . S
C950 C944 1.379 . S
C950 C947 1.363 . S
C950 N948 1.356 . S
C951 C945 1.363 . S
C951 C946 1.379 . S
C951 N949 1.356 . S
N952 C944 1.356 . S
N952 H958 0.984 . S
N952 H959 0.984 . S
N953 C946 1.356 . S
N953 H956 0.984 . S
N953 H957 0.985 . S
H954 N949 0.984 . S
H955 N949 0.985 . S
H956 N953 0.984 . S
H957 N953 0.985 . S
H958 N952 0.984 . S
H959 N952 0.984 . S
H960 N948 0.984 . S
H961 N948 0.985 . S
C962 C963 1.363 1_554 S
C962 C968 1.379 . S
C962 N970 1.356 . S
C963 C962 1.363 1_556 S
C963 C969 1.363 . S
C964 C965 1.363 1_556 S
C964 C969 1.379 . S
C964 N971 1.356 . S
C965 C964 1.363 1_554 S
C965 C968 1.363 . S
N966 C968 1.356 . S
N966 H978 0.984 . S
N966 H979 0.985 . S
N967 C969 1.356 . S
N967 H972 0.984 . S
N967 H973 0.985 . S
C968 C962 1.379 . S
C968 C965 1.363 . S
C968 N966 1.356 . S
C969 C963 1.363 . S
C969 C964 1.379 . S
C969 N967 1.356 . S
N970 C962 1.356 . S
N970 H976 0.984 . S
N970 H977 0.984 . S
N971 C964 1.356 . S
N971 H974 0.984 . S
N971 H975 0.985 . S
H972 N967 0.984 . S
H973 N967 0.985 . S
H974 N971 0.984 . S
H975 N971 0.985 . S
H976 N970 0.984 . S
H977 N970 0.984 . S
H978 N966 0.984 . S
H979 N966 0.985 . S
C980 C981 1.363 . S
C980 C986 1.379 . S
C980 N988 1.356 . S
C981 C980 1.363 . S
C981 C987 1.363 1_556 S
C982 C983 1.363 . S
C982 C987 1.379 . S
C982 N989 1.356 . S
C983 C982 1.363 . S
C983 C986 1.363 1_554 S
N984 C986 1.356 . S
N984 H996 0.984 . S
N984 H997 0.985 . S
N985 C987 1.356 . S
N985 H990 0.984 . S
N985 H991 0.985 . S
C986 C980 1.379 . S
C986 C983 1.363 1_556 S
C986 N984 1.356 . S
C987 C981 1.363 1_554 S
C987 C982 1.379 . S
C987 N985 1.356 . S
N988 C980 1.356 . S
N988 H994 0.984 . S
N988 H995 0.984 . S
N989 C982 1.356 . S
N989 H992 0.984 . S
N989 H993 0.985 . S
H990 N985 0.984 . S
H991 N985 0.985 . S
H992 N989 0.984 . S
H993 N989 0.985 . S
H994 N988 0.984 . S
H995 N988 0.984 . S
H996 N984 0.984 . S
H997 N984 0.985 . S
C998 C999 1.363 . S
C998 C1004 1.379 . S
C998 N1006 1.356 . S
C999 C998 1.363 . S
C999 C1005 1.363 1_556 S
C1000 C1001 1.363 . S
C1000 C1005 1.379 . S
C1000 N1007 1.356 . S
C1001 C1000 1.363 . S
C1001 C1004 1.363 1_554 S
N1002 C1004 1.356 . S
N1002 H1014 0.984 . S
N1002 H1015 0.985 . S
N1003 C1005 1.356 . S
N1003 H1008 0.984 . S
N1003 H1009 0.985 . S
C1004 C998 1.379 . S
C1004 C1001 1.363 1_556 S
C1004 N1002 1.356 . S
C1005 C999 1.363 1_554 S
C1005 C1000 1.379 . S
C1005 N1003 1.356 . S
N1006 C998 1.356 . S
N1006 H1012 0.984 . S
N1006 H1013 0.984 . S
N1007 C1000 1.356 . S
N1007 H1010 0.984 . S
N1007 H1011 0.985 . S
H1008 N1003 0.984 . S
H1009 N1003 0.985 . S
H1010 N1007 0.984 . S
H1011 N1007 0.985 . S
H1012 N1006 0.984 . S
H1013 N1006 0.984 . S
H1014 N1002 0.984 . S
H1015 N1002 0.985 . S
C1016 C1017 1.363 . S
C1016 C1022 1.379 1_545 S
C1016 N1024 1.356 . S
C1017 C1016 1.363 . S
C1017 C1023 1.363 . S
C1018 C1019 1.363 . S
C1018 C1023 1.379 1_565 S
C1018 N1025 1.356 . S
C1019 C1018 1.363 . S
C1019 C1022 1.363 . S
N1020 C1022 1.356 . S
N1020 H1032 0.984 . S
N1020 H1033 0.985 . S
N1021 C1023 1.356 . S
N1021 H1026 0.984 . S
N1021 H1027 0.985 . S
C1022 C1016 1.379 1_565 S
C1022 C1019 1.363 . S
C1022 N1020 1.356 . S
C1023 C1017 1.363 . S
C1023 C1018 1.379 1_545 S
C1023 N1021 1.356 . S
N1024 C1016 1.356 . S
N1024 H1030 0.984 . S
N1024 H1031 0.984 . S
N1025 C1018 1.356 . S
N1025 H1028 0.984 . S
N1025 H1029 0.985 . S
H1026 N1021 0.984 . S
H1027 N1021 0.985 . S
H1028 N1025 0.984 . S
H1029 N1025 0.985 . S
H1030 N1024 0.984 . S
H1031 N1024 0.984 . S
H1032 N1020 0.984 . S
H1033 N1020 0.985 . S
C1034 C1035 1.363 . S
C1034 C1040 1.379 1_655 S
C1034 N1042 1.356 . S
C1035 C1034 1.363 . S
C1035 C1041 1.363 . S
C1036 C1037 1.363 . S
C1036 C1041 1.379 1_455 S
C1036 N1043 1.356 . S
C1037 C1036 1.363 . S
C1037 C1040 1.363 . S
N1038 C1040 1.356 . S
N1038 H1050 0.984 . S
N1038 H1051 0.985 . S
N1039 C1041 1.356 . S
N1039 H1044 0.984 . S
N1039 H1045 0.985 . S
C1040 C1034 1.379 1_455 S
C1040 C1037 1.363 . S
C1040 N1038 1.356 . S
C1041 C1035 1.363 . S
C1041 C1036 1.379 1_655 S
C1041 N1039 1.356 . S
N1042 C1034 1.356 . S
N1042 H1048 0.984 . S
N1042 H1049 0.984 . S
N1043 C1036 1.356 . S
N1043 H1046 0.984 . S
N1043 H1047 0.985 . S
H1044 N1039 0.984 . S
H1045 N1039 0.985 . S
H1046 N1043 0.984 . S
H1047 N1043 0.985 . S
H1048 N1042 0.984 . S
H1049 N1042 0.984 . S
H1050 N1038 0.984 . S
H1051 N1038 0.985 . S
C1052 C1053 1.363 . S
C1052 C1058 1.379 1_545 S
C1052 N1060 1.356 . S
C1053 C1052 1.363 . S
C1053 C1059 1.363 . S
C1054 C1055 1.363 . S
C1054 C1059 1.379 1_565 S
C1054 N1061 1.356 . S
C1055 C1054 1.363 . S
C1055 C1058 1.363 . S
N1056 C1058 1.356 . S
N1056 H1068 0.984 . S
N1056 H1069 0.985 . S
N1057 C1059 1.356 . S
N1057 H1062 0.984 . S
N1057 H1063 0.985 . S
C1058 C1052 1.379 1_565 S
C1058 C1055 1.363 . S
C1058 N1056 1.356 . S
C1059 C1053 1.363 . S
C1059 C1054 1.379 1_545 S
C1059 N1057 1.356 . S
N1060 C1052 1.356 . S
N1060 H1066 0.984 . S
N1060 H1067 0.984 . S
N1061 C1054 1.356 . S
N1061 H1064 0.984 . S
N1061 H1065 0.985 . S
H1062 N1057 0.984 . S
H1063 N1057 0.985 . S
H1064 N1061 0.984 . S
H1065 N1061 0.985 . S
H1066 N1060 0.984 . S
H1067 N1060 0.984 . S
H1068 N1056 0.984 . S
H1069 N1056 0.985 . S
C1070 C1071 1.363 . S
C1070 C1076 1.379 1_455 S
C1070 N1078 1.356 . S
C1071 C1070 1.363 . S
C1071 C1077 1.363 . S
C1072 C1073 1.363 . S
C1072 C1077 1.379 1_655 S
C1072 N1079 1.356 . S
C1073 C1072 1.363 . S
C1073 C1076 1.363 . S
N1074 C1076 1.356 . S
N1074 H1086 0.984 . S
N1074 H1087 0.985 . S
N1075 C1077 1.356 . S
N1075 H1080 0.984 . S
N1075 H1081 0.985 . S
C1076 C1070 1.379 1_655 S
C1076 C1073 1.363 . S
C1076 N1074 1.356 . S
C1077 C1071 1.363 . S
C1077 C1072 1.379 1_455 S
C1077 N1075 1.356 . S
N1078 C1070 1.356 . S
N1078 H1084 0.984 . S
N1078 H1085 0.984 . S
N1079 C1072 1.356 . S
N1079 H1082 0.984 . S
N1079 H1083 0.985 . S
H1080 N1075 0.984 . S
H1081 N1075 0.985 . S
H1082 N1079 0.984 . S
H1083 N1079 0.985 . S
H1084 N1078 0.984 . S
H1085 N1078 0.984 . S
H1086 N1074 0.984 . S
H1087 N1074 0.985 . S
C1088 C1089 1.363 . S
C1088 C1094 1.379 . S
C1088 N1096 1.356 . S
C1089 C1088 1.363 . S
C1089 C1095 1.363 1_554 S
C1090 C1091 1.363 . S
C1090 C1095 1.379 . S
C1090 N1097 1.356 . S
C1091 C1090 1.363 . S
C1091 C1094 1.363 1_556 S
N1092 C1094 1.356 . S
N1092 H1104 0.984 . S
N1092 H1105 0.985 . S
N1093 C1095 1.356 . S
N1093 H1098 0.984 . S
N1093 H1099 0.985 . S
C1094 C1088 1.379 . S
C1094 C1091 1.363 1_554 S
C1094 N1092 1.356 . S
C1095 C1089 1.363 1_556 S
C1095 C1090 1.379 . S
C1095 N1093 1.356 . S
N1096 C1088 1.356 . S
N1096 H1102 0.984 . S
N1096 H1103 0.984 . S
N1097 C1090 1.356 . S
N1097 H1100 0.984 . S
N1097 H1101 0.985 . S
H1098 N1093 0.984 . S
H1099 N1093 0.985 . S
H1100 N1097 0.984 . S
H1101 N1097 0.985 . S
H1102 N1096 0.984 . S
H1103 N1096 0.984 . S
H1104 N1092 0.984 . S
H1105 N1092 0.985 . S
C1106 C1107 1.363 . S
C1106 C1112 1.379 . S
C1106 N1114 1.356 . S
C1107 C1106 1.363 . S
C1107 C1113 1.363 1_556 S
C1108 C1109 1.363 . S
C1108 C1113 1.379 . S
C1108 N1115 1.356 . S
C1109 C1108 1.363 . S
C1109 C1112 1.363 1_554 S
N1110 C1112 1.356 . S
N1110 H1122 0.984 . S
N1110 H1123 0.985 . S
N1111 C1113 1.356 . S
N1111 H1116 0.984 . S
N1111 H1117 0.985 . S
C1112 C1106 1.379 . S
C1112 C1109 1.363 1_556 S
C1112 N1110 1.356 . S
C1113 C1107 1.363 1_554 S
C1113 C1108 1.379 . S
C1113 N1111 1.356 . S
N1114 C1106 1.356 . S
N1114 H1120 0.984 . S
N1114 H1121 0.984 . S
N1115 C1108 1.356 . S
N1115 H1118 0.984 . S
N1115 H1119 0.985 . S
H1116 N1111 0.984 . S
H1117 N1111 0.985 . S
H1118 N1115 0.984 . S
H1119 N1115 0.985 . S
H1120 N1114 0.984 . S
H1121 N1114 0.984 . S
H1122 N1110 0.984 . S
H1123 N1110 0.985 . S
C1124 C1125 1.363 . S
C1124 C1130 1.379 . S
C1124 N1132 1.356 . S
C1125 C1124 1.363 . S
C1125 C1131 1.363 1_554 S
C1126 C1127 1.363 . S
C1126 C1131 1.379 . S
C1126 N1133 1.356 . S
C1127 C1126 1.363 . S
C1127 C1130 1.363 1_556 S
N1128 C1130 1.356 . S
N1128 H1140 0.984 . S
N1128 H1141 0.985 . S
N1129 C1131 1.356 . S
N1129 H1134 0.984 . S
N1129 H1135 0.985 . S
C1130 C1124 1.379 . S
C1130 C1127 1.363 1_554 S
C1130 N1128 1.356 . S
C1131 C1125 1.363 1_556 S
C1131 C1126 1.379 . S
C1131 N1129 1.356 . S
N1132 C1124 1.356 . S
N1132 H1138 0.984 . S
N1132 H1139 0.984 . S
N1133 C1126 1.356 . S
N1133 H1136 0.984 . S
N1133 H1137 0.985 . S
H1134 N1129 0.984 . S
H1135 N1129 0.985 . S
H1136 N1133 0.984 . S
H1137 N1133 0.985 . S
H1138 N1132 0.984 . S
H1139 N1132 0.984 . S
H1140 N1128 0.984 . S
H1141 N1128 0.985 . S
C1142 C1143 1.363 . S
C1142 C1148 1.379 . S
C1142 N1150 1.356 . S
C1143 C1142 1.363 . S
C1143 C1149 1.363 1_556 S
C1144 C1145 1.363 . S
C1144 C1149 1.379 . S
C1144 N1151 1.356 . S
C1145 C1144 1.363 . S
C1145 C1148 1.363 1_554 S
N1146 C1148 1.356 . S
N1146 H1158 0.984 . S
N1146 H1159 0.985 . S
N1147 C1149 1.356 . S
N1147 H1152 0.984 . S
N1147 H1153 0.985 . S
C1148 C1142 1.379 . S
C1148 C1145 1.363 1_556 S
C1148 N1146 1.356 . S
C1149 C1143 1.363 1_554 S
C1149 C1144 1.379 . S
C1149 N1147 1.356 . S
N1150 C1142 1.356 . S
N1150 H1156 0.984 . S
N1150 H1157 0.984 . S
N1151 C1144 1.356 . S
N1151 H1154 0.984 . S
N1151 H1155 0.985 . S
H1152 N1147 0.984 . S
H1153 N1147 0.985 . S
H1154 N1151 0.984 . S
H1155 N1151 0.985 . S
H1156 N1150 0.984 . S
H1157 N1150 0.984 . S
H1158 N1146 0.984 . S
H1159 N1146 0.985 . S
C1160 C1161 1.363 . S
C1160 C1166 1.379 . S
C1160 N1168 1.356 . S
C1161 C1160 1.363 . S
C1161 C1167 1.363 . S
C1162 C1163 1.363 . S
C1162 C1167 1.379 . S
C1162 N1169 1.356 . S
C1163 C1162 1.363 . S
C1163 C1166 1.363 . S
N1164 C1166 1.356 . S
N1164 H1176 0.984 . S
N1164 H1177 0.985 . S
N1165 C1167 1.356 . S
N1165 H1170 0.984 . S
N1165 H1171 0.985 . S
C1166 C1160 1.379 . S
C1166 C1163 1.363 . S
C1166 N1164 1.356 . S
C1167 C1161 1.363 . S
C1167 C1162 1.379 . S
C1167 N1165 1.356 . S
N1168 C1160 1.356 . S
N1168 H1174 0.984 . S
N1168 H1175 0.984 . S
N1169 C1162 1.356 . S
N1169 H1172 0.984 . S
N1169 H1173 0.985 . S
H1170 N1165 0.984 . S
H1171 N1165 0.985 . S
H1172 N1169 0.984 . S
H1173 N1169 0.985 . S
H1174 N1168 0.984 . S
H1175 N1168 0.984 . S
H1176 N1164 0.984 . S
H1177 N1164 0.985 . S
C1178 C1179 1.363 . S
C1178 C1184 1.379 . S
C1178 N1186 1.356 . S
C1179 C1178 1.363 . S
C1179 C1185 1.363 . S
C1180 C1181 1.363 . S
C1180 C1185 1.379 . S
C1180 N1187 1.356 . S
C1181 C1180 1.363 . S
C1181 C1184 1.363 . S
N1182 C1184 1.356 . S
N1182 H1194 0.984 . S
N1182 H1195 0.985 . S
N1183 C1185 1.356 . S
N1183 H1188 0.984 . S
N1183 H1189 0.985 . S
C1184 C1178 1.379 . S
C1184 C1181 1.363 . S
C1184 N1182 1.356 . S
C1185 C1179 1.363 . S
C1185 C1180 1.379 . S
C1185 N1183 1.356 . S
N1186 C1178 1.356 . S
N1186 H1192 0.984 . S
N1186 H1193 0.984 . S
N1187 C1180 1.356 . S
N1187 H1190 0.984 . S
N1187 H1191 0.985 . S
H1188 N1183 0.984 . S
H1189 N1183 0.985 . S
H1190 N1187 0.984 . S
H1191 N1187 0.985 . S
H1192 N1186 0.984 . S
H1193 N1186 0.984 . S
H1194 N1182 0.984 . S
H1195 N1182 0.985 . S
C1196 C1197 1.363 . S
C1196 C1202 1.379 . S
C1196 N1204 1.356 . S
C1197 C1196 1.363 . S
C1197 C1203 1.363 . S
C1198 C1199 1.363 . S
C1198 C1203 1.379 . S
C1198 N1205 1.356 . S
C1199 C1198 1.363 . S
C1199 C1202 1.363 . S
N1200 C1202 1.356 . S
N1200 H1212 0.984 . S
N1200 H1213 0.985 . S
N1201 C1203 1.356 . S
N1201 H1206 0.984 . S
N1201 H1207 0.985 . S
C1202 C1196 1.379 . S
C1202 C1199 1.363 . S
C1202 N1200 1.356 . S
C1203 C1197 1.363 . S
C1203 C1198 1.379 . S
C1203 N1201 1.356 . S
N1204 C1196 1.356 . S
N1204 H1210 0.984 . S
N1204 H1211 0.984 . S
N1205 C1198 1.356 . S
N1205 H1208 0.984 . S
N1205 H1209 0.985 . S
H1206 N1201 0.984 . S
H1207 N1201 0.985 . S
H1208 N1205 0.984 . S
H1209 N1205 0.985 . S
H1210 N1204 0.984 . S
H1211 N1204 0.984 . S
H1212 N1200 0.984 . S
H1213 N1200 0.985 . S
C1214 C1215 1.363 . S
C1214 C1220 1.379 . S
C1214 N1222 1.356 . S
C1215 C1214 1.363 . S
C1215 C1221 1.363 . S
C1216 C1217 1.363 . S
C1216 C1221 1.379 . S
C1216 N1223 1.356 . S
C1217 C1216 1.363 . S
C1217 C1220 1.363 . S
N1218 C1220 1.356 . S
N1218 H1230 0.984 . S
N1218 H1231 0.985 . S
N1219 C1221 1.356 . S
N1219 H1224 0.984 . S
N1219 H1225 0.985 . S
C1220 C1214 1.379 . S
C1220 C1217 1.363 . S
C1220 N1218 1.356 . S
C1221 C1215 1.363 . S
C1221 C1216 1.379 . S
C1221 N1219 1.356 . S
N1222 C1214 1.356 . S
N1222 H1228 0.984 . S
N1222 H1229 0.984 . S
N1223 C1216 1.356 . S
N1223 H1226 0.984 . S
N1223 H1227 0.985 . S
H1224 N1219 0.984 . S
H1225 N1219 0.985 . S
H1226 N1223 0.984 . S
H1227 N1223 0.985 . S
H1228 N1222 0.984 . S
H1229 N1222 0.984 . S
H1230 N1218 0.984 . S
H1231 N1218 0.985 . S
C1232 C1233 1.363 . S
C1232 C1238 1.379 . S
C1232 N1240 1.356 . S
C1233 C1232 1.363 . S
C1233 C1239 1.363 . S
C1234 C1235 1.363 . S
C1234 C1239 1.379 . S
C1234 N1241 1.356 . S
C1235 C1234 1.363 . S
C1235 C1238 1.363 . S
N1236 C1238 1.356 . S
N1236 H1248 0.984 . S
N1236 H1249 0.985 . S
N1237 C1239 1.356 . S
N1237 H1242 0.984 . S
N1237 H1243 0.985 . S
C1238 C1232 1.379 . S
C1238 C1235 1.363 . S
C1238 N1236 1.356 . S
C1239 C1233 1.363 . S
C1239 C1234 1.379 . S
C1239 N1237 1.356 . S
N1240 C1232 1.356 . S
N1240 H1246 0.984 . S
N1240 H1247 0.984 . S
N1241 C1234 1.356 . S
N1241 H1244 0.984 . S
N1241 H1245 0.985 . S
H1242 N1237 0.984 . S
H1243 N1237 0.985 . S
H1244 N1241 0.984 . S
H1245 N1241 0.985 . S
H1246 N1240 0.984 . S
H1247 N1240 0.984 . S
H1248 N1236 0.984 . S
H1249 N1236 0.985 . S
C1250 C1251 1.363 . S
C1250 C1256 1.379 . S
C1250 N1258 1.356 . S
C1251 C1250 1.363 . S
C1251 C1257 1.363 . S
C1252 C1253 1.363 . S
C1252 C1257 1.379 . S
C1252 N1259 1.356 . S
C1253 C1252 1.363 . S
C1253 C1256 1.363 . S
N1254 C1256 1.356 . S
N1254 H1266 0.984 . S
N1254 H1267 0.985 . S
N1255 C1257 1.356 . S
N1255 H1260 0.984 . S
N1255 H1261 0.985 . S
C1256 C1250 1.379 . S
C1256 C1253 1.363 . S
C1256 N1254 1.356 . S
C1257 C1251 1.363 . S
C1257 C1252 1.379 . S
C1257 N1255 1.356 . S
N1258 C1250 1.356 . S
N1258 H1264 0.984 . S
N1258 H1265 0.984 . S
N1259 C1252 1.356 . S
N1259 H1262 0.984 . S
N1259 H1263 0.985 . S
H1260 N1255 0.984 . S
H1261 N1255 0.985 . S
H1262 N1259 0.984 . S
H1263 N1259 0.985 . S
H1264 N1258 0.984 . S
H1265 N1258 0.984 . S
H1266 N1254 0.984 . S
H1267 N1254 0.985 . S
C1268 C1269 1.363 . S
C1268 C1274 1.379 . S
C1268 N1276 1.356 . S
C1269 C1268 1.363 . S
C1269 C1275 1.363 . S
C1270 C1271 1.363 . S
C1270 C1275 1.379 . S
C1270 N1277 1.356 . S
C1271 C1270 1.363 . S
C1271 C1274 1.363 . S
N1272 C1274 1.356 . S
N1272 H1284 0.984 . S
N1272 H1285 0.985 . S
N1273 C1275 1.356 . S
N1273 H1278 0.984 . S
N1273 H1279 0.985 . S
C1274 C1268 1.379 . S
C1274 C1271 1.363 . S
C1274 N1272 1.356 . S
C1275 C1269 1.363 . S
C1275 C1270 1.379 . S
C1275 N1273 1.356 . S
N1276 C1268 1.356 . S
N1276 H1282 0.984 . S
N1276 H1283 0.984 . S
N1277 C1270 1.356 . S
N1277 H1280 0.984 . S
N1277 H1281 0.985 . S
H1278 N1273 0.984 . S
H1279 N1273 0.985 . S
H1280 N1277 0.984 . S
H1281 N1277 0.985 . S
H1282 N1276 0.984 . S
H1283 N1276 0.984 . S
H1284 N1272 0.984 . S
H1285 N1272 0.985 . S
C1286 C1287 1.363 . S
C1286 C1292 1.379 . S
C1286 N1294 1.356 . S
C1287 C1286 1.363 . S
C1287 C1293 1.363 . S
C1288 C1289 1.363 . S
C1288 C1293 1.379 . S
C1288 N1295 1.356 . S
C1289 C1288 1.363 . S
C1289 C1292 1.363 . S
N1290 C1292 1.356 . S
N1290 H1302 0.984 . S
N1290 H1303 0.985 . S
N1291 C1293 1.356 . S
N1291 H1296 0.984 . S
N1291 H1297 0.985 . S
C1292 C1286 1.379 . S
C1292 C1289 1.363 . S
C1292 N1290 1.356 . S
C1293 C1287 1.363 . S
C1293 C1288 1.379 . S
C1293 N1291 1.356 . S
N1294 C1286 1.356 . S
N1294 H1300 0.984 . S
N1294 H1301 0.984 . S
N1295 C1288 1.356 . S
N1295 H1298 0.984 . S
N1295 H1299 0.985 . S
H1296 N1291 0.984 . S
H1297 N1291 0.985 . S
H1298 N1295 0.984 . S
H1299 N1295 0.985 . S
H1300 N1294 0.984 . S
H1301 N1294 0.984 . S
H1302 N1290 0.984 . S
H1303 N1290 0.985 . S
C1304 C1305 1.363 . S
C1304 C1310 1.379 . S
C1304 N1312 1.356 . S
C1305 C1304 1.363 . S
C1305 C1311 1.363 . S
C1306 C1307 1.363 . S
C1306 C1311 1.379 . S
C1306 N1313 1.356 . S
C1307 C1306 1.363 . S
C1307 C1310 1.363 . S
N1308 C1310 1.356 . S
N1308 H1320 0.984 . S
N1308 H1321 0.985 . S
N1309 C1311 1.356 . S
N1309 H1314 0.984 . S
N1309 H1315 0.985 . S
C1310 C1304 1.379 . S
C1310 C1307 1.363 . S
C1310 N1308 1.356 . S
C1311 C1305 1.363 . S
C1311 C1306 1.379 . S
C1311 N1309 1.356 . S
N1312 C1304 1.356 . S
N1312 H1318 0.984 . S
N1312 H1319 0.984 . S
N1313 C1306 1.356 . S
N1313 H1316 0.984 . S
N1313 H1317 0.985 . S
H1314 N1309 0.984 . S
H1315 N1309 0.985 . S
H1316 N1313 0.984 . S
H1317 N1313 0.985 . S
H1318 N1312 0.984 . S
H1319 N1312 0.984 . S
H1320 N1308 0.984 . S
H1321 N1308 0.985 . S
C1322 C1323 1.363 . S
C1322 C1328 1.379 . S
C1322 N1330 1.356 . S
C1323 C1322 1.363 . S
C1323 C1329 1.363 . S
C1324 C1325 1.363 . S
C1324 C1329 1.379 . S
C1324 N1331 1.356 . S
C1325 C1324 1.363 . S
C1325 C1328 1.363 . S
N1326 C1328 1.356 . S
N1326 H1338 0.984 . S
N1326 H1339 0.985 . S
N1327 C1329 1.356 . S
N1327 H1332 0.984 . S
N1327 H1333 0.985 . S
C1328 C1322 1.379 . S
C1328 C1325 1.363 . S
C1328 N1326 1.356 . S
C1329 C1323 1.363 . S
C1329 C1324 1.379 . S
C1329 N1327 1.356 . S
N1330 C1322 1.356 . S
N1330 H1336 0.984 . S
N1330 H1337 0.984 . S
N1331 C1324 1.356 . S
N1331 H1334 0.984 . S
N1331 H1335 0.985 . S
H1332 N1327 0.984 . S
H1333 N1327 0.985 . S
H1334 N1331 0.984 . S
H1335 N1331 0.985 . S
H1336 N1330 0.984 . S
H1337 N1330 0.984 . S
H1338 N1326 0.984 . S
H1339 N1326 0.985 . S
C1340 C1341 1.363 . S
C1340 C1346 1.379 . S
C1340 N1348 1.356 . S
C1341 C1340 1.363 . S
C1341 C1347 1.363 . S
C1342 C1343 1.363 . S
C1342 C1347 1.379 . S
C1342 N1349 1.356 . S
C1343 C1342 1.363 . S
C1343 C1346 1.363 . S
N1344 C1346 1.356 . S
N1344 H1356 0.984 . S
N1344 H1357 0.985 . S
N1345 C1347 1.356 . S
N1345 H1350 0.984 . S
N1345 H1351 0.985 . S
C1346 C1340 1.379 . S
C1346 C1343 1.363 . S
C1346 N1344 1.356 . S
C1347 C1341 1.363 . S
C1347 C1342 1.379 . S
C1347 N1345 1.356 . S
N1348 C1340 1.356 . S
N1348 H1354 0.984 . S
N1348 H1355 0.984 . S
N1349 C1342 1.356 . S
N1349 H1352 0.984 . S
N1349 H1353 0.985 . S
H1350 N1345 0.984 . S
H1351 N1345 0.985 . S
H1352 N1349 0.984 . S
H1353 N1349 0.985 . S
H1354 N1348 0.984 . S
H1355 N1348 0.984 . S
H1356 N1344 0.984 . S
H1357 N1344 0.985 . S
C1358 C1359 1.363 . S
C1358 C1364 1.379 . S
C1358 N1366 1.356 . S
C1359 C1358 1.363 . S
C1359 C1365 1.363 . S
C1360 C1361 1.363 . S
C1360 C1365 1.379 . S
C1360 N1367 1.356 . S
C1361 C1360 1.363 . S
C1361 C1364 1.363 . S
N1362 C1364 1.356 . S
N1362 H1374 0.984 . S
N1362 H1375 0.985 . S
N1363 C1365 1.356 . S
N1363 H1368 0.984 . S
N1363 H1369 0.985 . S
C1364 C1358 1.379 . S
C1364 C1361 1.363 . S
C1364 N1362 1.356 . S
C1365 C1359 1.363 . S
C1365 C1360 1.379 . S
C1365 N1363 1.356 . S
N1366 C1358 1.356 . S
N1366 H1372 0.984 . S
N1366 H1373 0.984 . S
N1367 C1360 1.356 . S
N1367 H1370 0.984 . S
N1367 H1371 0.985 . S
H1368 N1363 0.984 . S
H1369 N1363 0.985 . S
H1370 N1367 0.984 . S
H1371 N1367 0.985 . S
H1372 N1366 0.984 . S
H1373 N1366 0.984 . S
H1374 N1362 0.984 . S
H1375 N1362 0.985 . S
C1376 C1377 1.363 . S
C1376 C1382 1.379 . S
C1376 N1384 1.356 . S
C1377 C1376 1.363 . S
C1377 C1383 1.363 . S
C1378 C1379 1.363 . S
C1378 C1383 1.379 . S
C1378 N1385 1.356 . S
C1379 C1378 1.363 . S
C1379 C1382 1.363 . S
N1380 C1382 1.356 . S
N1380 H1392 0.984 . S
N1380 H1393 0.985 . S
N1381 C1383 1.356 . S
N1381 H1386 0.984 . S
N1381 H1387 0.985 . S
C1382 C1376 1.379 . S
C1382 C1379 1.363 . S
C1382 N1380 1.356 . S
C1383 C1377 1.363 . S
C1383 C1378 1.379 . S
C1383 N1381 1.356 . S
N1384 C1376 1.356 . S
N1384 H1390 0.984 . S
N1384 H1391 0.984 . S
N1385 C1378 1.356 . S
N1385 H1388 0.984 . S
N1385 H1389 0.985 . S
H1386 N1381 0.984 . S
H1387 N1381 0.985 . S
H1388 N1385 0.984 . S
H1389 N1385 0.985 . S
H1390 N1384 0.984 . S
H1391 N1384 0.984 . S
H1392 N1380 0.984 . S
H1393 N1380 0.985 . S
C1394 C1395 1.363 . S
C1394 C1400 1.379 . S
C1394 N1402 1.356 . S
C1395 C1394 1.363 . S
C1395 C1401 1.363 . S
C1396 C1397 1.363 . S
C1396 C1401 1.379 . S
C1396 N1403 1.356 . S
C1397 C1396 1.363 . S
C1397 C1400 1.363 . S
N1398 C1400 1.356 . S
N1398 H1410 0.984 . S
N1398 H1411 0.985 . S
N1399 C1401 1.356 . S
N1399 H1404 0.984 . S
N1399 H1405 0.985 . S
C1400 C1394 1.379 . S
C1400 C1397 1.363 . S
C1400 N1398 1.356 . S
C1401 C1395 1.363 . S
C1401 C1396 1.379 . S
C1401 N1399 1.356 . S
N1402 C1394 1.356 . S
N1402 H1408 0.984 . S
N1402 H1409 0.984 . S
N1403 C1396 1.356 . S
N1403 H1406 0.984 . S
N1403 H1407 0.985 . S
H1404 N1399 0.984 . S
H1405 N1399 0.985 . S
H1406 N1403 0.984 . S
H1407 N1403 0.985 . S
H1408 N1402 0.984 . S
H1409 N1402 0.984 . S
H1410 N1398 0.984 . S
H1411 N1398 0.985 . S
C1412 C1413 1.363 . S
C1412 C1418 1.379 . S
C1412 N1420 1.356 . S
C1413 C1412 1.363 . S
C1413 C1419 1.363 . S
C1414 C1415 1.363 . S
C1414 C1419 1.379 . S
C1414 N1421 1.356 . S
C1415 C1414 1.363 . S
C1415 C1418 1.363 . S
N1416 C1418 1.356 . S
N1416 H1428 0.984 . S
N1416 H1429 0.985 . S
N1417 C1419 1.356 . S
N1417 H1422 0.984 . S
N1417 H1423 0.985 . S
C1418 C1412 1.379 . S
C1418 C1415 1.363 . S
C1418 N1416 1.356 . S
C1419 C1413 1.363 . S
C1419 C1414 1.379 . S
C1419 N1417 1.356 . S
N1420 C1412 1.356 . S
N1420 H1426 0.984 . S
N1420 H1427 0.984 . S
N1421 C1414 1.356 . S
N1421 H1424 0.984 . S
N1421 H1425 0.985 . S
H1422 N1417 0.984 . S
H1423 N1417 0.985 . S
H1424 N1421 0.984 . S
H1425 N1421 0.985 . S
H1426 N1420 0.984 . S
H1427 N1420 0.984 . S
H1428 N1416 0.984 . S
H1429 N1416 0.985 . S
C1430 C1431 1.363 . S
C1430 C1436 1.379 . S
C1430 N1438 1.356 . S
C1431 C1430 1.363 . S
C1431 C1437 1.363 . S
C1432 C1433 1.363 . S
C1432 C1437 1.379 . S
C1432 N1439 1.356 . S
C1433 C1432 1.363 . S
C1433 C1436 1.363 . S
N1434 C1436 1.356 . S
N1434 H1446 0.984 . S
N1434 H1447 0.985 . S
N1435 C1437 1.356 . S
N1435 H1440 0.984 . S
N1435 H1441 0.985 . S
C1436 C1430 1.379 . S
C1436 C1433 1.363 . S
C1436 N1434 1.356 . S
C1437 C1431 1.363 . S
C1437 C1432 1.379 . S
C1437 N1435 1.356 . S
N1438 C1430 1.356 . S
N1438 H1444 0.984 . S
N1438 H1445 0.984 . S
N1439 C1432 1.356 . S
N1439 H1442 0.984 . S
N1439 H1443 0.985 . S
H1440 N1435 0.984 . S
H1441 N1435 0.985 . S
H1442 N1439 0.984 . S
H1443 N1439 0.985 . S
H1444 N1438 0.984 . S
H1445 N1438 0.984 . S
H1446 N1434 0.984 . S
H1447 N1434 0.985 . S
C1448 C1449 1.363 . S
C1448 C1454 1.379 . S
C1448 N1456 1.356 . S
C1449 C1448 1.363 . S
C1449 C1455 1.363 . S
C1450 C1451 1.363 . S
C1450 C1455 1.379 . S
C1450 N1457 1.356 . S
C1451 C1450 1.363 . S
C1451 C1454 1.363 . S
N1452 C1454 1.356 . S
N1452 H1464 0.984 . S
N1452 H1465 0.985 . S
N1453 C1455 1.356 . S
N1453 H1458 0.984 . S
N1453 H1459 0.985 . S
C1454 C1448 1.379 . S
C1454 C1451 1.363 . S
C1454 N1452 1.356 . S
C1455 C1449 1.363 . S
C1455 C1450 1.379 . S
C1455 N1453 1.356 . S
N1456 C1448 1.356 . S
N1456 H1462 0.984 . S
N1456 H1463 0.984 . S
N1457 C1450 1.356 . S
N1457 H1460 0.984 . S
N1457 H1461 0.985 . S
H1458 N1453 0.984 . S
H1459 N1453 0.985 . S
H1460 N1457 0.984 . S
H1461 N1457 0.985 . S
H1462 N1456 0.984 . S
H1463 N1456 0.984 . S
H1464 N1452 0.984 . S
H1465 N1452 0.985 . S
C1466 C1467 1.363 . S
C1466 C1472 1.379 . S
C1466 N1474 1.356 . S
C1467 C1466 1.363 . S
C1467 C1473 1.363 . S
C1468 C1469 1.363 . S
C1468 C1473 1.379 . S
C1468 N1475 1.356 . S
C1469 C1468 1.363 . S
C1469 C1472 1.363 . S
N1470 C1472 1.356 . S
N1470 H1482 0.984 . S
N1470 H1483 0.985 . S
N1471 C1473 1.356 . S
N1471 H1476 0.984 . S
N1471 H1477 0.985 . S
C1472 C1466 1.379 . S
C1472 C1469 1.363 . S
C1472 N1470 1.356 . S
C1473 C1467 1.363 . S
C1473 C1468 1.379 . S
C1473 N1471 1.356 . S
N1474 C1466 1.356 . S
N1474 H1480 0.984 . S
N1474 H1481 0.984 . S
N1475 C1468 1.356 . S
N1475 H1478 0.984 . S
N1475 H1479 0.985 . S
H1476 N1471 0.984 . S
H1477 N1471 0.985 . S
H1478 N1475 0.984 . S
H1479 N1475 0.985 . S
H1480 N1474 0.984 . S
H1481 N1474 0.984 . S
H1482 N1470 0.984 . S
H1483 N1470 0.985 . S
C1484 C1485 1.363 . S
C1484 C1490 1.379 . S
C1484 N1492 1.356 . S
C1485 C1484 1.363 . S
C1485 C1491 1.363 . S
C1486 C1487 1.363 . S
C1486 C1491 1.379 . S
C1486 N1493 1.356 . S
C1487 C1486 1.363 . S
C1487 C1490 1.363 . S
N1488 C1490 1.356 . S
N1488 H1500 0.984 . S
N1488 H1501 0.985 . S
N1489 C1491 1.356 . S
N1489 H1494 0.984 . S
N1489 H1495 0.985 . S
C1490 C1484 1.379 . S
C1490 C1487 1.363 . S
C1490 N1488 1.356 . S
C1491 C1485 1.363 . S
C1491 C1486 1.379 . S
C1491 N1489 1.356 . S
N1492 C1484 1.356 . S
N1492 H1498 0.984 . S
N1492 H1499 0.984 . S
N1493 C1486 1.356 . S
N1493 H1496 0.984 . S
N1493 H1497 0.985 . S
H1494 N1489 0.984 . S
H1495 N1489 0.985 . S
H1496 N1493 0.984 . S
H1497 N1493 0.985 . S
H1498 N1492 0.984 . S
H1499 N1492 0.984 . S
H1500 N1488 0.984 . S
H1501 N1488 0.985 . S
C1502 C1503 1.363 . S
C1502 C1508 1.379 . S
C1502 N1510 1.356 . S
C1503 C1502 1.363 . S
C1503 C1509 1.363 . S
C1504 C1505 1.363 . S
C1504 C1509 1.379 . S
C1504 N1511 1.356 . S
C1505 C1504 1.363 . S
C1505 C1508 1.363 . S
N1506 C1508 1.356 . S
N1506 H1518 0.984 . S
N1506 H1519 0.985 . S
N1507 C1509 1.356 . S
N1507 H1512 0.984 . S
N1507 H1513 0.985 . S
C1508 C1502 1.379 . S
C1508 C1505 1.363 . S
C1508 N1506 1.356 . S
C1509 C1503 1.363 . S
C1509 C1504 1.379 . S
C1509 N1507 1.356 . S
N1510 C1502 1.356 . S
N1510 H1516 0.984 . S
N1510 H1517 0.984 . S
N1511 C1504 1.356 . S
N1511 H1514 0.984 . S
N1511 H1515 0.985 . S
H1512 N1507 0.984 . S
H1513 N1507 0.985 . S
H1514 N1511 0.984 . S
H1515 N1511 0.985 . S
H1516 N1510 0.984 . S
H1517 N1510 0.984 . S
H1518 N1506 0.984 . S
H1519 N1506 0.985 . S
C945 C241 1.563 . S
C947 C5 1.563 . S
C963 C300 1.563 . S
C965 C64 1.563 . S
C981 C359 1.563 . S
C983 C123 1.563 . S
C999 C418 1.563 . S
C1001 C182 1.563 . S
C1017 C713 1.563 . S
C1019 C477 1.563 . S
C1035 C772 1.563 . S
C1037 C536 1.563 . S
C1053 C595 1.563 . S
C1055 C831 1.563 . S
C1071 C890 1.563 . S
C1073 C654 1.563 . S
C1089 C52 1.596 . S
C1091 C347 1.596 . S
C1107 C406 1.596 . S
C1109 C111 1.596 . S
C1125 C170 1.596 . S
C1127 C465 1.596 . S
C1143 C288 1.596 . S
C1145 C229 1.596 . S
C1161 C819 1.596 . S
C1163 C524 1.596 . S
C1179 C878 1.596 . S
C1181 C583 1.596 . S
C1197 C642 1.596 . S
C1199 C937 1.596 . S
C1215 C701 1.596 . S
C1217 C760 1.596 . S
C1233 C918 1.738 . S
C1235 C33 1.738 . S
C1251 C741 1.738 . S
C1253 C92 1.738 . S
C1269 C800 1.738 . S
C1271 C151 1.738 . S
C1287 C859 1.738 . S
C1289 C210 1.738 . S
C1305 C564 1.738 . S
C1307 C269 1.738 . S
C1323 C623 1.738 . S
C1325 C328 1.738 . S
C1341 C387 1.738 . S
C1343 C682 1.738 . S
C1359 C446 1.738 . S
C1361 C505 1.738 . S
C1377 C770 1.194 . S
C1379 C121 1.194 . S
C1395 C829 1.194 . S
C1397 C180 1.194 . S
C1413 C888 1.194 . S
C1415 C3 1.194 . S
C1431 C62 1.194 . S
C1433 C711 1.194 . S
C1449 C652 1.194 . S
C1451 C357 1.194 . S
C1467 C416 1.194 . S
C1469 C475 1.194 . S
C1485 C534 1.194 . S
C1487 C239 1.194 . S
C1503 C593 1.194 . S
C1505 C298 1.194 . S
