# Generated by pormake.
# Topology zni, (4)-cn, num edge types: 1
# Building blocks:
#     Node 0, Type 0, BuildingBlock: ICAMEG_clean_sbu_1, # of connection points: 4
#     Node 1, Type 0, BuildingBlock: ICAMEG_clean_sbu_1, # of connection points: 4
#     Node 2, Type 0, BuildingBlock: ICAMEG_clean_sbu_1, # of connection points: 4
#     Node 3, Type 0, BuildingBlock: ICAMEG_clean_sbu_1, # of connection points: 4
#     Node 4, Type 0, BuildingBlock: ICAMEG_clean_sbu_1, # of connection points: 4
#     Node 5, Type 0, BuildingBlock: ICAMEG_clean_sbu_1, # of connection points: 4
#     Node 6, Type 0, BuildingBlock: ICAMEG_clean_sbu_1, # of connection points: 4
#     Node 7, Type 0, BuildingBlock: ICAMEG_clean_sbu_1, # of connection points: 4
#     Node 8, Type 0, BuildingBlock: ICAMEG_clean_sbu_1, # of connection points: 4
#     Node 9, Type 0, BuildingBlock: ICAMEG_clean_sbu_1, # of connection points: 4
#     Node 10, Type 0, BuildingBlock: ICAMEG_clean_sbu_1, # of connection points: 4
#     Node 11, Type 0, BuildingBlock: ICAMEG_clean_sbu_1, # of connection points: 4
#     Node 12, Type 0, BuildingBlock: ICAMEG_clean_sbu_1, # of connection points: 4
#     Node 13, Type 0, BuildingBlock: ICAMEG_clean_sbu_1, # of connection points: 4
#     Node 14, Type 0, BuildingBlock: ICAMEG_clean_sbu_1, # of connection points: 4
#     Node 15, Type 0, BuildingBlock: ICAMEG_clean_sbu_1, # of connection points: 4
#     Node 16, Type 0, BuildingBlock: ICAMEG_clean_sbu_1, # of connection points: 4
#     Node 17, Type 0, BuildingBlock: ICAMEG_clean_sbu_1, # of connection points: 4
#     Node 18, Type 0, BuildingBlock: ICAMEG_clean_sbu_1, # of connection points: 4
#     Node 19, Type 0, BuildingBlock: ICAMEG_clean_sbu_1, # of connection points: 4
#     Node 20, Type 0, BuildingBlock: ICAMEG_clean_sbu_1, # of connection points: 4
#     Node 21, Type 0, BuildingBlock: ICAMEG_clean_sbu_1, # of connection points: 4
#     Node 22, Type 0, BuildingBlock: ICAMEG_clean_sbu_1, # of connection points: 4
#     Node 23, Type 0, BuildingBlock: ICAMEG_clean_sbu_1, # of connection points: 4
#     Node 24, Type 0, BuildingBlock: ICAMEG_clean_sbu_1, # of connection points: 4
#     Node 25, Type 0, BuildingBlock: ICAMEG_clean_sbu_1, # of connection points: 4
#     Node 26, Type 0, BuildingBlock: ICAMEG_clean_sbu_1, # of connection points: 4
#     Node 27, Type 0, BuildingBlock: ICAMEG_clean_sbu_1, # of connection points: 4
#     Node 28, Type 0, BuildingBlock: ICAMEG_clean_sbu_1, # of connection points: 4
#     Node 29, Type 0, BuildingBlock: ICAMEG_clean_sbu_1, # of connection points: 4
#     Node 30, Type 0, BuildingBlock: ICAMEG_clean_sbu_1, # of connection points: 4
#     Node 31, Type 0, BuildingBlock: ICAMEG_clean_sbu_1, # of connection points: 4
#     Edge 32, Type (0, 0), BuildingBlock: XIVTED_clean_linker_0, # of connection points: 2
#     Edge 33, Type (0, 0), BuildingBlock: XIVTED_clean_linker_0, # of connection points: 2
#     Edge 34, Type (0, 0), BuildingBlock: XIVTED_clean_linker_0, # of connection points: 2
#     Edge 35, Type (0, 0), BuildingBlock: XIVTED_clean_linker_0, # of connection points: 2
#     Edge 36, Type (0, 0), BuildingBlock: XIVTED_clean_linker_0, # of connection points: 2
#     Edge 37, Type (0, 0), BuildingBlock: XIVTED_clean_linker_0, # of connection points: 2
#     Edge 38, Type (0, 0), BuildingBlock: XIVTED_clean_linker_0, # of connection points: 2
#     Edge 39, Type (0, 0), BuildingBlock: XIVTED_clean_linker_0, # of connection points: 2
#     Edge 40, Type (0, 0), BuildingBlock: XIVTED_clean_linker_0, # of connection points: 2
#     Edge 41, Type (0, 0), BuildingBlock: XIVTED_clean_linker_0, # of connection points: 2
#     Edge 42, Type (0, 0), BuildingBlock: XIVTED_clean_linker_0, # of connection points: 2
#     Edge 43, Type (0, 0), BuildingBlock: XIVTED_clean_linker_0, # of connection points: 2
#     Edge 44, Type (0, 0), BuildingBlock: XIVTED_clean_linker_0, # of connection points: 2
#     Edge 45, Type (0, 0), BuildingBlock: XIVTED_clean_linker_0, # of connection points: 2
#     Edge 46, Type (0, 0), BuildingBlock: XIVTED_clean_linker_0, # of connection points: 2
#     Edge 47, Type (0, 0), BuildingBlock: XIVTED_clean_linker_0, # of connection points: 2
#     Edge 48, Type (0, 0), BuildingBlock: XIVTED_clean_linker_0, # of connection points: 2
#     Edge 49, Type (0, 0), BuildingBlock: XIVTED_clean_linker_0, # of connection points: 2
#     Edge 50, Type (0, 0), BuildingBlock: XIVTED_clean_linker_0, # of connection points: 2
#     Edge 51, Type (0, 0), BuildingBlock: XIVTED_clean_linker_0, # of connection points: 2
#     Edge 52, Type (0, 0), BuildingBlock: XIVTED_clean_linker_0, # of connection points: 2
#     Edge 53, Type (0, 0), BuildingBlock: XIVTED_clean_linker_0, # of connection points: 2
#     Edge 54, Type (0, 0), BuildingBlock: XIVTED_clean_linker_0, # of connection points: 2
#     Edge 55, Type (0, 0), BuildingBlock: XIVTED_clean_linker_0, # of connection points: 2
#     Edge 56, Type (0, 0), BuildingBlock: XIVTED_clean_linker_0, # of connection points: 2
#     Edge 57, Type (0, 0), BuildingBlock: XIVTED_clean_linker_0, # of connection points: 2
#     Edge 58, Type (0, 0), BuildingBlock: XIVTED_clean_linker_0, # of connection points: 2
#     Edge 59, Type (0, 0), BuildingBlock: XIVTED_clean_linker_0, # of connection points: 2
#     Edge 60, Type (0, 0), BuildingBlock: XIVTED_clean_linker_0, # of connection points: 2
#     Edge 61, Type (0, 0), BuildingBlock: XIVTED_clean_linker_0, # of connection points: 2
#     Edge 62, Type (0, 0), BuildingBlock: XIVTED_clean_linker_0, # of connection points: 2
#     Edge 63, Type (0, 0), BuildingBlock: XIVTED_clean_linker_0, # of connection points: 2
#     Edge 64, Type (0, 0), BuildingBlock: XIVTED_clean_linker_0, # of connection points: 2
#     Edge 65, Type (0, 0), BuildingBlock: XIVTED_clean_linker_0, # of connection points: 2
#     Edge 66, Type (0, 0), BuildingBlock: XIVTED_clean_linker_0, # of connection points: 2
#     Edge 67, Type (0, 0), BuildingBlock: XIVTED_clean_linker_0, # of connection points: 2
#     Edge 68, Type (0, 0), BuildingBlock: XIVTED_clean_linker_0, # of connection points: 2
#     Edge 69, Type (0, 0), BuildingBlock: XIVTED_clean_linker_0, # of connection points: 2
#     Edge 70, Type (0, 0), BuildingBlock: XIVTED_clean_linker_0, # of connection points: 2
#     Edge 71, Type (0, 0), BuildingBlock: XIVTED_clean_linker_0, # of connection points: 2
#     Edge 72, Type (0, 0), BuildingBlock: XIVTED_clean_linker_0, # of connection points: 2
#     Edge 73, Type (0, 0), BuildingBlock: XIVTED_clean_linker_0, # of connection points: 2
#     Edge 74, Type (0, 0), BuildingBlock: XIVTED_clean_linker_0, # of connection points: 2
#     Edge 75, Type (0, 0), BuildingBlock: XIVTED_clean_linker_0, # of connection points: 2
#     Edge 76, Type (0, 0), BuildingBlock: XIVTED_clean_linker_0, # of connection points: 2
#     Edge 77, Type (0, 0), BuildingBlock: XIVTED_clean_linker_0, # of connection points: 2
#     Edge 78, Type (0, 0), BuildingBlock: XIVTED_clean_linker_0, # of connection points: 2
#     Edge 79, Type (0, 0), BuildingBlock: XIVTED_clean_linker_0, # of connection points: 2
#     Edge 80, Type (0, 0), BuildingBlock: XIVTED_clean_linker_0, # of connection points: 2
#     Edge 81, Type (0, 0), BuildingBlock: XIVTED_clean_linker_0, # of connection points: 2
#     Edge 82, Type (0, 0), BuildingBlock: XIVTED_clean_linker_0, # of connection points: 2
#     Edge 83, Type (0, 0), BuildingBlock: XIVTED_clean_linker_0, # of connection points: 2
#     Edge 84, Type (0, 0), BuildingBlock: XIVTED_clean_linker_0, # of connection points: 2
#     Edge 85, Type (0, 0), BuildingBlock: XIVTED_clean_linker_0, # of connection points: 2
#     Edge 86, Type (0, 0), BuildingBlock: XIVTED_clean_linker_0, # of connection points: 2
#     Edge 87, Type (0, 0), BuildingBlock: XIVTED_clean_linker_0, # of connection points: 2
#     Edge 88, Type (0, 0), BuildingBlock: XIVTED_clean_linker_0, # of connection points: 2
#     Edge 89, Type (0, 0), BuildingBlock: XIVTED_clean_linker_0, # of connection points: 2
#     Edge 90, Type (0, 0), BuildingBlock: XIVTED_clean_linker_0, # of connection points: 2
#     Edge 91, Type (0, 0), BuildingBlock: XIVTED_clean_linker_0, # of connection points: 2
#     Edge 92, Type (0, 0), BuildingBlock: XIVTED_clean_linker_0, # of connection points: 2
#     Edge 93, Type (0, 0), BuildingBlock: XIVTED_clean_linker_0, # of connection points: 2
#     Edge 94, Type (0, 0), BuildingBlock: XIVTED_clean_linker_0, # of connection points: 2
#     Edge 95, Type (0, 0), BuildingBlock: XIVTED_clean_linker_0, # of connection points: 2
# Relax obj value: 0.253
# Max RMSD: 0.155
# Mean RMSD: 0.155
data_MOF--net-zni--node1-ICAMEG_clean_sbu_1--edge1-XIVTED_clean_linker_0
_symmetry_space_group_name_H-M    P1
_symmetry_Int_Tables_number       1
_symmetry_cell_setting            triclinic
loop_
_symmetry_equiv_pos_as_xyz
'x, y, z'
_cell_length_a     66.616483
_cell_length_b     66.611374
_cell_length_c     27.669094
_cell_angle_alpha  90.005096
_cell_angle_beta   89.992227
_cell_angle_gamma 89.996253
loop_
_atom_site_label
_atom_site_type_symbol
_atom_site_fract_x
_atom_site_fract_y
_atom_site_fract_z
_atom_type_partial_charge
Co0 Co 0.07231 0.10874 0.44071 0.0
Co1 Co 0.11183 0.10847 0.36013 0.0
O2 O 0.08446 0.10145 0.37928 0.0
C3 C 0.04243 0.12546 0.37166 0.0
O4 O 0.05691 0.13543 0.35019 0.0
C5 C 0.10987 0.06439 0.34935 0.0
O6 O 0.10365 0.06373 0.39435 0.0
O7 O 0.12322 0.09855 0.4227 0.0
O8 O 0.09793 0.10331 0.47545 0.0
H9 H 0.18035 0.13911 0.37927 0.0
H10 H 0.05333 0.07812 0.3779 0.0
O11 O 0.04623 0.11404 0.40741 0.0
H12 H 0.06608 0.04383 0.53283 0.0
H13 H 0.01659 0.11068 0.56373 0.0
H14 H 0.08547 0.13262 0.52532 0.0
H15 H 0.07476 0.07957 0.52233 0.0
H16 H 0.03247 0.10103 0.4866 0.0
O17 O 0.11461 0.08114 0.33029 0.0
H18 H 0.14583 0.13071 0.40429 0.0
H19 H 0.13592 0.10034 0.27153 0.0
H20 H 0.07024 0.14245 0.60307 0.0
H21 H 0.04423 0.04241 0.38689 0.0
H22 H 0.03555 0.13146 0.62267 0.0
H23 H 0.05068 0.02502 0.46475 0.0
O24 O 0.08031 0.13735 0.43168 0.0
H25 H 0.06855 0.10554 0.2114 0.0
H26 H 0.11718 0.14616 0.30356 0.0
H27 H 0.10306 0.15955 0.22773 0.0
H28 H 0.0786 0.13916 0.18103 0.0
H29 H 0.08292 0.09279 0.28757 0.0
H30 H 0.17037 0.1083 0.24511 0.0
H31 H 0.19283 0.12786 0.29911 0.0
O32 O 0.10918 0.13582 0.38936 0.0
C33 C 0.11606 0.09879 0.46554 0.0
C34 C 0.17072 0.13056 0.35542 0.0
C35 C 0.16512 0.11325 0.28016 0.0
N36 N 0.13889 0.115 0.33955 0.0
C37 C 0.15115 0.12576 0.36943 0.0
C38 C 0.14565 0.10872 0.29541 0.0
C39 C 0.17771 0.12424 0.31046 0.0
C40 C 0.05605 0.07068 0.41199 0.0
N41 N 0.06462 0.08089 0.44952 0.0
C42 C 0.05092 0.05045 0.41682 0.0
C43 C 0.05457 0.04069 0.4605 0.0
C44 C 0.06323 0.05123 0.49869 0.0
C45 C 0.0682 0.07144 0.49249 0.0
C46 C 0.03173 0.11553 0.55563 0.0
C47 C 0.07042 0.12768 0.53374 0.0
C48 C 0.04078 0.11016 0.51197 0.0
N49 N 0.05994 0.11613 0.50164 0.0
C50 C 0.06185 0.13334 0.57775 0.0
C51 C 0.04237 0.12718 0.5887 0.0
C52 C 0.09601 0.14541 0.41369 0.0
C53 C 0.07924 0.11454 0.23135 0.0
C54 C 0.1065 0.13722 0.28352 0.0
C55 C 0.09859 0.14486 0.24056 0.0
C56 C 0.08487 0.13341 0.21436 0.0
N57 N 0.10098 0.11865 0.29983 0.0
C58 C 0.08749 0.10737 0.27443 0.0
Co59 Co 0.14184 0.81997 0.69658 0.0
Co60 Co 0.14505 0.85888 0.61465 0.0
O61 O 0.15058 0.83134 0.63514 0.0
C62 C 0.12452 0.79036 0.62746 0.0
O63 O 0.11526 0.80504 0.60496 0.0
C64 C 0.18929 0.8555 0.60415 0.0
O65 O 0.19016 0.84917 0.64905 0.0
O66 O 0.15509 0.87007 0.67737 0.0
O67 O 0.14823 0.8455 0.73077 0.0
H68 H 0.11757 0.92883 0.6314 0.0
H69 H 0.17222 0.79917 0.63643 0.0
O70 O 0.13566 0.79397 0.66382 0.0
H71 H 0.2051 0.81066 0.79368 0.0
H72 H 0.13549 0.76521 0.82122 0.0
H73 H 0.11772 0.83491 0.77908 0.0
H74 H 0.17005 0.82121 0.78028 0.0
H75 H 0.14689 0.78007 0.74431 0.0
O76 O 0.17252 0.86047 0.58564 0.0
H77 H 0.12429 0.89407 0.65744 0.0
H78 H 0.15458 0.88218 0.52549 0.0
H79 H 0.10616 0.8207 0.85657 0.0
H80 H 0.20723 0.78817 0.64834 0.0
H81 H 0.11505 0.7856 0.87805 0.0
H82 H 0.22393 0.79397 0.72738 0.0
O83 O 0.11368 0.82934 0.68554 0.0
H84 H 0.14707 0.81454 0.46768 0.0
H85 H 0.10813 0.86575 0.55592 0.0
H86 H 0.0947 0.85176 0.48001 0.0
H87 H 0.11424 0.826 0.43528 0.0
H88 H 0.15988 0.82881 0.54391 0.0
H89 H 0.1483 0.91684 0.49808 0.0
H90 H 0.12962 0.94042 0.55115 0.0
O91 O 0.11748 0.85761 0.64224 0.0
C92 C 0.15399 0.86325 0.72047 0.0
C93 C 0.12574 0.9187 0.60796 0.0
C94 C 0.143 0.91198 0.53316 0.0
N95 N 0.13986 0.88612 0.59315 0.0
C96 C 0.12959 0.899 0.62254 0.0
C97 C 0.14659 0.89239 0.54897 0.0
C98 C 0.13251 0.9252 0.56294 0.0
C99 C 0.17935 0.80165 0.671 0.0
N100 N 0.16914 0.81092 0.70757 0.0
C101 C 0.19919 0.79543 0.6775 0.0
C102 C 0.20856 0.79871 0.72184 0.0
C103 C 0.19801 0.80809 0.75903 0.0
C104 C 0.17821 0.81413 0.75118 0.0
C105 C 0.13155 0.78053 0.8123 0.0
C106 C 0.12175 0.81967 0.78832 0.0
C107 C 0.13792 0.78901 0.76874 0.0
N108 N 0.13309 0.80839 0.75739 0.0
C109 C 0.11512 0.81168 0.83218 0.0
C110 C 0.12009 0.79198 0.84418 0.0
C111 C 0.10672 0.84529 0.66615 0.0
C112 C 0.13844 0.8258 0.48677 0.0
C113 C 0.1167 0.8545 0.53675 0.0
C114 C 0.10903 0.84667 0.49373 0.0
C115 C 0.12001 0.83222 0.46864 0.0
N116 N 0.13483 0.84819 0.55421 0.0
C117 C 0.14565 0.83399 0.52987 0.0
Co118 Co 0.43292 0.88991 0.9395 0.0
Co119 Co 0.39152 0.89336 0.86393 0.0
O120 O 0.41991 0.89839 0.87937 0.0
C121 C 0.4626 0.87978 0.86017 0.0
O122 O 0.4502 0.88556 0.82618 0.0
C123 C 0.39586 0.93742 0.85301 0.0
O124 O 0.40376 0.93785 0.89647 0.0
O125 O 0.38245 0.90374 0.92805 0.0
O126 O 0.40866 0.89786 0.97716 0.0
H127 H 0.32175 0.86742 0.89386 0.0
H128 H 0.45248 0.91955 0.87397 0.0
O129 O 0.45792 0.88119 0.90468 0.0
H130 H 0.44757 0.95337 0.03189 0.0
H131 H 0.49026 0.8826 0.057 0.0
H132 H 0.41904 0.86727 0.02535 0.0
H133 H 0.43537 0.91871 0.02172 0.0
H134 H 0.47408 0.89382 0.98149 0.0
O135 O 0.38958 0.92093 0.83531 0.0
H136 H 0.35735 0.87348 0.91344 0.0
H137 H 0.36566 0.90327 0.77923 0.0
H138 H 0.43457 0.85594 0.10155 0.0
H139 H 0.46507 0.95409 0.8826 0.0
H140 H 0.47044 0.86361 0.11776 0.0
H141 H 0.46262 0.9713 0.96201 0.0
O142 O 0.4224 0.8622 0.93118 0.0
H143 H 0.4284 0.89564 0.70532 0.0
H144 H 0.38295 0.85593 0.80846 0.0
H145 H 0.39335 0.84249 0.72933 0.0
H146 H 0.41617 0.86243 0.67703 0.0
H147 H 0.41794 0.90836 0.78507 0.0
H148 H 0.33013 0.89764 0.75829 0.0
H149 H 0.30792 0.87955 0.81576 0.0
O150 O 0.39306 0.86569 0.89174 0.0
C151 C 0.3906 0.90338 0.96976 0.0
C152 C 0.33128 0.87531 0.86849 0.0
C153 C 0.33597 0.89229 0.79244 0.0
N154 N 0.36358 0.88871 0.84756 0.0
C155 C 0.35145 0.87877 0.87938 0.0
C156 C 0.35607 0.8955 0.80458 0.0
C157 C 0.32352 0.88213 0.82469 0.0
C158 C 0.45159 0.92675 0.90878 0.0
N159 N 0.44337 0.91696 0.9474 0.0
C160 C 0.45864 0.94641 0.91339 0.0
C161 C 0.45723 0.95607 0.95792 0.0
C162 C 0.44878 0.94603 0.99712 0.0
C163 C 0.44185 0.9264 0.99112 0.0
C164 C 0.47461 0.87921 0.0504 0.0
C165 C 0.43462 0.87078 0.0323 0.0
C166 C 0.46538 0.88547 0.00765 0.0
N167 N 0.44559 0.88134 0.99921 0.0
C168 C 0.44335 0.86427 0.07544 0.0
C169 C 0.46348 0.86856 0.08448 0.0
C170 C 0.40604 0.85518 0.91426 0.0
C171 C 0.41844 0.88681 0.72776 0.0
C172 C 0.39309 0.8646 0.78624 0.0
C173 C 0.39883 0.85696 0.74131 0.0
C174 C 0.4116 0.86817 0.71194 0.0
N175 N 0.39989 0.8829 0.80157 0.0
C176 C 0.41238 0.89398 0.7729 0.0
Co177 Co 0.3582 0.18221 0.19394 0.0
Co178 Co 0.35507 0.14027 0.12094 0.0
O179 O 0.35016 0.16873 0.13454 0.0
C180 C 0.37812 0.20966 0.12276 0.0
O181 O 0.38903 0.19476 0.10614 0.0
C182 C 0.31162 0.14652 0.10642 0.0
O183 O 0.3117 0.15649 0.14731 0.0
O184 O 0.34406 0.13187 0.18503 0.0
O185 O 0.35086 0.15819 0.23324 0.0
H186 H 0.3806 0.07067 0.15507 0.0
H187 H 0.32936 0.20194 0.12766 0.0
O188 O 0.36532 0.2068 0.15624 0.0
H189 H 0.29395 0.1965 0.28363 0.0
H190 H 0.36415 0.24128 0.30679 0.0
H191 H 0.38099 0.16998 0.28105 0.0
H192 H 0.32875 0.18435 0.27508 0.0
H193 H 0.35342 0.22383 0.23253 0.0
O194 O 0.32764 0.13821 0.09116 0.0
H195 H 0.37459 0.10646 0.17269 0.0
H196 H 0.34552 0.11374 0.03726 0.0
H197 H 0.39185 0.1868 0.35606 0.0
H198 H 0.2947 0.21465 0.13476 0.0
H199 H 0.38342 0.22271 0.36929 0.0
H200 H 0.27672 0.21184 0.21311 0.0
O201 O 0.38612 0.1719 0.18683 0.0
H202 H 0.3557 0.17845 0.96422 0.0
H203 H 0.39235 0.13015 0.06647 0.0
H204 H 0.40689 0.14061 0.98847 0.0
H205 H 0.3885 0.16489 0.93669 0.0
H206 H 0.34177 0.1677 0.04263 0.0
H207 H 0.35108 0.07799 0.01827 0.0
H208 H 0.36879 0.05621 0.07735 0.0
O209 O 0.38254 0.14194 0.15004 0.0
C210 C 0.34486 0.14022 0.22652 0.0
C211 C 0.37286 0.08001 0.12903 0.0
C212 C 0.35627 0.08411 0.05229 0.0
N213 N 0.35968 0.11217 0.10615 0.0
C214 C 0.36942 0.10029 0.13882 0.0
C215 C 0.35309 0.10432 0.06334 0.0
C216 C 0.36622 0.0719 0.08544 0.0
C217 C 0.32169 0.20083 0.16199 0.0
N218 N 0.33101 0.19228 0.20087 0.0
C219 C 0.30204 0.20799 0.16574 0.0
C220 C 0.29195 0.20637 0.20969 0.0
C221 C 0.3016 0.19773 0.24924 0.0
C222 C 0.32125 0.19074 0.24413 0.0
C223 C 0.36787 0.22562 0.30148 0.0
C224 C 0.37715 0.18558 0.2867 0.0
C225 C 0.36188 0.21567 0.25944 0.0
N226 N 0.36644 0.19586 0.25264 0.0
C227 C 0.38339 0.19503 0.32917 0.0
C228 C 0.37868 0.21519 0.33655 0.0
C229 C 0.39307 0.15518 0.17174 0.0
C230 C 0.36383 0.16781 0.98638 0.0
C231 C 0.38427 0.14075 0.0442 0.0
C232 C 0.39257 0.1466 1.00003 0.0
C233 C 0.38224 0.16022 0.97099 0.0
N234 N 0.36615 0.1482 0.05895 0.0
C235 C 0.35598 0.16161 0.03075 0.0
Co236 Co 0.06894 0.89202 0.05421 0.0
Co237 Co 0.10823 0.89585 0.13502 0.0
O238 O 0.08057 0.90112 0.11508 0.0
C239 C 0.0398 0.87403 0.12376 0.0
O240 O 0.05459 0.86446 0.14507 0.0
C241 C 0.10501 0.94023 0.14306 0.0
O242 O 0.09844 0.94066 0.09833 0.0
O243 O 0.11909 0.90537 0.07151 0.0
O244 O 0.09418 0.8986 0.01899 0.0
H245 H 0.17815 0.86843 0.11742 0.0
H246 H 0.0481 0.92232 0.11452 0.0
O247 O 0.0432 0.88562 0.08807 0.0
H248 H 0.05832 0.95489 0.95637 0.0
H249 H 0.01349 0.88462 0.9317 0.0
H250 H 0.08366 0.86783 0.97159 0.0
H251 H 0.06939 0.92 0.97002 0.0
H252 H 0.02869 0.89644 0.00786 0.0
O253 O 0.10994 0.92362 0.1625 0.0
H254 H 0.14326 0.87487 0.09208 0.0
H255 H 0.13196 0.90617 0.223 0.0
H256 H 0.06911 0.85586 0.89484 0.0
H257 H 0.03661 0.95717 0.10238 0.0
H258 H 0.03378 0.86426 0.87448 0.0
H259 H 0.04177 0.9737 0.02288 0.0
O260 O 0.07872 0.86402 0.06534 0.0
H261 H 0.0646 0.89909 0.28307 0.0
H262 H 0.11548 0.85948 0.19547 0.0
H263 H 0.10188 0.84669 0.27241 0.0
H264 H 0.07628 0.86657 0.31683 0.0
H265 H 0.0785 0.91126 0.20582 0.0
H266 H 0.16677 0.90016 0.24968 0.0
H267 H 0.19012 0.88112 0.19677 0.0
O268 O 0.10689 0.86803 0.10892 0.0
C269 C 0.11202 0.90428 0.02866 0.0
C270 C 0.16813 0.87675 0.14079 0.0
C271 C 0.16175 0.89458 0.21499 0.0
N272 N 0.13559 0.89091 0.15593 0.0
C273 C 0.14835 0.88045 0.12662 0.0
C274 C 0.14207 0.898 0.1996 0.0
C275 C 0.17483 0.88388 0.18531 0.0
C276 C 0.05031 0.92939 0.07976 0.0
N277 N 0.05949 0.91918 0.04306 0.0
C278 C 0.04381 0.94913 0.07313 0.0
C279 C 0.04673 0.9584 0.02853 0.0
C280 C 0.05604 0.94787 0.99122 0.0
C281 C 0.06236 0.92816 0.9992 0.0
C282 C 0.02891 0.8809 0.94013 0.0
C283 C 0.06831 0.87165 0.96284 0.0
C284 C 0.03759 0.8875 0.98325 0.0
N285 N 0.05709 0.88295 0.99398 0.0
C286 C 0.06014 0.86478 0.9194 0.0
C287 C 0.04031 0.86948 0.90803 0.0
C288 C 0.09462 0.85716 0.08513 0.0
C289 C 0.07579 0.89032 0.26412 0.0
C290 C 0.10431 0.8682 0.2145 0.0
C291 C 0.09669 0.86089 0.25811 0.0
C292 C 0.08233 0.87206 0.28302 0.0
N293 N 0.09788 0.88616 0.19629 0.0
C294 C 0.08377 0.89716 0.22044 0.0
Co295 Co 0.35987 0.82239 0.30467 0.0
Co296 Co 0.35747 0.86131 0.38671 0.0
O297 O 0.35155 0.83387 0.36625 0.0
C298 C 0.3771 0.7929 0.37388 0.0
O299 O 0.38644 0.80764 0.39596 0.0
C300 C 0.31331 0.85804 0.3974 0.0
O301 O 0.31252 0.85171 0.35249 0.0
O302 O 0.34749 0.87268 0.32412 0.0
O303 O 0.35366 0.84797 0.2706 0.0
H304 H 0.38585 0.93091 0.37028 0.0
H305 H 0.32959 0.80178 0.36553 0.0
O306 O 0.36594 0.79638 0.33749 0.0
H307 H 0.29598 0.81402 0.2095 0.0
H308 H 0.36489 0.76746 0.18011 0.0
H309 H 0.38375 0.83696 0.22138 0.0
H310 H 0.33121 0.82417 0.22193 0.0
H311 H 0.35412 0.78252 0.25734 0.0
O312 O 0.33003 0.86316 0.41594 0.0
H313 H 0.37866 0.89627 0.34406 0.0
H314 H 0.34827 0.88465 0.47599 0.0
H315 H 0.39468 0.82256 0.14357 0.0
H316 H 0.29439 0.7912 0.35457 0.0
H317 H 0.38524 0.78756 0.12251 0.0
H318 H 0.27734 0.79738 0.27614 0.0
O319 O 0.38816 0.83145 0.31491 0.0
H320 H 0.35515 0.81701 0.53373 0.0
H321 H 0.3946 0.86765 0.44493 0.0
H322 H 0.40799 0.85352 0.52073 0.0
H323 H 0.38819 0.82805 0.56575 0.0
H324 H 0.34238 0.83142 0.45762 0.0
H325 H 0.35502 0.9192 0.5036 0.0
H326 H 0.37398 0.94258 0.45063 0.0
O327 O 0.38497 0.8597 0.3587 0.0
C328 C 0.3483 0.86583 0.281 0.0
C329 C 0.37755 0.92087 0.39368 0.0
C330 C 0.36023 0.91431 0.46847 0.0
N331 N 0.36301 0.88847 0.40831 0.0
C332 C 0.37343 0.90124 0.37898 0.0
C333 C 0.35638 0.89478 0.45255 0.0
C334 C 0.37088 0.92741 0.43875 0.0
C335 C 0.3223 0.80441 0.3312 0.0
N336 N 0.33242 0.81364 0.29444 0.0
C337 C 0.30236 0.79844 0.32525 0.0
C338 C 0.29279 0.80193 0.28126 0.0
C339 C 0.30323 0.81128 0.24387 0.0
C340 C 0.32315 0.81708 0.25117 0.0
C341 C 0.36907 0.78273 0.18884 0.0
C342 C 0.37948 0.82176 0.21234 0.0
C343 C 0.36306 0.79132 0.23257 0.0
N344 N 0.36818 0.81065 0.24369 0.0
C345 C 0.38576 0.81367 0.16829 0.0
C346 C 0.38048 0.79403 0.15652 0.0
C347 C 0.39542 0.84727 0.33425 0.0
C348 C 0.36389 0.82815 0.51453 0.0
C349 C 0.38591 0.85654 0.46424 0.0
C350 C 0.39356 0.84861 0.50719 0.0
C351 C 0.38244 0.83433 0.53244 0.0
N352 N 0.36766 0.85047 0.44701 0.0
C353 C 0.3567 0.83642 0.47149 0.0
Co354 Co 0.43019 0.10979 0.55694 0.0
Co355 Co 0.3915 0.10658 0.6393 0.0
O356 O 0.41899 0.10115 0.61856 0.0
C357 C 0.46026 0.12753 0.62459 0.0
O358 O 0.44593 0.13768 0.64617 0.0
C359 C 0.39508 0.0624 0.64956 0.0
O360 O 0.40106 0.06168 0.60437 0.0
O361 O 0.3802 0.09639 0.57685 0.0
O362 O 0.40457 0.10346 0.52314 0.0
H363 H 0.32135 0.1336 0.6232 0.0
H364 H 0.45107 0.07944 0.61704 0.0
O365 O 0.45627 0.11589 0.58936 0.0
H366 H 0.43921 0.04636 0.46018 0.0
H367 H 0.4847 0.1158 0.43154 0.0
H368 H 0.41513 0.1338 0.47437 0.0
H369 H 0.42874 0.08145 0.47347 0.0
H370 H 0.46999 0.10461 0.50879 0.0
O371 O 0.39017 0.0791 0.66854 0.0
H372 H 0.35607 0.127 0.5967 0.0
H373 H 0.36848 0.09709 0.72887 0.0
H374 H 0.42918 0.14513 0.39653 0.0
H375 H 0.46199 0.0444 0.60525 0.0
H376 H 0.46421 0.13613 0.37469 0.0
H377 H 0.456 0.0276 0.5264 0.0
O378 O 0.42084 0.13795 0.5679 0.0
H379 H 0.43611 0.10509 0.7858 0.0
H380 H 0.38461 0.14361 0.69756 0.0
H381 H 0.39866 0.15728 0.77317 0.0
H382 H 0.42456 0.13794 0.8179 0.0
H383 H 0.42177 0.09204 0.70987 0.0
H384 H 0.33385 0.10325 0.75674 0.0
H385 H 0.31004 0.12168 0.7038 0.0
O386 O 0.39256 0.13411 0.61124 0.0
C387 C 0.38685 0.09765 0.53362 0.0
C388 C 0.33158 0.12555 0.64661 0.0
C389 C 0.33859 0.1085 0.72152 0.0
N390 N 0.36428 0.11165 0.66111 0.0
C391 C 0.35126 0.12177 0.63178 0.0
C392 C 0.35816 0.10499 0.70546 0.0
C393 C 0.32524 0.11885 0.69182 0.0
C394 C 0.4485 0.07226 0.58255 0.0
N395 N 0.43917 0.08244 0.54603 0.0
C396 C 0.45468 0.05241 0.57612 0.0
C397 C 0.4513 0.04298 0.5319 0.0
C398 C 0.44185 0.05349 0.49475 0.0
C399 C 0.43585 0.07332 0.50253 0.0
C400 C 0.46941 0.11979 0.44061 0.0
C401 C 0.43034 0.12972 0.46499 0.0
C402 C 0.46101 0.11355 0.48437 0.0
N403 N 0.44166 0.11843 0.49592 0.0
C404 C 0.43824 0.13623 0.42093 0.0
C405 C 0.4579 0.13119 0.40872 0.0
C406 C 0.40482 0.14486 0.58707 0.0
C407 C 0.42478 0.11362 0.76671 0.0
C408 C 0.39591 0.13513 0.71675 0.0
C409 C 0.40379 0.14293 0.75959 0.0
C410 C 0.41832 0.13207 0.78468 0.0
N411 N 0.40226 0.11698 0.69947 0.0
C412 C 0.41656 0.10628 0.72378 0.0
Co413 Co 0.13983 0.18454 0.80825 0.0
Co414 Co 0.14734 0.14308 0.88264 0.0
O415 O 0.15037 0.17184 0.86724 0.0
C416 C 0.12831 0.21275 0.88951 0.0
O417 O 0.13461 0.20017 0.92262 0.0
C418 C 0.19118 0.15118 0.89065 0.0
O419 O 0.1897 0.16361 0.85407 0.0
O420 O 0.15609 0.13483 0.81655 0.0
O421 O 0.14891 0.16118 0.76903 0.0
H422 H 0.1235 0.07254 0.85347 0.0
H423 H 0.16829 0.20695 0.87138 0.0
O424 O 0.12987 0.20864 0.84472 0.0
H425 H 0.20078 0.20423 0.71152 0.0
H426 H 0.12668 0.2418 0.69348 0.0
H427 H 0.1169 0.16951 0.72392 0.0
H428 H 0.1675 0.18894 0.72423 0.0
H429 H 0.14013 0.22609 0.76742 0.0
O430 O 0.17587 0.1416 0.90565 0.0
H431 H 0.12759 0.1085 0.83474 0.0
H432 H 0.16068 0.11701 0.96435 0.0
H433 H 0.10337 0.18458 0.6493 0.0
H434 H 0.20138 0.2227 0.86015 0.0
H435 H 0.10824 0.22098 0.63369 0.0
H436 H 0.21792 0.22134 0.77977 0.0
O437 O 0.11306 0.17187 0.81817 0.0
H438 H 0.15329 0.17966 0.04101 0.0
H439 H 0.11249 0.13238 0.94535 0.0
H440 H 0.10138 0.14191 0.02716 0.0
H441 H 0.12188 0.16564 0.0757 0.0
H442 H 0.16367 0.17001 0.95871 0.0
H443 H 0.15707 0.08111 0.98431 0.0
H444 H 0.13831 0.05862 0.92874 0.0
O445 O 0.11885 0.14373 0.86065 0.0
C446 C 0.15502 0.14325 0.77524 0.0
C447 C 0.13168 0.08219 0.87801 0.0
C448 C 0.15055 0.087 0.95141 0.0
N449 N 0.14431 0.11486 0.89845 0.0
C450 C 0.13402 0.10257 0.86764 0.0
C451 C 0.15259 0.1073 0.93983 0.0
C452 C 0.14001 0.07439 0.92023 0.0
C453 C 0.17517 0.20654 0.83613 0.0
N454 N 0.16583 0.19715 0.79844 0.0
C455 C 0.19402 0.21538 0.83006 0.0
C456 C 0.20332 0.21457 0.78499 0.0
C457 C 0.19372 0.20495 0.74671 0.0
C458 C 0.1749 0.19625 0.75417 0.0
C459 C 0.1245 0.22592 0.69983 0.0
C460 C 0.11919 0.18534 0.71724 0.0
C461 C 0.13203 0.21695 0.74169 0.0
N462 N 0.12944 0.19686 0.7498 0.0
C463 C 0.11144 0.1938 0.67499 0.0
C464 C 0.11416 0.21422 0.66628 0.0
C465 C 0.10719 0.15558 0.83783 0.0
C466 C 0.14424 0.16927 0.02026 0.0
C467 C 0.12139 0.14289 0.96597 0.0
C468 C 0.11507 0.14814 0.01242 0.0
C469 C 0.1266 0.16143 0.03966 0.0
N470 N 0.13871 0.15065 0.94716 0.0
C471 C 0.1501 0.16367 0.97369 0.0
Co472 Co 0.9305 0.89163 0.56169 0.0
Co473 Co 0.89179 0.89469 0.64436 0.0
O474 O 0.91917 0.9004 0.62309 0.0
C475 C 0.96029 0.87389 0.62992 0.0
O476 O 0.94576 0.864 0.65143 0.0
C477 C 0.89452 0.93905 0.65121 0.0
O478 O 0.90079 0.93925 0.60622 0.0
O479 O 0.8802 0.90379 0.58124 0.0
O480 O 0.90493 0.89785 0.52763 0.0
H481 H 0.82227 0.86585 0.63101 0.0
H482 H 0.95152 0.92203 0.62139 0.0
O483 O 0.95654 0.88552 0.59451 0.0
H484 H 0.93904 0.95503 0.46472 0.0
H485 H 0.98522 0.88558 0.43689 0.0
H486 H 0.91564 0.86742 0.47921 0.0
H487 H 0.92867 0.91993 0.47825 0.0
H488 H 0.97033 0.89686 0.51389 0.0
O489 O 0.88984 0.92253 0.6714 0.0
H490 H 0.85681 0.87284 0.60375 0.0
H491 H 0.86864 0.90491 0.73326 0.0
H492 H 0.92987 0.85598 0.40165 0.0
H493 H 0.96232 0.95709 0.60932 0.0
H494 H 0.96491 0.86506 0.38007 0.0
H495 H 0.95603 0.97385 0.53057 0.0
O496 O 0.92116 0.86347 0.57266 0.0
H497 H 0.93644 0.89916 0.79043 0.0
H498 H 0.88579 0.85831 0.70547 0.0
H499 H 0.90019 0.84599 0.78203 0.0
H500 H 0.92568 0.8665 0.82511 0.0
H501 H 0.92176 0.91086 0.71361 0.0
H502 H 0.8342 0.89837 0.76188 0.0
H503 H 0.81076 0.87866 0.71065 0.0
O504 O 0.89346 0.86686 0.61838 0.0
C505 C 0.88701 0.90295 0.5381 0.0
C506 C 0.83234 0.87447 0.65365 0.0
C507 C 0.83902 0.89274 0.72707 0.0
N508 N 0.86471 0.88932 0.66675 0.0
C509 C 0.85191 0.87848 0.63837 0.0
C510 C 0.85849 0.89646 0.71057 0.0
C511 C 0.82588 0.88167 0.69833 0.0
C512 C 0.94884 0.92918 0.58692 0.0
N513 N 0.93944 0.91896 0.55058 0.0
C514 C 0.95495 0.94905 0.58034 0.0
C515 C 0.95139 0.95845 0.53616 0.0
C516 C 0.94184 0.94791 0.49922 0.0
C517 C 0.93593 0.92807 0.50714 0.0
C518 C 0.96993 0.88155 0.44586 0.0
C519 C 0.93086 0.87154 0.46994 0.0
C520 C 0.96143 0.88785 0.48946 0.0
N521 N 0.94209 0.88292 0.50087 0.0
C522 C 0.93885 0.86496 0.42604 0.0
C523 C 0.95852 0.87005 0.41398 0.0
C524 C 0.90557 0.8563 0.59329 0.0
C525 C 0.92531 0.89012 0.77207 0.0
C526 C 0.89691 0.8673 0.72393 0.0
C527 C 0.90499 0.86026 0.76732 0.0
C528 C 0.91928 0.87178 0.79148 0.0
N529 N 0.90283 0.88535 0.70524 0.0
C530 C 0.91689 0.8967 0.72864 0.0
Co531 Co 0.86314 0.18294 0.31115 0.0
Co532 Co 0.85599 0.1415 0.38584 0.0
O533 O 0.85297 0.17025 0.37049 0.0
C534 C 0.87524 0.211 0.39215 0.0
O535 O 0.86873 0.19859 0.42539 0.0
C536 C 0.81227 0.14979 0.39449 0.0
O537 O 0.81374 0.16214 0.35774 0.0
O538 O 0.84701 0.13323 0.31993 0.0
O539 O 0.85343 0.15976 0.27226 0.0
H540 H 0.87978 0.07091 0.35688 0.0
H541 H 0.83524 0.20539 0.37587 0.0
O542 O 0.87364 0.20685 0.34739 0.0
H543 H 0.80177 0.2035 0.21715 0.0
H544 H 0.87608 0.24027 0.19643 0.0
H545 H 0.88512 0.16778 0.2255 0.0
H546 H 0.83498 0.18788 0.22834 0.0
H547 H 0.86305 0.22458 0.27083 0.0
O548 O 0.82755 0.14013 0.40937 0.0
H549 H 0.8757 0.10685 0.33799 0.0
H550 H 0.84274 0.11551 0.46776 0.0
H551 H 0.89822 0.18283 0.15039 0.0
H552 H 0.80223 0.22146 0.36613 0.0
H553 H 0.89373 0.21932 0.13548 0.0
H554 H 0.78519 0.22052 0.28633 0.0
O555 O 0.88988 0.16999 0.31963 0.0
H556 H 0.85068 0.17808 0.54436 0.0
H557 H 0.89108 0.13079 0.44771 0.0
H558 H 0.90252 0.1403 0.52926 0.0
H559 H 0.88222 0.16404 0.5783 0.0
H560 H 0.83997 0.16844 0.4623 0.0
H561 H 0.84635 0.07963 0.48789 0.0
H562 H 0.86504 0.05707 0.43232 0.0
O563 O 0.88437 0.14208 0.3632 0.0
C564 C 0.84747 0.14181 0.27875 0.0
C565 C 0.87162 0.08058 0.38141 0.0
C566 C 0.85283 0.08547 0.4549 0.0
N567 N 0.85901 0.11328 0.40171 0.0
C568 C 0.86927 0.10096 0.37092 0.0
C569 C 0.85078 0.10577 0.44321 0.0
C570 C 0.86333 0.07283 0.42372 0.0
C571 C 0.82815 0.20517 0.34085 0.0
N572 N 0.8372 0.19583 0.30264 0.0
C573 C 0.80935 0.21419 0.33563 0.0
C574 C 0.79977 0.21361 0.29089 0.0
C575 C 0.80905 0.20404 0.25209 0.0
C576 C 0.82784 0.19515 0.25869 0.0
C577 C 0.8781 0.22434 0.20247 0.0
C578 C 0.88299 0.18365 0.21912 0.0
C579 C 0.8708 0.21538 0.24459 0.0
N580 N 0.87318 0.19525 0.25233 0.0
C581 C 0.8905 0.1921 0.17659 0.0
C582 C 0.88799 0.21258 0.16828 0.0
C583 C 0.89586 0.15378 0.33948 0.0
C584 C 0.85964 0.16769 0.52339 0.0
C585 C 0.88226 0.1413 0.46855 0.0
C586 C 0.88877 0.14655 0.51485 0.0
C587 C 0.87736 0.15984 0.54237 0.0
N588 N 0.86487 0.14907 0.45015 0.0
C589 C 0.85359 0.16209 0.47696 0.0
Co590 Co 0.5661 0.1107 0.06002 0.0
Co591 Co 0.60832 0.10498 0.13229 0.0
O592 O 0.57949 0.10118 0.11888 0.0
C593 C 0.53743 0.12081 0.14169 0.0
O594 O 0.54983 0.11415 0.17475 0.0
C595 C 0.60102 0.06138 0.14352 0.0
O596 O 0.58971 0.06229 0.10477 0.0
O597 O 0.61609 0.09487 0.06712 0.0
O598 O 0.58969 0.10252 0.02023 0.0
H599 H 0.67843 0.12871 0.09708 0.0
H600 H 0.54547 0.08127 0.12436 0.0
O601 O 0.54177 0.11984 0.09692 0.0
H602 H 0.54873 0.04867 0.96474 0.0
H603 H 0.5078 0.12092 0.94657 0.0
H604 H 0.57973 0.13393 0.9748 0.0
H605 H 0.56247 0.08266 0.97656 0.0
H606 H 0.52442 0.10845 0.02036 0.0
O607 O 0.61005 0.07698 0.15883 0.0
H608 H 0.64238 0.12396 0.08045 0.0
H609 H 0.63509 0.09359 0.21426 0.0
H610 H 0.56376 0.1465 0.90029 0.0
H611 H 0.53127 0.04746 0.11404 0.0
H612 H 0.52753 0.14001 0.88581 0.0
H613 H 0.53291 0.03085 0.03378 0.0
O614 O 0.5776 0.13793 0.06936 0.0
H615 H 0.5733 0.10236 0.29322 0.0
H616 H 0.61905 0.14143 0.18939 0.0
H617 H 0.61011 0.15437 0.27002 0.0
H618 H 0.58714 0.13476 0.32265 0.0
H619 H 0.58237 0.09011 0.21203 0.0
H620 H 0.6711 0.09788 0.23219 0.0
H621 H 0.69302 0.1156 0.17343 0.0
O622 O 0.60729 0.13301 0.1063 0.0
C623 C 0.60759 0.09621 0.02597 0.0
C624 C 0.66903 0.12099 0.12301 0.0
C625 C 0.66492 0.10366 0.19881 0.0
N626 N 0.63663 0.10857 0.14638 0.0
C627 C 0.6486 0.11829 0.11383 0.0
C628 C 0.64455 0.10123 0.18838 0.0
C629 C 0.67721 0.11362 0.16584 0.0
C630 C 0.54596 0.07438 0.08916 0.0
N631 N 0.55463 0.08412 0.05103 0.0
C632 C 0.53801 0.05512 0.08359 0.0
C633 C 0.53898 0.04578 0.0386 0.0
C634 C 0.54788 0.05576 0.99988 0.0
C635 C 0.5557 0.075 0.00683 0.0
C636 C 0.52361 0.12381 0.95243 0.0
C637 C 0.56399 0.13093 0.9686 0.0
C638 C 0.53309 0.11683 0.99419 0.0
N639 N 0.55307 0.12031 0.00168 0.0
C640 C 0.55501 0.13814 0.92642 0.0
C641 C 0.53469 0.13451 0.91834 0.0
C642 C 0.5944 0.14421 0.08542 0.0
C643 C 0.58334 0.11104 0.27065 0.0
C644 C 0.60887 0.13289 0.21181 0.0
C645 C 0.60395 0.14026 0.25757 0.0
C646 C 0.59109 0.12923 0.28711 0.0
N647 N 0.6012 0.11503 0.19589 0.0
C648 C 0.58861 0.10413 0.2247 0.0
Co649 Co 0.6426 0.81861 0.81328 0.0
Co650 Co 0.6446 0.86052 0.88669 0.0
O651 O 0.65044 0.83228 0.8726 0.0
C652 C 0.62393 0.79049 0.88479 0.0
O653 O 0.61268 0.80506 0.90176 0.0
C654 C 0.68831 0.85586 0.89933 0.0
O655 O 0.68829 0.84593 0.85839 0.0
O656 O 0.65487 0.86944 0.82232 0.0
O657 O 0.64891 0.84294 0.77403 0.0
H658 H 0.61635 0.92921 0.85441 0.0
H659 H 0.67237 0.79969 0.87859 0.0
O660 O 0.63648 0.79374 0.85098 0.0
H661 H 0.70695 0.80683 0.72195 0.0
H662 H 0.63831 0.75952 0.70009 0.0
H663 H 0.61904 0.83014 0.7268 0.0
H664 H 0.67181 0.81778 0.73149 0.0
H665 H 0.64869 0.77724 0.77427 0.0
O666 O 0.67213 0.86353 0.91543 0.0
H667 H 0.62351 0.8937 0.83613 0.0
H668 H 0.65375 0.88722 0.9703 0.0
H669 H 0.60851 0.81305 0.65188 0.0
H670 H 0.7074 0.78818 0.87047 0.0
H671 H 0.61815 0.77748 0.63816 0.0
H672 H 0.72497 0.79184 0.79178 0.0
O673 O 0.61437 0.82796 0.82112 0.0
H674 H 0.64637 0.82213 0.04306 0.0
H675 H 0.60732 0.86916 0.94256 0.0
H676 H 0.59367 0.85808 0.02101 0.0
H677 H 0.61328 0.83444 0.07192 0.0
H678 H 0.6594 0.83348 0.96423 0.0
H679 H 0.64704 0.92271 0.98994 0.0
H680 H 0.62816 0.94395 0.93182 0.0
O681 O 0.61707 0.85791 0.85848 0.0
C682 C 0.65419 0.86113 0.78077 0.0
C683 C 0.62459 0.92012 0.88002 0.0
C684 C 0.64184 0.91647 0.95605 0.0
N685 N 0.63908 0.88841 0.90199 0.0
C686 C 0.62869 0.89999 0.86986 0.0
C687 C 0.64567 0.89641 0.94463 0.0
C688 C 0.63124 0.92838 0.92345 0.0
C689 C 0.67986 0.80117 0.84411 0.0
N690 N 0.67009 0.80951 0.80559 0.0
C691 C 0.69971 0.79468 0.83977 0.0
C692 C 0.70957 0.79677 0.79564 0.0
C693 C 0.69949 0.80522 0.75647 0.0
C694 C 0.67963 0.81152 0.76215 0.0
C695 C 0.63405 0.77503 0.70561 0.0
C696 C 0.6234 0.8147 0.72094 0.0
C697 C 0.63983 0.78513 0.74761 0.0
N698 N 0.6346 0.80476 0.75468 0.0
C699 C 0.61734 0.80508 0.67852 0.0
C700 C 0.62274 0.78512 0.67087 0.0
C701 C 0.60693 0.84441 0.83665 0.0
C702 C 0.63772 0.83248 0.02128 0.0
C703 C 0.61592 0.85883 0.96444 0.0
C704 C 0.60813 0.85264 0.00887 0.0
C705 C 0.61914 0.83938 0.03742 0.0
N706 N 0.63421 0.85209 0.94897 0.0
C707 C 0.64505 0.83902 0.97667 0.0
Co708 Co 0.93099 0.10861 0.94447 0.0
Co709 Co 0.89172 0.10855 0.86317 0.0
O710 O 0.91895 0.10127 0.88292 0.0
C711 C 0.96118 0.12488 0.87563 0.0
O712 O 0.94681 0.13483 0.85373 0.0
C713 C 0.89304 0.06441 0.8534 0.0
O714 O 0.89923 0.06385 0.89843 0.0
O715 O 0.88004 0.09897 0.92566 0.0
O716 O 0.90521 0.10349 0.97884 0.0
H717 H 0.82354 0.14012 0.88075 0.0
H718 H 0.94988 0.07765 0.88247 0.0
O719 O 0.95723 0.11359 0.91154 0.0
H720 H 0.93637 0.04391 0.03774 0.0
H721 H 0.98633 0.11038 0.06847 0.0
H722 H 0.91776 0.13281 0.02849 0.0
H723 H 0.92803 0.07969 0.02651 0.0
H724 H 0.97062 0.10068 0.99117 0.0
O725 O 0.88864 0.08116 0.83385 0.0
H726 H 0.85788 0.13136 0.90645 0.0
H727 H 0.86775 0.10046 0.77436 0.0
H728 H 0.93282 0.14269 0.10639 0.0
H729 H 0.95864 0.04189 0.8922 0.0
H730 H 0.96735 0.13145 0.12679 0.0
H731 H 0.95181 0.02477 0.97024 0.0
O732 O 0.92332 0.13728 0.93485 0.0
H733 H 0.93537 0.10461 0.71521 0.0
H734 H 0.887 0.14613 0.80584 0.0
H735 H 0.90152 0.15911 0.73004 0.0
H736 H 0.92585 0.13827 0.6841 0.0
H737 H 0.9206 0.09227 0.79135 0.0
H738 H 0.83348 0.10877 0.74729 0.0
H739 H 0.81112 0.12878 0.80061 0.0
O740 O 0.89461 0.13596 0.8919 0.0
C741 C 0.88705 0.09917 0.96862 0.0
C742 C 0.83312 0.13138 0.8572 0.0
C743 C 0.8387 0.11376 0.78233 0.0
N744 N 0.86479 0.11536 0.84207 0.0
C745 C 0.85259 0.12637 0.87158 0.0
C746 C 0.85806 0.10903 0.79794 0.0
C747 C 0.82617 0.12501 0.81224 0.0
C748 C 0.94698 0.07033 0.91662 0.0
N749 N 0.93839 0.08072 0.95385 0.0
C750 C 0.95193 0.05007 0.92188 0.0
C751 C 0.94807 0.04047 0.96566 0.0
C752 C 0.93938 0.05119 0.00353 0.0
C753 C 0.93461 0.07142 0.99691 0.0
C754 C 0.97126 0.11534 0.06003 0.0
C755 C 0.93275 0.12776 0.03725 0.0
C756 C 0.96231 0.10994 0.01626 0.0
N757 N 0.94324 0.11605 0.00551 0.0
C758 C 0.94122 0.13345 0.08135 0.0
C759 C 0.9606 0.12715 0.09275 0.0
C760 C 0.90779 0.14545 0.91634 0.0
C761 C 0.92473 0.1138 0.73482 0.0
C762 C 0.89761 0.13699 0.78613 0.0
C763 C 0.90576 0.14441 0.74318 0.0
C764 C 0.91941 0.1327 0.71742 0.0
N765 N 0.90285 0.1184 0.80286 0.0
C766 C 0.91627 0.10687 0.77787 0.0
Co767 Co 0.64204 0.17924 0.69304 0.0
Co768 Co 0.64615 0.14018 0.61122 0.0
O769 O 0.65132 0.16781 0.63205 0.0
C770 C 0.62452 0.20867 0.62357 0.0
O771 O 0.61487 0.19409 0.60167 0.0
C772 C 0.69014 0.1456 0.60442 0.0
O773 O 0.68938 0.15493 0.64613 0.0
O774 O 0.65479 0.12898 0.67502 0.0
O775 O 0.64839 0.15389 0.72783 0.0
H776 H 0.61753 0.07059 0.62519 0.0
H777 H 0.67227 0.20118 0.63471 0.0
O778 O 0.63581 0.20506 0.65964 0.0
H779 H 0.70465 0.18905 0.79228 0.0
H780 H 0.63442 0.23419 0.81678 0.0
H781 H 0.61746 0.16427 0.77475 0.0
H782 H 0.66996 0.17771 0.77727 0.0
H783 H 0.6464 0.21928 0.74043 0.0
O784 O 0.67431 0.1381 0.58605 0.0
H785 H 0.62402 0.10534 0.65162 0.0
H786 H 0.65749 0.11654 0.52383 0.0
H787 H 0.60532 0.17854 0.85167 0.0
H788 H 0.70688 0.21305 0.64837 0.0
H789 H 0.6138 0.21374 0.8731 0.0
H790 H 0.72333 0.20691 0.72756 0.0
O791 O 0.61413 0.1695 0.68103 0.0
H792 H 0.65173 0.18418 0.46422 0.0
H793 H 0.61052 0.13348 0.548 0.0
H794 H 0.59889 0.14736 0.47028 0.0
H795 H 0.61958 0.17287 0.42778 0.0
H796 H 0.66273 0.17 0.54216 0.0
H797 H 0.65147 0.08187 0.49609 0.0
H798 H 0.63131 0.05865 0.54687 0.0
O799 O 0.61801 0.14185 0.63538 0.0
C800 C 0.6537 0.13598 0.71792 0.0
C801 C 0.62635 0.08056 0.60275 0.0
C802 C 0.64542 0.08688 0.53034 0.0
N803 N 0.64118 0.11294 0.58945 0.0
C804 C 0.63008 0.10025 0.61757 0.0
C805 C 0.64885 0.10648 0.54634 0.0
C806 C 0.63409 0.07387 0.55882 0.0
C807 C 0.67926 0.19862 0.66942 0.0
N808 N 0.66913 0.1887 0.70512 0.0
C809 C 0.69889 0.20531 0.67688 0.0
C810 C 0.70812 0.20183 0.72128 0.0
C811 C 0.69766 0.19178 0.75759 0.0
C812 C 0.67806 0.18529 0.74881 0.0
C813 C 0.63066 0.21882 0.80788 0.0
C814 C 0.62131 0.17956 0.78396 0.0
C815 C 0.63736 0.21031 0.76465 0.0
N816 N 0.63276 0.19087 0.75333 0.0
C817 C 0.61435 0.18758 0.8275 0.0
C818 C 0.6191 0.20734 0.83948 0.0
C819 C 0.60719 0.15395 0.65986 0.0
C820 C 0.64262 0.17302 0.4823 0.0
C821 C 0.6196 0.1446 0.52979 0.0
C822 C 0.61295 0.15239 0.48574 0.0
C823 C 0.62457 0.16669 0.46191 0.0
N824 N 0.63737 0.15081 0.54944 0.0
C825 C 0.64881 0.16489 0.52637 0.0
Co826 Co 0.57045 0.89048 0.44039 0.0
Co827 Co 0.61097 0.8955 0.36315 0.0
O828 O 0.5828 0.8999 0.38055 0.0
C829 C 0.54227 0.87135 0.36964 0.0
O830 O 0.55705 0.86086 0.35098 0.0
C831 C 0.6045 0.93933 0.35416 0.0
O832 O 0.59418 0.93855 0.3945 0.0
O833 O 0.62055 0.90487 0.42785 0.0
O834 O 0.59495 0.8976 0.47795 0.0
H835 H 0.68103 0.86916 0.38637 0.0
H836 H 0.54901 0.92002 0.37902 0.0
O837 O 0.54542 0.88356 0.40424 0.0
H838 H 0.55689 0.953 0.53745 0.0
H839 H 0.51337 0.88174 0.55797 0.0
H840 H 0.58445 0.86654 0.52416 0.0
H841 H 0.56942 0.91859 0.52433 0.0
H842 H 0.52942 0.89389 0.48315 0.0
O843 O 0.61274 0.92359 0.33726 0.0
H844 H 0.6456 0.87473 0.40844 0.0
H845 H 0.63603 0.90708 0.27824 0.0
H846 H 0.56904 0.85426 0.59964 0.0
H847 H 0.53596 0.95433 0.39072 0.0
H848 H 0.53325 0.86186 0.61694 0.0
H849 H 0.53997 0.97109 0.47034 0.0
O850 O 0.58117 0.8628 0.43001 0.0
H851 H 0.56997 0.8989 0.21085 0.0
H852 H 0.62005 0.85973 0.30214 0.0
H853 H 0.60817 0.84724 0.22325 0.0
H854 H 0.58299 0.86691 0.17698 0.0
H855 H 0.58216 0.91077 0.29003 0.0
H856 H 0.67139 0.90198 0.25486 0.0
H857 H 0.69414 0.88285 0.30905 0.0
O858 O 0.60971 0.86746 0.38811 0.0
C859 C 0.61283 0.90356 0.46998 0.0
C860 C 0.67127 0.87754 0.36247 0.0
C861 C 0.66587 0.89597 0.28869 0.0
N862 N 0.63877 0.89127 0.34481 0.0
C863 C 0.6512 0.88074 0.3748 0.0
C864 C 0.64588 0.89888 0.30223 0.0
C865 C 0.67862 0.88522 0.31909 0.0
C866 C 0.55065 0.92715 0.4139 0.0
N867 N 0.56006 0.91735 0.45091 0.0
C868 C 0.5433 0.94661 0.42025 0.0
C869 C 0.54558 0.95601 0.4649 0.0
C870 C 0.5551 0.94589 0.50255 0.0
C871 C 0.56228 0.92645 0.49484 0.0
C872 C 0.52899 0.87836 0.55088 0.0
C873 C 0.5689 0.87 0.53157 0.0
C874 C 0.53815 0.88515 0.50851 0.0
N875 N 0.5579 0.88105 0.49947 0.0
C876 C 0.56024 0.86296 0.5743 0.0
C877 C 0.54015 0.86721 0.58396 0.0
C878 C 0.59743 0.85632 0.4112 0.0
C879 C 0.581 0.89023 0.2306 0.0
C880 C 0.60905 0.86836 0.28228 0.0
C881 C 0.60241 0.86122 0.23759 0.0
C882 C 0.58829 0.87227 0.21164 0.0
N883 N 0.60191 0.88604 0.30052 0.0
C884 C 0.58801 0.89691 0.27537 0.0
Co885 Co 0.85944 0.81869 0.19203 0.0
Co886 Co 0.85356 0.86063 0.11964 0.0
O887 O 0.84935 0.83213 0.13412 0.0
C888 C 0.87908 0.79068 0.12079 0.0
O889 O 0.89137 0.80486 0.10631 0.0
C890 C 0.80962 0.85443 0.11216 0.0
O891 O 0.81069 0.84316 0.15094 0.0
O892 O 0.84476 0.86887 0.18576 0.0
O893 O 0.8528 0.84251 0.23274 0.0
H894 H 0.87993 0.93019 0.15007 0.0
H895 H 0.82912 0.79854 0.13033 0.0
O896 O 0.86579 0.79421 0.1528 0.0
H897 H 0.7981 0.80319 0.29176 0.0
H898 H 0.86955 0.75946 0.30261 0.0
H899 H 0.8844 0.83111 0.27552 0.0
H900 H 0.83236 0.81595 0.27771 0.0
H901 H 0.85645 0.77691 0.23061 0.0
O902 O 0.82526 0.86294 0.09552 0.0
H903 H 0.87457 0.89434 0.16815 0.0
H904 H 0.84133 0.88736 0.03828 0.0
H905 H 0.89764 0.81429 0.34825 0.0
H906 H 0.79495 0.78529 0.14289 0.0
H907 H 0.89023 0.7782 0.36215 0.0
H908 H 0.77917 0.78767 0.22403 0.0
O909 O 0.88701 0.82961 0.181 0.0
H910 H 0.84866 0.82273 0.96298 0.0
H911 H 0.88872 0.87098 0.05767 0.0
H912 H 0.9004 0.86072 0.97678 0.0
H913 H 0.88028 0.83648 0.92878 0.0
H914 H 0.83761 0.83328 0.0442 0.0
H915 H 0.8462 0.92317 0.01893 0.0
H916 H 0.86567 0.94483 0.07498 0.0
O917 O 0.88183 0.85892 0.14275 0.0
C918 C 0.84662 0.86048 0.22699 0.0
C919 C 0.87141 0.92091 0.12536 0.0
C920 C 0.85246 0.91697 0.0518 0.0
N921 N 0.85763 0.88877 0.10439 0.0
C922 C 0.86834 0.90059 0.13541 0.0
C923 C 0.84969 0.89672 0.06304 0.0
C924 C 0.8634 0.92912 0.08324 0.0
C925 C 0.82242 0.79948 0.16585 0.0
N926 N 0.83268 0.80814 0.20321 0.0
C927 C 0.80304 0.79202 0.17269 0.0
C928 C 0.79418 0.79339 0.2182 0.0
C929 C 0.80478 0.80213 0.2562 0.0
C930 C 0.82412 0.80946 0.24798 0.0
C931 C 0.87285 0.7752 0.297 0.0
C932 C 0.881 0.81543 0.28147 0.0
C933 C 0.86552 0.78515 0.25622 0.0
N934 N 0.86954 0.80505 0.24904 0.0
C935 C 0.88859 0.80597 0.32265 0.0
C936 C 0.88445 0.78572 0.3304 0.0
C937 C 0.89327 0.84622 0.16352 0.0
C938 C 0.85752 0.83335 0.98348 0.0
C939 C 0.87991 0.86037 0.03709 0.0
C940 C 0.88658 0.85465 0.99125 0.0
C941 C 0.87528 0.84105 0.96434 0.0
N942 N 0.86242 0.85284 0.05552 0.0
C943 C 0.85131 0.83943 0.02943 0.0
Co944 Co 0.57151 0.60866 0.94753 0.0
Co945 Co 0.61005 0.60623 0.8644 0.0
O946 O 0.58264 0.60051 0.88546 0.0
C947 C 0.54187 0.62644 0.87941 0.0
O948 O 0.55654 0.63582 0.85717 0.0
C949 C 0.60641 0.56219 0.85425 0.0
O950 O 0.60037 0.56167 0.89941 0.0
O951 O 0.62161 0.59605 0.92657 0.0
O952 O 0.59712 0.60195 0.98083 0.0
H953 H 0.67998 0.63387 0.87963 0.0
H954 H 0.55039 0.57886 0.88631 0.0
O955 O 0.54546 0.61515 0.91551 0.0
H956 H 0.56277 0.54444 0.04125 0.0
H957 H 0.51716 0.61375 0.07355 0.0
H958 H 0.58671 0.63198 0.03108 0.0
H959 H 0.57321 0.57963 0.02954 0.0
H960 H 0.53177 0.60317 0.99567 0.0
O961 O 0.61152 0.57879 0.83506 0.0
H962 H 0.64538 0.62693 0.9066 0.0
H963 H 0.63292 0.59702 0.77446 0.0
H964 H 0.57277 0.64271 0.10955 0.0
H965 H 0.53951 0.54372 0.89655 0.0
H966 H 0.53775 0.63358 0.13121 0.0
H967 H 0.54577 0.52625 0.97442 0.0
O968 O 0.58087 0.63688 0.93779 0.0
H969 H 0.56508 0.60449 0.71853 0.0
H970 H 0.61644 0.64339 0.8063 0.0
H971 H 0.60207 0.65702 0.73102 0.0
H972 H 0.57623 0.6375 0.68652 0.0
H973 H 0.57974 0.59148 0.79413 0.0
H974 H 0.66742 0.60352 0.74611 0.0
H975 H 0.6912 0.62212 0.7988 0.0
O976 O 0.60876 0.63373 0.89266 0.0
C977 C 0.61489 0.59654 0.96981 0.0
C978 C 0.66976 0.62575 0.85633 0.0
C979 C 0.66272 0.60869 0.78142 0.0
N980 N 0.63716 0.61157 0.84222 0.0
C981 C 0.65015 0.62178 0.87143 0.0
C982 C 0.64322 0.605 0.79776 0.0
C983 C 0.67605 0.61914 0.81099 0.0
C984 C 0.55305 0.57139 0.9204 0.0
N985 N 0.56249 0.58126 0.95725 0.0
C986 C 0.5469 0.55148 0.92594 0.0
C987 C 0.55044 0.54168 0.96962 0.0
C988 C 0.56 0.55187 0.00711 0.0
C989 C 0.56596 0.57177 1.00022 0.0
C990 C 0.53245 0.61779 0.06456 0.0
C991 C 0.5715 0.62785 0.04038 0.0
C992 C 0.54078 0.61188 0.02046 0.0
N993 N 0.56012 0.61683 0.00901 0.0
C994 C 0.56367 0.63401 0.0848 0.0
C995 C 0.54401 0.62891 0.0969 0.0
C996 C 0.59657 0.64414 0.91788 0.0
C997 C 0.57638 0.61311 0.73751 0.0
C998 C 0.60517 0.63482 0.78722 0.0
C999 C 0.59711 0.6426 0.74456 0.0
C1000 C 0.58262 0.63164 0.7196 0.0
N1001 N 0.59903 0.61659 0.80445 0.0
C1002 C 0.58479 0.60578 0.78025 0.0
Co1003 Co 0.63941 0.31797 0.19503 0.0
Co1004 Co 0.64704 0.35887 0.11905 0.0
O1005 O 0.65019 0.33028 0.13587 0.0
C1006 C 0.62946 0.28868 0.11476 0.0
O1007 O 0.63667 0.30066 0.08144 0.0
C1008 C 0.69083 0.35061 0.11137 0.0
O1009 O 0.68937 0.33874 0.14902 0.0
O1010 O 0.65562 0.36771 0.18487 0.0
O1011 O 0.64787 0.34181 0.23337 0.0
H1012 H 0.62262 0.42952 0.14395 0.0
H1013 H 0.6689 0.29549 0.13443 0.0
O1014 O 0.63001 0.29346 0.15931 0.0
H1015 H 0.69963 0.29989 0.29601 0.0
H1016 H 0.62594 0.26154 0.31196 0.0
H1017 H 0.61568 0.33346 0.27761 0.0
H1018 H 0.6663 0.3146 0.28064 0.0
H1019 H 0.63982 0.27678 0.23789 0.0
O1020 O 0.67556 0.36017 0.09601 0.0
H1021 H 0.62684 0.39376 0.16465 0.0
H1022 H 0.66054 0.3843 0.03632 0.0
H1023 H 0.60171 0.31887 0.35233 0.0
H1024 H 0.70204 0.28029 0.14835 0.0
H1025 H 0.60682 0.28266 0.36989 0.0
H1026 H 0.71771 0.28249 0.22961 0.0
O1027 O 0.61257 0.3302 0.1833 0.0
H1028 H 0.6532 0.32106 0.96235 0.0
H1029 H 0.61219 0.36894 0.05576 0.0
H1030 H 0.60115 0.35873 0.97439 0.0
H1031 H 0.62176 0.33469 0.92697 0.0
H1032 H 0.66351 0.33139 0.04421 0.0
H1033 H 0.6568 0.41998 0.0144 0.0
H1034 H 0.63767 0.44285 0.06833 0.0
O1035 O 0.61854 0.35833 0.14093 0.0
C1036 C 0.65408 0.35967 0.22655 0.0
C1037 C 0.63099 0.4197 0.12014 0.0
C1038 C 0.65019 0.41435 0.04747 0.0
N1039 N 0.64393 0.38694 0.10178 0.0
C1040 C 0.63341 0.39944 0.13166 0.0
C1041 C 0.65232 0.39417 0.06017 0.0
C1042 C 0.63944 0.42717 0.07772 0.0
C1043 C 0.67537 0.29625 0.17006 0.0
N1044 N 0.66549 0.3058 0.20675 0.0
C1045 C 0.69426 0.28772 0.17766 0.0
C1046 C 0.70307 0.28901 0.22322 0.0
C1047 C 0.69295 0.29879 0.26046 0.0
C1048 C 0.67409 0.30717 0.25148 0.0
C1049 C 0.62366 0.27735 0.30475 0.0
C1050 C 0.61808 0.31772 0.28516 0.0
C1051 C 0.63143 0.28605 0.26281 0.0
N1052 N 0.6287 0.30603 0.25362 0.0
C1053 C 0.61008 0.30953 0.32745 0.0
C1054 C 0.61293 0.28921 0.33725 0.0
C1055 C 0.60678 0.34646 0.1634 0.0
C1056 C 0.64411 0.33157 0.98262 0.0
C1057 C 0.62114 0.35829 0.03565 0.0
C1058 C 0.61486 0.35266 0.98944 0.0
C1059 C 0.62645 0.3392 0.96283 0.0
N1060 N 0.63848 0.35074 0.05486 0.0
C1061 C 0.64993 0.33756 0.02893 0.0
Co1062 Co 0.93035 0.39205 0.44466 0.0
Co1063 Co 0.89005 0.39398 0.36545 0.0
O1064 O 0.9179 0.40021 0.38365 0.0
C1065 C 0.96176 0.3841 0.36774 0.0
O1066 O 0.94977 0.39 0.333 0.0
C1067 C 0.89262 0.43823 0.35605 0.0
O1068 O 0.89969 0.43874 0.40032 0.0
O1069 O 0.87947 0.40361 0.42894 0.0
O1070 O 0.90517 0.39863 0.48021 0.0
H1071 H 0.82114 0.36457 0.38749 0.0
H1072 H 0.94942 0.42308 0.38177 0.0
O1073 O 0.95625 0.38465 0.41182 0.0
H1074 H 0.94036 0.45559 0.5402 0.0
H1075 H 0.98613 0.38686 0.56707 0.0
H1076 H 0.91624 0.36839 0.52871 0.0
H1077 H 0.93008 0.42044 0.52781 0.0
H1078 H 0.97062 0.39765 0.49038 0.0
O1079 O 0.88737 0.42158 0.33727 0.0
H1080 H 0.85604 0.37216 0.4108 0.0
H1081 H 0.86519 0.40324 0.27864 0.0
H1082 H 0.9311 0.35747 0.60601 0.0
H1083 H 0.96011 0.45813 0.39266 0.0
H1084 H 0.96629 0.36671 0.6256 0.0
H1085 H 0.95557 0.47469 0.47233 0.0
O1086 O 0.92124 0.36391 0.43484 0.0
H1087 H 0.92932 0.39856 0.21047 0.0
H1088 H 0.88414 0.35641 0.30857 0.0
H1089 H 0.89642 0.34377 0.23027 0.0
H1090 H 0.91911 0.36493 0.1805 0.0
H1091 H 0.91698 0.4105 0.28937 0.0
H1092 H 0.83035 0.3961 0.25398 0.0
H1093 H 0.80807 0.37659 0.30854 0.0
O1094 O 0.89237 0.36632 0.39298 0.0
C1095 C 0.887 0.40333 0.47136 0.0
C1096 C 0.83069 0.3731 0.3634 0.0
C1097 C 0.83586 0.39081 0.28851 0.0
N1098 N 0.86264 0.38816 0.34623 0.0
C1099 C 0.85048 0.37743 0.37642 0.0
C1100 C 0.85556 0.39487 0.30276 0.0
C1101 C 0.82337 0.37985 0.31912 0.0
C1102 C 0.94765 0.42998 0.41672 0.0
N1103 N 0.93937 0.41953 0.45425 0.0
C1104 C 0.95363 0.44993 0.42261 0.0
C1105 C 0.95103 0.45923 0.46728 0.0
C1106 C 0.9425 0.44853 0.50534 0.0
C1107 C 0.93667 0.42862 0.49808 0.0
C1108 C 0.97077 0.38278 0.55898 0.0
C1109 C 0.93152 0.37259 0.53712 0.0
C1110 C 0.96192 0.38879 0.51557 0.0
N1111 N 0.94248 0.38379 0.50526 0.0
C1112 C 0.93987 0.36631 0.58088 0.0
C1113 C 0.95963 0.37148 0.59182 0.0
C1114 C 0.9054 0.35629 0.41661 0.0
C1115 C 0.91942 0.38921 0.2318 0.0
C1116 C 0.89421 0.36563 0.28748 0.0
C1117 C 0.90102 0.35843 0.24299 0.0
C1118 C 0.91372 0.37032 0.21505 0.0
N1119 N 0.89989 0.38416 0.30374 0.0
C1120 C 0.91231 0.39592 0.27645 0.0
Co1121 Co 0.85801 0.68122 0.68956 0.0
Co1122 Co 0.85763 0.63958 0.61574 0.0
O1123 O 0.85091 0.66753 0.62988 0.0
C1124 C 0.87613 0.70992 0.61893 0.0
O1125 O 0.88744 0.69548 0.60155 0.0
C1126 C 0.81363 0.64146 0.60249 0.0
O1127 O 0.81257 0.64883 0.64643 0.0
O1128 O 0.84687 0.63023 0.67933 0.0
O1129 O 0.85236 0.65661 0.72821 0.0
H1130 H 0.88646 0.57125 0.64927 0.0
H1131 H 0.8278 0.69864 0.62317 0.0
O1132 O 0.86352 0.70639 0.65249 0.0
H1133 H 0.79271 0.69033 0.77881 0.0
H1134 H 0.85967 0.74009 0.80377 0.0
H1135 H 0.88155 0.67027 0.77654 0.0
H1136 H 0.82841 0.68114 0.77065 0.0
H1137 H 0.85027 0.72222 0.72905 0.0
O1138 O 0.83055 0.6363 0.58495 0.0
H1139 H 0.87835 0.60656 0.66769 0.0
H1140 H 0.85029 0.61309 0.53078 0.0
H1141 H 0.89112 0.68752 0.852 0.0
H1142 H 0.79213 0.70822 0.62976 0.0
H1143 H 0.88016 0.72269 0.86598 0.0
H1144 H 0.77433 0.704 0.70798 0.0
O1145 O 0.8866 0.67283 0.68236 0.0
H1146 H 0.85679 0.67846 0.45999 0.0
H1147 H 0.89575 0.63201 0.56227 0.0
H1148 H 0.91006 0.6437 0.48504 0.0
H1149 H 0.89051 0.66704 0.43323 0.0
H1150 H 0.84311 0.66653 0.53766 0.0
H1151 H 0.85797 0.57781 0.51097 0.0
H1152 H 0.87624 0.55665 0.5704 0.0
O1153 O 0.88479 0.64266 0.64581 0.0
C1154 C 0.84736 0.63836 0.7211 0.0
C1155 C 0.87852 0.58032 0.62304 0.0
C1156 C 0.8625 0.58399 0.54546 0.0
N1157 N 0.8639 0.61188 0.60033 0.0
C1158 C 0.87391 0.60033 0.63325 0.0
C1159 C 0.85814 0.60394 0.55694 0.0
C1160 C 0.87277 0.57214 0.5788 0.0
C1161 C 0.82018 0.69688 0.65741 0.0
N1162 N 0.83016 0.68926 0.69647 0.0
C1163 C 0.79998 0.70228 0.66088 0.0
C1164 C 0.78999 0.69989 0.70477 0.0
C1165 C 0.80029 0.69219 0.7445 0.0
C1166 C 0.82048 0.68692 0.73964 0.0
C1167 C 0.8645 0.72476 0.79813 0.0
C1168 C 0.87662 0.68554 0.78251 0.0
C1169 C 0.85927 0.71458 0.75584 0.0
N1170 N 0.86523 0.69517 0.74862 0.0
C1171 C 0.88213 0.69524 0.82524 0.0
C1172 C 0.87599 0.71498 0.83303 0.0
C1173 C 0.89451 0.6565 0.66752 0.0
C1174 C 0.86543 0.66824 0.48217 0.0
C1175 C 0.88717 0.64222 0.54001 0.0
C1176 C 0.89534 0.64875 0.49627 0.0
C1177 C 0.88436 0.66185 0.46721 0.0
N1178 N 0.86855 0.64848 0.55434 0.0
C1179 C 0.85773 0.66137 0.52613 0.0
Co1180 Co 0.56789 0.38898 0.56124 0.0
Co1181 Co 0.60776 0.39386 0.64128 0.0
O1182 O 0.57971 0.39847 0.62208 0.0
C1183 C 0.53773 0.3782 0.63856 0.0
O1184 O 0.55041 0.38281 0.67297 0.0
C1185 C 0.60344 0.43819 0.64776 0.0
O1186 O 0.59602 0.4382 0.6038 0.0
O1187 O 0.61807 0.40296 0.57703 0.0
O1188 O 0.59261 0.39698 0.52566 0.0
H1189 H 0.67789 0.36717 0.62194 0.0
H1190 H 0.54626 0.41846 0.62295 0.0
O1191 O 0.54244 0.38026 0.59421 0.0
H1192 H 0.55405 0.45155 0.46474 0.0
H1193 H 0.51272 0.37965 0.43868 0.0
H1194 H 0.58357 0.36577 0.47807 0.0
H1195 H 0.56672 0.4172 0.47767 0.0
H1196 H 0.52743 0.39182 0.51507 0.0
O1197 O 0.60934 0.42188 0.66701 0.0
H1198 H 0.64272 0.37292 0.5979 0.0
H1199 H 0.63208 0.40537 0.72752 0.0
H1200 H 0.56952 0.35347 0.40108 0.0
H1201 H 0.53318 0.45272 0.61151 0.0
H1202 H 0.53384 0.3604 0.38098 0.0
H1203 H 0.53708 0.46954 0.53195 0.0
O1204 O 0.57885 0.36146 0.5717 0.0
H1205 H 0.5681 0.39947 0.79548 0.0
H1206 H 0.61518 0.35759 0.70195 0.0
H1207 H 0.60339 0.34585 0.78149 0.0
H1208 H 0.57975 0.36689 0.82897 0.0
H1209 H 0.57994 0.41046 0.71536 0.0
H1210 H 0.66716 0.40007 0.75286 0.0
H1211 H 0.69033 0.3808 0.69995 0.0
O1212 O 0.60659 0.36581 0.61666 0.0
C1213 C 0.61057 0.40238 0.53461 0.0
C1214 C 0.66795 0.3756 0.6453 0.0
C1215 C 0.66193 0.39408 0.71875 0.0
N1216 N 0.63535 0.38949 0.66117 0.0
C1217 C 0.64801 0.3789 0.63187 0.0
C1218 C 0.64209 0.39709 0.70411 0.0
C1219 C 0.67492 0.38325 0.68906 0.0
C1220 C 0.54781 0.42554 0.58808 0.0
N1221 N 0.55709 0.41572 0.55092 0.0
C1222 C 0.54046 0.445 0.58187 0.0
C1223 C 0.54269 0.45445 0.53726 0.0
C1224 C 0.55222 0.44437 0.49955 0.0
C1225 C 0.5594 0.42493 0.50712 0.0
C1226 C 0.52829 0.37656 0.44699 0.0
C1227 C 0.56807 0.36895 0.46943 0.0
C1228 C 0.53669 0.38337 0.49025 0.0
N1229 N 0.55639 0.37963 0.50085 0.0
C1230 C 0.56018 0.3619 0.42585 0.0
C1231 C 0.54016 0.36577 0.41462 0.0
C1232 C 0.59466 0.35483 0.59219 0.0
C1233 C 0.57842 0.39017 0.77516 0.0
C1234 C 0.60469 0.36673 0.72203 0.0
C1235 C 0.59816 0.36005 0.76723 0.0
C1236 C 0.58493 0.37188 0.79389 0.0
N1237 N 0.59821 0.38468 0.70383 0.0
C1238 C 0.58527 0.39637 0.72985 0.0
Co1239 Co 0.86118 0.31726 0.80646 0.0
Co1240 Co 0.85518 0.35707 0.88639 0.0
O1241 O 0.85159 0.3288 0.86755 0.0
C1242 C 0.87808 0.29022 0.8823 0.0
O1243 O 0.87901 0.30528 0.9127 0.0
C1244 C 0.81142 0.34914 0.89568 0.0
O1245 O 0.81245 0.3379 0.85683 0.0
O1246 O 0.84599 0.36694 0.82187 0.0
O1247 O 0.85189 0.34144 0.77062 0.0
H1248 H 0.87999 0.42782 0.86589 0.0
H1249 H 0.83427 0.2933 0.86913 0.0
O1250 O 0.87103 0.29251 0.83993 0.0
H1251 H 0.79808 0.30047 0.71464 0.0
H1252 H 0.87193 0.26199 0.68483 0.0
H1253 H 0.88313 0.33353 0.72197 0.0
H1254 H 0.83179 0.31516 0.72513 0.0
H1255 H 0.85974 0.27652 0.76141 0.0
O1256 O 0.82691 0.35825 0.91127 0.0
H1257 H 0.87534 0.39239 0.84268 0.0
H1258 H 0.84268 0.38143 0.97184 0.0
H1259 H 0.89542 0.31966 0.64478 0.0
H1260 H 0.80068 0.27815 0.86008 0.0
H1261 H 0.88983 0.28365 0.62579 0.0
H1262 H 0.78232 0.28178 0.78244 0.0
O1263 O 0.88822 0.32948 0.81549 0.0
H1264 H 0.85073 0.31623 0.03885 0.0
H1265 H 0.89052 0.36621 0.9488 0.0
H1266 H 0.90235 0.35458 0.02844 0.0
H1267 H 0.88236 0.32947 0.07414 0.0
H1268 H 0.83959 0.32807 0.95881 0.0
H1269 H 0.84685 0.41678 0.99631 0.0
H1270 H 0.86567 0.44024 0.94322 0.0
O1271 O 0.88342 0.35653 0.86261 0.0
C1272 C 0.8463 0.35934 0.77955 0.0
C1273 C 0.87176 0.41775 0.88934 0.0
C1274 C 0.85314 0.41156 0.9625 0.0
N1275 N 0.85873 0.38485 0.90578 0.0
C1276 C 0.86909 0.39766 0.87638 0.0
C1277 C 0.85076 0.39157 0.94835 0.0
C1278 C 0.86371 0.42471 0.93271 0.0
C1279 C 0.82645 0.29476 0.83509 0.0
N1280 N 0.83497 0.30511 0.79771 0.0
C1281 C 0.80741 0.28623 0.83024 0.0
C1282 C 0.7971 0.2883 0.7867 0.0
C1283 C 0.80592 0.29881 0.74867 0.0
C1284 C 0.82497 0.30718 0.75487 0.0
C1285 C 0.87442 0.27772 0.69264 0.0
C1286 C 0.88053 0.31787 0.71383 0.0
C1287 C 0.86759 0.28602 0.73599 0.0
N1288 N 0.87058 0.30589 0.74598 0.0
C1289 C 0.88758 0.31009 0.67013 0.0
C1290 C 0.88446 0.28988 0.65953 0.0
C1291 C 0.89457 0.34517 0.83701 0.0
C1292 C 0.85954 0.32722 0.01936 0.0
C1293 C 0.8818 0.35518 0.96828 0.0
C1294 C 0.88854 0.3487 0.01346 0.0
C1295 C 0.87731 0.33463 0.0391 0.0
N1296 N 0.86432 0.3479 0.94922 0.0
C1297 C 0.85325 0.33406 0.97411 0.0
Co1298 Co 0.92911 0.60827 0.05789 0.0
Co1299 Co 0.88932 0.60602 0.13762 0.0
O1300 O 0.91702 0.60024 0.119 0.0
C1301 C 0.95787 0.62695 0.12712 0.0
O1302 O 0.94304 0.63695 0.14706 0.0
C1303 C 0.8925 0.56186 0.14785 0.0
O1304 O 0.89925 0.56127 0.10328 0.0
O1305 O 0.87868 0.59595 0.07439 0.0
O1306 O 0.90407 0.60143 0.02233 0.0
H1307 H 0.8198 0.63398 0.11625 0.0
H1308 H 0.94934 0.57871 0.12143 0.0
O1309 O 0.95463 0.61493 0.09218 0.0
H1310 H 0.93953 0.54384 0.96599 0.0
H1311 H 0.98543 0.61317 0.93695 0.0
H1312 H 0.91521 0.63134 0.97263 0.0
H1313 H 0.92878 0.57902 0.97622 0.0
H1314 H 0.96961 0.60276 0.01356 0.0
O1315 O 0.88727 0.57852 0.1666 0.0
H1316 H 0.85477 0.62694 0.0924 0.0
H1317 H 0.86501 0.59679 0.22533 0.0
H1318 H 0.93038 0.6419 0.89536 0.0
H1319 H 0.96051 0.54358 0.11271 0.0
H1320 H 0.96574 0.6328 0.87712 0.0
H1321 H 0.95555 0.52589 0.03458 0.0
O1322 O 0.91954 0.63648 0.06632 0.0
H1323 H 0.93199 0.60389 0.2874 0.0
H1324 H 0.88216 0.64312 0.19545 0.0
H1325 H 0.89541 0.65658 0.2721 0.0
H1326 H 0.92047 0.63689 0.3187 0.0
H1327 H 0.91847 0.59105 0.21041 0.0
H1328 H 0.83012 0.60339 0.25055 0.0
H1329 H 0.80726 0.62216 0.19588 0.0
O1330 O 0.89116 0.63358 0.10977 0.0
C1331 C 0.88609 0.59623 0.03179 0.0
C1332 C 0.82961 0.62578 0.1404 0.0
C1333 C 0.83539 0.60859 0.21574 0.0
N1334 N 0.86191 0.61145 0.15736 0.0
C1335 C 0.84943 0.62175 0.12707 0.0
C1336 C 0.85512 0.60483 0.20118 0.0
C1337 C 0.82258 0.61914 0.18506 0.0
C1338 C 0.94724 0.57114 0.08724 0.0
N1339 N 0.93835 0.58087 0.04941 0.0
C1340 C 0.95355 0.55124 0.08255 0.0
C1341 C 0.95074 0.54131 0.03872 0.0
C1342 C 0.94174 0.55137 1.00025 0.0
C1343 C 0.93559 0.57125 0.0063 0.0
C1344 C 0.97 0.61719 0.94445 0.0
C1345 C 0.93056 0.62722 0.96482 0.0
C1346 C 0.96098 0.61139 0.98782 0.0
N1347 N 0.94145 0.61631 0.99739 0.0
C1348 C 0.93909 0.63329 0.92107 0.0
C1349 C 0.95894 0.6282 0.91088 0.0
C1350 C 0.9037 0.64388 0.08527 0.0
C1351 C 0.92103 0.61258 0.2675 0.0
C1352 C 0.8931 0.63448 0.21545 0.0
C1353 C 0.90052 0.64216 0.25888 0.0
C1354 C 0.91458 0.63111 0.28501 0.0
N1355 N 0.89944 0.61625 0.19861 0.0
C1356 C 0.91327 0.60536 0.22395 0.0
Co1357 Co 0.64424 0.68151 0.31033 0.0
Co1358 Co 0.64538 0.63974 0.38362 0.0
O1359 O 0.65173 0.66781 0.36975 0.0
C1360 C 0.62623 0.70985 0.38188 0.0
O1361 O 0.6154 0.69516 0.39981 0.0
C1362 C 0.68938 0.64202 0.39683 0.0
O1363 O 0.6904 0.6495 0.35299 0.0
O1364 O 0.65622 0.63067 0.31989 0.0
O1365 O 0.65 0.65699 0.27136 0.0
H1366 H 0.6174 0.57113 0.34932 0.0
H1367 H 0.67453 0.69916 0.37614 0.0
O1368 O 0.6386 0.70659 0.34766 0.0
H1369 H 0.70907 0.69143 0.21962 0.0
H1370 H 0.64148 0.74048 0.19652 0.0
H1371 H 0.62047 0.6704 0.22384 0.0
H1372 H 0.67352 0.68183 0.22855 0.0
H1373 H 0.6514 0.72263 0.27089 0.0
O1374 O 0.6725 0.63672 0.4143 0.0
H1375 H 0.62506 0.60656 0.33131 0.0
H1376 H 0.65308 0.61317 0.46825 0.0
H1377 H 0.61039 0.68762 0.14874 0.0
H1378 H 0.71005 0.70915 0.36879 0.0
H1379 H 0.62091 0.72291 0.13471 0.0
H1380 H 0.72759 0.70524 0.29011 0.0
O1381 O 0.61577 0.67283 0.31814 0.0
H1382 H 0.64577 0.67835 0.53977 0.0
H1383 H 0.60739 0.63157 0.43711 0.0
H1384 H 0.59294 0.64296 0.51446 0.0
H1385 H 0.6122 0.66648 0.56645 0.0
H1386 H 0.65958 0.66672 0.46196 0.0
H1387 H 0.64585 0.57775 0.48764 0.0
H1388 H 0.62782 0.55649 0.428 0.0
O1389 O 0.61817 0.64251 0.3537 0.0
C1390 C 0.65537 0.63883 0.27819 0.0
C1391 C 0.62524 0.58024 0.37564 0.0
C1392 C 0.64123 0.58395 0.45324 0.0
N1393 N 0.63946 0.61193 0.39871 0.0
C1394 C 0.62959 0.60033 0.36567 0.0
C1395 C 0.64534 0.60398 0.44199 0.0
C1396 C 0.63111 0.57204 0.41977 0.0
C1397 C 0.68203 0.69753 0.34172 0.0
N1398 N 0.67198 0.68985 0.30283 0.0
C1399 C 0.70215 0.70316 0.33781 0.0
C1400 C 0.71199 0.70094 0.29367 0.0
C1401 C 0.70162 0.69317 0.25412 0.0
C1402 C 0.68151 0.68766 0.25942 0.0
C1403 C 0.63684 0.72508 0.20218 0.0
C1404 C 0.62521 0.68572 0.21785 0.0
C1405 C 0.64236 0.71492 0.24427 0.0
N1406 N 0.63664 0.69544 0.25152 0.0
C1407 C 0.61941 0.69541 0.17532 0.0
C1408 C 0.6253 0.71522 0.1675 0.0
C1409 C 0.60817 0.6563 0.3326 0.0
C1410 C 0.63726 0.66806 0.5175 0.0
C1411 C 0.61584 0.64185 0.45945 0.0
C1412 C 0.6076 0.64822 0.50326 0.0
C1413 C 0.61841 0.66141 0.53243 0.0
N1414 N 0.63437 0.64837 0.44515 0.0
C1415 C 0.64503 0.66136 0.47347 0.0
Co1416 Co 0.43005 0.39135 0.05746 0.0
Co1417 Co 0.39217 0.39443 0.14217 0.0
O1418 O 0.41937 0.40006 0.11955 0.0
C1419 C 0.46024 0.37446 0.12535 0.0
O1420 O 0.44568 0.36549 0.14896 0.0
C1421 C 0.39572 0.43863 0.15085 0.0
O1422 O 0.40137 0.43905 0.10539 0.0
O1423 O 0.38007 0.4041 0.08005 0.0
O1424 O 0.40411 0.39751 0.02502 0.0
H1425 H 0.32223 0.3664 0.13176 0.0
H1426 H 0.45157 0.42183 0.11585 0.0
O1427 O 0.45642 0.3853 0.0886 0.0
H1428 H 0.43746 0.45472 0.95985 0.0
H1429 H 0.4834 0.38542 0.9292 0.0
H1430 H 0.41435 0.36709 0.97599 0.0
H1431 H 0.42733 0.4196 0.97406 0.0
H1432 H 0.46934 0.39665 0.00715 0.0
O1433 O 0.39085 0.42206 0.17057 0.0
H1434 H 0.35656 0.37323 0.10279 0.0
H1435 H 0.37002 0.40428 0.23278 0.0
H1436 H 0.42774 0.3557 0.89751 0.0
H1437 H 0.46215 0.45692 0.10309 0.0
H1438 H 0.4625 0.36488 0.87368 0.0
H1439 H 0.45503 0.47362 0.02467 0.0
O1440 O 0.42095 0.36316 0.06921 0.0
H1441 H 0.43828 0.39731 0.28585 0.0
H1442 H 0.38636 0.35767 0.20201 0.0
H1443 H 0.40136 0.34461 0.27718 0.0
H1444 H 0.42748 0.36451 0.3197 0.0
H1445 H 0.423 0.40975 0.21041 0.0
H1446 H 0.3358 0.39791 0.26313 0.0
H1447 H 0.31165 0.37879 0.21252 0.0
O1448 O 0.39328 0.36676 0.11493 0.0
C1449 C 0.3864 0.403 0.0365 0.0
C1450 C 0.3326 0.37477 0.15414 0.0
C1451 C 0.34021 0.39247 0.22783 0.0
N1452 N 0.36526 0.38919 0.16591 0.0
C1453 C 0.35206 0.37868 0.13788 0.0
C1454 C 0.35955 0.3961 0.21036 0.0
C1455 C 0.32668 0.38173 0.19944 0.0
C1456 C 0.44854 0.42896 0.08152 0.0
N1457 N 0.4388 0.4187 0.04576 0.0
C1458 C 0.45451 0.44884 0.07455 0.0
C1459 C 0.45049 0.45821 0.03057 0.0
C1460 C 0.44062 0.44763 0.99421 0.0
C1461 C 0.43484 0.42777 0.00251 0.0
C1462 C 0.46822 0.38136 0.93915 0.0
C1463 C 0.42945 0.37124 0.96574 0.0
C1464 C 0.4602 0.38763 0.98329 0.0
N1465 N 0.44099 0.38265 0.99593 0.0
C1466 C 0.43697 0.3647 0.92132 0.0
C1467 C 0.45648 0.36984 0.908 0.0
C1468 C 0.40531 0.35611 0.08984 0.0
C1469 C 0.42686 0.38853 0.26774 0.0
C1470 C 0.39775 0.3664 0.22023 0.0
C1471 C 0.40616 0.35894 0.26283 0.0
C1472 C 0.42082 0.37012 0.28668 0.0
N1473 N 0.4037 0.38452 0.20199 0.0
C1474 C 0.4181 0.39553 0.22509 0.0
Co1475 Co 0.3617 0.68032 0.80946 0.0
Co1476 Co 0.35574 0.64012 0.888 0.0
O1477 O 0.35163 0.66833 0.86954 0.0
C1478 C 0.37103 0.71063 0.8878 0.0
O1479 O 0.36458 0.69855 0.92176 0.0
C1480 C 0.31151 0.64536 0.89417 0.0
O1481 O 0.31176 0.65296 0.85038 0.0
O1482 O 0.34663 0.63029 0.82326 0.0
O1483 O 0.35378 0.65582 0.77294 0.0
H1484 H 0.38132 0.56964 0.86722 0.0
H1485 H 0.33143 0.70163 0.8701 0.0
O1486 O 0.37039 0.70555 0.84344 0.0
H1487 H 0.30044 0.69521 0.70916 0.0
H1488 H 0.37276 0.73587 0.68869 0.0
H1489 H 0.38548 0.66471 0.72714 0.0
H1490 H 0.33453 0.68226 0.72411 0.0
H1491 H 0.35974 0.721 0.76409 0.0
O1492 O 0.32763 0.63894 0.91336 0.0
H1493 H 0.37619 0.605 0.844 0.0
H1494 H 0.34357 0.61559 0.97338 0.0
H1495 H 0.39862 0.67892 0.65113 0.0
H1496 H 0.29745 0.71498 0.85664 0.0
H1497 H 0.39227 0.71475 0.6315 0.0
H1498 H 0.28166 0.71178 0.77569 0.0
O1499 O 0.38901 0.6691 0.82117 0.0
H1500 H 0.35057 0.67923 0.04311 0.0
H1501 H 0.3917 0.6317 0.94899 0.0
H1502 H 0.40351 0.64297 0.0289 0.0
H1503 H 0.38285 0.66683 0.07668 0.0
H1504 H 0.33949 0.66789 0.96264 0.0
H1505 H 0.34825 0.58032 0.9979 0.0
H1506 H 0.36729 0.55708 0.94471 0.0
O1507 O 0.38389 0.64089 0.86388 0.0
C1508 C 0.34781 0.63798 0.78109 0.0
C1509 C 0.37299 0.57961 0.8907 0.0
C1510 C 0.35441 0.5856 0.96401 0.0
N1511 N 0.35956 0.61235 0.90718 0.0
C1512 C 0.37003 0.59966 0.87772 0.0
C1513 C 0.35174 0.60555 0.94983 0.0
C1514 C 0.36511 0.57257 0.93417 0.0
C1515 C 0.32486 0.70041 0.83462 0.0
N1516 N 0.33514 0.69137 0.79782 0.0
C1517 C 0.30552 0.7079 0.82727 0.0
C1518 C 0.29665 0.70606 0.78189 0.0
C1519 C 0.30717 0.69676 0.74456 0.0
C1520 C 0.32647 0.68942 0.75328 0.0
C1521 C 0.37559 0.72023 0.6968 0.0
C1522 C 0.38255 0.68028 0.7187 0.0
C1523 C 0.3683 0.71174 0.7395 0.0
N1524 N 0.37172 0.69196 0.74983 0.0
C1525 C 0.39008 0.68826 0.67568 0.0
C1526 C 0.38653 0.70837 0.66472 0.0
C1527 C 0.39526 0.65296 0.84088 0.0
C1528 C 0.3597 0.66882 0.02266 0.0
C1529 C 0.38273 0.6423 0.9692 0.0
C1530 C 0.38945 0.64852 0.0146 0.0
C1531 C 0.37783 0.66188 0.04143 0.0
N1532 N 0.36494 0.6492 0.95094 0.0
C1533 C 0.35346 0.66226 0.97713 0.0
Co1534 Co 0.06688 0.61153 0.55654 0.0
Co1535 Co 0.10806 0.6035 0.63159 0.0
O1536 O 0.07938 0.60059 0.61537 0.0
C1537 C 0.03897 0.62346 0.63789 0.0
O1538 O 0.05199 0.61791 0.67077 0.0
C1539 C 0.09991 0.55958 0.63723 0.0
O1540 O 0.08754 0.56141 0.60061 0.0
O1541 O 0.11662 0.59545 0.56516 0.0
O1542 O 0.09027 0.60245 0.51737 0.0
H1543 H 0.17862 0.62799 0.60596 0.0
H1544 H 0.04404 0.58314 0.61866 0.0
O1545 O 0.04274 0.62142 0.59303 0.0
H1546 H 0.04708 0.55102 0.45836 0.0
H1547 H 0.00996 0.6256 0.44145 0.0
H1548 H 0.08223 0.63476 0.47306 0.0
H1549 H 0.06254 0.58417 0.47186 0.0
H1550 H 0.02542 0.61168 0.51518 0.0
O1551 O 0.10951 0.57474 0.65303 0.0
H1552 H 0.14277 0.624 0.58603 0.0
H1553 H 0.13383 0.58931 0.71302 0.0
H1554 H 0.06742 0.64878 0.39866 0.0
H1555 H 0.02813 0.55015 0.60664 0.0
H1556 H 0.03102 0.64422 0.38247 0.0
H1557 H 0.02965 0.5338 0.52604 0.0
O1558 O 0.07969 0.6382 0.56735 0.0
H1559 H 0.07086 0.59593 0.78872 0.0
H1560 H 0.1184 0.63777 0.69646 0.0
H1561 H 0.10851 0.64807 0.77864 0.0
H1562 H 0.08464 0.62704 0.82547 0.0
H1563 H 0.08086 0.58637 0.70609 0.0
H1564 H 0.16961 0.59282 0.73416 0.0
H1565 H 0.19227 0.61233 0.68051 0.0
O1566 O 0.10742 0.63217 0.61118 0.0
C1567 C 0.10824 0.59651 0.52379 0.0
C1568 C 0.1689 0.61946 0.62964 0.0
C1569 C 0.16385 0.5997 0.70156 0.0
N1570 N 0.13621 0.60644 0.64829 0.0
C1571 C 0.14858 0.61716 0.61856 0.0
C1572 C 0.14361 0.59771 0.6893 0.0
C1573 C 0.17655 0.61066 0.67146 0.0
C1574 C 0.04454 0.57631 0.58333 0.0
N1575 N 0.05412 0.58568 0.54595 0.0
C1576 C 0.0356 0.55753 0.5768 0.0
C1577 C 0.0365 0.54835 0.53161 0.0
C1578 C 0.0463 0.55799 0.49365 0.0
C1579 C 0.0551 0.57673 0.50155 0.0
C1580 C 0.02584 0.62765 0.44805 0.0
C1581 C 0.06641 0.63261 0.46612 0.0
C1582 C 0.03467 0.61984 0.4898 0.0
N1583 N 0.05475 0.62227 0.49824 0.0
C1584 C 0.05809 0.64063 0.424 0.0
C1585 C 0.03767 0.63809 0.41497 0.0
C1586 C 0.09578 0.64396 0.58807 0.0
C1587 C 0.0813 0.6052 0.76872 0.0
C1588 C 0.10784 0.62863 0.71634 0.0
C1589 C 0.10237 0.6345 0.763 0.0
C1590 C 0.08901 0.62267 0.78928 0.0
N1591 N 0.10021 0.61147 0.6964 0.0
C1592 C 0.08711 0.5998 0.72199 0.0
Co1593 Co 0.13966 0.31895 0.31349 0.0
Co1594 Co 0.14558 0.36089 0.387 0.0
O1595 O 0.14937 0.33213 0.37249 0.0
C1596 C 0.12908 0.29023 0.39468 0.0
O1597 O 0.13557 0.30262 0.42798 0.0
C1598 C 0.18937 0.35372 0.39547 0.0
O1599 O 0.18812 0.34237 0.35683 0.0
O1600 O 0.15483 0.36912 0.32131 0.0
O1601 O 0.14818 0.3425 0.27411 0.0
H1602 H 0.12069 0.43099 0.35636 0.0
H1603 H 0.16884 0.29795 0.37768 0.0
O1604 O 0.13027 0.29462 0.34997 0.0
H1605 H 0.20145 0.30095 0.21802 0.0
H1606 H 0.12876 0.26105 0.19915 0.0
H1607 H 0.11664 0.33307 0.22845 0.0
H1608 H 0.1676 0.31502 0.22991 0.0
H1609 H 0.1414 0.27732 0.27322 0.0
O1610 O 0.17389 0.36268 0.41166 0.0
H1611 H 0.12546 0.39507 0.33814 0.0
H1612 H 0.15795 0.38731 0.46883 0.0
H1613 H 0.10391 0.31744 0.15366 0.0
H1614 H 0.20252 0.28342 0.36728 0.0
H1615 H 0.10996 0.28117 0.13863 0.0
H1616 H 0.21913 0.28492 0.287 0.0
O1617 O 0.11251 0.33072 0.32299 0.0
H1618 H 0.15035 0.32497 0.54648 0.0
H1619 H 0.10979 0.37108 0.44698 0.0
H1620 H 0.09788 0.36162 0.52819 0.0
H1621 H 0.11825 0.33848 0.57865 0.0
H1622 H 0.16155 0.33456 0.46476 0.0
H1623 H 0.15366 0.42317 0.48834 0.0
H1624 H 0.13486 0.44527 0.43195 0.0
O1625 O 0.11729 0.35978 0.36292 0.0
C1626 C 0.15403 0.36053 0.28018 0.0
C1627 C 0.12891 0.42152 0.38123 0.0
C1628 C 0.14743 0.41713 0.45527 0.0
N1629 N 0.14198 0.38909 0.40232 0.0
C1630 C 0.13164 0.40116 0.37111 0.0
C1631 C 0.14987 0.39684 0.44393 0.0
C1632 C 0.13687 0.42952 0.42363 0.0
C1633 C 0.17574 0.2984 0.34247 0.0
N1634 N 0.16609 0.30719 0.30438 0.0
C1635 C 0.19492 0.29026 0.33686 0.0
C1636 C 0.20426 0.29115 0.29185 0.0
C1637 C 0.19436 0.30016 0.25316 0.0
C1638 C 0.17521 0.30817 0.26016 0.0
C1639 C 0.12607 0.27687 0.20524 0.0
C1640 C 0.11944 0.31731 0.22202 0.0
C1641 C 0.13314 0.28616 0.24718 0.0
N1642 N 0.1299 0.30617 0.25496 0.0
C1643 C 0.11214 0.30853 0.17967 0.0
C1644 C 0.11552 0.28817 0.17129 0.0
C1645 C 0.10616 0.34717 0.34088 0.0
C1646 C 0.14135 0.3351 0.52488 0.0
C1647 C 0.11865 0.36083 0.46846 0.0
C1648 C 0.11188 0.35561 0.51455 0.0
C1649 C 0.12333 0.34265 0.54287 0.0
N1650 N 0.13635 0.35336 0.45104 0.0
C1651 C 0.14767 0.34066 0.47863 0.0
Co1652 Co 0.43354 0.61354 0.44183 0.0
Co1653 Co 0.39314 0.60706 0.3642 0.0
O1654 O 0.42153 0.60347 0.38174 0.0
C1655 C 0.46322 0.62437 0.36317 0.0
O1656 O 0.45083 0.61865 0.32908 0.0
C1657 C 0.39884 0.56287 0.35684 0.0
O1658 O 0.40653 0.56297 0.40054 0.0
O1659 O 0.38384 0.59742 0.42889 0.0
O1660 O 0.4093 0.60513 0.47879 0.0
H1661 H 0.32225 0.63086 0.3885 0.0
H1662 H 0.45526 0.58416 0.37992 0.0
O1663 O 0.45852 0.62278 0.40763 0.0
H1664 H 0.44996 0.55197 0.53976 0.0
H1665 H 0.48933 0.62499 0.56173 0.0
H1666 H 0.41787 0.6368 0.52496 0.0
H1667 H 0.4363 0.5859 0.52632 0.0
H1668 H 0.4744 0.61202 0.48636 0.0
O1669 O 0.39236 0.57906 0.33806 0.0
H1670 H 0.35786 0.6264 0.41026 0.0
H1671 H 0.36838 0.59493 0.27917 0.0
H1672 H 0.43214 0.64986 0.60096 0.0
H1673 H 0.46932 0.55034 0.39184 0.0
H1674 H 0.46813 0.64398 0.61974 0.0
H1675 H 0.46667 0.53396 0.47222 0.0
O1676 O 0.42181 0.64069 0.43093 0.0
H1677 H 0.43155 0.60342 0.20787 0.0
H1678 H 0.38362 0.6431 0.3044 0.0
H1679 H 0.39419 0.65548 0.22443 0.0
H1680 H 0.41824 0.63554 0.17543 0.0
H1681 H 0.4209 0.59177 0.28844 0.0
H1682 H 0.33285 0.59895 0.25612 0.0
H1683 H 0.30953 0.61707 0.31091 0.0
O1684 O 0.39346 0.63513 0.38909 0.0
C1685 C 0.39155 0.5988 0.47099 0.0
C1686 C 0.33226 0.62294 0.3643 0.0
C1687 C 0.33821 0.60501 0.29004 0.0
N1688 N 0.3652 0.61042 0.34607 0.0
C1689 C 0.35245 0.62038 0.37642 0.0
C1690 C 0.3583 0.60272 0.30337 0.0
C1691 C 0.32513 0.61519 0.32078 0.0
C1692 C 0.45425 0.5773 0.41514 0.0
N1693 N 0.44511 0.58713 0.45247 0.0
C1694 C 0.46215 0.55807 0.42162 0.0
C1695 C 0.46063 0.54887 0.46669 0.0
C1696 C 0.45124 0.55896 0.50458 0.0
C1697 C 0.44349 0.57816 0.49673 0.0
C1698 C 0.47362 0.62762 0.55399 0.0
C1699 C 0.43351 0.63406 0.53303 0.0
C1700 C 0.4651 0.62035 0.51132 0.0
N1701 N 0.44524 0.62351 0.50145 0.0
C1702 C 0.44152 0.64155 0.57605 0.0
C1703 C 0.46172 0.63826 0.58654 0.0
C1704 C 0.40544 0.64667 0.41188 0.0
C1705 C 0.42105 0.61224 0.22885 0.0
C1706 C 0.39431 0.63445 0.28366 0.0
C1707 C 0.40014 0.64149 0.23822 0.0
C1708 C 0.4136 0.63028 0.21071 0.0
N1709 N 0.40169 0.61675 0.30127 0.0
C1710 C 0.41487 0.60567 0.27444 0.0
Co1711 Co 0.13918 0.68023 0.19151 0.0
Co1712 Co 0.14284 0.64207 0.10767 0.0
O1713 O 0.14822 0.66939 0.12983 0.0
C1714 C 0.12187 0.71045 0.12379 0.0
O1715 O 0.11223 0.69604 0.10121 0.0
C1716 C 0.18708 0.64564 0.09949 0.0
O1717 O 0.18747 0.65144 0.14485 0.0
O1718 O 0.15239 0.63025 0.17021 0.0
O1719 O 0.14533 0.65441 0.2246 0.0
H1720 H 0.11521 0.57198 0.11909 0.0
H1721 H 0.16981 0.70171 0.13349 0.0
O1722 O 0.13317 0.7065 0.15969 0.0
H1723 H 0.20206 0.68829 0.29061 0.0
H1724 H 0.13237 0.73396 0.31859 0.0
H1725 H 0.11466 0.66465 0.27267 0.0
H1726 H 0.16706 0.67793 0.27568 0.0
H1727 H 0.14404 0.71971 0.24122 0.0
O1728 O 0.17053 0.64079 0.07973 0.0
H1729 H 0.12172 0.60647 0.14742 0.0
H1730 H 0.15308 0.61964 0.01768 0.0
H1731 H 0.10282 0.67823 0.35057 0.0
H1732 H 0.20478 0.71252 0.14697 0.0
H1733 H 0.11169 0.71313 0.37396 0.0
H1734 H 0.22116 0.70575 0.22596 0.0
O1735 O 0.1111 0.67091 0.17933 0.0
H1736 H 0.14585 0.68771 0.96315 0.0
H1737 H 0.10631 0.63579 0.04727 0.0
H1738 H 0.0934 0.65043 0.97154 0.0
H1739 H 0.11325 0.67655 0.92888 0.0
H1740 H 0.15814 0.67278 0.03914 0.0
H1741 H 0.14703 0.58527 0.98798 0.0
H1742 H 0.12792 0.56118 0.03878 0.0
O1743 O 0.11512 0.64309 0.13439 0.0
C1744 C 0.15102 0.63671 0.21361 0.0
C1745 C 0.12358 0.58233 0.09663 0.0
C1746 C 0.14145 0.58978 0.02308 0.0
N1747 N 0.13783 0.61504 0.0844 0.0
C1748 C 0.12732 0.60187 0.11253 0.0
C1749 C 0.1449 0.60921 0.04019 0.0
C1750 C 0.13072 0.57628 0.05158 0.0
C1751 C 0.1768 0.69882 0.16805 0.0
N1752 N 0.16643 0.68915 0.20374 0.0
C1753 C 0.19662 0.70493 0.17543 0.0
C1754 C 0.2058 0.70111 0.21974 0.0
C1755 C 0.19511 0.6913 0.25601 0.0
C1756 C 0.17532 0.68538 0.2473 0.0
C1757 C 0.12844 0.71872 0.30883 0.0
C1758 C 0.11868 0.67981 0.28273 0.0
C1759 C 0.13496 0.71059 0.26502 0.0
N1760 N 0.13016 0.69132 0.25261 0.0
C1761 C 0.11188 0.68743 0.32682 0.0
C1762 C 0.11684 0.70702 0.3399 0.0
C1763 C 0.10427 0.65512 0.15897 0.0
C1764 C 0.13709 0.6763 0.98133 0.0
C1765 C 0.11502 0.64718 0.02899 0.0
C1766 C 0.10764 0.65539 0.98607 0.0
C1767 C 0.11879 0.67004 0.96215 0.0
N1768 N 0.13303 0.65332 0.04745 0.0
C1769 C 0.14401 0.66773 0.02429 0.0
Co1770 Co 0.06933 0.39325 0.94015 0.0
Co1771 Co 0.11042 0.39473 0.86424 0.0
O1772 O 0.08245 0.40104 0.88008 0.0
C1773 C 0.0404 0.37607 0.86891 0.0
O1774 O 0.05495 0.36555 0.8493 0.0
C1775 C 0.10612 0.4385 0.85067 0.0
O1776 O 0.09658 0.43882 0.89214 0.0
O1777 O 0.12018 0.40499 0.92792 0.0
O1778 O 0.09427 0.39873 0.97776 0.0
H1779 H 0.17901 0.36553 0.89265 0.0
H1780 H 0.05014 0.42368 0.87714 0.0
O1781 O 0.0439 0.38782 0.9042 0.0
H1782 H 0.0603 0.45748 0.0338 0.0
H1783 H 0.01162 0.38987 0.05756 0.0
H1784 H 0.08135 0.36897 0.02512 0.0
H1785 H 0.07037 0.42216 0.02255 0.0
H1786 H 0.02864 0.40016 0.98237 0.0
O1787 O 0.11351 0.42214 0.8348 0.0
H1788 H 0.14382 0.37327 0.91303 0.0
H1789 H 0.13634 0.40326 0.77882 0.0
H1790 H 0.06495 0.35851 0.10099 0.0
H1791 H 0.03948 0.4589 0.887 0.0
H1792 H 0.02983 0.36898 0.11759 0.0
H1793 H 0.04466 0.47608 0.9657 0.0
O1794 O 0.07789 0.36484 0.93087 0.0
H1795 H 0.07031 0.3967 0.7104 0.0
H1796 H 0.11792 0.35721 0.8083 0.0
H1797 H 0.10578 0.34356 0.73078 0.0
H1798 H 0.08185 0.36337 0.68118 0.0
H1799 H 0.08272 0.40973 0.78829 0.0
H1800 H 0.1715 0.39598 0.75709 0.0
H1801 H 0.19308 0.37693 0.81416 0.0
O1802 O 0.10773 0.36726 0.89296 0.0
C1803 C 0.11242 0.40392 0.97004 0.0
C1804 C 0.16976 0.37385 0.86747 0.0
C1805 C 0.16556 0.39096 0.79143 0.0
N1806 N 0.13805 0.38875 0.84726 0.0
C1807 C 0.14982 0.37826 0.87882 0.0
C1808 C 0.14568 0.39511 0.80403 0.0
C1809 C 0.17765 0.38026 0.82345 0.0
C1810 C 0.05227 0.43099 0.91163 0.0
N1811 N 0.06098 0.4209 0.94919 0.0
C1812 C 0.04627 0.45096 0.91695 0.0
C1813 C 0.04922 0.4606 0.96109 0.0
C1814 C 0.05802 0.45019 0.99928 0.0
C1815 C 0.06383 0.43023 0.99263 0.0
C1816 C 0.02694 0.38525 0.05077 0.0
C1817 C 0.0661 0.37369 0.03223 0.0
C1818 C 0.03664 0.39099 0.0082 0.0
N1819 N 0.05603 0.3853 0.99954 0.0
C1820 C 0.05688 0.36767 0.07518 0.0
C1821 C 0.03717 0.37353 0.08445 0.0
C1822 C 0.09417 0.35722 0.91488 0.0
C1823 C 0.08079 0.38795 0.73161 0.0
C1824 C 0.10747 0.36591 0.78698 0.0
C1825 C 0.10068 0.35811 0.74308 0.0
C1826 C 0.08725 0.36924 0.71526 0.0
N1827 N 0.10115 0.38432 0.80265 0.0
C1828 C 0.08793 0.39528 0.77567 0.0
Co1829 Co 0.35755 0.31846 0.69147 0.0
Co1830 Co 0.35483 0.36098 0.62032 0.0
O1831 O 0.34933 0.33254 0.63297 0.0
C1832 C 0.3764 0.29112 0.61848 0.0
O1833 O 0.38725 0.30603 0.60172 0.0
C1834 C 0.31109 0.35594 0.60746 0.0
O1835 O 0.31121 0.34539 0.64749 0.0
O1836 O 0.34458 0.36916 0.68525 0.0
O1837 O 0.35115 0.34239 0.73212 0.0
H1838 H 0.38224 0.42966 0.65653 0.0
H1839 H 0.32778 0.29971 0.62594 0.0
O1840 O 0.36384 0.29395 0.65251 0.0
H1841 H 0.29363 0.30529 0.78349 0.0
H1842 H 0.36289 0.2585 0.80171 0.0
H1843 H 0.38139 0.3295 0.77788 0.0
H1844 H 0.32861 0.3167 0.77378 0.0
H1845 H 0.352 0.27673 0.72869 0.0
O1846 O 0.3272 0.36401 0.59205 0.0
H1847 H 0.37552 0.39389 0.67276 0.0
H1848 H 0.34531 0.3884 0.53827 0.0
H1849 H 0.39244 0.3119 0.85167 0.0
H1850 H 0.2929 0.28777 0.63417 0.0
H1851 H 0.38318 0.27613 0.86393 0.0
H1852 H 0.27555 0.29064 0.71333 0.0
O1853 O 0.38563 0.32814 0.68339 0.0
H1854 H 0.3531 0.32401 0.46197 0.0
H1855 H 0.39186 0.37058 0.56436 0.0
H1856 H 0.40544 0.36035 0.48519 0.0
H1857 H 0.38599 0.33695 0.43333 0.0
H1858 H 0.34014 0.33451 0.54155 0.0
H1859 H 0.35158 0.42415 0.52069 0.0
H1860 H 0.37022 0.44503 0.58001 0.0
O1861 O 0.3825 0.35841 0.64787 0.0
C1862 C 0.34559 0.36056 0.72641 0.0
C1863 C 0.37411 0.42073 0.63039 0.0
C1864 C 0.35688 0.41763 0.55419 0.0
N1865 N 0.36002 0.38907 0.60657 0.0
C1866 C 0.37027 0.40045 0.63937 0.0
C1867 C 0.3533 0.39741 0.56443 0.0
C1868 C 0.36735 0.42934 0.58746 0.0
C1869 C 0.32039 0.30084 0.66061 0.0
N1870 N 0.33019 0.309 0.69931 0.0
C1871 C 0.30061 0.29412 0.66501 0.0
C1872 C 0.29088 0.29577 0.70941 0.0
C1873 C 0.301 0.30402 0.74876 0.0
C1874 C 0.32076 0.31059 0.743 0.0
C1875 C 0.36699 0.2741 0.79682 0.0
C1876 C 0.37719 0.31398 0.78312 0.0
C1877 C 0.3609 0.28448 0.75549 0.0
N1878 N 0.36592 0.30421 0.74922 0.0
C1879 C 0.38354 0.30407 0.8249 0.0
C1880 C 0.37836 0.284 0.83173 0.0
C1881 C 0.39288 0.34476 0.66848 0.0
C1882 C 0.36169 0.33427 0.48417 0.0
C1883 C 0.38332 0.36035 0.54207 0.0
C1884 C 0.39108 0.35464 0.49723 0.0
C1885 C 0.38015 0.34151 0.46814 0.0
N1886 N 0.36515 0.35326 0.55743 0.0
C1887 C 0.35439 0.34032 0.5292 0.0
H1888 H 0.10528 0.02542 0.37927 0.0
H1889 H 0.10145 0.97938 0.1125 0.0
H1890 H 0.11441 0.06128 0.25117 0.0
H1891 H 0.11092 0.94352 0.24046 0.0
H1892 H 0.10314 0.00974 0.16254 0.0
H1893 H 0.10436 0.99529 0.32873 0.0
C1894 C 0.10717 0.02696 0.34056 0.0
C1895 C 0.11003 0.04591 0.3195 0.0
C1896 C 0.10491 0.99521 0.17953 0.0
C1897 C 0.10873 0.01148 0.26135 0.0
C1898 C 0.10389 0.97788 0.15103 0.0
C1899 C 0.10611 0.95887 0.17223 0.0
C1900 C 0.10789 0.99349 0.22967 0.0
C1901 C 0.10923 0.95785 0.22242 0.0
C1902 C 0.10666 0.00975 0.31173 0.0
C1903 C 0.1123 0.04698 0.26904 0.0
N1904 N 0.10993 0.97488 0.24939 0.0
N1905 N 0.1115 0.03003 0.24168 0.0
H1906 H 0.19141 0.86056 0.50629 0.0
H1907 H 0.31106 0.86307 0.49533 0.0
H1908 H 0.22875 0.85182 0.63208 0.0
H1909 H 0.27401 0.85312 0.36957 0.0
H1910 H 0.28103 0.86249 0.54591 0.0
H1911 H 0.22145 0.86133 0.45585 0.0
C1912 C 0.20594 0.85888 0.5234 0.0
C1913 C 0.20755 0.85617 0.57363 0.0
C1914 C 0.27947 0.86043 0.50727 0.0
C1915 C 0.24206 0.85709 0.5158 0.0
C1916 C 0.2966 0.86086 0.47825 0.0
C1917 C 0.29506 0.85819 0.428 0.0
C1918 C 0.26058 0.85754 0.48596 0.0
C1919 C 0.27591 0.85525 0.40809 0.0
C1920 C 0.22308 0.85923 0.49446 0.0
C1921 C 0.22679 0.85394 0.59358 0.0
N1922 N 0.25941 0.85509 0.4371 0.0
N1923 N 0.24331 0.85455 0.56463 0.0
H1924 H 0.3915 0.05988 0.74779 0.0
H1925 H 0.3883 0.94022 0.75609 0.0
H1926 H 0.39819 0.02308 0.62036 0.0
H1927 H 0.40209 0.9765 0.88106 0.0
H1928 H 0.388 0.97053 0.70634 0.0
H1929 H 0.39152 0.02959 0.79752 0.0
C1930 C 0.39289 0.04542 0.73019 0.0
C1931 C 0.3948 0.04403 0.67972 0.0
C1932 C 0.39109 0.97185 0.74464 0.0
C1933 C 0.39476 0.00925 0.73666 0.0
C1934 C 0.39117 0.95457 0.77318 0.0
C1935 C 0.39518 0.95582 0.82295 0.0
C1936 C 0.39481 0.99059 0.766 0.0
C1937 C 0.39893 0.97483 0.8429 0.0
C1938 C 0.39299 0.02814 0.75869 0.0
C1939 C 0.39669 0.02487 0.65908 0.0
N1940 N 0.39855 0.99148 0.8144 0.0
N1941 N 0.39652 0.00822 0.68761 0.0
H1942 H 0.20635 0.1182 0.93606 0.0
H1943 H 0.28346 0.17606 0.09876 0.0
H1944 H 0.21838 0.18086 0.90957 0.0
H1945 H 0.2992 0.11774 0.04255 0.0
H1946 H 0.25483 0.17718 0.04286 0.0
H1947 H 0.23629 0.11663 0.98786 0.0
C1948 C 0.2154 0.13157 0.94091 0.0
C1949 C 0.21005 0.14965 0.91832 0.0
C1950 C 0.26457 0.16415 0.04299 0.0
C1951 C 0.24369 0.14809 0.97848 0.0
C1952 C 0.28074 0.16341 0.07505 0.0
C1953 C 0.29362 0.14675 0.07528 0.0
C1954 C 0.26095 0.14788 0.01202 0.0
C1955 C 0.28959 0.13085 0.04342 0.0
C1956 C 0.23241 0.13064 0.97033 0.0
C1957 C 0.22216 0.16659 0.92594 0.0
N1958 N 0.27343 0.13169 0.01338 0.0
N1959 N 0.23828 0.16549 0.95606 0.0
H1960 H 0.89839 0.97796 0.61927 0.0
H1961 H 0.8968 0.02553 0.88456 0.0
H1962 H 0.88896 0.94296 0.74864 0.0
H1963 H 0.8881 0.06086 0.75544 0.0
H1964 H 0.89674 0.99509 0.83506 0.0
H1965 H 0.89746 0.00861 0.66833 0.0
C1966 C 0.89609 0.97671 0.65791 0.0
C1967 C 0.89368 0.95785 0.6798 0.0
C1968 C 0.89475 0.0095 0.81761 0.0
C1969 C 0.89279 0.99281 0.73614 0.0
C1970 C 0.89481 0.02689 0.84585 0.0
C1971 C 0.89236 0.04578 0.82419 0.0
C1972 C 0.89251 0.011 0.76723 0.0
C1973 C 0.88991 0.04661 0.77376 0.0
C1974 C 0.89552 0.9942 0.68586 0.0
C1975 C 0.89078 0.95716 0.7301 0.0
N1976 N 0.89015 0.02949 0.74698 0.0
N1977 N 0.89052 0.97435 0.75653 0.0
H1978 H 0.79694 0.11691 0.43982 0.0
H1979 H 0.71886 0.17478 0.60082 0.0
H1980 H 0.7854 0.17971 0.41391 0.0
H1981 H 0.70338 0.11689 0.54173 0.0
H1982 H 0.7483 0.17586 0.54719 0.0
H1983 H 0.76694 0.11548 0.49145 0.0
C1984 C 0.788 0.13034 0.44481 0.0
C1985 C 0.79346 0.14841 0.42235 0.0
C1986 C 0.73845 0.16292 0.5463 0.0
C1987 C 0.7598 0.14701 0.48235 0.0
C1988 C 0.72184 0.16219 0.57708 0.0
C1989 C 0.70879 0.14568 0.57569 0.0
C1990 C 0.74229 0.14677 0.51508 0.0
C1991 C 0.71312 0.12987 0.54382 0.0
C1992 C 0.77097 0.12951 0.47416 0.0
C1993 C 0.7815 0.16545 0.43017 0.0
N1994 N 0.72966 0.13069 0.51505 0.0
N1995 N 0.76534 0.16442 0.46016 0.0
H1996 H 0.63492 0.9532 0.29724 0.0
H1997 H 0.57136 0.03364 0.15675 0.0
H1998 H 0.57482 0.96729 0.34429 0.0
H1999 H 0.63244 0.04724 0.19686 0.0
H2000 H 0.57235 0.00412 0.21013 0.0
H2001 H 0.63448 0.98316 0.24529 0.0
C2002 C 0.62169 0.96267 0.29675 0.0
C2003 C 0.60494 0.95795 0.3253 0.0
C2004 C 0.58552 0.01357 0.20692 0.0
C2005 C 0.60413 0.99158 0.26507 0.0
C2006 C 0.58504 0.03025 0.17629 0.0
C2007 C 0.60187 0.0428 0.17244 0.0
C2008 C 0.60313 0.00915 0.2326 0.0
C2009 C 0.61916 0.0379 0.19895 0.0
C2010 C 0.62147 0.97968 0.26723 0.0
C2011 C 0.58811 0.97059 0.32322 0.0
N2012 N 0.61944 0.02131 0.2276 0.0
N2013 N 0.58801 0.98672 0.29304 0.0
H2014 H 0.71697 0.82686 0.90737 0.0
H2015 H 0.79514 0.88653 0.06194 0.0
H2016 H 0.70072 0.88546 0.96095 0.0
H2017 H 0.78181 0.82495 0.09784 0.0
H2018 H 0.76501 0.88746 0.01054 0.0
H2019 H 0.74596 0.82669 0.96227 0.0
C2020 C 0.71966 0.83978 0.93025 0.0
C2021 C 0.70653 0.85624 0.92965 0.0
C2022 C 0.76867 0.87383 0.03002 0.0
C2023 C 0.73961 0.85619 0.99163 0.0
C2024 C 0.78578 0.87328 0.05919 0.0
C2025 C 0.79078 0.85569 0.08434 0.0
C2026 C 0.75699 0.85647 0.0247 0.0
C2027 C 0.77829 0.83886 0.07942 0.0
C2028 C 0.73604 0.83958 0.96173 0.0
C2029 C 0.71053 0.8725 0.96043 0.0
N2030 N 0.7621 0.83955 0.0495 0.0
N2031 N 0.72689 0.87219 0.98988 0.0
H2032 H 0.59803 0.47717 0.61745 0.0
H2033 H 0.6021 0.52317 0.88422 0.0
H2034 H 0.61009 0.44165 0.74472 0.0
H2035 H 0.61018 0.55923 0.75603 0.0
H2036 H 0.6014 0.49305 0.83349 0.0
H2037 H 0.59887 0.50755 0.66765 0.0
C2038 C 0.60087 0.47575 0.65584 0.0
C2039 C 0.60409 0.45685 0.67682 0.0
C2040 C 0.60339 0.50757 0.81654 0.0
C2041 C 0.60485 0.49143 0.73441 0.0
C2042 C 0.60376 0.52476 0.84546 0.0
C2043 C 0.60631 0.54374 0.8244 0.0
C2044 C 0.6053 0.50938 0.76613 0.0
C2045 C 0.60833 0.54489 0.77389 0.0
C2046 C 0.60139 0.49308 0.68443 0.0
C2047 C 0.60766 0.45591 0.72685 0.0
N2048 N 0.60768 0.52797 0.74647 0.0
N2049 N 0.60785 0.47291 0.7539 0.0
H2050 H 0.78356 0.31941 0.90754 0.0
H2051 H 0.70585 0.3822 0.06033 0.0
H2052 H 0.79757 0.37997 0.95129 0.0
H2053 H 0.7176 0.32022 0.09547 0.0
H2054 H 0.73531 0.38215 0.00692 0.0
H2055 H 0.7545 0.31979 0.96243 0.0
C2056 C 0.78034 0.33286 0.92816 0.0
C2057 C 0.79289 0.34971 0.92489 0.0
C2058 C 0.73146 0.36864 0.02661 0.0
C2059 C 0.7598 0.35026 0.98698 0.0
C2060 C 0.71474 0.36864 0.05702 0.0
C2061 C 0.70947 0.35124 0.08261 0.0
C2062 C 0.74256 0.35092 0.02057 0.0
C2063 C 0.72135 0.33401 0.07682 0.0
C2064 C 0.76393 0.33298 0.95968 0.0
C2065 C 0.78823 0.36668 0.95284 0.0
N2066 N 0.73722 0.33419 0.04584 0.0
N2067 N 0.77193 0.3666 0.98243 0.0
H2068 H 0.8972 0.47732 0.38562 0.0
H2069 H 0.89678 0.52273 0.11829 0.0
H2070 H 0.88663 0.44124 0.25851 0.0
H2071 H 0.8871 0.55893 0.24561 0.0
H2072 H 0.89636 0.4926 0.16913 0.0
H2073 H 0.89677 0.50747 0.33484 0.0
C2074 C 0.89474 0.47574 0.34711 0.0
C2075 C 0.89186 0.45673 0.32637 0.0
C2076 C 0.89425 0.50715 0.18584 0.0
C2077 C 0.89159 0.49111 0.26803 0.0
C2078 C 0.89452 0.52435 0.15687 0.0
C2079 C 0.89188 0.54338 0.17765 0.0
C2080 C 0.89161 0.50902 0.23605 0.0
C2081 C 0.88907 0.54457 0.22793 0.0
C2082 C 0.89446 0.49294 0.31817 0.0
C2083 C 0.88879 0.45559 0.27617 0.0
N2084 N 0.88912 0.52765 0.25541 0.0
N2085 N 0.88885 0.47251 0.24872 0.0
H2086 H 0.69161 0.63528 0.49426 0.0
H2087 H 0.81143 0.6351 0.50487 0.0
H2088 H 0.72873 0.64607 0.36901 0.0
H2089 H 0.77429 0.64538 0.63033 0.0
H2090 H 0.78126 0.63449 0.45452 0.0
H2091 H 0.72179 0.63436 0.54451 0.0
C2092 C 0.70611 0.63733 0.47723 0.0
C2093 C 0.70764 0.64075 0.42726 0.0
C2094 C 0.77973 0.63684 0.49308 0.0
C2095 C 0.74224 0.63963 0.48472 0.0
C2096 C 0.79693 0.6371 0.52192 0.0
C2097 C 0.79539 0.64028 0.57198 0.0
C2098 C 0.7608 0.63953 0.51443 0.0
C2099 C 0.77619 0.6429 0.59194 0.0
C2100 C 0.72332 0.6369 0.50603 0.0
C2101 C 0.72684 0.64342 0.40734 0.0
N2102 N 0.75964 0.6424 0.56313 0.0
N2103 N 0.7434 0.64274 0.4361 0.0
H2104 H 0.39951 0.47767 0.12032 0.0
H2105 H 0.40511 0.52398 0.38679 0.0
H2106 H 0.39283 0.44174 0.24919 0.0
H2107 H 0.39177 0.55933 0.26001 0.0
H2108 H 0.40436 0.49359 0.33662 0.0
H2109 H 0.40038 0.50788 0.17079 0.0
C2110 C 0.3982 0.47613 0.15916 0.0
C2111 C 0.39597 0.45715 0.18049 0.0
C2112 C 0.40155 0.50803 0.31992 0.0
C2113 C 0.3972 0.49162 0.23846 0.0
C2114 C 0.40203 0.52536 0.3485 0.0
C2115 C 0.3984 0.54422 0.32767 0.0
C2116 C 0.39773 0.50962 0.27008 0.0
C2117 C 0.39452 0.54511 0.27777 0.0
C2118 C 0.39867 0.49337 0.18794 0.0
C2119 C 0.39441 0.45607 0.23111 0.0
N2120 N 0.39437 0.52809 0.25071 0.0
N2121 N 0.39515 0.47304 0.25835 0.0
H2122 H 0.22615 0.64891 0.13023 0.0
H2123 H 0.27277 0.65217 0.86385 0.0
H2124 H 0.19024 0.64236 0.0013 0.0
H2125 H 0.30774 0.63858 0.99108 0.0
H2126 H 0.24236 0.65231 0.91392 0.0
H2127 H 0.25644 0.64889 0.0799 0.0
C2128 C 0.22463 0.64746 0.09141 0.0
C2129 C 0.20564 0.64552 0.07002 0.0
C2130 C 0.25671 0.64925 0.93074 0.0
C2131 C 0.24017 0.64571 0.01224 0.0
C2132 C 0.27406 0.64919 0.90221 0.0
C2133 C 0.29282 0.64525 0.9232 0.0
C2134 C 0.25819 0.64563 0.98068 0.0
C2135 C 0.29359 0.64155 0.9732 0.0
C2136 C 0.24191 0.64741 0.06272 0.0
C2137 C 0.20457 0.64374 0.01944 0.0
N2138 N 0.27657 0.64193 1.00021 0.0
N2139 N 0.22158 0.64397 0.99229 0.0
H2140 H 0.1351 0.45025 0.78663 0.0
H2141 H 0.07 0.53242 0.65411 0.0
H2142 H 0.07711 0.46718 0.84273 0.0
H2143 H 0.1326 0.54386 0.6829 0.0
H2144 H 0.07176 0.50262 0.70657 0.0
H2145 H 0.13402 0.47945 0.73211 0.0
C2146 C 0.1222 0.46014 0.78752 0.0
C2147 C 0.10626 0.45648 0.81948 0.0
C2148 C 0.0851 0.51162 0.70092 0.0
C2149 C 0.10465 0.4892 0.7564 0.0
C2150 C 0.08417 0.52844 0.67079 0.0
C2151 C 0.1012 0.54052 0.66422 0.0
C2152 C 0.10332 0.50657 0.72333 0.0
C2153 C 0.11914 0.5349 0.68715 0.0
C2154 C 0.1216 0.47671 0.75652 0.0
C2155 C 0.08981 0.46965 0.81906 0.0
N2156 N 0.1198 0.51821 0.71544 0.0
N2157 N 0.0893 0.48532 0.78755 0.0
H2158 H 0.21707 0.32396 0.40773 0.0
H2159 H 0.29835 0.38648 0.54898 0.0
H2160 H 0.20408 0.38516 0.44795 0.0
H2161 H 0.28277 0.32677 0.59616 0.0
H2162 H 0.26871 0.38647 0.4958 0.0
H2163 H 0.2468 0.32476 0.46042 0.0
C2164 C 0.22066 0.33764 0.42708 0.0
C2165 C 0.20819 0.35454 0.42355 0.0
C2166 C 0.27183 0.37345 0.518 0.0
C2167 C 0.2421 0.3556 0.48292 0.0
C2168 C 0.28866 0.37342 0.5482 0.0
C2169 C 0.29284 0.35667 0.57723 0.0
C2170 C 0.2596 0.35634 0.51565 0.0
C2171 C 0.27991 0.34007 0.57476 0.0
C2172 C 0.23746 0.33802 0.4573 0.0
C2173 C 0.21334 0.37182 0.44982 0.0
N2174 N 0.26399 0.3402 0.54398 0.0
N2175 N 0.23005 0.37199 0.47813 0.0
H2176 H 0.06794 0.1753 0.40993 0.0
H2177 H 0.14393 0.26494 0.46395 0.0
H2178 H 0.13119 0.16482 0.43167 0.0
H2179 H 0.09835 0.26955 0.35387 0.0
H2180 H 0.13448 0.22954 0.4764 0.0
H2181 H 0.07427 0.2117 0.41311 0.0
C2182 C 0.08307 0.18068 0.41616 0.0
C2183 C 0.09911 0.16715 0.42017 0.0
C2184 C 0.12639 0.23849 0.45013 0.0
C2185 C 0.1063 0.2084 0.42487 0.0
C2186 C 0.13166 0.25861 0.44326 0.0
C2187 C 0.12191 0.27003 0.40777 0.0
C2188 C 0.11093 0.23004 0.42224 0.0
C2189 C 0.10626 0.26114 0.38142 0.0
C2190 C 0.08666 0.20134 0.4178 0.0
C2191 C 0.11847 0.17482 0.42793 0.0
N2192 N 0.1012 0.24166 0.38925 0.0
N2193 N 0.12154 0.19497 0.43019 0.0
H2194 H 0.99195 0.89807 0.60925 0.0
H2195 H 0.07598 0.82136 0.70104 0.0
H2196 H 0.97694 0.84283 0.68232 0.0
H2197 H 0.08768 0.87969 0.63885 0.0
H2198 H 0.03986 0.829 0.69957 0.0
H2199 H 0.02723 0.89179 0.625 0.0
C2200 C 0.99609 0.88463 0.62893 0.0
C2201 C 0.98147 0.87088 0.64415 0.0
C2202 C 0.05042 0.84013 0.68666 0.0
C2203 C 0.02214 0.86341 0.66205 0.0
C2204 C 0.07103 0.83579 0.68749 0.0
C2205 C 0.08495 0.84979 0.66956 0.0
C2206 C 0.04378 0.85857 0.6678 0.0
C2207 C 0.07763 0.86827 0.65258 0.0
C2208 C 0.0163 0.88104 0.63799 0.0
C2209 C 0.98775 0.85382 0.66992 0.0
N2210 N 0.05765 0.87202 0.6519 0.0
N2211 N 0.00768 0.85043 0.67763 0.0
H2212 H 0.43321 0.8246 0.90941 0.0
H2213 H 0.35616 0.73579 0.95726 0.0
H2214 H 0.37007 0.83652 0.92899 0.0
H2215 H 0.40097 0.73189 0.84511 0.0
H2216 H 0.36564 0.77113 0.9705 0.0
H2217 H 0.4259 0.78841 0.90924 0.0
C2218 C 0.41788 0.81957 0.91449 0.0
C2219 C 0.40218 0.83347 0.91894 0.0
C2220 C 0.3735 0.76237 0.94348 0.0
C2221 C 0.39389 0.79242 0.91972 0.0
C2222 C 0.36821 0.74228 0.9361 0.0
C2223 C 0.37779 0.73106 0.89996 0.0
C2224 C 0.38883 0.77094 0.91548 0.0
C2225 C 0.39318 0.74015 0.87315 0.0
C2226 C 0.41375 0.79902 0.91417 0.0
C2227 C 0.38255 0.82624 0.92507 0.0
N2228 N 0.39831 0.75957 0.8816 0.0
N2229 N 0.37895 0.80615 0.92548 0.0
H2230 H 0.41124 0.11907 0.1878 0.0
H2231 H 0.51711 0.15192 0.10166 0.0
H2232 H 0.42408 0.18198 0.16752 0.0
H2233 H 0.51204 0.10606 0.21096 0.0
H2234 H 0.4823 0.16188 0.11764 0.0
H2235 H 0.44742 0.11216 0.18935 0.0
C2236 C 0.42169 0.13143 0.18408 0.0
C2237 C 0.41472 0.15111 0.1774 0.0
C2238 C 0.48892 0.14984 0.13858 0.0
C2239 C 0.4559 0.14325 0.17817 0.0
C2240 C 0.50869 0.14412 0.12942 0.0
C2241 C 0.51736 0.12821 0.15519 0.0
C2242 C 0.47757 0.13912 0.17258 0.0
C2243 C 0.50587 0.11851 0.19066 0.0
C2244 C 0.44227 0.12749 0.18524 0.0
C2245 C 0.42887 0.16661 0.17291 0.0
N2246 N 0.48636 0.12387 0.19772 0.0
N2247 N 0.44883 0.1623 0.17244 0.0
H2248 H 0.14568 0.74203 0.14767 0.0
H2249 H 0.07096 0.82648 0.04901 0.0
H2250 H 0.09171 0.72736 0.06888 0.0
H2251 H 0.12853 0.83796 0.11541 0.0
H2252 H 0.07832 0.79033 0.05154 0.0
H2253 H 0.13979 0.77737 0.13176 0.0
C2254 C 0.1326 0.74625 0.12673 0.0
C2255 C 0.11908 0.73171 0.10991 0.0
C2256 C 0.08935 0.80085 0.06516 0.0
C2257 C 0.11208 0.77245 0.09176 0.0
C2258 C 0.08517 0.82147 0.06373 0.0
C2259 C 0.09904 0.83535 0.08248 0.0
C2260 C 0.10748 0.79412 0.0855 0.0
C2261 C 0.11723 0.82795 0.10097 0.0
C2262 C 0.12924 0.7665 0.11756 0.0
C2263 C 0.1025 0.73811 0.08256 0.0
N2264 N 0.12082 0.80793 0.10223 0.0
N2265 N 0.09933 0.75807 0.07473 0.0
H2266 H 0.52584 0.83926 0.32042 0.0
H2267 H 0.41463 0.88236 0.35449 0.0
H2268 H 0.51093 0.89679 0.38258 0.0
H2269 H 0.42594 0.82203 0.30414 0.0
H2270 H 0.45036 0.88888 0.35401 0.0
H2271 H 0.48998 0.8337 0.30352 0.0
C2272 C 0.51509 0.85081 0.32984 0.0
C2273 C 0.52134 0.86842 0.35338 0.0
C2274 C 0.44513 0.8742 0.34282 0.0
C2275 C 0.48053 0.86218 0.33432 0.0
C2276 C 0.42462 0.87044 0.34311 0.0
C2277 C 0.41719 0.8515 0.32989 0.0
C2278 C 0.45856 0.85893 0.32959 0.0
C2279 C 0.43101 0.83681 0.31487 0.0
C2280 C 0.49466 0.84759 0.32041 0.0
C2281 C 0.5068 0.88288 0.36492 0.0
N2282 N 0.45109 0.84076 0.31559 0.0
N2283 N 0.48716 0.87939 0.35551 0.0
H2284 H 0.36926 0.16322 0.6072 0.0
H2285 H 0.40941 0.27537 0.57162 0.0
H2286 H 0.42922 0.176 0.55642 0.0
H2287 H 0.3513 0.25929 0.62876 0.0
H2288 H 0.41606 0.23964 0.5558 0.0
H2289 H 0.36166 0.19872 0.60544 0.0
C2290 C 0.38088 0.17348 0.59548 0.0
C2291 C 0.40002 0.16652 0.58245 0.0
C2292 C 0.40179 0.24402 0.57128 0.0
C2293 C 0.39134 0.20767 0.58064 0.0
C2294 C 0.39794 0.26439 0.58006 0.0
C2295 C 0.37985 0.27028 0.60196 0.0
C2296 C 0.38738 0.22957 0.58429 0.0
C2297 C 0.36556 0.25544 0.61235 0.0
C2298 C 0.37649 0.19387 0.59443 0.0
C2299 C 0.4143 0.18069 0.56702 0.0
N2300 N 0.36968 0.23585 0.60371 0.0
N2301 N 0.40973 0.20065 0.56699 0.0
H2302 H 0.07588 0.17732 0.7988 0.0
H2303 H 0.99308 0.10167 0.90119 0.0
H2304 H 0.08909 0.12154 0.87189 0.0
H2305 H 0.97778 0.15461 0.81909 0.0
H2306 H 0.02842 0.10808 0.88577 0.0
H2307 H 0.0401 0.16877 0.8011 0.0
C2308 C 0.07132 0.16325 0.81506 0.0
C2309 C 0.08558 0.15025 0.83567 0.0
C2310 C 0.01739 0.11827 0.87074 0.0
C2311 C 0.04468 0.14042 0.83836 0.0
C2312 C 0.99715 0.11461 0.87957 0.0
C2313 C 0.98244 0.12772 0.86173 0.0
C2314 C 0.02311 0.1353 0.84419 0.0
C2315 C 0.98864 0.14413 0.83359 0.0
C2316 C 0.05089 0.15838 0.81631 0.0
C2317 C 0.07874 0.13217 0.85597 0.0
N2318 N 0.00856 0.14759 0.82608 0.0
N2319 N 0.05884 0.1279 0.85703 0.0
H2320 H 0.85033 0.74107 0.63109 0.0
H2321 H 0.9292 0.82606 0.55504 0.0
H2322 H 0.90888 0.72688 0.57365 0.0
H2323 H 0.87153 0.83685 0.62157 0.0
H2324 H 0.92133 0.79001 0.55264 0.0
H2325 H 0.85688 0.77648 0.6175 0.0
C2326 C 0.86454 0.74541 0.61514 0.0
C2327 C 0.87916 0.73101 0.60395 0.0
C2328 C 0.91041 0.80036 0.56745 0.0
C2329 C 0.88695 0.77179 0.58882 0.0
C2330 C 0.91488 0.82092 0.56885 0.0
C2331 C 0.9011 0.83456 0.58894 0.0
C2332 C 0.89201 0.79348 0.58602 0.0
C2333 C 0.88275 0.82702 0.60613 0.0
C2334 C 0.86831 0.76569 0.60745 0.0
C2335 C 0.89721 0.73753 0.58287 0.0
N2336 N 0.87882 0.80708 0.60438 0.0
N2337 N 0.90072 0.75752 0.5765 0.0
H2338 H 0.91379 0.11921 0.37062 0.0
H2339 H 0.02608 0.15525 0.31483 0.0
H2340 H 0.92721 0.17577 0.30134 0.0
H2341 H 0.01039 0.10237 0.39676 0.0
H2342 H 0.99021 0.16131 0.30002 0.0
H2343 H 0.94932 0.11118 0.37089 0.0
C2344 C 0.92418 0.12996 0.35526 0.0
C2345 C 0.91742 0.14833 0.33643 0.0
C2346 C 0.99469 0.14831 0.32089 0.0
C2347 C 0.95845 0.13915 0.33678 0.0
C2348 C 0.01514 0.1448 0.32918 0.0
C2349 C 0.02122 0.12839 0.35747 0.0
C2350 C 0.98033 0.13524 0.34081 0.0
C2351 C 0.00642 0.11534 0.3752 0.0
C2352 C 0.94455 0.12534 0.35542 0.0
C2353 C 0.93172 0.16149 0.31656 0.0
N2354 N 0.98673 0.11911 0.36678 0.0
N2355 N 0.9516 0.15671 0.31758 0.0
H2356 H 0.59794 0.26874 0.15402 0.0
H2357 H 0.6311 0.16191 0.07391 0.0
H2358 H 0.64502 0.26264 0.04806 0.0
H2359 H 0.56808 0.1756 0.08841 0.0
H2360 H 0.63848 0.19803 0.07291 0.0
H2361 H 0.58818 0.23378 0.13934 0.0
C2362 C 0.60606 0.26006 0.12727 0.0
C2363 C 0.62223 0.26849 0.102 0.0
C2364 C 0.62304 0.19305 0.07572 0.0
C2365 C 0.61155 0.22854 0.0862 0.0
C2366 C 0.61883 0.17252 0.0766 0.0
C2367 C 0.59896 0.16582 0.08135 0.0
C2368 C 0.60733 0.20689 0.08111 0.0
C2369 C 0.58359 0.18017 0.08452 0.0
C2370 C 0.60046 0.2402 0.11887 0.0
C2371 C 0.63235 0.25665 0.06789 0.0
N2372 N 0.58813 0.20007 0.08521 0.0
N2373 N 0.62708 0.23708 0.06157 0.0
H2374 H 0.57652 0.81706 0.84422 0.0
H2375 H 0.48755 0.89339 0.78873 0.0
H2376 H 0.58806 0.87975 0.81668 0.0
H2377 H 0.48371 0.85014 0.90432 0.0
H2378 H 0.52277 0.88344 0.7755 0.0
H2379 H 0.54028 0.82413 0.84303 0.0
C2380 C 0.57141 0.83221 0.83711 0.0
C2381 C 0.58521 0.8479 0.83092 0.0
C2382 C 0.51404 0.876 0.80325 0.0
C2383 C 0.5441 0.8559 0.82852 0.0
C2384 C 0.49402 0.88157 0.81063 0.0
C2385 C 0.48287 0.8726 0.84778 0.0
C2386 C 0.52261 0.861 0.83232 0.0
C2387 C 0.49192 0.85747 0.87552 0.0
C2388 C 0.55082 0.83622 0.83663 0.0
C2389 C 0.57786 0.8673 0.82208 0.0
N2390 N 0.51127 0.85207 0.86712 0.0
N2391 N 0.55776 0.87077 0.821 0.0
H2392 H 0.90538 0.26772 0.83453 0.0
H2393 H 0.87328 0.16533 0.93805 0.0
H2394 H 0.86688 0.26731 0.9597 0.0
H2395 H 0.93585 0.17496 0.90566 0.0
H2396 H 0.86809 0.20185 0.93882 0.0
H2397 H 0.91487 0.23282 0.85169 0.0
C2398 C 0.89917 0.26029 0.86601 0.0
C2399 C 0.88549 0.27026 0.89604 0.0
C2400 C 0.883 0.19593 0.93229 0.0
C2401 C 0.89569 0.23044 0.91479 0.0
C2402 C 0.88594 0.17518 0.93158 0.0
C2403 C 0.90501 0.16726 0.92176 0.0
C2404 C 0.89909 0.20872 0.92145 0.0
C2405 C 0.92096 0.18057 0.91362 0.0
C2406 C 0.90461 0.24049 0.8758 0.0
C2407 C 0.87765 0.26006 0.93612 0.0
N2408 N 0.91756 0.20071 0.91262 0.0
N2409 N 0.88255 0.24047 0.94385 0.0
H2410 H 0.57686 0.17733 0.6984 0.0
H2411 H 0.49143 0.10288 0.60294 0.0
H2412 H 0.5876 0.1207 0.62674 0.0
H2413 H 0.47759 0.15815 0.67728 0.0
H2414 H 0.52686 0.10857 0.61783 0.0
H2415 H 0.54069 0.17016 0.69691 0.0
C2416 C 0.57168 0.16337 0.68266 0.0
C2417 C 0.58536 0.1497 0.66226 0.0
C2418 C 0.51616 0.11946 0.63125 0.0
C2419 C 0.5441 0.14144 0.66058 0.0
C2420 C 0.49586 0.11621 0.62271 0.0
C2421 C 0.48152 0.13017 0.63848 0.0
C2422 C 0.52237 0.13693 0.65541 0.0
C2423 C 0.48817 0.14703 0.66441 0.0
C2424 C 0.55105 0.1593 0.68185 0.0
C2425 C 0.57775 0.13183 0.64253 0.0
N2426 N 0.50819 0.15008 0.67166 0.0
N2427 N 0.55772 0.12831 0.64203 0.0
H2428 H 0.59404 0.7259 0.43124 0.0
H2429 H 0.63264 0.83808 0.38647 0.0
H2430 H 0.65082 0.74177 0.36655 0.0
H2431 H 0.57386 0.82508 0.44453 0.0
H2432 H 0.64047 0.80259 0.38795 0.0
H2433 H 0.58743 0.76172 0.44571 0.0
C2434 C 0.60523 0.73686 0.42079 0.0
C2435 C 0.62292 0.73086 0.39724 0.0
C2436 C 0.62586 0.80741 0.40059 0.0
C2437 C 0.61544 0.77169 0.41337 0.0
C2438 C 0.62133 0.82778 0.39971 0.0
C2439 C 0.60244 0.83468 0.41495 0.0
C2440 C 0.6114 0.79359 0.41653 0.0
C2441 C 0.58857 0.82046 0.43218 0.0
C2442 C 0.60141 0.75728 0.42881 0.0
C2443 C 0.63688 0.74569 0.38432 0.0
N2444 N 0.59326 0.80054 0.43213 0.0
N2445 N 0.63278 0.76534 0.39229 0.0
H2446 H 0.91139 0.88134 0.13761 0.0
H2447 H 0.02409 0.84326 0.17876 0.0
H2448 H 0.92484 0.82234 0.19385 0.0
H2449 H 0.00741 0.89709 0.10176 0.0
H2450 H 0.98835 0.83682 0.1951 0.0
H2451 H 0.94696 0.88877 0.13519 0.0
C2452 C 0.9218 0.8699 0.14966 0.0
C2453 C 0.915 0.85106 0.16547 0.0
C2454 C 0.9926 0.85009 0.17495 0.0
C2455 C 0.95617 0.85958 0.16256 0.0
C2456 C 0.01296 0.85382 0.16581 0.0
C2457 C 0.01872 0.87065 0.13853 0.0
C2458 C 0.97802 0.86341 0.15703 0.0
C2459 C 0.00369 0.88382 0.12252 0.0
C2460 C 0.94222 0.8742 0.14823 0.0
C2461 C 0.92938 0.83702 0.1811 0.0
N2462 N 0.98411 0.87988 0.13188 0.0
N2463 N 0.94933 0.84152 0.17894 0.0
H2464 H 0.65029 0.75966 0.87569 0.0
H2465 H 0.57206 0.67436 0.95275 0.0
H2466 H 0.59121 0.77353 0.9303 0.0
H2467 H 0.63112 0.66364 0.89363 0.0
H2468 H 0.57941 0.71052 0.95378 0.0
H2469 H 0.64434 0.72435 0.89201 0.0
C2470 C 0.63608 0.75527 0.89157 0.0
C2471 C 0.62114 0.76955 0.90118 0.0
C2472 C 0.59077 0.70017 0.94098 0.0
C2473 C 0.61405 0.72886 0.91947 0.0
C2474 C 0.5866 0.67954 0.94041 0.0
C2475 C 0.6009 0.66589 0.92259 0.0
C2476 C 0.60938 0.70712 0.92383 0.0
C2477 C 0.61949 0.67349 0.90719 0.0
C2478 C 0.63266 0.73504 0.90086 0.0
C2479 C 0.60311 0.76299 0.92227 0.0
N2480 N 0.62311 0.6935 0.90798 0.0
N2481 N 0.59995 0.74303 0.93018 0.0
H2482 H 0.47635 0.34568 0.18553 0.0
H2483 H 0.58897 0.38064 0.12944 0.0
H2484 H 0.49254 0.39629 0.0962 0.0
H2485 H 0.57518 0.32461 0.20081 0.0
H2486 H 0.55342 0.38847 0.12691 0.0
H2487 H 0.51217 0.33963 0.20113 0.0
C2488 C 0.48739 0.35562 0.16963 0.0
C2489 C 0.48146 0.3714 0.13916 0.0
C2490 C 0.55812 0.37448 0.14328 0.0
C2491 C 0.52227 0.3646 0.15682 0.0
C2492 C 0.5785 0.36996 0.14476 0.0
C2493 C 0.58517 0.35179 0.16486 0.0
C2494 C 0.54412 0.36077 0.16195 0.0
C2495 C 0.57075 0.33872 0.18461 0.0
C2496 C 0.5078 0.35211 0.17839 0.0
C2497 C 0.49639 0.38381 0.11949 0.0
N2498 N 0.55087 0.34341 0.18238 0.0
N2499 N 0.51604 0.3801 0.12853 0.0
H2500 H 0.90614 0.23155 0.35184 0.0
H2501 H 0.86978 0.33702 0.43054 0.0
H2502 H 0.86012 0.23634 0.46081 0.0
H2503 H 0.93328 0.32623 0.4145 0.0
H2504 H 0.86412 0.30065 0.43379 0.0
H2505 H 0.91519 0.26676 0.36621 0.0
C2506 C 0.89817 0.23999 0.3793 0.0
C2507 C 0.88246 0.23113 0.40541 0.0
C2508 C 0.87929 0.3063 0.43016 0.0
C2509 C 0.89226 0.27133 0.42079 0.0
C2510 C 0.88252 0.32697 0.42797 0.0
C2511 C 0.90201 0.33455 0.42209 0.0
C2512 C 0.8956 0.29317 0.42491 0.0
C2513 C 0.91803 0.32093 0.4192 0.0
C2514 C 0.90335 0.25998 0.3875 0.0
C2515 C 0.87245 0.24264 0.44034 0.0
N2516 N 0.91444 0.30083 0.41971 0.0
N2517 N 0.87725 0.26235 0.44638 0.0
H2518 H 0.92423 0.68452 0.65869 0.0
H2519 H 0.01522 0.61016 0.712 0.0
H2520 H 0.91427 0.62178 0.68889 0.0
H2521 H 0.01706 0.65279 0.59481 0.0
H2522 H 0.98005 0.61973 0.72744 0.0
H2523 H 0.96064 0.67828 0.65895 0.0
C2524 C 0.92973 0.66955 0.6663 0.0
C2525 C 0.91632 0.6536 0.67346 0.0
C2526 C 0.98834 0.62715 0.6989 0.0
C2527 C 0.95763 0.64653 0.67475 0.0
C2528 C 0.00834 0.62181 0.69027 0.0
C2529 C 0.0189 0.63068 0.65201 0.0
C2530 C 0.9792 0.64184 0.66993 0.0
C2531 C 0.00932 0.64555 0.6245 0.0
C2532 C 0.95041 0.666 0.66623 0.0
C2533 C 0.92417 0.63443 0.68282 0.0
N2534 N 0.98999 0.65073 0.63407 0.0
N2535 N 0.94435 0.63141 0.68331 0.0
H2536 H 0.64889 0.24018 0.64387 0.0
H2537 H 0.57197 0.32416 0.55291 0.0
H2538 H 0.59348 0.22539 0.57127 0.0
H2539 H 0.62867 0.33597 0.6232 0.0
H2540 H 0.58015 0.28822 0.55259 0.0
H2541 H 0.64251 0.27552 0.62917 0.0
C2542 C 0.63539 0.24439 0.62447 0.0
C2543 C 0.62158 0.22983 0.6092 0.0
C2544 C 0.5908 0.29876 0.56774 0.0
C2545 C 0.61401 0.27053 0.5926 0.0
C2546 C 0.58615 0.31927 0.56797 0.0
C2547 C 0.59954 0.33316 0.5886 0.0
C2548 C 0.60896 0.29216 0.58817 0.0
C2549 C 0.61774 0.32592 0.60735 0.0
C2550 C 0.63174 0.26463 0.61605 0.0
C2551 C 0.60449 0.23616 0.58373 0.0
N2552 N 0.62181 0.30599 0.60687 0.0
N2553 N 0.60104 0.25612 0.57668 0.0
H2554 H 0.00889 0.40083 0.88702 0.0
H2555 H 0.92538 0.32339 0.79578 0.0
H2556 H 0.0238 0.34484 0.81717 0.0
H2557 H 0.91307 0.37916 0.86985 0.0
H2558 H 0.96117 0.33201 0.79521 0.0
H2559 H 0.97355 0.39437 0.87201 0.0
C2560 C 0.00472 0.38721 0.8681 0.0
C2561 C 0.01931 0.37324 0.85378 0.0
C2562 C 0.95057 0.34237 0.81126 0.0
C2563 C 0.97863 0.36559 0.83687 0.0
C2564 C 0.93013 0.33748 0.81162 0.0
C2565 C 0.91614 0.35046 0.83335 0.0
C2566 C 0.95703 0.36039 0.83264 0.0
C2567 C 0.92322 0.36854 0.8531 0.0
C2568 C 0.98448 0.38351 0.85955 0.0
C2569 C 0.01302 0.35598 0.82891 0.0
N2570 N 0.9431 0.37288 0.85244 0.0
N2571 N 0.99308 0.3525 0.82171 0.0
H2572 H 0.85186 0.7604 0.12719 0.0
H2573 H 0.92903 0.67377 0.05247 0.0
H2574 H 0.91191 0.77308 0.07717 0.0
H2575 H 0.8692 0.66391 0.10776 0.0
H2576 H 0.9224 0.71004 0.05207 0.0
H2577 H 0.85716 0.72503 0.11021 0.0
C2578 C 0.86615 0.75575 0.11217 0.0
C2579 C 0.88154 0.76972 0.10406 0.0
C2580 C 0.91072 0.69987 0.06387 0.0
C2581 C 0.88786 0.72894 0.08498 0.0
C2582 C 0.91447 0.67916 0.06406 0.0
C2583 C 0.89973 0.66572 0.08065 0.0
C2584 C 0.89209 0.70711 0.08018 0.0
C2585 C 0.88113 0.67361 0.09515 0.0
C2586 C 0.86919 0.73549 0.10251 0.0
C2587 C 0.89965 0.7628 0.08406 0.0
N2588 N 0.87792 0.6937 0.09479 0.0
N2589 N 0.90242 0.74282 0.07573 0.0
H2590 H 0.58905 0.62141 0.30999 0.0
H2591 H 0.48488 0.65307 0.40948 0.0
H2592 H 0.57793 0.68364 0.34368 0.0
H2593 H 0.48777 0.61161 0.28997 0.0
H2594 H 0.51978 0.6628 0.39371 0.0
H2595 H 0.55271 0.61535 0.30934 0.0
C2596 C 0.57892 0.63382 0.31676 0.0
C2597 C 0.58641 0.65304 0.32692 0.0
C2598 C 0.51266 0.65177 0.37059 0.0
C2599 C 0.54508 0.64611 0.32737 0.0
C2600 C 0.49285 0.64616 0.37965 0.0
C2601 C 0.48352 0.63155 0.35089 0.0
C2602 C 0.52339 0.64222 0.33355 0.0
C2603 C 0.49445 0.62302 0.31272 0.0
C2604 C 0.55826 0.63037 0.31617 0.0
C2605 C 0.5727 0.66863 0.33544 0.0
N2606 N 0.514 0.62821 0.30567 0.0
N2607 N 0.55265 0.66475 0.33644 0.0
H2608 H 0.37017 0.33743 0.11224 0.0
H2609 H 0.41122 0.22562 0.07658 0.0
H2610 H 0.42976 0.32521 0.05816 0.0
H2611 H 0.35276 0.24128 0.13231 0.0
H2612 H 0.4176 0.26141 0.06056 0.0
H2613 H 0.36293 0.30186 0.11105 0.0
C2614 C 0.38179 0.32727 0.09993 0.0
C2615 C 0.40071 0.3344 0.08576 0.0
C2616 C 0.40331 0.25692 0.07579 0.0
C2617 C 0.39245 0.29318 0.08459 0.0
C2618 C 0.39963 0.23652 0.0847 0.0
C2619 C 0.38152 0.2305 0.10629 0.0
C2620 C 0.38871 0.27125 0.08837 0.0
C2621 C 0.36704 0.24523 0.11621 0.0
C2622 C 0.3776 0.30684 0.09918 0.0
C2623 C 0.41499 0.32037 0.06962 0.0
N2624 N 0.37101 0.26484 0.10747 0.0
N2625 N 0.41064 0.30037 0.06992 0.0
H2626 H 0.41352 0.61846 0.87096 0.0
H2627 H 0.52576 0.65627 0.82215 0.0
H2628 H 0.42653 0.67593 0.80562 0.0
H2629 H 0.50979 0.6034 0.9038 0.0
H2630 H 0.48994 0.66208 0.80575 0.0
H2631 H 0.44912 0.61109 0.87287 0.0
C2632 C 0.42384 0.62957 0.85681 0.0
C2633 C 0.41693 0.64799 0.83863 0.0
C2634 C 0.49436 0.64915 0.82694 0.0
C2635 C 0.45809 0.63956 0.84093 0.0
C2636 C 0.51477 0.64579 0.83615 0.0
C2637 C 0.52074 0.62944 0.86478 0.0
C2638 C 0.47996 0.63596 0.84622 0.0
C2639 C 0.5059 0.61633 0.88203 0.0
C2640 C 0.44427 0.62531 0.85793 0.0
C2641 C 0.43117 0.66159 0.8203 0.0
N2642 N 0.48627 0.61993 0.87264 0.0
N2643 N 0.45112 0.65717 0.82226 0.0
H2644 H 0.12996 0.6616 0.62253 0.0
H2645 H 0.09521 0.77449 0.56829 0.0
H2646 H 0.07413 0.6757 0.55062 0.0
H2647 H 0.14663 0.75793 0.65449 0.0
H2648 H 0.08896 0.73872 0.55235 0.0
H2649 H 0.13795 0.69711 0.62526 0.0
C2650 C 0.11935 0.67214 0.60713 0.0
C2651 C 0.10119 0.66556 0.58679 0.0
C2652 C 0.10167 0.74299 0.57446 0.0
C2653 C 0.11036 0.70659 0.58996 0.0
C2654 C 0.10529 0.76338 0.5834 0.0
C2655 C 0.12135 0.76919 0.61313 0.0
C2656 C 0.1143 0.72842 0.59514 0.0
C2657 C 0.13393 0.75417 0.6318 0.0
C2658 C 0.12396 0.6925 0.60871 0.0
C2659 C 0.08823 0.68006 0.56697 0.0
N2660 N 0.13009 0.73455 0.62265 0.0
N2661 N 0.093 0.69992 0.56934 0.0
H2662 H 0.07496 0.32074 0.34615 0.0
H2663 H 0.98748 0.39916 0.29962 0.0
H2664 H 0.08824 0.38373 0.3288 0.0
H2665 H 0.9828 0.35429 0.41142 0.0
H2666 H 0.02285 0.38953 0.28741 0.0
H2667 H 0.03897 0.32885 0.34738 0.0
C2668 C 0.07027 0.33622 0.34189 0.0
C2669 C 0.08451 0.35163 0.33766 0.0
C2670 C 0.01393 0.38173 0.3142 0.0
C2671 C 0.04364 0.36084 0.33803 0.0
C2672 C 0.99383 0.38711 0.32099 0.0
C2673 C 0.98236 0.37752 0.35667 0.0
C2674 C 0.02226 0.36628 0.34227 0.0
C2675 C 0.99125 0.3621 0.38375 0.0
C2676 C 0.04983 0.34081 0.3428 0.0
C2677 C 0.07769 0.37146 0.33254 0.0
N2678 N 0.01067 0.35685 0.3758 0.0
N2679 N 0.05769 0.37551 0.33263 0.0
H2680 H 0.3705 0.66441 0.38282 0.0
H2681 H 0.4069 0.77712 0.43165 0.0
H2682 H 0.42797 0.67825 0.44711 0.0
H2683 H 0.35434 0.76059 0.34951 0.0
H2684 H 0.41305 0.74137 0.44819 0.0
H2685 H 0.36258 0.69992 0.38129 0.0
C2686 C 0.38148 0.67489 0.39683 0.0
C2687 C 0.40008 0.66825 0.41456 0.0
C2688 C 0.40011 0.74565 0.42688 0.0
C2689 C 0.391 0.70928 0.41271 0.0
C2690 C 0.39655 0.76602 0.4176 0.0
C2691 C 0.3802 0.77182 0.38876 0.0
C2692 C 0.38711 0.73111 0.40749 0.0
C2693 C 0.36727 0.75683 0.37144 0.0
C2694 C 0.37691 0.69526 0.39593 0.0
C2695 C 0.41352 0.68267 0.43276 0.0
N2696 N 0.37105 0.73723 0.38091 0.0
N2697 N 0.40878 0.70256 0.43101 0.0
H2698 H 0.97373 0.65879 0.17824 0.0
H2699 H 0.08589 0.6201 0.13412 0.0
H2700 H 0.98992 0.60288 0.10963 0.0
H2701 H 0.07316 0.67892 0.19234 0.0
H2702 H 0.05042 0.61252 0.13489 0.0
H2703 H 0.00953 0.66533 0.19353 0.0
C2704 C 0.98476 0.64779 0.16702 0.0
C2705 C 0.97887 0.63036 0.14219 0.0
C2706 C 0.05527 0.62709 0.1477 0.0
C2707 C 0.01961 0.63773 0.1594 0.0
C2708 C 0.07565 0.63148 0.14724 0.0
C2709 C 0.08261 0.6503 0.16268 0.0
C2710 C 0.04149 0.64164 0.16337 0.0
C2711 C 0.06846 0.66425 0.17983 0.0
C2712 C 0.00516 0.65157 0.17555 0.0
C2713 C 0.99376 0.61663 0.12836 0.0
N2714 N 0.0485 0.65971 0.17931 0.0
N2715 N 0.01336 0.62066 0.13694 0.0
H2716 H 0.14226 0.23741 0.96116 0.0
H2717 H 0.06644 0.32716 0.90754 0.0
H2718 H 0.09812 0.23383 0.8475 0.0
H2719 H 0.12933 0.33789 0.93413 0.0
H2720 H 0.07303 0.29081 0.90882 0.0
H2721 H 0.13255 0.27264 0.975 0.0
C2722 C 0.13025 0.24392 0.93992 0.0
C2723 C 0.12098 0.23284 0.90308 0.0
C2724 C 0.08527 0.3012 0.91499 0.0
C2725 C 0.1097 0.27264 0.91914 0.0
C2726 C 0.08154 0.32184 0.91445 0.0
C2727 C 0.09741 0.33544 0.92038 0.0
C2728 C 0.10488 0.29422 0.92288 0.0
C2729 C 0.11674 0.32784 0.92894 0.0
C2730 C 0.12483 0.26396 0.94761 0.0
C2731 C 0.10566 0.24197 0.87611 0.0
N2732 N 0.11995 0.30769 0.93009 0.0
N2733 N 0.10044 0.26135 0.88474 0.0
H2734 H 0.42299 0.3173 0.658 0.0
H2735 H 0.51365 0.39127 0.71225 0.0
H2736 H 0.41223 0.37996 0.68782 0.0
H2737 H 0.51524 0.35037 0.59146 0.0
H2738 H 0.4783 0.38203 0.72624 0.0
H2739 H 0.45926 0.32413 0.65643 0.0
C2740 C 0.42829 0.3324 0.66506 0.0
C2741 C 0.41468 0.34814 0.67276 0.0
C2742 C 0.48656 0.37497 0.69711 0.0
C2743 C 0.45585 0.35586 0.67198 0.0
C2744 C 0.50664 0.38013 0.68927 0.0
C2745 C 0.51722 0.37159 0.65057 0.0
C2746 C 0.47734 0.36076 0.66695 0.0
C2747 C 0.50749 0.35735 0.6215 0.0
C2748 C 0.44889 0.33627 0.66393 0.0
C2749 C 0.42228 0.36747 0.68138 0.0
N2750 N 0.48809 0.35227 0.63044 0.0
N2751 N 0.44241 0.3708 0.68095 0.0
H2752 H 0.10906 0.07748 0.5477 0.0
H2753 H 0.1519 0.10234 0.76399 0.0
H2754 H 0.15313 0.11539 0.47956 0.0
H2755 H 0.16573 0.15657 0.68548 0.0
H2756 H 0.14921 0.08436 0.68702 0.0
H2757 H 0.12563 0.08262 0.62513 0.0
C2758 C 0.12267 0.08633 0.54882 0.0
C2759 C 0.12959 0.09622 0.5073 0.0
C2760 C 0.15306 0.10014 0.68675 0.0
C2761 C 0.14865 0.10239 0.59602 0.0
C2762 C 0.15482 0.11038 0.73072 0.0
C2763 C 0.15851 0.13114 0.73114 0.0
C2764 C 0.1551 0.11078 0.64311 0.0
C2765 C 0.16237 0.1407 0.68687 0.0
C2766 C 0.13225 0.08919 0.59311 0.0
C2767 C 0.14729 0.10752 0.51069 0.0
N2768 N 0.16031 0.13051 0.64467 0.0
N2769 N 0.15587 0.11081 0.55462 0.0
H2770 H 0.14095 0.90197 0.73146 0.0
H2771 H 0.15102 0.89209 0.01743 0.0
H2772 H 0.1735 0.85509 0.80474 0.0
H2773 H 0.10315 0.92307 0.94385 0.0
H2774 H 0.16858 0.88843 0.94003 0.0
H2775 H 0.13678 0.91938 0.80887 0.0
C2776 C 0.14783 0.89568 0.76347 0.0
C2777 C 0.15718 0.87684 0.76193 0.0
C2778 C 0.15449 0.89651 0.94114 0.0
C2779 C 0.15244 0.89656 0.85037 0.0
C2780 C 0.14452 0.89872 0.98534 0.0
C2781 C 0.1254 0.9075 0.9868 0.0
C2782 C 0.14532 0.90336 0.89843 0.0
C2783 C 0.11767 0.91581 0.94406 0.0
C2784 C 0.14532 0.90555 0.80771 0.0
C2785 C 0.1658 0.86938 0.80459 0.0
N2786 N 0.1275 0.91329 0.9015 0.0
N2787 N 0.16296 0.87909 0.84722 0.0
H2788 H 0.35073 0.89484 0.98346 0.0
H2789 H 0.36334 0.90371 0.26919 0.0
H2790 H 0.40234 0.91999 0.05542 0.0
H2791 H 0.32786 0.85855 0.19757 0.0
H2792 H 0.36838 0.92049 0.19131 0.0
H2793 H 0.33364 0.89244 0.06174 0.0
C2794 C 0.35824 0.90044 0.01541 0.0
C2795 C 0.37817 0.90719 0.01311 0.0
C2796 C 0.35899 0.90723 0.19297 0.0
C2797 C 0.35869 0.90463 0.10241 0.0
C2798 C 0.35598 0.89774 0.23747 0.0
C2799 C 0.34551 0.87951 0.23959 0.0
C2800 C 0.35124 0.89851 0.15065 0.0
C2801 C 0.33635 0.87239 0.19725 0.0
C2802 C 0.3485 0.89898 0.06007 0.0
C2803 C 0.38714 0.9143 0.05572 0.0
N2804 N 0.33967 0.88173 0.15435 0.0
N2805 N 0.37744 0.91259 0.09871 0.0
H2806 H 0.34683 0.10735 0.5274 0.0
H2807 H 0.32826 0.1526 0.31154 0.0
H2808 H 0.39554 0.08188 0.44518 0.0
H2809 H 0.35361 0.10052 0.24216 0.0
H2810 H 0.33107 0.13583 0.38927 0.0
H2811 H 0.32816 0.11246 0.45205 0.0
C2812 C 0.3534 0.10235 0.49373 0.0
C2813 C 0.37304 0.09478 0.49236 0.0
C2814 C 0.33533 0.12768 0.35701 0.0
C2815 C 0.35201 0.10086 0.40623 0.0
C2816 C 0.33388 0.13738 0.31249 0.0
C2817 C 0.34104 0.1281 0.27036 0.0
C2818 C 0.34442 0.10869 0.35959 0.0
C2819 C 0.34807 0.1083 0.27375 0.0
C2820 C 0.34283 0.10547 0.45066 0.0
C2821 C 0.38068 0.0883 0.44772 0.0
N2822 N 0.35018 0.09948 0.31784 0.0
N2823 N 0.37029 0.09176 0.40637 0.0
H2824 H 0.85492 0.90037 0.24115 0.0
H2825 H 0.84923 0.88758 0.52756 0.0
H2826 H 0.83219 0.84793 0.31426 0.0
H2827 H 0.89393 0.92288 0.45375 0.0
H2828 H 0.83206 0.88219 0.45028 0.0
H2829 H 0.8583 0.91721 0.31959 0.0
C2830 C 0.85008 0.8926 0.27345 0.0
C2831 C 0.84368 0.87255 0.2713 0.0
C2832 C 0.8453 0.89162 0.45134 0.0
C2833 C 0.84728 0.89175 0.36074 0.0
C2834 C 0.85501 0.89483 0.49548 0.0
C2835 C 0.87321 0.90539 0.49682 0.0
C2836 C 0.85376 0.89927 0.40862 0.0
C2837 C 0.88011 0.91436 0.45404 0.0
C2838 C 0.85208 0.9022 0.31817 0.0
C2839 C 0.83757 0.86324 0.31436 0.0
N2840 N 0.87053 0.91088 0.41151 0.0
N2841 N 0.83972 0.87282 0.35737 0.0
H2842 H 0.89368 0.07804 0.05129 0.0
H2843 H 0.83084 0.15458 0.1941 0.0
H2844 H 0.84977 0.11553 0.98117 0.0
H2845 H 0.85579 0.1021 0.26265 0.0
H2846 H 0.83326 0.13779 0.116 0.0
H2847 H 0.87631 0.08291 0.12803 0.0
C2848 C 0.88004 0.08686 0.05186 0.0
C2849 C 0.87335 0.09669 0.01005 0.0
C2850 C 0.83772 0.12969 0.14819 0.0
C2851 C 0.85366 0.10281 0.09795 0.0
C2852 C 0.83637 0.13932 0.19283 0.0
C2853 C 0.84348 0.12987 0.23479 0.0
C2854 C 0.84675 0.11068 0.14531 0.0
C2855 C 0.8503 0.11 0.23115 0.0
C2856 C 0.87009 0.08964 0.0957 0.0
C2857 C 0.8555 0.10779 0.01262 0.0
N2858 N 0.85229 0.10125 0.18697 0.0
N2859 N 0.84657 0.11104 0.05616 0.0
H2860 H 0.67429 0.14286 0.80116 0.0
H2861 H 0.64861 0.09808 0.01517 0.0
H2862 H 0.63702 0.09894 0.73046 0.0
H2863 H 0.59406 0.08708 0.93531 0.0
H2864 H 0.6668 0.1011 0.93855 0.0
H2865 H 0.66854 0.12597 0.87812 0.0
C2866 C 0.66549 0.1292 0.80164 0.0
C2867 C 0.656 0.12235 0.75953 0.0
C2868 C 0.6509 0.09776 0.93795 0.0
C2869 C 0.64905 0.10305 0.84756 0.0
C2870 C 0.64052 0.09585 0.98167 0.0
C2871 C 0.61964 0.09287 0.98168 0.0
C2872 C 0.6403 0.09649 0.89412 0.0
C2873 C 0.61004 0.08984 0.93708 0.0
C2874 C 0.66227 0.11947 0.84561 0.0
C2875 C 0.64465 0.10466 0.76207 0.0
N2876 N 0.6204 0.09197 0.89513 0.0
N2877 N 0.64097 0.09596 0.80567 0.0
H2878 H 0.6028 0.9217 0.55489 0.0
H2879 H 0.67079 0.84973 0.6949 0.0
H2880 H 0.65157 0.8912 0.48369 0.0
H2881 H 0.6437 0.90048 0.76624 0.0
H2882 H 0.66707 0.86686 0.61756 0.0
H2883 H 0.61987 0.91727 0.63221 0.0
C2884 C 0.61737 0.91453 0.5554 0.0
C2885 C 0.62562 0.9065 0.51295 0.0
C2886 C 0.6624 0.87451 0.65022 0.0
C2887 C 0.64501 0.90089 0.60144 0.0
C2888 C 0.66448 0.86468 0.69444 0.0
C2889 C 0.65717 0.87351 0.737 0.0
C2890 C 0.65242 0.89304 0.64834 0.0
C2891 C 0.64932 0.89302 0.73429 0.0
C2892 C 0.62715 0.91203 0.59956 0.0
C2893 C 0.64462 0.89749 0.51557 0.0
N2894 N 0.64661 0.90192 0.69049 0.0
N2895 N 0.65343 0.8944 0.55931 0.0
H2896 H 0.60773 0.57448 0.05065 0.0
H2897 H 0.6507 0.59798 0.26749 0.0
H2898 H 0.65253 0.61177 0.98337 0.0
H2899 H 0.667 0.65141 0.18861 0.0
H2900 H 0.64764 0.57993 0.19063 0.0
H2901 H 0.62468 0.57851 0.12794 0.0
C2902 C 0.62159 0.58293 0.0519 0.0
C2903 C 0.6286 0.59303 0.01076 0.0
C2904 C 0.6521 0.59556 0.19027 0.0
C2905 C 0.64813 0.59792 0.09932 0.0
C2906 C 0.65405 0.60582 0.23419 0.0
C2907 C 0.65854 0.62641 0.23444 0.0
C2908 C 0.65477 0.60601 0.14655 0.0
C2909 C 0.66302 0.6357 0.19017 0.0
C2910 C 0.63139 0.58515 0.09612 0.0
C2911 C 0.64663 0.60376 0.01424 0.0
N2912 N 0.66077 0.62551 0.14806 0.0
N2913 N 0.65545 0.60645 0.05813 0.0
H2914 H 0.6013 0.42133 0.45031 0.0
H2915 H 0.64833 0.40031 0.23656 0.0
H2916 H 0.64911 0.38937 0.52155 0.0
H2917 H 0.66558 0.34751 0.31664 0.0
H2918 H 0.64359 0.41823 0.31309 0.0
H2919 H 0.61865 0.41718 0.37341 0.0
C2920 C 0.61581 0.41402 0.44995 0.0
C2921 C 0.62369 0.4055 0.49226 0.0
C2922 C 0.6487 0.40281 0.31377 0.0
C2923 C 0.64362 0.40047 0.40419 0.0
C2924 C 0.65162 0.39263 0.27009 0.0
C2925 C 0.65683 0.3722 0.27025 0.0
C2926 C 0.65118 0.39248 0.35768 0.0
C2927 C 0.66109 0.36309 0.31485 0.0
C2928 C 0.62582 0.41175 0.40599 0.0
C2929 C 0.64252 0.39615 0.48979 0.0
N2930 N 0.65792 0.3732 0.35677 0.0
N2931 N 0.65156 0.39332 0.4462 0.0
H2932 H 0.85624 0.39897 0.76895 0.0
H2933 H 0.84808 0.39083 0.48208 0.0
H2934 H 0.8294 0.34923 0.69301 0.0
H2935 H 0.89601 0.42082 0.55787 0.0
H2936 H 0.8308 0.38569 0.55931 0.0
H2937 H 0.86001 0.41669 0.69183 0.0
C2938 C 0.85049 0.39206 0.73638 0.0
C2939 C 0.84287 0.37243 0.73721 0.0
C2940 C 0.84482 0.39391 0.55871 0.0
C2941 C 0.84703 0.39261 0.64924 0.0
C2942 C 0.85465 0.39694 0.51465 0.0
C2943 C 0.87372 0.40586 0.51374 0.0
C2944 C 0.85401 0.40018 0.60183 0.0
C2945 C 0.8815 0.41352 0.55713 0.0
C2946 C 0.85275 0.40214 0.69238 0.0
C2947 C 0.83568 0.3642 0.69382 0.0
N2948 N 0.87176 0.41027 0.59953 0.0
N2949 N 0.83818 0.37421 0.65147 0.0
H2950 H 0.89472 0.57488 0.95061 0.0
H2951 H 0.85296 0.59763 0.73183 0.0
H2952 H 0.84827 0.61072 0.01604 0.0
H2953 H 0.83479 0.65059 0.81022 0.0
H2954 H 0.85587 0.5796 0.80874 0.0
H2955 H 0.87845 0.57878 0.87243 0.0
C2956 C 0.88067 0.58299 0.94872 0.0
C2957 C 0.87297 0.59273 0.98968 0.0
C2958 C 0.85103 0.59511 0.80897 0.0
C2959 C 0.85422 0.59745 0.90009 0.0
C2960 C 0.84917 0.60536 0.76502 0.0
C2961 C 0.84419 0.62584 0.76467 0.0
C2962 C 0.84778 0.60546 0.85261 0.0
C2963 C 0.83916 0.63498 0.80878 0.0
C2964 C 0.87126 0.58513 0.90399 0.0
C2965 C 0.85471 0.60302 0.98534 0.0
N2966 N 0.84134 0.62481 0.85094 0.0
N2967 N 0.84627 0.60564 0.94101 0.0
H2968 H 0.35315 0.40065 0.74065 0.0
H2969 H 0.34875 0.38722 0.02695 0.0
H2970 H 0.33158 0.34774 0.81394 0.0
H2971 H 0.39245 0.42358 0.9527 0.0
H2972 H 0.33132 0.38178 0.95008 0.0
H2973 H 0.35647 0.41747 0.81911 0.0
C2974 C 0.34856 0.39276 0.77298 0.0
C2975 C 0.34252 0.37258 0.77082 0.0
C2976 C 0.34439 0.39146 0.95097 0.0
C2977 C 0.34602 0.3918 0.86032 0.0
C2978 C 0.35424 0.39471 0.9949 0.0
C2979 C 0.37225 0.40557 0.99596 0.0
C2980 C 0.35252 0.39937 0.90815 0.0
C2981 C 0.37878 0.41483 0.95318 0.0
C2982 C 0.35052 0.40235 0.81772 0.0
C2983 C 0.33667 0.36315 0.81397 0.0
N2984 N 0.36908 0.41129 0.91083 0.0
N2985 N 0.33878 0.37275 0.85697 0.0
H2986 H 0.32838 0.64782 0.69792 0.0
H2987 H 0.35084 0.60438 0.48054 0.0
H2988 H 0.36135 0.5998 0.7655 0.0
H2989 H 0.40333 0.58602 0.56029 0.0
H2990 H 0.33259 0.60791 0.55703 0.0
H2991 H 0.33278 0.63154 0.61976 0.0
C2992 C 0.33594 0.63345 0.69646 0.0
C2993 C 0.34466 0.62523 0.73813 0.0
C2994 C 0.34803 0.60285 0.55765 0.0
C2995 C 0.35002 0.60652 0.64861 0.0
C2996 C 0.35839 0.60062 0.51395 0.0
C2997 C 0.37882 0.59544 0.51412 0.0
C2998 C 0.35819 0.59972 0.60157 0.0
C2999 C 0.38776 0.59053 0.55853 0.0
C3000 C 0.33837 0.62406 0.65177 0.0
C3001 C 0.35437 0.60662 0.73427 0.0
N3002 N 0.37748 0.59304 0.60047 0.0
N3003 N 0.35733 0.59819 0.69003 0.0
H3004 H 0.14813 0.60476 0.50997 0.0
H3005 H 0.1354 0.599 0.22365 0.0
H3006 H 0.09591 0.58147 0.4369 0.0
H3007 H 0.17128 0.64315 0.29766 0.0
H3008 H 0.12992 0.58173 0.30073 0.0
H3009 H 0.16508 0.60791 0.43165 0.0
C3010 C 0.14045 0.5997 0.47771 0.0
C3011 C 0.12043 0.5932 0.47981 0.0
C3012 C 0.1395 0.59486 0.29976 0.0
C3013 C 0.13974 0.59667 0.39044 0.0
C3014 C 0.14277 0.60462 0.25571 0.0
C3015 C 0.15353 0.62271 0.25448 0.0
C3016 C 0.14727 0.60315 0.34254 0.0
C3017 C 0.16262 0.62942 0.29728 0.0
C3018 C 0.1501 0.6016 0.43303 0.0
C3019 C 0.11121 0.58689 0.43679 0.0
N3020 N 0.15907 0.6198 0.33974 0.0
N3021 N 0.12084 0.589 0.3938 0.0
H3022 H 0.17031 0.34809 0.19478 0.0
H3023 H 0.15264 0.39535 0.97898 0.0
H3024 H 0.14446 0.39993 0.26422 0.0
H3025 H 0.1017 0.41695 0.05996 0.0
H3026 H 0.17052 0.38963 0.05521 0.0
H3027 H 0.16695 0.3648 0.1168 0.0
C3028 C 0.16449 0.36325 0.19375 0.0
C3029 C 0.15742 0.37253 0.23599 0.0
C3030 C 0.15554 0.39593 0.05608 0.0
C3031 C 0.15335 0.39174 0.14672 0.0
C3032 C 0.14538 0.39936 0.01259 0.0
C3033 C 0.12541 0.40608 0.01315 0.0
C3034 C 0.14568 0.39951 0.10017 0.0
C3035 C 0.11689 0.4113 0.05785 0.0
C3036 C 0.1627 0.37288 0.14918 0.0
C3037 C 0.15002 0.39221 0.23257 0.0
N3038 N 0.12698 0.40769 0.09957 0.0
N3039 N 0.14758 0.40092 0.18848 0.0
loop_
_geom_bond_atom_site_label_1
_geom_bond_atom_site_label_2
_geom_bond_distance
_geom_bond_site_symmetry_2
_ccdc_geom_bond_type
Co0 O2 2.143 . S
Co0 O8 2.074 . S
Co0 O11 2.093 . S
Co0 O24 2.097 . S
Co0 N41 2.151 . S
Co0 N49 2.214 . S
Co1 O2 2.160 . S
Co1 O7 2.058 . S
Co1 O17 2.057 . S
Co1 O32 2.037 . S
Co1 N36 2.145 . S
Co1 N57 2.257 . S
O2 Co0 2.143 . S
O2 Co1 2.160 . S
C3 O4 1.278 . S
C3 O11 1.224 . S
O4 C3 1.278 . S
C5 O6 1.245 . S
C5 O17 1.232 . S
O6 C5 1.245 . S
O7 Co1 2.058 . S
O7 C33 1.269 . S
O8 Co0 2.074 . S
O8 C33 1.257 . S
H9 C34 0.930 . S
H10 C40 0.930 . S
O11 Co0 2.093 . S
O11 C3 1.224 . S
H12 C44 0.929 . S
H13 C46 0.930 . S
H14 C47 0.930 . S
H15 C45 0.929 . S
H16 C48 0.928 . S
O17 Co1 2.057 . S
O17 C5 1.232 . S
H18 C37 0.929 . S
H19 C38 0.929 . S
H20 C50 0.931 . S
H21 C42 0.929 . S
H22 C51 0.930 . S
H23 C43 0.931 . S
O24 Co0 2.097 . S
O24 C52 1.214 . S
H25 C53 0.929 . S
H26 C54 0.929 . S
H27 C55 0.930 . S
H28 C56 0.929 . S
H29 C58 0.930 . S
H30 C35 0.930 . S
H31 C39 0.930 . S
O32 Co1 2.037 . S
O32 C52 1.234 . S
C33 O7 1.269 . S
C33 O8 1.257 . S
C34 H9 0.930 . S
C34 C37 1.388 . S
C34 C39 1.418 . S
C35 H30 0.930 . S
C35 C38 1.404 . S
C35 C39 1.353 . S
N36 Co1 2.145 . S
N36 C37 1.397 . S
N36 C38 1.334 . S
C37 H18 0.929 . S
C37 C34 1.388 . S
C37 N36 1.397 . S
C38 H19 0.929 . S
C38 C35 1.404 . S
C38 N36 1.334 . S
C39 H31 0.930 . S
C39 C34 1.418 . S
C39 C35 1.353 . S
C40 H10 0.930 . S
C40 N41 1.330 . S
C40 C42 1.446 . S
N41 Co0 2.151 . S
N41 C40 1.330 . S
N41 C45 1.418 . S
C42 H21 0.929 . S
C42 C40 1.446 . S
C42 C43 1.332 . S
C43 H23 0.931 . S
C43 C42 1.332 . S
C43 C44 1.267 . S
C44 H12 0.929 . S
C44 C43 1.267 . S
C44 C45 1.251 . S
C45 H15 0.929 . S
C45 N41 1.418 . S
C45 C44 1.251 . S
C46 H13 0.930 . S
C46 C48 1.406 . S
C46 C51 1.261 . S
C47 H14 0.930 . S
C47 N49 1.325 . S
C47 C50 1.357 . S
C48 H16 0.928 . S
C48 C46 1.406 . S
C48 N49 1.261 . S
N49 Co0 2.214 . S
N49 C47 1.325 . S
N49 C48 1.261 . S
C50 H20 0.931 . S
C50 C47 1.357 . S
C50 C51 1.312 . S
C51 H22 0.930 . S
C51 C46 1.261 . S
C51 C50 1.312 . S
C52 O24 1.214 . S
C52 O32 1.234 . S
C53 H25 0.929 . S
C53 C56 1.391 . S
C53 C58 1.391 . S
C54 H26 0.929 . S
C54 C55 1.390 . S
C54 N57 1.391 . S
C55 H27 0.930 . S
C55 C54 1.390 . S
C55 C56 1.392 . S
C56 H28 0.929 . S
C56 C53 1.391 . S
C56 C55 1.392 . S
N57 Co1 2.257 . S
N57 C54 1.391 . S
N57 C58 1.388 . S
C58 H29 0.930 . S
C58 C53 1.391 . S
C58 N57 1.388 . S
Co59 O61 2.143 . S
Co59 O67 2.074 . S
Co59 O70 2.093 . S
Co59 O83 2.097 . S
Co59 N100 2.151 . S
Co59 N108 2.214 . S
Co60 O61 2.160 . S
Co60 O66 2.058 . S
Co60 O76 2.057 . S
Co60 O91 2.037 . S
Co60 N95 2.145 . S
Co60 N116 2.257 . S
O61 Co59 2.143 . S
O61 Co60 2.160 . S
C62 O63 1.278 . S
C62 O70 1.224 . S
O63 C62 1.278 . S
C64 O65 1.245 . S
C64 O76 1.232 . S
O65 C64 1.245 . S
O66 Co60 2.058 . S
O66 C92 1.269 . S
O67 Co59 2.074 . S
O67 C92 1.257 . S
H68 C93 0.930 . S
H69 C99 0.930 . S
O70 Co59 2.093 . S
O70 C62 1.224 . S
H71 C103 0.929 . S
H72 C105 0.930 . S
H73 C106 0.930 . S
H74 C104 0.929 . S
H75 C107 0.928 . S
O76 Co60 2.057 . S
O76 C64 1.232 . S
H77 C96 0.929 . S
H78 C97 0.929 . S
H79 C109 0.931 . S
H80 C101 0.929 . S
H81 C110 0.930 . S
H82 C102 0.931 . S
O83 Co59 2.097 . S
O83 C111 1.214 . S
H84 C112 0.929 . S
H85 C113 0.929 . S
H86 C114 0.930 . S
H87 C115 0.929 . S
H88 C117 0.930 . S
H89 C94 0.930 . S
H90 C98 0.930 . S
O91 Co60 2.037 . S
O91 C111 1.234 . S
C92 O66 1.269 . S
C92 O67 1.257 . S
C93 H68 0.930 . S
C93 C96 1.388 . S
C93 C98 1.418 . S
C94 H89 0.930 . S
C94 C97 1.404 . S
C94 C98 1.353 . S
N95 Co60 2.145 . S
N95 C96 1.397 . S
N95 C97 1.334 . S
C96 H77 0.929 . S
C96 C93 1.388 . S
C96 N95 1.397 . S
C97 H78 0.929 . S
C97 C94 1.404 . S
C97 N95 1.334 . S
C98 H90 0.930 . S
C98 C93 1.418 . S
C98 C94 1.353 . S
C99 H69 0.930 . S
C99 N100 1.330 . S
C99 C101 1.446 . S
N100 Co59 2.151 . S
N100 C99 1.330 . S
N100 C104 1.418 . S
C101 H80 0.929 . S
C101 C99 1.446 . S
C101 C102 1.332 . S
C102 H82 0.931 . S
C102 C101 1.332 . S
C102 C103 1.267 . S
C103 H71 0.929 . S
C103 C102 1.267 . S
C103 C104 1.251 . S
C104 H74 0.929 . S
C104 N100 1.418 . S
C104 C103 1.251 . S
C105 H72 0.930 . S
C105 C107 1.406 . S
C105 C110 1.261 . S
C106 H73 0.930 . S
C106 N108 1.325 . S
C106 C109 1.357 . S
C107 H75 0.928 . S
C107 C105 1.406 . S
C107 N108 1.261 . S
N108 Co59 2.214 . S
N108 C106 1.325 . S
N108 C107 1.261 . S
C109 H79 0.931 . S
C109 C106 1.357 . S
C109 C110 1.312 . S
C110 H81 0.930 . S
C110 C105 1.261 . S
C110 C109 1.312 . S
C111 O83 1.214 . S
C111 O91 1.234 . S
C112 H84 0.929 . S
C112 C115 1.391 . S
C112 C117 1.391 . S
C113 H85 0.929 . S
C113 C114 1.390 . S
C113 N116 1.391 . S
C114 H86 0.930 . S
C114 C113 1.390 . S
C114 C115 1.392 . S
C115 H87 0.929 . S
C115 C112 1.391 . S
C115 C114 1.392 . S
N116 Co60 2.257 . S
N116 C113 1.391 . S
N116 C117 1.388 . S
C117 H88 0.930 . S
C117 C112 1.391 . S
C117 N116 1.388 . S
Co118 O120 2.143 . S
Co118 O126 2.074 . S
Co118 O129 2.093 . S
Co118 O142 2.097 . S
Co118 N159 2.151 . S
Co118 N167 2.214 . S
Co119 O120 2.160 . S
Co119 O125 2.058 . S
Co119 O135 2.057 . S
Co119 O150 2.037 . S
Co119 N154 2.145 . S
Co119 N175 2.257 . S
O120 Co118 2.143 . S
O120 Co119 2.160 . S
C121 O122 1.278 . S
C121 O129 1.224 . S
O122 C121 1.278 . S
C123 O124 1.245 . S
C123 O135 1.232 . S
O124 C123 1.245 . S
O125 Co119 2.058 . S
O125 C151 1.269 . S
O126 Co118 2.074 . S
O126 C151 1.257 . S
H127 C152 0.930 . S
H128 C158 0.930 . S
O129 Co118 2.093 . S
O129 C121 1.224 . S
H130 C162 0.929 . S
H131 C164 0.930 . S
H132 C165 0.930 1_556 S
H133 C163 0.929 . S
H134 C166 0.928 . S
O135 Co119 2.057 . S
O135 C123 1.232 . S
H136 C155 0.929 . S
H137 C156 0.929 . S
H138 C168 0.931 . S
H139 C160 0.929 . S
H140 C169 0.930 . S
H141 C161 0.931 . S
O142 Co118 2.097 . S
O142 C170 1.214 . S
H143 C171 0.929 . S
H144 C172 0.929 . S
H145 C173 0.930 . S
H146 C174 0.929 . S
H147 C176 0.930 . S
H148 C153 0.930 . S
H149 C157 0.930 . S
O150 Co119 2.037 . S
O150 C170 1.234 . S
C151 O125 1.269 . S
C151 O126 1.257 . S
C152 H127 0.930 . S
C152 C155 1.388 . S
C152 C157 1.418 . S
C153 H148 0.930 . S
C153 C156 1.404 . S
C153 C157 1.353 . S
N154 Co119 2.145 . S
N154 C155 1.397 . S
N154 C156 1.334 . S
C155 H136 0.929 . S
C155 C152 1.388 . S
C155 N154 1.397 . S
C156 H137 0.929 . S
C156 C153 1.404 . S
C156 N154 1.334 . S
C157 H149 0.930 . S
C157 C152 1.418 . S
C157 C153 1.353 . S
C158 H128 0.930 . S
C158 N159 1.330 . S
C158 C160 1.446 . S
N159 Co118 2.151 . S
N159 C158 1.330 . S
N159 C163 1.418 1_556 S
C160 H139 0.929 . S
C160 C158 1.446 . S
C160 C161 1.332 1_556 S
C161 H141 0.931 . S
C161 C160 1.332 1_554 S
C161 C162 1.267 . S
C162 H130 0.929 . S
C162 C161 1.267 . S
C162 C163 1.251 . S
C163 H133 0.929 . S
C163 N159 1.418 1_554 S
C163 C162 1.251 . S
C164 H131 0.930 . S
C164 C166 1.406 . S
C164 C169 1.261 . S
C165 H132 0.930 1_554 S
C165 N167 1.325 1_554 S
C165 C168 1.357 . S
C166 H134 0.928 . S
C166 C164 1.406 . S
C166 N167 1.261 1_554 S
N167 Co118 2.214 . S
N167 C165 1.325 1_556 S
N167 C166 1.261 1_556 S
C168 H138 0.931 . S
C168 C165 1.357 . S
C168 C169 1.312 . S
C169 H140 0.930 . S
C169 C164 1.261 . S
C169 C168 1.312 . S
C170 O142 1.214 . S
C170 O150 1.234 . S
C171 H143 0.929 . S
C171 C174 1.391 . S
C171 C176 1.391 . S
C172 H144 0.929 . S
C172 C173 1.390 . S
C172 N175 1.391 . S
C173 H145 0.930 . S
C173 C172 1.390 . S
C173 C174 1.392 . S
C174 H146 0.929 . S
C174 C171 1.391 . S
C174 C173 1.392 . S
N175 Co119 2.257 . S
N175 C172 1.391 . S
N175 C176 1.388 . S
C176 H147 0.930 . S
C176 C171 1.391 . S
C176 N175 1.388 . S
Co177 O179 2.143 . S
Co177 O185 2.074 . S
Co177 O188 2.093 . S
Co177 O201 2.097 . S
Co177 N218 2.151 . S
Co177 N226 2.214 . S
Co178 O179 2.160 . S
Co178 O184 2.058 . S
Co178 O194 2.057 . S
Co178 O209 2.037 . S
Co178 N213 2.145 . S
Co178 N234 2.257 . S
O179 Co177 2.143 . S
O179 Co178 2.160 . S
C180 O181 1.278 . S
C180 O188 1.224 . S
O181 C180 1.278 . S
C182 O183 1.245 . S
C182 O194 1.232 . S
O183 C182 1.245 . S
O184 Co178 2.058 . S
O184 C210 1.269 . S
O185 Co177 2.074 . S
O185 C210 1.257 . S
H186 C211 0.930 . S
H187 C217 0.930 . S
O188 Co177 2.093 . S
O188 C180 1.224 . S
H189 C221 0.929 . S
H190 C223 0.930 . S
H191 C224 0.930 . S
H192 C222 0.929 . S
H193 C225 0.928 . S
O194 Co178 2.057 . S
O194 C182 1.232 . S
H195 C214 0.929 . S
H196 C215 0.929 . S
H197 C227 0.931 . S
H198 C219 0.929 . S
H199 C228 0.930 . S
H200 C220 0.931 . S
O201 Co177 2.097 . S
O201 C229 1.214 . S
H202 C230 0.929 . S
H203 C231 0.929 . S
H204 C232 0.930 . S
H205 C233 0.929 . S
H206 C235 0.930 . S
H207 C212 0.930 . S
H208 C216 0.930 . S
O209 Co178 2.037 . S
O209 C229 1.234 . S
C210 O184 1.269 . S
C210 O185 1.257 . S
C211 H186 0.930 . S
C211 C214 1.388 . S
C211 C216 1.418 . S
C212 H207 0.930 . S
C212 C215 1.404 . S
C212 C216 1.353 . S
N213 Co178 2.145 . S
N213 C214 1.397 . S
N213 C215 1.334 . S
C214 H195 0.929 . S
C214 C211 1.388 . S
C214 N213 1.397 . S
C215 H196 0.929 . S
C215 C212 1.404 . S
C215 N213 1.334 . S
C216 H208 0.930 . S
C216 C211 1.418 . S
C216 C212 1.353 . S
C217 H187 0.930 . S
C217 N218 1.330 . S
C217 C219 1.446 . S
N218 Co177 2.151 . S
N218 C217 1.330 . S
N218 C222 1.418 . S
C219 H198 0.929 . S
C219 C217 1.446 . S
C219 C220 1.332 . S
C220 H200 0.931 . S
C220 C219 1.332 . S
C220 C221 1.267 . S
C221 H189 0.929 . S
C221 C220 1.267 . S
C221 C222 1.251 . S
C222 H192 0.929 . S
C222 N218 1.418 . S
C222 C221 1.251 . S
C223 H190 0.930 . S
C223 C225 1.406 . S
C223 C228 1.261 . S
C224 H191 0.930 . S
C224 N226 1.325 . S
C224 C227 1.357 . S
C225 H193 0.928 . S
C225 C223 1.406 . S
C225 N226 1.261 . S
N226 Co177 2.214 . S
N226 C224 1.325 . S
N226 C225 1.261 . S
C227 H197 0.931 . S
C227 C224 1.357 . S
C227 C228 1.312 . S
C228 H199 0.930 . S
C228 C223 1.261 . S
C228 C227 1.312 . S
C229 O201 1.214 . S
C229 O209 1.234 . S
C230 H202 0.929 . S
C230 C233 1.391 . S
C230 C235 1.391 1_556 S
C231 H203 0.929 . S
C231 C232 1.390 1_554 S
C231 N234 1.391 . S
C232 H204 0.930 . S
C232 C231 1.390 1_556 S
C232 C233 1.392 . S
C233 H205 0.929 . S
C233 C230 1.391 . S
C233 C232 1.392 . S
N234 Co178 2.257 . S
N234 C231 1.391 . S
N234 C235 1.388 . S
C235 H206 0.930 . S
C235 C230 1.391 1_554 S
C235 N234 1.388 . S
Co236 O238 2.143 . S
Co236 O244 2.074 . S
Co236 O247 2.093 . S
Co236 O260 2.097 . S
Co236 N277 2.151 . S
Co236 N285 2.214 . S
Co237 O238 2.160 . S
Co237 O243 2.058 . S
Co237 O253 2.057 . S
Co237 O268 2.037 . S
Co237 N272 2.145 . S
Co237 N293 2.257 . S
O238 Co236 2.143 . S
O238 Co237 2.160 . S
C239 O240 1.278 . S
C239 O247 1.224 . S
O240 C239 1.278 . S
C241 O242 1.245 . S
C241 O253 1.232 . S
O242 C241 1.245 . S
O243 Co237 2.058 . S
O243 C269 1.269 . S
O244 Co236 2.074 . S
O244 C269 1.257 . S
H245 C270 0.930 . S
H246 C276 0.930 . S
O247 Co236 2.093 . S
O247 C239 1.224 . S
H248 C280 0.929 . S
H249 C282 0.930 . S
H250 C283 0.930 1_554 S
H251 C281 0.929 . S
H252 C284 0.928 . S
O253 Co237 2.057 . S
O253 C241 1.232 . S
H254 C273 0.929 . S
H255 C274 0.929 . S
H256 C286 0.931 . S
H257 C278 0.929 . S
H258 C287 0.930 . S
H259 C279 0.931 . S
O260 Co236 2.097 . S
O260 C288 1.214 . S
H261 C289 0.929 . S
H262 C290 0.929 . S
H263 C291 0.930 . S
H264 C292 0.929 . S
H265 C294 0.930 . S
H266 C271 0.930 . S
H267 C275 0.930 . S
O268 Co237 2.037 . S
O268 C288 1.234 . S
C269 O243 1.269 . S
C269 O244 1.257 . S
C270 H245 0.930 . S
C270 C273 1.388 . S
C270 C275 1.418 . S
C271 H266 0.930 . S
C271 C274 1.404 . S
C271 C275 1.353 . S
N272 Co237 2.145 . S
N272 C273 1.397 . S
N272 C274 1.334 . S
C273 H254 0.929 . S
C273 C270 1.388 . S
C273 N272 1.397 . S
C274 H255 0.929 . S
C274 C271 1.404 . S
C274 N272 1.334 . S
C275 H267 0.930 . S
C275 C270 1.418 . S
C275 C271 1.353 . S
C276 H246 0.930 . S
C276 N277 1.330 . S
C276 C278 1.446 . S
N277 Co236 2.151 . S
N277 C276 1.330 . S
N277 C281 1.418 1_554 S
C278 H257 0.929 . S
C278 C276 1.446 . S
C278 C279 1.332 1_554 S
C279 H259 0.931 . S
C279 C278 1.332 1_556 S
C279 C280 1.267 . S
C280 H248 0.929 . S
C280 C279 1.267 . S
C280 C281 1.251 . S
C281 H251 0.929 . S
C281 N277 1.418 1_556 S
C281 C280 1.251 . S
C282 H249 0.930 . S
C282 C284 1.406 . S
C282 C287 1.261 . S
C283 H250 0.930 1_556 S
C283 N285 1.325 1_556 S
C283 C286 1.357 . S
C284 H252 0.928 . S
C284 C282 1.406 . S
C284 N285 1.261 1_556 S
N285 Co236 2.214 . S
N285 C283 1.325 1_554 S
N285 C284 1.261 1_554 S
C286 H256 0.931 . S
C286 C283 1.357 . S
C286 C287 1.312 . S
C287 H258 0.930 . S
C287 C282 1.261 . S
C287 C286 1.312 . S
C288 O260 1.214 . S
C288 O268 1.234 . S
C289 H261 0.929 . S
C289 C292 1.391 . S
C289 C294 1.391 . S
C290 H262 0.929 . S
C290 C291 1.390 . S
C290 N293 1.391 . S
C291 H263 0.930 . S
C291 C290 1.390 . S
C291 C292 1.392 . S
C292 H264 0.929 . S
C292 C289 1.391 . S
C292 C291 1.392 . S
N293 Co237 2.257 . S
N293 C290 1.391 . S
N293 C294 1.388 . S
C294 H265 0.930 . S
C294 C289 1.391 . S
C294 N293 1.388 . S
Co295 O297 2.143 . S
Co295 O303 2.074 . S
Co295 O306 2.093 . S
Co295 O319 2.097 . S
Co295 N336 2.151 . S
Co295 N344 2.214 . S
Co296 O297 2.160 . S
Co296 O302 2.058 . S
Co296 O312 2.057 . S
Co296 O327 2.037 . S
Co296 N331 2.145 . S
Co296 N352 2.257 . S
O297 Co295 2.143 . S
O297 Co296 2.160 . S
C298 O299 1.278 . S
C298 O306 1.224 . S
O299 C298 1.278 . S
C300 O301 1.245 . S
C300 O312 1.232 . S
O301 C300 1.245 . S
O302 Co296 2.058 . S
O302 C328 1.269 . S
O303 Co295 2.074 . S
O303 C328 1.257 . S
H304 C329 0.930 . S
H305 C335 0.930 . S
O306 Co295 2.093 . S
O306 C298 1.224 . S
H307 C339 0.929 . S
H308 C341 0.930 . S
H309 C342 0.930 . S
H310 C340 0.929 . S
H311 C343 0.928 . S
O312 Co296 2.057 . S
O312 C300 1.232 . S
H313 C332 0.929 . S
H314 C333 0.929 . S
H315 C345 0.931 . S
H316 C337 0.929 . S
H317 C346 0.930 . S
H318 C338 0.931 . S
O319 Co295 2.097 . S
O319 C347 1.214 . S
H320 C348 0.929 . S
H321 C349 0.929 . S
H322 C350 0.930 . S
H323 C351 0.929 . S
H324 C353 0.930 . S
H325 C330 0.930 . S
H326 C334 0.930 . S
O327 Co296 2.037 . S
O327 C347 1.234 . S
C328 O302 1.269 . S
C328 O303 1.257 . S
C329 H304 0.930 . S
C329 C332 1.388 . S
C329 C334 1.418 . S
C330 H325 0.930 . S
C330 C333 1.404 . S
C330 C334 1.353 . S
N331 Co296 2.145 . S
N331 C332 1.397 . S
N331 C333 1.334 . S
C332 H313 0.929 . S
C332 C329 1.388 . S
C332 N331 1.397 . S
C333 H314 0.929 . S
C333 C330 1.404 . S
C333 N331 1.334 . S
C334 H326 0.930 . S
C334 C329 1.418 . S
C334 C330 1.353 . S
C335 H305 0.930 . S
C335 N336 1.330 . S
C335 C337 1.446 . S
N336 Co295 2.151 . S
N336 C335 1.330 . S
N336 C340 1.418 . S
C337 H316 0.929 . S
C337 C335 1.446 . S
C337 C338 1.332 . S
C338 H318 0.931 . S
C338 C337 1.332 . S
C338 C339 1.267 . S
C339 H307 0.929 . S
C339 C338 1.267 . S
C339 C340 1.251 . S
C340 H310 0.929 . S
C340 N336 1.418 . S
C340 C339 1.251 . S
C341 H308 0.930 . S
C341 C343 1.406 . S
C341 C346 1.261 . S
C342 H309 0.930 . S
C342 N344 1.325 . S
C342 C345 1.357 . S
C343 H311 0.928 . S
C343 C341 1.406 . S
C343 N344 1.261 . S
N344 Co295 2.214 . S
N344 C342 1.325 . S
N344 C343 1.261 . S
C345 H315 0.931 . S
C345 C342 1.357 . S
C345 C346 1.312 . S
C346 H317 0.930 . S
C346 C341 1.261 . S
C346 C345 1.312 . S
C347 O319 1.214 . S
C347 O327 1.234 . S
C348 H320 0.929 . S
C348 C351 1.391 . S
C348 C353 1.391 . S
C349 H321 0.929 . S
C349 C350 1.390 . S
C349 N352 1.391 . S
C350 H322 0.930 . S
C350 C349 1.390 . S
C350 C351 1.392 . S
C351 H323 0.929 . S
C351 C348 1.391 . S
C351 C350 1.392 . S
N352 Co296 2.257 . S
N352 C349 1.391 . S
N352 C353 1.388 . S
C353 H324 0.930 . S
C353 C348 1.391 . S
C353 N352 1.388 . S
Co354 O356 2.143 . S
Co354 O362 2.074 . S
Co354 O365 2.093 . S
Co354 O378 2.097 . S
Co354 N395 2.151 . S
Co354 N403 2.214 . S
Co355 O356 2.160 . S
Co355 O361 2.058 . S
Co355 O371 2.057 . S
Co355 O386 2.037 . S
Co355 N390 2.145 . S
Co355 N411 2.257 . S
O356 Co354 2.143 . S
O356 Co355 2.160 . S
C357 O358 1.278 . S
C357 O365 1.224 . S
O358 C357 1.278 . S
C359 O360 1.245 . S
C359 O371 1.232 . S
O360 C359 1.245 . S
O361 Co355 2.058 . S
O361 C387 1.269 . S
O362 Co354 2.074 . S
O362 C387 1.257 . S
H363 C388 0.930 . S
H364 C394 0.930 . S
O365 Co354 2.093 . S
O365 C357 1.224 . S
H366 C398 0.929 . S
H367 C400 0.930 . S
H368 C401 0.930 . S
H369 C399 0.929 . S
H370 C402 0.928 . S
O371 Co355 2.057 . S
O371 C359 1.232 . S
H372 C391 0.929 . S
H373 C392 0.929 . S
H374 C404 0.931 . S
H375 C396 0.929 . S
H376 C405 0.930 . S
H377 C397 0.931 . S
O378 Co354 2.097 . S
O378 C406 1.214 . S
H379 C407 0.929 . S
H380 C408 0.929 . S
H381 C409 0.930 . S
H382 C410 0.929 . S
H383 C412 0.930 . S
H384 C389 0.930 . S
H385 C393 0.930 . S
O386 Co355 2.037 . S
O386 C406 1.234 . S
C387 O361 1.269 . S
C387 O362 1.257 . S
C388 H363 0.930 . S
C388 C391 1.388 . S
C388 C393 1.418 . S
C389 H384 0.930 . S
C389 C392 1.404 . S
C389 C393 1.353 . S
N390 Co355 2.145 . S
N390 C391 1.397 . S
N390 C392 1.334 . S
C391 H372 0.929 . S
C391 C388 1.388 . S
C391 N390 1.397 . S
C392 H373 0.929 . S
C392 C389 1.404 . S
C392 N390 1.334 . S
C393 H385 0.930 . S
C393 C388 1.418 . S
C393 C389 1.353 . S
C394 H364 0.930 . S
C394 N395 1.330 . S
C394 C396 1.446 . S
N395 Co354 2.151 . S
N395 C394 1.330 . S
N395 C399 1.418 . S
C396 H375 0.929 . S
C396 C394 1.446 . S
C396 C397 1.332 . S
C397 H377 0.931 . S
C397 C396 1.332 . S
C397 C398 1.267 . S
C398 H366 0.929 . S
C398 C397 1.267 . S
C398 C399 1.251 . S
C399 H369 0.929 . S
C399 N395 1.418 . S
C399 C398 1.251 . S
C400 H367 0.930 . S
C400 C402 1.406 . S
C400 C405 1.261 . S
C401 H368 0.930 . S
C401 N403 1.325 . S
C401 C404 1.357 . S
C402 H370 0.928 . S
C402 C400 1.406 . S
C402 N403 1.261 . S
N403 Co354 2.214 . S
N403 C401 1.325 . S
N403 C402 1.261 . S
C404 H374 0.931 . S
C404 C401 1.357 . S
C404 C405 1.312 . S
C405 H376 0.930 . S
C405 C400 1.261 . S
C405 C404 1.312 . S
C406 O378 1.214 . S
C406 O386 1.234 . S
C407 H379 0.929 . S
C407 C410 1.391 . S
C407 C412 1.391 . S
C408 H380 0.929 . S
C408 C409 1.390 . S
C408 N411 1.391 . S
C409 H381 0.930 . S
C409 C408 1.390 . S
C409 C410 1.392 . S
C410 H382 0.929 . S
C410 C407 1.391 . S
C410 C409 1.392 . S
N411 Co355 2.257 . S
N411 C408 1.391 . S
N411 C412 1.388 . S
C412 H383 0.930 . S
C412 C407 1.391 . S
C412 N411 1.388 . S
Co413 O415 2.143 . S
Co413 O421 2.074 . S
Co413 O424 2.093 . S
Co413 O437 2.097 . S
Co413 N454 2.151 . S
Co413 N462 2.214 . S
Co414 O415 2.160 . S
Co414 O420 2.058 . S
Co414 O430 2.057 . S
Co414 O445 2.037 . S
Co414 N449 2.145 . S
Co414 N470 2.257 . S
O415 Co413 2.143 . S
O415 Co414 2.160 . S
C416 O417 1.278 . S
C416 O424 1.224 . S
O417 C416 1.278 . S
C418 O419 1.245 . S
C418 O430 1.232 . S
O419 C418 1.245 . S
O420 Co414 2.058 . S
O420 C446 1.269 . S
O421 Co413 2.074 . S
O421 C446 1.257 . S
H422 C447 0.930 . S
H423 C453 0.930 . S
O424 Co413 2.093 . S
O424 C416 1.224 . S
H425 C457 0.929 . S
H426 C459 0.930 . S
H427 C460 0.930 . S
H428 C458 0.929 . S
H429 C461 0.928 . S
O430 Co414 2.057 . S
O430 C418 1.232 . S
H431 C450 0.929 . S
H432 C451 0.929 . S
H433 C463 0.931 . S
H434 C455 0.929 . S
H435 C464 0.930 . S
H436 C456 0.931 . S
O437 Co413 2.097 . S
O437 C465 1.214 . S
H438 C466 0.929 . S
H439 C467 0.929 . S
H440 C468 0.930 . S
H441 C469 0.929 . S
H442 C471 0.930 . S
H443 C448 0.930 . S
H444 C452 0.930 . S
O445 Co414 2.037 . S
O445 C465 1.234 . S
C446 O420 1.269 . S
C446 O421 1.257 . S
C447 H422 0.930 . S
C447 C450 1.388 . S
C447 C452 1.418 . S
C448 H443 0.930 . S
C448 C451 1.404 . S
C448 C452 1.353 . S
N449 Co414 2.145 . S
N449 C450 1.397 . S
N449 C451 1.334 . S
C450 H431 0.929 . S
C450 C447 1.388 . S
C450 N449 1.397 . S
C451 H432 0.929 . S
C451 C448 1.404 . S
C451 N449 1.334 . S
C452 H444 0.930 . S
C452 C447 1.418 . S
C452 C448 1.353 . S
C453 H423 0.930 . S
C453 N454 1.330 . S
C453 C455 1.446 . S
N454 Co413 2.151 . S
N454 C453 1.330 . S
N454 C458 1.418 . S
C455 H434 0.929 . S
C455 C453 1.446 . S
C455 C456 1.332 . S
C456 H436 0.931 . S
C456 C455 1.332 . S
C456 C457 1.267 . S
C457 H425 0.929 . S
C457 C456 1.267 . S
C457 C458 1.251 . S
C458 H428 0.929 . S
C458 N454 1.418 . S
C458 C457 1.251 . S
C459 H426 0.930 . S
C459 C461 1.406 . S
C459 C464 1.261 . S
C460 H427 0.930 . S
C460 N462 1.325 . S
C460 C463 1.357 . S
C461 H429 0.928 . S
C461 C459 1.406 . S
C461 N462 1.261 . S
N462 Co413 2.214 . S
N462 C460 1.325 . S
N462 C461 1.261 . S
C463 H433 0.931 . S
C463 C460 1.357 . S
C463 C464 1.312 . S
C464 H435 0.930 . S
C464 C459 1.261 . S
C464 C463 1.312 . S
C465 O437 1.214 . S
C465 O445 1.234 . S
C466 H438 0.929 . S
C466 C469 1.391 . S
C466 C471 1.391 1_554 S
C467 H439 0.929 . S
C467 C468 1.390 1_556 S
C467 N470 1.391 . S
C468 H440 0.930 . S
C468 C467 1.390 1_554 S
C468 C469 1.392 . S
C469 H441 0.929 . S
C469 C466 1.391 . S
C469 C468 1.392 . S
N470 Co414 2.257 . S
N470 C467 1.391 . S
N470 C471 1.388 . S
C471 H442 0.930 . S
C471 C466 1.391 1_556 S
C471 N470 1.388 . S
Co472 O474 2.143 . S
Co472 O480 2.074 . S
Co472 O483 2.093 . S
Co472 O496 2.097 . S
Co472 N513 2.151 . S
Co472 N521 2.214 . S
Co473 O474 2.160 . S
Co473 O479 2.058 . S
Co473 O489 2.057 . S
Co473 O504 2.037 . S
Co473 N508 2.145 . S
Co473 N529 2.257 . S
O474 Co472 2.143 . S
O474 Co473 2.160 . S
C475 O476 1.278 . S
C475 O483 1.224 . S
O476 C475 1.278 . S
C477 O478 1.245 . S
C477 O489 1.232 . S
O478 C477 1.245 . S
O479 Co473 2.058 . S
O479 C505 1.269 . S
O480 Co472 2.074 . S
O480 C505 1.257 . S
H481 C506 0.930 . S
H482 C512 0.930 . S
O483 Co472 2.093 . S
O483 C475 1.224 . S
H484 C516 0.929 . S
H485 C518 0.930 . S
H486 C519 0.930 . S
H487 C517 0.929 . S
H488 C520 0.928 . S
O489 Co473 2.057 . S
O489 C477 1.232 . S
H490 C509 0.929 . S
H491 C510 0.929 . S
H492 C522 0.931 . S
H493 C514 0.929 . S
H494 C523 0.930 . S
H495 C515 0.931 . S
O496 Co472 2.097 . S
O496 C524 1.214 . S
H497 C525 0.929 . S
H498 C526 0.929 . S
H499 C527 0.930 . S
H500 C528 0.929 . S
H501 C530 0.930 . S
H502 C507 0.930 . S
H503 C511 0.930 . S
O504 Co473 2.037 . S
O504 C524 1.234 . S
C505 O479 1.269 . S
C505 O480 1.257 . S
C506 H481 0.930 . S
C506 C509 1.388 . S
C506 C511 1.418 . S
C507 H502 0.930 . S
C507 C510 1.404 . S
C507 C511 1.353 . S
N508 Co473 2.145 . S
N508 C509 1.397 . S
N508 C510 1.334 . S
C509 H490 0.929 . S
C509 C506 1.388 . S
C509 N508 1.397 . S
C510 H491 0.929 . S
C510 C507 1.404 . S
C510 N508 1.334 . S
C511 H503 0.930 . S
C511 C506 1.418 . S
C511 C507 1.353 . S
C512 H482 0.930 . S
C512 N513 1.330 . S
C512 C514 1.446 . S
N513 Co472 2.151 . S
N513 C512 1.330 . S
N513 C517 1.418 . S
C514 H493 0.929 . S
C514 C512 1.446 . S
C514 C515 1.332 . S
C515 H495 0.931 . S
C515 C514 1.332 . S
C515 C516 1.267 . S
C516 H484 0.929 . S
C516 C515 1.267 . S
C516 C517 1.251 . S
C517 H487 0.929 . S
C517 N513 1.418 . S
C517 C516 1.251 . S
C518 H485 0.930 . S
C518 C520 1.406 . S
C518 C523 1.261 . S
C519 H486 0.930 . S
C519 N521 1.325 . S
C519 C522 1.357 . S
C520 H488 0.928 . S
C520 C518 1.406 . S
C520 N521 1.261 . S
N521 Co472 2.214 . S
N521 C519 1.325 . S
N521 C520 1.261 . S
C522 H492 0.931 . S
C522 C519 1.357 . S
C522 C523 1.312 . S
C523 H494 0.930 . S
C523 C518 1.261 . S
C523 C522 1.312 . S
C524 O496 1.214 . S
C524 O504 1.234 . S
C525 H497 0.929 . S
C525 C528 1.391 . S
C525 C530 1.391 . S
C526 H498 0.929 . S
C526 C527 1.390 . S
C526 N529 1.391 . S
C527 H499 0.930 . S
C527 C526 1.390 . S
C527 C528 1.392 . S
C528 H500 0.929 . S
C528 C525 1.391 . S
C528 C527 1.392 . S
N529 Co473 2.257 . S
N529 C526 1.391 . S
N529 C530 1.388 . S
C530 H501 0.930 . S
C530 C525 1.391 . S
C530 N529 1.388 . S
Co531 O533 2.143 . S
Co531 O539 2.074 . S
Co531 O542 2.093 . S
Co531 O555 2.097 . S
Co531 N572 2.151 . S
Co531 N580 2.214 . S
Co532 O533 2.160 . S
Co532 O538 2.058 . S
Co532 O548 2.057 . S
Co532 O563 2.037 . S
Co532 N567 2.145 . S
Co532 N588 2.257 . S
O533 Co531 2.143 . S
O533 Co532 2.160 . S
C534 O535 1.278 . S
C534 O542 1.224 . S
O535 C534 1.278 . S
C536 O537 1.245 . S
C536 O548 1.232 . S
O537 C536 1.245 . S
O538 Co532 2.058 . S
O538 C564 1.269 . S
O539 Co531 2.074 . S
O539 C564 1.257 . S
H540 C565 0.930 . S
H541 C571 0.930 . S
O542 Co531 2.093 . S
O542 C534 1.224 . S
H543 C575 0.929 . S
H544 C577 0.930 . S
H545 C578 0.930 . S
H546 C576 0.929 . S
H547 C579 0.928 . S
O548 Co532 2.057 . S
O548 C536 1.232 . S
H549 C568 0.929 . S
H550 C569 0.929 . S
H551 C581 0.931 . S
H552 C573 0.929 . S
H553 C582 0.930 . S
H554 C574 0.931 . S
O555 Co531 2.097 . S
O555 C583 1.214 . S
H556 C584 0.929 . S
H557 C585 0.929 . S
H558 C586 0.930 . S
H559 C587 0.929 . S
H560 C589 0.930 . S
H561 C566 0.930 . S
H562 C570 0.930 . S
O563 Co532 2.037 . S
O563 C583 1.234 . S
C564 O538 1.269 . S
C564 O539 1.257 . S
C565 H540 0.930 . S
C565 C568 1.388 . S
C565 C570 1.418 . S
C566 H561 0.930 . S
C566 C569 1.404 . S
C566 C570 1.353 . S
N567 Co532 2.145 . S
N567 C568 1.397 . S
N567 C569 1.334 . S
C568 H549 0.929 . S
C568 C565 1.388 . S
C568 N567 1.397 . S
C569 H550 0.929 . S
C569 C566 1.404 . S
C569 N567 1.334 . S
C570 H562 0.930 . S
C570 C565 1.418 . S
C570 C566 1.353 . S
C571 H541 0.930 . S
C571 N572 1.330 . S
C571 C573 1.446 . S
N572 Co531 2.151 . S
N572 C571 1.330 . S
N572 C576 1.418 . S
C573 H552 0.929 . S
C573 C571 1.446 . S
C573 C574 1.332 . S
C574 H554 0.931 . S
C574 C573 1.332 . S
C574 C575 1.267 . S
C575 H543 0.929 . S
C575 C574 1.267 . S
C575 C576 1.251 . S
C576 H546 0.929 . S
C576 N572 1.418 . S
C576 C575 1.251 . S
C577 H544 0.930 . S
C577 C579 1.406 . S
C577 C582 1.261 . S
C578 H545 0.930 . S
C578 N580 1.325 . S
C578 C581 1.357 . S
C579 H547 0.928 . S
C579 C577 1.406 . S
C579 N580 1.261 . S
N580 Co531 2.214 . S
N580 C578 1.325 . S
N580 C579 1.261 . S
C581 H551 0.931 . S
C581 C578 1.357 . S
C581 C582 1.312 . S
C582 H553 0.930 . S
C582 C577 1.261 . S
C582 C581 1.312 . S
C583 O555 1.214 . S
C583 O563 1.234 . S
C584 H556 0.929 . S
C584 C587 1.391 . S
C584 C589 1.391 . S
C585 H557 0.929 . S
C585 C586 1.390 . S
C585 N588 1.391 . S
C586 H558 0.930 . S
C586 C585 1.390 . S
C586 C587 1.392 . S
C587 H559 0.929 . S
C587 C584 1.391 . S
C587 C586 1.392 . S
N588 Co532 2.257 . S
N588 C585 1.391 . S
N588 C589 1.388 . S
C589 H560 0.930 . S
C589 C584 1.391 . S
C589 N588 1.388 . S
Co590 O592 2.143 . S
Co590 O598 2.074 . S
Co590 O601 2.093 . S
Co590 O614 2.097 . S
Co590 N631 2.151 . S
Co590 N639 2.214 . S
Co591 O592 2.160 . S
Co591 O597 2.058 . S
Co591 O607 2.057 . S
Co591 O622 2.037 . S
Co591 N626 2.145 . S
Co591 N647 2.257 . S
O592 Co590 2.143 . S
O592 Co591 2.160 . S
C593 O594 1.278 . S
C593 O601 1.224 . S
O594 C593 1.278 . S
C595 O596 1.245 . S
C595 O607 1.232 . S
O596 C595 1.245 . S
O597 Co591 2.058 . S
O597 C623 1.269 . S
O598 Co590 2.074 . S
O598 C623 1.257 . S
H599 C624 0.930 . S
H600 C630 0.930 . S
O601 Co590 2.093 . S
O601 C593 1.224 . S
H602 C634 0.929 . S
H603 C636 0.930 . S
H604 C637 0.930 1_554 S
H605 C635 0.929 . S
H606 C638 0.928 . S
O607 Co591 2.057 . S
O607 C595 1.232 . S
H608 C627 0.929 . S
H609 C628 0.929 . S
H610 C640 0.931 . S
H611 C632 0.929 . S
H612 C641 0.930 . S
H613 C633 0.931 . S
O614 Co590 2.097 . S
O614 C642 1.214 . S
H615 C643 0.929 . S
H616 C644 0.929 . S
H617 C645 0.930 . S
H618 C646 0.929 . S
H619 C648 0.930 . S
H620 C625 0.930 . S
H621 C629 0.930 . S
O622 Co591 2.037 . S
O622 C642 1.234 . S
C623 O597 1.269 . S
C623 O598 1.257 . S
C624 H599 0.930 . S
C624 C627 1.388 . S
C624 C629 1.418 . S
C625 H620 0.930 . S
C625 C628 1.404 . S
C625 C629 1.353 . S
N626 Co591 2.145 . S
N626 C627 1.397 . S
N626 C628 1.334 . S
C627 H608 0.929 . S
C627 C624 1.388 . S
C627 N626 1.397 . S
C628 H609 0.929 . S
C628 C625 1.404 . S
C628 N626 1.334 . S
C629 H621 0.930 . S
C629 C624 1.418 . S
C629 C625 1.353 . S
C630 H600 0.930 . S
C630 N631 1.330 . S
C630 C632 1.446 . S
N631 Co590 2.151 . S
N631 C630 1.330 . S
N631 C635 1.418 1_554 S
C632 H611 0.929 . S
C632 C630 1.446 . S
C632 C633 1.332 1_554 S
C633 H613 0.931 . S
C633 C632 1.332 1_556 S
C633 C634 1.267 . S
C634 H602 0.929 . S
C634 C633 1.267 . S
C634 C635 1.251 . S
C635 H605 0.929 . S
C635 N631 1.418 1_556 S
C635 C634 1.251 . S
C636 H603 0.930 . S
C636 C638 1.406 . S
C636 C641 1.261 . S
C637 H604 0.930 1_556 S
C637 N639 1.325 1_556 S
C637 C640 1.357 . S
C638 H606 0.928 . S
C638 C636 1.406 . S
C638 N639 1.261 1_556 S
N639 Co590 2.214 . S
N639 C637 1.325 1_554 S
N639 C638 1.261 1_554 S
C640 H610 0.931 . S
C640 C637 1.357 . S
C640 C641 1.312 . S
C641 H612 0.930 . S
C641 C636 1.261 . S
C641 C640 1.312 . S
C642 O614 1.214 . S
C642 O622 1.234 . S
C643 H615 0.929 . S
C643 C646 1.391 . S
C643 C648 1.391 . S
C644 H616 0.929 . S
C644 C645 1.390 . S
C644 N647 1.391 . S
C645 H617 0.930 . S
C645 C644 1.390 . S
C645 C646 1.392 . S
C646 H618 0.929 . S
C646 C643 1.391 . S
C646 C645 1.392 . S
N647 Co591 2.257 . S
N647 C644 1.391 . S
N647 C648 1.388 . S
C648 H619 0.930 . S
C648 C643 1.391 . S
C648 N647 1.388 . S
Co649 O651 2.143 . S
Co649 O657 2.074 . S
Co649 O660 2.093 . S
Co649 O673 2.097 . S
Co649 N690 2.151 . S
Co649 N698 2.214 . S
Co650 O651 2.160 . S
Co650 O656 2.058 . S
Co650 O666 2.057 . S
Co650 O681 2.037 . S
Co650 N685 2.145 . S
Co650 N706 2.257 . S
O651 Co649 2.143 . S
O651 Co650 2.160 . S
C652 O653 1.278 . S
C652 O660 1.224 . S
O653 C652 1.278 . S
C654 O655 1.245 . S
C654 O666 1.232 . S
O655 C654 1.245 . S
O656 Co650 2.058 . S
O656 C682 1.269 . S
O657 Co649 2.074 . S
O657 C682 1.257 . S
H658 C683 0.930 . S
H659 C689 0.930 . S
O660 Co649 2.093 . S
O660 C652 1.224 . S
H661 C693 0.929 . S
H662 C695 0.930 . S
H663 C696 0.930 . S
H664 C694 0.929 . S
H665 C697 0.928 . S
O666 Co650 2.057 . S
O666 C654 1.232 . S
H667 C686 0.929 . S
H668 C687 0.929 . S
H669 C699 0.931 . S
H670 C691 0.929 . S
H671 C700 0.930 . S
H672 C692 0.931 . S
O673 Co649 2.097 . S
O673 C701 1.214 . S
H674 C702 0.929 . S
H675 C703 0.929 . S
H676 C704 0.930 . S
H677 C705 0.929 . S
H678 C707 0.930 . S
H679 C684 0.930 . S
H680 C688 0.930 . S
O681 Co650 2.037 . S
O681 C701 1.234 . S
C682 O656 1.269 . S
C682 O657 1.257 . S
C683 H658 0.930 . S
C683 C686 1.388 . S
C683 C688 1.418 . S
C684 H679 0.930 . S
C684 C687 1.404 . S
C684 C688 1.353 . S
N685 Co650 2.145 . S
N685 C686 1.397 . S
N685 C687 1.334 . S
C686 H667 0.929 . S
C686 C683 1.388 . S
C686 N685 1.397 . S
C687 H668 0.929 . S
C687 C684 1.404 . S
C687 N685 1.334 . S
C688 H680 0.930 . S
C688 C683 1.418 . S
C688 C684 1.353 . S
C689 H659 0.930 . S
C689 N690 1.330 . S
C689 C691 1.446 . S
N690 Co649 2.151 . S
N690 C689 1.330 . S
N690 C694 1.418 . S
C691 H670 0.929 . S
C691 C689 1.446 . S
C691 C692 1.332 . S
C692 H672 0.931 . S
C692 C691 1.332 . S
C692 C693 1.267 . S
C693 H661 0.929 . S
C693 C692 1.267 . S
C693 C694 1.251 . S
C694 H664 0.929 . S
C694 N690 1.418 . S
C694 C693 1.251 . S
C695 H662 0.930 . S
C695 C697 1.406 . S
C695 C700 1.261 . S
C696 H663 0.930 . S
C696 N698 1.325 . S
C696 C699 1.357 . S
C697 H665 0.928 . S
C697 C695 1.406 . S
C697 N698 1.261 . S
N698 Co649 2.214 . S
N698 C696 1.325 . S
N698 C697 1.261 . S
C699 H669 0.931 . S
C699 C696 1.357 . S
C699 C700 1.312 . S
C700 H671 0.930 . S
C700 C695 1.261 . S
C700 C699 1.312 . S
C701 O673 1.214 . S
C701 O681 1.234 . S
C702 H674 0.929 . S
C702 C705 1.391 . S
C702 C707 1.391 1_554 S
C703 H675 0.929 . S
C703 C704 1.390 1_556 S
C703 N706 1.391 . S
C704 H676 0.930 . S
C704 C703 1.390 1_554 S
C704 C705 1.392 . S
C705 H677 0.929 . S
C705 C702 1.391 . S
C705 C704 1.392 . S
N706 Co650 2.257 . S
N706 C703 1.391 . S
N706 C707 1.388 . S
C707 H678 0.930 . S
C707 C702 1.391 1_556 S
C707 N706 1.388 . S
Co708 O710 2.143 . S
Co708 O716 2.074 . S
Co708 O719 2.093 . S
Co708 O732 2.097 . S
Co708 N749 2.151 . S
Co708 N757 2.214 . S
Co709 O710 2.160 . S
Co709 O715 2.058 . S
Co709 O725 2.057 . S
Co709 O740 2.037 . S
Co709 N744 2.145 . S
Co709 N765 2.257 . S
O710 Co708 2.143 . S
O710 Co709 2.160 . S
C711 O712 1.278 . S
C711 O719 1.224 . S
O712 C711 1.278 . S
C713 O714 1.245 . S
C713 O725 1.232 . S
O714 C713 1.245 . S
O715 Co709 2.058 . S
O715 C741 1.269 . S
O716 Co708 2.074 . S
O716 C741 1.257 . S
H717 C742 0.930 . S
H718 C748 0.930 . S
O719 Co708 2.093 . S
O719 C711 1.224 . S
H720 C752 0.929 . S
H721 C754 0.930 . S
H722 C755 0.930 1_556 S
H723 C753 0.929 . S
H724 C756 0.928 . S
O725 Co709 2.057 . S
O725 C713 1.232 . S
H726 C745 0.929 . S
H727 C746 0.929 . S
H728 C758 0.931 . S
H729 C750 0.929 . S
H730 C759 0.930 . S
H731 C751 0.931 . S
O732 Co708 2.097 . S
O732 C760 1.214 . S
H733 C761 0.929 . S
H734 C762 0.929 . S
H735 C763 0.930 . S
H736 C764 0.929 . S
H737 C766 0.930 . S
H738 C743 0.930 . S
H739 C747 0.930 . S
O740 Co709 2.037 . S
O740 C760 1.234 . S
C741 O715 1.269 . S
C741 O716 1.257 . S
C742 H717 0.930 . S
C742 C745 1.388 . S
C742 C747 1.418 . S
C743 H738 0.930 . S
C743 C746 1.404 . S
C743 C747 1.353 . S
N744 Co709 2.145 . S
N744 C745 1.397 . S
N744 C746 1.334 . S
C745 H726 0.929 . S
C745 C742 1.388 . S
C745 N744 1.397 . S
C746 H727 0.929 . S
C746 C743 1.404 . S
C746 N744 1.334 . S
C747 H739 0.930 . S
C747 C742 1.418 . S
C747 C743 1.353 . S
C748 H718 0.930 . S
C748 N749 1.330 . S
C748 C750 1.446 . S
N749 Co708 2.151 . S
N749 C748 1.330 . S
N749 C753 1.418 1_556 S
C750 H729 0.929 . S
C750 C748 1.446 . S
C750 C751 1.332 1_556 S
C751 H731 0.931 . S
C751 C750 1.332 1_554 S
C751 C752 1.267 . S
C752 H720 0.929 . S
C752 C751 1.267 . S
C752 C753 1.251 . S
C753 H723 0.929 . S
C753 N749 1.418 1_554 S
C753 C752 1.251 . S
C754 H721 0.930 . S
C754 C756 1.406 . S
C754 C759 1.261 . S
C755 H722 0.930 1_554 S
C755 N757 1.325 1_554 S
C755 C758 1.357 . S
C756 H724 0.928 . S
C756 C754 1.406 . S
C756 N757 1.261 1_554 S
N757 Co708 2.214 . S
N757 C755 1.325 1_556 S
N757 C756 1.261 1_556 S
C758 H728 0.931 . S
C758 C755 1.357 . S
C758 C759 1.312 . S
C759 H730 0.930 . S
C759 C754 1.261 . S
C759 C758 1.312 . S
C760 O732 1.214 . S
C760 O740 1.234 . S
C761 H733 0.929 . S
C761 C764 1.391 . S
C761 C766 1.391 . S
C762 H734 0.929 . S
C762 C763 1.390 . S
C762 N765 1.391 . S
C763 H735 0.930 . S
C763 C762 1.390 . S
C763 C764 1.392 . S
C764 H736 0.929 . S
C764 C761 1.391 . S
C764 C763 1.392 . S
N765 Co709 2.257 . S
N765 C762 1.391 . S
N765 C766 1.388 . S
C766 H737 0.930 . S
C766 C761 1.391 . S
C766 N765 1.388 . S
Co767 O769 2.143 . S
Co767 O775 2.074 . S
Co767 O778 2.093 . S
Co767 O791 2.097 . S
Co767 N808 2.151 . S
Co767 N816 2.214 . S
Co768 O769 2.160 . S
Co768 O774 2.058 . S
Co768 O784 2.057 . S
Co768 O799 2.037 . S
Co768 N803 2.145 . S
Co768 N824 2.257 . S
O769 Co767 2.143 . S
O769 Co768 2.160 . S
C770 O771 1.278 . S
C770 O778 1.224 . S
O771 C770 1.278 . S
C772 O773 1.245 . S
C772 O784 1.232 . S
O773 C772 1.245 . S
O774 Co768 2.058 . S
O774 C800 1.269 . S
O775 Co767 2.074 . S
O775 C800 1.257 . S
H776 C801 0.930 . S
H777 C807 0.930 . S
O778 Co767 2.093 . S
O778 C770 1.224 . S
H779 C811 0.929 . S
H780 C813 0.930 . S
H781 C814 0.930 . S
H782 C812 0.929 . S
H783 C815 0.928 . S
O784 Co768 2.057 . S
O784 C772 1.232 . S
H785 C804 0.929 . S
H786 C805 0.929 . S
H787 C817 0.931 . S
H788 C809 0.929 . S
H789 C818 0.930 . S
H790 C810 0.931 . S
O791 Co767 2.097 . S
O791 C819 1.214 . S
H792 C820 0.929 . S
H793 C821 0.929 . S
H794 C822 0.930 . S
H795 C823 0.929 . S
H796 C825 0.930 . S
H797 C802 0.930 . S
H798 C806 0.930 . S
O799 Co768 2.037 . S
O799 C819 1.234 . S
C800 O774 1.269 . S
C800 O775 1.257 . S
C801 H776 0.930 . S
C801 C804 1.388 . S
C801 C806 1.418 . S
C802 H797 0.930 . S
C802 C805 1.404 . S
C802 C806 1.353 . S
N803 Co768 2.145 . S
N803 C804 1.397 . S
N803 C805 1.334 . S
C804 H785 0.929 . S
C804 C801 1.388 . S
C804 N803 1.397 . S
C805 H786 0.929 . S
C805 C802 1.404 . S
C805 N803 1.334 . S
C806 H798 0.930 . S
C806 C801 1.418 . S
C806 C802 1.353 . S
C807 H777 0.930 . S
C807 N808 1.330 . S
C807 C809 1.446 . S
N808 Co767 2.151 . S
N808 C807 1.330 . S
N808 C812 1.418 . S
C809 H788 0.929 . S
C809 C807 1.446 . S
C809 C810 1.332 . S
C810 H790 0.931 . S
C810 C809 1.332 . S
C810 C811 1.267 . S
C811 H779 0.929 . S
C811 C810 1.267 . S
C811 C812 1.251 . S
C812 H782 0.929 . S
C812 N808 1.418 . S
C812 C811 1.251 . S
C813 H780 0.930 . S
C813 C815 1.406 . S
C813 C818 1.261 . S
C814 H781 0.930 . S
C814 N816 1.325 . S
C814 C817 1.357 . S
C815 H783 0.928 . S
C815 C813 1.406 . S
C815 N816 1.261 . S
N816 Co767 2.214 . S
N816 C814 1.325 . S
N816 C815 1.261 . S
C817 H787 0.931 . S
C817 C814 1.357 . S
C817 C818 1.312 . S
C818 H789 0.930 . S
C818 C813 1.261 . S
C818 C817 1.312 . S
C819 O791 1.214 . S
C819 O799 1.234 . S
C820 H792 0.929 . S
C820 C823 1.391 . S
C820 C825 1.391 . S
C821 H793 0.929 . S
C821 C822 1.390 . S
C821 N824 1.391 . S
C822 H794 0.930 . S
C822 C821 1.390 . S
C822 C823 1.392 . S
C823 H795 0.929 . S
C823 C820 1.391 . S
C823 C822 1.392 . S
N824 Co768 2.257 . S
N824 C821 1.391 . S
N824 C825 1.388 . S
C825 H796 0.930 . S
C825 C820 1.391 . S
C825 N824 1.388 . S
Co826 O828 2.143 . S
Co826 O834 2.074 . S
Co826 O837 2.093 . S
Co826 O850 2.097 . S
Co826 N867 2.151 . S
Co826 N875 2.214 . S
Co827 O828 2.160 . S
Co827 O833 2.058 . S
Co827 O843 2.057 . S
Co827 O858 2.037 . S
Co827 N862 2.145 . S
Co827 N883 2.257 . S
O828 Co826 2.143 . S
O828 Co827 2.160 . S
C829 O830 1.278 . S
C829 O837 1.224 . S
O830 C829 1.278 . S
C831 O832 1.245 . S
C831 O843 1.232 . S
O832 C831 1.245 . S
O833 Co827 2.058 . S
O833 C859 1.269 . S
O834 Co826 2.074 . S
O834 C859 1.257 . S
H835 C860 0.930 . S
H836 C866 0.930 . S
O837 Co826 2.093 . S
O837 C829 1.224 . S
H838 C870 0.929 . S
H839 C872 0.930 . S
H840 C873 0.930 . S
H841 C871 0.929 . S
H842 C874 0.928 . S
O843 Co827 2.057 . S
O843 C831 1.232 . S
H844 C863 0.929 . S
H845 C864 0.929 . S
H846 C876 0.931 . S
H847 C868 0.929 . S
H848 C877 0.930 . S
H849 C869 0.931 . S
O850 Co826 2.097 . S
O850 C878 1.214 . S
H851 C879 0.929 . S
H852 C880 0.929 . S
H853 C881 0.930 . S
H854 C882 0.929 . S
H855 C884 0.930 . S
H856 C861 0.930 . S
H857 C865 0.930 . S
O858 Co827 2.037 . S
O858 C878 1.234 . S
C859 O833 1.269 . S
C859 O834 1.257 . S
C860 H835 0.930 . S
C860 C863 1.388 . S
C860 C865 1.418 . S
C861 H856 0.930 . S
C861 C864 1.404 . S
C861 C865 1.353 . S
N862 Co827 2.145 . S
N862 C863 1.397 . S
N862 C864 1.334 . S
C863 H844 0.929 . S
C863 C860 1.388 . S
C863 N862 1.397 . S
C864 H845 0.929 . S
C864 C861 1.404 . S
C864 N862 1.334 . S
C865 H857 0.930 . S
C865 C860 1.418 . S
C865 C861 1.353 . S
C866 H836 0.930 . S
C866 N867 1.330 . S
C866 C868 1.446 . S
N867 Co826 2.151 . S
N867 C866 1.330 . S
N867 C871 1.418 . S
C868 H847 0.929 . S
C868 C866 1.446 . S
C868 C869 1.332 . S
C869 H849 0.931 . S
C869 C868 1.332 . S
C869 C870 1.267 . S
C870 H838 0.929 . S
C870 C869 1.267 . S
C870 C871 1.251 . S
C871 H841 0.929 . S
C871 N867 1.418 . S
C871 C870 1.251 . S
C872 H839 0.930 . S
C872 C874 1.406 . S
C872 C877 1.261 . S
C873 H840 0.930 . S
C873 N875 1.325 . S
C873 C876 1.357 . S
C874 H842 0.928 . S
C874 C872 1.406 . S
C874 N875 1.261 . S
N875 Co826 2.214 . S
N875 C873 1.325 . S
N875 C874 1.261 . S
C876 H846 0.931 . S
C876 C873 1.357 . S
C876 C877 1.312 . S
C877 H848 0.930 . S
C877 C872 1.261 . S
C877 C876 1.312 . S
C878 O850 1.214 . S
C878 O858 1.234 . S
C879 H851 0.929 . S
C879 C882 1.391 . S
C879 C884 1.391 . S
C880 H852 0.929 . S
C880 C881 1.390 . S
C880 N883 1.391 . S
C881 H853 0.930 . S
C881 C880 1.390 . S
C881 C882 1.392 . S
C882 H854 0.929 . S
C882 C879 1.391 . S
C882 C881 1.392 . S
N883 Co827 2.257 . S
N883 C880 1.391 . S
N883 C884 1.388 . S
C884 H855 0.930 . S
C884 C879 1.391 . S
C884 N883 1.388 . S
Co885 O887 2.143 . S
Co885 O893 2.074 . S
Co885 O896 2.093 . S
Co885 O909 2.097 . S
Co885 N926 2.151 . S
Co885 N934 2.214 . S
Co886 O887 2.160 . S
Co886 O892 2.058 . S
Co886 O902 2.057 . S
Co886 O917 2.037 . S
Co886 N921 2.145 . S
Co886 N942 2.257 . S
O887 Co885 2.143 . S
O887 Co886 2.160 . S
C888 O889 1.278 . S
C888 O896 1.224 . S
O889 C888 1.278 . S
C890 O891 1.245 . S
C890 O902 1.232 . S
O891 C890 1.245 . S
O892 Co886 2.058 . S
O892 C918 1.269 . S
O893 Co885 2.074 . S
O893 C918 1.257 . S
H894 C919 0.930 . S
H895 C925 0.930 . S
O896 Co885 2.093 . S
O896 C888 1.224 . S
H897 C929 0.929 . S
H898 C931 0.930 . S
H899 C932 0.930 . S
H900 C930 0.929 . S
H901 C933 0.928 . S
O902 Co886 2.057 . S
O902 C890 1.232 . S
H903 C922 0.929 . S
H904 C923 0.929 . S
H905 C935 0.931 . S
H906 C927 0.929 . S
H907 C936 0.930 . S
H908 C928 0.931 . S
O909 Co885 2.097 . S
O909 C937 1.214 . S
H910 C938 0.929 . S
H911 C939 0.929 . S
H912 C940 0.930 . S
H913 C941 0.929 . S
H914 C943 0.930 . S
H915 C920 0.930 . S
H916 C924 0.930 . S
O917 Co886 2.037 . S
O917 C937 1.234 . S
C918 O892 1.269 . S
C918 O893 1.257 . S
C919 H894 0.930 . S
C919 C922 1.388 . S
C919 C924 1.418 . S
C920 H915 0.930 . S
C920 C923 1.404 . S
C920 C924 1.353 . S
N921 Co886 2.145 . S
N921 C922 1.397 . S
N921 C923 1.334 . S
C922 H903 0.929 . S
C922 C919 1.388 . S
C922 N921 1.397 . S
C923 H904 0.929 . S
C923 C920 1.404 . S
C923 N921 1.334 . S
C924 H916 0.930 . S
C924 C919 1.418 . S
C924 C920 1.353 . S
C925 H895 0.930 . S
C925 N926 1.330 . S
C925 C927 1.446 . S
N926 Co885 2.151 . S
N926 C925 1.330 . S
N926 C930 1.418 . S
C927 H906 0.929 . S
C927 C925 1.446 . S
C927 C928 1.332 . S
C928 H908 0.931 . S
C928 C927 1.332 . S
C928 C929 1.267 . S
C929 H897 0.929 . S
C929 C928 1.267 . S
C929 C930 1.251 . S
C930 H900 0.929 . S
C930 N926 1.418 . S
C930 C929 1.251 . S
C931 H898 0.930 . S
C931 C933 1.406 . S
C931 C936 1.261 . S
C932 H899 0.930 . S
C932 N934 1.325 . S
C932 C935 1.357 . S
C933 H901 0.928 . S
C933 C931 1.406 . S
C933 N934 1.261 . S
N934 Co885 2.214 . S
N934 C932 1.325 . S
N934 C933 1.261 . S
C935 H905 0.931 . S
C935 C932 1.357 . S
C935 C936 1.312 . S
C936 H907 0.930 . S
C936 C931 1.261 . S
C936 C935 1.312 . S
C937 O909 1.214 . S
C937 O917 1.234 . S
C938 H910 0.929 . S
C938 C941 1.391 . S
C938 C943 1.391 1_556 S
C939 H911 0.929 . S
C939 C940 1.390 1_554 S
C939 N942 1.391 . S
C940 H912 0.930 . S
C940 C939 1.390 1_556 S
C940 C941 1.392 . S
C941 H913 0.929 . S
C941 C938 1.391 . S
C941 C940 1.392 . S
N942 Co886 2.257 . S
N942 C939 1.391 . S
N942 C943 1.388 . S
C943 H914 0.930 . S
C943 C938 1.391 1_554 S
C943 N942 1.388 . S
Co944 O946 2.143 . S
Co944 O952 2.074 . S
Co944 O955 2.093 . S
Co944 O968 2.097 . S
Co944 N985 2.151 . S
Co944 N993 2.214 . S
Co945 O946 2.160 . S
Co945 O951 2.058 . S
Co945 O961 2.057 . S
Co945 O976 2.037 . S
Co945 N980 2.145 . S
Co945 N1001 2.257 . S
O946 Co944 2.143 . S
O946 Co945 2.160 . S
C947 O948 1.278 . S
C947 O955 1.224 . S
O948 C947 1.278 . S
C949 O950 1.245 . S
C949 O961 1.232 . S
O950 C949 1.245 . S
O951 Co945 2.058 . S
O951 C977 1.269 . S
O952 Co944 2.074 . S
O952 C977 1.257 . S
H953 C978 0.930 . S
H954 C984 0.930 . S
O955 Co944 2.093 . S
O955 C947 1.224 . S
H956 C988 0.929 . S
H957 C990 0.930 . S
H958 C991 0.930 1_556 S
H959 C989 0.929 . S
H960 C992 0.928 . S
O961 Co945 2.057 . S
O961 C949 1.232 . S
H962 C981 0.929 . S
H963 C982 0.929 . S
H964 C994 0.931 . S
H965 C986 0.929 . S
H966 C995 0.930 . S
H967 C987 0.931 . S
O968 Co944 2.097 . S
O968 C996 1.214 . S
H969 C997 0.929 . S
H970 C998 0.929 . S
H971 C999 0.930 . S
H972 C1000 0.929 . S
H973 C1002 0.930 . S
H974 C979 0.930 . S
H975 C983 0.930 . S
O976 Co945 2.037 . S
O976 C996 1.234 . S
C977 O951 1.269 . S
C977 O952 1.257 . S
C978 H953 0.930 . S
C978 C981 1.388 . S
C978 C983 1.418 . S
C979 H974 0.930 . S
C979 C982 1.404 . S
C979 C983 1.353 . S
N980 Co945 2.145 . S
N980 C981 1.397 . S
N980 C982 1.334 . S
C981 H962 0.929 . S
C981 C978 1.388 . S
C981 N980 1.397 . S
C982 H963 0.929 . S
C982 C979 1.404 . S
C982 N980 1.334 . S
C983 H975 0.930 . S
C983 C978 1.418 . S
C983 C979 1.353 . S
C984 H954 0.930 . S
C984 N985 1.330 . S
C984 C986 1.446 . S
N985 Co944 2.151 . S
N985 C984 1.330 . S
N985 C989 1.418 1_556 S
C986 H965 0.929 . S
C986 C984 1.446 . S
C986 C987 1.332 1_556 S
C987 H967 0.931 . S
C987 C986 1.332 1_554 S
C987 C988 1.267 . S
C988 H956 0.929 . S
C988 C987 1.267 . S
C988 C989 1.251 . S
C989 H959 0.929 . S
C989 N985 1.418 1_554 S
C989 C988 1.251 . S
C990 H957 0.930 . S
C990 C992 1.406 . S
C990 C995 1.261 . S
C991 H958 0.930 1_554 S
C991 N993 1.325 1_554 S
C991 C994 1.357 . S
C992 H960 0.928 . S
C992 C990 1.406 . S
C992 N993 1.261 1_554 S
N993 Co944 2.214 . S
N993 C991 1.325 1_556 S
N993 C992 1.261 1_556 S
C994 H964 0.931 . S
C994 C991 1.357 . S
C994 C995 1.312 . S
C995 H966 0.930 . S
C995 C990 1.261 . S
C995 C994 1.312 . S
C996 O968 1.214 . S
C996 O976 1.234 . S
C997 H969 0.929 . S
C997 C1000 1.391 . S
C997 C1002 1.391 . S
C998 H970 0.929 . S
C998 C999 1.390 . S
C998 N1001 1.391 . S
C999 H971 0.930 . S
C999 C998 1.390 . S
C999 C1000 1.392 . S
C1000 H972 0.929 . S
C1000 C997 1.391 . S
C1000 C999 1.392 . S
N1001 Co945 2.257 . S
N1001 C998 1.391 . S
N1001 C1002 1.388 . S
C1002 H973 0.930 . S
C1002 C997 1.391 . S
C1002 N1001 1.388 . S
Co1003 O1005 2.143 . S
Co1003 O1011 2.074 . S
Co1003 O1014 2.093 . S
Co1003 O1027 2.097 . S
Co1003 N1044 2.151 . S
Co1003 N1052 2.214 . S
Co1004 O1005 2.160 . S
Co1004 O1010 2.058 . S
Co1004 O1020 2.057 . S
Co1004 O1035 2.037 . S
Co1004 N1039 2.145 . S
Co1004 N1060 2.257 . S
O1005 Co1003 2.143 . S
O1005 Co1004 2.160 . S
C1006 O1007 1.278 . S
C1006 O1014 1.224 . S
O1007 C1006 1.278 . S
C1008 O1009 1.245 . S
C1008 O1020 1.232 . S
O1009 C1008 1.245 . S
O1010 Co1004 2.058 . S
O1010 C1036 1.269 . S
O1011 Co1003 2.074 . S
O1011 C1036 1.257 . S
H1012 C1037 0.930 . S
H1013 C1043 0.930 . S
O1014 Co1003 2.093 . S
O1014 C1006 1.224 . S
H1015 C1047 0.929 . S
H1016 C1049 0.930 . S
H1017 C1050 0.930 . S
H1018 C1048 0.929 . S
H1019 C1051 0.928 . S
O1020 Co1004 2.057 . S
O1020 C1008 1.232 . S
H1021 C1040 0.929 . S
H1022 C1041 0.929 . S
H1023 C1053 0.931 . S
H1024 C1045 0.929 . S
H1025 C1054 0.930 . S
H1026 C1046 0.931 . S
O1027 Co1003 2.097 . S
O1027 C1055 1.214 . S
H1028 C1056 0.929 . S
H1029 C1057 0.929 . S
H1030 C1058 0.930 . S
H1031 C1059 0.929 . S
H1032 C1061 0.930 . S
H1033 C1038 0.930 . S
H1034 C1042 0.930 . S
O1035 Co1004 2.037 . S
O1035 C1055 1.234 . S
C1036 O1010 1.269 . S
C1036 O1011 1.257 . S
C1037 H1012 0.930 . S
C1037 C1040 1.388 . S
C1037 C1042 1.418 . S
C1038 H1033 0.930 . S
C1038 C1041 1.404 . S
C1038 C1042 1.353 . S
N1039 Co1004 2.145 . S
N1039 C1040 1.397 . S
N1039 C1041 1.334 . S
C1040 H1021 0.929 . S
C1040 C1037 1.388 . S
C1040 N1039 1.397 . S
C1041 H1022 0.929 . S
C1041 C1038 1.404 . S
C1041 N1039 1.334 . S
C1042 H1034 0.930 . S
C1042 C1037 1.418 . S
C1042 C1038 1.353 . S
C1043 H1013 0.930 . S
C1043 N1044 1.330 . S
C1043 C1045 1.446 . S
N1044 Co1003 2.151 . S
N1044 C1043 1.330 . S
N1044 C1048 1.418 . S
C1045 H1024 0.929 . S
C1045 C1043 1.446 . S
C1045 C1046 1.332 . S
C1046 H1026 0.931 . S
C1046 C1045 1.332 . S
C1046 C1047 1.267 . S
C1047 H1015 0.929 . S
C1047 C1046 1.267 . S
C1047 C1048 1.251 . S
C1048 H1018 0.929 . S
C1048 N1044 1.418 . S
C1048 C1047 1.251 . S
C1049 H1016 0.930 . S
C1049 C1051 1.406 . S
C1049 C1054 1.261 . S
C1050 H1017 0.930 . S
C1050 N1052 1.325 . S
C1050 C1053 1.357 . S
C1051 H1019 0.928 . S
C1051 C1049 1.406 . S
C1051 N1052 1.261 . S
N1052 Co1003 2.214 . S
N1052 C1050 1.325 . S
N1052 C1051 1.261 . S
C1053 H1023 0.931 . S
C1053 C1050 1.357 . S
C1053 C1054 1.312 . S
C1054 H1025 0.930 . S
C1054 C1049 1.261 . S
C1054 C1053 1.312 . S
C1055 O1027 1.214 . S
C1055 O1035 1.234 . S
C1056 H1028 0.929 . S
C1056 C1059 1.391 . S
C1056 C1061 1.391 1_556 S
C1057 H1029 0.929 . S
C1057 C1058 1.390 1_554 S
C1057 N1060 1.391 . S
C1058 H1030 0.930 . S
C1058 C1057 1.390 1_556 S
C1058 C1059 1.392 . S
C1059 H1031 0.929 . S
C1059 C1056 1.391 . S
C1059 C1058 1.392 . S
N1060 Co1004 2.257 . S
N1060 C1057 1.391 . S
N1060 C1061 1.388 . S
C1061 H1032 0.930 . S
C1061 C1056 1.391 1_554 S
C1061 N1060 1.388 . S
Co1062 O1064 2.143 . S
Co1062 O1070 2.074 . S
Co1062 O1073 2.093 . S
Co1062 O1086 2.097 . S
Co1062 N1103 2.151 . S
Co1062 N1111 2.214 . S
Co1063 O1064 2.160 . S
Co1063 O1069 2.058 . S
Co1063 O1079 2.057 . S
Co1063 O1094 2.037 . S
Co1063 N1098 2.145 . S
Co1063 N1119 2.257 . S
O1064 Co1062 2.143 . S
O1064 Co1063 2.160 . S
C1065 O1066 1.278 . S
C1065 O1073 1.224 . S
O1066 C1065 1.278 . S
C1067 O1068 1.245 . S
C1067 O1079 1.232 . S
O1068 C1067 1.245 . S
O1069 Co1063 2.058 . S
O1069 C1095 1.269 . S
O1070 Co1062 2.074 . S
O1070 C1095 1.257 . S
H1071 C1096 0.930 . S
H1072 C1102 0.930 . S
O1073 Co1062 2.093 . S
O1073 C1065 1.224 . S
H1074 C1106 0.929 . S
H1075 C1108 0.930 . S
H1076 C1109 0.930 . S
H1077 C1107 0.929 . S
H1078 C1110 0.928 . S
O1079 Co1063 2.057 . S
O1079 C1067 1.232 . S
H1080 C1099 0.929 . S
H1081 C1100 0.929 . S
H1082 C1112 0.931 . S
H1083 C1104 0.929 . S
H1084 C1113 0.930 . S
H1085 C1105 0.931 . S
O1086 Co1062 2.097 . S
O1086 C1114 1.214 . S
H1087 C1115 0.929 . S
H1088 C1116 0.929 . S
H1089 C1117 0.930 . S
H1090 C1118 0.929 . S
H1091 C1120 0.930 . S
H1092 C1097 0.930 . S
H1093 C1101 0.930 . S
O1094 Co1063 2.037 . S
O1094 C1114 1.234 . S
C1095 O1069 1.269 . S
C1095 O1070 1.257 . S
C1096 H1071 0.930 . S
C1096 C1099 1.388 . S
C1096 C1101 1.418 . S
C1097 H1092 0.930 . S
C1097 C1100 1.404 . S
C1097 C1101 1.353 . S
N1098 Co1063 2.145 . S
N1098 C1099 1.397 . S
N1098 C1100 1.334 . S
C1099 H1080 0.929 . S
C1099 C1096 1.388 . S
C1099 N1098 1.397 . S
C1100 H1081 0.929 . S
C1100 C1097 1.404 . S
C1100 N1098 1.334 . S
C1101 H1093 0.930 . S
C1101 C1096 1.418 . S
C1101 C1097 1.353 . S
C1102 H1072 0.930 . S
C1102 N1103 1.330 . S
C1102 C1104 1.446 . S
N1103 Co1062 2.151 . S
N1103 C1102 1.330 . S
N1103 C1107 1.418 . S
C1104 H1083 0.929 . S
C1104 C1102 1.446 . S
C1104 C1105 1.332 . S
C1105 H1085 0.931 . S
C1105 C1104 1.332 . S
C1105 C1106 1.267 . S
C1106 H1074 0.929 . S
C1106 C1105 1.267 . S
C1106 C1107 1.251 . S
C1107 H1077 0.929 . S
C1107 N1103 1.418 . S
C1107 C1106 1.251 . S
C1108 H1075 0.930 . S
C1108 C1110 1.406 . S
C1108 C1113 1.261 . S
C1109 H1076 0.930 . S
C1109 N1111 1.325 . S
C1109 C1112 1.357 . S
C1110 H1078 0.928 . S
C1110 C1108 1.406 . S
C1110 N1111 1.261 . S
N1111 Co1062 2.214 . S
N1111 C1109 1.325 . S
N1111 C1110 1.261 . S
C1112 H1082 0.931 . S
C1112 C1109 1.357 . S
C1112 C1113 1.312 . S
C1113 H1084 0.930 . S
C1113 C1108 1.261 . S
C1113 C1112 1.312 . S
C1114 O1086 1.214 . S
C1114 O1094 1.234 . S
C1115 H1087 0.929 . S
C1115 C1118 1.391 . S
C1115 C1120 1.391 . S
C1116 H1088 0.929 . S
C1116 C1117 1.390 . S
C1116 N1119 1.391 . S
C1117 H1089 0.930 . S
C1117 C1116 1.390 . S
C1117 C1118 1.392 . S
C1118 H1090 0.929 . S
C1118 C1115 1.391 . S
C1118 C1117 1.392 . S
N1119 Co1063 2.257 . S
N1119 C1116 1.391 . S
N1119 C1120 1.388 . S
C1120 H1091 0.930 . S
C1120 C1115 1.391 . S
C1120 N1119 1.388 . S
Co1121 O1123 2.143 . S
Co1121 O1129 2.074 . S
Co1121 O1132 2.093 . S
Co1121 O1145 2.097 . S
Co1121 N1162 2.151 . S
Co1121 N1170 2.214 . S
Co1122 O1123 2.160 . S
Co1122 O1128 2.058 . S
Co1122 O1138 2.057 . S
Co1122 O1153 2.037 . S
Co1122 N1157 2.145 . S
Co1122 N1178 2.257 . S
O1123 Co1121 2.143 . S
O1123 Co1122 2.160 . S
C1124 O1125 1.278 . S
C1124 O1132 1.224 . S
O1125 C1124 1.278 . S
C1126 O1127 1.245 . S
C1126 O1138 1.232 . S
O1127 C1126 1.245 . S
O1128 Co1122 2.058 . S
O1128 C1154 1.269 . S
O1129 Co1121 2.074 . S
O1129 C1154 1.257 . S
H1130 C1155 0.930 . S
H1131 C1161 0.930 . S
O1132 Co1121 2.093 . S
O1132 C1124 1.224 . S
H1133 C1165 0.929 . S
H1134 C1167 0.930 . S
H1135 C1168 0.930 . S
H1136 C1166 0.929 . S
H1137 C1169 0.928 . S
O1138 Co1122 2.057 . S
O1138 C1126 1.232 . S
H1139 C1158 0.929 . S
H1140 C1159 0.929 . S
H1141 C1171 0.931 . S
H1142 C1163 0.929 . S
H1143 C1172 0.930 . S
H1144 C1164 0.931 . S
O1145 Co1121 2.097 . S
O1145 C1173 1.214 . S
H1146 C1174 0.929 . S
H1147 C1175 0.929 . S
H1148 C1176 0.930 . S
H1149 C1177 0.929 . S
H1150 C1179 0.930 . S
H1151 C1156 0.930 . S
H1152 C1160 0.930 . S
O1153 Co1122 2.037 . S
O1153 C1173 1.234 . S
C1154 O1128 1.269 . S
C1154 O1129 1.257 . S
C1155 H1130 0.930 . S
C1155 C1158 1.388 . S
C1155 C1160 1.418 . S
C1156 H1151 0.930 . S
C1156 C1159 1.404 . S
C1156 C1160 1.353 . S
N1157 Co1122 2.145 . S
N1157 C1158 1.397 . S
N1157 C1159 1.334 . S
C1158 H1139 0.929 . S
C1158 C1155 1.388 . S
C1158 N1157 1.397 . S
C1159 H1140 0.929 . S
C1159 C1156 1.404 . S
C1159 N1157 1.334 . S
C1160 H1152 0.930 . S
C1160 C1155 1.418 . S
C1160 C1156 1.353 . S
C1161 H1131 0.930 . S
C1161 N1162 1.330 . S
C1161 C1163 1.446 . S
N1162 Co1121 2.151 . S
N1162 C1161 1.330 . S
N1162 C1166 1.418 . S
C1163 H1142 0.929 . S
C1163 C1161 1.446 . S
C1163 C1164 1.332 . S
C1164 H1144 0.931 . S
C1164 C1163 1.332 . S
C1164 C1165 1.267 . S
C1165 H1133 0.929 . S
C1165 C1164 1.267 . S
C1165 C1166 1.251 . S
C1166 H1136 0.929 . S
C1166 N1162 1.418 . S
C1166 C1165 1.251 . S
C1167 H1134 0.930 . S
C1167 C1169 1.406 . S
C1167 C1172 1.261 . S
C1168 H1135 0.930 . S
C1168 N1170 1.325 . S
C1168 C1171 1.357 . S
C1169 H1137 0.928 . S
C1169 C1167 1.406 . S
C1169 N1170 1.261 . S
N1170 Co1121 2.214 . S
N1170 C1168 1.325 . S
N1170 C1169 1.261 . S
C1171 H1141 0.931 . S
C1171 C1168 1.357 . S
C1171 C1172 1.312 . S
C1172 H1143 0.930 . S
C1172 C1167 1.261 . S
C1172 C1171 1.312 . S
C1173 O1145 1.214 . S
C1173 O1153 1.234 . S
C1174 H1146 0.929 . S
C1174 C1177 1.391 . S
C1174 C1179 1.391 . S
C1175 H1147 0.929 . S
C1175 C1176 1.390 . S
C1175 N1178 1.391 . S
C1176 H1148 0.930 . S
C1176 C1175 1.390 . S
C1176 C1177 1.392 . S
C1177 H1149 0.929 . S
C1177 C1174 1.391 . S
C1177 C1176 1.392 . S
N1178 Co1122 2.257 . S
N1178 C1175 1.391 . S
N1178 C1179 1.388 . S
C1179 H1150 0.930 . S
C1179 C1174 1.391 . S
C1179 N1178 1.388 . S
Co1180 O1182 2.143 . S
Co1180 O1188 2.074 . S
Co1180 O1191 2.093 . S
Co1180 O1204 2.097 . S
Co1180 N1221 2.151 . S
Co1180 N1229 2.214 . S
Co1181 O1182 2.160 . S
Co1181 O1187 2.058 . S
Co1181 O1197 2.057 . S
Co1181 O1212 2.037 . S
Co1181 N1216 2.145 . S
Co1181 N1237 2.257 . S
O1182 Co1180 2.143 . S
O1182 Co1181 2.160 . S
C1183 O1184 1.278 . S
C1183 O1191 1.224 . S
O1184 C1183 1.278 . S
C1185 O1186 1.245 . S
C1185 O1197 1.232 . S
O1186 C1185 1.245 . S
O1187 Co1181 2.058 . S
O1187 C1213 1.269 . S
O1188 Co1180 2.074 . S
O1188 C1213 1.257 . S
H1189 C1214 0.930 . S
H1190 C1220 0.930 . S
O1191 Co1180 2.093 . S
O1191 C1183 1.224 . S
H1192 C1224 0.929 . S
H1193 C1226 0.930 . S
H1194 C1227 0.930 . S
H1195 C1225 0.929 . S
H1196 C1228 0.928 . S
O1197 Co1181 2.057 . S
O1197 C1185 1.232 . S
H1198 C1217 0.929 . S
H1199 C1218 0.929 . S
H1200 C1230 0.931 . S
H1201 C1222 0.929 . S
H1202 C1231 0.930 . S
H1203 C1223 0.931 . S
O1204 Co1180 2.097 . S
O1204 C1232 1.214 . S
H1205 C1233 0.929 . S
H1206 C1234 0.929 . S
H1207 C1235 0.930 . S
H1208 C1236 0.929 . S
H1209 C1238 0.930 . S
H1210 C1215 0.930 . S
H1211 C1219 0.930 . S
O1212 Co1181 2.037 . S
O1212 C1232 1.234 . S
C1213 O1187 1.269 . S
C1213 O1188 1.257 . S
C1214 H1189 0.930 . S
C1214 C1217 1.388 . S
C1214 C1219 1.418 . S
C1215 H1210 0.930 . S
C1215 C1218 1.404 . S
C1215 C1219 1.353 . S
N1216 Co1181 2.145 . S
N1216 C1217 1.397 . S
N1216 C1218 1.334 . S
C1217 H1198 0.929 . S
C1217 C1214 1.388 . S
C1217 N1216 1.397 . S
C1218 H1199 0.929 . S
C1218 C1215 1.404 . S
C1218 N1216 1.334 . S
C1219 H1211 0.930 . S
C1219 C1214 1.418 . S
C1219 C1215 1.353 . S
C1220 H1190 0.930 . S
C1220 N1221 1.330 . S
C1220 C1222 1.446 . S
N1221 Co1180 2.151 . S
N1221 C1220 1.330 . S
N1221 C1225 1.418 . S
C1222 H1201 0.929 . S
C1222 C1220 1.446 . S
C1222 C1223 1.332 . S
C1223 H1203 0.931 . S
C1223 C1222 1.332 . S
C1223 C1224 1.267 . S
C1224 H1192 0.929 . S
C1224 C1223 1.267 . S
C1224 C1225 1.251 . S
C1225 H1195 0.929 . S
C1225 N1221 1.418 . S
C1225 C1224 1.251 . S
C1226 H1193 0.930 . S
C1226 C1228 1.406 . S
C1226 C1231 1.261 . S
C1227 H1194 0.930 . S
C1227 N1229 1.325 . S
C1227 C1230 1.357 . S
C1228 H1196 0.928 . S
C1228 C1226 1.406 . S
C1228 N1229 1.261 . S
N1229 Co1180 2.214 . S
N1229 C1227 1.325 . S
N1229 C1228 1.261 . S
C1230 H1200 0.931 . S
C1230 C1227 1.357 . S
C1230 C1231 1.312 . S
C1231 H1202 0.930 . S
C1231 C1226 1.261 . S
C1231 C1230 1.312 . S
C1232 O1204 1.214 . S
C1232 O1212 1.234 . S
C1233 H1205 0.929 . S
C1233 C1236 1.391 . S
C1233 C1238 1.391 . S
C1234 H1206 0.929 . S
C1234 C1235 1.390 . S
C1234 N1237 1.391 . S
C1235 H1207 0.930 . S
C1235 C1234 1.390 . S
C1235 C1236 1.392 . S
C1236 H1208 0.929 . S
C1236 C1233 1.391 . S
C1236 C1235 1.392 . S
N1237 Co1181 2.257 . S
N1237 C1234 1.391 . S
N1237 C1238 1.388 . S
C1238 H1209 0.930 . S
C1238 C1233 1.391 . S
C1238 N1237 1.388 . S
Co1239 O1241 2.143 . S
Co1239 O1247 2.074 . S
Co1239 O1250 2.093 . S
Co1239 O1263 2.097 . S
Co1239 N1280 2.151 . S
Co1239 N1288 2.214 . S
Co1240 O1241 2.160 . S
Co1240 O1246 2.058 . S
Co1240 O1256 2.057 . S
Co1240 O1271 2.037 . S
Co1240 N1275 2.145 . S
Co1240 N1296 2.257 . S
O1241 Co1239 2.143 . S
O1241 Co1240 2.160 . S
C1242 O1243 1.278 . S
C1242 O1250 1.224 . S
O1243 C1242 1.278 . S
C1244 O1245 1.245 . S
C1244 O1256 1.232 . S
O1245 C1244 1.245 . S
O1246 Co1240 2.058 . S
O1246 C1272 1.269 . S
O1247 Co1239 2.074 . S
O1247 C1272 1.257 . S
H1248 C1273 0.930 . S
H1249 C1279 0.930 . S
O1250 Co1239 2.093 . S
O1250 C1242 1.224 . S
H1251 C1283 0.929 . S
H1252 C1285 0.930 . S
H1253 C1286 0.930 . S
H1254 C1284 0.929 . S
H1255 C1287 0.928 . S
O1256 Co1240 2.057 . S
O1256 C1244 1.232 . S
H1257 C1276 0.929 . S
H1258 C1277 0.929 . S
H1259 C1289 0.931 . S
H1260 C1281 0.929 . S
H1261 C1290 0.930 . S
H1262 C1282 0.931 . S
O1263 Co1239 2.097 . S
O1263 C1291 1.214 . S
H1264 C1292 0.929 . S
H1265 C1293 0.929 . S
H1266 C1294 0.930 . S
H1267 C1295 0.929 . S
H1268 C1297 0.930 . S
H1269 C1274 0.930 . S
H1270 C1278 0.930 . S
O1271 Co1240 2.037 . S
O1271 C1291 1.234 . S
C1272 O1246 1.269 . S
C1272 O1247 1.257 . S
C1273 H1248 0.930 . S
C1273 C1276 1.388 . S
C1273 C1278 1.418 . S
C1274 H1269 0.930 . S
C1274 C1277 1.404 . S
C1274 C1278 1.353 . S
N1275 Co1240 2.145 . S
N1275 C1276 1.397 . S
N1275 C1277 1.334 . S
C1276 H1257 0.929 . S
C1276 C1273 1.388 . S
C1276 N1275 1.397 . S
C1277 H1258 0.929 . S
C1277 C1274 1.404 . S
C1277 N1275 1.334 . S
C1278 H1270 0.930 . S
C1278 C1273 1.418 . S
C1278 C1274 1.353 . S
C1279 H1249 0.930 . S
C1279 N1280 1.330 . S
C1279 C1281 1.446 . S
N1280 Co1239 2.151 . S
N1280 C1279 1.330 . S
N1280 C1284 1.418 . S
C1281 H1260 0.929 . S
C1281 C1279 1.446 . S
C1281 C1282 1.332 . S
C1282 H1262 0.931 . S
C1282 C1281 1.332 . S
C1282 C1283 1.267 . S
C1283 H1251 0.929 . S
C1283 C1282 1.267 . S
C1283 C1284 1.251 . S
C1284 H1254 0.929 . S
C1284 N1280 1.418 . S
C1284 C1283 1.251 . S
C1285 H1252 0.930 . S
C1285 C1287 1.406 . S
C1285 C1290 1.261 . S
C1286 H1253 0.930 . S
C1286 N1288 1.325 . S
C1286 C1289 1.357 . S
C1287 H1255 0.928 . S
C1287 C1285 1.406 . S
C1287 N1288 1.261 . S
N1288 Co1239 2.214 . S
N1288 C1286 1.325 . S
N1288 C1287 1.261 . S
C1289 H1259 0.931 . S
C1289 C1286 1.357 . S
C1289 C1290 1.312 . S
C1290 H1261 0.930 . S
C1290 C1285 1.261 . S
C1290 C1289 1.312 . S
C1291 O1263 1.214 . S
C1291 O1271 1.234 . S
C1292 H1264 0.929 . S
C1292 C1295 1.391 . S
C1292 C1297 1.391 1_554 S
C1293 H1265 0.929 . S
C1293 C1294 1.390 1_556 S
C1293 N1296 1.391 . S
C1294 H1266 0.930 . S
C1294 C1293 1.390 1_554 S
C1294 C1295 1.392 . S
C1295 H1267 0.929 . S
C1295 C1292 1.391 . S
C1295 C1294 1.392 . S
N1296 Co1240 2.257 . S
N1296 C1293 1.391 . S
N1296 C1297 1.388 . S
C1297 H1268 0.930 . S
C1297 C1292 1.391 1_556 S
C1297 N1296 1.388 . S
Co1298 O1300 2.143 . S
Co1298 O1306 2.074 . S
Co1298 O1309 2.093 . S
Co1298 O1322 2.097 . S
Co1298 N1339 2.151 . S
Co1298 N1347 2.214 . S
Co1299 O1300 2.160 . S
Co1299 O1305 2.058 . S
Co1299 O1315 2.057 . S
Co1299 O1330 2.037 . S
Co1299 N1334 2.145 . S
Co1299 N1355 2.257 . S
O1300 Co1298 2.143 . S
O1300 Co1299 2.160 . S
C1301 O1302 1.278 . S
C1301 O1309 1.224 . S
O1302 C1301 1.278 . S
C1303 O1304 1.245 . S
C1303 O1315 1.232 . S
O1304 C1303 1.245 . S
O1305 Co1299 2.058 . S
O1305 C1331 1.269 . S
O1306 Co1298 2.074 . S
O1306 C1331 1.257 . S
H1307 C1332 0.930 . S
H1308 C1338 0.930 . S
O1309 Co1298 2.093 . S
O1309 C1301 1.224 . S
H1310 C1342 0.929 . S
H1311 C1344 0.930 . S
H1312 C1345 0.930 1_554 S
H1313 C1343 0.929 . S
H1314 C1346 0.928 . S
O1315 Co1299 2.057 . S
O1315 C1303 1.232 . S
H1316 C1335 0.929 . S
H1317 C1336 0.929 . S
H1318 C1348 0.931 . S
H1319 C1340 0.929 . S
H1320 C1349 0.930 . S
H1321 C1341 0.931 . S
O1322 Co1298 2.097 . S
O1322 C1350 1.214 . S
H1323 C1351 0.929 . S
H1324 C1352 0.929 . S
H1325 C1353 0.930 . S
H1326 C1354 0.929 . S
H1327 C1356 0.930 . S
H1328 C1333 0.930 . S
H1329 C1337 0.930 . S
O1330 Co1299 2.037 . S
O1330 C1350 1.234 . S
C1331 O1305 1.269 . S
C1331 O1306 1.257 . S
C1332 H1307 0.930 . S
C1332 C1335 1.388 . S
C1332 C1337 1.418 . S
C1333 H1328 0.930 . S
C1333 C1336 1.404 . S
C1333 C1337 1.353 . S
N1334 Co1299 2.145 . S
N1334 C1335 1.397 . S
N1334 C1336 1.334 . S
C1335 H1316 0.929 . S
C1335 C1332 1.388 . S
C1335 N1334 1.397 . S
C1336 H1317 0.929 . S
C1336 C1333 1.404 . S
C1336 N1334 1.334 . S
C1337 H1329 0.930 . S
C1337 C1332 1.418 . S
C1337 C1333 1.353 . S
C1338 H1308 0.930 . S
C1338 N1339 1.330 . S
C1338 C1340 1.446 . S
N1339 Co1298 2.151 . S
N1339 C1338 1.330 . S
N1339 C1343 1.418 1_554 S
C1340 H1319 0.929 . S
C1340 C1338 1.446 . S
C1340 C1341 1.332 1_554 S
C1341 H1321 0.931 . S
C1341 C1340 1.332 1_556 S
C1341 C1342 1.267 . S
C1342 H1310 0.929 . S
C1342 C1341 1.267 . S
C1342 C1343 1.251 . S
C1343 H1313 0.929 . S
C1343 N1339 1.418 1_556 S
C1343 C1342 1.251 . S
C1344 H1311 0.930 . S
C1344 C1346 1.406 . S
C1344 C1349 1.261 . S
C1345 H1312 0.930 1_556 S
C1345 N1347 1.325 1_556 S
C1345 C1348 1.357 . S
C1346 H1314 0.928 . S
C1346 C1344 1.406 . S
C1346 N1347 1.261 1_556 S
N1347 Co1298 2.214 . S
N1347 C1345 1.325 1_554 S
N1347 C1346 1.261 1_554 S
C1348 H1318 0.931 . S
C1348 C1345 1.357 . S
C1348 C1349 1.312 . S
C1349 H1320 0.930 . S
C1349 C1344 1.261 . S
C1349 C1348 1.312 . S
C1350 O1322 1.214 . S
C1350 O1330 1.234 . S
C1351 H1323 0.929 . S
C1351 C1354 1.391 . S
C1351 C1356 1.391 . S
C1352 H1324 0.929 . S
C1352 C1353 1.390 . S
C1352 N1355 1.391 . S
C1353 H1325 0.930 . S
C1353 C1352 1.390 . S
C1353 C1354 1.392 . S
C1354 H1326 0.929 . S
C1354 C1351 1.391 . S
C1354 C1353 1.392 . S
N1355 Co1299 2.257 . S
N1355 C1352 1.391 . S
N1355 C1356 1.388 . S
C1356 H1327 0.930 . S
C1356 C1351 1.391 . S
C1356 N1355 1.388 . S
Co1357 O1359 2.143 . S
Co1357 O1365 2.074 . S
Co1357 O1368 2.093 . S
Co1357 O1381 2.097 . S
Co1357 N1398 2.151 . S
Co1357 N1406 2.214 . S
Co1358 O1359 2.160 . S
Co1358 O1364 2.058 . S
Co1358 O1374 2.057 . S
Co1358 O1389 2.037 . S
Co1358 N1393 2.145 . S
Co1358 N1414 2.257 . S
O1359 Co1357 2.143 . S
O1359 Co1358 2.160 . S
C1360 O1361 1.278 . S
C1360 O1368 1.224 . S
O1361 C1360 1.278 . S
C1362 O1363 1.245 . S
C1362 O1374 1.232 . S
O1363 C1362 1.245 . S
O1364 Co1358 2.058 . S
O1364 C1390 1.269 . S
O1365 Co1357 2.074 . S
O1365 C1390 1.257 . S
H1366 C1391 0.930 . S
H1367 C1397 0.930 . S
O1368 Co1357 2.093 . S
O1368 C1360 1.224 . S
H1369 C1401 0.929 . S
H1370 C1403 0.930 . S
H1371 C1404 0.930 . S
H1372 C1402 0.929 . S
H1373 C1405 0.928 . S
O1374 Co1358 2.057 . S
O1374 C1362 1.232 . S
H1375 C1394 0.929 . S
H1376 C1395 0.929 . S
H1377 C1407 0.931 . S
H1378 C1399 0.929 . S
H1379 C1408 0.930 . S
H1380 C1400 0.931 . S
O1381 Co1357 2.097 . S
O1381 C1409 1.214 . S
H1382 C1410 0.929 . S
H1383 C1411 0.929 . S
H1384 C1412 0.930 . S
H1385 C1413 0.929 . S
H1386 C1415 0.930 . S
H1387 C1392 0.930 . S
H1388 C1396 0.930 . S
O1389 Co1358 2.037 . S
O1389 C1409 1.234 . S
C1390 O1364 1.269 . S
C1390 O1365 1.257 . S
C1391 H1366 0.930 . S
C1391 C1394 1.388 . S
C1391 C1396 1.418 . S
C1392 H1387 0.930 . S
C1392 C1395 1.404 . S
C1392 C1396 1.353 . S
N1393 Co1358 2.145 . S
N1393 C1394 1.397 . S
N1393 C1395 1.334 . S
C1394 H1375 0.929 . S
C1394 C1391 1.388 . S
C1394 N1393 1.397 . S
C1395 H1376 0.929 . S
C1395 C1392 1.404 . S
C1395 N1393 1.334 . S
C1396 H1388 0.930 . S
C1396 C1391 1.418 . S
C1396 C1392 1.353 . S
C1397 H1367 0.930 . S
C1397 N1398 1.330 . S
C1397 C1399 1.446 . S
N1398 Co1357 2.151 . S
N1398 C1397 1.330 . S
N1398 C1402 1.418 . S
C1399 H1378 0.929 . S
C1399 C1397 1.446 . S
C1399 C1400 1.332 . S
C1400 H1380 0.931 . S
C1400 C1399 1.332 . S
C1400 C1401 1.267 . S
C1401 H1369 0.929 . S
C1401 C1400 1.267 . S
C1401 C1402 1.251 . S
C1402 H1372 0.929 . S
C1402 N1398 1.418 . S
C1402 C1401 1.251 . S
C1403 H1370 0.930 . S
C1403 C1405 1.406 . S
C1403 C1408 1.261 . S
C1404 H1371 0.930 . S
C1404 N1406 1.325 . S
C1404 C1407 1.357 . S
C1405 H1373 0.928 . S
C1405 C1403 1.406 . S
C1405 N1406 1.261 . S
N1406 Co1357 2.214 . S
N1406 C1404 1.325 . S
N1406 C1405 1.261 . S
C1407 H1377 0.931 . S
C1407 C1404 1.357 . S
C1407 C1408 1.312 . S
C1408 H1379 0.930 . S
C1408 C1403 1.261 . S
C1408 C1407 1.312 . S
C1409 O1381 1.214 . S
C1409 O1389 1.234 . S
C1410 H1382 0.929 . S
C1410 C1413 1.391 . S
C1410 C1415 1.391 . S
C1411 H1383 0.929 . S
C1411 C1412 1.390 . S
C1411 N1414 1.391 . S
C1412 H1384 0.930 . S
C1412 C1411 1.390 . S
C1412 C1413 1.392 . S
C1413 H1385 0.929 . S
C1413 C1410 1.391 . S
C1413 C1412 1.392 . S
N1414 Co1358 2.257 . S
N1414 C1411 1.391 . S
N1414 C1415 1.388 . S
C1415 H1386 0.930 . S
C1415 C1410 1.391 . S
C1415 N1414 1.388 . S
Co1416 O1418 2.143 . S
Co1416 O1424 2.074 . S
Co1416 O1427 2.093 . S
Co1416 O1440 2.097 . S
Co1416 N1457 2.151 . S
Co1416 N1465 2.214 . S
Co1417 O1418 2.160 . S
Co1417 O1423 2.058 . S
Co1417 O1433 2.057 . S
Co1417 O1448 2.037 . S
Co1417 N1452 2.145 . S
Co1417 N1473 2.257 . S
O1418 Co1416 2.143 . S
O1418 Co1417 2.160 . S
C1419 O1420 1.278 . S
C1419 O1427 1.224 . S
O1420 C1419 1.278 . S
C1421 O1422 1.245 . S
C1421 O1433 1.232 . S
O1422 C1421 1.245 . S
O1423 Co1417 2.058 . S
O1423 C1449 1.269 . S
O1424 Co1416 2.074 . S
O1424 C1449 1.257 . S
H1425 C1450 0.930 . S
H1426 C1456 0.930 . S
O1427 Co1416 2.093 . S
O1427 C1419 1.224 . S
H1428 C1460 0.929 . S
H1429 C1462 0.930 . S
H1430 C1463 0.930 1_554 S
H1431 C1461 0.929 . S
H1432 C1464 0.928 . S
O1433 Co1417 2.057 . S
O1433 C1421 1.232 . S
H1434 C1453 0.929 . S
H1435 C1454 0.929 . S
H1436 C1466 0.931 . S
H1437 C1458 0.929 . S
H1438 C1467 0.930 . S
H1439 C1459 0.931 . S
O1440 Co1416 2.097 . S
O1440 C1468 1.214 . S
H1441 C1469 0.929 . S
H1442 C1470 0.929 . S
H1443 C1471 0.930 . S
H1444 C1472 0.929 . S
H1445 C1474 0.930 . S
H1446 C1451 0.930 . S
H1447 C1455 0.930 . S
O1448 Co1417 2.037 . S
O1448 C1468 1.234 . S
C1449 O1423 1.269 . S
C1449 O1424 1.257 . S
C1450 H1425 0.930 . S
C1450 C1453 1.388 . S
C1450 C1455 1.418 . S
C1451 H1446 0.930 . S
C1451 C1454 1.404 . S
C1451 C1455 1.353 . S
N1452 Co1417 2.145 . S
N1452 C1453 1.397 . S
N1452 C1454 1.334 . S
C1453 H1434 0.929 . S
C1453 C1450 1.388 . S
C1453 N1452 1.397 . S
C1454 H1435 0.929 . S
C1454 C1451 1.404 . S
C1454 N1452 1.334 . S
C1455 H1447 0.930 . S
C1455 C1450 1.418 . S
C1455 C1451 1.353 . S
C1456 H1426 0.930 . S
C1456 N1457 1.330 . S
C1456 C1458 1.446 . S
N1457 Co1416 2.151 . S
N1457 C1456 1.330 . S
N1457 C1461 1.418 1_554 S
C1458 H1437 0.929 . S
C1458 C1456 1.446 . S
C1458 C1459 1.332 1_554 S
C1459 H1439 0.931 . S
C1459 C1458 1.332 1_556 S
C1459 C1460 1.267 . S
C1460 H1428 0.929 . S
C1460 C1459 1.267 . S
C1460 C1461 1.251 . S
C1461 H1431 0.929 . S
C1461 N1457 1.418 1_556 S
C1461 C1460 1.251 . S
C1462 H1429 0.930 . S
C1462 C1464 1.406 . S
C1462 C1467 1.261 . S
C1463 H1430 0.930 1_556 S
C1463 N1465 1.325 1_556 S
C1463 C1466 1.357 . S
C1464 H1432 0.928 . S
C1464 C1462 1.406 . S
C1464 N1465 1.261 1_556 S
N1465 Co1416 2.214 . S
N1465 C1463 1.325 1_554 S
N1465 C1464 1.261 1_554 S
C1466 H1436 0.931 . S
C1466 C1463 1.357 . S
C1466 C1467 1.312 . S
C1467 H1438 0.930 . S
C1467 C1462 1.261 . S
C1467 C1466 1.312 . S
C1468 O1440 1.214 . S
C1468 O1448 1.234 . S
C1469 H1441 0.929 . S
C1469 C1472 1.391 . S
C1469 C1474 1.391 . S
C1470 H1442 0.929 . S
C1470 C1471 1.390 . S
C1470 N1473 1.391 . S
C1471 H1443 0.930 . S
C1471 C1470 1.390 . S
C1471 C1472 1.392 . S
C1472 H1444 0.929 . S
C1472 C1469 1.391 . S
C1472 C1471 1.392 . S
N1473 Co1417 2.257 . S
N1473 C1470 1.391 . S
N1473 C1474 1.388 . S
C1474 H1445 0.930 . S
C1474 C1469 1.391 . S
C1474 N1473 1.388 . S
Co1475 O1477 2.143 . S
Co1475 O1483 2.074 . S
Co1475 O1486 2.093 . S
Co1475 O1499 2.097 . S
Co1475 N1516 2.151 . S
Co1475 N1524 2.214 . S
Co1476 O1477 2.160 . S
Co1476 O1482 2.058 . S
Co1476 O1492 2.057 . S
Co1476 O1507 2.037 . S
Co1476 N1511 2.145 . S
Co1476 N1532 2.257 . S
O1477 Co1475 2.143 . S
O1477 Co1476 2.160 . S
C1478 O1479 1.278 . S
C1478 O1486 1.224 . S
O1479 C1478 1.278 . S
C1480 O1481 1.245 . S
C1480 O1492 1.232 . S
O1481 C1480 1.245 . S
O1482 Co1476 2.058 . S
O1482 C1508 1.269 . S
O1483 Co1475 2.074 . S
O1483 C1508 1.257 . S
H1484 C1509 0.930 . S
H1485 C1515 0.930 . S
O1486 Co1475 2.093 . S
O1486 C1478 1.224 . S
H1487 C1519 0.929 . S
H1488 C1521 0.930 . S
H1489 C1522 0.930 . S
H1490 C1520 0.929 . S
H1491 C1523 0.928 . S
O1492 Co1476 2.057 . S
O1492 C1480 1.232 . S
H1493 C1512 0.929 . S
H1494 C1513 0.929 . S
H1495 C1525 0.931 . S
H1496 C1517 0.929 . S
H1497 C1526 0.930 . S
H1498 C1518 0.931 . S
O1499 Co1475 2.097 . S
O1499 C1527 1.214 . S
H1500 C1528 0.929 . S
H1501 C1529 0.929 . S
H1502 C1530 0.930 . S
H1503 C1531 0.929 . S
H1504 C1533 0.930 . S
H1505 C1510 0.930 . S
H1506 C1514 0.930 . S
O1507 Co1476 2.037 . S
O1507 C1527 1.234 . S
C1508 O1482 1.269 . S
C1508 O1483 1.257 . S
C1509 H1484 0.930 . S
C1509 C1512 1.388 . S
C1509 C1514 1.418 . S
C1510 H1505 0.930 . S
C1510 C1513 1.404 . S
C1510 C1514 1.353 . S
N1511 Co1476 2.145 . S
N1511 C1512 1.397 . S
N1511 C1513 1.334 . S
C1512 H1493 0.929 . S
C1512 C1509 1.388 . S
C1512 N1511 1.397 . S
C1513 H1494 0.929 . S
C1513 C1510 1.404 . S
C1513 N1511 1.334 . S
C1514 H1506 0.930 . S
C1514 C1509 1.418 . S
C1514 C1510 1.353 . S
C1515 H1485 0.930 . S
C1515 N1516 1.330 . S
C1515 C1517 1.446 . S
N1516 Co1475 2.151 . S
N1516 C1515 1.330 . S
N1516 C1520 1.418 . S
C1517 H1496 0.929 . S
C1517 C1515 1.446 . S
C1517 C1518 1.332 . S
C1518 H1498 0.931 . S
C1518 C1517 1.332 . S
C1518 C1519 1.267 . S
C1519 H1487 0.929 . S
C1519 C1518 1.267 . S
C1519 C1520 1.251 . S
C1520 H1490 0.929 . S
C1520 N1516 1.418 . S
C1520 C1519 1.251 . S
C1521 H1488 0.930 . S
C1521 C1523 1.406 . S
C1521 C1526 1.261 . S
C1522 H1489 0.930 . S
C1522 N1524 1.325 . S
C1522 C1525 1.357 . S
C1523 H1491 0.928 . S
C1523 C1521 1.406 . S
C1523 N1524 1.261 . S
N1524 Co1475 2.214 . S
N1524 C1522 1.325 . S
N1524 C1523 1.261 . S
C1525 H1495 0.931 . S
C1525 C1522 1.357 . S
C1525 C1526 1.312 . S
C1526 H1497 0.930 . S
C1526 C1521 1.261 . S
C1526 C1525 1.312 . S
C1527 O1499 1.214 . S
C1527 O1507 1.234 . S
C1528 H1500 0.929 . S
C1528 C1531 1.391 . S
C1528 C1533 1.391 1_554 S
C1529 H1501 0.929 . S
C1529 C1530 1.390 1_556 S
C1529 N1532 1.391 . S
C1530 H1502 0.930 . S
C1530 C1529 1.390 1_554 S
C1530 C1531 1.392 . S
C1531 H1503 0.929 . S
C1531 C1528 1.391 . S
C1531 C1530 1.392 . S
N1532 Co1476 2.257 . S
N1532 C1529 1.391 . S
N1532 C1533 1.388 . S
C1533 H1504 0.930 . S
C1533 C1528 1.391 1_556 S
C1533 N1532 1.388 . S
Co1534 O1536 2.143 . S
Co1534 O1542 2.074 . S
Co1534 O1545 2.093 . S
Co1534 O1558 2.097 . S
Co1534 N1575 2.151 . S
Co1534 N1583 2.214 . S
Co1535 O1536 2.160 . S
Co1535 O1541 2.058 . S
Co1535 O1551 2.057 . S
Co1535 O1566 2.037 . S
Co1535 N1570 2.145 . S
Co1535 N1591 2.257 . S
O1536 Co1534 2.143 . S
O1536 Co1535 2.160 . S
C1537 O1538 1.278 . S
C1537 O1545 1.224 . S
O1538 C1537 1.278 . S
C1539 O1540 1.245 . S
C1539 O1551 1.232 . S
O1540 C1539 1.245 . S
O1541 Co1535 2.058 . S
O1541 C1567 1.269 . S
O1542 Co1534 2.074 . S
O1542 C1567 1.257 . S
H1543 C1568 0.930 . S
H1544 C1574 0.930 . S
O1545 Co1534 2.093 . S
O1545 C1537 1.224 . S
H1546 C1578 0.929 . S
H1547 C1580 0.930 . S
H1548 C1581 0.930 . S
H1549 C1579 0.929 . S
H1550 C1582 0.928 . S
O1551 Co1535 2.057 . S
O1551 C1539 1.232 . S
H1552 C1571 0.929 . S
H1553 C1572 0.929 . S
H1554 C1584 0.931 . S
H1555 C1576 0.929 . S
H1556 C1585 0.930 . S
H1557 C1577 0.931 . S
O1558 Co1534 2.097 . S
O1558 C1586 1.214 . S
H1559 C1587 0.929 . S
H1560 C1588 0.929 . S
H1561 C1589 0.930 . S
H1562 C1590 0.929 . S
H1563 C1592 0.930 . S
H1564 C1569 0.930 . S
H1565 C1573 0.930 . S
O1566 Co1535 2.037 . S
O1566 C1586 1.234 . S
C1567 O1541 1.269 . S
C1567 O1542 1.257 . S
C1568 H1543 0.930 . S
C1568 C1571 1.388 . S
C1568 C1573 1.418 . S
C1569 H1564 0.930 . S
C1569 C1572 1.404 . S
C1569 C1573 1.353 . S
N1570 Co1535 2.145 . S
N1570 C1571 1.397 . S
N1570 C1572 1.334 . S
C1571 H1552 0.929 . S
C1571 C1568 1.388 . S
C1571 N1570 1.397 . S
C1572 H1553 0.929 . S
C1572 C1569 1.404 . S
C1572 N1570 1.334 . S
C1573 H1565 0.930 . S
C1573 C1568 1.418 . S
C1573 C1569 1.353 . S
C1574 H1544 0.930 . S
C1574 N1575 1.330 . S
C1574 C1576 1.446 . S
N1575 Co1534 2.151 . S
N1575 C1574 1.330 . S
N1575 C1579 1.418 . S
C1576 H1555 0.929 . S
C1576 C1574 1.446 . S
C1576 C1577 1.332 . S
C1577 H1557 0.931 . S
C1577 C1576 1.332 . S
C1577 C1578 1.267 . S
C1578 H1546 0.929 . S
C1578 C1577 1.267 . S
C1578 C1579 1.251 . S
C1579 H1549 0.929 . S
C1579 N1575 1.418 . S
C1579 C1578 1.251 . S
C1580 H1547 0.930 . S
C1580 C1582 1.406 . S
C1580 C1585 1.261 . S
C1581 H1548 0.930 . S
C1581 N1583 1.325 . S
C1581 C1584 1.357 . S
C1582 H1550 0.928 . S
C1582 C1580 1.406 . S
C1582 N1583 1.261 . S
N1583 Co1534 2.214 . S
N1583 C1581 1.325 . S
N1583 C1582 1.261 . S
C1584 H1554 0.931 . S
C1584 C1581 1.357 . S
C1584 C1585 1.312 . S
C1585 H1556 0.930 . S
C1585 C1580 1.261 . S
C1585 C1584 1.312 . S
C1586 O1558 1.214 . S
C1586 O1566 1.234 . S
C1587 H1559 0.929 . S
C1587 C1590 1.391 . S
C1587 C1592 1.391 . S
C1588 H1560 0.929 . S
C1588 C1589 1.390 . S
C1588 N1591 1.391 . S
C1589 H1561 0.930 . S
C1589 C1588 1.390 . S
C1589 C1590 1.392 . S
C1590 H1562 0.929 . S
C1590 C1587 1.391 . S
C1590 C1589 1.392 . S
N1591 Co1535 2.257 . S
N1591 C1588 1.391 . S
N1591 C1592 1.388 . S
C1592 H1563 0.930 . S
C1592 C1587 1.391 . S
C1592 N1591 1.388 . S
Co1593 O1595 2.143 . S
Co1593 O1601 2.074 . S
Co1593 O1604 2.093 . S
Co1593 O1617 2.097 . S
Co1593 N1634 2.151 . S
Co1593 N1642 2.214 . S
Co1594 O1595 2.160 . S
Co1594 O1600 2.058 . S
Co1594 O1610 2.057 . S
Co1594 O1625 2.037 . S
Co1594 N1629 2.145 . S
Co1594 N1650 2.257 . S
O1595 Co1593 2.143 . S
O1595 Co1594 2.160 . S
C1596 O1597 1.278 . S
C1596 O1604 1.224 . S
O1597 C1596 1.278 . S
C1598 O1599 1.245 . S
C1598 O1610 1.232 . S
O1599 C1598 1.245 . S
O1600 Co1594 2.058 . S
O1600 C1626 1.269 . S
O1601 Co1593 2.074 . S
O1601 C1626 1.257 . S
H1602 C1627 0.930 . S
H1603 C1633 0.930 . S
O1604 Co1593 2.093 . S
O1604 C1596 1.224 . S
H1605 C1637 0.929 . S
H1606 C1639 0.930 . S
H1607 C1640 0.930 . S
H1608 C1638 0.929 . S
H1609 C1641 0.928 . S
O1610 Co1594 2.057 . S
O1610 C1598 1.232 . S
H1611 C1630 0.929 . S
H1612 C1631 0.929 . S
H1613 C1643 0.931 . S
H1614 C1635 0.929 . S
H1615 C1644 0.930 . S
H1616 C1636 0.931 . S
O1617 Co1593 2.097 . S
O1617 C1645 1.214 . S
H1618 C1646 0.929 . S
H1619 C1647 0.929 . S
H1620 C1648 0.930 . S
H1621 C1649 0.929 . S
H1622 C1651 0.930 . S
H1623 C1628 0.930 . S
H1624 C1632 0.930 . S
O1625 Co1594 2.037 . S
O1625 C1645 1.234 . S
C1626 O1600 1.269 . S
C1626 O1601 1.257 . S
C1627 H1602 0.930 . S
C1627 C1630 1.388 . S
C1627 C1632 1.418 . S
C1628 H1623 0.930 . S
C1628 C1631 1.404 . S
C1628 C1632 1.353 . S
N1629 Co1594 2.145 . S
N1629 C1630 1.397 . S
N1629 C1631 1.334 . S
C1630 H1611 0.929 . S
C1630 C1627 1.388 . S
C1630 N1629 1.397 . S
C1631 H1612 0.929 . S
C1631 C1628 1.404 . S
C1631 N1629 1.334 . S
C1632 H1624 0.930 . S
C1632 C1627 1.418 . S
C1632 C1628 1.353 . S
C1633 H1603 0.930 . S
C1633 N1634 1.330 . S
C1633 C1635 1.446 . S
N1634 Co1593 2.151 . S
N1634 C1633 1.330 . S
N1634 C1638 1.418 . S
C1635 H1614 0.929 . S
C1635 C1633 1.446 . S
C1635 C1636 1.332 . S
C1636 H1616 0.931 . S
C1636 C1635 1.332 . S
C1636 C1637 1.267 . S
C1637 H1605 0.929 . S
C1637 C1636 1.267 . S
C1637 C1638 1.251 . S
C1638 H1608 0.929 . S
C1638 N1634 1.418 . S
C1638 C1637 1.251 . S
C1639 H1606 0.930 . S
C1639 C1641 1.406 . S
C1639 C1644 1.261 . S
C1640 H1607 0.930 . S
C1640 N1642 1.325 . S
C1640 C1643 1.357 . S
C1641 H1609 0.928 . S
C1641 C1639 1.406 . S
C1641 N1642 1.261 . S
N1642 Co1593 2.214 . S
N1642 C1640 1.325 . S
N1642 C1641 1.261 . S
C1643 H1613 0.931 . S
C1643 C1640 1.357 . S
C1643 C1644 1.312 . S
C1644 H1615 0.930 . S
C1644 C1639 1.261 . S
C1644 C1643 1.312 . S
C1645 O1617 1.214 . S
C1645 O1625 1.234 . S
C1646 H1618 0.929 . S
C1646 C1649 1.391 . S
C1646 C1651 1.391 . S
C1647 H1619 0.929 . S
C1647 C1648 1.390 . S
C1647 N1650 1.391 . S
C1648 H1620 0.930 . S
C1648 C1647 1.390 . S
C1648 C1649 1.392 . S
C1649 H1621 0.929 . S
C1649 C1646 1.391 . S
C1649 C1648 1.392 . S
N1650 Co1594 2.257 . S
N1650 C1647 1.391 . S
N1650 C1651 1.388 . S
C1651 H1622 0.930 . S
C1651 C1646 1.391 . S
C1651 N1650 1.388 . S
Co1652 O1654 2.143 . S
Co1652 O1660 2.074 . S
Co1652 O1663 2.093 . S
Co1652 O1676 2.097 . S
Co1652 N1693 2.151 . S
Co1652 N1701 2.214 . S
Co1653 O1654 2.160 . S
Co1653 O1659 2.058 . S
Co1653 O1669 2.057 . S
Co1653 O1684 2.037 . S
Co1653 N1688 2.145 . S
Co1653 N1709 2.257 . S
O1654 Co1652 2.143 . S
O1654 Co1653 2.160 . S
C1655 O1656 1.278 . S
C1655 O1663 1.224 . S
O1656 C1655 1.278 . S
C1657 O1658 1.245 . S
C1657 O1669 1.232 . S
O1658 C1657 1.245 . S
O1659 Co1653 2.058 . S
O1659 C1685 1.269 . S
O1660 Co1652 2.074 . S
O1660 C1685 1.257 . S
H1661 C1686 0.930 . S
H1662 C1692 0.930 . S
O1663 Co1652 2.093 . S
O1663 C1655 1.224 . S
H1664 C1696 0.929 . S
H1665 C1698 0.930 . S
H1666 C1699 0.930 . S
H1667 C1697 0.929 . S
H1668 C1700 0.928 . S
O1669 Co1653 2.057 . S
O1669 C1657 1.232 . S
H1670 C1689 0.929 . S
H1671 C1690 0.929 . S
H1672 C1702 0.931 . S
H1673 C1694 0.929 . S
H1674 C1703 0.930 . S
H1675 C1695 0.931 . S
O1676 Co1652 2.097 . S
O1676 C1704 1.214 . S
H1677 C1705 0.929 . S
H1678 C1706 0.929 . S
H1679 C1707 0.930 . S
H1680 C1708 0.929 . S
H1681 C1710 0.930 . S
H1682 C1687 0.930 . S
H1683 C1691 0.930 . S
O1684 Co1653 2.037 . S
O1684 C1704 1.234 . S
C1685 O1659 1.269 . S
C1685 O1660 1.257 . S
C1686 H1661 0.930 . S
C1686 C1689 1.388 . S
C1686 C1691 1.418 . S
C1687 H1682 0.930 . S
C1687 C1690 1.404 . S
C1687 C1691 1.353 . S
N1688 Co1653 2.145 . S
N1688 C1689 1.397 . S
N1688 C1690 1.334 . S
C1689 H1670 0.929 . S
C1689 C1686 1.388 . S
C1689 N1688 1.397 . S
C1690 H1671 0.929 . S
C1690 C1687 1.404 . S
C1690 N1688 1.334 . S
C1691 H1683 0.930 . S
C1691 C1686 1.418 . S
C1691 C1687 1.353 . S
C1692 H1662 0.930 . S
C1692 N1693 1.330 . S
C1692 C1694 1.446 . S
N1693 Co1652 2.151 . S
N1693 C1692 1.330 . S
N1693 C1697 1.418 . S
C1694 H1673 0.929 . S
C1694 C1692 1.446 . S
C1694 C1695 1.332 . S
C1695 H1675 0.931 . S
C1695 C1694 1.332 . S
C1695 C1696 1.267 . S
C1696 H1664 0.929 . S
C1696 C1695 1.267 . S
C1696 C1697 1.251 . S
C1697 H1667 0.929 . S
C1697 N1693 1.418 . S
C1697 C1696 1.251 . S
C1698 H1665 0.930 . S
C1698 C1700 1.406 . S
C1698 C1703 1.261 . S
C1699 H1666 0.930 . S
C1699 N1701 1.325 . S
C1699 C1702 1.357 . S
C1700 H1668 0.928 . S
C1700 C1698 1.406 . S
C1700 N1701 1.261 . S
N1701 Co1652 2.214 . S
N1701 C1699 1.325 . S
N1701 C1700 1.261 . S
C1702 H1672 0.931 . S
C1702 C1699 1.357 . S
C1702 C1703 1.312 . S
C1703 H1674 0.930 . S
C1703 C1698 1.261 . S
C1703 C1702 1.312 . S
C1704 O1676 1.214 . S
C1704 O1684 1.234 . S
C1705 H1677 0.929 . S
C1705 C1708 1.391 . S
C1705 C1710 1.391 . S
C1706 H1678 0.929 . S
C1706 C1707 1.390 . S
C1706 N1709 1.391 . S
C1707 H1679 0.930 . S
C1707 C1706 1.390 . S
C1707 C1708 1.392 . S
C1708 H1680 0.929 . S
C1708 C1705 1.391 . S
C1708 C1707 1.392 . S
N1709 Co1653 2.257 . S
N1709 C1706 1.391 . S
N1709 C1710 1.388 . S
C1710 H1681 0.930 . S
C1710 C1705 1.391 . S
C1710 N1709 1.388 . S
Co1711 O1713 2.143 . S
Co1711 O1719 2.074 . S
Co1711 O1722 2.093 . S
Co1711 O1735 2.097 . S
Co1711 N1752 2.151 . S
Co1711 N1760 2.214 . S
Co1712 O1713 2.160 . S
Co1712 O1718 2.058 . S
Co1712 O1728 2.057 . S
Co1712 O1743 2.037 . S
Co1712 N1747 2.145 . S
Co1712 N1768 2.257 . S
O1713 Co1711 2.143 . S
O1713 Co1712 2.160 . S
C1714 O1715 1.278 . S
C1714 O1722 1.224 . S
O1715 C1714 1.278 . S
C1716 O1717 1.245 . S
C1716 O1728 1.232 . S
O1717 C1716 1.245 . S
O1718 Co1712 2.058 . S
O1718 C1744 1.269 . S
O1719 Co1711 2.074 . S
O1719 C1744 1.257 . S
H1720 C1745 0.930 . S
H1721 C1751 0.930 . S
O1722 Co1711 2.093 . S
O1722 C1714 1.224 . S
H1723 C1755 0.929 . S
H1724 C1757 0.930 . S
H1725 C1758 0.930 . S
H1726 C1756 0.929 . S
H1727 C1759 0.928 . S
O1728 Co1712 2.057 . S
O1728 C1716 1.232 . S
H1729 C1748 0.929 . S
H1730 C1749 0.929 . S
H1731 C1761 0.931 . S
H1732 C1753 0.929 . S
H1733 C1762 0.930 . S
H1734 C1754 0.931 . S
O1735 Co1711 2.097 . S
O1735 C1763 1.214 . S
H1736 C1764 0.929 . S
H1737 C1765 0.929 . S
H1738 C1766 0.930 . S
H1739 C1767 0.929 . S
H1740 C1769 0.930 . S
H1741 C1746 0.930 . S
H1742 C1750 0.930 . S
O1743 Co1712 2.037 . S
O1743 C1763 1.234 . S
C1744 O1718 1.269 . S
C1744 O1719 1.257 . S
C1745 H1720 0.930 . S
C1745 C1748 1.388 . S
C1745 C1750 1.418 . S
C1746 H1741 0.930 . S
C1746 C1749 1.404 . S
C1746 C1750 1.353 . S
N1747 Co1712 2.145 . S
N1747 C1748 1.397 . S
N1747 C1749 1.334 . S
C1748 H1729 0.929 . S
C1748 C1745 1.388 . S
C1748 N1747 1.397 . S
C1749 H1730 0.929 . S
C1749 C1746 1.404 . S
C1749 N1747 1.334 . S
C1750 H1742 0.930 . S
C1750 C1745 1.418 . S
C1750 C1746 1.353 . S
C1751 H1721 0.930 . S
C1751 N1752 1.330 . S
C1751 C1753 1.446 . S
N1752 Co1711 2.151 . S
N1752 C1751 1.330 . S
N1752 C1756 1.418 . S
C1753 H1732 0.929 . S
C1753 C1751 1.446 . S
C1753 C1754 1.332 . S
C1754 H1734 0.931 . S
C1754 C1753 1.332 . S
C1754 C1755 1.267 . S
C1755 H1723 0.929 . S
C1755 C1754 1.267 . S
C1755 C1756 1.251 . S
C1756 H1726 0.929 . S
C1756 N1752 1.418 . S
C1756 C1755 1.251 . S
C1757 H1724 0.930 . S
C1757 C1759 1.406 . S
C1757 C1762 1.261 . S
C1758 H1725 0.930 . S
C1758 N1760 1.325 . S
C1758 C1761 1.357 . S
C1759 H1727 0.928 . S
C1759 C1757 1.406 . S
C1759 N1760 1.261 . S
N1760 Co1711 2.214 . S
N1760 C1758 1.325 . S
N1760 C1759 1.261 . S
C1761 H1731 0.931 . S
C1761 C1758 1.357 . S
C1761 C1762 1.312 . S
C1762 H1733 0.930 . S
C1762 C1757 1.261 . S
C1762 C1761 1.312 . S
C1763 O1735 1.214 . S
C1763 O1743 1.234 . S
C1764 H1736 0.929 . S
C1764 C1767 1.391 . S
C1764 C1769 1.391 1_556 S
C1765 H1737 0.929 . S
C1765 C1766 1.390 1_554 S
C1765 N1768 1.391 . S
C1766 H1738 0.930 . S
C1766 C1765 1.390 1_556 S
C1766 C1767 1.392 . S
C1767 H1739 0.929 . S
C1767 C1764 1.391 . S
C1767 C1766 1.392 . S
N1768 Co1712 2.257 . S
N1768 C1765 1.391 . S
N1768 C1769 1.388 . S
C1769 H1740 0.930 . S
C1769 C1764 1.391 1_554 S
C1769 N1768 1.388 . S
Co1770 O1772 2.143 . S
Co1770 O1778 2.074 . S
Co1770 O1781 2.093 . S
Co1770 O1794 2.097 . S
Co1770 N1811 2.151 . S
Co1770 N1819 2.214 . S
Co1771 O1772 2.160 . S
Co1771 O1777 2.058 . S
Co1771 O1787 2.057 . S
Co1771 O1802 2.037 . S
Co1771 N1806 2.145 . S
Co1771 N1827 2.257 . S
O1772 Co1770 2.143 . S
O1772 Co1771 2.160 . S
C1773 O1774 1.278 . S
C1773 O1781 1.224 . S
O1774 C1773 1.278 . S
C1775 O1776 1.245 . S
C1775 O1787 1.232 . S
O1776 C1775 1.245 . S
O1777 Co1771 2.058 . S
O1777 C1803 1.269 . S
O1778 Co1770 2.074 . S
O1778 C1803 1.257 . S
H1779 C1804 0.930 . S
H1780 C1810 0.930 . S
O1781 Co1770 2.093 . S
O1781 C1773 1.224 . S
H1782 C1814 0.929 . S
H1783 C1816 0.930 . S
H1784 C1817 0.930 1_556 S
H1785 C1815 0.929 . S
H1786 C1818 0.928 . S
O1787 Co1771 2.057 . S
O1787 C1775 1.232 . S
H1788 C1807 0.929 . S
H1789 C1808 0.929 . S
H1790 C1820 0.931 . S
H1791 C1812 0.929 . S
H1792 C1821 0.930 . S
H1793 C1813 0.931 . S
O1794 Co1770 2.097 . S
O1794 C1822 1.214 . S
H1795 C1823 0.929 . S
H1796 C1824 0.929 . S
H1797 C1825 0.930 . S
H1798 C1826 0.929 . S
H1799 C1828 0.930 . S
H1800 C1805 0.930 . S
H1801 C1809 0.930 . S
O1802 Co1771 2.037 . S
O1802 C1822 1.234 . S
C1803 O1777 1.269 . S
C1803 O1778 1.257 . S
C1804 H1779 0.930 . S
C1804 C1807 1.388 . S
C1804 C1809 1.418 . S
C1805 H1800 0.930 . S
C1805 C1808 1.404 . S
C1805 C1809 1.353 . S
N1806 Co1771 2.145 . S
N1806 C1807 1.397 . S
N1806 C1808 1.334 . S
C1807 H1788 0.929 . S
C1807 C1804 1.388 . S
C1807 N1806 1.397 . S
C1808 H1789 0.929 . S
C1808 C1805 1.404 . S
C1808 N1806 1.334 . S
C1809 H1801 0.930 . S
C1809 C1804 1.418 . S
C1809 C1805 1.353 . S
C1810 H1780 0.930 . S
C1810 N1811 1.330 . S
C1810 C1812 1.446 . S
N1811 Co1770 2.151 . S
N1811 C1810 1.330 . S
N1811 C1815 1.418 1_556 S
C1812 H1791 0.929 . S
C1812 C1810 1.446 . S
C1812 C1813 1.332 1_556 S
C1813 H1793 0.931 . S
C1813 C1812 1.332 1_554 S
C1813 C1814 1.267 . S
C1814 H1782 0.929 . S
C1814 C1813 1.267 . S
C1814 C1815 1.251 . S
C1815 H1785 0.929 . S
C1815 N1811 1.418 1_554 S
C1815 C1814 1.251 . S
C1816 H1783 0.930 . S
C1816 C1818 1.406 . S
C1816 C1821 1.261 . S
C1817 H1784 0.930 1_554 S
C1817 N1819 1.325 1_554 S
C1817 C1820 1.357 . S
C1818 H1786 0.928 . S
C1818 C1816 1.406 . S
C1818 N1819 1.261 1_554 S
N1819 Co1770 2.214 . S
N1819 C1817 1.325 1_556 S
N1819 C1818 1.261 1_556 S
C1820 H1790 0.931 . S
C1820 C1817 1.357 . S
C1820 C1821 1.312 . S
C1821 H1792 0.930 . S
C1821 C1816 1.261 . S
C1821 C1820 1.312 . S
C1822 O1794 1.214 . S
C1822 O1802 1.234 . S
C1823 H1795 0.929 . S
C1823 C1826 1.391 . S
C1823 C1828 1.391 . S
C1824 H1796 0.929 . S
C1824 C1825 1.390 . S
C1824 N1827 1.391 . S
C1825 H1797 0.930 . S
C1825 C1824 1.390 . S
C1825 C1826 1.392 . S
C1826 H1798 0.929 . S
C1826 C1823 1.391 . S
C1826 C1825 1.392 . S
N1827 Co1771 2.257 . S
N1827 C1824 1.391 . S
N1827 C1828 1.388 . S
C1828 H1799 0.930 . S
C1828 C1823 1.391 . S
C1828 N1827 1.388 . S
Co1829 O1831 2.143 . S
Co1829 O1837 2.074 . S
Co1829 O1840 2.093 . S
Co1829 O1853 2.097 . S
Co1829 N1870 2.151 . S
Co1829 N1878 2.214 . S
Co1830 O1831 2.160 . S
Co1830 O1836 2.058 . S
Co1830 O1846 2.057 . S
Co1830 O1861 2.037 . S
Co1830 N1865 2.145 . S
Co1830 N1886 2.257 . S
O1831 Co1829 2.143 . S
O1831 Co1830 2.160 . S
C1832 O1833 1.278 . S
C1832 O1840 1.224 . S
O1833 C1832 1.278 . S
C1834 O1835 1.245 . S
C1834 O1846 1.232 . S
O1835 C1834 1.245 . S
O1836 Co1830 2.058 . S
O1836 C1862 1.269 . S
O1837 Co1829 2.074 . S
O1837 C1862 1.257 . S
H1838 C1863 0.930 . S
H1839 C1869 0.930 . S
O1840 Co1829 2.093 . S
O1840 C1832 1.224 . S
H1841 C1873 0.929 . S
H1842 C1875 0.930 . S
H1843 C1876 0.930 . S
H1844 C1874 0.929 . S
H1845 C1877 0.928 . S
O1846 Co1830 2.057 . S
O1846 C1834 1.232 . S
H1847 C1866 0.929 . S
H1848 C1867 0.929 . S
H1849 C1879 0.931 . S
H1850 C1871 0.929 . S
H1851 C1880 0.930 . S
H1852 C1872 0.931 . S
O1853 Co1829 2.097 . S
O1853 C1881 1.214 . S
H1854 C1882 0.929 . S
H1855 C1883 0.929 . S
H1856 C1884 0.930 . S
H1857 C1885 0.929 . S
H1858 C1887 0.930 . S
H1859 C1864 0.930 . S
H1860 C1868 0.930 . S
O1861 Co1830 2.037 . S
O1861 C1881 1.234 . S
C1862 O1836 1.269 . S
C1862 O1837 1.257 . S
C1863 H1838 0.930 . S
C1863 C1866 1.388 . S
C1863 C1868 1.418 . S
C1864 H1859 0.930 . S
C1864 C1867 1.404 . S
C1864 C1868 1.353 . S
N1865 Co1830 2.145 . S
N1865 C1866 1.397 . S
N1865 C1867 1.334 . S
C1866 H1847 0.929 . S
C1866 C1863 1.388 . S
C1866 N1865 1.397 . S
C1867 H1848 0.929 . S
C1867 C1864 1.404 . S
C1867 N1865 1.334 . S
C1868 H1860 0.930 . S
C1868 C1863 1.418 . S
C1868 C1864 1.353 . S
C1869 H1839 0.930 . S
C1869 N1870 1.330 . S
C1869 C1871 1.446 . S
N1870 Co1829 2.151 . S
N1870 C1869 1.330 . S
N1870 C1874 1.418 . S
C1871 H1850 0.929 . S
C1871 C1869 1.446 . S
C1871 C1872 1.332 . S
C1872 H1852 0.931 . S
C1872 C1871 1.332 . S
C1872 C1873 1.267 . S
C1873 H1841 0.929 . S
C1873 C1872 1.267 . S
C1873 C1874 1.251 . S
C1874 H1844 0.929 . S
C1874 N1870 1.418 . S
C1874 C1873 1.251 . S
C1875 H1842 0.930 . S
C1875 C1877 1.406 . S
C1875 C1880 1.261 . S
C1876 H1843 0.930 . S
C1876 N1878 1.325 . S
C1876 C1879 1.357 . S
C1877 H1845 0.928 . S
C1877 C1875 1.406 . S
C1877 N1878 1.261 . S
N1878 Co1829 2.214 . S
N1878 C1876 1.325 . S
N1878 C1877 1.261 . S
C1879 H1849 0.931 . S
C1879 C1876 1.357 . S
C1879 C1880 1.312 . S
C1880 H1851 0.930 . S
C1880 C1875 1.261 . S
C1880 C1879 1.312 . S
C1881 O1853 1.214 . S
C1881 O1861 1.234 . S
C1882 H1854 0.929 . S
C1882 C1885 1.391 . S
C1882 C1887 1.391 . S
C1883 H1855 0.929 . S
C1883 C1884 1.390 . S
C1883 N1886 1.391 . S
C1884 H1856 0.930 . S
C1884 C1883 1.390 . S
C1884 C1885 1.392 . S
C1885 H1857 0.929 . S
C1885 C1882 1.391 . S
C1885 C1884 1.392 . S
N1886 Co1830 2.257 . S
N1886 C1883 1.391 . S
N1886 C1887 1.388 . S
C1887 H1858 0.930 . S
C1887 C1882 1.391 . S
C1887 N1886 1.388 . S
H1888 C1894 0.930 . S
H1889 C1898 0.930 . S
H1890 C1903 0.929 . S
H1891 C1901 0.929 . S
H1892 C1896 0.929 1_545 S
H1893 C1902 0.929 1_565 S
C1894 H1888 0.930 . S
C1894 C1895 1.367 . S
C1894 C1902 1.378 . S
C1895 C1894 1.367 . S
C1895 C1903 1.433 . S
C1896 H1892 0.929 1_565 S
C1896 C1898 1.378 . S
C1896 C1900 1.350 . S
C1897 C1900 1.463 1_545 S
C1897 C1902 1.350 . S
C1897 N1905 1.427 . S
C1898 H1889 0.930 . S
C1898 C1896 1.378 . S
C1898 C1899 1.367 . S
C1899 C1898 1.367 . S
C1899 C1901 1.433 . S
C1900 C1896 1.350 . S
C1900 C1897 1.463 1_565 S
C1900 N1904 1.427 . S
C1901 H1891 0.929 . S
C1901 C1899 1.433 . S
C1901 N1904 1.384 . S
C1902 H1893 0.929 1_545 S
C1902 C1894 1.378 . S
C1902 C1897 1.350 . S
C1903 H1890 0.929 . S
C1903 C1895 1.433 . S
C1903 N1905 1.384 . S
N1904 C1900 1.427 . S
N1904 C1901 1.384 . S
N1905 C1897 1.427 . S
N1905 C1903 1.384 . S
H1906 C1912 0.930 . S
H1907 C1916 0.930 . S
H1908 C1921 0.929 . S
H1909 C1919 0.929 . S
H1910 C1914 0.929 . S
H1911 C1920 0.929 . S
C1912 H1906 0.930 . S
C1912 C1913 1.367 . S
C1912 C1920 1.378 . S
C1913 C1912 1.367 . S
C1913 C1921 1.433 . S
C1914 H1910 0.929 . S
C1914 C1916 1.378 . S
C1914 C1918 1.350 . S
C1915 C1918 1.463 . S
C1915 C1920 1.350 . S
C1915 N1923 1.427 . S
C1916 H1907 0.930 . S
C1916 C1914 1.378 . S
C1916 C1917 1.367 . S
C1917 C1916 1.367 . S
C1917 C1919 1.433 . S
C1918 C1914 1.350 . S
C1918 C1915 1.463 . S
C1918 N1922 1.427 . S
C1919 H1909 0.929 . S
C1919 C1917 1.433 . S
C1919 N1922 1.384 . S
C1920 H1911 0.929 . S
C1920 C1912 1.378 . S
C1920 C1915 1.350 . S
C1921 H1908 0.929 . S
C1921 C1913 1.433 . S
C1921 N1923 1.384 . S
N1922 C1918 1.427 . S
N1922 C1919 1.384 . S
N1923 C1915 1.427 . S
N1923 C1921 1.384 . S
H1924 C1930 0.930 . S
H1925 C1934 0.930 . S
H1926 C1939 0.929 . S
H1927 C1937 0.929 . S
H1928 C1932 0.929 . S
H1929 C1938 0.929 . S
C1930 H1924 0.930 . S
C1930 C1931 1.367 . S
C1930 C1938 1.378 . S
C1931 C1930 1.367 . S
C1931 C1939 1.433 . S
C1932 H1928 0.929 . S
C1932 C1934 1.378 . S
C1932 C1936 1.350 . S
C1933 C1936 1.463 1_545 S
C1933 C1938 1.350 . S
C1933 N1941 1.427 . S
C1934 H1925 0.930 . S
C1934 C1932 1.378 . S
C1934 C1935 1.367 . S
C1935 C1934 1.367 . S
C1935 C1937 1.433 . S
C1936 C1932 1.350 . S
C1936 C1933 1.463 1_565 S
C1936 N1940 1.427 . S
C1937 H1927 0.929 . S
C1937 C1935 1.433 . S
C1937 N1940 1.384 . S
C1938 H1929 0.929 . S
C1938 C1930 1.378 . S
C1938 C1933 1.350 . S
C1939 H1926 0.929 . S
C1939 C1931 1.433 . S
C1939 N1941 1.384 . S
N1940 C1936 1.427 . S
N1940 C1937 1.384 . S
N1941 C1933 1.427 . S
N1941 C1939 1.384 . S
H1942 C1948 0.930 . S
H1943 C1952 0.930 . S
H1944 C1957 0.929 . S
H1945 C1955 0.929 . S
H1946 C1950 0.929 . S
H1947 C1956 0.929 . S
C1948 H1942 0.930 . S
C1948 C1949 1.367 . S
C1948 C1956 1.378 . S
C1949 C1948 1.367 . S
C1949 C1957 1.433 . S
C1950 H1946 0.929 . S
C1950 C1952 1.378 . S
C1950 C1954 1.350 . S
C1951 C1954 1.463 1_556 S
C1951 C1956 1.350 . S
C1951 N1959 1.427 . S
C1952 H1943 0.930 . S
C1952 C1950 1.378 . S
C1952 C1953 1.367 . S
C1953 C1952 1.367 . S
C1953 C1955 1.433 . S
C1954 C1950 1.350 . S
C1954 C1951 1.463 1_554 S
C1954 N1958 1.427 . S
C1955 H1945 0.929 . S
C1955 C1953 1.433 . S
C1955 N1958 1.384 . S
C1956 H1947 0.929 . S
C1956 C1948 1.378 . S
C1956 C1951 1.350 . S
C1957 H1944 0.929 . S
C1957 C1949 1.433 . S
C1957 N1959 1.384 . S
N1958 C1954 1.427 . S
N1958 C1955 1.384 . S
N1959 C1951 1.427 . S
N1959 C1957 1.384 . S
H1960 C1966 0.930 . S
H1961 C1970 0.930 . S
H1962 C1975 0.929 . S
H1963 C1973 0.929 . S
H1964 C1968 0.929 1_565 S
H1965 C1974 0.929 1_545 S
C1966 H1960 0.930 . S
C1966 C1967 1.367 . S
C1966 C1974 1.378 . S
C1967 C1966 1.367 . S
C1967 C1975 1.433 . S
C1968 H1964 0.929 1_545 S
C1968 C1970 1.378 . S
C1968 C1972 1.350 . S
C1969 C1972 1.463 1_565 S
C1969 C1974 1.350 . S
C1969 N1977 1.427 . S
C1970 H1961 0.930 . S
C1970 C1968 1.378 . S
C1970 C1971 1.367 . S
C1971 C1970 1.367 . S
C1971 C1973 1.433 . S
C1972 C1968 1.350 . S
C1972 C1969 1.463 1_545 S
C1972 N1976 1.427 . S
C1973 H1963 0.929 . S
C1973 C1971 1.433 . S
C1973 N1976 1.384 . S
C1974 H1965 0.929 1_565 S
C1974 C1966 1.378 . S
C1974 C1969 1.350 . S
C1975 H1962 0.929 . S
C1975 C1967 1.433 . S
C1975 N1977 1.384 . S
N1976 C1972 1.427 . S
N1976 C1973 1.384 . S
N1977 C1969 1.427 . S
N1977 C1975 1.384 . S
H1978 C1984 0.930 . S
H1979 C1988 0.930 . S
H1980 C1993 0.929 . S
H1981 C1991 0.929 . S
H1982 C1986 0.929 . S
H1983 C1992 0.929 . S
C1984 H1978 0.930 . S
C1984 C1985 1.367 . S
C1984 C1992 1.378 . S
C1985 C1984 1.367 . S
C1985 C1993 1.433 . S
C1986 H1982 0.929 . S
C1986 C1988 1.378 . S
C1986 C1990 1.350 . S
C1987 C1990 1.463 . S
C1987 C1992 1.350 . S
C1987 N1995 1.427 . S
C1988 H1979 0.930 . S
C1988 C1986 1.378 . S
C1988 C1989 1.367 . S
C1989 C1988 1.367 . S
C1989 C1991 1.433 . S
C1990 C1986 1.350 . S
C1990 C1987 1.463 . S
C1990 N1994 1.427 . S
C1991 H1981 0.929 . S
C1991 C1989 1.433 . S
C1991 N1994 1.384 . S
C1992 H1983 0.929 . S
C1992 C1984 1.378 . S
C1992 C1987 1.350 . S
C1993 H1980 0.929 . S
C1993 C1985 1.433 . S
C1993 N1995 1.384 . S
N1994 C1990 1.427 . S
N1994 C1991 1.384 . S
N1995 C1987 1.427 . S
N1995 C1993 1.384 . S
H1996 C2002 0.930 . S
H1997 C2006 0.930 . S
H1998 C2011 0.929 . S
H1999 C2009 0.929 . S
H2000 C2004 0.929 . S
H2001 C2010 0.929 . S
C2002 H1996 0.930 . S
C2002 C2003 1.367 . S
C2002 C2010 1.378 . S
C2003 C2002 1.367 . S
C2003 C2011 1.433 . S
C2004 H2000 0.929 . S
C2004 C2006 1.378 . S
C2004 C2008 1.350 . S
C2005 C2008 1.463 1_565 S
C2005 C2010 1.350 . S
C2005 N2013 1.427 . S
C2006 H1997 0.930 . S
C2006 C2004 1.378 . S
C2006 C2007 1.367 . S
C2007 C2006 1.367 . S
C2007 C2009 1.433 . S
C2008 C2004 1.350 . S
C2008 C2005 1.463 1_545 S
C2008 N2012 1.427 . S
C2009 H1999 0.929 . S
C2009 C2007 1.433 . S
C2009 N2012 1.384 . S
C2010 H2001 0.929 . S
C2010 C2002 1.378 . S
C2010 C2005 1.350 . S
C2011 H1998 0.929 . S
C2011 C2003 1.433 . S
C2011 N2013 1.384 . S
N2012 C2008 1.427 . S
N2012 C2009 1.384 . S
N2013 C2005 1.427 . S
N2013 C2011 1.384 . S
H2014 C2020 0.930 . S
H2015 C2024 0.930 . S
H2016 C2029 0.929 . S
H2017 C2027 0.929 . S
H2018 C2022 0.929 . S
H2019 C2028 0.929 . S
C2020 H2014 0.930 . S
C2020 C2021 1.367 . S
C2020 C2028 1.378 . S
C2021 C2020 1.367 . S
C2021 C2029 1.433 . S
C2022 H2018 0.929 . S
C2022 C2024 1.378 . S
C2022 C2026 1.350 . S
C2023 C2026 1.463 1_556 S
C2023 C2028 1.350 . S
C2023 N2031 1.427 . S
C2024 H2015 0.930 . S
C2024 C2022 1.378 . S
C2024 C2025 1.367 . S
C2025 C2024 1.367 . S
C2025 C2027 1.433 . S
C2026 C2022 1.350 . S
C2026 C2023 1.463 1_554 S
C2026 N2030 1.427 . S
C2027 H2017 0.929 . S
C2027 C2025 1.433 . S
C2027 N2030 1.384 . S
C2028 H2019 0.929 . S
C2028 C2020 1.378 . S
C2028 C2023 1.350 . S
C2029 H2016 0.929 . S
C2029 C2021 1.433 . S
C2029 N2031 1.384 . S
N2030 C2026 1.427 . S
N2030 C2027 1.384 . S
N2031 C2023 1.427 . S
N2031 C2029 1.384 . S
H2032 C2038 0.930 . S
H2033 C2042 0.930 . S
H2034 C2047 0.929 . S
H2035 C2045 0.929 . S
H2036 C2040 0.929 . S
H2037 C2046 0.929 . S
C2038 H2032 0.930 . S
C2038 C2039 1.367 . S
C2038 C2046 1.378 . S
C2039 C2038 1.367 . S
C2039 C2047 1.433 . S
C2040 H2036 0.929 . S
C2040 C2042 1.378 . S
C2040 C2044 1.350 . S
C2041 C2044 1.463 . S
C2041 C2046 1.350 . S
C2041 N2049 1.427 . S
C2042 H2033 0.930 . S
C2042 C2040 1.378 . S
C2042 C2043 1.367 . S
C2043 C2042 1.367 . S
C2043 C2045 1.433 . S
C2044 C2040 1.350 . S
C2044 C2041 1.463 . S
C2044 N2048 1.427 . S
C2045 H2035 0.929 . S
C2045 C2043 1.433 . S
C2045 N2048 1.384 . S
C2046 H2037 0.929 . S
C2046 C2038 1.378 . S
C2046 C2041 1.350 . S
C2047 H2034 0.929 . S
C2047 C2039 1.433 . S
C2047 N2049 1.384 . S
N2048 C2044 1.427 . S
N2048 C2045 1.384 . S
N2049 C2041 1.427 . S
N2049 C2047 1.384 . S
H2050 C2056 0.930 . S
H2051 C2060 0.930 . S
H2052 C2065 0.929 . S
H2053 C2063 0.929 . S
H2054 C2058 0.929 . S
H2055 C2064 0.929 . S
C2056 H2050 0.930 . S
C2056 C2057 1.367 . S
C2056 C2064 1.378 . S
C2057 C2056 1.367 . S
C2057 C2065 1.433 . S
C2058 H2054 0.929 . S
C2058 C2060 1.378 . S
C2058 C2062 1.350 . S
C2059 C2062 1.463 1_556 S
C2059 C2064 1.350 . S
C2059 N2067 1.427 . S
C2060 H2051 0.930 . S
C2060 C2058 1.378 . S
C2060 C2061 1.367 . S
C2061 C2060 1.367 . S
C2061 C2063 1.433 . S
C2062 C2058 1.350 . S
C2062 C2059 1.463 1_554 S
C2062 N2066 1.427 . S
C2063 H2053 0.929 . S
C2063 C2061 1.433 . S
C2063 N2066 1.384 . S
C2064 H2055 0.929 . S
C2064 C2056 1.378 . S
C2064 C2059 1.350 . S
C2065 H2052 0.929 . S
C2065 C2057 1.433 . S
C2065 N2067 1.384 . S
N2066 C2062 1.427 . S
N2066 C2063 1.384 . S
N2067 C2059 1.427 . S
N2067 C2065 1.384 . S
H2068 C2074 0.930 . S
H2069 C2078 0.930 . S
H2070 C2083 0.929 . S
H2071 C2081 0.929 . S
H2072 C2076 0.929 . S
H2073 C2082 0.929 . S
C2074 H2068 0.930 . S
C2074 C2075 1.367 . S
C2074 C2082 1.378 . S
C2075 C2074 1.367 . S
C2075 C2083 1.433 . S
C2076 H2072 0.929 . S
C2076 C2078 1.378 . S
C2076 C2080 1.350 . S
C2077 C2080 1.463 . S
C2077 C2082 1.350 . S
C2077 N2085 1.427 . S
C2078 H2069 0.930 . S
C2078 C2076 1.378 . S
C2078 C2079 1.367 . S
C2079 C2078 1.367 . S
C2079 C2081 1.433 . S
C2080 C2076 1.350 . S
C2080 C2077 1.463 . S
C2080 N2084 1.427 . S
C2081 H2071 0.929 . S
C2081 C2079 1.433 . S
C2081 N2084 1.384 . S
C2082 H2073 0.929 . S
C2082 C2074 1.378 . S
C2082 C2077 1.350 . S
C2083 H2070 0.929 . S
C2083 C2075 1.433 . S
C2083 N2085 1.384 . S
N2084 C2080 1.427 . S
N2084 C2081 1.384 . S
N2085 C2077 1.427 . S
N2085 C2083 1.384 . S
H2086 C2092 0.930 . S
H2087 C2096 0.930 . S
H2088 C2101 0.929 . S
H2089 C2099 0.929 . S
H2090 C2094 0.929 . S
H2091 C2100 0.929 . S
C2092 H2086 0.930 . S
C2092 C2093 1.367 . S
C2092 C2100 1.378 . S
C2093 C2092 1.367 . S
C2093 C2101 1.433 . S
C2094 H2090 0.929 . S
C2094 C2096 1.378 . S
C2094 C2098 1.350 . S
C2095 C2098 1.463 . S
C2095 C2100 1.350 . S
C2095 N2103 1.427 . S
C2096 H2087 0.930 . S
C2096 C2094 1.378 . S
C2096 C2097 1.367 . S
C2097 C2096 1.367 . S
C2097 C2099 1.433 . S
C2098 C2094 1.350 . S
C2098 C2095 1.463 . S
C2098 N2102 1.427 . S
C2099 H2089 0.929 . S
C2099 C2097 1.433 . S
C2099 N2102 1.384 . S
C2100 H2091 0.929 . S
C2100 C2092 1.378 . S
C2100 C2095 1.350 . S
C2101 H2088 0.929 . S
C2101 C2093 1.433 . S
C2101 N2103 1.384 . S
N2102 C2098 1.427 . S
N2102 C2099 1.384 . S
N2103 C2095 1.427 . S
N2103 C2101 1.384 . S
H2104 C2110 0.930 . S
H2105 C2114 0.930 . S
H2106 C2119 0.929 . S
H2107 C2117 0.929 . S
H2108 C2112 0.929 . S
H2109 C2118 0.929 . S
C2110 H2104 0.930 . S
C2110 C2111 1.367 . S
C2110 C2118 1.378 . S
C2111 C2110 1.367 . S
C2111 C2119 1.433 . S
C2112 H2108 0.929 . S
C2112 C2114 1.378 . S
C2112 C2116 1.350 . S
C2113 C2116 1.463 . S
C2113 C2118 1.350 . S
C2113 N2121 1.427 . S
C2114 H2105 0.930 . S
C2114 C2112 1.378 . S
C2114 C2115 1.367 . S
C2115 C2114 1.367 . S
C2115 C2117 1.433 . S
C2116 C2112 1.350 . S
C2116 C2113 1.463 . S
C2116 N2120 1.427 . S
C2117 H2107 0.929 . S
C2117 C2115 1.433 . S
C2117 N2120 1.384 . S
C2118 H2109 0.929 . S
C2118 C2110 1.378 . S
C2118 C2113 1.350 . S
C2119 H2106 0.929 . S
C2119 C2111 1.433 . S
C2119 N2121 1.384 . S
N2120 C2116 1.427 . S
N2120 C2117 1.384 . S
N2121 C2113 1.427 . S
N2121 C2119 1.384 . S
H2122 C2128 0.930 . S
H2123 C2132 0.930 . S
H2124 C2137 0.929 . S
H2125 C2135 0.929 . S
H2126 C2130 0.929 . S
H2127 C2136 0.929 . S
C2128 H2122 0.930 . S
C2128 C2129 1.367 . S
C2128 C2136 1.378 . S
C2129 C2128 1.367 . S
C2129 C2137 1.433 . S
C2130 H2126 0.929 . S
C2130 C2132 1.378 . S
C2130 C2134 1.350 . S
C2131 C2134 1.463 1_554 S
C2131 C2136 1.350 . S
C2131 N2139 1.420 1_554 S
C2132 H2123 0.930 . S
C2132 C2130 1.378 . S
C2132 C2133 1.367 . S
C2133 C2132 1.367 . S
C2133 C2135 1.433 . S
C2134 C2130 1.350 . S
C2134 C2131 1.463 1_556 S
C2134 N2138 1.420 1_556 S
C2135 H2125 0.929 . S
C2135 C2133 1.433 . S
C2135 N2138 1.371 1_556 S
C2136 H2127 0.929 . S
C2136 C2128 1.378 . S
C2136 C2131 1.350 . S
C2137 H2124 0.929 . S
C2137 C2129 1.433 . S
C2137 N2139 1.371 1_554 S
N2138 C2134 1.420 1_554 S
N2138 C2135 1.371 1_554 S
N2139 C2131 1.420 1_556 S
N2139 C2137 1.371 1_556 S
H2140 C2146 0.930 . S
H2141 C2150 0.930 . S
H2142 C2155 0.929 . S
H2143 C2153 0.929 . S
H2144 C2148 0.929 . S
H2145 C2154 0.929 . S
C2146 H2140 0.930 . S
C2146 C2147 1.367 . S
C2146 C2154 1.378 . S
C2147 C2146 1.367 . S
C2147 C2155 1.433 . S
C2148 H2144 0.929 . S
C2148 C2150 1.378 . S
C2148 C2152 1.350 . S
C2149 C2152 1.463 . S
C2149 C2154 1.350 . S
C2149 N2157 1.427 . S
C2150 H2141 0.930 . S
C2150 C2148 1.378 . S
C2150 C2151 1.367 . S
C2151 C2150 1.367 . S
C2151 C2153 1.433 . S
C2152 C2148 1.350 . S
C2152 C2149 1.463 . S
C2152 N2156 1.427 . S
C2153 H2143 0.929 . S
C2153 C2151 1.433 . S
C2153 N2156 1.384 . S
C2154 H2145 0.929 . S
C2154 C2146 1.378 . S
C2154 C2149 1.350 . S
C2155 H2142 0.929 . S
C2155 C2147 1.433 . S
C2155 N2157 1.384 . S
N2156 C2152 1.427 . S
N2156 C2153 1.384 . S
N2157 C2149 1.427 . S
N2157 C2155 1.384 . S
H2158 C2164 0.930 . S
H2159 C2168 0.930 . S
H2160 C2173 0.929 . S
H2161 C2171 0.929 . S
H2162 C2166 0.929 . S
H2163 C2172 0.929 . S
C2164 H2158 0.930 . S
C2164 C2165 1.367 . S
C2164 C2172 1.378 . S
C2165 C2164 1.367 . S
C2165 C2173 1.433 . S
C2166 H2162 0.929 . S
C2166 C2168 1.378 . S
C2166 C2170 1.350 . S
C2167 C2170 1.463 . S
C2167 C2172 1.350 . S
C2167 N2175 1.427 . S
C2168 H2159 0.930 . S
C2168 C2166 1.378 . S
C2168 C2169 1.367 . S
C2169 C2168 1.367 . S
C2169 C2171 1.433 . S
C2170 C2166 1.350 . S
C2170 C2167 1.463 . S
C2170 N2174 1.427 . S
C2171 H2161 0.929 . S
C2171 C2169 1.433 . S
C2171 N2174 1.384 . S
C2172 H2163 0.929 . S
C2172 C2164 1.378 . S
C2172 C2167 1.350 . S
C2173 H2160 0.929 . S
C2173 C2165 1.433 . S
C2173 N2175 1.384 . S
N2174 C2170 1.427 . S
N2174 C2171 1.384 . S
N2175 C2167 1.427 . S
N2175 C2173 1.384 . S
H2176 C2182 0.930 . S
H2177 C2186 0.930 . S
H2178 C2191 0.929 . S
H2179 C2189 0.929 . S
H2180 C2184 0.929 . S
H2181 C2190 0.929 . S
C2182 H2176 0.930 . S
C2182 C2183 1.367 . S
C2182 C2190 1.378 . S
C2183 C2182 1.367 . S
C2183 C2191 1.433 . S
C2184 H2180 0.929 . S
C2184 C2186 1.378 . S
C2184 C2188 1.350 . S
C2185 C2188 1.463 . S
C2185 C2190 1.350 . S
C2185 N2193 1.427 . S
C2186 H2177 0.930 . S
C2186 C2184 1.378 . S
C2186 C2187 1.367 . S
C2187 C2186 1.367 . S
C2187 C2189 1.433 . S
C2188 C2184 1.350 . S
C2188 C2185 1.463 . S
C2188 N2192 1.427 . S
C2189 H2179 0.929 . S
C2189 C2187 1.433 . S
C2189 N2192 1.384 . S
C2190 H2181 0.929 . S
C2190 C2182 1.378 . S
C2190 C2185 1.350 . S
C2191 H2178 0.929 . S
C2191 C2183 1.433 . S
C2191 N2193 1.384 . S
N2192 C2188 1.427 . S
N2192 C2189 1.384 . S
N2193 C2185 1.427 . S
N2193 C2191 1.384 . S
H2194 C2200 0.930 . S
H2195 C2204 0.930 . S
H2196 C2209 0.929 . S
H2197 C2207 0.929 . S
H2198 C2202 0.929 . S
H2199 C2208 0.929 . S
C2200 H2194 0.930 . S
C2200 C2201 1.367 . S
C2200 C2208 1.378 1_655 S
C2201 C2200 1.367 . S
C2201 C2209 1.433 . S
C2202 H2198 0.929 . S
C2202 C2204 1.378 . S
C2202 C2206 1.350 . S
C2203 C2206 1.463 . S
C2203 C2208 1.350 . S
C2203 N2211 1.427 . S
C2204 H2195 0.930 . S
C2204 C2202 1.378 . S
C2204 C2205 1.367 . S
C2205 C2204 1.367 . S
C2205 C2207 1.433 . S
C2206 C2202 1.350 . S
C2206 C2203 1.463 . S
C2206 N2210 1.427 . S
C2207 H2197 0.929 . S
C2207 C2205 1.433 . S
C2207 N2210 1.384 . S
C2208 H2199 0.929 . S
C2208 C2200 1.378 1_455 S
C2208 C2203 1.350 . S
C2209 H2196 0.929 . S
C2209 C2201 1.433 . S
C2209 N2211 1.384 1_655 S
N2210 C2206 1.427 . S
N2210 C2207 1.384 . S
N2211 C2203 1.427 . S
N2211 C2209 1.384 1_455 S
H2212 C2218 0.930 . S
H2213 C2222 0.930 . S
H2214 C2227 0.929 . S
H2215 C2225 0.929 . S
H2216 C2220 0.929 . S
H2217 C2226 0.929 . S
C2218 H2212 0.930 . S
C2218 C2219 1.367 . S
C2218 C2226 1.378 . S
C2219 C2218 1.367 . S
C2219 C2227 1.433 . S
C2220 H2216 0.929 . S
C2220 C2222 1.378 . S
C2220 C2224 1.350 . S
C2221 C2224 1.463 . S
C2221 C2226 1.350 . S
C2221 N2229 1.427 . S
C2222 H2213 0.930 . S
C2222 C2220 1.378 . S
C2222 C2223 1.367 . S
C2223 C2222 1.367 . S
C2223 C2225 1.433 . S
C2224 C2220 1.350 . S
C2224 C2221 1.463 . S
C2224 N2228 1.427 . S
C2225 H2215 0.929 . S
C2225 C2223 1.433 . S
C2225 N2228 1.384 . S
C2226 H2217 0.929 . S
C2226 C2218 1.378 . S
C2226 C2221 1.350 . S
C2227 H2214 0.929 . S
C2227 C2219 1.433 . S
C2227 N2229 1.384 . S
N2228 C2224 1.427 . S
N2228 C2225 1.384 . S
N2229 C2221 1.427 . S
N2229 C2227 1.384 . S
H2230 C2236 0.930 . S
H2231 C2240 0.930 . S
H2232 C2245 0.929 . S
H2233 C2243 0.929 . S
H2234 C2238 0.929 . S
H2235 C2244 0.929 . S
C2236 H2230 0.930 . S
C2236 C2237 1.367 . S
C2236 C2244 1.378 . S
C2237 C2236 1.367 . S
C2237 C2245 1.433 . S
C2238 H2234 0.929 . S
C2238 C2240 1.378 . S
C2238 C2242 1.350 . S
C2239 C2242 1.463 . S
C2239 C2244 1.350 . S
C2239 N2247 1.427 . S
C2240 H2231 0.930 . S
C2240 C2238 1.378 . S
C2240 C2241 1.367 . S
C2241 C2240 1.367 . S
C2241 C2243 1.433 . S
C2242 C2238 1.350 . S
C2242 C2239 1.463 . S
C2242 N2246 1.427 . S
C2243 H2233 0.929 . S
C2243 C2241 1.433 . S
C2243 N2246 1.384 . S
C2244 H2235 0.929 . S
C2244 C2236 1.378 . S
C2244 C2239 1.350 . S
C2245 H2232 0.929 . S
C2245 C2237 1.433 . S
C2245 N2247 1.384 . S
N2246 C2242 1.427 . S
N2246 C2243 1.384 . S
N2247 C2239 1.427 . S
N2247 C2245 1.384 . S
H2248 C2254 0.930 . S
H2249 C2258 0.930 . S
H2250 C2263 0.929 . S
H2251 C2261 0.929 . S
H2252 C2256 0.929 . S
H2253 C2262 0.929 . S
C2254 H2248 0.930 . S
C2254 C2255 1.367 . S
C2254 C2262 1.378 . S
C2255 C2254 1.367 . S
C2255 C2263 1.433 . S
C2256 H2252 0.929 . S
C2256 C2258 1.378 . S
C2256 C2260 1.350 . S
C2257 C2260 1.463 . S
C2257 C2262 1.350 . S
C2257 N2265 1.427 . S
C2258 H2249 0.930 . S
C2258 C2256 1.378 . S
C2258 C2259 1.367 . S
C2259 C2258 1.367 . S
C2259 C2261 1.433 . S
C2260 C2256 1.350 . S
C2260 C2257 1.463 . S
C2260 N2264 1.427 . S
C2261 H2251 0.929 . S
C2261 C2259 1.433 . S
C2261 N2264 1.384 . S
C2262 H2253 0.929 . S
C2262 C2254 1.378 . S
C2262 C2257 1.350 . S
C2263 H2250 0.929 . S
C2263 C2255 1.433 . S
C2263 N2265 1.384 . S
N2264 C2260 1.427 . S
N2264 C2261 1.384 . S
N2265 C2257 1.427 . S
N2265 C2263 1.384 . S
H2266 C2272 0.930 . S
H2267 C2276 0.930 . S
H2268 C2281 0.929 . S
H2269 C2279 0.929 . S
H2270 C2274 0.929 . S
H2271 C2280 0.929 . S
C2272 H2266 0.930 . S
C2272 C2273 1.367 . S
C2272 C2280 1.378 . S
C2273 C2272 1.367 . S
C2273 C2281 1.433 . S
C2274 H2270 0.929 . S
C2274 C2276 1.378 . S
C2274 C2278 1.350 . S
C2275 C2278 1.463 . S
C2275 C2280 1.350 . S
C2275 N2283 1.427 . S
C2276 H2267 0.930 . S
C2276 C2274 1.378 . S
C2276 C2277 1.367 . S
C2277 C2276 1.367 . S
C2277 C2279 1.433 . S
C2278 C2274 1.350 . S
C2278 C2275 1.463 . S
C2278 N2282 1.427 . S
C2279 H2269 0.929 . S
C2279 C2277 1.433 . S
C2279 N2282 1.384 . S
C2280 H2271 0.929 . S
C2280 C2272 1.378 . S
C2280 C2275 1.350 . S
C2281 H2268 0.929 . S
C2281 C2273 1.433 . S
C2281 N2283 1.384 . S
N2282 C2278 1.427 . S
N2282 C2279 1.384 . S
N2283 C2275 1.427 . S
N2283 C2281 1.384 . S
H2284 C2290 0.930 . S
H2285 C2294 0.930 . S
H2286 C2299 0.929 . S
H2287 C2297 0.929 . S
H2288 C2292 0.929 . S
H2289 C2298 0.929 . S
C2290 H2284 0.930 . S
C2290 C2291 1.367 . S
C2290 C2298 1.378 . S
C2291 C2290 1.367 . S
C2291 C2299 1.433 . S
C2292 H2288 0.929 . S
C2292 C2294 1.378 . S
C2292 C2296 1.350 . S
C2293 C2296 1.463 . S
C2293 C2298 1.350 . S
C2293 N2301 1.427 . S
C2294 H2285 0.930 . S
C2294 C2292 1.378 . S
C2294 C2295 1.367 . S
C2295 C2294 1.367 . S
C2295 C2297 1.433 . S
C2296 C2292 1.350 . S
C2296 C2293 1.463 . S
C2296 N2300 1.427 . S
C2297 H2287 0.929 . S
C2297 C2295 1.433 . S
C2297 N2300 1.384 . S
C2298 H2289 0.929 . S
C2298 C2290 1.378 . S
C2298 C2293 1.350 . S
C2299 H2286 0.929 . S
C2299 C2291 1.433 . S
C2299 N2301 1.384 . S
N2300 C2296 1.427 . S
N2300 C2297 1.384 . S
N2301 C2293 1.427 . S
N2301 C2299 1.384 . S
H2302 C2308 0.930 . S
H2303 C2312 0.930 . S
H2304 C2317 0.929 . S
H2305 C2315 0.929 . S
H2306 C2310 0.929 . S
H2307 C2316 0.929 . S
C2308 H2302 0.930 . S
C2308 C2309 1.367 . S
C2308 C2316 1.378 . S
C2309 C2308 1.367 . S
C2309 C2317 1.433 . S
C2310 H2306 0.929 . S
C2310 C2312 1.378 1_455 S
C2310 C2314 1.350 . S
C2311 C2314 1.463 . S
C2311 C2316 1.350 . S
C2311 N2319 1.427 . S
C2312 H2303 0.930 . S
C2312 C2310 1.378 1_655 S
C2312 C2313 1.367 . S
C2313 C2312 1.367 . S
C2313 C2315 1.433 . S
C2314 C2310 1.350 . S
C2314 C2311 1.463 . S
C2314 N2318 1.427 . S
C2315 H2305 0.929 . S
C2315 C2313 1.433 . S
C2315 N2318 1.384 1_655 S
C2316 H2307 0.929 . S
C2316 C2308 1.378 . S
C2316 C2311 1.350 . S
C2317 H2304 0.929 . S
C2317 C2309 1.433 . S
C2317 N2319 1.384 . S
N2318 C2314 1.427 . S
N2318 C2315 1.384 1_455 S
N2319 C2311 1.427 . S
N2319 C2317 1.384 . S
H2320 C2326 0.930 . S
H2321 C2330 0.930 . S
H2322 C2335 0.929 . S
H2323 C2333 0.929 . S
H2324 C2328 0.929 . S
H2325 C2334 0.929 . S
C2326 H2320 0.930 . S
C2326 C2327 1.367 . S
C2326 C2334 1.378 . S
C2327 C2326 1.367 . S
C2327 C2335 1.433 . S
C2328 H2324 0.929 . S
C2328 C2330 1.378 . S
C2328 C2332 1.350 . S
C2329 C2332 1.463 . S
C2329 C2334 1.350 . S
C2329 N2337 1.427 . S
C2330 H2321 0.930 . S
C2330 C2328 1.378 . S
C2330 C2331 1.367 . S
C2331 C2330 1.367 . S
C2331 C2333 1.433 . S
C2332 C2328 1.350 . S
C2332 C2329 1.463 . S
C2332 N2336 1.427 . S
C2333 H2323 0.929 . S
C2333 C2331 1.433 . S
C2333 N2336 1.384 . S
C2334 H2325 0.929 . S
C2334 C2326 1.378 . S
C2334 C2329 1.350 . S
C2335 H2322 0.929 . S
C2335 C2327 1.433 . S
C2335 N2337 1.384 . S
N2336 C2332 1.427 . S
N2336 C2333 1.384 . S
N2337 C2329 1.427 . S
N2337 C2335 1.384 . S
H2338 C2344 0.930 . S
H2339 C2348 0.930 . S
H2340 C2353 0.929 . S
H2341 C2351 0.929 . S
H2342 C2346 0.929 . S
H2343 C2352 0.929 . S
C2344 H2338 0.930 . S
C2344 C2345 1.367 . S
C2344 C2352 1.378 . S
C2345 C2344 1.367 . S
C2345 C2353 1.433 . S
C2346 H2342 0.929 . S
C2346 C2348 1.378 1_655 S
C2346 C2350 1.350 . S
C2347 C2350 1.463 . S
C2347 C2352 1.350 . S
C2347 N2355 1.427 . S
C2348 H2339 0.930 . S
C2348 C2346 1.378 1_455 S
C2348 C2349 1.367 . S
C2349 C2348 1.367 . S
C2349 C2351 1.433 . S
C2350 C2346 1.350 . S
C2350 C2347 1.463 . S
C2350 N2354 1.427 . S
C2351 H2341 0.929 . S
C2351 C2349 1.433 . S
C2351 N2354 1.384 1_455 S
C2352 H2343 0.929 . S
C2352 C2344 1.378 . S
C2352 C2347 1.350 . S
C2353 H2340 0.929 . S
C2353 C2345 1.433 . S
C2353 N2355 1.384 . S
N2354 C2350 1.427 . S
N2354 C2351 1.384 1_655 S
N2355 C2347 1.427 . S
N2355 C2353 1.384 . S
H2356 C2362 0.930 . S
H2357 C2366 0.930 . S
H2358 C2371 0.929 . S
H2359 C2369 0.929 . S
H2360 C2364 0.929 . S
H2361 C2370 0.929 . S
C2362 H2356 0.930 . S
C2362 C2363 1.367 . S
C2362 C2370 1.378 . S
C2363 C2362 1.367 . S
C2363 C2371 1.433 . S
C2364 H2360 0.929 . S
C2364 C2366 1.378 . S
C2364 C2368 1.350 . S
C2365 C2368 1.463 . S
C2365 C2370 1.350 . S
C2365 N2373 1.427 . S
C2366 H2357 0.930 . S
C2366 C2364 1.378 . S
C2366 C2367 1.367 . S
C2367 C2366 1.367 . S
C2367 C2369 1.433 . S
C2368 C2364 1.350 . S
C2368 C2365 1.463 . S
C2368 N2372 1.427 . S
C2369 H2359 0.929 . S
C2369 C2367 1.433 . S
C2369 N2372 1.384 . S
C2370 H2361 0.929 . S
C2370 C2362 1.378 . S
C2370 C2365 1.350 . S
C2371 H2358 0.929 . S
C2371 C2363 1.433 . S
C2371 N2373 1.384 . S
N2372 C2368 1.427 . S
N2372 C2369 1.384 . S
N2373 C2365 1.427 . S
N2373 C2371 1.384 . S
H2374 C2380 0.930 . S
H2375 C2384 0.930 . S
H2376 C2389 0.929 . S
H2377 C2387 0.929 . S
H2378 C2382 0.929 . S
H2379 C2388 0.929 . S
C2380 H2374 0.930 . S
C2380 C2381 1.367 . S
C2380 C2388 1.378 . S
C2381 C2380 1.367 . S
C2381 C2389 1.433 . S
C2382 H2378 0.929 . S
C2382 C2384 1.378 . S
C2382 C2386 1.350 . S
C2383 C2386 1.463 . S
C2383 C2388 1.350 . S
C2383 N2391 1.427 . S
C2384 H2375 0.930 . S
C2384 C2382 1.378 . S
C2384 C2385 1.367 . S
C2385 C2384 1.367 . S
C2385 C2387 1.433 . S
C2386 C2382 1.350 . S
C2386 C2383 1.463 . S
C2386 N2390 1.427 . S
C2387 H2377 0.929 . S
C2387 C2385 1.433 . S
C2387 N2390 1.384 . S
C2388 H2379 0.929 . S
C2388 C2380 1.378 . S
C2388 C2383 1.350 . S
C2389 H2376 0.929 . S
C2389 C2381 1.433 . S
C2389 N2391 1.384 . S
N2390 C2386 1.427 . S
N2390 C2387 1.384 . S
N2391 C2383 1.427 . S
N2391 C2389 1.384 . S
H2392 C2398 0.930 . S
H2393 C2402 0.930 . S
H2394 C2407 0.929 . S
H2395 C2405 0.929 . S
H2396 C2400 0.929 . S
H2397 C2406 0.929 . S
C2398 H2392 0.930 . S
C2398 C2399 1.367 . S
C2398 C2406 1.378 . S
C2399 C2398 1.367 . S
C2399 C2407 1.433 . S
C2400 H2396 0.929 . S
C2400 C2402 1.378 . S
C2400 C2404 1.350 . S
C2401 C2404 1.463 . S
C2401 C2406 1.350 . S
C2401 N2409 1.427 . S
C2402 H2393 0.930 . S
C2402 C2400 1.378 . S
C2402 C2403 1.367 . S
C2403 C2402 1.367 . S
C2403 C2405 1.433 . S
C2404 C2400 1.350 . S
C2404 C2401 1.463 . S
C2404 N2408 1.427 . S
C2405 H2395 0.929 . S
C2405 C2403 1.433 . S
C2405 N2408 1.384 . S
C2406 H2397 0.929 . S
C2406 C2398 1.378 . S
C2406 C2401 1.350 . S
C2407 H2394 0.929 . S
C2407 C2399 1.433 . S
C2407 N2409 1.384 . S
N2408 C2404 1.427 . S
N2408 C2405 1.384 . S
N2409 C2401 1.427 . S
N2409 C2407 1.384 . S
H2410 C2416 0.930 . S
H2411 C2420 0.930 . S
H2412 C2425 0.929 . S
H2413 C2423 0.929 . S
H2414 C2418 0.929 . S
H2415 C2424 0.929 . S
C2416 H2410 0.930 . S
C2416 C2417 1.367 . S
C2416 C2424 1.378 . S
C2417 C2416 1.367 . S
C2417 C2425 1.433 . S
C2418 H2414 0.929 . S
C2418 C2420 1.378 . S
C2418 C2422 1.350 . S
C2419 C2422 1.463 . S
C2419 C2424 1.350 . S
C2419 N2427 1.427 . S
C2420 H2411 0.930 . S
C2420 C2418 1.378 . S
C2420 C2421 1.367 . S
C2421 C2420 1.367 . S
C2421 C2423 1.433 . S
C2422 C2418 1.350 . S
C2422 C2419 1.463 . S
C2422 N2426 1.427 . S
C2423 H2413 0.929 . S
C2423 C2421 1.433 . S
C2423 N2426 1.384 . S
C2424 H2415 0.929 . S
C2424 C2416 1.378 . S
C2424 C2419 1.350 . S
C2425 H2412 0.929 . S
C2425 C2417 1.433 . S
C2425 N2427 1.384 . S
N2426 C2422 1.427 . S
N2426 C2423 1.384 . S
N2427 C2419 1.427 . S
N2427 C2425 1.384 . S
H2428 C2434 0.930 . S
H2429 C2438 0.930 . S
H2430 C2443 0.929 . S
H2431 C2441 0.929 . S
H2432 C2436 0.929 . S
H2433 C2442 0.929 . S
C2434 H2428 0.930 . S
C2434 C2435 1.367 . S
C2434 C2442 1.378 . S
C2435 C2434 1.367 . S
C2435 C2443 1.433 . S
C2436 H2432 0.929 . S
C2436 C2438 1.378 . S
C2436 C2440 1.350 . S
C2437 C2440 1.463 . S
C2437 C2442 1.350 . S
C2437 N2445 1.427 . S
C2438 H2429 0.930 . S
C2438 C2436 1.378 . S
C2438 C2439 1.367 . S
C2439 C2438 1.367 . S
C2439 C2441 1.433 . S
C2440 C2436 1.350 . S
C2440 C2437 1.463 . S
C2440 N2444 1.427 . S
C2441 H2431 0.929 . S
C2441 C2439 1.433 . S
C2441 N2444 1.384 . S
C2442 H2433 0.929 . S
C2442 C2434 1.378 . S
C2442 C2437 1.350 . S
C2443 H2430 0.929 . S
C2443 C2435 1.433 . S
C2443 N2445 1.384 . S
N2444 C2440 1.427 . S
N2444 C2441 1.384 . S
N2445 C2437 1.427 . S
N2445 C2443 1.384 . S
H2446 C2452 0.930 . S
H2447 C2456 0.930 . S
H2448 C2461 0.929 . S
H2449 C2459 0.929 . S
H2450 C2454 0.929 . S
H2451 C2460 0.929 . S
C2452 H2446 0.930 . S
C2452 C2453 1.367 . S
C2452 C2460 1.378 . S
C2453 C2452 1.367 . S
C2453 C2461 1.433 . S
C2454 H2450 0.929 . S
C2454 C2456 1.378 1_655 S
C2454 C2458 1.350 . S
C2455 C2458 1.463 . S
C2455 C2460 1.350 . S
C2455 N2463 1.427 . S
C2456 H2447 0.930 . S
C2456 C2454 1.378 1_455 S
C2456 C2457 1.367 . S
C2457 C2456 1.367 . S
C2457 C2459 1.433 . S
C2458 C2454 1.350 . S
C2458 C2455 1.463 . S
C2458 N2462 1.427 . S
C2459 H2449 0.929 . S
C2459 C2457 1.433 . S
C2459 N2462 1.384 1_455 S
C2460 H2451 0.929 . S
C2460 C2452 1.378 . S
C2460 C2455 1.350 . S
C2461 H2448 0.929 . S
C2461 C2453 1.433 . S
C2461 N2463 1.384 . S
N2462 C2458 1.427 . S
N2462 C2459 1.384 1_655 S
N2463 C2455 1.427 . S
N2463 C2461 1.384 . S
H2464 C2470 0.930 . S
H2465 C2474 0.930 . S
H2466 C2479 0.929 . S
H2467 C2477 0.929 . S
H2468 C2472 0.929 . S
H2469 C2478 0.929 . S
C2470 H2464 0.930 . S
C2470 C2471 1.367 . S
C2470 C2478 1.378 . S
C2471 C2470 1.367 . S
C2471 C2479 1.433 . S
C2472 H2468 0.929 . S
C2472 C2474 1.378 . S
C2472 C2476 1.350 . S
C2473 C2476 1.463 . S
C2473 C2478 1.350 . S
C2473 N2481 1.427 . S
C2474 H2465 0.930 . S
C2474 C2472 1.378 . S
C2474 C2475 1.367 . S
C2475 C2474 1.367 . S
C2475 C2477 1.433 . S
C2476 C2472 1.350 . S
C2476 C2473 1.463 . S
C2476 N2480 1.427 . S
C2477 H2467 0.929 . S
C2477 C2475 1.433 . S
C2477 N2480 1.384 . S
C2478 H2469 0.929 . S
C2478 C2470 1.378 . S
C2478 C2473 1.350 . S
C2479 H2466 0.929 . S
C2479 C2471 1.433 . S
C2479 N2481 1.384 . S
N2480 C2476 1.427 . S
N2480 C2477 1.384 . S
N2481 C2473 1.427 . S
N2481 C2479 1.384 . S
H2482 C2488 0.930 . S
H2483 C2492 0.930 . S
H2484 C2497 0.929 . S
H2485 C2495 0.929 . S
H2486 C2490 0.929 . S
H2487 C2496 0.929 . S
C2488 H2482 0.930 . S
C2488 C2489 1.367 . S
C2488 C2496 1.378 . S
C2489 C2488 1.367 . S
C2489 C2497 1.433 . S
C2490 H2486 0.929 . S
C2490 C2492 1.378 . S
C2490 C2494 1.350 . S
C2491 C2494 1.463 . S
C2491 C2496 1.350 . S
C2491 N2499 1.427 . S
C2492 H2483 0.930 . S
C2492 C2490 1.378 . S
C2492 C2493 1.367 . S
C2493 C2492 1.367 . S
C2493 C2495 1.433 . S
C2494 C2490 1.350 . S
C2494 C2491 1.463 . S
C2494 N2498 1.427 . S
C2495 H2485 0.929 . S
C2495 C2493 1.433 . S
C2495 N2498 1.384 . S
C2496 H2487 0.929 . S
C2496 C2488 1.378 . S
C2496 C2491 1.350 . S
C2497 H2484 0.929 . S
C2497 C2489 1.433 . S
C2497 N2499 1.384 . S
N2498 C2494 1.427 . S
N2498 C2495 1.384 . S
N2499 C2491 1.427 . S
N2499 C2497 1.384 . S
H2500 C2506 0.930 . S
H2501 C2510 0.930 . S
H2502 C2515 0.929 . S
H2503 C2513 0.929 . S
H2504 C2508 0.929 . S
H2505 C2514 0.929 . S
C2506 H2500 0.930 . S
C2506 C2507 1.367 . S
C2506 C2514 1.378 . S
C2507 C2506 1.367 . S
C2507 C2515 1.433 . S
C2508 H2504 0.929 . S
C2508 C2510 1.378 . S
C2508 C2512 1.350 . S
C2509 C2512 1.463 . S
C2509 C2514 1.350 . S
C2509 N2517 1.427 . S
C2510 H2501 0.930 . S
C2510 C2508 1.378 . S
C2510 C2511 1.367 . S
C2511 C2510 1.367 . S
C2511 C2513 1.433 . S
C2512 C2508 1.350 . S
C2512 C2509 1.463 . S
C2512 N2516 1.427 . S
C2513 H2503 0.929 . S
C2513 C2511 1.433 . S
C2513 N2516 1.384 . S
C2514 H2505 0.929 . S
C2514 C2506 1.378 . S
C2514 C2509 1.350 . S
C2515 H2502 0.929 . S
C2515 C2507 1.433 . S
C2515 N2517 1.384 . S
N2516 C2512 1.427 . S
N2516 C2513 1.384 . S
N2517 C2509 1.427 . S
N2517 C2515 1.384 . S
H2518 C2524 0.930 . S
H2519 C2528 0.930 . S
H2520 C2533 0.929 . S
H2521 C2531 0.929 . S
H2522 C2526 0.929 . S
H2523 C2532 0.929 . S
C2524 H2518 0.930 . S
C2524 C2525 1.367 . S
C2524 C2532 1.378 . S
C2525 C2524 1.367 . S
C2525 C2533 1.433 . S
C2526 H2522 0.929 . S
C2526 C2528 1.378 1_655 S
C2526 C2530 1.350 . S
C2527 C2530 1.463 . S
C2527 C2532 1.350 . S
C2527 N2535 1.427 . S
C2528 H2519 0.930 . S
C2528 C2526 1.378 1_455 S
C2528 C2529 1.367 . S
C2529 C2528 1.367 . S
C2529 C2531 1.433 . S
C2530 C2526 1.350 . S
C2530 C2527 1.463 . S
C2530 N2534 1.427 . S
C2531 H2521 0.929 . S
C2531 C2529 1.433 . S
C2531 N2534 1.384 1_455 S
C2532 H2523 0.929 . S
C2532 C2524 1.378 . S
C2532 C2527 1.350 . S
C2533 H2520 0.929 . S
C2533 C2525 1.433 . S
C2533 N2535 1.384 . S
N2534 C2530 1.427 . S
N2534 C2531 1.384 1_655 S
N2535 C2527 1.427 . S
N2535 C2533 1.384 . S
H2536 C2542 0.930 . S
H2537 C2546 0.930 . S
H2538 C2551 0.929 . S
H2539 C2549 0.929 . S
H2540 C2544 0.929 . S
H2541 C2550 0.929 . S
C2542 H2536 0.930 . S
C2542 C2543 1.367 . S
C2542 C2550 1.378 . S
C2543 C2542 1.367 . S
C2543 C2551 1.433 . S
C2544 H2540 0.929 . S
C2544 C2546 1.378 . S
C2544 C2548 1.350 . S
C2545 C2548 1.463 . S
C2545 C2550 1.350 . S
C2545 N2553 1.427 . S
C2546 H2537 0.930 . S
C2546 C2544 1.378 . S
C2546 C2547 1.367 . S
C2547 C2546 1.367 . S
C2547 C2549 1.433 . S
C2548 C2544 1.350 . S
C2548 C2545 1.463 . S
C2548 N2552 1.427 . S
C2549 H2539 0.929 . S
C2549 C2547 1.433 . S
C2549 N2552 1.384 . S
C2550 H2541 0.929 . S
C2550 C2542 1.378 . S
C2550 C2545 1.350 . S
C2551 H2538 0.929 . S
C2551 C2543 1.433 . S
C2551 N2553 1.384 . S
N2552 C2548 1.427 . S
N2552 C2549 1.384 . S
N2553 C2545 1.427 . S
N2553 C2551 1.384 . S
H2554 C2560 0.930 . S
H2555 C2564 0.930 . S
H2556 C2569 0.929 . S
H2557 C2567 0.929 . S
H2558 C2562 0.929 . S
H2559 C2568 0.929 . S
C2560 H2554 0.930 . S
C2560 C2561 1.367 . S
C2560 C2568 1.378 1_455 S
C2561 C2560 1.367 . S
C2561 C2569 1.433 . S
C2562 H2558 0.929 . S
C2562 C2564 1.378 . S
C2562 C2566 1.350 . S
C2563 C2566 1.463 . S
C2563 C2568 1.350 . S
C2563 N2571 1.427 . S
C2564 H2555 0.930 . S
C2564 C2562 1.378 . S
C2564 C2565 1.367 . S
C2565 C2564 1.367 . S
C2565 C2567 1.433 . S
C2566 C2562 1.350 . S
C2566 C2563 1.463 . S
C2566 N2570 1.427 . S
C2567 H2557 0.929 . S
C2567 C2565 1.433 . S
C2567 N2570 1.384 . S
C2568 H2559 0.929 . S
C2568 C2560 1.378 1_655 S
C2568 C2563 1.350 . S
C2569 H2556 0.929 . S
C2569 C2561 1.433 . S
C2569 N2571 1.384 1_455 S
N2570 C2566 1.427 . S
N2570 C2567 1.384 . S
N2571 C2563 1.427 . S
N2571 C2569 1.384 1_655 S
H2572 C2578 0.930 . S
H2573 C2582 0.930 . S
H2574 C2587 0.929 . S
H2575 C2585 0.929 . S
H2576 C2580 0.929 . S
H2577 C2586 0.929 . S
C2578 H2572 0.930 . S
C2578 C2579 1.367 . S
C2578 C2586 1.378 . S
C2579 C2578 1.367 . S
C2579 C2587 1.433 . S
C2580 H2576 0.929 . S
C2580 C2582 1.378 . S
C2580 C2584 1.350 . S
C2581 C2584 1.463 . S
C2581 C2586 1.350 . S
C2581 N2589 1.427 . S
C2582 H2573 0.930 . S
C2582 C2580 1.378 . S
C2582 C2583 1.367 . S
C2583 C2582 1.367 . S
C2583 C2585 1.433 . S
C2584 C2580 1.350 . S
C2584 C2581 1.463 . S
C2584 N2588 1.427 . S
C2585 H2575 0.929 . S
C2585 C2583 1.433 . S
C2585 N2588 1.384 . S
C2586 H2577 0.929 . S
C2586 C2578 1.378 . S
C2586 C2581 1.350 . S
C2587 H2574 0.929 . S
C2587 C2579 1.433 . S
C2587 N2589 1.384 . S
N2588 C2584 1.427 . S
N2588 C2585 1.384 . S
N2589 C2581 1.427 . S
N2589 C2587 1.384 . S
H2590 C2596 0.930 . S
H2591 C2600 0.930 . S
H2592 C2605 0.929 . S
H2593 C2603 0.929 . S
H2594 C2598 0.929 . S
H2595 C2604 0.929 . S
C2596 H2590 0.930 . S
C2596 C2597 1.367 . S
C2596 C2604 1.378 . S
C2597 C2596 1.367 . S
C2597 C2605 1.433 . S
C2598 H2594 0.929 . S
C2598 C2600 1.378 . S
C2598 C2602 1.350 . S
C2599 C2602 1.463 . S
C2599 C2604 1.350 . S
C2599 N2607 1.427 . S
C2600 H2591 0.930 . S
C2600 C2598 1.378 . S
C2600 C2601 1.367 . S
C2601 C2600 1.367 . S
C2601 C2603 1.433 . S
C2602 C2598 1.350 . S
C2602 C2599 1.463 . S
C2602 N2606 1.427 . S
C2603 H2593 0.929 . S
C2603 C2601 1.433 . S
C2603 N2606 1.384 . S
C2604 H2595 0.929 . S
C2604 C2596 1.378 . S
C2604 C2599 1.350 . S
C2605 H2592 0.929 . S
C2605 C2597 1.433 . S
C2605 N2607 1.384 . S
N2606 C2602 1.427 . S
N2606 C2603 1.384 . S
N2607 C2599 1.427 . S
N2607 C2605 1.384 . S
H2608 C2614 0.930 . S
H2609 C2618 0.930 . S
H2610 C2623 0.929 . S
H2611 C2621 0.929 . S
H2612 C2616 0.929 . S
H2613 C2622 0.929 . S
C2614 H2608 0.930 . S
C2614 C2615 1.367 . S
C2614 C2622 1.378 . S
C2615 C2614 1.367 . S
C2615 C2623 1.433 . S
C2616 H2612 0.929 . S
C2616 C2618 1.378 . S
C2616 C2620 1.350 . S
C2617 C2620 1.463 . S
C2617 C2622 1.350 . S
C2617 N2625 1.427 . S
C2618 H2609 0.930 . S
C2618 C2616 1.378 . S
C2618 C2619 1.367 . S
C2619 C2618 1.367 . S
C2619 C2621 1.433 . S
C2620 C2616 1.350 . S
C2620 C2617 1.463 . S
C2620 N2624 1.427 . S
C2621 H2611 0.929 . S
C2621 C2619 1.433 . S
C2621 N2624 1.384 . S
C2622 H2613 0.929 . S
C2622 C2614 1.378 . S
C2622 C2617 1.350 . S
C2623 H2610 0.929 . S
C2623 C2615 1.433 . S
C2623 N2625 1.384 . S
N2624 C2620 1.427 . S
N2624 C2621 1.384 . S
N2625 C2617 1.427 . S
N2625 C2623 1.384 . S
H2626 C2632 0.930 . S
H2627 C2636 0.930 . S
H2628 C2641 0.929 . S
H2629 C2639 0.929 . S
H2630 C2634 0.929 . S
H2631 C2640 0.929 . S
C2632 H2626 0.930 . S
C2632 C2633 1.367 . S
C2632 C2640 1.378 . S
C2633 C2632 1.367 . S
C2633 C2641 1.433 . S
C2634 H2630 0.929 . S
C2634 C2636 1.378 . S
C2634 C2638 1.350 . S
C2635 C2638 1.463 . S
C2635 C2640 1.350 . S
C2635 N2643 1.427 . S
C2636 H2627 0.930 . S
C2636 C2634 1.378 . S
C2636 C2637 1.367 . S
C2637 C2636 1.367 . S
C2637 C2639 1.433 . S
C2638 C2634 1.350 . S
C2638 C2635 1.463 . S
C2638 N2642 1.427 . S
C2639 H2629 0.929 . S
C2639 C2637 1.433 . S
C2639 N2642 1.384 . S
C2640 H2631 0.929 . S
C2640 C2632 1.378 . S
C2640 C2635 1.350 . S
C2641 H2628 0.929 . S
C2641 C2633 1.433 . S
C2641 N2643 1.384 . S
N2642 C2638 1.427 . S
N2642 C2639 1.384 . S
N2643 C2635 1.427 . S
N2643 C2641 1.384 . S
H2644 C2650 0.930 . S
H2645 C2654 0.930 . S
H2646 C2659 0.929 . S
H2647 C2657 0.929 . S
H2648 C2652 0.929 . S
H2649 C2658 0.929 . S
C2650 H2644 0.930 . S
C2650 C2651 1.367 . S
C2650 C2658 1.378 . S
C2651 C2650 1.367 . S
C2651 C2659 1.433 . S
C2652 H2648 0.929 . S
C2652 C2654 1.378 . S
C2652 C2656 1.350 . S
C2653 C2656 1.463 . S
C2653 C2658 1.350 . S
C2653 N2661 1.427 . S
C2654 H2645 0.930 . S
C2654 C2652 1.378 . S
C2654 C2655 1.367 . S
C2655 C2654 1.367 . S
C2655 C2657 1.433 . S
C2656 C2652 1.350 . S
C2656 C2653 1.463 . S
C2656 N2660 1.427 . S
C2657 H2647 0.929 . S
C2657 C2655 1.433 . S
C2657 N2660 1.384 . S
C2658 H2649 0.929 . S
C2658 C2650 1.378 . S
C2658 C2653 1.350 . S
C2659 H2646 0.929 . S
C2659 C2651 1.433 . S
C2659 N2661 1.384 . S
N2660 C2656 1.427 . S
N2660 C2657 1.384 . S
N2661 C2653 1.427 . S
N2661 C2659 1.384 . S
H2662 C2668 0.930 . S
H2663 C2672 0.930 . S
H2664 C2677 0.929 . S
H2665 C2675 0.929 . S
H2666 C2670 0.929 . S
H2667 C2676 0.929 . S
C2668 H2662 0.930 . S
C2668 C2669 1.367 . S
C2668 C2676 1.378 . S
C2669 C2668 1.367 . S
C2669 C2677 1.433 . S
C2670 H2666 0.929 . S
C2670 C2672 1.378 1_455 S
C2670 C2674 1.350 . S
C2671 C2674 1.463 . S
C2671 C2676 1.350 . S
C2671 N2679 1.427 . S
C2672 H2663 0.930 . S
C2672 C2670 1.378 1_655 S
C2672 C2673 1.367 . S
C2673 C2672 1.367 . S
C2673 C2675 1.433 . S
C2674 C2670 1.350 . S
C2674 C2671 1.463 . S
C2674 N2678 1.427 . S
C2675 H2665 0.929 . S
C2675 C2673 1.433 . S
C2675 N2678 1.384 1_655 S
C2676 H2667 0.929 . S
C2676 C2668 1.378 . S
C2676 C2671 1.350 . S
C2677 H2664 0.929 . S
C2677 C2669 1.433 . S
C2677 N2679 1.384 . S
N2678 C2674 1.427 . S
N2678 C2675 1.384 1_455 S
N2679 C2671 1.427 . S
N2679 C2677 1.384 . S
H2680 C2686 0.930 . S
H2681 C2690 0.930 . S
H2682 C2695 0.929 . S
H2683 C2693 0.929 . S
H2684 C2688 0.929 . S
H2685 C2694 0.929 . S
C2686 H2680 0.930 . S
C2686 C2687 1.367 . S
C2686 C2694 1.378 . S
C2687 C2686 1.367 . S
C2687 C2695 1.433 . S
C2688 H2684 0.929 . S
C2688 C2690 1.378 . S
C2688 C2692 1.350 . S
C2689 C2692 1.463 . S
C2689 C2694 1.350 . S
C2689 N2697 1.427 . S
C2690 H2681 0.930 . S
C2690 C2688 1.378 . S
C2690 C2691 1.367 . S
C2691 C2690 1.367 . S
C2691 C2693 1.433 . S
C2692 C2688 1.350 . S
C2692 C2689 1.463 . S
C2692 N2696 1.427 . S
C2693 H2683 0.929 . S
C2693 C2691 1.433 . S
C2693 N2696 1.384 . S
C2694 H2685 0.929 . S
C2694 C2686 1.378 . S
C2694 C2689 1.350 . S
C2695 H2682 0.929 . S
C2695 C2687 1.433 . S
C2695 N2697 1.384 . S
N2696 C2692 1.427 . S
N2696 C2693 1.384 . S
N2697 C2689 1.427 . S
N2697 C2695 1.384 . S
H2698 C2704 0.930 . S
H2699 C2708 0.930 . S
H2700 C2713 0.929 . S
H2701 C2711 0.929 . S
H2702 C2706 0.929 . S
H2703 C2712 0.929 . S
C2704 H2698 0.930 . S
C2704 C2705 1.367 . S
C2704 C2712 1.378 1_655 S
C2705 C2704 1.367 . S
C2705 C2713 1.433 . S
C2706 H2702 0.929 . S
C2706 C2708 1.378 . S
C2706 C2710 1.350 . S
C2707 C2710 1.463 . S
C2707 C2712 1.350 . S
C2707 N2715 1.427 . S
C2708 H2699 0.930 . S
C2708 C2706 1.378 . S
C2708 C2709 1.367 . S
C2709 C2708 1.367 . S
C2709 C2711 1.433 . S
C2710 C2706 1.350 . S
C2710 C2707 1.463 . S
C2710 N2714 1.427 . S
C2711 H2701 0.929 . S
C2711 C2709 1.433 . S
C2711 N2714 1.384 . S
C2712 H2703 0.929 . S
C2712 C2704 1.378 1_455 S
C2712 C2707 1.350 . S
C2713 H2700 0.929 . S
C2713 C2705 1.433 . S
C2713 N2715 1.384 1_655 S
N2714 C2710 1.427 . S
N2714 C2711 1.384 . S
N2715 C2707 1.427 . S
N2715 C2713 1.384 1_455 S
H2716 C2722 0.930 . S
H2717 C2726 0.930 . S
H2718 C2731 0.929 . S
H2719 C2729 0.929 . S
H2720 C2724 0.929 . S
H2721 C2730 0.929 . S
C2722 H2716 0.930 . S
C2722 C2723 1.367 . S
C2722 C2730 1.378 . S
C2723 C2722 1.367 . S
C2723 C2731 1.433 . S
C2724 H2720 0.929 . S
C2724 C2726 1.378 . S
C2724 C2728 1.350 . S
C2725 C2728 1.463 . S
C2725 C2730 1.350 . S
C2725 N2733 1.427 . S
C2726 H2717 0.930 . S
C2726 C2724 1.378 . S
C2726 C2727 1.367 . S
C2727 C2726 1.367 . S
C2727 C2729 1.433 . S
C2728 C2724 1.350 . S
C2728 C2725 1.463 . S
C2728 N2732 1.427 . S
C2729 H2719 0.929 . S
C2729 C2727 1.433 . S
C2729 N2732 1.384 . S
C2730 H2721 0.929 . S
C2730 C2722 1.378 . S
C2730 C2725 1.350 . S
C2731 H2718 0.929 . S
C2731 C2723 1.433 . S
C2731 N2733 1.384 . S
N2732 C2728 1.427 . S
N2732 C2729 1.384 . S
N2733 C2725 1.427 . S
N2733 C2731 1.384 . S
H2734 C2740 0.930 . S
H2735 C2744 0.930 . S
H2736 C2749 0.929 . S
H2737 C2747 0.929 . S
H2738 C2742 0.929 . S
H2739 C2748 0.929 . S
C2740 H2734 0.930 . S
C2740 C2741 1.367 . S
C2740 C2748 1.378 . S
C2741 C2740 1.367 . S
C2741 C2749 1.433 . S
C2742 H2738 0.929 . S
C2742 C2744 1.378 . S
C2742 C2746 1.350 . S
C2743 C2746 1.463 . S
C2743 C2748 1.350 . S
C2743 N2751 1.427 . S
C2744 H2735 0.930 . S
C2744 C2742 1.378 . S
C2744 C2745 1.367 . S
C2745 C2744 1.367 . S
C2745 C2747 1.433 . S
C2746 C2742 1.350 . S
C2746 C2743 1.463 . S
C2746 N2750 1.427 . S
C2747 H2737 0.929 . S
C2747 C2745 1.433 . S
C2747 N2750 1.384 . S
C2748 H2739 0.929 . S
C2748 C2740 1.378 . S
C2748 C2743 1.350 . S
C2749 H2736 0.929 . S
C2749 C2741 1.433 . S
C2749 N2751 1.384 . S
N2750 C2746 1.427 . S
N2750 C2747 1.384 . S
N2751 C2743 1.427 . S
N2751 C2749 1.384 . S
H2752 C2758 0.930 . S
H2753 C2762 0.930 . S
H2754 C2767 0.929 . S
H2755 C2765 0.929 . S
H2756 C2760 0.929 . S
H2757 C2766 0.929 . S
C2758 H2752 0.930 . S
C2758 C2759 1.367 . S
C2758 C2766 1.378 . S
C2759 C2758 1.367 . S
C2759 C2767 1.433 . S
C2760 H2756 0.929 . S
C2760 C2762 1.378 . S
C2760 C2764 1.350 . S
C2761 C2764 1.463 . S
C2761 C2766 1.350 . S
C2761 N2769 1.427 . S
C2762 H2753 0.930 . S
C2762 C2760 1.378 . S
C2762 C2763 1.367 . S
C2763 C2762 1.367 . S
C2763 C2765 1.433 . S
C2764 C2760 1.350 . S
C2764 C2761 1.463 . S
C2764 N2768 1.427 . S
C2765 H2755 0.929 . S
C2765 C2763 1.433 . S
C2765 N2768 1.384 . S
C2766 H2757 0.929 . S
C2766 C2758 1.378 . S
C2766 C2761 1.350 . S
C2767 H2754 0.929 . S
C2767 C2759 1.433 . S
C2767 N2769 1.384 . S
N2768 C2764 1.427 . S
N2768 C2765 1.384 . S
N2769 C2761 1.427 . S
N2769 C2767 1.384 . S
H2770 C2776 0.930 . S
H2771 C2780 0.930 1_554 S
H2772 C2785 0.929 . S
H2773 C2783 0.929 . S
H2774 C2778 0.929 . S
H2775 C2784 0.929 . S
C2776 H2770 0.930 . S
C2776 C2777 1.367 . S
C2776 C2784 1.378 . S
C2777 C2776 1.367 . S
C2777 C2785 1.433 . S
C2778 H2774 0.929 . S
C2778 C2780 1.378 . S
C2778 C2782 1.350 . S
C2779 C2782 1.463 . S
C2779 C2784 1.350 . S
C2779 N2787 1.427 . S
C2780 H2771 0.930 1_556 S
C2780 C2778 1.378 . S
C2780 C2781 1.367 . S
C2781 C2780 1.367 . S
C2781 C2783 1.433 . S
C2782 C2778 1.350 . S
C2782 C2779 1.463 . S
C2782 N2786 1.427 . S
C2783 H2773 0.929 . S
C2783 C2781 1.433 . S
C2783 N2786 1.384 . S
C2784 H2775 0.929 . S
C2784 C2776 1.378 . S
C2784 C2779 1.350 . S
C2785 H2772 0.929 . S
C2785 C2777 1.433 . S
C2785 N2787 1.384 . S
N2786 C2782 1.427 . S
N2786 C2783 1.384 . S
N2787 C2779 1.427 . S
N2787 C2785 1.384 . S
H2788 C2794 0.930 1_556 S
H2789 C2798 0.930 . S
H2790 C2803 0.929 . S
H2791 C2801 0.929 . S
H2792 C2796 0.929 . S
H2793 C2802 0.929 . S
C2794 H2788 0.930 1_554 S
C2794 C2795 1.367 . S
C2794 C2802 1.378 . S
C2795 C2794 1.367 . S
C2795 C2803 1.433 . S
C2796 H2792 0.929 . S
C2796 C2798 1.378 . S
C2796 C2800 1.350 . S
C2797 C2800 1.463 . S
C2797 C2802 1.350 . S
C2797 N2805 1.427 . S
C2798 H2789 0.930 . S
C2798 C2796 1.378 . S
C2798 C2799 1.367 . S
C2799 C2798 1.367 . S
C2799 C2801 1.433 . S
C2800 C2796 1.350 . S
C2800 C2797 1.463 . S
C2800 N2804 1.427 . S
C2801 H2791 0.929 . S
C2801 C2799 1.433 . S
C2801 N2804 1.384 . S
C2802 H2793 0.929 . S
C2802 C2794 1.378 . S
C2802 C2797 1.350 . S
C2803 H2790 0.929 . S
C2803 C2795 1.433 . S
C2803 N2805 1.384 . S
N2804 C2800 1.427 . S
N2804 C2801 1.384 . S
N2805 C2797 1.427 . S
N2805 C2803 1.384 . S
H2806 C2812 0.930 . S
H2807 C2816 0.930 . S
H2808 C2821 0.929 . S
H2809 C2819 0.929 . S
H2810 C2814 0.929 . S
H2811 C2820 0.929 . S
C2812 H2806 0.930 . S
C2812 C2813 1.367 . S
C2812 C2820 1.378 . S
C2813 C2812 1.367 . S
C2813 C2821 1.433 . S
C2814 H2810 0.929 . S
C2814 C2816 1.378 . S
C2814 C2818 1.350 . S
C2815 C2818 1.463 . S
C2815 C2820 1.350 . S
C2815 N2823 1.427 . S
C2816 H2807 0.930 . S
C2816 C2814 1.378 . S
C2816 C2817 1.367 . S
C2817 C2816 1.367 . S
C2817 C2819 1.433 . S
C2818 C2814 1.350 . S
C2818 C2815 1.463 . S
C2818 N2822 1.427 . S
C2819 H2809 0.929 . S
C2819 C2817 1.433 . S
C2819 N2822 1.384 . S
C2820 H2811 0.929 . S
C2820 C2812 1.378 . S
C2820 C2815 1.350 . S
C2821 H2808 0.929 . S
C2821 C2813 1.433 . S
C2821 N2823 1.384 . S
N2822 C2818 1.427 . S
N2822 C2819 1.384 . S
N2823 C2815 1.427 . S
N2823 C2821 1.384 . S
H2824 C2830 0.930 . S
H2825 C2834 0.930 . S
H2826 C2839 0.929 . S
H2827 C2837 0.929 . S
H2828 C2832 0.929 . S
H2829 C2838 0.929 . S
C2830 H2824 0.930 . S
C2830 C2831 1.367 . S
C2830 C2838 1.378 . S
C2831 C2830 1.367 . S
C2831 C2839 1.433 . S
C2832 H2828 0.929 . S
C2832 C2834 1.378 . S
C2832 C2836 1.350 . S
C2833 C2836 1.463 . S
C2833 C2838 1.350 . S
C2833 N2841 1.427 . S
C2834 H2825 0.930 . S
C2834 C2832 1.378 . S
C2834 C2835 1.367 . S
C2835 C2834 1.367 . S
C2835 C2837 1.433 . S
C2836 C2832 1.350 . S
C2836 C2833 1.463 . S
C2836 N2840 1.427 . S
C2837 H2827 0.929 . S
C2837 C2835 1.433 . S
C2837 N2840 1.384 . S
C2838 H2829 0.929 . S
C2838 C2830 1.378 . S
C2838 C2833 1.350 . S
C2839 H2826 0.929 . S
C2839 C2831 1.433 . S
C2839 N2841 1.384 . S
N2840 C2836 1.427 . S
N2840 C2837 1.384 . S
N2841 C2833 1.427 . S
N2841 C2839 1.384 . S
H2842 C2848 0.930 . S
H2843 C2852 0.930 . S
H2844 C2857 0.929 1_556 S
H2845 C2855 0.929 . S
H2846 C2850 0.929 . S
H2847 C2856 0.929 . S
C2848 H2842 0.930 . S
C2848 C2849 1.367 . S
C2848 C2856 1.378 . S
C2849 C2848 1.367 . S
C2849 C2857 1.433 . S
C2850 H2846 0.929 . S
C2850 C2852 1.378 . S
C2850 C2854 1.350 . S
C2851 C2854 1.463 . S
C2851 C2856 1.350 . S
C2851 N2859 1.427 . S
C2852 H2843 0.930 . S
C2852 C2850 1.378 . S
C2852 C2853 1.367 . S
C2853 C2852 1.367 . S
C2853 C2855 1.433 . S
C2854 C2850 1.350 . S
C2854 C2851 1.463 . S
C2854 N2858 1.427 . S
C2855 H2845 0.929 . S
C2855 C2853 1.433 . S
C2855 N2858 1.384 . S
C2856 H2847 0.929 . S
C2856 C2848 1.378 . S
C2856 C2851 1.350 . S
C2857 H2844 0.929 1_554 S
C2857 C2849 1.433 . S
C2857 N2859 1.384 . S
N2858 C2854 1.427 . S
N2858 C2855 1.384 . S
N2859 C2851 1.427 . S
N2859 C2857 1.384 . S
H2860 C2866 0.930 . S
H2861 C2870 0.930 . S
H2862 C2875 0.929 . S
H2863 C2873 0.929 . S
H2864 C2868 0.929 . S
H2865 C2874 0.929 . S
C2866 H2860 0.930 . S
C2866 C2867 1.367 . S
C2866 C2874 1.378 . S
C2867 C2866 1.367 . S
C2867 C2875 1.433 . S
C2868 H2864 0.929 . S
C2868 C2870 1.378 . S
C2868 C2872 1.350 . S
C2869 C2872 1.463 . S
C2869 C2874 1.350 . S
C2869 N2877 1.427 . S
C2870 H2861 0.930 . S
C2870 C2868 1.378 . S
C2870 C2871 1.367 . S
C2871 C2870 1.367 . S
C2871 C2873 1.433 . S
C2872 C2868 1.350 . S
C2872 C2869 1.463 . S
C2872 N2876 1.427 . S
C2873 H2863 0.929 . S
C2873 C2871 1.433 . S
C2873 N2876 1.384 . S
C2874 H2865 0.929 . S
C2874 C2866 1.378 . S
C2874 C2869 1.350 . S
C2875 H2862 0.929 . S
C2875 C2867 1.433 . S
C2875 N2877 1.384 . S
N2876 C2872 1.427 . S
N2876 C2873 1.384 . S
N2877 C2869 1.427 . S
N2877 C2875 1.384 . S
H2878 C2884 0.930 . S
H2879 C2888 0.930 . S
H2880 C2893 0.929 . S
H2881 C2891 0.929 . S
H2882 C2886 0.929 . S
H2883 C2892 0.929 . S
C2884 H2878 0.930 . S
C2884 C2885 1.367 . S
C2884 C2892 1.378 . S
C2885 C2884 1.367 . S
C2885 C2893 1.433 . S
C2886 H2882 0.929 . S
C2886 C2888 1.378 . S
C2886 C2890 1.350 . S
C2887 C2890 1.463 . S
C2887 C2892 1.350 . S
C2887 N2895 1.427 . S
C2888 H2879 0.930 . S
C2888 C2886 1.378 . S
C2888 C2889 1.367 . S
C2889 C2888 1.367 . S
C2889 C2891 1.433 . S
C2890 C2886 1.350 . S
C2890 C2887 1.463 . S
C2890 N2894 1.427 . S
C2891 H2881 0.929 . S
C2891 C2889 1.433 . S
C2891 N2894 1.384 . S
C2892 H2883 0.929 . S
C2892 C2884 1.378 . S
C2892 C2887 1.350 . S
C2893 H2880 0.929 . S
C2893 C2885 1.433 . S
C2893 N2895 1.384 . S
N2894 C2890 1.427 . S
N2894 C2891 1.384 . S
N2895 C2887 1.427 . S
N2895 C2893 1.384 . S
H2896 C2902 0.930 . S
H2897 C2906 0.930 . S
H2898 C2911 0.929 . S
H2899 C2909 0.929 . S
H2900 C2904 0.929 . S
H2901 C2910 0.929 . S
C2902 H2896 0.930 . S
C2902 C2903 1.367 . S
C2902 C2910 1.378 . S
C2903 C2902 1.367 . S
C2903 C2911 1.433 . S
C2904 H2900 0.929 . S
C2904 C2906 1.378 . S
C2904 C2908 1.350 . S
C2905 C2908 1.463 . S
C2905 C2910 1.350 . S
C2905 N2913 1.427 . S
C2906 H2897 0.930 . S
C2906 C2904 1.378 . S
C2906 C2907 1.367 . S
C2907 C2906 1.367 . S
C2907 C2909 1.433 . S
C2908 C2904 1.350 . S
C2908 C2905 1.463 . S
C2908 N2912 1.427 . S
C2909 H2899 0.929 . S
C2909 C2907 1.433 . S
C2909 N2912 1.384 . S
C2910 H2901 0.929 . S
C2910 C2902 1.378 . S
C2910 C2905 1.350 . S
C2911 H2898 0.929 . S
C2911 C2903 1.433 . S
C2911 N2913 1.384 . S
N2912 C2908 1.427 . S
N2912 C2909 1.384 . S
N2913 C2905 1.427 . S
N2913 C2911 1.384 . S
H2914 C2920 0.930 . S
H2915 C2924 0.930 . S
H2916 C2929 0.929 . S
H2917 C2927 0.929 . S
H2918 C2922 0.929 . S
H2919 C2928 0.929 . S
C2920 H2914 0.930 . S
C2920 C2921 1.367 . S
C2920 C2928 1.378 . S
C2921 C2920 1.367 . S
C2921 C2929 1.433 . S
C2922 H2918 0.929 . S
C2922 C2924 1.378 . S
C2922 C2926 1.350 . S
C2923 C2926 1.463 . S
C2923 C2928 1.350 . S
C2923 N2931 1.427 . S
C2924 H2915 0.930 . S
C2924 C2922 1.378 . S
C2924 C2925 1.367 . S
C2925 C2924 1.367 . S
C2925 C2927 1.433 . S
C2926 C2922 1.350 . S
C2926 C2923 1.463 . S
C2926 N2930 1.427 . S
C2927 H2917 0.929 . S
C2927 C2925 1.433 . S
C2927 N2930 1.384 . S
C2928 H2919 0.929 . S
C2928 C2920 1.378 . S
C2928 C2923 1.350 . S
C2929 H2916 0.929 . S
C2929 C2921 1.433 . S
C2929 N2931 1.384 . S
N2930 C2926 1.427 . S
N2930 C2927 1.384 . S
N2931 C2923 1.427 . S
N2931 C2929 1.384 . S
H2932 C2938 0.930 . S
H2933 C2942 0.930 . S
H2934 C2947 0.929 . S
H2935 C2945 0.929 . S
H2936 C2940 0.929 . S
H2937 C2946 0.929 . S
C2938 H2932 0.930 . S
C2938 C2939 1.367 . S
C2938 C2946 1.378 . S
C2939 C2938 1.367 . S
C2939 C2947 1.433 . S
C2940 H2936 0.929 . S
C2940 C2942 1.378 . S
C2940 C2944 1.350 . S
C2941 C2944 1.463 . S
C2941 C2946 1.350 . S
C2941 N2949 1.427 . S
C2942 H2933 0.930 . S
C2942 C2940 1.378 . S
C2942 C2943 1.367 . S
C2943 C2942 1.367 . S
C2943 C2945 1.433 . S
C2944 C2940 1.350 . S
C2944 C2941 1.463 . S
C2944 N2948 1.427 . S
C2945 H2935 0.929 . S
C2945 C2943 1.433 . S
C2945 N2948 1.384 . S
C2946 H2937 0.929 . S
C2946 C2938 1.378 . S
C2946 C2941 1.350 . S
C2947 H2934 0.929 . S
C2947 C2939 1.433 . S
C2947 N2949 1.384 . S
N2948 C2944 1.427 . S
N2948 C2945 1.384 . S
N2949 C2941 1.427 . S
N2949 C2947 1.384 . S
H2950 C2956 0.930 . S
H2951 C2960 0.930 . S
H2952 C2965 0.929 . S
H2953 C2963 0.929 . S
H2954 C2958 0.929 . S
H2955 C2964 0.929 . S
C2956 H2950 0.930 . S
C2956 C2957 1.367 . S
C2956 C2964 1.378 . S
C2957 C2956 1.367 . S
C2957 C2965 1.433 . S
C2958 H2954 0.929 . S
C2958 C2960 1.378 . S
C2958 C2962 1.350 . S
C2959 C2962 1.463 . S
C2959 C2964 1.350 . S
C2959 N2967 1.427 . S
C2960 H2951 0.930 . S
C2960 C2958 1.378 . S
C2960 C2961 1.367 . S
C2961 C2960 1.367 . S
C2961 C2963 1.433 . S
C2962 C2958 1.350 . S
C2962 C2959 1.463 . S
C2962 N2966 1.427 . S
C2963 H2953 0.929 . S
C2963 C2961 1.433 . S
C2963 N2966 1.384 . S
C2964 H2955 0.929 . S
C2964 C2956 1.378 . S
C2964 C2959 1.350 . S
C2965 H2952 0.929 . S
C2965 C2957 1.433 . S
C2965 N2967 1.384 . S
N2966 C2962 1.427 . S
N2966 C2963 1.384 . S
N2967 C2959 1.427 . S
N2967 C2965 1.384 . S
H2968 C2974 0.930 . S
H2969 C2978 0.915 1_554 S
H2970 C2983 0.929 . S
H2971 C2981 0.929 . S
H2972 C2976 0.929 . S
H2973 C2982 0.929 . S
C2974 H2968 0.930 . S
C2974 C2975 1.367 . S
C2974 C2982 1.378 . S
C2975 C2974 1.367 . S
C2975 C2983 1.433 . S
C2976 H2972 0.929 . S
C2976 C2978 1.378 . S
C2976 C2980 1.350 . S
C2977 C2980 1.463 . S
C2977 C2982 1.350 . S
C2977 N2985 1.427 . S
C2978 H2969 0.915 1_556 S
C2978 C2976 1.378 . S
C2978 C2979 1.367 . S
C2979 C2978 1.367 . S
C2979 C2981 1.433 . S
C2980 C2976 1.350 . S
C2980 C2977 1.463 . S
C2980 N2984 1.427 . S
C2981 H2971 0.929 . S
C2981 C2979 1.433 . S
C2981 N2984 1.384 . S
C2982 H2973 0.929 . S
C2982 C2974 1.378 . S
C2982 C2977 1.350 . S
C2983 H2970 0.929 . S
C2983 C2975 1.433 . S
C2983 N2985 1.384 . S
N2984 C2980 1.427 . S
N2984 C2981 1.384 . S
N2985 C2977 1.427 . S
N2985 C2983 1.384 . S
H2986 C2992 0.930 . S
H2987 C2996 0.930 . S
H2988 C3001 0.929 . S
H2989 C2999 0.929 . S
H2990 C2994 0.929 . S
H2991 C3000 0.929 . S
C2992 H2986 0.930 . S
C2992 C2993 1.367 . S
C2992 C3000 1.378 . S
C2993 C2992 1.367 . S
C2993 C3001 1.433 . S
C2994 H2990 0.929 . S
C2994 C2996 1.378 . S
C2994 C2998 1.350 . S
C2995 C2998 1.463 . S
C2995 C3000 1.350 . S
C2995 N3003 1.427 . S
C2996 H2987 0.930 . S
C2996 C2994 1.378 . S
C2996 C2997 1.367 . S
C2997 C2996 1.367 . S
C2997 C2999 1.433 . S
C2998 C2994 1.350 . S
C2998 C2995 1.463 . S
C2998 N3002 1.427 . S
C2999 H2989 0.929 . S
C2999 C2997 1.433 . S
C2999 N3002 1.384 . S
C3000 H2991 0.929 . S
C3000 C2992 1.378 . S
C3000 C2995 1.350 . S
C3001 H2988 0.929 . S
C3001 C2993 1.433 . S
C3001 N3003 1.384 . S
N3002 C2998 1.427 . S
N3002 C2999 1.384 . S
N3003 C2995 1.427 . S
N3003 C3001 1.384 . S
H3004 C3010 0.930 . S
H3005 C3014 0.930 . S
H3006 C3019 0.929 . S
H3007 C3017 0.929 . S
H3008 C3012 0.929 . S
H3009 C3018 0.929 . S
C3010 H3004 0.930 . S
C3010 C3011 1.367 . S
C3010 C3018 1.378 . S
C3011 C3010 1.367 . S
C3011 C3019 1.433 . S
C3012 H3008 0.929 . S
C3012 C3014 1.378 . S
C3012 C3016 1.350 . S
C3013 C3016 1.463 . S
C3013 C3018 1.350 . S
C3013 N3021 1.427 . S
C3014 H3005 0.930 . S
C3014 C3012 1.378 . S
C3014 C3015 1.367 . S
C3015 C3014 1.367 . S
C3015 C3017 1.433 . S
C3016 C3012 1.350 . S
C3016 C3013 1.463 . S
C3016 N3020 1.427 . S
C3017 H3007 0.929 . S
C3017 C3015 1.433 . S
C3017 N3020 1.384 . S
C3018 H3009 0.929 . S
C3018 C3010 1.378 . S
C3018 C3013 1.350 . S
C3019 H3006 0.929 . S
C3019 C3011 1.433 . S
C3019 N3021 1.384 . S
N3020 C3016 1.427 . S
N3020 C3017 1.384 . S
N3021 C3013 1.427 . S
N3021 C3019 1.384 . S
H3022 C3028 0.930 . S
H3023 C3032 0.930 . S
H3024 C3037 0.929 . S
H3025 C3035 0.929 . S
H3026 C3030 0.929 . S
H3027 C3036 0.929 . S
C3028 H3022 0.930 . S
C3028 C3029 1.367 . S
C3028 C3036 1.378 . S
C3029 C3028 1.367 . S
C3029 C3037 1.433 . S
C3030 H3026 0.929 . S
C3030 C3032 1.378 . S
C3030 C3034 1.350 . S
C3031 C3034 1.463 . S
C3031 C3036 1.350 . S
C3031 N3039 1.427 . S
C3032 H3023 0.930 . S
C3032 C3030 1.378 . S
C3032 C3033 1.367 . S
C3033 C3032 1.367 . S
C3033 C3035 1.433 . S
C3034 C3030 1.350 . S
C3034 C3031 1.463 . S
C3034 N3038 1.427 . S
C3035 H3025 0.929 . S
C3035 C3033 1.433 . S
C3035 N3038 1.384 . S
C3036 H3027 0.929 . S
C3036 C3028 1.378 . S
C3036 C3031 1.350 . S
C3037 H3024 0.929 . S
C3037 C3029 1.433 . S
C3037 N3039 1.384 . S
N3038 C3034 1.427 . S
N3038 C3035 1.384 . S
N3039 C3031 1.427 . S
N3039 C3037 1.384 . S
C1895 C5 1.443 . S
C1899 C241 1.445 . S
C1913 C64 1.438 . S
C1917 C300 1.441 . S
C1931 C359 1.439 . S
C1935 C123 1.438 . S
C1949 C418 1.445 . S
C1953 C182 1.441 . S
C1967 C477 1.445 . S
C1971 C713 1.443 . S
C1985 C536 1.443 . S
C1989 C772 1.439 . S
C2003 C831 1.442 . S
C2007 C595 1.438 . S
C2021 C654 1.439 . S
C2025 C890 1.444 . S
C2039 C1185 1.445 . S
C2043 C949 1.445 . S
C2057 C1244 1.441 . S
C2061 C1008 1.445 . S
C2075 C1067 1.444 . S
C2079 C1303 1.445 . S
C2093 C1362 1.441 . S
C2097 C1126 1.438 . S
C2111 C1421 1.445 . S
C2115 C1657 1.444 . S
C2129 C1716 1.445 . S
C2133 C1480 1.444 . S
C2147 C1775 1.444 . S
C2151 C1539 1.440 . S
C2165 C1598 1.440 . S
C2169 C1834 1.444 . S
C2183 C52 1.626 . S
C2187 C1596 1.607 . S
C2201 C475 1.604 . S
C2205 C111 1.623 . S
C2219 C170 1.626 . S
C2223 C1478 1.607 . S
C2237 C229 1.625 . S
C2241 C593 1.597 . S
C2255 C1714 1.600 . S
C2259 C288 1.623 . S
C2273 C829 1.602 . S
C2277 C347 1.628 . S
C2291 C406 1.628 . S
C2295 C1832 1.604 . S
C2309 C465 1.624 . S
C2313 C711 1.598 . S
C2327 C1124 1.601 . S
C2331 C524 1.623 . S
C2345 C583 1.627 . S
C2349 C3 1.606 . S
C2363 C1006 1.597 . S
C2367 C642 1.626 . S
C2381 C701 1.624 . S
C2385 C121 1.606 . S
C2399 C1242 1.597 . S
C2403 C760 1.625 . S
C2417 C819 1.624 . S
C2421 C357 1.599 . S
C2435 C1360 1.606 . S
C2439 C878 1.627 . S
C2453 C937 1.627 . S
C2457 C239 1.606 . S
C2471 C652 1.601 . S
C2475 C996 1.623 . S
C2489 C1419 1.600 . S
C2493 C1055 1.628 . S
C2507 C534 1.598 . S
C2511 C1114 1.628 . S
C2525 C1173 1.624 . S
C2529 C1537 1.607 . S
C2543 C770 1.601 . S
C2547 C1232 1.623 . S
C2561 C1773 1.597 . S
C2565 C1291 1.625 . S
C2579 C888 1.599 . S
C2583 C1350 1.624 . S
C2597 C1409 1.628 . S
C2601 C1655 1.600 . S
C2615 C1468 1.627 . S
C2619 C180 1.606 . S
C2633 C1527 1.627 . S
C2637 C947 1.605 . S
C2651 C1586 1.627 . S
C2655 C62 1.605 . S
C2669 C1645 1.625 . S
C2673 C1065 1.607 . S
C2687 C1704 1.628 . S
C2691 C298 1.602 . S
C2705 C1301 1.603 . S
C2709 C1763 1.628 . S
C2723 C416 1.607 . S
C2727 C1822 1.625 . S
C2741 C1881 1.624 . S
C2745 C1183 1.607 . S
C2759 C33 0.956 . S
C2763 C446 0.938 . S
C2777 C92 0.952 . S
C2781 C269 0.946 1_556 S
C2795 C151 0.952 1_554 S
C2799 C328 0.947 . S
C2813 C387 0.939 . S
C2817 C210 0.957 . S
C2831 C918 0.956 . S
C2835 C505 0.940 . S
C2849 C741 0.949 1_554 S
C2853 C564 0.942 . S
C2867 C800 0.956 . S
C2871 C623 0.938 1_556 S
C2885 C859 0.948 . S
C2889 C682 0.943 . S
C2903 C977 0.955 1_554 S
C2907 C1390 0.938 . S
C2921 C1213 0.956 . S
C2925 C1036 0.938 . S
C2939 C1272 0.952 . S
C2943 C1095 0.946 . S
C2957 C1331 0.957 1_556 S
C2961 C1154 0.938 . S
C2975 C1862 0.955 . S
C2979 C1449 0.942 1_556 S
C2993 C1508 0.956 . S
C2997 C1685 0.938 . S
C3011 C1567 0.948 . S
C3015 C1744 0.950 . S
C3029 C1626 0.957 . S
C3033 C1803 0.938 1_554 S
