# Generated by pormake.
# Topology wjf, (4)-cn, num edge types: 1
# Building blocks:
#     Node 0, Type 0, BuildingBlock: ICAMEG_clean_sbu_1, # of connection points: 4
#     Node 1, Type 0, BuildingBlock: ICAMEG_clean_sbu_1, # of connection points: 4
#     Node 2, Type 0, BuildingBlock: ICAMEG_clean_sbu_1, # of connection points: 4
#     Node 3, Type 0, BuildingBlock: ICAMEG_clean_sbu_1, # of connection points: 4
#     Node 4, Type 0, BuildingBlock: ICAMEG_clean_sbu_1, # of connection points: 4
#     Node 5, Type 0, BuildingBlock: ICAMEG_clean_sbu_1, # of connection points: 4
#     Node 6, Type 0, BuildingBlock: ICAMEG_clean_sbu_1, # of connection points: 4
#     Node 7, Type 0, BuildingBlock: ICAMEG_clean_sbu_1, # of connection points: 4
#     Node 8, Type 0, BuildingBlock: ICAMEG_clean_sbu_1, # of connection points: 4
#     Node 9, Type 0, BuildingBlock: ICAMEG_clean_sbu_1, # of connection points: 4
#     Node 10, Type 0, BuildingBlock: ICAMEG_clean_sbu_1, # of connection points: 4
#     Node 11, Type 0, BuildingBlock: ICAMEG_clean_sbu_1, # of connection points: 4
#     Edge 12, Type (0, 0), BuildingBlock: UVAHIK_clean_linker_0, # of connection points: 2
#     Edge 13, Type (0, 0), BuildingBlock: UVAHIK_clean_linker_0, # of connection points: 2
#     Edge 14, Type (0, 0), BuildingBlock: UVAHIK_clean_linker_0, # of connection points: 2
#     Edge 15, Type (0, 0), BuildingBlock: UVAHIK_clean_linker_0, # of connection points: 2
#     Edge 16, Type (0, 0), BuildingBlock: UVAHIK_clean_linker_0, # of connection points: 2
#     Edge 17, Type (0, 0), BuildingBlock: UVAHIK_clean_linker_0, # of connection points: 2
#     Edge 18, Type (0, 0), BuildingBlock: UVAHIK_clean_linker_0, # of connection points: 2
#     Edge 19, Type (0, 0), BuildingBlock: UVAHIK_clean_linker_0, # of connection points: 2
#     Edge 20, Type (0, 0), BuildingBlock: UVAHIK_clean_linker_0, # of connection points: 2
#     Edge 21, Type (0, 0), BuildingBlock: UVAHIK_clean_linker_0, # of connection points: 2
#     Edge 22, Type (0, 0), BuildingBlock: UVAHIK_clean_linker_0, # of connection points: 2
#     Edge 23, Type (0, 0), BuildingBlock: UVAHIK_clean_linker_0, # of connection points: 2
#     Edge 24, Type (0, 0), BuildingBlock: UVAHIK_clean_linker_0, # of connection points: 2
#     Edge 25, Type (0, 0), BuildingBlock: UVAHIK_clean_linker_0, # of connection points: 2
#     Edge 26, Type (0, 0), BuildingBlock: UVAHIK_clean_linker_0, # of connection points: 2
#     Edge 27, Type (0, 0), BuildingBlock: UVAHIK_clean_linker_0, # of connection points: 2
#     Edge 28, Type (0, 0), BuildingBlock: UVAHIK_clean_linker_0, # of connection points: 2
#     Edge 29, Type (0, 0), BuildingBlock: UVAHIK_clean_linker_0, # of connection points: 2
#     Edge 30, Type (0, 0), BuildingBlock: UVAHIK_clean_linker_0, # of connection points: 2
#     Edge 31, Type (0, 0), BuildingBlock: UVAHIK_clean_linker_0, # of connection points: 2
#     Edge 32, Type (0, 0), BuildingBlock: UVAHIK_clean_linker_0, # of connection points: 2
#     Edge 33, Type (0, 0), BuildingBlock: UVAHIK_clean_linker_0, # of connection points: 2
#     Edge 34, Type (0, 0), BuildingBlock: UVAHIK_clean_linker_0, # of connection points: 2
#     Edge 35, Type (0, 0), BuildingBlock: UVAHIK_clean_linker_0, # of connection points: 2
# Relax obj value: 0.058
# Max RMSD: 0.075
# Mean RMSD: 0.075
data_MOF--net-wjf--node1-ICAMEG_clean_sbu_1--edge1-UVAHIK_clean_linker_0
_symmetry_space_group_name_H-M    P1
_symmetry_Int_Tables_number       1
_symmetry_cell_setting            triclinic
loop_
_symmetry_equiv_pos_as_xyz
'x, y, z'
_cell_length_a     69.434302
_cell_length_b     69.388865
_cell_length_c     38.475899
_cell_angle_alpha  90.019893
_cell_angle_beta   90.036981
_cell_angle_gamma 119.99691
loop_
_atom_site_label
_atom_site_type_symbol
_atom_site_fract_x
_atom_site_fract_y
_atom_site_fract_z
_atom_type_partial_charge
Co0 Co 0.34893 0.37243 0.08012 0.0
Co1 Co 0.3389 0.41389 0.05177 0.0
O2 O 0.33353 0.38951 0.08319 0.0
C3 C 0.35818 0.38998 0.15151 0.0
O4 O 0.36093 0.40885 0.13934 0.0
C5 C 0.29061 0.38278 0.04397 0.0
O6 O 0.29507 0.36662 0.04002 0.0
O7 O 0.33648 0.39577 0.0101 0.0
O8 O 0.3462 0.37117 0.02877 0.0
H9 H 0.3744 0.46554 0.95066 0.0
H10 H 0.31013 0.35711 0.12686 0.0
O11 O 0.35239 0.37337 0.13153 0.0
H12 H 0.28927 0.29589 0.04326 0.0
H13 H 0.36624 0.31324 0.11778 0.0
H14 H 0.38388 0.37376 0.0343 0.0
H15 H 0.3261 0.32986 0.04012 0.0
H16 H 0.34678 0.33477 0.12063 0.0
O17 O 0.30624 0.40261 0.04942 0.0
H18 H 0.36792 0.43512 0.99071 0.0
H19 H 0.32009 0.44413 0.04607 0.0
H20 H 0.4036 0.35252 0.0303 0.0
H21 H 0.27318 0.32335 0.13112 0.0
H22 H 0.39481 0.32202 0.07226 0.0
H23 H 0.26253 0.29247 0.08905 0.0
O24 O 0.37838 0.4001 0.07693 0.0
H25 H 0.31453 0.42812 0.16723 0.0
H26 H 0.37159 0.45985 0.07542 0.0
H27 H 0.37527 0.4823 0.12735 0.0
H28 H 0.34659 0.46645 0.17369 0.0
H29 H 0.31161 0.40617 0.11501 0.0
H30 H 0.32592 0.47453 0.00646 0.0
H31 H 0.35331 0.48547 0.95842 0.0
O32 O 0.37164 0.42579 0.05341 0.0
C33 C 0.34079 0.38018 0.00477 0.0
C34 C 0.36248 0.46098 0.97157 0.0
C35 C 0.33525 0.46601 0.00286 0.0
N36 N 0.3438 0.438 0.02087 0.0
C37 C 0.35879 0.44382 -0.00562 0.0
C38 C 0.33199 0.44876 0.02516 0.0
C39 C 0.35062 0.47214 0.97592 0.0
C40 C 0.30567 0.34365 0.10865 0.0
N41 N 0.32028 0.3454 0.0834 0.0
C42 C 0.2847 0.32462 0.11111 0.0
C43 C 0.27873 0.30731 0.08747 0.0
C44 C 0.29372 0.30923 0.06176 0.0
C45 C 0.31453 0.32852 0.06006 0.0
C46 C 0.37017 0.32645 0.09929 0.0
C47 C 0.37986 0.36041 0.0525 0.0
C48 C 0.35924 0.33872 0.10082 0.0
N49 N 0.36406 0.35537 0.07745 0.0
C50 C 0.39113 0.34848 0.05017 0.0
C51 C 0.3862 0.33139 0.07374 0.0
C52 C 0.38486 0.41947 0.06471 0.0
C53 C 0.32711 0.43523 0.14718 0.0
C54 C 0.35908 0.45281 0.09552 0.0
C55 C 0.36122 0.46562 0.12483 0.0
C56 C 0.34512 0.45672 0.1508 0.0
N57 N 0.34135 0.43174 0.09214 0.0
C58 C 0.32549 0.42291 0.11749 0.0
Co59 Co 0.97525 0.34486 0.41024 0.0
Co60 Co 0.9245 0.33695 0.38251 0.0
O61 O 0.94298 0.33095 0.41386 0.0
C62 C 0.9691 0.35705 0.48097 0.0
O63 O 0.95659 0.3643 0.46723 0.0
C64 C 0.90561 0.28838 0.3765 0.0
O65 O 0.92603 0.29221 0.3729 0.0
O66 O 0.93921 0.33303 0.34098 0.0
O67 O 0.97349 0.3418 0.35867 0.0
H68 H 0.9095 0.37256 0.28024 0.0
H69 H 0.95053 0.30662 0.45781 0.0
O70 O 0.97764 0.34828 0.4619 0.0
H71 H 0.98808 0.28237 0.3744 0.0
H72 H 0.05045 0.35854 0.44825 0.0
H73 H 0.0098 0.37847 0.36384 0.0
H74 H 0.99286 0.32001 0.37062 0.0
H75 H 0.0096 0.34099 0.45122 0.0
O76 O 0.90202 0.30448 0.38134 0.0
H77 H 0.9329 0.36529 0.32031 0.0
H78 H 0.87579 0.32012 0.37783 0.0
H79 H 0.05063 0.39629 0.35974 0.0
H80 H 0.94544 0.2689 0.46272 0.0
H81 H 0.07122 0.38634 0.40216 0.0
H82 H 0.96424 0.25654 0.42073 0.0
O83 O 0.97867 0.37503 0.40603 0.0
H84 H 0.88735 0.31602 0.49933 0.0
H85 H 0.9135 0.37148 0.40497 0.0
H86 H 0.89614 0.37713 0.45696 0.0
H87 H 0.88289 0.34925 0.50457 0.0
H88 H 0.90498 0.31111 0.44699 0.0
H89 H 0.85174 0.32675 0.33822 0.0
H90 H 0.86861 0.3532 0.28908 0.0
O91 O 0.94656 0.36945 0.3828 0.0
C92 C 0.95878 0.33656 0.3351 0.0
C93 C 0.90196 0.36106 0.30163 0.0
C94 C 0.86954 0.33532 0.33414 0.0
N95 N 0.90574 0.34248 0.35157 0.0
C96 C 0.91513 0.35694 0.32447 0.0
C97 C 0.88323 0.33161 0.35645 0.0
C98 C 0.87902 0.35017 0.30659 0.0
C99 C 0.95893 0.30143 0.43965 0.0
N100 N 0.97206 0.31553 0.41408 0.0
C101 C 0.95591 0.28002 0.44247 0.0
C102 C 0.96644 0.27309 0.41888 0.0
C103 C 0.97981 0.28757 0.39286 0.0
C104 C 0.98242 0.30884 0.3908 0.0
C105 C 0.04166 0.36297 0.42957 0.0
C106 C 0.01864 0.37395 0.38224 0.0
C107 C 0.01854 0.35312 0.43115 0.0
N108 N 0.00733 0.35855 0.40751 0.0
C109 C 0.04176 0.38414 0.37986 0.0
C110 C 0.0533 0.37856 0.40369 0.0
C111 C 0.96641 0.38216 0.39336 0.0
C112 C 0.893 0.32825 0.47871 0.0
C113 C 0.90783 0.3593 0.42562 0.0
C114 C 0.89797 0.36257 0.45496 0.0
C115 C 0.89053 0.34692 0.48166 0.0
N116 N 0.91014 0.34092 0.42289 0.0
C117 C 0.90292 0.32552 0.44897 0.0
Co118 Co 0.63143 0.97566 0.74485 0.0
Co119 Co 0.58985 0.92543 0.71222 0.0
O120 O 0.61397 0.94309 0.74493 0.0
C121 C 0.61202 0.96482 0.81494 0.0
O122 O 0.59348 0.94936 0.80078 0.0
C123 C 0.62104 0.9086 0.70142 0.0
O124 O 0.63746 0.92926 0.70283 0.0
O125 O 0.60826 0.94289 0.67197 0.0
O126 O 0.63387 0.97605 0.69342 0.0
H127 H 0.53917 0.91386 0.61136 0.0
H128 H 0.64519 0.95019 0.79018 0.0
O129 O 0.62922 0.97628 0.79642 0.0
H130 H 0.70837 0.9926 0.71094 0.0
H131 H 0.69035 0.05025 0.78996 0.0
H132 H 0.63179 0.01129 0.70184 0.0
H133 H 0.67481 0.99614 0.70725 0.0
H134 H 0.66829 0.00924 0.78899 0.0
O135 O 0.60107 0.90416 0.70605 0.0
H136 H 0.56929 0.93594 0.65304 0.0
H137 H 0.55941 0.87676 0.70176 0.0
H138 H 0.65359 0.05232 0.70165 0.0
H139 H 0.67852 0.94628 0.79497 0.0
H140 H 0.68311 0.07206 0.74596 0.0
H141 H 0.71038 0.96754 0.75508 0.0
O142 O 0.60414 0.97816 0.74118 0.0
H143 H 0.57498 0.88198 0.82301 0.0
H144 H 0.5438 0.91124 0.73634 0.0
H145 H 0.52111 0.89036 0.78686 0.0
H146 H 0.53668 0.87555 0.83061 0.0
H147 H 0.59717 0.90312 0.77223 0.0
H148 H 0.52931 0.85402 0.66042 0.0
H149 H 0.51895 0.87259 0.6149 0.0
O150 O 0.57802 0.94619 0.71707 0.0
C151 C 0.62449 0.96264 0.66824 0.0
C152 C 0.54347 0.90557 0.63116 0.0
C153 C 0.53795 0.87199 0.65867 0.0
N154 N 0.56595 0.90766 0.68 0.0
C155 C 0.56046 0.91799 0.6549 0.0
C156 C 0.55503 0.88495 0.68197 0.0
C157 C 0.53215 0.88242 0.63314 0.0
C158 C 0.65908 0.95963 0.77295 0.0
N159 N 0.6581 0.97344 0.74859 0.0
C160 C 0.67786 0.95729 0.77569 0.0
C161 C 0.69572 0.96921 0.75327 0.0
C162 C 0.6946 0.98326 0.72848 0.0
C163 C 0.67553 0.98516 0.72646 0.0
C164 C 0.67757 0.04184 0.77047 0.0
C165 C 0.64471 0.01977 0.72105 0.0
C166 C 0.665 0.01862 0.76983 0.0
N167 N 0.64891 0.00789 0.74518 0.0
C168 C 0.65695 0.043 0.72088 0.0
C169 C 0.6735 0.05406 0.74577 0.0
C170 C 0.58469 0.96566 0.72895 0.0
C171 C 0.56799 0.88829 0.80407 0.0
C172 C 0.55072 0.90489 0.75531 0.0
C173 C 0.53777 0.89304 0.78382 0.0
C174 C 0.54651 0.88472 0.80835 0.0
N175 N 0.57176 0.9083 0.75129 0.0
C176 C 0.58044 0.90019 0.77521 0.0
Co177 Co 0.65398 0.62906 0.07776 0.0
Co178 Co 0.664 0.58865 0.04398 0.0
O179 O 0.67006 0.61254 0.07699 0.0
C180 C 0.64733 0.61035 0.14836 0.0
O181 O 0.64501 0.59193 0.13487 0.0
C182 C 0.71156 0.62115 0.03225 0.0
O183 O 0.70663 0.63708 0.03431 0.0
O184 O 0.66387 0.60679 0.00406 0.0
O185 O 0.65516 0.63135 0.02636 0.0
H186 H 0.62481 0.53743 0.94366 0.0
H187 H 0.69415 0.64435 0.12146 0.0
O188 O 0.65202 0.6271 0.12931 0.0
H189 H 0.71144 0.70675 0.04215 0.0
H190 H 0.63632 0.68632 0.12417 0.0
H191 H 0.61724 0.62764 0.03643 0.0
H192 H 0.67493 0.67234 0.03972 0.0
H193 H 0.65659 0.66558 0.12206 0.0
O194 O 0.69657 0.60094 0.03684 0.0
H195 H 0.63236 0.56725 0.98571 0.0
H196 H 0.68367 0.55959 0.03203 0.0
H197 H 0.59667 0.64812 0.03741 0.0
H198 H 0.73082 0.67854 0.12499 0.0
H199 H 0.60618 0.67769 0.08153 0.0
H200 H 0.73967 0.71001 0.08505 0.0
O201 O 0.62472 0.60108 0.07514 0.0
H202 H 0.69505 0.575 0.15319 0.0
H203 H 0.63361 0.54223 0.06826 0.0
H204 H 0.6333 0.5198 0.11821 0.0
H205 H 0.6642 0.53618 0.16107 0.0
H206 H 0.6946 0.59691 0.10301 0.0
H207 H 0.67681 0.52982 0.9903 0.0
H208 H 0.64714 0.5185 0.9458 0.0
O209 O 0.63133 0.57578 0.04987 0.0
C210 C 0.65949 0.62249 0.00085 0.0
C211 C 0.63773 0.54215 0.96301 0.0
C212 C 0.66694 0.5379 0.98916 0.0
N213 N 0.65829 0.565 0.01149 0.0
C214 C 0.64204 0.55898 0.98695 0.0
C215 C 0.67077 0.55479 0.01268 0.0
C216 C 0.65028 0.53156 0.9642 0.0
C217 C 0.69783 0.65806 0.10423 0.0
N218 N 0.6824 0.6564 0.08054 0.0
C219 C 0.71864 0.67734 0.10624 0.0
C220 C 0.72361 0.69498 0.0838 0.0
C221 C 0.70778 0.69316 0.0597 0.0
C222 C 0.68715 0.67361 0.05839 0.0
C223 C 0.63206 0.67352 0.10476 0.0
C224 C 0.62157 0.6406 0.05554 0.0
C225 C 0.64346 0.66169 0.10347 0.0
N226 N 0.63823 0.64556 0.07893 0.0
C227 C 0.60983 0.65209 0.05604 0.0
C228 C 0.61516 0.66867 0.08083 0.0
C229 C 0.61821 0.58175 0.06272 0.0
C230 C 0.68152 0.56767 0.13464 0.0
C231 C 0.64708 0.5495 0.08687 0.0
C232 C 0.64684 0.5367 0.11505 0.0
C233 C 0.66419 0.54589 0.13907 0.0
N234 N 0.66416 0.57083 0.08268 0.0
C235 C 0.68123 0.57996 0.10611 0.0
Co236 Co 0.02159 0.64886 0.40575 0.0
Co237 Co 0.07424 0.66206 0.37859 0.0
O238 O 0.05401 0.6658 0.40951 0.0
C239 C 0.03058 0.63971 0.47652 0.0
O240 O 0.04697 0.63772 0.46353 0.0
C241 C 0.08873 0.70987 0.3714 0.0
O242 O 0.06779 0.70415 0.36682 0.0
O243 O 0.05823 0.66357 0.33671 0.0
O244 O 0.02332 0.65212 0.35442 0.0
H245 H 0.09421 0.62942 0.27776 0.0
H246 H 0.04293 0.6874 0.45362 0.0
O247 O 0.01902 0.64489 0.45713 0.0
H248 H 0.00066 0.70581 0.37006 0.0
H249 H 0.9437 0.62684 0.44262 0.0
H250 H 0.98945 0.61338 0.35888 0.0
H251 H 0.00013 0.67007 0.36607 0.0
H252 H 0.98466 0.64823 0.44616 0.0
O253 O 0.0941 0.69506 0.37687 0.0
H254 H 0.06871 0.63386 0.31726 0.0
H255 H 0.1236 0.6836 0.37402 0.0
H256 H 0.94855 0.59175 0.35419 0.0
H257 H 0.0438 0.72328 0.45874 0.0
H258 H 0.9254 0.59843 0.39627 0.0
H259 H 0.0226 0.73269 0.41669 0.0
O260 O 0.02163 0.62031 0.40181 0.0
H261 H 0.11116 0.68741 0.49514 0.0
H262 H 0.08995 0.6313 0.40236 0.0
H263 H 0.10895 0.62865 0.45479 0.0
H264 H 0.11971 0.65686 0.50162 0.0
H265 H 0.09195 0.68933 0.44241 0.0
H266 H 0.14971 0.67983 0.33497 0.0
H267 H 0.13503 0.65251 0.28652 0.0
O268 O 0.05493 0.62901 0.37963 0.0
C269 C 0.03812 0.65836 0.33086 0.0
C270 C 0.10081 0.64132 0.29886 0.0
C271 C 0.13196 0.66963 0.33094 0.0
N272 N 0.09466 0.65881 0.34809 0.0
C273 C 0.08645 0.64386 0.32136 0.0
C274 C 0.1171 0.67172 0.35292 0.0
C275 C 0.12371 0.6543 0.30376 0.0
C276 C 0.03352 0.69131 0.43542 0.0
N277 N 0.02141 0.67663 0.40971 0.0
C278 C 0.03413 0.71168 0.43836 0.0
C279 C 0.02226 0.71696 0.41474 0.0
C280 C 0.00996 0.70189 0.38855 0.0
C281 C 0.00975 0.6817 0.38638 0.0
C282 C 0.95361 0.62382 0.42408 0.0
C283 C 0.97948 0.61648 0.37713 0.0
C284 C 0.9768 0.63585 0.42599 0.0
N285 N 0.98942 0.63219 0.40254 0.0
C286 C 0.95633 0.60414 0.37442 0.0
C287 C 0.94335 0.60788 0.39806 0.0
C288 C 0.03545 0.61492 0.39009 0.0
C289 C 0.10661 0.67506 0.47487 0.0
C290 C 0.09453 0.64361 0.42266 0.0
C291 C 0.10533 0.64205 0.45225 0.0
C292 C 0.11137 0.65789 0.47851 0.0
N293 N 0.08993 0.66051 0.41928 0.0
C294 C 0.09582 0.67612 0.44489 0.0
Co295 Co 0.37368 0.02193 0.73918 0.0
Co296 Co 0.41417 0.07502 0.71553 0.0
O297 O 0.38936 0.05429 0.7448 0.0
C298 C 0.38937 0.02878 0.81157 0.0
O299 O 0.40821 0.0456 0.80073 0.0
C300 C 0.38162 0.09042 0.70754 0.0
O301 O 0.36627 0.06964 0.7019 0.0
O302 O 0.39749 0.06022 0.67236 0.0
O303 O 0.37368 0.02492 0.68788 0.0
H304 H 0.46887 0.09659 0.61745 0.0
H305 H 0.35545 0.04248 0.78657 0.0
O306 O 0.37339 0.01795 0.79049 0.0
H307 H 0.2972 0.00274 0.69831 0.0
H308 H 0.31615 0.94333 0.77016 0.0
H309 H 0.37807 0.99073 0.69161 0.0
H310 H 0.33224 0.00182 0.69639 0.0
H311 H 0.33592 0.9842 0.77615 0.0
O312 O 0.40156 0.09535 0.71404 0.0
H313 H 0.43791 0.07048 0.65486 0.0
H314 H 0.44272 0.12444 0.71392 0.0
H315 H 0.35863 0.94994 0.68449 0.0
H316 H 0.32058 0.0437 0.78964 0.0
H317 H 0.32743 0.92595 0.72396 0.0
H318 H 0.29119 0.02378 0.74522 0.0
O319 O 0.40218 0.02173 0.73702 0.0
H320 H 0.42367 0.10947 0.83373 0.0
H321 H 0.45991 0.08947 0.74161 0.0
H322 H 0.48052 0.10711 0.79546 0.0
H323 H 0.4624 0.11726 0.84196 0.0
H324 H 0.40358 0.09161 0.77959 0.0
H325 H 0.47361 0.15115 0.67698 0.0
H326 H 0.48694 0.13724 0.62843 0.0
O327 O 0.42741 0.05527 0.71632 0.0
C328 C 0.38272 0.04026 0.6652 0.0
C329 C 0.46327 0.10285 0.63861 0.0
C330 C 0.46591 0.13347 0.67199 0.0
N331 N 0.43866 0.09592 0.68672 0.0
C332 C 0.44579 0.08814 0.65993 0.0
C333 C 0.44839 0.11827 0.69278 0.0
C334 C 0.47338 0.12566 0.64476 0.0
C335 C 0.34265 0.03362 0.76734 0.0
N336 N 0.34582 0.02201 0.74146 0.0
C337 C 0.32298 0.03443 0.76913 0.0
C338 C 0.30651 0.02327 0.74417 0.0
C339 C 0.30988 0.01148 0.71783 0.0
C340 C 0.32977 0.01105 0.71684 0.0
C341 C 0.32968 0.95361 0.75275 0.0
C342 C 0.36441 0.9804 0.70872 0.0
C343 C 0.34096 0.97675 0.75605 0.0
N344 N 0.358 0.98983 0.73404 0.0
C345 C 0.35351 0.95732 0.70464 0.0
C346 C 0.33602 0.94387 0.72682 0.0
C347 C 0.42165 0.0356 0.7263 0.0
C348 C 0.43176 0.10518 0.81362 0.0
C349 C 0.45188 0.09377 0.76177 0.0
C350 C 0.46366 0.10381 0.79217 0.0
C351 C 0.45348 0.10951 0.81824 0.0
N352 N 0.43059 0.08958 0.75742 0.0
C353 C 0.42051 0.09515 0.78285 0.0
Co354 Co 0.62818 0.64996 0.57735 0.0
Co355 Co 0.58728 0.66197 0.60112 0.0
O356 O 0.61205 0.66617 0.57169 0.0
C357 C 0.61126 0.63981 0.5059 0.0
O358 O 0.59248 0.63742 0.51776 0.0
C359 C 0.61961 0.71 0.60866 0.0
O360 O 0.63509 0.70471 0.61387 0.0
O361 O 0.60415 0.66409 0.64416 0.0
O362 O 0.62878 0.65367 0.62854 0.0
H363 H 0.53294 0.62876 0.69964 0.0
H364 H 0.64528 0.68802 0.52861 0.0
O365 O 0.62775 0.64557 0.52612 0.0
H366 H 0.70485 0.70866 0.61524 0.0
H367 H 0.6861 0.62962 0.54553 0.0
H368 H 0.62509 0.61536 0.62592 0.0
H369 H 0.67015 0.67244 0.61875 0.0
H370 H 0.66567 0.65005 0.53945 0.0
O371 O 0.59965 0.69488 0.60246 0.0
H372 H 0.56392 0.63381 0.66209 0.0
H373 H 0.55839 0.68243 0.60277 0.0
H374 H 0.6452 0.5947 0.63313 0.0
H375 H 0.6798 0.72435 0.52395 0.0
H376 H 0.67596 0.60179 0.59274 0.0
H377 H 0.70985 0.73488 0.56754 0.0
O378 O 0.59998 0.62102 0.58088 0.0
H379 H 0.57723 0.68624 0.48276 0.0
H380 H 0.54155 0.63028 0.5754 0.0
H381 H 0.52076 0.62688 0.52158 0.0
H382 H 0.53861 0.65501 0.4748 0.0
H383 H 0.59749 0.68891 0.53689 0.0
H384 H 0.52748 0.67805 0.63985 0.0
H385 H 0.51451 0.65098 0.6886 0.0
O386 O 0.57431 0.62901 0.60056 0.0
C387 C 0.61941 0.65959 0.65123 0.0
C388 C 0.53839 0.64054 0.6784 0.0
C389 C 0.53534 0.66823 0.64487 0.0
N390 N 0.5628 0.65823 0.63008 0.0
C391 C 0.55587 0.64342 0.65699 0.0
C392 C 0.55288 0.67066 0.624 0.0
C393 C 0.52807 0.65304 0.67221 0.0
C394 C 0.65837 0.69242 0.54749 0.0
N395 N 0.65576 0.6781 0.5738 0.0
C396 C 0.67784 0.71304 0.5448 0.0
C397 C 0.69468 0.71895 0.56929 0.0
C398 C 0.69188 0.70425 0.59607 0.0
C399 C 0.67218 0.68379 0.59797 0.0
C400 C 0.67277 0.62642 0.56334 0.0
C401 C 0.63855 0.61864 0.60839 0.0
C402 C 0.66112 0.63791 0.56 0.0
N403 N 0.64434 0.63404 0.58251 0.0
C404 C 0.64983 0.60684 0.61254 0.0
C405 C 0.66707 0.61081 0.58984 0.0
C406 C 0.58042 0.61522 0.59138 0.0
C407 C 0.56925 0.67392 0.50299 0.0
C408 C 0.54945 0.64256 0.55514 0.0
C409 C 0.53758 0.64058 0.52475 0.0
C410 C 0.5476 0.65637 0.49852 0.0
N411 N 0.57068 0.65983 0.55933 0.0
C412 C 0.58061 0.6754 0.53376 0.0
Co413 Co 0.97585 0.62835 0.90495 0.0
Co414 Co 0.92381 0.58886 0.93434 0.0
O415 O 0.94337 0.61261 0.90248 0.0
C416 C 0.96615 0.61006 0.83406 0.0
O417 O 0.94959 0.59171 0.84684 0.0
C418 C 0.90908 0.62197 0.94214 0.0
O419 O 0.93001 0.63736 0.9461 0.0
O420 O 0.94046 0.6068 0.97563 0.0
O421 O 0.97493 0.63022 0.95626 0.0
H422 H 0.90598 0.53721 0.03595 0.0
H423 H 0.95347 0.64493 0.85814 0.0
O424 O 0.97777 0.62673 0.85355 0.0
H425 H 0.99679 0.70636 0.94011 0.0
H426 H 0.05304 0.68445 0.86538 0.0
H427 H 0.00883 0.62558 0.95052 0.0
H428 H 0.99772 0.67135 0.94389 0.0
H429 H 0.01204 0.66461 0.86334 0.0
O430 O 0.90381 0.6018 0.93688 0.0
H431 H 0.93062 0.56684 -0.00467 0.0
H432 H 0.87456 0.56082 0.94112 0.0
H433 H 0.04979 0.64513 0.95371 0.0
H434 H 0.95219 0.67973 0.85324 0.0
H435 H 0.07218 0.67479 0.91091 0.0
H436 H 0.97392 0.71072 0.89449 0.0
O437 O 0.97608 0.59987 0.90867 0.0
H438 H 0.88459 0.57588 0.81958 0.0
H439 H 0.90798 0.54223 0.91126 0.0
H440 H 0.88803 0.51996 0.8598 0.0
H441 H 0.87616 0.53678 0.81353 0.0
H442 H 0.90478 0.59763 0.87133 0.0
H443 H 0.84931 0.53124 0.98132 0.0
H444 H 0.86501 0.51919 0.02906 0.0
O445 O 0.94328 0.57535 0.93241 0.0
C446 C 0.96065 0.62183 0.98053 0.0
C447 C 0.89894 0.54225 0.01517 0.0
C448 C 0.86713 0.53892 0.98454 0.0
N449 N 0.90404 0.5654 0.96571 0.0
C450 C 0.91281 0.55897 0.99203 0.0
C451 C 0.88151 0.55571 0.9619 0.0
C452 C 0.87595 0.53217 0.01131 0.0
C453 C 0.96311 0.65842 0.87598 0.0
N454 N 0.97573 0.65616 0.90115 0.0
C455 C 0.96226 0.67805 0.87317 0.0
C456 C 0.97443 0.69542 0.89636 0.0
C457 C 0.98726 0.69298 0.92197 0.0
C458 C 0.98768 0.6731 0.92403 0.0
C459 C 0.04347 0.67159 0.88423 0.0
C460 C 0.01846 0.63858 0.93196 0.0
C461 C 0.02026 0.66028 0.88317 0.0
N462 N 0.00807 0.6441 0.90699 0.0
C463 C 0.04165 0.64954 0.93382 0.0
C464 C 0.0542 0.66617 0.90978 0.0
C465 C 0.96255 0.58073 0.921 0.0
C466 C 0.88963 0.56835 0.83961 0.0
C467 C 0.90294 0.5497 0.89118 0.0
C468 C 0.8916 0.53698 0.86214 0.0
C469 C 0.88493 0.54642 0.83621 0.0
N470 N 0.90747 0.57119 0.89435 0.0
C471 C 0.90098 0.58055 0.86904 0.0
Co472 Co 0.34199 0.97525 0.23834 0.0
Co473 Co 0.33281 0.92517 0.27239 0.0
O474 O 0.3264 0.94266 0.23929 0.0
C475 C 0.34949 0.9631 0.16848 0.0
O476 O 0.35239 0.94764 0.18305 0.0
C477 C 0.28499 0.90915 0.28382 0.0
O478 O 0.28945 0.92986 0.28175 0.0
O479 O 0.33252 0.94334 0.31215 0.0
O480 O 0.34052 0.97642 0.2898 0.0
H481 H 0.37235 0.91417 0.37318 0.0
H482 H 0.30217 0.94969 0.19416 0.0
O483 O 0.34424 0.97507 0.18673 0.0
H484 H 0.28332 0.99408 0.2725 0.0
H485 H 0.35848 0.04961 0.19105 0.0
H486 H 0.37806 0.01112 0.27997 0.0
H487 H 0.32014 0.99694 0.27566 0.0
H488 H 0.33892 0.0086 0.19335 0.0
O489 O 0.30032 0.90439 0.27938 0.0
H490 H 0.36435 0.93601 0.33097 0.0
H491 H 0.31398 0.87654 0.28434 0.0
H492 H 0.39791 0.05216 0.27882 0.0
H493 H 0.2652 0.94645 0.18991 0.0
H494 H 0.38814 0.07167 0.2341 0.0
H495 H 0.25556 0.96871 0.22936 0.0
O496 O 0.37154 0.97721 0.24156 0.0
H497 H 0.30269 0.88035 0.16301 0.0
H498 H 0.36388 0.90991 0.24842 0.0
H499 H 0.36482 0.88811 0.19847 0.0
H500 H 0.33406 0.87315 0.15536 0.0
H501 H 0.30251 0.9024 0.21321 0.0
H502 H 0.32129 0.85404 0.32623 0.0
H503 H 0.35072 0.87287 0.37096 0.0
O504 O 0.3654 0.94542 0.26669 0.0
C505 C 0.33646 0.96328 0.31534 0.0
C506 C 0.35954 0.90577 0.35373 0.0
C507 C 0.33086 0.87202 0.3274 0.0
N508 N 0.33887 0.90757 0.30503 0.0
C509 C 0.35498 0.91805 0.3297 0.0
C510 C 0.32677 0.88485 0.30379 0.0
C511 C 0.34738 0.8826 0.35249 0.0
C512 C 0.29815 0.95957 0.21118 0.0
N513 N 0.31331 0.97355 0.235 0.0
C514 C 0.27717 0.95761 0.20876 0.0
C515 C 0.27177 0.97008 0.23093 0.0
C516 C 0.28733 0.98431 0.25516 0.0
C517 C 0.30813 0.98582 0.25688 0.0
C518 C 0.36285 0.0413 0.21071 0.0
C519 C 0.37362 0.0195 0.26059 0.0
C520 C 0.35186 0.01809 0.21211 0.0
N521 N 0.35721 0.00749 0.23698 0.0
C522 C 0.38496 0.04273 0.26 0.0
C523 C 0.37949 0.05367 0.23488 0.0
C524 C 0.37832 0.96463 0.25405 0.0
C525 C 0.31616 0.88673 0.18168 0.0
C526 C 0.35046 0.9035 0.22973 0.0
C527 C 0.35106 0.89113 0.20154 0.0
C528 C 0.33378 0.88272 0.17737 0.0
N529 N 0.3331 0.90734 0.23378 0.0
C530 C 0.3161 0.89914 0.21022 0.0
Co531 Co 0.37072 0.34575 0.57871 0.0
Co532 Co 0.41221 0.33627 0.60908 0.0
O533 O 0.38778 0.33024 0.57734 0.0
C534 C 0.38937 0.35429 0.5082 0.0
O535 O 0.40794 0.35716 0.52185 0.0
C536 C 0.38066 0.28829 0.61953 0.0
O537 O 0.36441 0.29278 0.61889 0.0
O538 O 0.39435 0.33531 0.65008 0.0
O539 O 0.36887 0.34354 0.63021 0.0
H540 H 0.46427 0.37449 0.70892 0.0
H541 H 0.35586 0.30656 0.53278 0.0
O542 O 0.37237 0.34873 0.52715 0.0
H543 H 0.29385 0.28637 0.61426 0.0
H544 H 0.31203 0.36261 0.53669 0.0
H545 H 0.37152 0.38124 0.62269 0.0
H546 H 0.3278 0.32323 0.61758 0.0
H547 H 0.33358 0.34313 0.53615 0.0
O548 O 0.40067 0.30367 0.61462 0.0
H549 H 0.43376 0.36699 0.66837 0.0
H550 H 0.44225 0.31742 0.61749 0.0
H551 H 0.35025 0.40099 0.62439 0.0
H552 H 0.32213 0.26958 0.52835 0.0
H553 H 0.32026 0.3917 0.58115 0.0
H554 H 0.29085 0.25927 0.56937 0.0
O555 O 0.39828 0.3753 0.58205 0.0
H556 H 0.42525 0.30785 0.49658 0.0
H557 H 0.45811 0.36784 0.58398 0.0
H558 H 0.48006 0.36961 0.53246 0.0
H559 H 0.46363 0.33945 0.48834 0.0
H560 H 0.40381 0.30684 0.54837 0.0
H561 H 0.47273 0.32423 0.65767 0.0
H562 H 0.48398 0.35302 0.7037 0.0
O563 O 0.4244 0.36898 0.60485 0.0
C564 C 0.37837 0.3391 0.65472 0.0
C565 C 0.45958 0.36196 0.68889 0.0
C566 C 0.46431 0.33374 0.66015 0.0
N567 N 0.43639 0.34195 0.64039 0.0
C568 C 0.44237 0.3577 0.66579 0.0
C569 C 0.44702 0.32993 0.63751 0.0
C570 C 0.47061 0.34989 0.68597 0.0
C571 C 0.34223 0.30225 0.5505 0.0
N572 N 0.34374 0.31705 0.57528 0.0
C573 C 0.32321 0.28126 0.54796 0.0
C574 C 0.30568 0.27548 0.57102 0.0
C575 C 0.30736 0.29067 0.59623 0.0
C576 C 0.32664 0.3115 0.59803 0.0
C577 C 0.32501 0.36676 0.55573 0.0
C578 C 0.35838 0.377 0.60396 0.0
C579 C 0.33729 0.35581 0.55552 0.0
N580 N 0.35363 0.3609 0.5796 0.0
C581 C 0.34645 0.38828 0.60498 0.0
C582 C 0.32964 0.38308 0.58069 0.0
C583 C 0.41783 0.382 0.59361 0.0
C584 C 0.43261 0.32106 0.51568 0.0
C585 C 0.45083 0.35468 0.56485 0.0
C586 C 0.46335 0.35575 0.53577 0.0
C587 C 0.45413 0.33881 0.51104 0.0
N588 N 0.42973 0.3372 0.56922 0.0
C589 C 0.42059 0.32053 0.54511 0.0
Co590 Co 0.02627 0.37289 0.9083 0.0
Co591 Co 0.07465 0.41491 0.94457 0.0
O592 O 0.05863 0.39133 0.91045 0.0
C593 C 0.03709 0.39288 0.83829 0.0
O594 O 0.04827 0.41248 0.85319 0.0
C595 C 0.0928 0.38492 0.95503 0.0
O596 O 0.07232 0.36821 0.95307 0.0
O597 O 0.05685 0.39517 0.9834 0.0
O598 O 0.02417 0.37011 0.95987 0.0
H599 H 0.08167 0.46269 0.04737 0.0
H600 H 0.05428 0.36062 0.8662 0.0
O601 O 0.02765 0.37524 0.85654 0.0
H602 H 0.01085 0.29659 0.94358 0.0
H603 H 0.95433 0.31252 0.85775 0.0
H604 H 0.98853 0.37074 0.94768 0.0
H605 H 0.00584 0.32934 0.94547 0.0
H606 H 0.99513 0.33581 0.86208 0.0
O607 O 0.09681 0.40482 0.95104 0.0
H608 H 0.06153 0.43317 0.00383 0.0
H609 H 0.12266 0.4466 0.95813 0.0
H610 H 0.94767 0.3477 0.94447 0.0
H611 H 0.05966 0.32811 0.86323 0.0
H612 H 0.93031 0.31834 0.89925 0.0
H613 H 0.03791 0.29583 0.90221 0.0
O614 O 0.02256 0.39955 0.91103 0.0
H615 H 0.12064 0.43414 0.83586 0.0
H616 H 0.08744 0.46107 0.92285 0.0
H617 H 0.1088 0.48545 0.87406 0.0
H618 H 0.12562 0.47202 0.83018 0.0
H619 H 0.09898 0.41024 0.88494 0.0
H620 H 0.14349 0.47613 0.00136 0.0
H621 H 0.12296 0.4844 0.0463 0.0
O622 O 0.05286 0.42545 0.93929 0.0
C623 C 0.03702 0.37892 0.98587 0.0
C624 C 0.0908 0.4593 0.02784 0.0
C625 C 0.1255 0.46683 0.00204 0.0
N626 N 0.0909 0.43833 0.97828 0.0
C627 C 0.07949 0.44266 0.00306 0.0
C628 C 0.11362 0.45007 0.97768 0.0
C629 C 0.11397 0.47146 0.02724 0.0
C630 C 0.0446 0.34654 0.883 0.0
N631 N 0.0297 0.34684 0.90587 0.0
C632 C 0.04778 0.32822 0.88131 0.0
C633 C 0.03559 0.31013 0.90322 0.0
C634 C 0.02042 0.31055 0.92646 0.0
C635 C 0.01769 0.32917 0.92746 0.0
C636 C 0.96169 0.32522 0.87762 0.0
C637 C 0.9811 0.35789 0.92808 0.0
C638 C 0.98478 0.33848 0.88016 0.0
N639 N 0.99419 0.35447 0.90532 0.0
C640 C 0.95796 0.34495 0.92632 0.0
C641 C 0.94823 0.32849 0.90092 0.0
C642 C 0.03389 0.41863 0.92526 0.0
C643 C 0.11344 0.4402 0.85487 0.0
C644 C 0.09465 0.45509 0.90381 0.0
C645 C 0.10677 0.46898 0.87628 0.0
C646 C 0.11621 0.46144 0.85167 0.0
N647 N 0.09208 0.4343 0.90681 0.0
C648 C 0.10124 0.42677 0.88277 0.0
Co649 Co 0.64727 0.02422 0.24392 0.0
Co650 Co 0.65779 0.07636 0.27002 0.0
O651 O 0.66338 0.05675 0.24028 0.0
C652 C 0.63963 0.03236 0.17148 0.0
O653 O 0.63727 0.04893 0.18265 0.0
C654 C 0.7055 0.09229 0.28198 0.0
O655 O 0.70058 0.07141 0.28349 0.0
O656 O 0.65848 0.06052 0.3127 0.0
O657 O 0.64919 0.02604 0.29539 0.0
H658 H 0.62026 0.09395 0.36648 0.0
H659 H 0.68685 0.04657 0.19844 0.0
O660 O 0.64461 0.02134 0.19241 0.0
H661 H 0.70515 0.00606 0.28553 0.0
H662 H 0.62894 0.94695 0.20892 0.0
H663 H 0.61112 0.99135 0.28896 0.0
H664 H 0.6687 0.0041 0.28645 0.0
H665 H 0.64922 0.98793 0.20537 0.0
O666 O 0.69046 0.09712 0.27522 0.0
H667 H 0.6272 0.06942 0.32848 0.0
H668 H 0.67742 0.12557 0.27481 0.0
H669 H 0.59056 0.95041 0.29364 0.0
H670 H 0.72345 0.04884 0.19638 0.0
H671 H 0.59944 0.92793 0.25341 0.0
H672 H 0.73281 0.02853 0.24022 0.0
O673 O 0.61806 0.02307 0.24526 0.0
H674 H 0.68678 0.11451 0.15532 0.0
H675 H 0.62684 0.09073 0.24202 0.0
H676 H 0.62553 0.10973 0.18866 0.0
H677 H 0.65567 0.12179 0.14489 0.0
H678 H 0.68732 0.09528 0.20893 0.0
H679 H 0.67118 0.15073 0.31243 0.0
H680 H 0.64235 0.13493 0.35857 0.0
O681 O 0.62505 0.05621 0.26603 0.0
C682 C 0.6541 0.0407 0.31888 0.0
C683 C 0.63281 0.10104 0.34639 0.0
C684 C 0.66141 0.13291 0.31608 0.0
N685 N 0.65255 0.09605 0.29927 0.0
C686 C 0.63676 0.08723 0.32473 0.0
C687 C 0.66489 0.11858 0.2949 0.0
C688 C 0.64523 0.12403 0.34196 0.0
C689 C 0.69074 0.03753 0.2174 0.0
N690 N 0.67563 0.02514 0.24242 0.0
C691 C 0.71151 0.03894 0.2162 0.0
C692 C 0.71677 0.02757 0.24083 0.0
C693 C 0.70126 0.01497 0.26628 0.0
C694 C 0.68067 0.01397 0.26671 0.0
C695 C 0.62496 0.95656 0.22666 0.0
C696 C 0.61518 0.98168 0.27153 0.0
C697 C 0.63636 0.97977 0.22474 0.0
N698 N 0.63149 0.99202 0.24716 0.0
C699 C 0.60344 0.9585 0.27423 0.0
C700 C 0.60842 0.9459 0.25163 0.0
C701 C 0.61175 0.03651 0.25548 0.0
C702 C 0.67358 0.10939 0.17424 0.0
C703 C 0.63998 0.09587 0.22304 0.0
C704 C 0.63918 0.10667 0.19292 0.0
C705 C 0.6561 0.11344 0.16838 0.0
N706 N 0.6572 0.09198 0.22862 0.0
C707 C 0.67385 0.09858 0.2047 0.0
C708 C 0.36057 0.40041 0.21422 0.0
C709 C 0.36356 0.38821 0.18787 0.0
C710 C 0.36515 0.39791 0.2488 0.0
C711 C 0.37371 0.35923 0.3055 0.0
H712 H 0.39386 0.4077 0.37166 0.0
C713 C 0.40242 0.35728 0.44685 0.0
C714 C 0.38845 0.35919 0.47128 0.0
C715 C 0.40119 0.36187 0.4118 0.0
C716 C 0.38835 0.39412 0.35326 0.0
H717 H 0.3747 0.36477 0.17633 0.0
H718 H 0.38384 0.36132 0.23596 0.0
H719 H 0.38873 0.41413 0.31079 0.0
H720 H 0.36279 0.36798 0.47871 0.0
H721 H 0.36119 0.37659 0.4176 0.0
H722 H 0.374 0.33951 0.34814 0.0
C723 C 0.37696 0.37199 0.23062 0.0
C724 C 0.38517 0.39767 0.31852 0.0
C725 C 0.37186 0.37406 0.19634 0.0
C726 C 0.37361 0.36619 0.46032 0.0
C727 C 0.37279 0.37127 0.42553 0.0
C728 C 0.37739 0.35587 0.34002 0.0
C729 C 0.37332 0.38357 0.25745 0.0
C730 C 0.37756 0.38019 0.29424 0.0
C731 C 0.38644 0.36899 0.40105 0.0
C732 C 0.38447 0.3732 0.36414 0.0
H733 H 0.35414 0.4114 0.20822 0.0
H734 H 0.36181 0.40686 0.26873 0.0
H735 H 0.36734 0.34519 0.2879 0.0
H736 H 0.41398 0.35191 0.45474 0.0
H737 H 0.4118 0.35998 0.39311 0.0
C738 C 0.98212 0.34728 0.53504 0.0
C739 C 0.97462 0.3603 0.51827 0.0
C740 C 0.98861 0.35113 0.56984 0.0
C741 C 0.01238 0.39428 0.63484 0.0
H742 H 0.98782 0.34603 0.70162 0.0
C743 C 0.03314 0.40829 0.78174 0.0
C744 C 0.03334 0.39105 0.80047 0.0
C745 C 0.02664 0.40524 0.74684 0.0
C746 C 0.9952 0.35964 0.68325 0.0
H747 H 0.96795 0.38748 0.52464 0.0
H748 H 0.97987 0.39453 0.58555 0.0
H749 H 0.97449 0.33901 0.64187 0.0
H750 H 0.02832 0.35767 0.79713 0.0
H751 H 0.01816 0.35272 0.73597 0.0
H752 H 0.03371 0.41481 0.67564 0.0
C753 C 0.98049 0.38126 0.57168 0.0
C754 C 0.98738 0.35561 0.64912 0.0
C755 C 0.97356 0.37712 0.53701 0.0
C756 C 0.02806 0.37115 0.78334 0.0
C757 C 0.02201 0.36825 0.74836 0.0
C758 C 0.02053 0.39827 0.66888 0.0
C759 C 0.98812 0.36832 0.58829 0.0
C760 C 0.99591 0.37287 0.62466 0.0
C761 C 0.0206 0.385 0.72987 0.0
C762 C 0.01209 0.38096 0.69352 0.0
H763 H 0.98307 0.33418 0.52121 0.0
H764 H 0.99453 0.34101 0.58213 0.0
H765 H 0.01935 0.4078 0.61623 0.0
H766 H 0.03699 0.42375 0.79446 0.0
H767 H 0.02557 0.41844 0.73363 0.0
C768 C 0.59829 0.95463 0.87603 0.0
C769 C 0.61264 0.9705 0.8519 0.0
C770 C 0.59919 0.96038 0.91108 0.0
C771 C 0.61171 0.00557 0.9693 0.0
H772 H 0.6316 0.97748 0.03617 0.0
C773 C 0.63825 0.04014 0.10835 0.0
C774 C 0.6348 0.02504 0.13509 0.0
C775 C 0.63405 0.0329 0.07381 0.0
C776 C 0.62554 0.98521 0.01814 0.0
H777 H 0.63866 0.00487 0.84504 0.0
H778 H 0.63969 0.01497 0.90607 0.0
H779 H 0.62549 0.96497 0.97597 0.0
H780 H 0.6233 0.99046 0.14725 0.0
H781 H 0.61484 0.97761 0.08762 0.0
H782 H 0.61111 0.02545 0.01123 0.0
C783 C 0.62805 0.9981 0.89793 0.0
C784 C 0.62217 0.97806 0.98364 0.0
C785 C 0.62755 0.99225 0.86317 0.0
C786 C 0.62649 0.00253 0.12697 0.0
C787 C 0.62177 0.9952 0.09269 0.0
C788 C 0.61459 0.01242 0.00397 0.0
C789 C 0.614 0.9822 0.92211 0.0
C790 C 0.61551 0.98838 0.95898 0.0
C791 C 0.62579 0.01031 0.06553 0.0
C792 C 0.62182 0.00251 0.0288 0.0
H793 H 0.58666 0.93777 0.8679 0.0
H794 H 0.58826 0.9479 0.92953 0.0
H795 H 0.60653 0.0137 0.95049 0.0
H796 H 0.64471 0.05761 0.11404 0.0
H797 H 0.6377 0.04512 0.05363 0.0
C798 C 0.6464 0.5993 0.21055 0.0
C799 C 0.64232 0.61132 0.18519 0.0
C800 C 0.64213 0.60115 0.24558 0.0
C801 C 0.63233 0.63792 0.30486 0.0
H802 H 0.61305 0.58859 0.36905 0.0
C803 C 0.59997 0.63695 0.44364 0.0
C804 C 0.61319 0.63491 0.46933 0.0
C805 C 0.60242 0.63284 0.40885 0.0
C806 C 0.61838 0.60242 0.35122 0.0
H807 H 0.62952 0.63367 0.17587 0.0
H808 H 0.62099 0.63597 0.23618 0.0
H809 H 0.61929 0.58352 0.308 0.0
H810 H 0.63871 0.62625 0.47929 0.0
H811 H 0.64249 0.61848 0.41847 0.0
H812 H 0.63067 0.6565 0.34807 0.0
C813 C 0.6285 0.626 0.22976 0.0
C814 C 0.62217 0.59964 0.3164 0.0
C815 C 0.63325 0.62457 0.19507 0.0
C816 C 0.62844 0.62812 0.45989 0.0
C817 C 0.63051 0.62352 0.42527 0.0
C818 C 0.62807 0.64051 0.3394 0.0
C819 C 0.63325 0.61467 0.25561 0.0
C820 C 0.62923 0.61739 0.29276 0.0
C821 C 0.6177 0.6261 0.39953 0.0
C822 C 0.62116 0.62283 0.36279 0.0
H823 H 0.6534 0.58897 0.20342 0.0
H824 H 0.64624 0.59236 0.26477 0.0
H825 H 0.63835 0.65218 0.28779 0.0
H826 H 0.58811 0.64218 0.45033 0.0
H827 H 0.59243 0.63492 0.3892 0.0
C828 C 0.95709 0.59887 0.77177 0.0
C829 C 0.97276 0.61109 0.79757 0.0
C830 C 0.96371 0.60064 0.73705 0.0
C831 C 0.01069 0.63748 0.67872 0.0
H832 H 0.98093 0.58804 0.61454 0.0
C833 C 0.04057 0.63744 0.53816 0.0
C834 C 0.02461 0.63484 0.51337 0.0
C835 C 0.03474 0.63326 0.57324 0.0
C836 C 0.98938 0.6019 0.63237 0.0
H837 H 0.00769 0.6338 0.808 0.0
H838 H 0.01941 0.636 0.74812 0.0
H839 H 0.96982 0.58289 0.67562 0.0
H840 H 0.98998 0.62517 0.50529 0.0
H841 H 0.97975 0.6173 0.56651 0.0
H842 H 0.0306 0.6562 0.63538 0.0
C843 C 0.00188 0.62588 0.75401 0.0
C844 C 0.98292 0.59907 0.66722 0.0
C845 C 0.99519 0.62452 0.78842 0.0
C846 C 0.00265 0.62747 0.52397 0.0
C847 C 0.99673 0.62281 0.55883 0.0
C848 C 0.01743 0.64012 0.64412 0.0
C849 C 0.98621 0.61428 0.72773 0.0
C850 C 0.99337 0.6169 0.69079 0.0
C851 C 0.01278 0.62589 0.5837 0.0
C852 C 0.00669 0.62243 0.62069 0.0
H853 H 0.93968 0.58843 0.77831 0.0
H854 H 0.9511 0.5917 0.71752 0.0
H855 H 0.01879 0.65178 0.69577 0.0
H856 H 0.0576 0.64312 0.53056 0.0
H857 H 0.04733 0.63574 0.59219 0.0
C858 C 0.35249 0.952 0.10771 0.0
C859 C 0.35432 0.96826 0.13135 0.0
C860 C 0.35728 0.9573 0.07252 0.0
C861 C 0.39037 0.0017 0.01351 0.0
H862 H 0.34235 0.97382 0.94662 0.0
C863 C 0.39862 0.03628 0.87469 0.0
C864 C 0.38686 0.02129 0.84785 0.0
C865 C 0.39557 0.02895 0.90915 0.0
C866 C 0.35614 0.98146 0.96467 0.0
H867 H 0.36309 0.00283 0.13719 0.0
H868 H 0.37203 0.01212 0.07595 0.0
H869 H 0.3358 0.96164 0.00697 0.0
H870 H 0.36354 0.9868 0.83543 0.0
H871 H 0.35909 0.97379 0.89499 0.0
H872 H 0.41098 0.02119 0.97148 0.0
C873 C 0.36662 0.9953 0.08457 0.0
C874 C 0.35228 0.97451 -0.00076 0.0
C875 C 0.36135 0.98992 0.11944 0.0
C876 C 0.37253 0.99879 0.85579 0.0
C877 C 0.36989 0.99136 0.89002 0.0
C878 C 0.39441 0.00835 0.97877 0.0
C879 C 0.36452 0.97903 0.06088 0.0
C880 C 0.36927 0.98481 0.02391 0.0
C881 C 0.3811 0.00637 0.91727 0.0
C882 C 0.37725 0.99855 0.95396 0.0
H883 H 0.34711 0.93519 0.11632 0.0
H884 H 0.35553 0.94453 0.05446 0.0
H885 H 0.40369 0.00979 0.03231 0.0
H886 H 0.40972 0.05374 0.86914 0.0
H887 H 0.40422 0.0411 0.9294 0.0
C888 C 0.13163 0.39896 0.97566 0.0
C889 C 0.11116 0.38101 0.96482 0.0
C890 C 0.14866 0.39541 0.98704 0.0
C891 C 0.17166 0.35879 0.9804 0.0
H892 H 0.20208 0.38827 0.06556 0.0
C893 C 0.25015 0.35762 0.02977 0.0
C894 C 0.26761 0.37854 0.04019 0.0
C895 C 0.22881 0.35441 0.02402 0.0
C896 C 0.19382 0.37997 0.04169 0.0
H897 H 0.0927 0.34531 0.95652 0.0
H898 H 0.12291 0.33919 0.97592 0.0
H899 H 0.169 0.3894 0.04763 0.0
H900 H 0.27619 0.41232 0.05363 0.0
H901 H 0.23939 0.40683 0.04328 0.0
H902 H 0.19709 0.35021 0.97364 0.0
C903 C 0.12553 0.35594 0.97583 0.0
C904 C 0.17486 0.38059 0.0315 0.0
C905 C 0.10828 0.35945 0.96482 0.0
C906 C 0.26316 0.39597 0.0456 0.0
C907 C 0.24195 0.39277 0.03993 0.0
C908 C 0.19081 0.35832 0.99047 0.0
C909 C 0.14574 0.37389 0.98752 0.0
C910 C 0.16396 0.37054 0.0003 0.0
C911 C 0.22454 0.37203 0.0288 0.0
C912 C 0.20245 0.36949 0.02072 0.0
H913 H 0.13442 0.41578 0.97601 0.0
H914 H 0.16421 0.40958 -0.00458 0.0
H915 H 0.16355 0.35095 0.95619 0.0
H916 H 0.25304 0.34384 0.02545 0.0
H917 H 0.21569 0.33819 0.0157 0.0
C918 C 0.8647 0.26186 0.37529 0.0
C919 C 0.88648 0.26557 0.37261 0.0
C920 C 0.8465 0.24078 0.36931 0.0
C921 C 0.83024 0.18832 0.32357 0.0
H922 H 0.77536 0.16905 0.37433 0.0
C923 C 0.74577 0.10643 0.29627 0.0
C924 C 0.7279 0.11036 0.29196 0.0
C925 C 0.76645 0.12346 0.30806 0.0
C926 C 0.79061 0.17419 0.36004 0.0
H927 H 0.90619 0.24985 0.36252 0.0
H928 H 0.87419 0.21279 0.35238 0.0
H929 H 0.80932 0.20195 0.39363 0.0
H930 H 0.71785 0.13533 0.29613 0.0
H931 H 0.7536 0.16466 0.31698 0.0
H932 H 0.81118 0.16048 0.28977 0.0
C933 C 0.8713 0.22635 0.35869 0.0
C934 C 0.81003 0.19306 0.37097 0.0
C935 C 0.88961 0.24754 0.36467 0.0
C936 C 0.73121 0.13168 0.29912 0.0
C937 C 0.75165 0.14848 0.31132 0.0
C938 C 0.81077 0.16924 0.31282 0.0
C939 C 0.84953 0.22279 0.36066 0.0
C940 C 0.82991 0.2008 0.35219 0.0
C941 C 0.76938 0.14449 0.31629 0.0
C942 C 0.79066 0.16247 0.33034 0.0
H943 H 0.86165 0.27535 0.38129 0.0
H944 H 0.83001 0.23878 0.37045 0.0
H945 H 0.84524 0.1939 0.30841 0.0
H946 H 0.74372 0.09019 0.29088 0.0
H947 H 0.77994 0.12006 0.31161 0.0
C948 C 0.60728 0.86999 0.68002 0.0
C949 C 0.62516 0.89045 0.69107 0.0
C950 C 0.61092 0.85314 0.66803 0.0
C951 C 0.64687 0.82967 0.67376 0.0
H952 H 0.61825 0.80093 0.58716 0.0
C953 C 0.64572 0.75016 0.62358 0.0
C954 C 0.6247 0.73331 0.6123 0.0
C955 C 0.64967 0.77178 0.62948 0.0
C956 C 0.62631 0.80873 0.61142 0.0
H957 H 0.66086 0.90907 0.69913 0.0
H958 H 0.66714 0.87907 0.67878 0.0
H959 H 0.61782 0.83427 0.6059 0.0
H960 H 0.59158 0.72611 0.59739 0.0
H961 H 0.59834 0.76338 0.60802 0.0
H962 H 0.65437 0.80344 0.68019 0.0
C963 C 0.65037 0.87638 0.67912 0.0
C964 C 0.62613 0.82784 0.62204 0.0
C965 C 0.64677 0.89349 0.69068 0.0
C966 C 0.60798 0.73866 0.60609 0.0
C967 C 0.61192 0.76015 0.61192 0.0
C968 C 0.64688 0.81035 0.66326 0.0
C969 C 0.63248 0.85621 0.66718 0.0
C970 C 0.63583 0.83811 0.65377 0.0
C971 C 0.63272 0.77694 0.62401 0.0
C972 C 0.63597 0.79928 0.63249 0.0
H973 H 0.59043 0.86706 0.6799 0.0
H974 H 0.59681 0.83761 0.65945 0.0
H975 H 0.65441 0.83729 0.69838 0.0
H976 H 0.65897 0.74658 0.62853 0.0
H977 H 0.66593 0.78439 0.63853 0.0
C978 C 0.73714 0.60888 0.00892 0.0
C979 C 0.73401 0.62615 0.02144 0.0
C980 C 0.75786 0.61334 -0.00315 0.0
C981 C 0.81687 0.64969 0.00529 0.0
H982 H 0.81866 0.62355 0.91705 0.0
C983 C 0.8956 0.64854 0.95715 0.0
C984 C 0.89117 0.62751 0.94544 0.0
C985 C 0.87815 0.65287 0.96252 0.0
C986 C 0.81847 0.63097 0.94173 0.0
H987 H 0.7503 0.66159 0.03184 0.0
H988 H 0.78703 0.66929 0.01137 0.0
H989 H 0.7846 0.62272 0.93504 0.0
H990 H 0.86506 0.5948 0.92912 0.0
H991 H 0.83492 0.60223 0.9387 0.0
H992 H 0.85039 0.65681 0.01289 0.0
C993 C 0.77319 0.65238 0.01063 0.0
C994 C 0.79901 0.63056 0.95193 0.0
C995 C 0.75223 0.64797 0.02225 0.0
C996 C 0.86909 0.61118 0.93823 0.0
C997 C 0.85178 0.61551 0.94344 0.0
C998 C 0.83637 0.64993 -0.0048 0.0
C999 C 0.77604 0.6351 -0.00262 0.0
C1000 C 0.7978 0.63924 0.98428 0.0
C1001 C 0.85602 0.6363 0.95595 0.0
C1002 C 0.83708 0.63985 0.96385 0.0
H1003 H 0.72347 0.59189 0.00782 0.0
H1004 H 0.75972 0.59968 0.98723 0.0
H1005 H 0.81629 0.65643 0.03041 0.0
H1006 H 0.91245 0.66148 0.96289 0.0
H1007 H 0.88194 0.66909 0.972 0.0
C1008 C 0.10193 0.74992 0.35686 0.0
C1009 C 0.10652 0.73339 0.36836 0.0
C1010 C 0.11926 0.77179 0.35171 0.0
C1011 C 0.17885 0.80993 0.37271 0.0
H1012 H 0.18062 0.83809 0.28475 0.0
C1013 C 0.25996 0.87099 0.30656 0.0
C1014 C 0.26267 0.89129 0.29439 0.0
C1015 C 0.23935 0.85432 0.31835 0.0
C1016 C 0.18015 0.83061 0.30967 0.0
H1017 H 0.1328 0.72702 0.38446 0.0
H1018 H 0.16274 0.76475 0.37522 0.0
H1019 H 0.1468 0.80393 0.30177 0.0
H1020 H 0.24572 0.90984 0.28431 0.0
H1021 H 0.20921 0.88011 0.3043 0.0
H1022 H 0.21256 0.83589 0.3797 0.0
C1023 C 0.14585 0.76104 0.37052 0.0
C1024 C 0.16081 0.8111 0.31948 0.0
C1025 C 0.12864 0.7393 0.37554 0.0
C1026 C 0.24413 0.89438 0.29363 0.0
C1027 C 0.22329 0.87743 0.30499 0.0
C1028 C 0.19815 0.82924 0.36279 0.0
C1029 C 0.14143 0.77752 0.35823 0.0
C1030 C 0.16025 0.80014 0.35057 0.0
C1031 C 0.22086 0.85739 0.31789 0.0
C1032 C 0.19922 0.83934 0.3307 0.0
H1033 H 0.08505 0.74589 0.35115 0.0
H1034 H 0.11533 0.78416 0.34242 0.0
H1035 H 0.17877 0.8022 0.3972 0.0
H1036 H 0.27387 0.86804 0.30761 0.0
H1037 H 0.23783 0.83888 0.32769 0.0
C1038 C 0.39298 0.13061 0.71109 0.0
C1039 C 0.37641 0.10857 0.70422 0.0
C1040 C 0.38895 0.14813 0.70569 0.0
C1041 C 0.35419 0.1637 0.6546 0.0
H1042 H 0.38271 0.21604 0.7135 0.0
C1043 C 0.35465 0.24741 0.62955 0.0
C1044 C 0.37633 0.26587 0.62935 0.0
C1045 C 0.35086 0.22654 0.6406 0.0
C1046 C 0.37453 0.20148 0.69695 0.0
H1047 H 0.3423 0.08757 0.68722 0.0
H1048 H 0.33517 0.11837 0.67797 0.0
H1049 H 0.38217 0.18209 0.73141 0.0
H1050 H 0.41101 0.27687 0.64038 0.0
H1051 H 0.4043 0.24076 0.66001 0.0
H1052 H 0.34691 0.18349 0.61992 0.0
C1053 C 0.35139 0.12202 0.68721 0.0
C1054 C 0.37429 0.18208 0.70709 0.0
C1055 C 0.35544 0.10439 0.69268 0.0
C1056 C 0.3941 0.26302 0.64011 0.0
C1057 C 0.39027 0.24238 0.65162 0.0
C1058 C 0.35424 0.18313 0.64461 0.0
C1059 C 0.36819 0.14411 0.69339 0.0
C1060 C 0.36487 0.16322 0.68544 0.0
C1061 C 0.36864 0.224 0.65224 0.0
C1062 C 0.36511 0.20239 0.66516 0.0
H1063 H 0.40934 0.13448 0.72 0.0
H1064 H 0.40242 0.16493 0.71012 0.0
H1065 H 0.34688 0.14951 0.63725 0.0
H1066 H 0.34065 0.24911 0.62132 0.0
H1067 H 0.33404 0.21254 0.64078 0.0
C1068 C 0.37784 0.3309 0.71821 0.0
C1069 C 0.37084 0.33916 0.69058 0.0
C1070 C 0.37179 0.33231 0.7523 0.0
C1071 C 0.33377 0.34399 0.80508 0.0
H1072 H 0.38001 0.36111 0.87455 0.0
C1073 C 0.33429 0.38123 0.9407 0.0
C1074 C 0.34035 0.37244 0.96883 0.0
C1075 C 0.33553 0.37486 0.90666 0.0
C1076 C 0.36687 0.35612 0.85547 0.0
H1077 H 0.3515 0.35485 0.67701 0.0
H1078 H 0.34168 0.358 0.73635 0.0
H1079 H 0.38681 0.35386 0.81533 0.0
H1080 H 0.35166 0.34939 0.98321 0.0
H1081 H 0.354 0.33863 0.92407 0.0
H1082 H 0.31421 0.34715 0.84544 0.0
C1083 C 0.35139 0.34997 0.73176 0.0
C1084 C 0.37069 0.35183 0.82157 0.0
C1085 C 0.35719 0.34831 0.69767 0.0
C1086 C 0.347 0.35667 0.96226 0.0
C1087 C 0.34842 0.3505 0.92836 0.0
C1088 C 0.33006 0.34856 0.839 0.0
C1089 C 0.35887 0.34227 0.75953 0.0
C1090 C 0.35422 0.34574 0.79593 0.0
C1091 C 0.34305 0.35979 0.90027 0.0
C1092 C 0.34659 0.35466 0.86442 0.0
H1093 H 0.38815 0.32352 0.71357 0.0
H1094 H 0.37744 0.32579 0.77302 0.0
H1095 H 0.32061 0.33904 0.78609 0.0
H1096 H 0.32903 0.39335 0.94487 0.0
H1097 H 0.3314 0.38231 0.8853 0.0
C1098 C 0.94916 0.32737 0.27215 0.0
C1099 C 0.96515 0.33542 0.29881 0.0
C1100 C 0.95555 0.3279 0.23758 0.0
C1101 C 0.0032 0.33663 0.18183 0.0
H1102 H 0.97515 0.35632 0.11444 0.0
C1103 C 0.04226 0.37695 0.04999 0.0
C1104 C 0.02817 0.37006 0.0208 0.0
C1105 C 0.03361 0.36938 0.08315 0.0
C1106 C 0.98293 0.35052 0.13287 0.0
H1107 H 0.00035 0.34972 0.31009 0.0
H1108 H 0.01149 0.35129 0.25001 0.0
H1109 H 0.96147 0.34882 0.17391 0.0
H1110 H 0.99398 0.34935 0.00357 0.0
H1111 H 0.97897 0.33647 0.06155 0.0
H1112 H 0.0253 0.33936 0.1408 0.0
C1113 C 0.99396 0.34411 0.25571 0.0
C1114 C 0.97504 0.34612 0.16695 0.0
C1115 C 0.98756 0.34337 0.29025 0.0
C1116 C 0.00532 0.35507 0.02546 0.0
C1117 C 0.99667 0.34772 0.05864 0.0
C1118 C 0.01125 0.34129 0.14781 0.0
C1119 C 0.97808 0.33668 0.22889 0.0
C1120 C 0.98525 0.33939 0.19198 0.0
C1121 C 0.0107 0.35497 0.0878 0.0
C1122 C 0.00132 0.3485 0.12315 0.0
H1123 H 0.93172 0.32093 0.27787 0.0
H1124 H 0.94283 0.32165 0.21764 0.0
H1125 H 0.01119 0.33108 0.20026 0.0
H1126 H 0.05993 0.38841 0.04732 0.0
H1127 H 0.04475 0.37536 0.10528 0.0
C1128 C 0.62359 0.95682 0.60379 0.0
C1129 C 0.63228 0.971 0.63273 0.0
C1130 C 0.62964 0.9653 0.57017 0.0
C1131 C 0.64678 0.01613 0.52189 0.0
H1132 H 0.66141 0.98723 0.44867 0.0
C1133 C 0.66395 0.05005 0.38176 0.0
C1134 C 0.6547 0.03408 0.35516 0.0
C1135 C 0.66427 0.0435 0.416 0.0
C1136 C 0.65717 0.99539 0.46877 0.0
H1137 H 0.65487 0.00509 0.64896 0.0
H1138 H 0.6651 0.01976 0.5903 0.0
H1139 H 0.65628 0.97304 0.50801 0.0
H1140 H 0.63854 0.99871 0.34371 0.0
H1141 H 0.63844 0.98735 0.40321 0.0
H1142 H 0.64668 0.03788 0.48273 0.0
C1143 C 0.65357 0.00215 0.59375 0.0
C1144 C 0.65433 0.9873 0.50269 0.0
C1145 C 0.64772 0.99368 0.62732 0.0
C1146 C 0.6459 0.01149 0.36349 0.0
C1147 C 0.64602 0.00496 0.39766 0.0
C1148 C 0.64936 0.02406 0.48793 0.0
C1149 C 0.64433 0.98811 0.5649 0.0
C1150 C 0.64888 0.99747 0.52944 0.0
C1151 C 0.65516 0.02086 0.42436 0.0
C1152 C 0.65429 0.0136 0.46088 0.0
H1153 H 0.61173 0.93928 0.60703 0.0
H1154 H 0.62219 0.95417 0.54827 0.0
H1155 H 0.64233 0.0241 0.54204 0.0
H1156 H 0.67103 0.0676 0.37614 0.0
H1157 H 0.67171 0.0562 0.43589 0.0
C1158 C 0.64109 0.65304 0.69679 0.0
C1159 C 0.62652 0.66078 0.68774 0.0
C1160 C 0.64699 0.65291 0.73132 0.0
C1161 C 0.62695 0.65198 0.81994 0.0
H1162 H 0.68486 0.66053 0.84504 0.0
C1163 C 0.65053 0.64529 0.96089 0.0
C1164 C 0.65881 0.63065 0.96568 0.0
C1165 C 0.64864 0.65212 0.92765 0.0
C1166 C 0.66864 0.6581 0.83831 0.0
H1167 H 0.60738 0.67527 0.70784 0.0
H1168 H 0.61812 0.67547 0.7683 0.0
H1169 H 0.6781 0.66801 0.7856 0.0
H1170 H 0.67231 0.61233 0.93935 0.0
H1171 H 0.66911 0.62449 0.88112 0.0
H1172 H 0.61756 0.64207 0.87272 0.0
C1173 C 0.62458 0.66906 0.74861 0.0
C1174 C 0.66472 0.66232 0.80434 0.0
C1175 C 0.6185 0.66902 0.71397 0.0
C1176 C 0.66579 0.62354 0.93654 0.0
C1177 C 0.6641 0.63059 0.90326 0.0
C1178 C 0.63096 0.64802 0.85397 0.0
C1179 C 0.63866 0.66071 0.7577 0.0
C1180 C 0.64368 0.65883 0.79459 0.0
C1181 C 0.6552 0.64468 0.89856 0.0
C1182 C 0.65169 0.65065 0.86326 0.0
H1183 H 0.64759 0.64653 0.67732 0.0
H1184 H 0.65753 0.64598 0.73739 0.0
H1185 H 0.61046 0.64879 0.81323 0.0
H1186 H 0.64507 0.65119 0.98273 0.0
H1187 H 0.64189 0.66314 0.92465 0.0
C1188 C 0.00854 0.65 0.28676 0.0
C1189 C 0.03121 0.65903 0.29477 0.0
C1190 C 0.00169 0.64933 0.25254 0.0
C1191 C 0.02023 0.64976 0.16293 0.0
H1192 H 0.96877 0.65524 0.1397 0.0
C1193 C 0.99103 0.64503 0.02239 0.0
C1194 C 0.96842 0.62967 0.01629 0.0
C1195 C 0.99898 0.65127 0.05612 0.0
C1196 C 0.98312 0.65362 0.14593 0.0
H1197 H 0.06454 0.67531 0.27321 0.0
H1198 H 0.05257 0.67461 0.21342 0.0
H1199 H 0.98305 0.66242 0.19918 0.0
H1200 H 0.93629 0.60956 0.04092 0.0
H1201 H 0.95033 0.62066 0.10014 0.0
H1202 H 0.0203 0.64103 0.10967 0.0
C1203 C 0.04007 0.66755 0.2336 0.0
C1204 C 0.99129 0.65768 0.17992 0.0
C1205 C 0.04694 0.66804 0.26787 0.0
C1206 C 0.95379 0.62136 0.04472 0.0
C1207 C 0.96178 0.62778 0.07857 0.0
C1208 C 0.01221 0.64595 0.12895 0.0
C1209 C 0.01733 0.65787 0.2255 0.0
C1210 C 0.00976 0.6555 0.1889 0.0
C1211 C 0.98452 0.64246 0.08452 0.0
C1212 C 0.99346 0.6476 0.12024 0.0
H1213 H 0.99593 0.64288 0.30679 0.0
H1214 H 0.98403 0.64143 0.24723 0.0
H1215 H 0.0342 0.64749 0.16903 0.0
H1216 H 0.0028 0.65192 0.00118 0.0
H1217 H 0.01654 0.66283 0.06005 0.0
C1218 C 0.3451 0.99492 0.35557 0.0
C1219 C 0.33725 0.97208 0.35062 0.0
C1220 C 0.34757 0.00366 0.38897 0.0
C1221 C 0.33031 0.9893 0.47965 0.0
H1222 H 0.38861 0.03914 0.50152 0.0
C1223 C 0.36158 0.0118 0.61959 0.0
C1224 C 0.37556 0.03424 0.62871 0.0
C1225 C 0.35513 0.00576 0.58521 0.0
C1226 C 0.37209 0.02554 0.49575 0.0
H1227 H 0.32499 0.94039 0.37692 0.0
H1228 H 0.32918 0.95574 0.43531 0.0
H1229 H 0.37991 0.02551 0.44197 0.0
H1230 H 0.39329 0.06801 0.60883 0.0
H1231 H 0.38162 0.05744 0.54863 0.0
H1232 H 0.32244 0.98922 0.53335 0.0
C1233 C 0.33342 0.9668 0.41321 0.0
C1234 C 0.36715 0.01769 0.46167 0.0
C1235 C 0.33115 0.95805 0.3798 0.0
C1236 C 0.38263 0.05056 0.60264 0.0
C1237 C 0.37601 0.0445 0.56815 0.0
C1238 C 0.33516 0.99728 0.51368 0.0
C1239 C 0.34202 0.98973 0.41807 0.0
C1240 C 0.34638 0.99924 0.45348 0.0
C1241 C 0.36231 0.022 0.55904 0.0
C1242 C 0.35628 0.01518 0.52227 0.0
H1243 H 0.34987 0.00623 0.33371 0.0
H1244 H 0.35405 0.02137 0.39207 0.0
H1245 H 0.31407 0.97522 0.47384 0.0
H1246 H 0.35585 0.99873 0.63891 0.0
H1247 H 0.34496 0.98825 0.57908 0.0
C1248 C 0.42391 0.43242 0.08445 0.0
C1249 C 0.40898 0.43575 0.06414 0.0
C1250 C 0.44658 0.44825 0.08465 0.0
C1251 C 0.49019 0.49264 0.03275 0.0
H1252 H 0.52153 0.51426 0.1203 0.0
C1253 C 0.58571 0.54588 0.04264 0.0
C1254 C 0.59416 0.56519 0.06322 0.0
C1255 C 0.56305 0.53021 0.04288 0.0
C1256 C 0.51294 0.5084 0.0957 0.0
H1257 H 0.40623 0.45819 0.02775 0.0
H1258 H 0.44583 0.48552 0.02772 0.0
H1259 H 0.48191 0.4862 0.12034 0.0
H1260 H 0.5854 0.58302 0.10052 0.0
H1261 H 0.54574 0.55533 0.10126 0.0
H1262 H 0.52121 0.51467 0.00809 0.0
C1263 C 0.43994 0.47072 0.04356 0.0
C1264 C 0.49037 0.49226 0.09572 0.0
C1265 C 0.41726 0.4551 0.04372 0.0
C1266 C 0.57942 0.56837 0.08427 0.0
C1267 C 0.55677 0.55249 0.08487 0.0
C1268 C 0.5128 0.50852 0.03273 0.0
C1269 C 0.45479 0.46751 0.06416 0.0
C1270 C 0.47878 0.4843 0.06423 0.0
C1271 C 0.54838 0.53333 0.06404 0.0
C1272 C 0.52437 0.5166 0.0642 0.0
H1273 H 0.41806 0.41775 0.10057 0.0
H1274 H 0.45774 0.44532 0.10058 0.0
H1275 H 0.48165 0.48668 0.00813 0.0
H1276 H 0.59657 0.54289 0.0261 0.0
H1277 H 0.55703 0.51548 0.02679 0.0
C1278 C 0.04098 0.58373 0.36963 0.0
C1279 C 0.02886 0.59108 0.38944 0.0
C1280 C 0.03503 0.5613 0.36951 0.0
C1281 C 0.00721 0.51056 0.4213 0.0
H1282 H 0.0002 0.47978 0.33392 0.0
C1283 C 0.99348 0.42116 0.41229 0.0
C1284 C 0.97527 0.40645 0.39167 0.0
C1285 C 0.00107 0.444 0.41173 0.0
C1286 C 0.00215 0.48821 0.35849 0.0
H1287 H 0.00105 0.5806 0.42485 0.0
H1288 H 0.99089 0.54143 0.42493 0.0
H1289 H 0.01115 0.51924 0.3337 0.0
H1290 H 0.9511 0.40428 0.3537 0.0
H1291 H 0.96465 0.44414 0.35235 0.0
H1292 H 0.99821 0.47951 0.44608 0.0
C1293 C 0.00494 0.5531 0.40945 0.0
C1294 C 0.00851 0.51075 0.35837 0.0
C1295 C 0.01068 0.57548 0.4092 0.0
C1296 C 0.96513 0.41513 0.36997 0.0
C1297 C 0.97294 0.43796 0.36903 0.0
C1298 C 0.00117 0.48809 0.42144 0.0
C1299 C 0.01705 0.54581 0.38959 0.0
C1300 C 0.0109 0.52208 0.38976 0.0
C1301 C 0.99084 0.45259 0.39011 0.0
C1302 C 0.99839 0.47667 0.39002 0.0
H1303 H 0.05507 0.5953 0.3541 0.0
H1304 H 0.0447 0.5561 0.35412 0.0
H1305 H 0.00911 0.51897 0.44586 0.0
H1306 H 0.00159 0.41499 0.42938 0.0
H1307 H 0.01498 0.45499 0.4281 0.0
C1308 C 0.57231 0.99211 0.74948 0.0
C1309 C 0.56881 0.974 0.72857 0.0
C1310 C 0.55694 0.99956 0.74944 0.0
C1311 C 0.51405 0.00095 0.69633 0.0
H1312 H 0.49019 0.00801 0.78351 0.0
C1313 C 0.45842 0.04089 0.70688 0.0
C1314 C 0.43872 0.02878 0.72615 0.0
C1315 C 0.4747 0.03469 0.70711 0.0
C1316 C 0.49672 0.00608 0.75901 0.0
H1317 H 0.54656 0.94974 0.69089 0.0
H1318 H 0.52007 0.96305 0.69043 0.0
H1319 H 0.51844 0.9967 0.78395 0.0
H1320 H 0.42081 0.00079 0.76105 0.0
H1321 H 0.4495 0.99019 0.76178 0.0
H1322 H 0.49241 0.01039 0.67137 0.0
C1323 C 0.53464 0.97137 0.70692 0.0
C1324 C 0.51297 0.9998 0.75928 0.0
C1325 C 0.54977 0.9637 0.70735 0.0
C1326 C 0.43574 0.0104 0.74579 0.0
C1327 C 0.45219 0.00442 0.74643 0.0
C1328 C 0.49807 0.00757 0.69608 0.0
C1329 C 0.53802 0.98928 0.72806 0.0
C1330 C 0.52162 0.99698 0.72792 0.0
C1331 C 0.4718 0.01648 0.72703 0.0
C1332 C 0.48913 0.01 0.7274 0.0
H1333 H 0.58678 0.00035 0.7662 0.0
H1334 H 0.55995 0.01348 0.76586 0.0
H1335 H 0.52055 0.999 0.67182 0.0
H1336 H 0.46125 0.05513 0.69146 0.0
H1337 H 0.48973 0.04433 0.69209 0.0
C1338 C 0.56692 0.57583 0.57306 0.0
C1339 C 0.56367 0.59124 0.59221 0.0
C1340 C 0.55076 0.55327 0.57307 0.0
C1341 C 0.50548 0.51057 0.62437 0.0
H1342 H 0.48454 0.47866 0.5371 0.0
C1343 C 0.45318 0.4148 0.61451 0.0
C1344 C 0.43396 0.40616 0.59373 0.0
C1345 C 0.46854 0.43756 0.61458 0.0
C1346 C 0.4902 0.48742 0.56161 0.0
H1347 H 0.54103 0.59497 0.62674 0.0
H1348 H 0.51307 0.55549 0.62726 0.0
H1349 H 0.5127 0.51827 0.53676 0.0
H1350 H 0.4159 0.41467 0.5565 0.0
H1351 H 0.4431 0.45451 0.55619 0.0
H1352 H 0.48324 0.47965 0.64925 0.0
C1353 C 0.52806 0.56095 0.61212 0.0
C1354 C 0.50639 0.50997 0.56143 0.0
C1355 C 0.54404 0.58355 0.61168 0.0
C1356 C 0.4305 0.42081 0.57289 0.0
C1357 C 0.44609 0.44356 0.57255 0.0
C1358 C 0.48958 0.48794 0.62457 0.0
C1359 C 0.53122 0.54564 0.59265 0.0
C1360 C 0.51414 0.52174 0.59281 0.0
C1361 C 0.4652 0.45213 0.59348 0.0
C1362 C 0.48177 0.47618 0.5932 0.0
H1363 H 0.58181 0.58122 0.55767 0.0
H1364 H 0.55362 0.54173 0.55804 0.0
H1365 H 0.51128 0.51927 0.6489 0.0
H1366 H 0.45635 0.404 0.6309 0.0
H1367 H 0.48324 0.44375 0.63075 0.0
C1368 C 0.98769 0.5664 0.90214 0.0
C1369 C 0.96929 0.56358 0.92152 0.0
C1370 C 0.99365 0.5499 0.90205 0.0
C1371 C 0.98972 0.50393 0.95372 0.0
H1372 H 0.00279 0.48415 0.86712 0.0
C1373 C 0.03409 0.45264 0.94727 0.0
C1374 C 0.02496 0.43404 0.92505 0.0
C1375 C 0.02613 0.46754 0.94686 0.0
C1376 C 0.99904 0.48942 0.89144 0.0
H1377 H 0.94284 0.54123 0.95624 0.0
H1378 H 0.95351 0.51268 0.95643 0.0
H1379 H 0.99132 0.51227 0.86617 0.0
H1380 H 0.00031 0.41657 0.88488 0.0
H1381 H 0.9866 0.44293 0.88388 0.0
H1382 H 0.99772 0.48133 0.97905 0.0
C1383 C 0.96324 0.52763 0.94125 0.0
C1384 C 0.99269 0.50562 0.89093 0.0
C1385 C 0.95711 0.54397 0.94102 0.0
C1386 C 0.00765 0.43068 0.9024 0.0
C1387 C -0.00012 0.44581 0.90167 0.0
C1388 C 0.99635 0.48796 0.95427 0.0
C1389 C 0.98151 0.53039 0.92169 0.0
C1390 C 0.98801 0.51305 0.92208 0.0
C1391 C 0.00905 0.46435 0.92395 0.0
C1392 C 0.00114 0.4806 0.92315 0.0
H1393 H 0.99739 0.58125 0.88674 0.0
H1394 H 0.00793 0.55252 0.88698 0.0
H1395 H 0.98634 0.50945 0.97812 0.0
H1396 H 0.04743 0.45575 0.96508 0.0
H1397 H 0.03364 0.48181 0.96407 0.0
C1398 C 0.5795 0.04078 0.27375 0.0
C1399 C 0.58772 0.02906 0.25487 0.0
C1400 C 0.55686 0.03388 0.27329 0.0
C1401 C 0.50635 0.00376 0.22175 0.0
H1402 H 0.47567 0.99692 0.3091 0.0
C1403 C 0.41699 0.99026 0.23227 0.0
C1404 C 0.40244 0.97251 0.25374 0.0
C1405 C 0.43972 0.99732 0.23175 0.0
C1406 C 0.48404 0.99875 0.28454 0.0
H1407 H 0.57859 0.00104 0.22036 0.0
H1408 H 0.53897 0.98921 0.2192 0.0
H1409 H 0.51528 0.00873 0.30932 0.0
H1410 H 0.40042 0.9484 0.29171 0.0
H1411 H 0.44006 0.96105 0.29119 0.0
H1412 H 0.47508 0.99393 0.19699 0.0
C1413 C 0.55015 0.00367 0.23444 0.0
C1414 C 0.50668 0.00561 0.28466 0.0
C1415 C 0.57278 0.01037 0.23529 0.0
C1416 C 0.41113 0.96211 0.27485 0.0
C1417 C 0.43384 0.96939 0.2747 0.0
C1418 C 0.48375 0.99722 0.22161 0.0
C1419 C 0.542 0.01532 0.25357 0.0
C1420 C 0.51801 0.00808 0.25328 0.0
C1421 C 0.44833 0.987 0.25309 0.0
C1422 C 0.47239 0.99454 0.25303 0.0
H1423 H 0.59052 0.05524 0.28912 0.0
H1424 H 0.551 0.04323 0.28807 0.0
H1425 H 0.51477 0.00569 0.19721 0.0
H1426 H 0.41081 0.99856 0.21561 0.0
H1427 H 0.4506 0.01103 0.215 0.0
loop_
_geom_bond_atom_site_label_1
_geom_bond_atom_site_label_2
_geom_bond_distance
_geom_bond_site_symmetry_2
_ccdc_geom_bond_type
Co0 O2 2.143 . S
Co0 O8 2.074 . S
Co0 O11 2.093 . S
Co0 O24 2.097 . S
Co0 N41 2.151 . S
Co0 N49 2.214 . S
Co1 O2 2.160 . S
Co1 O7 2.058 1_554 S
Co1 O17 2.057 . S
Co1 O32 2.037 . S
Co1 N36 2.158 . S
Co1 N57 2.257 . S
O2 Co0 2.143 . S
O2 Co1 2.160 . S
C3 O4 1.278 . S
C3 O11 1.224 . S
O4 C3 1.278 . S
C5 O6 1.245 . S
C5 O17 1.232 . S
O6 C5 1.245 . S
O7 Co1 2.058 1_556 S
O7 C33 1.269 . S
O8 Co0 2.074 . S
O8 C33 1.257 1_554 S
H9 C34 0.930 . S
H10 C40 0.930 . S
O11 Co0 2.093 . S
O11 C3 1.224 . S
H12 C44 0.929 . S
H13 C46 0.930 . S
H14 C47 0.930 . S
H15 C45 0.929 . S
H16 C48 0.928 . S
O17 Co1 2.057 . S
O17 C5 1.232 . S
H18 C37 0.929 . S
H19 C38 0.929 1_554 S
H20 C50 0.931 . S
H21 C42 0.929 . S
H22 C51 0.930 . S
H23 C43 0.931 . S
O24 Co0 2.097 . S
O24 C52 1.214 . S
H25 C53 0.929 . S
H26 C54 0.929 . S
H27 C55 0.930 . S
H28 C56 0.929 . S
H29 C58 0.930 . S
H30 C35 0.930 . S
H31 C39 0.930 . S
O32 Co1 2.037 . S
O32 C52 1.234 . S
C33 O7 1.269 . S
C33 O8 1.257 1_556 S
C34 H9 0.930 . S
C34 C37 1.388 . S
C34 C39 1.418 . S
C35 H30 0.930 . S
C35 C38 1.404 . S
C35 C39 1.353 . S
N36 Co1 2.158 . S
N36 C37 1.386 1_554 S
N36 C38 1.331 1_554 S
C37 H18 0.929 . S
C37 C34 1.388 . S
C37 N36 1.386 1_556 S
C38 H19 0.929 1_556 S
C38 C35 1.404 . S
C38 N36 1.331 1_556 S
C39 H31 0.930 . S
C39 C34 1.418 . S
C39 C35 1.353 . S
C40 H10 0.930 . S
C40 N41 1.330 . S
C40 C42 1.446 . S
N41 Co0 2.151 . S
N41 C40 1.330 . S
N41 C45 1.418 . S
C42 H21 0.929 . S
C42 C40 1.446 . S
C42 C43 1.332 . S
C43 H23 0.931 . S
C43 C42 1.332 . S
C43 C44 1.267 . S
C44 H12 0.929 . S
C44 C43 1.267 . S
C44 C45 1.251 . S
C45 H15 0.929 . S
C45 N41 1.418 . S
C45 C44 1.251 . S
C46 H13 0.930 . S
C46 C48 1.406 . S
C46 C51 1.261 . S
C47 H14 0.930 . S
C47 N49 1.325 . S
C47 C50 1.357 . S
C48 H16 0.928 . S
C48 C46 1.406 . S
C48 N49 1.261 . S
N49 Co0 2.214 . S
N49 C47 1.325 . S
N49 C48 1.261 . S
C50 H20 0.931 . S
C50 C47 1.357 . S
C50 C51 1.312 . S
C51 H22 0.930 . S
C51 C46 1.261 . S
C51 C50 1.312 . S
C52 O24 1.214 . S
C52 O32 1.234 . S
C53 H25 0.929 . S
C53 C56 1.391 . S
C53 C58 1.391 . S
C54 H26 0.929 . S
C54 C55 1.390 . S
C54 N57 1.391 . S
C55 H27 0.930 . S
C55 C54 1.390 . S
C55 C56 1.392 . S
C56 H28 0.929 . S
C56 C53 1.391 . S
C56 C55 1.392 . S
N57 Co1 2.257 . S
N57 C54 1.391 . S
N57 C58 1.388 . S
C58 H29 0.930 . S
C58 C53 1.391 . S
C58 N57 1.388 . S
Co59 O61 2.143 . S
Co59 O67 2.074 . S
Co59 O70 2.093 . S
Co59 O83 2.097 . S
Co59 N100 2.179 . S
Co59 N108 2.214 1_655 S
Co60 O61 2.160 . S
Co60 O66 2.058 . S
Co60 O76 2.057 . S
Co60 O91 2.037 . S
Co60 N95 2.145 . S
Co60 N116 2.257 . S
O61 Co59 2.143 . S
O61 Co60 2.160 . S
C62 O63 1.278 . S
C62 O70 1.224 . S
O63 C62 1.278 . S
C64 O65 1.245 . S
C64 O76 1.232 . S
O65 C64 1.245 . S
O66 Co60 2.058 . S
O66 C92 1.269 . S
O67 Co59 2.074 . S
O67 C92 1.257 . S
H68 C93 0.930 . S
H69 C99 0.930 . S
O70 Co59 2.093 . S
O70 C62 1.224 . S
H71 C103 0.929 . S
H72 C105 0.930 . S
H73 C106 0.930 . S
H74 C104 0.929 . S
H75 C107 0.928 . S
O76 Co60 2.057 . S
O76 C64 1.232 . S
H77 C96 0.929 . S
H78 C97 0.929 . S
H79 C109 0.931 . S
H80 C101 0.929 . S
H81 C110 0.930 . S
H82 C102 0.931 . S
O83 Co59 2.097 . S
O83 C111 1.214 . S
H84 C112 0.929 . S
H85 C113 0.929 . S
H86 C114 0.930 . S
H87 C115 0.929 . S
H88 C117 0.930 . S
H89 C94 0.930 . S
H90 C98 0.930 . S
O91 Co60 2.037 . S
O91 C111 1.234 . S
C92 O66 1.269 . S
C92 O67 1.257 . S
C93 H68 0.930 . S
C93 C96 1.388 . S
C93 C98 1.418 . S
C94 H89 0.930 . S
C94 C97 1.404 . S
C94 C98 1.353 . S
N95 Co60 2.145 . S
N95 C96 1.397 . S
N95 C97 1.334 . S
C96 H77 0.929 . S
C96 C93 1.388 . S
C96 N95 1.397 . S
C97 H78 0.929 . S
C97 C94 1.404 . S
C97 N95 1.334 . S
C98 H90 0.930 . S
C98 C93 1.418 . S
C98 C94 1.353 . S
C99 H69 0.930 . S
C99 N100 1.328 . S
C99 C101 1.467 . S
N100 Co59 2.179 . S
N100 C99 1.328 . S
N100 C104 1.386 1_655 S
C101 H80 0.929 . S
C101 C99 1.467 . S
C101 C102 1.312 1_655 S
C102 H82 0.931 . S
C102 C101 1.312 1_455 S
C102 C103 1.267 . S
C103 H71 0.929 . S
C103 C102 1.267 . S
C103 C104 1.251 . S
C104 H74 0.929 . S
C104 N100 1.386 1_455 S
C104 C103 1.251 . S
C105 H72 0.930 . S
C105 C107 1.406 . S
C105 C110 1.261 . S
C106 H73 0.930 . S
C106 N108 1.325 . S
C106 C109 1.357 . S
C107 H75 0.928 . S
C107 C105 1.406 . S
C107 N108 1.261 . S
N108 Co59 2.214 1_455 S
N108 C106 1.325 . S
N108 C107 1.261 . S
C109 H79 0.931 . S
C109 C106 1.357 . S
C109 C110 1.312 . S
C110 H81 0.930 . S
C110 C105 1.261 . S
C110 C109 1.312 . S
C111 O83 1.214 . S
C111 O91 1.234 . S
C112 H84 0.929 . S
C112 C115 1.391 . S
C112 C117 1.391 . S
C113 H85 0.929 . S
C113 C114 1.390 . S
C113 N116 1.391 . S
C114 H86 0.930 . S
C114 C113 1.390 . S
C114 C115 1.392 . S
C115 H87 0.929 . S
C115 C112 1.391 . S
C115 C114 1.392 . S
N116 Co60 2.257 . S
N116 C113 1.391 . S
N116 C117 1.388 . S
C117 H88 0.930 . S
C117 C112 1.391 . S
C117 N116 1.388 . S
Co118 O120 2.143 . S
Co118 O126 2.074 . S
Co118 O129 2.093 . S
Co118 O142 2.097 . S
Co118 N159 2.140 . S
Co118 N167 2.214 1_565 S
Co119 O120 2.160 . S
Co119 O125 2.058 . S
Co119 O135 2.057 . S
Co119 O150 2.037 . S
Co119 N154 2.145 . S
Co119 N175 2.257 . S
O120 Co118 2.143 . S
O120 Co119 2.160 . S
C121 O122 1.278 . S
C121 O129 1.224 . S
O122 C121 1.278 . S
C123 O124 1.245 . S
C123 O135 1.232 . S
O124 C123 1.245 . S
O125 Co119 2.058 . S
O125 C151 1.269 . S
O126 Co118 2.074 . S
O126 C151 1.257 . S
H127 C152 0.930 . S
H128 C158 0.930 . S
O129 Co118 2.093 . S
O129 C121 1.224 . S
H130 C162 0.929 . S
H131 C164 0.930 . S
H132 C165 0.930 . S
H133 C163 0.929 . S
H134 C166 0.928 . S
O135 Co119 2.057 . S
O135 C123 1.232 . S
H136 C155 0.929 . S
H137 C156 0.929 . S
H138 C168 0.931 . S
H139 C160 0.948 . S
H140 C169 0.930 . S
H141 C161 0.931 . S
O142 Co118 2.097 . S
O142 C170 1.214 . S
H143 C171 0.929 . S
H144 C172 0.929 . S
H145 C173 0.930 . S
H146 C174 0.929 . S
H147 C176 0.930 . S
H148 C153 0.930 . S
H149 C157 0.930 . S
O150 Co119 2.037 . S
O150 C170 1.234 . S
C151 O125 1.269 . S
C151 O126 1.257 . S
C152 H127 0.930 . S
C152 C155 1.388 . S
C152 C157 1.418 . S
C153 H148 0.930 . S
C153 C156 1.404 . S
C153 C157 1.353 . S
N154 Co119 2.145 . S
N154 C155 1.397 . S
N154 C156 1.334 . S
C155 H136 0.929 . S
C155 C152 1.388 . S
C155 N154 1.397 . S
C156 H137 0.929 . S
C156 C153 1.404 . S
C156 N154 1.334 . S
C157 H149 0.930 . S
C157 C152 1.418 . S
C157 C153 1.353 . S
C158 H128 0.930 . S
C158 N159 1.354 . S
C158 C160 1.440 . S
N159 Co118 2.140 . S
N159 C158 1.354 . S
N159 C163 1.401 1_565 S
C160 H139 0.948 . S
C160 C158 1.440 . S
C160 C161 1.318 1_565 S
C161 H141 0.931 . S
C161 C160 1.318 1_545 S
C161 C162 1.267 . S
C162 H130 0.929 . S
C162 C161 1.267 . S
C162 C163 1.251 . S
C163 H133 0.929 . S
C163 N159 1.401 1_545 S
C163 C162 1.251 . S
C164 H131 0.930 . S
C164 C166 1.406 . S
C164 C169 1.261 . S
C165 H132 0.930 . S
C165 N167 1.325 . S
C165 C168 1.357 . S
C166 H134 0.928 . S
C166 C164 1.406 . S
C166 N167 1.261 . S
N167 Co118 2.214 1_545 S
N167 C165 1.325 . S
N167 C166 1.261 . S
C168 H138 0.931 . S
C168 C165 1.357 . S
C168 C169 1.312 . S
C169 H140 0.930 . S
C169 C164 1.261 . S
C169 C168 1.312 . S
C170 O142 1.214 . S
C170 O150 1.234 . S
C171 H143 0.929 . S
C171 C174 1.391 . S
C171 C176 1.391 . S
C172 H144 0.929 . S
C172 C173 1.390 . S
C172 N175 1.391 . S
C173 H145 0.930 . S
C173 C172 1.390 . S
C173 C174 1.392 . S
C174 H146 0.929 . S
C174 C171 1.391 . S
C174 C173 1.392 . S
N175 Co119 2.257 . S
N175 C172 1.391 . S
N175 C176 1.388 . S
C176 H147 0.930 . S
C176 C171 1.391 . S
C176 N175 1.388 . S
Co177 O179 2.143 . S
Co177 O185 2.074 . S
Co177 O188 2.093 . S
Co177 O201 2.097 . S
Co177 N218 2.151 . S
Co177 N226 2.214 . S
Co178 O179 2.160 . S
Co178 O184 2.058 1_554 S
Co178 O194 2.057 . S
Co178 O209 2.037 . S
Co178 N213 2.158 . S
Co178 N234 2.257 . S
O179 Co177 2.143 . S
O179 Co178 2.160 . S
C180 O181 1.278 . S
C180 O188 1.224 . S
O181 C180 1.278 . S
C182 O183 1.245 . S
C182 O194 1.232 . S
O183 C182 1.245 . S
O184 Co178 2.058 1_556 S
O184 C210 1.269 . S
O185 Co177 2.074 . S
O185 C210 1.257 1_554 S
H186 C211 0.930 . S
H187 C217 0.930 . S
O188 Co177 2.093 . S
O188 C180 1.224 . S
H189 C221 0.929 . S
H190 C223 0.930 . S
H191 C224 0.930 . S
H192 C222 0.929 . S
H193 C225 0.928 . S
O194 Co178 2.057 . S
O194 C182 1.232 . S
H195 C214 0.929 . S
H196 C215 0.929 1_554 S
H197 C227 0.931 . S
H198 C219 0.929 . S
H199 C228 0.930 . S
H200 C220 0.931 . S
O201 Co177 2.097 . S
O201 C229 1.214 . S
H202 C230 0.929 . S
H203 C231 0.929 . S
H204 C232 0.930 . S
H205 C233 0.929 . S
H206 C235 0.930 . S
H207 C212 0.930 . S
H208 C216 0.930 . S
O209 Co178 2.037 . S
O209 C229 1.234 . S
C210 O184 1.269 . S
C210 O185 1.257 1_556 S
C211 H186 0.930 . S
C211 C214 1.388 . S
C211 C216 1.418 . S
C212 H207 0.930 . S
C212 C215 1.404 . S
C212 C216 1.353 . S
N213 Co178 2.158 . S
N213 C214 1.386 1_554 S
N213 C215 1.331 1_554 S
C214 H195 0.929 . S
C214 C211 1.388 . S
C214 N213 1.386 1_556 S
C215 H196 0.929 1_556 S
C215 C212 1.404 . S
C215 N213 1.331 1_556 S
C216 H208 0.930 . S
C216 C211 1.418 . S
C216 C212 1.353 . S
C217 H187 0.930 . S
C217 N218 1.330 . S
C217 C219 1.446 . S
N218 Co177 2.151 . S
N218 C217 1.330 . S
N218 C222 1.418 . S
C219 H198 0.929 . S
C219 C217 1.446 . S
C219 C220 1.332 . S
C220 H200 0.931 . S
C220 C219 1.332 . S
C220 C221 1.267 . S
C221 H189 0.929 . S
C221 C220 1.267 . S
C221 C222 1.251 . S
C222 H192 0.929 . S
C222 N218 1.418 . S
C222 C221 1.251 . S
C223 H190 0.930 . S
C223 C225 1.406 . S
C223 C228 1.261 . S
C224 H191 0.930 . S
C224 N226 1.325 . S
C224 C227 1.357 . S
C225 H193 0.928 . S
C225 C223 1.406 . S
C225 N226 1.261 . S
N226 Co177 2.214 . S
N226 C224 1.325 . S
N226 C225 1.261 . S
C227 H197 0.931 . S
C227 C224 1.357 . S
C227 C228 1.312 . S
C228 H199 0.930 . S
C228 C223 1.261 . S
C228 C227 1.312 . S
C229 O201 1.214 . S
C229 O209 1.234 . S
C230 H202 0.929 . S
C230 C233 1.391 . S
C230 C235 1.391 . S
C231 H203 0.929 . S
C231 C232 1.390 . S
C231 N234 1.391 . S
C232 H204 0.930 . S
C232 C231 1.390 . S
C232 C233 1.392 . S
C233 H205 0.929 . S
C233 C230 1.391 . S
C233 C232 1.392 . S
N234 Co178 2.257 . S
N234 C231 1.391 . S
N234 C235 1.388 . S
C235 H206 0.930 . S
C235 C230 1.391 . S
C235 N234 1.388 . S
Co236 O238 2.143 . S
Co236 O244 2.074 . S
Co236 O247 2.093 . S
Co236 O260 2.097 . S
Co236 N277 2.179 . S
Co236 N285 2.214 1_455 S
Co237 O238 2.160 . S
Co237 O243 2.058 . S
Co237 O253 2.057 . S
Co237 O268 2.037 . S
Co237 N272 2.145 . S
Co237 N293 2.257 . S
O238 Co236 2.143 . S
O238 Co237 2.160 . S
C239 O240 1.278 . S
C239 O247 1.224 . S
O240 C239 1.278 . S
C241 O242 1.245 . S
C241 O253 1.232 . S
O242 C241 1.245 . S
O243 Co237 2.058 . S
O243 C269 1.269 . S
O244 Co236 2.074 . S
O244 C269 1.257 . S
H245 C270 0.930 . S
H246 C276 0.930 . S
O247 Co236 2.093 . S
O247 C239 1.224 . S
H248 C280 0.929 . S
H249 C282 0.930 . S
H250 C283 0.930 . S
H251 C281 0.929 . S
H252 C284 0.928 . S
O253 Co237 2.057 . S
O253 C241 1.232 . S
H254 C273 0.929 . S
H255 C274 0.929 . S
H256 C286 0.931 . S
H257 C278 0.929 . S
H258 C287 0.930 . S
H259 C279 0.931 . S
O260 Co236 2.097 . S
O260 C288 1.214 . S
H261 C289 0.929 . S
H262 C290 0.929 . S
H263 C291 0.930 . S
H264 C292 0.929 . S
H265 C294 0.930 . S
H266 C271 0.930 . S
H267 C275 0.930 . S
O268 Co237 2.037 . S
O268 C288 1.234 . S
C269 O243 1.269 . S
C269 O244 1.257 . S
C270 H245 0.930 . S
C270 C273 1.388 . S
C270 C275 1.418 . S
C271 H266 0.930 . S
C271 C274 1.404 . S
C271 C275 1.353 . S
N272 Co237 2.145 . S
N272 C273 1.397 . S
N272 C274 1.334 . S
C273 H254 0.929 . S
C273 C270 1.388 . S
C273 N272 1.397 . S
C274 H255 0.929 . S
C274 C271 1.404 . S
C274 N272 1.334 . S
C275 H267 0.930 . S
C275 C270 1.418 . S
C275 C271 1.353 . S
C276 H246 0.930 . S
C276 N277 1.328 . S
C276 C278 1.467 . S
N277 Co236 2.179 . S
N277 C276 1.328 . S
N277 C281 1.386 1_455 S
C278 H257 0.929 . S
C278 C276 1.467 . S
C278 C279 1.312 1_455 S
C279 H259 0.931 . S
C279 C278 1.312 1_655 S
C279 C280 1.267 . S
C280 H248 0.929 . S
C280 C279 1.267 . S
C280 C281 1.251 . S
C281 H251 0.929 . S
C281 N277 1.386 1_655 S
C281 C280 1.251 . S
C282 H249 0.930 . S
C282 C284 1.406 . S
C282 C287 1.261 . S
C283 H250 0.930 . S
C283 N285 1.325 . S
C283 C286 1.357 . S
C284 H252 0.928 . S
C284 C282 1.406 . S
C284 N285 1.261 . S
N285 Co236 2.214 1_655 S
N285 C283 1.325 . S
N285 C284 1.261 . S
C286 H256 0.931 . S
C286 C283 1.357 . S
C286 C287 1.312 . S
C287 H258 0.930 . S
C287 C282 1.261 . S
C287 C286 1.312 . S
C288 O260 1.214 . S
C288 O268 1.234 . S
C289 H261 0.929 . S
C289 C292 1.391 . S
C289 C294 1.391 . S
C290 H262 0.929 . S
C290 C291 1.390 . S
C290 N293 1.391 . S
C291 H263 0.930 . S
C291 C290 1.390 . S
C291 C292 1.392 . S
C292 H264 0.929 . S
C292 C289 1.391 . S
C292 C291 1.392 . S
N293 Co237 2.257 . S
N293 C290 1.391 . S
N293 C294 1.388 . S
C294 H265 0.930 . S
C294 C289 1.391 . S
C294 N293 1.388 . S
Co295 O297 2.143 . S
Co295 O303 2.074 . S
Co295 O306 2.093 . S
Co295 O319 2.097 . S
Co295 N336 2.140 . S
Co295 N344 2.214 1_545 S
Co296 O297 2.160 . S
Co296 O302 2.058 . S
Co296 O312 2.057 . S
Co296 O327 2.037 . S
Co296 N331 2.145 . S
Co296 N352 2.257 . S
O297 Co295 2.143 . S
O297 Co296 2.160 . S
C298 O299 1.278 . S
C298 O306 1.224 . S
O299 C298 1.278 . S
C300 O301 1.245 . S
C300 O312 1.232 . S
O301 C300 1.245 . S
O302 Co296 2.058 . S
O302 C328 1.269 . S
O303 Co295 2.074 . S
O303 C328 1.257 . S
H304 C329 0.930 . S
H305 C335 0.930 . S
O306 Co295 2.093 . S
O306 C298 1.224 . S
H307 C339 0.929 . S
H308 C341 0.930 . S
H309 C342 0.930 . S
H310 C340 0.929 . S
H311 C343 0.928 . S
O312 Co296 2.057 . S
O312 C300 1.232 . S
H313 C332 0.929 . S
H314 C333 0.929 . S
H315 C345 0.931 . S
H316 C337 0.948 . S
H317 C346 0.930 . S
H318 C338 0.931 . S
O319 Co295 2.097 . S
O319 C347 1.214 . S
H320 C348 0.929 . S
H321 C349 0.929 . S
H322 C350 0.930 . S
H323 C351 0.929 . S
H324 C353 0.930 . S
H325 C330 0.930 . S
H326 C334 0.930 . S
O327 Co296 2.037 . S
O327 C347 1.234 . S
C328 O302 1.269 . S
C328 O303 1.257 . S
C329 H304 0.930 . S
C329 C332 1.388 . S
C329 C334 1.418 . S
C330 H325 0.930 . S
C330 C333 1.404 . S
C330 C334 1.353 . S
N331 Co296 2.145 . S
N331 C332 1.397 . S
N331 C333 1.334 . S
C332 H313 0.929 . S
C332 C329 1.388 . S
C332 N331 1.397 . S
C333 H314 0.929 . S
C333 C330 1.404 . S
C333 N331 1.334 . S
C334 H326 0.930 . S
C334 C329 1.418 . S
C334 C330 1.353 . S
C335 H305 0.930 . S
C335 N336 1.354 . S
C335 C337 1.440 . S
N336 Co295 2.140 . S
N336 C335 1.354 . S
N336 C340 1.401 1_545 S
C337 H316 0.948 . S
C337 C335 1.440 . S
C337 C338 1.318 1_545 S
C338 H318 0.931 . S
C338 C337 1.318 1_565 S
C338 C339 1.267 . S
C339 H307 0.929 . S
C339 C338 1.267 . S
C339 C340 1.251 . S
C340 H310 0.929 . S
C340 N336 1.401 1_565 S
C340 C339 1.251 . S
C341 H308 0.930 . S
C341 C343 1.406 . S
C341 C346 1.261 . S
C342 H309 0.930 . S
C342 N344 1.325 . S
C342 C345 1.357 . S
C343 H311 0.928 . S
C343 C341 1.406 . S
C343 N344 1.261 . S
N344 Co295 2.214 1_565 S
N344 C342 1.325 . S
N344 C343 1.261 . S
C345 H315 0.931 . S
C345 C342 1.357 . S
C345 C346 1.312 . S
C346 H317 0.930 . S
C346 C341 1.261 . S
C346 C345 1.312 . S
C347 O319 1.214 . S
C347 O327 1.234 . S
C348 H320 0.929 . S
C348 C351 1.391 . S
C348 C353 1.391 . S
C349 H321 0.929 . S
C349 C350 1.390 . S
C349 N352 1.391 . S
C350 H322 0.930 . S
C350 C349 1.390 . S
C350 C351 1.392 . S
C351 H323 0.929 . S
C351 C348 1.391 . S
C351 C350 1.392 . S
N352 Co296 2.257 . S
N352 C349 1.391 . S
N352 C353 1.388 . S
C353 H324 0.930 . S
C353 C348 1.391 . S
C353 N352 1.388 . S
Co354 O356 2.143 . S
Co354 O362 2.074 . S
Co354 O365 2.093 . S
Co354 O378 2.097 . S
Co354 N395 2.151 . S
Co354 N403 2.214 . S
Co355 O356 2.160 . S
Co355 O361 2.058 . S
Co355 O371 2.057 . S
Co355 O386 2.037 . S
Co355 N390 2.145 . S
Co355 N411 2.257 . S
O356 Co354 2.143 . S
O356 Co355 2.160 . S
C357 O358 1.278 . S
C357 O365 1.224 . S
O358 C357 1.278 . S
C359 O360 1.245 . S
C359 O371 1.232 . S
O360 C359 1.245 . S
O361 Co355 2.058 . S
O361 C387 1.269 . S
O362 Co354 2.074 . S
O362 C387 1.257 . S
H363 C388 0.930 . S
H364 C394 0.930 . S
O365 Co354 2.093 . S
O365 C357 1.224 . S
H366 C398 0.929 . S
H367 C400 0.930 . S
H368 C401 0.930 . S
H369 C399 0.929 . S
H370 C402 0.928 . S
O371 Co355 2.057 . S
O371 C359 1.232 . S
H372 C391 0.929 . S
H373 C392 0.929 . S
H374 C404 0.931 . S
H375 C396 0.929 . S
H376 C405 0.930 . S
H377 C397 0.931 . S
O378 Co354 2.097 . S
O378 C406 1.214 . S
H379 C407 0.929 . S
H380 C408 0.929 . S
H381 C409 0.930 . S
H382 C410 0.929 . S
H383 C412 0.930 . S
H384 C389 0.930 . S
H385 C393 0.930 . S
O386 Co355 2.037 . S
O386 C406 1.234 . S
C387 O361 1.269 . S
C387 O362 1.257 . S
C388 H363 0.930 . S
C388 C391 1.388 . S
C388 C393 1.418 . S
C389 H384 0.930 . S
C389 C392 1.404 . S
C389 C393 1.353 . S
N390 Co355 2.145 . S
N390 C391 1.397 . S
N390 C392 1.334 . S
C391 H372 0.929 . S
C391 C388 1.388 . S
C391 N390 1.397 . S
C392 H373 0.929 . S
C392 C389 1.404 . S
C392 N390 1.334 . S
C393 H385 0.930 . S
C393 C388 1.418 . S
C393 C389 1.353 . S
C394 H364 0.930 . S
C394 N395 1.330 . S
C394 C396 1.446 . S
N395 Co354 2.151 . S
N395 C394 1.330 . S
N395 C399 1.418 . S
C396 H375 0.929 . S
C396 C394 1.446 . S
C396 C397 1.332 . S
C397 H377 0.931 . S
C397 C396 1.332 . S
C397 C398 1.267 . S
C398 H366 0.929 . S
C398 C397 1.267 . S
C398 C399 1.251 . S
C399 H369 0.929 . S
C399 N395 1.418 . S
C399 C398 1.251 . S
C400 H367 0.930 . S
C400 C402 1.406 . S
C400 C405 1.261 . S
C401 H368 0.930 . S
C401 N403 1.325 . S
C401 C404 1.357 . S
C402 H370 0.928 . S
C402 C400 1.406 . S
C402 N403 1.261 . S
N403 Co354 2.214 . S
N403 C401 1.325 . S
N403 C402 1.261 . S
C404 H374 0.931 . S
C404 C401 1.357 . S
C404 C405 1.312 . S
C405 H376 0.930 . S
C405 C400 1.261 . S
C405 C404 1.312 . S
C406 O378 1.214 . S
C406 O386 1.234 . S
C407 H379 0.929 . S
C407 C410 1.391 . S
C407 C412 1.391 . S
C408 H380 0.929 . S
C408 C409 1.390 . S
C408 N411 1.391 . S
C409 H381 0.930 . S
C409 C408 1.390 . S
C409 C410 1.392 . S
C410 H382 0.929 . S
C410 C407 1.391 . S
C410 C409 1.392 . S
N411 Co355 2.257 . S
N411 C408 1.391 . S
N411 C412 1.388 . S
C412 H383 0.930 . S
C412 C407 1.391 . S
C412 N411 1.388 . S
Co413 O415 2.143 . S
Co413 O421 2.074 . S
Co413 O424 2.093 . S
Co413 O437 2.097 . S
Co413 N454 2.140 . S
Co413 N462 2.214 1_655 S
Co414 O415 2.160 . S
Co414 O420 2.058 1_556 S
Co414 O430 2.057 . S
Co414 O445 2.037 . S
Co414 N449 2.158 . S
Co414 N470 2.257 . S
O415 Co413 2.143 . S
O415 Co414 2.160 . S
C416 O417 1.278 . S
C416 O424 1.224 . S
O417 C416 1.278 . S
C418 O419 1.245 . S
C418 O430 1.232 . S
O419 C418 1.245 . S
O420 Co414 2.058 1_554 S
O420 C446 1.269 . S
O421 Co413 2.074 . S
O421 C446 1.257 1_556 S
H422 C447 0.930 . S
H423 C453 0.930 . S
O424 Co413 2.093 . S
O424 C416 1.224 . S
H425 C457 0.929 . S
H426 C459 0.930 . S
H427 C460 0.930 . S
H428 C458 0.929 . S
H429 C461 0.928 . S
O430 Co414 2.057 . S
O430 C418 1.232 . S
H431 C450 0.929 . S
H432 C451 0.929 1_556 S
H433 C463 0.931 . S
H434 C455 0.948 . S
H435 C464 0.930 . S
H436 C456 0.931 . S
O437 Co413 2.097 . S
O437 C465 1.214 . S
H438 C466 0.929 . S
H439 C467 0.929 . S
H440 C468 0.930 . S
H441 C469 0.929 . S
H442 C471 0.930 . S
H443 C448 0.930 . S
H444 C452 0.930 . S
O445 Co414 2.037 . S
O445 C465 1.234 . S
C446 O420 1.269 . S
C446 O421 1.257 1_554 S
C447 H422 0.930 . S
C447 C450 1.388 . S
C447 C452 1.418 . S
C448 H443 0.930 . S
C448 C451 1.404 . S
C448 C452 1.353 . S
N449 Co414 2.158 . S
N449 C450 1.386 1_556 S
N449 C451 1.331 1_556 S
C450 H431 0.929 . S
C450 C447 1.388 . S
C450 N449 1.386 1_554 S
C451 H432 0.929 1_554 S
C451 C448 1.404 . S
C451 N449 1.331 1_554 S
C452 H444 0.930 . S
C452 C447 1.418 . S
C452 C448 1.353 . S
C453 H423 0.930 . S
C453 N454 1.354 . S
C453 C455 1.440 . S
N454 Co413 2.140 . S
N454 C453 1.354 . S
N454 C458 1.401 1_655 S
C455 H434 0.948 . S
C455 C453 1.440 . S
C455 C456 1.318 1_655 S
C456 H436 0.931 . S
C456 C455 1.318 1_455 S
C456 C457 1.267 . S
C457 H425 0.929 . S
C457 C456 1.267 . S
C457 C458 1.251 . S
C458 H428 0.929 . S
C458 N454 1.401 1_455 S
C458 C457 1.251 . S
C459 H426 0.930 . S
C459 C461 1.406 . S
C459 C464 1.261 . S
C460 H427 0.930 . S
C460 N462 1.325 . S
C460 C463 1.357 . S
C461 H429 0.928 . S
C461 C459 1.406 . S
C461 N462 1.261 . S
N462 Co413 2.214 1_455 S
N462 C460 1.325 . S
N462 C461 1.261 . S
C463 H433 0.931 . S
C463 C460 1.357 . S
C463 C464 1.312 . S
C464 H435 0.930 . S
C464 C459 1.261 . S
C464 C463 1.312 . S
C465 O437 1.214 . S
C465 O445 1.234 . S
C466 H438 0.929 . S
C466 C469 1.391 . S
C466 C471 1.391 . S
C467 H439 0.929 . S
C467 C468 1.390 . S
C467 N470 1.391 . S
C468 H440 0.930 . S
C468 C467 1.390 . S
C468 C469 1.392 . S
C469 H441 0.929 . S
C469 C466 1.391 . S
C469 C468 1.392 . S
N470 Co414 2.257 . S
N470 C467 1.391 . S
N470 C471 1.388 . S
C471 H442 0.930 . S
C471 C466 1.391 . S
C471 N470 1.388 . S
Co472 O474 2.143 . S
Co472 O480 2.074 . S
Co472 O483 2.093 . S
Co472 O496 2.097 . S
Co472 N513 2.179 . S
Co472 N521 2.214 1_565 S
Co473 O474 2.160 . S
Co473 O479 2.058 . S
Co473 O489 2.057 . S
Co473 O504 2.037 . S
Co473 N508 2.145 . S
Co473 N529 2.257 . S
O474 Co472 2.143 . S
O474 Co473 2.160 . S
C475 O476 1.278 . S
C475 O483 1.224 . S
O476 C475 1.278 . S
C477 O478 1.245 . S
C477 O489 1.232 . S
O478 C477 1.245 . S
O479 Co473 2.058 . S
O479 C505 1.269 . S
O480 Co472 2.074 . S
O480 C505 1.257 . S
H481 C506 0.930 . S
H482 C512 0.930 . S
O483 Co472 2.093 . S
O483 C475 1.224 . S
H484 C516 0.929 . S
H485 C518 0.930 . S
H486 C519 0.930 . S
H487 C517 0.929 . S
H488 C520 0.928 . S
O489 Co473 2.057 . S
O489 C477 1.232 . S
H490 C509 0.929 . S
H491 C510 0.929 . S
H492 C522 0.931 . S
H493 C514 0.929 . S
H494 C523 0.930 . S
H495 C515 0.931 . S
O496 Co472 2.097 . S
O496 C524 1.214 . S
H497 C525 0.929 . S
H498 C526 0.929 . S
H499 C527 0.930 . S
H500 C528 0.929 . S
H501 C530 0.930 . S
H502 C507 0.930 . S
H503 C511 0.930 . S
O504 Co473 2.037 . S
O504 C524 1.234 . S
C505 O479 1.269 . S
C505 O480 1.257 . S
C506 H481 0.930 . S
C506 C509 1.388 . S
C506 C511 1.418 . S
C507 H502 0.930 . S
C507 C510 1.404 . S
C507 C511 1.353 . S
N508 Co473 2.145 . S
N508 C509 1.397 . S
N508 C510 1.334 . S
C509 H490 0.929 . S
C509 C506 1.388 . S
C509 N508 1.397 . S
C510 H491 0.929 . S
C510 C507 1.404 . S
C510 N508 1.334 . S
C511 H503 0.930 . S
C511 C506 1.418 . S
C511 C507 1.353 . S
C512 H482 0.930 . S
C512 N513 1.328 . S
C512 C514 1.467 . S
N513 Co472 2.179 . S
N513 C512 1.328 . S
N513 C517 1.386 1_565 S
C514 H493 0.929 . S
C514 C512 1.467 . S
C514 C515 1.312 1_565 S
C515 H495 0.931 . S
C515 C514 1.312 1_545 S
C515 C516 1.267 . S
C516 H484 0.929 . S
C516 C515 1.267 . S
C516 C517 1.251 . S
C517 H487 0.929 . S
C517 N513 1.386 1_545 S
C517 C516 1.251 . S
C518 H485 0.930 . S
C518 C520 1.406 . S
C518 C523 1.261 . S
C519 H486 0.930 . S
C519 N521 1.325 . S
C519 C522 1.357 . S
C520 H488 0.928 . S
C520 C518 1.406 . S
C520 N521 1.261 . S
N521 Co472 2.214 1_545 S
N521 C519 1.325 . S
N521 C520 1.261 . S
C522 H492 0.931 . S
C522 C519 1.357 . S
C522 C523 1.312 . S
C523 H494 0.930 . S
C523 C518 1.261 . S
C523 C522 1.312 . S
C524 O496 1.214 . S
C524 O504 1.234 . S
C525 H497 0.929 . S
C525 C528 1.391 . S
C525 C530 1.391 . S
C526 H498 0.929 . S
C526 C527 1.390 . S
C526 N529 1.391 . S
C527 H499 0.930 . S
C527 C526 1.390 . S
C527 C528 1.392 . S
C528 H500 0.929 . S
C528 C525 1.391 . S
C528 C527 1.392 . S
N529 Co473 2.257 . S
N529 C526 1.391 . S
N529 C530 1.388 . S
C530 H501 0.930 . S
C530 C525 1.391 . S
C530 N529 1.388 . S
Co531 O533 2.143 . S
Co531 O539 2.074 . S
Co531 O542 2.093 . S
Co531 O555 2.097 . S
Co531 N572 2.151 . S
Co531 N580 2.214 . S
Co532 O533 2.160 . S
Co532 O538 2.058 . S
Co532 O548 2.057 . S
Co532 O563 2.037 . S
Co532 N567 2.145 . S
Co532 N588 2.257 . S
O533 Co531 2.143 . S
O533 Co532 2.160 . S
C534 O535 1.278 . S
C534 O542 1.224 . S
O535 C534 1.278 . S
C536 O537 1.245 . S
C536 O548 1.232 . S
O537 C536 1.245 . S
O538 Co532 2.058 . S
O538 C564 1.269 . S
O539 Co531 2.074 . S
O539 C564 1.257 . S
H540 C565 0.930 . S
H541 C571 0.930 . S
O542 Co531 2.093 . S
O542 C534 1.224 . S
H543 C575 0.929 . S
H544 C577 0.930 . S
H545 C578 0.930 . S
H546 C576 0.929 . S
H547 C579 0.928 . S
O548 Co532 2.057 . S
O548 C536 1.232 . S
H549 C568 0.929 . S
H550 C569 0.929 . S
H551 C581 0.931 . S
H552 C573 0.929 . S
H553 C582 0.930 . S
H554 C574 0.931 . S
O555 Co531 2.097 . S
O555 C583 1.214 . S
H556 C584 0.929 . S
H557 C585 0.929 . S
H558 C586 0.930 . S
H559 C587 0.929 . S
H560 C589 0.930 . S
H561 C566 0.930 . S
H562 C570 0.930 . S
O563 Co532 2.037 . S
O563 C583 1.234 . S
C564 O538 1.269 . S
C564 O539 1.257 . S
C565 H540 0.930 . S
C565 C568 1.388 . S
C565 C570 1.418 . S
C566 H561 0.930 . S
C566 C569 1.404 . S
C566 C570 1.353 . S
N567 Co532 2.145 . S
N567 C568 1.397 . S
N567 C569 1.334 . S
C568 H549 0.929 . S
C568 C565 1.388 . S
C568 N567 1.397 . S
C569 H550 0.929 . S
C569 C566 1.404 . S
C569 N567 1.334 . S
C570 H562 0.930 . S
C570 C565 1.418 . S
C570 C566 1.353 . S
C571 H541 0.930 . S
C571 N572 1.330 . S
C571 C573 1.446 . S
N572 Co531 2.151 . S
N572 C571 1.330 . S
N572 C576 1.418 . S
C573 H552 0.929 . S
C573 C571 1.446 . S
C573 C574 1.332 . S
C574 H554 0.931 . S
C574 C573 1.332 . S
C574 C575 1.267 . S
C575 H543 0.929 . S
C575 C574 1.267 . S
C575 C576 1.251 . S
C576 H546 0.929 . S
C576 N572 1.418 . S
C576 C575 1.251 . S
C577 H544 0.930 . S
C577 C579 1.406 . S
C577 C582 1.261 . S
C578 H545 0.930 . S
C578 N580 1.325 . S
C578 C581 1.357 . S
C579 H547 0.928 . S
C579 C577 1.406 . S
C579 N580 1.261 . S
N580 Co531 2.214 . S
N580 C578 1.325 . S
N580 C579 1.261 . S
C581 H551 0.931 . S
C581 C578 1.357 . S
C581 C582 1.312 . S
C582 H553 0.930 . S
C582 C577 1.261 . S
C582 C581 1.312 . S
C583 O555 1.214 . S
C583 O563 1.234 . S
C584 H556 0.929 . S
C584 C587 1.391 . S
C584 C589 1.391 . S
C585 H557 0.929 . S
C585 C586 1.390 . S
C585 N588 1.391 . S
C586 H558 0.930 . S
C586 C585 1.390 . S
C586 C587 1.392 . S
C587 H559 0.929 . S
C587 C584 1.391 . S
C587 C586 1.392 . S
N588 Co532 2.257 . S
N588 C585 1.391 . S
N588 C589 1.388 . S
C589 H560 0.930 . S
C589 C584 1.391 . S
C589 N588 1.388 . S
Co590 O592 2.143 . S
Co590 O598 2.074 . S
Co590 O601 2.093 . S
Co590 O614 2.097 . S
Co590 N631 2.140 . S
Co590 N639 2.214 1_455 S
Co591 O592 2.160 . S
Co591 O597 2.058 1_556 S
Co591 O607 2.057 . S
Co591 O622 2.037 . S
Co591 N626 2.158 . S
Co591 N647 2.257 . S
O592 Co590 2.143 . S
O592 Co591 2.160 . S
C593 O594 1.278 . S
C593 O601 1.224 . S
O594 C593 1.278 . S
C595 O596 1.245 . S
C595 O607 1.232 . S
O596 C595 1.245 . S
O597 Co591 2.058 1_554 S
O597 C623 1.269 . S
O598 Co590 2.074 . S
O598 C623 1.257 1_556 S
H599 C624 0.930 . S
H600 C630 0.930 . S
O601 Co590 2.093 . S
O601 C593 1.224 . S
H602 C634 0.929 . S
H603 C636 0.930 . S
H604 C637 0.930 . S
H605 C635 0.929 . S
H606 C638 0.928 . S
O607 Co591 2.057 . S
O607 C595 1.232 . S
H608 C627 0.929 . S
H609 C628 0.929 1_556 S
H610 C640 0.931 . S
H611 C632 0.948 . S
H612 C641 0.930 . S
H613 C633 0.931 . S
O614 Co590 2.097 . S
O614 C642 1.214 . S
H615 C643 0.929 . S
H616 C644 0.929 . S
H617 C645 0.930 . S
H618 C646 0.929 . S
H619 C648 0.930 . S
H620 C625 0.930 . S
H621 C629 0.930 . S
O622 Co591 2.037 . S
O622 C642 1.234 . S
C623 O597 1.269 . S
C623 O598 1.257 1_554 S
C624 H599 0.930 . S
C624 C627 1.388 . S
C624 C629 1.418 . S
C625 H620 0.930 . S
C625 C628 1.404 . S
C625 C629 1.353 . S
N626 Co591 2.158 . S
N626 C627 1.386 1_556 S
N626 C628 1.331 1_556 S
C627 H608 0.929 . S
C627 C624 1.388 . S
C627 N626 1.386 1_554 S
C628 H609 0.929 1_554 S
C628 C625 1.404 . S
C628 N626 1.331 1_554 S
C629 H621 0.930 . S
C629 C624 1.418 . S
C629 C625 1.353 . S
C630 H600 0.930 . S
C630 N631 1.354 . S
C630 C632 1.440 . S
N631 Co590 2.140 . S
N631 C630 1.354 . S
N631 C635 1.401 1_455 S
C632 H611 0.948 . S
C632 C630 1.440 . S
C632 C633 1.318 1_455 S
C633 H613 0.931 . S
C633 C632 1.318 1_655 S
C633 C634 1.267 . S
C634 H602 0.929 . S
C634 C633 1.267 . S
C634 C635 1.251 . S
C635 H605 0.929 . S
C635 N631 1.401 1_655 S
C635 C634 1.251 . S
C636 H603 0.930 . S
C636 C638 1.406 . S
C636 C641 1.261 . S
C637 H604 0.930 . S
C637 N639 1.325 . S
C637 C640 1.357 . S
C638 H606 0.928 . S
C638 C636 1.406 . S
C638 N639 1.261 . S
N639 Co590 2.214 1_655 S
N639 C637 1.325 . S
N639 C638 1.261 . S
C640 H610 0.931 . S
C640 C637 1.357 . S
C640 C641 1.312 . S
C641 H612 0.930 . S
C641 C636 1.261 . S
C641 C640 1.312 . S
C642 O614 1.214 . S
C642 O622 1.234 . S
C643 H615 0.929 . S
C643 C646 1.391 . S
C643 C648 1.391 . S
C644 H616 0.929 . S
C644 C645 1.390 . S
C644 N647 1.391 . S
C645 H617 0.930 . S
C645 C644 1.390 . S
C645 C646 1.392 . S
C646 H618 0.929 . S
C646 C643 1.391 . S
C646 C645 1.392 . S
N647 Co591 2.257 . S
N647 C644 1.391 . S
N647 C648 1.388 . S
C648 H619 0.930 . S
C648 C643 1.391 . S
C648 N647 1.388 . S
Co649 O651 2.143 . S
Co649 O657 2.074 . S
Co649 O660 2.093 . S
Co649 O673 2.097 . S
Co649 N690 2.179 . S
Co649 N698 2.214 1_545 S
Co650 O651 2.160 . S
Co650 O656 2.058 . S
Co650 O666 2.057 . S
Co650 O681 2.037 . S
Co650 N685 2.145 . S
Co650 N706 2.257 . S
O651 Co649 2.143 . S
O651 Co650 2.160 . S
C652 O653 1.278 . S
C652 O660 1.224 . S
O653 C652 1.278 . S
C654 O655 1.245 . S
C654 O666 1.232 . S
O655 C654 1.245 . S
O656 Co650 2.058 . S
O656 C682 1.269 . S
O657 Co649 2.074 . S
O657 C682 1.257 . S
H658 C683 0.930 . S
H659 C689 0.930 . S
O660 Co649 2.093 . S
O660 C652 1.224 . S
H661 C693 0.929 . S
H662 C695 0.930 . S
H663 C696 0.930 . S
H664 C694 0.929 . S
H665 C697 0.928 . S
O666 Co650 2.057 . S
O666 C654 1.232 . S
H667 C686 0.929 . S
H668 C687 0.929 . S
H669 C699 0.931 . S
H670 C691 0.929 . S
H671 C700 0.930 . S
H672 C692 0.931 . S
O673 Co649 2.097 . S
O673 C701 1.214 . S
H674 C702 0.929 . S
H675 C703 0.929 . S
H676 C704 0.930 . S
H677 C705 0.929 . S
H678 C707 0.930 . S
H679 C684 0.930 . S
H680 C688 0.930 . S
O681 Co650 2.037 . S
O681 C701 1.234 . S
C682 O656 1.269 . S
C682 O657 1.257 . S
C683 H658 0.930 . S
C683 C686 1.388 . S
C683 C688 1.418 . S
C684 H679 0.930 . S
C684 C687 1.404 . S
C684 C688 1.353 . S
N685 Co650 2.145 . S
N685 C686 1.397 . S
N685 C687 1.334 . S
C686 H667 0.929 . S
C686 C683 1.388 . S
C686 N685 1.397 . S
C687 H668 0.929 . S
C687 C684 1.404 . S
C687 N685 1.334 . S
C688 H680 0.930 . S
C688 C683 1.418 . S
C688 C684 1.353 . S
C689 H659 0.930 . S
C689 N690 1.328 . S
C689 C691 1.467 . S
N690 Co649 2.179 . S
N690 C689 1.328 . S
N690 C694 1.386 1_545 S
C691 H670 0.929 . S
C691 C689 1.467 . S
C691 C692 1.312 1_545 S
C692 H672 0.931 . S
C692 C691 1.312 1_565 S
C692 C693 1.267 . S
C693 H661 0.929 . S
C693 C692 1.267 . S
C693 C694 1.251 . S
C694 H664 0.929 . S
C694 N690 1.386 1_565 S
C694 C693 1.251 . S
C695 H662 0.930 . S
C695 C697 1.406 . S
C695 C700 1.261 . S
C696 H663 0.930 . S
C696 N698 1.325 . S
C696 C699 1.357 . S
C697 H665 0.928 . S
C697 C695 1.406 . S
C697 N698 1.261 . S
N698 Co649 2.214 1_565 S
N698 C696 1.325 . S
N698 C697 1.261 . S
C699 H669 0.931 . S
C699 C696 1.357 . S
C699 C700 1.312 . S
C700 H671 0.930 . S
C700 C695 1.261 . S
C700 C699 1.312 . S
C701 O673 1.214 . S
C701 O681 1.234 . S
C702 H674 0.929 . S
C702 C705 1.391 . S
C702 C707 1.391 . S
C703 H675 0.929 . S
C703 C704 1.390 . S
C703 N706 1.391 . S
C704 H676 0.930 . S
C704 C703 1.390 . S
C704 C705 1.392 . S
C705 H677 0.929 . S
C705 C702 1.391 . S
C705 C704 1.392 . S
N706 Co650 2.257 . S
N706 C703 1.391 . S
N706 C707 1.388 . S
C707 H678 0.930 . S
C707 C702 1.391 . S
C707 N706 1.388 . S
C708 C709 1.349 . S
C708 C710 1.327 . S
C708 H733 0.950 . S
C709 C708 1.349 . S
C709 C725 1.349 . S
C710 C708 1.327 . S
C710 C729 1.429 . S
C710 H734 0.950 . S
C711 C728 1.574 . S
C711 C730 1.368 . S
C711 H735 0.949 . S
H712 C716 0.949 . S
C713 C714 1.349 . S
C713 C715 1.327 . S
C713 H736 0.950 . S
C714 C713 1.349 . S
C714 C726 1.349 . S
C715 C713 1.327 . S
C715 C731 1.429 . S
C715 H737 0.950 . S
C716 H712 0.949 . S
C716 C724 1.574 . S
C716 C732 1.368 . S
H717 C725 0.950 . S
H718 C723 0.950 . S
H719 C724 0.949 . S
H720 C726 0.950 . S
H721 C727 0.950 . S
H722 C728 0.949 . S
C723 H718 0.950 . S
C723 C725 1.327 . S
C723 C729 1.429 . S
C724 C716 1.574 . S
C724 H719 0.949 . S
C724 C730 1.368 . S
C725 C709 1.349 . S
C725 H717 0.950 . S
C725 C723 1.327 . S
C726 C714 1.349 . S
C726 H720 0.950 . S
C726 C727 1.327 . S
C727 H721 0.950 . S
C727 C726 1.327 . S
C727 C731 1.429 . S
C728 C711 1.574 . S
C728 H722 0.949 . S
C728 C732 1.368 . S
C729 C710 1.429 . S
C729 C723 1.429 . S
C729 C730 1.523 . S
C730 C711 1.368 . S
C730 C724 1.368 . S
C730 C729 1.523 . S
C731 C715 1.429 . S
C731 C727 1.429 . S
C731 C732 1.523 . S
C732 C716 1.368 . S
C732 C728 1.368 . S
C732 C731 1.523 . S
H733 C708 0.950 . S
H734 C710 0.950 . S
H735 C711 0.949 . S
H736 C713 0.950 . S
H737 C715 0.950 . S
C738 C739 1.349 . S
C738 C740 1.327 . S
C738 H763 0.950 . S
C739 C738 1.349 . S
C739 C755 1.349 . S
C740 C738 1.327 . S
C740 C759 1.429 . S
C740 H764 0.950 . S
C741 C758 1.575 1_655 S
C741 C760 1.368 . S
C741 H765 0.949 . S
H742 C746 0.949 . S
C743 C744 1.349 . S
C743 C745 1.327 . S
C743 H766 0.950 . S
C744 C743 1.349 . S
C744 C756 1.349 . S
C745 C743 1.327 . S
C745 C761 1.429 . S
C745 H767 0.950 . S
C746 H742 0.949 . S
C746 C754 1.575 1_455 S
C746 C762 1.368 . S
H747 C755 0.950 . S
H748 C753 0.950 . S
H749 C754 0.953 . S
H750 C756 0.950 . S
H751 C757 0.950 . S
H752 C758 0.953 . S
C753 H748 0.950 . S
C753 C755 1.327 . S
C753 C759 1.429 . S
C754 C746 1.575 1_655 S
C754 H749 0.953 . S
C754 C760 1.365 . S
C755 C739 1.349 . S
C755 H747 0.950 . S
C755 C753 1.327 . S
C756 C744 1.349 . S
C756 H750 0.950 . S
C756 C757 1.327 . S
C757 H751 0.950 . S
C757 C756 1.327 . S
C757 C761 1.429 . S
C758 C741 1.575 1_455 S
C758 H752 0.953 . S
C758 C762 1.365 . S
C759 C740 1.429 . S
C759 C753 1.429 . S
C759 C760 1.523 . S
C760 C741 1.368 . S
C760 C754 1.365 . S
C760 C759 1.523 . S
C761 C745 1.429 . S
C761 C757 1.429 . S
C761 C762 1.523 . S
C762 C746 1.368 . S
C762 C758 1.365 . S
C762 C761 1.523 . S
H763 C738 0.950 . S
H764 C740 0.950 . S
H765 C741 0.949 . S
H766 C743 0.950 . S
H767 C745 0.950 . S
C768 C769 1.349 . S
C768 C770 1.327 . S
C768 H793 0.950 . S
C769 C768 1.349 . S
C769 C785 1.349 . S
C770 C768 1.327 . S
C770 C789 1.429 . S
C770 H794 0.950 . S
C771 C788 1.574 1_556 S
C771 C790 1.368 1_545 S
C771 H795 0.949 . S
H772 C776 0.949 . S
C773 C774 1.349 . S
C773 C775 1.327 . S
C773 H796 0.950 . S
C774 C773 1.349 . S
C774 C786 1.349 . S
C775 C773 1.327 . S
C775 C791 1.429 . S
C775 H797 0.950 . S
C776 H772 0.949 . S
C776 C784 1.574 1_554 S
C776 C792 1.368 1_565 S
H777 C785 0.950 1_545 S
H778 C783 0.950 . S
H779 C784 0.949 . S
H780 C786 0.950 1_565 S
H781 C787 0.950 . S
H782 C788 0.949 . S
C783 H778 0.950 . S
C783 C785 1.327 1_545 S
C783 C789 1.429 1_545 S
C784 C776 1.574 1_556 S
C784 H779 0.949 . S
C784 C790 1.368 . S
C785 C769 1.349 . S
C785 H777 0.950 1_565 S
C785 C783 1.327 1_565 S
C786 C774 1.349 . S
C786 H780 0.950 1_545 S
C786 C787 1.327 1_545 S
C787 H781 0.950 . S
C787 C786 1.327 1_565 S
C787 C791 1.429 1_565 S
C788 C771 1.574 1_554 S
C788 H782 0.949 . S
C788 C792 1.368 . S
C789 C770 1.429 . S
C789 C783 1.429 1_565 S
C789 C790 1.523 . S
C790 C771 1.368 1_565 S
C790 C784 1.368 . S
C790 C789 1.523 . S
C791 C775 1.429 . S
C791 C787 1.429 1_545 S
C791 C792 1.523 . S
C792 C776 1.368 1_545 S
C792 C788 1.368 . S
C792 C791 1.523 . S
H793 C768 0.950 . S
H794 C770 0.950 . S
H795 C771 0.949 . S
H796 C773 0.950 . S
H797 C775 0.950 . S
C798 C799 1.349 . S
C798 C800 1.327 . S
C798 H823 0.950 . S
C799 C798 1.349 . S
C799 C815 1.349 . S
C800 C798 1.327 . S
C800 C819 1.429 . S
C800 H824 0.950 . S
C801 C818 1.574 . S
C801 C820 1.368 . S
C801 H825 0.949 . S
H802 C806 0.949 . S
C803 C804 1.349 . S
C803 C805 1.327 . S
C803 H826 0.950 . S
C804 C803 1.349 . S
C804 C816 1.349 . S
C805 C803 1.327 . S
C805 C821 1.429 . S
C805 H827 0.950 . S
C806 H802 0.949 . S
C806 C814 1.574 . S
C806 C822 1.368 . S
H807 C815 0.950 . S
H808 C813 0.950 . S
H809 C814 0.949 . S
H810 C816 0.950 . S
H811 C817 0.950 . S
H812 C818 0.949 . S
C813 H808 0.950 . S
C813 C815 1.327 . S
C813 C819 1.429 . S
C814 C806 1.574 . S
C814 H809 0.949 . S
C814 C820 1.368 . S
C815 C799 1.349 . S
C815 H807 0.950 . S
C815 C813 1.327 . S
C816 C804 1.349 . S
C816 H810 0.950 . S
C816 C817 1.327 . S
C817 H811 0.950 . S
C817 C816 1.327 . S
C817 C821 1.429 . S
C818 C801 1.574 . S
C818 H812 0.949 . S
C818 C822 1.368 . S
C819 C800 1.429 . S
C819 C813 1.429 . S
C819 C820 1.523 . S
C820 C801 1.368 . S
C820 C814 1.368 . S
C820 C819 1.523 . S
C821 C805 1.429 . S
C821 C817 1.429 . S
C821 C822 1.523 . S
C822 C806 1.368 . S
C822 C818 1.368 . S
C822 C821 1.523 . S
H823 C798 0.950 . S
H824 C800 0.950 . S
H825 C801 0.949 . S
H826 C803 0.950 . S
H827 C805 0.950 . S
C828 C829 1.349 . S
C828 C830 1.327 . S
C828 H853 0.950 . S
C829 C828 1.349 . S
C829 C845 1.302 1_655 S
C830 C828 1.327 . S
C830 C849 1.429 . S
C830 H854 0.950 . S
C831 C848 1.574 . S
C831 C850 1.368 1_455 S
C831 H855 0.949 . S
H832 C836 0.949 . S
C833 C834 1.349 . S
C833 C835 1.327 . S
C833 H856 0.950 . S
C834 C833 1.349 . S
C834 C846 1.303 1_455 S
C835 C833 1.327 . S
C835 C851 1.429 . S
C835 H857 0.950 . S
C836 H832 0.949 . S
C836 C844 1.574 . S
C836 C852 1.368 1_655 S
H837 C845 0.986 . S
H838 C843 0.950 . S
H839 C844 0.949 . S
H840 C846 0.986 . S
H841 C847 0.950 . S
H842 C848 0.949 . S
C843 H838 0.950 . S
C843 C845 1.341 . S
C843 C849 1.429 1_455 S
C844 C836 1.574 . S
C844 H839 0.949 . S
C844 C850 1.368 . S
C845 C829 1.302 1_455 S
C845 H837 0.986 . S
C845 C843 1.341 . S
C846 C834 1.303 1_655 S
C846 H840 0.986 . S
C846 C847 1.341 . S
C847 H841 0.950 . S
C847 C846 1.341 . S
C847 C851 1.429 1_655 S
C848 C831 1.574 . S
C848 H842 0.949 . S
C848 C852 1.368 . S
C849 C830 1.429 . S
C849 C843 1.429 1_655 S
C849 C850 1.523 . S
C850 C831 1.368 1_655 S
C850 C844 1.368 . S
C850 C849 1.523 . S
C851 C835 1.429 . S
C851 C847 1.429 1_455 S
C851 C852 1.523 . S
C852 C836 1.368 1_455 S
C852 C848 1.368 . S
C852 C851 1.523 . S
H853 C828 0.950 . S
H854 C830 0.950 . S
H855 C831 0.949 . S
H856 C833 0.950 . S
H857 C835 0.950 . S
C858 C859 1.349 . S
C858 C860 1.327 . S
C858 H883 0.950 . S
C859 C858 1.349 . S
C859 C875 1.349 . S
C860 C858 1.327 . S
C860 C879 1.429 . S
C860 H884 0.950 . S
C861 C878 1.574 1_554 S
C861 C880 1.368 1_545 S
C861 H885 0.949 . S
H862 C866 0.949 . S
C863 C864 1.349 . S
C863 C865 1.327 . S
C863 H886 0.950 . S
C864 C863 1.349 . S
C864 C876 1.349 . S
C865 C863 1.327 . S
C865 C881 1.429 . S
C865 H887 0.950 . S
C866 H862 0.949 . S
C866 C874 1.574 1_556 S
C866 C882 1.368 1_565 S
H867 C875 0.950 1_545 S
H868 C873 0.950 . S
H869 C874 0.949 . S
H870 C876 0.950 1_565 S
H871 C877 0.950 . S
H872 C878 0.949 . S
C873 H868 0.950 . S
C873 C875 1.327 1_545 S
C873 C879 1.429 1_545 S
C874 C866 1.574 1_554 S
C874 H869 0.949 . S
C874 C880 1.368 . S
C875 C859 1.349 . S
C875 H867 0.950 1_565 S
C875 C873 1.327 1_565 S
C876 C864 1.349 . S
C876 H870 0.950 1_545 S
C876 C877 1.327 1_545 S
C877 H871 0.950 . S
C877 C876 1.327 1_565 S
C877 C881 1.429 1_565 S
C878 C861 1.574 1_556 S
C878 H872 0.949 . S
C878 C882 1.368 . S
C879 C860 1.429 . S
C879 C873 1.429 1_565 S
C879 C880 1.523 . S
C880 C861 1.368 1_565 S
C880 C874 1.368 . S
C880 C879 1.523 . S
C881 C865 1.429 . S
C881 C877 1.429 1_545 S
C881 C882 1.523 . S
C882 C866 1.368 1_545 S
C882 C878 1.368 . S
C882 C881 1.523 . S
H883 C858 0.950 . S
H884 C860 0.950 . S
H885 C861 0.949 . S
H886 C863 0.950 . S
H887 C865 0.950 . S
C888 C889 1.349 . S
C888 C890 1.327 . S
C888 H913 0.950 . S
C889 C888 1.349 . S
C889 C905 1.349 . S
C890 C888 1.327 . S
C890 C909 1.429 . S
C890 H914 0.950 1_556 S
C891 C908 1.574 . S
C891 C910 1.368 . S
C891 H915 0.949 . S
H892 C896 0.949 . S
C893 C894 1.349 . S
C893 C895 1.327 . S
C893 H916 0.950 . S
C894 C893 1.349 . S
C894 C906 1.349 . S
C895 C893 1.327 . S
C895 C911 1.429 . S
C895 H917 0.950 1_554 S
C896 H892 0.949 . S
C896 C904 1.574 . S
C896 C912 1.368 . S
H897 C905 0.950 . S
H898 C903 0.950 . S
H899 C904 0.949 . S
H900 C906 0.950 . S
H901 C907 0.950 . S
H902 C908 0.949 . S
C903 H898 0.950 . S
C903 C905 1.327 . S
C903 C909 1.429 . S
C904 C896 1.574 . S
C904 H899 0.949 . S
C904 C910 1.368 1_554 S
C905 C889 1.349 . S
C905 H897 0.950 . S
C905 C903 1.327 . S
C906 C894 1.349 . S
C906 H900 0.950 . S
C906 C907 1.327 . S
C907 H901 0.950 . S
C907 C906 1.327 . S
C907 C911 1.429 . S
C908 C891 1.574 . S
C908 H902 0.949 . S
C908 C912 1.368 1_556 S
C909 C890 1.429 . S
C909 C903 1.429 . S
C909 C910 1.523 . S
C910 C891 1.368 . S
C910 C904 1.368 1_556 S
C910 C909 1.523 . S
C911 C895 1.429 . S
C911 C907 1.429 . S
C911 C912 1.523 . S
C912 C896 1.368 . S
C912 C908 1.368 1_554 S
C912 C911 1.523 . S
H913 C888 0.950 . S
H914 C890 0.950 1_554 S
H915 C891 0.949 . S
H916 C893 0.950 . S
H917 C895 0.950 1_556 S
C918 C919 1.349 . S
C918 C920 1.327 . S
C918 H943 0.950 . S
C919 C918 1.349 . S
C919 C935 1.349 . S
C920 C918 1.327 . S
C920 C939 1.429 . S
C920 H944 0.950 . S
C921 C938 1.574 . S
C921 C940 1.368 . S
C921 H945 0.949 . S
H922 C926 0.949 . S
C923 C924 1.349 . S
C923 C925 1.327 . S
C923 H946 0.950 . S
C924 C923 1.349 . S
C924 C936 1.349 . S
C925 C923 1.327 . S
C925 C941 1.429 . S
C925 H947 0.950 . S
C926 H922 0.949 . S
C926 C934 1.574 . S
C926 C942 1.368 . S
H927 C935 0.950 . S
H928 C933 0.950 . S
H929 C934 0.949 . S
H930 C936 0.950 . S
H931 C937 0.950 . S
H932 C938 0.949 . S
C933 H928 0.950 . S
C933 C935 1.327 . S
C933 C939 1.429 . S
C934 C926 1.574 . S
C934 H929 0.949 . S
C934 C940 1.368 . S
C935 C919 1.349 . S
C935 H927 0.950 . S
C935 C933 1.327 . S
C936 C924 1.349 . S
C936 H930 0.950 . S
C936 C937 1.327 . S
C937 H931 0.950 . S
C937 C936 1.327 . S
C937 C941 1.429 . S
C938 C921 1.574 . S
C938 H932 0.949 . S
C938 C942 1.368 . S
C939 C920 1.429 . S
C939 C933 1.429 . S
C939 C940 1.523 . S
C940 C921 1.368 . S
C940 C934 1.368 . S
C940 C939 1.523 . S
C941 C925 1.429 . S
C941 C937 1.429 . S
C941 C942 1.523 . S
C942 C926 1.368 . S
C942 C938 1.368 . S
C942 C941 1.523 . S
H943 C918 0.950 . S
H944 C920 0.950 . S
H945 C921 0.949 . S
H946 C923 0.950 . S
H947 C925 0.950 . S
C948 C949 1.349 . S
C948 C950 1.327 . S
C948 H973 0.950 . S
C949 C948 1.349 . S
C949 C965 1.349 . S
C950 C948 1.327 . S
C950 C969 1.429 . S
C950 H974 0.950 . S
C951 C968 1.574 . S
C951 C970 1.368 . S
C951 H975 0.949 . S
H952 C956 0.949 . S
C953 C954 1.349 . S
C953 C955 1.327 . S
C953 H976 0.950 . S
C954 C953 1.349 . S
C954 C966 1.349 . S
C955 C953 1.327 . S
C955 C971 1.429 . S
C955 H977 0.950 . S
C956 H952 0.949 . S
C956 C964 1.574 . S
C956 C972 1.368 . S
H957 C965 0.950 . S
H958 C963 0.950 . S
H959 C964 0.949 . S
H960 C966 0.950 . S
H961 C967 0.950 . S
H962 C968 0.949 . S
C963 H958 0.950 . S
C963 C965 1.327 . S
C963 C969 1.429 . S
C964 C956 1.574 . S
C964 H959 0.949 . S
C964 C970 1.368 . S
C965 C949 1.349 . S
C965 H957 0.950 . S
C965 C963 1.327 . S
C966 C954 1.349 . S
C966 H960 0.950 . S
C966 C967 1.327 . S
C967 H961 0.950 . S
C967 C966 1.327 . S
C967 C971 1.429 . S
C968 C951 1.574 . S
C968 H962 0.949 . S
C968 C972 1.368 . S
C969 C950 1.429 . S
C969 C963 1.429 . S
C969 C970 1.523 . S
C970 C951 1.368 . S
C970 C964 1.368 . S
C970 C969 1.523 . S
C971 C955 1.429 . S
C971 C967 1.429 . S
C971 C972 1.523 . S
C972 C956 1.368 . S
C972 C968 1.368 . S
C972 C971 1.523 . S
H973 C948 0.950 . S
H974 C950 0.950 . S
H975 C951 0.949 . S
H976 C953 0.950 . S
H977 C955 0.950 . S
C978 C979 1.349 . S
C978 C980 1.327 . S
C978 H1003 0.950 . S
C979 C978 1.349 . S
C979 C995 1.349 . S
C980 C978 1.327 . S
C980 C999 1.429 . S
C980 H1004 0.950 1_554 S
C981 C998 1.574 . S
C981 C1000 1.368 . S
C981 H1005 0.949 . S
H982 C986 0.949 . S
C983 C984 1.349 . S
C983 C985 1.327 . S
C983 H1006 0.950 . S
C984 C983 1.349 . S
C984 C996 1.349 . S
C985 C983 1.327 . S
C985 C1001 1.429 . S
C985 H1007 0.950 1_556 S
C986 H982 0.949 . S
C986 C994 1.574 . S
C986 C1002 1.368 . S
H987 C995 0.950 . S
H988 C993 0.950 . S
H989 C994 0.949 . S
H990 C996 0.950 . S
H991 C997 0.950 . S
H992 C998 0.949 . S
C993 H988 0.950 . S
C993 C995 1.327 . S
C993 C999 1.429 . S
C994 C986 1.574 . S
C994 H989 0.949 . S
C994 C1000 1.368 1_556 S
C995 C979 1.349 . S
C995 H987 0.950 . S
C995 C993 1.327 . S
C996 C984 1.349 . S
C996 H990 0.950 . S
C996 C997 1.327 . S
C997 H991 0.950 . S
C997 C996 1.327 . S
C997 C1001 1.429 . S
C998 C981 1.574 . S
C998 H992 0.949 . S
C998 C1002 1.368 1_554 S
C999 C980 1.429 . S
C999 C993 1.429 . S
C999 C1000 1.523 . S
C1000 C981 1.368 . S
C1000 C994 1.368 1_554 S
C1000 C999 1.523 . S
C1001 C985 1.429 . S
C1001 C997 1.429 . S
C1001 C1002 1.523 . S
C1002 C986 1.368 . S
C1002 C998 1.368 1_556 S
C1002 C1001 1.523 . S
H1003 C978 0.950 . S
H1004 C980 0.950 1_556 S
H1005 C981 0.949 . S
H1006 C983 0.950 . S
H1007 C985 0.950 1_554 S
C1008 C1009 1.349 . S
C1008 C1010 1.327 . S
C1008 H1033 0.950 . S
C1009 C1008 1.349 . S
C1009 C1025 1.349 . S
C1010 C1008 1.327 . S
C1010 C1029 1.429 . S
C1010 H1034 0.950 . S
C1011 C1028 1.574 . S
C1011 C1030 1.368 . S
C1011 H1035 0.949 . S
H1012 C1016 0.949 . S
C1013 C1014 1.349 . S
C1013 C1015 1.327 . S
C1013 H1036 0.950 . S
C1014 C1013 1.349 . S
C1014 C1026 1.349 . S
C1015 C1013 1.327 . S
C1015 C1031 1.429 . S
C1015 H1037 0.950 . S
C1016 H1012 0.949 . S
C1016 C1024 1.574 . S
C1016 C1032 1.368 . S
H1017 C1025 0.950 . S
H1018 C1023 0.950 . S
H1019 C1024 0.949 . S
H1020 C1026 0.950 . S
H1021 C1027 0.950 . S
H1022 C1028 0.949 . S
C1023 H1018 0.950 . S
C1023 C1025 1.327 . S
C1023 C1029 1.429 . S
C1024 C1016 1.574 . S
C1024 H1019 0.949 . S
C1024 C1030 1.368 . S
C1025 C1009 1.349 . S
C1025 H1017 0.950 . S
C1025 C1023 1.327 . S
C1026 C1014 1.349 . S
C1026 H1020 0.950 . S
C1026 C1027 1.327 . S
C1027 H1021 0.950 . S
C1027 C1026 1.327 . S
C1027 C1031 1.429 . S
C1028 C1011 1.574 . S
C1028 H1022 0.949 . S
C1028 C1032 1.368 . S
C1029 C1010 1.429 . S
C1029 C1023 1.429 . S
C1029 C1030 1.523 . S
C1030 C1011 1.368 . S
C1030 C1024 1.368 . S
C1030 C1029 1.523 . S
C1031 C1015 1.429 . S
C1031 C1027 1.429 . S
C1031 C1032 1.523 . S
C1032 C1016 1.368 . S
C1032 C1028 1.368 . S
C1032 C1031 1.523 . S
H1033 C1008 0.950 . S
H1034 C1010 0.950 . S
H1035 C1011 0.949 . S
H1036 C1013 0.950 . S
H1037 C1015 0.950 . S
C1038 C1039 1.349 . S
C1038 C1040 1.327 . S
C1038 H1063 0.950 . S
C1039 C1038 1.349 . S
C1039 C1055 1.349 . S
C1040 C1038 1.327 . S
C1040 C1059 1.429 . S
C1040 H1064 0.950 . S
C1041 C1058 1.574 . S
C1041 C1060 1.368 . S
C1041 H1065 0.949 . S
H1042 C1046 0.949 . S
C1043 C1044 1.349 . S
C1043 C1045 1.327 . S
C1043 H1066 0.950 . S
C1044 C1043 1.349 . S
C1044 C1056 1.349 . S
C1045 C1043 1.327 . S
C1045 C1061 1.429 . S
C1045 H1067 0.950 . S
C1046 H1042 0.949 . S
C1046 C1054 1.574 . S
C1046 C1062 1.368 . S
H1047 C1055 0.950 . S
H1048 C1053 0.950 . S
H1049 C1054 0.949 . S
H1050 C1056 0.950 . S
H1051 C1057 0.950 . S
H1052 C1058 0.949 . S
C1053 H1048 0.950 . S
C1053 C1055 1.327 . S
C1053 C1059 1.429 . S
C1054 C1046 1.574 . S
C1054 H1049 0.949 . S
C1054 C1060 1.368 . S
C1055 C1039 1.349 . S
C1055 H1047 0.950 . S
C1055 C1053 1.327 . S
C1056 C1044 1.349 . S
C1056 H1050 0.950 . S
C1056 C1057 1.327 . S
C1057 H1051 0.950 . S
C1057 C1056 1.327 . S
C1057 C1061 1.429 . S
C1058 C1041 1.574 . S
C1058 H1052 0.949 . S
C1058 C1062 1.368 . S
C1059 C1040 1.429 . S
C1059 C1053 1.429 . S
C1059 C1060 1.523 . S
C1060 C1041 1.368 . S
C1060 C1054 1.368 . S
C1060 C1059 1.523 . S
C1061 C1045 1.429 . S
C1061 C1057 1.429 . S
C1061 C1062 1.523 . S
C1062 C1046 1.368 . S
C1062 C1058 1.368 . S
C1062 C1061 1.523 . S
H1063 C1038 0.950 . S
H1064 C1040 0.950 . S
H1065 C1041 0.949 . S
H1066 C1043 0.950 . S
H1067 C1045 0.950 . S
C1068 C1069 1.349 . S
C1068 C1070 1.327 . S
C1068 H1093 0.950 . S
C1069 C1068 1.349 . S
C1069 C1085 1.349 . S
C1070 C1068 1.327 . S
C1070 C1089 1.429 . S
C1070 H1094 0.950 . S
C1071 C1088 1.574 . S
C1071 C1090 1.368 . S
C1071 H1095 0.949 . S
H1072 C1076 0.949 . S
C1073 C1074 1.349 . S
C1073 C1075 1.327 . S
C1073 H1096 0.950 . S
C1074 C1073 1.349 . S
C1074 C1086 1.349 . S
C1075 C1073 1.327 . S
C1075 C1091 1.429 . S
C1075 H1097 0.950 . S
C1076 H1072 0.949 . S
C1076 C1084 1.574 . S
C1076 C1092 1.368 . S
H1077 C1085 0.950 . S
H1078 C1083 0.950 . S
H1079 C1084 0.949 . S
H1080 C1086 0.950 . S
H1081 C1087 0.950 . S
H1082 C1088 0.949 . S
C1083 H1078 0.950 . S
C1083 C1085 1.327 . S
C1083 C1089 1.429 . S
C1084 C1076 1.574 . S
C1084 H1079 0.949 . S
C1084 C1090 1.368 . S
C1085 C1069 1.349 . S
C1085 H1077 0.950 . S
C1085 C1083 1.327 . S
C1086 C1074 1.349 . S
C1086 H1080 0.950 . S
C1086 C1087 1.327 . S
C1087 H1081 0.950 . S
C1087 C1086 1.327 . S
C1087 C1091 1.429 . S
C1088 C1071 1.574 . S
C1088 H1082 0.949 . S
C1088 C1092 1.368 . S
C1089 C1070 1.429 . S
C1089 C1083 1.429 . S
C1089 C1090 1.523 . S
C1090 C1071 1.368 . S
C1090 C1084 1.368 . S
C1090 C1089 1.523 . S
C1091 C1075 1.429 . S
C1091 C1087 1.429 . S
C1091 C1092 1.523 . S
C1092 C1076 1.368 . S
C1092 C1088 1.368 . S
C1092 C1091 1.523 . S
H1093 C1068 0.950 . S
H1094 C1070 0.950 . S
H1095 C1071 0.949 . S
H1096 C1073 0.950 . S
H1097 C1075 0.950 . S
C1098 C1099 1.349 . S
C1098 C1100 1.327 . S
C1098 H1123 0.950 . S
C1099 C1098 1.349 . S
C1099 C1115 1.322 1_655 S
C1100 C1098 1.327 . S
C1100 C1119 1.429 . S
C1100 H1124 0.950 . S
C1101 C1118 1.574 . S
C1101 C1120 1.368 1_455 S
C1101 H1125 0.949 . S
H1102 C1106 0.949 . S
C1103 C1104 1.349 . S
C1103 C1105 1.327 . S
C1103 H1126 0.950 . S
C1104 C1103 1.349 . S
C1104 C1116 1.322 1_455 S
C1105 C1103 1.327 . S
C1105 C1121 1.429 . S
C1105 H1127 0.950 . S
C1106 H1102 0.949 . S
C1106 C1114 1.574 . S
C1106 C1122 1.368 1_655 S
H1107 C1115 0.970 . S
H1108 C1113 0.950 . S
H1109 C1114 0.949 . S
H1110 C1116 0.970 . S
H1111 C1117 0.950 . S
H1112 C1118 0.949 . S
C1113 H1108 0.950 . S
C1113 C1115 1.337 . S
C1113 C1119 1.429 1_455 S
C1114 C1106 1.574 . S
C1114 H1109 0.949 . S
C1114 C1120 1.368 . S
C1115 C1099 1.322 1_455 S
C1115 H1107 0.970 . S
C1115 C1113 1.337 . S
C1116 C1104 1.322 1_655 S
C1116 H1110 0.970 . S
C1116 C1117 1.337 . S
C1117 H1111 0.950 . S
C1117 C1116 1.337 . S
C1117 C1121 1.429 1_655 S
C1118 C1101 1.574 . S
C1118 H1112 0.949 . S
C1118 C1122 1.368 . S
C1119 C1100 1.429 . S
C1119 C1113 1.429 1_655 S
C1119 C1120 1.523 . S
C1120 C1101 1.368 1_655 S
C1120 C1114 1.368 . S
C1120 C1119 1.523 . S
C1121 C1105 1.429 . S
C1121 C1117 1.429 1_455 S
C1121 C1122 1.523 . S
C1122 C1106 1.368 1_455 S
C1122 C1118 1.368 . S
C1122 C1121 1.523 . S
H1123 C1098 0.950 . S
H1124 C1100 0.950 . S
H1125 C1101 0.949 . S
H1126 C1103 0.950 . S
H1127 C1105 0.950 . S
C1128 C1129 1.349 . S
C1128 C1130 1.327 . S
C1128 H1153 0.950 . S
C1129 C1128 1.349 . S
C1129 C1145 1.349 . S
C1130 C1128 1.327 . S
C1130 C1149 1.429 . S
C1130 H1154 0.950 . S
C1131 C1148 1.574 . S
C1131 C1150 1.368 1_545 S
C1131 H1155 0.949 . S
H1132 C1136 0.949 . S
C1133 C1134 1.349 . S
C1133 C1135 1.327 . S
C1133 H1156 0.950 . S
C1134 C1133 1.349 . S
C1134 C1146 1.349 . S
C1135 C1133 1.327 . S
C1135 C1151 1.429 . S
C1135 H1157 0.950 . S
C1136 H1132 0.949 . S
C1136 C1144 1.574 . S
C1136 C1152 1.368 1_565 S
H1137 C1145 0.950 1_545 S
H1138 C1143 0.950 . S
H1139 C1144 0.949 . S
H1140 C1146 0.950 1_565 S
H1141 C1147 0.950 . S
H1142 C1148 0.949 . S
C1143 H1138 0.950 . S
C1143 C1145 1.327 1_545 S
C1143 C1149 1.429 1_545 S
C1144 C1136 1.574 . S
C1144 H1139 0.949 . S
C1144 C1150 1.368 . S
C1145 C1129 1.349 . S
C1145 H1137 0.950 1_565 S
C1145 C1143 1.327 1_565 S
C1146 C1134 1.349 . S
C1146 H1140 0.950 1_545 S
C1146 C1147 1.327 1_545 S
C1147 H1141 0.950 . S
C1147 C1146 1.327 1_565 S
C1147 C1151 1.429 1_565 S
C1148 C1131 1.574 . S
C1148 H1142 0.949 . S
C1148 C1152 1.368 . S
C1149 C1130 1.429 . S
C1149 C1143 1.429 1_565 S
C1149 C1150 1.523 . S
C1150 C1131 1.368 1_565 S
C1150 C1144 1.368 . S
C1150 C1149 1.523 . S
C1151 C1135 1.429 . S
C1151 C1147 1.429 1_545 S
C1151 C1152 1.523 . S
C1152 C1136 1.368 1_545 S
C1152 C1148 1.368 . S
C1152 C1151 1.523 . S
H1153 C1128 0.950 . S
H1154 C1130 0.950 . S
H1155 C1131 0.949 . S
H1156 C1133 0.950 . S
H1157 C1135 0.950 . S
C1158 C1159 1.349 . S
C1158 C1160 1.327 . S
C1158 H1183 0.950 . S
C1159 C1158 1.349 . S
C1159 C1175 1.349 . S
C1160 C1158 1.327 . S
C1160 C1179 1.429 . S
C1160 H1184 0.950 . S
C1161 C1178 1.574 . S
C1161 C1180 1.368 . S
C1161 H1185 0.949 . S
H1162 C1166 0.949 . S
C1163 C1164 1.349 . S
C1163 C1165 1.327 . S
C1163 H1186 0.950 . S
C1164 C1163 1.349 . S
C1164 C1176 1.349 . S
C1165 C1163 1.327 . S
C1165 C1181 1.429 . S
C1165 H1187 0.950 . S
C1166 H1162 0.949 . S
C1166 C1174 1.574 . S
C1166 C1182 1.368 . S
H1167 C1175 0.950 . S
H1168 C1173 0.950 . S
H1169 C1174 0.949 . S
H1170 C1176 0.950 . S
H1171 C1177 0.950 . S
H1172 C1178 0.949 . S
C1173 H1168 0.950 . S
C1173 C1175 1.327 . S
C1173 C1179 1.429 . S
C1174 C1166 1.574 . S
C1174 H1169 0.949 . S
C1174 C1180 1.368 . S
C1175 C1159 1.349 . S
C1175 H1167 0.950 . S
C1175 C1173 1.327 . S
C1176 C1164 1.349 . S
C1176 H1170 0.950 . S
C1176 C1177 1.327 . S
C1177 H1171 0.950 . S
C1177 C1176 1.327 . S
C1177 C1181 1.429 . S
C1178 C1161 1.574 . S
C1178 H1172 0.949 . S
C1178 C1182 1.368 . S
C1179 C1160 1.429 . S
C1179 C1173 1.429 . S
C1179 C1180 1.523 . S
C1180 C1161 1.368 . S
C1180 C1174 1.368 . S
C1180 C1179 1.523 . S
C1181 C1165 1.429 . S
C1181 C1177 1.429 . S
C1181 C1182 1.523 . S
C1182 C1166 1.368 . S
C1182 C1178 1.368 . S
C1182 C1181 1.523 . S
H1183 C1158 0.950 . S
H1184 C1160 0.950 . S
H1185 C1161 0.949 . S
H1186 C1163 0.950 . S
H1187 C1165 0.950 . S
C1188 C1189 1.347 . S
C1188 C1190 1.328 1_455 S
C1188 H1213 0.951 1_455 S
C1189 C1188 1.347 . S
C1189 C1205 1.349 . S
C1190 C1188 1.328 1_655 S
C1190 C1209 1.429 1_655 S
C1190 H1214 0.950 . S
C1191 C1208 1.574 . S
C1191 C1210 1.368 . S
C1191 H1215 0.949 . S
H1192 C1196 0.949 . S
C1193 C1194 1.347 . S
C1193 C1195 1.328 1_655 S
C1193 H1216 0.951 1_655 S
C1194 C1193 1.347 . S
C1194 C1206 1.349 . S
C1195 C1193 1.328 1_455 S
C1195 C1211 1.429 1_455 S
C1195 H1217 0.950 . S
C1196 H1192 0.949 . S
C1196 C1204 1.574 . S
C1196 C1212 1.368 . S
H1197 C1205 0.950 . S
H1198 C1203 0.950 . S
H1199 C1204 0.949 . S
H1200 C1206 0.950 . S
H1201 C1207 0.950 . S
H1202 C1208 0.949 . S
C1203 H1198 0.950 . S
C1203 C1205 1.327 . S
C1203 C1209 1.429 . S
C1204 C1196 1.574 . S
C1204 H1199 0.949 . S
C1204 C1210 1.368 1_655 S
C1205 C1189 1.349 . S
C1205 H1197 0.950 . S
C1205 C1203 1.327 . S
C1206 C1194 1.349 . S
C1206 H1200 0.950 . S
C1206 C1207 1.327 . S
C1207 H1201 0.950 . S
C1207 C1206 1.327 . S
C1207 C1211 1.429 . S
C1208 C1191 1.574 . S
C1208 H1202 0.949 . S
C1208 C1212 1.368 1_455 S
C1209 C1190 1.429 1_455 S
C1209 C1203 1.429 . S
C1209 C1210 1.523 . S
C1210 C1191 1.368 . S
C1210 C1204 1.368 1_455 S
C1210 C1209 1.523 . S
C1211 C1195 1.429 1_655 S
C1211 C1207 1.429 . S
C1211 C1212 1.523 . S
C1212 C1196 1.368 . S
C1212 C1208 1.368 1_655 S
C1212 C1211 1.523 . S
H1213 C1188 0.951 1_655 S
H1214 C1190 0.950 . S
H1215 C1191 0.949 . S
H1216 C1193 0.951 1_455 S
H1217 C1195 0.950 . S
C1218 C1219 1.349 . S
C1218 C1220 1.327 1_565 S
C1218 H1243 0.950 1_565 S
C1219 C1218 1.349 . S
C1219 C1235 1.349 . S
C1220 C1218 1.327 1_545 S
C1220 C1239 1.429 1_545 S
C1220 H1244 0.950 . S
C1221 C1238 1.574 . S
C1221 C1240 1.368 . S
C1221 H1245 0.949 . S
H1222 C1226 0.949 . S
C1223 C1224 1.349 . S
C1223 C1225 1.327 1_545 S
C1223 H1246 0.950 1_545 S
C1224 C1223 1.349 . S
C1224 C1236 1.349 . S
C1225 C1223 1.327 1_565 S
C1225 C1241 1.429 1_565 S
C1225 H1247 0.950 . S
C1226 H1222 0.949 . S
C1226 C1234 1.574 . S
C1226 C1242 1.368 . S
H1227 C1235 0.950 . S
H1228 C1233 0.950 . S
H1229 C1234 0.949 . S
H1230 C1236 0.950 . S
H1231 C1237 0.950 . S
H1232 C1238 0.949 . S
C1233 H1228 0.950 . S
C1233 C1235 1.327 . S
C1233 C1239 1.429 . S
C1234 C1226 1.574 . S
C1234 H1229 0.949 . S
C1234 C1240 1.368 1_545 S
C1235 C1219 1.349 . S
C1235 H1227 0.950 . S
C1235 C1233 1.327 . S
C1236 C1224 1.349 . S
C1236 H1230 0.950 . S
C1236 C1237 1.327 . S
C1237 H1231 0.950 . S
C1237 C1236 1.327 . S
C1237 C1241 1.429 . S
C1238 C1221 1.574 . S
C1238 H1232 0.949 . S
C1238 C1242 1.368 1_565 S
C1239 C1220 1.429 1_565 S
C1239 C1233 1.429 . S
C1239 C1240 1.523 . S
C1240 C1221 1.368 . S
C1240 C1234 1.368 1_565 S
C1240 C1239 1.523 . S
C1241 C1225 1.429 1_545 S
C1241 C1237 1.429 . S
C1241 C1242 1.523 . S
C1242 C1226 1.368 . S
C1242 C1238 1.368 1_545 S
C1242 C1241 1.523 . S
H1243 C1218 0.950 1_545 S
H1244 C1220 0.950 . S
H1245 C1221 0.949 . S
H1246 C1223 0.950 1_565 S
H1247 C1225 0.950 . S
C1248 C1249 1.349 . S
C1248 C1250 1.327 . S
C1248 H1273 0.950 . S
C1249 C1248 1.349 . S
C1249 C1265 1.349 . S
C1250 C1248 1.327 . S
C1250 C1269 1.429 . S
C1250 H1274 0.950 . S
C1251 C1268 1.574 . S
C1251 C1270 1.368 . S
C1251 H1275 0.949 . S
H1252 C1256 0.949 . S
C1253 C1254 1.349 . S
C1253 C1255 1.327 . S
C1253 H1276 0.950 . S
C1254 C1253 1.349 . S
C1254 C1266 1.349 . S
C1255 C1253 1.327 . S
C1255 C1271 1.429 . S
C1255 H1277 0.950 . S
C1256 H1252 0.949 . S
C1256 C1264 1.574 . S
C1256 C1272 1.368 . S
H1257 C1265 0.950 . S
H1258 C1263 0.950 . S
H1259 C1264 0.949 . S
H1260 C1266 0.950 . S
H1261 C1267 0.950 . S
H1262 C1268 0.949 . S
C1263 H1258 0.950 . S
C1263 C1265 1.327 . S
C1263 C1269 1.429 . S
C1264 C1256 1.574 . S
C1264 H1259 0.949 . S
C1264 C1270 1.368 . S
C1265 C1249 1.349 . S
C1265 H1257 0.950 . S
C1265 C1263 1.327 . S
C1266 C1254 1.349 . S
C1266 H1260 0.950 . S
C1266 C1267 1.327 . S
C1267 H1261 0.950 . S
C1267 C1266 1.327 . S
C1267 C1271 1.429 . S
C1268 C1251 1.574 . S
C1268 H1262 0.949 . S
C1268 C1272 1.368 . S
C1269 C1250 1.429 . S
C1269 C1263 1.429 . S
C1269 C1270 1.523 . S
C1270 C1251 1.368 . S
C1270 C1264 1.368 . S
C1270 C1269 1.523 . S
C1271 C1255 1.429 . S
C1271 C1267 1.429 . S
C1271 C1272 1.523 . S
C1272 C1256 1.368 . S
C1272 C1268 1.368 . S
C1272 C1271 1.523 . S
H1273 C1248 0.950 . S
H1274 C1250 0.950 . S
H1275 C1251 0.949 . S
H1276 C1253 0.950 . S
H1277 C1255 0.950 . S
C1278 C1279 1.349 . S
C1278 C1280 1.327 . S
C1278 H1303 0.950 . S
C1279 C1278 1.349 . S
C1279 C1295 1.349 . S
C1280 C1278 1.327 . S
C1280 C1299 1.429 . S
C1280 H1304 0.950 . S
C1281 C1298 1.574 . S
C1281 C1300 1.368 1_655 S
C1281 H1305 0.949 . S
H1282 C1286 0.949 . S
C1283 C1284 1.349 . S
C1283 C1285 1.327 . S
C1283 H1306 0.950 . S
C1284 C1283 1.349 . S
C1284 C1296 1.349 . S
C1285 C1283 1.327 . S
C1285 C1301 1.429 . S
C1285 H1307 0.950 . S
C1286 H1282 0.949 . S
C1286 C1294 1.574 . S
C1286 C1302 1.368 1_455 S
H1287 C1295 0.950 . S
H1288 C1293 0.950 1_655 S
H1289 C1294 0.949 . S
H1290 C1296 0.950 . S
H1291 C1297 0.950 1_455 S
H1292 C1298 0.949 . S
C1293 H1288 0.950 1_455 S
C1293 C1295 1.327 . S
C1293 C1299 1.429 . S
C1294 C1286 1.574 . S
C1294 H1289 0.949 . S
C1294 C1300 1.368 . S
C1295 C1279 1.349 . S
C1295 H1287 0.950 . S
C1295 C1293 1.327 . S
C1296 C1284 1.349 . S
C1296 H1290 0.950 . S
C1296 C1297 1.327 . S
C1297 H1291 0.950 1_655 S
C1297 C1296 1.327 . S
C1297 C1301 1.429 . S
C1298 C1281 1.574 . S
C1298 H1292 0.949 . S
C1298 C1302 1.368 . S
C1299 C1280 1.429 . S
C1299 C1293 1.429 . S
C1299 C1300 1.523 . S
C1300 C1281 1.368 1_455 S
C1300 C1294 1.368 . S
C1300 C1299 1.523 . S
C1301 C1285 1.429 . S
C1301 C1297 1.429 . S
C1301 C1302 1.523 . S
C1302 C1286 1.368 1_655 S
C1302 C1298 1.368 . S
C1302 C1301 1.523 . S
H1303 C1278 0.950 . S
H1304 C1280 0.950 . S
H1305 C1281 0.949 . S
H1306 C1283 0.950 . S
H1307 C1285 0.950 . S
C1308 C1309 1.349 . S
C1308 C1310 1.327 . S
C1308 H1333 0.950 . S
C1309 C1308 1.349 . S
C1309 C1325 1.349 . S
C1310 C1308 1.327 . S
C1310 C1329 1.429 . S
C1310 H1334 0.950 1_565 S
C1311 C1328 1.574 . S
C1311 C1330 1.368 . S
C1311 H1335 0.949 . S
H1312 C1316 0.949 . S
C1313 C1314 1.349 . S
C1313 C1315 1.327 . S
C1313 H1336 0.950 . S
C1314 C1313 1.349 . S
C1314 C1326 1.349 . S
C1315 C1313 1.327 . S
C1315 C1331 1.429 . S
C1315 H1337 0.950 1_545 S
C1316 H1312 0.949 . S
C1316 C1324 1.574 . S
C1316 C1332 1.368 . S
H1317 C1325 0.950 . S
H1318 C1323 0.950 . S
H1319 C1324 0.949 . S
H1320 C1326 0.950 . S
H1321 C1327 0.950 . S
H1322 C1328 0.949 . S
C1323 H1318 0.950 . S
C1323 C1325 1.327 . S
C1323 C1329 1.429 . S
C1324 C1316 1.574 . S
C1324 H1319 0.949 . S
C1324 C1330 1.368 1_545 S
C1325 C1309 1.349 . S
C1325 H1317 0.950 . S
C1325 C1323 1.327 . S
C1326 C1314 1.349 . S
C1326 H1320 0.950 . S
C1326 C1327 1.327 . S
C1327 H1321 0.950 . S
C1327 C1326 1.327 . S
C1327 C1331 1.429 . S
C1328 C1311 1.574 . S
C1328 H1322 0.949 . S
C1328 C1332 1.368 1_565 S
C1329 C1310 1.429 . S
C1329 C1323 1.429 . S
C1329 C1330 1.523 . S
C1330 C1311 1.368 . S
C1330 C1324 1.368 1_565 S
C1330 C1329 1.523 . S
C1331 C1315 1.429 . S
C1331 C1327 1.429 . S
C1331 C1332 1.523 . S
C1332 C1316 1.368 . S
C1332 C1328 1.368 1_545 S
C1332 C1331 1.523 . S
H1333 C1308 0.950 . S
H1334 C1310 0.950 1_545 S
H1335 C1311 0.949 . S
H1336 C1313 0.950 . S
H1337 C1315 0.950 1_565 S
C1338 C1339 1.349 . S
C1338 C1340 1.327 . S
C1338 H1363 0.950 . S
C1339 C1338 1.349 . S
C1339 C1355 1.349 . S
C1340 C1338 1.327 . S
C1340 C1359 1.429 . S
C1340 H1364 0.950 . S
C1341 C1358 1.574 . S
C1341 C1360 1.368 . S
C1341 H1365 0.949 . S
H1342 C1346 0.949 . S
C1343 C1344 1.349 . S
C1343 C1345 1.327 . S
C1343 H1366 0.950 . S
C1344 C1343 1.349 . S
C1344 C1356 1.349 . S
C1345 C1343 1.327 . S
C1345 C1361 1.429 . S
C1345 H1367 0.950 . S
C1346 H1342 0.949 . S
C1346 C1354 1.574 . S
C1346 C1362 1.368 . S
H1347 C1355 0.950 . S
H1348 C1353 0.950 . S
H1349 C1354 0.949 . S
H1350 C1356 0.950 . S
H1351 C1357 0.950 . S
H1352 C1358 0.949 . S
C1353 H1348 0.950 . S
C1353 C1355 1.327 . S
C1353 C1359 1.429 . S
C1354 C1346 1.574 . S
C1354 H1349 0.949 . S
C1354 C1360 1.368 . S
C1355 C1339 1.349 . S
C1355 H1347 0.950 . S
C1355 C1353 1.327 . S
C1356 C1344 1.349 . S
C1356 H1350 0.950 . S
C1356 C1357 1.327 . S
C1357 H1351 0.950 . S
C1357 C1356 1.327 . S
C1357 C1361 1.429 . S
C1358 C1341 1.574 . S
C1358 H1352 0.949 . S
C1358 C1362 1.368 . S
C1359 C1340 1.429 . S
C1359 C1353 1.429 . S
C1359 C1360 1.523 . S
C1360 C1341 1.368 . S
C1360 C1354 1.368 . S
C1360 C1359 1.523 . S
C1361 C1345 1.429 . S
C1361 C1357 1.429 . S
C1361 C1362 1.523 . S
C1362 C1346 1.368 . S
C1362 C1358 1.368 . S
C1362 C1361 1.523 . S
H1363 C1338 0.950 . S
H1364 C1340 0.950 . S
H1365 C1341 0.949 . S
H1366 C1343 0.950 . S
H1367 C1345 0.950 . S
C1368 C1369 1.349 . S
C1368 C1370 1.327 . S
C1368 H1393 0.950 . S
C1369 C1368 1.349 . S
C1369 C1385 1.349 . S
C1370 C1368 1.327 . S
C1370 C1389 1.429 . S
C1370 H1394 0.950 1_655 S
C1371 C1388 1.574 . S
C1371 C1390 1.368 . S
C1371 H1395 0.949 . S
H1372 C1376 0.949 . S
C1373 C1374 1.349 . S
C1373 C1375 1.327 . S
C1373 H1396 0.950 . S
C1374 C1373 1.349 . S
C1374 C1386 1.349 . S
C1375 C1373 1.327 . S
C1375 C1391 1.429 . S
C1375 H1397 0.950 1_455 S
C1376 H1372 0.949 . S
C1376 C1384 1.574 . S
C1376 C1392 1.368 . S
H1377 C1385 0.950 . S
H1378 C1383 0.950 . S
H1379 C1384 0.949 . S
H1380 C1386 0.950 . S
H1381 C1387 0.950 . S
H1382 C1388 0.949 . S
C1383 H1378 0.950 . S
C1383 C1385 1.327 . S
C1383 C1389 1.429 . S
C1384 C1376 1.574 . S
C1384 H1379 0.949 . S
C1384 C1390 1.368 1_455 S
C1385 C1369 1.349 . S
C1385 H1377 0.950 . S
C1385 C1383 1.327 . S
C1386 C1374 1.349 . S
C1386 H1380 0.950 . S
C1386 C1387 1.327 . S
C1387 H1381 0.950 . S
C1387 C1386 1.327 . S
C1387 C1391 1.429 . S
C1388 C1371 1.574 . S
C1388 H1382 0.949 . S
C1388 C1392 1.368 1_655 S
C1389 C1370 1.429 . S
C1389 C1383 1.429 . S
C1389 C1390 1.523 . S
C1390 C1371 1.368 . S
C1390 C1384 1.368 1_655 S
C1390 C1389 1.523 . S
C1391 C1375 1.429 . S
C1391 C1387 1.429 . S
C1391 C1392 1.523 . S
C1392 C1376 1.368 . S
C1392 C1388 1.368 1_455 S
C1392 C1391 1.523 . S
H1393 C1368 0.950 . S
H1394 C1370 0.950 1_455 S
H1395 C1371 0.949 . S
H1396 C1373 0.950 . S
H1397 C1375 0.950 1_655 S
C1398 C1399 1.349 . S
C1398 C1400 1.327 . S
C1398 H1423 0.950 . S
C1399 C1398 1.349 . S
C1399 C1415 1.349 . S
C1400 C1398 1.327 . S
C1400 C1419 1.429 . S
C1400 H1424 0.950 . S
C1401 C1418 1.574 . S
C1401 C1420 1.368 1_565 S
C1401 H1425 0.949 . S
H1402 C1406 0.949 . S
C1403 C1404 1.349 . S
C1403 C1405 1.327 . S
C1403 H1426 0.950 . S
C1404 C1403 1.349 . S
C1404 C1416 1.349 . S
C1405 C1403 1.327 . S
C1405 C1421 1.429 . S
C1405 H1427 0.950 . S
C1406 H1402 0.949 . S
C1406 C1414 1.574 . S
C1406 C1422 1.368 1_545 S
H1407 C1415 0.950 . S
H1408 C1413 0.950 1_565 S
H1409 C1414 0.949 . S
H1410 C1416 0.950 . S
H1411 C1417 0.950 1_545 S
H1412 C1418 0.949 . S
C1413 H1408 0.950 1_545 S
C1413 C1415 1.327 . S
C1413 C1419 1.429 . S
C1414 C1406 1.574 . S
C1414 H1409 0.949 . S
C1414 C1420 1.368 . S
C1415 C1399 1.349 . S
C1415 H1407 0.950 . S
C1415 C1413 1.327 . S
C1416 C1404 1.349 . S
C1416 H1410 0.950 . S
C1416 C1417 1.327 . S
C1417 H1411 0.950 1_565 S
C1417 C1416 1.327 . S
C1417 C1421 1.429 . S
C1418 C1401 1.574 . S
C1418 H1412 0.949 . S
C1418 C1422 1.368 . S
C1419 C1400 1.429 . S
C1419 C1413 1.429 . S
C1419 C1420 1.523 . S
C1420 C1401 1.368 1_545 S
C1420 C1414 1.368 . S
C1420 C1419 1.523 . S
C1421 C1405 1.429 . S
C1421 C1417 1.429 . S
C1421 C1422 1.523 . S
C1422 C1406 1.368 1_565 S
C1422 C1418 1.368 . S
C1422 C1421 1.523 . S
H1423 C1398 0.950 . S
H1424 C1400 0.950 . S
H1425 C1401 0.949 . S
H1426 C1403 0.950 . S
H1427 C1405 0.950 . S
C709 C3 1.607 . S
C714 C534 1.607 . S
C739 C62 1.607 . S
C744 C593 1.607 . S
C769 C121 1.607 . S
C774 C652 1.607 . S
C799 C180 1.607 . S
C804 C357 1.607 . S
C829 C416 1.607 . S
C834 C239 1.607 . S
C859 C475 1.607 . S
C864 C298 1.607 . S
C889 C595 1.620 . S
C894 C5 1.620 . S
C919 C64 1.620 . S
C924 C654 1.620 . S
C949 C123 1.620 . S
C954 C359 1.620 . S
C979 C182 1.620 . S
C984 C418 1.620 . S
C1009 C241 1.620 . S
C1014 C477 1.620 . S
C1039 C300 1.620 . S
C1044 C536 1.620 . S
C1069 C564 0.680 . S
C1074 C33 0.680 . S
C1099 C92 0.680 . S
C1104 C623 0.680 . S
C1129 C151 0.680 . S
C1134 C682 0.680 . S
C1159 C387 0.680 . S
C1164 C210 0.680 . S
C1189 C269 0.680 . S
C1194 C446 0.680 . S
C1219 C505 0.680 . S
C1224 C328 0.680 . S
C1249 C52 1.615 . S
C1254 C229 1.615 . S
C1279 C288 1.615 . S
C1284 C111 1.615 . S
C1309 C170 1.615 . S
C1314 C347 1.615 . S
C1339 C406 1.615 . S
C1344 C583 1.615 . S
C1369 C465 1.615 . S
C1374 C642 1.615 . S
C1399 C701 1.615 . S
C1404 C524 1.615 . S
