# Generated by pormake.
# Topology ukd, (4)-cn, num edge types: 1
# Building blocks:
#     Node 0, Type 0, BuildingBlock: KUFVIS_clean_sbu_0, # of connection points: 4
#     Node 1, Type 0, BuildingBlock: KUFVIS_clean_sbu_0, # of connection points: 4
#     Node 2, Type 0, BuildingBlock: KUFVIS_clean_sbu_0, # of connection points: 4
#     Node 3, Type 0, BuildingBlock: KUFVIS_clean_sbu_0, # of connection points: 4
#     Node 4, Type 0, BuildingBlock: KUFVIS_clean_sbu_0, # of connection points: 4
#     Node 5, Type 0, BuildingBlock: KUFVIS_clean_sbu_0, # of connection points: 4
#     Node 6, Type 0, BuildingBlock: KUFVIS_clean_sbu_0, # of connection points: 4
#     Node 7, Type 0, BuildingBlock: KUFVIS_clean_sbu_0, # of connection points: 4
#     Node 8, Type 0, BuildingBlock: KUFVIS_clean_sbu_0, # of connection points: 4
#     Node 9, Type 0, BuildingBlock: KUFVIS_clean_sbu_0, # of connection points: 4
#     Node 10, Type 0, BuildingBlock: KUFVIS_clean_sbu_0, # of connection points: 4
#     Node 11, Type 0, BuildingBlock: KUFVIS_clean_sbu_0, # of connection points: 4
#     Node 12, Type 0, BuildingBlock: KUFVIS_clean_sbu_0, # of connection points: 4
#     Node 13, Type 0, BuildingBlock: KUFVIS_clean_sbu_0, # of connection points: 4
#     Node 14, Type 0, BuildingBlock: KUFVIS_clean_sbu_0, # of connection points: 4
#     Node 15, Type 0, BuildingBlock: KUFVIS_clean_sbu_0, # of connection points: 4
#     Node 16, Type 0, BuildingBlock: KUFVIS_clean_sbu_0, # of connection points: 4
#     Node 17, Type 0, BuildingBlock: KUFVIS_clean_sbu_0, # of connection points: 4
#     Node 18, Type 0, BuildingBlock: KUFVIS_clean_sbu_0, # of connection points: 4
#     Node 19, Type 0, BuildingBlock: KUFVIS_clean_sbu_0, # of connection points: 4
#     Node 20, Type 0, BuildingBlock: KUFVIS_clean_sbu_0, # of connection points: 4
#     Node 21, Type 0, BuildingBlock: KUFVIS_clean_sbu_0, # of connection points: 4
#     Node 22, Type 0, BuildingBlock: KUFVIS_clean_sbu_0, # of connection points: 4
#     Node 23, Type 0, BuildingBlock: KUFVIS_clean_sbu_0, # of connection points: 4
#     Node 24, Type 0, BuildingBlock: KUFVIS_clean_sbu_0, # of connection points: 4
#     Node 25, Type 0, BuildingBlock: KUFVIS_clean_sbu_0, # of connection points: 4
#     Node 26, Type 0, BuildingBlock: KUFVIS_clean_sbu_0, # of connection points: 4
#     Node 27, Type 0, BuildingBlock: KUFVIS_clean_sbu_0, # of connection points: 4
#     Node 28, Type 0, BuildingBlock: KUFVIS_clean_sbu_0, # of connection points: 4
#     Node 29, Type 0, BuildingBlock: KUFVIS_clean_sbu_0, # of connection points: 4
#     Node 30, Type 0, BuildingBlock: KUFVIS_clean_sbu_0, # of connection points: 4
#     Node 31, Type 0, BuildingBlock: KUFVIS_clean_sbu_0, # of connection points: 4
#     Edge 32, Type (0, 0), BuildingBlock: XIVTED_clean_linker_0, # of connection points: 2
#     Edge 33, Type (0, 0), BuildingBlock: XIVTED_clean_linker_0, # of connection points: 2
#     Edge 34, Type (0, 0), BuildingBlock: XIVTED_clean_linker_0, # of connection points: 2
#     Edge 35, Type (0, 0), BuildingBlock: XIVTED_clean_linker_0, # of connection points: 2
#     Edge 36, Type (0, 0), BuildingBlock: XIVTED_clean_linker_0, # of connection points: 2
#     Edge 37, Type (0, 0), BuildingBlock: XIVTED_clean_linker_0, # of connection points: 2
#     Edge 38, Type (0, 0), BuildingBlock: XIVTED_clean_linker_0, # of connection points: 2
#     Edge 39, Type (0, 0), BuildingBlock: XIVTED_clean_linker_0, # of connection points: 2
#     Edge 40, Type (0, 0), BuildingBlock: XIVTED_clean_linker_0, # of connection points: 2
#     Edge 41, Type (0, 0), BuildingBlock: XIVTED_clean_linker_0, # of connection points: 2
#     Edge 42, Type (0, 0), BuildingBlock: XIVTED_clean_linker_0, # of connection points: 2
#     Edge 43, Type (0, 0), BuildingBlock: XIVTED_clean_linker_0, # of connection points: 2
#     Edge 44, Type (0, 0), BuildingBlock: XIVTED_clean_linker_0, # of connection points: 2
#     Edge 45, Type (0, 0), BuildingBlock: XIVTED_clean_linker_0, # of connection points: 2
#     Edge 46, Type (0, 0), BuildingBlock: XIVTED_clean_linker_0, # of connection points: 2
#     Edge 47, Type (0, 0), BuildingBlock: XIVTED_clean_linker_0, # of connection points: 2
#     Edge 48, Type (0, 0), BuildingBlock: XIVTED_clean_linker_0, # of connection points: 2
#     Edge 49, Type (0, 0), BuildingBlock: XIVTED_clean_linker_0, # of connection points: 2
#     Edge 50, Type (0, 0), BuildingBlock: XIVTED_clean_linker_0, # of connection points: 2
#     Edge 51, Type (0, 0), BuildingBlock: XIVTED_clean_linker_0, # of connection points: 2
#     Edge 52, Type (0, 0), BuildingBlock: XIVTED_clean_linker_0, # of connection points: 2
#     Edge 53, Type (0, 0), BuildingBlock: XIVTED_clean_linker_0, # of connection points: 2
#     Edge 54, Type (0, 0), BuildingBlock: XIVTED_clean_linker_0, # of connection points: 2
#     Edge 55, Type (0, 0), BuildingBlock: XIVTED_clean_linker_0, # of connection points: 2
#     Edge 56, Type (0, 0), BuildingBlock: XIVTED_clean_linker_0, # of connection points: 2
#     Edge 57, Type (0, 0), BuildingBlock: XIVTED_clean_linker_0, # of connection points: 2
#     Edge 58, Type (0, 0), BuildingBlock: XIVTED_clean_linker_0, # of connection points: 2
#     Edge 59, Type (0, 0), BuildingBlock: XIVTED_clean_linker_0, # of connection points: 2
#     Edge 60, Type (0, 0), BuildingBlock: XIVTED_clean_linker_0, # of connection points: 2
#     Edge 61, Type (0, 0), BuildingBlock: XIVTED_clean_linker_0, # of connection points: 2
#     Edge 62, Type (0, 0), BuildingBlock: XIVTED_clean_linker_0, # of connection points: 2
#     Edge 63, Type (0, 0), BuildingBlock: XIVTED_clean_linker_0, # of connection points: 2
#     Edge 64, Type (0, 0), BuildingBlock: XIVTED_clean_linker_0, # of connection points: 2
#     Edge 65, Type (0, 0), BuildingBlock: XIVTED_clean_linker_0, # of connection points: 2
#     Edge 66, Type (0, 0), BuildingBlock: XIVTED_clean_linker_0, # of connection points: 2
#     Edge 67, Type (0, 0), BuildingBlock: XIVTED_clean_linker_0, # of connection points: 2
#     Edge 68, Type (0, 0), BuildingBlock: XIVTED_clean_linker_0, # of connection points: 2
#     Edge 69, Type (0, 0), BuildingBlock: XIVTED_clean_linker_0, # of connection points: 2
#     Edge 70, Type (0, 0), BuildingBlock: XIVTED_clean_linker_0, # of connection points: 2
#     Edge 71, Type (0, 0), BuildingBlock: XIVTED_clean_linker_0, # of connection points: 2
#     Edge 72, Type (0, 0), BuildingBlock: XIVTED_clean_linker_0, # of connection points: 2
#     Edge 73, Type (0, 0), BuildingBlock: XIVTED_clean_linker_0, # of connection points: 2
#     Edge 74, Type (0, 0), BuildingBlock: XIVTED_clean_linker_0, # of connection points: 2
#     Edge 75, Type (0, 0), BuildingBlock: XIVTED_clean_linker_0, # of connection points: 2
#     Edge 76, Type (0, 0), BuildingBlock: XIVTED_clean_linker_0, # of connection points: 2
#     Edge 77, Type (0, 0), BuildingBlock: XIVTED_clean_linker_0, # of connection points: 2
#     Edge 78, Type (0, 0), BuildingBlock: XIVTED_clean_linker_0, # of connection points: 2
#     Edge 79, Type (0, 0), BuildingBlock: XIVTED_clean_linker_0, # of connection points: 2
#     Edge 80, Type (0, 0), BuildingBlock: XIVTED_clean_linker_0, # of connection points: 2
#     Edge 81, Type (0, 0), BuildingBlock: XIVTED_clean_linker_0, # of connection points: 2
#     Edge 82, Type (0, 0), BuildingBlock: XIVTED_clean_linker_0, # of connection points: 2
#     Edge 83, Type (0, 0), BuildingBlock: XIVTED_clean_linker_0, # of connection points: 2
#     Edge 84, Type (0, 0), BuildingBlock: XIVTED_clean_linker_0, # of connection points: 2
#     Edge 85, Type (0, 0), BuildingBlock: XIVTED_clean_linker_0, # of connection points: 2
#     Edge 86, Type (0, 0), BuildingBlock: XIVTED_clean_linker_0, # of connection points: 2
#     Edge 87, Type (0, 0), BuildingBlock: XIVTED_clean_linker_0, # of connection points: 2
#     Edge 88, Type (0, 0), BuildingBlock: XIVTED_clean_linker_0, # of connection points: 2
#     Edge 89, Type (0, 0), BuildingBlock: XIVTED_clean_linker_0, # of connection points: 2
#     Edge 90, Type (0, 0), BuildingBlock: XIVTED_clean_linker_0, # of connection points: 2
#     Edge 91, Type (0, 0), BuildingBlock: XIVTED_clean_linker_0, # of connection points: 2
#     Edge 92, Type (0, 0), BuildingBlock: XIVTED_clean_linker_0, # of connection points: 2
#     Edge 93, Type (0, 0), BuildingBlock: XIVTED_clean_linker_0, # of connection points: 2
#     Edge 94, Type (0, 0), BuildingBlock: XIVTED_clean_linker_0, # of connection points: 2
#     Edge 95, Type (0, 0), BuildingBlock: XIVTED_clean_linker_0, # of connection points: 2
# Relax obj value: 0.060
# Max RMSD: 0.102
# Mean RMSD: 0.100
data_MOF--net-ukd--node1-KUFVIS_clean_sbu_0--edge1-XIVTED_clean_linker_0
_symmetry_space_group_name_H-M    P1
_symmetry_Int_Tables_number       1
_symmetry_cell_setting            triclinic
loop_
_symmetry_equiv_pos_as_xyz
'x, y, z'
_cell_length_a     44.825874
_cell_length_b     44.829696
_cell_length_c     72.944117
_cell_angle_alpha  89.994826
_cell_angle_beta   89.998053
_cell_angle_gamma 90.006217
loop_
_atom_site_label
_atom_site_type_symbol
_atom_site_fract_x
_atom_site_fract_y
_atom_site_fract_z
_atom_type_partial_charge
Mn0 Mn 0.21559 0.18345 0.34791 0.0
Mn1 Mn 0.14895 0.19146 0.32702 0.0
C2 C 0.17401 0.16089 0.36032 0.0
C3 C 0.26009 0.15709 0.35074 0.0
C4 C 0.1786 0.24 0.34972 0.0
O5 O 0.22627 0.19995 0.3227 0.0
O6 O 0.18129 0.19782 0.30886 0.0
C7 C 0.15088 0.13907 0.30238 0.0
N8 N 0.13704 0.15476 0.31591 0.0
C9 C 0.09704 0.11904 0.31742 0.0
C10 C 0.11076 0.10259 0.30341 0.0
C11 C 0.13783 0.11262 0.29589 0.0
C12 C 0.11106 0.14526 0.32329 0.0
H13 H 0.17174 0.14668 0.29663 0.0
C14 C 0.20946 0.20269 0.30866 0.0
O15 O 0.25815 0.18465 0.35616 0.0
O16 O 0.2368 0.14571 0.34288 0.0
N17 N 0.11548 0.18589 0.34296 0.0
C18 C 0.10578 0.20371 0.35687 0.0
C19 C 0.07921 0.19651 0.36608 0.0
C20 C 0.06277 0.17126 0.36079 0.0
C21 C 0.07299 0.1535 0.34627 0.0
C22 C 0.09948 0.16192 0.3375 0.0
H23 H 0.11824 0.22321 0.36096 0.0
O24 O 0.1976 0.16509 0.37026 0.0
O25 O 0.17572 0.16941 0.34331 0.0
O26 O 0.20049 0.2246 0.35567 0.0
O27 O 0.15914 0.23017 0.33842 0.0
C28 C 0.05822 0.12746 0.34037 0.0
C29 C 0.07029 0.11019 0.32601 0.0
H30 H 0.10083 0.08211 0.29842 0.0
H31 H 0.14862 0.09996 0.28514 0.0
H32 H 0.07147 0.21035 0.37727 0.0
H33 H 0.04247 0.1656 0.36805 0.0
H34 H 0.03781 0.12027 0.34699 0.0
H35 H 0.05896 0.08998 0.32178 0.0
Mn36 Mn 0.06539 0.96531 0.59776 0.0
Mn37 Mn 0.05753 0.89875 0.57676 0.0
C38 C 0.08806 0.92373 0.61008 0.0
C39 C 0.09161 0.00989 0.60066 0.0
C40 C 0.00893 0.92815 0.59953 0.0
O41 O 0.04886 0.97606 0.57257 0.0
O42 O 0.05112 0.93115 0.55866 0.0
C43 C 0.10991 0.90089 0.55212 0.0
N44 N 0.09424 0.88696 0.56562 0.0
C45 C 0.12988 0.84688 0.56693 0.0
C46 C 0.14631 0.86069 0.55294 0.0
C47 C 0.13632 0.88786 0.54554 0.0
C48 C 0.10373 0.86091 0.57291 0.0
H49 H 0.10231 0.92181 0.54644 0.0
C50 C 0.04619 0.9593 0.5585 0.0
O51 O 0.06406 0.00782 0.60609 0.0
O52 O 0.10306 0.98667 0.59276 0.0
N53 N 0.06317 0.86521 0.59264 0.0
C54 C 0.0454 0.85542 0.60656 0.0
C55 C 0.05263 0.82881 0.6157 0.0
C56 C 0.07783 0.81238 0.61032 0.0
C57 C 0.09551 0.82265 0.59577 0.0
C58 C 0.08711 0.84923 0.5871 0.0
H59 H 0.02592 0.86787 0.61071 0.0
O60 O 0.08381 0.94725 0.62008 0.0
O61 O 0.07953 0.92551 0.59309 0.0
O62 O 0.02427 0.95005 0.60551 0.0
O63 O 0.01879 0.90878 0.58818 0.0
C64 C 0.12146 0.80785 0.58975 0.0
C65 C 0.13868 0.82 0.57538 0.0
H66 H 0.16674 0.85077 0.54788 0.0
H67 H 0.14896 0.89873 0.53481 0.0
H68 H 0.03884 0.82101 0.6269 0.0
H69 H 0.0835 0.79202 0.61752 0.0
H70 H 0.12862 0.78735 0.59627 0.0
H71 H 0.15881 0.80865 0.57106 0.0
Mn72 Mn 0.28259 0.81669 0.84861 0.0
Mn73 Mn 0.34909 0.80961 0.8274 0.0
C74 C 0.32411 0.83942 0.86099 0.0
C75 C 0.2378 0.84239 0.85186 0.0
C76 C 0.32018 0.76048 0.84996 0.0
O77 O 0.27179 0.80049 0.82336 0.0
O78 O 0.31659 0.80315 0.80935 0.0
C79 C 0.3463 0.86232 0.80304 0.0
N80 N 0.36049 0.84657 0.81641 0.0
C81 C 0.40024 0.88257 0.81782 0.0
C82 C 0.38617 0.89909 0.80398 0.0
C83 C 0.35904 0.88895 0.79659 0.0
C84 C 0.38652 0.85617 0.82367 0.0
H85 H 0.32541 0.8546 0.79738 0.0
C86 C 0.28848 0.79803 0.80924 0.0
O87 O 0.24017 0.81474 0.85704 0.0
O88 O 0.26083 0.85427 0.84398 0.0
N89 N 0.38274 0.81527 0.84317 0.0
C90 C 0.39285 0.79732 0.85692 0.0
C91 C 0.41954 0.80458 0.86596 0.0
C92 C 0.4357 0.83001 0.86068 0.0
C93 C 0.42508 0.8479 0.84633 0.0
C94 C 0.39847 0.83942 0.83772 0.0
H95 H 0.38061 0.77767 0.86099 0.0
O96 O 0.30067 0.83483 0.87101 0.0
O97 O 0.32229 0.83119 0.84394 0.0
O98 O 0.29819 0.77558 0.85605 0.0
O99 O 0.33945 0.77063 0.83864 0.0
C100 C 0.43956 0.87412 0.84045 0.0
C101 C 0.42709 0.8915 0.82626 0.0
H102 H 0.39586 0.9197 0.79901 0.0
H103 H 0.34797 0.90165 0.78597 0.0
H104 H 0.4276 0.79064 0.87702 0.0
H105 H 0.45611 0.83571 0.86782 0.0
H106 H 0.46005 0.88136 0.84695 0.0
H107 H 0.43821 0.91183 0.82204 0.0
Mn108 Mn 0.43387 0.03297 0.09712 0.0
Mn109 Mn 0.44029 0.09963 0.07604 0.0
C110 C 0.41095 0.0743 0.10964 0.0
C111 C 0.40838 0.98806 0.10048 0.0
C112 C 0.48992 0.07084 0.09827 0.0
O113 O 0.4498 0.0224 0.07174 0.0
O114 O 0.44667 0.06731 0.05787 0.0
C115 C 0.38734 0.09684 0.05188 0.0
N116 N 0.40316 0.11096 0.06524 0.0
C117 C 0.36713 0.15067 0.06683 0.0
C118 C 0.35053 0.13665 0.053 0.0
C119 C 0.36064 0.10957 0.04554 0.0
C120 C 0.39357 0.13693 0.07259 0.0
H121 H 0.39504 0.076 0.04615 0.0
C122 C 0.45192 0.03922 0.05765 0.0
O123 O 0.4361 0.99053 0.10549 0.0
O124 O 0.39632 0.01104 0.09265 0.0
N125 N 0.43463 0.1331 0.09196 0.0
C126 C 0.45259 0.14308 0.10573 0.0
C127 C 0.44528 0.16962 0.11492 0.0
C128 C 0.4198 0.18579 0.10974 0.0
C129 C 0.4019 0.17531 0.09535 0.0
C130 C 0.41039 0.14881 0.08663 0.0
H131 H 0.47229 0.13084 0.10972 0.0
O132 O 0.41586 0.05089 0.11962 0.0
O133 O 0.41905 0.07258 0.09256 0.0
O134 O 0.47502 0.04873 0.10439 0.0
O135 O 0.47946 0.09012 0.08706 0.0
C136 C 0.37567 0.18983 0.08954 0.0
C137 C 0.35825 0.17747 0.07533 0.0
H138 H 0.32988 0.14635 0.0481 0.0
H139 H 0.34787 0.09855 0.03492 0.0
H140 H 0.45923 0.17758 0.126 0.0
H141 H 0.41407 0.20609 0.11698 0.0
H142 H 0.36844 0.21026 0.09611 0.0
H143 H 0.3379 0.1886 0.07117 0.0
Mn144 Mn 0.2176 0.8151 0.15185 0.0
Mn145 Mn 0.15116 0.80723 0.17301 0.0
C146 C 0.176 0.83816 0.13979 0.0
C147 C 0.26226 0.84118 0.1489 0.0
C148 C 0.18019 0.75883 0.14991 0.0
O149 O 0.2285 0.79814 0.17692 0.0
O150 O 0.18369 0.80044 0.19097 0.0
C151 C 0.15369 0.85925 0.19793 0.0
N152 N 0.13959 0.84382 0.18439 0.0
C153 C 0.09957 0.87956 0.18343 0.0
C154 C 0.11357 0.89575 0.19746 0.0
C155 C 0.14078 0.88559 0.20469 0.0
C156 C 0.11349 0.85347 0.17725 0.0
H157 H 0.17464 0.85151 0.20349 0.0
C158 C 0.21182 0.79536 0.19103 0.0
O159 O 0.26002 0.81372 0.14335 0.0
O160 O 0.23918 0.85261 0.15697 0.0
N161 N 0.11751 0.8132 0.15728 0.0
C162 C 0.10755 0.79567 0.14329 0.0
C163 C 0.08086 0.8031 0.13429 0.0
C164 C 0.06453 0.82824 0.13989 0.0
C165 C 0.07498 0.84568 0.15449 0.0
C166 C 0.10164 0.83709 0.16301 0.0
H167 H 0.11991 0.77624 0.13899 0.0
O168 O 0.19941 0.83394 0.1297 0.0
O169 O 0.17788 0.82935 0.15673 0.0
O170 O 0.2021 0.77417 0.14393 0.0
O171 O 0.16095 0.76862 0.16137 0.0
C172 C 0.0603 0.87156 0.16071 0.0
C173 C 0.07263 0.88854 0.17513 0.0
H174 H 0.10373 0.91612 0.20267 0.0
H175 H 0.15179 0.89804 0.21546 0.0
H176 H 0.07292 0.7895 0.12305 0.0
H177 H 0.04411 0.83407 0.13279 0.0
H178 H 0.03975 0.87886 0.15431 0.0
H179 H 0.06136 0.90863 0.17961 0.0
Mn180 Mn 0.43339 0.96549 0.40076 0.0
Mn181 Mn 0.44113 0.89898 0.42187 0.0
C182 C 0.41032 0.92394 0.38864 0.0
C183 C 0.40758 0.01024 0.3977 0.0
C184 C 0.48965 0.92806 0.39888 0.0
O185 O 0.45016 0.9763 0.42589 0.0
O186 O 0.44784 0.93145 0.43988 0.0
C187 C 0.38902 0.90139 0.44672 0.0
N188 N 0.4045 0.88736 0.43317 0.0
C189 C 0.3688 0.8473 0.43214 0.0
C190 C 0.35256 0.86122 0.44617 0.0
C191 C 0.36267 0.88843 0.45344 0.0
C192 C 0.39489 0.86127 0.426 0.0
H193 H 0.39672 0.92233 0.45231 0.0
C194 C 0.45288 0.95958 0.43998 0.0
O195 O 0.43511 0.00788 0.3923 0.0
O196 O 0.39589 0.98723 0.40571 0.0
N197 N 0.43521 0.8654 0.40607 0.0
C198 C 0.45278 0.85552 0.39208 0.0
C199 C 0.44541 0.82886 0.38304 0.0
C200 C 0.42027 0.81248 0.38859 0.0
C201 C 0.40279 0.82285 0.4032 0.0
C202 C 0.41132 0.84949 0.41176 0.0
H203 H 0.47221 0.86793 0.38781 0.0
O204 O 0.41467 0.94734 0.37855 0.0
O205 O 0.41905 0.92579 0.4056 0.0
O206 O 0.47433 0.94998 0.39292 0.0
O207 O 0.47982 0.90879 0.41031 0.0
C208 C 0.37691 0.80811 0.40938 0.0
C209 C 0.35988 0.82037 0.4238 0.0
H210 H 0.33219 0.85134 0.45135 0.0
H211 H 0.35018 0.89938 0.46421 0.0
H212 H 0.45904 0.82099 0.37179 0.0
H213 H 0.41449 0.79208 0.38147 0.0
H214 H 0.36964 0.78757 0.40295 0.0
H215 H 0.33979 0.80906 0.42825 0.0
Mn216 Mn 0.28285 0.18332 0.65105 0.0
Mn217 Mn 0.34933 0.19063 0.67225 0.0
C218 C 0.3244 0.16049 0.63878 0.0
C219 C 0.2381 0.15752 0.64784 0.0
C220 C 0.32044 0.23954 0.6495 0.0
O221 O 0.272 0.19969 0.67626 0.0
O222 O 0.31682 0.19723 0.69027 0.0
C223 C 0.3466 0.13819 0.69683 0.0
N224 N 0.36076 0.1538 0.68339 0.0
C225 C 0.40062 0.11791 0.68218 0.0
C226 C 0.38657 0.10153 0.6961 0.0
C227 C 0.3594 0.11168 0.70342 0.0
C228 C 0.38682 0.14417 0.67618 0.0
H229 H 0.32568 0.14592 0.70245 0.0
C230 C 0.28868 0.20227 0.69037 0.0
O231 O 0.24044 0.18512 0.64259 0.0
O232 O 0.26113 0.14575 0.65579 0.0
N233 N 0.38297 0.18482 0.65649 0.0
C234 C 0.39302 0.20258 0.64263 0.0
C235 C 0.41968 0.19521 0.63359 0.0
C236 C 0.4359 0.16989 0.639 0.0
C237 C 0.42536 0.15223 0.65348 0.0
C238 C 0.39874 0.16076 0.66206 0.0
H239 H 0.38074 0.22214 0.63846 0.0
O240 O 0.30099 0.165 0.62873 0.0
O241 O 0.32254 0.16888 0.65581 0.0
O242 O 0.29844 0.22439 0.64348 0.0
O243 O 0.3397 0.22949 0.66086 0.0
C244 C 0.43994 0.12617 0.65952 0.0
C245 C 0.42753 0.10897 0.67383 0.0
H246 H 0.39632 0.08103 0.70119 0.0
H247 H 0.34835 0.09908 0.7141 0.0
H248 H 0.42768 0.20899 0.62244 0.0
H249 H 0.45629 0.16412 0.63187 0.0
H250 H 0.46046 0.1189 0.65307 0.0
H251 H 0.43872 0.08876 0.67817 0.0
Mn252 Mn 0.06494 0.03396 0.90258 0.0
Mn253 Mn 0.05767 0.10055 0.92362 0.0
C254 C 0.08721 0.07552 0.88996 0.0
C255 C 0.09121 0.98945 0.89949 0.0
C256 C 0.00841 0.07107 0.90141 0.0
O257 O 0.04911 0.02326 0.92793 0.0
O258 O 0.05164 0.06817 0.94181 0.0
C259 C 0.11069 0.09834 0.94773 0.0
N260 N 0.0947 0.11229 0.93438 0.0
C261 C 0.13055 0.15214 0.93256 0.0
C262 C 0.14732 0.13831 0.94639 0.0
C263 C 0.13737 0.11126 0.95397 0.0
C264 C 0.10411 0.13825 0.92693 0.0
H265 H 0.10314 0.0775 0.95354 0.0
C266 C 0.04669 0.04002 0.94202 0.0
O267 O 0.06352 0.9914 0.89433 0.0
O268 O 0.10279 0.01274 0.90723 0.0
N269 N 0.06293 0.13407 0.90768 0.0
C270 C 0.04477 0.1439 0.89397 0.0
C271 C 0.05183 0.17047 0.88472 0.0
C272 C 0.0773 0.18678 0.88977 0.0
C273 C 0.09542 0.17643 0.9041 0.0
C274 C 0.08712 0.14995 0.91291 0.0
H275 H 0.02511 0.13153 0.89007 0.0
O276 O 0.08269 0.05196 0.88005 0.0
O277 O 0.07918 0.07379 0.90706 0.0
O278 O 0.02356 0.04913 0.89528 0.0
O279 O 0.01865 0.09051 0.91259 0.0
C280 C 0.12168 0.19107 0.90974 0.0
C281 C 0.13929 0.17887 0.92391 0.0
H282 H 0.16797 0.14813 0.95118 0.0
H283 H 0.15027 0.10038 0.96458 0.0
H284 H 0.03772 0.17831 0.87369 0.0
H285 H 0.08285 0.20708 0.88248 0.0
H286 H 0.12878 0.21147 0.90308 0.0
H287 H 0.15965 0.1901 0.92795 0.0
Mn288 Mn 0.79042 0.80701 0.65739 0.0
Mn289 Mn 0.7951 0.87007 0.68234 0.0
C290 C 0.82167 0.84477 0.64788 0.0
C291 C 0.80581 0.75815 0.65239 0.0
C292 C 0.74296 0.8554 0.65722 0.0
O293 O 0.77172 0.79572 0.68177 0.0
O294 O 0.78176 0.83677 0.69851 0.0
C295 C 0.84441 0.85412 0.7075 0.0
N296 N 0.83276 0.87261 0.69453 0.0
C297 C 0.8762 0.90411 0.69544 0.0
C298 C 0.88854 0.88557 0.70893 0.0
C299 C 0.87259 0.86043 0.71496 0.0
C300 C 0.84788 0.89689 0.68865 0.0
H301 H 0.83235 0.83464 0.71207 0.0
C302 C 0.7725 0.80981 0.69696 0.0
O303 O 0.78001 0.76747 0.64664 0.0
O304 O 0.82235 0.77709 0.66119 0.0
N305 N 0.80844 0.90364 0.66831 0.0
C306 C 0.79451 0.91787 0.6542 0.0
C307 C 0.80818 0.9427 0.64601 0.0
C308 C 0.83596 0.95271 0.65244 0.0
C309 C 0.84981 0.93781 0.66704 0.0
C310 C 0.835 0.91334 0.67477 0.0
H311 H 0.77322 0.91024 0.64912 0.0
O312 O 0.81294 0.8244 0.63643 0.0
O313 O 0.81236 0.84197 0.66468 0.0
O314 O 0.75381 0.83159 0.6504 0.0
O315 O 0.75571 0.87025 0.66997 0.0
C316 C 0.87806 0.94584 0.67392 0.0
C317 C 0.89124 0.92902 0.68811 0.0
H318 H 0.91039 0.8902 0.7146 0.0
H319 H 0.88206 0.84589 0.72527 0.0
H320 H 0.79739 0.95402 0.63471 0.0
H321 H 0.84657 0.97169 0.64596 0.0
H322 H 0.89006 0.96463 0.66819 0.0
H323 H 0.91318 0.93512 0.69308 0.0
Mn324 Mn 0.94154 0.03831 0.40454 0.0
Mn325 Mn 0.8791 0.04232 0.43002 0.0
C326 C 0.90344 0.06943 0.39548 0.0
C327 C 0.99001 0.05473 0.39938 0.0
C328 C 0.89372 0.99038 0.4047 0.0
O329 O 0.95344 0.01933 0.4287 0.0
O330 O 0.91284 0.02919 0.44591 0.0
C331 C 0.89502 0.09164 0.45518 0.0
N332 N 0.87643 0.07989 0.44229 0.0
C333 C 0.84468 0.12314 0.44339 0.0
C334 C 0.86332 0.13556 0.45681 0.0
C335 C 0.88862 0.11975 0.4627 0.0
C336 C 0.85197 0.09487 0.43656 0.0
H337 H 0.91464 0.0797 0.45963 0.0
C338 C 0.93975 0.01993 0.44403 0.0
O339 O 0.98115 0.02885 0.39347 0.0
O340 O 0.97088 0.07062 0.40843 0.0
N341 N 0.84523 0.05545 0.41621 0.0
C342 C 0.831 0.04153 0.40208 0.0
C343 C 0.80606 0.05512 0.39397 0.0
C344 C 0.79596 0.08282 0.40047 0.0
C345 C 0.81089 0.09668 0.41506 0.0
C346 C 0.83547 0.08195 0.42272 0.0
H347 H 0.83871 0.02032 0.39694 0.0
O348 O 0.92357 0.06094 0.38382 0.0
O349 O 0.90664 0.05985 0.4122 0.0
O350 O 0.91717 0.0015 0.39755 0.0
O351 O 0.87913 0.003 0.41761 0.0
C352 C 0.80279 0.12487 0.42199 0.0
C353 C 0.81966 0.13808 0.43615 0.0
H354 H 0.85864 0.15738 0.4625 0.0
H355 H 0.90325 0.12929 0.47295 0.0
H356 H 0.79473 0.04433 0.38268 0.0
H357 H 0.7769 0.09337 0.39406 0.0
H358 H 0.78392 0.13681 0.41632 0.0
H359 H 0.8135 0.15999 0.44115 0.0
Mn360 Mn 0.70717 0.192 0.15604 0.0
Mn361 Mn 0.70262 0.12919 0.1812 0.0
C362 C 0.67721 0.15353 0.14615 0.0
C363 C 0.69072 0.24048 0.15089 0.0
C364 C 0.75549 0.14448 0.15678 0.0
O365 O 0.72484 0.2038 0.18058 0.0
O366 O 0.7149 0.16287 0.19744 0.0
C367 C 0.65205 0.14482 0.20547 0.0
N368 N 0.66445 0.12636 0.19275 0.0
C369 C 0.62107 0.09472 0.19279 0.0
C370 C 0.60796 0.11324 0.20602 0.0
C371 C 0.6235 0.13842 0.21236 0.0
C372 C 0.64972 0.10203 0.18658 0.0
H373 H 0.6638 0.16434 0.21027 0.0
C374 C 0.72391 0.1899 0.19582 0.0
O375 O 0.71693 0.23186 0.14541 0.0
O376 O 0.67443 0.22106 0.15943 0.0
N377 N 0.69035 0.09525 0.16715 0.0
C378 C 0.70526 0.0808 0.15349 0.0
C379 C 0.69221 0.05578 0.14514 0.0
C380 C 0.66405 0.0458 0.15094 0.0
C381 C 0.64923 0.06089 0.1651 0.0
C382 C 0.66346 0.08552 0.17304 0.0
H383 H 0.72684 0.08841 0.1489 0.0
O384 O 0.68585 0.17408 0.1348 0.0
O385 O 0.68571 0.15666 0.16309 0.0
O386 O 0.74453 0.16805 0.14968 0.0
O387 O 0.74247 0.12954 0.16941 0.0
C388 C 0.6206 0.05284 0.17136 0.0
C389 C 0.60654 0.06973 0.1852 0.0
H390 H 0.58583 0.10854 0.21124 0.0
H391 H 0.61344 0.15294 0.22247 0.0
H392 H 0.70377 0.0443 0.1342 0.0
H393 H 0.65393 0.02668 0.14433 0.0
H394 H 0.60903 0.03394 0.16544 0.0
H395 H 0.58437 0.06356 0.18972 0.0
Mn396 Mn 0.55801 0.95969 0.90454 0.0
Mn397 Mn 0.62087 0.95527 0.9296 0.0
C398 C 0.59572 0.92822 0.89526 0.0
C399 C 0.5093 0.94371 0.89965 0.0
C400 C 0.60617 0.00731 0.90437 0.0
O401 O 0.54663 0.9787 0.9288 0.0
O402 O 0.58751 0.96861 0.94571 0.0
C403 C 0.60512 0.90611 0.95492 0.0
N404 N 0.62353 0.9177 0.94187 0.0
C405 C 0.65503 0.87425 0.94279 0.0
C406 C 0.63657 0.86199 0.95636 0.0
C407 C 0.61149 0.87797 0.96242 0.0
C408 C 0.64779 0.90255 0.93598 0.0
H409 H 0.58567 0.91818 0.9595 0.0
C410 C 0.5606 0.97798 0.94404 0.0
O411 O 0.51831 0.96952 0.89371 0.0
O412 O 0.52842 0.92762 0.90858 0.0
N413 N 0.6544 0.94189 0.91555 0.0
C414 C 0.66843 0.95568 0.9013 0.0
C415 C 0.69312 0.94191 0.89302 0.0
C416 C 0.70317 0.91416 0.89948 0.0
C417 C 0.68844 0.90043 0.91418 0.0
C418 C 0.66411 0.91534 0.92201 0.0
H419 H 0.66075 0.97692 0.89619 0.0
O420 O 0.57549 0.9369 0.88371 0.0
O421 O 0.59287 0.93789 0.91198 0.0
O422 O 0.58252 0.99633 0.89739 0.0
O423 O 0.62091 0.99459 0.91718 0.0
C424 C 0.69649 0.87221 0.92108 0.0
C425 C 0.67982 0.85914 0.93538 0.0
H426 H 0.64122 0.84015 0.96204 0.0
H427 H 0.59701 0.86855 0.97279 0.0
H428 H 0.7043 0.9526 0.88163 0.0
H429 H 0.72204 0.90348 0.89293 0.0
H430 H 0.71518 0.86014 0.91529 0.0
H431 H 0.68593 0.83721 0.94036 0.0
Mn432 Mn 0.79222 0.192 0.84232 0.0
Mn433 Mn 0.79677 0.12825 0.8179 0.0
C434 C 0.82146 0.15347 0.85284 0.0
C435 C 0.80873 0.24044 0.8476 0.0
C436 C 0.7437 0.14422 0.84182 0.0
O437 O 0.77616 0.20375 0.81736 0.0
O438 O 0.78361 0.16125 0.80145 0.0
C439 C 0.84676 0.14407 0.79322 0.0
N440 N 0.83481 0.12573 0.80617 0.0
C441 C 0.87865 0.09475 0.80619 0.0
C442 C 0.89133 0.11317 0.79274 0.0
C443 C 0.87532 0.13796 0.78625 0.0
C444 C 0.84999 0.10177 0.81248 0.0
H445 H 0.83462 0.16327 0.78829 0.0
C446 C 0.77595 0.18876 0.80252 0.0
O447 O 0.78223 0.23199 0.85262 0.0
O448 O 0.82536 0.22086 0.83944 0.0
N449 N 0.80969 0.09477 0.83214 0.0
C450 C 0.7951 0.08033 0.84592 0.0
C451 C 0.80857 0.05563 0.85437 0.0
C452 C 0.83681 0.04596 0.84854 0.0
C453 C 0.85129 0.06101 0.83423 0.0
C454 C 0.83664 0.08531 0.82619 0.0
H455 H 0.77345 0.08773 0.85054 0.0
O456 O 0.81238 0.17414 0.86397 0.0
O457 O 0.81362 0.15634 0.83575 0.0
O458 O 0.75421 0.1685 0.84826 0.0
O459 O 0.75721 0.12835 0.82986 0.0
C460 C 0.87996 0.05326 0.8279 0.0
C461 C 0.89362 0.07011 0.81389 0.0
H462 H 0.91345 0.10868 0.78744 0.0
H463 H 0.88502 0.15239 0.77596 0.0
H464 H 0.79727 0.04416 0.86543 0.0
H465 H 0.84727 0.02709 0.85523 0.0
H466 H 0.89186 0.03463 0.8339 0.0
H467 H 0.91583 0.06417 0.80931 0.0
Mn468 Mn 0.5576 0.04037 0.59343 0.0
Mn469 Mn 0.62046 0.04306 0.56823 0.0
C470 C 0.59583 0.07143 0.60229 0.0
C471 C 0.50916 0.05719 0.59817 0.0
C472 C 0.60523 0.99223 0.59425 0.0
O473 O 0.5459 0.02063 0.56947 0.0
O474 O 0.58684 0.02954 0.55236 0.0
C475 C 0.60499 0.0916 0.5424 0.0
N476 N 0.6234 0.08022 0.5555 0.0
C477 C 0.65508 0.12352 0.55418 0.0
C478 C 0.63663 0.13554 0.54053 0.0
C479 C 0.61146 0.11952 0.53464 0.0
C480 C 0.64774 0.0954 0.56124 0.0
H481 H 0.58544 0.07953 0.53797 0.0
C482 C 0.55982 0.02057 0.55422 0.0
O483 O 0.51782 0.03145 0.60442 0.0
O484 O 0.52846 0.07271 0.589 0.0
N485 N 0.65427 0.05651 0.582 0.0
C486 C 0.66842 0.0429 0.59627 0.0
C487 C 0.69328 0.0567 0.60434 0.0
C488 C 0.70337 0.08429 0.59766 0.0
C489 C 0.68856 0.0978 0.58291 0.0
C490 C 0.66409 0.08284 0.57528 0.0
H491 H 0.6607 0.0218 0.60157 0.0
O492 O 0.57542 0.06358 0.61394 0.0
O493 O 0.59279 0.06136 0.58567 0.0
O494 O 0.58167 0.00372 0.60103 0.0
O495 O 0.62009 0.0042 0.58122 0.0
C496 C 0.69666 0.12587 0.57579 0.0
C497 C 0.67994 0.13871 0.56143 0.0
H498 H 0.64136 0.15722 0.53465 0.0
H499 H 0.59698 0.12877 0.52422 0.0
H500 H 0.70454 0.04618 0.61576 0.0
H501 H 0.72235 0.09503 0.60406 0.0
H502 H 0.71542 0.138 0.58145 0.0
H503 H 0.68611 0.16051 0.55627 0.0
Mn504 Mn 0.70795 0.80478 0.34339 0.0
Mn505 Mn 0.70357 0.86751 0.31814 0.0
C506 C 0.67739 0.84302 0.35295 0.0
C507 C 0.69165 0.7562 0.34846 0.0
C508 C 0.75609 0.85243 0.34289 0.0
O509 O 0.72621 0.79307 0.31897 0.0
O510 O 0.71602 0.83384 0.302 0.0
C511 C 0.65336 0.85204 0.29355 0.0
N512 N 0.66561 0.87047 0.30635 0.0
C513 C 0.62241 0.90234 0.30595 0.0
C514 C 0.60946 0.88385 0.29264 0.0
C515 C 0.62499 0.85858 0.28644 0.0
C516 C 0.65091 0.89492 0.31236 0.0
H517 H 0.66509 0.83244 0.28887 0.0
C518 C 0.72522 0.80689 0.30369 0.0
O519 O 0.71769 0.765 0.35415 0.0
O520 O 0.67546 0.77549 0.33974 0.0
N521 N 0.6911 0.90142 0.33217 0.0
C522 C 0.70567 0.91563 0.34605 0.0
C523 C 0.69251 0.94062 0.35437 0.0
C524 C 0.66457 0.9508 0.34831 0.0
C525 C 0.65007 0.93593 0.33394 0.0
C526 C 0.66442 0.91132 0.32604 0.0
H527 H 0.72707 0.90786 0.35086 0.0
O528 O 0.68596 0.82262 0.36442 0.0
O529 O 0.68643 0.83993 0.33611 0.0
O530 O 0.74503 0.82898 0.35007 0.0
O531 O 0.74325 0.86716 0.33011 0.0
C532 C 0.62162 0.94411 0.32746 0.0
C533 C 0.60781 0.92734 0.31347 0.0
H534 H 0.58745 0.88864 0.28726 0.0
H535 H 0.61505 0.84408 0.27627 0.0
H536 H 0.70381 0.95192 0.36549 0.0
H537 H 0.65434 0.96988 0.3549 0.0
H538 H 0.60995 0.96297 0.33335 0.0
H539 H 0.58573 0.93358 0.30881 0.0
Mn540 Mn 0.94246 0.95889 0.09564 0.0
Mn541 Mn 0.87973 0.9561 0.07037 0.0
C542 C 0.90423 0.92777 0.10451 0.0
C543 C 0.99089 0.942 0.10036 0.0
C544 C 0.89495 0.00709 0.09628 0.0
O545 O 0.95423 0.9786 0.07167 0.0
O546 O 0.91341 0.96949 0.05451 0.0
C547 C 0.89508 0.90745 0.0446 0.0
N548 N 0.87668 0.91893 0.05767 0.0
C549 C 0.8446 0.87595 0.05617 0.0
C550 C 0.86304 0.86383 0.04255 0.0
C551 C 0.88842 0.87963 0.03677 0.0
C552 C 0.85216 0.90395 0.06331 0.0
H553 H 0.91477 0.91938 0.04023 0.0
C554 C 0.94039 0.97855 0.0564 0.0
O555 O 0.98228 0.96775 0.10663 0.0
O556 O 0.97154 0.92652 0.09122 0.0
N557 N 0.84588 0.94278 0.08415 0.0
C558 C 0.83186 0.95637 0.09847 0.0
C559 C 0.80687 0.94271 0.10649 0.0
C560 C 0.79651 0.9153 0.09969 0.0
C561 C 0.81122 0.90178 0.08491 0.0
C562 C 0.83586 0.91656 0.07735 0.0
H563 H 0.83976 0.97736 0.10383 0.0
O564 O 0.92459 0.93571 0.11617 0.0
O565 O 0.90731 0.93783 0.08789 0.0
O566 O 0.9184 0.9956 0.1032 0.0
O567 O 0.88015 0.99502 0.08326 0.0
C568 C 0.80285 0.87388 0.07767 0.0
C569 C 0.81951 0.86098 0.0633 0.0
H570 H 0.85815 0.84223 0.03661 0.0
H571 H 0.90289 0.8703 0.02637 0.0
H572 H 0.79569 0.95324 0.11794 0.0
H573 H 0.7774 0.9047 0.10603 0.0
H574 H 0.78392 0.86191 0.08325 0.0
H575 H 0.81315 0.83929 0.05806 0.0
Mn576 Mn 0.71765 0.68282 0.85032 0.0
Mn577 Mn 0.65193 0.68546 0.82782 0.0
C578 C 0.67722 0.65732 0.86203 0.0
C579 C 0.76433 0.66134 0.85437 0.0
C580 C 0.67661 0.73646 0.8507 0.0
O581 O 0.72841 0.70006 0.82525 0.0
O582 O 0.68489 0.69306 0.8103 0.0
C583 C 0.65861 0.6323 0.80414 0.0
N584 N 0.64294 0.64771 0.81703 0.0
C585 C 0.60466 0.6101 0.81783 0.0
C586 C 0.62029 0.5939 0.80448 0.0
C587 C 0.64742 0.60501 0.79765 0.0
C588 C 0.61692 0.63715 0.82377 0.0
H589 H 0.67948 0.64079 0.7989 0.0
C590 C 0.71245 0.70057 0.81073 0.0
O591 O 0.75894 0.68842 0.85973 0.0
O592 O 0.74306 0.64723 0.84598 0.0
N593 N 0.61778 0.67856 0.843 0.0
C594 C 0.60597 0.69645 0.85625 0.0
C595 C 0.57896 0.68835 0.86466 0.0
C596 C 0.56421 0.66216 0.85921 0.0
C597 C 0.57654 0.64436 0.84535 0.0
C598 C 0.60339 0.65369 0.83737 0.0
H599 H 0.61706 0.71671 0.86041 0.0
O600 O 0.69999 0.66325 0.87235 0.0
O601 O 0.67918 0.66558 0.84496 0.0
O602 O 0.6987 0.72248 0.85755 0.0
O603 O 0.65894 0.72528 0.83878 0.0
C604 C 0.56352 0.61747 0.83935 0.0
C605 C 0.57764 0.60028 0.82566 0.0
H606 H 0.61177 0.57281 0.79946 0.0
H607 H 0.65967 0.59256 0.78741 0.0
H608 H 0.56957 0.70223 0.87533 0.0
H609 H 0.54354 0.65583 0.86586 0.0
H610 H 0.54288 0.60958 0.84536 0.0
H611 H 0.56762 0.57945 0.82134 0.0
Mn612 Mn 0.56511 0.46803 0.09986 0.0
Mn613 Mn 0.56224 0.40241 0.07731 0.0
C614 C 0.59129 0.42778 0.11122 0.0
C615 C 0.58616 0.51495 0.10357 0.0
C616 C 0.51172 0.42675 0.10072 0.0
O617 O 0.54708 0.47868 0.07501 0.0
O618 O 0.55414 0.43537 0.05987 0.0
C619 C 0.61482 0.40923 0.05315 0.0
N620 N 0.59976 0.39353 0.06617 0.0
C621 C 0.63734 0.35522 0.06652 0.0
C622 C 0.65319 0.37089 0.05302 0.0
C623 C 0.64192 0.39806 0.04636 0.0
C624 C 0.61049 0.36748 0.07278 0.0
H625 H 0.60619 0.43012 0.04801 0.0
C626 C 0.54642 0.46286 0.06044 0.0
O627 O 0.55935 0.50925 0.1093 0.0
O628 O 0.6003 0.49378 0.0951 0.0
N629 N 0.5696 0.36828 0.09243 0.0
C630 C 0.5521 0.35645 0.10587 0.0
C631 C 0.56046 0.32946 0.11419 0.0
C632 C 0.58646 0.3147 0.10844 0.0
C633 C 0.60384 0.32703 0.09437 0.0
C634 C 0.59433 0.35392 0.08653 0.0
H635 H 0.53195 0.36753 0.11025 0.0
O636 O 0.58552 0.45048 0.12164 0.0
O637 O 0.58245 0.42973 0.09427 0.0
O638 O 0.52582 0.44877 0.10755 0.0
O639 O 0.52264 0.40927 0.08861 0.0
C640 C 0.63052 0.31398 0.08804 0.0
C641 C 0.64732 0.32812 0.07417 0.0
H642 H 0.67412 0.36237 0.04776 0.0
H643 H 0.65409 0.41034 0.036 0.0
H644 H 0.54689 0.32006 0.12501 0.0
H645 H 0.59298 0.29402 0.115 0.0
H646 H 0.63855 0.2933 0.09393 0.0
H647 H 0.668 0.31809 0.0696 0.0
Mn648 Mn 0.78078 0.31398 0.35007 0.0
Mn649 Mn 0.84608 0.31096 0.32714 0.0
C650 C 0.82148 0.33942 0.36147 0.0
C651 C 0.73412 0.33543 0.35421 0.0
C652 C 0.82174 0.26029 0.35042 0.0
O653 O 0.76954 0.2965 0.32517 0.0
O654 O 0.81277 0.30316 0.30989 0.0
C655 C 0.83891 0.36387 0.3033 0.0
N656 N 0.85484 0.3486 0.31613 0.0
C657 C 0.89301 0.38633 0.31658 0.0
C658 C 0.87712 0.40239 0.30328 0.0
C659 C 0.84991 0.39114 0.29666 0.0
C660 C 0.88094 0.35929 0.32268 0.0
H661 H 0.81797 0.35529 0.29822 0.0
C662 C 0.7852 0.29573 0.31054 0.0
O663 O 0.73963 0.30844 0.3597 0.0
O664 O 0.75531 0.34952 0.34572 0.0
N665 N 0.88055 0.318 0.34201 0.0
C666 C 0.89272 0.30017 0.35517 0.0
C667 C 0.91988 0.30837 0.36335 0.0
C668 C 0.93443 0.33459 0.35776 0.0
C669 C 0.92175 0.35231 0.34397 0.0
C670 C 0.89476 0.34288 0.33622 0.0
H671 H 0.88177 0.27988 0.35944 0.0
O672 O 0.79881 0.33372 0.37192 0.0
O673 O 0.81922 0.33106 0.34443 0.0
O674 O 0.79978 0.27438 0.35734 0.0
O675 O 0.83925 0.27128 0.33833 0.0
C676 C 0.93456 0.37922 0.33783 0.0
C677 C 0.92014 0.39628 0.3242 0.0
H678 H 0.88549 0.42346 0.29814 0.0
H679 H 0.83745 0.40348 0.28646 0.0
H680 H 0.92955 0.29453 0.37395 0.0
H681 H 0.95521 0.341 0.36423 0.0
H682 H 0.9553 0.3872 0.34368 0.0
H683 H 0.93002 0.41711 0.31976 0.0
Mn684 Mn 0.93262 0.53318 0.59936 0.0
Mn685 Mn 0.93678 0.60093 0.57903 0.0
C686 C 0.90752 0.57309 0.61197 0.0
C687 C 0.91072 0.48652 0.60262 0.0
C688 C 0.9864 0.5747 0.6021 0.0
O689 O 0.94932 0.52355 0.57402 0.0
O690 O 0.94787 0.56941 0.56126 0.0
C691 C 0.88662 0.59375 0.55305 0.0
N692 N 0.90003 0.60925 0.56682 0.0
C693 C 0.86101 0.6461 0.56681 0.0
C694 C 0.84685 0.63063 0.55254 0.0
C695 C 0.85967 0.6043 0.54567 0.0
C696 C 0.88778 0.63447 0.57363 0.0
H697 H 0.89645 0.57349 0.54777 0.0
C698 C 0.95334 0.5414 0.56059 0.0
O699 O 0.93794 0.49141 0.60789 0.0
O700 O 0.89667 0.50832 0.59471 0.0
N701 N 0.92711 0.63409 0.59444 0.0
C702 C 0.94338 0.64605 0.60841 0.0
C703 C 0.93361 0.67247 0.61683 0.0
C704 C 0.90747 0.68654 0.61066 0.0
C705 C 0.89142 0.67412 0.59603 0.0
C706 C 0.90238 0.6479 0.58807 0.0
H707 H 0.96361 0.63546 0.61311 0.0
O708 O 0.91346 0.54973 0.62179 0.0
O709 O 0.91581 0.57224 0.59487 0.0
O710 O 0.97276 0.55104 0.60698 0.0
O711 O 0.9753 0.59443 0.59148 0.0
C712 C 0.86472 0.68648 0.58922 0.0
C713 C 0.84946 0.6724 0.57468 0.0
H714 H 0.82605 0.63868 0.54682 0.0
H715 H 0.84881 0.59217 0.53472 0.0
H716 H 0.94617 0.68196 0.62808 0.0
H717 H 0.89984 0.70674 0.61731 0.0
H718 H 0.85556 0.7066 0.5952 0.0
H719 H 0.82878 0.68192 0.56969 0.0
Mn720 Mn 0.71908 0.31561 0.64959 0.0
Mn721 Mn 0.65176 0.31055 0.67043 0.0
C722 C 0.67889 0.34128 0.63777 0.0
C723 C 0.76561 0.33772 0.64621 0.0
C724 C 0.67718 0.26214 0.64614 0.0
O725 O 0.72939 0.29771 0.67452 0.0
O726 O 0.6837 0.29799 0.68753 0.0
C727 C 0.66033 0.35894 0.69749 0.0
N728 N 0.64423 0.34657 0.68361 0.0
C729 C 0.60782 0.38593 0.685 0.0
C730 C 0.6239 0.39903 0.6994 0.0
C731 C 0.65032 0.38552 0.70563 0.0
C732 C 0.61893 0.3595 0.67741 0.0
H733 H 0.68064 0.34859 0.70228 0.0
C734 C 0.71174 0.29265 0.6879 0.0
O735 O 0.76063 0.31074 0.64054 0.0
O736 O 0.74403 0.35135 0.65461 0.0
N737 N 0.61818 0.32148 0.65571 0.0
C738 C 0.6055 0.30613 0.64159 0.0
C739 C 0.57886 0.31663 0.63377 0.0
C740 C 0.56532 0.34253 0.64071 0.0
C741 C 0.57846 0.3576 0.65549 0.0
C742 C 0.60486 0.34593 0.66283 0.0
H743 H 0.61569 0.28607 0.63631 0.0
O744 O 0.702 0.33575 0.62766 0.0
O745 O 0.68012 0.33225 0.65474 0.0
O746 O 0.70096 0.2758 0.64148 0.0
O747 O 0.65757 0.27286 0.65699 0.0
C748 C 0.56663 0.38399 0.66307 0.0
C749 C 0.58138 0.39822 0.67776 0.0
H750 H 0.61627 0.41953 0.7057 0.0
H751 H 0.66291 0.39556 0.71668 0.0
H752 H 0.56882 0.30481 0.6224 0.0
H753 H 0.54494 0.35074 0.63452 0.0
H754 H 0.54639 0.39369 0.65758 0.0
H755 H 0.57224 0.41865 0.68334 0.0
Mn756 Mn 0.93295 0.46723 0.90082 0.0
Mn757 Mn 0.93826 0.39982 0.92152 0.0
C758 C 0.90756 0.42696 0.88885 0.0
C759 C 0.91079 0.51378 0.89762 0.0
C760 C 0.98675 0.4258 0.89748 0.0
O761 O 0.95063 0.47738 0.92584 0.0
O762 O 0.95007 0.43171 0.93885 0.0
C763 C 0.88924 0.40747 0.94826 0.0
N764 N 0.90209 0.39169 0.93441 0.0
C765 C 0.86331 0.35461 0.93547 0.0
C766 C 0.84973 0.37037 0.94984 0.0
C767 C 0.8627 0.39696 0.95621 0.0
C768 C 0.88965 0.36624 0.92805 0.0
H769 H 0.89919 0.4279 0.95317 0.0
C770 C 0.95537 0.45975 0.93927 0.0
O771 O 0.93779 0.50887 0.89197 0.0
O772 O 0.89711 0.49206 0.90586 0.0
N773 N 0.92801 0.36629 0.90657 0.0
C774 C 0.94375 0.35401 0.89248 0.0
C775 C 0.93377 0.3273 0.8845 0.0
C776 C 0.90803 0.31324 0.89127 0.0
C777 C 0.89256 0.32596 0.90604 0.0
C778 C 0.90367 0.35252 0.9135 0.0
H779 H 0.96372 0.36456 0.88733 0.0
O780 O 0.91297 0.45019 0.87881 0.0
O781 O 0.91651 0.42814 0.90582 0.0
O782 O 0.97286 0.44937 0.89271 0.0
O783 O 0.97616 0.40618 0.90837 0.0
C784 C 0.86631 0.31359 0.91347 0.0
C785 C 0.85161 0.32799 0.92812 0.0
H786 H 0.82926 0.36234 0.95601 0.0
H787 H 0.85228 0.4093 0.96724 0.0
H788 H 0.94589 0.31756 0.87315 0.0
H789 H 0.90026 0.29277 0.88498 0.0
H790 H 0.85705 0.29321 0.90788 0.0
H791 H 0.83127 0.31845 0.93358 0.0
Mn792 Mn 0.78009 0.68348 0.14909 0.0
Mn793 Mn 0.84572 0.68609 0.17165 0.0
C794 C 0.8205 0.65795 0.1374 0.0
C795 C 0.73328 0.66222 0.14526 0.0
C796 C 0.82117 0.73705 0.1487 0.0
O797 O 0.76935 0.70082 0.1741 0.0
O798 O 0.81272 0.6937 0.18915 0.0
C799 C 0.83892 0.63289 0.19529 0.0
N800 N 0.85465 0.64831 0.18244 0.0
C801 C 0.89286 0.61064 0.18164 0.0
C802 C 0.87717 0.59443 0.19496 0.0
C803 C 0.85004 0.60556 0.20177 0.0
C804 C 0.88066 0.63772 0.1757 0.0
H805 H 0.81805 0.6414 0.20053 0.0
C806 C 0.78519 0.70129 0.18866 0.0
O807 O 0.73878 0.6892 0.13975 0.0
O808 O 0.75458 0.64801 0.15354 0.0
N809 N 0.87993 0.6792 0.15652 0.0
C810 C 0.89186 0.69715 0.14334 0.0
C811 C 0.91891 0.68907 0.13498 0.0
C812 C 0.93359 0.66283 0.14041 0.0
C813 C 0.92114 0.64497 0.15421 0.0
C814 C 0.89426 0.65428 0.16214 0.0
H815 H 0.88083 0.71746 0.1392 0.0
O816 O 0.79769 0.66379 0.12708 0.0
O817 O 0.81853 0.66624 0.15446 0.0
O818 O 0.79913 0.72306 0.1418 0.0
O819 O 0.83875 0.7259 0.16069 0.0
C820 C 0.93409 0.61803 0.16019 0.0
C821 C 0.91989 0.60082 0.17383 0.0
H822 H 0.88564 0.57332 0.19997 0.0
H823 H 0.83774 0.59311 0.21199 0.0
H824 H 0.9284 0.70301 0.12437 0.0
H825 H 0.95429 0.65652 0.1338 0.0
H826 H 0.95476 0.61015 0.1542 0.0
H827 H 0.92986 0.57995 0.17814 0.0
Mn828 Mn 0.56543 0.52919 0.39993 0.0
Mn829 Mn 0.56178 0.59529 0.4219 0.0
C830 C 0.59153 0.5694 0.38841 0.0
C831 C 0.58683 0.48235 0.39654 0.0
C832 C 0.5118 0.57011 0.3984 0.0
O833 O 0.5472 0.51889 0.4248 0.0
O834 O 0.55358 0.56267 0.43955 0.0
C835 C 0.61395 0.58934 0.44647 0.0
N836 N 0.59904 0.60466 0.43322 0.0
C837 C 0.6364 0.6432 0.43281 0.0
C838 C 0.65209 0.62793 0.44654 0.0
C839 C 0.64086 0.60084 0.45336 0.0
C840 C 0.60974 0.63062 0.42647 0.0
H841 H 0.60536 0.56852 0.45173 0.0
C842 C 0.54618 0.53508 0.43921 0.0
O843 O 0.56001 0.48779 0.39073 0.0
O844 O 0.60075 0.50371 0.40497 0.0
N845 N 0.56922 0.62912 0.40655 0.0
C846 C 0.55192 0.64052 0.39287 0.0
C847 C 0.56029 0.66736 0.38436 0.0
C848 C 0.5861 0.68241 0.39017 0.0
C849 C 0.60327 0.67053 0.40447 0.0
C850 C 0.59375 0.64377 0.41249 0.0
H851 H 0.53193 0.62921 0.38844 0.0
O852 O 0.586 0.54648 0.37812 0.0
O853 O 0.58247 0.56772 0.40532 0.0
O854 O 0.52614 0.54798 0.3919 0.0
O855 O 0.52241 0.58797 0.4104 0.0
C856 C 0.62975 0.68389 0.41088 0.0
C857 C 0.64636 0.67017 0.42498 0.0
H858 H 0.67287 0.6367 0.45187 0.0
H859 H 0.65291 0.58887 0.4639 0.0
H860 H 0.54688 0.67642 0.37335 0.0
H861 H 0.59262 0.70297 0.38346 0.0
H862 H 0.63777 0.70447 0.40486 0.0
H863 H 0.6669 0.68043 0.42961 0.0
Mn864 Mn 0.28979 0.30688 0.15488 0.0
Mn865 Mn 0.2929 0.36967 0.18007 0.0
C866 C 0.3208 0.34509 0.14583 0.0
C867 C 0.30667 0.25845 0.15012 0.0
C868 C 0.2415 0.35436 0.15448 0.0
O869 O 0.27045 0.29516 0.17897 0.0
O870 O 0.2797 0.33604 0.19605 0.0
C871 C 0.34187 0.3544 0.20564 0.0
N872 N 0.33024 0.37274 0.19258 0.0
C873 C 0.37329 0.40476 0.19379 0.0
C874 C 0.38558 0.38638 0.20739 0.0
C875 C 0.36982 0.36106 0.21331 0.0
C876 C 0.34518 0.39721 0.18681 0.0
H877 H 0.32997 0.33476 0.21011 0.0
C878 C 0.27065 0.30905 0.19423 0.0
O879 O 0.28082 0.26702 0.14398 0.0
O880 O 0.32225 0.27784 0.15915 0.0
N881 N 0.30606 0.40345 0.16618 0.0
C882 C 0.2923 0.4174 0.1519 0.0
C883 C 0.30588 0.44232 0.14375 0.0
C884 C 0.33341 0.45267 0.15038 0.0
C885 C 0.34711 0.43801 0.16512 0.0
C886 C 0.33239 0.41345 0.17281 0.0
H887 H 0.27122 0.4095 0.14666 0.0
O888 O 0.31265 0.32473 0.13422 0.0
O889 O 0.31094 0.34205 0.1625 0.0
O890 O 0.25292 0.33088 0.14753 0.0
O891 O 0.2538 0.36922 0.16739 0.0
C892 C 0.37514 0.44638 0.17219 0.0
C893 C 0.38821 0.42977 0.18653 0.0
H894 H 0.40727 0.39126 0.2132 0.0
H895 H 0.37926 0.34664 0.22369 0.0
H896 H 0.29522 0.45344 0.13233 0.0
H897 H 0.34396 0.47172 0.14393 0.0
H898 H 0.38706 0.46525 0.16651 0.0
H899 H 0.40999 0.43613 0.19164 0.0
Mn900 Mn 0.44137 0.54133 0.9064 0.0
Mn901 Mn 0.37893 0.54595 0.93192 0.0
C902 C 0.40336 0.57249 0.89721 0.0
C903 C 0.49008 0.55698 0.90109 0.0
C904 C 0.39316 0.49374 0.90676 0.0
O905 O 0.45321 0.52263 0.93067 0.0
O906 O 0.41262 0.53276 0.94781 0.0
C907 C 0.39531 0.59542 0.95686 0.0
N908 N 0.37656 0.58365 0.94407 0.0
C909 C 0.34496 0.62701 0.94517 0.0
C910 C 0.36378 0.63946 0.95848 0.0
C911 C 0.38909 0.62361 0.96432 0.0
C912 C 0.3521 0.59868 0.93838 0.0
H913 H 0.41492 0.58343 0.96128 0.0
C914 C 0.4395 0.52342 0.94599 0.0
O915 O 0.48079 0.53114 0.89536 0.0
O916 O 0.47119 0.57338 0.91001 0.0
N917 N 0.34502 0.55914 0.91816 0.0
C918 C 0.33053 0.54511 0.90417 0.0
C919 C 0.3055 0.55869 0.89616 0.0
C920 C 0.29556 0.58647 0.90263 0.0
C921 C 0.31073 0.60041 0.91709 0.0
C922 C 0.33539 0.5857 0.92465 0.0
H923 H 0.3381 0.52383 0.89907 0.0
O924 O 0.42349 0.56381 0.88558 0.0
O925 O 0.40655 0.56318 0.91398 0.0
O926 O 0.41672 0.50464 0.89963 0.0
O927 O 0.37862 0.50652 0.91963 0.0
C928 C 0.30277 0.62867 0.92399 0.0
C929 C 0.31987 0.64195 0.93802 0.0
H930 H 0.35922 0.66132 0.96415 0.0
H931 H 0.40384 0.63317 0.97449 0.0
H932 H 0.29397 0.54782 0.88497 0.0
H933 H 0.27642 0.597 0.89629 0.0
H934 H 0.28384 0.6406 0.91839 0.0
H935 H 0.31382 0.6639 0.943 0.0
Mn936 Mn 0.20872 0.69106 0.65617 0.0
Mn937 Mn 0.20631 0.6286 0.68171 0.0
C938 C 0.1778 0.65256 0.64751 0.0
C939 C 0.19164 0.73933 0.65114 0.0
C940 C 0.25716 0.64377 0.65569 0.0
O941 O 0.22832 0.70324 0.68008 0.0
O942 O 0.2196 0.66252 0.69741 0.0
C943 C 0.15767 0.64403 0.70748 0.0
N944 N 0.16919 0.62554 0.69446 0.0
C945 C 0.12628 0.59338 0.69609 0.0
C946 C 0.11412 0.61191 0.70966 0.0
C947 C 0.12987 0.63737 0.71535 0.0
C948 C 0.15425 0.60094 0.68891 0.0
H949 H 0.16955 0.66379 0.71177 0.0
C950 C 0.22842 0.68955 0.69541 0.0
O951 O 0.21745 0.73072 0.64496 0.0
O952 O 0.17621 0.72008 0.6604 0.0
N953 N 0.19308 0.59456 0.66809 0.0
C954 C 0.20668 0.58044 0.65381 0.0
C955 C 0.19308 0.55534 0.64588 0.0
C956 C 0.16569 0.54499 0.65273 0.0
C957 C 0.15215 0.55981 0.66746 0.0
C958 C 0.16689 0.58454 0.67493 0.0
H959 H 0.22765 0.58834 0.64841 0.0
O960 O 0.18567 0.67279 0.63575 0.0
O961 O 0.18784 0.6559 0.66411 0.0
O962 O 0.24555 0.66713 0.64874 0.0
O963 O 0.24519 0.62902 0.66877 0.0
C964 C 0.12427 0.55145 0.67474 0.0
C965 C 0.11135 0.5682 0.68905 0.0
H966 H 0.09254 0.60702 0.71563 0.0
H967 H 0.12052 0.65191 0.7257 0.0
H968 H 0.20362 0.54409 0.63447 0.0
H969 H 0.15512 0.5258 0.64645 0.0
H970 H 0.11234 0.53244 0.66923 0.0
H971 H 0.08967 0.56184 0.69433 0.0
Mn972 Mn 0.05648 0.45713 0.40731 0.0
Mn973 Mn 0.11958 0.454 0.43248 0.0
C974 C 0.09527 0.42716 0.39792 0.0
C975 C 0.00824 0.44037 0.40155 0.0
C976 C 0.10438 0.50562 0.40726 0.0
O977 O 0.0439 0.47449 0.4318 0.0
O978 O 0.08621 0.46853 0.44816 0.0
C979 C 0.10281 0.40597 0.45836 0.0
N980 N 0.12161 0.4169 0.44532 0.0
C981 C 0.15274 0.37326 0.44715 0.0
C982 C 0.13383 0.36164 0.4607 0.0
C983 C 0.10874 0.37806 0.46631 0.0
C984 C 0.14588 0.40133 0.43986 0.0
H985 H 0.0834 0.41843 0.46263 0.0
C986 C 0.05869 0.47597 0.4467 0.0
O987 O 0.01693 0.46663 0.39623 0.0
O988 O 0.02743 0.42417 0.41038 0.0
N989 N 0.15339 0.43989 0.419 0.0
C990 C 0.16811 0.45323 0.40486 0.0
C991 C 0.19306 0.43911 0.39712 0.0
C992 C 0.2027 0.4115 0.40404 0.0
C993 C 0.18732 0.3983 0.41868 0.0
C994 C 0.16275 0.41354 0.42595 0.0
H995 H 0.16073 0.47438 0.39942 0.0
O996 O 0.07509 0.43581 0.38632 0.0
O997 O 0.09189 0.43601 0.41479 0.0
O998 O 0.08015 0.49487 0.40089 0.0
O999 O 0.12007 0.49264 0.4195 0.0
C1000 C 0.19497 0.37027 0.42605 0.0
C1001 C 0.1777 0.35777 0.44028 0.0
H1002 H 0.13818 0.34001 0.46675 0.0
H1003 H 0.09394 0.36916 0.47667 0.0
H1004 H 0.20477 0.4494 0.38579 0.0
H1005 H 0.22178 0.40053 0.39791 0.0
H1006 H 0.21382 0.35794 0.42068 0.0
H1007 H 0.18354 0.336 0.44564 0.0
Mn1008 Mn 0.28994 0.69008 0.34483 0.0
Mn1009 Mn 0.29384 0.62735 0.31965 0.0
C1010 C 0.32068 0.65192 0.35422 0.0
C1011 C 0.3067 0.73854 0.34964 0.0
C1012 C 0.24167 0.6426 0.34467 0.0
O1013 O 0.27123 0.70173 0.32057 0.0
O1014 O 0.28116 0.66099 0.30351 0.0
C1015 C 0.34364 0.64263 0.29469 0.0
N1016 N 0.33161 0.62432 0.30763 0.0
C1017 C 0.37492 0.5926 0.30718 0.0
C1018 C 0.38763 0.61095 0.29371 0.0
C1019 C 0.37192 0.63609 0.28746 0.0
C1020 C 0.34647 0.59998 0.31369 0.0
H1021 H 0.33179 0.66215 0.28998 0.0
C1022 C 0.27194 0.68794 0.30528 0.0
O1023 O 0.28071 0.73002 0.35558 0.0
O1024 O 0.3225 0.71908 0.34082 0.0
N1025 N 0.30655 0.59358 0.33371 0.0
C1026 C 0.29227 0.57957 0.34779 0.0
C1027 C 0.30566 0.55478 0.35619 0.0
C1028 C 0.33356 0.54463 0.35004 0.0
C1029 C 0.34779 0.55932 0.3355 0.0
C1030 C 0.33321 0.58372 0.32752 0.0
H1031 H 0.27092 0.58734 0.35267 0.0
O1032 O 0.31226 0.67231 0.36574 0.0
O1033 O 0.31128 0.65495 0.33746 0.0
O1034 O 0.25289 0.66603 0.35181 0.0
O1035 O 0.25433 0.62782 0.33185 0.0
C1036 C 0.3762 0.55118 0.32893 0.0
C1037 C 0.38974 0.56778 0.31477 0.0
H1038 H 0.40959 0.60618 0.28824 0.0
H1039 H 0.38168 0.6505 0.27717 0.0
H1040 H 0.29459 0.54363 0.36745 0.0
H1041 H 0.34397 0.52571 0.3567 0.0
H1042 H 0.38804 0.53246 0.33488 0.0
H1043 H 0.41179 0.56158 0.31004 0.0
Mn1044 Mn 0.05638 0.54146 0.09321 0.0
Mn1045 Mn 0.12036 0.5454 0.06894 0.0
C1046 C 0.09464 0.57143 0.10336 0.0
C1047 C 0.00783 0.55779 0.09834 0.0
C1048 C 0.10438 0.49314 0.0935 0.0
O1049 O 0.04486 0.52452 0.06842 0.0
O1050 O 0.0876 0.53135 0.05262 0.0
C1051 C 0.10459 0.5942 0.04338 0.0
N1052 N 0.12288 0.5829 0.05657 0.0
C1053 C 0.15383 0.62675 0.05586 0.0
C1054 C 0.13547 0.63876 0.04216 0.0
C1055 C 0.11073 0.62242 0.03591 0.0
C1056 C 0.14682 0.59837 0.06263 0.0
H1057 H 0.08543 0.58182 0.03863 0.0
C1058 C 0.06009 0.52368 0.05367 0.0
O1059 O 0.01648 0.5315 0.10362 0.0
O1060 O 0.02726 0.57431 0.08994 0.0
N1061 N 0.15363 0.55912 0.08309 0.0
C1062 C 0.16782 0.54532 0.09727 0.0
C1063 C 0.19237 0.55928 0.1056 0.0
C1064 C 0.20213 0.5872 0.09923 0.0
C1065 C 0.1873 0.60087 0.08454 0.0
C1066 C 0.16316 0.58574 0.07665 0.0
H1067 H 0.16033 0.52396 0.10231 0.0
O1068 O 0.07405 0.56252 0.11462 0.0
O1069 O 0.09194 0.56284 0.0864 0.0
O1070 O 0.07998 0.50376 0.09969 0.0
O1071 O 0.12039 0.50635 0.0815 0.0
C1072 C 0.19506 0.62923 0.07772 0.0
C1073 C 0.17835 0.64216 0.06339 0.0
H1074 H 0.13995 0.66063 0.03649 0.0
H1075 H 0.09634 0.63162 0.02542 0.0
H1076 H 0.20365 0.54863 0.11697 0.0
H1077 H 0.22085 0.59806 0.10584 0.0
H1078 H 0.21355 0.6415 0.0836 0.0
H1079 H 0.18426 0.66417 0.05845 0.0
Mn1080 Mn 0.20885 0.30759 0.84401 0.0
Mn1081 Mn 0.20481 0.36989 0.81837 0.0
C1082 C 0.17769 0.3457 0.85293 0.0
C1083 C 0.19258 0.25912 0.84932 0.0
C1084 C 0.25661 0.35561 0.84386 0.0
O1085 O 0.22796 0.29558 0.8199 0.0
O1086 O 0.21814 0.33609 0.8026 0.0
C1087 C 0.15563 0.35355 0.79321 0.0
N1088 N 0.16724 0.37228 0.80606 0.0
C1089 C 0.12364 0.40356 0.80503 0.0
C1090 C 0.11136 0.38477 0.79164 0.0
C1091 C 0.12742 0.35964 0.78573 0.0
C1092 C 0.15203 0.3966 0.81181 0.0
H1093 H 0.16773 0.33403 0.78877 0.0
C1094 C 0.22744 0.3092 0.80455 0.0
O1095 O 0.21843 0.26812 0.85521 0.0
O1096 O 0.17664 0.27809 0.84017 0.0
N1097 N 0.19149 0.40383 0.83207 0.0
C1098 C 0.2054 0.41833 0.84609 0.0
C1099 C 0.19162 0.4432 0.85417 0.0
C1100 C 0.16375 0.45294 0.84773 0.0
C1101 C 0.14993 0.43776 0.83324 0.0
C1102 C 0.16487 0.4133 0.82559 0.0
H1103 H 0.22673 0.41088 0.85119 0.0
O1104 O 0.18611 0.32562 0.86465 0.0
O1105 O 0.18729 0.34241 0.83623 0.0
O1106 O 0.24553 0.33212 0.85099 0.0
O1107 O 0.24407 0.3701 0.83087 0.0
C1108 C 0.12157 0.44548 0.82639 0.0
C1109 C 0.10845 0.42842 0.81229 0.0
H1110 H 0.08946 0.38921 0.78598 0.0
H1111 H 0.11798 0.3449 0.77551 0.0
H1112 H 0.20239 0.45473 0.86539 0.0
H1113 H 0.15304 0.47192 0.85414 0.0
H1114 H 0.10945 0.46423 0.83208 0.0
H1115 H 0.08644 0.4343 0.80734 0.0
Mn1116 Mn 0.44395 0.45867 0.59434 0.0
Mn1117 Mn 0.38093 0.45347 0.56939 0.0
C1118 C 0.40632 0.42744 0.604 0.0
C1119 C 0.49288 0.44339 0.59926 0.0
C1120 C 0.39549 0.50601 0.59423 0.0
O1121 O 0.45509 0.47722 0.56989 0.0
O1122 O 0.4142 0.46658 0.55313 0.0
C1123 C 0.39695 0.40371 0.5446 0.0
N1124 N 0.37845 0.41557 0.55749 0.0
C1125 C 0.3472 0.37192 0.55703 0.0
C1126 C 0.36576 0.35937 0.54362 0.0
C1127 C 0.39076 0.37532 0.5374 0.0
C1128 C 0.35426 0.40046 0.56353 0.0
H1129 H 0.41635 0.41576 0.53989 0.0
C1130 C 0.44107 0.47611 0.55469 0.0
O1131 O 0.48356 0.46921 0.60499 0.0
O1132 O 0.47389 0.42679 0.59056 0.0
N1133 N 0.34737 0.44034 0.58352 0.0
C1134 C 0.33307 0.45457 0.5975 0.0
C1135 C 0.30833 0.44097 0.60584 0.0
C1136 C 0.29849 0.41295 0.5997 0.0
C1137 C 0.31344 0.39882 0.58523 0.0
C1138 C 0.33779 0.41359 0.57731 0.0
H1139 H 0.34058 0.47602 0.60237 0.0
O1140 O 0.42671 0.43628 0.6154 0.0
O1141 O 0.40905 0.4366 0.58716 0.0
O1142 O 0.41924 0.49527 0.6012 0.0
O1143 O 0.38075 0.49307 0.5815 0.0
C1144 C 0.30561 0.37032 0.57866 0.0
C1145 C 0.32246 0.35689 0.56457 0.0
H1146 H 0.36124 0.33735 0.53818 0.0
H1147 H 0.40532 0.36568 0.52716 0.0
H1148 H 0.29696 0.45198 0.61704 0.0
H1149 H 0.27961 0.40239 0.60631 0.0
H1150 H 0.28695 0.35832 0.58456 0.0
H1151 H 0.3165 0.33477 0.55985 0.0
H1152 H 0.10414 0.37499 0.41593 0.0
H1153 H 0.15985 0.28868 0.33078 0.0
H1154 H 0.12893 0.42285 0.36705 0.0
H1155 H 0.18675 0.26002 0.38474 0.0
H1156 H 0.14636 0.33744 0.34343 0.0
H1157 H 0.13241 0.3317 0.40503 0.0
C1158 C 0.11645 0.37665 0.40319 0.0
C1159 C 0.11539 0.40277 0.39269 0.0
C1160 C 0.15572 0.32065 0.35244 0.0
C1161 C 0.14588 0.35297 0.3796 0.0
C1162 C 0.16326 0.29286 0.34526 0.0
C1163 C 0.1743 0.27043 0.35679 0.0
C1164 C 0.15838 0.32565 0.37135 0.0
C1165 C 0.17839 0.27687 0.37543 0.0
C1166 C 0.1323 0.35193 0.39691 0.0
C1167 C 0.12992 0.40324 0.3757 0.0
N1168 N 0.16983 0.30378 0.38225 0.0
N1169 N 0.14437 0.37854 0.36955 0.0
H1170 H 0.96026 0.90933 0.58059 0.0
H1171 H 0.87403 0.85318 0.66574 0.0
H1172 H 0.98896 0.93603 0.63458 0.0
H1173 H 0.82604 0.8784 0.61701 0.0
H1174 H 0.91742 0.88128 0.6548 0.0
H1175 H 0.91155 0.89563 0.59327 0.0
C1176 C 0.95609 0.91264 0.59508 0.0
C1177 C 0.97852 0.9237 0.60661 0.0
C1178 C 0.89715 0.88129 0.64672 0.0
C1179 C 0.92337 0.90754 0.62119 0.0
C1180 C 0.87238 0.86553 0.65302 0.0
C1181 C 0.84619 0.86467 0.64258 0.0
C1182 C 0.89607 0.89499 0.62944 0.0
C1183 C 0.84571 0.87925 0.62561 0.0
C1184 C 0.92834 0.90498 0.60227 0.0
C1185 C 0.97211 0.92767 0.62527 0.0
N1186 N 0.87044 0.89362 0.61944 0.0
N1187 N 0.94524 0.91899 0.6321 0.0
H1188 H 0.39546 0.62473 0.91525 0.0
H1189 H 0.33938 0.7122 0.83078 0.0
H1190 H 0.36918 0.57714 0.86658 0.0
H1191 H 0.31215 0.73994 0.88486 0.0
H1192 H 0.35295 0.66326 0.84319 0.0
H1193 H 0.3674 0.66831 0.90457 0.0
C1194 C 0.38287 0.6232 0.90261 0.0
C1195 C 0.38342 0.59707 0.89211 0.0
C1196 C 0.34352 0.6799 0.85227 0.0
C1197 C 0.3532 0.64718 0.87926 0.0
C1198 C 0.33594 0.70778 0.84524 0.0
C1199 C 0.32476 0.73 0.85687 0.0
C1200 C 0.34075 0.67461 0.87114 0.0
C1201 C 0.32062 0.72327 0.87547 0.0
C1202 C 0.36714 0.64808 0.89646 0.0
C1203 C 0.36856 0.59676 0.87522 0.0
N1204 N 0.32922 0.69628 0.88215 0.0
N1205 N 0.35425 0.62161 0.86919 0.0
H1206 H 0.53716 0.0917 0.0788 0.0
H1207 H 0.67667 0.11795 0.11607 0.0
H1208 H 0.51205 0.06117 0.13271 0.0
H1209 H 0.62343 0.14484 0.16236 0.0
H1210 H 0.63366 0.0903 0.1039 0.0
H1211 H 0.58648 0.10481 0.0906 0.0
C1212 C 0.54227 0.08734 0.09307 0.0
C1213 C 0.52064 0.07536 0.10483 0.0
C1214 C 0.6316 0.10187 0.11687 0.0
C1215 C 0.57682 0.09035 0.11841 0.0
C1216 C 0.65607 0.1174 0.12383 0.0
C1217 C 0.65361 0.13288 0.14043 0.0
C1218 C 0.60445 0.1024 0.12647 0.0
C1219 C 0.62637 0.13224 0.14983 0.0
C1220 C 0.57047 0.09454 0.09975 0.0
C1221 C 0.52828 0.07019 0.12321 0.0
N1222 N 0.60276 0.11717 0.14273 0.0
N1223 N 0.55562 0.07835 0.12957 0.0
H1224 H 0.18837 0.7391 0.11482 0.0
H1225 H 0.12808 0.57468 0.13438 0.0
H1226 H 0.1609 0.71009 0.16862 0.0
H1227 H 0.10358 0.62418 0.08606 0.0
H1228 H 0.15589 0.61843 0.14551 0.0
H1229 H 0.17335 0.69026 0.10244 0.0
C1230 C 0.1798 0.72222 0.12405 0.0
C1231 C 0.17557 0.72853 0.1427 0.0
C1232 C 0.145 0.61935 0.13226 0.0
C1233 C 0.1589 0.67309 0.12879 0.0
C1234 C 0.12926 0.59453 0.12594 0.0
C1235 C 0.11459 0.59568 0.10901 0.0
C1236 C 0.14582 0.64535 0.12157 0.0
C1237 C 0.11579 0.62211 0.0988 0.0
C1238 C 0.17114 0.69457 0.117 0.0
C1239 C 0.16419 0.70608 0.15412 0.0
N1240 N 0.13131 0.64595 0.10519 0.0
N1241 N 0.15619 0.6793 0.14698 0.0
H1242 H 0.50937 0.93632 0.36381 0.0
H1243 H 0.6743 0.8777 0.38343 0.0
H1244 H 0.53848 0.90897 0.41761 0.0
H1245 H 0.62466 0.8514 0.33552 0.0
H1246 H 0.63042 0.90554 0.39434 0.0
H1247 H 0.55835 0.92172 0.35146 0.0
C1248 C 0.5263 0.92786 0.37305 0.0
C1249 C 0.51998 0.92354 0.39169 0.0
C1250 C 0.62952 0.89427 0.38122 0.0
C1251 C 0.5756 0.9074 0.37781 0.0
C1252 C 0.6544 0.87853 0.37501 0.0
C1253 C 0.65323 0.86329 0.35828 0.0
C1254 C 0.60343 0.89455 0.37059 0.0
C1255 C 0.62675 0.86405 0.3481 0.0
C1256 C 0.55403 0.91945 0.366 0.0
C1257 C 0.54249 0.91232 0.40312 0.0
N1258 N 0.60284 0.87958 0.35437 0.0
N1259 N 0.56937 0.90458 0.39599 0.0
H1260 H 0.31256 0.25958 0.61447 0.0
H1261 H 0.37192 0.42405 0.6346 0.0
H1262 H 0.33966 0.28808 0.66844 0.0
H1263 H 0.39822 0.37464 0.58661 0.0
H1264 H 0.34407 0.38013 0.64544 0.0
H1265 H 0.32769 0.30852 0.60229 0.0
C1266 C 0.32107 0.27638 0.62378 0.0
C1267 C 0.32515 0.2699 0.64242 0.0
C1268 C 0.35537 0.37928 0.63233 0.0
C1269 C 0.34193 0.32546 0.62874 0.0
C1270 C 0.37113 0.40418 0.62616 0.0
C1271 C 0.38632 0.4031 0.60941 0.0
C1272 C 0.35503 0.35326 0.62164 0.0
C1273 C 0.3856 0.37665 0.5992 0.0
C1274 C 0.32979 0.30408 0.61684 0.0
C1275 C 0.33647 0.29223 0.65394 0.0
N1276 N 0.37004 0.35272 0.60543 0.0
N1277 N 0.34451 0.31909 0.64691 0.0
H1278 H 0.96102 0.09143 0.92091 0.0
H1279 H 0.82181 0.1187 0.88332 0.0
H1280 H 0.98634 0.06129 0.86696 0.0
H1281 H 0.87543 0.14456 0.83696 0.0
H1282 H 0.86461 0.09101 0.89574 0.0
H1283 H 0.91174 0.1046 0.90909 0.0
C1284 C 0.95595 0.08713 0.90663 0.0
C1285 C 0.97764 0.07529 0.89486 0.0
C1286 C 0.86681 0.1024 0.88272 0.0
C1287 C 0.92151 0.09034 0.88125 0.0
C1288 C 0.84247 0.11796 0.87562 0.0
C1289 C 0.84508 0.1331 0.85892 0.0
C1290 C 0.894 0.10258 0.87314 0.0
C1291 C 0.87237 0.13222 0.84958 0.0
C1292 C 0.92778 0.09437 0.89993 0.0
C1293 C 0.97007 0.0702 0.87646 0.0
N1294 N 0.89586 0.11712 0.85681 0.0
N1295 N 0.94275 0.0784 0.87009 0.0
H1296 H 0.91855 0.60361 0.64326 0.0
H1297 H 0.78236 0.71673 0.62874 0.0
H1298 H 0.85478 0.59521 0.59942 0.0
H1299 H 0.85427 0.7305 0.66717 0.0
H1300 H 0.80373 0.66805 0.62085 0.0
H1301 H 0.88984 0.64548 0.65566 0.0
C1302 C 0.8984 0.61069 0.6363 0.0
C1303 C 0.88965 0.59725 0.61986 0.0
C1304 C 0.8146 0.68161 0.63115 0.0
C1305 C 0.85639 0.64438 0.63404 0.0
C1306 C 0.80242 0.70935 0.63567 0.0
C1307 C 0.81669 0.72772 0.64854 0.0
C1308 C 0.84108 0.67218 0.63968 0.0
C1309 C 0.84266 0.71714 0.65707 0.0
C1310 C 0.88199 0.63447 0.64336 0.0
C1311 C 0.86284 0.60616 0.61169 0.0
N1312 N 0.85406 0.69015 0.65244 0.0
N1313 N 0.84727 0.62953 0.61873 0.0
H1314 H 0.14205 0.17146 0.39118 0.0
H1315 H 0.03156 0.03338 0.37503 0.0
H1316 H 0.15185 0.10904 0.34673 0.0
H1317 H 0.0165 0.1034 0.41457 0.0
H1318 H 0.07932 0.05664 0.36698 0.0
H1319 H 0.09986 0.14226 0.40279 0.0
C1320 C 0.13516 0.15155 0.3839 0.0
C1321 C 0.14922 0.14322 0.36759 0.0
C1322 C 0.06566 0.0667 0.37755 0.0
C1323 C 0.1018 0.10938 0.38086 0.0
C1324 C 0.03847 0.05341 0.38217 0.0
C1325 C 0.02002 0.06659 0.39541 0.0
C1326 C 0.07445 0.09317 0.38636 0.0
C1327 C 0.02995 0.0926 0.40419 0.0
C1328 C 0.11122 0.13486 0.3905 0.0
C1329 C 0.1405 0.11673 0.35895 0.0
N1330 N 0.05642 0.10508 0.39946 0.0
N1331 N 0.11704 0.10084 0.36557 0.0
H1332 H 0.64442 0.40689 0.09846 0.0
H1333 H 0.64074 0.26605 0.16501 0.0
H1334 H 0.57928 0.39425 0.14113 0.0
H1335 H 0.71409 0.28354 0.12822 0.0
H1336 H 0.61952 0.3144 0.1573 0.0
H1337 H 0.67255 0.36393 0.11026 0.0
C1338 C 0.63609 0.39487 0.11028 0.0
C1339 C 0.60896 0.40292 0.1184 0.0
C1340 C 0.64042 0.30789 0.15103 0.0
C1341 C 0.64091 0.35451 0.13213 0.0
C1342 C 0.65252 0.28019 0.15539 0.0
C1343 C 0.67916 0.27071 0.14717 0.0
C1344 C 0.65489 0.32625 0.13823 0.0
C1345 C 0.69349 0.29002 0.13485 0.0
C1346 C 0.6522 0.37062 0.11712 0.0
C1347 C 0.59966 0.38788 0.13418 0.0
N1348 N 0.68101 0.31682 0.13061 0.0
N1349 N 0.61531 0.364 0.14035 0.0
H1350 H 0.4675 0.96578 0.87571 0.0
H1351 H 0.35632 0.82822 0.89167 0.0
H1352 H 0.48262 0.89506 0.91478 0.0
H1353 H 0.34613 0.8916 0.84776 0.0
H1354 H 0.39875 0.85705 0.9033 0.0
H1355 H 0.41936 0.94311 0.86789 0.0
C1356 C 0.46053 0.94572 0.8828 0.0
C1357 C 0.47911 0.93217 0.89583 0.0
C1358 C 0.38725 0.86475 0.89113 0.0
C1359 C 0.42423 0.90627 0.88705 0.0
C1360 C 0.36316 0.84827 0.88452 0.0
C1361 C 0.34894 0.85696 0.86833 0.0
C1362 C 0.39665 0.89037 0.88163 0.0
C1363 C 0.35761 0.88362 0.85987 0.0
C1364 C 0.43311 0.93277 0.87831 0.0
C1365 C 0.46908 0.90615 0.90455 0.0
N1366 N 0.38122 0.89929 0.8665 0.0
N1367 N 0.4424 0.894 0.89995 0.0
H1368 H 0.85524 0.40468 0.90199 0.0
H1369 H 0.85891 0.26632 0.83387 0.0
H1370 H 0.91836 0.39565 0.85784 0.0
H1371 H 0.78478 0.28323 0.87016 0.0
H1372 H 0.87975 0.31478 0.84184 0.0
H1373 H 0.82704 0.36216 0.88967 0.0
C1374 C 0.86311 0.39356 0.88972 0.0
C1375 C 0.88975 0.40245 0.88132 0.0
C1376 C 0.85874 0.30812 0.84793 0.0
C1377 C 0.85772 0.35452 0.86704 0.0
C1378 C 0.84689 0.28036 0.84343 0.0
C1379 C 0.82015 0.27069 0.85144 0.0
C1380 C 0.84395 0.3263 0.86069 0.0
C1381 C 0.80547 0.28986 0.86369 0.0
C1382 C 0.84694 0.36958 0.88259 0.0
C1383 C 0.8984 0.38859 0.865 0.0
N1384 N 0.81774 0.31668 0.8681 0.0
N1385 N 0.88277 0.36487 0.85857 0.0
H1386 H 0.34591 0.10831 0.65226 0.0
H1387 H 0.48367 0.10667 0.58326 0.0
H1388 H 0.35703 0.17124 0.60819 0.0
H1389 H 0.46665 0.03568 0.62185 0.0
H1390 H 0.43607 0.12922 0.5914 0.0
H1391 H 0.38826 0.07947 0.6404 0.0
C1392 C 0.3575 0.11603 0.64012 0.0
C1393 C 0.34916 0.14271 0.63158 0.0
C1394 C 0.44253 0.10854 0.59797 0.0
C1395 C 0.39688 0.10988 0.61776 0.0
C1396 C 0.46977 0.09567 0.59336 0.0
C1397 C 0.47918 0.06932 0.60196 0.0
C1398 C 0.42458 0.09513 0.61141 0.0
C1399 C 0.46022 0.05601 0.61489 0.0
C1400 C 0.3814 0.0995 0.63326 0.0
C1401 C 0.36364 0.15121 0.61543 0.0
N1402 N 0.43389 0.06923 0.61936 0.0
N1403 N 0.38721 0.13512 0.6092 0.0
H1404 H 0.64212 0.73027 0.33398 0.0
H1405 H 0.64433 0.5906 0.40148 0.0
H1406 H 0.71458 0.71349 0.37155 0.0
H1407 H 0.58022 0.60234 0.35813 0.0
H1408 H 0.6727 0.63338 0.38963 0.0
H1409 H 0.62079 0.68199 0.34177 0.0
C1410 C 0.65369 0.71629 0.34379 0.0
C1411 C 0.6801 0.72596 0.3522 0.0
C1412 C 0.65253 0.62652 0.38264 0.0
C1413 C 0.6557 0.67051 0.36125 0.0
C1414 C 0.63627 0.60238 0.38949 0.0
C1415 C 0.60936 0.59414 0.38119 0.0
C1416 C 0.64159 0.64234 0.36741 0.0
C1417 C 0.60042 0.60886 0.36521 0.0
C1418 C 0.64153 0.68864 0.3482 0.0
C1419 C 0.69416 0.70686 0.36476 0.0
N1420 N 0.61621 0.63266 0.35902 0.0
N1421 N 0.68162 0.68011 0.36905 0.0
H1422 H 0.15449 0.89002 0.15374 0.0
H1423 H 0.01631 0.8928 0.08513 0.0
H1424 H 0.14327 0.82808 0.10916 0.0
H1425 H 0.03353 0.9632 0.12407 0.0
H1426 H 0.06399 0.87019 0.09299 0.0
H1427 H 0.11205 0.91906 0.1422 0.0
C1428 C 0.14286 0.88256 0.14155 0.0
C1429 C 0.15121 0.85608 0.13277 0.0
C1430 C 0.05756 0.89076 0.0997 0.0
C1431 C 0.10337 0.88915 0.11932 0.0
C1432 C 0.03027 0.90366 0.09524 0.0
C1433 C 0.02089 0.92986 0.10403 0.0
C1434 C 0.0756 0.90398 0.11315 0.0
C1435 C 0.03994 0.94299 0.11698 0.0
C1436 C 0.11891 0.89921 0.13487 0.0
C1437 C 0.13667 0.84793 0.11658 0.0
N1438 N 0.06632 0.92974 0.12129 0.0
N1439 N 0.11305 0.86413 0.11053 0.0
H1440 H 0.6545 0.783 0.83093 0.0
H1441 H 0.60274 0.8767 0.91417 0.0
H1442 H 0.68435 0.75893 0.88518 0.0
H1443 H 0.62853 0.921 0.86423 0.0
H1444 H 0.62907 0.83178 0.90397 0.0
H1445 H 0.64078 0.8325 0.84245 0.0
C1446 C 0.65832 0.78825 0.84523 0.0
C1447 C 0.67043 0.76694 0.85717 0.0
C1448 C 0.62958 0.85157 0.89545 0.0
C1449 C 0.65444 0.82303 0.8704 0.0
C1450 C 0.61491 0.87723 0.90134 0.0
C1451 C 0.61478 0.90284 0.89037 0.0
C1452 C 0.64282 0.85116 0.87804 0.0
C1453 C 0.62891 0.90182 0.87325 0.0
C1454 C 0.65071 0.81647 0.85174 0.0
C1455 C 0.67513 0.77484 0.87555 0.0
N1456 N 0.64216 0.87622 0.86748 0.0
N1457 N 0.66659 0.80215 0.88172 0.0
H1458 H 0.46488 0.40473 0.08121 0.0
H1459 H 0.37209 0.353 0.16488 0.0
H1460 H 0.4898 0.4343 0.13537 0.0
H1461 H 0.32759 0.37812 0.11489 0.0
H1462 H 0.41679 0.37966 0.15462 0.0
H1463 H 0.41553 0.39108 0.09297 0.0
C1464 C 0.45985 0.40848 0.09555 0.0
C1465 C 0.48135 0.4205 0.10738 0.0
C1466 C 0.39699 0.37998 0.14611 0.0
C1467 C 0.4254 0.40461 0.1209 0.0
C1468 C 0.37145 0.36511 0.15204 0.0
C1469 C 0.34586 0.36464 0.14104 0.0
C1470 C 0.39732 0.39305 0.12865 0.0
C1471 C 0.34675 0.37874 0.12392 0.0
C1472 C 0.4317 0.40092 0.1022 0.0
C1473 C 0.47373 0.42513 0.12582 0.0
N1474 N 0.37225 0.39215 0.11811 0.0
N1475 N 0.44648 0.41666 0.13213 0.0
H1476 H 0.89621 0.12101 0.41429 0.0
H1477 H 0.84366 0.21349 0.33081 0.0
H1478 H 0.87004 0.07604 0.36466 0.0
H1479 H 0.81423 0.2383 0.38502 0.0
H1480 H 0.85738 0.16412 0.34255 0.0
H1481 H 0.86953 0.16568 0.40402 0.0
C1482 C 0.88387 0.12027 0.40153 0.0
C1483 C 0.88403 0.09456 0.39065 0.0
C1484 C 0.84754 0.18027 0.35179 0.0
C1485 C 0.85559 0.14595 0.37824 0.0
C1486 C 0.83994 0.20842 0.34516 0.0
C1487 C 0.82796 0.2299 0.35702 0.0
C1488 C 0.84392 0.17396 0.37049 0.0
C1489 C 0.82337 0.22225 0.37546 0.0
C1490 C 0.869 0.14579 0.3956 0.0
C1491 C 0.86966 0.09531 0.37361 0.0
N1492 N 0.83189 0.19501 0.38174 0.0
N1493 N 0.85623 0.12078 0.36779 0.0
H1494 H 0.12673 0.64448 0.66679 0.0
H1495 H 0.03353 0.59667 0.58311 0.0
H1496 H 0.17107 0.61904 0.6168 0.0
H1497 H 0.00803 0.56449 0.63659 0.0
H1498 H 0.08317 0.60855 0.59509 0.0
H1499 H 0.08192 0.61792 0.6566 0.0
C1500 C 0.12733 0.63228 0.65398 0.0
C1501 C 0.15286 0.63274 0.64293 0.0
C1502 C 0.06683 0.59851 0.60412 0.0
C1503 C 0.10131 0.60445 0.63063 0.0
C1504 C 0.03853 0.59198 0.59736 0.0
C1505 C 0.0168 0.57978 0.60896 0.0
C1506 C 0.07307 0.59365 0.62272 0.0
C1507 C 0.02432 0.57387 0.62726 0.0
C1508 C 0.10173 0.61746 0.6481 0.0
C1509 C 0.15194 0.61849 0.62586 0.0
N1510 N 0.05176 0.58143 0.63373 0.0
N1511 N 0.12638 0.60519 0.62008 0.0
H1512 H 0.63025 0.07672 0.6327 0.0
H1513 H 0.686 0.24192 0.61116 0.0
H1514 H 0.60389 0.12304 0.58356 0.0
H1515 H 0.65637 0.21423 0.66478 0.0
H1516 H 0.6724 0.19233 0.59913 0.0
H1517 H 0.65679 0.12179 0.6429 0.0
C1518 C 0.63085 0.09613 0.62386 0.0
C1519 C 0.61587 0.09607 0.60703 0.0
C1520 C 0.66933 0.19716 0.61356 0.0
C1521 C 0.64561 0.14723 0.61855 0.0
C1522 C 0.67709 0.22524 0.6204 0.0
C1523 C 0.67191 0.23203 0.63889 0.0
C1524 C 0.65719 0.17578 0.62547 0.0
C1525 C 0.66029 0.20984 0.65038 0.0
C1526 C 0.64584 0.1217 0.62966 0.0
C1527 C 0.61634 0.12194 0.59626 0.0
N1528 N 0.65333 0.18262 0.64349 0.0
N1529 N 0.63109 0.14658 0.60217 0.0
H1530 H 0.17258 0.38045 0.88323 0.0
H1531 H 0.00672 0.43477 0.86248 0.0
H1532 H 0.12557 0.3528 0.83461 0.0
H1533 H 0.03492 0.40515 0.916 0.0
H1534 H 0.05626 0.42139 0.8503 0.0
H1535 H 0.12738 0.40658 0.89364 0.0
C1536 C 0.15298 0.38069 0.87454 0.0
C1537 C 0.15289 0.36549 0.85778 0.0
C1538 C 0.05155 0.41828 0.86474 0.0
C1539 C 0.1016 0.39477 0.86954 0.0
C1540 C 0.02351 0.42591 0.87167 0.0
C1541 C 0.01687 0.42069 0.89018 0.0
C1542 C 0.07307 0.4062 0.87658 0.0
C1543 C 0.03919 0.40912 0.90159 0.0
C1544 C 0.12735 0.39544 0.88046 0.0
C1545 C 0.12678 0.36546 0.84723 0.0
N1546 N 0.06639 0.40228 0.89461 0.0
N1547 N 0.1021 0.38001 0.85325 0.0
H1548 H 0.89611 0.87667 0.08531 0.0
H1549 H 0.84317 0.78359 0.16849 0.0
H1550 H 0.87096 0.921 0.13535 0.0
H1551 H 0.81367 0.75944 0.11418 0.0
H1552 H 0.85712 0.833 0.15695 0.0
H1553 H 0.86898 0.83213 0.09535 0.0
C1554 C 0.8839 0.87731 0.09811 0.0
C1555 C 0.8845 0.90281 0.10919 0.0
C1556 C 0.84721 0.81699 0.14764 0.0
C1557 C 0.85552 0.85153 0.12133 0.0
C1558 C 0.83947 0.78882 0.15416 0.0
C1559 C 0.82741 0.7675 0.14222 0.0
C1560 C 0.84366 0.8235 0.12897 0.0
C1561 C 0.82286 0.77536 0.12381 0.0
C1562 C 0.86876 0.85187 0.10392 0.0
C1563 C 0.87026 0.90191 0.12627 0.0
N1564 N 0.83153 0.80263 0.11763 0.0
N1565 N 0.85656 0.8765 0.13195 0.0
H1566 H 0.49087 0.56193 0.36359 0.0
H1567 H 0.32594 0.61805 0.38493 0.0
H1568 H 0.46422 0.59182 0.41737 0.0
H1569 H 0.37279 0.64442 0.33599 0.0
H1570 H 0.3712 0.59218 0.39554 0.0
H1571 H 0.44144 0.57612 0.3518 0.0
C1572 C 0.47446 0.57104 0.37294 0.0
C1573 C 0.48156 0.57602 0.39142 0.0
C1574 C 0.37118 0.60299 0.38227 0.0
C1575 C 0.42535 0.59156 0.37819 0.0
C1576 C 0.34551 0.61758 0.37622 0.0
C1577 C 0.34551 0.63229 0.35928 0.0
C1578 C 0.39686 0.60331 0.37127 0.0
C1579 C 0.3716 0.63208 0.34872 0.0
C1580 C 0.44645 0.57915 0.36622 0.0
C1581 C 0.45964 0.58798 0.40299 0.0
N1582 N 0.39628 0.61765 0.35484 0.0
N1583 N 0.43242 0.59532 0.39619 0.0
H1584 H 0.35836 0.09514 0.09637 0.0
H1585 H 0.35615 0.23317 0.1651 0.0
H1586 H 0.42154 0.10702 0.14022 0.0
H1587 H 0.28523 0.21572 0.12654 0.0
H1588 H 0.37883 0.18559 0.1571 0.0
H1589 H 0.32918 0.13721 0.10827 0.0
C1590 C 0.36606 0.10683 0.10848 0.0
C1591 C 0.3929 0.09879 0.11694 0.0
C1592 C 0.35814 0.19194 0.1505 0.0
C1593 C 0.35969 0.14622 0.13079 0.0
C1594 C 0.34519 0.21918 0.15504 0.0
C1595 C 0.31883 0.22847 0.1464 0.0
C1596 C 0.34479 0.17387 0.13711 0.0
C1597 C 0.30558 0.20938 0.13352 0.0
C1598 C 0.34933 0.13058 0.11536 0.0
C1599 C 0.40138 0.11339 0.13305 0.0
N1600 N 0.31887 0.18306 0.12912 0.0
N1601 N 0.3851 0.13682 0.13929 0.0
H1602 H 0.53184 0.53342 0.87765 0.0
H1603 H 0.6443 0.67027 0.89204 0.0
H1604 H 0.51723 0.60595 0.91551 0.0
H1605 H 0.6556 0.60413 0.84982 0.0
H1606 H 0.60148 0.64238 0.90388 0.0
H1607 H 0.58055 0.55489 0.86986 0.0
C1608 C 0.53902 0.55365 0.88447 0.0
C1609 C 0.52043 0.56803 0.89717 0.0
C1610 C 0.6133 0.63384 0.89204 0.0
C1611 C 0.57599 0.59254 0.88844 0.0
C1612 C 0.63762 0.64978 0.88531 0.0
C1613 C 0.65226 0.64007 0.86947 0.0
C1614 C 0.604 0.60773 0.88303 0.0
C1615 C 0.64378 0.61289 0.86159 0.0
C1616 C 0.56678 0.56589 0.88001 0.0
C1617 C 0.53076 0.59422 0.90555 0.0
N1618 N 0.61987 0.59776 0.86831 0.0
N1619 N 0.55777 0.60567 0.90099 0.0
H1620 H 0.14199 0.76473 0.66588 0.0
H1621 H 0.14006 0.90197 0.59651 0.0
H1622 H 0.21303 0.78167 0.62731 0.0
H1623 H 0.0774 0.89128 0.64076 0.0
H1624 H 0.16889 0.85964 0.6084 0.0
H1625 H 0.1193 0.81218 0.65756 0.0
C1626 C 0.15297 0.77858 0.65575 0.0
C1627 C 0.17938 0.76919 0.64721 0.0
C1628 C 0.14892 0.86659 0.61558 0.0
C1629 C 0.15341 0.82362 0.63756 0.0
C1630 C 0.13239 0.89047 0.6087 0.0
C1631 C 0.10579 0.89894 0.61729 0.0
C1632 C 0.13862 0.85125 0.63114 0.0
C1633 C 0.09736 0.88458 0.63349 0.0
C1634 C 0.14002 0.80573 0.65104 0.0
C1635 C 0.19265 0.78808 0.63422 0.0
N1636 N 0.11345 0.86103 0.63974 0.0
N1637 N 0.17936 0.81433 0.62966 0.0
H1638 H 0.96628 0.46393 0.37828 0.0
H1639 H 0.85481 0.32579 0.39119 0.0
H1640 H 0.98204 0.39006 0.41497 0.0
H1641 H 0.84346 0.39256 0.34934 0.0
H1642 H 0.89786 0.35333 0.40303 0.0
H1643 H 0.91806 0.44189 0.36999 0.0
C1644 C 0.95947 0.44326 0.38473 0.0
C1645 C 0.97822 0.42872 0.39727 0.0
C1646 C 0.886 0.36206 0.39127 0.0
C1647 C 0.92319 0.40355 0.38797 0.0
C1648 C 0.86154 0.34632 0.38453 0.0
C1649 C 0.84677 0.35634 0.36881 0.0
C1650 C 0.89529 0.3883 0.3824 0.0
C1651 C 0.85534 0.38357 0.36102 0.0
C1652 C 0.93199 0.43069 0.37998 0.0
C1653 C 0.96836 0.40195 0.40516 0.0
N1654 N 0.87935 0.39852 0.36777 0.0
N1655 N 0.94159 0.39021 0.40034 0.0
H1656 H 0.35597 0.76388 0.33447 0.0
H1657 H 0.35841 0.90256 0.40261 0.0
H1658 H 0.28516 0.78143 0.37309 0.0
H1659 H 0.42025 0.89122 0.35798 0.0
H1660 H 0.32931 0.8601 0.39113 0.0
H1661 H 0.37841 0.81169 0.34217 0.0
C1662 C 0.34499 0.77794 0.34449 0.0
C1663 C 0.31872 0.76862 0.35323 0.0
C1664 C 0.34915 0.86695 0.38378 0.0
C1665 C 0.34441 0.8235 0.36216 0.0
C1666 C 0.36583 0.89091 0.39042 0.0
C1667 C 0.3923 0.89922 0.38161 0.0
C1668 C 0.35918 0.85136 0.36825 0.0
C1669 C 0.4004 0.88465 0.36542 0.0
C1670 C 0.35779 0.80532 0.34884 0.0
C1671 C 0.30543 0.7878 0.36603 0.0
N1672 N 0.38419 0.86101 0.35942 0.0
N1673 N 0.3186 0.81427 0.37026 0.0
H1674 H 0.96522 0.53357 0.12088 0.0
H1675 H 0.8536 0.67139 0.10753 0.0
H1676 H 0.98169 0.608 0.08473 0.0
H1677 H 0.84218 0.60466 0.1494 0.0
H1678 H 0.8966 0.64376 0.09567 0.0
H1679 H 0.91657 0.55513 0.12863 0.0
C1680 C 0.95847 0.55426 0.11443 0.0
C1681 C 0.97756 0.56911 0.10222 0.0
C1682 C 0.88471 0.63505 0.10742 0.0
C1683 C 0.92203 0.59373 0.11091 0.0
C1684 C 0.86029 0.65084 0.11418 0.0
C1685 C 0.84556 0.64087 0.12992 0.0
C1686 C 0.89398 0.60883 0.11633 0.0
C1687 C 0.85405 0.61361 0.13769 0.0
C1688 C 0.93074 0.56655 0.11887 0.0
C1689 C 0.96776 0.59589 0.0943 0.0
N1690 N 0.87802 0.59862 0.13095 0.0
N1691 N 0.94074 0.60737 0.09883 0.0
H1692 H 0.21428 0.21791 0.87376 0.0
H1693 H 0.0757 0.10746 0.85922 0.0
H1694 H 0.14368 0.23242 0.83453 0.0
H1695 H 0.13948 0.09768 0.90295 0.0
H1696 H 0.10461 0.14956 0.84723 0.0
H1697 H 0.19112 0.17029 0.88222 0.0
C1698 C 0.19414 0.2109 0.86678 0.0
C1699 C 0.18078 0.22917 0.8535 0.0
C1700 C 0.11237 0.13824 0.85944 0.0
C1701 C 0.1543 0.1749 0.86302 0.0
C1702 C 0.09585 0.11435 0.86626 0.0
C1703 C 0.10466 0.10032 0.88249 0.0
C1704 C 0.13816 0.14764 0.86877 0.0
C1705 C 0.13142 0.10902 0.89081 0.0
C1706 C 0.18091 0.18379 0.87163 0.0
C1707 C 0.15463 0.21911 0.84493 0.0
N1708 N 0.14714 0.13243 0.88397 0.0
N1709 N 0.1422 0.19274 0.84988 0.0
H1710 H 0.53432 0.46634 0.62312 0.0
H1711 H 0.64797 0.3312 0.60655 0.0
H1712 H 0.52065 0.39553 0.58393 0.0
H1713 H 0.65658 0.39343 0.6512 0.0
H1714 H 0.60583 0.36012 0.59473 0.0
H1715 H 0.58315 0.44492 0.63069 0.0
C1716 C 0.54175 0.44653 0.61595 0.0
C1717 C 0.52337 0.43256 0.60297 0.0
C1718 C 0.61692 0.36758 0.60709 0.0
C1719 C 0.57907 0.40815 0.61143 0.0
C1720 C 0.64086 0.35105 0.61382 0.0
C1721 C 0.65446 0.35928 0.63031 0.0
C1722 C 0.60699 0.39279 0.61679 0.0
C1723 C 0.64551 0.38574 0.63888 0.0
C1724 C 0.56957 0.43431 0.62029 0.0
C1725 C 0.534 0.4069 0.59413 0.0
N1726 N 0.62198 0.40144 0.63216 0.0
N1727 N 0.56107 0.39548 0.59858 0.0
H1728 H 0.23841 0.25722 0.19623 0.0
H1729 H 0.25889 0.23799 0.30438 0.0
H1730 H 0.28297 0.32249 0.23011 0.0
H1731 H 0.18861 0.19481 0.27383 0.0
H1732 H 0.27503 0.26303 0.27619 0.0
H1733 H 0.22609 0.2287 0.22378 0.0
C1734 C 0.24555 0.26561 0.20945 0.0
C1735 C 0.26163 0.2924 0.21085 0.0
C1736 C 0.25623 0.24787 0.27568 0.0
C1737 C 0.24802 0.25956 0.24236 0.0
C1738 C 0.2472 0.23337 0.29169 0.0
C1739 C 0.22228 0.21443 0.29145 0.0
C1740 C 0.24049 0.24303 0.2593 0.0
C1741 C 0.20779 0.20943 0.27465 0.0
C1742 C 0.23853 0.24929 0.22515 0.0
C1743 C 0.27033 0.30211 0.22837 0.0
N1744 N 0.21708 0.22369 0.25926 0.0
N1745 N 0.26354 0.28562 0.24343 0.0
H1746 H 0.01085 0.0087 0.5542 0.0
H1747 H 0.99164 0.98778 0.44606 0.0
H1748 H 0.0543 0.93858 0.52367 0.0
H1749 H 0.92654 0.0327 0.47988 0.0
H1750 H 0.02027 0.97572 0.47361 0.0
H1751 H 0.9859 0.02485 0.52598 0.0
C1752 C 0.01555 0.99705 0.54152 0.0
C1753 C 0.03453 0.97216 0.54128 0.0
C1754 C -0.00031 0.98819 0.47496 0.0
C1755 C 0.00602 0.99037 0.5091 0.0
C1756 C 0.98331 0.99506 0.45926 0.0
C1757 C 0.95653 0.01114 0.46065 0.0
C1758 C 0.98949 0.99783 0.49216 0.0
C1759 C 0.94691 0.02004 0.47815 0.0
C1760 C 0.0011 0.00608 0.52548 0.0
C1761 C 0.03963 0.95773 0.52449 0.0
N1762 N 0.96345 0.01338 0.49322 0.0
N1763 N 0.02541 0.96701 0.50908 0.0
H1764 H 0.25993 0.74188 0.69707 0.0
H1765 H 0.23946 0.76213 0.80515 0.0
H1766 H 0.21661 0.67636 0.73139 0.0
H1767 H 0.30892 0.80615 0.77434 0.0
H1768 H 0.2236 0.7366 0.77708 0.0
H1769 H 0.27187 0.77101 0.72445 0.0
C1770 C 0.25299 0.73356 0.71035 0.0
C1771 C 0.23736 0.70653 0.71192 0.0
C1772 C 0.24214 0.75206 0.77648 0.0
C1773 C 0.25051 0.74006 0.74323 0.0
C1774 C 0.25101 0.76685 0.79243 0.0
C1775 C 0.27564 0.78615 0.79208 0.0
C1776 C 0.25777 0.75696 0.76007 0.0
C1777 C 0.28996 0.79125 0.77524 0.0
C1778 C 0.25979 0.75022 0.72595 0.0
C1779 C 0.2289 0.69692 0.72951 0.0
N1780 N 0.28085 0.77669 0.75991 0.0
N1781 N 0.23545 0.71375 0.74447 0.0
H1782 H 0.44201 0.05929 0.02287 0.0
H1783 H 0.57516 0.96589 0.97978 0.0
H1784 H 0.48907 0.99126 0.05313 0.0
H1785 H 0.50816 0.00922 0.94658 0.0
H1786 H 0.54612 0.9779 0.00716 0.0
H1787 H 0.46737 0.04322 0.99492 0.0
C1788 C 0.45742 0.04071 0.02358 0.0
C1789 C 0.46351 0.02662 0.04035 0.0
C1790 C 0.53778 0.98469 0.99387 0.0
C1791 C 0.49305 0.00856 0.00849 0.0
C1792 C 0.55446 0.9781 0.97823 0.0
C1793 C 0.54415 0.98663 0.96082 0.0
C1794 C 0.5108 0.00031 0.99214 0.0
C1795 C 0.51701 0.00219 0.9597 0.0
C1796 C 0.47189 0.03158 0.00763 0.0
C1797 C 0.48361 0.00262 0.04047 0.0
N1798 N 0.50136 0.00867 0.97515 0.0
N1799 N 0.498 0.9946 0.02481 0.0
H1800 H 0.23991 0.73982 0.30319 0.0
H1801 H 0.26077 0.75928 0.19505 0.0
H1802 H 0.28484 0.67467 0.26942 0.0
H1803 H 0.19156 0.80351 0.22593 0.0
H1804 H 0.27681 0.73389 0.22316 0.0
H1805 H 0.22806 0.76853 0.27568 0.0
C1806 C 0.24723 0.73149 0.29 0.0
C1807 C 0.26327 0.70467 0.28862 0.0
C1808 C 0.25827 0.74935 0.22376 0.0
C1809 C 0.25015 0.73774 0.25712 0.0
C1810 C 0.24931 0.76405 0.20779 0.0
C1811 C 0.22471 0.7834 0.20815 0.0
C1812 C 0.24276 0.75439 0.2402 0.0
C1813 C 0.21049 0.78858 0.22501 0.0
C1814 C 0.24047 0.74792 0.27431 0.0
C1815 C 0.27221 0.69506 0.27113 0.0
N1816 N 0.21969 0.77412 0.24034 0.0
N1817 N 0.26564 0.71166 0.25606 0.0
H1818 H 0.48879 0.00861 0.44408 0.0
H1819 H 0.50769 0.98878 0.5523 0.0
H1820 H 0.44466 0.93921 0.47487 0.0
H1821 H 0.5735 0.03231 0.5183 0.0
H1822 H 0.47906 0.97656 0.52478 0.0
H1823 H 0.51402 0.02468 0.47223 0.0
C1824 C 0.484 0.99711 0.45681 0.0
C1825 C 0.46474 0.97244 0.45714 0.0
C1826 C 0.4998 0.98874 0.52338 0.0
C1827 C 0.49357 0.99055 0.48923 0.0
C1828 C 0.51619 0.9957 0.53906 0.0
C1829 C 0.54315 0.01147 0.53762 0.0
C1830 C 0.51019 0.99799 0.50614 0.0
C1831 C 0.55299 0.01991 0.52008 0.0
C1832 C 0.49862 0.00609 0.4728 0.0
C1833 C 0.45954 0.95818 0.47398 0.0
N1834 N 0.53642 0.01319 0.50503 0.0
N1835 N 0.47391 0.96741 0.48935 0.0
H1836 H 0.25975 0.25739 0.80268 0.0
H1837 H 0.23925 0.23759 0.69455 0.0
H1838 H 0.21486 0.32222 0.76865 0.0
H1839 H 0.30931 0.19435 0.72525 0.0
H1840 H 0.22301 0.26267 0.7227 0.0
H1841 H 0.27201 0.22865 0.77521 0.0
C1842 C 0.25252 0.26564 0.78945 0.0
C1843 C 0.23638 0.29238 0.78798 0.0
C1844 C 0.24178 0.24749 0.72325 0.0
C1845 C 0.24993 0.25929 0.75656 0.0
C1846 C 0.25087 0.23296 0.70726 0.0
C1847 C 0.27577 0.214 0.70755 0.0
C1848 C 0.25746 0.24267 0.73966 0.0
C1849 C 0.29016 0.209 0.72438 0.0
C1850 C 0.25951 0.2492 0.77379 0.0
C1851 C 0.22756 0.3019 0.77045 0.0
N1852 N 0.28083 0.22329 0.73975 0.0
N1853 N 0.23432 0.28529 0.75543 0.0
H1854 H 0.01164 0.99047 0.94637 0.0
H1855 H 0.99226 0.01079 0.0545 0.0
H1856 H 0.05465 0.06092 0.97685 0.0
H1857 H 0.92701 0.96647 0.02049 0.0
H1858 H 0.02085 0.02323 0.02698 0.0
H1859 H 0.98669 0.9743 0.97457 0.0
C1860 C 0.01625 0.00219 0.95904 0.0
C1861 C 0.03511 0.02718 0.95926 0.0
C1862 C 0.00024 0.01082 0.02559 0.0
C1863 C 0.00657 0.00894 0.99143 0.0
C1864 C 0.98389 0.00373 0.04126 0.0
C1865 C 0.95708 0.98768 0.03981 0.0
C1866 C 0.99 0.0014 0.00835 0.0
C1867 C 0.9474 0.97908 0.02227 0.0
C1868 C 0.00179 0.99315 0.97507 0.0
C1869 C 0.04008 0.0417 0.97605 0.0
N1870 N 0.96393 0.98592 0.00723 0.0
N1871 N 0.02586 0.0324 0.99146 0.0
H1872 H 0.78352 0.82547 0.73269 0.0
H1873 H 0.69528 0.68832 0.77567 0.0
H1874 H 0.74291 0.75645 0.69975 0.0
H1875 H 0.75791 0.74104 0.8068 0.0
H1876 H 0.71109 0.71397 0.7478 0.0
H1877 H 0.77198 0.79661 0.76022 0.0
C1878 C 0.772 0.80436 0.73122 0.0
C1879 C 0.76408 0.79345 0.71383 0.0
C1880 C 0.72163 0.71972 0.76068 0.0
C1881 C 0.75098 0.76026 0.74534 0.0
C1882 C 0.71264 0.70506 0.7766 0.0
C1883 C 0.72524 0.71263 0.79359 0.0
C1884 C 0.74303 0.74249 0.76177 0.0
C1885 C 0.74772 0.73442 0.79398 0.0
C1886 C 0.76567 0.78779 0.74695 0.0
C1887 C 0.74944 0.76579 0.71283 0.0
N1888 N 0.75563 0.74889 0.77832 0.0
N1889 N 0.74324 0.75024 0.72836 0.0
H1890 H 0.75443 0.24268 0.19824 0.0
H1891 H 0.7381 0.257 0.30709 0.0
H1892 H 0.71201 0.17539 0.23167 0.0
H1893 H 0.80266 0.30632 0.27531 0.0
H1894 H 0.72155 0.23201 0.27895 0.0
H1895 H 0.76634 0.27078 0.22595 0.0
C1896 C 0.74765 0.23376 0.2114 0.0
C1897 C 0.73234 0.2065 0.2126 0.0
C1898 C 0.73917 0.24848 0.27816 0.0
C1899 C 0.74561 0.23885 0.24439 0.0
C1900 C 0.74843 0.26294 0.29417 0.0
C1901 C 0.77191 0.28364 0.29355 0.0
C1902 C 0.75325 0.25509 0.26144 0.0
C1903 C 0.78466 0.29032 0.27645 0.0
C1904 C 0.75445 0.24985 0.22721 0.0
C1905 C 0.72409 0.19614 0.23007 0.0
N1906 N 0.77522 0.27605 0.2611 0.0
N1907 N 0.73074 0.21238 0.24528 0.0
H1908 H 0.78439 0.2475 0.79397 0.0
H1909 H 0.68558 0.24643 0.70519 0.0
H1910 H 0.74903 0.16529 0.77217 0.0
H1911 H 0.76321 0.30313 0.70753 0.0
H1912 H 0.70276 0.2205 0.73272 0.0
H1913 H 0.77115 0.2727 0.76519 0.0
C1914 C 0.77368 0.23482 0.78317 0.0
C1915 C 0.76758 0.20431 0.78545 0.0
C1916 C 0.71608 0.23854 0.72717 0.0
C1917 C 0.75233 0.23297 0.75279 0.0
C1918 C 0.70625 0.25343 0.71158 0.0
C1919 C 0.72302 0.27695 0.7042 0.0
C1920 C 0.74246 0.24773 0.73575 0.0
C1921 C 0.74977 0.28502 0.71285 0.0
C1922 C 0.76644 0.24914 0.76676 0.0
C1923 C 0.75407 0.18882 0.77096 0.0
N1924 N 0.75854 0.27065 0.72841 0.0
N1925 N 0.74653 0.20342 0.75531 0.0
H1926 H 0.75585 0.75413 0.30123 0.0
H1927 H 0.73805 0.73984 0.19248 0.0
H1928 H 0.71315 0.82135 0.2679 0.0
H1929 H 0.8033 0.69061 0.22378 0.0
H1930 H 0.72191 0.76467 0.22074 0.0
H1931 H 0.76753 0.72599 0.27347 0.0
C1932 C 0.74898 0.76303 0.28809 0.0
C1933 C 0.73364 0.79028 0.28692 0.0
C1934 C 0.7396 0.74825 0.22139 0.0
C1935 C 0.7466 0.75789 0.25511 0.0
C1936 C 0.74863 0.73389 0.20532 0.0
C1937 C 0.77218 0.71327 0.20577 0.0
C1938 C 0.75399 0.74165 0.23802 0.0
C1939 C 0.78524 0.70657 0.22278 0.0
C1940 C 0.75564 0.74692 0.27225 0.0
C1941 C 0.72524 0.80061 0.26947 0.0
N1942 N 0.77602 0.72077 0.23821 0.0
N1943 N 0.73174 0.78435 0.25426 0.0
H1944 H 0.50762 0.50984 0.05689 0.0
H1945 H 0.49225 0.49268 0.94816 0.0
H1946 H 0.55668 0.4449 0.02526 0.0
H1947 H 0.42528 0.53502 0.98186 0.0
H1948 H 0.52064 0.48078 0.97579 0.0
H1949 H 0.4824 0.52602 0.02876 0.0
C1950 C 0.51344 0.49934 0.044 0.0
C1951 C 0.53413 0.47587 0.04342 0.0
C1952 C 0.4997 0.49263 0.97712 0.0
C1953 C 0.50531 0.49409 0.01133 0.0
C1954 C 0.48344 0.49941 0.96136 0.0
C1955 C 0.45621 0.51473 0.96267 0.0
C1956 C 0.48888 0.50153 0.99433 0.0
C1957 C 0.44601 0.52295 0.98018 0.0
C1958 C 0.49885 0.50838 0.02801 0.0
C1959 C 0.54067 0.4629 0.02637 0.0
N1960 N 0.46241 0.51635 0.99531 0.0
N1961 N 0.52627 0.47213 0.01102 0.0
H1962 H 0.08117 0.50814 0.47524 0.0
H1963 H 0.94565 0.48734 0.54322 0.0
H1964 H 0.00078 0.46512 0.45628 0.0
H1965 H 0.99422 0.57028 0.53997 0.0
H1966 H 0.97098 0.47058 0.51496 0.0
H1967 H 0.05487 0.52312 0.50327 0.0
C1968 C 0.05801 0.50184 0.47701 0.0
C1969 C 0.04298 0.48567 0.46342 0.0
C1970 C 0.97589 0.49244 0.52052 0.0
C1971 C 0.01322 0.50194 0.49547 0.0
C1972 C 0.96162 0.5019 0.53659 0.0
C1973 C 0.96774 0.53027 0.54377 0.0
C1974 C 0.99698 0.51115 0.51211 0.0
C1975 C 0.98863 0.54838 0.53472 0.0
C1976 C 0.04308 0.51039 0.49293 0.0
C1977 C 0.01299 0.47795 0.46637 0.0
N1978 N 0.00273 0.5384 0.51947 0.0
N1979 N 0.99908 0.48593 0.48221 0.0
H1980 H 0.08382 0.4941 0.02441 0.0
H1981 H 0.94604 0.5128 0.95746 0.0
H1982 H 0.00197 0.53335 0.04411 0.0
H1983 H 0.99905 0.43251 0.95843 0.0
H1984 H 0.97162 0.52957 0.98564 0.0
H1985 H 0.05817 0.47999 0.99599 0.0
C1986 C 0.06049 0.49977 0.02272 0.0
C1987 C 0.04486 0.51459 0.03665 0.0
C1988 C 0.97752 0.50832 0.97958 0.0
C1989 C 0.01581 0.4993 0.00415 0.0
C1990 C 0.96311 0.49887 0.96356 0.0
C1991 C 0.97035 0.47118 0.95581 0.0
C1992 C -0.00017 0.49032 0.98737 0.0
C1993 C 0.99261 0.45385 0.96415 0.0
C1994 C 0.04593 0.49172 0.00657 0.0
C1995 C 0.01466 0.52154 0.03376 0.0
N1996 N 0.00675 0.46381 0.97939 0.0
N1997 N 0.0011 0.51403 0.01773 0.0
H1998 H 0.50743 0.4881 0.44323 0.0
H1999 H 0.49358 0.50712 0.55193 0.0
H2000 H 0.55667 0.55372 0.47421 0.0
H2001 H 0.42622 0.46386 0.51897 0.0
H2002 H 0.52141 0.51868 0.52404 0.0
H2003 H 0.48252 0.47237 0.47158 0.0
C2004 C 0.51335 0.49885 0.45602 0.0
C2005 C 0.53401 0.52237 0.45635 0.0
C2006 C 0.50051 0.5067 0.52293 0.0
C2007 C 0.50557 0.50466 0.48869 0.0
C2008 C 0.48457 0.50012 0.53885 0.0
C2009 C 0.45739 0.48463 0.53782 0.0
C2010 C 0.48943 0.49745 0.50585 0.0
C2011 C 0.44692 0.47606 0.52044 0.0
C2012 C 0.49895 0.49006 0.47214 0.0
C2013 C 0.54068 0.53567 0.47329 0.0
N2014 N 0.46302 0.48249 0.50514 0.0
N2015 N 0.52647 0.52668 0.48876 0.0
H2016 H 0.26428 0.09722 0.34614 0.0
H2017 H 0.42464 0.06477 0.38346 0.0
H2018 H 0.31398 0.17287 0.36644 0.0
H2019 H 0.34735 0.01392 0.39999 0.0
H2020 H 0.39104 0.10364 0.37122 0.0
H2021 H 0.3025 0.06413 0.35827 0.0
C2022 C 0.28348 0.10697 0.35288 0.0
C2023 C 0.28578 0.13789 0.35544 0.0
C2024 C 0.38171 0.08405 0.37776 0.0
C2025 C 0.32962 0.09993 0.3693 0.0
C2026 C 0.40073 0.06197 0.38474 0.0
C2027 C 0.38875 0.03603 0.39269 0.0
C2028 C 0.35077 0.07953 0.37835 0.0
C2029 C 0.35763 0.03347 0.39398 0.0
C2030 C 0.30515 0.08801 0.35989 0.0
C2031 C 0.3113 0.14914 0.36428 0.0
N2032 N 0.33976 0.05466 0.3866 0.0
N2033 N 0.33237 0.13008 0.37098 0.0
H2034 H 0.15144 0.01438 0.59597 0.0
H2035 H 0.18362 0.17461 0.63353 0.0
H2036 H 0.07564 0.06363 0.61647 0.0
H2037 H 0.23439 0.0973 0.65008 0.0
H2038 H 0.14479 0.14101 0.6212 0.0
H2039 H 0.18441 0.05269 0.60813 0.0
C2040 C 0.14163 0.0335 0.60276 0.0
C2041 C 0.11071 0.03564 0.60538 0.0
C2042 C 0.16435 0.13169 0.62777 0.0
C2043 C 0.14853 0.0796 0.61925 0.0
C2044 C 0.18641 0.1507 0.6348 0.0
C2045 C 0.21232 0.13871 0.64277 0.0
C2046 C 0.16888 0.10074 0.62834 0.0
C2047 C 0.21488 0.10759 0.64404 0.0
C2048 C 0.16052 0.05523 0.60978 0.0
C2049 C 0.09938 0.06107 0.61428 0.0
N2050 N 0.19371 0.08973 0.63662 0.0
N2051 N 0.11837 0.0822 0.62099 0.0
H2052 H 0.18341 0.82506 0.86622 0.0
H2053 H 0.15106 0.98497 0.90406 0.0
H2054 H 0.23382 0.90259 0.84961 0.0
H2055 H 0.07518 0.93577 0.8836 0.0
H2056 H 0.18399 0.94678 0.89175 0.0
H2057 H 0.14451 0.85849 0.87862 0.0
C2058 C 0.18611 0.84898 0.86495 0.0
C2059 C 0.21195 0.86109 0.85695 0.0
C2060 C 0.16009 0.94423 0.89013 0.0
C2061 C 0.16841 0.89886 0.87145 0.0
C2062 C 0.14122 0.96589 0.89724 0.0
C2063 C 0.11029 0.96373 0.89468 0.0
C2064 C 0.14808 0.91991 0.88063 0.0
C2065 C 0.09893 0.93834 0.88575 0.0
C2066 C 0.164 0.8679 0.87202 0.0
C2067 C 0.21437 0.89221 0.85568 0.0
N2068 N 0.11791 0.91728 0.87895 0.0
N2069 N 0.19317 0.90998 0.86313 0.0
H2070 H 0.26717 0.90089 0.15404 0.0
H2071 H 0.42606 0.93356 0.1145 0.0
H2072 H 0.31551 0.82533 0.13242 0.0
H2073 H 0.34811 0.98424 0.09901 0.0
H2074 H 0.39295 0.89462 0.1272 0.0
H2075 H 0.30517 0.93397 0.14161 0.0
C2076 C 0.28604 0.89115 0.14696 0.0
C2077 C 0.28798 0.86027 0.14409 0.0
C2078 C 0.38337 0.91419 0.12078 0.0
C2079 C 0.33159 0.89821 0.12991 0.0
C2080 C 0.40211 0.93631 0.11354 0.0
C2081 C 0.3898 0.96222 0.10575 0.0
C2082 C 0.3524 0.91866 0.12061 0.0
C2083 C 0.35864 0.96472 0.10489 0.0
C2084 C 0.30759 0.9101 0.13978 0.0
C2085 C 0.3131 0.84904 0.13482 0.0
N2086 N 0.34107 0.9435 0.11251 0.0
N2087 N 0.33405 0.86808 0.12796 0.0
H2088 H 0.72125 0.8456 0.62265 0.0
H2089 H 0.59705 0.97303 0.62953 0.0
H2090 H 0.70374 0.89559 0.67208 0.0
H2091 H 0.64342 0.9511 0.57945 0.0
H2092 H 0.62529 0.93403 0.64541 0.0
H2093 H 0.68183 0.87368 0.6071 0.0
C2094 C 0.70871 0.862 0.63036 0.0
C2095 C 0.716 0.86846 0.64866 0.0
C2096 C 0.62887 0.93749 0.63088 0.0
C2097 C 0.67091 0.90051 0.63094 0.0
C2098 C 0.61265 0.95958 0.62177 0.0
C2099 C 0.61809 0.9655 0.60316 0.0
C2100 C 0.65031 0.92092 0.62124 0.0
C2101 C 0.63874 0.94748 0.59384 0.0
C2102 C 0.68636 0.87811 0.62143 0.0
C2103 C 0.69907 0.89009 0.65791 0.0
N2104 N 0.65422 0.9261 0.603 0.0
N2105 N 0.67741 0.90547 0.64892 0.0
H2106 H 0.85597 0.95013 0.42072 0.0
H2107 H 0.79606 0.8904 0.32677 0.0
H2108 H 0.90105 0.96921 0.36977 0.0
H2109 H 0.77776 0.84486 0.37767 0.0
H2110 H 0.83577 0.91837 0.34201 0.0
H2111 H 0.82819 0.91035 0.40542 0.0
C2112 C 0.86037 0.94563 0.40638 0.0
C2113 C 0.8807 0.96316 0.39648 0.0
C2114 C 0.82345 0.90185 0.34976 0.0
C2115 C 0.84859 0.91804 0.37882 0.0
C2116 C 0.80073 0.88592 0.34108 0.0
C2117 C 0.78342 0.86542 0.351 0.0
C2118 C 0.82844 0.89776 0.3686 0.0
C2119 C 0.79054 0.86043 0.36949 0.0
C2120 C 0.84456 0.92287 0.39767 0.0
C2121 C 0.8856 0.95625 0.37794 0.0
N2122 N 0.81214 0.87692 0.37779 0.0
N2123 N 0.86923 0.93459 0.36962 0.0
H2124 H 0.77847 0.15416 0.12251 0.0
H2125 H 0.9022 0.02656 0.13158 0.0
H2126 H 0.79464 0.10504 0.17244 0.0
H2127 H 0.85779 0.04848 0.08084 0.0
H2128 H 0.87379 0.06602 0.14695 0.0
H2129 H 0.81863 0.12614 0.10764 0.0
C2130 C 0.79088 0.13798 0.13048 0.0
C2131 C 0.78297 0.13171 0.1487 0.0
C2132 C 0.8707 0.06246 0.13239 0.0
C2133 C 0.82888 0.0997 0.13176 0.0
C2134 C 0.88701 0.04011 0.12358 0.0
C2135 C 0.88213 0.03405 0.10493 0.0
C2136 C 0.84974 0.07912 0.12242 0.0
C2137 C 0.862 0.05219 0.09527 0.0
C2138 C 0.81365 0.1219 0.12194 0.0
C2139 C 0.79977 0.11037 0.15831 0.0
N2140 N 0.84642 0.07381 0.10415 0.0
N2141 N 0.82182 0.09499 0.14969 0.0
H2142 H 0.64439 0.04741 0.92013 0.0
H2143 H 0.7037 0.10612 0.82595 0.0
H2144 H 0.59837 0.02849 0.86948 0.0
H2145 H 0.72182 0.15285 0.87645 0.0
H2146 H 0.66395 0.07847 0.84139 0.0
H2147 H 0.67204 0.08712 0.90463 0.0
C2148 C 0.63976 0.05193 0.90582 0.0
C2149 C 0.61919 0.03446 0.89605 0.0
C2150 C 0.67622 0.09519 0.849 0.0
C2151 C 0.65114 0.07949 0.87817 0.0
C2152 C 0.69894 0.11094 0.84021 0.0
C2153 C 0.7162 0.13169 0.84996 0.0
C2154 C 0.67121 0.09967 0.8678 0.0
C2155 C 0.70903 0.1371 0.8684 0.0
C2156 C 0.65549 0.07465 0.897 0.0
C2157 C 0.614 0.04139 0.87755 0.0
N2158 N 0.68746 0.12075 0.87683 0.0
N2159 N 0.6303 0.063 0.86911 0.0
H2160 H 0.7947 0.61939 0.83478 0.0
H2161 H 0.86666 0.54178 0.91688 0.0
H2162 H 0.79551 0.66695 0.88616 0.0
H2163 H 0.91808 0.54767 0.86704 0.0
H2164 H 0.83571 0.58361 0.9062 0.0
H2165 H 0.83603 0.58821 0.84589 0.0
C2166 C 0.80396 0.62354 0.84826 0.0
C2167 C 0.79193 0.64575 0.85957 0.0
C2168 C 0.85414 0.57601 0.89781 0.0
C2169 C 0.83807 0.60977 0.87248 0.0
C2170 C 0.87167 0.5522 0.90384 0.0
C2171 C 0.8949 0.54144 0.89282 0.0
C2172 C 0.85929 0.58823 0.88038 0.0
C2173 C 0.90048 0.55553 0.87598 0.0
C2174 C 0.82745 0.60587 0.85455 0.0
C2175 C 0.80445 0.65019 0.87699 0.0
N2176 N 0.88232 0.57781 0.87005 0.0
N2177 N 0.82645 0.63184 0.88313 0.0
H2178 H 0.7036 0.62014 0.16514 0.0
H2179 H 0.62807 0.5448 0.08362 0.0
H2180 H 0.70046 0.6687 0.11414 0.0
H2181 H 0.57976 0.54769 0.13472 0.0
H2182 H 0.65873 0.58692 0.09411 0.0
H2183 H 0.66152 0.58945 0.15464 0.0
C2184 C 0.69369 0.62462 0.15187 0.0
C2185 C 0.70532 0.64691 0.14047 0.0
C2186 C 0.641 0.57864 0.10283 0.0
C2187 C 0.65824 0.61154 0.12825 0.0
C2188 C 0.62364 0.55467 0.0969 0.0
C2189 C 0.60143 0.54294 0.10834 0.0
C2190 C 0.63676 0.59007 0.12054 0.0
C2191 C 0.59658 0.55632 0.12547 0.0
C2192 C 0.66974 0.60723 0.14594 0.0
C2193 C 0.69189 0.65182 0.12336 0.0
N2194 N 0.61463 0.57878 0.13128 0.0
N2195 N 0.66945 0.63375 0.11754 0.0
H2196 H 0.70408 0.37745 0.33449 0.0
H2197 H 0.62955 0.45325 0.4163 0.0
H2198 H 0.70208 0.32926 0.38565 0.0
H2199 H 0.58022 0.44917 0.3656 0.0
H2200 H 0.66049 0.41137 0.40574 0.0
H2201 H 0.66219 0.40818 0.34525 0.0
C2202 C 0.69446 0.37307 0.34785 0.0
C2203 C 0.70633 0.35085 0.35921 0.0
C2204 C 0.64249 0.41935 0.39713 0.0
C2205 C 0.65949 0.38627 0.37172 0.0
C2206 C 0.62496 0.44317 0.4031 0.0
C2207 C 0.60237 0.45449 0.39179 0.0
C2208 C 0.638 0.40765 0.37951 0.0
C2209 C 0.59733 0.44086 0.37475 0.0
C2210 C 0.67063 0.39048 0.35394 0.0
C2211 C 0.6933 0.34608 0.37646 0.0
N2212 N 0.61552 0.41855 0.3689 0.0
N2213 N 0.67096 0.36417 0.3824 0.0
H2214 H 0.86672 0.45806 0.58354 0.0
H2215 H 0.79471 0.38085 0.66567 0.0
H2216 H 0.91829 0.45312 0.63336 0.0
H2217 H 0.79761 0.332 0.61477 0.0
H2218 H 0.83571 0.41255 0.65458 0.0
H2219 H 0.83606 0.41615 0.59446 0.0
C2220 C 0.87183 0.44781 0.59663 0.0
C2221 C 0.89503 0.45883 0.60757 0.0
C2222 C 0.82765 0.3945 0.64603 0.0
C2223 C 0.85972 0.41202 0.62027 0.0
C2224 C 0.80434 0.37653 0.65231 0.0
C2225 C 0.793 0.3538 0.64112 0.0
C2226 C 0.83874 0.39033 0.62823 0.0
C2227 C 0.806 0.34916 0.62385 0.0
C2228 C 0.85446 0.42399 0.60279 0.0
C2229 C 0.90072 0.44501 0.62448 0.0
N2230 N 0.82778 0.36777 0.61772 0.0
N2231 N 0.8827 0.4227 0.63054 0.0
H2232 H 0.0948 0.47154 0.12813 0.0
H2233 H 0.22076 0.34598 0.11953 0.0
H2234 H 0.14274 0.4529 0.07812 0.0
H2235 H 0.20085 0.39238 0.16992 0.0
H2236 H 0.18104 0.37412 0.10428 0.0
H2237 H 0.12258 0.43147 0.14336 0.0
C2238 C 0.11063 0.45857 0.12023 0.0
C2239 C 0.1167 0.46573 0.10187 0.0
C2240 C 0.18509 0.37772 0.11875 0.0
C2241 C 0.14838 0.41998 0.11919 0.0
C2242 C 0.20762 0.36156 0.1275 0.0
C2243 C 0.21434 0.36708 0.14599 0.0
C2244 C 0.16893 0.39919 0.12862 0.0
C2245 C 0.19665 0.38768 0.15559 0.0
C2246 C 0.12658 0.43587 0.12897 0.0
C2247 C 0.13761 0.44831 0.09235 0.0
N2248 N 0.17486 0.40313 0.14677 0.0
N2249 N 0.15283 0.42635 0.10114 0.0
H2250 H 0.35429 0.45419 0.9225 0.0
H2251 H 0.29685 0.39372 0.82813 0.0
H2252 H 0.40128 0.47206 0.87203 0.0
H2253 H 0.27715 0.34846 0.87893 0.0
H2254 H 0.33606 0.42186 0.84375 0.0
H2255 H 0.32655 0.41454 0.90703 0.0
C2256 C 0.35911 0.44946 0.90824 0.0
C2257 C 0.37998 0.46661 0.89851 0.0
C2258 C 0.32353 0.40537 0.8514 0.0
C2259 C 0.34794 0.42164 0.88066 0.0
C2260 C 0.3011 0.38935 0.8425 0.0
C2261 C 0.28357 0.36885 0.85227 0.0
C2262 C 0.328 0.40138 0.87029 0.0
C2263 C 0.29013 0.36402 0.87086 0.0
C2264 C 0.34332 0.42678 0.89944 0.0
C2265 C 0.3854 0.45941 0.88007 0.0
N2266 N 0.31145 0.38059 0.87936 0.0
N2267 N 0.36907 0.43783 0.87165 0.0
H2268 H 0.40478 0.52821 0.62873 0.0
H2269 H 0.27675 0.6516 0.62046 0.0
H2270 H 0.3556 0.54504 0.5789 0.0
H2271 H 0.29843 0.60619 0.67091 0.0
H2272 H 0.31625 0.6235 0.60495 0.0
H2273 H 0.37638 0.5678 0.6439 0.0
C2274 C 0.3885 0.54064 0.62085 0.0
C2275 C 0.38234 0.5331 0.60255 0.0
C2276 C 0.31262 0.62011 0.61948 0.0
C2277 C 0.34992 0.57836 0.61985 0.0
C2278 C 0.29024 0.63624 0.62838 0.0
C2279 C 0.28411 0.63102 0.64698 0.0
C2280 C 0.32924 0.59896 0.62932 0.0
C2281 C 0.3022 0.61069 0.65651 0.0
C2282 C 0.3722 0.56308 0.62957 0.0
C2283 C 0.36085 0.5499 0.59308 0.0
N2284 N 0.32385 0.59527 0.64755 0.0
N2285 N 0.34529 0.57164 0.60186 0.0
H2286 H 0.14158 0.54647 0.42302 0.0
H2287 H 0.20169 0.60439 0.32876 0.0
H2288 H 0.09659 0.52622 0.37223 0.0
H2289 H 0.21981 0.65085 0.37937 0.0
H2290 H 0.1618 0.57683 0.34411 0.0
H2291 H 0.16913 0.58613 0.40746 0.0
C2292 C 0.13714 0.55073 0.40865 0.0
C2293 C 0.11692 0.5329 0.39887 0.0
C2294 C 0.17412 0.59346 0.35177 0.0
C2295 C 0.14881 0.57784 0.3809 0.0
C2296 C 0.19695 0.60915 0.34303 0.0
C2297 C 0.21428 0.62978 0.35284 0.0
C2298 C 0.16901 0.59793 0.37055 0.0
C2299 C 0.20704 0.63515 0.37127 0.0
C2300 C 0.15282 0.57341 0.39979 0.0
C2301 C 0.11195 0.53946 0.3803 0.0
N2302 N 0.18533 0.6189 0.37963 0.0
N2303 N 0.12824 0.56103 0.37181 0.0
loop_
_geom_bond_atom_site_label_1
_geom_bond_atom_site_label_2
_geom_bond_distance
_geom_bond_site_symmetry_2
_ccdc_geom_bond_type
Mn0 O5 2.095 . S
Mn0 O15 2.162 . S
Mn0 O16 2.297 . S
Mn0 O24 2.385 . S
Mn0 O25 2.209 . S
Mn0 O26 2.094 . S
Mn1 O6 2.121 . S
Mn1 N8 2.257 . S
Mn1 N17 2.282 . S
Mn1 O25 2.215 . S
Mn1 O27 2.117 . S
C2 O24 1.234 . S
C2 O25 1.283 . S
C3 O15 1.281 . S
C3 O16 1.236 . S
C4 O26 1.240 . S
C4 O27 1.264 . S
O5 Mn0 2.095 . S
O5 C14 1.250 . S
O6 Mn1 2.121 . S
O6 C14 1.258 . S
C7 N8 1.326 . S
C7 C11 1.460 . S
C7 H13 0.929 . S
N8 Mn1 2.257 . S
N8 C7 1.326 . S
N8 C12 1.362 . S
C9 C10 1.258 . S
C9 C12 1.431 . S
C9 C29 1.449 . S
C10 C9 1.258 . S
C10 C11 1.477 . S
C10 H30 0.931 . S
C11 C7 1.460 . S
C11 C10 1.477 . S
C11 H31 0.930 . S
C12 N8 1.362 . S
C12 C9 1.431 . S
C12 C22 1.476 . S
H13 C7 0.929 . S
C14 O5 1.250 . S
C14 O6 1.258 . S
O15 Mn0 2.162 . S
O15 C3 1.281 . S
O16 Mn0 2.297 . S
O16 C3 1.236 . S
N17 Mn1 2.282 . S
N17 C18 1.328 . S
N17 C22 1.318 . S
C18 N17 1.328 . S
C18 C19 1.457 . S
C18 H23 0.929 . S
C19 C18 1.457 . S
C19 C20 1.291 . S
C19 H32 0.931 . S
C20 C19 1.291 . S
C20 C21 1.373 . S
C20 H33 0.929 . S
C21 C20 1.373 . S
C21 C22 1.396 . S
C21 C28 1.403 . S
C22 C12 1.476 . S
C22 N17 1.318 . S
C22 C21 1.396 . S
H23 C18 0.929 . S
O24 Mn0 2.385 . S
O24 C2 1.234 . S
O25 Mn0 2.209 . S
O25 Mn1 2.215 . S
O25 C2 1.283 . S
O26 Mn0 2.094 . S
O26 C4 1.240 . S
O27 Mn1 2.117 . S
O27 C4 1.264 . S
C28 C21 1.403 . S
C28 C29 1.399 . S
C28 H34 0.929 . S
C29 C9 1.449 . S
C29 C28 1.399 . S
C29 H35 0.930 . S
H30 C10 0.931 . S
H31 C11 0.930 . S
H32 C19 0.931 . S
H33 C20 0.929 . S
H34 C28 0.929 . S
H35 C29 0.930 . S
Mn36 O41 2.095 . S
Mn36 O51 2.162 1_565 S
Mn36 O52 2.297 . S
Mn36 O60 2.385 . S
Mn36 O61 2.209 . S
Mn36 O62 2.094 . S
Mn37 O42 2.121 . S
Mn37 N44 2.257 . S
Mn37 N53 2.282 . S
Mn37 O61 2.215 . S
Mn37 O63 2.117 1_455 S
C38 O60 1.234 . S
C38 O61 1.283 . S
C39 O51 1.281 . S
C39 O52 1.236 1_545 S
C40 O62 1.240 1_655 S
C40 O63 1.264 . S
O41 Mn36 2.095 . S
O41 C50 1.250 . S
O42 Mn37 2.121 . S
O42 C50 1.258 . S
C43 N44 1.326 . S
C43 C47 1.460 . S
C43 H49 0.929 . S
N44 Mn37 2.257 . S
N44 C43 1.326 . S
N44 C48 1.362 . S
C45 C46 1.258 . S
C45 C48 1.431 . S
C45 C65 1.449 . S
C46 C45 1.258 . S
C46 C47 1.477 . S
C46 H66 0.931 . S
C47 C43 1.460 . S
C47 C46 1.477 . S
C47 H67 0.930 . S
C48 N44 1.362 . S
C48 C45 1.431 . S
C48 C58 1.476 . S
H49 C43 0.929 . S
C50 O41 1.250 . S
C50 O42 1.258 . S
O51 Mn36 2.162 1_545 S
O51 C39 1.281 . S
O52 Mn36 2.297 . S
O52 C39 1.236 1_565 S
N53 Mn37 2.282 . S
N53 C54 1.328 . S
N53 C58 1.318 . S
C54 N53 1.328 . S
C54 C55 1.457 . S
C54 H59 0.929 . S
C55 C54 1.457 . S
C55 C56 1.291 . S
C55 H68 0.931 . S
C56 C55 1.291 . S
C56 C57 1.373 . S
C56 H69 0.929 . S
C57 C56 1.373 . S
C57 C58 1.396 . S
C57 C64 1.403 . S
C58 C48 1.476 . S
C58 N53 1.318 . S
C58 C57 1.396 . S
H59 C54 0.929 . S
O60 Mn36 2.385 . S
O60 C38 1.234 . S
O61 Mn36 2.209 . S
O61 Mn37 2.215 . S
O61 C38 1.283 . S
O62 Mn36 2.094 . S
O62 C40 1.240 1_455 S
O63 Mn37 2.117 1_655 S
O63 C40 1.264 . S
C64 C57 1.403 . S
C64 C65 1.399 . S
C64 H70 0.929 . S
C65 C45 1.449 . S
C65 C64 1.399 . S
C65 H71 0.930 . S
H66 C46 0.931 . S
H67 C47 0.930 . S
H68 C55 0.931 . S
H69 C56 0.929 . S
H70 C64 0.929 . S
H71 C65 0.930 . S
Mn72 O77 2.095 . S
Mn72 O87 2.162 . S
Mn72 O88 2.297 . S
Mn72 O96 2.385 . S
Mn72 O97 2.209 . S
Mn72 O98 2.094 . S
Mn73 O78 2.121 . S
Mn73 N80 2.257 . S
Mn73 N89 2.282 . S
Mn73 O97 2.215 . S
Mn73 O99 2.117 . S
C74 O96 1.234 . S
C74 O97 1.283 . S
C75 O87 1.281 . S
C75 O88 1.236 . S
C76 O98 1.240 . S
C76 O99 1.264 . S
O77 Mn72 2.095 . S
O77 C86 1.250 . S
O78 Mn73 2.121 . S
O78 C86 1.258 . S
C79 N80 1.326 . S
C79 C83 1.460 . S
C79 H85 0.929 . S
N80 Mn73 2.257 . S
N80 C79 1.326 . S
N80 C84 1.362 . S
C81 C82 1.258 . S
C81 C84 1.431 . S
C81 C101 1.449 . S
C82 C81 1.258 . S
C82 C83 1.477 . S
C82 H102 0.931 . S
C83 C79 1.460 . S
C83 C82 1.477 . S
C83 H103 0.930 . S
C84 N80 1.362 . S
C84 C81 1.431 . S
C84 C94 1.476 . S
H85 C79 0.929 . S
C86 O77 1.250 . S
C86 O78 1.258 . S
O87 Mn72 2.162 . S
O87 C75 1.281 . S
O88 Mn72 2.297 . S
O88 C75 1.236 . S
N89 Mn73 2.282 . S
N89 C90 1.328 . S
N89 C94 1.318 . S
C90 N89 1.328 . S
C90 C91 1.457 . S
C90 H95 0.929 . S
C91 C90 1.457 . S
C91 C92 1.291 . S
C91 H104 0.931 . S
C92 C91 1.291 . S
C92 C93 1.373 . S
C92 H105 0.929 . S
C93 C92 1.373 . S
C93 C94 1.396 . S
C93 C100 1.403 . S
C94 C84 1.476 . S
C94 N89 1.318 . S
C94 C93 1.396 . S
H95 C90 0.929 . S
O96 Mn72 2.385 . S
O96 C74 1.234 . S
O97 Mn72 2.209 . S
O97 Mn73 2.215 . S
O97 C74 1.283 . S
O98 Mn72 2.094 . S
O98 C76 1.240 . S
O99 Mn73 2.117 . S
O99 C76 1.264 . S
C100 C93 1.403 . S
C100 C101 1.399 . S
C100 H106 0.929 . S
C101 C81 1.449 . S
C101 C100 1.399 . S
C101 H107 0.930 . S
H102 C82 0.931 . S
H103 C83 0.930 . S
H104 C91 0.931 . S
H105 C92 0.929 . S
H106 C100 0.929 . S
H107 C101 0.930 . S
Mn108 O113 2.095 . S
Mn108 O123 2.162 1_545 S
Mn108 O124 2.316 . S
Mn108 O132 2.385 . S
Mn108 O133 2.209 . S
Mn108 O134 2.094 . S
Mn109 O114 2.121 . S
Mn109 N116 2.257 . S
Mn109 N125 2.282 . S
Mn109 O133 2.215 . S
Mn109 O135 2.117 . S
C110 O132 1.234 . S
C110 O133 1.283 . S
C111 O123 1.281 . S
C111 O124 1.210 1_565 S
C112 O134 1.240 . S
C112 O135 1.264 . S
O113 Mn108 2.095 . S
O113 C122 1.250 . S
O114 Mn109 2.121 . S
O114 C122 1.258 . S
C115 N116 1.326 . S
C115 C119 1.460 . S
C115 H121 0.929 . S
N116 Mn109 2.257 . S
N116 C115 1.326 . S
N116 C120 1.362 . S
C117 C118 1.258 . S
C117 C120 1.431 . S
C117 C137 1.449 . S
C118 C117 1.258 . S
C118 C119 1.477 . S
C118 H138 0.931 . S
C119 C115 1.460 . S
C119 C118 1.477 . S
C119 H139 0.930 . S
C120 N116 1.362 . S
C120 C117 1.431 . S
C120 C130 1.476 . S
H121 C115 0.929 . S
C122 O113 1.250 . S
C122 O114 1.258 . S
O123 Mn108 2.162 1_565 S
O123 C111 1.281 . S
O124 Mn108 2.316 . S
O124 C111 1.210 1_545 S
N125 Mn109 2.282 . S
N125 C126 1.328 . S
N125 C130 1.318 . S
C126 N125 1.328 . S
C126 C127 1.457 . S
C126 H131 0.929 . S
C127 C126 1.457 . S
C127 C128 1.291 . S
C127 H140 0.931 . S
C128 C127 1.291 . S
C128 C129 1.373 . S
C128 H141 0.929 . S
C129 C128 1.373 . S
C129 C130 1.396 . S
C129 C136 1.403 . S
C130 C120 1.476 . S
C130 N125 1.318 . S
C130 C129 1.396 . S
H131 C126 0.929 . S
O132 Mn108 2.385 . S
O132 C110 1.234 . S
O133 Mn108 2.209 . S
O133 Mn109 2.215 . S
O133 C110 1.283 . S
O134 Mn108 2.094 . S
O134 C112 1.240 . S
O135 Mn109 2.117 . S
O135 C112 1.264 . S
C136 C129 1.403 . S
C136 C137 1.399 . S
C136 H142 0.929 . S
C137 C117 1.449 . S
C137 C136 1.399 . S
C137 H143 0.930 . S
H138 C118 0.931 . S
H139 C119 0.930 . S
H140 C127 0.931 . S
H141 C128 0.929 . S
H142 C136 0.929 . S
H143 C137 0.930 . S
Mn144 O149 2.095 . S
Mn144 O159 2.162 . S
Mn144 O160 2.297 . S
Mn144 O168 2.385 . S
Mn144 O169 2.209 . S
Mn144 O170 2.094 . S
Mn145 O150 2.121 . S
Mn145 N152 2.257 . S
Mn145 N161 2.282 . S
Mn145 O169 2.215 . S
Mn145 O171 2.117 . S
C146 O168 1.234 . S
C146 O169 1.283 . S
C147 O159 1.281 . S
C147 O160 1.236 . S
C148 O170 1.240 . S
C148 O171 1.264 . S
O149 Mn144 2.095 . S
O149 C158 1.250 . S
O150 Mn145 2.121 . S
O150 C158 1.258 . S
C151 N152 1.326 . S
C151 C155 1.460 . S
C151 H157 0.929 . S
N152 Mn145 2.257 . S
N152 C151 1.326 . S
N152 C156 1.362 . S
C153 C154 1.258 . S
C153 C156 1.431 . S
C153 C173 1.449 . S
C154 C153 1.258 . S
C154 C155 1.477 . S
C154 H174 0.931 . S
C155 C151 1.460 . S
C155 C154 1.477 . S
C155 H175 0.930 . S
C156 N152 1.362 . S
C156 C153 1.431 . S
C156 C166 1.476 . S
H157 C151 0.929 . S
C158 O149 1.250 . S
C158 O150 1.258 . S
O159 Mn144 2.162 . S
O159 C147 1.281 . S
O160 Mn144 2.297 . S
O160 C147 1.236 . S
N161 Mn145 2.282 . S
N161 C162 1.328 . S
N161 C166 1.318 . S
C162 N161 1.328 . S
C162 C163 1.457 . S
C162 H167 0.929 . S
C163 C162 1.457 . S
C163 C164 1.291 . S
C163 H176 0.931 . S
C164 C163 1.291 . S
C164 C165 1.373 . S
C164 H177 0.929 . S
C165 C164 1.373 . S
C165 C166 1.396 . S
C165 C172 1.403 . S
C166 C156 1.476 . S
C166 N161 1.318 . S
C166 C165 1.396 . S
H167 C162 0.929 . S
O168 Mn144 2.385 . S
O168 C146 1.234 . S
O169 Mn144 2.209 . S
O169 Mn145 2.215 . S
O169 C146 1.283 . S
O170 Mn144 2.094 . S
O170 C148 1.240 . S
O171 Mn145 2.117 . S
O171 C148 1.264 . S
C172 C165 1.403 . S
C172 C173 1.399 . S
C172 H178 0.929 . S
C173 C153 1.449 . S
C173 C172 1.399 . S
C173 H179 0.930 . S
H174 C154 0.931 . S
H175 C155 0.930 . S
H176 C163 0.931 . S
H177 C164 0.929 . S
H178 C172 0.929 . S
H179 C173 0.930 . S
Mn180 O185 2.095 . S
Mn180 O195 2.162 1_565 S
Mn180 O196 2.297 . S
Mn180 O204 2.385 . S
Mn180 O205 2.209 . S
Mn180 O206 2.094 . S
Mn181 O186 2.121 . S
Mn181 N188 2.257 . S
Mn181 N197 2.282 . S
Mn181 O205 2.215 . S
Mn181 O207 2.117 . S
C182 O204 1.234 . S
C182 O205 1.283 . S
C183 O195 1.281 . S
C183 O196 1.236 1_545 S
C184 O206 1.240 . S
C184 O207 1.264 . S
O185 Mn180 2.095 . S
O185 C194 1.250 . S
O186 Mn181 2.121 . S
O186 C194 1.258 . S
C187 N188 1.326 . S
C187 C191 1.460 . S
C187 H193 0.929 . S
N188 Mn181 2.257 . S
N188 C187 1.326 . S
N188 C192 1.362 . S
C189 C190 1.258 . S
C189 C192 1.431 . S
C189 C209 1.449 . S
C190 C189 1.258 . S
C190 C191 1.477 . S
C190 H210 0.931 . S
C191 C187 1.460 . S
C191 C190 1.477 . S
C191 H211 0.930 . S
C192 N188 1.362 . S
C192 C189 1.431 . S
C192 C202 1.476 . S
H193 C187 0.929 . S
C194 O185 1.250 . S
C194 O186 1.258 . S
O195 Mn180 2.162 1_545 S
O195 C183 1.281 . S
O196 Mn180 2.297 . S
O196 C183 1.236 1_565 S
N197 Mn181 2.282 . S
N197 C198 1.328 . S
N197 C202 1.318 . S
C198 N197 1.328 . S
C198 C199 1.457 . S
C198 H203 0.929 . S
C199 C198 1.457 . S
C199 C200 1.291 . S
C199 H212 0.931 . S
C200 C199 1.291 . S
C200 C201 1.373 . S
C200 H213 0.929 . S
C201 C200 1.373 . S
C201 C202 1.396 . S
C201 C208 1.403 . S
C202 C192 1.476 . S
C202 N197 1.318 . S
C202 C201 1.396 . S
H203 C198 0.929 . S
O204 Mn180 2.385 . S
O204 C182 1.234 . S
O205 Mn180 2.209 . S
O205 Mn181 2.215 . S
O205 C182 1.283 . S
O206 Mn180 2.094 . S
O206 C184 1.240 . S
O207 Mn181 2.117 . S
O207 C184 1.264 . S
C208 C201 1.403 . S
C208 C209 1.399 . S
C208 H214 0.929 . S
C209 C189 1.449 . S
C209 C208 1.399 . S
C209 H215 0.930 . S
H210 C190 0.931 . S
H211 C191 0.930 . S
H212 C199 0.931 . S
H213 C200 0.929 . S
H214 C208 0.929 . S
H215 C209 0.930 . S
Mn216 O221 2.095 . S
Mn216 O231 2.162 . S
Mn216 O232 2.297 . S
Mn216 O240 2.385 . S
Mn216 O241 2.209 . S
Mn216 O242 2.094 . S
Mn217 O222 2.121 . S
Mn217 N224 2.257 . S
Mn217 N233 2.282 . S
Mn217 O241 2.215 . S
Mn217 O243 2.117 . S
C218 O240 1.234 . S
C218 O241 1.283 . S
C219 O231 1.281 . S
C219 O232 1.236 . S
C220 O242 1.240 . S
C220 O243 1.264 . S
O221 Mn216 2.095 . S
O221 C230 1.250 . S
O222 Mn217 2.121 . S
O222 C230 1.258 . S
C223 N224 1.326 . S
C223 C227 1.460 . S
C223 H229 0.929 . S
N224 Mn217 2.257 . S
N224 C223 1.326 . S
N224 C228 1.362 . S
C225 C226 1.258 . S
C225 C228 1.431 . S
C225 C245 1.449 . S
C226 C225 1.258 . S
C226 C227 1.477 . S
C226 H246 0.931 . S
C227 C223 1.460 . S
C227 C226 1.477 . S
C227 H247 0.930 . S
C228 N224 1.362 . S
C228 C225 1.431 . S
C228 C238 1.476 . S
H229 C223 0.929 . S
C230 O221 1.250 . S
C230 O222 1.258 . S
O231 Mn216 2.162 . S
O231 C219 1.281 . S
O232 Mn216 2.297 . S
O232 C219 1.236 . S
N233 Mn217 2.282 . S
N233 C234 1.328 . S
N233 C238 1.318 . S
C234 N233 1.328 . S
C234 C235 1.457 . S
C234 H239 0.929 . S
C235 C234 1.457 . S
C235 C236 1.291 . S
C235 H248 0.931 . S
C236 C235 1.291 . S
C236 C237 1.373 . S
C236 H249 0.929 . S
C237 C236 1.373 . S
C237 C238 1.396 . S
C237 C244 1.403 . S
C238 C228 1.476 . S
C238 N233 1.318 . S
C238 C237 1.396 . S
H239 C234 0.929 . S
O240 Mn216 2.385 . S
O240 C218 1.234 . S
O241 Mn216 2.209 . S
O241 Mn217 2.215 . S
O241 C218 1.283 . S
O242 Mn216 2.094 . S
O242 C220 1.240 . S
O243 Mn217 2.117 . S
O243 C220 1.264 . S
C244 C237 1.403 . S
C244 C245 1.399 . S
C244 H250 0.929 . S
C245 C225 1.449 . S
C245 C244 1.399 . S
C245 H251 0.930 . S
H246 C226 0.931 . S
H247 C227 0.930 . S
H248 C235 0.931 . S
H249 C236 0.929 . S
H250 C244 0.929 . S
H251 C245 0.930 . S
Mn252 O257 2.095 . S
Mn252 O267 2.162 1_545 S
Mn252 O268 2.316 . S
Mn252 O276 2.385 . S
Mn252 O277 2.209 . S
Mn252 O278 2.094 . S
Mn253 O258 2.121 . S
Mn253 N260 2.257 . S
Mn253 N269 2.282 . S
Mn253 O277 2.215 . S
Mn253 O279 2.117 1_455 S
C254 O276 1.234 . S
C254 O277 1.283 . S
C255 O267 1.281 . S
C255 O268 1.210 1_565 S
C256 O278 1.240 1_655 S
C256 O279 1.264 . S
O257 Mn252 2.095 . S
O257 C266 1.250 . S
O258 Mn253 2.121 . S
O258 C266 1.258 . S
C259 N260 1.326 . S
C259 C263 1.460 . S
C259 H265 0.929 . S
N260 Mn253 2.257 . S
N260 C259 1.326 . S
N260 C264 1.362 . S
C261 C262 1.258 . S
C261 C264 1.431 . S
C261 C281 1.449 . S
C262 C261 1.258 . S
C262 C263 1.477 . S
C262 H282 0.931 . S
C263 C259 1.460 . S
C263 C262 1.477 . S
C263 H283 0.930 . S
C264 N260 1.362 . S
C264 C261 1.431 . S
C264 C274 1.476 . S
H265 C259 0.929 . S
C266 O257 1.250 . S
C266 O258 1.258 . S
O267 Mn252 2.162 1_565 S
O267 C255 1.281 . S
O268 Mn252 2.316 . S
O268 C255 1.210 1_545 S
N269 Mn253 2.282 . S
N269 C270 1.328 . S
N269 C274 1.318 . S
C270 N269 1.328 . S
C270 C271 1.457 . S
C270 H275 0.929 . S
C271 C270 1.457 . S
C271 C272 1.291 . S
C271 H284 0.931 . S
C272 C271 1.291 . S
C272 C273 1.373 . S
C272 H285 0.929 . S
C273 C272 1.373 . S
C273 C274 1.396 . S
C273 C280 1.403 . S
C274 C264 1.476 . S
C274 N269 1.318 . S
C274 C273 1.396 . S
H275 C270 0.929 . S
O276 Mn252 2.385 . S
O276 C254 1.234 . S
O277 Mn252 2.209 . S
O277 Mn253 2.215 . S
O277 C254 1.283 . S
O278 Mn252 2.094 . S
O278 C256 1.240 1_455 S
O279 Mn253 2.117 1_655 S
O279 C256 1.264 . S
C280 C273 1.403 . S
C280 C281 1.399 . S
C280 H286 0.929 . S
C281 C261 1.449 . S
C281 C280 1.399 . S
C281 H287 0.930 . S
H282 C262 0.931 . S
H283 C263 0.930 . S
H284 C271 0.931 . S
H285 C272 0.929 . S
H286 C280 0.929 . S
H287 C281 0.930 . S
Mn288 O293 2.095 . S
Mn288 O303 2.162 . S
Mn288 O304 2.297 . S
Mn288 O312 2.385 . S
Mn288 O313 2.209 . S
Mn288 O314 2.094 . S
Mn289 O294 2.121 . S
Mn289 N296 2.257 . S
Mn289 N305 2.282 . S
Mn289 O313 2.215 . S
Mn289 O315 2.117 . S
C290 O312 1.234 . S
C290 O313 1.283 . S
C291 O303 1.281 . S
C291 O304 1.236 . S
C292 O314 1.240 . S
C292 O315 1.264 . S
O293 Mn288 2.095 . S
O293 C302 1.250 . S
O294 Mn289 2.121 . S
O294 C302 1.258 . S
C295 N296 1.326 . S
C295 C299 1.460 . S
C295 H301 0.929 . S
N296 Mn289 2.257 . S
N296 C295 1.326 . S
N296 C300 1.362 . S
C297 C298 1.258 . S
C297 C300 1.431 . S
C297 C317 1.449 . S
C298 C297 1.258 . S
C298 C299 1.477 . S
C298 H318 0.931 . S
C299 C295 1.460 . S
C299 C298 1.477 . S
C299 H319 0.930 . S
C300 N296 1.362 . S
C300 C297 1.431 . S
C300 C310 1.476 . S
H301 C295 0.929 . S
C302 O293 1.250 . S
C302 O294 1.258 . S
O303 Mn288 2.162 . S
O303 C291 1.281 . S
O304 Mn288 2.297 . S
O304 C291 1.236 . S
N305 Mn289 2.282 . S
N305 C306 1.328 . S
N305 C310 1.318 . S
C306 N305 1.328 . S
C306 C307 1.457 . S
C306 H311 0.929 . S
C307 C306 1.457 . S
C307 C308 1.291 . S
C307 H320 0.931 . S
C308 C307 1.291 . S
C308 C309 1.373 . S
C308 H321 0.929 . S
C309 C308 1.373 . S
C309 C310 1.396 . S
C309 C316 1.403 . S
C310 C300 1.476 . S
C310 N305 1.318 . S
C310 C309 1.396 . S
H311 C306 0.929 . S
O312 Mn288 2.385 . S
O312 C290 1.234 . S
O313 Mn288 2.209 . S
O313 Mn289 2.215 . S
O313 C290 1.283 . S
O314 Mn288 2.094 . S
O314 C292 1.240 . S
O315 Mn289 2.117 . S
O315 C292 1.264 . S
C316 C309 1.403 . S
C316 C317 1.399 . S
C316 H322 0.929 . S
C317 C297 1.449 . S
C317 C316 1.399 . S
C317 H323 0.930 . S
H318 C298 0.931 . S
H319 C299 0.930 . S
H320 C307 0.931 . S
H321 C308 0.929 . S
H322 C316 0.929 . S
H323 C317 0.930 . S
Mn324 O329 2.095 . S
Mn324 O339 2.162 1_655 S
Mn324 O340 2.297 . S
Mn324 O348 2.385 . S
Mn324 O349 2.209 . S
Mn324 O350 2.094 1_545 S
Mn325 O330 2.121 . S
Mn325 N332 2.257 . S
Mn325 N341 2.282 . S
Mn325 O349 2.215 . S
Mn325 O351 2.117 1_545 S
C326 O348 1.234 . S
C326 O349 1.283 . S
C327 O339 1.281 . S
C327 O340 1.236 1_455 S
C328 O350 1.240 . S
C328 O351 1.264 . S
O329 Mn324 2.095 . S
O329 C338 1.250 . S
O330 Mn325 2.121 . S
O330 C338 1.258 . S
C331 N332 1.326 . S
C331 C335 1.460 . S
C331 H337 0.929 . S
N332 Mn325 2.257 . S
N332 C331 1.326 . S
N332 C336 1.362 . S
C333 C334 1.258 . S
C333 C336 1.431 . S
C333 C353 1.449 . S
C334 C333 1.258 . S
C334 C335 1.477 . S
C334 H354 0.931 . S
C335 C331 1.460 . S
C335 C334 1.477 . S
C335 H355 0.930 . S
C336 N332 1.362 . S
C336 C333 1.431 . S
C336 C346 1.476 . S
H337 C331 0.929 . S
C338 O329 1.250 . S
C338 O330 1.258 . S
O339 Mn324 2.162 1_455 S
O339 C327 1.281 . S
O340 Mn324 2.297 . S
O340 C327 1.236 1_655 S
N341 Mn325 2.282 . S
N341 C342 1.328 . S
N341 C346 1.318 . S
C342 N341 1.328 . S
C342 C343 1.457 . S
C342 H347 0.929 . S
C343 C342 1.457 . S
C343 C344 1.291 . S
C343 H356 0.931 . S
C344 C343 1.291 . S
C344 C345 1.373 . S
C344 H357 0.929 . S
C345 C344 1.373 . S
C345 C346 1.396 . S
C345 C352 1.403 . S
C346 C336 1.476 . S
C346 N341 1.318 . S
C346 C345 1.396 . S
H347 C342 0.929 . S
O348 Mn324 2.385 . S
O348 C326 1.234 . S
O349 Mn324 2.209 . S
O349 Mn325 2.215 . S
O349 C326 1.283 . S
O350 Mn324 2.094 1_565 S
O350 C328 1.240 . S
O351 Mn325 2.117 1_565 S
O351 C328 1.264 . S
C352 C345 1.403 . S
C352 C353 1.399 . S
C352 H358 0.929 . S
C353 C333 1.449 . S
C353 C352 1.399 . S
C353 H359 0.930 . S
H354 C334 0.931 . S
H355 C335 0.930 . S
H356 C343 0.931 . S
H357 C344 0.929 . S
H358 C352 0.929 . S
H359 C353 0.930 . S
Mn360 O365 2.095 . S
Mn360 O375 2.162 . S
Mn360 O376 2.297 . S
Mn360 O384 2.385 . S
Mn360 O385 2.209 . S
Mn360 O386 2.094 . S
Mn361 O366 2.121 . S
Mn361 N368 2.257 . S
Mn361 N377 2.282 . S
Mn361 O385 2.215 . S
Mn361 O387 2.117 . S
C362 O384 1.234 . S
C362 O385 1.283 . S
C363 O375 1.281 . S
C363 O376 1.236 . S
C364 O386 1.240 . S
C364 O387 1.264 . S
O365 Mn360 2.095 . S
O365 C374 1.250 . S
O366 Mn361 2.121 . S
O366 C374 1.258 . S
C367 N368 1.326 . S
C367 C371 1.460 . S
C367 H373 0.929 . S
N368 Mn361 2.257 . S
N368 C367 1.326 . S
N368 C372 1.362 . S
C369 C370 1.258 . S
C369 C372 1.431 . S
C369 C389 1.449 . S
C370 C369 1.258 . S
C370 C371 1.477 . S
C370 H390 0.931 . S
C371 C367 1.460 . S
C371 C370 1.477 . S
C371 H391 0.930 . S
C372 N368 1.362 . S
C372 C369 1.431 . S
C372 C382 1.476 . S
H373 C367 0.929 . S
C374 O365 1.250 . S
C374 O366 1.258 . S
O375 Mn360 2.162 . S
O375 C363 1.281 . S
O376 Mn360 2.297 . S
O376 C363 1.236 . S
N377 Mn361 2.282 . S
N377 C378 1.328 . S
N377 C382 1.318 . S
C378 N377 1.328 . S
C378 C379 1.457 . S
C378 H383 0.929 . S
C379 C378 1.457 . S
C379 C380 1.291 . S
C379 H392 0.931 . S
C380 C379 1.291 . S
C380 C381 1.373 . S
C380 H393 0.929 . S
C381 C380 1.373 . S
C381 C382 1.396 . S
C381 C388 1.403 . S
C382 C372 1.476 . S
C382 N377 1.318 . S
C382 C381 1.396 . S
H383 C378 0.929 . S
O384 Mn360 2.385 . S
O384 C362 1.234 . S
O385 Mn360 2.209 . S
O385 Mn361 2.215 . S
O385 C362 1.283 . S
O386 Mn360 2.094 . S
O386 C364 1.240 . S
O387 Mn361 2.117 . S
O387 C364 1.264 . S
C388 C381 1.403 . S
C388 C389 1.399 . S
C388 H394 0.929 . S
C389 C369 1.449 . S
C389 C388 1.399 . S
C389 H395 0.930 . S
H390 C370 0.931 . S
H391 C371 0.930 . S
H392 C379 0.931 . S
H393 C380 0.929 . S
H394 C388 0.929 . S
H395 C389 0.930 . S
Mn396 O401 2.095 . S
Mn396 O411 2.162 . S
Mn396 O412 2.297 . S
Mn396 O420 2.385 . S
Mn396 O421 2.209 . S
Mn396 O422 2.094 1_565 S
Mn397 O402 2.121 . S
Mn397 N404 2.257 . S
Mn397 N413 2.282 . S
Mn397 O421 2.215 . S
Mn397 O423 2.117 1_565 S
C398 O420 1.234 . S
C398 O421 1.283 . S
C399 O411 1.281 . S
C399 O412 1.236 . S
C400 O422 1.240 . S
C400 O423 1.264 . S
O401 Mn396 2.095 . S
O401 C410 1.250 . S
O402 Mn397 2.121 . S
O402 C410 1.258 . S
C403 N404 1.326 . S
C403 C407 1.460 . S
C403 H409 0.929 . S
N404 Mn397 2.257 . S
N404 C403 1.326 . S
N404 C408 1.362 . S
C405 C406 1.258 . S
C405 C408 1.431 . S
C405 C425 1.449 . S
C406 C405 1.258 . S
C406 C407 1.477 . S
C406 H426 0.931 . S
C407 C403 1.460 . S
C407 C406 1.477 . S
C407 H427 0.930 . S
C408 N404 1.362 . S
C408 C405 1.431 . S
C408 C418 1.476 . S
H409 C403 0.929 . S
C410 O401 1.250 . S
C410 O402 1.258 . S
O411 Mn396 2.162 . S
O411 C399 1.281 . S
O412 Mn396 2.297 . S
O412 C399 1.236 . S
N413 Mn397 2.282 . S
N413 C414 1.328 . S
N413 C418 1.318 . S
C414 N413 1.328 . S
C414 C415 1.457 . S
C414 H419 0.929 . S
C415 C414 1.457 . S
C415 C416 1.291 . S
C415 H428 0.931 . S
C416 C415 1.291 . S
C416 C417 1.373 . S
C416 H429 0.929 . S
C417 C416 1.373 . S
C417 C418 1.396 . S
C417 C424 1.403 . S
C418 C408 1.476 . S
C418 N413 1.318 . S
C418 C417 1.396 . S
H419 C414 0.929 . S
O420 Mn396 2.385 . S
O420 C398 1.234 . S
O421 Mn396 2.209 . S
O421 Mn397 2.215 . S
O421 C398 1.283 . S
O422 Mn396 2.094 1_545 S
O422 C400 1.240 . S
O423 Mn397 2.117 1_545 S
O423 C400 1.264 . S
C424 C417 1.403 . S
C424 C425 1.399 . S
C424 H430 0.929 . S
C425 C405 1.449 . S
C425 C424 1.399 . S
C425 H431 0.930 . S
H426 C406 0.931 . S
H427 C407 0.930 . S
H428 C415 0.931 . S
H429 C416 0.929 . S
H430 C424 0.929 . S
H431 C425 0.930 . S
Mn432 O437 2.095 . S
Mn432 O447 2.162 . S
Mn432 O448 2.297 . S
Mn432 O456 2.385 . S
Mn432 O457 2.209 . S
Mn432 O458 2.094 . S
Mn433 O438 2.121 . S
Mn433 N440 2.257 . S
Mn433 N449 2.282 . S
Mn433 O457 2.215 . S
Mn433 O459 2.117 . S
C434 O456 1.234 . S
C434 O457 1.283 . S
C435 O447 1.281 . S
C435 O448 1.236 . S
C436 O458 1.240 . S
C436 O459 1.264 . S
O437 Mn432 2.095 . S
O437 C446 1.250 . S
O438 Mn433 2.121 . S
O438 C446 1.258 . S
C439 N440 1.326 . S
C439 C443 1.460 . S
C439 H445 0.929 . S
N440 Mn433 2.257 . S
N440 C439 1.326 . S
N440 C444 1.362 . S
C441 C442 1.258 . S
C441 C444 1.431 . S
C441 C461 1.449 . S
C442 C441 1.258 . S
C442 C443 1.477 . S
C442 H462 0.931 . S
C443 C439 1.460 . S
C443 C442 1.477 . S
C443 H463 0.930 . S
C444 N440 1.362 . S
C444 C441 1.431 . S
C444 C454 1.476 . S
H445 C439 0.929 . S
C446 O437 1.250 . S
C446 O438 1.258 . S
O447 Mn432 2.162 . S
O447 C435 1.281 . S
O448 Mn432 2.297 . S
O448 C435 1.236 . S
N449 Mn433 2.282 . S
N449 C450 1.328 . S
N449 C454 1.318 . S
C450 N449 1.328 . S
C450 C451 1.457 . S
C450 H455 0.929 . S
C451 C450 1.457 . S
C451 C452 1.291 . S
C451 H464 0.931 . S
C452 C451 1.291 . S
C452 C453 1.373 . S
C452 H465 0.929 . S
C453 C452 1.373 . S
C453 C454 1.396 . S
C453 C460 1.403 . S
C454 C444 1.476 . S
C454 N449 1.318 . S
C454 C453 1.396 . S
H455 C450 0.929 . S
O456 Mn432 2.385 . S
O456 C434 1.234 . S
O457 Mn432 2.209 . S
O457 Mn433 2.215 . S
O457 C434 1.283 . S
O458 Mn432 2.094 . S
O458 C436 1.240 . S
O459 Mn433 2.117 . S
O459 C436 1.264 . S
C460 C453 1.403 . S
C460 C461 1.399 . S
C460 H466 0.929 . S
C461 C441 1.449 . S
C461 C460 1.399 . S
C461 H467 0.930 . S
H462 C442 0.931 . S
H463 C443 0.930 . S
H464 C451 0.931 . S
H465 C452 0.929 . S
H466 C460 0.929 . S
H467 C461 0.930 . S
Mn468 O473 2.095 . S
Mn468 O483 2.162 . S
Mn468 O484 2.297 . S
Mn468 O492 2.385 . S
Mn468 O493 2.209 . S
Mn468 O494 2.094 1_545 S
Mn469 O474 2.121 . S
Mn469 N476 2.257 . S
Mn469 N485 2.282 . S
Mn469 O493 2.215 . S
Mn469 O495 2.117 1_545 S
C470 O492 1.234 . S
C470 O493 1.283 . S
C471 O483 1.281 . S
C471 O484 1.236 . S
C472 O494 1.240 . S
C472 O495 1.264 . S
O473 Mn468 2.095 . S
O473 C482 1.250 . S
O474 Mn469 2.121 . S
O474 C482 1.258 . S
C475 N476 1.326 . S
C475 C479 1.460 . S
C475 H481 0.929 . S
N476 Mn469 2.257 . S
N476 C475 1.326 . S
N476 C480 1.362 . S
C477 C478 1.258 . S
C477 C480 1.431 . S
C477 C497 1.449 . S
C478 C477 1.258 . S
C478 C479 1.477 . S
C478 H498 0.931 . S
C479 C475 1.460 . S
C479 C478 1.477 . S
C479 H499 0.930 . S
C480 N476 1.362 . S
C480 C477 1.431 . S
C480 C490 1.476 . S
H481 C475 0.929 . S
C482 O473 1.250 . S
C482 O474 1.258 . S
O483 Mn468 2.162 . S
O483 C471 1.281 . S
O484 Mn468 2.297 . S
O484 C471 1.236 . S
N485 Mn469 2.282 . S
N485 C486 1.328 . S
N485 C490 1.318 . S
C486 N485 1.328 . S
C486 C487 1.457 . S
C486 H491 0.929 . S
C487 C486 1.457 . S
C487 C488 1.291 . S
C487 H500 0.931 . S
C488 C487 1.291 . S
C488 C489 1.373 . S
C488 H501 0.929 . S
C489 C488 1.373 . S
C489 C490 1.396 . S
C489 C496 1.403 . S
C490 C480 1.476 . S
C490 N485 1.318 . S
C490 C489 1.396 . S
H491 C486 0.929 . S
O492 Mn468 2.385 . S
O492 C470 1.234 . S
O493 Mn468 2.209 . S
O493 Mn469 2.215 . S
O493 C470 1.283 . S
O494 Mn468 2.094 1_565 S
O494 C472 1.240 . S
O495 Mn469 2.117 1_565 S
O495 C472 1.264 . S
C496 C489 1.403 . S
C496 C497 1.399 . S
C496 H502 0.929 . S
C497 C477 1.449 . S
C497 C496 1.399 . S
C497 H503 0.930 . S
H498 C478 0.931 . S
H499 C479 0.930 . S
H500 C487 0.931 . S
H501 C488 0.929 . S
H502 C496 0.929 . S
H503 C497 0.930 . S
Mn504 O509 2.095 . S
Mn504 O519 2.162 . S
Mn504 O520 2.297 . S
Mn504 O528 2.385 . S
Mn504 O529 2.209 . S
Mn504 O530 2.094 . S
Mn505 O510 2.121 . S
Mn505 N512 2.257 . S
Mn505 N521 2.282 . S
Mn505 O529 2.215 . S
Mn505 O531 2.117 . S
C506 O528 1.234 . S
C506 O529 1.283 . S
C507 O519 1.281 . S
C507 O520 1.236 . S
C508 O530 1.240 . S
C508 O531 1.264 . S
O509 Mn504 2.095 . S
O509 C518 1.250 . S
O510 Mn505 2.121 . S
O510 C518 1.258 . S
C511 N512 1.326 . S
C511 C515 1.460 . S
C511 H517 0.929 . S
N512 Mn505 2.257 . S
N512 C511 1.326 . S
N512 C516 1.362 . S
C513 C514 1.258 . S
C513 C516 1.431 . S
C513 C533 1.449 . S
C514 C513 1.258 . S
C514 C515 1.477 . S
C514 H534 0.931 . S
C515 C511 1.460 . S
C515 C514 1.477 . S
C515 H535 0.930 . S
C516 N512 1.362 . S
C516 C513 1.431 . S
C516 C526 1.476 . S
H517 C511 0.929 . S
C518 O509 1.250 . S
C518 O510 1.258 . S
O519 Mn504 2.162 . S
O519 C507 1.281 . S
O520 Mn504 2.297 . S
O520 C507 1.236 . S
N521 Mn505 2.282 . S
N521 C522 1.328 . S
N521 C526 1.318 . S
C522 N521 1.328 . S
C522 C523 1.457 . S
C522 H527 0.929 . S
C523 C522 1.457 . S
C523 C524 1.291 . S
C523 H536 0.931 . S
C524 C523 1.291 . S
C524 C525 1.373 . S
C524 H537 0.929 . S
C525 C524 1.373 . S
C525 C526 1.396 . S
C525 C532 1.403 . S
C526 C516 1.476 . S
C526 N521 1.318 . S
C526 C525 1.396 . S
H527 C522 0.929 . S
O528 Mn504 2.385 . S
O528 C506 1.234 . S
O529 Mn504 2.209 . S
O529 Mn505 2.215 . S
O529 C506 1.283 . S
O530 Mn504 2.094 . S
O530 C508 1.240 . S
O531 Mn505 2.117 . S
O531 C508 1.264 . S
C532 C525 1.403 . S
C532 C533 1.399 . S
C532 H538 0.929 . S
C533 C513 1.449 . S
C533 C532 1.399 . S
C533 H539 0.930 . S
H534 C514 0.931 . S
H535 C515 0.930 . S
H536 C523 0.931 . S
H537 C524 0.929 . S
H538 C532 0.929 . S
H539 C533 0.930 . S
Mn540 O545 2.095 . S
Mn540 O555 2.162 1_655 S
Mn540 O556 2.297 . S
Mn540 O564 2.385 . S
Mn540 O565 2.209 . S
Mn540 O566 2.094 1_565 S
Mn541 O546 2.121 . S
Mn541 N548 2.257 . S
Mn541 N557 2.282 . S
Mn541 O565 2.215 . S
Mn541 O567 2.117 1_565 S
C542 O564 1.234 . S
C542 O565 1.283 . S
C543 O555 1.281 . S
C543 O556 1.236 1_455 S
C544 O566 1.240 . S
C544 O567 1.264 . S
O545 Mn540 2.095 . S
O545 C554 1.250 . S
O546 Mn541 2.121 . S
O546 C554 1.258 . S
C547 N548 1.326 . S
C547 C551 1.460 . S
C547 H553 0.929 . S
N548 Mn541 2.257 . S
N548 C547 1.326 . S
N548 C552 1.362 . S
C549 C550 1.258 . S
C549 C552 1.431 . S
C549 C569 1.449 . S
C550 C549 1.258 . S
C550 C551 1.477 . S
C550 H570 0.931 . S
C551 C547 1.460 . S
C551 C550 1.477 . S
C551 H571 0.930 . S
C552 N548 1.362 . S
C552 C549 1.431 . S
C552 C562 1.476 . S
H553 C547 0.929 . S
C554 O545 1.250 . S
C554 O546 1.258 . S
O555 Mn540 2.162 1_455 S
O555 C543 1.281 . S
O556 Mn540 2.297 . S
O556 C543 1.236 1_655 S
N557 Mn541 2.282 . S
N557 C558 1.328 . S
N557 C562 1.318 . S
C558 N557 1.328 . S
C558 C559 1.457 . S
C558 H563 0.929 . S
C559 C558 1.457 . S
C559 C560 1.291 . S
C559 H572 0.931 . S
C560 C559 1.291 . S
C560 C561 1.373 . S
C560 H573 0.929 . S
C561 C560 1.373 . S
C561 C562 1.396 . S
C561 C568 1.403 . S
C562 C552 1.476 . S
C562 N557 1.318 . S
C562 C561 1.396 . S
H563 C558 0.929 . S
O564 Mn540 2.385 . S
O564 C542 1.234 . S
O565 Mn540 2.209 . S
O565 Mn541 2.215 . S
O565 C542 1.283 . S
O566 Mn540 2.094 1_545 S
O566 C544 1.240 . S
O567 Mn541 2.117 1_545 S
O567 C544 1.264 . S
C568 C561 1.403 . S
C568 C569 1.399 . S
C568 H574 0.929 . S
C569 C549 1.449 . S
C569 C568 1.399 . S
C569 H575 0.930 . S
H570 C550 0.931 . S
H571 C551 0.930 . S
H572 C559 0.931 . S
H573 C560 0.929 . S
H574 C568 0.929 . S
H575 C569 0.930 . S
Mn576 O581 2.095 . S
Mn576 O591 2.162 . S
Mn576 O592 2.297 . S
Mn576 O600 2.385 . S
Mn576 O601 2.209 . S
Mn576 O602 2.094 . S
Mn577 O582 2.121 . S
Mn577 N584 2.257 . S
Mn577 N593 2.282 . S
Mn577 O601 2.215 . S
Mn577 O603 2.117 . S
C578 O600 1.234 . S
C578 O601 1.283 . S
C579 O591 1.281 . S
C579 O592 1.236 . S
C580 O602 1.240 . S
C580 O603 1.264 . S
O581 Mn576 2.095 . S
O581 C590 1.250 . S
O582 Mn577 2.121 . S
O582 C590 1.258 . S
C583 N584 1.326 . S
C583 C587 1.460 . S
C583 H589 0.929 . S
N584 Mn577 2.257 . S
N584 C583 1.326 . S
N584 C588 1.362 . S
C585 C586 1.258 . S
C585 C588 1.431 . S
C585 C605 1.449 . S
C586 C585 1.258 . S
C586 C587 1.477 . S
C586 H606 0.931 . S
C587 C583 1.460 . S
C587 C586 1.477 . S
C587 H607 0.930 . S
C588 N584 1.362 . S
C588 C585 1.431 . S
C588 C598 1.476 . S
H589 C583 0.929 . S
C590 O581 1.250 . S
C590 O582 1.258 . S
O591 Mn576 2.162 . S
O591 C579 1.281 . S
O592 Mn576 2.297 . S
O592 C579 1.236 . S
N593 Mn577 2.282 . S
N593 C594 1.328 . S
N593 C598 1.318 . S
C594 N593 1.328 . S
C594 C595 1.457 . S
C594 H599 0.929 . S
C595 C594 1.457 . S
C595 C596 1.291 . S
C595 H608 0.931 . S
C596 C595 1.291 . S
C596 C597 1.373 . S
C596 H609 0.929 . S
C597 C596 1.373 . S
C597 C598 1.396 . S
C597 C604 1.403 . S
C598 C588 1.476 . S
C598 N593 1.318 . S
C598 C597 1.396 . S
H599 C594 0.929 . S
O600 Mn576 2.385 . S
O600 C578 1.234 . S
O601 Mn576 2.209 . S
O601 Mn577 2.215 . S
O601 C578 1.283 . S
O602 Mn576 2.094 . S
O602 C580 1.240 . S
O603 Mn577 2.117 . S
O603 C580 1.264 . S
C604 C597 1.403 . S
C604 C605 1.399 . S
C604 H610 0.929 . S
C605 C585 1.449 . S
C605 C604 1.399 . S
C605 H611 0.930 . S
H606 C586 0.931 . S
H607 C587 0.930 . S
H608 C595 0.931 . S
H609 C596 0.929 . S
H610 C604 0.929 . S
H611 C605 0.930 . S
Mn612 O617 2.095 . S
Mn612 O627 2.162 . S
Mn612 O628 2.297 . S
Mn612 O636 2.385 . S
Mn612 O637 2.209 . S
Mn612 O638 2.094 . S
Mn613 O618 2.121 . S
Mn613 N620 2.257 . S
Mn613 N629 2.282 . S
Mn613 O637 2.215 . S
Mn613 O639 2.117 . S
C614 O636 1.234 . S
C614 O637 1.283 . S
C615 O627 1.281 . S
C615 O628 1.236 . S
C616 O638 1.240 . S
C616 O639 1.264 . S
O617 Mn612 2.095 . S
O617 C626 1.250 . S
O618 Mn613 2.121 . S
O618 C626 1.258 . S
C619 N620 1.326 . S
C619 C623 1.460 . S
C619 H625 0.929 . S
N620 Mn613 2.257 . S
N620 C619 1.326 . S
N620 C624 1.362 . S
C621 C622 1.258 . S
C621 C624 1.431 . S
C621 C641 1.449 . S
C622 C621 1.258 . S
C622 C623 1.477 . S
C622 H642 0.931 . S
C623 C619 1.460 . S
C623 C622 1.477 . S
C623 H643 0.930 . S
C624 N620 1.362 . S
C624 C621 1.431 . S
C624 C634 1.476 . S
H625 C619 0.929 . S
C626 O617 1.250 . S
C626 O618 1.258 . S
O627 Mn612 2.162 . S
O627 C615 1.281 . S
O628 Mn612 2.297 . S
O628 C615 1.236 . S
N629 Mn613 2.282 . S
N629 C630 1.328 . S
N629 C634 1.318 . S
C630 N629 1.328 . S
C630 C631 1.457 . S
C630 H635 0.929 . S
C631 C630 1.457 . S
C631 C632 1.291 . S
C631 H644 0.931 . S
C632 C631 1.291 . S
C632 C633 1.373 . S
C632 H645 0.929 . S
C633 C632 1.373 . S
C633 C634 1.396 . S
C633 C640 1.403 . S
C634 C624 1.476 . S
C634 N629 1.318 . S
C634 C633 1.396 . S
H635 C630 0.929 . S
O636 Mn612 2.385 . S
O636 C614 1.234 . S
O637 Mn612 2.209 . S
O637 Mn613 2.215 . S
O637 C614 1.283 . S
O638 Mn612 2.094 . S
O638 C616 1.240 . S
O639 Mn613 2.117 . S
O639 C616 1.264 . S
C640 C633 1.403 . S
C640 C641 1.399 . S
C640 H646 0.929 . S
C641 C621 1.449 . S
C641 C640 1.399 . S
C641 H647 0.930 . S
H642 C622 0.931 . S
H643 C623 0.930 . S
H644 C631 0.931 . S
H645 C632 0.929 . S
H646 C640 0.929 . S
H647 C641 0.930 . S
Mn648 O653 2.095 . S
Mn648 O663 2.162 . S
Mn648 O664 2.297 . S
Mn648 O672 2.385 . S
Mn648 O673 2.209 . S
Mn648 O674 2.094 . S
Mn649 O654 2.121 . S
Mn649 N656 2.257 . S
Mn649 N665 2.282 . S
Mn649 O673 2.215 . S
Mn649 O675 2.117 . S
C650 O672 1.234 . S
C650 O673 1.283 . S
C651 O663 1.281 . S
C651 O664 1.236 . S
C652 O674 1.240 . S
C652 O675 1.264 . S
O653 Mn648 2.095 . S
O653 C662 1.250 . S
O654 Mn649 2.121 . S
O654 C662 1.258 . S
C655 N656 1.326 . S
C655 C659 1.460 . S
C655 H661 0.929 . S
N656 Mn649 2.257 . S
N656 C655 1.326 . S
N656 C660 1.362 . S
C657 C658 1.258 . S
C657 C660 1.431 . S
C657 C677 1.449 . S
C658 C657 1.258 . S
C658 C659 1.477 . S
C658 H678 0.931 . S
C659 C655 1.460 . S
C659 C658 1.477 . S
C659 H679 0.930 . S
C660 N656 1.362 . S
C660 C657 1.431 . S
C660 C670 1.476 . S
H661 C655 0.929 . S
C662 O653 1.250 . S
C662 O654 1.258 . S
O663 Mn648 2.162 . S
O663 C651 1.281 . S
O664 Mn648 2.297 . S
O664 C651 1.236 . S
N665 Mn649 2.282 . S
N665 C666 1.328 . S
N665 C670 1.318 . S
C666 N665 1.328 . S
C666 C667 1.457 . S
C666 H671 0.929 . S
C667 C666 1.457 . S
C667 C668 1.291 . S
C667 H680 0.931 . S
C668 C667 1.291 . S
C668 C669 1.373 . S
C668 H681 0.929 . S
C669 C668 1.373 . S
C669 C670 1.396 . S
C669 C676 1.403 . S
C670 C660 1.476 . S
C670 N665 1.318 . S
C670 C669 1.396 . S
H671 C666 0.929 . S
O672 Mn648 2.385 . S
O672 C650 1.234 . S
O673 Mn648 2.209 . S
O673 Mn649 2.215 . S
O673 C650 1.283 . S
O674 Mn648 2.094 . S
O674 C652 1.240 . S
O675 Mn649 2.117 . S
O675 C652 1.264 . S
C676 C669 1.403 . S
C676 C677 1.399 . S
C676 H682 0.929 . S
C677 C657 1.449 . S
C677 C676 1.399 . S
C677 H683 0.930 . S
H678 C658 0.931 . S
H679 C659 0.930 . S
H680 C667 0.931 . S
H681 C668 0.929 . S
H682 C676 0.929 . S
H683 C677 0.930 . S
Mn684 O689 2.095 . S
Mn684 O699 2.162 . S
Mn684 O700 2.297 . S
Mn684 O708 2.385 . S
Mn684 O709 2.209 . S
Mn684 O710 2.094 . S
Mn685 O690 2.121 . S
Mn685 N692 2.257 . S
Mn685 N701 2.282 . S
Mn685 O709 2.215 . S
Mn685 O711 2.117 1_655 S
C686 O708 1.234 . S
C686 O709 1.283 . S
C687 O699 1.281 . S
C687 O700 1.236 . S
C688 O710 1.240 1_455 S
C688 O711 1.264 . S
O689 Mn684 2.095 . S
O689 C698 1.250 . S
O690 Mn685 2.121 . S
O690 C698 1.258 . S
C691 N692 1.326 . S
C691 C695 1.460 . S
C691 H697 0.929 . S
N692 Mn685 2.257 . S
N692 C691 1.326 . S
N692 C696 1.362 . S
C693 C694 1.258 . S
C693 C696 1.431 . S
C693 C713 1.449 . S
C694 C693 1.258 . S
C694 C695 1.477 . S
C694 H714 0.931 . S
C695 C691 1.460 . S
C695 C694 1.477 . S
C695 H715 0.930 . S
C696 N692 1.362 . S
C696 C693 1.431 . S
C696 C706 1.476 . S
H697 C691 0.929 . S
C698 O689 1.250 . S
C698 O690 1.258 . S
O699 Mn684 2.162 . S
O699 C687 1.281 . S
O700 Mn684 2.297 . S
O700 C687 1.236 . S
N701 Mn685 2.282 . S
N701 C702 1.328 . S
N701 C706 1.318 . S
C702 N701 1.328 . S
C702 C703 1.457 . S
C702 H707 0.929 . S
C703 C702 1.457 . S
C703 C704 1.291 . S
C703 H716 0.931 . S
C704 C703 1.291 . S
C704 C705 1.373 . S
C704 H717 0.929 . S
C705 C704 1.373 . S
C705 C706 1.396 . S
C705 C712 1.403 . S
C706 C696 1.476 . S
C706 N701 1.318 . S
C706 C705 1.396 . S
H707 C702 0.929 . S
O708 Mn684 2.385 . S
O708 C686 1.234 . S
O709 Mn684 2.209 . S
O709 Mn685 2.215 . S
O709 C686 1.283 . S
O710 Mn684 2.094 . S
O710 C688 1.240 1_655 S
O711 Mn685 2.117 1_455 S
O711 C688 1.264 . S
C712 C705 1.403 . S
C712 C713 1.399 . S
C712 H718 0.929 . S
C713 C693 1.449 . S
C713 C712 1.399 . S
C713 H719 0.930 . S
H714 C694 0.931 . S
H715 C695 0.930 . S
H716 C703 0.931 . S
H717 C704 0.929 . S
H718 C712 0.929 . S
H719 C713 0.930 . S
Mn720 O725 2.095 . S
Mn720 O735 2.162 . S
Mn720 O736 2.297 . S
Mn720 O744 2.385 . S
Mn720 O745 2.209 . S
Mn720 O746 2.094 . S
Mn721 O726 2.121 . S
Mn721 N728 2.257 . S
Mn721 N737 2.282 . S
Mn721 O745 2.215 . S
Mn721 O747 2.117 . S
C722 O744 1.234 . S
C722 O745 1.283 . S
C723 O735 1.281 . S
C723 O736 1.236 . S
C724 O746 1.240 . S
C724 O747 1.264 . S
O725 Mn720 2.095 . S
O725 C734 1.250 . S
O726 Mn721 2.121 . S
O726 C734 1.258 . S
C727 N728 1.326 . S
C727 C731 1.460 . S
C727 H733 0.929 . S
N728 Mn721 2.257 . S
N728 C727 1.326 . S
N728 C732 1.362 . S
C729 C730 1.258 . S
C729 C732 1.431 . S
C729 C749 1.449 . S
C730 C729 1.258 . S
C730 C731 1.477 . S
C730 H750 0.931 . S
C731 C727 1.460 . S
C731 C730 1.477 . S
C731 H751 0.930 . S
C732 N728 1.362 . S
C732 C729 1.431 . S
C732 C742 1.476 . S
H733 C727 0.929 . S
C734 O725 1.250 . S
C734 O726 1.258 . S
O735 Mn720 2.162 . S
O735 C723 1.281 . S
O736 Mn720 2.297 . S
O736 C723 1.236 . S
N737 Mn721 2.282 . S
N737 C738 1.328 . S
N737 C742 1.318 . S
C738 N737 1.328 . S
C738 C739 1.457 . S
C738 H743 0.929 . S
C739 C738 1.457 . S
C739 C740 1.291 . S
C739 H752 0.931 . S
C740 C739 1.291 . S
C740 C741 1.373 . S
C740 H753 0.929 . S
C741 C740 1.373 . S
C741 C742 1.396 . S
C741 C748 1.403 . S
C742 C732 1.476 . S
C742 N737 1.318 . S
C742 C741 1.396 . S
H743 C738 0.929 . S
O744 Mn720 2.385 . S
O744 C722 1.234 . S
O745 Mn720 2.209 . S
O745 Mn721 2.215 . S
O745 C722 1.283 . S
O746 Mn720 2.094 . S
O746 C724 1.240 . S
O747 Mn721 2.117 . S
O747 C724 1.264 . S
C748 C741 1.403 . S
C748 C749 1.399 . S
C748 H754 0.929 . S
C749 C729 1.449 . S
C749 C748 1.399 . S
C749 H755 0.930 . S
H750 C730 0.931 . S
H751 C731 0.930 . S
H752 C739 0.931 . S
H753 C740 0.929 . S
H754 C748 0.929 . S
H755 C749 0.930 . S
Mn756 O761 2.095 . S
Mn756 O771 2.162 . S
Mn756 O772 2.297 . S
Mn756 O780 2.385 . S
Mn756 O781 2.209 . S
Mn756 O782 2.094 . S
Mn757 O762 2.121 . S
Mn757 N764 2.257 . S
Mn757 N773 2.282 . S
Mn757 O781 2.215 . S
Mn757 O783 2.117 1_655 S
C758 O780 1.234 . S
C758 O781 1.283 . S
C759 O771 1.281 . S
C759 O772 1.236 . S
C760 O782 1.240 1_455 S
C760 O783 1.264 . S
O761 Mn756 2.095 . S
O761 C770 1.250 . S
O762 Mn757 2.121 . S
O762 C770 1.258 . S
C763 N764 1.326 . S
C763 C767 1.460 . S
C763 H769 0.929 . S
N764 Mn757 2.257 . S
N764 C763 1.326 . S
N764 C768 1.362 . S
C765 C766 1.258 . S
C765 C768 1.431 . S
C765 C785 1.449 . S
C766 C765 1.258 . S
C766 C767 1.477 . S
C766 H786 0.931 . S
C767 C763 1.460 . S
C767 C766 1.477 . S
C767 H787 0.930 . S
C768 N764 1.362 . S
C768 C765 1.431 . S
C768 C778 1.476 . S
H769 C763 0.929 . S
C770 O761 1.250 . S
C770 O762 1.258 . S
O771 Mn756 2.162 . S
O771 C759 1.281 . S
O772 Mn756 2.297 . S
O772 C759 1.236 . S
N773 Mn757 2.282 . S
N773 C774 1.328 . S
N773 C778 1.318 . S
C774 N773 1.328 . S
C774 C775 1.457 . S
C774 H779 0.929 . S
C775 C774 1.457 . S
C775 C776 1.291 . S
C775 H788 0.931 . S
C776 C775 1.291 . S
C776 C777 1.373 . S
C776 H789 0.929 . S
C777 C776 1.373 . S
C777 C778 1.396 . S
C777 C784 1.403 . S
C778 C768 1.476 . S
C778 N773 1.318 . S
C778 C777 1.396 . S
H779 C774 0.929 . S
O780 Mn756 2.385 . S
O780 C758 1.234 . S
O781 Mn756 2.209 . S
O781 Mn757 2.215 . S
O781 C758 1.283 . S
O782 Mn756 2.094 . S
O782 C760 1.240 1_655 S
O783 Mn757 2.117 1_455 S
O783 C760 1.264 . S
C784 C777 1.403 . S
C784 C785 1.399 . S
C784 H790 0.929 . S
C785 C765 1.449 . S
C785 C784 1.399 . S
C785 H791 0.930 . S
H786 C766 0.931 . S
H787 C767 0.930 . S
H788 C775 0.931 . S
H789 C776 0.929 . S
H790 C784 0.929 . S
H791 C785 0.930 . S
Mn792 O797 2.095 . S
Mn792 O807 2.162 . S
Mn792 O808 2.297 . S
Mn792 O816 2.385 . S
Mn792 O817 2.209 . S
Mn792 O818 2.094 . S
Mn793 O798 2.121 . S
Mn793 N800 2.257 . S
Mn793 N809 2.282 . S
Mn793 O817 2.215 . S
Mn793 O819 2.117 . S
C794 O816 1.234 . S
C794 O817 1.283 . S
C795 O807 1.281 . S
C795 O808 1.236 . S
C796 O818 1.240 . S
C796 O819 1.264 . S
O797 Mn792 2.095 . S
O797 C806 1.250 . S
O798 Mn793 2.121 . S
O798 C806 1.258 . S
C799 N800 1.326 . S
C799 C803 1.460 . S
C799 H805 0.929 . S
N800 Mn793 2.257 . S
N800 C799 1.326 . S
N800 C804 1.362 . S
C801 C802 1.258 . S
C801 C804 1.431 . S
C801 C821 1.449 . S
C802 C801 1.258 . S
C802 C803 1.477 . S
C802 H822 0.931 . S
C803 C799 1.460 . S
C803 C802 1.477 . S
C803 H823 0.930 . S
C804 N800 1.362 . S
C804 C801 1.431 . S
C804 C814 1.476 . S
H805 C799 0.929 . S
C806 O797 1.250 . S
C806 O798 1.258 . S
O807 Mn792 2.162 . S
O807 C795 1.281 . S
O808 Mn792 2.297 . S
O808 C795 1.236 . S
N809 Mn793 2.282 . S
N809 C810 1.328 . S
N809 C814 1.318 . S
C810 N809 1.328 . S
C810 C811 1.457 . S
C810 H815 0.929 . S
C811 C810 1.457 . S
C811 C812 1.291 . S
C811 H824 0.931 . S
C812 C811 1.291 . S
C812 C813 1.373 . S
C812 H825 0.929 . S
C813 C812 1.373 . S
C813 C814 1.396 . S
C813 C820 1.403 . S
C814 C804 1.476 . S
C814 N809 1.318 . S
C814 C813 1.396 . S
H815 C810 0.929 . S
O816 Mn792 2.385 . S
O816 C794 1.234 . S
O817 Mn792 2.209 . S
O817 Mn793 2.215 . S
O817 C794 1.283 . S
O818 Mn792 2.094 . S
O818 C796 1.240 . S
O819 Mn793 2.117 . S
O819 C796 1.264 . S
C820 C813 1.403 . S
C820 C821 1.399 . S
C820 H826 0.929 . S
C821 C801 1.449 . S
C821 C820 1.399 . S
C821 H827 0.930 . S
H822 C802 0.931 . S
H823 C803 0.930 . S
H824 C811 0.931 . S
H825 C812 0.929 . S
H826 C820 0.929 . S
H827 C821 0.930 . S
Mn828 O833 2.095 . S
Mn828 O843 2.162 . S
Mn828 O844 2.297 . S
Mn828 O852 2.385 . S
Mn828 O853 2.209 . S
Mn828 O854 2.094 . S
Mn829 O834 2.121 . S
Mn829 N836 2.257 . S
Mn829 N845 2.282 . S
Mn829 O853 2.215 . S
Mn829 O855 2.117 . S
C830 O852 1.234 . S
C830 O853 1.283 . S
C831 O843 1.281 . S
C831 O844 1.236 . S
C832 O854 1.240 . S
C832 O855 1.264 . S
O833 Mn828 2.095 . S
O833 C842 1.250 . S
O834 Mn829 2.121 . S
O834 C842 1.258 . S
C835 N836 1.326 . S
C835 C839 1.460 . S
C835 H841 0.929 . S
N836 Mn829 2.257 . S
N836 C835 1.326 . S
N836 C840 1.362 . S
C837 C838 1.258 . S
C837 C840 1.431 . S
C837 C857 1.449 . S
C838 C837 1.258 . S
C838 C839 1.477 . S
C838 H858 0.931 . S
C839 C835 1.460 . S
C839 C838 1.477 . S
C839 H859 0.930 . S
C840 N836 1.362 . S
C840 C837 1.431 . S
C840 C850 1.476 . S
H841 C835 0.929 . S
C842 O833 1.250 . S
C842 O834 1.258 . S
O843 Mn828 2.162 . S
O843 C831 1.281 . S
O844 Mn828 2.297 . S
O844 C831 1.236 . S
N845 Mn829 2.282 . S
N845 C846 1.328 . S
N845 C850 1.318 . S
C846 N845 1.328 . S
C846 C847 1.457 . S
C846 H851 0.929 . S
C847 C846 1.457 . S
C847 C848 1.291 . S
C847 H860 0.931 . S
C848 C847 1.291 . S
C848 C849 1.373 . S
C848 H861 0.929 . S
C849 C848 1.373 . S
C849 C850 1.396 . S
C849 C856 1.403 . S
C850 C840 1.476 . S
C850 N845 1.318 . S
C850 C849 1.396 . S
H851 C846 0.929 . S
O852 Mn828 2.385 . S
O852 C830 1.234 . S
O853 Mn828 2.209 . S
O853 Mn829 2.215 . S
O853 C830 1.283 . S
O854 Mn828 2.094 . S
O854 C832 1.240 . S
O855 Mn829 2.117 . S
O855 C832 1.264 . S
C856 C849 1.403 . S
C856 C857 1.399 . S
C856 H862 0.929 . S
C857 C837 1.449 . S
C857 C856 1.399 . S
C857 H863 0.930 . S
H858 C838 0.931 . S
H859 C839 0.930 . S
H860 C847 0.931 . S
H861 C848 0.929 . S
H862 C856 0.929 . S
H863 C857 0.930 . S
Mn864 O869 2.095 . S
Mn864 O879 2.162 . S
Mn864 O880 2.297 . S
Mn864 O888 2.385 . S
Mn864 O889 2.209 . S
Mn864 O890 2.094 . S
Mn865 O870 2.121 . S
Mn865 N872 2.257 . S
Mn865 N881 2.282 . S
Mn865 O889 2.215 . S
Mn865 O891 2.117 . S
C866 O888 1.234 . S
C866 O889 1.283 . S
C867 O879 1.281 . S
C867 O880 1.236 . S
C868 O890 1.240 . S
C868 O891 1.264 . S
O869 Mn864 2.095 . S
O869 C878 1.250 . S
O870 Mn865 2.121 . S
O870 C878 1.258 . S
C871 N872 1.326 . S
C871 C875 1.460 . S
C871 H877 0.929 . S
N872 Mn865 2.257 . S
N872 C871 1.326 . S
N872 C876 1.362 . S
C873 C874 1.258 . S
C873 C876 1.431 . S
C873 C893 1.449 . S
C874 C873 1.258 . S
C874 C875 1.477 . S
C874 H894 0.931 . S
C875 C871 1.460 . S
C875 C874 1.477 . S
C875 H895 0.930 . S
C876 N872 1.362 . S
C876 C873 1.431 . S
C876 C886 1.476 . S
H877 C871 0.929 . S
C878 O869 1.250 . S
C878 O870 1.258 . S
O879 Mn864 2.162 . S
O879 C867 1.281 . S
O880 Mn864 2.297 . S
O880 C867 1.236 . S
N881 Mn865 2.282 . S
N881 C882 1.328 . S
N881 C886 1.318 . S
C882 N881 1.328 . S
C882 C883 1.457 . S
C882 H887 0.929 . S
C883 C882 1.457 . S
C883 C884 1.291 . S
C883 H896 0.931 . S
C884 C883 1.291 . S
C884 C885 1.373 . S
C884 H897 0.929 . S
C885 C884 1.373 . S
C885 C886 1.396 . S
C885 C892 1.403 . S
C886 C876 1.476 . S
C886 N881 1.318 . S
C886 C885 1.396 . S
H887 C882 0.929 . S
O888 Mn864 2.385 . S
O888 C866 1.234 . S
O889 Mn864 2.209 . S
O889 Mn865 2.215 . S
O889 C866 1.283 . S
O890 Mn864 2.094 . S
O890 C868 1.240 . S
O891 Mn865 2.117 . S
O891 C868 1.264 . S
C892 C885 1.403 . S
C892 C893 1.399 . S
C892 H898 0.929 . S
C893 C873 1.449 . S
C893 C892 1.399 . S
C893 H899 0.930 . S
H894 C874 0.931 . S
H895 C875 0.930 . S
H896 C883 0.931 . S
H897 C884 0.929 . S
H898 C892 0.929 . S
H899 C893 0.930 . S
Mn900 O905 2.095 . S
Mn900 O915 2.162 . S
Mn900 O916 2.297 . S
Mn900 O924 2.385 . S
Mn900 O925 2.209 . S
Mn900 O926 2.094 . S
Mn901 O906 2.121 . S
Mn901 N908 2.257 . S
Mn901 N917 2.282 . S
Mn901 O925 2.215 . S
Mn901 O927 2.117 . S
C902 O924 1.234 . S
C902 O925 1.283 . S
C903 O915 1.281 . S
C903 O916 1.236 . S
C904 O926 1.240 . S
C904 O927 1.264 . S
O905 Mn900 2.095 . S
O905 C914 1.250 . S
O906 Mn901 2.121 . S
O906 C914 1.258 . S
C907 N908 1.326 . S
C907 C911 1.460 . S
C907 H913 0.929 . S
N908 Mn901 2.257 . S
N908 C907 1.326 . S
N908 C912 1.362 . S
C909 C910 1.258 . S
C909 C912 1.431 . S
C909 C929 1.449 . S
C910 C909 1.258 . S
C910 C911 1.477 . S
C910 H930 0.931 . S
C911 C907 1.460 . S
C911 C910 1.477 . S
C911 H931 0.930 . S
C912 N908 1.362 . S
C912 C909 1.431 . S
C912 C922 1.476 . S
H913 C907 0.929 . S
C914 O905 1.250 . S
C914 O906 1.258 . S
O915 Mn900 2.162 . S
O915 C903 1.281 . S
O916 Mn900 2.297 . S
O916 C903 1.236 . S
N917 Mn901 2.282 . S
N917 C918 1.328 . S
N917 C922 1.318 . S
C918 N917 1.328 . S
C918 C919 1.457 . S
C918 H923 0.929 . S
C919 C918 1.457 . S
C919 C920 1.291 . S
C919 H932 0.931 . S
C920 C919 1.291 . S
C920 C921 1.373 . S
C920 H933 0.929 . S
C921 C920 1.373 . S
C921 C922 1.396 . S
C921 C928 1.403 . S
C922 C912 1.476 . S
C922 N917 1.318 . S
C922 C921 1.396 . S
H923 C918 0.929 . S
O924 Mn900 2.385 . S
O924 C902 1.234 . S
O925 Mn900 2.209 . S
O925 Mn901 2.215 . S
O925 C902 1.283 . S
O926 Mn900 2.094 . S
O926 C904 1.240 . S
O927 Mn901 2.117 . S
O927 C904 1.264 . S
C928 C921 1.403 . S
C928 C929 1.399 . S
C928 H934 0.929 . S
C929 C909 1.449 . S
C929 C928 1.399 . S
C929 H935 0.930 . S
H930 C910 0.931 . S
H931 C911 0.930 . S
H932 C919 0.931 . S
H933 C920 0.929 . S
H934 C928 0.929 . S
H935 C929 0.930 . S
Mn936 O941 2.095 . S
Mn936 O951 2.162 . S
Mn936 O952 2.297 . S
Mn936 O960 2.385 . S
Mn936 O961 2.209 . S
Mn936 O962 2.094 . S
Mn937 O942 2.121 . S
Mn937 N944 2.257 . S
Mn937 N953 2.282 . S
Mn937 O961 2.215 . S
Mn937 O963 2.117 . S
C938 O960 1.234 . S
C938 O961 1.283 . S
C939 O951 1.281 . S
C939 O952 1.236 . S
C940 O962 1.240 . S
C940 O963 1.264 . S
O941 Mn936 2.095 . S
O941 C950 1.250 . S
O942 Mn937 2.121 . S
O942 C950 1.258 . S
C943 N944 1.326 . S
C943 C947 1.460 . S
C943 H949 0.929 . S
N944 Mn937 2.257 . S
N944 C943 1.326 . S
N944 C948 1.362 . S
C945 C946 1.258 . S
C945 C948 1.431 . S
C945 C965 1.449 . S
C946 C945 1.258 . S
C946 C947 1.477 . S
C946 H966 0.931 . S
C947 C943 1.460 . S
C947 C946 1.477 . S
C947 H967 0.930 . S
C948 N944 1.362 . S
C948 C945 1.431 . S
C948 C958 1.476 . S
H949 C943 0.929 . S
C950 O941 1.250 . S
C950 O942 1.258 . S
O951 Mn936 2.162 . S
O951 C939 1.281 . S
O952 Mn936 2.297 . S
O952 C939 1.236 . S
N953 Mn937 2.282 . S
N953 C954 1.328 . S
N953 C958 1.318 . S
C954 N953 1.328 . S
C954 C955 1.457 . S
C954 H959 0.929 . S
C955 C954 1.457 . S
C955 C956 1.291 . S
C955 H968 0.931 . S
C956 C955 1.291 . S
C956 C957 1.373 . S
C956 H969 0.929 . S
C957 C956 1.373 . S
C957 C958 1.396 . S
C957 C964 1.403 . S
C958 C948 1.476 . S
C958 N953 1.318 . S
C958 C957 1.396 . S
H959 C954 0.929 . S
O960 Mn936 2.385 . S
O960 C938 1.234 . S
O961 Mn936 2.209 . S
O961 Mn937 2.215 . S
O961 C938 1.283 . S
O962 Mn936 2.094 . S
O962 C940 1.240 . S
O963 Mn937 2.117 . S
O963 C940 1.264 . S
C964 C957 1.403 . S
C964 C965 1.399 . S
C964 H970 0.929 . S
C965 C945 1.449 . S
C965 C964 1.399 . S
C965 H971 0.930 . S
H966 C946 0.931 . S
H967 C947 0.930 . S
H968 C955 0.931 . S
H969 C956 0.929 . S
H970 C964 0.929 . S
H971 C965 0.930 . S
Mn972 O977 2.095 . S
Mn972 O987 2.162 1_455 S
Mn972 O988 2.297 . S
Mn972 O996 2.385 . S
Mn972 O997 2.209 . S
Mn972 O998 2.094 . S
Mn973 O978 2.121 . S
Mn973 N980 2.257 . S
Mn973 N989 2.282 . S
Mn973 O997 2.215 . S
Mn973 O999 2.117 . S
C974 O996 1.234 . S
C974 O997 1.283 . S
C975 O987 1.281 . S
C975 O988 1.236 1_655 S
C976 O998 1.240 . S
C976 O999 1.264 . S
O977 Mn972 2.095 . S
O977 C986 1.250 . S
O978 Mn973 2.121 . S
O978 C986 1.258 . S
C979 N980 1.326 . S
C979 C983 1.460 . S
C979 H985 0.929 . S
N980 Mn973 2.257 . S
N980 C979 1.326 . S
N980 C984 1.362 . S
C981 C982 1.258 . S
C981 C984 1.431 . S
C981 C1001 1.449 . S
C982 C981 1.258 . S
C982 C983 1.477 . S
C982 H1002 0.931 . S
C983 C979 1.460 . S
C983 C982 1.477 . S
C983 H1003 0.930 . S
C984 N980 1.362 . S
C984 C981 1.431 . S
C984 C994 1.476 . S
H985 C979 0.929 . S
C986 O977 1.250 . S
C986 O978 1.258 . S
O987 Mn972 2.162 1_655 S
O987 C975 1.281 . S
O988 Mn972 2.297 . S
O988 C975 1.236 1_455 S
N989 Mn973 2.282 . S
N989 C990 1.328 . S
N989 C994 1.318 . S
C990 N989 1.328 . S
C990 C991 1.457 . S
C990 H995 0.929 . S
C991 C990 1.457 . S
C991 C992 1.291 . S
C991 H1004 0.931 . S
C992 C991 1.291 . S
C992 C993 1.373 . S
C992 H1005 0.929 . S
C993 C992 1.373 . S
C993 C994 1.396 . S
C993 C1000 1.403 . S
C994 C984 1.476 . S
C994 N989 1.318 . S
C994 C993 1.396 . S
H995 C990 0.929 . S
O996 Mn972 2.385 . S
O996 C974 1.234 . S
O997 Mn972 2.209 . S
O997 Mn973 2.215 . S
O997 C974 1.283 . S
O998 Mn972 2.094 . S
O998 C976 1.240 . S
O999 Mn973 2.117 . S
O999 C976 1.264 . S
C1000 C993 1.403 . S
C1000 C1001 1.399 . S
C1000 H1006 0.929 . S
C1001 C981 1.449 . S
C1001 C1000 1.399 . S
C1001 H1007 0.930 . S
H1002 C982 0.931 . S
H1003 C983 0.930 . S
H1004 C991 0.931 . S
H1005 C992 0.929 . S
H1006 C1000 0.929 . S
H1007 C1001 0.930 . S
Mn1008 O1013 2.095 . S
Mn1008 O1023 2.162 . S
Mn1008 O1024 2.297 . S
Mn1008 O1032 2.385 . S
Mn1008 O1033 2.209 . S
Mn1008 O1034 2.094 . S
Mn1009 O1014 2.121 . S
Mn1009 N1016 2.257 . S
Mn1009 N1025 2.282 . S
Mn1009 O1033 2.215 . S
Mn1009 O1035 2.117 . S
C1010 O1032 1.234 . S
C1010 O1033 1.283 . S
C1011 O1023 1.281 . S
C1011 O1024 1.236 . S
C1012 O1034 1.240 . S
C1012 O1035 1.264 . S
O1013 Mn1008 2.095 . S
O1013 C1022 1.250 . S
O1014 Mn1009 2.121 . S
O1014 C1022 1.258 . S
C1015 N1016 1.326 . S
C1015 C1019 1.460 . S
C1015 H1021 0.929 . S
N1016 Mn1009 2.257 . S
N1016 C1015 1.326 . S
N1016 C1020 1.362 . S
C1017 C1018 1.258 . S
C1017 C1020 1.431 . S
C1017 C1037 1.449 . S
C1018 C1017 1.258 . S
C1018 C1019 1.477 . S
C1018 H1038 0.931 . S
C1019 C1015 1.460 . S
C1019 C1018 1.477 . S
C1019 H1039 0.930 . S
C1020 N1016 1.362 . S
C1020 C1017 1.431 . S
C1020 C1030 1.476 . S
H1021 C1015 0.929 . S
C1022 O1013 1.250 . S
C1022 O1014 1.258 . S
O1023 Mn1008 2.162 . S
O1023 C1011 1.281 . S
O1024 Mn1008 2.297 . S
O1024 C1011 1.236 . S
N1025 Mn1009 2.282 . S
N1025 C1026 1.328 . S
N1025 C1030 1.318 . S
C1026 N1025 1.328 . S
C1026 C1027 1.457 . S
C1026 H1031 0.929 . S
C1027 C1026 1.457 . S
C1027 C1028 1.291 . S
C1027 H1040 0.931 . S
C1028 C1027 1.291 . S
C1028 C1029 1.373 . S
C1028 H1041 0.929 . S
C1029 C1028 1.373 . S
C1029 C1030 1.396 . S
C1029 C1036 1.403 . S
C1030 C1020 1.476 . S
C1030 N1025 1.318 . S
C1030 C1029 1.396 . S
H1031 C1026 0.929 . S
O1032 Mn1008 2.385 . S
O1032 C1010 1.234 . S
O1033 Mn1008 2.209 . S
O1033 Mn1009 2.215 . S
O1033 C1010 1.283 . S
O1034 Mn1008 2.094 . S
O1034 C1012 1.240 . S
O1035 Mn1009 2.117 . S
O1035 C1012 1.264 . S
C1036 C1029 1.403 . S
C1036 C1037 1.399 . S
C1036 H1042 0.929 . S
C1037 C1017 1.449 . S
C1037 C1036 1.399 . S
C1037 H1043 0.930 . S
H1038 C1018 0.931 . S
H1039 C1019 0.930 . S
H1040 C1027 0.931 . S
H1041 C1028 0.929 . S
H1042 C1036 0.929 . S
H1043 C1037 0.930 . S
Mn1044 O1049 2.095 . S
Mn1044 O1059 2.162 1_455 S
Mn1044 O1060 2.297 . S
Mn1044 O1068 2.385 . S
Mn1044 O1069 2.209 . S
Mn1044 O1070 2.094 . S
Mn1045 O1050 2.121 . S
Mn1045 N1052 2.257 . S
Mn1045 N1061 2.282 . S
Mn1045 O1069 2.215 . S
Mn1045 O1071 2.117 . S
C1046 O1068 1.234 . S
C1046 O1069 1.283 . S
C1047 O1059 1.281 . S
C1047 O1060 1.236 1_655 S
C1048 O1070 1.240 . S
C1048 O1071 1.264 . S
O1049 Mn1044 2.095 . S
O1049 C1058 1.250 . S
O1050 Mn1045 2.121 . S
O1050 C1058 1.258 . S
C1051 N1052 1.326 . S
C1051 C1055 1.460 . S
C1051 H1057 0.929 . S
N1052 Mn1045 2.257 . S
N1052 C1051 1.326 . S
N1052 C1056 1.362 . S
C1053 C1054 1.258 . S
C1053 C1056 1.431 . S
C1053 C1073 1.449 . S
C1054 C1053 1.258 . S
C1054 C1055 1.477 . S
C1054 H1074 0.931 . S
C1055 C1051 1.460 . S
C1055 C1054 1.477 . S
C1055 H1075 0.930 . S
C1056 N1052 1.362 . S
C1056 C1053 1.431 . S
C1056 C1066 1.476 . S
H1057 C1051 0.929 . S
C1058 O1049 1.250 . S
C1058 O1050 1.258 . S
O1059 Mn1044 2.162 1_655 S
O1059 C1047 1.281 . S
O1060 Mn1044 2.297 . S
O1060 C1047 1.236 1_455 S
N1061 Mn1045 2.282 . S
N1061 C1062 1.328 . S
N1061 C1066 1.318 . S
C1062 N1061 1.328 . S
C1062 C1063 1.457 . S
C1062 H1067 0.929 . S
C1063 C1062 1.457 . S
C1063 C1064 1.291 . S
C1063 H1076 0.931 . S
C1064 C1063 1.291 . S
C1064 C1065 1.373 . S
C1064 H1077 0.929 . S
C1065 C1064 1.373 . S
C1065 C1066 1.396 . S
C1065 C1072 1.403 . S
C1066 C1056 1.476 . S
C1066 N1061 1.318 . S
C1066 C1065 1.396 . S
H1067 C1062 0.929 . S
O1068 Mn1044 2.385 . S
O1068 C1046 1.234 . S
O1069 Mn1044 2.209 . S
O1069 Mn1045 2.215 . S
O1069 C1046 1.283 . S
O1070 Mn1044 2.094 . S
O1070 C1048 1.240 . S
O1071 Mn1045 2.117 . S
O1071 C1048 1.264 . S
C1072 C1065 1.403 . S
C1072 C1073 1.399 . S
C1072 H1078 0.929 . S
C1073 C1053 1.449 . S
C1073 C1072 1.399 . S
C1073 H1079 0.930 . S
H1074 C1054 0.931 . S
H1075 C1055 0.930 . S
H1076 C1063 0.931 . S
H1077 C1064 0.929 . S
H1078 C1072 0.929 . S
H1079 C1073 0.930 . S
Mn1080 O1085 2.095 . S
Mn1080 O1095 2.162 . S
Mn1080 O1096 2.297 . S
Mn1080 O1104 2.385 . S
Mn1080 O1105 2.209 . S
Mn1080 O1106 2.094 . S
Mn1081 O1086 2.121 . S
Mn1081 N1088 2.257 . S
Mn1081 N1097 2.282 . S
Mn1081 O1105 2.215 . S
Mn1081 O1107 2.117 . S
C1082 O1104 1.234 . S
C1082 O1105 1.283 . S
C1083 O1095 1.281 . S
C1083 O1096 1.236 . S
C1084 O1106 1.240 . S
C1084 O1107 1.264 . S
O1085 Mn1080 2.095 . S
O1085 C1094 1.250 . S
O1086 Mn1081 2.121 . S
O1086 C1094 1.258 . S
C1087 N1088 1.326 . S
C1087 C1091 1.460 . S
C1087 H1093 0.929 . S
N1088 Mn1081 2.257 . S
N1088 C1087 1.326 . S
N1088 C1092 1.362 . S
C1089 C1090 1.258 . S
C1089 C1092 1.431 . S
C1089 C1109 1.449 . S
C1090 C1089 1.258 . S
C1090 C1091 1.477 . S
C1090 H1110 0.931 . S
C1091 C1087 1.460 . S
C1091 C1090 1.477 . S
C1091 H1111 0.930 . S
C1092 N1088 1.362 . S
C1092 C1089 1.431 . S
C1092 C1102 1.476 . S
H1093 C1087 0.929 . S
C1094 O1085 1.250 . S
C1094 O1086 1.258 . S
O1095 Mn1080 2.162 . S
O1095 C1083 1.281 . S
O1096 Mn1080 2.297 . S
O1096 C1083 1.236 . S
N1097 Mn1081 2.282 . S
N1097 C1098 1.328 . S
N1097 C1102 1.318 . S
C1098 N1097 1.328 . S
C1098 C1099 1.457 . S
C1098 H1103 0.929 . S
C1099 C1098 1.457 . S
C1099 C1100 1.291 . S
C1099 H1112 0.931 . S
C1100 C1099 1.291 . S
C1100 C1101 1.373 . S
C1100 H1113 0.929 . S
C1101 C1100 1.373 . S
C1101 C1102 1.396 . S
C1101 C1108 1.403 . S
C1102 C1092 1.476 . S
C1102 N1097 1.318 . S
C1102 C1101 1.396 . S
H1103 C1098 0.929 . S
O1104 Mn1080 2.385 . S
O1104 C1082 1.234 . S
O1105 Mn1080 2.209 . S
O1105 Mn1081 2.215 . S
O1105 C1082 1.283 . S
O1106 Mn1080 2.094 . S
O1106 C1084 1.240 . S
O1107 Mn1081 2.117 . S
O1107 C1084 1.264 . S
C1108 C1101 1.403 . S
C1108 C1109 1.399 . S
C1108 H1114 0.929 . S
C1109 C1089 1.449 . S
C1109 C1108 1.399 . S
C1109 H1115 0.930 . S
H1110 C1090 0.931 . S
H1111 C1091 0.930 . S
H1112 C1099 0.931 . S
H1113 C1100 0.929 . S
H1114 C1108 0.929 . S
H1115 C1109 0.930 . S
Mn1116 O1121 2.095 . S
Mn1116 O1131 2.162 . S
Mn1116 O1132 2.297 . S
Mn1116 O1140 2.385 . S
Mn1116 O1141 2.209 . S
Mn1116 O1142 2.094 . S
Mn1117 O1122 2.121 . S
Mn1117 N1124 2.257 . S
Mn1117 N1133 2.282 . S
Mn1117 O1141 2.215 . S
Mn1117 O1143 2.117 . S
C1118 O1140 1.234 . S
C1118 O1141 1.283 . S
C1119 O1131 1.281 . S
C1119 O1132 1.236 . S
C1120 O1142 1.240 . S
C1120 O1143 1.264 . S
O1121 Mn1116 2.095 . S
O1121 C1130 1.250 . S
O1122 Mn1117 2.121 . S
O1122 C1130 1.258 . S
C1123 N1124 1.326 . S
C1123 C1127 1.460 . S
C1123 H1129 0.929 . S
N1124 Mn1117 2.257 . S
N1124 C1123 1.326 . S
N1124 C1128 1.362 . S
C1125 C1126 1.258 . S
C1125 C1128 1.431 . S
C1125 C1145 1.449 . S
C1126 C1125 1.258 . S
C1126 C1127 1.477 . S
C1126 H1146 0.931 . S
C1127 C1123 1.460 . S
C1127 C1126 1.477 . S
C1127 H1147 0.930 . S
C1128 N1124 1.362 . S
C1128 C1125 1.431 . S
C1128 C1138 1.476 . S
H1129 C1123 0.929 . S
C1130 O1121 1.250 . S
C1130 O1122 1.258 . S
O1131 Mn1116 2.162 . S
O1131 C1119 1.281 . S
O1132 Mn1116 2.297 . S
O1132 C1119 1.236 . S
N1133 Mn1117 2.282 . S
N1133 C1134 1.328 . S
N1133 C1138 1.318 . S
C1134 N1133 1.328 . S
C1134 C1135 1.457 . S
C1134 H1139 0.929 . S
C1135 C1134 1.457 . S
C1135 C1136 1.291 . S
C1135 H1148 0.931 . S
C1136 C1135 1.291 . S
C1136 C1137 1.373 . S
C1136 H1149 0.929 . S
C1137 C1136 1.373 . S
C1137 C1138 1.396 . S
C1137 C1144 1.403 . S
C1138 C1128 1.476 . S
C1138 N1133 1.318 . S
C1138 C1137 1.396 . S
H1139 C1134 0.929 . S
O1140 Mn1116 2.385 . S
O1140 C1118 1.234 . S
O1141 Mn1116 2.209 . S
O1141 Mn1117 2.215 . S
O1141 C1118 1.283 . S
O1142 Mn1116 2.094 . S
O1142 C1120 1.240 . S
O1143 Mn1117 2.117 . S
O1143 C1120 1.264 . S
C1144 C1137 1.403 . S
C1144 C1145 1.399 . S
C1144 H1150 0.929 . S
C1145 C1125 1.449 . S
C1145 C1144 1.399 . S
C1145 H1151 0.930 . S
H1146 C1126 0.931 . S
H1147 C1127 0.930 . S
H1148 C1135 0.931 . S
H1149 C1136 0.929 . S
H1150 C1144 0.929 . S
H1151 C1145 0.930 . S
H1152 C1158 0.930 . S
H1153 C1162 0.930 . S
H1154 C1167 0.929 . S
H1155 C1165 0.929 . S
H1156 C1160 0.929 . S
H1157 C1166 0.929 . S
C1158 H1152 0.930 . S
C1158 C1159 1.367 . S
C1158 C1166 1.378 . S
C1159 C1158 1.367 . S
C1159 C1167 1.433 . S
C1160 H1156 0.929 . S
C1160 C1162 1.378 . S
C1160 C1164 1.350 . S
C1161 C1164 1.463 . S
C1161 C1166 1.350 . S
C1161 N1169 1.427 . S
C1162 H1153 0.930 . S
C1162 C1160 1.378 . S
C1162 C1163 1.367 . S
C1163 C1162 1.367 . S
C1163 C1165 1.433 . S
C1164 C1160 1.350 . S
C1164 C1161 1.463 . S
C1164 N1168 1.427 . S
C1165 H1155 0.929 . S
C1165 C1163 1.433 . S
C1165 N1168 1.384 . S
C1166 H1157 0.929 . S
C1166 C1158 1.378 . S
C1166 C1161 1.350 . S
C1167 H1154 0.929 . S
C1167 C1159 1.433 . S
C1167 N1169 1.384 . S
N1168 C1164 1.427 . S
N1168 C1165 1.384 . S
N1169 C1161 1.427 . S
N1169 C1167 1.384 . S
H1170 C1176 0.930 . S
H1171 C1180 0.930 . S
H1172 C1185 0.929 . S
H1173 C1183 0.929 . S
H1174 C1178 0.929 . S
H1175 C1184 0.929 . S
C1176 H1170 0.930 . S
C1176 C1177 1.367 . S
C1176 C1184 1.378 . S
C1177 C1176 1.367 . S
C1177 C1185 1.433 . S
C1178 H1174 0.929 . S
C1178 C1180 1.378 . S
C1178 C1182 1.350 . S
C1179 C1182 1.463 . S
C1179 C1184 1.350 . S
C1179 N1187 1.427 . S
C1180 H1171 0.930 . S
C1180 C1178 1.378 . S
C1180 C1181 1.367 . S
C1181 C1180 1.367 . S
C1181 C1183 1.433 . S
C1182 C1178 1.350 . S
C1182 C1179 1.463 . S
C1182 N1186 1.427 . S
C1183 H1173 0.929 . S
C1183 C1181 1.433 . S
C1183 N1186 1.384 . S
C1184 H1175 0.929 . S
C1184 C1176 1.378 . S
C1184 C1179 1.350 . S
C1185 H1172 0.929 . S
C1185 C1177 1.433 . S
C1185 N1187 1.384 . S
N1186 C1182 1.427 . S
N1186 C1183 1.384 . S
N1187 C1179 1.427 . S
N1187 C1185 1.384 . S
H1188 C1194 0.930 . S
H1189 C1198 0.930 . S
H1190 C1203 0.929 . S
H1191 C1201 0.929 . S
H1192 C1196 0.929 . S
H1193 C1202 0.929 . S
C1194 H1188 0.930 . S
C1194 C1195 1.367 . S
C1194 C1202 1.378 . S
C1195 C1194 1.367 . S
C1195 C1203 1.433 . S
C1196 H1192 0.929 . S
C1196 C1198 1.378 . S
C1196 C1200 1.350 . S
C1197 C1200 1.463 . S
C1197 C1202 1.350 . S
C1197 N1205 1.427 . S
C1198 H1189 0.930 . S
C1198 C1196 1.378 . S
C1198 C1199 1.367 . S
C1199 C1198 1.367 . S
C1199 C1201 1.433 . S
C1200 C1196 1.350 . S
C1200 C1197 1.463 . S
C1200 N1204 1.427 . S
C1201 H1191 0.929 . S
C1201 C1199 1.433 . S
C1201 N1204 1.384 . S
C1202 H1193 0.929 . S
C1202 C1194 1.378 . S
C1202 C1197 1.350 . S
C1203 H1190 0.929 . S
C1203 C1195 1.433 . S
C1203 N1205 1.384 . S
N1204 C1200 1.427 . S
N1204 C1201 1.384 . S
N1205 C1197 1.427 . S
N1205 C1203 1.384 . S
H1206 C1212 0.930 . S
H1207 C1216 0.930 . S
H1208 C1221 0.929 . S
H1209 C1219 0.929 . S
H1210 C1214 0.929 . S
H1211 C1220 0.929 . S
C1212 H1206 0.930 . S
C1212 C1213 1.367 . S
C1212 C1220 1.378 . S
C1213 C1212 1.367 . S
C1213 C1221 1.433 . S
C1214 H1210 0.929 . S
C1214 C1216 1.378 . S
C1214 C1218 1.350 . S
C1215 C1218 1.463 . S
C1215 C1220 1.350 . S
C1215 N1223 1.427 . S
C1216 H1207 0.930 . S
C1216 C1214 1.378 . S
C1216 C1217 1.367 . S
C1217 C1216 1.367 . S
C1217 C1219 1.433 . S
C1218 C1214 1.350 . S
C1218 C1215 1.463 . S
C1218 N1222 1.427 . S
C1219 H1209 0.929 . S
C1219 C1217 1.433 . S
C1219 N1222 1.384 . S
C1220 H1211 0.929 . S
C1220 C1212 1.378 . S
C1220 C1215 1.350 . S
C1221 H1208 0.929 . S
C1221 C1213 1.433 . S
C1221 N1223 1.384 . S
N1222 C1218 1.427 . S
N1222 C1219 1.384 . S
N1223 C1215 1.427 . S
N1223 C1221 1.384 . S
H1224 C1230 0.930 . S
H1225 C1234 0.930 . S
H1226 C1239 0.929 . S
H1227 C1237 0.929 . S
H1228 C1232 0.929 . S
H1229 C1238 0.929 . S
C1230 H1224 0.930 . S
C1230 C1231 1.367 . S
C1230 C1238 1.378 . S
C1231 C1230 1.367 . S
C1231 C1239 1.433 . S
C1232 H1228 0.929 . S
C1232 C1234 1.378 . S
C1232 C1236 1.350 . S
C1233 C1236 1.463 . S
C1233 C1238 1.350 . S
C1233 N1241 1.427 . S
C1234 H1225 0.930 . S
C1234 C1232 1.378 . S
C1234 C1235 1.367 . S
C1235 C1234 1.367 . S
C1235 C1237 1.433 . S
C1236 C1232 1.350 . S
C1236 C1233 1.463 . S
C1236 N1240 1.427 . S
C1237 H1227 0.929 . S
C1237 C1235 1.433 . S
C1237 N1240 1.384 . S
C1238 H1229 0.929 . S
C1238 C1230 1.378 . S
C1238 C1233 1.350 . S
C1239 H1226 0.929 . S
C1239 C1231 1.433 . S
C1239 N1241 1.384 . S
N1240 C1236 1.427 . S
N1240 C1237 1.384 . S
N1241 C1233 1.427 . S
N1241 C1239 1.384 . S
H1242 C1248 0.930 . S
H1243 C1252 0.930 . S
H1244 C1257 0.929 . S
H1245 C1255 0.929 . S
H1246 C1250 0.929 . S
H1247 C1256 0.929 . S
C1248 H1242 0.930 . S
C1248 C1249 1.367 . S
C1248 C1256 1.378 . S
C1249 C1248 1.367 . S
C1249 C1257 1.433 . S
C1250 H1246 0.929 . S
C1250 C1252 1.378 . S
C1250 C1254 1.350 . S
C1251 C1254 1.463 . S
C1251 C1256 1.350 . S
C1251 N1259 1.427 . S
C1252 H1243 0.930 . S
C1252 C1250 1.378 . S
C1252 C1253 1.367 . S
C1253 C1252 1.367 . S
C1253 C1255 1.433 . S
C1254 C1250 1.350 . S
C1254 C1251 1.463 . S
C1254 N1258 1.427 . S
C1255 H1245 0.929 . S
C1255 C1253 1.433 . S
C1255 N1258 1.384 . S
C1256 H1247 0.929 . S
C1256 C1248 1.378 . S
C1256 C1251 1.350 . S
C1257 H1244 0.929 . S
C1257 C1249 1.433 . S
C1257 N1259 1.384 . S
N1258 C1254 1.427 . S
N1258 C1255 1.384 . S
N1259 C1251 1.427 . S
N1259 C1257 1.384 . S
H1260 C1266 0.930 . S
H1261 C1270 0.930 . S
H1262 C1275 0.929 . S
H1263 C1273 0.929 . S
H1264 C1268 0.929 . S
H1265 C1274 0.929 . S
C1266 H1260 0.930 . S
C1266 C1267 1.367 . S
C1266 C1274 1.378 . S
C1267 C1266 1.367 . S
C1267 C1275 1.433 . S
C1268 H1264 0.929 . S
C1268 C1270 1.378 . S
C1268 C1272 1.350 . S
C1269 C1272 1.463 . S
C1269 C1274 1.350 . S
C1269 N1277 1.427 . S
C1270 H1261 0.930 . S
C1270 C1268 1.378 . S
C1270 C1271 1.367 . S
C1271 C1270 1.367 . S
C1271 C1273 1.433 . S
C1272 C1268 1.350 . S
C1272 C1269 1.463 . S
C1272 N1276 1.427 . S
C1273 H1263 0.929 . S
C1273 C1271 1.433 . S
C1273 N1276 1.384 . S
C1274 H1265 0.929 . S
C1274 C1266 1.378 . S
C1274 C1269 1.350 . S
C1275 H1262 0.929 . S
C1275 C1267 1.433 . S
C1275 N1277 1.384 . S
N1276 C1272 1.427 . S
N1276 C1273 1.384 . S
N1277 C1269 1.427 . S
N1277 C1275 1.384 . S
H1278 C1284 0.930 . S
H1279 C1288 0.930 . S
H1280 C1293 0.929 . S
H1281 C1291 0.929 . S
H1282 C1286 0.929 . S
H1283 C1292 0.929 . S
C1284 H1278 0.930 . S
C1284 C1285 1.367 . S
C1284 C1292 1.378 . S
C1285 C1284 1.367 . S
C1285 C1293 1.433 . S
C1286 H1282 0.929 . S
C1286 C1288 1.378 . S
C1286 C1290 1.350 . S
C1287 C1290 1.463 . S
C1287 C1292 1.350 . S
C1287 N1295 1.427 . S
C1288 H1279 0.930 . S
C1288 C1286 1.378 . S
C1288 C1289 1.367 . S
C1289 C1288 1.367 . S
C1289 C1291 1.433 . S
C1290 C1286 1.350 . S
C1290 C1287 1.463 . S
C1290 N1294 1.427 . S
C1291 H1281 0.929 . S
C1291 C1289 1.433 . S
C1291 N1294 1.384 . S
C1292 H1283 0.929 . S
C1292 C1284 1.378 . S
C1292 C1287 1.350 . S
C1293 H1280 0.929 . S
C1293 C1285 1.433 . S
C1293 N1295 1.384 . S
N1294 C1290 1.427 . S
N1294 C1291 1.384 . S
N1295 C1287 1.427 . S
N1295 C1293 1.384 . S
H1296 C1302 0.930 . S
H1297 C1306 0.930 . S
H1298 C1311 0.929 . S
H1299 C1309 0.929 . S
H1300 C1304 0.929 . S
H1301 C1310 0.929 . S
C1302 H1296 0.930 . S
C1302 C1303 1.367 . S
C1302 C1310 1.378 . S
C1303 C1302 1.367 . S
C1303 C1311 1.433 . S
C1304 H1300 0.929 . S
C1304 C1306 1.378 . S
C1304 C1308 1.350 . S
C1305 C1308 1.463 . S
C1305 C1310 1.350 . S
C1305 N1313 1.427 . S
C1306 H1297 0.930 . S
C1306 C1304 1.378 . S
C1306 C1307 1.367 . S
C1307 C1306 1.367 . S
C1307 C1309 1.433 . S
C1308 C1304 1.350 . S
C1308 C1305 1.463 . S
C1308 N1312 1.427 . S
C1309 H1299 0.929 . S
C1309 C1307 1.433 . S
C1309 N1312 1.384 . S
C1310 H1301 0.929 . S
C1310 C1302 1.378 . S
C1310 C1305 1.350 . S
C1311 H1298 0.929 . S
C1311 C1303 1.433 . S
C1311 N1313 1.384 . S
N1312 C1308 1.427 . S
N1312 C1309 1.384 . S
N1313 C1305 1.427 . S
N1313 C1311 1.384 . S
H1314 C1320 0.930 . S
H1315 C1324 0.930 . S
H1316 C1329 0.929 . S
H1317 C1327 0.929 . S
H1318 C1322 0.929 . S
H1319 C1328 0.929 . S
C1320 H1314 0.930 . S
C1320 C1321 1.367 . S
C1320 C1328 1.378 . S
C1321 C1320 1.367 . S
C1321 C1329 1.433 . S
C1322 H1318 0.929 . S
C1322 C1324 1.378 . S
C1322 C1326 1.350 . S
C1323 C1326 1.463 . S
C1323 C1328 1.350 . S
C1323 N1331 1.427 . S
C1324 H1315 0.930 . S
C1324 C1322 1.378 . S
C1324 C1325 1.367 . S
C1325 C1324 1.367 . S
C1325 C1327 1.433 . S
C1326 C1322 1.350 . S
C1326 C1323 1.463 . S
C1326 N1330 1.427 . S
C1327 H1317 0.929 . S
C1327 C1325 1.433 . S
C1327 N1330 1.384 . S
C1328 H1319 0.929 . S
C1328 C1320 1.378 . S
C1328 C1323 1.350 . S
C1329 H1316 0.929 . S
C1329 C1321 1.433 . S
C1329 N1331 1.384 . S
N1330 C1326 1.427 . S
N1330 C1327 1.384 . S
N1331 C1323 1.427 . S
N1331 C1329 1.384 . S
H1332 C1338 0.930 . S
H1333 C1342 0.930 . S
H1334 C1347 0.929 . S
H1335 C1345 0.929 . S
H1336 C1340 0.929 . S
H1337 C1346 0.929 . S
C1338 H1332 0.930 . S
C1338 C1339 1.367 . S
C1338 C1346 1.378 . S
C1339 C1338 1.367 . S
C1339 C1347 1.433 . S
C1340 H1336 0.929 . S
C1340 C1342 1.378 . S
C1340 C1344 1.350 . S
C1341 C1344 1.463 . S
C1341 C1346 1.350 . S
C1341 N1349 1.427 . S
C1342 H1333 0.930 . S
C1342 C1340 1.378 . S
C1342 C1343 1.367 . S
C1343 C1342 1.367 . S
C1343 C1345 1.433 . S
C1344 C1340 1.350 . S
C1344 C1341 1.463 . S
C1344 N1348 1.427 . S
C1345 H1335 0.929 . S
C1345 C1343 1.433 . S
C1345 N1348 1.384 . S
C1346 H1337 0.929 . S
C1346 C1338 1.378 . S
C1346 C1341 1.350 . S
C1347 H1334 0.929 . S
C1347 C1339 1.433 . S
C1347 N1349 1.384 . S
N1348 C1344 1.427 . S
N1348 C1345 1.384 . S
N1349 C1341 1.427 . S
N1349 C1347 1.384 . S
H1350 C1356 0.930 . S
H1351 C1360 0.930 . S
H1352 C1365 0.929 . S
H1353 C1363 0.929 . S
H1354 C1358 0.929 . S
H1355 C1364 0.929 . S
C1356 H1350 0.930 . S
C1356 C1357 1.367 . S
C1356 C1364 1.378 . S
C1357 C1356 1.367 . S
C1357 C1365 1.433 . S
C1358 H1354 0.929 . S
C1358 C1360 1.378 . S
C1358 C1362 1.350 . S
C1359 C1362 1.463 . S
C1359 C1364 1.350 . S
C1359 N1367 1.427 . S
C1360 H1351 0.930 . S
C1360 C1358 1.378 . S
C1360 C1361 1.367 . S
C1361 C1360 1.367 . S
C1361 C1363 1.433 . S
C1362 C1358 1.350 . S
C1362 C1359 1.463 . S
C1362 N1366 1.427 . S
C1363 H1353 0.929 . S
C1363 C1361 1.433 . S
C1363 N1366 1.384 . S
C1364 H1355 0.929 . S
C1364 C1356 1.378 . S
C1364 C1359 1.350 . S
C1365 H1352 0.929 . S
C1365 C1357 1.433 . S
C1365 N1367 1.384 . S
N1366 C1362 1.427 . S
N1366 C1363 1.384 . S
N1367 C1359 1.427 . S
N1367 C1365 1.384 . S
H1368 C1374 0.930 . S
H1369 C1378 0.930 . S
H1370 C1383 0.929 . S
H1371 C1381 0.929 . S
H1372 C1376 0.929 . S
H1373 C1382 0.929 . S
C1374 H1368 0.930 . S
C1374 C1375 1.367 . S
C1374 C1382 1.378 . S
C1375 C1374 1.367 . S
C1375 C1383 1.433 . S
C1376 H1372 0.929 . S
C1376 C1378 1.378 . S
C1376 C1380 1.350 . S
C1377 C1380 1.463 . S
C1377 C1382 1.350 . S
C1377 N1385 1.427 . S
C1378 H1369 0.930 . S
C1378 C1376 1.378 . S
C1378 C1379 1.367 . S
C1379 C1378 1.367 . S
C1379 C1381 1.433 . S
C1380 C1376 1.350 . S
C1380 C1377 1.463 . S
C1380 N1384 1.427 . S
C1381 H1371 0.929 . S
C1381 C1379 1.433 . S
C1381 N1384 1.384 . S
C1382 H1373 0.929 . S
C1382 C1374 1.378 . S
C1382 C1377 1.350 . S
C1383 H1370 0.929 . S
C1383 C1375 1.433 . S
C1383 N1385 1.384 . S
N1384 C1380 1.427 . S
N1384 C1381 1.384 . S
N1385 C1377 1.427 . S
N1385 C1383 1.384 . S
H1386 C1392 0.930 . S
H1387 C1396 0.930 . S
H1388 C1401 0.929 . S
H1389 C1399 0.929 . S
H1390 C1394 0.929 . S
H1391 C1400 0.929 . S
C1392 H1386 0.930 . S
C1392 C1393 1.367 . S
C1392 C1400 1.378 . S
C1393 C1392 1.367 . S
C1393 C1401 1.433 . S
C1394 H1390 0.929 . S
C1394 C1396 1.378 . S
C1394 C1398 1.350 . S
C1395 C1398 1.463 . S
C1395 C1400 1.350 . S
C1395 N1403 1.427 . S
C1396 H1387 0.930 . S
C1396 C1394 1.378 . S
C1396 C1397 1.367 . S
C1397 C1396 1.367 . S
C1397 C1399 1.433 . S
C1398 C1394 1.350 . S
C1398 C1395 1.463 . S
C1398 N1402 1.427 . S
C1399 H1389 0.929 . S
C1399 C1397 1.433 . S
C1399 N1402 1.384 . S
C1400 H1391 0.929 . S
C1400 C1392 1.378 . S
C1400 C1395 1.350 . S
C1401 H1388 0.929 . S
C1401 C1393 1.433 . S
C1401 N1403 1.384 . S
N1402 C1398 1.427 . S
N1402 C1399 1.384 . S
N1403 C1395 1.427 . S
N1403 C1401 1.384 . S
H1404 C1410 0.930 . S
H1405 C1414 0.930 . S
H1406 C1419 0.929 . S
H1407 C1417 0.929 . S
H1408 C1412 0.929 . S
H1409 C1418 0.929 . S
C1410 H1404 0.930 . S
C1410 C1411 1.367 . S
C1410 C1418 1.378 . S
C1411 C1410 1.367 . S
C1411 C1419 1.433 . S
C1412 H1408 0.929 . S
C1412 C1414 1.378 . S
C1412 C1416 1.350 . S
C1413 C1416 1.463 . S
C1413 C1418 1.350 . S
C1413 N1421 1.427 . S
C1414 H1405 0.930 . S
C1414 C1412 1.378 . S
C1414 C1415 1.367 . S
C1415 C1414 1.367 . S
C1415 C1417 1.433 . S
C1416 C1412 1.350 . S
C1416 C1413 1.463 . S
C1416 N1420 1.427 . S
C1417 H1407 0.929 . S
C1417 C1415 1.433 . S
C1417 N1420 1.384 . S
C1418 H1409 0.929 . S
C1418 C1410 1.378 . S
C1418 C1413 1.350 . S
C1419 H1406 0.929 . S
C1419 C1411 1.433 . S
C1419 N1421 1.384 . S
N1420 C1416 1.427 . S
N1420 C1417 1.384 . S
N1421 C1413 1.427 . S
N1421 C1419 1.384 . S
H1422 C1428 0.930 . S
H1423 C1432 0.930 . S
H1424 C1437 0.929 . S
H1425 C1435 0.929 . S
H1426 C1430 0.929 . S
H1427 C1436 0.929 . S
C1428 H1422 0.930 . S
C1428 C1429 1.367 . S
C1428 C1436 1.378 . S
C1429 C1428 1.367 . S
C1429 C1437 1.433 . S
C1430 H1426 0.929 . S
C1430 C1432 1.378 . S
C1430 C1434 1.350 . S
C1431 C1434 1.463 . S
C1431 C1436 1.350 . S
C1431 N1439 1.427 . S
C1432 H1423 0.930 . S
C1432 C1430 1.378 . S
C1432 C1433 1.367 . S
C1433 C1432 1.367 . S
C1433 C1435 1.433 . S
C1434 C1430 1.350 . S
C1434 C1431 1.463 . S
C1434 N1438 1.427 . S
C1435 H1425 0.929 . S
C1435 C1433 1.433 . S
C1435 N1438 1.384 . S
C1436 H1427 0.929 . S
C1436 C1428 1.378 . S
C1436 C1431 1.350 . S
C1437 H1424 0.929 . S
C1437 C1429 1.433 . S
C1437 N1439 1.384 . S
N1438 C1434 1.427 . S
N1438 C1435 1.384 . S
N1439 C1431 1.427 . S
N1439 C1437 1.384 . S
H1440 C1446 0.930 . S
H1441 C1450 0.930 . S
H1442 C1455 0.929 . S
H1443 C1453 0.929 . S
H1444 C1448 0.929 . S
H1445 C1454 0.929 . S
C1446 H1440 0.930 . S
C1446 C1447 1.367 . S
C1446 C1454 1.378 . S
C1447 C1446 1.367 . S
C1447 C1455 1.433 . S
C1448 H1444 0.929 . S
C1448 C1450 1.378 . S
C1448 C1452 1.350 . S
C1449 C1452 1.463 . S
C1449 C1454 1.350 . S
C1449 N1457 1.427 . S
C1450 H1441 0.930 . S
C1450 C1448 1.378 . S
C1450 C1451 1.367 . S
C1451 C1450 1.367 . S
C1451 C1453 1.433 . S
C1452 C1448 1.350 . S
C1452 C1449 1.463 . S
C1452 N1456 1.427 . S
C1453 H1443 0.929 . S
C1453 C1451 1.433 . S
C1453 N1456 1.384 . S
C1454 H1445 0.929 . S
C1454 C1446 1.378 . S
C1454 C1449 1.350 . S
C1455 H1442 0.929 . S
C1455 C1447 1.433 . S
C1455 N1457 1.384 . S
N1456 C1452 1.427 . S
N1456 C1453 1.384 . S
N1457 C1449 1.427 . S
N1457 C1455 1.384 . S
H1458 C1464 0.930 . S
H1459 C1468 0.930 . S
H1460 C1473 0.929 . S
H1461 C1471 0.929 . S
H1462 C1466 0.929 . S
H1463 C1472 0.929 . S
C1464 H1458 0.930 . S
C1464 C1465 1.367 . S
C1464 C1472 1.378 . S
C1465 C1464 1.367 . S
C1465 C1473 1.433 . S
C1466 H1462 0.929 . S
C1466 C1468 1.378 . S
C1466 C1470 1.350 . S
C1467 C1470 1.463 . S
C1467 C1472 1.350 . S
C1467 N1475 1.427 . S
C1468 H1459 0.930 . S
C1468 C1466 1.378 . S
C1468 C1469 1.367 . S
C1469 C1468 1.367 . S
C1469 C1471 1.433 . S
C1470 C1466 1.350 . S
C1470 C1467 1.463 . S
C1470 N1474 1.427 . S
C1471 H1461 0.929 . S
C1471 C1469 1.433 . S
C1471 N1474 1.384 . S
C1472 H1463 0.929 . S
C1472 C1464 1.378 . S
C1472 C1467 1.350 . S
C1473 H1460 0.929 . S
C1473 C1465 1.433 . S
C1473 N1475 1.384 . S
N1474 C1470 1.427 . S
N1474 C1471 1.384 . S
N1475 C1467 1.427 . S
N1475 C1473 1.384 . S
H1476 C1482 0.930 . S
H1477 C1486 0.930 . S
H1478 C1491 0.929 . S
H1479 C1489 0.929 . S
H1480 C1484 0.929 . S
H1481 C1490 0.929 . S
C1482 H1476 0.930 . S
C1482 C1483 1.367 . S
C1482 C1490 1.378 . S
C1483 C1482 1.367 . S
C1483 C1491 1.433 . S
C1484 H1480 0.929 . S
C1484 C1486 1.378 . S
C1484 C1488 1.350 . S
C1485 C1488 1.463 . S
C1485 C1490 1.350 . S
C1485 N1493 1.427 . S
C1486 H1477 0.930 . S
C1486 C1484 1.378 . S
C1486 C1487 1.367 . S
C1487 C1486 1.367 . S
C1487 C1489 1.433 . S
C1488 C1484 1.350 . S
C1488 C1485 1.463 . S
C1488 N1492 1.427 . S
C1489 H1479 0.929 . S
C1489 C1487 1.433 . S
C1489 N1492 1.384 . S
C1490 H1481 0.929 . S
C1490 C1482 1.378 . S
C1490 C1485 1.350 . S
C1491 H1478 0.929 . S
C1491 C1483 1.433 . S
C1491 N1493 1.384 . S
N1492 C1488 1.427 . S
N1492 C1489 1.384 . S
N1493 C1485 1.427 . S
N1493 C1491 1.384 . S
H1494 C1500 0.930 . S
H1495 C1504 0.930 . S
H1496 C1509 0.929 . S
H1497 C1507 0.929 . S
H1498 C1502 0.929 . S
H1499 C1508 0.929 . S
C1500 H1494 0.930 . S
C1500 C1501 1.367 . S
C1500 C1508 1.378 . S
C1501 C1500 1.367 . S
C1501 C1509 1.433 . S
C1502 H1498 0.929 . S
C1502 C1504 1.378 . S
C1502 C1506 1.350 . S
C1503 C1506 1.463 . S
C1503 C1508 1.350 . S
C1503 N1511 1.427 . S
C1504 H1495 0.930 . S
C1504 C1502 1.378 . S
C1504 C1505 1.367 . S
C1505 C1504 1.367 . S
C1505 C1507 1.433 . S
C1506 C1502 1.350 . S
C1506 C1503 1.463 . S
C1506 N1510 1.427 . S
C1507 H1497 0.929 . S
C1507 C1505 1.433 . S
C1507 N1510 1.384 . S
C1508 H1499 0.929 . S
C1508 C1500 1.378 . S
C1508 C1503 1.350 . S
C1509 H1496 0.929 . S
C1509 C1501 1.433 . S
C1509 N1511 1.384 . S
N1510 C1506 1.427 . S
N1510 C1507 1.384 . S
N1511 C1503 1.427 . S
N1511 C1509 1.384 . S
H1512 C1518 0.930 . S
H1513 C1522 0.930 . S
H1514 C1527 0.929 . S
H1515 C1525 0.929 . S
H1516 C1520 0.929 . S
H1517 C1526 0.929 . S
C1518 H1512 0.930 . S
C1518 C1519 1.367 . S
C1518 C1526 1.378 . S
C1519 C1518 1.367 . S
C1519 C1527 1.433 . S
C1520 H1516 0.929 . S
C1520 C1522 1.378 . S
C1520 C1524 1.350 . S
C1521 C1524 1.463 . S
C1521 C1526 1.350 . S
C1521 N1529 1.427 . S
C1522 H1513 0.930 . S
C1522 C1520 1.378 . S
C1522 C1523 1.367 . S
C1523 C1522 1.367 . S
C1523 C1525 1.433 . S
C1524 C1520 1.350 . S
C1524 C1521 1.463 . S
C1524 N1528 1.427 . S
C1525 H1515 0.929 . S
C1525 C1523 1.433 . S
C1525 N1528 1.384 . S
C1526 H1517 0.929 . S
C1526 C1518 1.378 . S
C1526 C1521 1.350 . S
C1527 H1514 0.929 . S
C1527 C1519 1.433 . S
C1527 N1529 1.384 . S
N1528 C1524 1.427 . S
N1528 C1525 1.384 . S
N1529 C1521 1.427 . S
N1529 C1527 1.384 . S
H1530 C1536 0.930 . S
H1531 C1540 0.930 . S
H1532 C1545 0.929 . S
H1533 C1543 0.929 . S
H1534 C1538 0.929 . S
H1535 C1544 0.929 . S
C1536 H1530 0.930 . S
C1536 C1537 1.367 . S
C1536 C1544 1.378 . S
C1537 C1536 1.367 . S
C1537 C1545 1.433 . S
C1538 H1534 0.929 . S
C1538 C1540 1.378 . S
C1538 C1542 1.350 . S
C1539 C1542 1.463 . S
C1539 C1544 1.350 . S
C1539 N1547 1.427 . S
C1540 H1531 0.930 . S
C1540 C1538 1.378 . S
C1540 C1541 1.367 . S
C1541 C1540 1.367 . S
C1541 C1543 1.433 . S
C1542 C1538 1.350 . S
C1542 C1539 1.463 . S
C1542 N1546 1.427 . S
C1543 H1533 0.929 . S
C1543 C1541 1.433 . S
C1543 N1546 1.384 . S
C1544 H1535 0.929 . S
C1544 C1536 1.378 . S
C1544 C1539 1.350 . S
C1545 H1532 0.929 . S
C1545 C1537 1.433 . S
C1545 N1547 1.384 . S
N1546 C1542 1.427 . S
N1546 C1543 1.384 . S
N1547 C1539 1.427 . S
N1547 C1545 1.384 . S
H1548 C1554 0.930 . S
H1549 C1558 0.930 . S
H1550 C1563 0.929 . S
H1551 C1561 0.929 . S
H1552 C1556 0.929 . S
H1553 C1562 0.929 . S
C1554 H1548 0.930 . S
C1554 C1555 1.367 . S
C1554 C1562 1.378 . S
C1555 C1554 1.367 . S
C1555 C1563 1.433 . S
C1556 H1552 0.929 . S
C1556 C1558 1.378 . S
C1556 C1560 1.350 . S
C1557 C1560 1.463 . S
C1557 C1562 1.350 . S
C1557 N1565 1.427 . S
C1558 H1549 0.930 . S
C1558 C1556 1.378 . S
C1558 C1559 1.367 . S
C1559 C1558 1.367 . S
C1559 C1561 1.433 . S
C1560 C1556 1.350 . S
C1560 C1557 1.463 . S
C1560 N1564 1.427 . S
C1561 H1551 0.929 . S
C1561 C1559 1.433 . S
C1561 N1564 1.384 . S
C1562 H1553 0.929 . S
C1562 C1554 1.378 . S
C1562 C1557 1.350 . S
C1563 H1550 0.929 . S
C1563 C1555 1.433 . S
C1563 N1565 1.384 . S
N1564 C1560 1.427 . S
N1564 C1561 1.384 . S
N1565 C1557 1.427 . S
N1565 C1563 1.384 . S
H1566 C1572 0.930 . S
H1567 C1576 0.930 . S
H1568 C1581 0.929 . S
H1569 C1579 0.929 . S
H1570 C1574 0.929 . S
H1571 C1580 0.929 . S
C1572 H1566 0.930 . S
C1572 C1573 1.367 . S
C1572 C1580 1.378 . S
C1573 C1572 1.367 . S
C1573 C1581 1.433 . S
C1574 H1570 0.929 . S
C1574 C1576 1.378 . S
C1574 C1578 1.350 . S
C1575 C1578 1.463 . S
C1575 C1580 1.350 . S
C1575 N1583 1.427 . S
C1576 H1567 0.930 . S
C1576 C1574 1.378 . S
C1576 C1577 1.367 . S
C1577 C1576 1.367 . S
C1577 C1579 1.433 . S
C1578 C1574 1.350 . S
C1578 C1575 1.463 . S
C1578 N1582 1.427 . S
C1579 H1569 0.929 . S
C1579 C1577 1.433 . S
C1579 N1582 1.384 . S
C1580 H1571 0.929 . S
C1580 C1572 1.378 . S
C1580 C1575 1.350 . S
C1581 H1568 0.929 . S
C1581 C1573 1.433 . S
C1581 N1583 1.384 . S
N1582 C1578 1.427 . S
N1582 C1579 1.384 . S
N1583 C1575 1.427 . S
N1583 C1581 1.384 . S
H1584 C1590 0.930 . S
H1585 C1594 0.930 . S
H1586 C1599 0.929 . S
H1587 C1597 0.929 . S
H1588 C1592 0.929 . S
H1589 C1598 0.929 . S
C1590 H1584 0.930 . S
C1590 C1591 1.367 . S
C1590 C1598 1.378 . S
C1591 C1590 1.367 . S
C1591 C1599 1.433 . S
C1592 H1588 0.929 . S
C1592 C1594 1.378 . S
C1592 C1596 1.350 . S
C1593 C1596 1.463 . S
C1593 C1598 1.350 . S
C1593 N1601 1.427 . S
C1594 H1585 0.930 . S
C1594 C1592 1.378 . S
C1594 C1595 1.367 . S
C1595 C1594 1.367 . S
C1595 C1597 1.433 . S
C1596 C1592 1.350 . S
C1596 C1593 1.463 . S
C1596 N1600 1.427 . S
C1597 H1587 0.929 . S
C1597 C1595 1.433 . S
C1597 N1600 1.384 . S
C1598 H1589 0.929 . S
C1598 C1590 1.378 . S
C1598 C1593 1.350 . S
C1599 H1586 0.929 . S
C1599 C1591 1.433 . S
C1599 N1601 1.384 . S
N1600 C1596 1.427 . S
N1600 C1597 1.384 . S
N1601 C1593 1.427 . S
N1601 C1599 1.384 . S
H1602 C1608 0.930 . S
H1603 C1612 0.930 . S
H1604 C1617 0.929 . S
H1605 C1615 0.929 . S
H1606 C1610 0.929 . S
H1607 C1616 0.929 . S
C1608 H1602 0.930 . S
C1608 C1609 1.367 . S
C1608 C1616 1.378 . S
C1609 C1608 1.367 . S
C1609 C1617 1.433 . S
C1610 H1606 0.929 . S
C1610 C1612 1.378 . S
C1610 C1614 1.350 . S
C1611 C1614 1.463 . S
C1611 C1616 1.350 . S
C1611 N1619 1.427 . S
C1612 H1603 0.930 . S
C1612 C1610 1.378 . S
C1612 C1613 1.367 . S
C1613 C1612 1.367 . S
C1613 C1615 1.433 . S
C1614 C1610 1.350 . S
C1614 C1611 1.463 . S
C1614 N1618 1.427 . S
C1615 H1605 0.929 . S
C1615 C1613 1.433 . S
C1615 N1618 1.384 . S
C1616 H1607 0.929 . S
C1616 C1608 1.378 . S
C1616 C1611 1.350 . S
C1617 H1604 0.929 . S
C1617 C1609 1.433 . S
C1617 N1619 1.384 . S
N1618 C1614 1.427 . S
N1618 C1615 1.384 . S
N1619 C1611 1.427 . S
N1619 C1617 1.384 . S
H1620 C1626 0.930 . S
H1621 C1630 0.930 . S
H1622 C1635 0.929 . S
H1623 C1633 0.929 . S
H1624 C1628 0.929 . S
H1625 C1634 0.929 . S
C1626 H1620 0.930 . S
C1626 C1627 1.367 . S
C1626 C1634 1.378 . S
C1627 C1626 1.367 . S
C1627 C1635 1.433 . S
C1628 H1624 0.929 . S
C1628 C1630 1.378 . S
C1628 C1632 1.350 . S
C1629 C1632 1.463 . S
C1629 C1634 1.350 . S
C1629 N1637 1.427 . S
C1630 H1621 0.930 . S
C1630 C1628 1.378 . S
C1630 C1631 1.367 . S
C1631 C1630 1.367 . S
C1631 C1633 1.433 . S
C1632 C1628 1.350 . S
C1632 C1629 1.463 . S
C1632 N1636 1.427 . S
C1633 H1623 0.929 . S
C1633 C1631 1.433 . S
C1633 N1636 1.384 . S
C1634 H1625 0.929 . S
C1634 C1626 1.378 . S
C1634 C1629 1.350 . S
C1635 H1622 0.929 . S
C1635 C1627 1.433 . S
C1635 N1637 1.384 . S
N1636 C1632 1.427 . S
N1636 C1633 1.384 . S
N1637 C1629 1.427 . S
N1637 C1635 1.384 . S
H1638 C1644 0.930 . S
H1639 C1648 0.930 . S
H1640 C1653 0.929 . S
H1641 C1651 0.929 . S
H1642 C1646 0.929 . S
H1643 C1652 0.929 . S
C1644 H1638 0.930 . S
C1644 C1645 1.367 . S
C1644 C1652 1.378 . S
C1645 C1644 1.367 . S
C1645 C1653 1.433 . S
C1646 H1642 0.929 . S
C1646 C1648 1.378 . S
C1646 C1650 1.350 . S
C1647 C1650 1.463 . S
C1647 C1652 1.350 . S
C1647 N1655 1.427 . S
C1648 H1639 0.930 . S
C1648 C1646 1.378 . S
C1648 C1649 1.367 . S
C1649 C1648 1.367 . S
C1649 C1651 1.433 . S
C1650 C1646 1.350 . S
C1650 C1647 1.463 . S
C1650 N1654 1.427 . S
C1651 H1641 0.929 . S
C1651 C1649 1.433 . S
C1651 N1654 1.384 . S
C1652 H1643 0.929 . S
C1652 C1644 1.378 . S
C1652 C1647 1.350 . S
C1653 H1640 0.929 . S
C1653 C1645 1.433 . S
C1653 N1655 1.384 . S
N1654 C1650 1.427 . S
N1654 C1651 1.384 . S
N1655 C1647 1.427 . S
N1655 C1653 1.384 . S
H1656 C1662 0.930 . S
H1657 C1666 0.930 . S
H1658 C1671 0.929 . S
H1659 C1669 0.929 . S
H1660 C1664 0.929 . S
H1661 C1670 0.929 . S
C1662 H1656 0.930 . S
C1662 C1663 1.367 . S
C1662 C1670 1.378 . S
C1663 C1662 1.367 . S
C1663 C1671 1.433 . S
C1664 H1660 0.929 . S
C1664 C1666 1.378 . S
C1664 C1668 1.350 . S
C1665 C1668 1.463 . S
C1665 C1670 1.350 . S
C1665 N1673 1.427 . S
C1666 H1657 0.930 . S
C1666 C1664 1.378 . S
C1666 C1667 1.367 . S
C1667 C1666 1.367 . S
C1667 C1669 1.433 . S
C1668 C1664 1.350 . S
C1668 C1665 1.463 . S
C1668 N1672 1.427 . S
C1669 H1659 0.929 . S
C1669 C1667 1.433 . S
C1669 N1672 1.384 . S
C1670 H1661 0.929 . S
C1670 C1662 1.378 . S
C1670 C1665 1.350 . S
C1671 H1658 0.929 . S
C1671 C1663 1.433 . S
C1671 N1673 1.384 . S
N1672 C1668 1.427 . S
N1672 C1669 1.384 . S
N1673 C1665 1.427 . S
N1673 C1671 1.384 . S
H1674 C1680 0.930 . S
H1675 C1684 0.930 . S
H1676 C1689 0.929 . S
H1677 C1687 0.929 . S
H1678 C1682 0.929 . S
H1679 C1688 0.929 . S
C1680 H1674 0.930 . S
C1680 C1681 1.367 . S
C1680 C1688 1.378 . S
C1681 C1680 1.367 . S
C1681 C1689 1.433 . S
C1682 H1678 0.929 . S
C1682 C1684 1.378 . S
C1682 C1686 1.350 . S
C1683 C1686 1.463 . S
C1683 C1688 1.350 . S
C1683 N1691 1.427 . S
C1684 H1675 0.930 . S
C1684 C1682 1.378 . S
C1684 C1685 1.367 . S
C1685 C1684 1.367 . S
C1685 C1687 1.433 . S
C1686 C1682 1.350 . S
C1686 C1683 1.463 . S
C1686 N1690 1.427 . S
C1687 H1677 0.929 . S
C1687 C1685 1.433 . S
C1687 N1690 1.384 . S
C1688 H1679 0.929 . S
C1688 C1680 1.378 . S
C1688 C1683 1.350 . S
C1689 H1676 0.929 . S
C1689 C1681 1.433 . S
C1689 N1691 1.384 . S
N1690 C1686 1.427 . S
N1690 C1687 1.384 . S
N1691 C1683 1.427 . S
N1691 C1689 1.384 . S
H1692 C1698 0.930 . S
H1693 C1702 0.930 . S
H1694 C1707 0.929 . S
H1695 C1705 0.929 . S
H1696 C1700 0.929 . S
H1697 C1706 0.929 . S
C1698 H1692 0.930 . S
C1698 C1699 1.367 . S
C1698 C1706 1.378 . S
C1699 C1698 1.367 . S
C1699 C1707 1.433 . S
C1700 H1696 0.929 . S
C1700 C1702 1.378 . S
C1700 C1704 1.350 . S
C1701 C1704 1.463 . S
C1701 C1706 1.350 . S
C1701 N1709 1.427 . S
C1702 H1693 0.930 . S
C1702 C1700 1.378 . S
C1702 C1703 1.367 . S
C1703 C1702 1.367 . S
C1703 C1705 1.433 . S
C1704 C1700 1.350 . S
C1704 C1701 1.463 . S
C1704 N1708 1.427 . S
C1705 H1695 0.929 . S
C1705 C1703 1.433 . S
C1705 N1708 1.384 . S
C1706 H1697 0.929 . S
C1706 C1698 1.378 . S
C1706 C1701 1.350 . S
C1707 H1694 0.929 . S
C1707 C1699 1.433 . S
C1707 N1709 1.384 . S
N1708 C1704 1.427 . S
N1708 C1705 1.384 . S
N1709 C1701 1.427 . S
N1709 C1707 1.384 . S
H1710 C1716 0.930 . S
H1711 C1720 0.930 . S
H1712 C1725 0.929 . S
H1713 C1723 0.929 . S
H1714 C1718 0.929 . S
H1715 C1724 0.929 . S
C1716 H1710 0.930 . S
C1716 C1717 1.367 . S
C1716 C1724 1.378 . S
C1717 C1716 1.367 . S
C1717 C1725 1.433 . S
C1718 H1714 0.929 . S
C1718 C1720 1.378 . S
C1718 C1722 1.350 . S
C1719 C1722 1.463 . S
C1719 C1724 1.350 . S
C1719 N1727 1.427 . S
C1720 H1711 0.930 . S
C1720 C1718 1.378 . S
C1720 C1721 1.367 . S
C1721 C1720 1.367 . S
C1721 C1723 1.433 . S
C1722 C1718 1.350 . S
C1722 C1719 1.463 . S
C1722 N1726 1.427 . S
C1723 H1713 0.929 . S
C1723 C1721 1.433 . S
C1723 N1726 1.384 . S
C1724 H1715 0.929 . S
C1724 C1716 1.378 . S
C1724 C1719 1.350 . S
C1725 H1712 0.929 . S
C1725 C1717 1.433 . S
C1725 N1727 1.384 . S
N1726 C1722 1.427 . S
N1726 C1723 1.384 . S
N1727 C1719 1.427 . S
N1727 C1725 1.384 . S
H1728 C1734 0.930 . S
H1729 C1738 0.930 . S
H1730 C1743 0.929 . S
H1731 C1741 0.929 . S
H1732 C1736 0.929 . S
H1733 C1742 0.929 . S
C1734 H1728 0.930 . S
C1734 C1735 1.367 . S
C1734 C1742 1.378 . S
C1735 C1734 1.367 . S
C1735 C1743 1.433 . S
C1736 H1732 0.929 . S
C1736 C1738 1.378 . S
C1736 C1740 1.350 . S
C1737 C1740 1.463 . S
C1737 C1742 1.350 . S
C1737 N1745 1.427 . S
C1738 H1729 0.930 . S
C1738 C1736 1.378 . S
C1738 C1739 1.367 . S
C1739 C1738 1.367 . S
C1739 C1741 1.433 . S
C1740 C1736 1.350 . S
C1740 C1737 1.463 . S
C1740 N1744 1.427 . S
C1741 H1731 0.929 . S
C1741 C1739 1.433 . S
C1741 N1744 1.384 . S
C1742 H1733 0.929 . S
C1742 C1734 1.378 . S
C1742 C1737 1.350 . S
C1743 H1730 0.929 . S
C1743 C1735 1.433 . S
C1743 N1745 1.384 . S
N1744 C1740 1.427 . S
N1744 C1741 1.384 . S
N1745 C1737 1.427 . S
N1745 C1743 1.384 . S
H1746 C1752 0.919 1_655 S
H1747 C1756 0.933 . S
H1748 C1761 0.929 . S
H1749 C1759 0.929 . S
H1750 C1754 0.929 . S
H1751 C1760 0.929 . S
C1752 H1746 0.919 1_455 S
C1752 C1753 1.386 . S
C1752 C1760 1.370 1_455 S
C1753 C1752 1.386 . S
C1753 C1761 1.433 1_565 S
C1754 H1750 0.929 . S
C1754 C1756 1.380 . S
C1754 C1758 1.371 1_455 S
C1755 C1758 1.457 1_465 S
C1755 C1760 1.350 1_455 S
C1755 N1763 1.427 1_565 S
C1756 H1747 0.933 . S
C1756 C1754 1.380 . S
C1756 C1757 1.362 1_455 S
C1757 C1756 1.362 1_655 S
C1757 C1759 1.433 1_545 S
C1758 C1754 1.371 1_655 S
C1758 C1755 1.457 1_645 S
C1758 N1762 1.410 1_545 S
C1759 H1749 0.929 . S
C1759 C1757 1.433 1_565 S
C1759 N1762 1.384 . S
C1760 H1751 0.929 . S
C1760 C1752 1.370 1_655 S
C1760 C1755 1.350 1_655 S
C1761 H1748 0.929 . S
C1761 C1753 1.433 1_545 S
C1761 N1763 1.384 . S
N1762 C1758 1.410 1_565 S
N1762 C1759 1.384 . S
N1763 C1755 1.427 1_545 S
N1763 C1761 1.384 . S
H1764 C1770 0.930 . S
H1765 C1774 0.930 . S
H1766 C1779 0.929 . S
H1767 C1777 0.929 . S
H1768 C1772 0.929 . S
H1769 C1778 0.929 . S
C1770 H1764 0.930 . S
C1770 C1771 1.367 . S
C1770 C1778 1.378 . S
C1771 C1770 1.367 . S
C1771 C1779 1.433 . S
C1772 H1768 0.929 . S
C1772 C1774 1.378 . S
C1772 C1776 1.350 . S
C1773 C1776 1.463 . S
C1773 C1778 1.350 . S
C1773 N1781 1.427 . S
C1774 H1765 0.930 . S
C1774 C1772 1.378 . S
C1774 C1775 1.367 . S
C1775 C1774 1.367 . S
C1775 C1777 1.433 . S
C1776 C1772 1.350 . S
C1776 C1773 1.463 . S
C1776 N1780 1.427 . S
C1777 H1767 0.929 . S
C1777 C1775 1.433 . S
C1777 N1780 1.384 . S
C1778 H1769 0.929 . S
C1778 C1770 1.378 . S
C1778 C1773 1.350 . S
C1779 H1766 0.929 . S
C1779 C1771 1.433 . S
C1779 N1781 1.384 . S
N1780 C1776 1.427 . S
N1780 C1777 1.384 . S
N1781 C1773 1.427 . S
N1781 C1779 1.384 . S
H1782 C1788 0.930 . S
H1783 C1792 0.930 . S
H1784 C1797 0.929 . S
H1785 C1795 0.929 . S
H1786 C1790 0.929 . S
H1787 C1796 0.929 . S
C1788 H1782 0.930 . S
C1788 C1789 1.367 1_565 S
C1788 C1796 1.378 . S
C1789 C1788 1.367 1_545 S
C1789 C1797 1.433 . S
C1790 H1786 0.929 . S
C1790 C1792 1.378 . S
C1790 C1794 1.348 1_545 S
C1791 C1794 1.462 1_544 S
C1791 C1796 1.350 1_545 S
C1791 N1799 1.427 . S
C1792 H1783 0.930 . S
C1792 C1790 1.378 . S
C1792 C1793 1.367 1_545 S
C1793 C1792 1.367 1_565 S
C1793 C1795 1.433 . S
C1794 C1790 1.348 1_565 S
C1794 C1791 1.462 1_566 S
C1794 N1798 1.430 . S
C1795 H1785 0.929 . S
C1795 C1793 1.433 . S
C1795 N1798 1.384 . S
C1796 H1787 0.929 . S
C1796 C1788 1.378 . S
C1796 C1791 1.350 1_565 S
C1797 H1784 0.929 . S
C1797 C1789 1.433 . S
C1797 N1799 1.384 . S
N1798 C1794 1.430 . S
N1798 C1795 1.384 . S
N1799 C1791 1.427 . S
N1799 C1797 1.384 . S
H1800 C1806 0.930 . S
H1801 C1810 0.930 . S
H1802 C1815 0.929 . S
H1803 C1813 0.929 . S
H1804 C1808 0.929 . S
H1805 C1814 0.929 . S
C1806 H1800 0.930 . S
C1806 C1807 1.367 . S
C1806 C1814 1.378 . S
C1807 C1806 1.367 . S
C1807 C1815 1.433 . S
C1808 H1804 0.929 . S
C1808 C1810 1.378 . S
C1808 C1812 1.350 . S
C1809 C1812 1.463 . S
C1809 C1814 1.350 . S
C1809 N1817 1.427 . S
C1810 H1801 0.930 . S
C1810 C1808 1.378 . S
C1810 C1811 1.367 . S
C1811 C1810 1.367 . S
C1811 C1813 1.433 . S
C1812 C1808 1.350 . S
C1812 C1809 1.463 . S
C1812 N1816 1.427 . S
C1813 H1803 0.929 . S
C1813 C1811 1.433 . S
C1813 N1816 1.384 . S
C1814 H1805 0.929 . S
C1814 C1806 1.378 . S
C1814 C1809 1.350 . S
C1815 H1802 0.929 . S
C1815 C1807 1.433 . S
C1815 N1817 1.384 . S
N1816 C1812 1.427 . S
N1816 C1813 1.384 . S
N1817 C1809 1.427 . S
N1817 C1815 1.384 . S
H1818 C1824 0.930 . S
H1819 C1828 0.930 . S
H1820 C1833 0.929 . S
H1821 C1831 0.929 . S
H1822 C1826 0.929 . S
H1823 C1832 0.929 . S
C1824 H1818 0.930 . S
C1824 C1825 1.367 1_545 S
C1824 C1832 1.378 . S
C1825 C1824 1.367 1_565 S
C1825 C1833 1.433 . S
C1826 H1822 0.929 . S
C1826 C1828 1.378 . S
C1826 C1830 1.373 . S
C1827 C1830 1.465 . S
C1827 C1832 1.350 1_565 S
C1827 N1835 1.427 . S
C1828 H1819 0.930 . S
C1828 C1826 1.378 . S
C1828 C1829 1.367 1_565 S
C1829 C1828 1.367 1_545 S
C1829 C1831 1.433 . S
C1830 C1826 1.373 . S
C1830 C1827 1.465 . S
C1830 N1834 1.400 1_565 S
C1831 H1821 0.929 . S
C1831 C1829 1.433 . S
C1831 N1834 1.384 . S
C1832 H1823 0.929 . S
C1832 C1824 1.378 . S
C1832 C1827 1.350 1_545 S
C1833 H1820 0.929 . S
C1833 C1825 1.433 . S
C1833 N1835 1.384 . S
N1834 C1830 1.400 1_545 S
N1834 C1831 1.384 . S
N1835 C1827 1.427 . S
N1835 C1833 1.384 . S
H1836 C1842 0.930 . S
H1837 C1846 0.930 . S
H1838 C1851 0.929 . S
H1839 C1849 0.929 . S
H1840 C1844 0.929 . S
H1841 C1850 0.929 . S
C1842 H1836 0.930 . S
C1842 C1843 1.367 . S
C1842 C1850 1.378 . S
C1843 C1842 1.367 . S
C1843 C1851 1.433 . S
C1844 H1840 0.929 . S
C1844 C1846 1.378 . S
C1844 C1848 1.350 . S
C1845 C1848 1.463 . S
C1845 C1850 1.350 . S
C1845 N1853 1.427 . S
C1846 H1837 0.930 . S
C1846 C1844 1.378 . S
C1846 C1847 1.367 . S
C1847 C1846 1.367 . S
C1847 C1849 1.433 . S
C1848 C1844 1.350 . S
C1848 C1845 1.463 . S
C1848 N1852 1.427 . S
C1849 H1839 0.929 . S
C1849 C1847 1.433 . S
C1849 N1852 1.384 . S
C1850 H1841 0.929 . S
C1850 C1842 1.378 . S
C1850 C1845 1.350 . S
C1851 H1838 0.929 . S
C1851 C1843 1.433 . S
C1851 N1853 1.384 . S
N1852 C1848 1.427 . S
N1852 C1849 1.384 . S
N1853 C1845 1.427 . S
N1853 C1851 1.384 . S
H1854 C1860 0.931 . S
H1855 C1864 0.923 1_455 S
H1856 C1869 0.929 . S
H1857 C1867 0.929 . S
H1858 C1862 0.929 . S
H1859 C1868 0.929 . S
C1860 H1854 0.931 . S
C1860 C1861 1.367 1_565 S
C1860 C1868 1.378 1_455 S
C1861 C1860 1.367 1_545 S
C1861 C1869 1.433 . S
C1862 H1858 0.929 . S
C1862 C1864 1.378 1_455 S
C1862 C1866 1.350 1_455 S
C1863 C1866 1.463 1_456 S
C1863 C1868 1.350 1_445 S
C1863 N1871 1.427 . S
C1864 H1855 0.923 1_655 S
C1864 C1862 1.378 1_655 S
C1864 C1865 1.367 1_545 S
C1865 C1864 1.367 1_565 S
C1865 C1867 1.433 . S
C1866 C1862 1.350 1_655 S
C1866 C1863 1.463 1_654 S
C1866 N1870 1.427 1_545 S
C1867 H1857 0.929 . S
C1867 C1865 1.433 . S
C1867 N1870 1.384 . S
C1868 H1859 0.929 . S
C1868 C1860 1.378 1_655 S
C1868 C1863 1.350 1_665 S
C1869 H1856 0.929 . S
C1869 C1861 1.433 . S
C1869 N1871 1.384 . S
N1870 C1866 1.427 1_565 S
N1870 C1867 1.384 . S
N1871 C1863 1.427 . S
N1871 C1869 1.384 . S
H1872 C1878 0.930 . S
H1873 C1882 0.930 . S
H1874 C1887 0.929 . S
H1875 C1885 0.929 . S
H1876 C1880 0.929 . S
H1877 C1886 0.929 . S
C1878 H1872 0.930 . S
C1878 C1879 1.367 . S
C1878 C1886 1.378 . S
C1879 C1878 1.367 . S
C1879 C1887 1.433 . S
C1880 H1876 0.929 . S
C1880 C1882 1.378 . S
C1880 C1884 1.350 . S
C1881 C1884 1.463 . S
C1881 C1886 1.350 . S
C1881 N1889 1.427 . S
C1882 H1873 0.930 . S
C1882 C1880 1.378 . S
C1882 C1883 1.367 . S
C1883 C1882 1.367 . S
C1883 C1885 1.433 . S
C1884 C1880 1.350 . S
C1884 C1881 1.463 . S
C1884 N1888 1.427 . S
C1885 H1875 0.929 . S
C1885 C1883 1.433 . S
C1885 N1888 1.384 . S
C1886 H1877 0.929 . S
C1886 C1878 1.378 . S
C1886 C1881 1.350 . S
C1887 H1874 0.929 . S
C1887 C1879 1.433 . S
C1887 N1889 1.384 . S
N1888 C1884 1.427 . S
N1888 C1885 1.384 . S
N1889 C1881 1.427 . S
N1889 C1887 1.384 . S
H1890 C1896 0.930 . S
H1891 C1900 0.930 . S
H1892 C1905 0.929 . S
H1893 C1903 0.929 . S
H1894 C1898 0.929 . S
H1895 C1904 0.929 . S
C1896 H1890 0.930 . S
C1896 C1897 1.367 . S
C1896 C1904 1.378 . S
C1897 C1896 1.367 . S
C1897 C1905 1.433 . S
C1898 H1894 0.929 . S
C1898 C1900 1.378 . S
C1898 C1902 1.350 . S
C1899 C1902 1.463 . S
C1899 C1904 1.350 . S
C1899 N1907 1.427 . S
C1900 H1891 0.930 . S
C1900 C1898 1.378 . S
C1900 C1901 1.367 . S
C1901 C1900 1.367 . S
C1901 C1903 1.433 . S
C1902 C1898 1.350 . S
C1902 C1899 1.463 . S
C1902 N1906 1.427 . S
C1903 H1893 0.929 . S
C1903 C1901 1.433 . S
C1903 N1906 1.384 . S
C1904 H1895 0.929 . S
C1904 C1896 1.378 . S
C1904 C1899 1.350 . S
C1905 H1892 0.929 . S
C1905 C1897 1.433 . S
C1905 N1907 1.384 . S
N1906 C1902 1.427 . S
N1906 C1903 1.384 . S
N1907 C1899 1.427 . S
N1907 C1905 1.384 . S
H1908 C1914 0.930 . S
H1909 C1918 0.930 . S
H1910 C1923 0.929 . S
H1911 C1921 0.929 . S
H1912 C1916 0.929 . S
H1913 C1922 0.929 . S
C1914 H1908 0.930 . S
C1914 C1915 1.367 . S
C1914 C1922 1.378 . S
C1915 C1914 1.367 . S
C1915 C1923 1.433 . S
C1916 H1912 0.929 . S
C1916 C1918 1.378 . S
C1916 C1920 1.350 . S
C1917 C1920 1.463 . S
C1917 C1922 1.350 . S
C1917 N1925 1.427 . S
C1918 H1909 0.930 . S
C1918 C1916 1.378 . S
C1918 C1919 1.367 . S
C1919 C1918 1.367 . S
C1919 C1921 1.433 . S
C1920 C1916 1.350 . S
C1920 C1917 1.463 . S
C1920 N1924 1.427 . S
C1921 H1911 0.929 . S
C1921 C1919 1.433 . S
C1921 N1924 1.384 . S
C1922 H1913 0.929 . S
C1922 C1914 1.378 . S
C1922 C1917 1.350 . S
C1923 H1910 0.929 . S
C1923 C1915 1.433 . S
C1923 N1925 1.384 . S
N1924 C1920 1.427 . S
N1924 C1921 1.384 . S
N1925 C1917 1.427 . S
N1925 C1923 1.384 . S
H1926 C1932 0.930 . S
H1927 C1936 0.930 . S
H1928 C1941 0.929 . S
H1929 C1939 0.929 . S
H1930 C1934 0.929 . S
H1931 C1940 0.929 . S
C1932 H1926 0.930 . S
C1932 C1933 1.367 . S
C1932 C1940 1.378 . S
C1933 C1932 1.367 . S
C1933 C1941 1.433 . S
C1934 H1930 0.929 . S
C1934 C1936 1.378 . S
C1934 C1938 1.350 . S
C1935 C1938 1.463 . S
C1935 C1940 1.350 . S
C1935 N1943 1.427 . S
C1936 H1927 0.930 . S
C1936 C1934 1.378 . S
C1936 C1937 1.367 . S
C1937 C1936 1.367 . S
C1937 C1939 1.433 . S
C1938 C1934 1.350 . S
C1938 C1935 1.463 . S
C1938 N1942 1.427 . S
C1939 H1929 0.929 . S
C1939 C1937 1.433 . S
C1939 N1942 1.384 . S
C1940 H1931 0.929 . S
C1940 C1932 1.378 . S
C1940 C1935 1.350 . S
C1941 H1928 0.929 . S
C1941 C1933 1.433 . S
C1941 N1943 1.384 . S
N1942 C1938 1.427 . S
N1942 C1939 1.384 . S
N1943 C1935 1.427 . S
N1943 C1941 1.384 . S
H1944 C1950 0.930 . S
H1945 C1954 0.930 . S
H1946 C1959 0.929 . S
H1947 C1957 0.929 . S
H1948 C1952 0.929 . S
H1949 C1958 0.929 . S
C1950 H1944 0.930 . S
C1950 C1951 1.367 . S
C1950 C1958 1.378 . S
C1951 C1950 1.367 . S
C1951 C1959 1.433 . S
C1952 H1948 0.929 . S
C1952 C1954 1.378 . S
C1952 C1956 1.350 . S
C1953 C1956 1.463 1_554 S
C1953 C1958 1.350 . S
C1953 N1961 1.427 . S
C1954 H1945 0.930 . S
C1954 C1952 1.378 . S
C1954 C1955 1.367 . S
C1955 C1954 1.367 . S
C1955 C1957 1.433 . S
C1956 C1952 1.350 . S
C1956 C1953 1.463 1_556 S
C1956 N1960 1.427 . S
C1957 H1947 0.929 . S
C1957 C1955 1.433 . S
C1957 N1960 1.384 . S
C1958 H1949 0.929 . S
C1958 C1950 1.378 . S
C1958 C1953 1.350 . S
C1959 H1946 0.929 . S
C1959 C1951 1.433 . S
C1959 N1961 1.384 . S
N1960 C1956 1.427 . S
N1960 C1957 1.384 . S
N1961 C1953 1.427 . S
N1961 C1959 1.384 . S
H1962 C1968 0.930 . S
H1963 C1972 0.930 . S
H1964 C1977 0.929 . S
H1965 C1975 0.929 . S
H1966 C1970 0.929 . S
H1967 C1976 0.929 . S
C1968 H1962 0.930 . S
C1968 C1969 1.367 . S
C1968 C1976 1.378 . S
C1969 C1968 1.367 . S
C1969 C1977 1.433 . S
C1970 H1966 0.929 . S
C1970 C1972 1.378 . S
C1970 C1974 1.350 . S
C1971 C1974 1.463 1_455 S
C1971 C1976 1.350 . S
C1971 N1979 1.427 1_455 S
C1972 H1963 0.930 . S
C1972 C1970 1.378 . S
C1972 C1973 1.367 . S
C1973 C1972 1.367 . S
C1973 C1975 1.433 . S
C1974 C1970 1.350 . S
C1974 C1971 1.463 1_655 S
C1974 N1978 1.427 1_655 S
C1975 H1965 0.929 . S
C1975 C1973 1.433 . S
C1975 N1978 1.384 1_655 S
C1976 H1967 0.929 . S
C1976 C1968 1.378 . S
C1976 C1971 1.350 . S
C1977 H1964 0.929 . S
C1977 C1969 1.433 . S
C1977 N1979 1.384 1_455 S
N1978 C1974 1.427 1_455 S
N1978 C1975 1.384 1_455 S
N1979 C1971 1.427 1_655 S
N1979 C1977 1.384 1_655 S
H1980 C1986 0.930 . S
H1981 C1990 0.930 . S
H1982 C1995 0.929 . S
H1983 C1993 0.945 . S
H1984 C1988 0.929 . S
H1985 C1994 0.929 . S
C1986 H1980 0.930 . S
C1986 C1987 1.367 . S
C1986 C1994 1.378 . S
C1987 C1986 1.367 . S
C1987 C1995 1.433 1_455 S
C1988 H1984 0.929 . S
C1988 C1990 1.378 . S
C1988 C1992 1.350 . S
C1989 C1992 1.463 1_454 S
C1989 C1994 1.350 . S
C1989 N1997 1.427 1_455 S
C1990 H1981 0.930 . S
C1990 C1988 1.378 . S
C1990 C1991 1.367 . S
C1991 C1990 1.367 . S
C1991 C1993 1.407 1_655 S
C1992 C1988 1.350 . S
C1992 C1989 1.463 1_656 S
C1992 N1996 1.427 1_655 S
C1993 H1983 0.945 . S
C1993 C1991 1.407 1_455 S
C1993 N1996 1.394 . S
C1994 H1985 0.929 . S
C1994 C1986 1.378 . S
C1994 C1989 1.350 . S
C1995 H1982 0.929 . S
C1995 C1987 1.433 1_655 S
C1995 N1997 1.384 . S
N1996 C1992 1.427 1_455 S
N1996 C1993 1.394 . S
N1997 C1989 1.427 1_655 S
N1997 C1995 1.384 . S
H1998 C2004 0.930 . S
H1999 C2008 0.930 . S
H2000 C2013 0.929 . S
H2001 C2011 0.929 . S
H2002 C2006 0.929 . S
H2003 C2012 0.929 . S
C2004 H1998 0.930 . S
C2004 C2005 1.367 . S
C2004 C2012 1.378 . S
C2005 C2004 1.367 . S
C2005 C2013 1.433 . S
C2006 H2002 0.929 . S
C2006 C2008 1.378 . S
C2006 C2010 1.350 . S
C2007 C2010 1.463 . S
C2007 C2012 1.350 . S
C2007 N2015 1.427 . S
C2008 H1999 0.930 . S
C2008 C2006 1.378 . S
C2008 C2009 1.367 . S
C2009 C2008 1.367 . S
C2009 C2011 1.433 . S
C2010 C2006 1.350 . S
C2010 C2007 1.463 . S
C2010 N2014 1.427 . S
C2011 H2001 0.929 . S
C2011 C2009 1.433 . S
C2011 N2014 1.384 . S
C2012 H2003 0.929 . S
C2012 C2004 1.378 . S
C2012 C2007 1.350 . S
C2013 H2000 0.929 . S
C2013 C2005 1.433 . S
C2013 N2015 1.384 . S
N2014 C2010 1.427 . S
N2014 C2011 1.384 . S
N2015 C2007 1.427 . S
N2015 C2013 1.384 . S
H2016 C2022 0.930 . S
H2017 C2026 0.930 . S
H2018 C2031 0.929 . S
H2019 C2029 0.929 . S
H2020 C2024 0.929 . S
H2021 C2030 0.929 . S
C2022 H2016 0.930 . S
C2022 C2023 1.367 . S
C2022 C2030 1.378 . S
C2023 C2022 1.367 . S
C2023 C2031 1.433 . S
C2024 H2020 0.929 . S
C2024 C2026 1.378 . S
C2024 C2028 1.350 . S
C2025 C2028 1.463 . S
C2025 C2030 1.350 . S
C2025 N2033 1.427 . S
C2026 H2017 0.930 . S
C2026 C2024 1.378 . S
C2026 C2027 1.367 . S
C2027 C2026 1.367 . S
C2027 C2029 1.433 . S
C2028 C2024 1.350 . S
C2028 C2025 1.463 . S
C2028 N2032 1.427 . S
C2029 H2019 0.929 . S
C2029 C2027 1.433 . S
C2029 N2032 1.384 . S
C2030 H2021 0.929 . S
C2030 C2022 1.378 . S
C2030 C2025 1.350 . S
C2031 H2018 0.929 . S
C2031 C2023 1.433 . S
C2031 N2033 1.384 . S
N2032 C2028 1.427 . S
N2032 C2029 1.384 . S
N2033 C2025 1.427 . S
N2033 C2031 1.384 . S
H2034 C2040 0.930 . S
H2035 C2044 0.930 . S
H2036 C2049 0.929 . S
H2037 C2047 0.929 . S
H2038 C2042 0.929 . S
H2039 C2048 0.929 . S
C2040 H2034 0.930 . S
C2040 C2041 1.367 . S
C2040 C2048 1.378 . S
C2041 C2040 1.367 . S
C2041 C2049 1.433 . S
C2042 H2038 0.929 . S
C2042 C2044 1.378 . S
C2042 C2046 1.350 . S
C2043 C2046 1.463 . S
C2043 C2048 1.350 . S
C2043 N2051 1.427 . S
C2044 H2035 0.930 . S
C2044 C2042 1.378 . S
C2044 C2045 1.367 . S
C2045 C2044 1.367 . S
C2045 C2047 1.433 . S
C2046 C2042 1.350 . S
C2046 C2043 1.463 . S
C2046 N2050 1.427 . S
C2047 H2037 0.929 . S
C2047 C2045 1.433 . S
C2047 N2050 1.384 . S
C2048 H2039 0.929 . S
C2048 C2040 1.378 . S
C2048 C2043 1.350 . S
C2049 H2036 0.929 . S
C2049 C2041 1.433 . S
C2049 N2051 1.384 . S
N2050 C2046 1.427 . S
N2050 C2047 1.384 . S
N2051 C2043 1.427 . S
N2051 C2049 1.384 . S
H2052 C2058 0.930 . S
H2053 C2062 0.930 . S
H2054 C2067 0.929 . S
H2055 C2065 0.929 . S
H2056 C2060 0.929 . S
H2057 C2066 0.929 . S
C2058 H2052 0.930 . S
C2058 C2059 1.367 . S
C2058 C2066 1.378 . S
C2059 C2058 1.367 . S
C2059 C2067 1.433 . S
C2060 H2056 0.929 . S
C2060 C2062 1.378 . S
C2060 C2064 1.350 . S
C2061 C2064 1.463 . S
C2061 C2066 1.350 . S
C2061 N2069 1.427 . S
C2062 H2053 0.930 . S
C2062 C2060 1.378 . S
C2062 C2063 1.367 . S
C2063 C2062 1.367 . S
C2063 C2065 1.433 . S
C2064 C2060 1.350 . S
C2064 C2061 1.463 . S
C2064 N2068 1.427 . S
C2065 H2055 0.929 . S
C2065 C2063 1.433 . S
C2065 N2068 1.384 . S
C2066 H2057 0.929 . S
C2066 C2058 1.378 . S
C2066 C2061 1.350 . S
C2067 H2054 0.929 . S
C2067 C2059 1.433 . S
C2067 N2069 1.384 . S
N2068 C2064 1.427 . S
N2068 C2065 1.384 . S
N2069 C2061 1.427 . S
N2069 C2067 1.384 . S
H2070 C2076 0.930 . S
H2071 C2080 0.930 . S
H2072 C2085 0.929 . S
H2073 C2083 0.929 . S
H2074 C2078 0.929 . S
H2075 C2084 0.929 . S
C2076 H2070 0.930 . S
C2076 C2077 1.367 . S
C2076 C2084 1.378 . S
C2077 C2076 1.367 . S
C2077 C2085 1.433 . S
C2078 H2074 0.929 . S
C2078 C2080 1.378 . S
C2078 C2082 1.350 . S
C2079 C2082 1.463 . S
C2079 C2084 1.350 . S
C2079 N2087 1.427 . S
C2080 H2071 0.930 . S
C2080 C2078 1.378 . S
C2080 C2081 1.367 . S
C2081 C2080 1.367 . S
C2081 C2083 1.433 . S
C2082 C2078 1.350 . S
C2082 C2079 1.463 . S
C2082 N2086 1.427 . S
C2083 H2073 0.929 . S
C2083 C2081 1.433 . S
C2083 N2086 1.384 . S
C2084 H2075 0.929 . S
C2084 C2076 1.378 . S
C2084 C2079 1.350 . S
C2085 H2072 0.929 . S
C2085 C2077 1.433 . S
C2085 N2087 1.384 . S
N2086 C2082 1.427 . S
N2086 C2083 1.384 . S
N2087 C2079 1.427 . S
N2087 C2085 1.384 . S
H2088 C2094 0.930 . S
H2089 C2098 0.930 . S
H2090 C2103 0.929 . S
H2091 C2101 0.929 . S
H2092 C2096 0.929 . S
H2093 C2102 0.929 . S
C2094 H2088 0.930 . S
C2094 C2095 1.367 . S
C2094 C2102 1.378 . S
C2095 C2094 1.367 . S
C2095 C2103 1.433 . S
C2096 H2092 0.929 . S
C2096 C2098 1.378 . S
C2096 C2100 1.350 . S
C2097 C2100 1.463 . S
C2097 C2102 1.350 . S
C2097 N2105 1.427 . S
C2098 H2089 0.930 . S
C2098 C2096 1.378 . S
C2098 C2099 1.367 . S
C2099 C2098 1.367 . S
C2099 C2101 1.433 . S
C2100 C2096 1.350 . S
C2100 C2097 1.463 . S
C2100 N2104 1.427 . S
C2101 H2091 0.929 . S
C2101 C2099 1.433 . S
C2101 N2104 1.384 . S
C2102 H2093 0.929 . S
C2102 C2094 1.378 . S
C2102 C2097 1.350 . S
C2103 H2090 0.929 . S
C2103 C2095 1.433 . S
C2103 N2105 1.384 . S
N2104 C2100 1.427 . S
N2104 C2101 1.384 . S
N2105 C2097 1.427 . S
N2105 C2103 1.384 . S
H2106 C2112 0.930 . S
H2107 C2116 0.930 . S
H2108 C2121 0.929 . S
H2109 C2119 0.929 . S
H2110 C2114 0.929 . S
H2111 C2120 0.929 . S
C2112 H2106 0.930 . S
C2112 C2113 1.367 . S
C2112 C2120 1.378 . S
C2113 C2112 1.367 . S
C2113 C2121 1.433 . S
C2114 H2110 0.929 . S
C2114 C2116 1.378 . S
C2114 C2118 1.350 . S
C2115 C2118 1.463 . S
C2115 C2120 1.350 . S
C2115 N2123 1.427 . S
C2116 H2107 0.930 . S
C2116 C2114 1.378 . S
C2116 C2117 1.367 . S
C2117 C2116 1.367 . S
C2117 C2119 1.433 . S
C2118 C2114 1.350 . S
C2118 C2115 1.463 . S
C2118 N2122 1.427 . S
C2119 H2109 0.929 . S
C2119 C2117 1.433 . S
C2119 N2122 1.384 . S
C2120 H2111 0.929 . S
C2120 C2112 1.378 . S
C2120 C2115 1.350 . S
C2121 H2108 0.929 . S
C2121 C2113 1.433 . S
C2121 N2123 1.384 . S
N2122 C2118 1.427 . S
N2122 C2119 1.384 . S
N2123 C2115 1.427 . S
N2123 C2121 1.384 . S
H2124 C2130 0.930 . S
H2125 C2134 0.930 . S
H2126 C2139 0.929 . S
H2127 C2137 0.929 . S
H2128 C2132 0.929 . S
H2129 C2138 0.929 . S
C2130 H2124 0.930 . S
C2130 C2131 1.367 . S
C2130 C2138 1.378 . S
C2131 C2130 1.367 . S
C2131 C2139 1.433 . S
C2132 H2128 0.929 . S
C2132 C2134 1.378 . S
C2132 C2136 1.350 . S
C2133 C2136 1.463 . S
C2133 C2138 1.350 . S
C2133 N2141 1.427 . S
C2134 H2125 0.930 . S
C2134 C2132 1.378 . S
C2134 C2135 1.367 . S
C2135 C2134 1.367 . S
C2135 C2137 1.433 . S
C2136 C2132 1.350 . S
C2136 C2133 1.463 . S
C2136 N2140 1.427 . S
C2137 H2127 0.929 . S
C2137 C2135 1.433 . S
C2137 N2140 1.384 . S
C2138 H2129 0.929 . S
C2138 C2130 1.378 . S
C2138 C2133 1.350 . S
C2139 H2126 0.929 . S
C2139 C2131 1.433 . S
C2139 N2141 1.384 . S
N2140 C2136 1.427 . S
N2140 C2137 1.384 . S
N2141 C2133 1.427 . S
N2141 C2139 1.384 . S
H2142 C2148 0.930 . S
H2143 C2152 0.930 . S
H2144 C2157 0.929 . S
H2145 C2155 0.929 . S
H2146 C2150 0.929 . S
H2147 C2156 0.929 . S
C2148 H2142 0.930 . S
C2148 C2149 1.367 . S
C2148 C2156 1.378 . S
C2149 C2148 1.367 . S
C2149 C2157 1.433 . S
C2150 H2146 0.929 . S
C2150 C2152 1.378 . S
C2150 C2154 1.350 . S
C2151 C2154 1.463 . S
C2151 C2156 1.350 . S
C2151 N2159 1.427 . S
C2152 H2143 0.930 . S
C2152 C2150 1.378 . S
C2152 C2153 1.367 . S
C2153 C2152 1.367 . S
C2153 C2155 1.433 . S
C2154 C2150 1.350 . S
C2154 C2151 1.463 . S
C2154 N2158 1.427 . S
C2155 H2145 0.929 . S
C2155 C2153 1.433 . S
C2155 N2158 1.384 . S
C2156 H2147 0.929 . S
C2156 C2148 1.378 . S
C2156 C2151 1.350 . S
C2157 H2144 0.929 . S
C2157 C2149 1.433 . S
C2157 N2159 1.384 . S
N2158 C2154 1.427 . S
N2158 C2155 1.384 . S
N2159 C2151 1.427 . S
N2159 C2157 1.384 . S
H2160 C2166 0.930 . S
H2161 C2170 0.930 . S
H2162 C2175 0.929 . S
H2163 C2173 0.929 . S
H2164 C2168 0.929 . S
H2165 C2174 0.929 . S
C2166 H2160 0.930 . S
C2166 C2167 1.367 . S
C2166 C2174 1.378 . S
C2167 C2166 1.367 . S
C2167 C2175 1.433 . S
C2168 H2164 0.929 . S
C2168 C2170 1.378 . S
C2168 C2172 1.350 . S
C2169 C2172 1.463 . S
C2169 C2174 1.350 . S
C2169 N2177 1.427 . S
C2170 H2161 0.930 . S
C2170 C2168 1.378 . S
C2170 C2171 1.367 . S
C2171 C2170 1.367 . S
C2171 C2173 1.433 . S
C2172 C2168 1.350 . S
C2172 C2169 1.463 . S
C2172 N2176 1.427 . S
C2173 H2163 0.929 . S
C2173 C2171 1.433 . S
C2173 N2176 1.384 . S
C2174 H2165 0.929 . S
C2174 C2166 1.378 . S
C2174 C2169 1.350 . S
C2175 H2162 0.929 . S
C2175 C2167 1.433 . S
C2175 N2177 1.384 . S
N2176 C2172 1.427 . S
N2176 C2173 1.384 . S
N2177 C2169 1.427 . S
N2177 C2175 1.384 . S
H2178 C2184 0.930 . S
H2179 C2188 0.930 . S
H2180 C2193 0.929 . S
H2181 C2191 0.929 . S
H2182 C2186 0.929 . S
H2183 C2192 0.929 . S
C2184 H2178 0.930 . S
C2184 C2185 1.367 . S
C2184 C2192 1.378 . S
C2185 C2184 1.367 . S
C2185 C2193 1.433 . S
C2186 H2182 0.929 . S
C2186 C2188 1.378 . S
C2186 C2190 1.350 . S
C2187 C2190 1.463 . S
C2187 C2192 1.350 . S
C2187 N2195 1.427 . S
C2188 H2179 0.930 . S
C2188 C2186 1.378 . S
C2188 C2189 1.367 . S
C2189 C2188 1.367 . S
C2189 C2191 1.433 . S
C2190 C2186 1.350 . S
C2190 C2187 1.463 . S
C2190 N2194 1.427 . S
C2191 H2181 0.929 . S
C2191 C2189 1.433 . S
C2191 N2194 1.384 . S
C2192 H2183 0.929 . S
C2192 C2184 1.378 . S
C2192 C2187 1.350 . S
C2193 H2180 0.929 . S
C2193 C2185 1.433 . S
C2193 N2195 1.384 . S
N2194 C2190 1.427 . S
N2194 C2191 1.384 . S
N2195 C2187 1.427 . S
N2195 C2193 1.384 . S
H2196 C2202 0.930 . S
H2197 C2206 0.930 . S
H2198 C2211 0.929 . S
H2199 C2209 0.929 . S
H2200 C2204 0.929 . S
H2201 C2210 0.929 . S
C2202 H2196 0.930 . S
C2202 C2203 1.367 . S
C2202 C2210 1.378 . S
C2203 C2202 1.367 . S
C2203 C2211 1.433 . S
C2204 H2200 0.929 . S
C2204 C2206 1.378 . S
C2204 C2208 1.350 . S
C2205 C2208 1.463 . S
C2205 C2210 1.350 . S
C2205 N2213 1.427 . S
C2206 H2197 0.930 . S
C2206 C2204 1.378 . S
C2206 C2207 1.367 . S
C2207 C2206 1.367 . S
C2207 C2209 1.433 . S
C2208 C2204 1.350 . S
C2208 C2205 1.463 . S
C2208 N2212 1.427 . S
C2209 H2199 0.929 . S
C2209 C2207 1.433 . S
C2209 N2212 1.384 . S
C2210 H2201 0.929 . S
C2210 C2202 1.378 . S
C2210 C2205 1.350 . S
C2211 H2198 0.929 . S
C2211 C2203 1.433 . S
C2211 N2213 1.384 . S
N2212 C2208 1.427 . S
N2212 C2209 1.384 . S
N2213 C2205 1.427 . S
N2213 C2211 1.384 . S
H2214 C2220 0.930 . S
H2215 C2224 0.930 . S
H2216 C2229 0.929 . S
H2217 C2227 0.929 . S
H2218 C2222 0.929 . S
H2219 C2228 0.929 . S
C2220 H2214 0.930 . S
C2220 C2221 1.367 . S
C2220 C2228 1.378 . S
C2221 C2220 1.367 . S
C2221 C2229 1.433 . S
C2222 H2218 0.929 . S
C2222 C2224 1.378 . S
C2222 C2226 1.350 . S
C2223 C2226 1.463 . S
C2223 C2228 1.350 . S
C2223 N2231 1.427 . S
C2224 H2215 0.930 . S
C2224 C2222 1.378 . S
C2224 C2225 1.367 . S
C2225 C2224 1.367 . S
C2225 C2227 1.433 . S
C2226 C2222 1.350 . S
C2226 C2223 1.463 . S
C2226 N2230 1.427 . S
C2227 H2217 0.929 . S
C2227 C2225 1.433 . S
C2227 N2230 1.384 . S
C2228 H2219 0.929 . S
C2228 C2220 1.378 . S
C2228 C2223 1.350 . S
C2229 H2216 0.929 . S
C2229 C2221 1.433 . S
C2229 N2231 1.384 . S
N2230 C2226 1.427 . S
N2230 C2227 1.384 . S
N2231 C2223 1.427 . S
N2231 C2229 1.384 . S
H2232 C2238 0.930 . S
H2233 C2242 0.930 . S
H2234 C2247 0.929 . S
H2235 C2245 0.929 . S
H2236 C2240 0.929 . S
H2237 C2246 0.929 . S
C2238 H2232 0.930 . S
C2238 C2239 1.367 . S
C2238 C2246 1.378 . S
C2239 C2238 1.367 . S
C2239 C2247 1.433 . S
C2240 H2236 0.929 . S
C2240 C2242 1.378 . S
C2240 C2244 1.350 . S
C2241 C2244 1.463 . S
C2241 C2246 1.350 . S
C2241 N2249 1.427 . S
C2242 H2233 0.930 . S
C2242 C2240 1.378 . S
C2242 C2243 1.367 . S
C2243 C2242 1.367 . S
C2243 C2245 1.433 . S
C2244 C2240 1.350 . S
C2244 C2241 1.463 . S
C2244 N2248 1.427 . S
C2245 H2235 0.929 . S
C2245 C2243 1.433 . S
C2245 N2248 1.384 . S
C2246 H2237 0.929 . S
C2246 C2238 1.378 . S
C2246 C2241 1.350 . S
C2247 H2234 0.929 . S
C2247 C2239 1.433 . S
C2247 N2249 1.384 . S
N2248 C2244 1.427 . S
N2248 C2245 1.384 . S
N2249 C2241 1.427 . S
N2249 C2247 1.384 . S
H2250 C2256 0.930 . S
H2251 C2260 0.930 . S
H2252 C2265 0.929 . S
H2253 C2263 0.929 . S
H2254 C2258 0.929 . S
H2255 C2264 0.929 . S
C2256 H2250 0.930 . S
C2256 C2257 1.367 . S
C2256 C2264 1.378 . S
C2257 C2256 1.367 . S
C2257 C2265 1.433 . S
C2258 H2254 0.929 . S
C2258 C2260 1.378 . S
C2258 C2262 1.350 . S
C2259 C2262 1.463 . S
C2259 C2264 1.350 . S
C2259 N2267 1.427 . S
C2260 H2251 0.930 . S
C2260 C2258 1.378 . S
C2260 C2261 1.367 . S
C2261 C2260 1.367 . S
C2261 C2263 1.433 . S
C2262 C2258 1.350 . S
C2262 C2259 1.463 . S
C2262 N2266 1.427 . S
C2263 H2253 0.929 . S
C2263 C2261 1.433 . S
C2263 N2266 1.384 . S
C2264 H2255 0.929 . S
C2264 C2256 1.378 . S
C2264 C2259 1.350 . S
C2265 H2252 0.929 . S
C2265 C2257 1.433 . S
C2265 N2267 1.384 . S
N2266 C2262 1.427 . S
N2266 C2263 1.384 . S
N2267 C2259 1.427 . S
N2267 C2265 1.384 . S
H2268 C2274 0.930 . S
H2269 C2278 0.930 . S
H2270 C2283 0.929 . S
H2271 C2281 0.929 . S
H2272 C2276 0.929 . S
H2273 C2282 0.929 . S
C2274 H2268 0.930 . S
C2274 C2275 1.367 . S
C2274 C2282 1.378 . S
C2275 C2274 1.367 . S
C2275 C2283 1.433 . S
C2276 H2272 0.929 . S
C2276 C2278 1.378 . S
C2276 C2280 1.350 . S
C2277 C2280 1.463 . S
C2277 C2282 1.350 . S
C2277 N2285 1.427 . S
C2278 H2269 0.930 . S
C2278 C2276 1.378 . S
C2278 C2279 1.367 . S
C2279 C2278 1.367 . S
C2279 C2281 1.433 . S
C2280 C2276 1.350 . S
C2280 C2277 1.463 . S
C2280 N2284 1.427 . S
C2281 H2271 0.929 . S
C2281 C2279 1.433 . S
C2281 N2284 1.384 . S
C2282 H2273 0.929 . S
C2282 C2274 1.378 . S
C2282 C2277 1.350 . S
C2283 H2270 0.929 . S
C2283 C2275 1.433 . S
C2283 N2285 1.384 . S
N2284 C2280 1.427 . S
N2284 C2281 1.384 . S
N2285 C2277 1.427 . S
N2285 C2283 1.384 . S
H2286 C2292 0.930 . S
H2287 C2296 0.930 . S
H2288 C2301 0.929 . S
H2289 C2299 0.929 . S
H2290 C2294 0.929 . S
H2291 C2300 0.929 . S
C2292 H2286 0.930 . S
C2292 C2293 1.367 . S
C2292 C2300 1.378 . S
C2293 C2292 1.367 . S
C2293 C2301 1.433 . S
C2294 H2290 0.929 . S
C2294 C2296 1.378 . S
C2294 C2298 1.350 . S
C2295 C2298 1.463 . S
C2295 C2300 1.350 . S
C2295 N2303 1.427 . S
C2296 H2287 0.930 . S
C2296 C2294 1.378 . S
C2296 C2297 1.367 . S
C2297 C2296 1.367 . S
C2297 C2299 1.433 . S
C2298 C2294 1.350 . S
C2298 C2295 1.463 . S
C2298 N2302 1.427 . S
C2299 H2289 0.929 . S
C2299 C2297 1.433 . S
C2299 N2302 1.384 . S
C2300 H2291 0.929 . S
C2300 C2292 1.378 . S
C2300 C2295 1.350 . S
C2301 H2288 0.929 . S
C2301 C2293 1.433 . S
C2301 N2303 1.384 . S
N2302 C2298 1.427 . S
N2302 C2299 1.384 . S
N2303 C2295 1.427 . S
N2303 C2301 1.384 . S
C1159 C974 1.333 . S
C1163 C4 1.299 . S
C1177 C40 1.295 . S
C1181 C290 1.332 . S
C1195 C902 1.332 . S
C1199 C76 1.303 . S
C1213 C112 1.295 . S
C1217 C362 1.330 . S
C1231 C148 1.307 . S
C1235 C1046 1.326 . S
C1249 C184 1.306 . S
C1253 C506 1.325 . S
C1267 C220 1.307 . S
C1271 C1118 1.325 . S
C1285 C256 1.295 . S
C1289 C434 1.330 . S
C1303 C686 1.263 . S
C1307 C291 1.272 . S
C1321 C2 1.262 . S
C1325 C327 1.271 . S
C1339 C614 1.271 . S
C1343 C363 1.265 . S
C1357 C399 1.271 . S
C1361 C74 1.262 . S
C1375 C758 1.271 . S
C1379 C435 1.265 . S
C1393 C218 1.271 . S
C1397 C471 1.265 . S
C1411 C507 1.269 . S
C1415 C830 1.269 . S
C1429 C146 1.270 . S
C1433 C543 1.264 . S
C1447 C580 1.309 . S
C1451 C398 1.330 . S
C1465 C616 1.296 . S
C1469 C866 1.333 . S
C1483 C326 1.333 . S
C1487 C652 1.302 . S
C1501 C938 1.333 . S
C1505 C688 1.299 . S
C1519 C470 1.327 . S
C1523 C724 1.298 . S
C1537 C1082 1.327 . S
C1541 C760 1.298 . S
C1555 C542 1.332 . S
C1559 C796 1.306 . S
C1573 C832 1.299 . S
C1577 C1010 1.326 . S
C1591 C110 1.271 . S
C1595 C867 1.266 . S
C1609 C903 1.269 . S
C1613 C578 1.263 . S
C1627 C939 1.269 . S
C1631 C38 1.269 . S
C1645 C975 1.268 . S
C1649 C650 1.264 . S
C1663 C1011 1.265 . S
C1667 C182 1.267 . S
C1681 C1047 1.271 . S
C1685 C794 1.263 . S
C1699 C1083 1.269 . S
C1703 C254 1.263 . S
C1717 C1119 1.270 . S
C1721 C722 1.267 . S
C1735 C878 1.494 . S
C1739 C14 1.436 . S
C1753 C50 1.435 . S
C1757 C338 1.493 . S
C1771 C950 1.494 . S
C1775 C86 1.437 . S
C1789 C122 1.450 . S
C1793 C410 1.484 . S
C1807 C1022 1.493 . S
C1811 C158 1.435 . S
C1825 C194 1.451 . S
C1829 C482 1.489 . S
C1843 C1094 1.488 . S
C1847 C230 1.452 . S
C1861 C266 1.448 . S
C1865 C554 1.492 . S
C1879 C302 1.484 . S
C1883 C590 1.444 . S
C1897 C374 1.495 . S
C1901 C662 1.438 . S
C1915 C446 1.491 . S
C1919 C734 1.435 . S
C1933 C518 1.494 . S
C1937 C806 1.436 . S
C1951 C626 1.435 . S
C1955 C914 1.493 . S
C1969 C986 1.487 . S
C1973 C698 1.452 . S
C1987 C1058 1.485 . S
C1991 C770 1.452 . S
C2005 C842 1.436 . S
C2009 C1130 1.494 . S
C2023 C3 1.485 . S
C2027 C183 1.487 . S
C2041 C39 1.484 . S
C2045 C219 1.486 . S
C2059 C75 1.486 . S
C2063 C255 1.484 . S
C2077 C147 1.484 . S
C2081 C111 1.486 . S
C2095 C292 1.348 . S
C2099 C472 1.358 . S
C2113 C328 1.347 . S
C2117 C508 1.354 . S
C2131 C364 1.356 . S
C2135 C544 1.354 . S
C2149 C400 1.348 . S
C2153 C436 1.351 . S
C2167 C579 1.484 . S
C2171 C759 1.485 . S
C2185 C795 1.484 . S
C2189 C615 1.485 . S
C2203 C651 1.485 . S
C2207 C831 1.484 . S
C2221 C687 1.485 . S
C2225 C723 1.484 . S
C2239 C1048 1.356 . S
C2243 C868 1.354 . S
C2257 C904 1.348 . S
C2261 C1084 1.352 . S
C2275 C1120 1.356 . S
C2279 C940 1.354 . S
C2293 C976 1.350 . S
C2297 C1012 1.349 . S
