# Generated by pormake.
# Topology yfg, (5)-cn, num edge types: 1
# Building blocks:
#     Node 0, Type 0, BuildingBlock: BEQFEK_clean_sbu_0, # of connection points: 5
#     Node 1, Type 0, BuildingBlock: BEQFEK_clean_sbu_0, # of connection points: 5
#     Node 2, Type 0, BuildingBlock: BEQFEK_clean_sbu_0, # of connection points: 5
#     Node 3, Type 0, BuildingBlock: BEQFEK_clean_sbu_0, # of connection points: 5
#     Node 4, Type 0, BuildingBlock: BEQFEK_clean_sbu_0, # of connection points: 5
#     Node 5, Type 0, BuildingBlock: BEQFEK_clean_sbu_0, # of connection points: 5
#     Node 6, Type 0, BuildingBlock: BEQFEK_clean_sbu_0, # of connection points: 5
#     Node 7, Type 0, BuildingBlock: BEQFEK_clean_sbu_0, # of connection points: 5
#     Edge 8, Type (0, 0), BuildingBlock: UVAHIK_clean_linker_0, # of connection points: 2
#     Edge 9, Type (0, 0), BuildingBlock: UVAHIK_clean_linker_0, # of connection points: 2
#     Edge 10, Type (0, 0), BuildingBlock: UVAHIK_clean_linker_0, # of connection points: 2
#     Edge 11, Type (0, 0), BuildingBlock: UVAHIK_clean_linker_0, # of connection points: 2
#     Edge 12, Type (0, 0), BuildingBlock: UVAHIK_clean_linker_0, # of connection points: 2
#     Edge 13, Type (0, 0), BuildingBlock: UVAHIK_clean_linker_0, # of connection points: 2
#     Edge 14, Type (0, 0), BuildingBlock: UVAHIK_clean_linker_0, # of connection points: 2
#     Edge 15, Type (0, 0), BuildingBlock: UVAHIK_clean_linker_0, # of connection points: 2
#     Edge 16, Type (0, 0), BuildingBlock: UVAHIK_clean_linker_0, # of connection points: 2
#     Edge 17, Type (0, 0), BuildingBlock: UVAHIK_clean_linker_0, # of connection points: 2
#     Edge 18, Type (0, 0), BuildingBlock: UVAHIK_clean_linker_0, # of connection points: 2
#     Edge 19, Type (0, 0), BuildingBlock: UVAHIK_clean_linker_0, # of connection points: 2
#     Edge 20, Type (0, 0), BuildingBlock: UVAHIK_clean_linker_0, # of connection points: 2
#     Edge 21, Type (0, 0), BuildingBlock: UVAHIK_clean_linker_0, # of connection points: 2
#     Edge 22, Type (0, 0), BuildingBlock: UVAHIK_clean_linker_0, # of connection points: 2
#     Edge 23, Type (0, 0), BuildingBlock: UVAHIK_clean_linker_0, # of connection points: 2
#     Edge 24, Type (0, 0), BuildingBlock: UVAHIK_clean_linker_0, # of connection points: 2
#     Edge 25, Type (0, 0), BuildingBlock: UVAHIK_clean_linker_0, # of connection points: 2
#     Edge 26, Type (0, 0), BuildingBlock: UVAHIK_clean_linker_0, # of connection points: 2
#     Edge 27, Type (0, 0), BuildingBlock: UVAHIK_clean_linker_0, # of connection points: 2
# Relax obj value: 0.509
# Max RMSD: 0.212
# Mean RMSD: 0.212
data_MOF--net-yfg--node1-BEQFEK_clean_sbu_0--edge1-UVAHIK_clean_linker_0
_symmetry_space_group_name_H-M    P1
_symmetry_Int_Tables_number       1
_symmetry_cell_setting            triclinic
loop_
_symmetry_equiv_pos_as_xyz
'x, y, z'
_cell_length_a     41.993208
_cell_length_b     41.968683
_cell_length_c     55.131317
_cell_angle_alpha  89.973942
_cell_angle_beta   90.040334
_cell_angle_gamma 89.977564
loop_
_atom_site_label
_atom_site_type_symbol
_atom_site_fract_x
_atom_site_fract_y
_atom_site_fract_z
_atom_type_partial_charge
Co0 Co 0.23025 0.4452 0.08939 0.0
Co1 Co 0.25838 0.45548 0.03738 0.0
C2 C 0.26947 0.50287 0.07662 0.0
O3 O 0.25402 0.48565 0.09143 0.0
O4 O 0.27258 0.49462 0.05457 0.0
C5 C 0.19262 0.46915 0.12624 0.0
O6 O 0.19297 0.49313 0.1109 0.0
C7 C 0.26597 0.48926 0.99211 0.0
C8 C 0.28792 0.45377 0.96773 0.0
C9 C 0.2778 0.48524 0.96878 0.0
N10 N 0.26927 0.46172 0.00422 0.0
N11 N 0.28234 0.4405 0.98959 0.0
C12 C 0.24996 0.51799 0.00263 0.0
H13 H 0.23308 0.51081 0.01711 0.0
H14 H 0.23701 0.53147 0.98837 0.0
H15 H 0.26818 0.53374 0.0109 0.0
C16 C 0.17053 0.43897 0.06109 0.0
N17 N 0.20214 0.44412 0.0626 0.0
N18 N 0.21374 0.44841 0.04067 0.0
C19 C 0.18973 0.44626 0.02447 0.0
C20 C 0.1616 0.44036 0.03688 0.0
C21 C 0.14924 0.43457 0.08264 0.0
H22 H 0.16077 0.41849 0.09597 0.0
H23 H 0.14521 0.45802 0.09134 0.0
H24 H 0.12569 0.42475 0.07769 0.0
O25 O 0.26175 0.41035 0.08712 0.0
O26 O 0.2832 0.41895 0.05076 0.0
H27 H 0.21489 0.43423 0.99191 0.0
H28 H 0.17248 0.43884 0.9879 0.0
C29 C 0.19374 0.44816 0.99753 0.0
H30 H 0.19737 0.47336 0.99217 0.0
H31 H 0.28764 0.4171 0.99458 0.0
O32 O 0.20676 0.44345 0.12045 0.0
C33 C 0.28193 0.40341 0.07065 0.0
Co34 Co 0.5518 0.23164 0.33774 0.0
Co35 Co 0.54193 0.25903 0.28528 0.0
C36 C 0.49658 0.27502 0.32412 0.0
O37 O 0.51372 0.25921 0.33883 0.0
O38 O 0.50364 0.27663 0.30171 0.0
C39 C 0.52353 0.1961 0.3738 0.0
O40 O 0.50101 0.19711 0.35725 0.0
C41 C 0.51491 0.27776 0.23826 0.0
C42 C 0.55596 0.27207 0.21356 0.0
C43 C 0.52406 0.28029 0.21422 0.0
N44 N 0.54028 0.26856 0.25138 0.0
N45 N 0.5648 0.26541 0.23653 0.0
C46 C 0.48204 0.28143 0.24834 0.0
H47 H 0.47688 0.26156 0.26102 0.0
H48 H 0.46378 0.28169 0.23379 0.0
H49 H 0.48069 0.30411 0.25862 0.0
C50 C 0.55183 0.17099 0.31088 0.0
N51 N 0.5498 0.20295 0.31165 0.0
N52 N 0.54458 0.21398 0.28966 0.0
C53 C 0.54244 0.1891 0.27422 0.0
C54 C 0.54693 0.16114 0.28723 0.0
C55 C 0.5602 0.15032 0.33208 0.0
H56 H 0.57594 0.16336 0.34481 0.0
H57 H 0.53807 0.14343 0.34172 0.0
H58 H 0.57234 0.12822 0.32603 0.0
O59 O 0.5895 0.25907 0.33511 0.0
O60 O 0.57992 0.28145 0.29918 0.0
H61 H 0.55591 0.20008 0.23784 0.0
H62 H 0.52682 0.16865 0.24021 0.0
C63 C 0.53453 0.19187 0.24784 0.0
H64 H 0.51527 0.2096 0.24523 0.0
H65 H 0.58745 0.2581 0.24201 0.0
O66 O 0.55031 0.20885 0.36911 0.0
C67 C 0.59655 0.27894 0.31849 0.0
Co68 Co 0.76394 0.54281 0.58507 0.0
Co69 Co 0.73369 0.54062 0.53291 0.0
C70 C 0.72103 0.4897 0.56991 0.0
O71 O 0.73927 0.50307 0.58519 0.0
O72 O 0.71628 0.50176 0.54903 0.0
C73 C 0.79999 0.51651 0.62295 0.0
O74 O 0.7969 0.4911 0.60924 0.0
C75 C 0.72197 0.51175 0.48576 0.0
C76 C 0.71299 0.55313 0.4619 0.0
C77 C 0.71616 0.52025 0.46182 0.0
N78 N 0.72302 0.53839 0.49922 0.0
N79 N 0.71741 0.56306 0.48492 0.0
C80 C 0.72458 0.47893 0.49632 0.0
H81 H 0.70409 0.47487 0.50861 0.0
H82 H 0.74666 0.47712 0.50731 0.0
H83 H 0.72413 0.45993 0.48243 0.0
C84 C 0.82313 0.54573 0.5568 0.0
N85 N 0.7912 0.54439 0.55822 0.0
N86 N 0.77907 0.54313 0.53622 0.0
C87 C 0.80324 0.54349 0.52003 0.0
C88 C 0.8318 0.54488 0.53265 0.0
C89 C 0.84499 0.54884 0.57813 0.0
H90 H 0.83457 0.5653 0.59169 0.0
H91 H 0.84823 0.52511 0.58663 0.0
H92 H 0.86869 0.55799 0.57259 0.0
O93 O 0.73403 0.57893 0.58475 0.0
O94 O 0.7121 0.57815 0.54801 0.0
H95 H 0.78326 0.56018 0.48667 0.0
H96 H 0.82235 0.54263 0.48352 0.0
C97 C 0.79923 0.54093 0.49314 0.0
H98 H 0.78812 0.51771 0.48869 0.0
H99 H 0.71712 0.58669 0.4908 0.0
O100 O 0.78815 0.54277 0.61581 0.0
C101 C 0.71465 0.59025 0.56917 0.0
Co102 Co 0.45478 0.76799 0.83278 0.0
Co103 Co 0.45114 0.73718 0.781 0.0
C104 C 0.50534 0.72365 0.81504 0.0
O105 O 0.49378 0.74239 0.83081 0.0
O106 O 0.49131 0.71894 0.79488 0.0
C107 C 0.48546 0.80283 0.86962 0.0
O108 O 0.50951 0.79947 0.8546 0.0
C109 C 0.47379 0.72794 0.73163 0.0
C110 C 0.4348 0.70069 0.71457 0.0
C111 C 0.46495 0.71289 0.71028 0.0
N112 N 0.44993 0.72503 0.74769 0.0
N113 N 0.42647 0.70909 0.73729 0.0
C114 C 0.50566 0.74183 0.73768 0.0
H115 H 0.50608 0.751 0.75653 0.0
H116 H 0.51108 0.76178 0.72518 0.0
H117 H 0.5244 0.72343 0.73531 0.0
C118 C 0.44732 0.82689 0.80428 0.0
N119 N 0.45067 0.79509 0.8058 0.0
N120 N 0.44883 0.78255 0.78396 0.0
C121 C 0.44398 0.80622 0.76777 0.0
C122 C 0.44292 0.83503 0.78014 0.0
C123 C 0.44954 0.84889 0.8256 0.0
H124 H 0.47377 0.84721 0.83345 0.0
H125 H 0.44525 0.8741 0.82065 0.0
H126 H 0.43223 0.84143 0.83969 0.0
O127 O 0.41784 0.73891 0.83479 0.0
O128 O 0.41484 0.71682 0.79819 0.0
H129 H 0.42671 0.82252 0.73293 0.0
H130 H 0.46098 0.79674 0.73202 0.0
C131 C 0.43801 0.80127 0.74128 0.0
H132 H 0.42233 0.78034 0.73855 0.0
H133 H 0.40533 0.70285 0.74602 0.0
O134 O 0.45828 0.79213 0.86352 0.0
C135 C 0.40464 0.71983 0.81985 0.0
Co136 Co 0.22699 0.54584 0.41236 0.0
Co137 Co 0.25893 0.5411 0.46394 0.0
C138 C 0.27073 0.49184 0.42602 0.0
O139 O 0.25291 0.50696 0.4114 0.0
O140 O 0.27522 0.50182 0.44756 0.0
C141 C 0.19107 0.51841 0.37509 0.0
O142 O 0.19515 0.49335 0.38905 0.0
C143 C 0.27537 0.51456 0.51171 0.0
C144 C 0.2791 0.55777 0.53442 0.0
C145 C 0.28015 0.52479 0.53543 0.0
N146 N 0.27076 0.54026 0.49756 0.0
N147 N 0.2734 0.56602 0.5112 0.0
C148 C 0.27732 0.48127 0.50204 0.0
H149 H 0.25378 0.47415 0.49467 0.0
H150 H 0.28536 0.46387 0.51584 0.0
H151 H 0.29478 0.48065 0.48702 0.0
C152 C 0.16899 0.55011 0.44177 0.0
N153 N 0.20072 0.54687 0.43975 0.0
N154 N 0.21347 0.54414 0.46147 0.0
C155 C 0.18985 0.54493 0.47809 0.0
C156 C 0.16103 0.54896 0.46611 0.0
C157 C 0.14678 0.55267 0.42058 0.0
H158 H 0.15596 0.57057 0.40754 0.0
H159 H 0.14566 0.5293 0.41127 0.0
H160 H 0.12229 0.55924 0.42606 0.0
O161 O 0.25597 0.58236 0.41236 0.0
O162 O 0.28031 0.57853 0.44811 0.0
H163 H 0.20945 0.56337 0.51093 0.0
H164 H 0.17194 0.54334 0.51496 0.0
C165 C 0.19481 0.54289 0.50492 0.0
H166 H 0.2078 0.52063 0.50934 0.0
H167 H 0.27058 0.58923 0.50474 0.0
O168 O 0.2019 0.5452 0.38199 0.0
C169 C 0.27654 0.59221 0.4276 0.0
Co170 Co 0.43975 0.23626 0.66137 0.0
Co171 Co 0.45165 0.26114 0.71446 0.0
C172 C 0.49809 0.27413 0.675 0.0
O173 O 0.4807 0.25919 0.65997 0.0
O174 O 0.49002 0.27691 0.69713 0.0
C175 C 0.46228 0.20068 0.62271 0.0
O176 O 0.48689 0.2 0.63744 0.0
C177 C 0.48444 0.27086 0.76078 0.0
C178 C 0.44464 0.2746 0.78683 0.0
C179 C 0.47756 0.27404 0.78529 0.0
N180 N 0.45687 0.26881 0.74848 0.0
N181 N 0.43315 0.27128 0.76413 0.0
C182 C 0.51642 0.27184 0.74874 0.0
H183 H 0.5172 0.29252 0.73624 0.0
H184 H 0.51982 0.24992 0.7378 0.0
H185 H 0.53627 0.27456 0.76178 0.0
C186 C 0.43542 0.17488 0.68703 0.0
N187 N 0.43947 0.20667 0.68692 0.0
N188 N 0.44544 0.21652 0.70913 0.0
C189 C 0.44594 0.19098 0.72404 0.0
C190 C 0.43969 0.16384 0.71045 0.0
C191 C 0.42624 0.15551 0.66533 0.0
H192 H 0.41041 0.1695 0.65326 0.0
H193 H 0.44803 0.14886 0.65516 0.0
H194 H 0.41386 0.1333 0.67083 0.0
O195 O 0.40534 0.26776 0.66528 0.0
O196 O 0.41473 0.28673 0.70234 0.0
H197 H 0.4354 0.20529 0.76033 0.0
H198 H 0.45696 0.16813 0.75833 0.0
C199 C 0.45431 0.19228 0.7504 0.0
H200 H 0.47701 0.20539 0.75274 0.0
H201 H 0.40912 0.27025 0.75935 0.0
O202 O 0.43693 0.21459 0.62958 0.0
C203 C 0.39881 0.28681 0.68259 0.0
Co204 Co 0.76759 0.44561 0.90738 0.0
Co205 Co 0.73743 0.45493 0.95903 0.0
C206 C 0.72384 0.50053 0.91902 0.0
O207 O 0.74133 0.48446 0.90476 0.0
O208 O 0.72011 0.4922 0.94103 0.0
C209 C 0.80564 0.47105 0.87128 0.0
O210 O 0.80437 0.49488 0.88671 0.0
C211 C 0.72337 0.4863 0.00512 0.0
C212 C 0.718 0.44575 0.0304 0.0
C213 C 0.71849 0.47873 0.02936 0.0
N214 N 0.72651 0.45906 0.99255 0.0
N215 N 0.72297 0.43489 0.0077 0.0
C216 C 0.72334 0.5186 0.99352 0.0
H217 H 0.7039 0.51966 0.97994 0.0
H218 H 0.74618 0.52236 0.98381 0.0
H219 H 0.71931 0.53809 0.00668 0.0
C220 C 0.82683 0.44524 0.93612 0.0
N221 N 0.79496 0.44753 0.93432 0.0
N222 N 0.78275 0.45212 0.95603 0.0
C223 C 0.80677 0.4533 0.97233 0.0
C224 C 0.83537 0.44916 0.96015 0.0
C225 C 0.8487 0.43742 0.91553 0.0
H226 H 0.83667 0.42136 0.90246 0.0
H227 H 0.85551 0.45974 0.9061 0.0
H228 H 0.87077 0.42577 0.92219 0.0
O229 O 0.73917 0.40837 0.90979 0.0
O230 O 0.71609 0.4162 0.94569 0.0
H231 H 0.78854 0.43991 0.00704 0.0
H232 H 0.82582 0.46129 0.00838 0.0
C233 C 0.80262 0.45949 -0.00114 0.0
H234 H 0.78939 0.48209 0.00141 0.0
H235 H 0.72461 0.41099 0.00264 0.0
O236 O 0.79191 0.44501 0.87674 0.0
C237 C 0.71927 0.40026 0.92612 0.0
Co238 Co 0.54887 0.76655 0.16022 0.0
Co239 Co 0.54246 0.73608 0.21198 0.0
C240 C 0.49345 0.72456 0.17392 0.0
O241 O 0.50945 0.74122 0.15905 0.0
O242 O 0.50279 0.72076 0.19572 0.0
C243 C 0.52403 0.80081 0.12054 0.0
O244 O 0.49762 0.79668 0.13291 0.0
C245 C 0.5154 0.72629 0.26026 0.0
C246 C 0.55374 0.70007 0.27913 0.0
C247 C 0.5231 0.71169 0.28205 0.0
N248 N 0.54043 0.72371 0.24523 0.0
N249 N 0.56343 0.70834 0.25671 0.0
C250 C 0.48376 0.73958 0.2529 0.0
H251 H 0.48507 0.75056 0.23463 0.0
H252 H 0.47592 0.75789 0.26608 0.0
H253 H 0.46575 0.72022 0.25289 0.0
C254 C 0.55268 0.82544 0.18906 0.0
N255 N 0.54946 0.79364 0.18736 0.0
N256 N 0.54743 0.78124 0.20924 0.0
C257 C 0.54959 0.80499 0.22567 0.0
C258 C 0.55292 0.83373 0.21341 0.0
C259 C 0.55342 0.8473 0.16758 0.0
H260 H 0.57308 0.84019 0.15529 0.0
H261 H 0.53073 0.84497 0.15749 0.0
H262 H 0.55625 0.87263 0.17274 0.0
O263 O 0.58541 0.73709 0.16122 0.0
O264 O 0.579 0.71316 0.19691 0.0
H265 H 0.55975 0.82149 0.26203 0.0
H266 H 0.52563 0.79575 0.25907 0.0
C267 C 0.5502 0.80021 0.25256 0.0
H268 H 0.56514 0.7793 0.25716 0.0
H269 H 0.58536 0.70258 0.24896 0.0
O270 O 0.55016 0.79077 0.12938 0.0
C271 C 0.59383 0.71643 0.17689 0.0
C272 C 0.17397 0.48421 0.3405 0.0
C273 C 0.17712 0.51469 0.35069 0.0
C274 C 0.16504 0.48063 0.31628 0.0
C275 C 0.16886 0.52566 0.25924 0.0
H276 H 0.12805 0.45003 0.23339 0.0
C277 C 0.16545 0.50291 0.15719 0.0
C278 C 0.1785 0.47332 0.15055 0.0
C279 C 0.15611 0.5086 0.18106 0.0
C280 C 0.13933 0.47134 0.2404 0.0
H281 H 0.17086 0.56526 0.3442 0.0
H282 H 0.15427 0.55903 0.30206 0.0
H283 H 0.12698 0.46006 0.27706 0.0
H284 H 0.18987 0.42576 0.16332 0.0
H285 H 0.17363 0.4358 0.20515 0.0
H286 H 0.1817 0.53664 0.22272 0.0
C287 C 0.15972 0.53788 0.31253 0.0
C288 C 0.13884 0.47706 0.26538 0.0
C289 C 0.16909 0.54147 0.3367 0.0
C290 C 0.18008 0.44886 0.16792 0.0
C291 C 0.17058 0.45454 0.19182 0.0
C292 C 0.16902 0.52012 0.23433 0.0
C293 C 0.15865 0.50747 0.30179 0.0
C294 C 0.15441 0.50384 0.27516 0.0
C295 C 0.15947 0.48478 0.19876 0.0
C296 C 0.155 0.49252 0.22472 0.0
H297 H 0.17998 0.46308 0.35083 0.0
H298 H 0.16488 0.45687 0.30864 0.0
H299 H 0.18162 0.54621 0.26605 0.0
H300 H 0.16358 0.52217 0.14418 0.0
H301 H 0.14725 0.532 0.18588 0.0
C302 C 0.53995 0.18281 0.41634 0.0
C303 C 0.51641 0.18353 0.39822 0.0
C304 C 0.53195 0.17492 0.4402 0.0
C305 C 0.46509 0.18288 0.48089 0.0
H306 H 0.51618 0.13262 0.52528 0.0
C307 C 0.43847 0.18485 0.58282 0.0
C308 C 0.46527 0.18804 0.59785 0.0
C309 C 0.44203 0.17604 0.55853 0.0
C310 C 0.50173 0.14686 0.51315 0.0
H311 H 0.46647 0.17457 0.39058 0.0
H312 H 0.45258 0.16118 0.43225 0.0
H313 H 0.5285 0.13216 0.48196 0.0
H314 H 0.51667 0.18319 0.59957 0.0
H315 H 0.523 0.16909 0.55723 0.0
H316 H 0.43952 0.19924 0.51186 0.0
C317 C 0.47712 0.16688 0.428 0.0
C318 C 0.50874 0.14645 0.48836 0.0
C319 C 0.48513 0.1745 0.40415 0.0
C320 C 0.49551 0.18092 0.58845 0.0
C321 C 0.49912 0.17254 0.56414 0.0
C322 C 0.45835 0.18364 0.50564 0.0
C323 C 0.50026 0.16784 0.44635 0.0
C324 C 0.49082 0.16492 0.4721 0.0
C325 C 0.47251 0.17067 0.54871 0.0
C326 C 0.477 0.16618 0.52217 0.0
H327 H 0.56429 0.1895 0.41229 0.0
H328 H 0.55022 0.17603 0.45406 0.0
H329 H 0.45116 0.1977 0.46878 0.0
H330 H 0.41481 0.18981 0.58968 0.0
H331 H 0.42094 0.17416 0.54731 0.0
C332 C 0.82213 0.54134 0.66061 0.0
C333 C 0.81464 0.51391 0.64719 0.0
C334 C 0.83256 0.53874 0.68459 0.0
C335 C 0.85791 0.48008 0.73206 0.0
H336 H 0.81381 0.53853 0.77486 0.0
C337 C 0.81963 0.45113 0.82982 0.0
C338 C 0.81991 0.47575 0.84708 0.0
C339 C 0.82892 0.45709 0.80592 0.0
C340 C 0.82688 0.5224 0.76321 0.0
H341 H 0.81379 0.46225 0.64787 0.0
H342 H 0.83077 0.45772 0.68981 0.0
H343 H 0.81211 0.5473 0.73145 0.0
H344 H 0.83244 0.52527 0.85329 0.0
H345 H 0.84845 0.53562 0.81156 0.0
H346 H 0.8709 0.45414 0.7641 0.0
C347 C 0.82936 0.48125 0.68181 0.0
C348 C 0.826 0.52746 0.73824 0.0
C349 C 0.81933 0.48384 0.65777 0.0
C350 C 0.83161 0.50586 0.84036 0.0
C351 C 0.84075 0.51184 0.81647 0.0
C352 C 0.85851 0.47484 0.75709 0.0
C353 C 0.83529 0.50869 0.69573 0.0
C354 C 0.84079 0.50593 0.72229 0.0
C355 C 0.83855 0.48779 0.79886 0.0
C356 C 0.84235 0.49556 0.77284 0.0
H357 H 0.81918 0.56484 0.65279 0.0
H358 H 0.83759 0.56035 0.69462 0.0
H359 H 0.87008 0.46336 0.72032 0.0
H360 H 0.81093 0.42762 0.83449 0.0
H361 H 0.82676 0.43815 0.79268 0.0
C362 C 0.46559 0.81807 0.91084 0.0
C363 C 0.49076 0.81605 0.89413 0.0
C364 C 0.47148 0.82658 0.93492 0.0
C365 C 0.53495 0.81998 0.97945 0.0
H366 H 0.47758 0.86849 0.0203 0.0
C367 C 0.55091 0.81982 0.08264 0.0
C368 C 0.52281 0.81422 0.09578 0.0
C369 C 0.54948 0.8288 0.05825 0.0
C370 C 0.49381 0.85484 0.00914 0.0
H371 H 0.54149 0.82347 0.88916 0.0
H372 H 0.55169 0.83829 0.93118 0.0
H373 H 0.46996 0.86853 0.97635 0.0
H374 H 0.4712 0.81532 0.09405 0.0
H375 H 0.4687 0.83007 0.05153 0.0
H376 H 0.55784 0.80487 0.01204 0.0
C377 C 0.52751 0.83291 0.92572 0.0
C378 C 0.48948 0.85494 0.98399 0.0
C379 C 0.52161 0.8245 0.90164 0.0
C380 C 0.49331 0.81938 0.08443 0.0
C381 C 0.49188 0.82811 0.06003 0.0
C382 C 0.53916 0.8197 0.00454 0.0
C383 C 0.50265 0.83318 0.94275 0.0
C384 C 0.50959 0.83692 0.96896 0.0
C385 C 0.51993 0.83213 0.04647 0.0
C386 C 0.51819 0.8365 0.01975 0.0
H387 H 0.44152 0.81186 0.90559 0.0
H388 H 0.45187 0.82634 0.94767 0.0
H389 H 0.55057 0.80547 0.96839 0.0
H390 H 0.57402 0.8164 0.09099 0.0
H391 H 0.57155 0.8323 0.04846 0.0
C392 C 0.10911 0.41304 0.03204 0.0
C393 C 0.12905 0.43896 0.02686 0.0
C394 C 0.07739 0.41324 0.02444 0.0
C395 C 0.02234 0.44815 0.98047 0.0
H396 H 0.95775 0.43222 0.02926 0.0
C397 C 0.8902 0.47119 0.96063 0.0
C398 C 0.86798 0.44952 0.96992 0.0
C399 C 0.9219 0.47 0.96811 0.0
C400 C 0.97543 0.43627 0.01532 0.0
H401 H 0.1324 0.48458 0.00871 0.0
H402 H 0.07699 0.48465 0.99482 0.0
H403 H 0.01395 0.42832 0.0401 0.0
H404 H 0.86079 0.40978 0.99426 0.0
H405 H 0.91654 0.40694 0.00705 0.0
H406 H 0.98413 0.45544 0.95551 0.0
C407 C 0.08575 0.46438 0.00501 0.0
C408 C 0.0076 0.43409 0.02156 0.0
C409 C 0.11736 0.46435 0.0129 0.0
C410 C 0.87764 0.42693 0.98713 0.0
C411 C 0.9095 0.42542 0.99443 0.0
C412 C 0.9902 0.44993 0.97414 0.0
C413 C 0.06533 0.43911 0.01112 0.0
C414 C 0.03132 0.44022 0.00423 0.0
C415 C 0.93211 0.44672 0.98477 0.0
C416 C 0.96632 0.44428 0.99153 0.0
H417 H 0.11795 0.39285 0.04228 0.0
H418 H 0.06224 0.39324 0.02903 0.0
H419 H 0.0402 0.45265 0.96672 0.0
H420 H 0.88306 0.48888 0.94738 0.0
H421 H 0.93842 0.48726 0.96073 0.0
C422 C 0.52624 0.10576 0.28972 0.0
C423 C 0.54616 0.12804 0.27842 0.0
C424 C 0.52703 0.07383 0.28277 0.0
C425 C 0.55481 0.01967 0.23393 0.0
H426 H 0.54688 0.95562 0.28435 0.0
C427 C 0.57927 0.88682 0.21638 0.0
C428 C 0.55493 0.86608 0.22372 0.0
C429 C 0.57925 0.91852 0.22398 0.0
C430 C 0.54897 0.97328 0.2701 0.0
H431 H 0.58228 0.13505 0.251 0.0
H432 H 0.5844 0.07896 0.2391 0.0
H433 H 0.54433 0.01195 0.29503 0.0
H434 H 0.5125 0.86131 0.24569 0.0
H435 H 0.51279 0.9168 0.25953 0.0
H436 H 0.5601 0.9808 0.20911 0.0
C437 C 0.56761 0.08611 0.25296 0.0
C438 C 0.54734 0.00555 0.27615 0.0
C439 C 0.56651 0.11817 0.25976 0.0
C440 C 0.53152 0.87696 0.23985 0.0
C441 C 0.53168 0.90861 0.2477 0.0
C442 C 0.55682 0.98742 0.22794 0.0
C443 C 0.5481 0.06348 0.26458 0.0
C444 C 0.55007 0.02915 0.25811 0.0
C445 C 0.55515 0.92983 0.23939 0.0
C446 C 0.55381 0.96395 0.24596 0.0
H447 H 0.51015 0.11306 0.30403 0.0
H448 H 0.51113 0.05726 0.29171 0.0
H449 H 0.55648 0.03713 0.21952 0.0
H450 H 0.5979 0.87867 0.2043 0.0
H451 H 0.5979 0.93428 0.21765 0.0
C452 C 0.10954 0.57731 0.47165 0.0
C453 C 0.12878 0.55075 0.47646 0.0
C454 C 0.07757 0.57733 0.47848 0.0
C455 C 0.01895 0.53922 0.51841 0.0
H456 H 0.95856 0.5633 0.46833 0.0
C457 C 0.8849 0.51913 0.53084 0.0
C458 C 0.86451 0.54358 0.52319 0.0
C459 C 0.91699 0.51956 0.52442 0.0
C460 C 0.97509 0.55688 0.48261 0.0
H461 H 0.1307 0.50407 0.49304 0.0
H462 H 0.07464 0.50415 0.50543 0.0
H463 H 0.01554 0.56634 0.46014 0.0
H464 H 0.86089 0.58732 0.50266 0.0
H465 H 0.91735 0.58857 0.4916 0.0
H466 H 0.97866 0.53014 0.54101 0.0
C467 C 0.08421 0.52492 0.49632 0.0
C468 C 0.0077 0.55862 0.47792 0.0
C469 C 0.11618 0.52484 0.4893 0.0
C470 C 0.87631 0.56807 0.50847 0.0
C471 C 0.90855 0.56869 0.50218 0.0
C472 C 0.98634 0.53771 0.52317 0.0
C473 C 0.06444 0.55086 0.49044 0.0
C474 C 0.02993 0.54973 0.49575 0.0
C475 C 0.92937 0.54471 0.51046 0.0
C476 C 0.96402 0.54638 0.50529 0.0
H477 H 0.11903 0.59764 0.46193 0.0
H478 H 0.06299 0.59784 0.4741 0.0
H479 H 0.03559 0.53254 0.53255 0.0
H480 H 0.87608 0.49998 0.54219 0.0
H481 H 0.93218 0.50036 0.53064 0.0
C482 C 0.45898 0.10811 0.70633 0.0
C483 C 0.43965 0.13029 0.71833 0.0
C484 C 0.45777 0.07593 0.71256 0.0
C485 C 0.43211 0.02082 0.76111 0.0
H486 H 0.43748 0.95793 0.70969 0.0
C487 C 0.41448 0.88717 0.77947 0.0
C488 C 0.43826 0.86724 0.77007 0.0
C489 C 0.41234 0.91886 0.77198 0.0
C490 C 0.4361 0.97524 0.72422 0.0
H491 H 0.40403 0.13679 0.7462 0.0
H492 H 0.40144 0.08025 0.75704 0.0
H493 H 0.43858 0.01452 0.6996 0.0
H494 H 0.47726 0.86377 0.74458 0.0
H495 H 0.4734 0.9193 0.73117 0.0
H496 H 0.42948 0.98144 0.78569 0.0
C497 C 0.41795 0.08771 0.74308 0.0
C498 C 0.43685 0.00764 0.71849 0.0
C499 C 0.41936 0.11999 0.73691 0.0
C500 C 0.45876 0.87884 0.75206 0.0
C501 C 0.45651 0.91052 0.74442 0.0
C502 C 0.43114 0.98842 0.76681 0.0
C503 C 0.43698 0.06526 0.73082 0.0
C504 C 0.43515 0.03082 0.73689 0.0
C505 C 0.43374 0.93102 0.75474 0.0
C506 C 0.43334 0.96532 0.74844 0.0
H507 H 0.47501 0.1157 0.69206 0.0
H508 H 0.47325 0.05945 0.70312 0.0
H509 H 0.43122 0.038 0.77574 0.0
H510 H 0.39804 0.87842 0.79306 0.0
H511 H 0.3942 0.93397 0.7799 0.0
C512 C 0.44718 0.68718 0.17994 0.0
C513 C 0.46477 0.70771 0.16488 0.0
C514 C 0.42217 0.66899 0.17039 0.0
C515 C 0.39741 0.63296 0.11313 0.0
H516 H 0.31606 0.61994 0.14476 0.0
C517 C 0.30241 0.55211 0.07006 0.0
C518 C 0.28618 0.53149 0.08587 0.0
C519 C 0.32081 0.57716 0.07922 0.0
C520 C 0.33876 0.62309 0.13578 0.0
H521 H 0.46871 0.72635 0.1282 0.0
H522 H 0.42543 0.69464 0.11174 0.0
H523 H 0.35474 0.6567 0.16249 0.0
H524 H 0.27566 0.52181 0.12373 0.0
H525 H 0.30829 0.56464 0.13962 0.0
H526 H 0.3823 0.59869 0.08695 0.0
C527 C 0.43118 0.69233 0.13082 0.0
C528 C 0.36085 0.6442 0.14594 0.0
C529 C 0.45594 0.71059 0.14034 0.0
C530 C 0.28782 0.53722 0.11098 0.0
C531 C 0.30643 0.56201 0.12013 0.0
C532 C 0.37554 0.61166 0.10312 0.0
C533 C 0.41446 0.67088 0.1456 0.0
C534 C 0.39043 0.64925 0.13473 0.0
C535 C 0.32365 0.58197 0.10441 0.0
C536 C 0.34597 0.60629 0.11436 0.0
H537 H 0.45328 0.68447 0.19893 0.0
H538 H 0.40971 0.65254 0.18218 0.0
H539 H 0.42024 0.636 0.10428 0.0
H540 H 0.30145 0.54854 0.05062 0.0
H541 H 0.33318 0.59246 0.06653 0.0
C542 C 0.46479 0.29554 0.35906 0.0
C543 C 0.4689 0.29277 0.33383 0.0
C544 C 0.43997 0.31368 0.36862 0.0
C545 C 0.38516 0.37912 0.35222 0.0
H546 H 0.34518 0.35673 0.41334 0.0
C547 C 0.28386 0.45391 0.39255 0.0
C548 C 0.28825 0.4637 0.41675 0.0
C549 C 0.30282 0.43004 0.38254 0.0
C550 C 0.35623 0.36327 0.3963 0.0
H551 H 0.44931 0.30599 0.29886 0.0
H552 H 0.40534 0.33708 0.31555 0.0
H553 H 0.38316 0.32006 0.39474 0.0
H554 H 0.31505 0.45474 0.44971 0.0
H555 H 0.34806 0.41262 0.43215 0.0
H556 H 0.35802 0.42222 0.35376 0.0
C557 C 0.42188 0.32583 0.32796 0.0
C558 C 0.37806 0.34236 0.38565 0.0
C559 C 0.44699 0.30787 0.31836 0.0
C560 C 0.31103 0.44784 0.43105 0.0
C561 C 0.32989 0.42368 0.42102 0.0
C562 C 0.36309 0.39981 0.36273 0.0
C563 C 0.41831 0.32929 0.35323 0.0
C564 C 0.39314 0.35022 0.36362 0.0
C565 C 0.32646 0.41515 0.39649 0.0
C566 C 0.34867 0.39226 0.38499 0.0
H567 H 0.48125 0.28433 0.37157 0.0
H568 H 0.43842 0.3162 0.38813 0.0
H569 H 0.39668 0.38632 0.33553 0.0
H570 H 0.26636 0.46534 0.38101 0.0
H571 H 0.29935 0.42359 0.36369 0.0
C572 C 0.53905 0.31733 0.67761 0.0
C573 C 0.52697 0.29023 0.66588 0.0
C574 C 0.56371 0.33494 0.6671 0.0
C575 C 0.62384 0.36323 0.64601 0.0
H576 H 0.62214 0.37115 0.57595 0.0
C577 C 0.71477 0.44235 0.59689 0.0
C578 C 0.70337 0.46099 0.57757 0.0
C579 C 0.69635 0.41764 0.60637 0.0
C580 C 0.62287 0.36943 0.59554 0.0
H581 H 0.53259 0.25904 0.63483 0.0
H582 H 0.57648 0.2888 0.61709 0.0
H583 H 0.58428 0.33637 0.596 0.0
H584 H 0.66425 0.46767 0.55244 0.0
H585 H 0.63148 0.42539 0.56952 0.0
H586 H 0.66097 0.39791 0.64569 0.0
C587 C 0.56616 0.29734 0.63386 0.0
C588 C 0.60143 0.34899 0.60708 0.0
C589 C 0.54116 0.28009 0.64414 0.0
C590 C 0.67371 0.45359 0.56726 0.0
C591 C 0.65499 0.42921 0.57704 0.0
C592 C 0.64496 0.38402 0.6345 0.0
C593 C 0.57721 0.3255 0.64484 0.0
C594 C 0.60143 0.3458 0.6325 0.0
C595 C 0.66578 0.41135 0.59708 0.0
C596 C 0.6446 0.38762 0.60911 0.0
H597 H 0.52844 0.32582 0.69431 0.0
H598 H 0.57123 0.35667 0.67599 0.0
H599 H 0.62496 0.36108 0.66556 0.0
H600 H 0.73774 0.44726 0.60502 0.0
H601 H 0.7059 0.40388 0.62132 0.0
C602 C 0.6789 0.53985 0.92089 0.0
C603 C 0.70616 0.52815 0.90913 0.0
C604 C 0.66036 0.56364 0.91008 0.0
C605 C 0.63165 0.62356 0.88865 0.0
H606 H 0.62071 0.62011 0.81885 0.0
C607 C 0.55444 0.71634 0.83992 0.0
C608 C 0.53406 0.70517 0.82158 0.0
C609 C 0.57883 0.69709 0.84893 0.0
C610 C 0.62331 0.62132 0.83837 0.0
H611 H 0.73629 0.53339 0.87743 0.0
H612 H 0.70469 0.57556 0.85903 0.0
H613 H 0.65565 0.582 0.83877 0.0
H614 H 0.52408 0.66558 0.79756 0.0
H615 H 0.56604 0.63145 0.81377 0.0
H616 H 0.598 0.66166 0.88846 0.0
C617 C 0.69692 0.56569 0.87619 0.0
C618 C 0.64377 0.59972 0.8498 0.0
C619 C 0.71521 0.54166 0.88684 0.0
C620 C 0.53953 0.67488 0.81161 0.0
C621 C 0.56368 0.65536 0.82091 0.0
C622 C 0.61096 0.64492 0.87726 0.0
C623 C 0.66889 0.57657 0.8874 0.0
C624 C 0.64808 0.60043 0.87513 0.0
C625 C 0.58312 0.66593 0.84013 0.0
C626 C 0.60639 0.64403 0.85197 0.0
H627 H 0.67119 0.52979 0.938 0.0
H628 H 0.63875 0.57108 0.91915 0.0
H629 H 0.63465 0.62516 0.90812 0.0
H630 H 0.55105 0.73976 0.84777 0.0
H631 H 0.59387 0.70643 0.86321 0.0
C632 C 0.30401 0.35952 0.0964 0.0
C633 C 0.30712 0.37987 0.07628 0.0
C634 C 0.33013 0.34214 0.10485 0.0
C635 C 0.38931 0.30176 0.1157 0.0
H636 H 0.45835 0.36058 0.12927 0.0
C637 C 0.5013 0.26942 0.17318 0.0
C638 C 0.50408 0.28949 0.19343 0.0
C639 C 0.48041 0.27725 0.15429 0.0
C640 C 0.43946 0.34378 0.12529 0.0
H641 H 0.33942 0.39594 0.04809 0.0
H642 H 0.38515 0.36591 0.06317 0.0
H643 H 0.41465 0.37715 0.10287 0.0
H644 H 0.48876 0.33388 0.20959 0.0
H645 H 0.45291 0.34809 0.17629 0.0
H646 H 0.41379 0.26883 0.13895 0.0
C647 C 0.36248 0.3635 0.07235 0.0
C648 C 0.41459 0.35313 0.11007 0.0
C649 C 0.33624 0.38057 0.06368 0.0
C650 C 0.48676 0.31802 0.19416 0.0
C651 C 0.46647 0.32618 0.17511 0.0
C652 C 0.41452 0.29221 0.13064 0.0
C653 C 0.35993 0.34502 0.0935 0.0
C654 C 0.38879 0.33259 0.10573 0.0
C655 C 0.46277 0.30567 0.15518 0.0
C656 C 0.43924 0.31355 0.13616 0.0
H657 H 0.28185 0.35828 0.10639 0.0
H658 H 0.32752 0.32821 0.12128 0.0
H659 H 0.36971 0.28549 0.1126 0.0
H660 H 0.5145 0.24726 0.17235 0.0
H661 H 0.4779 0.26112 0.13907 0.0
C662 C 0.64732 0.29509 0.33859 0.0
C663 C 0.62144 0.30278 0.3236 0.0
C664 C 0.66702 0.31907 0.34773 0.0
C665 C 0.68051 0.40804 0.34721 0.0
H666 H 0.7012 0.39227 0.4147 0.0
C667 C 0.68912 0.50274 0.42369 0.0
C668 C 0.71409 0.49922 0.44042 0.0
C669 C 0.6851 0.48052 0.40502 0.0
C670 C 0.69604 0.39691 0.39576 0.0
H671 H 0.59691 0.34121 0.30518 0.0
H672 H 0.62984 0.38314 0.3221 0.0
H673 H 0.68159 0.34901 0.38987 0.0
H674 H 0.75683 0.47252 0.44895 0.0
H675 H 0.74899 0.43283 0.417 0.0
H676 H 0.6928 0.45689 0.3542 0.0
C677 C 0.63595 0.35871 0.3263 0.0
C678 C 0.68498 0.37199 0.38134 0.0
C679 C 0.61685 0.33461 0.3166 0.0
C680 C 0.73651 0.47482 0.43696 0.0
C681 C 0.73227 0.45239 0.41856 0.0
C682 C 0.69095 0.43319 0.36187 0.0
C683 C 0.66054 0.35139 0.34279 0.0
C684 C 0.6765 0.37721 0.35693 0.0
C685 C 0.70602 0.45453 0.40287 0.0
C686 C 0.69837 0.42786 0.38636 0.0
H687 H 0.65156 0.27064 0.34402 0.0
H688 H 0.68642 0.31227 0.35959 0.0
H689 H 0.67492 0.41299 0.32842 0.0
H690 H 0.67186 0.52173 0.42576 0.0
H691 H 0.66464 0.48263 0.39315 0.0
C692 C 0.50469 0.72856 0.67853 0.0
C693 C 0.48564 0.70512 0.68949 0.0
C694 C 0.52742 0.72006 0.66115 0.0
C695 C 0.57927 0.65397 0.64838 0.0
H696 H 0.59755 0.69475 0.58674 0.0
C697 C 0.66323 0.62036 0.56447 0.0
C698 C 0.6916 0.61469 0.5774 0.0
C699 C 0.63821 0.63727 0.57528 0.0
C700 C 0.59263 0.6833 0.60394 0.0
H701 H 0.47368 0.65494 0.68982 0.0
H702 H 0.51366 0.64 0.65968 0.0
H703 H 0.55071 0.7115 0.61046 0.0
H704 H 0.71724 0.62545 0.61063 0.0
H705 H 0.67364 0.6546 0.62934 0.0
H706 H 0.6211 0.62615 0.6423 0.0
C707 C 0.51114 0.66487 0.66459 0.0
C708 C 0.566 0.69284 0.61746 0.0
C709 C 0.48822 0.67341 0.68172 0.0
C710 C 0.69555 0.62889 0.60031 0.0
C711 C 0.67059 0.64558 0.61107 0.0
C712 C 0.60601 0.64489 0.63517 0.0
C713 C 0.53153 0.68798 0.65466 0.0
C714 C 0.55906 0.67805 0.63973 0.0
C715 C 0.64125 0.64864 0.59912 0.0
C716 C 0.613 0.65945 0.61287 0.0
H717 H 0.50248 0.75332 0.68374 0.0
H718 H 0.54283 0.73831 0.65372 0.0
H719 H 0.57467 0.64245 0.66562 0.0
H720 H 0.65947 0.60985 0.54676 0.0
H721 H 0.61576 0.63938 0.56572 0.0
C722 C 0.28776 0.54118 0.95475 0.0
C723 C 0.28115 0.5092 0.94921 0.0
C724 C 0.29202 0.56351 0.93632 0.0
C725 C 0.32012 0.5707 0.87454 0.0
H726 H 0.28766 0.65685 0.88078 0.0
C727 C 0.36919 0.67202 0.81513 0.0
C728 C 0.37905 0.69857 0.82877 0.0
C729 C 0.34891 0.64921 0.82534 0.0
C730 C 0.29683 0.63288 0.87871 0.0
H731 H 0.27473 0.47538 0.91991 0.0
H732 H 0.28291 0.51455 0.88749 0.0
H733 H 0.2678 0.61507 0.90761 0.0
H734 H 0.37343 0.72315 0.86314 0.0
H735 H 0.33857 0.68349 0.88088 0.0
H736 H 0.35047 0.58877 0.84662 0.0
C737 C 0.28411 0.5223 0.90621 0.0
C738 C 0.28543 0.60899 0.89404 0.0
C739 C 0.27948 0.49994 0.92473 0.0
C740 C 0.36652 0.70289 0.85216 0.0
C741 C 0.34624 0.68021 0.86229 0.0
C742 C 0.33166 0.59466 0.85928 0.0
C743 C 0.2904 0.55433 0.91187 0.0
C744 C 0.29781 0.57794 0.89269 0.0
C745 C 0.33795 0.65262 0.84929 0.0
C746 C 0.321 0.62627 0.86182 0.0
H747 H 0.29091 0.54894 0.97327 0.0
H748 H 0.29783 0.58781 0.94126 0.0
H749 H 0.33023 0.54702 0.87318 0.0
H750 H 0.37827 0.66805 0.797 0.0
H751 H 0.34262 0.6284 0.81475 0.0
C752 C 0.32896 0.62073 0.43114 0.0
C753 C 0.29942 0.61683 0.41944 0.0
C754 C 0.35351 0.63776 0.41983 0.0
C755 C 0.3979 0.68448 0.39047 0.0
H756 H 0.41009 0.64542 0.32733 0.0
C757 C 0.48307 0.72834 0.31326 0.0
C758 C 0.50153 0.70438 0.30238 0.0
C759 C 0.4604 0.72052 0.33087 0.0
C760 C 0.40702 0.65648 0.34493 0.0
H761 H 0.27132 0.6309 0.38812 0.0
H762 H 0.31412 0.66019 0.3685 0.0
H763 H 0.36476 0.62985 0.35221 0.0
H764 H 0.51228 0.65393 0.30213 0.0
H765 H 0.47219 0.64013 0.33255 0.0
H766 H 0.44026 0.71147 0.38276 0.0
C767 C 0.31841 0.64975 0.38618 0.0
C768 C 0.38097 0.64781 0.35906 0.0
C769 C 0.29393 0.63295 0.39746 0.0
C770 C 0.49816 0.67276 0.31019 0.0
C771 C 0.47525 0.66489 0.3275 0.0
C772 C 0.42381 0.69367 0.37603 0.0
C773 C 0.34879 0.65101 0.39671 0.0
C774 C 0.37615 0.66165 0.38194 0.0
C775 C 0.45572 0.68859 0.33759 0.0
C776 C 0.42865 0.67948 0.35323 0.0
H777 H 0.33392 0.60871 0.44812 0.0
H778 H 0.3768 0.63846 0.42828 0.0
H779 H 0.39466 0.69535 0.40811 0.0
H780 H 0.48589 0.75302 0.30795 0.0
H781 H 0.4456 0.73918 0.33843 0.0
C782 C 0.30606 0.51544 0.57569 0.0
C783 C 0.28476 0.50543 0.55761 0.0
C784 C 0.31213 0.49612 0.59586 0.0
C785 C 0.28539 0.42096 0.62721 0.0
H786 H 0.37452 0.41643 0.64522 0.0
C787 C 0.35252 0.30906 0.65964 0.0
C788 C 0.37547 0.3125 0.67802 0.0
C789 C 0.33516 0.33539 0.65153 0.0
C790 C 0.34942 0.4178 0.64077 0.0
H791 H 0.24995 0.46944 0.54807 0.0
H792 H 0.26224 0.4346 0.58189 0.0
H793 H 0.35663 0.45824 0.61807 0.0
H794 H 0.39664 0.34573 0.70348 0.0
H795 H 0.3668 0.39194 0.6888 0.0
H796 H 0.27915 0.37861 0.64857 0.0
C797 C 0.27435 0.45731 0.58085 0.0
C798 C 0.33903 0.44191 0.62521 0.0
C799 C 0.26787 0.47693 0.561 0.0
C800 C 0.37906 0.34231 0.68933 0.0
C801 C 0.36213 0.36878 0.68088 0.0
C802 C 0.29598 0.39642 0.6424 0.0
C803 C 0.29715 0.46624 0.59831 0.0
C804 C 0.30701 0.4434 0.61769 0.0
C805 C 0.34083 0.36572 0.66137 0.0
C806 C 0.32822 0.39428 0.64888 0.0
H807 H 0.31876 0.53777 0.57388 0.0
H808 H 0.32905 0.5044 0.60926 0.0
H809 H 0.2604 0.42172 0.62242 0.0
H810 H 0.34915 0.28635 0.65066 0.0
H811 H 0.31901 0.33243 0.63636 0.0
C812 C 0.66466 0.37719 0.92814 0.0
C813 C 0.69643 0.37461 0.92049 0.0
C814 C 0.64129 0.35731 0.91832 0.0
C815 C 0.62854 0.31062 0.86217 0.0
H816 H 0.54582 0.2953 0.89114 0.0
C817 C 0.52672 0.25616 0.80705 0.0
C818 C 0.50008 0.27633 0.80581 0.0
C819 C 0.54997 0.26083 0.82479 0.0
C820 C 0.56891 0.29927 0.88293 0.0
H821 H 0.72938 0.34719 0.8987 0.0
H822 H 0.68908 0.31108 0.88275 0.0
H823 H 0.58961 0.31473 0.91639 0.0
H824 H 0.47491 0.31477 0.82364 0.0
H825 H 0.51552 0.32278 0.85501 0.0
H826 H 0.60779 0.29514 0.82878 0.0
C827 C 0.68172 0.32948 0.8953 0.0
C828 C 0.59398 0.31057 0.8973 0.0
C829 C 0.70494 0.34992 0.90463 0.0
C830 C 0.49556 0.29929 0.82399 0.0
C831 C 0.51867 0.30374 0.84196 0.0
C832 C 0.60373 0.29878 0.84799 0.0
C833 C 0.64933 0.33395 0.90102 0.0
C834 C 0.62394 0.31724 0.88696 0.0
C835 C 0.54658 0.28525 0.84199 0.0
C836 C 0.5735 0.29373 0.85807 0.0
H837 H 0.65742 0.39616 0.94027 0.0
H838 H 0.61672 0.36184 0.92312 0.0
H839 H 0.65082 0.31606 0.85324 0.0
H840 H 0.52999 0.23729 0.79388 0.0
H841 H 0.57102 0.2459 0.8247 0.0
C842 C 0.64308 0.70193 0.15416 0.0
C843 C 0.61859 0.6932 0.17012 0.0
C844 C 0.66282 0.67873 0.14399 0.0
C845 C 0.68027 0.59064 0.14369 0.0
H846 H 0.69571 0.60738 0.07554 0.0
C847 C 0.69184 0.49548 0.06781 0.0
C848 C 0.71536 0.50064 0.05017 0.0
C849 C 0.68694 0.51784 0.08625 0.0
C850 C 0.69202 0.6025 0.09463 0.0
H851 H 0.59658 0.65375 0.18908 0.0
H852 H 0.62964 0.6131 0.17042 0.0
H853 H 0.67515 0.64951 0.10108 0.0
H854 H 0.75487 0.53084 0.03967 0.0
H855 H 0.74544 0.57064 0.07125 0.0
H856 H 0.69517 0.54263 0.1363 0.0
C857 C 0.63458 0.6378 0.16622 0.0
C858 C 0.68041 0.62677 0.10943 0.0
C859 C 0.61543 0.66113 0.1769 0.0
C860 C 0.73555 0.52715 0.05237 0.0
C861 C 0.73043 0.54967 0.07056 0.0
C862 C 0.69133 0.56612 0.12868 0.0
C863 C 0.65779 0.64618 0.14891 0.0
C864 C 0.6739 0.62114 0.13412 0.0
C865 C 0.70556 0.54563 0.08727 0.0
C866 C 0.69692 0.57181 0.10397 0.0
H867 H 0.64625 0.7266 0.14889 0.0
H868 H 0.68115 0.68631 0.13146 0.0
H869 H 0.67616 0.58546 0.16267 0.0
H870 H 0.67635 0.47488 0.06673 0.0
H871 H 0.66757 0.51423 0.09892 0.0
loop_
_geom_bond_atom_site_label_1
_geom_bond_atom_site_label_2
_geom_bond_distance
_geom_bond_site_symmetry_2
_ccdc_geom_bond_type
Co0 O3 1.970 . S
Co0 N17 1.989 . S
Co0 O25 1.967 . S
Co0 O32 1.920 . S
Co1 O4 1.966 . S
Co1 N10 2.022 1_554 S
Co1 N18 1.993 . S
Co1 O26 1.941 . S
C2 O3 1.258 . S
C2 O4 1.263 . S
O3 Co0 1.970 . S
O3 C2 1.258 . S
O4 Co1 1.966 . S
O4 C2 1.263 . S
C5 O6 1.235 . S
C5 O32 1.289 . S
O6 C5 1.235 . S
C7 C9 1.400 . S
C7 N10 1.351 . S
C7 C12 1.501 . S
C8 C9 1.387 . S
C8 N11 1.341 . S
C9 C7 1.400 . S
C9 C8 1.387 . S
N10 Co1 2.022 1_556 S
N10 C7 1.351 . S
N10 N11 1.365 . S
N11 C8 1.341 . S
N11 N10 1.365 . S
N11 H31 0.862 . S
C12 C7 1.501 . S
C12 H13 0.961 1_556 S
C12 H14 0.961 . S
C12 H15 0.960 . S
H13 C12 0.961 1_554 S
H14 C12 0.961 . S
H15 C12 0.960 . S
C16 N17 1.342 . S
C16 C20 1.401 . S
C16 C21 1.499 . S
N17 Co0 1.989 . S
N17 C16 1.342 . S
N17 N18 1.388 . S
N18 Co1 1.993 . S
N18 N17 1.388 . S
N18 C19 1.346 . S
C19 N18 1.346 . S
C19 C20 1.396 . S
C19 C29 1.510 1_554 S
C20 C16 1.401 . S
C20 C19 1.396 . S
C21 C16 1.499 . S
C21 H22 0.959 . S
C21 H23 0.960 . S
C21 H24 0.961 . S
H22 C21 0.959 . S
H23 C21 0.960 . S
H24 C21 0.961 . S
O25 Co0 1.967 . S
O25 C33 1.258 . S
O26 Co1 1.941 . S
O26 C33 1.266 . S
H27 C29 0.959 . S
H28 C29 0.961 . S
C29 C19 1.510 1_556 S
C29 H27 0.959 . S
C29 H28 0.961 . S
C29 H30 0.960 . S
H30 C29 0.960 . S
H31 N11 0.862 . S
O32 Co0 1.920 . S
O32 C5 1.289 . S
C33 O25 1.258 . S
C33 O26 1.266 . S
Co34 O37 1.970 . S
Co34 N51 1.989 . S
Co34 O59 1.967 . S
Co34 O66 1.920 . S
Co35 O38 1.966 . S
Co35 N44 2.022 . S
Co35 N52 1.993 . S
Co35 O60 1.941 . S
C36 O37 1.258 . S
C36 O38 1.263 . S
O37 Co34 1.970 . S
O37 C36 1.258 . S
O38 Co35 1.966 . S
O38 C36 1.263 . S
C39 O40 1.235 . S
C39 O66 1.289 . S
O40 C39 1.235 . S
C41 C43 1.400 . S
C41 N44 1.351 . S
C41 C46 1.501 . S
C42 C43 1.387 . S
C42 N45 1.341 . S
C43 C41 1.400 . S
C43 C42 1.387 . S
N44 Co35 2.022 . S
N44 C41 1.351 . S
N44 N45 1.365 . S
N45 C42 1.341 . S
N45 N44 1.365 . S
N45 H65 0.862 . S
C46 C41 1.501 . S
C46 H47 0.961 . S
C46 H48 0.961 . S
C46 H49 0.960 . S
H47 C46 0.961 . S
H48 C46 0.961 . S
H49 C46 0.960 . S
C50 N51 1.342 . S
C50 C54 1.401 . S
C50 C55 1.499 . S
N51 Co34 1.989 . S
N51 C50 1.342 . S
N51 N52 1.388 . S
N52 Co35 1.993 . S
N52 N51 1.388 . S
N52 C53 1.346 . S
C53 N52 1.346 . S
C53 C54 1.396 . S
C53 C63 1.510 . S
C54 C50 1.401 . S
C54 C53 1.396 . S
C55 C50 1.499 . S
C55 H56 0.959 . S
C55 H57 0.960 . S
C55 H58 0.961 . S
H56 C55 0.959 . S
H57 C55 0.960 . S
H58 C55 0.961 . S
O59 Co34 1.967 . S
O59 C67 1.258 . S
O60 Co35 1.941 . S
O60 C67 1.266 . S
H61 C63 0.959 . S
H62 C63 0.961 . S
C63 C53 1.510 . S
C63 H61 0.959 . S
C63 H62 0.961 . S
C63 H64 0.960 . S
H64 C63 0.960 . S
H65 N45 0.862 . S
O66 Co34 1.920 . S
O66 C39 1.289 . S
C67 O59 1.258 . S
C67 O60 1.266 . S
Co68 O71 1.970 . S
Co68 N85 1.989 . S
Co68 O93 1.967 . S
Co68 O100 1.920 . S
Co69 O72 1.966 . S
Co69 N78 2.022 . S
Co69 N86 1.993 . S
Co69 O94 1.941 . S
C70 O71 1.258 . S
C70 O72 1.263 . S
O71 Co68 1.970 . S
O71 C70 1.258 . S
O72 Co69 1.966 . S
O72 C70 1.263 . S
C73 O74 1.235 . S
C73 O100 1.289 . S
O74 C73 1.235 . S
C75 C77 1.400 . S
C75 N78 1.351 . S
C75 C80 1.501 . S
C76 C77 1.387 . S
C76 N79 1.341 . S
C77 C75 1.400 . S
C77 C76 1.387 . S
N78 Co69 2.022 . S
N78 C75 1.351 . S
N78 N79 1.365 . S
N79 C76 1.341 . S
N79 N78 1.365 . S
N79 H99 0.862 . S
C80 C75 1.501 . S
C80 H81 0.961 . S
C80 H82 0.961 . S
C80 H83 0.960 . S
H81 C80 0.961 . S
H82 C80 0.961 . S
H83 C80 0.960 . S
C84 N85 1.342 . S
C84 C88 1.401 . S
C84 C89 1.499 . S
N85 Co68 1.989 . S
N85 C84 1.342 . S
N85 N86 1.388 . S
N86 Co69 1.993 . S
N86 N85 1.388 . S
N86 C87 1.346 . S
C87 N86 1.346 . S
C87 C88 1.396 . S
C87 C97 1.510 . S
C88 C84 1.401 . S
C88 C87 1.396 . S
C89 C84 1.499 . S
C89 H90 0.959 . S
C89 H91 0.960 . S
C89 H92 0.961 . S
H90 C89 0.959 . S
H91 C89 0.960 . S
H92 C89 0.961 . S
O93 Co68 1.967 . S
O93 C101 1.258 . S
O94 Co69 1.941 . S
O94 C101 1.266 . S
H95 C97 0.959 . S
H96 C97 0.961 . S
C97 C87 1.510 . S
C97 H95 0.959 . S
C97 H96 0.961 . S
C97 H98 0.960 . S
H98 C97 0.960 . S
H99 N79 0.862 . S
O100 Co68 1.920 . S
O100 C73 1.289 . S
C101 O93 1.258 . S
C101 O94 1.266 . S
Co102 O105 1.970 . S
Co102 N119 1.989 . S
Co102 O127 1.967 . S
Co102 O134 1.920 . S
Co103 O106 1.966 . S
Co103 N112 2.022 . S
Co103 N120 1.993 . S
Co103 O128 1.941 . S
C104 O105 1.258 . S
C104 O106 1.263 . S
O105 Co102 1.970 . S
O105 C104 1.258 . S
O106 Co103 1.966 . S
O106 C104 1.263 . S
C107 O108 1.235 . S
C107 O134 1.289 . S
O108 C107 1.235 . S
C109 C111 1.400 . S
C109 N112 1.351 . S
C109 C114 1.501 . S
C110 C111 1.387 . S
C110 N113 1.341 . S
C111 C109 1.400 . S
C111 C110 1.387 . S
N112 Co103 2.022 . S
N112 C109 1.351 . S
N112 N113 1.365 . S
N113 C110 1.341 . S
N113 N112 1.365 . S
N113 H133 0.862 . S
C114 C109 1.501 . S
C114 H115 0.961 . S
C114 H116 0.961 . S
C114 H117 0.960 . S
H115 C114 0.961 . S
H116 C114 0.961 . S
H117 C114 0.960 . S
C118 N119 1.342 . S
C118 C122 1.401 . S
C118 C123 1.499 . S
N119 Co102 1.989 . S
N119 C118 1.342 . S
N119 N120 1.388 . S
N120 Co103 1.993 . S
N120 N119 1.388 . S
N120 C121 1.346 . S
C121 N120 1.346 . S
C121 C122 1.396 . S
C121 C131 1.510 . S
C122 C118 1.401 . S
C122 C121 1.396 . S
C123 C118 1.499 . S
C123 H124 0.959 . S
C123 H125 0.960 . S
C123 H126 0.961 . S
H124 C123 0.959 . S
H125 C123 0.960 . S
H126 C123 0.961 . S
O127 Co102 1.967 . S
O127 C135 1.258 . S
O128 Co103 1.941 . S
O128 C135 1.266 . S
H129 C131 0.959 . S
H130 C131 0.961 . S
C131 C121 1.510 . S
C131 H129 0.959 . S
C131 H130 0.961 . S
C131 H132 0.960 . S
H132 C131 0.960 . S
H133 N113 0.862 . S
O134 Co102 1.920 . S
O134 C107 1.289 . S
C135 O127 1.258 . S
C135 O128 1.266 . S
Co136 O139 1.970 . S
Co136 N153 1.989 . S
Co136 O161 1.967 . S
Co136 O168 1.920 . S
Co137 O140 1.966 . S
Co137 N146 2.022 . S
Co137 N154 1.993 . S
Co137 O162 1.941 . S
C138 O139 1.258 . S
C138 O140 1.263 . S
O139 Co136 1.970 . S
O139 C138 1.258 . S
O140 Co137 1.966 . S
O140 C138 1.263 . S
C141 O142 1.235 . S
C141 O168 1.289 . S
O142 C141 1.235 . S
C143 C145 1.400 . S
C143 N146 1.351 . S
C143 C148 1.501 . S
C144 C145 1.387 . S
C144 N147 1.341 . S
C145 C143 1.400 . S
C145 C144 1.387 . S
N146 Co137 2.022 . S
N146 C143 1.351 . S
N146 N147 1.365 . S
N147 C144 1.341 . S
N147 N146 1.365 . S
N147 H167 0.862 . S
C148 C143 1.501 . S
C148 H149 0.961 . S
C148 H150 0.961 . S
C148 H151 0.960 . S
H149 C148 0.961 . S
H150 C148 0.961 . S
H151 C148 0.960 . S
C152 N153 1.342 . S
C152 C156 1.401 . S
C152 C157 1.499 . S
N153 Co136 1.989 . S
N153 C152 1.342 . S
N153 N154 1.388 . S
N154 Co137 1.993 . S
N154 N153 1.388 . S
N154 C155 1.346 . S
C155 N154 1.346 . S
C155 C156 1.396 . S
C155 C165 1.510 . S
C156 C152 1.401 . S
C156 C155 1.396 . S
C157 C152 1.499 . S
C157 H158 0.959 . S
C157 H159 0.960 . S
C157 H160 0.961 . S
H158 C157 0.959 . S
H159 C157 0.960 . S
H160 C157 0.961 . S
O161 Co136 1.967 . S
O161 C169 1.258 . S
O162 Co137 1.941 . S
O162 C169 1.266 . S
H163 C165 0.959 . S
H164 C165 0.961 . S
C165 C155 1.510 . S
C165 H163 0.959 . S
C165 H164 0.961 . S
C165 H166 0.960 . S
H166 C165 0.960 . S
H167 N147 0.862 . S
O168 Co136 1.920 . S
O168 C141 1.289 . S
C169 O161 1.258 . S
C169 O162 1.266 . S
Co170 O173 1.970 . S
Co170 N187 1.989 . S
Co170 O195 1.967 . S
Co170 O202 1.920 . S
Co171 O174 1.966 . S
Co171 N180 2.022 . S
Co171 N188 1.993 . S
Co171 O196 1.941 . S
C172 O173 1.258 . S
C172 O174 1.263 . S
O173 Co170 1.970 . S
O173 C172 1.258 . S
O174 Co171 1.966 . S
O174 C172 1.263 . S
C175 O176 1.235 . S
C175 O202 1.289 . S
O176 C175 1.235 . S
C177 C179 1.400 . S
C177 N180 1.351 . S
C177 C182 1.501 . S
C178 C179 1.387 . S
C178 N181 1.341 . S
C179 C177 1.400 . S
C179 C178 1.387 . S
N180 Co171 2.022 . S
N180 C177 1.351 . S
N180 N181 1.365 . S
N181 C178 1.341 . S
N181 N180 1.365 . S
N181 H201 0.862 . S
C182 C177 1.501 . S
C182 H183 0.961 . S
C182 H184 0.961 . S
C182 H185 0.960 . S
H183 C182 0.961 . S
H184 C182 0.961 . S
H185 C182 0.960 . S
C186 N187 1.342 . S
C186 C190 1.401 . S
C186 C191 1.499 . S
N187 Co170 1.989 . S
N187 C186 1.342 . S
N187 N188 1.388 . S
N188 Co171 1.993 . S
N188 N187 1.388 . S
N188 C189 1.346 . S
C189 N188 1.346 . S
C189 C190 1.396 . S
C189 C199 1.510 . S
C190 C186 1.401 . S
C190 C189 1.396 . S
C191 C186 1.499 . S
C191 H192 0.959 . S
C191 H193 0.960 . S
C191 H194 0.961 . S
H192 C191 0.959 . S
H193 C191 0.960 . S
H194 C191 0.961 . S
O195 Co170 1.967 . S
O195 C203 1.258 . S
O196 Co171 1.941 . S
O196 C203 1.266 . S
H197 C199 0.959 . S
H198 C199 0.961 . S
C199 C189 1.510 . S
C199 H197 0.959 . S
C199 H198 0.961 . S
C199 H200 0.960 . S
H200 C199 0.960 . S
H201 N181 0.862 . S
O202 Co170 1.920 . S
O202 C175 1.289 . S
C203 O195 1.258 . S
C203 O196 1.266 . S
Co204 O207 1.970 . S
Co204 N221 1.989 . S
Co204 O229 1.967 . S
Co204 O236 1.920 . S
Co205 O208 1.966 . S
Co205 N214 2.022 1_556 S
Co205 N222 1.993 . S
Co205 O230 1.941 . S
C206 O207 1.258 . S
C206 O208 1.263 . S
O207 Co204 1.970 . S
O207 C206 1.258 . S
O208 Co205 1.966 . S
O208 C206 1.263 . S
C209 O210 1.235 . S
C209 O236 1.289 . S
O210 C209 1.235 . S
C211 C213 1.400 . S
C211 N214 1.351 . S
C211 C216 1.501 . S
C212 C213 1.387 . S
C212 N215 1.341 . S
C213 C211 1.400 . S
C213 C212 1.387 . S
N214 Co205 2.022 1_554 S
N214 C211 1.351 . S
N214 N215 1.365 . S
N215 C212 1.341 . S
N215 N214 1.365 . S
N215 H235 0.862 . S
C216 C211 1.501 . S
C216 H217 0.961 1_554 S
C216 H218 0.961 . S
C216 H219 0.960 . S
H217 C216 0.961 1_556 S
H218 C216 0.961 . S
H219 C216 0.960 . S
C220 N221 1.342 . S
C220 C224 1.401 . S
C220 C225 1.499 . S
N221 Co204 1.989 . S
N221 C220 1.342 . S
N221 N222 1.388 . S
N222 Co205 1.993 . S
N222 N221 1.388 . S
N222 C223 1.346 . S
C223 N222 1.346 . S
C223 C224 1.396 . S
C223 C233 1.510 1_556 S
C224 C220 1.401 . S
C224 C223 1.396 . S
C225 C220 1.499 . S
C225 H226 0.959 . S
C225 H227 0.960 . S
C225 H228 0.961 . S
H226 C225 0.959 . S
H227 C225 0.960 . S
H228 C225 0.961 . S
O229 Co204 1.967 . S
O229 C237 1.258 . S
O230 Co205 1.941 . S
O230 C237 1.266 . S
H231 C233 0.959 . S
H232 C233 0.961 . S
C233 C223 1.510 1_554 S
C233 H231 0.959 . S
C233 H232 0.961 . S
C233 H234 0.960 . S
H234 C233 0.960 . S
H235 N215 0.862 . S
O236 Co204 1.920 . S
O236 C209 1.289 . S
C237 O229 1.258 . S
C237 O230 1.266 . S
Co238 O241 1.970 . S
Co238 N255 1.989 . S
Co238 O263 1.967 . S
Co238 O270 1.920 . S
Co239 O242 1.966 . S
Co239 N248 2.022 . S
Co239 N256 1.993 . S
Co239 O264 1.941 . S
C240 O241 1.258 . S
C240 O242 1.263 . S
O241 Co238 1.970 . S
O241 C240 1.258 . S
O242 Co239 1.966 . S
O242 C240 1.263 . S
C243 O244 1.235 . S
C243 O270 1.289 . S
O244 C243 1.235 . S
C245 C247 1.400 . S
C245 N248 1.351 . S
C245 C250 1.501 . S
C246 C247 1.387 . S
C246 N249 1.341 . S
C247 C245 1.400 . S
C247 C246 1.387 . S
N248 Co239 2.022 . S
N248 C245 1.351 . S
N248 N249 1.365 . S
N249 C246 1.341 . S
N249 N248 1.365 . S
N249 H269 0.862 . S
C250 C245 1.501 . S
C250 H251 0.961 . S
C250 H252 0.961 . S
C250 H253 0.960 . S
H251 C250 0.961 . S
H252 C250 0.961 . S
H253 C250 0.960 . S
C254 N255 1.342 . S
C254 C258 1.401 . S
C254 C259 1.499 . S
N255 Co238 1.989 . S
N255 C254 1.342 . S
N255 N256 1.388 . S
N256 Co239 1.993 . S
N256 N255 1.388 . S
N256 C257 1.346 . S
C257 N256 1.346 . S
C257 C258 1.396 . S
C257 C267 1.510 . S
C258 C254 1.401 . S
C258 C257 1.396 . S
C259 C254 1.499 . S
C259 H260 0.959 . S
C259 H261 0.960 . S
C259 H262 0.961 . S
H260 C259 0.959 . S
H261 C259 0.960 . S
H262 C259 0.961 . S
O263 Co238 1.967 . S
O263 C271 1.258 . S
O264 Co239 1.941 . S
O264 C271 1.266 . S
H265 C267 0.959 . S
H266 C267 0.961 . S
C267 C257 1.510 . S
C267 H265 0.959 . S
C267 H266 0.961 . S
C267 H268 0.960 . S
H268 C267 0.960 . S
H269 N249 0.862 . S
O270 Co238 1.920 . S
O270 C243 1.289 . S
C271 O263 1.258 . S
C271 O264 1.266 . S
C272 C273 1.349 . S
C272 C274 1.327 . S
C272 H297 0.950 . S
C273 C272 1.349 . S
C273 C289 1.349 . S
C274 C272 1.327 . S
C274 C293 1.429 . S
C274 H298 0.950 . S
C275 C292 1.574 . S
C275 C294 1.368 . S
C275 H299 0.949 . S
H276 C280 0.949 . S
C277 C278 1.349 . S
C277 C279 1.327 . S
C277 H300 0.950 . S
C278 C277 1.349 . S
C278 C290 1.349 . S
C279 C277 1.327 . S
C279 C295 1.429 . S
C279 H301 0.950 . S
C280 H276 0.949 . S
C280 C288 1.574 . S
C280 C296 1.368 . S
H281 C289 0.950 . S
H282 C287 0.950 . S
H283 C288 0.949 . S
H284 C290 0.950 . S
H285 C291 0.950 . S
H286 C292 0.949 . S
C287 H282 0.950 . S
C287 C289 1.327 . S
C287 C293 1.429 . S
C288 C280 1.574 . S
C288 H283 0.949 . S
C288 C294 1.368 . S
C289 C273 1.349 . S
C289 H281 0.950 . S
C289 C287 1.327 . S
C290 C278 1.349 . S
C290 H284 0.950 . S
C290 C291 1.327 . S
C291 H285 0.950 . S
C291 C290 1.327 . S
C291 C295 1.429 . S
C292 C275 1.574 . S
C292 H286 0.949 . S
C292 C296 1.368 . S
C293 C274 1.429 . S
C293 C287 1.429 . S
C293 C294 1.523 . S
C294 C275 1.368 . S
C294 C288 1.368 . S
C294 C293 1.523 . S
C295 C279 1.429 . S
C295 C291 1.429 . S
C295 C296 1.523 . S
C296 C280 1.368 . S
C296 C292 1.368 . S
C296 C295 1.523 . S
H297 C272 0.950 . S
H298 C274 0.950 . S
H299 C275 0.949 . S
H300 C277 0.950 . S
H301 C279 0.950 . S
C302 C303 1.349 . S
C302 C304 1.327 . S
C302 H327 0.950 . S
C303 C302 1.349 . S
C303 C319 1.349 . S
C304 C302 1.327 . S
C304 C323 1.429 . S
C304 H328 0.950 . S
C305 C322 1.574 . S
C305 C324 1.368 . S
C305 H329 0.949 . S
H306 C310 0.949 . S
C307 C308 1.349 . S
C307 C309 1.327 . S
C307 H330 0.950 . S
C308 C307 1.349 . S
C308 C320 1.349 . S
C309 C307 1.327 . S
C309 C325 1.429 . S
C309 H331 0.950 . S
C310 H306 0.949 . S
C310 C318 1.574 . S
C310 C326 1.368 . S
H311 C319 0.950 . S
H312 C317 0.950 . S
H313 C318 0.949 . S
H314 C320 0.950 . S
H315 C321 0.950 . S
H316 C322 0.949 . S
C317 H312 0.950 . S
C317 C319 1.327 . S
C317 C323 1.429 . S
C318 C310 1.574 . S
C318 H313 0.949 . S
C318 C324 1.368 . S
C319 C303 1.349 . S
C319 H311 0.950 . S
C319 C317 1.327 . S
C320 C308 1.349 . S
C320 H314 0.950 . S
C320 C321 1.327 . S
C321 H315 0.950 . S
C321 C320 1.327 . S
C321 C325 1.429 . S
C322 C305 1.574 . S
C322 H316 0.949 . S
C322 C326 1.368 . S
C323 C304 1.429 . S
C323 C317 1.429 . S
C323 C324 1.523 . S
C324 C305 1.368 . S
C324 C318 1.368 . S
C324 C323 1.523 . S
C325 C309 1.429 . S
C325 C321 1.429 . S
C325 C326 1.523 . S
C326 C310 1.368 . S
C326 C322 1.368 . S
C326 C325 1.523 . S
H327 C302 0.950 . S
H328 C304 0.950 . S
H329 C305 0.949 . S
H330 C307 0.950 . S
H331 C309 0.950 . S
C332 C333 1.349 . S
C332 C334 1.327 . S
C332 H357 0.950 . S
C333 C332 1.349 . S
C333 C349 1.349 . S
C334 C332 1.327 . S
C334 C353 1.429 . S
C334 H358 0.950 . S
C335 C352 1.574 . S
C335 C354 1.368 . S
C335 H359 0.949 . S
H336 C340 0.949 . S
C337 C338 1.349 . S
C337 C339 1.327 . S
C337 H360 0.950 . S
C338 C337 1.349 . S
C338 C350 1.349 . S
C339 C337 1.327 . S
C339 C355 1.429 . S
C339 H361 0.950 . S
C340 H336 0.949 . S
C340 C348 1.574 . S
C340 C356 1.368 . S
H341 C349 0.950 . S
H342 C347 0.950 . S
H343 C348 0.949 . S
H344 C350 0.950 . S
H345 C351 0.950 . S
H346 C352 0.949 . S
C347 H342 0.950 . S
C347 C349 1.327 . S
C347 C353 1.429 . S
C348 C340 1.574 . S
C348 H343 0.949 . S
C348 C354 1.368 . S
C349 C333 1.349 . S
C349 H341 0.950 . S
C349 C347 1.327 . S
C350 C338 1.349 . S
C350 H344 0.950 . S
C350 C351 1.327 . S
C351 H345 0.950 . S
C351 C350 1.327 . S
C351 C355 1.429 . S
C352 C335 1.574 . S
C352 H346 0.949 . S
C352 C356 1.368 . S
C353 C334 1.429 . S
C353 C347 1.429 . S
C353 C354 1.523 . S
C354 C335 1.368 . S
C354 C348 1.368 . S
C354 C353 1.523 . S
C355 C339 1.429 . S
C355 C351 1.429 . S
C355 C356 1.523 . S
C356 C340 1.368 . S
C356 C352 1.368 . S
C356 C355 1.523 . S
H357 C332 0.950 . S
H358 C334 0.950 . S
H359 C335 0.949 . S
H360 C337 0.950 . S
H361 C339 0.950 . S
C362 C363 1.349 . S
C362 C364 1.327 . S
C362 H387 0.950 . S
C363 C362 1.349 . S
C363 C379 1.349 . S
C364 C362 1.327 . S
C364 C383 1.429 . S
C364 H388 0.950 . S
C365 C382 1.574 1_556 S
C365 C384 1.368 . S
C365 H389 0.949 . S
H366 C370 0.949 . S
C367 C368 1.349 . S
C367 C369 1.327 . S
C367 H390 0.950 . S
C368 C367 1.349 . S
C368 C380 1.349 . S
C369 C367 1.327 . S
C369 C385 1.429 . S
C369 H391 0.950 . S
C370 H366 0.949 . S
C370 C378 1.574 1_554 S
C370 C386 1.368 . S
H371 C379 0.950 . S
H372 C377 0.950 . S
H373 C378 0.949 . S
H374 C380 0.950 . S
H375 C381 0.950 . S
H376 C382 0.949 . S
C377 H372 0.950 . S
C377 C379 1.327 . S
C377 C383 1.429 . S
C378 C370 1.574 1_556 S
C378 H373 0.949 . S
C378 C384 1.368 . S
C379 C363 1.349 . S
C379 H371 0.950 . S
C379 C377 1.327 . S
C380 C368 1.349 . S
C380 H374 0.950 . S
C380 C381 1.327 . S
C381 H375 0.950 . S
C381 C380 1.327 . S
C381 C385 1.429 . S
C382 C365 1.574 1_554 S
C382 H376 0.949 . S
C382 C386 1.368 . S
C383 C364 1.429 . S
C383 C377 1.429 . S
C383 C384 1.523 . S
C384 C365 1.368 . S
C384 C378 1.368 . S
C384 C383 1.523 . S
C385 C369 1.429 . S
C385 C381 1.429 . S
C385 C386 1.523 . S
C386 C370 1.368 . S
C386 C382 1.368 . S
C386 C385 1.523 . S
H387 C362 0.950 . S
H388 C364 0.950 . S
H389 C365 0.949 . S
H390 C367 0.950 . S
H391 C369 0.950 . S
C392 C393 1.349 . S
C392 C394 1.327 . S
C392 H417 0.950 . S
C393 C392 1.349 . S
C393 C409 1.349 . S
C394 C392 1.327 . S
C394 C413 1.429 . S
C394 H418 0.950 . S
C395 C412 1.574 1_455 S
C395 C414 1.368 1_556 S
C395 H419 0.949 . S
H396 C400 0.949 . S
C397 C398 1.349 . S
C397 C399 1.327 . S
C397 H420 0.950 . S
C398 C397 1.349 . S
C398 C410 1.349 . S
C399 C397 1.327 . S
C399 C415 1.429 . S
C399 H421 0.950 . S
C400 H396 0.949 . S
C400 C408 1.574 1_655 S
C400 C416 1.368 1_554 S
H401 C409 0.950 . S
H402 C407 0.950 1_556 S
H403 C408 0.949 . S
H404 C410 0.950 . S
H405 C411 0.950 1_554 S
H406 C412 0.949 . S
C407 H402 0.950 1_554 S
C407 C409 1.327 . S
C407 C413 1.429 . S
C408 C400 1.574 1_455 S
C408 H403 0.949 . S
C408 C414 1.368 . S
C409 C393 1.349 . S
C409 H401 0.950 . S
C409 C407 1.327 . S
C410 C398 1.349 . S
C410 H404 0.950 . S
C410 C411 1.327 . S
C411 H405 0.950 1_556 S
C411 C410 1.327 . S
C411 C415 1.429 . S
C412 C395 1.574 1_655 S
C412 H406 0.949 . S
C412 C416 1.368 . S
C413 C394 1.429 . S
C413 C407 1.429 . S
C413 C414 1.523 . S
C414 C395 1.368 1_554 S
C414 C408 1.368 . S
C414 C413 1.523 . S
C415 C399 1.429 . S
C415 C411 1.429 . S
C415 C416 1.523 . S
C416 C400 1.368 1_556 S
C416 C412 1.368 . S
C416 C415 1.523 . S
H417 C392 0.950 . S
H418 C394 0.950 . S
H419 C395 0.949 . S
H420 C397 0.950 . S
H421 C399 0.950 . S
C422 C423 1.349 . S
C422 C424 1.327 . S
C422 H447 0.950 . S
C423 C422 1.349 . S
C423 C439 1.349 . S
C424 C422 1.327 . S
C424 C443 1.429 . S
C424 H448 0.950 . S
C425 C442 1.574 1_545 S
C425 C444 1.368 . S
C425 H449 0.949 . S
H426 C430 0.949 . S
C427 C428 1.349 . S
C427 C429 1.327 . S
C427 H450 0.950 . S
C428 C427 1.349 . S
C428 C440 1.349 . S
C429 C427 1.327 . S
C429 C445 1.429 . S
C429 H451 0.950 . S
C430 H426 0.949 . S
C430 C438 1.574 1_565 S
C430 C446 1.368 . S
H431 C439 0.950 . S
H432 C437 0.950 . S
H433 C438 0.949 . S
H434 C440 0.950 . S
H435 C441 0.950 . S
H436 C442 0.949 . S
C437 H432 0.950 . S
C437 C439 1.327 . S
C437 C443 1.429 . S
C438 C430 1.574 1_545 S
C438 H433 0.949 . S
C438 C444 1.368 . S
C439 C423 1.349 . S
C439 H431 0.950 . S
C439 C437 1.327 . S
C440 C428 1.349 . S
C440 H434 0.950 . S
C440 C441 1.327 . S
C441 H435 0.950 . S
C441 C440 1.327 . S
C441 C445 1.429 . S
C442 C425 1.574 1_565 S
C442 H436 0.949 . S
C442 C446 1.368 . S
C443 C424 1.429 . S
C443 C437 1.429 . S
C443 C444 1.523 . S
C444 C425 1.368 . S
C444 C438 1.368 . S
C444 C443 1.523 . S
C445 C429 1.429 . S
C445 C441 1.429 . S
C445 C446 1.523 . S
C446 C430 1.368 . S
C446 C442 1.368 . S
C446 C445 1.523 . S
H447 C422 0.950 . S
H448 C424 0.950 . S
H449 C425 0.949 . S
H450 C427 0.950 . S
H451 C429 0.950 . S
C452 C453 1.349 . S
C452 C454 1.327 . S
C452 H477 0.950 . S
C453 C452 1.349 . S
C453 C469 1.349 . S
C454 C452 1.327 . S
C454 C473 1.429 . S
C454 H478 0.950 . S
C455 C472 1.574 1_455 S
C455 C474 1.368 . S
C455 H479 0.949 . S
H456 C460 0.949 . S
C457 C458 1.349 . S
C457 C459 1.327 . S
C457 H480 0.950 . S
C458 C457 1.349 . S
C458 C470 1.349 . S
C459 C457 1.327 . S
C459 C475 1.429 . S
C459 H481 0.950 . S
C460 H456 0.949 . S
C460 C468 1.574 1_655 S
C460 C476 1.368 . S
H461 C469 0.950 . S
H462 C467 0.950 . S
H463 C468 0.949 . S
H464 C470 0.950 . S
H465 C471 0.950 . S
H466 C472 0.949 . S
C467 H462 0.950 . S
C467 C469 1.327 . S
C467 C473 1.429 . S
C468 C460 1.574 1_455 S
C468 H463 0.949 . S
C468 C474 1.368 . S
C469 C453 1.349 . S
C469 H461 0.950 . S
C469 C467 1.327 . S
C470 C458 1.349 . S
C470 H464 0.950 . S
C470 C471 1.327 . S
C471 H465 0.950 . S
C471 C470 1.327 . S
C471 C475 1.429 . S
C472 C455 1.574 1_655 S
C472 H466 0.949 . S
C472 C476 1.368 . S
C473 C454 1.429 . S
C473 C467 1.429 . S
C473 C474 1.523 . S
C474 C455 1.368 . S
C474 C468 1.368 . S
C474 C473 1.523 . S
C475 C459 1.429 . S
C475 C471 1.429 . S
C475 C476 1.523 . S
C476 C460 1.368 . S
C476 C472 1.368 . S
C476 C475 1.523 . S
H477 C452 0.950 . S
H478 C454 0.950 . S
H479 C455 0.949 . S
H480 C457 0.950 . S
H481 C459 0.950 . S
C482 C483 1.349 . S
C482 C484 1.327 . S
C482 H507 0.950 . S
C483 C482 1.349 . S
C483 C499 1.349 . S
C484 C482 1.327 . S
C484 C503 1.429 . S
C484 H508 0.950 . S
C485 C502 1.574 1_545 S
C485 C504 1.368 . S
C485 H509 0.949 . S
H486 C490 0.949 . S
C487 C488 1.349 . S
C487 C489 1.327 . S
C487 H510 0.950 . S
C488 C487 1.349 . S
C488 C500 1.349 . S
C489 C487 1.327 . S
C489 C505 1.429 . S
C489 H511 0.950 . S
C490 H486 0.949 . S
C490 C498 1.574 1_565 S
C490 C506 1.368 . S
H491 C499 0.950 . S
H492 C497 0.950 . S
H493 C498 0.949 . S
H494 C500 0.950 . S
H495 C501 0.950 . S
H496 C502 0.949 . S
C497 H492 0.950 . S
C497 C499 1.327 . S
C497 C503 1.429 . S
C498 C490 1.574 1_545 S
C498 H493 0.949 . S
C498 C504 1.368 . S
C499 C483 1.349 . S
C499 H491 0.950 . S
C499 C497 1.327 . S
C500 C488 1.349 . S
C500 H494 0.950 . S
C500 C501 1.327 . S
C501 H495 0.950 . S
C501 C500 1.327 . S
C501 C505 1.429 . S
C502 C485 1.574 1_565 S
C502 H496 0.949 . S
C502 C506 1.368 . S
C503 C484 1.429 . S
C503 C497 1.429 . S
C503 C504 1.523 . S
C504 C485 1.368 . S
C504 C498 1.368 . S
C504 C503 1.523 . S
C505 C489 1.429 . S
C505 C501 1.429 . S
C505 C506 1.523 . S
C506 C490 1.368 . S
C506 C502 1.368 . S
C506 C505 1.523 . S
H507 C482 0.950 . S
H508 C484 0.950 . S
H509 C485 0.949 . S
H510 C487 0.950 . S
H511 C489 0.950 . S
C512 C513 1.349 . S
C512 C514 1.327 . S
C512 H537 0.950 . S
C513 C512 1.349 . S
C513 C529 1.349 . S
C514 C512 1.327 . S
C514 C533 1.429 . S
C514 H538 0.950 . S
C515 C532 1.574 . S
C515 C534 1.368 . S
C515 H539 0.949 . S
H516 C520 0.949 . S
C517 C518 1.349 . S
C517 C519 1.327 . S
C517 H540 0.950 . S
C518 C517 1.349 . S
C518 C530 1.349 . S
C519 C517 1.327 . S
C519 C535 1.429 . S
C519 H541 0.950 . S
C520 H516 0.949 . S
C520 C528 1.574 . S
C520 C536 1.368 . S
H521 C529 0.950 . S
H522 C527 0.950 . S
H523 C528 0.949 . S
H524 C530 0.950 . S
H525 C531 0.950 . S
H526 C532 0.949 . S
C527 H522 0.950 . S
C527 C529 1.327 . S
C527 C533 1.429 . S
C528 C520 1.574 . S
C528 H523 0.949 . S
C528 C534 1.368 . S
C529 C513 1.349 . S
C529 H521 0.950 . S
C529 C527 1.327 . S
C530 C518 1.349 . S
C530 H524 0.950 . S
C530 C531 1.327 . S
C531 H525 0.950 . S
C531 C530 1.327 . S
C531 C535 1.429 . S
C532 C515 1.574 . S
C532 H526 0.949 . S
C532 C536 1.368 . S
C533 C514 1.429 . S
C533 C527 1.429 . S
C533 C534 1.523 . S
C534 C515 1.368 . S
C534 C528 1.368 . S
C534 C533 1.523 . S
C535 C519 1.429 . S
C535 C531 1.429 . S
C535 C536 1.523 . S
C536 C520 1.368 . S
C536 C532 1.368 . S
C536 C535 1.523 . S
H537 C512 0.950 . S
H538 C514 0.950 . S
H539 C515 0.949 . S
H540 C517 0.950 . S
H541 C519 0.950 . S
C542 C543 1.349 . S
C542 C544 1.327 . S
C542 H567 0.950 . S
C543 C542 1.349 . S
C543 C559 1.349 . S
C544 C542 1.327 . S
C544 C563 1.429 . S
C544 H568 0.950 . S
C545 C562 1.574 . S
C545 C564 1.368 . S
C545 H569 0.949 . S
H546 C550 0.949 . S
C547 C548 1.349 . S
C547 C549 1.327 . S
C547 H570 0.950 . S
C548 C547 1.349 . S
C548 C560 1.349 . S
C549 C547 1.327 . S
C549 C565 1.429 . S
C549 H571 0.950 . S
C550 H546 0.949 . S
C550 C558 1.574 . S
C550 C566 1.368 . S
H551 C559 0.950 . S
H552 C557 0.950 . S
H553 C558 0.949 . S
H554 C560 0.950 . S
H555 C561 0.950 . S
H556 C562 0.949 . S
C557 H552 0.950 . S
C557 C559 1.327 . S
C557 C563 1.429 . S
C558 C550 1.574 . S
C558 H553 0.949 . S
C558 C564 1.368 . S
C559 C543 1.349 . S
C559 H551 0.950 . S
C559 C557 1.327 . S
C560 C548 1.349 . S
C560 H554 0.950 . S
C560 C561 1.327 . S
C561 H555 0.950 . S
C561 C560 1.327 . S
C561 C565 1.429 . S
C562 C545 1.574 . S
C562 H556 0.949 . S
C562 C566 1.368 . S
C563 C544 1.429 . S
C563 C557 1.429 . S
C563 C564 1.523 . S
C564 C545 1.368 . S
C564 C558 1.368 . S
C564 C563 1.523 . S
C565 C549 1.429 . S
C565 C561 1.429 . S
C565 C566 1.523 . S
C566 C550 1.368 . S
C566 C562 1.368 . S
C566 C565 1.523 . S
H567 C542 0.950 . S
H568 C544 0.950 . S
H569 C545 0.949 . S
H570 C547 0.950 . S
H571 C549 0.950 . S
C572 C573 1.349 . S
C572 C574 1.327 . S
C572 H597 0.950 . S
C573 C572 1.349 . S
C573 C589 1.349 . S
C574 C572 1.327 . S
C574 C593 1.429 . S
C574 H598 0.950 . S
C575 C592 1.574 . S
C575 C594 1.368 . S
C575 H599 0.949 . S
H576 C580 0.949 . S
C577 C578 1.349 . S
C577 C579 1.327 . S
C577 H600 0.950 . S
C578 C577 1.349 . S
C578 C590 1.349 . S
C579 C577 1.327 . S
C579 C595 1.429 . S
C579 H601 0.950 . S
C580 H576 0.949 . S
C580 C588 1.574 . S
C580 C596 1.368 . S
H581 C589 0.950 . S
H582 C587 0.950 . S
H583 C588 0.949 . S
H584 C590 0.950 . S
H585 C591 0.950 . S
H586 C592 0.949 . S
C587 H582 0.950 . S
C587 C589 1.327 . S
C587 C593 1.429 . S
C588 C580 1.574 . S
C588 H583 0.949 . S
C588 C594 1.368 . S
C589 C573 1.349 . S
C589 H581 0.950 . S
C589 C587 1.327 . S
C590 C578 1.349 . S
C590 H584 0.950 . S
C590 C591 1.327 . S
C591 H585 0.950 . S
C591 C590 1.327 . S
C591 C595 1.429 . S
C592 C575 1.574 . S
C592 H586 0.949 . S
C592 C596 1.368 . S
C593 C574 1.429 . S
C593 C587 1.429 . S
C593 C594 1.523 . S
C594 C575 1.368 . S
C594 C588 1.368 . S
C594 C593 1.523 . S
C595 C579 1.429 . S
C595 C591 1.429 . S
C595 C596 1.523 . S
C596 C580 1.368 . S
C596 C592 1.368 . S
C596 C595 1.523 . S
H597 C572 0.950 . S
H598 C574 0.950 . S
H599 C575 0.949 . S
H600 C577 0.950 . S
H601 C579 0.950 . S
C602 C603 1.349 . S
C602 C604 1.327 . S
C602 H627 0.950 . S
C603 C602 1.349 . S
C603 C619 1.349 . S
C604 C602 1.327 . S
C604 C623 1.429 . S
C604 H628 0.950 . S
C605 C622 1.574 . S
C605 C624 1.368 . S
C605 H629 0.949 . S
H606 C610 0.949 . S
C607 C608 1.349 . S
C607 C609 1.327 . S
C607 H630 0.950 . S
C608 C607 1.349 . S
C608 C620 1.349 . S
C609 C607 1.327 . S
C609 C625 1.429 . S
C609 H631 0.950 . S
C610 H606 0.949 . S
C610 C618 1.574 . S
C610 C626 1.368 . S
H611 C619 0.950 . S
H612 C617 0.950 . S
H613 C618 0.949 . S
H614 C620 0.950 . S
H615 C621 0.950 . S
H616 C622 0.949 . S
C617 H612 0.950 . S
C617 C619 1.327 . S
C617 C623 1.429 . S
C618 C610 1.574 . S
C618 H613 0.949 . S
C618 C624 1.368 . S
C619 C603 1.349 . S
C619 H611 0.950 . S
C619 C617 1.327 . S
C620 C608 1.349 . S
C620 H614 0.950 . S
C620 C621 1.327 . S
C621 H615 0.950 . S
C621 C620 1.327 . S
C621 C625 1.429 . S
C622 C605 1.574 . S
C622 H616 0.949 . S
C622 C626 1.368 . S
C623 C604 1.429 . S
C623 C617 1.429 . S
C623 C624 1.523 . S
C624 C605 1.368 . S
C624 C618 1.368 . S
C624 C623 1.523 . S
C625 C609 1.429 . S
C625 C621 1.429 . S
C625 C626 1.523 . S
C626 C610 1.368 . S
C626 C622 1.368 . S
C626 C625 1.523 . S
H627 C602 0.950 . S
H628 C604 0.950 . S
H629 C605 0.949 . S
H630 C607 0.950 . S
H631 C609 0.950 . S
C632 C633 1.349 . S
C632 C634 1.327 . S
C632 H657 0.950 . S
C633 C632 1.349 . S
C633 C649 1.349 . S
C634 C632 1.327 . S
C634 C653 1.429 . S
C634 H658 0.950 . S
C635 C652 1.574 . S
C635 C654 1.368 . S
C635 H659 0.949 . S
H636 C640 0.949 . S
C637 C638 1.349 . S
C637 C639 1.327 . S
C637 H660 0.950 . S
C638 C637 1.349 . S
C638 C650 1.349 . S
C639 C637 1.327 . S
C639 C655 1.429 . S
C639 H661 0.950 . S
C640 H636 0.949 . S
C640 C648 1.574 . S
C640 C656 1.368 . S
H641 C649 0.950 . S
H642 C647 0.950 . S
H643 C648 0.949 . S
H644 C650 0.950 . S
H645 C651 0.950 . S
H646 C652 0.949 . S
C647 H642 0.950 . S
C647 C649 1.327 . S
C647 C653 1.429 . S
C648 C640 1.574 . S
C648 H643 0.949 . S
C648 C654 1.368 . S
C649 C633 1.349 . S
C649 H641 0.950 . S
C649 C647 1.327 . S
C650 C638 1.349 . S
C650 H644 0.950 . S
C650 C651 1.327 . S
C651 H645 0.950 . S
C651 C650 1.327 . S
C651 C655 1.429 . S
C652 C635 1.574 . S
C652 H646 0.949 . S
C652 C656 1.368 . S
C653 C634 1.429 . S
C653 C647 1.429 . S
C653 C654 1.523 . S
C654 C635 1.368 . S
C654 C648 1.368 . S
C654 C653 1.523 . S
C655 C639 1.429 . S
C655 C651 1.429 . S
C655 C656 1.523 . S
C656 C640 1.368 . S
C656 C652 1.368 . S
C656 C655 1.523 . S
H657 C632 0.950 . S
H658 C634 0.950 . S
H659 C635 0.949 . S
H660 C637 0.950 . S
H661 C639 0.950 . S
C662 C663 1.349 . S
C662 C664 1.327 . S
C662 H687 0.950 . S
C663 C662 1.349 . S
C663 C679 1.349 . S
C664 C662 1.327 . S
C664 C683 1.429 . S
C664 H688 0.950 . S
C665 C682 1.574 . S
C665 C684 1.368 . S
C665 H689 0.949 . S
H666 C670 0.949 . S
C667 C668 1.349 . S
C667 C669 1.327 . S
C667 H690 0.950 . S
C668 C667 1.349 . S
C668 C680 1.349 . S
C669 C667 1.327 . S
C669 C685 1.429 . S
C669 H691 0.950 . S
C670 H666 0.949 . S
C670 C678 1.574 . S
C670 C686 1.368 . S
H671 C679 0.950 . S
H672 C677 0.950 . S
H673 C678 0.949 . S
H674 C680 0.950 . S
H675 C681 0.950 . S
H676 C682 0.949 . S
C677 H672 0.950 . S
C677 C679 1.327 . S
C677 C683 1.429 . S
C678 C670 1.574 . S
C678 H673 0.949 . S
C678 C684 1.368 . S
C679 C663 1.349 . S
C679 H671 0.950 . S
C679 C677 1.327 . S
C680 C668 1.349 . S
C680 H674 0.950 . S
C680 C681 1.327 . S
C681 H675 0.950 . S
C681 C680 1.327 . S
C681 C685 1.429 . S
C682 C665 1.574 . S
C682 H676 0.949 . S
C682 C686 1.368 . S
C683 C664 1.429 . S
C683 C677 1.429 . S
C683 C684 1.523 . S
C684 C665 1.368 . S
C684 C678 1.368 . S
C684 C683 1.523 . S
C685 C669 1.429 . S
C685 C681 1.429 . S
C685 C686 1.523 . S
C686 C670 1.368 . S
C686 C682 1.368 . S
C686 C685 1.523 . S
H687 C662 0.950 . S
H688 C664 0.950 . S
H689 C665 0.949 . S
H690 C667 0.950 . S
H691 C669 0.950 . S
C692 C693 1.349 . S
C692 C694 1.327 . S
C692 H717 0.950 . S
C693 C692 1.349 . S
C693 C709 1.349 . S
C694 C692 1.327 . S
C694 C713 1.429 . S
C694 H718 0.950 . S
C695 C712 1.574 . S
C695 C714 1.368 . S
C695 H719 0.949 . S
H696 C700 0.949 . S
C697 C698 1.349 . S
C697 C699 1.327 . S
C697 H720 0.950 . S
C698 C697 1.349 . S
C698 C710 1.349 . S
C699 C697 1.327 . S
C699 C715 1.429 . S
C699 H721 0.950 . S
C700 H696 0.949 . S
C700 C708 1.574 . S
C700 C716 1.368 . S
H701 C709 0.950 . S
H702 C707 0.950 . S
H703 C708 0.949 . S
H704 C710 0.950 . S
H705 C711 0.950 . S
H706 C712 0.949 . S
C707 H702 0.950 . S
C707 C709 1.327 . S
C707 C713 1.429 . S
C708 C700 1.574 . S
C708 H703 0.949 . S
C708 C714 1.368 . S
C709 C693 1.349 . S
C709 H701 0.950 . S
C709 C707 1.327 . S
C710 C698 1.349 . S
C710 H704 0.950 . S
C710 C711 1.327 . S
C711 H705 0.950 . S
C711 C710 1.327 . S
C711 C715 1.429 . S
C712 C695 1.574 . S
C712 H706 0.949 . S
C712 C716 1.368 . S
C713 C694 1.429 . S
C713 C707 1.429 . S
C713 C714 1.523 . S
C714 C695 1.368 . S
C714 C708 1.368 . S
C714 C713 1.523 . S
C715 C699 1.429 . S
C715 C711 1.429 . S
C715 C716 1.523 . S
C716 C700 1.368 . S
C716 C712 1.368 . S
C716 C715 1.523 . S
H717 C692 0.950 . S
H718 C694 0.950 . S
H719 C695 0.949 . S
H720 C697 0.950 . S
H721 C699 0.950 . S
C722 C723 1.349 . S
C722 C724 1.327 . S
C722 H747 0.950 . S
C723 C722 1.349 . S
C723 C739 1.349 . S
C724 C722 1.327 . S
C724 C743 1.429 . S
C724 H748 0.950 . S
C725 C742 1.574 . S
C725 C744 1.368 . S
C725 H749 0.949 . S
H726 C730 0.949 . S
C727 C728 1.349 . S
C727 C729 1.327 . S
C727 H750 0.950 . S
C728 C727 1.349 . S
C728 C740 1.349 . S
C729 C727 1.327 . S
C729 C745 1.429 . S
C729 H751 0.950 . S
C730 H726 0.949 . S
C730 C738 1.574 . S
C730 C746 1.368 . S
H731 C739 0.950 . S
H732 C737 0.950 . S
H733 C738 0.949 . S
H734 C740 0.950 . S
H735 C741 0.950 . S
H736 C742 0.949 . S
C737 H732 0.950 . S
C737 C739 1.327 . S
C737 C743 1.429 . S
C738 C730 1.574 . S
C738 H733 0.949 . S
C738 C744 1.368 . S
C739 C723 1.349 . S
C739 H731 0.950 . S
C739 C737 1.327 . S
C740 C728 1.349 . S
C740 H734 0.950 . S
C740 C741 1.327 . S
C741 H735 0.950 . S
C741 C740 1.327 . S
C741 C745 1.429 . S
C742 C725 1.574 . S
C742 H736 0.949 . S
C742 C746 1.368 . S
C743 C724 1.429 . S
C743 C737 1.429 . S
C743 C744 1.523 . S
C744 C725 1.368 . S
C744 C738 1.368 . S
C744 C743 1.523 . S
C745 C729 1.429 . S
C745 C741 1.429 . S
C745 C746 1.523 . S
C746 C730 1.368 . S
C746 C742 1.368 . S
C746 C745 1.523 . S
H747 C722 0.950 . S
H748 C724 0.950 . S
H749 C725 0.949 . S
H750 C727 0.950 . S
H751 C729 0.950 . S
C752 C753 1.349 . S
C752 C754 1.327 . S
C752 H777 0.950 . S
C753 C752 1.349 . S
C753 C769 1.349 . S
C754 C752 1.327 . S
C754 C773 1.429 . S
C754 H778 0.950 . S
C755 C772 1.574 . S
C755 C774 1.368 . S
C755 H779 0.949 . S
H756 C760 0.949 . S
C757 C758 1.349 . S
C757 C759 1.327 . S
C757 H780 0.950 . S
C758 C757 1.349 . S
C758 C770 1.349 . S
C759 C757 1.327 . S
C759 C775 1.429 . S
C759 H781 0.950 . S
C760 H756 0.949 . S
C760 C768 1.574 . S
C760 C776 1.368 . S
H761 C769 0.950 . S
H762 C767 0.950 . S
H763 C768 0.949 . S
H764 C770 0.950 . S
H765 C771 0.950 . S
H766 C772 0.949 . S
C767 H762 0.950 . S
C767 C769 1.327 . S
C767 C773 1.429 . S
C768 C760 1.574 . S
C768 H763 0.949 . S
C768 C774 1.368 . S
C769 C753 1.349 . S
C769 H761 0.950 . S
C769 C767 1.327 . S
C770 C758 1.349 . S
C770 H764 0.950 . S
C770 C771 1.327 . S
C771 H765 0.950 . S
C771 C770 1.327 . S
C771 C775 1.429 . S
C772 C755 1.574 . S
C772 H766 0.949 . S
C772 C776 1.368 . S
C773 C754 1.429 . S
C773 C767 1.429 . S
C773 C774 1.523 . S
C774 C755 1.368 . S
C774 C768 1.368 . S
C774 C773 1.523 . S
C775 C759 1.429 . S
C775 C771 1.429 . S
C775 C776 1.523 . S
C776 C760 1.368 . S
C776 C772 1.368 . S
C776 C775 1.523 . S
H777 C752 0.950 . S
H778 C754 0.950 . S
H779 C755 0.949 . S
H780 C757 0.950 . S
H781 C759 0.950 . S
C782 C783 1.349 . S
C782 C784 1.327 . S
C782 H807 0.950 . S
C783 C782 1.349 . S
C783 C799 1.349 . S
C784 C782 1.327 . S
C784 C803 1.429 . S
C784 H808 0.950 . S
C785 C802 1.574 . S
C785 C804 1.368 . S
C785 H809 0.949 . S
H786 C790 0.949 . S
C787 C788 1.349 . S
C787 C789 1.327 . S
C787 H810 0.950 . S
C788 C787 1.349 . S
C788 C800 1.349 . S
C789 C787 1.327 . S
C789 C805 1.429 . S
C789 H811 0.950 . S
C790 H786 0.949 . S
C790 C798 1.574 . S
C790 C806 1.368 . S
H791 C799 0.950 . S
H792 C797 0.950 . S
H793 C798 0.949 . S
H794 C800 0.950 . S
H795 C801 0.950 . S
H796 C802 0.949 . S
C797 H792 0.950 . S
C797 C799 1.327 . S
C797 C803 1.429 . S
C798 C790 1.574 . S
C798 H793 0.949 . S
C798 C804 1.368 . S
C799 C783 1.349 . S
C799 H791 0.950 . S
C799 C797 1.327 . S
C800 C788 1.349 . S
C800 H794 0.950 . S
C800 C801 1.327 . S
C801 H795 0.950 . S
C801 C800 1.327 . S
C801 C805 1.429 . S
C802 C785 1.574 . S
C802 H796 0.949 . S
C802 C806 1.368 . S
C803 C784 1.429 . S
C803 C797 1.429 . S
C803 C804 1.523 . S
C804 C785 1.368 . S
C804 C798 1.368 . S
C804 C803 1.523 . S
C805 C789 1.429 . S
C805 C801 1.429 . S
C805 C806 1.523 . S
C806 C790 1.368 . S
C806 C802 1.368 . S
C806 C805 1.523 . S
H807 C782 0.950 . S
H808 C784 0.950 . S
H809 C785 0.949 . S
H810 C787 0.950 . S
H811 C789 0.950 . S
C812 C813 1.349 . S
C812 C814 1.327 . S
C812 H837 0.950 . S
C813 C812 1.349 . S
C813 C829 1.349 . S
C814 C812 1.327 . S
C814 C833 1.429 . S
C814 H838 0.950 . S
C815 C832 1.574 . S
C815 C834 1.368 . S
C815 H839 0.949 . S
H816 C820 0.949 . S
C817 C818 1.349 . S
C817 C819 1.327 . S
C817 H840 0.950 . S
C818 C817 1.349 . S
C818 C830 1.349 . S
C819 C817 1.327 . S
C819 C835 1.429 . S
C819 H841 0.950 . S
C820 H816 0.949 . S
C820 C828 1.574 . S
C820 C836 1.368 . S
H821 C829 0.950 . S
H822 C827 0.950 . S
H823 C828 0.949 . S
H824 C830 0.950 . S
H825 C831 0.950 . S
H826 C832 0.949 . S
C827 H822 0.950 . S
C827 C829 1.327 . S
C827 C833 1.429 . S
C828 C820 1.574 . S
C828 H823 0.949 . S
C828 C834 1.368 . S
C829 C813 1.349 . S
C829 H821 0.950 . S
C829 C827 1.327 . S
C830 C818 1.349 . S
C830 H824 0.950 . S
C830 C831 1.327 . S
C831 H825 0.950 . S
C831 C830 1.327 . S
C831 C835 1.429 . S
C832 C815 1.574 . S
C832 H826 0.949 . S
C832 C836 1.368 . S
C833 C814 1.429 . S
C833 C827 1.429 . S
C833 C834 1.523 . S
C834 C815 1.368 . S
C834 C828 1.368 . S
C834 C833 1.523 . S
C835 C819 1.429 . S
C835 C831 1.429 . S
C835 C836 1.523 . S
C836 C820 1.368 . S
C836 C832 1.368 . S
C836 C835 1.523 . S
H837 C812 0.950 . S
H838 C814 0.950 . S
H839 C815 0.949 . S
H840 C817 0.950 . S
H841 C819 0.950 . S
C842 C843 1.349 . S
C842 C844 1.327 . S
C842 H867 0.950 . S
C843 C842 1.349 . S
C843 C859 1.349 . S
C844 C842 1.327 . S
C844 C863 1.429 . S
C844 H868 0.950 . S
C845 C862 1.574 . S
C845 C864 1.368 . S
C845 H869 0.949 . S
H846 C850 0.949 . S
C847 C848 1.349 . S
C847 C849 1.327 . S
C847 H870 0.950 . S
C848 C847 1.349 . S
C848 C860 1.349 . S
C849 C847 1.327 . S
C849 C865 1.429 . S
C849 H871 0.950 . S
C850 H846 0.949 . S
C850 C858 1.574 . S
C850 C866 1.368 . S
H851 C859 0.950 . S
H852 C857 0.950 . S
H853 C858 0.949 . S
H854 C860 0.950 . S
H855 C861 0.950 . S
H856 C862 0.949 . S
C857 H852 0.950 . S
C857 C859 1.327 . S
C857 C863 1.429 . S
C858 C850 1.574 . S
C858 H853 0.949 . S
C858 C864 1.368 . S
C859 C843 1.349 . S
C859 H851 0.950 . S
C859 C857 1.327 . S
C860 C848 1.349 . S
C860 H854 0.950 . S
C860 C861 1.327 . S
C861 H855 0.950 . S
C861 C860 1.327 . S
C861 C865 1.429 . S
C862 C845 1.574 . S
C862 H856 0.949 . S
C862 C866 1.368 . S
C863 C844 1.429 . S
C863 C857 1.429 . S
C863 C864 1.523 . S
C864 C845 1.368 . S
C864 C858 1.368 . S
C864 C863 1.523 . S
C865 C849 1.429 . S
C865 C861 1.429 . S
C865 C866 1.523 . S
C866 C850 1.368 . S
C866 C862 1.368 . S
C866 C865 1.523 . S
H867 C842 0.950 . S
H868 C844 0.950 . S
H869 C845 0.949 . S
H870 C847 0.950 . S
H871 C849 0.950 . S
C273 C141 1.142 . S
C278 C5 1.142 . S
C303 C39 1.141 . S
C308 C175 1.141 . S
C333 C73 1.142 . S
C338 C209 1.142 . S
C363 C107 1.141 . S
C368 C243 1.141 . S
C393 C20 1.109 . S
C398 C224 1.109 . S
C423 C54 1.109 . S
C428 C258 1.109 . S
C453 C156 1.109 . S
C458 C88 1.109 . S
C483 C190 1.109 . S
C488 C122 1.109 . S
C513 C240 0.564 . S
C518 C2 0.564 . S
C543 C36 0.563 . S
C548 C138 0.563 . S
C573 C172 0.563 . S
C578 C70 0.563 . S
C603 C206 0.564 . S
C608 C104 0.564 . S
C633 C33 1.276 . S
C638 C43 1.278 . S
C663 C67 1.276 . S
C668 C77 1.278 . S
C693 C111 1.279 . S
C698 C101 1.276 . S
C723 C9 1.278 . S
C728 C135 1.276 . S
C753 C169 1.276 . S
C758 C247 1.279 . S
C783 C145 1.278 . S
C788 C203 1.276 . S
C813 C237 1.276 . S
C818 C179 1.278 . S
C843 C271 1.276 . S
C848 C213 1.278 . S
