# Generated by pormake.
# Topology smu, (6)-cn, num edge types: 1
# Building blocks:
#     Node 0, Type 0, BuildingBlock: PAMTOO_clean_sbu_0, # of connection points: 6
#     Node 1, Type 0, BuildingBlock: PAMTOO_clean_sbu_0, # of connection points: 6
#     Node 2, Type 0, BuildingBlock: PAMTOO_clean_sbu_0, # of connection points: 6
#     Node 3, Type 0, BuildingBlock: PAMTOO_clean_sbu_0, # of connection points: 6
#     Node 4, Type 0, BuildingBlock: PAMTOO_clean_sbu_0, # of connection points: 6
#     Node 5, Type 0, BuildingBlock: PAMTOO_clean_sbu_0, # of connection points: 6
#     Edge 6, Type (0, 0), BuildingBlock: KIFKEQ_clean_linker_1, # of connection points: 2
#     Edge 7, Type (0, 0), BuildingBlock: KIFKEQ_clean_linker_1, # of connection points: 2
#     Edge 8, Type (0, 0), BuildingBlock: KIFKEQ_clean_linker_1, # of connection points: 2
#     Edge 9, Type (0, 0), BuildingBlock: KIFKEQ_clean_linker_1, # of connection points: 2
#     Edge 10, Type (0, 0), BuildingBlock: KIFKEQ_clean_linker_1, # of connection points: 2
#     Edge 11, Type (0, 0), BuildingBlock: KIFKEQ_clean_linker_1, # of connection points: 2
#     Edge 12, Type (0, 0), BuildingBlock: KIFKEQ_clean_linker_1, # of connection points: 2
#     Edge 13, Type (0, 0), BuildingBlock: KIFKEQ_clean_linker_1, # of connection points: 2
#     Edge 14, Type (0, 0), BuildingBlock: KIFKEQ_clean_linker_1, # of connection points: 2
#     Edge 15, Type (0, 0), BuildingBlock: KIFKEQ_clean_linker_1, # of connection points: 2
#     Edge 16, Type (0, 0), BuildingBlock: KIFKEQ_clean_linker_1, # of connection points: 2
#     Edge 17, Type (0, 0), BuildingBlock: KIFKEQ_clean_linker_1, # of connection points: 2
#     Edge 18, Type (0, 0), BuildingBlock: KIFKEQ_clean_linker_1, # of connection points: 2
#     Edge 19, Type (0, 0), BuildingBlock: KIFKEQ_clean_linker_1, # of connection points: 2
#     Edge 20, Type (0, 0), BuildingBlock: KIFKEQ_clean_linker_1, # of connection points: 2
#     Edge 21, Type (0, 0), BuildingBlock: KIFKEQ_clean_linker_1, # of connection points: 2
#     Edge 22, Type (0, 0), BuildingBlock: KIFKEQ_clean_linker_1, # of connection points: 2
#     Edge 23, Type (0, 0), BuildingBlock: KIFKEQ_clean_linker_1, # of connection points: 2
# Relax obj value: 0.217
# Max RMSD: 0.311
# Mean RMSD: 0.311
data_MOF--net-smu--node1-PAMTOO_clean_sbu_0--edge1-KIFKEQ_clean_linker_1
_symmetry_space_group_name_H-M    P1
_symmetry_Int_Tables_number       1
_symmetry_cell_setting            triclinic
loop_
_symmetry_equiv_pos_as_xyz
'x, y, z'
_cell_length_a     39.989384
_cell_length_b     39.917506
_cell_length_c     28.209198
_cell_angle_alpha  90.034663
_cell_angle_beta   89.730015
_cell_angle_gamma 119.84408
loop_
_atom_site_label
_atom_site_type_symbol
_atom_site_fract_x
_atom_site_fract_y
_atom_site_fract_z
_atom_type_partial_charge
Dy0 Dy 0.37758 0.08554 0.26244 0.0
Dy1 Dy 0.31199 0.11322 0.27646 0.0
C2 C 0.337 0.08062 0.36299 0.0
O3 O 0.3196 0.03298 0.24508 0.0
O4 O 0.28125 0.05032 0.28754 0.0
O5 O 0.41397 0.06833 0.2988 0.0
O6 O 0.4159 0.0721 0.22229 0.0
O7 O 0.30469 0.09026 0.20147 0.0
O8 O 0.36345 0.09407 0.18887 0.0
O9 O 0.36692 0.16805 0.27378 0.0
O10 O 0.41303 0.14975 0.2737 0.0
O11 O 0.29267 0.15245 0.25605 0.0
O12 O 0.26137 0.10935 0.31068 0.0
C13 C 0.28565 0.02535 0.26224 0.0
O14 O 0.34917 0.0645 0.33217 0.0
O15 O 0.33004 0.10829 0.35033 0.0
C16 C 0.4748 0.08928 0.26185 0.0
C17 C 0.5563 0.12512 0.26615 0.0
C18 C 0.53572 0.1334 0.30036 0.0
C19 C 0.4954 0.11565 0.29828 0.0
C20 C 0.49542 0.08183 0.2271 0.0
C21 C 0.53562 0.09955 0.22913 0.0
C22 C 0.43203 0.06815 0.26033 0.0
C23 C 0.32942 0.0867 0.17373 0.0
C24 C 0.40282 0.17636 0.27494 0.0
C25 C 0.22847 0.13819 0.27221 0.0
C26 C 0.17342 0.16073 0.25497 0.0
C27 C 0.19643 0.15998 0.21769 0.0
C28 C 0.22373 0.1486 0.22618 0.0
C29 C 0.20328 0.1359 0.3084 0.0
C30 C 0.17581 0.14694 0.29983 0.0
C31 C 0.26378 0.13798 0.28579 0.0
H32 H 0.55066 0.15276 0.32947 0.0
H33 H 0.48038 0.12215 0.32562 0.0
H34 H 0.48032 0.06184 0.19856 0.0
H35 H 0.55055 0.09308 0.20166 0.0
H36 H 0.19459 0.16999 0.18263 0.0
H37 H 0.24275 0.15049 0.19756 0.0
H38 H 0.20673 0.12836 0.34424 0.0
H39 H 0.15847 0.14742 0.32917 0.0
Dy40 Dy 0.72652 0.64409 0.26134 0.0
Dy41 Dy 0.81895 0.70648 0.26409 0.0
C42 C 0.76566 0.68815 0.35808 0.0
O43 O 0.73172 0.70273 0.24812 0.0
O44 O 0.79215 0.74179 0.28014 0.0
O45 O 0.67098 0.60893 0.29504 0.0
O46 O 0.67754 0.60367 0.21987 0.0
O47 O 0.79801 0.71675 0.19538 0.0
O48 O 0.74778 0.65564 0.18627 0.0
O49 O 0.81038 0.64984 0.24051 0.0
O50 O 0.75715 0.61235 0.28409 0.0
O51 O 0.86912 0.74398 0.22349 0.0
O52 O 0.87549 0.73239 0.29723 0.0
C53 C 0.75973 0.73685 0.26247 0.0
O54 O 0.73481 0.67158 0.33149 0.0
O55 O 0.80043 0.69838 0.3413 0.0
C56 C 0.63333 0.54633 0.26072 0.0
C57 C 0.58841 0.46471 0.26707 0.0
C58 C 0.60436 0.48726 0.30797 0.0
C59 C 0.62652 0.52757 0.30487 0.0
C60 C 0.61775 0.5238 0.21986 0.0
C61 C 0.59566 0.48354 0.22294 0.0
C62 C 0.65517 0.58913 0.25677 0.0
C63 C 0.77073 0.69032 0.16913 0.0
C64 C 0.78854 0.61759 0.26277 0.0
C65 C 0.92828 0.78854 0.25972 0.0
C66 C 1.00554 0.84805 0.25406 0.0
C67 C 0.98174 0.83821 0.21418 0.0
C68 C 0.94341 0.80885 0.21701 0.0
C69 C 0.95126 0.80058 0.30056 0.0
C70 C 0.9896 0.8304 0.29781 0.0
C71 C 0.89284 0.7505 0.25825 0.0
H72 H 0.5998 0.47376 0.34249 0.0
H73 H 0.63802 0.54398 0.33715 0.0
H74 H 0.62219 0.53738 0.1854 0.0
H75 H 0.58342 0.46726 0.19077 0.0
H76 H 0.99338 0.85182 0.18021 0.0
H77 H 0.92657 0.80018 0.18477 0.0
H78 H 0.94053 0.78527 0.33381 0.0
H79 H 1.00754 0.83761 0.32904 0.0
Dy80 Dy 0.93451 0.29379 0.26183 0.0
Dy81 Dy 0.90382 0.20195 0.27012 0.0
C82 C 0.94285 0.25794 0.35631 0.0
O83 O 0.98884 0.29056 0.24778 0.0
O84 O 0.96648 0.22577 0.26472 0.0
O85 O 0.94946 0.34662 0.29879 0.0
O86 O 0.94783 0.34549 0.22206 0.0
O87 O 0.9296 0.21755 0.19692 0.0
O88 O 0.9227 0.27089 0.18757 0.0
O89 O 0.85591 0.20949 0.2446 0.0
O90 O 0.87219 0.26363 0.286 0.0
O91 O 0.86201 0.14416 0.24948 0.0
O92 O 0.89996 0.15336 0.30898 0.0
C93 C 0.99419 0.26059 0.25352 0.0
O94 O 0.96126 0.28579 0.32583 0.0
O95 O 0.91067 0.22687 0.34381 0.0
C96 C 0.92932 0.38688 0.26104 0.0
C97 C 0.89416 0.4334 0.26356 0.0
C98 C 0.89158 0.41053 0.30283 0.0
C99 C 0.90901 0.38757 0.30164 0.0
C100 C 0.93106 0.40897 0.22147 0.0
C101 C 0.91363 0.43187 0.22264 0.0
C102 C 0.95051 0.36515 0.26026 0.0
C103 C 0.93127 0.24543 0.17015 0.0
C104 C 0.84577 0.2321 0.26543 0.0
C105 C 0.87354 0.09281 0.26928 0.0
C106 C 0.85619 0.0165 0.25207 0.0
C107 C 0.85727 0.04004 0.21441 0.0
C108 C 0.86596 0.07801 0.22291 0.0
C109 C 0.87542 0.07025 0.30611 0.0
C110 C 0.86696 0.03245 0.29759 0.0
C111 C 0.87279 0.1282 0.28178 0.0
H112 H 0.87708 0.41125 0.33501 0.0
H113 H 0.90713 0.37097 0.3329 0.0
H114 H 0.94645 0.40901 0.18975 0.0
H115 H 0.9156 0.44861 0.19148 0.0
H116 H 0.84969 0.0285 0.17885 0.0
H117 H 0.86456 0.09489 0.19373 0.0
H118 H 0.88096 0.08099 0.34217 0.0
H119 H 0.86619 0.01489 0.32731 0.0
Dy120 Dy 0.08478 0.37147 0.7698 0.0
Dy121 Dy 0.11204 0.30522 0.76166 0.0
C122 C 0.07504 0.32453 0.67418 0.0
O123 O 0.02906 0.31508 0.7807 0.0
O124 O 0.04867 0.27015 0.76435 0.0
O125 O 0.07239 0.41065 0.73141 0.0
O126 O 0.07075 0.41012 0.80808 0.0
O127 O 0.08617 0.29796 0.83454 0.0
O128 O 0.09226 0.35798 0.84461 0.0
O129 O 0.16569 0.36042 0.77429 0.0
O130 O 0.14806 0.40443 0.75189 0.0
O131 O 0.15009 0.28581 0.78669 0.0
O132 O 0.11298 0.25722 0.72631 0.0
C133 C 0.02206 0.27933 0.77386 0.0
O134 O 0.0599 0.33874 0.70353 0.0
O135 O 0.10436 0.32028 0.68697 0.0
C136 C 0.09215 0.47092 0.7692 0.0
C137 C 0.12928 0.55283 0.76774 0.0
C138 C 0.12375 0.53188 0.72559 0.0
C139 C 0.10536 0.4915 0.72628 0.0
C140 C 0.09829 0.49185 0.81144 0.0
C141 C 0.11673 0.53229 0.81075 0.0
C142 C 0.07017 0.42793 0.76953 0.0
C143 C 0.08351 0.32371 0.86117 0.0
C144 C 0.17456 0.39535 0.76201 0.0
C145 C 0.13982 0.22316 0.76746 0.0
C146 C 0.16238 0.1676 0.78311 0.0
C147 C 0.16221 0.19063 0.82066 0.0
C148 C 0.15088 0.21813 0.81298 0.0
C149 C 0.1372 0.19809 0.73094 0.0
C150 C 0.14821 0.1704 0.73872 0.0
C151 C 0.1393 0.25874 0.75484 0.0
H152 H 0.1335 0.54668 0.69189 0.0
H153 H 0.10104 0.47644 0.69294 0.0
H154 H 0.08817 0.47695 0.84503 0.0
H155 H 0.12006 0.54737 0.84384 0.0
H156 H 0.17253 0.18856 0.85538 0.0
H157 H 0.15321 0.23701 0.8419 0.0
H158 H 0.12925 0.20171 0.69542 0.0
H159 H 0.14823 0.1531 0.70913 0.0
Dy160 Dy 0.29937 0.93108 0.77526 0.0
Dy161 Dy 0.20671 0.90659 0.76789 0.0
C162 C 0.2625 0.93772 0.67562 0.0
O163 O 0.29525 0.98469 0.79088 0.0
O164 O 0.24045 0.96815 0.74842 0.0
O165 O 0.35509 0.95158 0.74186 0.0
O166 O 0.34789 0.93798 0.81656 0.0
O167 O 0.22491 0.93008 0.84135 0.0
O168 O 0.27906 0.92475 0.85032 0.0
O169 O 0.20651 0.85202 0.78425 0.0
O170 O 0.26741 0.8674 0.75995 0.0
O171 O 0.15899 0.91165 0.7961 0.0
O172 O 0.15084 0.87418 0.73478 0.0
C173 C 0.27055 0.99354 0.77177 0.0
O174 O 0.29292 0.94772 0.70214 0.0
O175 O 0.22699 0.91787 0.69215 0.0
C176 C 0.39422 0.92845 0.77572 0.0
C177 C 0.44027 0.89294 0.77025 0.0
C178 C 0.408 0.8808 0.74057 0.0
C179 C 0.38509 0.89832 0.74337 0.0
C180 C 0.42638 0.94066 0.80503 0.0
C181 C 0.44915 0.92319 0.80236 0.0
C182 C 0.37093 0.94768 0.78013 0.0
C183 C 0.25332 0.93291 0.86744 0.0
C184 C 0.2317 0.84184 0.77136 0.0
C185 C 0.09485 0.87745 0.76213 0.0
C186 C 0.01517 0.8504 0.75939 0.0
C187 C 0.03559 0.86388 0.80211 0.0
C188 C 0.07519 0.87749 0.80339 0.0
C189 C 0.07497 0.86567 0.71911 0.0
C190 C 0.03551 0.85252 0.71767 0.0
C191 C 0.13556 0.88806 0.76426 0.0
H192 H 0.40009 0.85737 0.71571 0.0
H193 H 0.36024 0.88825 0.72049 0.0
H194 H 0.43398 0.9639 0.83013 0.0
H195 H 0.47407 0.9338 0.82517 0.0
H196 H 0.02077 0.86237 0.83497 0.0
H197 H 0.09009 0.88658 0.83698 0.0
H198 H 0.08981 0.86606 0.6867 0.0
H199 H 0.02078 0.84326 0.68401 0.0
Dy200 Dy 0.64407 0.71962 0.76345 0.0
Dy201 Dy 0.70903 0.81175 0.76412 0.0
C202 C 0.69404 0.76088 0.67082 0.0
O203 O 0.70116 0.72063 0.75784 0.0
O204 O 0.74416 0.78454 0.77805 0.0
O205 O 0.60439 0.66898 0.72377 0.0
O206 O 0.60438 0.66695 0.80025 0.0
O207 O 0.70389 0.79342 0.84147 0.0
O208 O 0.67198 0.72723 0.83268 0.0
O209 O 0.65342 0.80359 0.73669 0.0
O210 O 0.6152 0.75341 0.78373 0.0
O211 O 0.72843 0.8681 0.79512 0.0
O212 O 0.75288 0.86238 0.7284 0.0
C213 C 0.73598 0.74895 0.76923 0.0
O214 O 0.65939 0.73708 0.68757 0.0
O215 O 0.71954 0.79005 0.69586 0.0
C216 C 0.54392 0.62852 0.76217 0.0
C217 C 0.46226 0.5833 0.76228 0.0
C218 C 0.48275 0.60017 0.72013 0.0
C219 C 0.52302 0.62238 0.72003 0.0
C220 C 0.52345 0.61248 0.80457 0.0
C221 C 0.48312 0.59028 0.80466 0.0
C222 C 0.58679 0.64916 0.76161 0.0
C223 C 0.69236 0.75828 0.85815 0.0
C224 C 0.62124 0.78401 0.76002 0.0
C225 C 0.78879 0.92204 0.76907 0.0
C226 C 0.84793 0.99915 0.78127 0.0
C227 C 0.83043 0.97509 0.82089 0.0
C228 C 0.80087 0.93683 0.81485 0.0
C229 C 0.80818 0.9451 0.72972 0.0
C230 C 0.83732 0.9832 0.73566 0.0
C231 C 0.75264 0.88581 0.76036 0.0
H232 H 0.46764 0.59595 0.68696 0.0
H233 H 0.53775 0.63416 0.68668 0.0
H234 H 0.53865 0.61634 0.8376 0.0
H235 H 0.4684 0.57747 0.83771 0.0
H236 H 0.83845 0.98627 0.85653 0.0
H237 H 0.78637 0.91955 0.84582 0.0
H238 H 0.79908 0.93444 0.69404 0.0
H239 H 0.84959 1.00077 0.70425 0.0
H240 H 0.31447 0.95291 0.92611 0.0
H241 H 0.20925 0.95774 0.91538 0.0
H242 H 0.33073 0.99045 0.99804 0.0
H243 H 0.22479 0.99432 0.98931 0.0
H244 H 0.28509 0.09207 0.10192 0.0
H245 H 0.26406 0.05362 0.02869 0.0
H246 H 0.31674 0.98791 0.07697 0.0
H247 H 0.33975 0.02782 0.14699 0.0
C248 C 0.29422 0.96116 0.93967 0.0
C249 C 0.26021 0.9516 0.91497 0.0
C250 C 0.30352 0.98279 0.9814 0.0
C251 C 0.27892 0.99525 1.00051 0.0
C252 C 0.24468 0.98557 0.9759 0.0
C253 C 0.2355 0.96409 0.93366 0.0
C254 C 0.29253 0.06974 0.09615 0.0
C255 C 0.3154 0.06404 0.12922 0.0
C256 C 0.28014 0.04734 0.05448 0.0
C257 C 0.28948 0.01803 0.04584 0.0
C258 C 0.31038 0.01116 0.08075 0.0
C259 C 0.32356 0.03409 0.12126 0.0
H260 H 0.6687 0.68977 0.63375 0.0
H261 H 0.74866 0.81029 0.60708 0.0
H262 H 0.69074 0.67236 0.56282 0.0
H263 H 0.76916 0.79319 0.5333 0.0
H264 H 0.81687 0.74682 0.417 0.0
H265 H 0.80201 0.76554 0.49387 0.0
H266 H 0.68442 0.67176 0.48285 0.0
H267 H 0.6998 0.65225 0.40909 0.0
C268 C 0.69033 0.71269 0.61188 0.0
C269 C 0.70615 0.75146 0.62534 0.0
C270 C 0.70307 0.70274 0.57092 0.0
C271 C 0.73128 0.73131 0.54122 0.0
C272 C 0.74758 0.77025 0.55513 0.0
C273 C 0.73548 0.78016 0.59709 0.0
C274 C 0.78825 0.72969 0.43198 0.0
C275 C 0.75972 0.69772 0.40718 0.0
C276 C 0.77946 0.74076 0.47565 0.0
C277 C 0.74197 0.72004 0.49528 0.0
C278 C 0.71387 0.68798 0.47017 0.0
C279 C 0.72266 0.67688 0.42725 0.0
H280 H 0.94075 0.30093 0.10587 0.0
H281 H 0.96175 0.20567 0.12414 0.0
H282 H 0.97701 0.31817 0.03233 0.0
H283 H 1.00189 0.22541 0.05338 0.0
H284 H 0.04912 0.25172 0.9023 0.0
H285 H 1.00979 0.23045 0.97365 0.0
H286 H 0.03675 0.34803 1.00038 0.0
H287 H 0.07377 0.36852 0.9274 0.0
C288 C 0.95332 0.2837 0.09439 0.0
C289 C 0.94886 0.25231 0.1218 0.0
C290 C 0.97495 0.29409 0.05233 0.0
C291 C 0.99378 0.27411 0.03677 0.0
C292 C 0.98806 0.24175 0.06345 0.0
C293 C 0.96535 0.23064 0.10479 0.0
C294 C 0.04699 0.27313 0.92368 0.0
C295 C 0.06478 0.31192 0.90881 0.0
C296 C 0.02431 0.26089 0.96501 0.0
C297 C 0.01925 0.2872 0.99332 0.0
C298 C 0.03858 0.32635 0.9793 0.0
C299 C 0.0606 0.33841 0.93755 0.0
H300 H 0.35015 0.02481 0.39651 0.0
H301 H 0.29727 0.09254 0.43629 0.0
H302 H 0.32778 0.98852 0.46873 0.0
H303 H 0.27631 0.05674 0.51171 0.0
H304 H 0.21631 0.95676 0.62327 0.0
H305 H 0.23323 0.99325 0.54851 0.0
H306 H 0.34347 0.99767 0.5488 0.0
H307 H 0.32607 0.96044 0.62133 0.0
C308 C 0.33424 0.03257 0.42109 0.0
C309 C 0.32599 0.06214 0.41052 0.0
C310 C 0.32151 0.01166 0.46299 0.0
C311 C 0.30077 0.02 0.49665 0.0
C312 C 0.2922 0.04951 0.48647 0.0
C313 C 0.30467 0.0704 0.44364 0.0
C314 C 0.24369 0.96473 0.60646 0.0
C315 C 0.2696 0.95509 0.62769 0.0
C316 C 0.25367 0.98623 0.56417 0.0
C317 C 0.28963 0.99824 0.54233 0.0
C318 C 0.3152 0.98832 0.56383 0.0
C319 C 0.30527 0.96696 0.60565 0.0
H320 H 0.72964 0.80984 0.93231 0.0
H321 H 0.68765 0.69176 0.88844 0.0
H322 H 0.75019 0.79535 1.00809 0.0
H323 H 0.70923 0.67827 0.96111 0.0
H324 H 0.70923 0.64712 0.11191 0.0
H325 H 0.69109 0.66684 0.0399 0.0
H326 H 0.79358 0.77922 0.0484 0.0
H327 H 0.81104 0.75974 0.12212 0.0
C328 C 0.72468 0.78096 0.93872 0.0
C329 C 0.70586 0.75182 0.90463 0.0
C330 C 0.73673 0.77268 0.98192 0.0
C331 C 0.7305 0.73523 0.99146 0.0
C332 C 0.71321 0.70694 0.95629 0.0
C333 C 0.70087 0.71494 0.91405 0.0
C334 C 0.72821 0.67591 0.09833 0.0
C335 C 0.76193 0.70154 0.12259 0.0
C336 C 0.71783 0.68734 0.05676 0.0
C337 C 0.74112 0.72459 0.03759 0.0
C338 C 0.7748 0.75043 0.06205 0.0
C339 C 0.78504 0.73905 0.10408 0.0
H340 H 0.01847 0.30233 0.37722 0.0
H341 H 0.90893 0.22249 0.44134 0.0
H342 H 0.04972 0.3137 0.45372 0.0
H343 H 0.94066 0.23403 0.51892 0.0
H344 H 1.0041 0.31186 0.64927 0.0
H345 H 0.97149 0.29054 0.57382 0.0
H346 H 0.06795 0.28273 0.51756 0.0
H347 H 0.10115 0.3044 0.59395 0.0
C348 C 1.00099 0.287 0.40775 0.0
C349 C 0.96101 0.2618 0.40327 0.0
C350 C 0.01912 0.29326 0.4516 0.0
C351 C 0.9978 0.27478 0.49246 0.0
C352 C 0.95787 0.24887 0.48803 0.0
C353 C 0.93969 0.24213 0.44371 0.0
C354 C 0.01862 0.30569 0.62097 0.0
C355 C 0.0557 0.31051 0.62759 0.0
C356 C 0.99953 0.29293 0.57777 0.0
C357 C 0.01698 0.28482 0.53965 0.0
C358 C 0.05381 0.28898 0.54626 0.0
C359 C 0.07286 0.30138 0.58994 0.0
H360 H 0.59778 0.08862 0.25145 0.0
H361 H 0.61147 0.19954 0.28929 0.0
H362 H 0.66706 0.11552 0.25408 0.0
H363 H 0.68143 0.22713 0.29062 0.0
H364 H 0.80675 0.25726 0.3235 0.0
H365 H 0.73686 0.23174 0.32711 0.0
H366 H 0.72172 0.15503 0.21064 0.0
H367 H 0.79027 0.17904 0.20863 0.0
C368 C 0.61567 0.11896 0.25982 0.0
C369 C 0.59897 0.14199 0.26946 0.0
C370 C 0.65562 0.13455 0.26122 0.0
C371 C 0.68032 0.17388 0.27172 0.0
C372 C 0.66355 0.19674 0.28266 0.0
C373 C 0.62336 0.18094 0.28173 0.0
C374 C 0.78833 0.23508 0.29865 0.0
C375 C 0.80413 0.22011 0.26602 0.0
C376 C 0.74824 0.22044 0.30058 0.0
C377 C 0.72321 0.19077 0.26961 0.0
C378 C 0.73954 0.17691 0.23612 0.0
C379 C 0.77919 0.1911 0.23461 0.0
H380 H 0.53408 0.42296 0.3349 0.0
H381 H 0.58554 0.40929 0.20663 0.0
H382 H 0.49194 0.35333 0.33941 0.0
H383 H 0.542 0.33964 0.20994 0.0
H384 H 0.48045 0.21162 0.25375 0.0
H385 H 0.52693 0.28108 0.25338 0.0
H386 H 0.4371 0.30427 0.29881 0.0
H387 H 0.39141 0.23568 0.30022 0.0
C388 C 0.53664 0.40513 0.3078 0.0
C389 C 0.56334 0.42189 0.27043 0.0
C390 C 0.51208 0.36514 0.31006 0.0
C391 C 0.51343 0.34076 0.27494 0.0
C392 C 0.54044 0.35744 0.23788 0.0
C393 C 0.56508 0.39747 0.23567 0.0
C394 C 0.47087 0.23161 0.2642 0.0
C395 C 0.43225 0.218 0.27707 0.0
C396 C 0.49737 0.27142 0.26356 0.0
C397 C 0.48583 0.29835 0.27621 0.0
C398 C 0.44727 0.28451 0.28959 0.0
C399 C 0.42092 0.245 0.29002 0.0
H400 H 0.82466 0.41926 0.301 0.0
H401 H 0.92719 0.50767 0.2316 0.0
H402 H 0.79762 0.46217 0.30165 0.0
H403 H 0.9012 0.55103 0.23374 0.0
H404 H 0.83326 0.6084 0.19773 0.0
H405 H 0.85715 0.56342 0.19881 0.0
H406 H 0.79769 0.51648 0.33179 0.0
H407 H 0.77175 0.56054 0.32881 0.0
C408 C 0.84159 0.44802 0.28628 0.0
C409 C 0.87786 0.4598 0.2656 0.0
C410 C 0.82616 0.4728 0.28684 0.0
C411 C 0.84681 0.51018 0.2672 0.0
C412 C 0.88365 0.52218 0.24787 0.0
C413 C 0.89877 0.49729 0.24676 0.0
C414 C 0.82495 0.58823 0.22703 0.0
C415 C 0.80049 0.58793 0.26313 0.0
C416 C 0.83911 0.5626 0.22801 0.0
C417 C 0.83002 0.53638 0.26577 0.0
C418 C 0.80506 0.53579 0.30176 0.0
C419 C 0.79019 0.56109 0.30021 0.0
H420 H 0.11694 0.59652 0.70276 0.0
H421 H 0.18068 0.60653 0.83024 0.0
H422 H 0.14368 0.66629 0.70168 0.0
H423 H 0.20658 0.67639 0.82986 0.0
H424 H 0.27386 0.80557 0.78622 0.0
H425 H 0.25069 0.73593 0.78435 0.0
H426 H 0.13669 0.71423 0.74876 0.0
H427 H 0.1597 0.78337 0.751 0.0
C428 C 0.1369 0.61359 0.73039 0.0
C429 C 0.14663 0.59575 0.76657 0.0
C430 C 0.15192 0.65362 0.73004 0.0
C431 C 0.17721 0.677 0.76577 0.0
C432 C 0.18745 0.6593 0.80158 0.0
C433 C 0.17226 0.61918 0.80206 0.0
C434 C 0.24393 0.78585 0.7778 0.0
C435 C 0.2186 0.79994 0.76895 0.0
C436 C 0.23058 0.74598 0.77703 0.0
C437 C 0.19182 0.71946 0.76637 0.0
C438 C 0.16676 0.73377 0.75671 0.0
C439 C 0.1799 0.77343 0.75835 0.0
H440 H 0.4637 0.86923 0.69149 0.0
H441 H 0.47258 0.87473 0.84419 0.0
H442 H 0.50559 0.84095 0.68839 0.0
H443 H 0.51546 0.84787 0.8409 0.0
H444 H 0.56042 0.76325 0.82091 0.0
H445 H 0.51538 0.78791 0.82282 0.0
H446 H 0.57346 0.8608 0.70216 0.0
H447 H 0.6182 0.83605 0.7001 0.0
C448 C 0.47437 0.86424 0.72441 0.0
C449 C 0.46478 0.87442 0.76808 0.0
C450 C 0.49875 0.84842 0.72259 0.0
C451 C 0.51398 0.8422 0.7644 0.0
C452 C 0.50397 0.85188 0.80805 0.0
C453 C 0.4797 0.86774 0.80986 0.0
C454 C 0.56331 0.78426 0.79456 0.0
C455 C 0.59275 0.79752 0.76025 0.0
C456 C 0.53771 0.79864 0.79586 0.0
C457 C 0.54072 0.82629 0.76256 0.0
C458 C 0.56996 0.83919 0.72795 0.0
C459 C 0.59576 0.82513 0.72696 0.0
H460 H 0.20963 0.4732 0.78095 0.0
H461 H 0.23353 0.3833 0.73837 0.0
H462 H 0.27914 0.51977 0.78129 0.0
H463 H 0.30237 0.4294 0.73853 0.0
H464 H 0.41958 0.52887 0.69585 0.0
H465 H 0.35015 0.48564 0.69425 0.0
H466 H 0.33848 0.53372 0.82629 0.0
H467 H 0.40816 0.57804 0.82722 0.0
C468 C 0.22968 0.46354 0.77117 0.0
C469 C 0.21614 0.42468 0.75949 0.0
C470 C 0.26945 0.49005 0.7718 0.0
C471 C 0.29635 0.47835 0.75983 0.0
C472 C 0.28255 0.43955 0.74746 0.0
C473 C 0.24305 0.41306 0.7476 0.0
C474 C 0.40225 0.5307 0.72426 0.0
C475 C 0.41957 0.5572 0.76151 0.0
C476 C 0.36241 0.50556 0.7236 0.0
C477 C 0.33867 0.50617 0.76014 0.0
C478 C 0.35586 0.53278 0.79732 0.0
C479 C 0.39585 0.5579 0.79809 0.0
H480 H 0.1974 0.23217 0.2185 0.0
H481 H 0.09818 0.13312 0.27943 0.0
H482 H 0.16067 0.26634 0.21365 0.0
H483 H 0.06149 0.16719 0.2739 0.0
H484 H 1.00266 0.21957 0.1858 0.0
H485 H 0.05075 0.19957 0.18321 0.0
H486 H 0.11401 0.28051 0.29433 0.0
H487 H 0.06466 0.30049 0.29727 0.0
C488 C 0.16764 0.21764 0.23034 0.0
C489 C 0.15034 0.17994 0.2489 0.0
C490 C 0.14699 0.23735 0.22813 0.0
C491 C 0.10872 0.21936 0.24388 0.0
C492 C 0.09124 0.18157 0.26197 0.0
C493 C 0.11201 0.1621 0.26487 0.0
C494 C 0.02796 0.23488 0.20757 0.0
C495 C 0.0305 0.26225 0.24075 0.0
C496 C 0.0551 0.22291 0.20666 0.0
C497 C 0.08565 0.23845 0.23867 0.0
C498 C 0.09053 0.26844 0.26915 0.0
C499 C 0.06277 0.28022 0.27041 0.0
H500 H 0.05358 0.91175 0.30579 0.0
H501 H 0.05206 0.83959 0.19073 0.0
H502 H 0.12399 0.95104 0.29824 0.0
H503 H 0.1225 0.8785 0.18395 0.0
H504 H 0.2537 0.94644 0.27267 0.0
H505 H 0.18413 0.89968 0.26463 0.0
H506 H 0.16598 0.98955 0.2076 0.0
H507 H 0.23437 0.03516 0.21371 0.0
C508 C 0.06836 0.90434 0.27909 0.0
C509 C 0.04762 0.87294 0.24869 0.0
C510 C 0.10839 0.92657 0.27488 0.0
C511 C 0.1282 0.91713 0.24096 0.0
C512 C 0.10761 0.88579 0.21063 0.0
C513 C 0.06751 0.86397 0.21425 0.0
C514 C 0.23504 0.95544 0.25617 0.0
C515 C 0.24931 0.99415 0.24341 0.0
C516 C 0.19542 0.92902 0.25212 0.0
C517 C 0.17018 0.94156 0.23608 0.0
C518 C 0.18503 0.97941 0.22001 0.0
C519 C 0.22424 1.00531 0.22314 0.0
H520 H 0.78986 0.96717 0.20633 0.0
H521 H 0.88445 0.97108 0.28445 0.0
H522 H 0.75892 0.89658 0.20198 0.0
H523 H 0.85348 0.90063 0.27974 0.0
H524 H 0.81243 0.78703 0.20302 0.0
H525 H 0.83292 0.85494 0.19552 0.0
H526 H 0.73581 0.83823 0.2805 0.0
H527 H 0.7153 0.769 0.28916 0.0
C528 C 0.80424 0.95297 0.22196 0.0
C529 C 0.83966 0.97449 0.24547 0.0
C530 C 0.78628 0.91274 0.21999 0.0
C531 C 0.80378 0.89364 0.24092 0.0
C532 C 0.8395 0.91505 0.26357 0.0
C533 C 0.8572 0.95517 0.26612 0.0
C534 C 0.79434 0.79727 0.21843 0.0
C535 C 0.76206 0.7728 0.24633 0.0
C536 C 0.8064 0.83625 0.21448 0.0
C537 C 0.78608 0.85148 0.23778 0.0
C538 C 0.75173 0.82666 0.26222 0.0
C539 C 0.73981 0.78725 0.26681 0.0
H540 H 0.23319 0.18993 0.8198 0.0
H541 H 0.13426 0.0924 0.75717 0.0
H542 H 0.26653 0.15241 0.8235 0.0
H543 H 0.16746 0.05483 0.76167 0.0
H544 H 0.22063 0.99105 0.83622 0.0
H545 H 0.19637 0.03575 0.84274 0.0
H546 H 0.28551 0.11431 0.74717 0.0
H547 H 0.30939 0.06825 0.73934 0.0
C548 C 0.21843 0.16032 0.80747 0.0
C549 C 0.18105 0.14385 0.78856 0.0
C550 C 0.23765 0.13917 0.80916 0.0
C551 C 0.21948 0.10106 0.79276 0.0
C552 C 0.18192 0.0843 0.77454 0.0
C553 C 0.16297 0.10566 0.77203 0.0
C554 C 0.23635 0.01862 0.81843 0.0
C555 C 0.26752 0.0267 0.78824 0.0
C556 C 0.22202 0.0439 0.82163 0.0
C557 C 0.23901 0.07812 0.79527 0.0
C558 C 0.2722 0.08798 0.76798 0.0
C559 C 0.28615 0.06206 0.76399 0.0
H560 H 0.96483 0.78588 0.71057 0.0
H561 H 0.96902 0.87162 0.80785 0.0
H562 H 0.89473 0.75186 0.71374 0.0
H563 H 0.89877 0.83718 0.81143 0.0
H564 H 0.77772 0.75327 0.84537 0.0
H565 H 0.84656 0.77522 0.84259 0.0
H566 H 0.84 0.76033 0.6905 0.0
H567 H 0.77088 0.73775 0.69379 0.0
C568 C 0.95081 0.79778 0.73216 0.0
C569 C 0.97253 0.83144 0.75906 0.0
C570 C 0.91065 0.77809 0.73418 0.0
C571 C 0.89134 0.79144 0.76343 0.0
C572 C 0.91295 0.8256 0.78953 0.0
C573 C 0.95315 0.84541 0.78736 0.0
C574 C 0.7907 0.7526 0.81181 0.0
C575 C 0.7692 0.74322 0.76989 0.0
C576 C 0.83018 0.76603 0.81002 0.0
C577 C 0.84873 0.77035 0.76621 0.0
C578 C 0.82642 0.7572 0.72478 0.0
C579 C 0.78679 0.74367 0.72665 0.0
H580 H 0.98595 0.2438 0.85488 0.0
H581 H 0.97517 0.23805 0.70284 0.0
H582 H 0.9419 0.17422 0.86031 0.0
H583 H 0.93029 0.16869 0.70789 0.0
H584 H 0.91168 0.04753 0.72819 0.0
H585 H 0.94617 0.11781 0.72808 0.0
H586 H 0.87714 0.11753 0.8464 0.0
H587 H 0.84182 0.04717 0.84589 0.0
C588 C 0.97222 0.22796 0.82293 0.0
C589 C 0.98333 0.24613 0.77857 0.0
C590 C 0.94744 0.18805 0.8259 0.0
C591 C 0.93344 0.16591 0.78441 0.0
C592 C 0.94135 0.18492 0.74039 0.0
C593 C 0.96619 0.22473 0.73751 0.0
C594 C 0.90376 0.06237 0.7542 0.0
C595 C 0.87354 0.04156 0.78661 0.0
C596 C 0.92341 0.10266 0.75397 0.0
C597 C 0.91359 0.12314 0.78645 0.0
C598 C 0.88509 0.1025 0.82073 0.0
C599 C 0.86514 0.06213 0.82068 0.0
loop_
_geom_bond_atom_site_label_1
_geom_bond_atom_site_label_2
_geom_bond_distance
_geom_bond_site_symmetry_2
_ccdc_geom_bond_type
Dy0 O3 2.307 . S
Dy0 O5 2.395 . S
Dy0 O6 2.379 . S
Dy0 O8 2.339 . S
Dy0 O10 2.298 . S
Dy0 O14 2.275 . S
Dy0 C22 2.738 . S
Dy1 O4 2.298 . S
Dy1 O7 2.275 . S
Dy1 O9 2.307 . S
Dy1 O11 2.395 . S
Dy1 O12 2.379 . S
Dy1 O15 2.339 . S
Dy1 C31 2.738 . S
C2 O14 1.254 . S
C2 O15 1.257 . S
O3 Dy0 2.307 . S
O3 C13 1.266 . S
O4 Dy1 2.298 . S
O4 C13 1.236 . S
O5 Dy0 2.395 . S
O5 C22 1.255 . S
O6 Dy0 2.379 . S
O6 C22 1.249 . S
O7 Dy1 2.275 . S
O7 C23 1.254 . S
O8 Dy0 2.339 . S
O8 C23 1.257 . S
O9 Dy1 2.307 . S
O9 C24 1.266 . S
O10 Dy0 2.298 . S
O10 C24 1.236 . S
O11 Dy1 2.395 . S
O11 C31 1.255 . S
O12 Dy1 2.379 . S
O12 C31 1.249 . S
C13 O3 1.266 . S
C13 O4 1.236 . S
O14 Dy0 2.275 . S
O14 C2 1.254 . S
O15 Dy1 2.339 . S
O15 C2 1.257 . S
C16 C19 1.344 . S
C16 C20 1.328 . S
C16 C22 1.516 . S
C17 C18 1.304 . S
C17 C21 1.323 . S
C18 C17 1.304 . S
C18 C19 1.371 . S
C18 H32 0.930 . S
C19 C16 1.344 . S
C19 C18 1.371 . S
C19 H33 0.931 . S
C20 C16 1.328 . S
C20 C21 1.433 . S
C20 H34 0.931 . S
C21 C17 1.323 . S
C21 C20 1.433 . S
C21 H35 0.933 . S
C22 Dy0 2.738 . S
C22 O5 1.255 . S
C22 O6 1.249 . S
C22 C16 1.516 . S
C23 O7 1.254 . S
C23 O8 1.257 . S
C24 O9 1.266 . S
C24 O10 1.236 . S
C25 C28 1.344 . S
C25 C29 1.328 . S
C25 C31 1.516 . S
C26 C27 1.304 . S
C26 C30 1.323 . S
C27 C26 1.304 . S
C27 C28 1.371 . S
C27 H36 0.930 . S
C28 C25 1.344 . S
C28 C27 1.371 . S
C28 H37 0.931 . S
C29 C25 1.328 . S
C29 C30 1.433 . S
C29 H38 0.931 . S
C30 C26 1.323 . S
C30 C29 1.433 . S
C30 H39 0.933 . S
C31 Dy1 2.738 . S
C31 O11 1.255 . S
C31 O12 1.249 . S
C31 C25 1.516 . S
H32 C18 0.930 . S
H33 C19 0.931 . S
H34 C20 0.931 . S
H35 C21 0.933 . S
H36 C27 0.930 . S
H37 C28 0.931 . S
H38 C29 0.931 . S
H39 C30 0.933 . S
Dy40 O43 2.307 . S
Dy40 O45 2.395 . S
Dy40 O46 2.379 . S
Dy40 O48 2.339 . S
Dy40 O50 2.298 . S
Dy40 O54 2.275 . S
Dy40 C62 2.738 . S
Dy41 O44 2.298 . S
Dy41 O47 2.275 . S
Dy41 O49 2.307 . S
Dy41 O51 2.395 . S
Dy41 O52 2.379 . S
Dy41 O55 2.339 . S
Dy41 C71 2.738 . S
C42 O54 1.254 . S
C42 O55 1.257 . S
O43 Dy40 2.307 . S
O43 C53 1.266 . S
O44 Dy41 2.298 . S
O44 C53 1.236 . S
O45 Dy40 2.395 . S
O45 C62 1.255 . S
O46 Dy40 2.379 . S
O46 C62 1.249 . S
O47 Dy41 2.275 . S
O47 C63 1.254 . S
O48 Dy40 2.339 . S
O48 C63 1.257 . S
O49 Dy41 2.307 . S
O49 C64 1.266 . S
O50 Dy40 2.298 . S
O50 C64 1.236 . S
O51 Dy41 2.395 . S
O51 C71 1.255 . S
O52 Dy41 2.379 . S
O52 C71 1.249 . S
C53 O43 1.266 . S
C53 O44 1.236 . S
O54 Dy40 2.275 . S
O54 C42 1.254 . S
O55 Dy41 2.339 . S
O55 C42 1.257 . S
C56 C59 1.344 . S
C56 C60 1.328 . S
C56 C62 1.516 . S
C57 C58 1.304 . S
C57 C61 1.323 . S
C58 C57 1.304 . S
C58 C59 1.371 . S
C58 H72 0.930 . S
C59 C56 1.344 . S
C59 C58 1.371 . S
C59 H73 0.931 . S
C60 C56 1.328 . S
C60 C61 1.433 . S
C60 H74 0.931 . S
C61 C57 1.323 . S
C61 C60 1.433 . S
C61 H75 0.933 . S
C62 Dy40 2.738 . S
C62 O45 1.255 . S
C62 O46 1.249 . S
C62 C56 1.516 . S
C63 O47 1.254 . S
C63 O48 1.257 . S
C64 O49 1.266 . S
C64 O50 1.236 . S
C65 C68 1.344 . S
C65 C69 1.328 . S
C65 C71 1.516 . S
C66 C67 1.304 . S
C66 C70 1.323 . S
C67 C66 1.304 . S
C67 C68 1.371 . S
C67 H76 0.930 . S
C68 C65 1.344 . S
C68 C67 1.371 . S
C68 H77 0.931 . S
C69 C65 1.328 . S
C69 C70 1.433 . S
C69 H78 0.931 . S
C70 C66 1.323 . S
C70 C69 1.433 . S
C70 H79 0.933 1_655 S
C71 Dy41 2.738 . S
C71 O51 1.255 . S
C71 O52 1.249 . S
C71 C65 1.516 . S
H72 C58 0.930 . S
H73 C59 0.931 . S
H74 C60 0.931 . S
H75 C61 0.933 . S
H76 C67 0.930 . S
H77 C68 0.931 . S
H78 C69 0.931 . S
H79 C70 0.933 1_455 S
Dy80 O83 2.307 . S
Dy80 O85 2.395 . S
Dy80 O86 2.379 . S
Dy80 O88 2.339 . S
Dy80 O90 2.298 . S
Dy80 O94 2.275 . S
Dy80 C102 2.738 . S
Dy81 O84 2.298 . S
Dy81 O87 2.275 . S
Dy81 O89 2.307 . S
Dy81 O91 2.395 . S
Dy81 O92 2.379 . S
Dy81 O95 2.339 . S
Dy81 C111 2.738 . S
C82 O94 1.254 . S
C82 O95 1.257 . S
O83 Dy80 2.307 . S
O83 C93 1.266 . S
O84 Dy81 2.298 . S
O84 C93 1.236 . S
O85 Dy80 2.395 . S
O85 C102 1.255 . S
O86 Dy80 2.379 . S
O86 C102 1.249 . S
O87 Dy81 2.275 . S
O87 C103 1.254 . S
O88 Dy80 2.339 . S
O88 C103 1.257 . S
O89 Dy81 2.307 . S
O89 C104 1.266 . S
O90 Dy80 2.298 . S
O90 C104 1.236 . S
O91 Dy81 2.395 . S
O91 C111 1.255 . S
O92 Dy81 2.379 . S
O92 C111 1.249 . S
C93 O83 1.266 . S
C93 O84 1.236 . S
O94 Dy80 2.275 . S
O94 C82 1.254 . S
O95 Dy81 2.339 . S
O95 C82 1.257 . S
C96 C99 1.344 . S
C96 C100 1.328 . S
C96 C102 1.516 . S
C97 C98 1.304 . S
C97 C101 1.323 . S
C98 C97 1.304 . S
C98 C99 1.371 . S
C98 H112 0.930 . S
C99 C96 1.344 . S
C99 C98 1.371 . S
C99 H113 0.931 . S
C100 C96 1.328 . S
C100 C101 1.433 . S
C100 H114 0.931 . S
C101 C97 1.323 . S
C101 C100 1.433 . S
C101 H115 0.933 . S
C102 Dy80 2.738 . S
C102 O85 1.255 . S
C102 O86 1.249 . S
C102 C96 1.516 . S
C103 O87 1.254 . S
C103 O88 1.257 . S
C104 O89 1.266 . S
C104 O90 1.236 . S
C105 C108 1.344 . S
C105 C109 1.328 . S
C105 C111 1.516 . S
C106 C107 1.304 . S
C106 C110 1.323 . S
C107 C106 1.304 . S
C107 C108 1.371 . S
C107 H116 0.930 . S
C108 C105 1.344 . S
C108 C107 1.371 . S
C108 H117 0.931 . S
C109 C105 1.328 . S
C109 C110 1.433 . S
C109 H118 0.931 . S
C110 C106 1.323 . S
C110 C109 1.433 . S
C110 H119 0.933 1_545 S
C111 Dy81 2.738 . S
C111 O91 1.255 . S
C111 O92 1.249 . S
C111 C105 1.516 . S
H112 C98 0.930 . S
H113 C99 0.931 . S
H114 C100 0.931 . S
H115 C101 0.933 . S
H116 C107 0.930 . S
H117 C108 0.931 . S
H118 C109 0.931 . S
H119 C110 0.933 1_565 S
Dy120 O123 2.307 . S
Dy120 O125 2.395 . S
Dy120 O126 2.379 . S
Dy120 O128 2.339 . S
Dy120 O130 2.298 . S
Dy120 O134 2.275 . S
Dy120 C142 2.738 . S
Dy121 O124 2.298 . S
Dy121 O127 2.275 . S
Dy121 O129 2.307 . S
Dy121 O131 2.395 . S
Dy121 O132 2.379 . S
Dy121 O135 2.339 . S
Dy121 C151 2.738 . S
C122 O134 1.254 . S
C122 O135 1.257 . S
O123 Dy120 2.307 . S
O123 C133 1.266 . S
O124 Dy121 2.298 . S
O124 C133 1.236 . S
O125 Dy120 2.395 . S
O125 C142 1.255 . S
O126 Dy120 2.379 . S
O126 C142 1.249 . S
O127 Dy121 2.275 . S
O127 C143 1.254 . S
O128 Dy120 2.339 . S
O128 C143 1.257 . S
O129 Dy121 2.307 . S
O129 C144 1.266 . S
O130 Dy120 2.298 . S
O130 C144 1.236 . S
O131 Dy121 2.395 . S
O131 C151 1.255 . S
O132 Dy121 2.379 . S
O132 C151 1.249 . S
C133 O123 1.266 . S
C133 O124 1.236 . S
O134 Dy120 2.275 . S
O134 C122 1.254 . S
O135 Dy121 2.339 . S
O135 C122 1.257 . S
C136 C139 1.344 . S
C136 C140 1.328 . S
C136 C142 1.516 . S
C137 C138 1.304 . S
C137 C141 1.323 . S
C138 C137 1.304 . S
C138 C139 1.371 . S
C138 H152 0.930 . S
C139 C136 1.344 . S
C139 C138 1.371 . S
C139 H153 0.931 . S
C140 C136 1.328 . S
C140 C141 1.433 . S
C140 H154 0.931 . S
C141 C137 1.323 . S
C141 C140 1.433 . S
C141 H155 0.933 . S
C142 Dy120 2.738 . S
C142 O125 1.255 . S
C142 O126 1.249 . S
C142 C136 1.516 . S
C143 O127 1.254 . S
C143 O128 1.257 . S
C144 O129 1.266 . S
C144 O130 1.236 . S
C145 C148 1.344 . S
C145 C149 1.328 . S
C145 C151 1.516 . S
C146 C147 1.304 . S
C146 C150 1.323 . S
C147 C146 1.304 . S
C147 C148 1.371 . S
C147 H156 0.930 . S
C148 C145 1.344 . S
C148 C147 1.371 . S
C148 H157 0.931 . S
C149 C145 1.328 . S
C149 C150 1.433 . S
C149 H158 0.931 . S
C150 C146 1.323 . S
C150 C149 1.433 . S
C150 H159 0.933 . S
C151 Dy121 2.738 . S
C151 O131 1.255 . S
C151 O132 1.249 . S
C151 C145 1.516 . S
H152 C138 0.930 . S
H153 C139 0.931 . S
H154 C140 0.931 . S
H155 C141 0.933 . S
H156 C147 0.930 . S
H157 C148 0.931 . S
H158 C149 0.931 . S
H159 C150 0.933 . S
Dy160 O163 2.307 . S
Dy160 O165 2.395 . S
Dy160 O166 2.379 . S
Dy160 O168 2.339 . S
Dy160 O170 2.298 . S
Dy160 O174 2.275 . S
Dy160 C182 2.738 . S
Dy161 O164 2.298 . S
Dy161 O167 2.275 . S
Dy161 O169 2.307 . S
Dy161 O171 2.395 . S
Dy161 O172 2.379 . S
Dy161 O175 2.339 . S
Dy161 C191 2.738 . S
C162 O174 1.254 . S
C162 O175 1.257 . S
O163 Dy160 2.307 . S
O163 C173 1.266 . S
O164 Dy161 2.298 . S
O164 C173 1.236 . S
O165 Dy160 2.395 . S
O165 C182 1.255 . S
O166 Dy160 2.379 . S
O166 C182 1.249 . S
O167 Dy161 2.275 . S
O167 C183 1.254 . S
O168 Dy160 2.339 . S
O168 C183 1.257 . S
O169 Dy161 2.307 . S
O169 C184 1.266 . S
O170 Dy160 2.298 . S
O170 C184 1.236 . S
O171 Dy161 2.395 . S
O171 C191 1.255 . S
O172 Dy161 2.379 . S
O172 C191 1.249 . S
C173 O163 1.266 . S
C173 O164 1.236 . S
O174 Dy160 2.275 . S
O174 C162 1.254 . S
O175 Dy161 2.339 . S
O175 C162 1.257 . S
C176 C179 1.344 . S
C176 C180 1.328 . S
C176 C182 1.516 . S
C177 C178 1.304 . S
C177 C181 1.323 . S
C178 C177 1.304 . S
C178 C179 1.371 . S
C178 H192 0.930 . S
C179 C176 1.344 . S
C179 C178 1.371 . S
C179 H193 0.931 . S
C180 C176 1.328 . S
C180 C181 1.433 . S
C180 H194 0.931 . S
C181 C177 1.323 . S
C181 C180 1.433 . S
C181 H195 0.933 . S
C182 Dy160 2.738 . S
C182 O165 1.255 . S
C182 O166 1.249 . S
C182 C176 1.516 . S
C183 O167 1.254 . S
C183 O168 1.257 . S
C184 O169 1.266 . S
C184 O170 1.236 . S
C185 C188 1.344 . S
C185 C189 1.328 . S
C185 C191 1.516 . S
C186 C187 1.304 . S
C186 C190 1.323 . S
C187 C186 1.304 . S
C187 C188 1.371 . S
C187 H196 0.930 . S
C188 C185 1.344 . S
C188 C187 1.371 . S
C188 H197 0.931 . S
C189 C185 1.328 . S
C189 C190 1.433 . S
C189 H198 0.931 . S
C190 C186 1.323 . S
C190 C189 1.433 . S
C190 H199 0.933 1_455 S
C191 Dy161 2.738 . S
C191 O171 1.255 . S
C191 O172 1.249 . S
C191 C185 1.516 . S
H192 C178 0.930 . S
H193 C179 0.931 . S
H194 C180 0.931 . S
H195 C181 0.933 . S
H196 C187 0.930 . S
H197 C188 0.931 . S
H198 C189 0.931 . S
H199 C190 0.933 1_655 S
Dy200 O203 2.307 . S
Dy200 O205 2.395 . S
Dy200 O206 2.379 . S
Dy200 O208 2.339 . S
Dy200 O210 2.298 . S
Dy200 O214 2.275 . S
Dy200 C222 2.738 . S
Dy201 O204 2.298 . S
Dy201 O207 2.275 . S
Dy201 O209 2.307 . S
Dy201 O211 2.395 . S
Dy201 O212 2.379 . S
Dy201 O215 2.339 . S
Dy201 C231 2.738 . S
C202 O214 1.254 . S
C202 O215 1.257 . S
O203 Dy200 2.307 . S
O203 C213 1.266 . S
O204 Dy201 2.298 . S
O204 C213 1.236 . S
O205 Dy200 2.395 . S
O205 C222 1.255 . S
O206 Dy200 2.379 . S
O206 C222 1.249 . S
O207 Dy201 2.275 . S
O207 C223 1.254 . S
O208 Dy200 2.339 . S
O208 C223 1.257 . S
O209 Dy201 2.307 . S
O209 C224 1.266 . S
O210 Dy200 2.298 . S
O210 C224 1.236 . S
O211 Dy201 2.395 . S
O211 C231 1.255 . S
O212 Dy201 2.379 . S
O212 C231 1.249 . S
C213 O203 1.266 . S
C213 O204 1.236 . S
O214 Dy200 2.275 . S
O214 C202 1.254 . S
O215 Dy201 2.339 . S
O215 C202 1.257 . S
C216 C219 1.344 . S
C216 C220 1.328 . S
C216 C222 1.516 . S
C217 C218 1.304 . S
C217 C221 1.323 . S
C218 C217 1.304 . S
C218 C219 1.371 . S
C218 H232 0.930 . S
C219 C216 1.344 . S
C219 C218 1.371 . S
C219 H233 0.931 . S
C220 C216 1.328 . S
C220 C221 1.433 . S
C220 H234 0.931 . S
C221 C217 1.323 . S
C221 C220 1.433 . S
C221 H235 0.933 . S
C222 Dy200 2.738 . S
C222 O205 1.255 . S
C222 O206 1.249 . S
C222 C216 1.516 . S
C223 O207 1.254 . S
C223 O208 1.257 . S
C224 O209 1.266 . S
C224 O210 1.236 . S
C225 C228 1.344 . S
C225 C229 1.328 . S
C225 C231 1.516 . S
C226 C227 1.304 . S
C226 C230 1.323 . S
C227 C226 1.304 . S
C227 C228 1.371 . S
C227 H236 0.930 . S
C228 C225 1.344 . S
C228 C227 1.371 . S
C228 H237 0.931 . S
C229 C225 1.328 . S
C229 C230 1.433 . S
C229 H238 0.931 . S
C230 C226 1.323 . S
C230 C229 1.433 . S
C230 H239 0.933 1_565 S
C231 Dy201 2.738 . S
C231 O211 1.255 . S
C231 O212 1.249 . S
C231 C225 1.516 . S
H232 C218 0.930 . S
H233 C219 0.931 . S
H234 C220 0.931 . S
H235 C221 0.933 . S
H236 C227 0.930 . S
H237 C228 0.931 . S
H238 C229 0.931 . S
H239 C230 0.933 1_545 S
H240 C248 0.950 . S
H241 C253 0.950 . S
H242 C250 0.950 1_554 S
H243 C252 0.950 1_545 S
H244 C254 0.950 . S
H245 C256 0.950 1_556 S
H246 C258 0.950 1_565 S
H247 C259 0.950 . S
C248 H240 0.950 . S
C248 C249 1.386 . S
C248 C250 1.391 . S
C249 C248 1.386 . S
C249 C253 1.393 . S
C250 H242 0.950 1_556 S
C250 C248 1.391 . S
C250 C251 1.400 . S
C251 C250 1.400 . S
C251 C252 1.398 . S
C251 C257 1.491 1_566 S
C252 H243 0.950 1_565 S
C252 C251 1.398 . S
C252 C253 1.391 . S
C253 H241 0.950 . S
C253 C249 1.393 . S
C253 C252 1.391 . S
C254 H244 0.950 . S
C254 C255 1.386 . S
C254 C256 1.391 . S
C255 C254 1.386 . S
C255 C259 1.393 . S
C256 H245 0.950 1_554 S
C256 C254 1.391 . S
C256 C257 1.400 . S
C257 C251 1.491 1_544 S
C257 C256 1.400 . S
C257 C258 1.398 . S
C258 H246 0.950 1_545 S
C258 C257 1.398 . S
C258 C259 1.391 . S
C259 H247 0.950 . S
C259 C255 1.393 . S
C259 C258 1.391 . S
H260 C268 0.950 . S
H261 C273 0.950 . S
H262 C270 0.950 . S
H263 C272 0.950 . S
H264 C274 0.950 . S
H265 C276 0.950 . S
H266 C278 0.950 . S
H267 C279 0.950 . S
C268 H260 0.950 . S
C268 C269 1.386 . S
C268 C270 1.391 . S
C269 C268 1.386 . S
C269 C273 1.393 . S
C270 H262 0.950 . S
C270 C268 1.391 . S
C270 C271 1.400 . S
C271 C270 1.400 . S
C271 C272 1.398 . S
C271 C277 1.491 . S
C272 H263 0.950 . S
C272 C271 1.398 . S
C272 C273 1.391 . S
C273 H261 0.950 . S
C273 C269 1.393 . S
C273 C272 1.391 . S
C274 H264 0.950 . S
C274 C275 1.386 . S
C274 C276 1.391 . S
C275 C274 1.386 . S
C275 C279 1.393 . S
C276 H265 0.950 . S
C276 C274 1.391 . S
C276 C277 1.400 . S
C277 C271 1.491 . S
C277 C276 1.400 . S
C277 C278 1.398 . S
C278 H266 0.950 . S
C278 C277 1.398 . S
C278 C279 1.391 . S
C279 H267 0.950 . S
C279 C275 1.393 . S
C279 C278 1.391 . S
H280 C288 0.950 . S
H281 C293 0.950 . S
H282 C290 0.950 . S
H283 C292 0.922 1_455 S
H284 C294 0.950 . S
H285 C296 0.950 . S
H286 C298 0.922 1_655 S
H287 C299 0.950 . S
C288 H280 0.950 . S
C288 C289 1.386 . S
C288 C290 1.391 . S
C289 C288 1.386 . S
C289 C293 1.393 . S
C290 H282 0.950 . S
C290 C288 1.391 . S
C290 C291 1.400 . S
C291 C290 1.400 . S
C291 C292 1.398 . S
C291 C297 1.491 1_654 S
C292 H283 0.922 1_655 S
C292 C291 1.398 . S
C292 C293 1.391 . S
C293 H281 0.950 . S
C293 C289 1.393 . S
C293 C292 1.391 . S
C294 H284 0.950 . S
C294 C295 1.386 . S
C294 C296 1.391 . S
C295 C294 1.386 . S
C295 C299 1.393 . S
C296 H285 0.950 . S
C296 C294 1.391 . S
C296 C297 1.400 . S
C297 C291 1.491 1_456 S
C297 C296 1.400 . S
C297 C298 1.398 . S
C298 H286 0.922 1_455 S
C298 C297 1.398 . S
C298 C299 1.391 . S
C299 H287 0.950 . S
C299 C295 1.393 . S
C299 C298 1.391 . S
H300 C308 0.950 . S
H301 C313 0.950 . S
H302 C310 0.950 1_565 S
H303 C312 0.950 . S
H304 C314 0.950 . S
H305 C316 0.950 1_545 S
H306 C318 0.950 . S
H307 C319 0.950 . S
C308 H300 0.950 . S
C308 C309 1.386 . S
C308 C310 1.391 . S
C309 C308 1.386 . S
C309 C313 1.393 . S
C310 H302 0.950 1_545 S
C310 C308 1.391 . S
C310 C311 1.400 . S
C311 C310 1.400 . S
C311 C312 1.398 . S
C311 C317 1.491 1_545 S
C312 H303 0.950 . S
C312 C311 1.398 . S
C312 C313 1.391 . S
C313 H301 0.950 . S
C313 C309 1.393 . S
C313 C312 1.391 . S
C314 H304 0.950 . S
C314 C315 1.386 . S
C314 C316 1.391 . S
C315 C314 1.386 . S
C315 C319 1.393 . S
C316 H305 0.950 1_565 S
C316 C314 1.391 . S
C316 C317 1.400 . S
C317 C311 1.491 1_565 S
C317 C316 1.400 . S
C317 C318 1.398 . S
C318 H306 0.950 . S
C318 C317 1.398 . S
C318 C319 1.391 . S
C319 H307 0.950 . S
C319 C315 1.393 . S
C319 C318 1.391 . S
H320 C328 0.950 . S
H321 C333 0.950 . S
H322 C330 0.950 1_554 S
H323 C332 0.950 . S
H324 C334 0.950 . S
H325 C336 0.950 1_556 S
H326 C338 0.950 . S
H327 C339 0.950 . S
C328 H320 0.950 . S
C328 C329 1.386 . S
C328 C330 1.391 . S
C329 C328 1.386 . S
C329 C333 1.393 . S
C330 H322 0.950 1_556 S
C330 C328 1.391 . S
C330 C331 1.400 . S
C331 C330 1.400 . S
C331 C332 1.398 . S
C331 C337 1.491 1_556 S
C332 H323 0.950 . S
C332 C331 1.398 . S
C332 C333 1.391 . S
C333 H321 0.950 . S
C333 C329 1.393 . S
C333 C332 1.391 . S
C334 H324 0.950 . S
C334 C335 1.386 . S
C334 C336 1.391 . S
C335 C334 1.386 . S
C335 C339 1.393 . S
C336 H325 0.950 1_554 S
C336 C334 1.391 . S
C336 C337 1.400 . S
C337 C331 1.491 1_554 S
C337 C336 1.400 . S
C337 C338 1.398 . S
C338 H326 0.950 . S
C338 C337 1.398 . S
C338 C339 1.391 . S
C339 H327 0.950 . S
C339 C335 1.393 . S
C339 C338 1.391 . S
H340 C348 0.950 . S
H341 C353 0.950 . S
H342 C350 0.950 1_455 S
H343 C352 0.950 . S
H344 C354 0.950 . S
H345 C356 0.950 1_655 S
H346 C358 0.950 . S
H347 C359 0.950 . S
C348 H340 0.950 . S
C348 C349 1.386 . S
C348 C350 1.391 . S
C349 C348 1.386 . S
C349 C353 1.393 . S
C350 H342 0.950 1_655 S
C350 C348 1.391 . S
C350 C351 1.400 . S
C351 C350 1.400 . S
C351 C352 1.398 . S
C351 C357 1.491 1_655 S
C352 H343 0.950 . S
C352 C351 1.398 . S
C352 C353 1.391 . S
C353 H341 0.950 . S
C353 C349 1.393 . S
C353 C352 1.391 . S
C354 H344 0.950 . S
C354 C355 1.386 . S
C354 C356 1.391 . S
C355 C354 1.386 . S
C355 C359 1.393 . S
C356 H345 0.950 1_455 S
C356 C354 1.391 . S
C356 C357 1.400 . S
C357 C351 1.491 1_455 S
C357 C356 1.400 . S
C357 C358 1.398 . S
C358 H346 0.950 . S
C358 C357 1.398 . S
C358 C359 1.391 . S
C359 H347 0.950 . S
C359 C355 1.393 . S
C359 C358 1.391 . S
H360 C368 0.950 . S
H361 C373 0.950 . S
H362 C370 0.950 . S
H363 C372 0.950 . S
H364 C374 0.950 . S
H365 C376 0.950 . S
H366 C378 0.950 . S
H367 C379 0.950 . S
C368 H360 0.950 . S
C368 C369 1.386 . S
C368 C370 1.391 . S
C369 C368 1.386 . S
C369 C373 1.393 . S
C370 H362 0.950 . S
C370 C368 1.391 . S
C370 C371 1.400 . S
C371 C370 1.400 . S
C371 C372 1.398 . S
C371 C377 1.491 . S
C372 H363 0.950 . S
C372 C371 1.398 . S
C372 C373 1.391 . S
C373 H361 0.950 . S
C373 C369 1.393 . S
C373 C372 1.391 . S
C374 H364 0.950 . S
C374 C375 1.386 . S
C374 C376 1.391 . S
C375 C374 1.386 . S
C375 C379 1.393 . S
C376 H365 0.950 . S
C376 C374 1.391 . S
C376 C377 1.400 . S
C377 C371 1.491 . S
C377 C376 1.400 . S
C377 C378 1.398 . S
C378 H366 0.950 . S
C378 C377 1.398 . S
C378 C379 1.391 . S
C379 H367 0.950 . S
C379 C375 1.393 . S
C379 C378 1.391 . S
H380 C388 0.950 . S
H381 C393 0.950 . S
H382 C390 0.950 . S
H383 C392 0.950 . S
H384 C394 0.950 . S
H385 C396 0.950 . S
H386 C398 0.950 . S
H387 C399 0.950 . S
C388 H380 0.950 . S
C388 C389 1.386 . S
C388 C390 1.391 . S
C389 C388 1.386 . S
C389 C393 1.393 . S
C390 H382 0.950 . S
C390 C388 1.391 . S
C390 C391 1.400 . S
C391 C390 1.400 . S
C391 C392 1.398 . S
C391 C397 1.491 . S
C392 H383 0.950 . S
C392 C391 1.398 . S
C392 C393 1.391 . S
C393 H381 0.950 . S
C393 C389 1.393 . S
C393 C392 1.391 . S
C394 H384 0.950 . S
C394 C395 1.386 . S
C394 C396 1.391 . S
C395 C394 1.386 . S
C395 C399 1.393 . S
C396 H385 0.950 . S
C396 C394 1.391 . S
C396 C397 1.400 . S
C397 C391 1.491 . S
C397 C396 1.400 . S
C397 C398 1.398 . S
C398 H386 0.950 . S
C398 C397 1.398 . S
C398 C399 1.391 . S
C399 H387 0.950 . S
C399 C395 1.393 . S
C399 C398 1.391 . S
H400 C408 0.950 . S
H401 C413 0.950 . S
H402 C410 0.950 . S
H403 C412 0.950 . S
H404 C414 0.950 . S
H405 C416 0.950 . S
H406 C418 0.950 . S
H407 C419 0.950 . S
C408 H400 0.950 . S
C408 C409 1.386 . S
C408 C410 1.391 . S
C409 C408 1.386 . S
C409 C413 1.393 . S
C410 H402 0.950 . S
C410 C408 1.391 . S
C410 C411 1.400 . S
C411 C410 1.400 . S
C411 C412 1.398 . S
C411 C417 1.491 . S
C412 H403 0.950 . S
C412 C411 1.398 . S
C412 C413 1.391 . S
C413 H401 0.950 . S
C413 C409 1.393 . S
C413 C412 1.391 . S
C414 H404 0.950 . S
C414 C415 1.386 . S
C414 C416 1.391 . S
C415 C414 1.386 . S
C415 C419 1.393 . S
C416 H405 0.950 . S
C416 C414 1.391 . S
C416 C417 1.400 . S
C417 C411 1.491 . S
C417 C416 1.400 . S
C417 C418 1.398 . S
C418 H406 0.950 . S
C418 C417 1.398 . S
C418 C419 1.391 . S
C419 H407 0.950 . S
C419 C415 1.393 . S
C419 C418 1.391 . S
H420 C428 0.950 . S
H421 C433 0.950 . S
H422 C430 0.950 . S
H423 C432 0.950 . S
H424 C434 0.950 . S
H425 C436 0.950 . S
H426 C438 0.950 . S
H427 C439 0.950 . S
C428 H420 0.950 . S
C428 C429 1.386 . S
C428 C430 1.391 . S
C429 C428 1.386 . S
C429 C433 1.393 . S
C430 H422 0.950 . S
C430 C428 1.391 . S
C430 C431 1.400 . S
C431 C430 1.400 . S
C431 C432 1.398 . S
C431 C437 1.491 . S
C432 H423 0.950 . S
C432 C431 1.398 . S
C432 C433 1.391 . S
C433 H421 0.950 . S
C433 C429 1.393 . S
C433 C432 1.391 . S
C434 H424 0.950 . S
C434 C435 1.386 . S
C434 C436 1.391 . S
C435 C434 1.386 . S
C435 C439 1.393 . S
C436 H425 0.950 . S
C436 C434 1.391 . S
C436 C437 1.400 . S
C437 C431 1.491 . S
C437 C436 1.400 . S
C437 C438 1.398 . S
C438 H426 0.950 . S
C438 C437 1.398 . S
C438 C439 1.391 . S
C439 H427 0.950 . S
C439 C435 1.393 . S
C439 C438 1.391 . S
H440 C448 0.950 . S
H441 C453 0.950 . S
H442 C450 0.950 . S
H443 C452 0.950 . S
H444 C454 0.950 . S
H445 C456 0.950 . S
H446 C458 0.950 . S
H447 C459 0.950 . S
C448 H440 0.950 . S
C448 C449 1.386 . S
C448 C450 1.391 . S
C449 C448 1.386 . S
C449 C453 1.393 . S
C450 H442 0.950 . S
C450 C448 1.391 . S
C450 C451 1.400 . S
C451 C450 1.400 . S
C451 C452 1.398 . S
C451 C457 1.491 . S
C452 H443 0.950 . S
C452 C451 1.398 . S
C452 C453 1.391 . S
C453 H441 0.950 . S
C453 C449 1.393 . S
C453 C452 1.391 . S
C454 H444 0.950 . S
C454 C455 1.386 . S
C454 C456 1.391 . S
C455 C454 1.386 . S
C455 C459 1.393 . S
C456 H445 0.950 . S
C456 C454 1.391 . S
C456 C457 1.400 . S
C457 C451 1.491 . S
C457 C456 1.400 . S
C457 C458 1.398 . S
C458 H446 0.950 . S
C458 C457 1.398 . S
C458 C459 1.391 . S
C459 H447 0.950 . S
C459 C455 1.393 . S
C459 C458 1.391 . S
H460 C468 0.950 . S
H461 C473 0.950 . S
H462 C470 0.950 . S
H463 C472 0.950 . S
H464 C474 0.950 . S
H465 C476 0.950 . S
H466 C478 0.950 . S
H467 C479 0.950 . S
C468 H460 0.950 . S
C468 C469 1.386 . S
C468 C470 1.391 . S
C469 C468 1.386 . S
C469 C473 1.393 . S
C470 H462 0.950 . S
C470 C468 1.391 . S
C470 C471 1.400 . S
C471 C470 1.400 . S
C471 C472 1.398 . S
C471 C477 1.491 . S
C472 H463 0.950 . S
C472 C471 1.398 . S
C472 C473 1.391 . S
C473 H461 0.950 . S
C473 C469 1.393 . S
C473 C472 1.391 . S
C474 H464 0.950 . S
C474 C475 1.386 . S
C474 C476 1.391 . S
C475 C474 1.386 . S
C475 C479 1.393 . S
C476 H465 0.950 . S
C476 C474 1.391 . S
C476 C477 1.400 . S
C477 C471 1.491 . S
C477 C476 1.400 . S
C477 C478 1.398 . S
C478 H466 0.950 . S
C478 C477 1.398 . S
C478 C479 1.391 . S
C479 H467 0.950 . S
C479 C475 1.393 . S
C479 C478 1.391 . S
H480 C488 0.950 . S
H481 C493 0.950 . S
H482 C490 0.950 . S
H483 C492 0.969 . S
H484 C494 0.950 . S
H485 C496 0.950 . S
H486 C498 0.950 . S
H487 C499 0.950 . S
C488 H480 0.950 . S
C488 C489 1.386 . S
C488 C490 1.391 . S
C489 C488 1.386 . S
C489 C493 1.393 . S
C490 H482 0.950 . S
C490 C488 1.391 . S
C490 C491 1.400 . S
C491 C490 1.400 . S
C491 C492 1.398 . S
C491 C497 1.491 . S
C492 H483 0.969 . S
C492 C491 1.398 . S
C492 C493 1.391 . S
C493 H481 0.950 . S
C493 C489 1.393 . S
C493 C492 1.391 . S
C494 H484 0.950 . S
C494 C495 1.386 . S
C494 C496 1.391 . S
C495 C494 1.386 . S
C495 C499 1.393 1_655 S
C496 H485 0.950 . S
C496 C494 1.391 . S
C496 C497 1.400 1_655 S
C497 C491 1.491 . S
C497 C496 1.400 1_455 S
C497 C498 1.398 . S
C498 H486 0.950 . S
C498 C497 1.398 . S
C498 C499 1.391 . S
C499 H487 0.950 . S
C499 C495 1.393 1_455 S
C499 C498 1.391 . S
H500 C508 0.950 . S
H501 C513 0.950 . S
H502 C510 0.950 . S
H503 C512 0.950 . S
H504 C514 0.950 . S
H505 C516 0.950 . S
H506 C518 0.950 . S
H507 C519 0.950 . S
C508 H500 0.950 . S
C508 C509 1.386 . S
C508 C510 1.391 . S
C509 C508 1.386 . S
C509 C513 1.393 . S
C510 H502 0.950 . S
C510 C508 1.391 . S
C510 C511 1.400 . S
C511 C510 1.400 . S
C511 C512 1.398 . S
C511 C517 1.491 . S
C512 H503 0.950 . S
C512 C511 1.398 . S
C512 C513 1.391 . S
C513 H501 0.950 . S
C513 C509 1.393 . S
C513 C512 1.391 . S
C514 H504 0.950 . S
C514 C515 1.386 1_565 S
C514 C516 1.391 . S
C515 C514 1.386 1_545 S
C515 C519 1.393 . S
C516 H505 0.950 . S
C516 C514 1.391 . S
C516 C517 1.400 . S
C517 C511 1.491 . S
C517 C516 1.400 . S
C517 C518 1.398 1_565 S
C518 H506 0.950 . S
C518 C517 1.398 1_545 S
C518 C519 1.391 . S
C519 H507 0.950 . S
C519 C515 1.393 . S
C519 C518 1.391 . S
H520 C528 0.950 . S
H521 C533 0.950 . S
H522 C530 0.950 . S
H523 C532 0.950 . S
H524 C534 0.950 . S
H525 C536 0.950 . S
H526 C538 0.950 . S
H527 C539 0.950 . S
C528 H520 0.950 . S
C528 C529 1.386 . S
C528 C530 1.391 . S
C529 C528 1.386 . S
C529 C533 1.393 . S
C530 H522 0.950 . S
C530 C528 1.391 . S
C530 C531 1.400 . S
C531 C530 1.400 . S
C531 C532 1.398 . S
C531 C537 1.491 . S
C532 H523 0.950 . S
C532 C531 1.398 . S
C532 C533 1.391 . S
C533 H521 0.950 . S
C533 C529 1.393 . S
C533 C532 1.391 . S
C534 H524 0.950 . S
C534 C535 1.386 . S
C534 C536 1.391 . S
C535 C534 1.386 . S
C535 C539 1.393 . S
C536 H525 0.950 . S
C536 C534 1.391 . S
C536 C537 1.400 . S
C537 C531 1.491 . S
C537 C536 1.400 . S
C537 C538 1.398 . S
C538 H526 0.950 . S
C538 C537 1.398 . S
C538 C539 1.391 . S
C539 H527 0.950 . S
C539 C535 1.393 . S
C539 C538 1.391 . S
H540 C548 0.950 . S
H541 C553 0.950 . S
H542 C550 0.950 . S
H543 C552 0.967 . S
H544 C554 0.950 . S
H545 C556 0.950 . S
H546 C558 0.950 . S
H547 C559 0.950 . S
C548 H540 0.950 . S
C548 C549 1.386 . S
C548 C550 1.391 . S
C549 C548 1.386 . S
C549 C553 1.393 . S
C550 H542 0.950 . S
C550 C548 1.391 . S
C550 C551 1.400 . S
C551 C550 1.400 . S
C551 C552 1.398 . S
C551 C557 1.491 . S
C552 H543 0.967 . S
C552 C551 1.398 . S
C552 C553 1.391 . S
C553 H541 0.950 . S
C553 C549 1.393 . S
C553 C552 1.391 . S
C554 H544 0.950 . S
C554 C555 1.386 . S
C554 C556 1.391 . S
C555 C554 1.386 . S
C555 C559 1.393 1_565 S
C556 H545 0.950 . S
C556 C554 1.391 . S
C556 C557 1.400 1_565 S
C557 C551 1.491 . S
C557 C556 1.400 1_545 S
C557 C558 1.398 . S
C558 H546 0.950 . S
C558 C557 1.398 . S
C558 C559 1.391 . S
C559 H547 0.950 . S
C559 C555 1.393 1_545 S
C559 C558 1.391 . S
H560 C568 0.950 . S
H561 C573 0.950 . S
H562 C570 0.950 . S
H563 C572 0.950 . S
H564 C574 0.950 . S
H565 C576 0.950 . S
H566 C578 0.950 . S
H567 C579 0.950 . S
C568 H560 0.950 . S
C568 C569 1.386 . S
C568 C570 1.391 . S
C569 C568 1.386 . S
C569 C573 1.393 . S
C570 H562 0.950 . S
C570 C568 1.391 . S
C570 C571 1.400 . S
C571 C570 1.400 . S
C571 C572 1.398 . S
C571 C577 1.491 . S
C572 H563 0.950 . S
C572 C571 1.398 . S
C572 C573 1.391 . S
C573 H561 0.950 . S
C573 C569 1.393 . S
C573 C572 1.391 . S
C574 H564 0.950 . S
C574 C575 1.386 . S
C574 C576 1.391 . S
C575 C574 1.386 . S
C575 C579 1.393 . S
C576 H565 0.950 . S
C576 C574 1.391 . S
C576 C577 1.400 . S
C577 C571 1.491 . S
C577 C576 1.400 . S
C577 C578 1.398 . S
C578 H566 0.950 . S
C578 C577 1.398 . S
C578 C579 1.391 . S
C579 H567 0.950 . S
C579 C575 1.393 . S
C579 C578 1.391 . S
H580 C588 0.950 . S
H581 C593 0.950 . S
H582 C590 0.950 . S
H583 C592 0.952 . S
H584 C594 0.950 . S
H585 C596 0.950 . S
H586 C598 0.950 . S
H587 C599 0.950 . S
C588 H580 0.950 . S
C588 C589 1.386 1_655 S
C588 C590 1.391 . S
C589 C588 1.386 1_455 S
C589 C593 1.393 . S
C590 H582 0.950 . S
C590 C588 1.391 . S
C590 C591 1.400 . S
C591 C590 1.400 . S
C591 C592 1.398 . S
C591 C597 1.491 . S
C592 H583 0.952 . S
C592 C591 1.398 . S
C592 C593 1.391 1_655 S
C593 H581 0.950 . S
C593 C589 1.393 . S
C593 C592 1.391 1_455 S
C594 H584 0.950 . S
C594 C595 1.386 . S
C594 C596 1.391 . S
C595 C594 1.386 . S
C595 C599 1.393 . S
C596 H585 0.950 . S
C596 C594 1.391 . S
C596 C597 1.400 . S
C597 C591 1.491 . S
C597 C596 1.400 . S
C597 C598 1.398 . S
C598 H586 0.950 . S
C598 C597 1.398 . S
C598 C599 1.391 . S
C599 H587 0.950 . S
C599 C595 1.393 . S
C599 C598 1.391 . S
C249 C183 2.273 . S
C255 C23 2.284 . S
C269 C202 2.509 . S
C275 C42 2.501 . S
C289 C103 2.273 . S
C295 C143 2.277 . S
C309 C2 2.509 . S
C315 C162 2.499 . S
C329 C223 2.284 . S
C335 C63 2.297 . S
C349 C82 2.505 . S
C355 C122 2.491 . S
C369 C17 1.794 . S
C375 C104 1.806 . S
C389 C57 1.807 . S
C395 C24 1.819 . S
C409 C97 1.813 . S
C415 C64 1.821 . S
C429 C137 1.808 . S
C435 C184 1.819 . S
C449 C177 1.813 . S
C455 C224 1.822 . S
C469 C144 1.803 . S
C475 C217 1.794 . S
C489 C26 1.029 . S
C495 C93 1.018 . S
C509 C66 1.015 1_455 S
C515 C13 1.013 . S
C529 C106 1.031 1_565 S
C535 C53 1.021 . S
C549 C146 1.029 . S
C555 C173 1.019 . S
C569 C186 1.017 1_655 S
C575 C213 1.006 . S
C589 C133 1.031 . S
C595 C226 1.039 1_545 S
