# Generated by pormake.
# Topology mdf, (4)-cn, num edge types: 1
# Building blocks:
#     Node 0, Type 0, BuildingBlock: QUQFOY_clean_sbu_1, # of connection points: 4
#     Node 1, Type 0, BuildingBlock: QUQFOY_clean_sbu_1, # of connection points: 4
#     Node 2, Type 0, BuildingBlock: QUQFOY_clean_sbu_1, # of connection points: 4
#     Node 3, Type 0, BuildingBlock: QUQFOY_clean_sbu_1, # of connection points: 4
#     Node 4, Type 0, BuildingBlock: QUQFOY_clean_sbu_1, # of connection points: 4
#     Node 5, Type 0, BuildingBlock: QUQFOY_clean_sbu_1, # of connection points: 4
#     Node 6, Type 0, BuildingBlock: QUQFOY_clean_sbu_1, # of connection points: 4
#     Node 7, Type 0, BuildingBlock: QUQFOY_clean_sbu_1, # of connection points: 4
#     Edge 8, Type (0, 0), BuildingBlock: MIFKUJ_clean_linker_0, # of connection points: 2
#     Edge 9, Type (0, 0), BuildingBlock: MIFKUJ_clean_linker_0, # of connection points: 2
#     Edge 10, Type (0, 0), BuildingBlock: MIFKUJ_clean_linker_0, # of connection points: 2
#     Edge 11, Type (0, 0), BuildingBlock: MIFKUJ_clean_linker_0, # of connection points: 2
#     Edge 12, Type (0, 0), BuildingBlock: MIFKUJ_clean_linker_0, # of connection points: 2
#     Edge 13, Type (0, 0), BuildingBlock: MIFKUJ_clean_linker_0, # of connection points: 2
#     Edge 14, Type (0, 0), BuildingBlock: MIFKUJ_clean_linker_0, # of connection points: 2
#     Edge 15, Type (0, 0), BuildingBlock: MIFKUJ_clean_linker_0, # of connection points: 2
#     Edge 16, Type (0, 0), BuildingBlock: MIFKUJ_clean_linker_0, # of connection points: 2
#     Edge 17, Type (0, 0), BuildingBlock: MIFKUJ_clean_linker_0, # of connection points: 2
#     Edge 18, Type (0, 0), BuildingBlock: MIFKUJ_clean_linker_0, # of connection points: 2
#     Edge 19, Type (0, 0), BuildingBlock: MIFKUJ_clean_linker_0, # of connection points: 2
#     Edge 20, Type (0, 0), BuildingBlock: MIFKUJ_clean_linker_0, # of connection points: 2
#     Edge 21, Type (0, 0), BuildingBlock: MIFKUJ_clean_linker_0, # of connection points: 2
#     Edge 22, Type (0, 0), BuildingBlock: MIFKUJ_clean_linker_0, # of connection points: 2
#     Edge 23, Type (0, 0), BuildingBlock: MIFKUJ_clean_linker_0, # of connection points: 2
# Relax obj value: 0.009
# Max RMSD: 0.069
# Mean RMSD: 0.069
data_MOF--net-mdf--node1-QUQFOY_clean_sbu_1--edge1-MIFKUJ_clean_linker_0
_symmetry_space_group_name_H-M    P1
_symmetry_Int_Tables_number       1
_symmetry_cell_setting            triclinic
loop_
_symmetry_equiv_pos_as_xyz
'x, y, z'
_cell_length_a     50.983315
_cell_length_b     50.983886
_cell_length_c     15.798818
_cell_angle_alpha  89.997476
_cell_angle_beta   90.035216
_cell_angle_gamma 89.921548
loop_
_atom_site_label
_atom_site_type_symbol
_atom_site_fract_x
_atom_site_fract_y
_atom_site_fract_z
_atom_type_partial_charge
O0 O 0.29824 0.50718 0.34589 0.0
Cd1 Cd 0.26902 0.52845 0.28766 0.0
Cd2 Cd 0.24978 0.52858 0.45117 0.0
O3 O 0.28491 0.50915 0.4786 0.0
O4 O 0.28551 0.53953 0.17864 0.0
O5 O 0.27313 0.56779 0.27684 0.0
C6 C 0.28438 0.56345 0.20487 0.0
C7 C 0.23365 0.56312 0.53489 0.0
C8 C 0.30157 0.50161 0.42357 0.0
C9 C 0.21798 0.50082 0.31463 0.0
O10 O 0.22069 0.50698 0.39212 0.0
O11 O 0.23485 0.508 0.25996 0.0
O12 O 0.23311 0.53913 0.56061 0.0
O13 O 0.2447 0.56782 0.46287 0.0
O14 O 0.51803 0.72633 0.65762 0.0
Cd15 Cd 0.49401 0.75613 0.70058 0.0
Cd16 Cd 0.49427 0.76836 0.53567 0.0
O17 O 0.51125 0.73144 0.5209 0.0
O18 O 0.48167 0.74338 0.81354 0.0
O19 O 0.45499 0.74947 0.70502 0.0
C20 C 0.45841 0.74154 0.78193 0.0
C21 C 0.45697 0.78254 0.46193 0.0
C22 C 0.52141 0.71862 0.58189 0.0
C23 C 0.52177 0.80561 0.65413 0.0
O24 O 0.51864 0.79807 0.578 0.0
O25 O 0.51135 0.79278 0.7146 0.0
O26 O 0.47929 0.77991 0.42441 0.0
O27 O 0.45547 0.77591 0.54073 0.0
O28 O 0.296 0.01441 0.89568 0.0
Cd29 Cd 0.26644 0.9907 0.94146 0.0
Cd30 Cd 0.25234 0.99097 0.77709 0.0
O31 O 0.28886 1.00847 0.75932 0.0
O32 O 0.27927 0.97766 0.05384 0.0
O33 O 0.27357 0.95179 0.94311 0.0
C34 C 0.28134 0.95466 0.02043 0.0
C35 C 0.23766 0.9534 0.70583 0.0
C36 C 0.30259 0.01818 0.81901 0.0
C37 C 0.21627 0.01843 0.8992 0.0
O38 O 0.22282 0.01501 0.82229 0.0
O39 O 0.22995 1.00831 0.95836 0.0
O40 O 0.23959 0.97568 0.66752 0.0
O41 O 0.24546 0.95211 0.7836 0.0
O42 O 0.99792 0.72255 0.09434 0.0
Cd43 Cd 0.02168 0.75219 0.04892 0.0
Cd44 Cd 0.02152 0.76545 0.21419 0.0
O45 O 1.0041 0.72883 0.23091 0.0
O46 O 0.03382 0.73891 0.93627 0.0
O47 O 0.06079 0.74579 0.04346 0.0
C48 C 0.05722 0.73749 0.96703 0.0
C49 C 0.05847 0.77977 0.28972 0.0
C50 C 0.99421 0.71552 0.17061 0.0
C51 C 0.99408 0.80213 0.09268 0.0
O52 O 0.99759 0.7952 0.16926 0.0
O53 O 1.00406 0.78869 0.03277 0.0
O54 O 0.03581 0.77782 0.32549 0.0
O55 O 0.06048 0.77231 0.21179 0.0
O56 O 0.79554 1.00687 0.84406 0.0
Cd57 Cd 0.76602 0.03071 0.79777 0.0
Cd58 Cd 0.75133 0.02998 0.96252 0.0
O59 O 0.78761 0.01196 0.9803 0.0
O60 O 0.77895 0.04354 0.68552 0.0
O61 O 0.77285 0.06974 0.79519 0.0
C62 C 0.78066 0.06668 0.71799 0.0
C63 C 0.73678 0.06596 0.04244 0.0
C64 C 0.80166 1.00257 0.92089 0.0
C65 C 0.71565 1.00316 0.83691 0.0
O66 O 0.72173 1.00669 0.91419 0.0
O67 O 0.72977 0.01301 0.77853 0.0
O68 O 0.73846 0.04281 0.07499 0.0
O69 O 0.74462 0.069 0.96526 0.0
O70 O 0.01796 0.22071 0.16405 0.0
Cd71 Cd 0.99549 0.25069 0.21282 0.0
Cd72 Cd 0.9939 0.26613 0.04871 0.0
O73 O 0.01238 0.22998 0.02876 0.0
O74 O 0.98076 0.23809 0.32314 0.0
O75 O 0.95633 0.24571 0.20993 0.0
C76 C 0.95802 0.23754 0.2872 0.0
C77 C 0.95743 0.28041 0.97014 0.0
C78 C 0.02179 0.21522 0.08652 0.0
C79 C 0.02252 0.30121 0.17271 0.0
O80 O 0.01672 0.29635 0.096 0.0
O81 O 0.01485 0.28603 0.23165 0.0
O82 O 0.98058 0.27944 0.93734 0.0
O83 O 0.95468 0.27189 0.04664 0.0
O84 O 0.79464 0.51259 0.41983 0.0
Cd85 Cd 0.76473 0.48998 0.46968 0.0
Cd86 Cd 0.74971 0.48925 0.30423 0.0
O87 O 0.78545 0.50802 0.28415 0.0
O88 O 0.77821 0.4779 0.58218 0.0
O89 O 0.76995 0.45074 0.47656 0.0
C90 C 0.77865 0.45432 0.55256 0.0
C91 C 0.73596 0.45294 0.22391 0.0
C92 C 0.80012 0.51703 0.34261 0.0
C93 C 0.71426 0.5173 0.42924 0.0
O94 O 0.71969 0.51217 0.35243 0.0
O95 O 0.72899 0.50883 0.4884 0.0
O96 O 0.73605 0.47635 0.19286 0.0
O97 O 0.74488 0.44989 0.29989 0.0
O98 O 0.50077 0.22499 0.58837 0.0
Cd99 Cd 0.52498 0.25489 0.54656 0.0
Cd100 Cd 0.52469 0.26671 0.71268 0.0
O101 O 0.50712 0.23012 0.7256 0.0
O102 O 0.54032 0.24317 0.43582 0.0
O103 O 0.56384 0.24801 0.55243 0.0
C104 C 0.56262 0.24097 0.47393 0.0
C105 C 0.5605 0.28081 0.79435 0.0
C106 C 0.49713 0.21735 0.66418 0.0
C107 C 0.49736 0.30429 0.59334 0.0
O108 O 0.50076 0.29652 0.66901 0.0
O109 O 0.5077 0.2917 0.53221 0.0
O110 O 0.53716 0.2796 0.82559 0.0
O111 O 0.56384 0.27267 0.71766 0.0
H112 H 0.46262 0.71421 0.92968 0.0
H113 H 0.42907 0.6881 0.99981 0.0
H114 H 0.37196 0.71367 0.8156 0.0
H115 H 0.40593 0.73903 0.74272 0.0
H116 H 0.38618 0.69486 0.07772 0.0
H117 H 0.32732 0.66576 0.77899 0.0
H118 H 0.33411 0.6601 0.62533 0.0
H119 H 0.41589 0.64464 0.66767 0.0
H120 H 0.40952 0.6499 0.82149 0.0
H121 H 0.28026 0.61683 0.22744 0.0
H122 H 0.30489 0.65123 0.15375 0.0
H123 H 0.3439 0.59221 0.00351 0.0
H124 H 0.31856 0.55815 0.07366 0.0
H125 H 0.33564 0.63065 0.90771 0.0
H126 H 0.37178 0.62287 0.18797 0.0
H127 H 0.37111 0.62311 0.34412 0.0
H128 H 0.34508 0.70325 0.34294 0.0
H129 H 0.34529 0.70337 0.1867 0.0
C130 C 0.44287 0.71451 0.90437 0.0
C131 C 0.43703 0.72856 0.83009 0.0
C132 C 0.42362 0.69957 0.94481 0.0
C133 C 0.39796 0.69845 0.91251 0.0
C134 C 0.39172 0.71364 0.84085 0.0
C135 C 0.41112 0.7283 0.79948 0.0
C136 C 0.37834 0.68045 0.95202 0.0
C137 C 0.37501 0.68095 0.04034 0.0
C138 C 0.36397 0.66189 0.90394 0.0
C139 C 0.36798 0.65857 0.81158 0.0
C140 C 0.34673 0.66112 0.75544 0.0
C141 C 0.35051 0.65797 0.66835 0.0
C142 C 0.37544 0.65212 0.63675 0.0
C143 C 0.39662 0.64929 0.69219 0.0
C144 C 0.39294 0.65238 0.77931 0.0
C145 C 0.29387 0.61128 0.17794 0.0
C146 C 0.29748 0.58473 0.15663 0.0
C147 C 0.3081 0.63095 0.13619 0.0
C148 C 0.32672 0.62441 0.07381 0.0
C149 C 0.32971 0.59793 0.05108 0.0
C150 C 0.31519 0.57838 0.09156 0.0
C151 C 0.34377 0.64475 0.03362 0.0
C152 C 0.34653 0.64478 0.94507 0.0
C153 C 0.35843 0.66306 0.08183 0.0
C154 C 0.35823 0.66302 0.1757 0.0
C155 C 0.36572 0.64047 0.22104 0.0
C156 C 0.36545 0.64056 0.30954 0.0
C157 C 0.35796 0.66315 0.35341 0.0
C158 C 0.35081 0.68574 0.30887 0.0
C159 C 0.351 0.68575 0.22036 0.0
H160 H 0.35775 0.66318 0.42192 0.0
H161 H 0.37833 0.64969 0.56934 0.0
H162 H 0.44642 0.78196 0.29255 0.0
H163 H 0.41235 0.80644 0.21738 0.0
H164 H 0.38416 0.83732 0.45502 0.0
H165 H 0.41713 0.81138 0.53056 0.0
H166 H 0.34457 0.83218 0.3619 0.0
H167 H 0.42772 0.87208 0.31375 0.0
H168 H 0.47422 0.87493 0.2718 0.0
H169 H 0.45408 0.85225 0.01822 0.0
H170 H 0.40747 0.84895 0.05897 0.0
H171 H 0.29237 0.95215 0.1897 0.0
H172 H 0.31817 0.91877 0.26391 0.0
H173 H 0.32641 0.87524 0.03151 0.0
H174 H 0.30033 0.90842 0.95686 0.0
H175 H 0.37456 0.88597 0.11888 0.0
H176 H 0.28823 0.85071 0.17876 0.0
H177 H 0.24275 0.85606 0.22908 0.0
H178 H 0.271 0.87843 0.47473 0.0
H179 H 0.3167 0.8735 0.42556 0.0
C180 C 0.43266 0.79365 0.32875 0.0
C181 C 0.43453 0.79488 0.41737 0.0
C182 C 0.4133 0.80787 0.2857 0.0
C183 C 0.39605 0.82453 0.32996 0.0
C184 C 0.39721 0.82482 0.41895 0.0
C185 C 0.4161 0.80997 0.46222 0.0
C186 C 0.37769 0.84241 0.28354 0.0
C187 C 0.35129 0.84402 0.30921 0.0
C188 C 0.38615 0.85807 0.21444 0.0
C189 C 0.41416 0.85998 0.18967 0.0
C190 C 0.43324 0.86751 0.2492 0.0
C191 C 0.45961 0.86924 0.22562 0.0
C192 C 0.46711 0.8637 0.14246 0.0
C193 C 0.44824 0.85649 0.08265 0.0
C194 C 0.42185 0.8547 0.10594 0.0
C195 C 0.29932 0.93528 0.15457 0.0
C196 C 0.29427 0.93295 0.06732 0.0
C197 C 0.31404 0.9162 0.19715 0.0
C198 C 0.32419 0.8945 0.15328 0.0
C199 C 0.31874 0.89182 0.06658 0.0
C200 C 0.30372 0.91073 0.02413 0.0
C201 C 0.3417 0.87543 0.19691 0.0
C202 C 0.36793 0.87379 0.17096 0.0
C203 C 0.33329 0.86047 0.26725 0.0
C204 C 0.30587 0.86193 0.29827 0.0
C205 C 0.28474 0.85678 0.24349 0.0
C206 C 0.25894 0.85974 0.2718 0.0
C207 C 0.25402 0.8677 0.35491 0.0
C208 C 0.27487 0.87231 0.41032 0.0
C209 C 0.30073 0.86938 0.38231 0.0
H210 H 0.23407 0.87042 0.37625 0.0
H211 H 0.48753 0.86506 0.12431 0.0
H212 H 0.10259 0.80178 0.22162 0.0
H213 H 0.13626 0.82717 0.29494 0.0
H214 H 0.09881 0.81074 0.53409 0.0
H215 H 0.06438 0.78647 0.46029 0.0
H216 H 0.10968 0.85894 0.53222 0.0
H217 H 0.16187 0.78293 0.46863 0.0
H218 H 0.18131 0.74841 0.37899 0.0
H219 H 0.21847 0.80701 0.22525 0.0
H220 H 0.19886 0.84189 0.31316 0.0
H221 H 0.21391 0.91143 0.78108 0.0
H222 H 0.18691 0.87773 0.71292 0.0
H223 H 0.2049 0.91048 0.46825 0.0
H224 H 0.23137 0.94468 0.5361 0.0
H225 H 0.20536 0.85221 0.48014 0.0
H226 H 0.15122 0.92814 0.54436 0.0
H227 H 0.13286 0.96178 0.63969 0.0
H228 H 0.09981 0.90157 0.79675 0.0
H229 H 0.11833 0.86755 0.70295 0.0
C230 C 0.10177 0.80324 0.28996 0.0
C231 C 0.0808 0.79209 0.3351 0.0
C232 C 0.12116 0.81769 0.33209 0.0
C233 C 0.12043 0.82075 0.42062 0.0
C234 C 0.09991 0.80884 0.46589 0.0
C235 C 0.08025 0.79483 0.42364 0.0
C236 C 0.13993 0.83775 0.4654 0.0
C237 C 0.13061 0.85708 0.52142 0.0
C238 C 0.16734 0.83593 0.45081 0.0
C239 C 0.17888 0.815 0.39736 0.0
C240 C 0.17405 0.78844 0.41538 0.0
C241 C 0.1851 0.76881 0.36489 0.0
C242 C 0.20109 0.77549 0.29642 0.0
C243 C 0.20609 0.80184 0.27833 0.0
C244 C 0.19507 0.82155 0.32855 0.0
C245 C 0.2125 0.9112 0.71267 0.0
C246 C 0.22468 0.9308 0.66398 0.0
C247 C 0.19699 0.89198 0.67387 0.0
C248 C 0.19375 0.89172 0.5856 0.0
C249 C 0.20711 0.91034 0.53646 0.0
C250 C 0.22218 0.9299 0.57533 0.0
C251 C 0.17493 0.87333 0.54509 0.0
C252 C 0.1844 0.85387 0.49029 0.0
C253 C 0.14768 0.87487 0.56109 0.0
C254 C 0.13642 0.89531 0.61721 0.0
C255 C 0.14025 0.92208 0.59966 0.0
C256 C 0.12977 0.94121 0.65333 0.0
C257 C 0.11525 0.93382 0.72439 0.0
C258 C 0.11111 0.90727 0.74178 0.0
C259 C 0.12158 0.88806 0.68837 0.0
H260 H 0.10714 0.94867 0.76583 0.0
H261 H 0.20962 0.76026 0.25745 0.0
H262 H 0.05301 0.71006 0.81945 0.0
H263 H 0.08682 0.68463 0.74769 0.0
H264 H 0.14406 0.71094 0.93013 0.0
H265 H 0.10987 0.73564 0.00459 0.0
H266 H 0.12932 0.69237 0.66815 0.0
H267 H 0.18977 0.66381 0.96423 0.0
H268 H 0.18358 0.65772 0.11799 0.0
H269 H 0.10204 0.64074 0.07798 0.0
H270 H 0.10782 0.64642 0.92407 0.0
H271 H 0.23643 0.61663 0.51318 0.0
H272 H 0.21126 0.65039 0.5883 0.0
H273 H 0.17402 0.59034 0.73852 0.0
H274 H 0.19989 0.55691 0.66686 0.0
H275 H 0.18178 0.62874 0.83497 0.0
H276 H 0.14474 0.62084 0.55621 0.0
H277 H 0.14489 0.62127 0.40006 0.0
H278 H 0.16943 0.70177 0.40126 0.0
H279 H 0.16972 0.70176 0.55753 0.0
C280 C 0.07283 0.71066 0.84407 0.0
C281 C 0.07866 0.72474 0.91828 0.0
C282 C 0.09224 0.69611 0.80267 0.0
C283 C 0.11804 0.69541 0.83392 0.0
C284 C 0.12422 0.71059 0.90563 0.0
C285 C 0.10468 0.72487 0.94793 0.0
C286 C 0.1379 0.67786 0.79327 0.0
C287 C 0.14091 0.67859 0.70483 0.0
C288 C 0.15282 0.65946 0.84041 0.0
C289 C 0.14918 0.65588 0.93282 0.0
C290 C 0.17054 0.65874 0.98831 0.0
C291 C 0.1671 0.65536 0.07546 0.0
C292 C 0.14242 0.64895 0.10774 0.0
C293 C 0.12113 0.64582 0.05293 0.0
C294 C 0.12447 0.64914 0.96577 0.0
C295 C 0.2231 0.61071 0.56295 0.0
C296 C 0.22015 0.58405 0.58382 0.0
C297 C 0.20855 0.63001 0.60553 0.0
C298 C 0.19028 0.62301 0.6684 0.0
C299 C 0.18794 0.59642 0.69062 0.0
C300 C 0.20276 0.57724 0.64927 0.0
C301 C 0.17293 0.64295 0.70965 0.0
C302 C 0.17047 0.64275 0.7983 0.0
C303 C 0.15772 0.66109 0.66237 0.0
C304 C 0.15757 0.66119 0.5685 0.0
C305 C 0.15035 0.63858 0.52315 0.0
C306 C 0.15033 0.63876 0.43465 0.0
C307 C 0.15726 0.66152 0.3908 0.0
C308 C 0.16413 0.68416 0.43536 0.0
C309 C 0.16422 0.68408 0.52388 0.0
H310 H 0.15726 0.66163 0.3223 0.0
H311 H 0.13979 0.64633 0.17518 0.0
H312 H 0.79894 0.11364 0.77851 0.0
H313 H 0.82454 0.1465 0.70188 0.0
H314 H 0.8159 0.10177 0.47165 0.0
H315 H 0.79113 0.06848 0.54862 0.0
H316 H 0.86372 0.11425 0.48508 0.0
H317 H 0.78485 0.16251 0.50735 0.0
H318 H 0.74614 0.18285 0.57386 0.0
H319 H 0.79611 0.23216 0.72348 0.0
H320 H 0.83525 0.21171 0.65935 0.0
H321 H 0.91423 0.21595 0.21605 0.0
H322 H 0.87979 0.1908 0.28774 0.0
H323 H 0.91562 0.20732 0.52897 0.0
H324 H 0.95063 0.23179 0.45762 0.0
H325 H 0.85267 0.21078 0.50376 0.0
H326 H 0.93169 0.15562 0.48088 0.0
H327 H 0.96784 0.13608 0.39845 0.0
H328 H 0.91222 0.10073 0.22923 0.0
H329 H 0.87574 0.12045 0.31002 0.0
C330 C 0.80215 0.11103 0.71127 0.0
C331 C 0.79305 0.08839 0.66977 0.0
C332 C 0.81675 0.12991 0.66731 0.0
C333 C 0.82216 0.1268 0.58054 0.0
C334 C 0.8122 0.10465 0.53853 0.0
C335 C 0.79791 0.08564 0.58262 0.0
C336 C 0.8397 0.14555 0.53492 0.0
C337 C 0.86092 0.13532 0.48857 0.0
C338 C 0.83643 0.17317 0.53931 0.0
C339 C 0.81302 0.18531 0.57924 0.0
C340 C 0.78763 0.17746 0.55524 0.0
C341 C 0.76561 0.18904 0.59245 0.0
C342 C 0.7687 0.20869 0.65323 0.0
C343 C 0.79381 0.21683 0.67679 0.0
C344 C 0.81592 0.20525 0.64002 0.0
C345 C 0.91452 0.21464 0.28447 0.0
C346 C 0.93519 0.22579 0.33119 0.0
C347 C 0.89485 0.20025 0.32527 0.0
C348 C 0.89519 0.19725 0.41356 0.0
C349 C 0.91497 0.20954 0.4608 0.0
C350 C 0.93499 0.22342 0.41992 0.0
C351 C 0.8764 0.17927 0.4556 0.0
C352 C 0.85512 0.18967 0.50083 0.0
C353 C 0.87915 0.15179 0.44876 0.0
C354 C 0.90104 0.13976 0.40079 0.0
C355 C 0.92719 0.14391 0.42558 0.0
C356 C 0.94774 0.13275 0.37928 0.0
C357 C 0.94234 0.11725 0.30846 0.0
C358 C 0.91638 0.11279 0.28398 0.0
C359 C 0.89577 0.12394 0.33001 0.0
H360 H 0.95827 0.10862 0.27271 0.0
H361 H 0.75162 0.21768 0.68185 0.0
H362 H 0.90791 0.29168 0.02823 0.0
H363 H 0.8738 0.3172 0.95627 0.0
H364 H 0.92301 0.32318 0.73515 0.0
H365 H 0.95725 0.29813 0.80698 0.0
H366 H 0.90494 0.36971 0.77648 0.0
H367 H 0.86741 0.28423 0.73984 0.0
H368 H 0.85145 0.24111 0.78795 0.0
H369 H 0.79284 0.27874 0.94081 0.0
H370 H 0.80875 0.32214 0.89479 0.0
H371 H 0.78464 0.40264 0.50678 0.0
H372 H 0.81074 0.36907 0.57971 0.0
H373 H 0.82681 0.42356 0.78172 0.0
H374 H 0.80089 0.45711 0.70966 0.0
H375 H 0.81133 0.34515 0.74329 0.0
H376 H 0.89267 0.41965 0.82117 0.0
H377 H 0.90965 0.46189 0.76828 0.0
H378 H 0.88205 0.44347 0.51843 0.0
H379 H 0.86528 0.40098 0.56957 0.0
C380 C 0.9113 0.29808 0.9638 0.0
C381 C 0.93537 0.2929 0.92351 0.0
C382 C 0.89173 0.31265 0.92261 0.0
C383 C 0.89575 0.32213 0.84004 0.0
C384 C 0.91944 0.31621 0.79889 0.0
C385 C 0.939 0.30177 0.84003 0.0
C386 C 0.87611 0.33958 0.79824 0.0
C387 C 0.88451 0.36423 0.76932 0.0
C388 C 0.8494 0.33252 0.78812 0.0
C389 C 0.83947 0.30645 0.81456 0.0
C390 C 0.85125 0.28332 0.78421 0.0
C391 C 0.84222 0.25883 0.81112 0.0
C392 C 0.82125 0.25719 0.86776 0.0
C393 C 0.80915 0.28005 0.89718 0.0
C394 C 0.81816 0.3046 0.87066 0.0
C395 C 0.79333 0.40733 0.56748 0.0
C396 C 0.79092 0.43269 0.6018 0.0
C397 C 0.80817 0.38807 0.60922 0.0
C398 C 0.82101 0.39391 0.6856 0.0
C399 C 0.81731 0.4187 0.7224 0.0
C400 C 0.80245 0.43788 0.681 0.0
C401 C 0.84027 0.37519 0.72272 0.0
C402 C 0.8318 0.35047 0.75074 0.0
C403 C 0.86706 0.38197 0.73124 0.0
C404 C 0.87748 0.40727 0.69946 0.0
C405 C 0.89032 0.42458 0.75489 0.0
C406 C 0.8999 0.44857 0.72522 0.0
C407 C 0.89685 0.45539 0.64011 0.0
C408 C 0.88431 0.4382 0.58441 0.0
C409 C 0.87475 0.41418 0.61372 0.0
H410 H 0.90425 0.47398 0.6173 0.0
H411 H 0.81428 0.23821 0.88847 0.0
H412 H 0.73527 0.40056 0.26547 0.0
H413 H 0.7125 0.36508 0.19102 0.0
H414 H 0.68607 0.42022 0.00196 0.0
H415 H 0.70946 0.45531 0.07398 0.0
H416 H 0.66447 0.35679 0.16715 0.0
H417 H 0.67347 0.39336 0.81653 0.0
H418 H 0.70689 0.41307 0.7234 0.0
H419 H 0.76807 0.38325 0.88369 0.0
H420 H 0.73505 0.36316 0.97745 0.0
H421 H 0.55653 0.31332 0.93055 0.0
H422 H 0.59154 0.33672 0.00323 0.0
H423 H 0.64886 0.29897 0.8431 0.0
H424 H 0.61351 0.27659 0.76674 0.0
H425 H 0.6625 0.34558 0.85555 0.0
H426 H 0.63668 0.28387 0.05967 0.0
H427 H 0.60946 0.25815 0.15799 0.0
H428 H 0.58972 0.32824 0.29444 0.0
H429 H 0.61672 0.35445 0.19683 0.0
C430 C 0.72498 0.405 0.20719 0.0
C431 C 0.72427 0.4308 0.17566 0.0
C432 C 0.71187 0.38469 0.16475 0.0
C433 C 0.69768 0.38975 0.09004 0.0
C434 C 0.69734 0.41548 0.05804 0.0
C435 C 0.71064 0.43566 0.09982 0.0
C436 C 0.68156 0.36883 0.04889 0.0
C437 C 0.66411 0.35423 0.09903 0.0
C438 C 0.68173 0.36462 0.96022 0.0
C439 C 0.70172 0.3769 0.90442 0.0
C440 C 0.69405 0.39094 0.83183 0.0
C441 C 0.71293 0.40221 0.77898 0.0
C442 C 0.73958 0.39946 0.79774 0.0
C443 C 0.74741 0.38546 0.86945 0.0
C444 C 0.72861 0.37418 0.9226 0.0
C445 C 0.57661 0.30975 0.91132 0.0
C446 C 0.58223 0.29297 0.84308 0.0
C447 C 0.59672 0.3231 0.95337 0.0
C448 C 0.62309 0.3194 0.93009 0.0
C449 C 0.62877 0.30226 0.86263 0.0
C450 C 0.60855 0.28934 0.8192 0.0
C451 C 0.64444 0.33441 0.97351 0.0
C452 C 0.66293 0.34787 0.92377 0.0
C453 C 0.64582 0.33682 0.06295 0.0
C454 C 0.62885 0.32118 0.12061 0.0
C455 C 0.62645 0.29387 0.11029 0.0
C456 C 0.61106 0.27917 0.16605 0.0
C457 C 0.59786 0.29157 0.2324 0.0
C458 C 0.60001 0.31866 0.24309 0.0
C459 C 0.61542 0.33343 0.18767 0.0
H460 H 0.58595 0.28023 0.27553 0.0
H461 H 0.75415 0.40814 0.75662 0.0
H462 H 0.72914 0.06939 0.21329 0.0
H463 H 0.70443 0.10276 0.29061 0.0
H464 H 0.69003 0.14424 0.057 0.0
H465 H 0.71582 0.1115 0.98003 0.0
H466 H 0.69667 0.17841 0.17453 0.0
H467 H 0.64398 0.10081 0.15344 0.0
H468 H 0.63288 0.05403 0.17016 0.0
H469 H 0.6415 0.06074 0.43966 0.0
H470 H 0.65305 0.1075 0.42443 0.0
H471 H 0.5702 0.23406 0.30375 0.0
H472 H 0.60529 0.20915 0.23425 0.0
H473 H 0.64032 0.19309 0.47709 0.0
H474 H 0.60598 0.21892 0.54685 0.0
H475 H 0.62479 0.14752 0.36069 0.0
H476 H 0.67169 0.22859 0.37534 0.0
H477 H 0.6806 0.27541 0.3508 0.0
H478 H 0.68099 0.26231 0.08246 0.0
H479 H 0.67059 0.21567 0.10502 0.0
C480 C 0.721 0.08581 0.17854 0.0
C481 C 0.72431 0.0877 0.0904 0.0
C482 C 0.70666 0.10482 0.22277 0.0
C483 C 0.69466 0.12577 0.17959 0.0
C484 C 0.69892 0.12826 0.09199 0.0
C485 C 0.71369 0.1095 0.04793 0.0
C486 C 0.67698 0.1445 0.22496 0.0
C487 C 0.68076 0.17163 0.2144 0.0
C488 C 0.65641 0.13576 0.27842 0.0
C489 C 0.64968 0.10759 0.28768 0.0
C490 C 0.64374 0.09226 0.2162 0.0
C491 C 0.63733 0.06575 0.22542 0.0
C492 C 0.63657 0.0544 0.3059 0.0
C493 C 0.64217 0.06955 0.37735 0.0
C494 C 0.64864 0.09605 0.36846 0.0
C495 C 0.58573 0.22578 0.34221 0.0
C496 C 0.58537 0.2286 0.43083 0.0
C497 C 0.60575 0.21155 0.30237 0.0
C498 C 0.62542 0.19936 0.35053 0.0
C499 C 0.6254 0.20251 0.4388 0.0
C500 C 0.60579 0.21732 0.47849 0.0
C501 C 0.64444 0.18128 0.30965 0.0
C502 C 0.64078 0.15425 0.32096 0.0
C503 C 0.66471 0.19018 0.25568 0.0
C504 C 0.66986 0.21857 0.24197 0.0
C505 C 0.67297 0.23574 0.31099 0.0
C506 C 0.67837 0.2623 0.29741 0.0
C507 C 0.68123 0.27187 0.21511 0.0
C508 C 0.67863 0.25491 0.1462 0.0
C509 C 0.6728 0.22844 0.15935 0.0
H510 H 0.6855 0.29241 0.20469 0.0
H511 H 0.63157 0.03389 0.31293 0.0
H512 H 0.34251 0.48658 0.32344 0.0
H513 H 0.37747 0.45562 0.35634 0.0
H514 H 0.34738 0.44698 0.60978 0.0
H515 H 0.31218 0.47837 0.57754 0.0
H516 H 0.40161 0.44884 0.6063 0.0
H517 H 0.33336 0.40147 0.46263 0.0
H518 H 0.3018 0.39309 0.34745 0.0
H519 H 0.36509 0.38754 0.16912 0.0
H520 H 0.39702 0.39626 0.28309 0.0
H521 H 0.46563 0.32942 0.70652 0.0
H522 H 0.43473 0.36488 0.67996 0.0
H523 H 0.45855 0.3671 0.41805 0.0
H524 H 0.48904 0.33074 0.44368 0.0
H525 H 0.4078 0.36935 0.42616 0.0
H526 H 0.47639 0.41588 0.56871 0.0
H527 H 0.50821 0.42475 0.68275 0.0
H528 H 0.44526 0.43246 0.86147 0.0
H529 H 0.41306 0.42331 0.7487 0.0
C530 C 0.34333 0.47832 0.38655 0.0
C531 C 0.32429 0.48483 0.44763 0.0
C532 C 0.36336 0.46052 0.40513 0.0
C533 C 0.3648 0.44858 0.48499 0.0
C534 C 0.34657 0.45586 0.54753 0.0
C535 C 0.32645 0.47379 0.529 0.0
C536 C 0.38474 0.42782 0.50155 0.0
C537 C 0.40279 0.43129 0.56767 0.0
C538 C 0.38672 0.40522 0.44978 0.0
C539 C 0.36756 0.39975 0.38127 0.0
C540 C 0.34054 0.39864 0.39875 0.0
C541 C 0.32258 0.39381 0.3337 0.0
C542 C 0.33143 0.38985 0.25098 0.0
C543 C 0.35826 0.39064 0.2332 0.0
C544 C 0.3763 0.3955 0.29801 0.0
C545 C 0.46455 0.33755 0.64329 0.0
C546 C 0.47995 0.32721 0.57725 0.0
C547 C 0.44689 0.35802 0.62829 0.0
C548 C 0.4445 0.3691 0.54727 0.0
C549 C 0.46003 0.35899 0.48125 0.0
C550 C 0.47754 0.33823 0.496 0.0
C551 C 0.42493 0.39033 0.53084 0.0
C552 C 0.40682 0.38692 0.46475 0.0
C553 C 0.42301 0.41302 0.58249 0.0
C554 C 0.44233 0.41869 0.65035 0.0
C555 C 0.46934 0.41929 0.63244 0.0
C556 C 0.48744 0.4244 0.69684 0.0
C557 C 0.47877 0.42911 0.77934 0.0
C558 C 0.45195 0.42879 0.79755 0.0
C559 C 0.43376 0.42368 0.7334 0.0
H560 H 0.49281 0.43305 0.82911 0.0
H561 H 0.3175 0.38612 0.2007 0.0
H562 H 0.69938 0.98652 0.67984 0.0
H563 H 0.66417 0.9555 0.64743 0.0
H564 H 0.64521 0.95026 0.9129 0.0
H565 H 0.6805 0.98086 0.94594 0.0
H566 H 0.64886 0.90268 0.84474 0.0
H567 H 0.60545 0.98354 0.77035 0.0
H568 H 0.60105 0.02579 0.69561 0.0
H569 H 0.60432 0.986 0.45632 0.0
H570 H 0.60905 0.94352 0.52966 0.0
H571 H 0.53266 0.82823 0.80805 0.0
H572 H 0.56299 0.86424 0.83744 0.0
H573 H 0.58028 0.87076 0.57107 0.0
H574 H 0.54962 0.83522 0.54094 0.0
H575 H 0.57708 0.91821 0.63858 0.0
H576 H 0.6219 0.83841 0.70732 0.0
H577 H 0.62827 0.7956 0.77703 0.0
H578 H 0.62459 0.83268 0.02078 0.0
H579 H 0.61785 0.8757 0.95248 0.0
C580 C 0.68754 0.979 0.73127 0.0
C581 C 0.69287 0.9862 0.81556 0.0
C582 C 0.66733 0.9613 0.71259 0.0
C583 C 0.65189 0.9506 0.77768 0.0
C584 C 0.65686 0.95817 0.86158 0.0
C585 C 0.67705 0.97577 0.88032 0.0
C586 C 0.63138 0.93059 0.75925 0.0
C587 C 0.63292 0.90627 0.80068 0.0
C588 C 0.61104 0.93488 0.69968 0.0
C589 C 0.60784 0.96037 0.65552 0.0
C590 C 0.60539 0.98382 0.70179 0.0
C591 C 0.60281 1.00781 0.65967 0.0
C592 C 0.60248 1.00859 0.57126 0.0
C593 C 0.60461 0.98537 0.52479 0.0
C594 C 0.6072 0.96133 0.5666 0.0
C595 C 0.54275 0.83744 0.75559 0.0
C596 C 0.53879 0.82864 0.67216 0.0
C597 C 0.56019 0.85798 0.77254 0.0
C598 C 0.5743 0.86999 0.70662 0.0
C599 C 0.56971 0.86182 0.62307 0.0
C600 C 0.55219 0.84139 0.606 0.0
C601 C 0.59443 0.89041 0.72484 0.0
C602 C 0.59292 0.91472 0.68308 0.0
C603 C 0.61501 0.88606 0.78351 0.0
C604 C 0.61909 0.86023 0.8248 0.0
C605 C 0.62224 0.83741 0.7758 0.0
C606 C 0.62595 0.81311 0.81505 0.0
C607 C 0.62676 0.81141 0.90329 0.0
C608 C 0.62392 0.83402 0.95244 0.0
C609 C 0.62017 0.85837 0.9135 0.0
H610 H 0.62964 0.79258 0.93356 0.0
H611 H 0.60052 0.02718 0.53876 0.0
H612 H 0.04658 0.18171 0.19536 0.0
H613 H 0.077 0.14635 0.1614 0.0
H614 H 0.06605 0.16109 0.89503 0.0
H615 H 0.03536 0.19676 0.92842 0.0
H616 H 0.06751 0.10722 0.93501 0.0
H617 H 0.11891 0.18436 0.98669 0.0
H618 H 0.13343 0.22322 0.06682 0.0
H619 H 0.15695 0.17398 0.27397 0.0
H620 H 0.1422 0.13483 0.19552 0.0
H621 H 0.18268 0.04244 0.78823 0.0
H622 H 0.14739 0.07322 0.82021 0.0
H623 H 0.1626 0.06427 0.08723 0.0
H624 H 0.19832 0.03364 0.05571 0.0
H625 H 0.15824 0.11486 0.04621 0.0
H626 H 0.10795 0.03745 0.99406 0.0
H627 H 0.09385 0.99842 0.91399 0.0
H628 H 0.06835 0.04749 0.70886 0.0
H629 H 0.08268 0.08682 0.78719 0.0
C630 C 0.05039 0.1774 0.12938 0.0
C631 C 0.03859 0.1923 0.06462 0.0
C632 C 0.06789 0.15715 0.11013 0.0
C633 C 0.07407 0.15126 0.02573 0.0
C634 C 0.0616 0.16534 0.96065 0.0
C635 C 0.04411 0.18577 0.97987 0.0
C636 C 0.09438 0.13114 0.00622 0.0
C637 C 0.08744 0.10901 0.95833 0.0
C638 C 0.12024 0.13319 0.03832 0.0
C639 C 0.1292 0.15669 0.08556 0.0
C640 C 0.12698 0.18184 0.04962 0.0
C641 C 0.13528 0.20392 0.09468 0.0
C642 C 0.14604 0.20108 0.17553 0.0
C643 C 0.14858 0.17615 0.21139 0.0
C644 C 0.14026 0.15401 0.16663 0.0
C645 C 0.17843 0.04678 0.85391 0.0
C646 C 0.19343 0.03551 0.9194 0.0
C647 C 0.1581 0.06435 0.87209 0.0
C648 C 0.15213 0.07096 0.95619 0.0
C649 C 0.16681 0.05948 0.02182 0.0
C650 C 0.18718 0.04187 0.00369 0.0
C651 C 0.13142 0.09075 0.97529 0.0
C652 C 0.1383 0.11292 0.02302 0.0
C653 C 0.10554 0.08866 0.94313 0.0
C654 C 0.09662 0.06508 0.89621 0.0
C655 C 0.09951 0.03991 0.93162 0.0
C656 C 0.09146 0.01774 0.88658 0.0
C657 C 0.08028 0.02047 0.80629 0.0
C658 C 0.07705 0.0454 0.77102 0.0
C659 C 0.08511 0.06765 0.81575 0.0
H660 H 0.07408 1.00327 0.77149 0.0
H661 H 0.15247 0.2182 0.21031 0.0
H662 H 0.98262 0.69276 0.32434 0.0
H663 H 0.95202 0.65666 0.35172 0.0
H664 H 0.93608 0.65049 0.08443 0.0
H665 H 0.96646 0.68635 0.05647 0.0
H666 H 0.89113 0.6516 0.17691 0.0
H667 H 0.97287 0.60482 0.18153 0.0
H668 H 0.01814 0.59559 0.2279 0.0
H669 H 0.99133 0.58467 0.48307 0.0
H670 H 0.94592 0.59421 0.43841 0.0
H671 H 0.81592 0.53485 0.18634 0.0
H672 H 0.85107 0.56607 0.15529 0.0
H673 H 0.87051 0.56983 0.42071 0.0
H674 H 0.8358 0.53841 0.45213 0.0
H675 H 0.91426 0.56947 0.32806 0.0
H676 H 0.83331 0.61754 0.32671 0.0
H677 H 0.78791 0.62755 0.28343 0.0
H678 H 0.81307 0.63709 0.02594 0.0
H679 H 0.8586 0.62677 0.06755 0.0
C680 C 0.97278 0.68357 0.27132 0.0
C681 C 0.97706 0.69254 0.1882 0.0
C682 C 0.95532 0.66288 0.28706 0.0
C683 C 0.94177 0.65079 0.22006 0.0
C684 C 0.94624 0.65952 0.13714 0.0
C685 C 0.96375 0.68002 0.12131 0.0
C686 C 0.92224 0.62966 0.23617 0.0
C687 C 0.8963 0.63348 0.20888 0.0
C688 C 0.92876 0.60627 0.27976 0.0
C689 C 0.95604 0.6005 0.30677 0.0
C690 C 0.97666 0.60068 0.24767 0.0
C691 C 1.00234 0.59535 0.27362 0.0
C692 C 1.00762 0.58962 0.35842 0.0
C693 C 0.98722 0.58915 0.41742 0.0
C694 C 0.9615 0.5945 0.39182 0.0
C695 C 0.82783 0.5421 0.23804 0.0
C696 C 0.82283 0.5342 0.32184 0.0
C697 C 0.84787 0.56007 0.22024 0.0
C698 C 0.86323 0.57066 0.28583 0.0
C699 C 0.85893 0.56204 0.36901 0.0
C700 C 0.83895 0.54409 0.38686 0.0
C701 C 0.88315 0.59138 0.26849 0.0
C702 C 0.90913 0.58754 0.29577 0.0
C703 C 0.87665 0.61486 0.2253 0.0
C704 C 0.84931 0.6211 0.20009 0.0
C705 C 0.82912 0.62156 0.26075 0.0
C706 C 0.80338 0.62733 0.23654 0.0
C707 C 0.7976 0.63288 0.15194 0.0
C708 C 0.81757 0.63274 0.09142 0.0
C709 C 0.84335 0.62694 0.11528 0.0
H710 H 0.77765 0.63735 0.13333 0.0
H711 H 0.02751 0.58549 0.37838 0.0
H712 H 0.33758 0.03892 0.93165 0.0
H713 H 0.37273 0.07011 0.90396 0.0
H714 H 0.35467 0.06815 0.63736 0.0
H715 H 0.31948 0.03649 0.6644 0.0
H716 H 0.40753 0.06899 0.66467 0.0
H717 H 0.3328 0.11821 0.76019 0.0
H718 H 0.29655 0.12941 0.85697 0.0
H719 H 0.3517 0.14365 0.05721 0.0
H720 H 0.38829 0.13217 0.9619 0.0
H721 H 0.47004 0.18811 0.54822 0.0
H722 H 0.4397 0.15214 0.5746 0.0
H723 H 0.45497 0.15784 0.84253 0.0
H724 H 0.48504 0.19439 0.81678 0.0
H725 H 0.40413 0.15432 0.81533 0.0
H726 H 0.47915 0.10628 0.71884 0.0
H727 H 0.5154 0.09498 0.62215 0.0
H728 H 0.46011 0.07854 0.42407 0.0
H729 H 0.42353 0.09008 0.51928 0.0
C730 C 0.34113 0.04491 0.86689 0.0
C731 C 0.32548 0.03531 0.80031 0.0
C732 C 0.36124 0.06286 0.85124 0.0
C733 C 0.36608 0.07188 0.76878 0.0
C734 C 0.35123 0.06157 0.7016 0.0
C735 C 0.33109 0.04349 0.71718 0.0
C736 C 0.38601 0.0927 0.75349 0.0
C737 C 0.40663 0.08777 0.6968 0.0
C738 C 0.38522 0.11702 0.79684 0.0
C739 C 0.36326 0.12409 0.85413 0.0
C740 C 0.33719 0.12354 0.82504 0.0
C741 C 0.31658 0.12997 0.8796 0.0
C742 C 0.32181 0.13718 0.96324 0.0
C743 C 0.34768 0.13804 0.99243 0.0
C744 C 0.36836 0.13159 0.93815 0.0
C745 C 0.46718 0.18162 0.61283 0.0
C746 C 0.48007 0.19422 0.68039 0.0
C747 C 0.44986 0.16088 0.62777 0.0
C748 C 0.4452 0.15197 0.71051 0.0
C749 C 0.45824 0.1643 0.77808 0.0
C750 C 0.47551 0.18517 0.76323 0.0
C751 C 0.42582 0.13064 0.72667 0.0
C752 C 0.40519 0.13551 0.78341 0.0
C753 C 0.42665 0.10629 0.68335 0.0
C754 C 0.44861 0.09927 0.62601 0.0
C755 C 0.47473 0.10045 0.65448 0.0
C756 C 0.49533 0.09397 0.59997 0.0
C757 C 0.49006 0.08611 0.51696 0.0
C758 C 0.46416 0.08465 0.48836 0.0
C759 C 0.44349 0.09113 0.5426 0.0
H760 H 0.50604 0.0811 0.47486 0.0
H761 H 0.30583 0.14215 0.00539 0.0
H762 H 0.83532 0.97943 0.80865 0.0
H763 H 0.87012 0.94787 0.83831 0.0
H764 H 0.85428 0.95405 0.10561 0.0
H765 H 0.81939 0.98596 0.07659 0.0
H766 H 0.90724 0.95215 0.07256 0.0
H767 H 0.83063 0.90294 0.99539 0.0
H768 H 0.79306 0.89078 0.90525 0.0
H769 H 0.84554 0.87169 0.70183 0.0
H770 H 0.88342 0.8841 0.79043 0.0
H771 H 0.96843 0.83381 0.20546 0.0
H772 H 0.93849 0.86994 0.17515 0.0
H773 H 0.95137 0.85936 0.90751 0.0
H774 H 0.98108 0.82272 0.9373 0.0
H775 H 0.9006 0.86429 0.93924 0.0
H776 H 0.9775 0.91222 0.01752 0.0
H777 H 0.01508 0.92446 0.10746 0.0
H778 H 0.96253 0.94597 0.30817 0.0
H779 H 0.92462 0.93352 0.21981 0.0
C780 C 0.8393 0.9743 0.87395 0.0
C781 C 0.82434 0.98515 0.94021 0.0
C782 C 0.85919 0.95614 0.89073 0.0
C783 C 0.86456 0.94824 0.97407 0.0
C784 C 0.85042 0.95977 0.04075 0.0
C785 C 0.83044 0.97799 0.02401 0.0
C786 C 0.8843 0.92733 0.99102 0.0
C787 C 0.90565 0.93283 0.04427 0.0
C788 C 0.88257 0.90229 0.95254 0.0
C789 C 0.85984 0.8947 0.89927 0.0
C790 C 0.83414 0.89635 0.93122 0.0
C791 C 0.8128 0.88938 0.88044 0.0
C792 C 0.81691 0.88053 0.79779 0.0
C793 C 0.84238 0.87858 0.76583 0.0
C794 C 0.8638 0.88556 0.81631 0.0
C795 C 0.96512 0.83925 0.14005 0.0
C796 C 0.97725 0.82528 0.07382 0.0
C797 C 0.94804 0.86006 0.12283 0.0
C798 C 0.94282 0.86764 0.03903 0.0
C799 C 0.95509 0.85393 0.97273 0.0
C800 C 0.97216 0.83302 0.98988 0.0
C801 C 0.92369 0.88906 0.0207 0.0
C802 C 0.90236 0.88363 0.9673 0.0
C803 C 0.92548 0.91415 0.05902 0.0
C804 C 0.94823 0.92171 0.11228 0.0
C805 C 0.97396 0.91937 0.08107 0.0
C806 C 0.99532 0.92638 0.13173 0.0
C807 C 0.9912 0.93592 0.21355 0.0
C808 C 0.9657 0.93854 0.24481 0.0
C809 C 0.94426 0.93154 0.19443 0.0
H810 H 1.00776 0.94134 0.25267 0.0
H811 H 0.80035 0.87514 0.75858 0.0
H812 H 0.02422 0.34875 0.09358 0.0
H813 H 0.0553 0.38446 0.11786 0.0
H814 H 0.09281 0.33886 0.31412 0.0
H815 H 0.06044 0.30408 0.29411 0.0
H816 H 0.09506 0.3844 0.36228 0.0
H817 H 0.1171 0.34621 0.09687 0.0
H818 H 0.11027 0.33044 0.95095 0.0
H819 H 0.08994 0.40841 0.87149 0.0
H820 H 0.09633 0.42459 0.01726 0.0
H821 H 0.218 0.46183 0.19613 0.0
H822 H 0.18384 0.42899 0.17186 0.0
H823 H 0.13365 0.46864 0.35113 0.0
H824 H 0.16853 0.50027 0.37977 0.0
H825 H 0.13888 0.42511 0.11494 0.0
H826 H 0.09344 0.42829 0.45309 0.0
H827 H 0.10734 0.43713 0.59999 0.0
H828 H 0.18672 0.41712 0.5359 0.0
H829 H 0.17323 0.40783 0.389 0.0
C830 C 0.03892 0.34656 0.14263 0.0
C831 C 0.03994 0.32365 0.19194 0.0
C832 C 0.05691 0.36688 0.15591 0.0
C833 C 0.07706 0.36426 0.2163 0.0
C834 C 0.0776 0.34156 0.26702 0.0
C835 C 0.05907 0.32161 0.2556 0.0
C836 C 0.09769 0.38492 0.22614 0.0
C837 C 0.1046 0.39323 0.30798 0.0
C838 C 0.11086 0.39619 0.15586 0.0
C839 C 0.10693 0.38655 0.06815 0.0
C840 C 0.11099 0.35995 0.04839 0.0
C841 C 0.10722 0.35095 0.96571 0.0
C842 C 0.0996 0.3684 0.90204 0.0
C843 C 0.0958 0.39491 0.92091 0.0
C844 C 0.0995 0.40401 0.00353 0.0
C845 C 0.19957 0.46361 0.22973 0.0
C846 C 0.19598 0.48345 0.29031 0.0
C847 C 0.18 0.44481 0.2159 0.0
C848 C 0.15623 0.44577 0.26115 0.0
C849 C 0.15206 0.46673 0.31753 0.0
C850 C 0.17191 0.48502 0.33326 0.0
C851 C 0.1362 0.42457 0.25102 0.0
C852 C 0.12934 0.41624 0.16916 0.0
C853 C 0.1241 0.41226 0.32145 0.0
C854 C 0.13235 0.41766 0.40983 0.0
C855 C 0.11384 0.42571 0.47045 0.0
C856 C 0.12165 0.4308 0.55369 0.0
C857 C 0.14791 0.42778 0.57718 0.0
C858 C 0.1664 0.41955 0.51755 0.0
C859 C 0.15869 0.41439 0.43428 0.0
H860 H 0.15391 0.43175 0.64163 0.0
H861 H 0.09671 0.36139 0.83806 0.0
H862 H 0.5493 0.69015 0.69761 0.0
H863 H 0.57976 0.65416 0.6716 0.0
H864 H 0.56322 0.65834 0.40431 0.0
H865 H 0.53252 0.69463 0.42969 0.0
H866 H 0.56577 0.60657 0.46591 0.0
H867 H 0.61767 0.68495 0.47433 0.0
H868 H 0.63359 0.72658 0.53483 0.0
H869 H 0.66192 0.68564 0.75418 0.0
H870 H 0.64581 0.64379 0.69551 0.0
H871 H 0.67778 0.53681 0.31868 0.0
H872 H 0.64296 0.56841 0.34728 0.0
H873 H 0.6643 0.56924 0.61146 0.0
H874 H 0.69954 0.53773 0.58318 0.0
H875 H 0.65865 0.61812 0.55221 0.0
H876 H 0.60773 0.5396 0.54397 0.0
H877 H 0.59151 0.49786 0.48525 0.0
H878 H 0.56117 0.53846 0.26806 0.0
H879 H 0.57754 0.58043 0.32494 0.0
C880 C 0.55191 0.68339 0.63317 0.0
C881 C 0.53849 0.69547 0.56563 0.0
C882 C 0.56945 0.66281 0.61846 0.0
C883 C 0.57402 0.65374 0.53594 0.0
C884 C 0.56004 0.66508 0.46852 0.0
C885 C 0.54254 0.68586 0.48312 0.0
C886 C 0.594 0.63298 0.5204 0.0
C887 C 0.58615 0.60919 0.48367 0.0
C888 C 0.62047 0.63616 0.54561 0.0
C889 C 0.63029 0.66128 0.5809 0.0
C890 C 0.62709 0.68485 0.53579 0.0
C891 C 0.63619 0.70848 0.5697 0.0
C892 C 0.64869 0.70876 0.64841 0.0
C893 C 0.65219 0.6854 0.69327 0.0
C894 C 0.6431 0.66171 0.65969 0.0
C895 C 0.67497 0.54345 0.38316 0.0
C896 C 0.69155 0.53467 0.44863 0.0
C897 C 0.65491 0.5615 0.39945 0.0
C898 C 0.65082 0.57113 0.48166 0.0
C899 C 0.66705 0.5621 0.54749 0.0
C900 C 0.68713 0.54397 0.53128 0.0
C901 C 0.63047 0.59154 0.49785 0.0
C902 C 0.63826 0.61537 0.5346 0.0
C903 C 0.60396 0.58834 0.47283 0.0
C904 C 0.59409 0.56313 0.43836 0.0
C905 C 0.5978 0.53961 0.48334 0.0
C906 C 0.58854 0.51591 0.45045 0.0
C907 C 0.57538 0.5155 0.37287 0.0
C908 C 0.5714 0.53881 0.3281 0.0
C909 C 0.58064 0.56256 0.36068 0.0
H910 H 0.56822 0.49713 0.34752 0.0
H911 H 0.65571 0.72708 0.67456 0.0
loop_
_geom_bond_atom_site_label_1
_geom_bond_atom_site_label_2
_geom_bond_distance
_geom_bond_site_symmetry_2
_ccdc_geom_bond_type
O0 Cd1 2.223 . S
O0 C8 1.315 . S
Cd1 O0 2.223 . S
Cd1 O4 2.297 . S
Cd1 O5 2.439 . S
Cd1 O11 2.240 . S
Cd2 O3 2.240 . S
Cd2 O10 2.223 . S
Cd2 O12 2.297 . S
Cd2 O13 2.439 . S
O3 Cd2 2.240 . S
O3 C8 1.279 . S
O4 Cd1 2.297 . S
O4 C6 1.247 . S
O5 Cd1 2.439 . S
O5 C6 1.208 . S
C6 O4 1.247 . S
C6 O5 1.208 . S
C7 O12 1.247 . S
C7 O13 1.208 . S
C8 O0 1.315 . S
C8 O3 1.279 . S
C9 O10 1.315 . S
C9 O11 1.279 . S
O10 Cd2 2.223 . S
O10 C9 1.315 . S
O11 Cd1 2.240 . S
O11 C9 1.279 . S
O12 Cd2 2.297 . S
O12 C7 1.247 . S
O13 Cd2 2.439 . S
O13 C7 1.208 . S
O14 Cd15 2.223 . S
O14 C22 1.315 . S
Cd15 O14 2.223 . S
Cd15 O18 2.297 . S
Cd15 O19 2.439 . S
Cd15 O25 2.240 . S
Cd16 O17 2.240 . S
Cd16 O24 2.223 . S
Cd16 O26 2.297 . S
Cd16 O27 2.439 . S
O17 Cd16 2.240 . S
O17 C22 1.279 . S
O18 Cd15 2.297 . S
O18 C20 1.247 . S
O19 Cd15 2.439 . S
O19 C20 1.208 . S
C20 O18 1.247 . S
C20 O19 1.208 . S
C21 O26 1.247 . S
C21 O27 1.208 . S
C22 O14 1.315 . S
C22 O17 1.279 . S
C23 O24 1.315 . S
C23 O25 1.279 . S
O24 Cd16 2.223 . S
O24 C23 1.315 . S
O25 Cd15 2.240 . S
O25 C23 1.279 . S
O26 Cd16 2.297 . S
O26 C21 1.247 . S
O27 Cd16 2.439 . S
O27 C21 1.208 . S
O28 Cd29 2.223 1_545 S
O28 C36 1.315 . S
Cd29 O28 2.223 1_565 S
Cd29 O32 2.297 1_556 S
Cd29 O33 2.439 . S
Cd29 O39 2.240 1_565 S
Cd30 O31 2.240 1_565 S
Cd30 O38 2.223 1_565 S
Cd30 O40 2.297 . S
Cd30 O41 2.439 . S
O31 Cd30 2.240 1_545 S
O31 C36 1.279 . S
O32 Cd29 2.297 1_554 S
O32 C34 1.247 . S
O33 Cd29 2.439 . S
O33 C34 1.208 1_556 S
C34 O32 1.247 . S
C34 O33 1.208 1_554 S
C35 O40 1.247 . S
C35 O41 1.208 . S
C36 O28 1.315 . S
C36 O31 1.279 . S
C37 O38 1.315 . S
C37 O39 1.279 . S
O38 Cd30 2.223 1_545 S
O38 C37 1.315 . S
O39 Cd29 2.240 1_545 S
O39 C37 1.279 . S
O40 Cd30 2.297 . S
O40 C35 1.247 . S
O41 Cd30 2.439 . S
O41 C35 1.208 . S
O42 Cd43 2.223 1_655 S
O42 C50 1.315 . S
Cd43 O42 2.223 1_455 S
Cd43 O46 2.297 1_554 S
Cd43 O47 2.439 . S
Cd43 O53 2.240 1_455 S
Cd44 O45 2.240 1_455 S
Cd44 O52 2.223 1_455 S
Cd44 O54 2.297 . S
Cd44 O55 2.439 . S
O45 Cd44 2.240 1_655 S
O45 C50 1.279 . S
O46 Cd43 2.297 1_556 S
O46 C48 1.247 . S
O47 Cd43 2.439 . S
O47 C48 1.208 1_554 S
C48 O46 1.247 . S
C48 O47 1.208 1_556 S
C49 O54 1.247 . S
C49 O55 1.208 . S
C50 O42 1.315 . S
C50 O45 1.279 . S
C51 O52 1.315 . S
C51 O53 1.279 . S
O52 Cd44 2.223 1_655 S
O52 C51 1.315 . S
O53 Cd43 2.240 1_655 S
O53 C51 1.279 . S
O54 Cd44 2.297 . S
O54 C49 1.247 . S
O55 Cd44 2.439 . S
O55 C49 1.208 . S
O56 Cd57 2.223 1_565 S
O56 C64 1.315 . S
Cd57 O56 2.223 1_545 S
Cd57 O60 2.297 . S
Cd57 O61 2.439 . S
Cd57 O67 2.240 1_545 S
Cd58 O59 2.240 1_545 S
Cd58 O66 2.223 1_545 S
Cd58 O68 2.297 1_556 S
Cd58 O69 2.439 . S
O59 Cd58 2.240 1_565 S
O59 C64 1.279 . S
O60 Cd57 2.297 . S
O60 C62 1.247 . S
O61 Cd57 2.439 . S
O61 C62 1.208 . S
C62 O60 1.247 . S
C62 O61 1.208 . S
C63 O68 1.247 . S
C63 O69 1.208 1_554 S
C64 O56 1.315 . S
C64 O59 1.279 . S
C65 O66 1.315 . S
C65 O67 1.279 . S
O66 Cd58 2.223 1_565 S
O66 C65 1.315 . S
O67 Cd57 2.240 1_565 S
O67 C65 1.279 . S
O68 Cd58 2.297 1_554 S
O68 C63 1.247 . S
O69 Cd58 2.439 . S
O69 C63 1.208 1_556 S
O70 Cd71 2.223 1_455 S
O70 C78 1.315 . S
Cd71 O70 2.223 1_655 S
Cd71 O74 2.297 . S
Cd71 O75 2.439 . S
Cd71 O81 2.240 1_655 S
Cd72 O73 2.240 1_655 S
Cd72 O80 2.223 1_655 S
Cd72 O82 2.297 1_554 S
Cd72 O83 2.439 . S
O73 Cd72 2.240 1_455 S
O73 C78 1.279 . S
O74 Cd71 2.297 . S
O74 C76 1.247 . S
O75 Cd71 2.439 . S
O75 C76 1.208 . S
C76 O74 1.247 . S
C76 O75 1.208 . S
C77 O82 1.247 . S
C77 O83 1.208 1_556 S
C78 O70 1.315 . S
C78 O73 1.279 . S
C79 O80 1.315 . S
C79 O81 1.279 . S
O80 Cd72 2.223 1_455 S
O80 C79 1.315 . S
O81 Cd71 2.240 1_455 S
O81 C79 1.279 . S
O82 Cd72 2.297 1_556 S
O82 C77 1.247 . S
O83 Cd72 2.439 . S
O83 C77 1.208 1_554 S
O84 Cd85 2.223 . S
O84 C92 1.315 . S
Cd85 O84 2.223 . S
Cd85 O88 2.297 . S
Cd85 O89 2.439 . S
Cd85 O95 2.240 . S
Cd86 O87 2.240 . S
Cd86 O94 2.223 . S
Cd86 O96 2.297 . S
Cd86 O97 2.439 . S
O87 Cd86 2.240 . S
O87 C92 1.279 . S
O88 Cd85 2.297 . S
O88 C90 1.247 . S
O89 Cd85 2.439 . S
O89 C90 1.208 . S
C90 O88 1.247 . S
C90 O89 1.208 . S
C91 O96 1.247 . S
C91 O97 1.208 . S
C92 O84 1.315 . S
C92 O87 1.279 . S
C93 O94 1.315 . S
C93 O95 1.279 . S
O94 Cd86 2.223 . S
O94 C93 1.315 . S
O95 Cd85 2.240 . S
O95 C93 1.279 . S
O96 Cd86 2.297 . S
O96 C91 1.247 . S
O97 Cd86 2.439 . S
O97 C91 1.208 . S
O98 Cd99 2.223 . S
O98 C106 1.315 . S
Cd99 O98 2.223 . S
Cd99 O102 2.297 . S
Cd99 O103 2.439 . S
Cd99 O109 2.240 . S
Cd100 O101 2.240 . S
Cd100 O108 2.223 . S
Cd100 O110 2.297 . S
Cd100 O111 2.439 . S
O101 Cd100 2.240 . S
O101 C106 1.279 . S
O102 Cd99 2.297 . S
O102 C104 1.247 . S
O103 Cd99 2.439 . S
O103 C104 1.208 . S
C104 O102 1.247 . S
C104 O103 1.208 . S
C105 O110 1.247 . S
C105 O111 1.208 . S
C106 O98 1.315 . S
C106 O101 1.279 . S
C107 O108 1.315 . S
C107 O109 1.279 . S
O108 Cd100 2.223 . S
O108 C107 1.315 . S
O109 Cd99 2.240 . S
O109 C107 1.279 . S
O110 Cd100 2.297 . S
O110 C105 1.247 . S
O111 Cd100 2.439 . S
O111 C105 1.208 . S
H112 C130 0.951 . S
H113 C132 0.951 . S
H114 C134 0.950 . S
H115 C135 0.950 . S
H116 C137 0.950 . S
H117 C140 0.950 . S
H118 C141 0.950 . S
H119 C143 0.950 . S
H120 C144 0.950 . S
H121 C145 0.951 . S
H122 C147 0.951 . S
H123 C149 0.950 . S
H124 C150 0.950 . S
H125 C152 0.950 . S
H126 C155 0.950 . S
H127 C156 0.950 . S
H128 C158 0.950 . S
H129 C159 0.950 . S
C130 H112 0.951 . S
C130 C131 1.366 . S
C130 C132 1.388 . S
C131 C130 1.366 . S
C131 C135 1.385 . S
C132 H113 0.951 . S
C132 C130 1.388 . S
C132 C133 1.366 . S
C133 C132 1.366 . S
C133 C134 1.414 . S
C133 C136 1.499 . S
C134 H114 0.950 . S
C134 C133 1.414 . S
C134 C135 1.374 . S
C135 H115 0.950 . S
C135 C131 1.385 . S
C135 C134 1.374 . S
C136 C133 1.499 . S
C136 C137 1.373 1_556 S
C136 C138 1.389 . S
C137 H116 0.950 . S
C137 C136 1.373 1_554 S
C137 C153 1.377 . S
C138 C136 1.389 . S
C138 C139 1.524 . S
C138 C152 1.377 . S
C139 C138 1.524 . S
C139 C140 1.397 . S
C139 C144 1.363 . S
C140 H117 0.950 . S
C140 C139 1.397 . S
C140 C141 1.334 . S
C141 H118 0.950 . S
C141 C140 1.334 . S
C141 C142 1.287 . S
C142 C141 1.287 . S
C142 C143 1.524 . S
C142 H161 0.913 . S
C143 H119 0.950 . S
C143 C142 1.524 . S
C143 C144 1.415 . S
C144 H120 0.950 . S
C144 C139 1.363 . S
C144 C143 1.415 . S
C145 H121 0.951 . S
C145 C146 1.366 . S
C145 C147 1.388 . S
C146 C145 1.366 . S
C146 C150 1.385 . S
C147 H122 0.951 . S
C147 C145 1.388 . S
C147 C148 1.366 . S
C148 C147 1.366 . S
C148 C149 1.414 . S
C148 C151 1.499 . S
C149 H123 0.950 . S
C149 C148 1.414 . S
C149 C150 1.374 . S
C150 H124 0.950 . S
C150 C146 1.385 . S
C150 C149 1.374 . S
C151 C148 1.499 . S
C151 C152 1.373 1_554 S
C151 C153 1.389 . S
C152 H125 0.950 . S
C152 C138 1.377 . S
C152 C151 1.373 1_556 S
C153 C137 1.377 . S
C153 C151 1.389 . S
C153 C154 1.524 . S
C154 C153 1.524 . S
C154 C155 1.397 . S
C154 C159 1.363 . S
C155 H126 0.950 . S
C155 C154 1.397 . S
C155 C156 1.334 . S
C156 H127 0.950 . S
C156 C155 1.334 . S
C156 C157 1.287 . S
C157 C156 1.287 . S
C157 C158 1.524 . S
C157 H160 0.999 . S
C158 H128 0.950 . S
C158 C157 1.524 . S
C158 C159 1.415 . S
C159 H129 0.950 . S
C159 C154 1.363 . S
C159 C158 1.415 . S
H160 C157 0.999 . S
H161 C142 0.913 . S
H162 C180 0.951 . S
H163 C182 0.951 . S
H164 C184 0.950 . S
H165 C185 0.950 . S
H166 C187 0.950 . S
H167 C190 0.950 . S
H168 C191 0.950 . S
H169 C193 0.950 . S
H170 C194 0.950 . S
H171 C195 0.951 . S
H172 C197 0.951 . S
H173 C199 0.950 . S
H174 C200 0.950 1_556 S
H175 C202 0.950 . S
H176 C205 0.950 . S
H177 C206 0.950 . S
H178 C208 0.950 . S
H179 C209 0.950 . S
C180 H162 0.951 . S
C180 C181 1.366 . S
C180 C182 1.388 . S
C181 C180 1.366 . S
C181 C185 1.385 . S
C182 H163 0.951 . S
C182 C180 1.388 . S
C182 C183 1.366 . S
C183 C182 1.366 . S
C183 C184 1.414 . S
C183 C186 1.499 . S
C184 H164 0.950 . S
C184 C183 1.414 . S
C184 C185 1.374 . S
C185 H165 0.950 . S
C185 C181 1.385 . S
C185 C184 1.374 . S
C186 C183 1.499 . S
C186 C187 1.373 . S
C186 C188 1.389 . S
C187 H166 0.950 . S
C187 C186 1.373 . S
C187 C203 1.377 . S
C188 C186 1.389 . S
C188 C189 1.524 . S
C188 C202 1.377 . S
C189 C188 1.524 . S
C189 C190 1.397 . S
C189 C194 1.363 . S
C190 H167 0.950 . S
C190 C189 1.397 . S
C190 C191 1.334 . S
C191 H168 0.950 . S
C191 C190 1.334 . S
C191 C192 1.287 . S
C192 C191 1.287 . S
C192 C193 1.524 . S
C192 H211 0.913 . S
C193 H169 0.950 . S
C193 C192 1.524 . S
C193 C194 1.415 . S
C194 H170 0.950 . S
C194 C189 1.363 . S
C194 C193 1.415 . S
C195 H171 0.951 . S
C195 C196 1.366 . S
C195 C197 1.388 . S
C196 C195 1.366 . S
C196 C200 1.385 . S
C197 H172 0.951 . S
C197 C195 1.388 . S
C197 C198 1.366 . S
C198 C197 1.366 . S
C198 C199 1.414 . S
C198 C201 1.499 . S
C199 H173 0.950 . S
C199 C198 1.414 . S
C199 C200 1.374 . S
C200 H174 0.950 1_554 S
C200 C196 1.385 . S
C200 C199 1.374 . S
C201 C198 1.499 . S
C201 C202 1.373 . S
C201 C203 1.389 . S
C202 H175 0.950 . S
C202 C188 1.377 . S
C202 C201 1.373 . S
C203 C187 1.377 . S
C203 C201 1.389 . S
C203 C204 1.524 . S
C204 C203 1.524 . S
C204 C205 1.397 . S
C204 C209 1.363 . S
C205 H176 0.950 . S
C205 C204 1.397 . S
C205 C206 1.334 . S
C206 H177 0.950 . S
C206 C205 1.334 . S
C206 C207 1.287 . S
C207 C206 1.287 . S
C207 C208 1.524 . S
C207 H210 0.999 . S
C208 H178 0.950 . S
C208 C207 1.524 . S
C208 C209 1.415 . S
C209 H179 0.950 . S
C209 C204 1.363 . S
C209 C208 1.415 . S
H210 C207 0.999 . S
H211 C192 0.913 . S
H212 C230 0.951 . S
H213 C232 0.951 . S
H214 C234 0.950 . S
H215 C235 0.950 . S
H216 C237 0.950 . S
H217 C240 0.950 . S
H218 C241 0.950 . S
H219 C243 0.950 . S
H220 C244 0.950 . S
H221 C245 0.951 . S
H222 C247 0.951 . S
H223 C249 0.950 . S
H224 C250 0.950 . S
H225 C252 0.950 . S
H226 C255 0.950 . S
H227 C256 0.950 . S
H228 C258 0.950 . S
H229 C259 0.950 . S
C230 H212 0.951 . S
C230 C231 1.366 . S
C230 C232 1.388 . S
C231 C230 1.366 . S
C231 C235 1.385 . S
C232 H213 0.951 . S
C232 C230 1.388 . S
C232 C233 1.366 . S
C233 C232 1.366 . S
C233 C234 1.414 . S
C233 C236 1.499 . S
C234 H214 0.950 . S
C234 C233 1.414 . S
C234 C235 1.374 . S
C235 H215 0.950 . S
C235 C231 1.385 . S
C235 C234 1.374 . S
C236 C233 1.499 . S
C236 C237 1.373 . S
C236 C238 1.389 . S
C237 H216 0.950 . S
C237 C236 1.373 . S
C237 C253 1.377 . S
C238 C236 1.389 . S
C238 C239 1.524 . S
C238 C252 1.377 . S
C239 C238 1.524 . S
C239 C240 1.397 . S
C239 C244 1.363 . S
C240 H217 0.950 . S
C240 C239 1.397 . S
C240 C241 1.334 . S
C241 H218 0.950 . S
C241 C240 1.334 . S
C241 C242 1.287 . S
C242 C241 1.287 . S
C242 C243 1.524 . S
C242 H261 0.913 . S
C243 H219 0.950 . S
C243 C242 1.524 . S
C243 C244 1.415 . S
C244 H220 0.950 . S
C244 C239 1.363 . S
C244 C243 1.415 . S
C245 H221 0.951 . S
C245 C246 1.366 . S
C245 C247 1.388 . S
C246 C245 1.366 . S
C246 C250 1.385 . S
C247 H222 0.951 . S
C247 C245 1.388 . S
C247 C248 1.366 . S
C248 C247 1.366 . S
C248 C249 1.414 . S
C248 C251 1.499 . S
C249 H223 0.950 . S
C249 C248 1.414 . S
C249 C250 1.374 . S
C250 H224 0.950 . S
C250 C246 1.385 . S
C250 C249 1.374 . S
C251 C248 1.499 . S
C251 C252 1.373 . S
C251 C253 1.389 . S
C252 H225 0.950 . S
C252 C238 1.377 . S
C252 C251 1.373 . S
C253 C237 1.377 . S
C253 C251 1.389 . S
C253 C254 1.524 . S
C254 C253 1.524 . S
C254 C255 1.397 . S
C254 C259 1.363 . S
C255 H226 0.950 . S
C255 C254 1.397 . S
C255 C256 1.334 . S
C256 H227 0.950 . S
C256 C255 1.334 . S
C256 C257 1.287 . S
C257 C256 1.287 . S
C257 C258 1.524 . S
C257 H260 0.999 . S
C258 H228 0.950 . S
C258 C257 1.524 . S
C258 C259 1.415 . S
C259 H229 0.950 . S
C259 C254 1.363 . S
C259 C258 1.415 . S
H260 C257 0.999 . S
H261 C242 0.913 . S
H262 C280 0.951 . S
H263 C282 0.951 . S
H264 C284 0.950 . S
H265 C285 0.950 . S
H266 C287 0.950 . S
H267 C290 0.950 . S
H268 C291 0.950 . S
H269 C293 0.950 . S
H270 C294 0.950 . S
H271 C295 0.951 . S
H272 C297 0.951 . S
H273 C299 0.950 . S
H274 C300 0.950 . S
H275 C302 0.950 . S
H276 C305 0.950 . S
H277 C306 0.950 . S
H278 C308 0.950 . S
H279 C309 0.950 . S
C280 H262 0.951 . S
C280 C281 1.366 . S
C280 C282 1.388 . S
C281 C280 1.366 . S
C281 C285 1.385 . S
C282 H263 0.951 . S
C282 C280 1.388 . S
C282 C283 1.366 . S
C283 C282 1.366 . S
C283 C284 1.414 . S
C283 C286 1.499 . S
C284 H264 0.950 . S
C284 C283 1.414 . S
C284 C285 1.374 . S
C285 H265 0.950 . S
C285 C281 1.385 . S
C285 C284 1.374 . S
C286 C283 1.499 . S
C286 C287 1.373 . S
C286 C288 1.389 . S
C287 H266 0.950 . S
C287 C286 1.373 . S
C287 C303 1.377 . S
C288 C286 1.389 . S
C288 C289 1.524 . S
C288 C302 1.377 . S
C289 C288 1.524 . S
C289 C290 1.397 . S
C289 C294 1.363 . S
C290 H267 0.950 . S
C290 C289 1.397 . S
C290 C291 1.334 1_556 S
C291 H268 0.950 . S
C291 C290 1.334 1_554 S
C291 C292 1.287 . S
C292 C291 1.287 . S
C292 C293 1.524 1_554 S
C292 H311 0.913 . S
C293 H269 0.950 . S
C293 C292 1.524 1_556 S
C293 C294 1.415 . S
C294 H270 0.950 . S
C294 C289 1.363 . S
C294 C293 1.415 . S
C295 H271 0.951 . S
C295 C296 1.366 . S
C295 C297 1.388 . S
C296 C295 1.366 . S
C296 C300 1.385 . S
C297 H272 0.951 . S
C297 C295 1.388 . S
C297 C298 1.366 . S
C298 C297 1.366 . S
C298 C299 1.414 . S
C298 C301 1.499 . S
C299 H273 0.950 . S
C299 C298 1.414 . S
C299 C300 1.374 . S
C300 H274 0.950 . S
C300 C296 1.385 . S
C300 C299 1.374 . S
C301 C298 1.499 . S
C301 C302 1.373 . S
C301 C303 1.389 . S
C302 H275 0.950 . S
C302 C288 1.377 . S
C302 C301 1.373 . S
C303 C287 1.377 . S
C303 C301 1.389 . S
C303 C304 1.524 . S
C304 C303 1.524 . S
C304 C305 1.397 . S
C304 C309 1.363 . S
C305 H276 0.950 . S
C305 C304 1.397 . S
C305 C306 1.334 . S
C306 H277 0.950 . S
C306 C305 1.334 . S
C306 C307 1.287 . S
C307 C306 1.287 . S
C307 C308 1.524 . S
C307 H310 0.999 . S
C308 H278 0.950 . S
C308 C307 1.524 . S
C308 C309 1.415 . S
C309 H279 0.950 . S
C309 C304 1.363 . S
C309 C308 1.415 . S
H310 C307 0.999 . S
H311 C292 0.913 . S
H312 C330 0.951 . S
H313 C332 0.951 . S
H314 C334 0.950 . S
H315 C335 0.950 . S
H316 C337 0.950 . S
H317 C340 0.950 . S
H318 C341 0.950 . S
H319 C343 0.950 . S
H320 C344 0.950 . S
H321 C345 0.951 . S
H322 C347 0.951 . S
H323 C349 0.950 . S
H324 C350 0.950 . S
H325 C352 0.950 . S
H326 C355 0.950 . S
H327 C356 0.950 . S
H328 C358 0.950 . S
H329 C359 0.950 . S
C330 H312 0.951 . S
C330 C331 1.366 . S
C330 C332 1.388 . S
C331 C330 1.366 . S
C331 C335 1.385 . S
C332 H313 0.951 . S
C332 C330 1.388 . S
C332 C333 1.366 . S
C333 C332 1.366 . S
C333 C334 1.414 . S
C333 C336 1.499 . S
C334 H314 0.950 . S
C334 C333 1.414 . S
C334 C335 1.374 . S
C335 H315 0.950 . S
C335 C331 1.385 . S
C335 C334 1.374 . S
C336 C333 1.499 . S
C336 C337 1.373 . S
C336 C338 1.389 . S
C337 H316 0.950 . S
C337 C336 1.373 . S
C337 C353 1.377 . S
C338 C336 1.389 . S
C338 C339 1.524 . S
C338 C352 1.377 . S
C339 C338 1.524 . S
C339 C340 1.397 . S
C339 C344 1.363 . S
C340 H317 0.950 . S
C340 C339 1.397 . S
C340 C341 1.334 . S
C341 H318 0.950 . S
C341 C340 1.334 . S
C341 C342 1.287 . S
C342 C341 1.287 . S
C342 C343 1.524 . S
C342 H361 0.913 . S
C343 H319 0.950 . S
C343 C342 1.524 . S
C343 C344 1.415 . S
C344 H320 0.950 . S
C344 C339 1.363 . S
C344 C343 1.415 . S
C345 H321 0.951 . S
C345 C346 1.366 . S
C345 C347 1.388 . S
C346 C345 1.366 . S
C346 C350 1.385 . S
C347 H322 0.951 . S
C347 C345 1.388 . S
C347 C348 1.366 . S
C348 C347 1.366 . S
C348 C349 1.414 . S
C348 C351 1.499 . S
C349 H323 0.950 . S
C349 C348 1.414 . S
C349 C350 1.374 . S
C350 H324 0.950 . S
C350 C346 1.385 . S
C350 C349 1.374 . S
C351 C348 1.499 . S
C351 C352 1.373 . S
C351 C353 1.389 . S
C352 H325 0.950 . S
C352 C338 1.377 . S
C352 C351 1.373 . S
C353 C337 1.377 . S
C353 C351 1.389 . S
C353 C354 1.524 . S
C354 C353 1.524 . S
C354 C355 1.397 . S
C354 C359 1.363 . S
C355 H326 0.950 . S
C355 C354 1.397 . S
C355 C356 1.334 . S
C356 H327 0.950 . S
C356 C355 1.334 . S
C356 C357 1.287 . S
C357 C356 1.287 . S
C357 C358 1.524 . S
C357 H360 0.999 . S
C358 H328 0.950 . S
C358 C357 1.524 . S
C358 C359 1.415 . S
C359 H329 0.950 . S
C359 C354 1.363 . S
C359 C358 1.415 . S
H360 C357 0.999 . S
H361 C342 0.913 . S
H362 C380 0.951 1_554 S
H363 C382 0.951 . S
H364 C384 0.950 . S
H365 C385 0.950 . S
H366 C387 0.950 . S
H367 C390 0.950 . S
H368 C391 0.950 . S
H369 C393 0.950 . S
H370 C394 0.950 . S
H371 C395 0.951 . S
H372 C397 0.951 . S
H373 C399 0.950 . S
H374 C400 0.950 . S
H375 C402 0.950 . S
H376 C405 0.950 . S
H377 C406 0.950 . S
H378 C408 0.950 . S
H379 C409 0.950 . S
C380 H362 0.951 1_556 S
C380 C381 1.366 . S
C380 C382 1.388 . S
C381 C380 1.366 . S
C381 C385 1.385 . S
C382 H363 0.951 . S
C382 C380 1.388 . S
C382 C383 1.366 . S
C383 C382 1.366 . S
C383 C384 1.414 . S
C383 C386 1.499 . S
C384 H364 0.950 . S
C384 C383 1.414 . S
C384 C385 1.374 . S
C385 H365 0.950 . S
C385 C381 1.385 . S
C385 C384 1.374 . S
C386 C383 1.499 . S
C386 C387 1.373 . S
C386 C388 1.389 . S
C387 H366 0.950 . S
C387 C386 1.373 . S
C387 C403 1.377 . S
C388 C386 1.389 . S
C388 C389 1.524 . S
C388 C402 1.377 . S
C389 C388 1.524 . S
C389 C390 1.397 . S
C389 C394 1.363 . S
C390 H367 0.950 . S
C390 C389 1.397 . S
C390 C391 1.334 . S
C391 H368 0.950 . S
C391 C390 1.334 . S
C391 C392 1.287 . S
C392 C391 1.287 . S
C392 C393 1.524 . S
C392 H411 0.913 . S
C393 H369 0.950 . S
C393 C392 1.524 . S
C393 C394 1.415 . S
C394 H370 0.950 . S
C394 C389 1.363 . S
C394 C393 1.415 . S
C395 H371 0.951 . S
C395 C396 1.366 . S
C395 C397 1.388 . S
C396 C395 1.366 . S
C396 C400 1.385 . S
C397 H372 0.951 . S
C397 C395 1.388 . S
C397 C398 1.366 . S
C398 C397 1.366 . S
C398 C399 1.414 . S
C398 C401 1.499 . S
C399 H373 0.950 . S
C399 C398 1.414 . S
C399 C400 1.374 . S
C400 H374 0.950 . S
C400 C396 1.385 . S
C400 C399 1.374 . S
C401 C398 1.499 . S
C401 C402 1.373 . S
C401 C403 1.389 . S
C402 H375 0.950 . S
C402 C388 1.377 . S
C402 C401 1.373 . S
C403 C387 1.377 . S
C403 C401 1.389 . S
C403 C404 1.524 . S
C404 C403 1.524 . S
C404 C405 1.397 . S
C404 C409 1.363 . S
C405 H376 0.950 . S
C405 C404 1.397 . S
C405 C406 1.334 . S
C406 H377 0.950 . S
C406 C405 1.334 . S
C406 C407 1.287 . S
C407 C406 1.287 . S
C407 C408 1.524 . S
C407 H410 0.999 . S
C408 H378 0.950 . S
C408 C407 1.524 . S
C408 C409 1.415 . S
C409 H379 0.950 . S
C409 C404 1.363 . S
C409 C408 1.415 . S
H410 C407 0.999 . S
H411 C392 0.913 . S
H412 C430 0.951 . S
H413 C432 0.951 . S
H414 C434 0.950 . S
H415 C435 0.950 . S
H416 C437 0.950 . S
H417 C440 0.950 . S
H418 C441 0.950 . S
H419 C443 0.950 . S
H420 C444 0.950 . S
H421 C445 0.951 . S
H422 C447 0.951 . S
H423 C449 0.950 . S
H424 C450 0.950 . S
H425 C452 0.950 . S
H426 C455 0.950 . S
H427 C456 0.950 . S
H428 C458 0.950 . S
H429 C459 0.950 . S
C430 H412 0.951 . S
C430 C431 1.366 . S
C430 C432 1.388 . S
C431 C430 1.366 . S
C431 C435 1.385 . S
C432 H413 0.951 . S
C432 C430 1.388 . S
C432 C433 1.366 . S
C433 C432 1.366 . S
C433 C434 1.414 . S
C433 C436 1.499 . S
C434 H414 0.950 . S
C434 C433 1.414 . S
C434 C435 1.374 . S
C435 H415 0.950 . S
C435 C431 1.385 . S
C435 C434 1.374 . S
C436 C433 1.499 . S
C436 C437 1.373 . S
C436 C438 1.389 1_554 S
C437 H416 0.950 . S
C437 C436 1.373 . S
C437 C453 1.377 . S
C438 C436 1.389 1_556 S
C438 C439 1.524 . S
C438 C452 1.377 . S
C439 C438 1.524 . S
C439 C440 1.397 . S
C439 C444 1.363 . S
C440 H417 0.950 . S
C440 C439 1.397 . S
C440 C441 1.334 . S
C441 H418 0.950 . S
C441 C440 1.334 . S
C441 C442 1.287 . S
C442 C441 1.287 . S
C442 C443 1.524 . S
C442 H461 0.913 . S
C443 H419 0.950 . S
C443 C442 1.524 . S
C443 C444 1.415 . S
C444 H420 0.950 . S
C444 C439 1.363 . S
C444 C443 1.415 . S
C445 H421 0.951 . S
C445 C446 1.366 . S
C445 C447 1.388 . S
C446 C445 1.366 . S
C446 C450 1.385 . S
C447 H422 0.951 . S
C447 C445 1.388 . S
C447 C448 1.366 . S
C448 C447 1.366 . S
C448 C449 1.414 . S
C448 C451 1.499 . S
C449 H423 0.950 . S
C449 C448 1.414 . S
C449 C450 1.374 . S
C450 H424 0.950 . S
C450 C446 1.385 . S
C450 C449 1.374 . S
C451 C448 1.499 . S
C451 C452 1.373 . S
C451 C453 1.389 1_556 S
C452 H425 0.950 . S
C452 C438 1.377 . S
C452 C451 1.373 . S
C453 C437 1.377 . S
C453 C451 1.389 1_554 S
C453 C454 1.524 . S
C454 C453 1.524 . S
C454 C455 1.397 . S
C454 C459 1.363 . S
C455 H426 0.950 . S
C455 C454 1.397 . S
C455 C456 1.334 . S
C456 H427 0.950 . S
C456 C455 1.334 . S
C456 C457 1.287 . S
C457 C456 1.287 . S
C457 C458 1.524 . S
C457 H460 0.999 . S
C458 H428 0.950 . S
C458 C457 1.524 . S
C458 C459 1.415 . S
C459 H429 0.950 . S
C459 C454 1.363 . S
C459 C458 1.415 . S
H460 C457 0.999 . S
H461 C442 0.913 . S
H462 C480 0.951 . S
H463 C482 0.951 . S
H464 C484 0.950 . S
H465 C485 0.950 1_556 S
H466 C487 0.950 . S
H467 C490 0.950 . S
H468 C491 0.950 . S
H469 C493 0.950 . S
H470 C494 0.950 . S
H471 C495 0.951 . S
H472 C497 0.951 . S
H473 C499 0.950 . S
H474 C500 0.950 . S
H475 C502 0.950 . S
H476 C505 0.950 . S
H477 C506 0.950 . S
H478 C508 0.950 . S
H479 C509 0.950 . S
C480 H462 0.951 . S
C480 C481 1.366 . S
C480 C482 1.388 . S
C481 C480 1.366 . S
C481 C485 1.385 . S
C482 H463 0.951 . S
C482 C480 1.388 . S
C482 C483 1.366 . S
C483 C482 1.366 . S
C483 C484 1.414 . S
C483 C486 1.499 . S
C484 H464 0.950 . S
C484 C483 1.414 . S
C484 C485 1.374 . S
C485 H465 0.950 1_554 S
C485 C481 1.385 . S
C485 C484 1.374 . S
C486 C483 1.499 . S
C486 C487 1.373 . S
C486 C488 1.389 . S
C487 H466 0.950 . S
C487 C486 1.373 . S
C487 C503 1.377 . S
C488 C486 1.389 . S
C488 C489 1.524 . S
C488 C502 1.377 . S
C489 C488 1.524 . S
C489 C490 1.397 . S
C489 C494 1.363 . S
C490 H467 0.950 . S
C490 C489 1.397 . S
C490 C491 1.334 . S
C491 H468 0.950 . S
C491 C490 1.334 . S
C491 C492 1.287 . S
C492 C491 1.287 . S
C492 C493 1.524 . S
C492 H511 0.913 . S
C493 H469 0.950 . S
C493 C492 1.524 . S
C493 C494 1.415 . S
C494 H470 0.950 . S
C494 C489 1.363 . S
C494 C493 1.415 . S
C495 H471 0.951 . S
C495 C496 1.366 . S
C495 C497 1.388 . S
C496 C495 1.366 . S
C496 C500 1.385 . S
C497 H472 0.951 . S
C497 C495 1.388 . S
C497 C498 1.366 . S
C498 C497 1.366 . S
C498 C499 1.414 . S
C498 C501 1.499 . S
C499 H473 0.950 . S
C499 C498 1.414 . S
C499 C500 1.374 . S
C500 H474 0.950 . S
C500 C496 1.385 . S
C500 C499 1.374 . S
C501 C498 1.499 . S
C501 C502 1.373 . S
C501 C503 1.389 . S
C502 H475 0.950 . S
C502 C488 1.377 . S
C502 C501 1.373 . S
C503 C487 1.377 . S
C503 C501 1.389 . S
C503 C504 1.524 . S
C504 C503 1.524 . S
C504 C505 1.397 . S
C504 C509 1.363 . S
C505 H476 0.950 . S
C505 C504 1.397 . S
C505 C506 1.334 . S
C506 H477 0.950 . S
C506 C505 1.334 . S
C506 C507 1.287 . S
C507 C506 1.287 . S
C507 C508 1.524 . S
C507 H510 0.999 . S
C508 H478 0.950 . S
C508 C507 1.524 . S
C508 C509 1.415 . S
C509 H479 0.950 . S
C509 C504 1.363 . S
C509 C508 1.415 . S
H510 C507 0.999 . S
H511 C492 0.913 . S
H512 C530 0.951 . S
H513 C532 0.951 . S
H514 C534 0.950 . S
H515 C535 0.950 . S
H516 C537 0.950 . S
H517 C540 0.950 . S
H518 C541 0.950 . S
H519 C543 0.950 . S
H520 C544 0.950 . S
H521 C545 0.951 . S
H522 C547 0.951 . S
H523 C549 0.950 . S
H524 C550 0.950 . S
H525 C552 0.950 . S
H526 C555 0.950 . S
H527 C556 0.950 . S
H528 C558 0.950 . S
H529 C559 0.950 . S
C530 H512 0.951 . S
C530 C531 1.366 . S
C530 C532 1.388 . S
C531 C530 1.366 . S
C531 C535 1.385 . S
C532 H513 0.951 . S
C532 C530 1.388 . S
C532 C533 1.366 . S
C533 C532 1.366 . S
C533 C534 1.414 . S
C533 C536 1.499 . S
C534 H514 0.950 . S
C534 C533 1.414 . S
C534 C535 1.374 . S
C535 H515 0.950 . S
C535 C531 1.385 . S
C535 C534 1.374 . S
C536 C533 1.499 . S
C536 C537 1.373 . S
C536 C538 1.389 . S
C537 H516 0.950 . S
C537 C536 1.373 . S
C537 C553 1.377 . S
C538 C536 1.389 . S
C538 C539 1.524 . S
C538 C552 1.377 . S
C539 C538 1.524 . S
C539 C540 1.397 . S
C539 C544 1.363 . S
C540 H517 0.950 . S
C540 C539 1.397 . S
C540 C541 1.334 . S
C541 H518 0.950 . S
C541 C540 1.334 . S
C541 C542 1.287 . S
C542 C541 1.287 . S
C542 C543 1.524 . S
C542 H561 0.913 . S
C543 H519 0.950 . S
C543 C542 1.524 . S
C543 C544 1.415 . S
C544 H520 0.950 . S
C544 C539 1.363 . S
C544 C543 1.415 . S
C545 H521 0.951 . S
C545 C546 1.366 . S
C545 C547 1.388 . S
C546 C545 1.366 . S
C546 C550 1.385 . S
C547 H522 0.951 . S
C547 C545 1.388 . S
C547 C548 1.366 . S
C548 C547 1.366 . S
C548 C549 1.414 . S
C548 C551 1.499 . S
C549 H523 0.950 . S
C549 C548 1.414 . S
C549 C550 1.374 . S
C550 H524 0.950 . S
C550 C546 1.385 . S
C550 C549 1.374 . S
C551 C548 1.499 . S
C551 C552 1.373 . S
C551 C553 1.389 . S
C552 H525 0.950 . S
C552 C538 1.377 . S
C552 C551 1.373 . S
C553 C537 1.377 . S
C553 C551 1.389 . S
C553 C554 1.524 . S
C554 C553 1.524 . S
C554 C555 1.397 . S
C554 C559 1.363 . S
C555 H526 0.950 . S
C555 C554 1.397 . S
C555 C556 1.334 . S
C556 H527 0.950 . S
C556 C555 1.334 . S
C556 C557 1.287 . S
C557 C556 1.287 . S
C557 C558 1.524 . S
C557 H560 0.999 . S
C558 H528 0.950 . S
C558 C557 1.524 . S
C558 C559 1.415 . S
C559 H529 0.950 . S
C559 C554 1.363 . S
C559 C558 1.415 . S
H560 C557 0.999 . S
H561 C542 0.913 . S
H562 C580 0.951 . S
H563 C582 0.951 . S
H564 C584 0.950 . S
H565 C585 0.950 . S
H566 C587 0.950 . S
H567 C590 0.950 . S
H568 C591 0.950 . S
H569 C593 0.950 . S
H570 C594 0.950 . S
H571 C595 0.951 . S
H572 C597 0.951 . S
H573 C599 0.950 . S
H574 C600 0.950 . S
H575 C602 0.950 . S
H576 C605 0.950 . S
H577 C606 0.950 . S
H578 C608 0.950 . S
H579 C609 0.950 . S
C580 H562 0.951 . S
C580 C581 1.366 . S
C580 C582 1.388 . S
C581 C580 1.366 . S
C581 C585 1.385 . S
C582 H563 0.951 . S
C582 C580 1.388 . S
C582 C583 1.366 . S
C583 C582 1.366 . S
C583 C584 1.414 . S
C583 C586 1.499 . S
C584 H564 0.950 . S
C584 C583 1.414 . S
C584 C585 1.374 . S
C585 H565 0.950 . S
C585 C581 1.385 . S
C585 C584 1.374 . S
C586 C583 1.499 . S
C586 C587 1.373 . S
C586 C588 1.389 . S
C587 H566 0.950 . S
C587 C586 1.373 . S
C587 C603 1.377 . S
C588 C586 1.389 . S
C588 C589 1.524 . S
C588 C602 1.377 . S
C589 C588 1.524 . S
C589 C590 1.397 . S
C589 C594 1.363 . S
C590 H567 0.950 . S
C590 C589 1.397 . S
C590 C591 1.334 . S
C591 H568 0.950 . S
C591 C590 1.334 . S
C591 C592 1.287 . S
C592 C591 1.287 . S
C592 C593 1.524 . S
C592 H611 0.913 . S
C593 H569 0.950 . S
C593 C592 1.524 . S
C593 C594 1.415 . S
C594 H570 0.950 . S
C594 C589 1.363 . S
C594 C593 1.415 . S
C595 H571 0.951 . S
C595 C596 1.366 . S
C595 C597 1.388 . S
C596 C595 1.366 . S
C596 C600 1.385 . S
C597 H572 0.951 . S
C597 C595 1.388 . S
C597 C598 1.366 . S
C598 C597 1.366 . S
C598 C599 1.414 . S
C598 C601 1.499 . S
C599 H573 0.950 . S
C599 C598 1.414 . S
C599 C600 1.374 . S
C600 H574 0.950 . S
C600 C596 1.385 . S
C600 C599 1.374 . S
C601 C598 1.499 . S
C601 C602 1.373 . S
C601 C603 1.389 . S
C602 H575 0.950 . S
C602 C588 1.377 . S
C602 C601 1.373 . S
C603 C587 1.377 . S
C603 C601 1.389 . S
C603 C604 1.524 . S
C604 C603 1.524 . S
C604 C605 1.397 . S
C604 C609 1.363 . S
C605 H576 0.950 . S
C605 C604 1.397 . S
C605 C606 1.334 . S
C606 H577 0.950 . S
C606 C605 1.334 . S
C606 C607 1.287 . S
C607 C606 1.287 . S
C607 C608 1.524 . S
C607 H610 0.999 . S
C608 H578 0.950 . S
C608 C607 1.524 . S
C608 C609 1.415 . S
C609 H579 0.950 . S
C609 C604 1.363 . S
C609 C608 1.415 . S
H610 C607 0.999 . S
H611 C592 0.913 . S
H612 C630 0.951 . S
H613 C632 0.951 . S
H614 C634 0.950 . S
H615 C635 0.950 1_556 S
H616 C637 0.950 . S
H617 C640 0.950 . S
H618 C641 0.950 . S
H619 C643 0.950 . S
H620 C644 0.950 . S
H621 C645 0.951 . S
H622 C647 0.951 . S
H623 C649 0.950 . S
H624 C650 0.950 1_554 S
H625 C652 0.950 . S
H626 C655 0.950 . S
H627 C656 0.950 . S
H628 C658 0.950 . S
H629 C659 0.950 . S
C630 H612 0.951 . S
C630 C631 1.366 . S
C630 C632 1.388 . S
C631 C630 1.366 . S
C631 C635 1.385 . S
C632 H613 0.951 . S
C632 C630 1.388 . S
C632 C633 1.366 . S
C633 C632 1.366 . S
C633 C634 1.414 1_554 S
C633 C636 1.499 . S
C634 H614 0.950 . S
C634 C633 1.414 1_556 S
C634 C635 1.374 1_556 S
C635 H615 0.950 1_554 S
C635 C631 1.385 . S
C635 C634 1.374 1_554 S
C636 C633 1.499 . S
C636 C637 1.373 . S
C636 C638 1.391 . S
C637 H616 0.950 . S
C637 C636 1.373 . S
C637 C653 1.375 1_554 S
C638 C636 1.391 . S
C638 C639 1.524 1_554 S
C638 C652 1.375 1_554 S
C639 C638 1.524 1_556 S
C639 C640 1.397 . S
C639 C644 1.363 1_556 S
C640 H617 0.950 . S
C640 C639 1.397 . S
C640 C641 1.334 . S
C641 H618 0.950 . S
C641 C640 1.334 . S
C641 C642 1.287 . S
C642 C641 1.287 . S
C642 C643 1.524 1_556 S
C642 H661 0.913 . S
C643 H619 0.950 . S
C643 C642 1.524 1_554 S
C643 C644 1.415 . S
C644 H620 0.950 . S
C644 C639 1.363 1_554 S
C644 C643 1.415 . S
C645 H621 0.951 . S
C645 C646 1.366 . S
C645 C647 1.388 . S
C646 C645 1.366 . S
C646 C650 1.385 . S
C647 H622 0.951 . S
C647 C645 1.388 . S
C647 C648 1.366 . S
C648 C647 1.366 . S
C648 C649 1.414 1_556 S
C648 C651 1.499 . S
C649 H623 0.950 . S
C649 C648 1.414 1_554 S
C649 C650 1.374 1_554 S
C650 H624 0.950 1_556 S
C650 C646 1.385 . S
C650 C649 1.374 1_556 S
C651 C648 1.499 . S
C651 C652 1.373 . S
C651 C653 1.391 . S
C652 H625 0.950 . S
C652 C638 1.375 1_556 S
C652 C651 1.373 . S
C653 C637 1.375 1_556 S
C653 C651 1.391 . S
C653 C654 1.524 1_556 S
C654 C653 1.524 1_554 S
C654 C655 1.397 . S
C654 C659 1.363 1_554 S
C655 H626 0.950 . S
C655 C654 1.397 . S
C655 C656 1.334 . S
C656 H627 0.950 . S
C656 C655 1.334 . S
C656 C657 1.287 . S
C657 C656 1.287 . S
C657 C658 1.524 1_554 S
C657 H660 0.999 . S
C658 H628 0.950 . S
C658 C657 1.524 1_556 S
C658 C659 1.415 . S
C659 H629 0.950 . S
C659 C654 1.363 1_556 S
C659 C658 1.415 . S
H660 C657 0.999 . S
H661 C642 0.913 . S
H662 C680 0.951 . S
H663 C682 0.951 . S
H664 C684 0.950 . S
H665 C685 0.950 . S
H666 C687 0.950 . S
H667 C690 0.950 . S
H668 C691 0.950 . S
H669 C693 0.950 . S
H670 C694 0.950 . S
H671 C695 0.951 . S
H672 C697 0.951 . S
H673 C699 0.950 . S
H674 C700 0.950 . S
H675 C702 0.950 . S
H676 C705 0.950 . S
H677 C706 0.950 . S
H678 C708 0.950 . S
H679 C709 0.950 . S
C680 H662 0.951 . S
C680 C681 1.366 . S
C680 C682 1.388 . S
C681 C680 1.366 . S
C681 C685 1.385 . S
C682 H663 0.951 . S
C682 C680 1.388 . S
C682 C683 1.366 . S
C683 C682 1.366 . S
C683 C684 1.414 . S
C683 C686 1.499 . S
C684 H664 0.950 . S
C684 C683 1.414 . S
C684 C685 1.374 . S
C685 H665 0.950 . S
C685 C681 1.385 . S
C685 C684 1.374 . S
C686 C683 1.499 . S
C686 C687 1.373 . S
C686 C688 1.389 . S
C687 H666 0.950 . S
C687 C686 1.373 . S
C687 C703 1.377 . S
C688 C686 1.389 . S
C688 C689 1.524 . S
C688 C702 1.377 . S
C689 C688 1.524 . S
C689 C690 1.397 . S
C689 C694 1.363 . S
C690 H667 0.950 . S
C690 C689 1.397 . S
C690 C691 1.334 . S
C691 H668 0.950 . S
C691 C690 1.334 . S
C691 C692 1.287 . S
C692 C691 1.287 . S
C692 C693 1.524 . S
C692 H711 0.913 . S
C693 H669 0.950 . S
C693 C692 1.524 . S
C693 C694 1.415 . S
C694 H670 0.950 . S
C694 C689 1.363 . S
C694 C693 1.415 . S
C695 H671 0.951 . S
C695 C696 1.366 . S
C695 C697 1.388 . S
C696 C695 1.366 . S
C696 C700 1.385 . S
C697 H672 0.951 . S
C697 C695 1.388 . S
C697 C698 1.366 . S
C698 C697 1.366 . S
C698 C699 1.414 . S
C698 C701 1.499 . S
C699 H673 0.950 . S
C699 C698 1.414 . S
C699 C700 1.374 . S
C700 H674 0.950 . S
C700 C696 1.385 . S
C700 C699 1.374 . S
C701 C698 1.499 . S
C701 C702 1.373 . S
C701 C703 1.389 . S
C702 H675 0.950 . S
C702 C688 1.377 . S
C702 C701 1.373 . S
C703 C687 1.377 . S
C703 C701 1.389 . S
C703 C704 1.524 . S
C704 C703 1.524 . S
C704 C705 1.397 . S
C704 C709 1.363 . S
C705 H676 0.950 . S
C705 C704 1.397 . S
C705 C706 1.334 . S
C706 H677 0.950 . S
C706 C705 1.334 . S
C706 C707 1.287 . S
C707 C706 1.287 . S
C707 C708 1.524 . S
C707 H710 0.999 . S
C708 H678 0.950 . S
C708 C707 1.524 . S
C708 C709 1.415 . S
C709 H679 0.950 . S
C709 C704 1.363 . S
C709 C708 1.415 . S
H710 C707 0.999 . S
H711 C692 0.913 . S
H712 C730 0.951 . S
H713 C732 0.951 . S
H714 C734 0.950 . S
H715 C735 0.950 . S
H716 C737 0.950 . S
H717 C740 0.950 . S
H718 C741 0.950 . S
H719 C743 0.950 . S
H720 C744 0.950 . S
H721 C745 0.951 . S
H722 C747 0.951 . S
H723 C749 0.950 . S
H724 C750 0.950 . S
H725 C752 0.950 . S
H726 C755 0.950 . S
H727 C756 0.950 . S
H728 C758 0.950 . S
H729 C759 0.950 . S
C730 H712 0.951 . S
C730 C731 1.366 . S
C730 C732 1.388 . S
C731 C730 1.366 . S
C731 C735 1.385 . S
C732 H713 0.951 . S
C732 C730 1.388 . S
C732 C733 1.366 . S
C733 C732 1.366 . S
C733 C734 1.414 . S
C733 C736 1.499 . S
C734 H714 0.950 . S
C734 C733 1.414 . S
C734 C735 1.374 . S
C735 H715 0.950 . S
C735 C731 1.385 . S
C735 C734 1.374 . S
C736 C733 1.499 . S
C736 C737 1.373 . S
C736 C738 1.389 . S
C737 H716 0.950 . S
C737 C736 1.373 . S
C737 C753 1.377 . S
C738 C736 1.389 . S
C738 C739 1.524 . S
C738 C752 1.377 . S
C739 C738 1.524 . S
C739 C740 1.397 . S
C739 C744 1.363 . S
C740 H717 0.950 . S
C740 C739 1.397 . S
C740 C741 1.334 1_556 S
C741 H718 0.950 . S
C741 C740 1.334 1_554 S
C741 C742 1.287 . S
C742 C741 1.287 . S
C742 C743 1.524 . S
C742 H761 0.913 . S
C743 H719 0.950 . S
C743 C742 1.524 . S
C743 C744 1.415 1_554 S
C744 H720 0.950 . S
C744 C739 1.363 . S
C744 C743 1.415 1_556 S
C745 H721 0.951 . S
C745 C746 1.366 . S
C745 C747 1.388 . S
C746 C745 1.366 . S
C746 C750 1.385 . S
C747 H722 0.951 . S
C747 C745 1.388 . S
C747 C748 1.366 . S
C748 C747 1.366 . S
C748 C749 1.414 . S
C748 C751 1.499 . S
C749 H723 0.950 . S
C749 C748 1.414 . S
C749 C750 1.374 . S
C750 H724 0.950 . S
C750 C746 1.385 . S
C750 C749 1.374 . S
C751 C748 1.499 . S
C751 C752 1.373 . S
C751 C753 1.389 . S
C752 H725 0.950 . S
C752 C738 1.377 . S
C752 C751 1.373 . S
C753 C737 1.377 . S
C753 C751 1.389 . S
C753 C754 1.524 . S
C754 C753 1.524 . S
C754 C755 1.397 . S
C754 C759 1.363 . S
C755 H726 0.950 . S
C755 C754 1.397 . S
C755 C756 1.334 . S
C756 H727 0.950 . S
C756 C755 1.334 . S
C756 C757 1.287 . S
C757 C756 1.287 . S
C757 C758 1.524 . S
C757 H760 0.999 . S
C758 H728 0.950 . S
C758 C757 1.524 . S
C758 C759 1.415 . S
C759 H729 0.950 . S
C759 C754 1.363 . S
C759 C758 1.415 . S
H760 C757 0.999 . S
H761 C742 0.913 . S
H762 C780 0.951 . S
H763 C782 0.951 . S
H764 C784 0.950 . S
H765 C785 0.950 . S
H766 C787 0.950 . S
H767 C790 0.950 . S
H768 C791 0.950 . S
H769 C793 0.950 . S
H770 C794 0.950 . S
H771 C795 0.951 . S
H772 C797 0.951 . S
H773 C799 0.950 . S
H774 C800 0.950 . S
H775 C802 0.950 . S
H776 C805 0.950 . S
H777 C806 0.950 . S
H778 C808 0.950 . S
H779 C809 0.950 . S
C780 H762 0.951 . S
C780 C781 1.366 . S
C780 C782 1.388 . S
C781 C780 1.366 . S
C781 C785 1.385 1_556 S
C782 H763 0.951 . S
C782 C780 1.388 . S
C782 C783 1.366 . S
C783 C782 1.366 . S
C783 C784 1.414 1_556 S
C783 C786 1.499 . S
C784 H764 0.950 . S
C784 C783 1.414 1_554 S
C784 C785 1.374 . S
C785 H765 0.950 . S
C785 C781 1.385 1_554 S
C785 C784 1.374 . S
C786 C783 1.499 . S
C786 C787 1.373 1_556 S
C786 C788 1.389 . S
C787 H766 0.950 . S
C787 C786 1.373 1_554 S
C787 C803 1.377 . S
C788 C786 1.389 . S
C788 C789 1.524 . S
C788 C802 1.377 . S
C789 C788 1.524 . S
C789 C790 1.397 . S
C789 C794 1.363 . S
C790 H767 0.950 . S
C790 C789 1.397 . S
C790 C791 1.334 . S
C791 H768 0.950 . S
C791 C790 1.334 . S
C791 C792 1.287 . S
C792 C791 1.287 . S
C792 C793 1.524 . S
C792 H811 0.913 . S
C793 H769 0.950 . S
C793 C792 1.524 . S
C793 C794 1.415 . S
C794 H770 0.950 . S
C794 C789 1.363 . S
C794 C793 1.415 . S
C795 H771 0.951 . S
C795 C796 1.366 . S
C795 C797 1.388 . S
C796 C795 1.366 . S
C796 C800 1.385 1_554 S
C797 H772 0.951 . S
C797 C795 1.388 . S
C797 C798 1.366 . S
C798 C797 1.366 . S
C798 C799 1.414 1_554 S
C798 C801 1.499 . S
C799 H773 0.950 . S
C799 C798 1.414 1_556 S
C799 C800 1.374 . S
C800 H774 0.950 . S
C800 C796 1.385 1_556 S
C800 C799 1.374 . S
C801 C798 1.499 . S
C801 C802 1.373 1_554 S
C801 C803 1.389 . S
C802 H775 0.950 . S
C802 C788 1.377 . S
C802 C801 1.373 1_556 S
C803 C787 1.377 . S
C803 C801 1.389 . S
C803 C804 1.524 . S
C804 C803 1.524 . S
C804 C805 1.397 . S
C804 C809 1.363 . S
C805 H776 0.950 . S
C805 C804 1.397 . S
C805 C806 1.334 . S
C806 H777 0.950 . S
C806 C805 1.334 . S
C806 C807 1.287 . S
C807 C806 1.287 . S
C807 C808 1.524 . S
C807 H810 0.999 . S
C808 H778 0.950 . S
C808 C807 1.524 . S
C808 C809 1.415 . S
C809 H779 0.950 . S
C809 C804 1.363 . S
C809 C808 1.415 . S
H810 C807 0.999 . S
H811 C792 0.913 . S
H812 C830 0.951 . S
H813 C832 0.951 . S
H814 C834 0.950 . S
H815 C835 0.950 . S
H816 C837 0.950 . S
H817 C840 0.950 . S
H818 C841 0.950 . S
H819 C843 0.950 . S
H820 C844 0.950 . S
H821 C845 0.951 . S
H822 C847 0.951 . S
H823 C849 0.950 . S
H824 C850 0.950 . S
H825 C852 0.950 . S
H826 C855 0.950 . S
H827 C856 0.950 . S
H828 C858 0.950 . S
H829 C859 0.950 . S
C830 H812 0.951 . S
C830 C831 1.366 . S
C830 C832 1.388 . S
C831 C830 1.366 . S
C831 C835 1.385 . S
C832 H813 0.951 . S
C832 C830 1.388 . S
C832 C833 1.366 . S
C833 C832 1.366 . S
C833 C834 1.414 . S
C833 C836 1.499 . S
C834 H814 0.950 . S
C834 C833 1.414 . S
C834 C835 1.374 . S
C835 H815 0.950 . S
C835 C831 1.385 . S
C835 C834 1.374 . S
C836 C833 1.499 . S
C836 C837 1.373 . S
C836 C838 1.389 . S
C837 H816 0.950 . S
C837 C836 1.373 . S
C837 C853 1.377 . S
C838 C836 1.389 . S
C838 C839 1.524 . S
C838 C852 1.377 . S
C839 C838 1.524 . S
C839 C840 1.397 . S
C839 C844 1.363 . S
C840 H817 0.950 . S
C840 C839 1.397 . S
C840 C841 1.334 1_554 S
C841 H818 0.950 . S
C841 C840 1.334 1_556 S
C841 C842 1.287 . S
C842 C841 1.287 . S
C842 C843 1.524 1_556 S
C842 H861 0.913 . S
C843 H819 0.950 . S
C843 C842 1.524 1_554 S
C843 C844 1.415 . S
C844 H820 0.950 . S
C844 C839 1.363 . S
C844 C843 1.415 . S
C845 H821 0.951 . S
C845 C846 1.366 . S
C845 C847 1.388 . S
C846 C845 1.366 . S
C846 C850 1.385 . S
C847 H822 0.951 . S
C847 C845 1.388 . S
C847 C848 1.366 . S
C848 C847 1.366 . S
C848 C849 1.414 . S
C848 C851 1.499 . S
C849 H823 0.950 . S
C849 C848 1.414 . S
C849 C850 1.374 . S
C850 H824 0.950 . S
C850 C846 1.385 . S
C850 C849 1.374 . S
C851 C848 1.499 . S
C851 C852 1.373 . S
C851 C853 1.389 . S
C852 H825 0.950 . S
C852 C838 1.377 . S
C852 C851 1.373 . S
C853 C837 1.377 . S
C853 C851 1.389 . S
C853 C854 1.524 . S
C854 C853 1.524 . S
C854 C855 1.397 . S
C854 C859 1.363 . S
C855 H826 0.950 . S
C855 C854 1.397 . S
C855 C856 1.334 . S
C856 H827 0.950 . S
C856 C855 1.334 . S
C856 C857 1.287 . S
C857 C856 1.287 . S
C857 C858 1.524 . S
C857 H860 0.999 . S
C858 H828 0.950 . S
C858 C857 1.524 . S
C858 C859 1.415 . S
C859 H829 0.950 . S
C859 C854 1.363 . S
C859 C858 1.415 . S
H860 C857 0.999 . S
H861 C842 0.913 . S
H862 C880 0.951 . S
H863 C882 0.951 . S
H864 C884 0.950 . S
H865 C885 0.950 . S
H866 C887 0.950 . S
H867 C890 0.950 . S
H868 C891 0.950 . S
H869 C893 0.950 . S
H870 C894 0.950 . S
H871 C895 0.951 . S
H872 C897 0.951 . S
H873 C899 0.950 . S
H874 C900 0.950 . S
H875 C902 0.950 . S
H876 C905 0.950 . S
H877 C906 0.950 . S
H878 C908 0.950 . S
H879 C909 0.950 . S
C880 H862 0.951 . S
C880 C881 1.366 . S
C880 C882 1.388 . S
C881 C880 1.366 . S
C881 C885 1.385 . S
C882 H863 0.951 . S
C882 C880 1.388 . S
C882 C883 1.366 . S
C883 C882 1.366 . S
C883 C884 1.414 . S
C883 C886 1.499 . S
C884 H864 0.950 . S
C884 C883 1.414 . S
C884 C885 1.374 . S
C885 H865 0.950 . S
C885 C881 1.385 . S
C885 C884 1.374 . S
C886 C883 1.499 . S
C886 C887 1.373 . S
C886 C888 1.389 . S
C887 H866 0.950 . S
C887 C886 1.373 . S
C887 C903 1.377 . S
C888 C886 1.389 . S
C888 C889 1.524 . S
C888 C902 1.377 . S
C889 C888 1.524 . S
C889 C890 1.397 . S
C889 C894 1.363 . S
C890 H867 0.950 . S
C890 C889 1.397 . S
C890 C891 1.334 . S
C891 H868 0.950 . S
C891 C890 1.334 . S
C891 C892 1.287 . S
C892 C891 1.287 . S
C892 C893 1.524 . S
C892 H911 0.913 . S
C893 H869 0.950 . S
C893 C892 1.524 . S
C893 C894 1.415 . S
C894 H870 0.950 . S
C894 C889 1.363 . S
C894 C893 1.415 . S
C895 H871 0.951 . S
C895 C896 1.366 . S
C895 C897 1.388 . S
C896 C895 1.366 . S
C896 C900 1.385 . S
C897 H872 0.951 . S
C897 C895 1.388 . S
C897 C898 1.366 . S
C898 C897 1.366 . S
C898 C899 1.414 . S
C898 C901 1.499 . S
C899 H873 0.950 . S
C899 C898 1.414 . S
C899 C900 1.374 . S
C900 H874 0.950 . S
C900 C896 1.385 . S
C900 C899 1.374 . S
C901 C898 1.499 . S
C901 C902 1.373 . S
C901 C903 1.389 . S
C902 H875 0.950 . S
C902 C888 1.377 . S
C902 C901 1.373 . S
C903 C887 1.377 . S
C903 C901 1.389 . S
C903 C904 1.524 . S
C904 C903 1.524 . S
C904 C905 1.397 . S
C904 C909 1.363 . S
C905 H876 0.950 . S
C905 C904 1.397 . S
C905 C906 1.334 . S
C906 H877 0.950 . S
C906 C905 1.334 . S
C906 C907 1.287 . S
C907 C906 1.287 . S
C907 C908 1.524 . S
C907 H910 0.999 . S
C908 H878 0.950 . S
C908 C907 1.524 . S
C908 C909 1.415 . S
C909 H879 0.950 . S
C909 C904 1.363 . S
C909 C908 1.415 . S
H910 C907 0.999 . S
H911 C892 0.913 . S
C131 C20 1.536 . S
C146 C6 1.536 . S
C181 C21 1.536 . S
C196 C34 1.536 . S
C231 C49 1.536 . S
C246 C35 1.536 . S
C281 C48 1.536 . S
C296 C7 1.535 . S
C331 C62 1.536 . S
C346 C76 1.536 . S
C381 C77 1.536 . S
C396 C90 1.536 . S
C431 C91 1.536 . S
C446 C105 1.536 . S
C481 C63 1.536 . S
C496 C104 1.536 . S
C531 C8 1.544 . S
C546 C107 1.544 . S
C581 C65 1.544 . S
C596 C23 1.544 . S
C631 C78 1.544 . S
C646 C37 1.544 . S
C681 C50 1.545 . S
C696 C92 1.544 . S
C731 C36 1.544 . S
C746 C106 1.545 . S
C781 C64 1.544 . S
C796 C51 1.544 . S
C831 C79 1.545 . S
C846 C9 1.545 . S
C881 C22 1.544 . S
C896 C93 1.544 . S
