# Generated by pormake.
# Topology wjf, (4)-cn, num edge types: 1
# Building blocks:
#     Node 0, Type 0, BuildingBlock: ICAMEG_clean_sbu_1, # of connection points: 4
#     Node 1, Type 0, BuildingBlock: ICAMEG_clean_sbu_1, # of connection points: 4
#     Node 2, Type 0, BuildingBlock: ICAMEG_clean_sbu_1, # of connection points: 4
#     Node 3, Type 0, BuildingBlock: ICAMEG_clean_sbu_1, # of connection points: 4
#     Node 4, Type 0, BuildingBlock: ICAMEG_clean_sbu_1, # of connection points: 4
#     Node 5, Type 0, BuildingBlock: ICAMEG_clean_sbu_1, # of connection points: 4
#     Node 6, Type 0, BuildingBlock: ICAMEG_clean_sbu_1, # of connection points: 4
#     Node 7, Type 0, BuildingBlock: ICAMEG_clean_sbu_1, # of connection points: 4
#     Node 8, Type 0, BuildingBlock: ICAMEG_clean_sbu_1, # of connection points: 4
#     Node 9, Type 0, BuildingBlock: ICAMEG_clean_sbu_1, # of connection points: 4
#     Node 10, Type 0, BuildingBlock: ICAMEG_clean_sbu_1, # of connection points: 4
#     Node 11, Type 0, BuildingBlock: ICAMEG_clean_sbu_1, # of connection points: 4
#     Edge 12, Type (0, 0), BuildingBlock: XIVTED_clean_linker_0, # of connection points: 2
#     Edge 13, Type (0, 0), BuildingBlock: XIVTED_clean_linker_0, # of connection points: 2
#     Edge 14, Type (0, 0), BuildingBlock: XIVTED_clean_linker_0, # of connection points: 2
#     Edge 15, Type (0, 0), BuildingBlock: XIVTED_clean_linker_0, # of connection points: 2
#     Edge 16, Type (0, 0), BuildingBlock: XIVTED_clean_linker_0, # of connection points: 2
#     Edge 17, Type (0, 0), BuildingBlock: XIVTED_clean_linker_0, # of connection points: 2
#     Edge 18, Type (0, 0), BuildingBlock: XIVTED_clean_linker_0, # of connection points: 2
#     Edge 19, Type (0, 0), BuildingBlock: XIVTED_clean_linker_0, # of connection points: 2
#     Edge 20, Type (0, 0), BuildingBlock: XIVTED_clean_linker_0, # of connection points: 2
#     Edge 21, Type (0, 0), BuildingBlock: XIVTED_clean_linker_0, # of connection points: 2
#     Edge 22, Type (0, 0), BuildingBlock: XIVTED_clean_linker_0, # of connection points: 2
#     Edge 23, Type (0, 0), BuildingBlock: XIVTED_clean_linker_0, # of connection points: 2
#     Edge 24, Type (0, 0), BuildingBlock: XIVTED_clean_linker_0, # of connection points: 2
#     Edge 25, Type (0, 0), BuildingBlock: XIVTED_clean_linker_0, # of connection points: 2
#     Edge 26, Type (0, 0), BuildingBlock: XIVTED_clean_linker_0, # of connection points: 2
#     Edge 27, Type (0, 0), BuildingBlock: XIVTED_clean_linker_0, # of connection points: 2
#     Edge 28, Type (0, 0), BuildingBlock: XIVTED_clean_linker_0, # of connection points: 2
#     Edge 29, Type (0, 0), BuildingBlock: XIVTED_clean_linker_0, # of connection points: 2
#     Edge 30, Type (0, 0), BuildingBlock: XIVTED_clean_linker_0, # of connection points: 2
#     Edge 31, Type (0, 0), BuildingBlock: XIVTED_clean_linker_0, # of connection points: 2
#     Edge 32, Type (0, 0), BuildingBlock: XIVTED_clean_linker_0, # of connection points: 2
#     Edge 33, Type (0, 0), BuildingBlock: XIVTED_clean_linker_0, # of connection points: 2
#     Edge 34, Type (0, 0), BuildingBlock: XIVTED_clean_linker_0, # of connection points: 2
#     Edge 35, Type (0, 0), BuildingBlock: XIVTED_clean_linker_0, # of connection points: 2
# Relax obj value: 0.055
# Max RMSD: 0.073
# Mean RMSD: 0.073
data_MOF--net-wjf--node1-ICAMEG_clean_sbu_1--edge1-XIVTED_clean_linker_0
_symmetry_space_group_name_H-M    P1
_symmetry_Int_Tables_number       1
_symmetry_cell_setting            triclinic
loop_
_symmetry_equiv_pos_as_xyz
'x, y, z'
_cell_length_a     54.792318
_cell_length_b     54.829387
_cell_length_c     30.410182
_cell_angle_alpha  89.966765
_cell_angle_beta   90.041165
_cell_angle_gamma 120.01247
loop_
_atom_site_label
_atom_site_type_symbol
_atom_site_fract_x
_atom_site_fract_y
_atom_site_fract_z
_atom_type_partial_charge
Co0 Co 0.35332 0.36342 0.07176 0.0
Co1 Co 0.33764 0.41514 0.04324 0.0
O2 O 0.33251 0.38351 0.0796 0.0
C3 C 0.36642 0.38489 0.16199 0.0
O4 O 0.36944 0.40864 0.14674 0.0
C5 C 0.27611 0.37513 0.0317 0.0
O6 O 0.28148 0.35522 0.02016 0.0
O7 O 0.33517 0.39428 0.98815 0.0
O8 O 0.34803 0.36268 0.00725 0.0
H9 H 0.37948 0.48512 0.91989 0.0
H10 H 0.30553 0.3416 0.13433 0.0
O11 O 0.35937 0.36403 0.13649 0.0
H12 H 0.27917 0.26592 0.02525 0.0
H13 H 0.38023 0.29072 0.11085 0.0
H14 H 0.3965 0.36738 0.00887 0.0
H15 H 0.32475 0.31013 0.01985 0.0
H16 H 0.35414 0.31631 0.11947 0.0
O17 O 0.29603 0.39952 0.04216 0.0
H18 H 0.3734 0.44567 0.96664 0.0
H19 H 0.31129 0.4514 0.04223 0.0
H20 H 0.42287 0.3422 -0.00118 0.0
H21 H 0.25982 0.29763 0.14118 0.0
H22 H 0.4148 0.30356 0.05005 0.0
H23 H 0.24638 0.25944 0.08633 0.0
O24 O 0.38995 0.39927 0.06644 0.0
H25 H 0.307 0.4259 0.19421 0.0
H26 H 0.37693 0.47316 0.0764 0.0
H27 H 0.38107 0.49874 0.14518 0.0
H28 H 0.34591 0.47509 0.20469 0.0
H29 H 0.30383 0.40101 0.12503 0.0
H30 H 0.31655 0.49076 -0.00391 0.0
H31 H 0.35093 0.50793 0.93451 0.0
O32 O 0.37933 0.43185 0.04391 0.0
C33 C 0.34072 0.37486 0.97882 0.0
C34 C 0.36451 0.47789 0.94672 0.0
C35 C 0.32916 0.48102 0.98945 0.0
N36 N 0.34218 0.4464 0.00733 0.0
C37 C 0.36103 0.45562 0.97338 0.0
C38 C 0.32623 0.45869 0.0154 0.0
C39 C 0.34846 0.49066 0.95491 0.0
C40 C 0.2999 0.32498 0.11052 0.0
N41 N 0.31783 0.32836 0.07687 0.0
C42 C 0.27396 0.30018 0.11449 0.0
C43 C 0.26642 0.27877 0.08367 0.0
C44 C 0.2848 0.2824 0.04937 0.0
C45 C 0.31055 0.3075 0.04643 0.0
C46 C 0.38389 0.30748 0.08826 0.0
C47 C 0.39274 0.35047 0.03112 0.0
C48 C 0.36922 0.32207 0.09303 0.0
N49 N 0.37364 0.34316 0.06448 0.0
C50 C 0.4078 0.33635 0.02534 0.0
C51 C 0.40328 0.31469 0.05413 0.0
C52 C 0.39704 0.42418 0.05412 0.0
C53 C 0.32242 0.43645 0.1685 0.0
C54 C 0.36164 0.46268 0.1022 0.0
C55 C 0.36403 0.47731 0.14103 0.0
C56 C 0.34428 0.46403 0.17438 0.0
N57 N 0.34017 0.43562 0.09669 0.0
C58 C 0.32068 0.4225 0.12919 0.0
Co59 Co 0.98559 0.35264 0.40708 0.0
Co60 Co 0.91927 0.33886 0.37439 0.0
O61 O 0.94429 0.33104 0.41018 0.0
C62 C 0.97311 0.35933 0.49879 0.0
O63 O 0.95198 0.3619 0.48409 0.0
C64 C 0.90039 0.27889 0.35327 0.0
O65 O 0.92654 0.28422 0.35503 0.0
O66 O 0.94106 0.34224 0.32002 0.0
O67 O 0.9841 0.35172 0.34202 0.0
H68 H 0.89702 0.39165 0.26112 0.0
H69 H 0.95769 0.30118 0.46205 0.0
O70 O 0.98822 0.35452 0.47246 0.0
H71 H 0.01188 0.2824 0.35118 0.0
H72 H 0.08353 0.37734 0.45355 0.0
H73 H 0.02729 0.40016 0.35263 0.0
H74 H 0.01285 0.32787 0.35212 0.0
H75 H 0.03158 0.35048 0.45627 0.0
O76 O 0.89435 0.29797 0.36183 0.0
H77 H 0.92809 0.38159 0.30702 0.0
H78 H 0.85681 0.31211 0.36545 0.0
H79 H 0.07919 0.42741 0.34853 0.0
H80 H 0.9563 0.2555 0.46255 0.0
H81 H 0.10767 0.41605 0.39925 0.0
H82 H 0.98348 0.24586 0.40674 0.0
O83 O 0.98619 0.38934 0.40694 0.0
H84 H 0.86933 0.29242 0.51476 0.0
H85 H 0.89711 0.37333 0.41569 0.0
H86 H 0.87111 0.36971 0.4838 0.0
H87 H 0.857 0.32899 0.53386 0.0
H88 H 0.8956 0.29705 0.44647 0.0
H89 H 0.82498 0.32127 0.31992 0.0
H90 H 0.84507 0.36136 0.2674 0.0
O91 O 0.94314 0.37989 0.38546 0.0
C92 C 0.96615 0.34763 0.31218 0.0
C93 C 0.88802 0.37418 0.28398 0.0
C94 C 0.84758 0.33466 0.31694 0.0
N95 N 0.89428 0.34643 0.33911 0.0
C96 C 0.9055 0.36843 0.31014 0.0
C97 C 0.86572 0.32954 0.34257 0.0
C98 C 0.85887 0.35715 0.28749 0.0
C99 C 0.96976 0.29721 0.43792 0.0
N100 N 0.98544 0.3172 0.40725 0.0
C101 C 0.96881 0.27128 0.43824 0.0
C102 C 0.98404 0.26587 0.40689 0.0
C103 C -4e-05 0.28636 0.37568 0.0
C104 C 0.00038 0.31204 0.37631 0.0
C105 C 0.07136 0.38245 0.4312 0.0
C106 C 0.03954 0.39497 0.3746 0.0
C107 C 0.04194 0.36734 0.43263 0.0
N108 N 0.02643 0.37359 0.40436 0.0
C109 C 0.06892 0.41053 0.37222 0.0
C110 C 0.08489 0.40416 0.40072 0.0
C111 C 0.9683 0.39694 0.39752 0.0
C112 C 0.87531 0.31024 0.49318 0.0
C113 C 0.89118 0.35564 0.4374 0.0
C114 C 0.87637 0.35365 0.47585 0.0
C115 C 0.86844 0.33078 0.50391 0.0
N116 N 0.89785 0.33541 0.42711 0.0
C117 C 0.8901 0.31291 0.4544 0.0
Co118 Co 0.63573 0.98968 0.74293 0.0
Co119 Co 0.58507 0.9256 0.70185 0.0
O120 O 0.61488 0.94846 0.74384 0.0
C121 C 0.61322 0.9757 0.83249 0.0
O122 O 0.58934 0.95653 0.81508 0.0
C123 C 0.62267 0.90119 0.69338 0.0
O124 O 0.64427 0.92658 0.68727 0.0
O125 O 0.61023 0.94607 0.65178 0.0
O126 O 0.6372 0.99007 0.67741 0.0
H127 H 0.5251 0.90887 0.56771 0.0
H128 H 0.65646 0.95903 0.79743 0.0
O129 O 0.63459 0.99047 0.80834 0.0
H130 H 0.73331 0.01522 0.6931 0.0
H131 H 0.70915 0.08552 0.79692 0.0
H132 H 0.63275 0.03347 0.68978 0.0
H133 H 0.6895 0.01751 0.69196 0.0
H134 H 0.68291 0.03356 0.79639 0.0
O135 O 0.59821 0.89765 0.70049 0.0
H136 H 0.56197 0.93763 0.62178 0.0
H137 H 0.54557 0.86389 0.69174 0.0
H138 H 0.65862 0.08544 0.68888 0.0
H139 H 0.70002 0.95625 0.79994 0.0
H140 H 0.69713 0.1118 0.74275 0.0
H141 H 0.7388 0.98445 0.74744 0.0
O142 O 0.6001 0.99095 0.74133 0.0
H143 H 0.56058 0.87412 0.84621 0.0
H144 H 0.52625 0.90993 0.72651 0.0
H145 H 0.49527 0.8857 0.78966 0.0
H146 H 0.51238 0.86756 0.85005 0.0
H147 H 0.591 0.89875 0.78268 0.0
H148 H 0.50868 0.83431 0.63823 0.0
H149 H 0.49816 0.85682 0.57576 0.0
O150 O 0.57079 0.95268 0.70197 0.0
C151 C 0.62817 0.97208 0.64632 0.0
C152 C 0.52941 0.89883 0.59488 0.0
C153 C 0.52022 0.85698 0.63443 0.0
N154 N 0.55575 0.90248 0.66009 0.0
C155 C 0.55021 0.91501 0.62567 0.0
C156 C 0.54117 0.87383 0.66458 0.0
C157 C 0.51433 0.86962 0.59939 0.0
C158 C 0.67334 0.97151 0.77471 0.0
N159 N 0.67051 0.9885 0.74475 0.0
C160 C 0.69791 0.96978 0.77618 0.0
C161 C 0.71965 0.98559 0.74668 0.0
C162 C 0.71657 0.00284 0.71616 0.0
C163 C 0.69169 0.00401 0.71562 0.0
C164 C 0.69247 0.07427 0.77322 0.0
C165 C 0.64962 0.04481 0.71312 0.0
C166 C 0.67751 0.04486 0.77281 0.0
N167 N 0.6565 0.03052 0.74281 0.0
C168 C 0.66413 0.07423 0.71254 0.0
C169 C 0.68571 0.089 0.7428 0.0
C170 C 0.57706 0.97578 0.72091 0.0
C171 C 0.55286 0.88186 0.82004 0.0
C172 C 0.53391 0.90221 0.75274 0.0
C173 C 0.51623 0.88843 0.78836 0.0
C174 C 0.52583 0.87823 0.82221 0.0
N175 N 0.56039 0.90569 0.75086 0.0
C176 C 0.56994 0.8957 0.78389 0.0
Co177 Co 0.64497 0.63428 0.07242 0.0
Co178 Co 0.66105 0.58294 0.04355 0.0
O179 O 0.66602 0.61443 0.08 0.0
C180 C 0.63257 0.6129 0.16277 0.0
O181 O 0.62952 0.58918 0.14737 0.0
C182 C 0.72248 0.62332 0.03233 0.0
O183 O 0.71691 0.64302 0.02023 0.0
O184 O 0.66337 0.60385 0.98855 0.0
O185 O 0.64995 0.63498 0.00779 0.0
H186 H 0.61957 0.5131 0.91999 0.0
H187 H 0.6931 0.65646 0.13443 0.0
O188 O 0.63925 0.6337 0.13727 0.0
H189 H 0.71839 0.73191 0.02523 0.0
H190 H 0.61756 0.70651 0.112 0.0
H191 H 0.60134 0.62992 0.01002 0.0
H192 H 0.67295 0.68752 0.0203 0.0
H193 H 0.644 0.68124 0.12025 0.0
O194 O 0.70269 0.59883 0.04265 0.0
H195 H 0.62537 0.55236 0.96688 0.0
H196 H 0.68782 0.54707 0.04237 0.0
H197 H 0.57462 0.65478 0.00033 0.0
H198 H 0.73869 0.70062 0.14082 0.0
H199 H 0.58267 0.69339 0.05157 0.0
H200 H 0.75159 0.7387 0.08589 0.0
O201 O 0.60848 0.59827 0.06741 0.0
H202 H 0.69186 0.57212 0.19447 0.0
H203 H 0.62202 0.52479 0.07649 0.0
H204 H 0.61805 0.49912 0.14516 0.0
H205 H 0.65316 0.52281 0.20475 0.0
H206 H 0.69487 0.5971 0.12541 0.0
H207 H 0.68285 0.50791 -0.0039 0.0
H208 H 0.64845 0.4906 0.9345 0.0
O209 O 0.61931 0.56599 0.04415 0.0
C210 C 0.65745 0.62302 0.97928 0.0
C211 C 0.63456 0.52039 0.94683 0.0
C212 C 0.67011 0.5175 0.98951 0.0
N213 N 0.65673 0.55183 0.00754 0.0
C214 C 0.63788 0.54255 0.97357 0.0
C215 C 0.67286 0.53972 0.01554 0.0
C216 C 0.6508 0.50779 0.95496 0.0
C217 C 0.6985 0.67303 0.11061 0.0
N218 N 0.68034 0.66949 0.07719 0.0
C219 C 0.72437 0.69794 0.1143 0.0
C220 C 0.73161 0.71928 0.08344 0.0
C221 C 0.71299 0.71549 0.04939 0.0
C222 C 0.68732 0.69028 0.04671 0.0
C223 C 0.61391 0.68977 0.08941 0.0
C224 C 0.60508 0.64682 0.03227 0.0
C225 C 0.62877 0.67535 0.09397 0.0
N226 N 0.62437 0.65429 0.06542 0.0
C227 C 0.58983 0.66076 0.0267 0.0
C228 C 0.59434 0.6824 0.05549 0.0
C229 C 0.60151 0.57346 0.05476 0.0
C230 C 0.67646 0.56156 0.16872 0.0
C231 C 0.63729 0.53528 0.10232 0.0
C232 C 0.63499 0.52061 0.14109 0.0
C233 C 0.65472 0.53391 0.17449 0.0
N234 N 0.65865 0.56242 0.09692 0.0
C235 C 0.67812 0.57555 0.12948 0.0
Co236 Co 0.01057 0.6461 0.4092 0.0
Co237 Co 0.07756 0.66131 0.37905 0.0
O238 O 0.05162 0.66752 0.415 0.0
C239 C 0.0207 0.63681 0.50054 0.0
O240 O 0.04139 0.6335 0.48594 0.0
C241 C 0.09861 0.72233 0.36242 0.0
O242 O 0.07326 0.71654 0.35031 0.0
O243 O 0.05801 0.66171 0.32392 0.0
O244 O 0.01366 0.64841 0.34436 0.0
H245 H 0.10383 0.61562 0.25926 0.0
H246 H 0.03729 0.69652 0.46647 0.0
O247 O 0.00647 0.64289 0.47427 0.0
H248 H 0.98523 0.71725 0.35415 0.0
H249 H 0.91149 0.62013 0.45047 0.0
H250 H 0.97032 0.59979 0.3514 0.0
H251 H 0.98433 0.67182 0.3539 0.0
H252 H 0.96334 0.64702 0.45636 0.0
O253 O 0.10327 0.70282 0.37464 0.0
H254 H 0.07116 0.62305 0.30556 0.0
H255 H 0.1402 0.68798 0.37559 0.0
H256 H 0.91856 0.57255 0.34412 0.0
H257 H 0.03861 0.74216 0.46816 0.0
H258 H 0.88878 0.58267 0.3939 0.0
H259 H 0.01247 0.75277 0.41165 0.0
O260 O 0.01022 0.6096 0.40801 0.0
H261 H 0.12194 0.69733 0.52702 0.0
H262 H 0.09728 0.62348 0.41526 0.0
H263 H 0.12029 0.62195 0.48408 0.0
H264 H 0.13281 0.65909 0.54053 0.0
H265 H 0.09864 0.69789 0.45791 0.0
H266 H 0.17361 0.68141 0.32982 0.0
H267 H 0.15546 0.64494 0.27126 0.0
O268 O 0.05284 0.6197 0.38323 0.0
C269 C 0.03261 0.65503 0.31523 0.0
C270 C 0.11199 0.63152 0.28476 0.0
C271 C 0.15116 0.66847 0.32432 0.0
N272 N 0.10375 0.65576 0.34346 0.0
C273 C 0.0936 0.63576 0.31117 0.0
C274 C 0.13214 0.67213 0.35008 0.0
C275 C 0.14096 0.64799 0.29149 0.0
C276 C 0.02571 0.70093 0.44198 0.0
N277 N 0.01063 0.68149 0.41029 0.0
C278 C 0.0266 0.72683 0.44301 0.0
C279 C 0.01196 0.73278 0.41126 0.0
C280 C 0.99668 0.71286 0.37897 0.0
C281 C 0.9963 0.6872 0.37894 0.0
C282 C 0.92424 0.61557 0.42852 0.0
C283 C 0.9575 0.60444 0.37298 0.0
C284 C 0.9536 0.63069 0.43175 0.0
N285 N 0.96983 0.62514 0.40398 0.0
C286 C 0.92821 0.58889 0.36879 0.0
C287 C 0.91151 0.59456 0.39677 0.0
C288 C 0.02789 0.60229 0.39583 0.0
C289 C 0.11663 0.68106 0.50265 0.0
C290 C 0.10251 0.63963 0.43974 0.0
C291 C 0.11564 0.63871 0.47859 0.0
C292 C 0.12269 0.65957 0.51023 0.0
N293 N 0.09661 0.66075 0.43255 0.0
C294 C 0.10353 0.68132 0.46338 0.0
Co295 Co 0.36578 0.01078 0.74431 0.0
Co296 Co 0.41682 0.07554 0.70588 0.0
O297 O 0.38641 0.05198 0.74652 0.0
C298 C 0.38686 0.02353 0.83483 0.0
O299 O 0.41097 0.043 0.81846 0.0
C300 C 0.37902 0.09962 0.69596 0.0
O301 O 0.35776 0.07428 0.68815 0.0
O302 O 0.39263 0.0556 0.65459 0.0
O303 O 0.36538 0.01128 0.67876 0.0
H304 H 0.47913 0.0945 0.57414 0.0
H305 H 0.34395 0.04049 0.79862 0.0
O306 O 0.36588 0.00908 0.80977 0.0
H307 H 0.26891 0.98552 0.69088 0.0
H308 H 0.29182 0.9141 0.79432 0.0
H309 H 0.3699 0.96785 0.69065 0.0
H310 H 0.31286 0.98345 0.69116 0.0
H311 H 0.31785 0.96606 0.79546 0.0
O312 O 0.40338 0.10326 0.70444 0.0
H313 H 0.44149 0.06483 0.62652 0.0
H314 H 0.45604 0.13745 0.69795 0.0
H315 H 0.34428 0.91591 0.68808 0.0
H316 H 0.30024 0.04302 0.79973 0.0
H317 H 0.30493 0.88869 0.74019 0.0
H318 H 0.26238 0.01544 0.74551 0.0
O319 O 0.40154 0.00975 0.74376 0.0
H320 H 0.43853 0.12509 0.85175 0.0
H321 H 0.47533 0.09134 0.73283 0.0
H322 H 0.50517 0.1149 0.79736 0.0
H323 H 0.48682 0.13201 0.85737 0.0
H324 H 0.40926 0.10113 0.78683 0.0
H325 H 0.4937 0.16793 0.64615 0.0
H326 H 0.50553 0.14645 0.5838 0.0
O327 O 0.43138 0.04869 0.70617 0.0
C328 C 0.37491 0.02964 0.64818 0.0
C329 C 0.47425 0.1041 0.60128 0.0
C330 C 0.4824 0.14532 0.64166 0.0
N331 N 0.44676 0.09937 0.66549 0.0
C332 C 0.45302 0.0874 0.63112 0.0
C333 C 0.46102 0.12795 0.67084 0.0
C334 C 0.48903 0.13325 0.60669 0.0
C335 C 0.32747 0.02827 0.77516 0.0
N336 N 0.33088 0.01174 0.74503 0.0
C337 C 0.30281 0.02986 0.77584 0.0
C338 C 0.28159 0.0144 0.74537 0.0
C339 C 0.28525 0.99762 0.71469 0.0
C340 C 0.3102 0.99658 0.71495 0.0
C341 C 0.30888 0.92572 0.77137 0.0
C342 C 0.35268 0.95614 0.71322 0.0
C343 C 0.32372 0.95514 0.77191 0.0
N344 N 0.3452 0.96995 0.74287 0.0
C345 C 0.3383 0.92674 0.7117 0.0
C346 C 0.31624 0.91148 0.74098 0.0
C347 C 0.4249 0.02531 0.72439 0.0
C348 C 0.44679 0.1178 0.82576 0.0
C349 C 0.46713 0.09861 0.75888 0.0
C350 C 0.48417 0.11202 0.79528 0.0
C351 C 0.47386 0.12163 0.82892 0.0
N352 N 0.44059 0.09493 0.75601 0.0
C353 C 0.43036 0.10434 0.78883 0.0
Co354 Co 0.63219 0.64723 0.57184 0.0
Co355 Co 0.57993 0.65854 0.61243 0.0
O356 O 0.61061 0.66691 0.57141 0.0
C357 C 0.61066 0.63986 0.4816 0.0
O358 O 0.5865 0.63469 0.49847 0.0
C359 C 0.61715 0.72023 0.62416 0.0
O360 O 0.63894 0.71643 0.62705 0.0
O361 O 0.60421 0.66214 0.66321 0.0
O362 O 0.63295 0.64726 0.63744 0.0
H363 H 0.51783 0.61124 0.743 0.0
H364 H 0.65253 0.69927 0.51914 0.0
O365 O 0.63178 0.6463 0.50631 0.0
H366 H 0.72855 0.72 0.62534 0.0
H367 H 0.70767 0.62781 0.51794 0.0
H368 H 0.62972 0.60007 0.62323 0.0
H369 H 0.68536 0.67337 0.62438 0.0
H370 H 0.68047 0.65255 0.5191 0.0
O371 O 0.59261 0.69946 0.61694 0.0
H372 H 0.55584 0.62131 0.6901 0.0
H373 H 0.53943 0.67952 0.62287 0.0
H374 H 0.65653 0.57492 0.62348 0.0
H375 H 0.69546 0.74613 0.51872 0.0
H376 H 0.69582 0.58876 0.57054 0.0
H377 H 0.73381 0.75674 0.57218 0.0
O378 O 0.59703 0.60988 0.57178 0.0
H379 H 0.55783 0.68934 0.46951 0.0
H380 H 0.52182 0.6157 0.58391 0.0
H381 H 0.49201 0.61051 0.51981 0.0
H382 H 0.50997 0.64752 0.46207 0.0
H383 H 0.58707 0.69354 0.53395 0.0
H384 H 0.5014 0.67028 0.67527 0.0
H385 H 0.49032 0.63583 0.73576 0.0
O386 O 0.56614 0.61735 0.60948 0.0
C387 C 0.62278 0.65491 0.6687 0.0
C388 C 0.52239 0.62623 0.71669 0.0
C389 C 0.5132 0.65939 0.67871 0.0
N390 N 0.54969 0.65081 0.65323 0.0
C391 C 0.54383 0.63195 0.68656 0.0
C392 C 0.53479 0.66458 0.6492 0.0
C393 C 0.50698 0.64005 0.71264 0.0
C394 C 0.66923 0.70368 0.54225 0.0
N395 N 0.66651 0.68359 0.5716 0.0
C396 C 0.69345 0.73027 0.54197 0.0
C397 C 0.71494 0.73622 0.57201 0.0
C398 C 0.71199 0.71562 0.60187 0.0
C399 C 0.68746 0.68928 0.60124 0.0
C400 C 0.69065 0.62163 0.54124 0.0
C401 C 0.64692 0.60634 0.60031 0.0
C402 C 0.67514 0.63553 0.542 0.0
N403 N 0.65371 0.62792 0.57149 0.0
C404 C 0.66197 0.59196 0.60051 0.0
C405 C 0.68399 0.59973 0.57077 0.0
C406 C 0.57338 0.6012 0.5907 0.0
C407 C 0.54974 0.67311 0.49451 0.0
C408 C 0.52984 0.63185 0.55885 0.0
C409 C 0.51283 0.62883 0.52268 0.0
C410 C 0.52291 0.64962 0.49032 0.0
N411 N 0.55614 0.65496 0.56273 0.0
C412 C 0.56615 0.67544 0.53116 0.0
Co413 Co 0.98273 0.63248 0.90946 0.0
Co414 Co 0.91728 0.57912 0.94359 0.0
O415 O 0.94142 0.61191 0.90713 0.0
C416 C 0.96975 0.61244 0.81834 0.0
O417 O 0.94905 0.58867 0.83358 0.0
C418 C 0.89772 0.61962 0.96447 0.0
O419 O 0.9238 0.64055 0.96221 0.0
O420 O 0.93938 0.59823 -0.00263 0.0
O421 O 0.98184 0.63244 0.9745 0.0
H422 H 0.89769 0.50524 0.0577 0.0
H423 H 0.95332 0.65452 0.85465 0.0
O424 O 0.98476 0.63273 0.84417 0.0
H425 H 0.00724 0.72884 0.96385 0.0
H426 H 0.07956 0.70692 0.86066 0.0
H427 H 0.02563 0.62826 0.96328 0.0
H428 H 0.00945 0.68499 0.96341 0.0
H429 H 0.02757 0.6808 0.85906 0.0
O430 O 0.89184 0.59448 0.95646 0.0
H431 H 0.92769 0.54628 0.01094 0.0
H432 H 0.85505 0.54251 0.95408 0.0
H433 H 0.07759 0.65396 0.96628 0.0
H434 H 0.95069 0.69814 0.85368 0.0
H435 H 0.1049 0.6936 0.91469 0.0
H436 H 0.97773 0.73564 0.90865 0.0
O437 O 0.98429 0.59691 0.90989 0.0
H438 H 0.86529 0.5733 0.80432 0.0
H439 H 0.89595 0.52239 0.9031 0.0
H440 H 0.86945 0.49911 0.83573 0.0
H441 H 0.8539 0.5246 0.78581 0.0
H442 H 0.89208 0.59587 0.87187 0.0
H443 H 0.82427 0.50159 0.00049 0.0
H444 H 0.84558 0.48262 0.05264 0.0
O445 O 0.94178 0.56266 0.93212 0.0
C446 C 0.96428 0.61847 0.00467 0.0
C447 C 0.88815 0.51325 0.035 0.0
C448 C 0.84694 0.51122 0.00293 0.0
N449 N 0.89313 0.54663 0.97958 0.0
C450 C 0.90503 0.53643 0.00835 0.0
C451 C 0.86448 0.53443 0.9768 0.0
C452 C 0.85892 0.50059 0.03217 0.0
C453 C 0.96534 0.67085 0.87842 0.0
N454 N 0.98162 0.66728 0.9089 0.0
C455 C 0.96368 0.69546 0.87782 0.0
C456 C 0.97883 0.71647 0.90871 0.0
C457 C 0.99538 0.71266 0.93972 0.0
C458 C 0.99649 0.68776 0.93937 0.0
C459 C 0.06789 0.68973 0.88338 0.0
C460 C 0.03737 0.64562 0.94095 0.0
C461 C 0.03846 0.67484 0.88259 0.0
N462 N 0.02359 0.6532 0.91134 0.0
C463 C 0.06679 0.66003 0.9427 0.0
C464 C 0.0821 0.68225 0.91371 0.0
C465 C 0.96695 0.5713 0.91952 0.0
C466 C 0.87191 0.56195 0.82584 0.0
C467 C 0.88937 0.53366 0.88146 0.0
C468 C 0.87429 0.52034 0.84342 0.0
C469 C 0.86555 0.53464 0.81545 0.0
N470 N 0.89551 0.56045 0.89144 0.0
C471 C 0.88698 0.57459 0.86421 0.0
Co472 Co 0.35279 0.98336 0.24339 0.0
Co473 Co 0.33897 0.91702 0.27558 0.0
O474 O 0.33208 0.94217 0.23854 0.0
C475 C 0.36341 0.97237 0.15289 0.0
O476 O 0.36613 0.95153 0.16847 0.0
C477 C 0.27808 0.89682 0.29054 0.0
O478 O 0.28328 0.92293 0.28997 0.0
O479 O 0.33928 0.93756 0.32983 0.0
O480 O 0.34898 0.98071 0.30823 0.0
H481 H 0.38748 0.89416 0.39547 0.0
H482 H 0.30376 0.95545 0.1833 0.0
O483 O 0.35738 0.98702 0.17828 0.0
H484 H 0.2789 0.00691 0.29056 0.0
H485 H 0.37761 0.08144 0.19802 0.0
H486 H 0.39722 0.02465 0.30273 0.0
H487 H 0.32483 0.00892 0.29476 0.0
H488 H 0.35184 0.02958 0.19305 0.0
O489 O 0.29767 0.89124 0.28349 0.0
H490 H 0.3787 0.92546 0.34795 0.0
H491 H 0.31315 0.8546 0.28214 0.0
H492 H 0.42331 0.07644 0.30913 0.0
H493 H 0.25769 0.95305 0.17766 0.0
H494 H 0.41355 0.1052 0.25651 0.0
H495 H 0.24498 0.97886 0.23163 0.0
O496 O 0.38984 0.98479 0.24766 0.0
H497 H 0.29988 0.86935 0.13072 0.0
H498 H 0.37634 0.89687 0.2389 0.0
H499 H 0.37656 0.87253 0.17087 0.0
H500 H 0.33811 0.85857 0.11622 0.0
H501 H 0.30064 0.89397 0.19906 0.0
H502 H 0.32106 0.82253 0.32919 0.0
H503 H 0.35852 0.8423 0.38624 0.0
O504 O 0.38037 0.94178 0.26916 0.0
C505 C 0.34374 0.9623 0.33783 0.0
C506 C 0.37115 0.8853 0.37064 0.0
C507 C 0.33385 0.84509 0.33347 0.0
N508 N 0.34558 0.89188 0.31211 0.0
C509 C 0.36614 0.90291 0.34356 0.0
C510 C 0.32943 0.86336 0.30699 0.0
C511 C 0.35488 0.8562 0.36547 0.0
C512 C 0.29847 0.96693 0.20666 0.0
N513 N 0.31701 0.98241 0.23917 0.0
C514 C 0.27231 0.9654 0.20341 0.0
C515 C 0.26519 0.97986 0.23374 0.0
C516 C 0.2842 0.99559 0.26683 0.0
C517 C 0.31015 0.9966 0.26911 0.0
C518 C 0.38201 0.06914 0.2212 0.0
C519 C 0.39274 0.03702 0.27989 0.0
C520 C 0.36753 0.03977 0.21849 0.0
N521 N 0.37288 0.02411 0.24779 0.0
C522 C 0.40763 0.06634 0.28359 0.0
C523 C 0.40216 0.08246 0.25403 0.0
C524 C 0.39754 0.96718 0.25847 0.0
C525 C 0.31672 0.87527 0.15432 0.0
C526 C 0.35961 0.89098 0.21521 0.0
C527 C 0.3598 0.87712 0.1768 0.0
C528 C 0.3382 0.86927 0.14617 0.0
N529 N 0.33848 0.89681 0.22295 0.0
C530 C 0.3172 0.88912 0.19313 0.0
Co531 Co 0.36703 0.35223 0.57185 0.0
Co532 Co 0.41873 0.34 0.61239 0.0
O533 O 0.38827 0.33219 0.57113 0.0
C534 C 0.38849 0.35994 0.48152 0.0
O535 O 0.41264 0.3648 0.49809 0.0
C536 C 0.38104 0.27835 0.62326 0.0
O537 O 0.35937 0.28238 0.62541 0.0
O538 O 0.39437 0.33628 0.66306 0.0
O539 O 0.36618 0.35187 0.63739 0.0
H540 H 0.48054 0.38609 0.74377 0.0
H541 H 0.34627 0.30042 0.51851 0.0
O542 O 0.36747 0.35349 0.5064 0.0
H543 H 0.27032 0.27987 0.6246 0.0
H544 H 0.29225 0.37291 0.51842 0.0
H545 H 0.37 0.39939 0.6238 0.0
H546 H 0.31379 0.32627 0.62417 0.0
H547 H 0.31899 0.34768 0.5192 0.0
O548 O 0.40572 0.29898 0.61642 0.0
H549 H 0.44278 0.37665 0.69066 0.0
H550 H 0.45886 0.31853 0.62259 0.0
H551 H 0.34365 0.42501 0.62444 0.0
H552 H 0.30303 0.25379 0.51755 0.0
H553 H 0.30446 0.4118 0.57145 0.0
H554 H 0.26472 0.24327 0.57096 0.0
O555 O 0.40242 0.38939 0.5722 0.0
H556 H 0.4409 0.30979 0.4691 0.0
H557 H 0.47706 0.38269 0.5846 0.0
H558 H 0.50698 0.38804 0.52063 0.0
H559 H 0.48895 0.3514 0.46236 0.0
H560 H 0.41155 0.30542 0.53343 0.0
H561 H 0.49664 0.32715 0.67519 0.0
H562 H 0.50776 0.36123 0.73622 0.0
O563 O 0.43286 0.38127 0.61007 0.0
C564 C 0.37602 0.3438 0.66857 0.0
C565 C 0.47596 0.37126 0.71724 0.0
C566 C 0.48497 0.33815 0.67878 0.0
N567 N 0.44877 0.34723 0.65337 0.0
C568 C 0.45466 0.36589 0.68699 0.0
C569 C 0.46352 0.33332 0.64915 0.0
C570 C 0.4912 0.35728 0.71301 0.0
C571 C 0.32958 0.29605 0.5416 0.0
N572 N 0.33249 0.31606 0.57121 0.0
C573 C 0.3052 0.26959 0.54101 0.0
C574 C 0.28372 0.26369 0.57102 0.0
C575 C 0.28686 0.28421 0.60115 0.0
C576 C 0.31155 0.31042 0.60082 0.0
C577 C 0.30923 0.37881 0.54174 0.0
C578 C 0.35284 0.3934 0.60086 0.0
C579 C 0.32448 0.36464 0.54229 0.0
N580 N 0.34586 0.3719 0.5718 0.0
C581 C 0.33806 0.40803 0.60128 0.0
C582 C 0.31609 0.40063 0.57151 0.0
C583 C 0.42593 0.39772 0.59146 0.0
C584 C 0.44902 0.32586 0.49434 0.0
C585 C 0.469 0.36671 0.55929 0.0
C586 C 0.48608 0.36981 0.52321 0.0
C587 C 0.47596 0.34923 0.49054 0.0
N588 N 0.4426 0.34371 0.56279 0.0
C589 C 0.43255 0.32343 0.53092 0.0
Co590 Co 0.01688 0.36908 0.90687 0.0
Co591 Co 0.08251 0.42272 0.93995 0.0
O592 O 0.05819 0.38966 0.90407 0.0
C593 C 0.02924 0.38814 0.81507 0.0
O594 O 0.04991 0.41214 0.82974 0.0
C595 C 0.10266 0.38271 0.96151 0.0
O596 O 0.07663 0.36162 0.96019 0.0
O597 O 0.06085 0.4039 -0.00578 0.0
O598 O 0.01814 0.36981 0.97196 0.0
H599 H 0.10262 0.49717 0.05317 0.0
H600 H 0.04604 0.34654 0.8527 0.0
O601 O 0.01445 0.36812 0.84147 0.0
H602 H 0.99284 0.27336 0.96384 0.0
H603 H 0.91982 0.29401 0.86006 0.0
H604 H 0.97426 0.37379 0.96056 0.0
H605 H 0.99054 0.31715 0.96219 0.0
H606 H 0.97179 0.3202 0.85774 0.0
O607 O 0.10823 0.40767 0.95266 0.0
H608 H 0.07241 0.4558 0.00717 0.0
H609 H 0.14478 0.45969 0.94922 0.0
H610 H 0.92232 0.34803 0.96426 0.0
H611 H 0.04877 0.30296 0.85293 0.0
H612 H 0.89475 0.30782 0.91374 0.0
H613 H 0.02209 0.26604 0.90888 0.0
O614 O 0.01526 0.40463 0.90643 0.0
H615 H 0.13349 0.42789 0.79997 0.0
H616 H 0.10328 0.47915 0.89862 0.0
H617 H 0.12917 0.50206 0.83066 0.0
H618 H 0.14449 0.47639 0.78081 0.0
H619 H 0.1073 0.40569 0.86811 0.0
H620 H 0.17577 0.50094 -0.00514 0.0
H621 H 0.1547 0.52001 0.04718 0.0
O622 O 0.05777 0.43892 0.92868 0.0
C623 C 0.03589 0.38387 0.0019 0.0
C624 C 0.11205 0.48911 0.0304 0.0
C625 C 0.15311 0.49121 -0.00229 0.0
N626 N 0.10681 0.45548 0.97532 0.0
C627 C 0.09505 0.46575 0.00418 0.0
C628 C 0.13545 0.46781 0.97202 0.0
C629 C 0.14127 0.5019 0.02705 0.0
C630 C 0.03419 0.33045 0.87689 0.0
N631 N 0.01805 0.33431 0.90723 0.0
C632 C 0.03589 0.30588 0.87697 0.0
C633 C 0.02095 0.28518 0.90841 0.0
C634 C 0.00455 0.28929 0.93928 0.0
C635 C 0.00338 0.31415 0.93824 0.0
C636 C 0.9316 0.31145 0.88232 0.0
C637 C 0.9624 0.35619 0.93868 0.0
C638 C 0.96102 0.32638 0.88111 0.0
N639 N 0.97603 0.34834 0.90927 0.0
C640 C 0.933 0.34174 0.94083 0.0
C641 C 0.91754 0.3192 0.91245 0.0
C642 C 0.03259 0.43025 0.91607 0.0
C643 C 0.12697 0.43931 0.82146 0.0
C644 C 0.10975 0.4678 0.87701 0.0
C645 C 0.12449 0.48091 0.83864 0.0
C646 C 0.1331 0.46651 0.8107 0.0
N647 N 0.10381 0.44112 0.88734 0.0
C648 C 0.11223 0.42689 0.86016 0.0
Co649 Co 0.6478 0.01304 0.24124 0.0
Co650 Co 0.66324 0.07995 0.2722 0.0
O651 O 0.66853 0.05401 0.23477 0.0
C652 C 0.63499 0.02286 0.15166 0.0
O653 O 0.63192 0.04333 0.16791 0.0
C654 C 0.72465 0.10093 0.2834 0.0
O655 O 0.71907 0.07548 0.29431 0.0
O656 O 0.6655 0.06074 0.3265 0.0
O657 O 0.65294 0.01662 0.30586 0.0
H658 H 0.62092 0.10636 0.39695 0.0
H659 H 0.69576 0.04001 0.17911 0.0
O660 O 0.64192 0.0086 0.1764 0.0
H661 H 0.72194 0.98915 0.28567 0.0
H662 H 0.62113 0.91409 0.19834 0.0
H663 H 0.60452 0.97287 0.30313 0.0
H664 H 0.6763 0.98761 0.29165 0.0
H665 H 0.64716 0.96587 0.19151 0.0
O666 O 0.70487 0.1058 0.27374 0.0
H667 H 0.62714 0.07365 0.34884 0.0
H668 H 0.68976 0.14252 0.27552 0.0
H669 H 0.57821 0.92118 0.31142 0.0
H670 H 0.74154 0.04196 0.17168 0.0
H671 H 0.58645 0.89143 0.25876 0.0
H672 H 0.7549 0.01644 0.22528 0.0
O673 O 0.61116 0.01215 0.24704 0.0
H674 H 0.69447 0.12362 0.12262 0.0
H675 H 0.6241 0.0992 0.24026 0.0
H676 H 0.62025 0.12172 0.17245 0.0
H677 H 0.65563 0.13411 0.11303 0.0
H678 H 0.69736 0.10082 0.19083 0.0
H679 H 0.68439 0.17597 0.32304 0.0
H680 H 0.64968 0.15793 0.38417 0.0
O681 O 0.6215 0.05501 0.27093 0.0
C682 C 0.66008 0.0357 0.33493 0.0
C683 C 0.63604 0.11448 0.37033 0.0
C684 C 0.67169 0.15355 0.32889 0.0
N685 N 0.65861 0.10615 0.30921 0.0
C686 C 0.63959 0.09606 0.34291 0.0
C687 C 0.67468 0.1345 0.30215 0.0
C688 C 0.65221 0.14341 0.36317 0.0
C689 C 0.70135 0.02868 0.20235 0.0
N690 N 0.68333 0.0136 0.23562 0.0
C691 C 0.72733 0.02994 0.19807 0.0
C692 C 0.73483 0.01564 0.22819 0.0
C693 C 0.71635 0.00034 0.26209 0.0
C694 C 0.69056 0.99959 0.26537 0.0
C695 C 0.61739 0.92683 0.22154 0.0
C696 C 0.60835 0.96007 0.28027 0.0
C697 C 0.63203 0.95615 0.21779 0.0
N698 N 0.62752 0.97237 0.24711 0.0
C699 C 0.59333 0.93081 0.28504 0.0
C700 C 0.59794 0.91413 0.25546 0.0
C701 C 0.60392 0.02975 0.25991 0.0
C702 C 0.67896 0.11837 0.1483 0.0
C703 C 0.63949 0.1044 0.2145 0.0
C704 C 0.63726 0.11724 0.17622 0.0
C705 C 0.65713 0.12421 0.14292 0.0
N706 N 0.66093 0.0987 0.21952 0.0
C707 C 0.68054 0.10555 0.18707 0.0
H708 H 0.3828 0.35004 0.19865 0.0
H709 H 0.35295 0.37452 0.4428 0.0
H710 H 0.36118 0.41353 0.23128 0.0
H711 H 0.41845 0.35511 0.41341 0.0
H712 H 0.34916 0.3821 0.36447 0.0
H713 H 0.38987 0.34498 0.27699 0.0
C714 C 0.37954 0.36288 0.22236 0.0
C715 C 0.37134 0.38219 0.20874 0.0
C716 C 0.36439 0.37625 0.37526 0.0
C717 C 0.379 0.37621 0.29776 0.0
C718 C 0.36643 0.37171 0.41978 0.0
C719 C 0.386 0.3641 0.43437 0.0
C720 C 0.38156 0.37251 0.34513 0.0
C721 C 0.40315 0.36102 0.40332 0.0
C722 C 0.38374 0.36009 0.26683 0.0
C723 C 0.36758 0.39848 0.24058 0.0
N724 N 0.40033 0.36495 0.35988 0.0
N725 N 0.37111 0.39487 0.28382 0.0
H726 H 0.93914 0.35278 0.56898 0.0
H727 H 0.06293 0.41611 0.74487 0.0
H728 H 0.02461 0.37634 0.53472 0.0
H729 H 0.97806 0.35257 0.77912 0.0
H730 H 0.04907 0.40968 0.66701 0.0
H731 H 0.953 0.36057 0.64681 0.0
C732 C 0.96078 0.35964 0.57787 0.0
C733 C 0.98074 0.36375 0.54563 0.0
C734 C 0.03359 0.3972 0.69174 0.0
C735 C 0.9967 0.3731 0.63374 0.0
C736 C 0.04142 0.40089 0.73597 0.0
C737 C 0.02164 0.3847 0.76822 0.0
C738 C 0.00568 0.37769 0.68008 0.0
C739 C 0.99402 0.36526 0.75513 0.0
C740 C 0.96862 0.36398 0.62209 0.0
C741 C 0.00853 0.37266 0.55871 0.0
N742 N 0.98678 0.36242 0.712 0.0
N743 N 0.01576 0.37723 0.60182 0.0
H744 H 0.58233 0.94003 0.89905 0.0
H745 H 0.64052 0.05792 0.08392 0.0
H746 H 0.64793 0.02542 0.87292 0.0
H747 H 0.61846 0.97222 0.11298 0.0
H748 H 0.6338 0.04605 0.00535 0.0
H749 H 0.58612 0.95135 0.9779 0.0
C750 C 0.59742 0.96111 0.90995 0.0
C751 C 0.615 0.98179 0.87976 0.0
C752 C 0.63038 0.02991 0.0291 0.0
C753 C 0.61894 0.99488 0.96883 0.0
C754 C 0.63408 0.0366 0.07373 0.0
C755 C 0.6302 0.01602 0.10466 0.0
C756 C 0.62212 0.00236 0.01572 0.0
C757 C 0.62192 0.98872 0.08995 0.0
C758 C 0.5996 0.9675 0.9547 0.0
C759 C 0.63422 0.00882 0.89532 0.0
N760 N 0.61798 0.98259 0.04641 0.0
N761 N 0.63556 0.01467 0.93886 0.0
H762 H 0.6388 0.58445 0.23148 0.0
H763 H 0.58004 0.64457 0.41441 0.0
H764 H 0.61623 0.64748 0.20043 0.0
H765 H 0.64629 0.62585 0.44167 0.0
H766 H 0.5843 0.63715 0.33567 0.0
H767 H 0.63254 0.59054 0.30985 0.0
C768 C 0.63236 0.59941 0.2412 0.0
C769 C 0.62816 0.61562 0.20973 0.0
C770 C 0.59785 0.63473 0.35908 0.0
C771 C 0.62061 0.6223 0.29852 0.0
C772 C 0.5954 0.63887 0.40378 0.0
C773 C 0.61297 0.63598 0.43429 0.0
C774 C 0.61745 0.62695 0.3453 0.0
C775 C 0.63255 0.62856 0.41905 0.0
C776 C 0.62893 0.60294 0.28573 0.0
C777 C 0.6199 0.63478 0.22386 0.0
N778 N 0.63411 0.62406 0.37556 0.0
N779 N 0.6162 0.63749 0.26734 0.0
H780 H 0.02101 0.64694 0.78208 0.0
H781 H 0.96941 0.6212 0.53599 0.0
H782 H 0.93556 0.58449 0.74857 0.0
H783 H 0.05404 0.64188 0.57074 0.0
H784 H 0.95648 0.61376 0.61386 0.0
H785 H 0.03354 0.65166 0.70421 0.0
C786 C 0.00486 0.63431 0.75825 0.0
C787 C 0.97718 0.61535 0.77153 0.0
C788 C 0.97782 0.61981 0.6043 0.0
C789 C 0.99136 0.62085 0.68285 0.0
C790 C 0.98527 0.62425 0.56008 0.0
C791 C 0.01285 0.63225 0.54718 0.0
C792 C 0.99826 0.62403 0.63573 0.0
C793 C 0.03255 0.63567 0.5795 0.0
C794 C 0.0121 0.63688 0.714 0.0
C795 C 0.95713 0.59929 0.73949 0.0
N796 N 0.02494 0.63183 0.62253 0.0
N797 N 0.96456 0.60261 0.69636 0.0
H798 H 0.35663 0.93761 0.08389 0.0
H799 H 0.41731 0.05802 0.90279 0.0
H800 H 0.38073 0.02352 0.11552 0.0
H801 H 0.35117 0.97338 0.87353 0.0
H802 H 0.41275 0.04552 0.98117 0.0
H803 H 0.36336 0.9503 0.00556 0.0
C804 C 0.36348 0.95913 0.07431 0.0
C805 C 0.36798 0.97954 0.10593 0.0
C806 C 0.3993 0.02979 0.95742 0.0
C807 C 0.37608 0.99414 0.01726 0.0
C808 C 0.40191 0.03685 0.9129 0.0
C809 C 0.38444 0.01673 0.88194 0.0
C810 C 0.3796 0.00229 0.97059 0.0
C811 C 0.36483 0.98957 0.89654 0.0
C812 C 0.36719 0.96629 0.02982 0.0
C813 C 0.3768 0.00712 0.09199 0.0
N814 N 0.36306 0.98305 0.93988 0.0
N815 N 0.38074 0.0137 0.0486 0.0
H816 H 0.15176 0.42174 -0.00171 0.0
H817 H 0.22928 0.33263 0.98992 0.0
H818 H 0.1067 0.33444 0.95879 0.0
H819 H 0.25738 0.40826 0.06674 0.0
H820 H 0.18422 0.33126 0.97708 0.0
H821 H 0.1912 0.4164 0.02094 0.0
C822 C 0.15018 0.40136 -0.00569 0.0
C823 C 0.12598 0.37854 0.9763 0.0
C824 C 0.20018 0.34786 -0.00276 0.0
C825 C 0.17141 0.37221 0.00237 0.0
C826 C 0.22583 0.34864 0.00463 0.0
C827 C 0.2473 0.37087 0.02879 0.0
C828 C 0.19626 0.36955 0.01398 0.0
C829 C 0.2417 0.39101 0.04721 0.0
C830 C 0.1727 0.39825 0.0076 0.0
C831 C 0.12504 0.35255 0.97254 0.0
N832 N 0.21693 0.39002 0.03901 0.0
N833 N 0.14765 0.35012 0.98503 0.0
H834 H 0.89644 0.22665 0.35816 0.0
H835 H 0.74416 0.152 0.2451 0.0
H836 H 0.85208 0.2686 0.31345 0.0
H837 H 0.77119 0.1051 0.32589 0.0
H838 H 0.78955 0.1941 0.25633 0.0
H839 H 0.85583 0.18124 0.33495 0.0
C840 C 0.87832 0.22632 0.34322 0.0
C841 C 0.87743 0.25131 0.33815 0.0
C842 C 0.78572 0.17461 0.27148 0.0
C843 C 0.83161 0.20005 0.31113 0.0
C844 C 0.75977 0.1505 0.26501 0.0
C845 C 0.75369 0.12511 0.28529 0.0
C846 C 0.80586 0.17356 0.29868 0.0
C847 C 0.77499 0.12435 0.30999 0.0
C848 C 0.85524 0.2005 0.33013 0.0
C849 C 0.85354 0.24983 0.31862 0.0
N850 N 0.80014 0.14842 0.31654 0.0
N851 N 0.8317 0.22472 0.30586 0.0
H852 H 0.6688 0.89751 0.6655 0.0
H853 H 0.57491 0.73229 0.6314 0.0
H854 H 0.58247 0.84687 0.70856 0.0
H855 H 0.66561 0.77155 0.63771 0.0
H856 H 0.57851 0.77677 0.65058 0.0
H857 H 0.66959 0.8539 0.64895 0.0
C858 C 0.65018 0.87734 0.67189 0.0
C859 C 0.62541 0.87586 0.68788 0.0
C860 C 0.5977 0.77576 0.6479 0.0
C861 C 0.62613 0.82636 0.66858 0.0
C862 C 0.59569 0.75031 0.63664 0.0
C863 C 0.62001 0.74805 0.63316 0.0
C864 C 0.62423 0.79947 0.65547 0.0
C865 C 0.64632 0.77235 0.64026 0.0
C866 C 0.65066 0.85255 0.6624 0.0
C867 C 0.60193 0.84918 0.69569 0.0
N868 N 0.64778 0.79719 0.65106 0.0
N869 N 0.60282 0.82561 0.68557 0.0
H870 H 0.74184 0.59194 0.07181 0.0
H871 H 0.89411 0.66803 0.9592 0.0
H872 H 0.76908 0.66516 0.98927 0.0
H873 H 0.84897 0.58166 0.00339 0.0
H874 H 0.85364 0.6732 0.98181 0.0
H875 H 0.78705 0.59477 0.0608 0.0
C876 C 0.75746 0.60881 0.05158 0.0
C877 C 0.75148 0.62804 0.03073 0.0
C878 C 0.85284 0.65324 0.98663 0.0
C879 C 0.80343 0.63122 0.01764 0.0
C880 C 0.87584 0.6503 0.97389 0.0
C881 C 0.87471 0.6243 0.97905 0.0
C882 C 0.82904 0.63018 0.0054 0.0
C883 C 0.85062 0.60197 -0.00177 0.0
C884 C 0.78329 0.61037 0.04524 0.0
C885 C 0.7728 0.64977 0.00562 0.0
N886 N 0.82886 0.60546 0.01069 0.0
N887 N 0.79784 0.6506 -0.00074 0.0
H888 H 0.14988 0.7422 0.40031 0.0
H889 H 0.22618 0.89383 0.28675 0.0
H890 H 0.10314 0.7681 0.3168 0.0
H891 H 0.26653 0.84659 0.3246 0.0
H892 H 0.18037 0.85337 0.30904 0.0
H893 H 0.19228 0.78691 0.38669 0.0
C894 C 0.14847 0.75741 0.37928 0.0
C895 C 0.12301 0.75117 0.35894 0.0
C896 C 0.19938 0.8521 0.31239 0.0
C897 C 0.17182 0.80259 0.34297 0.0
C898 C 0.22542 0.87507 0.29981 0.0
C899 C 0.25013 0.87345 0.30351 0.0
C900 C 0.19844 0.82785 0.32962 0.0
C901 C 0.24806 0.84873 0.32062 0.0
C902 C 0.17275 0.78296 0.37146 0.0
C903 C 0.12243 0.77201 0.33278 0.0
N904 N 0.22277 0.82706 0.33313 0.0
N905 N 0.14666 0.79682 0.32505 0.0
H906 H 0.41786 0.15356 0.71657 0.0
H907 H 0.33219 0.22692 0.63331 0.0
H908 H 0.33382 0.10349 0.66379 0.0
H909 H 0.42296 0.26641 0.63663 0.0
H910 H 0.329 0.18195 0.65431 0.0
H911 H 0.41612 0.19592 0.70024 0.0
C912 C 0.3989 0.15141 0.70173 0.0
C913 C 0.37611 0.12487 0.69088 0.0
C914 C 0.34951 0.20056 0.65022 0.0
C915 C 0.37408 0.17368 0.67187 0.0
C916 C 0.35137 0.22615 0.63827 0.0
C917 C 0.37788 0.25051 0.63325 0.0
C918 C 0.37433 0.19965 0.65786 0.0
C919 C 0.40205 0.24832 0.64003 0.0
C920 C 0.39798 0.1757 0.69227 0.0
C921 C 0.35195 0.12356 0.67236 0.0
N922 N 0.39966 0.22348 0.65222 0.0
N923 N 0.3516 0.14773 0.6631 0.0
H924 H 0.38538 0.32172 0.74317 0.0
H925 H 0.32943 0.3967 0.90502 0.0
H926 H 0.34488 0.36727 0.69691 0.0
H927 H 0.35112 0.33448 0.94653 0.0
H928 H 0.33388 0.38582 0.8284 0.0
H929 H 0.37226 0.32593 0.81814 0.0
C930 C 0.3736 0.33247 0.74871 0.0
C931 C 0.36644 0.34436 0.71371 0.0
C932 C 0.33734 0.37438 0.8544 0.0
C933 C 0.3515 0.34941 0.79954 0.0
C934 C 0.33481 0.38057 0.89812 0.0
C935 C 0.3402 0.36673 0.93236 0.0
C936 C 0.34554 0.3544 0.845 0.0
C937 C 0.34702 0.34595 0.92139 0.0
C938 C 0.36603 0.3348 0.79154 0.0
C939 C 0.35097 0.35789 0.7229 0.0
N940 N 0.34976 0.34065 0.87873 0.0
N941 N 0.34426 0.3603 0.76502 0.0
H942 H 0.9344 0.33534 0.23685 0.0
H943 H 0.0675 0.40326 0.07735 0.0
H944 H 0.01974 0.36664 0.28233 0.0
H945 H 0.98238 0.34868 0.03151 0.0
H946 H 0.05034 0.3927 0.15309 0.0
H947 H 0.95155 0.34265 0.16105 0.0
C948 C 0.95668 0.34363 0.23097 0.0
C949 C 0.97564 0.35046 0.26607 0.0
C950 C 0.0355 0.38295 0.12635 0.0
C951 C 0.99536 0.35908 0.17961 0.0
C952 C 0.04527 0.38902 0.08314 0.0
C953 C 0.02637 0.37693 0.04797 0.0
C954 C 0.00663 0.36497 0.13436 0.0
C955 C 0.99776 0.35854 0.0575 0.0
C956 C 0.96644 0.34775 0.18772 0.0
C957 C 0.0043 0.3611 0.25641 0.0
N958 N 0.98875 0.35329 0.09978 0.0
N959 N 0.0133 0.36527 0.21412 0.0
H960 H 0.66049 0.02674 0.61872 0.0
H961 H 0.64969 0.98452 0.3656 0.0
H962 H 0.61828 0.94096 0.57114 0.0
H963 H 0.67209 0.06815 0.40957 0.0
H964 H 0.64652 0.96985 0.44173 0.0
H965 H 0.67294 0.04341 0.54319 0.0
C966 C 0.65403 0.01136 0.5925 0.0
C967 C 0.63801 0.98235 0.6013 0.0
C968 C 0.6523 0.99145 0.43473 0.0
C969 C 0.65233 0.00142 0.51489 0.0
C970 C 0.65418 -6e-05 0.39119 0.0
C971 C 0.66086 0.02761 0.38104 0.0
C972 C 0.65716 0.01071 0.46855 0.0
C973 C 0.66666 0.04657 0.41581 0.0
C974 C 0.66112 0.02095 0.5494 0.0
C975 C 0.6304 0.9635 0.56594 0.0
N976 N 0.66449 0.0377 0.45812 0.0
N977 N 0.63754 0.97338 0.52427 0.0
H978 H 0.61288 0.67644 0.74336 0.0
H979 H 0.66935 0.60177 0.90543 0.0
H980 H 0.65409 0.6316 0.69721 0.0
H981 H 0.64618 0.66286 0.94705 0.0
H982 H 0.66495 0.61278 0.82881 0.0
H983 H 0.62566 0.67192 0.81842 0.0
C984 C 0.62475 0.66578 0.74895 0.0
C985 C 0.63221 0.65419 0.71393 0.0
C986 C 0.66114 0.62394 0.85483 0.0
C987 C 0.64678 0.64878 0.79992 0.0
C988 C 0.66364 0.61767 0.89856 0.0
C989 C 0.65785 0.63117 0.93283 0.0
C990 C 0.65259 0.64365 0.84545 0.0
C991 C 0.65061 0.65166 0.92188 0.0
C992 C 0.63212 0.66327 0.79185 0.0
C993 C 0.64778 0.64077 0.7232 0.0
N994 N 0.64794 0.65704 0.87922 0.0
N995 N 0.6543 0.63817 0.76539 0.0
H996 H 0.06521 0.66813 0.24058 0.0
H997 H 0.9327 0.60026 0.08008 0.0
H998 H 0.97968 0.63782 0.28418 0.0
H999 H 0.01794 0.65364 0.03386 0.0
H1000 H 0.94983 0.61174 0.15566 0.0
H1001 H 0.04863 0.66129 0.16436 0.0
C1002 C 0.04305 0.66026 0.23421 0.0
C1003 C 0.02383 0.65338 0.2689 0.0
C1004 C 0.96472 0.62105 0.12889 0.0
C1005 C 0.00477 0.64527 0.18209 0.0
C1006 C 0.95497 0.61443 0.08577 0.0
C1007 C 0.9739 0.6259 0.05057 0.0
C1008 C 0.99362 0.63898 0.13682 0.0
C1009 C 0.00255 0.64425 0.05994 0.0
C1010 C 0.03362 0.65638 0.19075 0.0
C1011 C 0.99532 0.64329 0.25864 0.0
N1012 N 0.01157 0.65005 0.10219 0.0
N1013 N 0.98665 0.63932 0.21621 0.0
H1014 H 0.33154 0.92994 0.4125 0.0
H1015 H 0.38664 0.0615 0.57333 0.0
H1016 H 0.35649 0.01423 0.3685 0.0
H1017 H 0.34327 0.97529 0.61908 0.0
H1018 H 0.37538 0.0444 0.49786 0.0
H1019 H 0.33536 0.94588 0.48858 0.0
C1020 C 0.33763 0.95171 0.41875 0.0
C1021 C 0.34392 0.97079 0.38398 0.0
C1022 C 0.36812 0.02924 0.52447 0.0
C1023 C 0.34846 0.98915 0.47083 0.0
C1024 C 0.37458 0.039 0.56759 0.0
C1025 C 0.36611 0.01982 0.60264 0.0
C1026 C 0.35336 0.00013 0.51629 0.0
C1027 C 0.35039 0.99088 0.59313 0.0
C1028 C 0.33975 0.96077 0.46218 0.0
C1029 C 0.35159 0.99874 0.39412 0.0
N1030 N 0.34477 0.98192 0.55082 0.0
N1031 N 0.35388 0.0071 0.43659 0.0
H1032 H 0.44272 0.41659 0.06323 0.0
H1033 H 0.55575 0.58087 0.06382 0.0
H1034 H 0.42066 0.48107 0.04149 0.0
H1035 H 0.57805 0.51658 0.04201 0.0
H1036 H 0.50596 0.54444 0.06257 0.0
H1037 H 0.49256 0.45297 0.06232 0.0
C1038 C 0.44829 0.43834 0.05832 0.0
C1039 C 0.42737 0.44573 0.05268 0.0
C1040 C 0.52181 0.53838 0.058 0.0
C1041 C 0.48434 0.48743 0.05189 0.0
C1042 C 0.55024 0.55915 0.05884 0.0
C1043 C 0.57121 0.55183 0.05325 0.0
C1044 C 0.51427 0.51006 0.05205 0.0
C1045 C 0.56271 0.52329 0.04667 0.0
C1046 C 0.47675 0.45907 0.05769 0.0
C1047 C 0.43594 0.4743 0.04621 0.0
N1048 N 0.53493 0.50345 0.04652 0.0
N1049 N 0.46373 0.49409 0.04626 0.0
H1050 H 0.06111 0.5786 0.38298 0.0
H1051 H 0.93451 0.42046 0.39421 0.0
H1052 H 0.97529 0.55687 0.41134 0.0
H1053 H 0.02177 0.44249 0.40589 0.0
H1054 H 0.94897 0.47027 0.39539 0.0
H1055 H 0.04691 0.52882 0.38585 0.0
C1056 C 0.03928 0.56343 0.38992 0.0
C1057 C 0.01939 0.57206 0.39713 0.0
C1058 C 0.96494 0.46421 0.39797 0.0
C1059 C 0.00302 0.51488 0.40005 0.0
C1060 C 0.95673 0.43572 0.39725 0.0
C1061 C 0.97695 0.42717 0.40005 0.0
C1062 C 0.99363 0.48443 0.40093 0.0
C1063 C 0.00543 0.44806 0.40382 0.0
C1064 C 0.03124 0.53498 0.39165 0.0
C1065 C 0.99139 0.55128 0.40573 0.0
N1066 N 0.01294 0.47575 0.40385 0.0
N1067 N 0.98402 0.52365 0.40675 0.0
H1068 H 0.54301 0.97155 0.65284 0.0
H1069 H 0.43811 -6e-05 0.79013 0.0
H1070 H 0.5622 0.99899 0.78769 0.0
H1071 H 0.46041 0.03137 0.65755 0.0
H1072 H 0.4764 0.98876 0.78967 0.0
H1073 H 0.50533 0.98339 0.65348 0.0
C1074 C 0.53931 0.98018 0.68247 0.0
C1075 C 0.55575 0.98458 0.72017 0.0
C1076 C 0.47273 0.99802 0.76075 0.0
C1077 C 0.51243 0.9972 0.72147 0.0
C1078 C 0.45085 0.00413 0.76083 0.0
C1079 C 0.44622 0.01651 0.72379 0.0
C1080 C 0.48937 0.00362 0.72296 0.0
C1081 C 0.46343 0.02189 0.68676 0.0
C1082 C 0.51792 0.9869 0.68279 0.0
C1083 C 0.55013 0.99567 0.75785 0.0
N1084 N 0.48413 0.01515 0.68709 0.0
N1085 N 0.52861 0.0013 0.75778 0.0
H1086 H 0.56147 0.56363 0.52378 0.0
H1087 H 0.45994 0.42787 0.65915 0.0
H1088 H 0.53807 0.5703 0.65677 0.0
H1089 H 0.43962 0.43583 0.52478 0.0
H1090 H 0.49644 0.47779 0.65878 0.0
H1091 H 0.52437 0.51364 0.52313 0.0
C1092 C 0.54873 0.55445 0.55291 0.0
C1093 C 0.55271 0.5709 0.59042 0.0
C1094 C 0.4839 0.46855 0.6295 0.0
C1095 C 0.51095 0.51429 0.59 0.0
C1096 C 0.46318 0.4402 0.62964 0.0
C1097 C 0.44675 0.42796 0.59202 0.0
C1098 C 0.48873 0.48445 0.59107 0.0
C1099 C 0.45173 0.44472 0.55454 0.0
C1100 C 0.52754 0.52616 0.55236 0.0
C1101 C 0.53554 0.55824 0.62721 0.0
N1102 N 0.47261 0.47217 0.55477 0.0
N1103 N 0.51554 0.53056 0.62627 0.0
H1104 H 0.93465 0.51385 0.9254 0.0
H1105 H 0.06491 0.48768 0.9214 0.0
H1106 H 0.02055 0.58063 0.90603 0.0
H1107 H 0.97877 0.42084 0.90447 0.0
H1108 H 0.04904 0.52194 0.91929 0.0
H1109 H 0.95042 0.47952 0.92138 0.0
C1110 C 0.95683 0.52136 0.92012 0.0
C1111 C 0.9763 0.55028 0.91601 0.0
C1112 C 0.03363 0.4998 0.91574 0.0
C1113 C 0.99448 0.51088 0.91174 0.0
C1114 C 0.04265 0.48014 0.91701 0.0
C1115 C 0.02315 0.45122 0.91306 0.0
C1116 C 0.00484 0.49057 0.91106 0.0
C1117 C 0.99458 0.44287 0.90753 0.0
C1118 C 0.96578 0.50167 0.91774 0.0
C1119 C 0.00477 0.5586 0.9093 0.0
N1120 N 0.98626 0.46245 0.90699 0.0
N1121 N 0.01302 0.539 0.90765 0.0
H1122 H 0.57976 0.06252 0.27358 0.0
H1123 H 0.42189 0.93433 0.26716 0.0
H1124 H 0.55862 0.97656 0.24864 0.0
H1125 H 0.44277 0.02093 0.25058 0.0
H1126 H 0.47191 0.94951 0.26786 0.0
H1127 H 0.52969 0.0476 0.27289 0.0
C1128 C 0.56466 0.04051 0.26795 0.0
C1129 C 0.57354 0.0208 0.26086 0.0
C1130 C 0.46555 0.96518 0.2639 0.0
C1131 C 0.51608 0.00362 0.26044 0.0
C1132 C 0.43694 0.95656 0.26354 0.0
C1133 C 0.42798 0.97636 0.25854 0.0
C1134 C 0.48551 0.99387 0.25982 0.0
C1135 C 0.44864 0.00489 0.25426 0.0
C1136 C 0.53605 0.03205 0.26747 0.0
C1137 C 0.55285 0.99254 0.25403 0.0
N1138 N 0.47646 0.01281 0.25518 0.0
N1139 N 0.52509 0.9848 0.25411 0.0
loop_
_geom_bond_atom_site_label_1
_geom_bond_atom_site_label_2
_geom_bond_distance
_geom_bond_site_symmetry_2
_ccdc_geom_bond_type
Co0 O2 2.143 . S
Co0 O8 2.074 . S
Co0 O11 2.093 . S
Co0 O24 2.097 . S
Co0 N41 2.151 . S
Co0 N49 2.214 . S
Co1 O2 2.160 . S
Co1 O7 2.058 1_554 S
Co1 O17 2.057 . S
Co1 O32 2.037 . S
Co1 N36 2.145 1_554 S
Co1 N57 2.257 . S
O2 Co0 2.143 . S
O2 Co1 2.160 . S
C3 O4 1.278 . S
C3 O11 1.224 . S
O4 C3 1.278 . S
C5 O6 1.245 . S
C5 O17 1.232 . S
O6 C5 1.245 . S
O7 Co1 2.058 1_556 S
O7 C33 1.269 . S
O8 Co0 2.074 . S
O8 C33 1.257 1_554 S
H9 C34 0.930 . S
H10 C40 0.930 . S
O11 Co0 2.093 . S
O11 C3 1.224 . S
H12 C44 0.929 . S
H13 C46 0.930 . S
H14 C47 0.930 . S
H15 C45 0.929 . S
H16 C48 0.928 . S
O17 Co1 2.057 . S
O17 C5 1.232 . S
H18 C37 0.929 . S
H19 C38 0.929 . S
H20 C50 0.931 . S
H21 C42 0.929 . S
H22 C51 0.930 . S
H23 C43 0.931 . S
O24 Co0 2.097 . S
O24 C52 1.214 . S
H25 C53 0.929 . S
H26 C54 0.929 . S
H27 C55 0.930 . S
H28 C56 0.929 . S
H29 C58 0.930 . S
H30 C35 0.930 . S
H31 C39 0.930 . S
O32 Co1 2.037 . S
O32 C52 1.234 . S
C33 O7 1.269 . S
C33 O8 1.257 1_556 S
C34 H9 0.930 . S
C34 C37 1.388 . S
C34 C39 1.418 . S
C35 H30 0.930 . S
C35 C38 1.404 . S
C35 C39 1.353 . S
N36 Co1 2.145 1_556 S
N36 C37 1.397 . S
N36 C38 1.334 . S
C37 H18 0.929 . S
C37 C34 1.388 . S
C37 N36 1.397 . S
C38 H19 0.929 . S
C38 C35 1.404 . S
C38 N36 1.334 . S
C39 H31 0.930 . S
C39 C34 1.418 . S
C39 C35 1.353 . S
C40 H10 0.930 . S
C40 N41 1.330 . S
C40 C42 1.446 . S
N41 Co0 2.151 . S
N41 C40 1.330 . S
N41 C45 1.418 . S
C42 H21 0.929 . S
C42 C40 1.446 . S
C42 C43 1.332 . S
C43 H23 0.931 . S
C43 C42 1.332 . S
C43 C44 1.267 . S
C44 H12 0.929 . S
C44 C43 1.267 . S
C44 C45 1.251 . S
C45 H15 0.929 . S
C45 N41 1.418 . S
C45 C44 1.251 . S
C46 H13 0.930 . S
C46 C48 1.406 . S
C46 C51 1.261 . S
C47 H14 0.930 . S
C47 N49 1.325 . S
C47 C50 1.357 . S
C48 H16 0.928 . S
C48 C46 1.406 . S
C48 N49 1.261 . S
N49 Co0 2.214 . S
N49 C47 1.325 . S
N49 C48 1.261 . S
C50 H20 0.931 . S
C50 C47 1.357 . S
C50 C51 1.312 . S
C51 H22 0.930 . S
C51 C46 1.261 . S
C51 C50 1.312 . S
C52 O24 1.214 . S
C52 O32 1.234 . S
C53 H25 0.929 . S
C53 C56 1.391 . S
C53 C58 1.391 . S
C54 H26 0.929 . S
C54 C55 1.390 . S
C54 N57 1.391 . S
C55 H27 0.930 . S
C55 C54 1.390 . S
C55 C56 1.392 . S
C56 H28 0.929 . S
C56 C53 1.391 . S
C56 C55 1.392 . S
N57 Co1 2.257 . S
N57 C54 1.391 . S
N57 C58 1.388 . S
C58 H29 0.930 . S
C58 C53 1.391 . S
C58 N57 1.388 . S
Co59 O61 2.175 . S
Co59 O67 2.076 . S
Co59 O70 2.091 1_655 S
Co59 O83 2.125 . S
Co59 N100 2.121 1_655 S
Co59 N108 2.183 1_655 S
Co60 O61 2.160 . S
Co60 O66 2.058 . S
Co60 O76 2.057 . S
Co60 O91 2.037 . S
Co60 N95 2.145 . S
Co60 N116 2.257 . S
O61 Co59 2.175 . S
O61 Co60 2.160 . S
C62 O63 1.278 . S
C62 O70 1.227 1_655 S
O63 C62 1.278 . S
C64 O65 1.245 . S
C64 O76 1.232 . S
O65 C64 1.245 . S
O66 Co60 2.058 . S
O66 C92 1.269 . S
O67 Co59 2.076 . S
O67 C92 1.257 . S
H68 C93 0.930 . S
H69 C99 0.930 1_655 S
O70 Co59 2.091 1_455 S
O70 C62 1.227 1_455 S
H71 C103 0.929 . S
H72 C105 0.930 . S
H73 C106 0.930 . S
H74 C104 0.929 . S
H75 C107 0.928 . S
O76 Co60 2.057 . S
O76 C64 1.232 . S
H77 C96 0.929 . S
H78 C97 0.929 . S
H79 C109 0.931 . S
H80 C101 0.929 . S
H81 C110 0.930 . S
H82 C102 0.931 . S
O83 Co59 2.125 . S
O83 C111 1.214 . S
H84 C112 0.929 . S
H85 C113 0.929 . S
H86 C114 0.930 . S
H87 C115 0.929 . S
H88 C117 0.930 . S
H89 C94 0.930 . S
H90 C98 0.930 . S
O91 Co60 2.037 . S
O91 C111 1.234 . S
C92 O66 1.269 . S
C92 O67 1.257 . S
C93 H68 0.930 . S
C93 C96 1.388 . S
C93 C98 1.418 . S
C94 H89 0.930 . S
C94 C97 1.404 . S
C94 C98 1.353 . S
N95 Co60 2.145 . S
N95 C96 1.397 . S
N95 C97 1.334 . S
C96 H77 0.929 . S
C96 C93 1.388 . S
C96 N95 1.397 . S
C97 H78 0.929 . S
C97 C94 1.404 . S
C97 N95 1.334 . S
C98 H90 0.930 . S
C98 C93 1.418 . S
C98 C94 1.353 . S
C99 H69 0.930 1_455 S
C99 N100 1.330 . S
C99 C101 1.446 . S
N100 Co59 2.121 1_455 S
N100 C99 1.330 . S
N100 C104 1.418 . S
C101 H80 0.929 . S
C101 C99 1.446 . S
C101 C102 1.332 . S
C102 H82 0.931 . S
C102 C101 1.332 . S
C102 C103 1.267 . S
C103 H71 0.929 . S
C103 C102 1.267 . S
C103 C104 1.251 . S
C104 H74 0.929 . S
C104 N100 1.418 . S
C104 C103 1.251 . S
C105 H72 0.930 . S
C105 C107 1.406 . S
C105 C110 1.261 . S
C106 H73 0.930 . S
C106 N108 1.325 . S
C106 C109 1.357 . S
C107 H75 0.928 . S
C107 C105 1.406 . S
C107 N108 1.261 . S
N108 Co59 2.183 1_455 S
N108 C106 1.325 . S
N108 C107 1.261 . S
C109 H79 0.931 . S
C109 C106 1.357 . S
C109 C110 1.312 . S
C110 H81 0.930 . S
C110 C105 1.261 . S
C110 C109 1.312 . S
C111 O83 1.214 . S
C111 O91 1.234 . S
C112 H84 0.929 . S
C112 C115 1.391 . S
C112 C117 1.391 . S
C113 H85 0.929 . S
C113 C114 1.390 . S
C113 N116 1.391 . S
C114 H86 0.930 . S
C114 C113 1.390 . S
C114 C115 1.392 . S
C115 H87 0.929 . S
C115 C112 1.391 . S
C115 C114 1.392 . S
N116 Co60 2.257 . S
N116 C113 1.391 . S
N116 C117 1.388 . S
C117 H88 0.930 . S
C117 C112 1.391 . S
C117 N116 1.388 . S
Co118 O120 2.182 . S
Co118 O126 2.073 . S
Co118 O129 2.094 1_565 S
Co118 O142 2.083 . S
Co118 N159 2.162 1_565 S
Co118 N167 2.173 1_565 S
Co119 O120 2.160 . S
Co119 O125 2.058 . S
Co119 O135 2.057 . S
Co119 O150 2.037 . S
Co119 N154 2.145 . S
Co119 N175 2.257 . S
O120 Co118 2.182 . S
O120 Co119 2.160 . S
C121 O122 1.278 . S
C121 O129 1.228 1_565 S
O122 C121 1.278 . S
C123 O124 1.245 . S
C123 O135 1.232 . S
O124 C123 1.245 . S
O125 Co119 2.058 . S
O125 C151 1.269 . S
O126 Co118 2.073 . S
O126 C151 1.257 . S
H127 C152 0.930 . S
H128 C158 0.930 1_565 S
O129 Co118 2.094 1_545 S
O129 C121 1.228 1_545 S
H130 C162 0.929 . S
H131 C164 0.930 . S
H132 C165 0.930 . S
H133 C163 0.929 . S
H134 C166 0.928 . S
O135 Co119 2.057 . S
O135 C123 1.232 . S
H136 C155 0.929 . S
H137 C156 0.929 . S
H138 C168 0.931 . S
H139 C160 0.929 . S
H140 C169 0.930 . S
H141 C161 0.931 . S
O142 Co118 2.083 . S
O142 C170 1.214 . S
H143 C171 0.929 . S
H144 C172 0.929 . S
H145 C173 0.930 . S
H146 C174 0.929 . S
H147 C176 0.930 . S
H148 C153 0.930 . S
H149 C157 0.930 . S
O150 Co119 2.037 . S
O150 C170 1.234 . S
C151 O125 1.269 . S
C151 O126 1.257 . S
C152 H127 0.930 . S
C152 C155 1.388 . S
C152 C157 1.418 . S
C153 H148 0.930 . S
C153 C156 1.404 . S
C153 C157 1.353 . S
N154 Co119 2.145 . S
N154 C155 1.397 . S
N154 C156 1.334 . S
C155 H136 0.929 . S
C155 C152 1.388 . S
C155 N154 1.397 . S
C156 H137 0.929 . S
C156 C153 1.404 . S
C156 N154 1.334 . S
C157 H149 0.930 . S
C157 C152 1.418 . S
C157 C153 1.353 . S
C158 H128 0.930 1_545 S
C158 N159 1.330 . S
C158 C160 1.446 . S
N159 Co118 2.162 1_545 S
N159 C158 1.330 . S
N159 C163 1.418 . S
C160 H139 0.929 . S
C160 C158 1.446 . S
C160 C161 1.332 . S
C161 H141 0.931 . S
C161 C160 1.332 . S
C161 C162 1.267 . S
C162 H130 0.929 . S
C162 C161 1.267 . S
C162 C163 1.251 . S
C163 H133 0.929 . S
C163 N159 1.418 . S
C163 C162 1.251 . S
C164 H131 0.930 . S
C164 C166 1.406 . S
C164 C169 1.261 . S
C165 H132 0.930 . S
C165 N167 1.325 . S
C165 C168 1.357 . S
C166 H134 0.928 . S
C166 C164 1.406 . S
C166 N167 1.261 . S
N167 Co118 2.173 1_545 S
N167 C165 1.325 . S
N167 C166 1.261 . S
C168 H138 0.931 . S
C168 C165 1.357 . S
C168 C169 1.312 . S
C169 H140 0.930 . S
C169 C164 1.261 . S
C169 C168 1.312 . S
C170 O142 1.214 . S
C170 O150 1.234 . S
C171 H143 0.929 . S
C171 C174 1.391 . S
C171 C176 1.391 . S
C172 H144 0.929 . S
C172 C173 1.390 . S
C172 N175 1.391 . S
C173 H145 0.930 . S
C173 C172 1.390 . S
C173 C174 1.392 . S
C174 H146 0.929 . S
C174 C171 1.391 . S
C174 C173 1.392 . S
N175 Co119 2.257 . S
N175 C172 1.391 . S
N175 C176 1.388 . S
C176 H147 0.930 . S
C176 C171 1.391 . S
C176 N175 1.388 . S
Co177 O179 2.143 . S
Co177 O185 2.074 . S
Co177 O188 2.093 . S
Co177 O201 2.097 . S
Co177 N218 2.151 . S
Co177 N226 2.214 . S
Co178 O179 2.160 . S
Co178 O184 2.058 1_554 S
Co178 O194 2.057 . S
Co178 O209 2.037 . S
Co178 N213 2.145 1_554 S
Co178 N234 2.257 . S
O179 Co177 2.143 . S
O179 Co178 2.160 . S
C180 O181 1.278 . S
C180 O188 1.224 . S
O181 C180 1.278 . S
C182 O183 1.245 . S
C182 O194 1.232 . S
O183 C182 1.245 . S
O184 Co178 2.058 1_556 S
O184 C210 1.269 . S
O185 Co177 2.074 . S
O185 C210 1.257 1_554 S
H186 C211 0.930 . S
H187 C217 0.930 . S
O188 Co177 2.093 . S
O188 C180 1.224 . S
H189 C221 0.929 . S
H190 C223 0.930 . S
H191 C224 0.930 . S
H192 C222 0.929 . S
H193 C225 0.928 . S
O194 Co178 2.057 . S
O194 C182 1.232 . S
H195 C214 0.929 . S
H196 C215 0.929 . S
H197 C227 0.931 . S
H198 C219 0.929 . S
H199 C228 0.930 . S
H200 C220 0.931 . S
O201 Co177 2.097 . S
O201 C229 1.214 . S
H202 C230 0.929 . S
H203 C231 0.929 . S
H204 C232 0.930 . S
H205 C233 0.929 . S
H206 C235 0.930 . S
H207 C212 0.930 . S
H208 C216 0.930 . S
O209 Co178 2.037 . S
O209 C229 1.234 . S
C210 O184 1.269 . S
C210 O185 1.257 1_556 S
C211 H186 0.930 . S
C211 C214 1.388 . S
C211 C216 1.418 . S
C212 H207 0.930 . S
C212 C215 1.404 . S
C212 C216 1.353 . S
N213 Co178 2.145 1_556 S
N213 C214 1.397 . S
N213 C215 1.334 . S
C214 H195 0.929 . S
C214 C211 1.388 . S
C214 N213 1.397 . S
C215 H196 0.929 . S
C215 C212 1.404 . S
C215 N213 1.334 . S
C216 H208 0.930 . S
C216 C211 1.418 . S
C216 C212 1.353 . S
C217 H187 0.930 . S
C217 N218 1.330 . S
C217 C219 1.446 . S
N218 Co177 2.151 . S
N218 C217 1.330 . S
N218 C222 1.418 . S
C219 H198 0.929 . S
C219 C217 1.446 . S
C219 C220 1.332 . S
C220 H200 0.931 . S
C220 C219 1.332 . S
C220 C221 1.267 . S
C221 H189 0.929 . S
C221 C220 1.267 . S
C221 C222 1.251 . S
C222 H192 0.929 . S
C222 N218 1.418 . S
C222 C221 1.251 . S
C223 H190 0.930 . S
C223 C225 1.406 . S
C223 C228 1.261 . S
C224 H191 0.930 . S
C224 N226 1.325 . S
C224 C227 1.357 . S
C225 H193 0.928 . S
C225 C223 1.406 . S
C225 N226 1.261 . S
N226 Co177 2.214 . S
N226 C224 1.325 . S
N226 C225 1.261 . S
C227 H197 0.931 . S
C227 C224 1.357 . S
C227 C228 1.312 . S
C228 H199 0.930 . S
C228 C223 1.261 . S
C228 C227 1.312 . S
C229 O201 1.214 . S
C229 O209 1.234 . S
C230 H202 0.929 . S
C230 C233 1.391 . S
C230 C235 1.391 . S
C231 H203 0.929 . S
C231 C232 1.390 . S
C231 N234 1.391 . S
C232 H204 0.930 . S
C232 C231 1.390 . S
C232 C233 1.392 . S
C233 H205 0.929 . S
C233 C230 1.391 . S
C233 C232 1.392 . S
N234 Co178 2.257 . S
N234 C231 1.391 . S
N234 C235 1.388 . S
C235 H206 0.930 . S
C235 C230 1.391 . S
C235 N234 1.388 . S
Co236 O238 2.175 . S
Co236 O244 2.076 . S
Co236 O247 2.091 1_455 S
Co236 O260 2.125 . S
Co236 N277 2.121 1_455 S
Co236 N285 2.183 1_455 S
Co237 O238 2.160 . S
Co237 O243 2.058 . S
Co237 O253 2.057 . S
Co237 O268 2.037 . S
Co237 N272 2.145 . S
Co237 N293 2.257 . S
O238 Co236 2.175 . S
O238 Co237 2.160 . S
C239 O240 1.278 . S
C239 O247 1.227 1_455 S
O240 C239 1.278 . S
C241 O242 1.245 . S
C241 O253 1.232 . S
O242 C241 1.245 . S
O243 Co237 2.058 . S
O243 C269 1.269 . S
O244 Co236 2.076 . S
O244 C269 1.257 . S
H245 C270 0.930 . S
H246 C276 0.930 1_455 S
O247 Co236 2.091 1_655 S
O247 C239 1.227 1_655 S
H248 C280 0.929 . S
H249 C282 0.930 . S
H250 C283 0.930 . S
H251 C281 0.929 . S
H252 C284 0.928 . S
O253 Co237 2.057 . S
O253 C241 1.232 . S
H254 C273 0.929 . S
H255 C274 0.929 . S
H256 C286 0.931 . S
H257 C278 0.929 . S
H258 C287 0.930 . S
H259 C279 0.931 . S
O260 Co236 2.125 . S
O260 C288 1.214 . S
H261 C289 0.929 . S
H262 C290 0.929 . S
H263 C291 0.930 . S
H264 C292 0.929 . S
H265 C294 0.930 . S
H266 C271 0.930 . S
H267 C275 0.930 . S
O268 Co237 2.037 . S
O268 C288 1.234 . S
C269 O243 1.269 . S
C269 O244 1.257 . S
C270 H245 0.930 . S
C270 C273 1.388 . S
C270 C275 1.418 . S
C271 H266 0.930 . S
C271 C274 1.404 . S
C271 C275 1.353 . S
N272 Co237 2.145 . S
N272 C273 1.397 . S
N272 C274 1.334 . S
C273 H254 0.929 . S
C273 C270 1.388 . S
C273 N272 1.397 . S
C274 H255 0.929 . S
C274 C271 1.404 . S
C274 N272 1.334 . S
C275 H267 0.930 . S
C275 C270 1.418 . S
C275 C271 1.353 . S
C276 H246 0.930 1_655 S
C276 N277 1.330 . S
C276 C278 1.446 . S
N277 Co236 2.121 1_655 S
N277 C276 1.330 . S
N277 C281 1.418 . S
C278 H257 0.929 . S
C278 C276 1.446 . S
C278 C279 1.332 . S
C279 H259 0.931 . S
C279 C278 1.332 . S
C279 C280 1.267 . S
C280 H248 0.929 . S
C280 C279 1.267 . S
C280 C281 1.251 . S
C281 H251 0.929 . S
C281 N277 1.418 . S
C281 C280 1.251 . S
C282 H249 0.930 . S
C282 C284 1.406 . S
C282 C287 1.261 . S
C283 H250 0.930 . S
C283 N285 1.325 . S
C283 C286 1.357 . S
C284 H252 0.928 . S
C284 C282 1.406 . S
C284 N285 1.261 . S
N285 Co236 2.183 1_655 S
N285 C283 1.325 . S
N285 C284 1.261 . S
C286 H256 0.931 . S
C286 C283 1.357 . S
C286 C287 1.312 . S
C287 H258 0.930 . S
C287 C282 1.261 . S
C287 C286 1.312 . S
C288 O260 1.214 . S
C288 O268 1.234 . S
C289 H261 0.929 . S
C289 C292 1.391 . S
C289 C294 1.391 . S
C290 H262 0.929 . S
C290 C291 1.390 . S
C290 N293 1.391 . S
C291 H263 0.930 . S
C291 C290 1.390 . S
C291 C292 1.392 . S
C292 H264 0.929 . S
C292 C289 1.391 . S
C292 C291 1.392 . S
N293 Co237 2.257 . S
N293 C290 1.391 . S
N293 C294 1.388 . S
C294 H265 0.930 . S
C294 C289 1.391 . S
C294 N293 1.388 . S
Co295 O297 2.182 . S
Co295 O303 2.073 . S
Co295 O306 2.094 1_545 S
Co295 O319 2.083 . S
Co295 N336 2.162 1_545 S
Co295 N344 2.173 1_545 S
Co296 O297 2.160 . S
Co296 O302 2.058 . S
Co296 O312 2.057 . S
Co296 O327 2.037 . S
Co296 N331 2.145 . S
Co296 N352 2.257 . S
O297 Co295 2.182 . S
O297 Co296 2.160 . S
C298 O299 1.278 . S
C298 O306 1.228 1_545 S
O299 C298 1.278 . S
C300 O301 1.245 . S
C300 O312 1.232 . S
O301 C300 1.245 . S
O302 Co296 2.058 . S
O302 C328 1.269 . S
O303 Co295 2.073 . S
O303 C328 1.257 . S
H304 C329 0.930 . S
H305 C335 0.930 1_545 S
O306 Co295 2.094 1_565 S
O306 C298 1.228 1_565 S
H307 C339 0.929 . S
H308 C341 0.930 . S
H309 C342 0.930 . S
H310 C340 0.929 . S
H311 C343 0.928 . S
O312 Co296 2.057 . S
O312 C300 1.232 . S
H313 C332 0.929 . S
H314 C333 0.929 . S
H315 C345 0.931 . S
H316 C337 0.929 . S
H317 C346 0.930 . S
H318 C338 0.931 . S
O319 Co295 2.083 . S
O319 C347 1.214 . S
H320 C348 0.929 . S
H321 C349 0.929 . S
H322 C350 0.930 . S
H323 C351 0.929 . S
H324 C353 0.930 . S
H325 C330 0.930 . S
H326 C334 0.930 . S
O327 Co296 2.037 . S
O327 C347 1.234 . S
C328 O302 1.269 . S
C328 O303 1.257 . S
C329 H304 0.930 . S
C329 C332 1.388 . S
C329 C334 1.418 . S
C330 H325 0.930 . S
C330 C333 1.404 . S
C330 C334 1.353 . S
N331 Co296 2.145 . S
N331 C332 1.397 . S
N331 C333 1.334 . S
C332 H313 0.929 . S
C332 C329 1.388 . S
C332 N331 1.397 . S
C333 H314 0.929 . S
C333 C330 1.404 . S
C333 N331 1.334 . S
C334 H326 0.930 . S
C334 C329 1.418 . S
C334 C330 1.353 . S
C335 H305 0.930 1_565 S
C335 N336 1.330 . S
C335 C337 1.446 . S
N336 Co295 2.162 1_565 S
N336 C335 1.330 . S
N336 C340 1.418 . S
C337 H316 0.929 . S
C337 C335 1.446 . S
C337 C338 1.332 . S
C338 H318 0.931 . S
C338 C337 1.332 . S
C338 C339 1.267 . S
C339 H307 0.929 . S
C339 C338 1.267 . S
C339 C340 1.251 . S
C340 H310 0.929 . S
C340 N336 1.418 . S
C340 C339 1.251 . S
C341 H308 0.930 . S
C341 C343 1.406 . S
C341 C346 1.261 . S
C342 H309 0.930 . S
C342 N344 1.325 . S
C342 C345 1.357 . S
C343 H311 0.928 . S
C343 C341 1.406 . S
C343 N344 1.261 . S
N344 Co295 2.173 1_565 S
N344 C342 1.325 . S
N344 C343 1.261 . S
C345 H315 0.931 . S
C345 C342 1.357 . S
C345 C346 1.312 . S
C346 H317 0.930 . S
C346 C341 1.261 . S
C346 C345 1.312 . S
C347 O319 1.214 . S
C347 O327 1.234 . S
C348 H320 0.929 . S
C348 C351 1.391 . S
C348 C353 1.391 . S
C349 H321 0.929 . S
C349 C350 1.390 . S
C349 N352 1.391 . S
C350 H322 0.930 . S
C350 C349 1.390 . S
C350 C351 1.392 . S
C351 H323 0.929 . S
C351 C348 1.391 . S
C351 C350 1.392 . S
N352 Co296 2.257 . S
N352 C349 1.391 . S
N352 C353 1.388 . S
C353 H324 0.930 . S
C353 C348 1.391 . S
C353 N352 1.388 . S
Co354 O356 2.143 . S
Co354 O362 2.074 . S
Co354 O365 2.093 . S
Co354 O378 2.097 . S
Co354 N395 2.151 . S
Co354 N403 2.214 . S
Co355 O356 2.160 . S
Co355 O361 2.058 . S
Co355 O371 2.057 . S
Co355 O386 2.037 . S
Co355 N390 2.145 . S
Co355 N411 2.257 . S
O356 Co354 2.143 . S
O356 Co355 2.160 . S
C357 O358 1.278 . S
C357 O365 1.224 . S
O358 C357 1.278 . S
C359 O360 1.245 . S
C359 O371 1.232 . S
O360 C359 1.245 . S
O361 Co355 2.058 . S
O361 C387 1.269 . S
O362 Co354 2.074 . S
O362 C387 1.257 . S
H363 C388 0.930 . S
H364 C394 0.930 . S
O365 Co354 2.093 . S
O365 C357 1.224 . S
H366 C398 0.929 . S
H367 C400 0.930 . S
H368 C401 0.930 . S
H369 C399 0.929 . S
H370 C402 0.928 . S
O371 Co355 2.057 . S
O371 C359 1.232 . S
H372 C391 0.929 . S
H373 C392 0.929 . S
H374 C404 0.931 . S
H375 C396 0.929 . S
H376 C405 0.930 . S
H377 C397 0.931 . S
O378 Co354 2.097 . S
O378 C406 1.214 . S
H379 C407 0.929 . S
H380 C408 0.929 . S
H381 C409 0.930 . S
H382 C410 0.929 . S
H383 C412 0.930 . S
H384 C389 0.930 . S
H385 C393 0.930 . S
O386 Co355 2.037 . S
O386 C406 1.234 . S
C387 O361 1.269 . S
C387 O362 1.257 . S
C388 H363 0.930 . S
C388 C391 1.388 . S
C388 C393 1.418 . S
C389 H384 0.930 . S
C389 C392 1.404 . S
C389 C393 1.353 . S
N390 Co355 2.145 . S
N390 C391 1.397 . S
N390 C392 1.334 . S
C391 H372 0.929 . S
C391 C388 1.388 . S
C391 N390 1.397 . S
C392 H373 0.929 . S
C392 C389 1.404 . S
C392 N390 1.334 . S
C393 H385 0.930 . S
C393 C388 1.418 . S
C393 C389 1.353 . S
C394 H364 0.930 . S
C394 N395 1.330 . S
C394 C396 1.446 . S
N395 Co354 2.151 . S
N395 C394 1.330 . S
N395 C399 1.418 . S
C396 H375 0.929 . S
C396 C394 1.446 . S
C396 C397 1.332 . S
C397 H377 0.931 . S
C397 C396 1.332 . S
C397 C398 1.267 . S
C398 H366 0.929 . S
C398 C397 1.267 . S
C398 C399 1.251 . S
C399 H369 0.929 . S
C399 N395 1.418 . S
C399 C398 1.251 . S
C400 H367 0.930 . S
C400 C402 1.406 . S
C400 C405 1.261 . S
C401 H368 0.930 . S
C401 N403 1.325 . S
C401 C404 1.357 . S
C402 H370 0.928 . S
C402 C400 1.406 . S
C402 N403 1.261 . S
N403 Co354 2.214 . S
N403 C401 1.325 . S
N403 C402 1.261 . S
C404 H374 0.931 . S
C404 C401 1.357 . S
C404 C405 1.312 . S
C405 H376 0.930 . S
C405 C400 1.261 . S
C405 C404 1.312 . S
C406 O378 1.214 . S
C406 O386 1.234 . S
C407 H379 0.929 . S
C407 C410 1.391 . S
C407 C412 1.391 . S
C408 H380 0.929 . S
C408 C409 1.390 . S
C408 N411 1.391 . S
C409 H381 0.930 . S
C409 C408 1.390 . S
C409 C410 1.392 . S
C410 H382 0.929 . S
C410 C407 1.391 . S
C410 C409 1.392 . S
N411 Co355 2.257 . S
N411 C408 1.391 . S
N411 C412 1.388 . S
C412 H383 0.930 . S
C412 C407 1.391 . S
C412 N411 1.388 . S
Co413 O415 2.182 . S
Co413 O421 2.073 . S
Co413 O424 2.094 1_655 S
Co413 O437 2.083 . S
Co413 N454 2.162 1_655 S
Co413 N462 2.174 1_655 S
Co414 O415 2.160 . S
Co414 O420 2.058 1_556 S
Co414 O430 2.057 . S
Co414 O445 2.037 . S
Co414 N449 2.145 1_556 S
Co414 N470 2.257 . S
O415 Co413 2.182 . S
O415 Co414 2.160 . S
C416 O417 1.278 . S
C416 O424 1.228 1_655 S
O417 C416 1.278 . S
C418 O419 1.245 . S
C418 O430 1.232 . S
O419 C418 1.245 . S
O420 Co414 2.058 1_554 S
O420 C446 1.269 . S
O421 Co413 2.073 . S
O421 C446 1.257 1_556 S
H422 C447 0.930 . S
H423 C453 0.930 1_655 S
O424 Co413 2.094 1_455 S
O424 C416 1.228 1_455 S
H425 C457 0.929 . S
H426 C459 0.930 . S
H427 C460 0.930 . S
H428 C458 0.929 . S
H429 C461 0.928 . S
O430 Co414 2.057 . S
O430 C418 1.232 . S
H431 C450 0.929 . S
H432 C451 0.929 . S
H433 C463 0.931 . S
H434 C455 0.929 . S
H435 C464 0.930 . S
H436 C456 0.931 . S
O437 Co413 2.083 . S
O437 C465 1.214 . S
H438 C466 0.929 . S
H439 C467 0.929 . S
H440 C468 0.930 . S
H441 C469 0.929 . S
H442 C471 0.930 . S
H443 C448 0.930 . S
H444 C452 0.930 . S
O445 Co414 2.037 . S
O445 C465 1.234 . S
C446 O420 1.269 . S
C446 O421 1.257 1_554 S
C447 H422 0.930 . S
C447 C450 1.388 . S
C447 C452 1.418 . S
C448 H443 0.930 . S
C448 C451 1.404 . S
C448 C452 1.353 . S
N449 Co414 2.145 1_554 S
N449 C450 1.397 . S
N449 C451 1.334 . S
C450 H431 0.929 . S
C450 C447 1.388 . S
C450 N449 1.397 . S
C451 H432 0.929 . S
C451 C448 1.404 . S
C451 N449 1.334 . S
C452 H444 0.930 . S
C452 C447 1.418 . S
C452 C448 1.353 . S
C453 H423 0.930 1_455 S
C453 N454 1.330 . S
C453 C455 1.446 . S
N454 Co413 2.162 1_455 S
N454 C453 1.330 . S
N454 C458 1.418 . S
C455 H434 0.929 . S
C455 C453 1.446 . S
C455 C456 1.332 . S
C456 H436 0.931 . S
C456 C455 1.332 . S
C456 C457 1.267 . S
C457 H425 0.929 . S
C457 C456 1.267 . S
C457 C458 1.251 . S
C458 H428 0.929 . S
C458 N454 1.418 . S
C458 C457 1.251 . S
C459 H426 0.930 . S
C459 C461 1.406 . S
C459 C464 1.261 . S
C460 H427 0.930 . S
C460 N462 1.325 . S
C460 C463 1.357 . S
C461 H429 0.928 . S
C461 C459 1.406 . S
C461 N462 1.261 . S
N462 Co413 2.174 1_455 S
N462 C460 1.325 . S
N462 C461 1.261 . S
C463 H433 0.931 . S
C463 C460 1.357 . S
C463 C464 1.312 . S
C464 H435 0.930 . S
C464 C459 1.261 . S
C464 C463 1.312 . S
C465 O437 1.214 . S
C465 O445 1.234 . S
C466 H438 0.929 . S
C466 C469 1.391 . S
C466 C471 1.391 . S
C467 H439 0.929 . S
C467 C468 1.390 . S
C467 N470 1.391 . S
C468 H440 0.930 . S
C468 C467 1.390 . S
C468 C469 1.392 . S
C469 H441 0.929 . S
C469 C466 1.391 . S
C469 C468 1.392 . S
N470 Co414 2.257 . S
N470 C467 1.391 . S
N470 C471 1.388 . S
C471 H442 0.930 . S
C471 C466 1.391 . S
C471 N470 1.388 . S
Co472 O474 2.175 . S
Co472 O480 2.076 . S
Co472 O483 2.091 1_565 S
Co472 O496 2.124 . S
Co472 N513 2.121 1_565 S
Co472 N521 2.183 1_565 S
Co473 O474 2.160 . S
Co473 O479 2.058 . S
Co473 O489 2.057 . S
Co473 O504 2.037 . S
Co473 N508 2.145 . S
Co473 N529 2.257 . S
O474 Co472 2.175 . S
O474 Co473 2.160 . S
C475 O476 1.278 . S
C475 O483 1.227 1_565 S
O476 C475 1.278 . S
C477 O478 1.245 . S
C477 O489 1.232 . S
O478 C477 1.245 . S
O479 Co473 2.058 . S
O479 C505 1.269 . S
O480 Co472 2.076 . S
O480 C505 1.257 . S
H481 C506 0.930 . S
H482 C512 0.930 1_565 S
O483 Co472 2.091 1_545 S
O483 C475 1.227 1_545 S
H484 C516 0.929 . S
H485 C518 0.930 . S
H486 C519 0.930 . S
H487 C517 0.929 . S
H488 C520 0.928 . S
O489 Co473 2.057 . S
O489 C477 1.232 . S
H490 C509 0.929 . S
H491 C510 0.929 . S
H492 C522 0.931 . S
H493 C514 0.929 . S
H494 C523 0.930 . S
H495 C515 0.931 . S
O496 Co472 2.124 . S
O496 C524 1.214 . S
H497 C525 0.929 . S
H498 C526 0.929 . S
H499 C527 0.930 . S
H500 C528 0.929 . S
H501 C530 0.930 . S
H502 C507 0.930 . S
H503 C511 0.930 . S
O504 Co473 2.037 . S
O504 C524 1.234 . S
C505 O479 1.269 . S
C505 O480 1.257 . S
C506 H481 0.930 . S
C506 C509 1.388 . S
C506 C511 1.418 . S
C507 H502 0.930 . S
C507 C510 1.404 . S
C507 C511 1.353 . S
N508 Co473 2.145 . S
N508 C509 1.397 . S
N508 C510 1.334 . S
C509 H490 0.929 . S
C509 C506 1.388 . S
C509 N508 1.397 . S
C510 H491 0.929 . S
C510 C507 1.404 . S
C510 N508 1.334 . S
C511 H503 0.930 . S
C511 C506 1.418 . S
C511 C507 1.353 . S
C512 H482 0.930 1_545 S
C512 N513 1.330 . S
C512 C514 1.446 . S
N513 Co472 2.121 1_545 S
N513 C512 1.330 . S
N513 C517 1.418 . S
C514 H493 0.929 . S
C514 C512 1.446 . S
C514 C515 1.332 . S
C515 H495 0.931 . S
C515 C514 1.332 . S
C515 C516 1.267 . S
C516 H484 0.929 . S
C516 C515 1.267 . S
C516 C517 1.251 . S
C517 H487 0.929 . S
C517 N513 1.418 . S
C517 C516 1.251 . S
C518 H485 0.930 . S
C518 C520 1.406 . S
C518 C523 1.261 . S
C519 H486 0.930 . S
C519 N521 1.325 . S
C519 C522 1.357 . S
C520 H488 0.928 . S
C520 C518 1.406 . S
C520 N521 1.261 . S
N521 Co472 2.183 1_545 S
N521 C519 1.325 . S
N521 C520 1.261 . S
C522 H492 0.931 . S
C522 C519 1.357 . S
C522 C523 1.312 . S
C523 H494 0.930 . S
C523 C518 1.261 . S
C523 C522 1.312 . S
C524 O496 1.214 . S
C524 O504 1.234 . S
C525 H497 0.929 . S
C525 C528 1.391 . S
C525 C530 1.391 . S
C526 H498 0.929 . S
C526 C527 1.390 . S
C526 N529 1.391 . S
C527 H499 0.930 . S
C527 C526 1.390 . S
C527 C528 1.392 . S
C528 H500 0.929 . S
C528 C525 1.391 . S
C528 C527 1.392 . S
N529 Co473 2.257 . S
N529 C526 1.391 . S
N529 C530 1.388 . S
C530 H501 0.930 . S
C530 C525 1.391 . S
C530 N529 1.388 . S
Co531 O533 2.143 . S
Co531 O539 2.074 . S
Co531 O542 2.093 . S
Co531 O555 2.097 . S
Co531 N572 2.151 . S
Co531 N580 2.214 . S
Co532 O533 2.160 . S
Co532 O538 2.058 . S
Co532 O548 2.057 . S
Co532 O563 2.037 . S
Co532 N567 2.145 . S
Co532 N588 2.257 . S
O533 Co531 2.143 . S
O533 Co532 2.160 . S
C534 O535 1.278 . S
C534 O542 1.224 . S
O535 C534 1.278 . S
C536 O537 1.245 . S
C536 O548 1.232 . S
O537 C536 1.245 . S
O538 Co532 2.058 . S
O538 C564 1.269 . S
O539 Co531 2.074 . S
O539 C564 1.257 . S
H540 C565 0.930 . S
H541 C571 0.930 . S
O542 Co531 2.093 . S
O542 C534 1.224 . S
H543 C575 0.929 . S
H544 C577 0.930 . S
H545 C578 0.930 . S
H546 C576 0.929 . S
H547 C579 0.928 . S
O548 Co532 2.057 . S
O548 C536 1.232 . S
H549 C568 0.929 . S
H550 C569 0.929 . S
H551 C581 0.931 . S
H552 C573 0.929 . S
H553 C582 0.930 . S
H554 C574 0.931 . S
O555 Co531 2.097 . S
O555 C583 1.214 . S
H556 C584 0.929 . S
H557 C585 0.929 . S
H558 C586 0.930 . S
H559 C587 0.929 . S
H560 C589 0.930 . S
H561 C566 0.930 . S
H562 C570 0.930 . S
O563 Co532 2.037 . S
O563 C583 1.234 . S
C564 O538 1.269 . S
C564 O539 1.257 . S
C565 H540 0.930 . S
C565 C568 1.388 . S
C565 C570 1.418 . S
C566 H561 0.930 . S
C566 C569 1.404 . S
C566 C570 1.353 . S
N567 Co532 2.145 . S
N567 C568 1.397 . S
N567 C569 1.334 . S
C568 H549 0.929 . S
C568 C565 1.388 . S
C568 N567 1.397 . S
C569 H550 0.929 . S
C569 C566 1.404 . S
C569 N567 1.334 . S
C570 H562 0.930 . S
C570 C565 1.418 . S
C570 C566 1.353 . S
C571 H541 0.930 . S
C571 N572 1.330 . S
C571 C573 1.446 . S
N572 Co531 2.151 . S
N572 C571 1.330 . S
N572 C576 1.418 . S
C573 H552 0.929 . S
C573 C571 1.446 . S
C573 C574 1.332 . S
C574 H554 0.931 . S
C574 C573 1.332 . S
C574 C575 1.267 . S
C575 H543 0.929 . S
C575 C574 1.267 . S
C575 C576 1.251 . S
C576 H546 0.929 . S
C576 N572 1.418 . S
C576 C575 1.251 . S
C577 H544 0.930 . S
C577 C579 1.406 . S
C577 C582 1.261 . S
C578 H545 0.930 . S
C578 N580 1.325 . S
C578 C581 1.357 . S
C579 H547 0.928 . S
C579 C577 1.406 . S
C579 N580 1.261 . S
N580 Co531 2.214 . S
N580 C578 1.325 . S
N580 C579 1.261 . S
C581 H551 0.931 . S
C581 C578 1.357 . S
C581 C582 1.312 . S
C582 H553 0.930 . S
C582 C577 1.261 . S
C582 C581 1.312 . S
C583 O555 1.214 . S
C583 O563 1.234 . S
C584 H556 0.929 . S
C584 C587 1.391 . S
C584 C589 1.391 . S
C585 H557 0.929 . S
C585 C586 1.390 . S
C585 N588 1.391 . S
C586 H558 0.930 . S
C586 C585 1.390 . S
C586 C587 1.392 . S
C587 H559 0.929 . S
C587 C584 1.391 . S
C587 C586 1.392 . S
N588 Co532 2.257 . S
N588 C585 1.391 . S
N588 C589 1.388 . S
C589 H560 0.930 . S
C589 C584 1.391 . S
C589 N588 1.388 . S
Co590 O592 2.182 . S
Co590 O598 2.073 . S
Co590 O601 2.094 1_455 S
Co590 O614 2.083 . S
Co590 N631 2.162 1_455 S
Co590 N639 2.174 1_455 S
Co591 O592 2.160 . S
Co591 O597 2.058 1_556 S
Co591 O607 2.057 . S
Co591 O622 2.037 . S
Co591 N626 2.145 1_556 S
Co591 N647 2.257 . S
O592 Co590 2.182 . S
O592 Co591 2.160 . S
C593 O594 1.278 . S
C593 O601 1.228 1_455 S
O594 C593 1.278 . S
C595 O596 1.245 . S
C595 O607 1.232 . S
O596 C595 1.245 . S
O597 Co591 2.058 1_554 S
O597 C623 1.269 . S
O598 Co590 2.073 . S
O598 C623 1.257 1_556 S
H599 C624 0.930 . S
H600 C630 0.930 1_455 S
O601 Co590 2.094 1_655 S
O601 C593 1.228 1_655 S
H602 C634 0.929 . S
H603 C636 0.930 . S
H604 C637 0.930 . S
H605 C635 0.929 . S
H606 C638 0.928 . S
O607 Co591 2.057 . S
O607 C595 1.232 . S
H608 C627 0.929 . S
H609 C628 0.929 . S
H610 C640 0.931 . S
H611 C632 0.929 . S
H612 C641 0.930 . S
H613 C633 0.931 . S
O614 Co590 2.083 . S
O614 C642 1.214 . S
H615 C643 0.929 . S
H616 C644 0.929 . S
H617 C645 0.930 . S
H618 C646 0.929 . S
H619 C648 0.930 . S
H620 C625 0.930 . S
H621 C629 0.930 . S
O622 Co591 2.037 . S
O622 C642 1.234 . S
C623 O597 1.269 . S
C623 O598 1.257 1_554 S
C624 H599 0.930 . S
C624 C627 1.388 . S
C624 C629 1.418 . S
C625 H620 0.930 . S
C625 C628 1.404 . S
C625 C629 1.353 . S
N626 Co591 2.145 1_554 S
N626 C627 1.397 . S
N626 C628 1.334 . S
C627 H608 0.929 . S
C627 C624 1.388 . S
C627 N626 1.397 . S
C628 H609 0.929 . S
C628 C625 1.404 . S
C628 N626 1.334 . S
C629 H621 0.930 . S
C629 C624 1.418 . S
C629 C625 1.353 . S
C630 H600 0.930 1_655 S
C630 N631 1.330 . S
C630 C632 1.446 . S
N631 Co590 2.162 1_655 S
N631 C630 1.330 . S
N631 C635 1.418 . S
C632 H611 0.929 . S
C632 C630 1.446 . S
C632 C633 1.332 . S
C633 H613 0.931 . S
C633 C632 1.332 . S
C633 C634 1.267 . S
C634 H602 0.929 . S
C634 C633 1.267 . S
C634 C635 1.251 . S
C635 H605 0.929 . S
C635 N631 1.418 . S
C635 C634 1.251 . S
C636 H603 0.930 . S
C636 C638 1.406 . S
C636 C641 1.261 . S
C637 H604 0.930 . S
C637 N639 1.325 . S
C637 C640 1.357 . S
C638 H606 0.928 . S
C638 C636 1.406 . S
C638 N639 1.261 . S
N639 Co590 2.174 1_655 S
N639 C637 1.325 . S
N639 C638 1.261 . S
C640 H610 0.931 . S
C640 C637 1.357 . S
C640 C641 1.312 . S
C641 H612 0.930 . S
C641 C636 1.261 . S
C641 C640 1.312 . S
C642 O614 1.214 . S
C642 O622 1.234 . S
C643 H615 0.929 . S
C643 C646 1.391 . S
C643 C648 1.391 . S
C644 H616 0.929 . S
C644 C645 1.390 . S
C644 N647 1.391 . S
C645 H617 0.930 . S
C645 C644 1.390 . S
C645 C646 1.392 . S
C646 H618 0.929 . S
C646 C643 1.391 . S
C646 C645 1.392 . S
N647 Co591 2.257 . S
N647 C644 1.391 . S
N647 C648 1.388 . S
C648 H619 0.930 . S
C648 C643 1.391 . S
C648 N647 1.388 . S
Co649 O651 2.175 . S
Co649 O657 2.076 . S
Co649 O660 2.091 1_545 S
Co649 O673 2.124 . S
Co649 N690 2.121 1_545 S
Co649 N698 2.183 1_545 S
Co650 O651 2.160 . S
Co650 O656 2.058 . S
Co650 O666 2.057 . S
Co650 O681 2.037 . S
Co650 N685 2.145 . S
Co650 N706 2.257 . S
O651 Co649 2.175 . S
O651 Co650 2.160 . S
C652 O653 1.278 . S
C652 O660 1.227 1_545 S
O653 C652 1.278 . S
C654 O655 1.245 . S
C654 O666 1.232 . S
O655 C654 1.245 . S
O656 Co650 2.058 . S
O656 C682 1.269 . S
O657 Co649 2.076 . S
O657 C682 1.257 . S
H658 C683 0.930 . S
H659 C689 0.930 1_545 S
O660 Co649 2.091 1_565 S
O660 C652 1.227 1_565 S
H661 C693 0.929 . S
H662 C695 0.930 . S
H663 C696 0.930 . S
H664 C694 0.929 . S
H665 C697 0.928 . S
O666 Co650 2.057 . S
O666 C654 1.232 . S
H667 C686 0.929 . S
H668 C687 0.929 . S
H669 C699 0.931 . S
H670 C691 0.929 . S
H671 C700 0.930 . S
H672 C692 0.931 . S
O673 Co649 2.124 . S
O673 C701 1.214 . S
H674 C702 0.929 . S
H675 C703 0.929 . S
H676 C704 0.930 . S
H677 C705 0.929 . S
H678 C707 0.930 . S
H679 C684 0.930 . S
H680 C688 0.930 . S
O681 Co650 2.037 . S
O681 C701 1.234 . S
C682 O656 1.269 . S
C682 O657 1.257 . S
C683 H658 0.930 . S
C683 C686 1.388 . S
C683 C688 1.418 . S
C684 H679 0.930 . S
C684 C687 1.404 . S
C684 C688 1.353 . S
N685 Co650 2.145 . S
N685 C686 1.397 . S
N685 C687 1.334 . S
C686 H667 0.929 . S
C686 C683 1.388 . S
C686 N685 1.397 . S
C687 H668 0.929 . S
C687 C684 1.404 . S
C687 N685 1.334 . S
C688 H680 0.930 . S
C688 C683 1.418 . S
C688 C684 1.353 . S
C689 H659 0.930 1_565 S
C689 N690 1.330 . S
C689 C691 1.446 . S
N690 Co649 2.121 1_565 S
N690 C689 1.330 . S
N690 C694 1.418 . S
C691 H670 0.929 . S
C691 C689 1.446 . S
C691 C692 1.332 . S
C692 H672 0.931 . S
C692 C691 1.332 . S
C692 C693 1.267 . S
C693 H661 0.929 . S
C693 C692 1.267 . S
C693 C694 1.251 . S
C694 H664 0.929 . S
C694 N690 1.418 . S
C694 C693 1.251 . S
C695 H662 0.930 . S
C695 C697 1.406 . S
C695 C700 1.261 . S
C696 H663 0.930 . S
C696 N698 1.325 . S
C696 C699 1.357 . S
C697 H665 0.928 . S
C697 C695 1.406 . S
C697 N698 1.261 . S
N698 Co649 2.183 1_565 S
N698 C696 1.325 . S
N698 C697 1.261 . S
C699 H669 0.931 . S
C699 C696 1.357 . S
C699 C700 1.312 . S
C700 H671 0.930 . S
C700 C695 1.261 . S
C700 C699 1.312 . S
C701 O673 1.214 . S
C701 O681 1.234 . S
C702 H674 0.929 . S
C702 C705 1.391 . S
C702 C707 1.391 . S
C703 H675 0.929 . S
C703 C704 1.390 . S
C703 N706 1.391 . S
C704 H676 0.930 . S
C704 C703 1.390 . S
C704 C705 1.392 . S
C705 H677 0.929 . S
C705 C702 1.391 . S
C705 C704 1.392 . S
N706 Co650 2.257 . S
N706 C703 1.391 . S
N706 C707 1.388 . S
C707 H678 0.930 . S
C707 C702 1.391 . S
C707 N706 1.388 . S
H708 C714 0.930 . S
H709 C718 0.930 . S
H710 C723 0.929 . S
H711 C721 0.929 . S
H712 C716 0.929 . S
H713 C722 0.929 . S
C714 H708 0.930 . S
C714 C715 1.367 . S
C714 C722 1.378 . S
C715 C714 1.367 . S
C715 C723 1.433 . S
C716 H712 0.929 . S
C716 C718 1.378 . S
C716 C720 1.350 . S
C717 C720 1.463 . S
C717 C722 1.350 . S
C717 N725 1.427 . S
C718 H709 0.930 . S
C718 C716 1.378 . S
C718 C719 1.367 . S
C719 C718 1.367 . S
C719 C721 1.433 . S
C720 C716 1.350 . S
C720 C717 1.463 . S
C720 N724 1.427 . S
C721 H711 0.929 . S
C721 C719 1.433 . S
C721 N724 1.384 . S
C722 H713 0.929 . S
C722 C714 1.378 . S
C722 C717 1.350 . S
C723 H710 0.929 . S
C723 C715 1.433 . S
C723 N725 1.384 . S
N724 C720 1.427 . S
N724 C721 1.384 . S
N725 C717 1.427 . S
N725 C723 1.384 . S
H726 C732 0.930 . S
H727 C736 0.930 . S
H728 C741 0.930 1_455 S
H729 C739 0.930 1_655 S
H730 C734 0.929 . S
H731 C740 0.929 . S
C732 H726 0.930 . S
C732 C733 1.367 . S
C732 C740 1.378 . S
C733 C732 1.367 . S
C733 C741 1.433 . S
C734 H730 0.929 . S
C734 C736 1.378 . S
C734 C738 1.350 . S
C735 C738 1.463 1_655 S
C735 C740 1.350 . S
C735 N743 1.427 1_655 S
C736 H727 0.930 . S
C736 C734 1.378 . S
C736 C737 1.367 . S
C737 C736 1.367 . S
C737 C739 1.433 . S
C738 C734 1.350 . S
C738 C735 1.463 1_455 S
C738 N742 1.427 1_455 S
C739 H729 0.930 1_455 S
C739 C737 1.433 . S
C739 N742 1.384 1_455 S
C740 H731 0.929 . S
C740 C732 1.378 . S
C740 C735 1.350 . S
C741 H728 0.930 1_655 S
C741 C733 1.433 . S
C741 N743 1.384 1_655 S
N742 C738 1.427 1_655 S
N742 C739 1.384 1_655 S
N743 C735 1.427 1_455 S
N743 C741 1.384 1_455 S
H744 C750 0.930 . S
H745 C754 0.930 . S
H746 C759 0.929 . S
H747 C757 0.929 . S
H748 C752 0.929 . S
H749 C758 0.929 . S
C750 H744 0.930 . S
C750 C751 1.367 . S
C750 C758 1.378 . S
C751 C750 1.367 . S
C751 C759 1.433 1_565 S
C752 H748 0.929 . S
C752 C754 1.378 . S
C752 C756 1.350 . S
C753 C756 1.463 1_566 S
C753 C758 1.350 . S
C753 N761 1.427 1_565 S
C754 H745 0.930 . S
C754 C752 1.378 . S
C754 C755 1.367 . S
C755 C754 1.367 . S
C755 C757 1.433 1_545 S
C756 C752 1.350 . S
C756 C753 1.463 1_544 S
C756 N760 1.427 1_545 S
C757 H747 0.929 . S
C757 C755 1.433 1_565 S
C757 N760 1.384 . S
C758 H749 0.929 . S
C758 C750 1.378 . S
C758 C753 1.350 . S
C759 H746 0.929 . S
C759 C751 1.433 1_545 S
C759 N761 1.384 . S
N760 C756 1.427 1_565 S
N760 C757 1.384 . S
N761 C753 1.427 1_545 S
N761 C759 1.384 . S
H762 C768 0.930 . S
H763 C772 0.930 . S
H764 C777 0.929 . S
H765 C775 0.929 . S
H766 C770 0.929 . S
H767 C776 0.929 . S
C768 H762 0.930 . S
C768 C769 1.367 . S
C768 C776 1.378 . S
C769 C768 1.367 . S
C769 C777 1.433 . S
C770 H766 0.929 . S
C770 C772 1.378 . S
C770 C774 1.350 . S
C771 C774 1.463 . S
C771 C776 1.350 . S
C771 N779 1.427 . S
C772 H763 0.930 . S
C772 C770 1.378 . S
C772 C773 1.367 . S
C773 C772 1.367 . S
C773 C775 1.433 . S
C774 C770 1.350 . S
C774 C771 1.463 . S
C774 N778 1.427 . S
C775 H765 0.929 . S
C775 C773 1.433 . S
C775 N778 1.384 . S
C776 H767 0.929 . S
C776 C768 1.378 . S
C776 C771 1.350 . S
C777 H764 0.929 . S
C777 C769 1.433 . S
C777 N779 1.384 . S
N778 C774 1.427 . S
N778 C775 1.384 . S
N779 C771 1.427 . S
N779 C777 1.384 . S
H780 C786 0.930 . S
H781 C790 0.930 . S
H782 C795 0.929 . S
H783 C793 0.929 . S
H784 C788 0.929 . S
H785 C794 0.929 . S
C786 H780 0.930 . S
C786 C787 1.367 1_455 S
C786 C794 1.378 . S
C787 C786 1.367 1_655 S
C787 C795 1.433 . S
C788 H784 0.929 . S
C788 C790 1.378 . S
C788 C792 1.350 1_655 S
C789 C792 1.463 1_655 S
C789 C794 1.350 1_655 S
C789 N797 1.427 . S
C790 H781 0.930 . S
C790 C788 1.378 . S
C790 C791 1.367 1_655 S
C791 C790 1.367 1_455 S
C791 C793 1.433 . S
C792 C788 1.350 1_455 S
C792 C789 1.463 1_455 S
C792 N796 1.427 . S
C793 H783 0.929 . S
C793 C791 1.433 . S
C793 N796 1.384 . S
C794 H785 0.929 . S
C794 C786 1.378 . S
C794 C789 1.350 1_455 S
C795 H782 0.929 . S
C795 C787 1.433 . S
C795 N797 1.384 . S
N796 C792 1.427 . S
N796 C793 1.384 . S
N797 C789 1.427 . S
N797 C795 1.384 . S
H798 C804 0.930 . S
H799 C808 0.930 . S
H800 C813 0.929 . S
H801 C811 0.929 . S
H802 C806 0.929 . S
H803 C812 0.929 . S
C804 H798 0.930 . S
C804 C805 1.367 . S
C804 C812 1.378 . S
C805 C804 1.367 . S
C805 C813 1.433 1_565 S
C806 H802 0.929 . S
C806 C808 1.378 . S
C806 C810 1.350 . S
C807 C810 1.463 1_564 S
C807 C812 1.350 . S
C807 N815 1.427 1_565 S
C808 H799 0.930 . S
C808 C806 1.378 . S
C808 C809 1.367 . S
C809 C808 1.367 . S
C809 C811 1.433 1_545 S
C810 C806 1.350 . S
C810 C807 1.463 1_546 S
C810 N814 1.427 1_545 S
C811 H801 0.929 . S
C811 C809 1.433 1_565 S
C811 N814 1.384 . S
C812 H803 0.929 . S
C812 C804 1.378 . S
C812 C807 1.350 . S
C813 H800 0.929 . S
C813 C805 1.433 1_545 S
C813 N815 1.384 . S
N814 C810 1.427 1_565 S
N814 C811 1.384 . S
N815 C807 1.427 1_545 S
N815 C813 1.384 . S
H816 C822 0.930 . S
H817 C826 0.930 . S
H818 C831 0.929 . S
H819 C829 0.929 . S
H820 C824 0.929 . S
H821 C830 0.929 . S
C822 H816 0.930 . S
C822 C823 1.367 . S
C822 C830 1.378 1_556 S
C823 C822 1.367 . S
C823 C831 1.433 . S
C824 H820 0.929 . S
C824 C826 1.378 1_556 S
C824 C828 1.350 1_556 S
C825 C828 1.463 1_556 S
C825 C830 1.350 1_556 S
C825 N833 1.427 . S
C826 H817 0.930 . S
C826 C824 1.378 1_554 S
C826 C827 1.367 . S
C827 C826 1.367 . S
C827 C829 1.433 . S
C828 C824 1.350 1_554 S
C828 C825 1.463 1_554 S
C828 N832 1.427 . S
C829 H819 0.929 . S
C829 C827 1.433 . S
C829 N832 1.384 . S
C830 H821 0.929 . S
C830 C822 1.378 1_554 S
C830 C825 1.350 1_554 S
C831 H818 0.929 . S
C831 C823 1.433 . S
C831 N833 1.384 . S
N832 C828 1.427 . S
N832 C829 1.384 . S
N833 C825 1.427 . S
N833 C831 1.384 . S
H834 C840 0.930 . S
H835 C844 0.930 . S
H836 C849 0.929 . S
H837 C847 0.929 . S
H838 C842 0.929 . S
H839 C848 0.929 . S
C840 H834 0.930 . S
C840 C841 1.367 . S
C840 C848 1.378 . S
C841 C840 1.367 . S
C841 C849 1.433 . S
C842 H838 0.929 . S
C842 C844 1.378 . S
C842 C846 1.350 . S
C843 C846 1.463 . S
C843 C848 1.350 . S
C843 N851 1.427 . S
C844 H835 0.930 . S
C844 C842 1.378 . S
C844 C845 1.367 . S
C845 C844 1.367 . S
C845 C847 1.433 . S
C846 C842 1.350 . S
C846 C843 1.463 . S
C846 N850 1.427 . S
C847 H837 0.929 . S
C847 C845 1.433 . S
C847 N850 1.384 . S
C848 H839 0.929 . S
C848 C840 1.378 . S
C848 C843 1.350 . S
C849 H836 0.929 . S
C849 C841 1.433 . S
C849 N851 1.384 . S
N850 C846 1.427 . S
N850 C847 1.384 . S
N851 C843 1.427 . S
N851 C849 1.384 . S
H852 C858 0.930 . S
H853 C862 0.930 . S
H854 C867 0.929 . S
H855 C865 0.929 . S
H856 C860 0.929 . S
H857 C866 0.929 . S
C858 H852 0.930 . S
C858 C859 1.367 . S
C858 C866 1.378 . S
C859 C858 1.367 . S
C859 C867 1.433 . S
C860 H856 0.929 . S
C860 C862 1.378 . S
C860 C864 1.350 . S
C861 C864 1.463 . S
C861 C866 1.350 . S
C861 N869 1.427 . S
C862 H853 0.930 . S
C862 C860 1.378 . S
C862 C863 1.367 . S
C863 C862 1.367 . S
C863 C865 1.433 . S
C864 C860 1.350 . S
C864 C861 1.463 . S
C864 N868 1.427 . S
C865 H855 0.929 . S
C865 C863 1.433 . S
C865 N868 1.384 . S
C866 H857 0.929 . S
C866 C858 1.378 . S
C866 C861 1.350 . S
C867 H854 0.929 . S
C867 C859 1.433 . S
C867 N869 1.384 . S
N868 C864 1.427 . S
N868 C865 1.384 . S
N869 C861 1.427 . S
N869 C867 1.384 . S
H870 C876 0.930 . S
H871 C880 0.930 . S
H872 C885 0.929 . S
H873 C883 0.929 . S
H874 C878 0.929 . S
H875 C884 0.929 . S
C876 H870 0.930 . S
C876 C877 1.367 . S
C876 C884 1.378 . S
C877 C876 1.367 . S
C877 C885 1.433 1_554 S
C878 H874 0.929 . S
C878 C880 1.378 . S
C878 C882 1.350 . S
C879 C882 1.463 1_554 S
C879 C884 1.350 . S
C879 N887 1.427 1_554 S
C880 H871 0.930 . S
C880 C878 1.378 . S
C880 C881 1.367 . S
C881 C880 1.367 . S
C881 C883 1.433 1_556 S
C882 C878 1.350 . S
C882 C879 1.463 1_556 S
C882 N886 1.427 1_556 S
C883 H873 0.929 . S
C883 C881 1.433 1_554 S
C883 N886 1.384 . S
C884 H875 0.929 . S
C884 C876 1.378 . S
C884 C879 1.350 . S
C885 H872 0.929 . S
C885 C877 1.433 1_556 S
C885 N887 1.384 . S
N886 C882 1.427 1_554 S
N886 C883 1.384 . S
N887 C879 1.427 1_556 S
N887 C885 1.384 . S
H888 C894 0.930 . S
H889 C898 0.930 . S
H890 C903 0.929 . S
H891 C901 0.929 . S
H892 C896 0.929 . S
H893 C902 0.929 . S
C894 H888 0.930 . S
C894 C895 1.367 . S
C894 C902 1.378 . S
C895 C894 1.367 . S
C895 C903 1.433 . S
C896 H892 0.929 . S
C896 C898 1.378 . S
C896 C900 1.350 . S
C897 C900 1.463 . S
C897 C902 1.350 . S
C897 N905 1.427 . S
C898 H889 0.930 . S
C898 C896 1.378 . S
C898 C899 1.367 . S
C899 C898 1.367 . S
C899 C901 1.433 . S
C900 C896 1.350 . S
C900 C897 1.463 . S
C900 N904 1.427 . S
C901 H891 0.929 . S
C901 C899 1.433 . S
C901 N904 1.384 . S
C902 H893 0.929 . S
C902 C894 1.378 . S
C902 C897 1.350 . S
C903 H890 0.929 . S
C903 C895 1.433 . S
C903 N905 1.384 . S
N904 C900 1.427 . S
N904 C901 1.384 . S
N905 C897 1.427 . S
N905 C903 1.384 . S
H906 C912 0.930 . S
H907 C916 0.930 . S
H908 C921 0.929 . S
H909 C919 0.929 . S
H910 C914 0.929 . S
H911 C920 0.929 . S
C912 H906 0.930 . S
C912 C913 1.367 . S
C912 C920 1.378 . S
C913 C912 1.367 . S
C913 C921 1.433 . S
C914 H910 0.929 . S
C914 C916 1.378 . S
C914 C918 1.350 . S
C915 C918 1.463 . S
C915 C920 1.350 . S
C915 N923 1.427 . S
C916 H907 0.930 . S
C916 C914 1.378 . S
C916 C917 1.367 . S
C917 C916 1.367 . S
C917 C919 1.433 . S
C918 C914 1.350 . S
C918 C915 1.463 . S
C918 N922 1.427 . S
C919 H909 0.929 . S
C919 C917 1.433 . S
C919 N922 1.384 . S
C920 H911 0.929 . S
C920 C912 1.378 . S
C920 C915 1.350 . S
C921 H908 0.929 . S
C921 C913 1.433 . S
C921 N923 1.384 . S
N922 C918 1.427 . S
N922 C919 1.384 . S
N923 C915 1.427 . S
N923 C921 1.384 . S
H924 C930 0.930 . S
H925 C934 0.930 . S
H926 C939 0.929 . S
H927 C937 0.929 . S
H928 C932 0.929 . S
H929 C938 0.929 . S
C930 H924 0.930 . S
C930 C931 1.367 . S
C930 C938 1.378 . S
C931 C930 1.367 . S
C931 C939 1.433 . S
C932 H928 0.929 . S
C932 C934 1.378 . S
C932 C936 1.350 . S
C933 C936 1.463 . S
C933 C938 1.350 . S
C933 N941 1.427 . S
C934 H925 0.930 . S
C934 C932 1.378 . S
C934 C935 1.367 . S
C935 C934 1.367 . S
C935 C937 1.433 . S
C936 C932 1.350 . S
C936 C933 1.463 . S
C936 N940 1.427 . S
C937 H927 0.929 . S
C937 C935 1.433 . S
C937 N940 1.384 . S
C938 H929 0.929 . S
C938 C930 1.378 . S
C938 C933 1.350 . S
C939 H926 0.929 . S
C939 C931 1.433 . S
C939 N941 1.384 . S
N940 C936 1.427 . S
N940 C937 1.384 . S
N941 C933 1.427 . S
N941 C939 1.384 . S
H942 C948 0.930 . S
H943 C952 0.930 . S
H944 C957 0.929 . S
H945 C955 0.929 . S
H946 C950 0.929 . S
H947 C956 0.929 . S
C948 H942 0.930 . S
C948 C949 1.367 . S
C948 C956 1.378 . S
C949 C948 1.367 . S
C949 C957 1.433 1_655 S
C950 H946 0.929 . S
C950 C952 1.378 . S
C950 C954 1.350 . S
C951 C954 1.463 1_655 S
C951 C956 1.350 . S
C951 N959 1.427 1_655 S
C952 H943 0.930 . S
C952 C950 1.378 . S
C952 C953 1.367 . S
C953 C952 1.367 . S
C953 C955 1.433 1_455 S
C954 C950 1.350 . S
C954 C951 1.463 1_455 S
C954 N958 1.427 1_455 S
C955 H945 0.929 . S
C955 C953 1.433 1_655 S
C955 N958 1.384 . S
C956 H947 0.929 . S
C956 C948 1.378 . S
C956 C951 1.350 . S
C957 H944 0.929 . S
C957 C949 1.433 1_455 S
C957 N959 1.384 . S
N958 C954 1.427 1_655 S
N958 C955 1.384 . S
N959 C951 1.427 1_455 S
N959 C957 1.384 . S
H960 C966 0.930 . S
H961 C970 0.930 . S
H962 C975 0.929 . S
H963 C973 0.929 . S
H964 C968 0.929 . S
H965 C974 0.929 . S
C966 H960 0.930 . S
C966 C967 1.367 1_545 S
C966 C974 1.378 . S
C967 C966 1.367 1_565 S
C967 C975 1.433 . S
C968 H964 0.929 . S
C968 C970 1.378 . S
C968 C972 1.350 1_565 S
C969 C972 1.463 1_565 S
C969 C974 1.350 1_565 S
C969 N977 1.427 . S
C970 H961 0.930 . S
C970 C968 1.378 . S
C970 C971 1.367 1_565 S
C971 C970 1.367 1_545 S
C971 C973 1.433 . S
C972 C968 1.350 1_545 S
C972 C969 1.463 1_545 S
C972 N976 1.427 . S
C973 H963 0.929 . S
C973 C971 1.433 . S
C973 N976 1.384 . S
C974 H965 0.929 . S
C974 C966 1.378 . S
C974 C969 1.350 1_545 S
C975 H962 0.929 . S
C975 C967 1.433 . S
C975 N977 1.384 . S
N976 C972 1.427 . S
N976 C973 1.384 . S
N977 C969 1.427 . S
N977 C975 1.384 . S
H978 C984 0.930 . S
H979 C988 0.930 . S
H980 C993 0.929 . S
H981 C991 0.929 . S
H982 C986 0.929 . S
H983 C992 0.929 . S
C984 H978 0.930 . S
C984 C985 1.367 . S
C984 C992 1.378 . S
C985 C984 1.367 . S
C985 C993 1.433 . S
C986 H982 0.929 . S
C986 C988 1.378 . S
C986 C990 1.350 . S
C987 C990 1.463 . S
C987 C992 1.350 . S
C987 N995 1.427 . S
C988 H979 0.930 . S
C988 C986 1.378 . S
C988 C989 1.367 . S
C989 C988 1.367 . S
C989 C991 1.433 . S
C990 C986 1.350 . S
C990 C987 1.463 . S
C990 N994 1.427 . S
C991 H981 0.929 . S
C991 C989 1.433 . S
C991 N994 1.384 . S
C992 H983 0.929 . S
C992 C984 1.378 . S
C992 C987 1.350 . S
C993 H980 0.929 . S
C993 C985 1.433 . S
C993 N995 1.384 . S
N994 C990 1.427 . S
N994 C991 1.384 . S
N995 C987 1.427 . S
N995 C993 1.384 . S
H996 C1002 0.930 . S
H997 C1006 0.930 . S
H998 C1011 0.929 . S
H999 C1009 0.929 . S
H1000 C1004 0.929 . S
H1001 C1010 0.929 . S
C1002 H996 0.930 . S
C1002 C1003 1.367 . S
C1002 C1010 1.378 . S
C1003 C1002 1.367 . S
C1003 C1011 1.433 1_455 S
C1004 H1000 0.929 . S
C1004 C1006 1.378 . S
C1004 C1008 1.350 . S
C1005 C1008 1.463 1_455 S
C1005 C1010 1.350 . S
C1005 N1013 1.427 1_455 S
C1006 H997 0.930 . S
C1006 C1004 1.378 . S
C1006 C1007 1.367 . S
C1007 C1006 1.367 . S
C1007 C1009 1.433 1_655 S
C1008 C1004 1.350 . S
C1008 C1005 1.463 1_655 S
C1008 N1012 1.427 1_655 S
C1009 H999 0.929 . S
C1009 C1007 1.433 1_455 S
C1009 N1012 1.384 . S
C1010 H1001 0.929 . S
C1010 C1002 1.378 . S
C1010 C1005 1.350 . S
C1011 H998 0.929 . S
C1011 C1003 1.433 1_655 S
C1011 N1013 1.384 . S
N1012 C1008 1.427 1_455 S
N1012 C1009 1.384 . S
N1013 C1005 1.427 1_655 S
N1013 C1011 1.384 . S
H1014 C1020 0.930 . S
H1015 C1024 0.930 . S
H1016 C1029 0.929 . S
H1017 C1027 0.929 . S
H1018 C1022 0.929 . S
H1019 C1028 0.929 . S
C1020 H1014 0.930 . S
C1020 C1021 1.367 . S
C1020 C1028 1.378 . S
C1021 C1020 1.367 . S
C1021 C1029 1.433 1_565 S
C1022 H1018 0.929 . S
C1022 C1024 1.378 . S
C1022 C1026 1.350 . S
C1023 C1026 1.463 1_565 S
C1023 C1028 1.350 . S
C1023 N1031 1.427 1_565 S
C1024 H1015 0.930 . S
C1024 C1022 1.378 . S
C1024 C1025 1.367 . S
C1025 C1024 1.367 . S
C1025 C1027 1.433 1_545 S
C1026 C1022 1.350 . S
C1026 C1023 1.463 1_545 S
C1026 N1030 1.427 1_545 S
C1027 H1017 0.929 . S
C1027 C1025 1.433 1_565 S
C1027 N1030 1.384 . S
C1028 H1019 0.929 . S
C1028 C1020 1.378 . S
C1028 C1023 1.350 . S
C1029 H1016 0.929 . S
C1029 C1021 1.433 1_545 S
C1029 N1031 1.384 . S
N1030 C1026 1.427 1_565 S
N1030 C1027 1.384 . S
N1031 C1023 1.427 1_545 S
N1031 C1029 1.384 . S
H1032 C1038 0.930 . S
H1033 C1042 0.930 1_556 S
H1034 C1047 0.929 1_556 S
H1035 C1045 0.929 . S
H1036 C1040 0.929 1_556 S
H1037 C1046 0.929 . S
C1038 H1032 0.930 . S
C1038 C1039 1.367 . S
C1038 C1046 1.378 . S
C1039 C1038 1.367 . S
C1039 C1047 1.433 . S
C1040 H1036 0.929 1_554 S
C1040 C1042 1.378 . S
C1040 C1044 1.350 . S
C1041 C1044 1.463 . S
C1041 C1046 1.350 . S
C1041 N1049 1.427 . S
C1042 H1033 0.930 1_554 S
C1042 C1040 1.378 . S
C1042 C1043 1.367 . S
C1043 C1042 1.367 . S
C1043 C1045 1.433 . S
C1044 C1040 1.350 . S
C1044 C1041 1.463 . S
C1044 N1048 1.427 . S
C1045 H1035 0.929 . S
C1045 C1043 1.433 . S
C1045 N1048 1.384 . S
C1046 H1037 0.929 . S
C1046 C1038 1.378 . S
C1046 C1041 1.350 . S
C1047 H1034 0.929 1_554 S
C1047 C1039 1.433 . S
C1047 N1049 1.384 . S
N1048 C1044 1.427 . S
N1048 C1045 1.384 . S
N1049 C1041 1.427 . S
N1049 C1047 1.384 . S
H1050 C1056 0.930 . S
H1051 C1060 0.930 . S
H1052 C1065 0.929 . S
H1053 C1063 0.929 . S
H1054 C1058 0.929 . S
H1055 C1064 0.929 . S
C1056 H1050 0.930 . S
C1056 C1057 1.367 . S
C1056 C1064 1.378 . S
C1057 C1056 1.367 . S
C1057 C1065 1.433 1_455 S
C1058 H1054 0.929 . S
C1058 C1060 1.378 . S
C1058 C1062 1.350 . S
C1059 C1062 1.463 1_455 S
C1059 C1064 1.350 . S
C1059 N1067 1.427 1_455 S
C1060 H1051 0.930 . S
C1060 C1058 1.378 . S
C1060 C1061 1.367 . S
C1061 C1060 1.367 . S
C1061 C1063 1.433 1_655 S
C1062 C1058 1.350 . S
C1062 C1059 1.463 1_655 S
C1062 N1066 1.427 1_655 S
C1063 H1053 0.929 . S
C1063 C1061 1.433 1_455 S
C1063 N1066 1.384 . S
C1064 H1055 0.929 . S
C1064 C1056 1.378 . S
C1064 C1059 1.350 . S
C1065 H1052 0.929 . S
C1065 C1057 1.433 1_655 S
C1065 N1067 1.384 . S
N1066 C1062 1.427 1_455 S
N1066 C1063 1.384 . S
N1067 C1059 1.427 1_655 S
N1067 C1065 1.384 . S
H1068 C1074 0.930 . S
H1069 C1078 0.930 . S
H1070 C1083 0.931 1_545 S
H1071 C1081 0.931 1_565 S
H1072 C1076 0.929 . S
H1073 C1082 0.929 . S
C1074 H1068 0.930 . S
C1074 C1075 1.367 . S
C1074 C1082 1.378 . S
C1075 C1074 1.367 . S
C1075 C1083 1.433 . S
C1076 H1072 0.929 . S
C1076 C1078 1.378 . S
C1076 C1080 1.350 . S
C1077 C1080 1.463 1_565 S
C1077 C1082 1.350 . S
C1077 N1085 1.427 1_565 S
C1078 H1069 0.930 . S
C1078 C1076 1.378 . S
C1078 C1079 1.367 . S
C1079 C1078 1.367 . S
C1079 C1081 1.433 . S
C1080 C1076 1.350 . S
C1080 C1077 1.463 1_545 S
C1080 N1084 1.427 1_545 S
C1081 H1071 0.931 1_545 S
C1081 C1079 1.433 . S
C1081 N1084 1.384 1_545 S
C1082 H1073 0.929 . S
C1082 C1074 1.378 . S
C1082 C1077 1.350 . S
C1083 H1070 0.931 1_565 S
C1083 C1075 1.433 . S
C1083 N1085 1.384 1_565 S
N1084 C1080 1.427 1_565 S
N1084 C1081 1.384 1_565 S
N1085 C1077 1.427 1_545 S
N1085 C1083 1.384 1_545 S
H1086 C1092 0.930 . S
H1087 C1096 0.930 . S
H1088 C1101 0.929 . S
H1089 C1099 0.929 . S
H1090 C1094 0.929 . S
H1091 C1100 0.929 . S
C1092 H1086 0.930 . S
C1092 C1093 1.367 . S
C1092 C1100 1.378 . S
C1093 C1092 1.367 . S
C1093 C1101 1.433 . S
C1094 H1090 0.929 . S
C1094 C1096 1.378 . S
C1094 C1098 1.350 . S
C1095 C1098 1.463 . S
C1095 C1100 1.350 . S
C1095 N1103 1.427 . S
C1096 H1087 0.930 . S
C1096 C1094 1.378 . S
C1096 C1097 1.367 . S
C1097 C1096 1.367 . S
C1097 C1099 1.433 . S
C1098 C1094 1.350 . S
C1098 C1095 1.463 . S
C1098 N1102 1.427 . S
C1099 H1089 0.929 . S
C1099 C1097 1.433 . S
C1099 N1102 1.384 . S
C1100 H1091 0.929 . S
C1100 C1092 1.378 . S
C1100 C1095 1.350 . S
C1101 H1088 0.929 . S
C1101 C1093 1.433 . S
C1101 N1103 1.384 . S
N1102 C1098 1.427 . S
N1102 C1099 1.384 . S
N1103 C1095 1.427 . S
N1103 C1101 1.384 . S
H1104 C1110 0.930 . S
H1105 C1114 0.930 . S
H1106 C1119 0.929 . S
H1107 C1117 0.929 . S
H1108 C1112 0.929 . S
H1109 C1118 0.929 . S
C1110 H1104 0.930 . S
C1110 C1111 1.367 . S
C1110 C1118 1.378 . S
C1111 C1110 1.367 . S
C1111 C1119 1.433 1_655 S
C1112 H1108 0.929 . S
C1112 C1114 1.378 . S
C1112 C1116 1.350 . S
C1113 C1116 1.463 1_655 S
C1113 C1118 1.350 . S
C1113 N1121 1.427 1_655 S
C1114 H1105 0.930 . S
C1114 C1112 1.378 . S
C1114 C1115 1.367 . S
C1115 C1114 1.367 . S
C1115 C1117 1.433 1_455 S
C1116 C1112 1.350 . S
C1116 C1113 1.463 1_455 S
C1116 N1120 1.427 1_455 S
C1117 H1107 0.929 . S
C1117 C1115 1.433 1_655 S
C1117 N1120 1.384 . S
C1118 H1109 0.929 . S
C1118 C1110 1.378 . S
C1118 C1113 1.350 . S
C1119 H1106 0.929 . S
C1119 C1111 1.433 1_455 S
C1119 N1121 1.384 . S
N1120 C1116 1.427 1_655 S
N1120 C1117 1.384 . S
N1121 C1113 1.427 1_455 S
N1121 C1119 1.384 . S
H1122 C1128 0.930 . S
H1123 C1132 0.930 . S
H1124 C1137 0.929 . S
H1125 C1135 0.929 . S
H1126 C1130 0.929 . S
H1127 C1136 0.929 . S
C1128 H1122 0.930 . S
C1128 C1129 1.367 . S
C1128 C1136 1.378 . S
C1129 C1128 1.367 . S
C1129 C1137 1.433 1_545 S
C1130 H1126 0.929 . S
C1130 C1132 1.378 . S
C1130 C1134 1.350 . S
C1131 C1134 1.463 1_545 S
C1131 C1136 1.350 . S
C1131 N1139 1.427 1_545 S
C1132 H1123 0.930 . S
C1132 C1130 1.378 . S
C1132 C1133 1.367 . S
C1133 C1132 1.367 . S
C1133 C1135 1.433 1_565 S
C1134 C1130 1.350 . S
C1134 C1131 1.463 1_565 S
C1134 N1138 1.427 1_565 S
C1135 H1125 0.929 . S
C1135 C1133 1.433 1_545 S
C1135 N1138 1.384 . S
C1136 H1127 0.929 . S
C1136 C1128 1.378 . S
C1136 C1131 1.350 . S
C1137 H1124 0.929 . S
C1137 C1129 1.433 1_565 S
C1137 N1139 1.384 . S
N1138 C1134 1.427 1_545 S
N1138 C1135 1.384 . S
N1139 C1131 1.427 1_565 S
N1139 C1137 1.384 . S
C715 C3 1.585 . S
C719 C534 1.581 . S
C733 C62 1.589 . S
C737 C593 1.579 . S
C751 C121 1.587 . S
C755 C652 1.581 . S
C769 C180 1.582 . S
C773 C357 1.586 . S
C787 C416 1.585 . S
C791 C239 1.581 . S
C805 C475 1.585 . S
C809 C298 1.584 . S
C823 C595 1.594 . S
C827 C5 1.595 . S
C841 C64 1.599 . S
C845 C654 1.599 . S
C859 C123 1.594 . S
C863 C359 1.593 . S
C877 C182 1.599 . S
C881 C418 1.599 . S
C895 C241 1.599 . S
C899 C477 1.599 . S
C913 C300 1.597 . S
C917 C536 1.598 . S
C931 C564 0.880 . S
C935 C33 0.876 . S
C949 C92 0.880 . S
C953 C623 0.876 . S
C967 C151 0.888 . S
C971 C682 0.890 . S
C985 C387 0.878 . S
C989 C210 0.876 . S
C1003 C269 0.881 . S
C1007 C446 0.876 . S
C1021 C505 0.876 . S
C1025 C328 0.880 . S
C1039 C52 1.594 . S
C1043 C229 1.597 . S
C1057 C288 1.594 . S
C1061 C111 1.593 . S
C1075 C170 1.596 . S
C1079 C347 1.593 . S
C1093 C406 1.594 . S
C1097 C583 1.597 . S
C1111 C465 1.594 . S
C1115 C642 1.593 . S
C1129 C701 1.595 . S
C1133 C524 1.593 . S
