# Generated by pormake.
# Topology whw, (6)-cn, num edge types: 1
# Building blocks:
#     Node 0, Type 0, BuildingBlock: CIFDUS_clean_sbu_1, # of connection points: 6
#     Node 1, Type 0, BuildingBlock: CIFDUS_clean_sbu_1, # of connection points: 6
#     Node 2, Type 0, BuildingBlock: CIFDUS_clean_sbu_1, # of connection points: 6
#     Node 3, Type 0, BuildingBlock: CIFDUS_clean_sbu_1, # of connection points: 6
#     Node 4, Type 0, BuildingBlock: CIFDUS_clean_sbu_1, # of connection points: 6
#     Node 5, Type 0, BuildingBlock: CIFDUS_clean_sbu_1, # of connection points: 6
#     Node 6, Type 0, BuildingBlock: CIFDUS_clean_sbu_1, # of connection points: 6
#     Node 7, Type 0, BuildingBlock: CIFDUS_clean_sbu_1, # of connection points: 6
#     Node 8, Type 0, BuildingBlock: CIFDUS_clean_sbu_1, # of connection points: 6
#     Node 9, Type 0, BuildingBlock: CIFDUS_clean_sbu_1, # of connection points: 6
#     Node 10, Type 0, BuildingBlock: CIFDUS_clean_sbu_1, # of connection points: 6
#     Node 11, Type 0, BuildingBlock: CIFDUS_clean_sbu_1, # of connection points: 6
#     Node 12, Type 0, BuildingBlock: CIFDUS_clean_sbu_1, # of connection points: 6
#     Node 13, Type 0, BuildingBlock: CIFDUS_clean_sbu_1, # of connection points: 6
#     Node 14, Type 0, BuildingBlock: CIFDUS_clean_sbu_1, # of connection points: 6
#     Node 15, Type 0, BuildingBlock: CIFDUS_clean_sbu_1, # of connection points: 6
#     Edge 16, Type (0, 0), BuildingBlock: CIFDUS_clean_linker_0, # of connection points: 2
#     Edge 17, Type (0, 0), BuildingBlock: CIFDUS_clean_linker_0, # of connection points: 2
#     Edge 18, Type (0, 0), BuildingBlock: CIFDUS_clean_linker_0, # of connection points: 2
#     Edge 19, Type (0, 0), BuildingBlock: CIFDUS_clean_linker_0, # of connection points: 2
#     Edge 20, Type (0, 0), BuildingBlock: CIFDUS_clean_linker_0, # of connection points: 2
#     Edge 21, Type (0, 0), BuildingBlock: CIFDUS_clean_linker_0, # of connection points: 2
#     Edge 22, Type (0, 0), BuildingBlock: CIFDUS_clean_linker_0, # of connection points: 2
#     Edge 23, Type (0, 0), BuildingBlock: CIFDUS_clean_linker_0, # of connection points: 2
#     Edge 24, Type (0, 0), BuildingBlock: CIFDUS_clean_linker_0, # of connection points: 2
#     Edge 25, Type (0, 0), BuildingBlock: CIFDUS_clean_linker_0, # of connection points: 2
#     Edge 26, Type (0, 0), BuildingBlock: CIFDUS_clean_linker_0, # of connection points: 2
#     Edge 27, Type (0, 0), BuildingBlock: CIFDUS_clean_linker_0, # of connection points: 2
#     Edge 28, Type (0, 0), BuildingBlock: CIFDUS_clean_linker_0, # of connection points: 2
#     Edge 29, Type (0, 0), BuildingBlock: CIFDUS_clean_linker_0, # of connection points: 2
#     Edge 30, Type (0, 0), BuildingBlock: CIFDUS_clean_linker_0, # of connection points: 2
#     Edge 31, Type (0, 0), BuildingBlock: CIFDUS_clean_linker_0, # of connection points: 2
#     Edge 32, Type (0, 0), BuildingBlock: CIFDUS_clean_linker_0, # of connection points: 2
#     Edge 33, Type (0, 0), BuildingBlock: CIFDUS_clean_linker_0, # of connection points: 2
#     Edge 34, Type (0, 0), BuildingBlock: CIFDUS_clean_linker_0, # of connection points: 2
#     Edge 35, Type (0, 0), BuildingBlock: CIFDUS_clean_linker_0, # of connection points: 2
#     Edge 36, Type (0, 0), BuildingBlock: CIFDUS_clean_linker_0, # of connection points: 2
#     Edge 37, Type (0, 0), BuildingBlock: CIFDUS_clean_linker_0, # of connection points: 2
#     Edge 38, Type (0, 0), BuildingBlock: CIFDUS_clean_linker_0, # of connection points: 2
#     Edge 39, Type (0, 0), BuildingBlock: CIFDUS_clean_linker_0, # of connection points: 2
#     Edge 40, Type (0, 0), BuildingBlock: CIFDUS_clean_linker_0, # of connection points: 2
#     Edge 41, Type (0, 0), BuildingBlock: CIFDUS_clean_linker_0, # of connection points: 2
#     Edge 42, Type (0, 0), BuildingBlock: CIFDUS_clean_linker_0, # of connection points: 2
#     Edge 43, Type (0, 0), BuildingBlock: CIFDUS_clean_linker_0, # of connection points: 2
#     Edge 44, Type (0, 0), BuildingBlock: CIFDUS_clean_linker_0, # of connection points: 2
#     Edge 45, Type (0, 0), BuildingBlock: CIFDUS_clean_linker_0, # of connection points: 2
#     Edge 46, Type (0, 0), BuildingBlock: CIFDUS_clean_linker_0, # of connection points: 2
#     Edge 47, Type (0, 0), BuildingBlock: CIFDUS_clean_linker_0, # of connection points: 2
#     Edge 48, Type (0, 0), BuildingBlock: CIFDUS_clean_linker_0, # of connection points: 2
#     Edge 49, Type (0, 0), BuildingBlock: CIFDUS_clean_linker_0, # of connection points: 2
#     Edge 50, Type (0, 0), BuildingBlock: CIFDUS_clean_linker_0, # of connection points: 2
#     Edge 51, Type (0, 0), BuildingBlock: CIFDUS_clean_linker_0, # of connection points: 2
#     Edge 52, Type (0, 0), BuildingBlock: CIFDUS_clean_linker_0, # of connection points: 2
#     Edge 53, Type (0, 0), BuildingBlock: CIFDUS_clean_linker_0, # of connection points: 2
#     Edge 54, Type (0, 0), BuildingBlock: CIFDUS_clean_linker_0, # of connection points: 2
#     Edge 55, Type (0, 0), BuildingBlock: CIFDUS_clean_linker_0, # of connection points: 2
#     Edge 56, Type (0, 0), BuildingBlock: CIFDUS_clean_linker_0, # of connection points: 2
#     Edge 57, Type (0, 0), BuildingBlock: CIFDUS_clean_linker_0, # of connection points: 2
#     Edge 58, Type (0, 0), BuildingBlock: CIFDUS_clean_linker_0, # of connection points: 2
#     Edge 59, Type (0, 0), BuildingBlock: CIFDUS_clean_linker_0, # of connection points: 2
#     Edge 60, Type (0, 0), BuildingBlock: CIFDUS_clean_linker_0, # of connection points: 2
#     Edge 61, Type (0, 0), BuildingBlock: CIFDUS_clean_linker_0, # of connection points: 2
#     Edge 62, Type (0, 0), BuildingBlock: CIFDUS_clean_linker_0, # of connection points: 2
#     Edge 63, Type (0, 0), BuildingBlock: CIFDUS_clean_linker_0, # of connection points: 2
# Relax obj value: 0.549
# Max RMSD: 0.240
# Mean RMSD: 0.240
data_MOF--net-whw--node1-CIFDUS_clean_sbu_1--edge1-CIFDUS_clean_linker_0
_symmetry_space_group_name_H-M    P1
_symmetry_Int_Tables_number       1
_symmetry_cell_setting            triclinic
loop_
_symmetry_equiv_pos_as_xyz
'x, y, z'
_cell_length_a     45.076791
_cell_length_b     44.901153
_cell_length_c     21.258033
_cell_angle_alpha  90.132202
_cell_angle_beta   90.012707
_cell_angle_gamma 89.856259
loop_
_atom_site_label
_atom_site_type_symbol
_atom_site_fract_x
_atom_site_fract_y
_atom_site_fract_z
_atom_type_partial_charge
O0 O 0.03041 0.11632 0.06437 0.0
Mn1 Mn -0.00272 0.12538 0.13224 0.0
O2 O 0.01805 0.14808 0.98643 0.0
Mn3 Mn -0.00527 0.17494 0.03077 0.0
O4 O 0.96494 0.13626 0.20042 0.0
O5 O -0.00488 0.08203 0.1565 0.0
Mn6 Mn -0.00727 0.07819 0.23873 0.0
O7 O 0.02961 0.13196 0.20121 0.0
O8 O 0.95768 0.09646 0.26242 0.0
O9 O 0.96328 0.12028 0.0621 0.0
O10 O 0.95478 0.16693 0.02843 0.0
O11 O -0.00714 0.04011 0.20842 0.0
O12 O 0.027 0.09469 0.27178 0.0
C13 C 0.018 0.19026 0.11233 0.0
C14 C 0.03384 0.12698 1.00848 0.0
C15 C 0.95107 0.12273 0.24506 0.0
C16 C -0.0052 0.05329 0.15442 0.0
C17 C 0.03859 0.1186 0.25129 0.0
C18 C 0.94719 0.13967 0.03201 0.0
O19 O -1e-05 0.16825 0.11112 0.0
O20 O 0.0168 0.20642 0.06219 0.0
O21 O 0.11647 0.77813 0.45864 0.0
Mn22 Mn 0.12306 0.74623 0.38808 0.0
O23 O 0.1564 0.78397 0.51774 0.0
Mn24 Mn 0.16867 0.74721 0.48995 0.0
O25 O 0.1243 0.7134 0.31482 0.0
O26 O 0.08053 0.74867 0.37835 0.0
Mn27 Mn 0.0649 0.7521 0.30488 0.0
O28 O 0.1283 0.7805 0.31837 0.0
O29 O 0.07851 0.71703 0.26913 0.0
O30 O 0.11532 0.71211 0.45333 0.0
O31 O 0.15002 0.71556 0.52803 0.0
O32 O 0.03432 0.75501 0.36478 0.0
O33 O 0.08245 0.78626 0.2754 0.0
C34 C 0.19696 0.74215 0.41552 0.0
C35 C 0.13035 0.79142 0.503 0.0
C36 C 0.10393 0.70455 0.27536 0.0
C37 C 0.05573 0.75258 0.40483 0.0
C38 C 0.1095 0.79401 0.28142 0.0
C39 C 0.12696 0.70349 0.50535 0.0
O40 O 0.16817 0.74377 0.4058 0.0
O41 O 0.20694 0.74323 0.47278 0.0
O42 O 0.45922 0.8686 0.56547 0.0
Mn43 Mn 0.49296 0.86554 0.63556 0.0
O44 O 0.46352 0.82562 0.50932 0.0
Mn45 Mn 0.49579 0.80837 0.5492 0.0
O46 O 0.52491 0.85984 0.70703 0.0
O47 O 0.49314 0.91077 0.65116 0.0
Mn48 Mn 0.48365 0.91311 0.73229 0.0
O49 O 0.46049 0.85771 0.70347 0.0
O50 O 0.512 0.89401 0.77973 0.0
O51 O 0.52667 0.86937 0.56408 0.0
O52 O 0.53263 0.82243 0.52622 0.0
O53 O 0.48866 0.95132 0.71252 0.0
O54 O 0.44587 0.89976 0.74764 0.0
C55 C 0.48836 0.79677 0.64673 0.0
C56 C 0.45069 0.8504 0.52144 0.0
C57 C 0.52706 0.87147 0.76239 0.0
C58 C 0.49369 0.93979 0.65746 0.0
C59 C 0.44307 0.87205 0.74017 0.0
C60 C 0.54066 0.84963 0.52995 0.0
O61 O 0.49298 0.82255 0.62471 0.0
O62 O 0.48975 0.77629 0.60408 0.0
O63 O 0.37124 0.20703 0.827 0.0
Mn64 Mn 0.37348 0.24141 0.89766 0.0
O65 O 0.41897 0.19821 0.79887 0.0
Mn66 Mn 0.43372 0.23484 0.82329 0.0
O67 O 0.37842 0.27543 0.96538 0.0
O68 O 0.32875 0.24261 0.90727 0.0
Mn69 Mn 0.32157 0.24762 0.98892 0.0
O70 O 0.37585 0.20964 0.96933 0.0
O71 O 0.33554 0.28405 0.01477 0.0
O72 O 0.37385 0.27321 0.8236 0.0
O73 O 0.41935 0.26733 0.77845 0.0
O74 O 0.28517 0.24565 0.95487 0.0
O75 O 0.33628 0.21525 0.03217 0.0
C76 C 0.44096 0.24387 0.92232 0.0
C77 C 0.39139 0.1919 0.79653 0.0
C78 C 0.36236 0.29049 1.00418 0.0
C79 C 0.30004 0.24252 0.90296 0.0
C80 C 0.36052 0.20239 0.01793 0.0
C81 C 0.39416 0.28043 0.78301 0.0
O82 O 0.41636 0.23984 0.89496 0.0
O83 O 0.46318 0.24044 0.88455 0.0
O84 O 0.0335 0.8697 0.95591 0.0
Mn85 Mn 0.00086 0.86358 0.88376 0.0
O86 O 0.03286 0.827 1.01257 0.0
Mn87 Mn 0.00483 0.80601 0.96811 0.0
O88 O 0.96808 0.8562 0.81282 0.0
O89 O -0.00292 0.90843 0.87283 0.0
Mn90 Mn -0.00456 0.91529 0.79085 0.0
O91 O 0.03427 0.86245 0.81508 0.0
O92 O 0.96112 0.89901 0.76042 0.0
O93 O 0.96616 0.86223 0.95325 0.0
O94 O 0.96592 0.81445 0.98827 0.0
O95 O -0.00664 0.95188 0.82473 0.0
O96 O 0.03047 0.90305 0.75418 0.0
C97 C 0.01973 0.79648 0.87422 0.0
C98 C 0.04312 0.8528 1.00112 0.0
C99 C 0.95393 0.87236 0.7722 0.0
C100 C -0.00475 0.93726 0.87716 0.0
C101 C 0.04326 0.87894 0.7695 0.0
C102 C 0.95427 0.84036 0.98452 0.0
O103 O 0.00613 0.82007 0.89197 0.0
O104 O 0.02016 0.77605 0.91699 0.0
O105 O 0.36451 0.78457 0.20164 0.0
Mn106 Mn 0.3696 0.75044 0.13166 0.0
O107 O 0.40977 0.78726 0.24901 0.0
Mn108 Mn 0.42779 0.75446 0.21394 0.0
O109 O 0.37817 0.717 0.06528 0.0
O110 O 0.32411 0.74703 0.11824 0.0
Mn111 Mn 0.3223 0.74865 0.0342 0.0
O112 O 0.37328 0.78359 0.0624 0.0
O113 O 0.34164 0.71788 0.99461 0.0
O114 O 0.36929 0.71691 0.20333 0.0
O115 O 0.41562 0.71827 0.24559 0.0
O116 O 0.28463 0.74326 0.05313 0.0
O117 O 0.33172 0.78588 1.00632 0.0
C118 C 0.43825 0.75654 0.11462 0.0
C119 C 0.38319 0.79638 0.24123 0.0
C120 C 0.36598 0.70753 0.01468 0.0
C121 C 0.29523 0.74487 0.10986 0.0
C122 C 0.35685 0.79607 0.02071 0.0
C123 C 0.38995 0.70657 0.24013 0.0
O124 O 0.41265 0.75397 0.13911 0.0
O125 O 0.45902 0.75794 0.15643 0.0
O126 O 0.45937 0.11265 0.45906 0.0
Mn127 Mn 0.49298 0.11888 0.38945 0.0
O128 O 0.46958 0.14978 0.5283 0.0
Mn129 Mn 0.49428 0.17364 0.48068 0.0
O130 O 0.52695 0.12867 0.32258 0.0
O131 O 0.49418 0.07431 0.37078 0.0
Mn132 Mn 0.50418 0.07177 0.29044 0.0
O133 O 0.4615 0.12372 0.31795 0.0
O134 O 0.54191 0.08598 0.28013 0.0
O135 O 0.52589 0.11595 0.46199 0.0
O136 O 0.53401 0.16388 0.48886 0.0
O137 O 0.49915 0.03343 0.31222 0.0
O138 O 0.47605 0.09141 0.24294 0.0
C139 C 0.47174 0.18305 0.3936 0.0
C140 C 0.45474 0.12699 0.51139 0.0
C141 C 0.54531 0.11365 0.28836 0.0
C142 C 0.49364 0.04536 0.36664 0.0
C143 C 0.46001 0.11297 0.26198 0.0
C144 C 0.54144 0.13639 0.49022 0.0
O145 O 0.48986 0.16176 0.40317 0.0
O146 O 0.47262 0.20285 0.43776 0.0
O147 O 0.11184 0.20666 0.56816 0.0
Mn148 Mn 0.11435 0.2391 0.63847 0.0
O149 O 0.15315 0.20676 0.50978 0.0
Mn150 Mn 0.16372 0.24382 0.53925 0.0
O151 O 0.11452 0.27148 0.71191 0.0
O152 O 0.07185 0.23436 0.6475 0.0
Mn153 Mn 0.0566 0.23376 0.72185 0.0
O154 O 0.12098 0.20525 0.70726 0.0
O155 O 0.06768 0.27098 0.75121 0.0
O156 O 0.10529 0.27276 0.57301 0.0
O157 O 0.14336 0.27569 0.50539 0.0
O158 O 0.02588 0.22749 0.66368 0.0
O159 O 0.07645 0.20189 0.75731 0.0
C160 C 0.18683 0.24616 0.62453 0.0
C161 C 0.12855 0.19537 0.52538 0.0
C162 C 0.09369 0.28217 0.74772 0.0
C163 C 0.04689 0.22924 0.62255 0.0
C164 C 0.10314 0.19326 0.74797 0.0
C165 C 0.11814 0.28439 0.52505 0.0
O166 O 0.15826 0.24373 0.6219 0.0
O167 O 0.2006 0.24855 0.57122 0.0
O168 O 0.86798 0.27766 0.70323 0.0
Mn169 Mn 0.87143 0.24453 0.63127 0.0
O170 O 0.91054 0.27328 0.75924 0.0
Mn171 Mn 0.92964 0.244 0.71334 0.0
O172 O 0.87582 0.21085 0.56055 0.0
O173 O 0.82717 0.24525 0.61919 0.0
Mn174 Mn 0.81849 0.2405 0.53902 0.0
O175 O 0.87522 0.2766 0.56175 0.0
O176 O 0.83132 0.20316 0.51629 0.0
O177 O 0.87002 0.2114 0.70308 0.0
O178 O 0.91803 0.20553 0.73294 0.0
O179 O 0.78268 0.24592 0.5766 0.0
O180 O 0.83639 0.27121 0.49601 0.0
C181 C 0.93825 0.25868 0.61825 0.0
C182 C 0.88542 0.28539 0.74903 0.0
C183 C 0.85843 0.19621 0.52295 0.0
C184 C 0.79893 0.2482 0.62667 0.0
C185 C 0.86065 0.28347 0.51208 0.0
C186 C 0.8908 0.19743 0.73375 0.0
O187 O 0.91486 0.24575 0.6379 0.0
O188 O 0.95919 0.25829 0.65975 0.0
O189 O 0.60872 0.70834 0.06423 0.0
Mn190 Mn 0.6156 0.74153 0.13172 0.0
O191 O 0.6489 0.70431 1.00276 0.0
Mn192 Mn 0.6657 0.73864 0.03356 0.0
O193 O 0.61999 0.77538 0.20366 0.0
O194 O 0.57259 0.74226 0.14447 0.0
Mn195 Mn 0.56148 0.7457 0.22303 0.0
O196 O 0.61927 0.70758 0.1999 0.0
O197 O 0.57289 0.78469 0.23464 0.0
O198 O 0.61019 0.77453 0.06108 0.0
O199 O 0.65084 0.7731 0.99991 0.0
O200 O 0.53028 0.72848 0.17804 0.0
O201 O 0.58316 0.71833 0.26982 0.0
C202 C 0.68845 0.73937 0.11956 0.0
C203 C 0.62319 0.69589 0.0193 0.0
C204 C 0.60042 0.79129 0.23427 0.0
C205 C 0.54921 0.72742 0.13249 0.0
C206 C 0.60514 0.70264 0.25159 0.0
C207 C 0.62564 0.78399 0.01391 0.0
O208 O 0.65979 0.74016 0.11557 0.0
O209 O 0.70273 0.73805 0.06665 0.0
O210 O 0.61633 0.27714 0.95142 0.0
Mn211 Mn 0.6209 0.24237 0.88687 0.0
O212 O 0.65822 0.28236 1.00652 0.0
Mn213 Mn 0.66923 0.24366 0.9888 0.0
O214 O 0.62333 0.20737 0.81828 0.0
O215 O 0.57845 0.24606 0.87218 0.0
Mn216 Mn 0.56547 0.24286 0.7959 0.0
O217 O 0.6278 0.27477 0.81453 0.0
O218 O 0.57739 0.20476 0.77531 0.0
O219 O 0.6112 0.21216 0.96013 0.0
O220 O 0.64833 0.21463 0.03092 0.0
O221 O 0.53282 0.2508 0.84784 0.0
O222 O 0.58538 0.27345 0.75629 0.0
C223 C 0.69315 0.23384 0.90789 0.0
C224 C 0.63263 0.29141 0.99061 0.0
C225 C 0.60366 0.19468 0.78238 0.0
C226 C 0.55247 0.25128 0.89206 0.0
C227 C 0.61084 0.28436 0.76922 0.0
C228 C 0.6235 0.20449 1.0126 0.0
O229 O 0.66467 0.23791 0.90697 0.0
O230 O 0.70643 0.2357 0.96183 0.0
O231 O 0.86863 0.70718 0.31582 0.0
Mn232 Mn 0.8741 0.74095 0.38671 0.0
O233 O 0.91498 0.69792 0.27972 0.0
Mn234 Mn 0.9304 0.73453 0.29994 0.0
O235 O 0.88169 0.77307 0.45642 0.0
O236 O 0.83009 0.74255 0.40473 0.0
Mn237 Mn 0.82465 0.74367 0.48748 0.0
O238 O 0.87899 0.70832 0.45555 0.0
O239 O 0.84155 0.77833 0.51777 0.0
O240 O 0.87218 0.77467 0.31624 0.0
O241 O 0.91417 0.76704 0.25863 0.0
O242 O 0.78746 0.74416 0.4546 0.0
O243 O 0.84021 0.70905 0.52179 0.0
C244 C 0.94323 0.74209 0.39621 0.0
C245 C 0.88755 0.69141 0.28349 0.0
C246 C 0.86777 0.78555 0.50231 0.0
C247 C 0.80144 0.74309 0.40133 0.0
C248 C 0.86504 0.6985 0.50399 0.0
C249 C 0.89025 0.78137 0.27071 0.0
O250 O 0.91699 0.73944 0.37543 0.0
O251 O 0.96316 0.73901 0.35302 0.0
O252 O 0.53168 0.61753 0.56314 0.0
Mn253 Mn 0.49823 0.62444 0.63251 0.0
O254 O 0.53376 0.66165 0.51079 0.0
Mn255 Mn 0.50459 0.6831 0.5517 0.0
O256 O 0.46572 0.63436 0.70004 0.0
O257 O 0.49282 0.58017 0.64699 0.0
Mn258 Mn 0.49001 0.5749 0.72979 0.0
O259 O 0.53119 0.62532 0.70101 0.0
O260 O 0.45693 0.59422 0.75933 0.0
O261 O 0.46443 0.62658 0.56175 0.0
O262 O 0.46622 0.6744 0.52677 0.0
O263 O 0.48697 0.53775 0.69744 0.0
O264 O 0.5248 0.58717 0.76736 0.0
C265 C 0.51397 0.6902 0.65146 0.0
C266 C 0.54275 0.63507 0.52072 0.0
C267 C 0.45159 0.62099 0.74413 0.0
C268 C 0.49031 0.55143 0.64421 0.0
C269 C 0.53872 0.61024 0.74956 0.0
C270 C 0.45379 0.64884 0.52966 0.0
O271 O 0.50438 0.66682 0.6253 0.0
O272 O 0.51609 0.71186 0.6119 0.0
O273 O 0.95495 0.36762 0.07823 0.0
Mn274 Mn 0.9886 0.36588 0.1496 0.0
O275 O 0.94727 0.31937 0.05091 0.0
Mn276 Mn 0.98346 0.30473 0.07777 0.0
O277 O 0.02224 0.36145 0.21649 0.0
O278 O 0.9908 0.41072 0.15887 0.0
Mn279 Mn 0.98916 0.41817 0.24132 0.0
O280 O 0.95595 0.36377 0.21912 0.0
O281 O 0.02116 0.40079 0.28146 0.0
O282 O 0.02052 0.36524 0.07666 0.0
O283 O 0.01637 0.3189 0.03406 0.0
O284 O -0.00732 0.4545 0.20654 0.0
O285 O 0.95271 0.40688 0.27102 0.0
C286 C 0.99059 0.29845 0.17815 0.0
C287 C 0.94057 0.34699 0.04772 0.0
C288 C 0.03199 0.37594 0.26421 0.0
C289 C -0.00744 0.43946 0.15433 0.0
C290 C 0.94333 0.38087 0.25958 0.0
C291 C 0.02857 0.34461 0.03739 0.0
O292 O 0.98708 0.32281 0.14908 0.0
O293 O 0.98797 0.27584 0.14081 0.0
O294 O 0.53979 0.36617 0.45377 0.0
Mn295 Mn 0.50417 0.3606 0.38758 0.0
O296 O 0.54182 0.3225 0.50765 0.0
Mn297 Mn 0.50778 0.30507 0.47787 0.0
O298 O 0.47045 0.35267 0.32117 0.0
O299 O 0.50242 0.40487 0.3687 0.0
Mn300 Mn 0.50092 0.40945 0.28587 0.0
O301 O 0.5347 0.35429 0.3152 0.0
O302 O 0.4666 0.39192 0.25618 0.0
O303 O 0.47229 0.36443 0.46189 0.0
O304 O 0.47267 0.31944 0.51043 0.0
O305 O 0.50018 0.44711 0.3164 0.0
O306 O 0.53533 0.39411 0.25171 0.0
C307 C 0.5062 0.29068 0.38146 0.0
C308 C 0.55174 0.34837 0.49496 0.0
C309 C 0.45857 0.36617 0.27391 0.0
C310 C 0.50151 0.43375 0.37038 0.0
C311 C 0.5447 0.36849 0.26737 0.0
C312 C 0.46177 0.34537 0.50207 0.0
O313 O 0.50632 0.31749 0.4009 0.0
O314 O 0.50822 0.27146 0.42645 0.0
O315 O 0.95945 0.61555 0.95765 0.0
Mn316 Mn 0.99115 0.62296 0.88423 0.0
O317 O 0.94968 0.66134 0.99804 0.0
Mn318 Mn 0.98262 0.68076 0.96751 0.0
O319 O 0.02273 0.63179 0.81425 0.0
O320 O -0.00402 0.57894 0.86723 0.0
Mn321 Mn -0.00678 0.57306 0.78467 0.0
O322 O 0.9568 0.62507 0.81829 0.0
O323 O 0.0239 0.59338 0.7464 0.0
O324 O 0.02585 0.62463 0.95248 0.0
O325 O 0.01875 0.66918 1.00212 0.0
O326 O -0.00067 0.53619 0.81701 0.0
O327 O 0.95546 0.58373 0.75961 0.0
C328 C 0.98203 0.69045 0.86731 0.0
C329 C 0.94449 0.63349 0.99393 0.0
C330 C 0.03316 0.61864 0.76514 0.0
C331 C -0.0009 0.55035 0.87025 0.0
C332 C 0.94453 0.60853 0.77652 0.0
C333 C 0.03348 0.64511 0.99278 0.0
O334 O 0.9858 0.66545 0.89329 0.0
O335 O 0.97882 0.71158 0.90808 0.0
H336 H 0.08923 0.14924 1.00863 0.0
H337 H 0.03179 0.08848 0.91056 0.0
H338 H 0.05797 0.09829 0.8123 0.0
H339 H 0.08518 0.13613 0.75192 0.0
H340 H 0.13917 0.20035 0.84888 0.0
H341 H 0.12755 0.17681 0.94941 0.0
C342 C 0.08382 0.13664 0.96656 0.0
C343 C 0.0586 0.11806 0.96697 0.0
C344 C 0.09796 0.14387 0.90931 0.0
C345 C 0.05133 0.10248 0.91177 0.0
C346 C 0.06597 0.10864 0.85515 0.0
C347 C 0.096 0.14367 0.79466 0.0
C348 C 0.11285 0.17011 0.79291 0.0
C349 C 0.0877 0.131 0.85268 0.0
C350 C 0.12639 0.17993 0.84871 0.0
C351 C 0.11912 0.16682 0.90655 0.0
H352 H 0.0884 0.85009 0.26695 0.0
H353 H 0.14697 0.7854 0.18331 0.0
H354 H 0.13603 0.80531 0.07897 0.0
H355 H 0.09843 0.83038 1.01261 0.0
H356 H 0.03735 0.89257 0.09664 0.0
H357 H 0.06097 0.88527 0.19905 0.0
C358 C 0.1003 0.84168 0.22625 0.0
C359 C 0.11848 0.81614 0.23324 0.0
C360 C 0.09259 0.85236 0.1659 0.0
C361 C 0.13329 0.80521 0.17979 0.0
C362 C 0.1264 0.81621 0.1197 0.0
C363 C 0.09158 0.8438 0.05258 0.0
C364 C 0.0662 0.8622 0.04672 0.0
C365 C 0.10448 0.83831 0.11206 0.0
C366 C 0.05708 0.87879 0.09933 0.0
C367 C 0.07027 0.87407 0.15837 0.0
H368 H 0.3572 0.7962 0.35644 0.0
H369 H 0.3977 0.85362 0.21974 0.0
H370 H 0.42039 0.88293 0.3035 0.0
H371 H 0.44086 0.88117 0.41218 0.0
H372 H 0.39865 0.82504 0.5492 0.0
H373 H 0.36417 0.80681 0.46968 0.0
C374 C 0.36915 0.81644 0.34504 0.0
C375 C 0.37608 0.82232 0.28163 0.0
C376 C 0.38288 0.83281 0.39391 0.0
C377 C 0.39188 0.84854 0.268 0.0
C378 C 0.40558 0.86494 0.31612 0.0
C379 C 0.42286 0.8665 0.42554 0.0
C380 C 0.42244 0.85447 0.48671 0.0
C381 C 0.40307 0.8558 0.37897 0.0
C382 C 0.39928 0.83495 0.50276 0.0
C383 C 0.3798 0.82407 0.45686 0.0
H384 H 0.41212 0.13554 0.77802 0.0
H385 H 0.35705 0.20319 0.69447 0.0
H386 H 0.36632 0.18209 0.59016 0.0
H387 H 0.40114 0.1534 0.52303 0.0
H388 H 0.45761 0.08709 0.60686 0.0
H389 H 0.43589 0.09748 0.70998 0.0
C390 C 0.40071 0.14456 0.73736 0.0
C391 C 0.38381 0.17097 0.74442 0.0
C392 C 0.40691 0.1327 0.67702 0.0
C393 C 0.36967 0.18268 0.69093 0.0
C394 C 0.37549 0.17087 0.63087 0.0
C395 C 0.40727 0.13982 0.56317 0.0
C396 C 0.43097 0.11929 0.55682 0.0
C397 C 0.39556 0.14705 0.62311 0.0
C398 C 0.43915 0.10255 0.60983 0.0
C399 C 0.42715 0.10905 0.6693 0.0
H400 H 0.86396 0.78454 0.15615 0.0
H401 H 0.91185 0.83637 0.29268 0.0
H402 H 0.9325 0.86724 0.20912 0.0
H403 H 0.94812 0.86871 0.09723 0.0
H404 H 0.90069 0.81608 0.96116 0.0
H405 H 0.86808 0.79723 0.04345 0.0
C406 C 0.87731 0.80385 0.16787 0.0
C407 C 0.88628 0.80808 0.23076 0.0
C408 C 0.88996 0.82095 0.11899 0.0
C409 C 0.9042 0.83283 0.24491 0.0
C410 C 0.91657 0.85015 0.19678 0.0
C411 C 0.92945 0.85464 0.08503 0.0
C412 C 0.92694 0.84385 0.0229 0.0
C413 C 0.91127 0.84301 0.13342 0.0
C414 C 0.90298 0.82501 1.00831 0.0
C415 C 0.8846 0.81376 0.05575 0.0
H416 H 0.91687 0.14397 0.75768 0.0
H417 H 0.85068 0.20497 0.82749 0.0
H418 H 0.85702 0.18511 0.9336 0.0
H419 H 0.89194 0.16126 1.00813 0.0
H420 H 0.95821 0.10043 0.93812 0.0
H421 H 0.94066 0.10835 0.83082 0.0
C422 C 0.90263 0.15171 0.79551 0.0
C423 C 0.88353 0.17615 0.78477 0.0
C424 C 0.90692 0.14055 0.85684 0.0
C425 C 0.86536 0.18609 0.83425 0.0
C426 C 0.86938 0.17503 0.89533 0.0
C427 C 0.90128 0.14831 0.96976 0.0
C428 C 0.92662 0.13055 0.98112 0.0
C429 C 0.89157 0.15374 0.90771 0.0
C430 C 0.93861 0.11405 0.93094 0.0
C431 C 0.92894 0.1191 0.86918 0.0
H432 H 0.5791 0.14012 0.76407 0.0
H433 H 0.64343 0.20094 0.6883 0.0
H434 H 0.63382 0.18205 0.58245 0.0
H435 H 0.59633 0.15953 0.51159 0.0
H436 H 0.53212 0.09848 0.58732 0.0
H437 H 0.55284 0.10541 0.69257 0.0
C438 C 0.59242 0.14784 0.72488 0.0
C439 C 0.61178 0.17217 0.73416 0.0
C440 C 0.58601 0.13742 0.66363 0.0
C441 C 0.62863 0.18212 0.6828 0.0
C442 C 0.6226 0.17173 0.62183 0.0
C443 C 0.58799 0.14646 0.55058 0.0
C444 C 0.56247 0.12874 0.54162 0.0
C445 C 0.59977 0.15101 0.61142 0.0
C446 C 0.5518 0.11208 0.59266 0.0
C447 C 0.56339 0.11645 0.65324 0.0
H448 H 0.59476 0.82443 0.50972 0.0
H449 H 0.5346 0.89038 0.43639 0.0
H450 H 0.55493 0.88287 0.3309 0.0
H451 H 0.57872 0.84689 0.25784 0.0
H452 H 0.6381 0.7802 0.33115 0.0
H453 H 0.62998 0.79903 0.43774 0.0
C454 C 0.58734 0.83845 0.47129 0.0
C455 C 0.56291 0.85782 0.48114 0.0
C456 C 0.59851 0.83315 0.41009 0.0
C457 C 0.55344 0.87557 0.43064 0.0
C458 C 0.56471 0.87077 0.36981 0.0
C459 C 0.59127 0.83764 0.29673 0.0
C460 C 0.60887 0.81194 0.28625 0.0
C461 C 0.58571 0.84811 0.35844 0.0
C462 C 0.62472 0.80008 0.33737 0.0
C463 C 0.61956 0.81054 0.39877 0.0
H464 H 0.63247 0.69224 0.3642 0.0
H465 H 0.5812 0.65049 0.21792 0.0
H466 H 0.56038 0.61564 0.29377 0.0
H467 H 0.54569 0.60899 0.40515 0.0
H468 H 0.59905 0.64835 0.55083 0.0
H469 H 0.63107 0.67103 0.47209 0.0
C470 C 0.61831 0.67423 0.34826 0.0
C471 C 0.60824 0.67411 0.28556 0.0
C472 C 0.60625 0.65419 0.39252 0.0
C473 C 0.58952 0.6509 0.26577 0.0
C474 C 0.57716 0.63123 0.30949 0.0
C475 C 0.5656 0.62066 0.41971 0.0
C476 C 0.56952 0.62749 0.48386 0.0
C477 C 0.58373 0.63417 0.37371 0.0
C478 C 0.59544 0.64274 0.5018 0.0
C479 C 0.61343 0.6564 0.45656 0.0
H480 H 0.63994 0.29092 0.65699 0.0
H481 H 0.59126 0.33902 0.79872 0.0
H482 H 0.57162 0.37271 0.71915 0.0
H483 H 0.55665 0.37715 0.6073 0.0
H484 H 0.60738 0.33123 0.46574 0.0
H485 H 0.63886 0.30926 0.54663 0.0
C486 C 0.62678 0.31005 0.67112 0.0
C487 C 0.61695 0.31216 0.73395 0.0
C488 C 0.61526 0.32941 0.62453 0.0
C489 C 0.59946 0.33694 0.75097 0.0
C490 C 0.58765 0.35595 0.70506 0.0
C491 C 0.57593 0.36412 0.59379 0.0
C492 C 0.57917 0.35543 0.53035 0.0
C493 C 0.5937 0.35096 0.64115 0.0
C494 C 0.60427 0.33835 0.51405 0.0
C495 C 0.62192 0.32511 0.56066 0.0
H496 H 0.88699 0.32197 0.02255 0.0
H497 H 0.95031 0.3849 0.95049 0.0
H498 H 0.93216 0.37614 0.84367 0.0
H499 H 0.90844 0.34016 0.77078 0.0
H500 H 0.84607 0.27642 0.84301 0.0
H501 H 0.85293 0.29626 0.94919 0.0
C502 C 0.89563 0.33506 0.98386 0.0
C503 C 0.92013 0.35403 0.99473 0.0
C504 C 0.88563 0.32912 0.92209 0.0
C505 C 0.93129 0.37051 0.94392 0.0
C506 C 0.92124 0.36501 0.88243 0.0
C507 C 0.89492 0.33192 0.80917 0.0
C508 C 0.87655 0.30692 0.79868 0.0
C509 C 0.8998 0.34293 0.87069 0.0
C510 C 0.85982 0.29598 0.84929 0.0
C511 C 0.86426 0.30698 0.91044 0.0
H512 H 0.91157 0.63675 0.26592 0.0
H513 H 0.8456 0.6967 0.19199 0.0
H514 H 0.85217 0.67513 0.0872 0.0
H515 H 0.88794 0.65138 0.01454 0.0
H516 H 0.95671 0.59464 0.08815 0.0
H517 H 0.93745 0.60187 0.19457 0.0
C518 C 0.89734 0.64384 0.22754 0.0
C519 C 0.87835 0.66861 0.23671 0.0
C520 C 0.90252 0.63238 0.16667 0.0
C521 C 0.8602 0.67766 0.18657 0.0
C522 C 0.86448 0.66568 0.12616 0.0
C523 C 0.89753 0.63909 0.05348 0.0
C524 C 0.92395 0.6227 0.04338 0.0
C525 C 0.88718 0.64472 0.11504 0.0
C526 C 0.9363 0.60713 0.09429 0.0
C527 C 0.92561 0.61185 0.15554 0.0
H528 H 0.40633 0.32287 0.51337 0.0
H529 H 0.46867 0.38217 0.60155 0.0
H530 H 0.44719 0.37129 0.70446 0.0
H531 H 0.4206 0.33415 0.76931 0.0
H532 H 0.35871 0.27433 0.68118 0.0
H533 H 0.36931 0.29652 0.57864 0.0
C534 C 0.41388 0.33492 0.55466 0.0
C535 C 0.43911 0.35338 0.54965 0.0
C536 C 0.40193 0.3277 0.61412 0.0
C537 C 0.44905 0.36831 0.60378 0.0
C538 C 0.43713 0.36151 0.66299 0.0
C539 C 0.40811 0.32725 0.72817 0.0
C540 C 0.3887 0.30272 0.73299 0.0
C541 C 0.41494 0.33973 0.66899 0.0
C542 C 0.37326 0.29349 0.67903 0.0
C543 C 0.37977 0.30587 0.62009 0.0
H544 H 0.44675 0.61991 0.41775 0.0
H545 H 0.40136 0.6759 0.55134 0.0
H546 H 0.36883 0.69461 0.46855 0.0
H547 H 0.36407 0.70553 0.35517 0.0
H548 H 0.41037 0.65067 0.22108 0.0
H549 H 0.4307 0.62039 0.30612 0.0
C550 C 0.42853 0.63476 0.42936 0.0
C551 C 0.42651 0.64642 0.49083 0.0
C552 C 0.4104 0.64626 0.38065 0.0
C553 C 0.40321 0.6663 0.50468 0.0
C554 C 0.38486 0.67742 0.45695 0.0
C555 C 0.37699 0.68574 0.34439 0.0
C556 C 0.38563 0.68044 0.28164 0.0
C557 C 0.38964 0.6691 0.3941 0.0
C558 C 0.40302 0.65507 0.26875 0.0
C559 C 0.41522 0.63808 0.31768 0.0
H560 H 0.12679 0.70332 0.15742 0.0
H561 H 0.08491 0.6486 0.29723 0.0
H562 H 0.06216 0.6183 0.21491 0.0
H563 H 0.04305 0.6175 0.10529 0.0
H564 H 0.0849 0.67252 0.96581 0.0
H565 H 0.11914 0.69192 0.04479 0.0
C566 C 0.11436 0.68353 0.16984 0.0
C567 C 0.10767 0.6783 0.23365 0.0
C568 C 0.10044 0.66674 0.12181 0.0
C569 C 0.09084 0.65293 0.2487 0.0
C570 C 0.07721 0.63595 0.20139 0.0
C571 C 0.06086 0.63231 0.09147 0.0
C572 C 0.06147 0.64338 0.02946 0.0
C573 C 0.08019 0.64399 0.1379 0.0
C574 C 0.08421 0.66326 0.01282 0.0
C575 C 0.10354 0.67478 0.05838 0.0
H576 H 0.06765 0.33612 0.76477 0.0
H577 H 0.13103 0.27555 0.84605 0.0
H578 H 0.12045 0.29554 0.95072 0.0
H579 H 0.08286 0.31974 0.01907 0.0
H580 H 0.01982 0.38067 0.93775 0.0
H581 H 0.04091 0.3718 0.83339 0.0
C582 C 0.08047 0.32863 0.80497 0.0
C583 C 0.10001 0.30427 0.79768 0.0
C584 C 0.07366 0.33982 0.86536 0.0
C585 C 0.11617 0.29448 0.85022 0.0
C586 C 0.10964 0.30554 0.9104 0.0
C587 C 0.07494 0.33238 0.97898 0.0
C588 C 0.04981 0.35086 0.98607 0.0
C589 C 0.08696 0.32674 0.9188 0.0
C590 C 0.03937 0.3667 0.93365 0.0
C591 C 0.05116 0.36122 0.8737 0.0
H592 H 0.04865 0.30083 0.21418 0.0
H593 H 0.96397 0.28679 0.29583 0.0
H594 H 0.97292 0.23337 0.30186 0.0
H595 H 0.99057 0.19722 0.22204 0.0
H596 H 0.07343 0.21252 0.12736 0.0
H597 H 0.08046 0.25858 0.18631 0.0
C598 C 0.03314 0.28623 0.23777 0.0
C599 C 0.00338 0.29534 0.2417 0.0
C600 C 0.03822 0.25539 0.23438 0.0
C601 C 0.98539 0.27843 0.28173 0.0
C602 C 0.99039 0.24774 0.28454 0.0
C603 C 0.01131 0.20935 0.21832 0.0
C604 C 0.03099 0.20243 0.16964 0.0
C605 C 0.0146 0.23611 0.25099 0.0
C606 C 0.05783 0.21803 0.16445 0.0
C607 C 0.06178 0.24446 0.19798 0.0
H608 H 0.96447 0.70622 0.4842 0.0
H609 H 0.94193 0.79744 0.44743 0.0
H610 H 0.98739 0.81386 0.49793 0.0
H611 H 0.03859 0.79802 0.48025 0.0
H612 H 0.05957 0.70524 0.48235 0.0
H613 H 0.01241 0.69363 0.52869 0.0
C614 C 0.96834 0.72976 0.49279 0.0
C615 C 0.95114 0.75056 0.4601 0.0
C616 C -0.00422 0.73855 0.51645 0.0
C617 C 0.95571 0.78102 0.47077 0.0
C618 C 0.98195 0.79037 0.49926 0.0
C619 C 0.03321 0.77558 0.49532 0.0
C620 C 0.05071 0.75206 0.47271 0.0
C621 C 0.00388 0.76897 0.5113 0.0
C622 C 0.04585 0.7236 0.49729 0.0
C623 C 0.01803 0.71686 0.52177 0.0
H624 H 0.47091 0.69034 0.73869 0.0
H625 H 0.56461 0.70131 0.7211 0.0
H626 H 0.5613 0.75138 0.76422 0.0
H627 H 0.53055 0.79404 0.73495 0.0
H628 H 0.43716 0.78196 0.70775 0.0
H629 H 0.43946 0.73337 0.75766 0.0
C630 C 0.4907 0.70312 0.74875 0.0
C631 C 0.51723 0.69446 0.71967 0.0
C632 C 0.48747 0.73343 0.76294 0.0
C633 C 0.5433 0.70908 0.73816 0.0
C634 C 0.54126 0.73813 0.7615 0.0
C635 C 0.51052 0.78141 0.74427 0.0
C636 C 0.48439 0.78966 0.71318 0.0
C637 C 0.51319 0.75168 0.76316 0.0
C638 C 0.45801 0.77478 0.7282 0.0
C639 C 0.45948 0.74667 0.75578 0.0
H640 H 0.53341 0.29984 0.95225 0.0
H641 H 0.55046 0.20639 0.97467 0.0
H642 H 0.5077 0.20146 0.04281 0.0
H643 H 0.45649 0.21594 0.03067 0.0
H644 H 0.43524 0.30224 0.96025 0.0
H645 H 0.485 0.31971 0.98322 0.0
C646 C 0.5286 0.27902 0.97603 0.0
C647 C 0.54418 0.25341 0.95795 0.0
C648 C 0.50121 0.27548 1.0058 0.0
C649 C 0.5385 0.22637 0.98816 0.0
C650 C 0.51359 0.2235 0.02628 0.0
C651 C 0.46261 0.23906 0.02415 0.0
C652 C 0.44463 0.25655 0.98536 0.0
C653 C 0.49269 0.24659 0.02611 0.0
C654 C 0.45036 0.28728 0.98423 0.0
C655 C 0.47919 0.29711 0.99599 0.0
H656 H 0.98346 0.79549 0.77927 0.0
H657 H 0.07372 0.77866 0.82575 0.0
H658 H 0.0699 0.72818 0.785 0.0
H659 H 0.03316 0.68948 0.80552 0.0
H660 H 0.94072 0.70722 0.78046 0.0
H661 H 0.95172 0.75615 0.74 0.0
C662 C 0.00296 0.78198 0.77281 0.0
C663 C 0.02761 0.78922 0.80934 0.0
C664 C -0.00095 0.75215 0.75574 0.0
C665 C 0.05355 0.77224 0.8016 0.0
C666 C 0.05114 0.74308 0.77926 0.0
C667 C 0.01582 0.70276 0.78429 0.0
C668 C 0.98637 0.69641 0.80036 0.0
C669 C 0.02272 0.7319 0.76635 0.0
C670 C 0.96371 0.7129 0.77183 0.0
C671 C 0.9701 0.74122 0.74904 0.0
H672 H 0.54611 0.76004 0.02775 0.0
H673 H 0.53063 0.67192 0.09701 0.0
H674 H 0.48186 0.67118 0.04859 0.0
H675 H 0.43997 0.70527 0.0511 0.0
H676 H 0.45497 0.79874 0.02887 0.0
H677 H 0.50449 0.78917 0.98925 0.0
C678 C 0.53263 0.74006 0.02821 0.0
C679 C 0.5404 0.71719 0.06969 0.0
C680 C 0.50279 0.74213 1.01026 0.0
C681 C 0.52421 0.69052 0.06757 0.0
C682 C 0.49588 0.69045 0.04112 0.0
C683 C 0.4535 0.72325 0.03294 0.0
C684 C 0.44527 0.75254 0.04786 0.0
C685 C 0.48367 0.71768 0.02185 0.0
C686 C 0.46165 0.77582 0.0211 0.0
C687 C 0.49046 0.77037 0.99997 0.0
H688 H 0.49416 0.1808 0.27602 0.0
H689 H 0.41274 0.19843 0.3706 0.0
H690 H 0.41304 0.24979 0.33431 0.0
H691 H 0.45076 0.28873 0.34143 0.0
H692 H 0.54043 0.26909 0.2871 0.0
H693 H 0.52512 0.2217 0.24475 0.0
C694 C 0.47585 0.19584 0.28532 0.0
C695 C 0.4563 0.18847 0.3337 0.0
C696 C 0.47965 0.22631 0.27426 0.0
C697 C 0.43014 0.20533 0.33867 0.0
C698 C 0.43073 0.23502 0.31921 0.0
C699 C 0.46631 0.27496 0.31518 0.0
C700 C 0.49667 0.28133 0.31931 0.0
C701 C 0.4577 0.2464 0.29679 0.0
C702 C 0.51692 0.26419 0.28484 0.0
C703 C 0.50811 0.23682 0.26054 0.0
H704 H 0.04509 0.27649 0.54695 0.0
H705 H 0.03299 0.18208 0.54772 0.0
H706 H 0.98395 0.18761 0.50413 0.0
H707 H 0.94249 0.21898 0.53082 0.0
H708 H 0.95251 0.31199 0.55986 0.0
H709 H 0.00347 0.30946 0.52198 0.0
C710 C 0.03266 0.25724 0.53151 0.0
C711 C 0.04088 0.2293 0.55506 0.0
C712 C 0.0031 0.26132 0.51306 0.0
C713 C 0.02591 0.20409 0.53305 0.0
C714 C -0.00253 0.20739 0.50855 0.0
C715 C 0.95448 0.23896 0.52083 0.0
C716 C 0.94506 0.26465 0.55201 0.0
C717 C 0.98468 0.23593 0.50739 0.0
C718 C 0.96048 0.29117 0.54021 0.0
C719 C 0.98995 0.28955 0.51978 0.0
H720 H -0.00011 -0.0061 0.14596 0.0
H721 H -0.00594 0.07391 0.03414 0.0
H722 H -0.00514 0.04424 0.93828 0.0
H723 H -0.00489 -0.00375 0.88789 0.0
H724 H -0.00098 0.91539 0.99755 0.0
H725 H 0.00116 0.94511 0.09439 0.0
C726 C -0.00112 0.00485 0.10057 0.0
C727 C -0.00318 0.03602 0.09663 0.0
C728 C -0.00107 0.98763 0.04611 0.0
C729 C -0.00425 0.05002 0.03797 0.0
C730 C -0.00389 0.03306 0.98336 0.0
C731 C -0.00357 0.98494 0.93287 0.0
C732 C -0.00319 0.95374 0.93609 0.0
C733 C -0.00267 0.00194 0.98719 0.0
C734 C -0.00129 0.93945 0.99442 0.0
C735 C -0.00011 0.95639 0.04943 0.0
H736 H 0.18728 0.75273 0.29291 0.0
H737 H 0.25474 0.72621 0.42588 0.0
H738 H 0.29196 0.72574 0.3431 0.0
H739 H 0.3054 0.73328 0.23281 0.0
H740 H 0.23751 0.75987 0.10072 0.0
H741 H 0.20057 0.76021 0.18347 0.0
C742 C 0.21004 0.74656 0.30342 0.0
C743 C 0.21833 0.73951 0.36467 0.0
C744 C 0.23135 0.7466 0.25608 0.0
C745 C 0.24793 0.73181 0.37848 0.0
C746 C 0.26926 0.73158 0.33144 0.0
C747 C 0.28255 0.73922 0.22256 0.0
C748 C 0.27406 0.74621 0.16132 0.0
C749 C 0.26125 0.73914 0.27013 0.0
C750 C 0.24444 0.75397 0.14789 0.0
C751 C 0.22325 0.75423 0.19497 0.0
H752 H 0.51538 0.04874 0.48325 0.0
H753 H 0.45736 -0.00198 0.36292 0.0
H754 H 0.45452 0.95835 0.44116 0.0
H755 H 0.47048 0.93737 0.54184 0.0
H756 H 0.52887 0.98792 0.6617 0.0
H757 H 0.53087 0.02803 0.58439 0.0
C758 C 0.50157 0.0293 0.47532 0.0
C759 C 0.48637 0.02605 0.41871 0.0
C760 C 0.50112 0.0062 0.519 0.0
C761 C 0.46899 0.00072 0.40719 0.0
C762 C 0.46769 0.97797 0.45124 0.0
C763 C 0.48414 0.95689 0.5499 0.0
C764 C 0.49986 0.95985 0.60596 0.0
C765 C 0.48429 0.98015 0.50655 0.0
C766 C 0.51694 0.98538 0.61775 0.0
C767 C 0.51777 0.00837 0.57424 0.0
H768 H 0.24182 0.23499 0.89134 0.0
H769 H 0.32282 0.24237 0.78372 0.0
H770 H 0.29394 0.24307 0.6862 0.0
H771 H 0.24589 0.24556 0.63435 0.0
H772 H 0.16512 0.24088 0.74348 0.0
H773 H 0.19416 0.2356 0.83963 0.0
C774 C 0.25326 0.23665 0.84656 0.0
C775 C 0.28421 0.23916 0.84406 0.0
C776 C 0.23666 0.23793 0.79192 0.0
C777 C 0.29889 0.24065 0.78615 0.0
C778 C 0.28244 0.24122 0.7308 0.0
C779 C 0.2346 0.24345 0.67919 0.0
C780 C 0.20353 0.24382 0.68253 0.0
C781 C 0.25133 0.24065 0.73357 0.0
C782 C 0.18907 0.24078 0.74037 0.0
C783 C 0.20561 0.23768 0.79502 0.0
H784 H 0.69973 0.27288 0.81651 0.0
H785 H 0.72796 0.18679 0.88264 0.0
H786 H 0.76892 0.18635 0.80696 0.0
H787 H 0.7963 0.21094 0.72248 0.0
H788 H 0.76794 0.29705 0.65675 0.0
H789 H 0.72827 0.2983 0.73517 0.0
C790 C 0.71439 0.25374 0.81253 0.0
C791 C 0.71076 0.22948 0.85239 0.0
C792 C 0.73854 0.25449 0.77189 0.0
C793 C 0.73025 0.20515 0.85 0.0
C794 C 0.75388 0.20522 0.80809 0.0
C795 C 0.78209 0.23037 0.72749 0.0
C796 C 0.7849 0.25412 0.68597 0.0
C797 C 0.75851 0.23003 0.7697 0.0
C798 C 0.76616 0.27897 0.69023 0.0
C799 C 0.7432 0.27934 0.73369 0.0
H800 H 0.74242 0.74163 0.38985 0.0
H801 H 0.82364 0.74195 0.28193 0.0
H802 H 0.79503 0.74015 0.18447 0.0
H803 H 0.74737 0.73936 0.1316 0.0
H804 H 0.66602 0.74001 0.2391 0.0
H805 H 0.69463 0.74065 0.33678 0.0
C806 C 0.75391 0.74132 0.34501 0.0
C807 C 0.78501 0.7419 0.34253 0.0
C808 C 0.73741 0.74053 0.28989 0.0
C809 C 0.7997 0.74142 0.28453 0.0
C810 C 0.78337 0.74046 0.22908 0.0
C811 C 0.73581 0.73962 0.17637 0.0
C812 C 0.70471 0.73967 0.17867 0.0
C813 C 0.75228 0.74013 0.23149 0.0
C814 C 0.68998 0.74 0.23663 0.0
C815 C 0.7063 0.74036 0.2922 0.0
H816 H 0.49604 0.49233 0.63644 0.0
H817 H 0.49181 0.5721 0.52342 0.0
H818 H 0.49618 0.54192 0.42779 0.0
H819 H 0.49955 0.49318 0.37808 0.0
H820 H 0.50357 0.41349 0.49142 0.0
H821 H 0.50097 0.44379 0.58693 0.0
C822 C 0.496 0.50319 0.59089 0.0
C823 C 0.49335 0.53427 0.58638 0.0
C824 C 0.49847 0.48584 0.537 0.0
C825 C 0.49374 0.54814 0.52749 0.0
C826 C 0.49621 0.53094 0.47315 0.0
C827 C 0.49995 0.48237 0.42366 0.0
C828 C 0.50145 0.45119 0.4282 0.0
C829 C 0.49835 0.49981 0.47762 0.0
C830 C 0.50218 0.43746 0.48721 0.0
C831 C 0.50071 0.45474 0.54153 0.0
H832 H -0.00629 0.49146 0.8828 0.0
H833 H 0.00559 0.57292 0.98837 0.0
H834 H 0.00567 0.54475 0.08639 0.0
H835 H 0.00156 0.49764 0.14036 0.0
H836 H 0.98771 0.41614 0.03593 0.0
H837 H 0.98925 0.44405 0.93727 0.0
C838 C -0.00345 0.50304 0.92725 0.0
C839 C -4e-05 0.53407 0.92901 0.0
C840 C -0.00387 0.48684 0.98272 0.0
C841 C 0.00315 0.54899 0.98645 0.0
C842 C 0.00315 0.53294 0.04218 0.0
C843 C -0.00107 0.48589 0.09605 0.0
C844 C -0.00545 0.45501 0.09476 0.0
C845 C -0.00045 0.50195 0.04057 0.0
C846 C 0.99124 0.43997 0.03744 0.0
C847 C -0.00795 0.45587 0.98139 0.0
H848 H 0.08994 0.1038 0.31514 0.0
H849 H 0.022 0.17007 0.29675 0.0
H850 H 0.04285 0.19931 0.38128 0.0
H851 H 0.07994 0.20559 0.46168 0.0
H852 H 0.14952 0.14092 0.48514 0.0
H853 H 0.12873 0.11077 0.39861 0.0
C854 C 0.08035 0.12497 0.3291 0.0
C855 C 0.05542 0.13614 0.29713 0.0
C856 C 0.09236 0.1412 0.37989 0.0
C857 C 0.04242 0.16279 0.31709 0.0
C858 C 0.05387 0.1789 0.36685 0.0
C859 C 0.08993 0.18439 0.44913 0.0
C860 C 0.11523 0.17466 0.48068 0.0
C861 C 0.07865 0.16821 0.39877 0.0
C862 C 0.12938 0.1482 0.46195 0.0
C863 C 0.11768 0.13123 0.41235 0.0
H864 H 0.13485 0.84767 0.55393 0.0
H865 H 0.08848 0.76421 0.56808 0.0
H866 H 0.05765 0.78376 0.65242 0.0
H867 H 0.04285 0.82501 0.71922 0.0
H868 H 0.09035 0.9077 0.71492 0.0
H869 H 0.12195 0.88852 0.62945 0.0
C870 C 0.11778 0.83411 0.5754 0.0
C871 C 0.11237 0.80527 0.55246 0.0
C872 C 0.10087 0.84521 0.62609 0.0
C873 C 0.09125 0.78723 0.5821 0.0
C874 C 0.07416 0.79812 0.63126 0.0
C875 C 0.06113 0.83814 0.7021 0.0
C876 C 0.0653 0.86694 0.72524 0.0
C877 C 0.07873 0.82705 0.65343 0.0
C878 C 0.08735 0.88503 0.69862 0.0
C879 C 0.10521 0.87415 0.64963 0.0
H880 H 0.40949 0.79071 0.96742 0.0
H881 H 0.33159 0.84596 0.96961 0.0
H882 H 0.35075 0.87456 0.87996 0.0
H883 H 0.38958 0.88217 0.79818 0.0
H884 H 0.468 0.82724 0.80308 0.0
H885 H 0.44891 0.79981 0.89207 0.0
C886 C 0.39754 0.80995 0.95031 0.0
C887 C 0.37005 0.81719 0.97648 0.0
C888 C 0.40831 0.8255 0.89845 0.0
C889 C 0.35333 0.84067 0.95091 0.0
C890 C 0.36412 0.85673 0.8994 0.0
C891 C 0.40212 0.86393 0.81852 0.0
C892 C 0.42923 0.85525 0.79151 0.0
C893 C 0.39144 0.84901 0.87206 0.0
C894 C 0.44598 0.83252 0.81974 0.0
C895 C 0.43549 0.81744 0.87194 0.0
H896 H 0.40124 0.12893 0.25614 0.0
H897 H 0.48479 0.13473 0.15832 0.0
H898 H 0.46107 0.16052 0.07105 0.0
H899 H 0.41681 0.1813 0.0222 0.0
H900 H 0.33285 0.17692 0.11909 0.0
H901 H 0.35606 0.14962 0.20533 0.0
C902 C 0.41403 0.13594 0.21562 0.0
C903 C 0.44449 0.12976 0.21286 0.0
C904 C 0.40011 0.15046 0.16486 0.0
C905 C 0.46112 0.13895 0.16055 0.0
C906 C 0.44762 0.15366 0.11069 0.0
C907 C 0.40351 0.17421 0.06189 0.0
C908 C 0.37325 0.18142 0.0643 0.0
C909 C 0.41711 0.1593 0.11204 0.0
C910 C 0.3563 0.17178 0.11603 0.0
C911 C 0.36957 0.15635 0.16571 0.0
H912 H 0.86092 0.84082 0.55867 0.0
H913 H 0.91276 0.76022 0.56054 0.0
H914 H 0.9429 0.77903 0.64566 0.0
H915 H 0.95461 0.81807 0.71969 0.0
H916 H 0.90439 0.89926 0.72332 0.0
H917 H 0.87286 0.88069 0.63766 0.0
C918 C 0.87894 0.82765 0.57795 0.0
C919 C 0.88578 0.79973 0.55143 0.0
C920 C 0.89565 0.83832 0.62947 0.0
C921 C 0.90834 0.78236 0.57798 0.0
C922 C 0.92505 0.79278 0.62796 0.0
C923 C 0.93605 0.83104 0.70431 0.0
C924 C 0.93132 0.85928 0.72986 0.0
C925 C 0.91879 0.82056 0.65441 0.0
C926 C 0.90812 0.87695 0.70544 0.0
C927 C 0.89026 0.86647 0.65608 0.0
H928 H 0.91573 0.18746 0.49228 0.0
H929 H 0.82854 0.15766 0.44361 0.0
H930 H 0.84856 0.13238 0.35038 0.0
H931 H 0.89188 0.12094 0.27944 0.0
H932 H 0.9756 0.16254 0.32009 0.0
H933 H 0.95576 0.18375 0.41601 0.0
C934 C 0.90108 0.17627 0.46091 0.0
C935 C 0.87087 0.17535 0.47491 0.0
C936 C 0.91216 0.16463 0.4045 0.0
C937 C 0.85214 0.1589 0.43455 0.0
C938 C 0.86349 0.14475 0.38057 0.0
C939 C 0.90541 0.13526 0.30883 0.0
C940 C 0.9352 0.14062 0.29236 0.0
C941 C 0.8935 0.14806 0.36419 0.0
C942 C 0.95263 0.15874 0.33111 0.0
C943 C 0.94146 0.17026 0.38691 0.0
H944 H 0.63167 0.14968 0.06679 0.0
H945 H 0.57921 0.22954 0.07591 0.0
H946 H 0.5504 0.20942 0.16181 0.0
H947 H 0.54105 0.16951 0.23913 0.0
H948 H 0.59586 0.0908 0.23657 0.0
H949 H 0.62409 0.11063 0.14795 0.0
C950 C 0.61356 0.16228 0.08742 0.0
C951 C 0.60556 0.18994 0.06149 0.0
C952 C 0.5985 0.15132 0.14084 0.0
C953 C 0.58359 0.20699 0.09111 0.0
C954 C 0.56789 0.1959 0.14225 0.0
C955 C 0.55951 0.15699 0.22016 0.0
C956 C 0.56628 0.12877 0.24489 0.0
C957 C 0.57522 0.16819 0.16807 0.0
C958 C 0.59019 0.11268 0.21878 0.0
C959 C 0.6062 0.12386 0.1676 0.0
H960 H 0.58467 0.85094 0.76733 0.0
H961 H 0.50348 0.85747 0.87355 0.0
H962 H 0.52699 0.83411 0.96376 0.0
H963 H 0.56984 0.80888 1.01141 0.0
H964 H 0.65238 0.80568 0.90834 0.0
H965 H 0.62932 0.83037 0.81957 0.0
C966 C 0.57219 0.8468 0.81001 0.0
C967 C 0.54236 0.85547 0.81353 0.0
C968 C 0.58602 0.83371 0.86275 0.0
C969 C 0.52648 0.85064 0.86958 0.0
C970 C 0.53985 0.8372 0.92129 0.0
C971 C 0.58291 0.81392 0.96998 0.0
C972 C 0.61266 0.80476 0.96675 0.0
C973 C 0.56956 0.82838 0.91845 0.0
C974 C 0.62926 0.81201 0.91252 0.0
C975 C 0.61607 0.82604 0.86108 0.0
H976 H 0.53792 0.60881 0.87581 0.0
H977 H 0.58831 0.64155 0.71804 0.0
H978 H 0.62115 0.6686 0.78986 0.0
H979 H 0.63245 0.68622 0.89595 0.0
H980 H 0.5797 0.6568 0.0531 0.0
H981 H 0.5504 0.62509 0.98272 0.0
C982 C 0.55657 0.62127 0.85732 0.0
C983 C 0.56112 0.62288 0.79201 0.0
C984 C 0.57447 0.63762 0.89856 0.0
C985 C 0.5847 0.63981 0.76829 0.0
C986 C 0.60331 0.65534 0.80923 0.0
C987 C 0.61494 0.67238 0.91504 0.0
C988 C 0.60807 0.6738 0.97948 0.0
C989 C 0.598 0.65484 0.87426 0.0
C990 C 0.58505 0.65622 1.00347 0.0
C991 C 0.56845 0.63808 0.96334 0.0
H992 H 0.59402 0.3835 0.19901 0.0
H993 H 0.52689 0.31644 0.22272 0.0
H994 H 0.54579 0.28882 0.1328 0.0
H995 H 0.58207 0.28295 0.04996 0.0
H996 H 0.65284 0.34623 0.02883 0.0
H997 H 0.63182 0.37678 0.11434 0.0
C998 C 0.58407 0.36257 0.18483 0.0
C999 C 0.55987 0.35118 0.2186 0.0
C1000 C 0.59532 0.34669 0.1329 0.0
C1001 C 0.54646 0.32457 0.19918 0.0
C1002 C 0.55687 0.30917 0.14705 0.0
C1003 C 0.59233 0.3039 0.06283 0.0
C1004 C 0.61825 0.31296 0.03242 0.0
C1005 C 0.58125 0.32001 0.11374 0.0
C1006 C 0.63239 0.33934 0.05118 0.0
C1007 C 0.62059 0.35652 0.10032 0.0
H1008 H 0.92953 0.32299 0.27284 0.0
H1009 H 0.90765 0.41037 0.34382 0.0
H1010 H 0.8795 0.38807 0.42993 0.0
H1011 H 0.86455 0.34318 0.49009 0.0
H1012 H 0.89131 0.2566 0.42263 0.0
H1013 H 0.91487 0.27893 0.3312 0.0
C1014 C 0.91858 0.33717 0.307 0.0
C1015 C 0.92117 0.36816 0.30269 0.0
C1016 C 0.90399 0.32429 0.35798 0.0
C1017 C 0.9062 0.38633 0.34648 0.0
C1018 C 0.89035 0.37363 0.39607 0.0
C1019 C 0.8759 0.32953 0.45542 0.0
C1020 C 0.87657 0.29856 0.46224 0.0
C1021 C 0.88987 0.34262 0.40338 0.0
C1022 C 0.89092 0.28064 0.41758 0.0
C1023 C 0.90427 0.29335 0.36543 0.0
H1024 H 0.9555 0.65537 0.70696 0.0
H1025 H 0.8876 0.591 0.74664 0.0
H1026 H 0.85584 0.6128 0.664 0.0
H1027 H 0.84848 0.65056 0.57832 0.0
H1028 H 0.9193 0.71123 0.53833 0.0
H1029 H 0.94929 0.69067 0.62241 0.0
C1030 C 0.93343 0.64661 0.6984 0.0
C1031 C 0.92329 0.62248 0.73356 0.0
C1032 C 0.91631 0.65821 0.64966 0.0
C1033 C 0.89536 0.61015 0.72057 0.0
C1034 C 0.87743 0.62244 0.67316 0.0
C1035 C 0.87068 0.6587 0.58763 0.0
C1036 C 0.8825 0.68174 0.55058 0.0
C1037 C 0.88783 0.64638 0.63678 0.0
C1038 C 0.91084 0.6926 0.56403 0.0
C1039 C 0.92761 0.68122 0.61297 0.0
H1040 H 0.40775 0.38199 0.20987 0.0
H1041 H 0.47429 0.31391 0.22598 0.0
H1042 H 0.44912 0.28324 0.14863 0.0
H1043 H 0.40801 0.27597 0.07624 0.0
H1044 H 0.34651 0.34719 0.04059 0.0
H1045 H 0.36909 0.37672 0.1259 0.0
C1046 C 0.4162 0.36017 0.19708 0.0
C1047 C 0.44117 0.34851 0.22851 0.0
C1048 C 0.40275 0.34379 0.14805 0.0
C1049 C 0.45316 0.32132 0.20838 0.0
C1050 C 0.43935 0.30439 0.16229 0.0
C1051 C 0.40065 0.2986 0.08471 0.0
C1052 C 0.37702 0.31019 0.04989 0.0
C1053 C 0.41417 0.31541 0.1319 0.0
C1054 C 0.36551 0.33834 0.06559 0.0
C1055 C 0.3783 0.35507 0.11444 0.0
H1056 H 0.36878 0.71052 0.88935 0.0
H1057 H 0.40028 0.65941 0.04748 0.0
H1058 H 0.42808 0.62667 0.97581 0.0
H1059 H 0.44413 0.61383 0.86871 0.0
H1060 H 0.41567 0.66768 0.71188 0.0
H1061 H 0.38556 0.69836 0.78294 0.0
C1062 C 0.38145 0.69194 0.90802 0.0
C1063 C 0.38224 0.68695 0.97324 0.0
C1064 C 0.39776 0.67391 0.86692 0.0
C1065 C 0.39929 0.66343 0.99728 0.0
C1066 C 0.41511 0.64481 0.9564 0.0
C1067 C 0.43092 0.63199 0.84995 0.0
C1068 C 0.43161 0.63827 0.7851 0.0
C1069 C 0.41451 0.64994 0.89119 0.0
C1070 C 0.41515 0.66232 0.76154 0.0
C1071 C 0.39807 0.67985 0.80211 0.0
H1072 H 0.12639 0.70134 0.63193 0.0
H1073 H 0.09177 0.65692 0.46752 0.0
H1074 H 0.06069 0.62546 0.53462 0.0
H1075 H 0.04082 0.61349 0.63931 0.0
H1076 H 0.07595 0.65784 0.80336 0.0
H1077 H 0.10953 0.68664 0.73677 0.0
C1078 C 0.1125 0.68437 0.61074 0.0
C1079 C 0.11122 0.68154 0.54484 0.0
C1080 C 0.09454 0.66674 0.64943 0.0
C1081 C 0.09297 0.65959 0.51812 0.0
C1082 C 0.07516 0.64172 0.55643 0.0
C1083 C 0.05611 0.62918 0.66058 0.0
C1084 C 0.05549 0.63402 0.72604 0.0
C1085 C 0.07536 0.64554 0.62204 0.0
C1086 C 0.07549 0.65431 0.75294 0.0
C1087 C 0.09478 0.67062 0.71495 0.0
H1088 H 0.03086 0.37373 0.39053 0.0
H1089 H 0.08168 0.34536 0.22934 0.0
H1090 H 0.1144 0.31612 0.29765 0.0
H1091 H 0.12591 0.29588 0.40156 0.0
H1092 H 0.07411 0.32278 0.5628 0.0
H1093 H 0.04423 0.35555 0.49593 0.0
C1094 C 0.04949 0.36158 0.37067 0.0
C1095 C 0.054 0.36154 0.30526 0.0
C1096 C 0.06769 0.34442 0.41002 0.0
C1097 C 0.07784 0.34549 0.27966 0.0
C1098 C 0.09645 0.3288 0.31862 0.0
C1099 C 0.10841 0.30928 0.4224 0.0
C1100 C 0.10206 0.30674 0.48699 0.0
C1101 C 0.09121 0.32769 0.38367 0.0
C1102 C 0.07919 0.32411 0.51308 0.0
C1103 C 0.06216 0.34285 0.47492 0.0
loop_
_geom_bond_atom_site_label_1
_geom_bond_atom_site_label_2
_geom_bond_distance
_geom_bond_site_symmetry_2
_ccdc_geom_bond_type
O0 Mn1 2.163 . S
O0 C14 1.244 . S
Mn1 O0 2.163 . S
Mn1 O4 2.160 1_455 S
Mn1 O5 2.221 1_455 S
Mn1 O7 2.163 . S
Mn1 O9 2.160 1_455 S
Mn1 O19 2.221 1_455 S
O2 Mn3 2.087 . S
O2 C14 1.256 . S
Mn3 O2 2.087 . S
Mn3 O10 2.089 1_454 S
Mn3 O19 2.290 1_455 S
Mn3 O20 2.251 . S
O4 Mn1 2.160 1_655 S
O4 C15 1.239 . S
O5 Mn1 2.221 1_655 S
O5 Mn6 2.289 1_655 S
O5 C16 1.272 1_655 S
Mn6 O5 2.289 1_455 S
Mn6 O8 2.089 1_455 S
Mn6 O11 2.251 . S
Mn6 O12 2.087 . S
O7 Mn1 2.163 . S
O7 C17 1.244 . S
O8 Mn6 2.089 1_655 S
O8 C15 1.256 . S
O9 Mn1 2.160 1_655 S
O9 C18 1.239 . S
O10 Mn3 2.089 1_656 S
O10 C18 1.256 1_556 S
O11 Mn6 2.251 . S
O11 C16 1.241 . S
O12 Mn6 2.087 . S
O12 C17 1.256 . S
C13 O19 1.277 1_455 S
C13 O20 1.241 . S
C14 O0 1.244 . S
C14 O2 1.256 . S
C15 O4 1.239 . S
C15 O8 1.256 . S
C16 O5 1.272 1_455 S
C16 O11 1.241 . S
C17 O7 1.244 . S
C17 O12 1.256 . S
C18 O9 1.239 . S
C18 O10 1.256 1_554 S
O19 Mn1 2.221 1_655 S
O19 Mn3 2.290 1_655 S
O19 C13 1.277 1_655 S
O20 Mn3 2.251 . S
O20 C13 1.241 . S
O21 Mn22 2.163 . S
O21 C35 1.244 . S
Mn22 O21 2.163 . S
Mn22 O25 2.160 . S
Mn22 O26 2.221 . S
Mn22 O28 2.163 . S
Mn22 O30 2.160 . S
Mn22 O40 2.221 . S
O23 Mn24 2.087 . S
O23 C35 1.256 . S
Mn24 O23 2.087 . S
Mn24 O31 2.089 . S
Mn24 O40 2.290 . S
Mn24 O41 2.251 . S
O25 Mn22 2.160 . S
O25 C36 1.239 . S
O26 Mn22 2.221 . S
O26 Mn27 2.290 . S
O26 C37 1.278 . S
Mn27 O26 2.290 . S
Mn27 O29 2.089 . S
Mn27 O32 2.251 . S
Mn27 O33 2.087 . S
O28 Mn22 2.163 . S
O28 C38 1.244 . S
O29 Mn27 2.089 . S
O29 C36 1.256 . S
O30 Mn22 2.160 . S
O30 C39 1.239 . S
O31 Mn24 2.089 . S
O31 C39 1.256 . S
O32 Mn27 2.251 . S
O32 C37 1.241 . S
O33 Mn27 2.087 . S
O33 C38 1.256 . S
C34 O40 1.278 . S
C34 O41 1.241 . S
C35 O21 1.244 . S
C35 O23 1.256 . S
C36 O25 1.239 . S
C36 O29 1.256 . S
C37 O26 1.278 . S
C37 O32 1.241 . S
C38 O28 1.244 . S
C38 O33 1.256 . S
C39 O30 1.239 . S
C39 O31 1.256 . S
O40 Mn22 2.221 . S
O40 Mn24 2.290 . S
O40 C34 1.278 . S
O41 Mn24 2.251 . S
O41 C34 1.241 . S
O42 Mn43 2.163 . S
O42 C56 1.244 . S
Mn43 O42 2.163 . S
Mn43 O46 2.160 . S
Mn43 O47 2.221 . S
Mn43 O49 2.163 . S
Mn43 O51 2.160 . S
Mn43 O61 2.221 . S
O44 Mn45 2.087 . S
O44 C56 1.256 . S
Mn45 O44 2.087 . S
Mn45 O52 2.089 . S
Mn45 O61 2.290 . S
Mn45 O62 2.251 . S
O46 Mn43 2.160 . S
O46 C57 1.239 . S
O47 Mn43 2.221 . S
O47 Mn48 2.290 . S
O47 C58 1.278 . S
Mn48 O47 2.290 . S
Mn48 O50 2.089 . S
Mn48 O53 2.251 . S
Mn48 O54 2.087 . S
O49 Mn43 2.163 . S
O49 C59 1.244 . S
O50 Mn48 2.089 . S
O50 C57 1.256 . S
O51 Mn43 2.160 . S
O51 C60 1.239 . S
O52 Mn45 2.089 . S
O52 C60 1.256 . S
O53 Mn48 2.251 . S
O53 C58 1.241 . S
O54 Mn48 2.087 . S
O54 C59 1.256 . S
C55 O61 1.278 . S
C55 O62 1.241 . S
C56 O42 1.244 . S
C56 O44 1.256 . S
C57 O46 1.239 . S
C57 O50 1.256 . S
C58 O47 1.278 . S
C58 O53 1.241 . S
C59 O49 1.244 . S
C59 O54 1.256 . S
C60 O51 1.239 . S
C60 O52 1.256 . S
O61 Mn43 2.221 . S
O61 Mn45 2.290 . S
O61 C55 1.278 . S
O62 Mn45 2.251 . S
O62 C55 1.241 . S
O63 Mn64 2.163 . S
O63 C77 1.244 . S
Mn64 O63 2.163 . S
Mn64 O67 2.160 . S
Mn64 O68 2.221 . S
Mn64 O70 2.163 . S
Mn64 O72 2.160 . S
Mn64 O82 2.221 . S
O65 Mn66 2.087 . S
O65 C77 1.256 . S
Mn66 O65 2.087 . S
Mn66 O73 2.089 . S
Mn66 O82 2.290 . S
Mn66 O83 2.251 . S
O67 Mn64 2.160 . S
O67 C78 1.239 . S
O68 Mn64 2.221 . S
O68 Mn69 2.290 . S
O68 C79 1.278 . S
Mn69 O68 2.290 . S
Mn69 O71 2.089 1_556 S
Mn69 O74 2.251 . S
Mn69 O75 2.087 1_556 S
O70 Mn64 2.163 . S
O70 C80 1.244 . S
O71 Mn69 2.089 1_554 S
O71 C78 1.256 1_554 S
O72 Mn64 2.160 . S
O72 C81 1.239 . S
O73 Mn66 2.089 . S
O73 C81 1.256 . S
O74 Mn69 2.251 . S
O74 C79 1.241 . S
O75 Mn69 2.087 1_554 S
O75 C80 1.256 1_554 S
C76 O82 1.278 . S
C76 O83 1.241 . S
C77 O63 1.244 . S
C77 O65 1.256 . S
C78 O67 1.239 . S
C78 O71 1.256 1_556 S
C79 O68 1.278 . S
C79 O74 1.241 . S
C80 O70 1.244 . S
C80 O75 1.256 1_556 S
C81 O72 1.239 . S
C81 O73 1.256 . S
O82 Mn64 2.221 . S
O82 Mn66 2.290 . S
O82 C76 1.278 . S
O83 Mn66 2.251 . S
O83 C76 1.241 . S
O84 Mn85 2.163 . S
O84 C98 1.244 . S
Mn85 O84 2.163 . S
Mn85 O88 2.160 1_455 S
Mn85 O89 2.221 1_455 S
Mn85 O91 2.163 . S
Mn85 O93 2.160 1_455 S
Mn85 O103 2.221 1_455 S
O86 Mn87 2.087 . S
O86 C98 1.256 . S
Mn87 O86 2.087 . S
Mn87 O94 2.089 1_456 S
Mn87 O103 2.290 1_455 S
Mn87 O104 2.251 . S
O88 Mn85 2.160 1_655 S
O88 C99 1.239 . S
O89 Mn85 2.221 1_655 S
O89 Mn90 2.289 1_655 S
O89 C100 1.272 1_655 S
Mn90 O89 2.289 1_455 S
Mn90 O92 2.089 1_455 S
Mn90 O95 2.251 . S
Mn90 O96 2.087 . S
O91 Mn85 2.163 . S
O91 C101 1.244 . S
O92 Mn90 2.089 1_655 S
O92 C99 1.256 . S
O93 Mn85 2.160 1_655 S
O93 C102 1.239 . S
O94 Mn87 2.089 1_654 S
O94 C102 1.256 1_554 S
O95 Mn90 2.251 . S
O95 C100 1.241 . S
O96 Mn90 2.087 . S
O96 C101 1.256 . S
C97 O103 1.277 1_455 S
C97 O104 1.241 . S
C98 O84 1.244 . S
C98 O86 1.256 . S
C99 O88 1.239 . S
C99 O92 1.256 . S
C100 O89 1.272 1_455 S
C100 O95 1.241 . S
C101 O91 1.244 . S
C101 O96 1.256 . S
C102 O93 1.239 . S
C102 O94 1.256 1_556 S
O103 Mn85 2.221 1_655 S
O103 Mn87 2.290 1_655 S
O103 C97 1.277 1_655 S
O104 Mn87 2.251 . S
O104 C97 1.241 . S
O105 Mn106 2.163 . S
O105 C119 1.244 . S
Mn106 O105 2.163 . S
Mn106 O109 2.160 . S
Mn106 O110 2.221 . S
Mn106 O112 2.163 . S
Mn106 O114 2.160 . S
Mn106 O124 2.221 . S
O107 Mn108 2.087 . S
O107 C119 1.256 . S
Mn108 O107 2.087 . S
Mn108 O115 2.089 . S
Mn108 O124 2.290 . S
Mn108 O125 2.251 . S
O109 Mn106 2.160 . S
O109 C120 1.239 . S
O110 Mn106 2.221 . S
O110 Mn111 2.290 . S
O110 C121 1.278 . S
Mn111 O110 2.290 . S
Mn111 O113 2.089 1_554 S
Mn111 O116 2.251 . S
Mn111 O117 2.087 1_554 S
O112 Mn106 2.163 . S
O112 C122 1.244 . S
O113 Mn111 2.089 1_556 S
O113 C120 1.256 1_556 S
O114 Mn106 2.160 . S
O114 C123 1.239 . S
O115 Mn108 2.089 . S
O115 C123 1.256 . S
O116 Mn111 2.251 . S
O116 C121 1.241 . S
O117 Mn111 2.087 1_556 S
O117 C122 1.256 1_556 S
C118 O124 1.278 . S
C118 O125 1.241 . S
C119 O105 1.244 . S
C119 O107 1.256 . S
C120 O109 1.239 . S
C120 O113 1.256 1_554 S
C121 O110 1.278 . S
C121 O116 1.241 . S
C122 O112 1.244 . S
C122 O117 1.256 1_554 S
C123 O114 1.239 . S
C123 O115 1.256 . S
O124 Mn106 2.221 . S
O124 Mn108 2.290 . S
O124 C118 1.278 . S
O125 Mn108 2.251 . S
O125 C118 1.241 . S
O126 Mn127 2.163 . S
O126 C140 1.244 . S
Mn127 O126 2.163 . S
Mn127 O130 2.160 . S
Mn127 O131 2.221 . S
Mn127 O133 2.163 . S
Mn127 O135 2.160 . S
Mn127 O145 2.221 . S
O128 Mn129 2.087 . S
O128 C140 1.256 . S
Mn129 O128 2.087 . S
Mn129 O136 2.089 . S
Mn129 O145 2.290 . S
Mn129 O146 2.251 . S
O130 Mn127 2.160 . S
O130 C141 1.239 . S
O131 Mn127 2.221 . S
O131 Mn132 2.290 . S
O131 C142 1.278 . S
Mn132 O131 2.290 . S
Mn132 O134 2.089 . S
Mn132 O137 2.251 . S
Mn132 O138 2.087 . S
O133 Mn127 2.163 . S
O133 C143 1.244 . S
O134 Mn132 2.089 . S
O134 C141 1.256 . S
O135 Mn127 2.160 . S
O135 C144 1.239 . S
O136 Mn129 2.089 . S
O136 C144 1.256 . S
O137 Mn132 2.251 . S
O137 C142 1.241 . S
O138 Mn132 2.087 . S
O138 C143 1.256 . S
C139 O145 1.278 . S
C139 O146 1.241 . S
C140 O126 1.244 . S
C140 O128 1.256 . S
C141 O130 1.239 . S
C141 O134 1.256 . S
C142 O131 1.278 . S
C142 O137 1.241 . S
C143 O133 1.244 . S
C143 O138 1.256 . S
C144 O135 1.239 . S
C144 O136 1.256 . S
O145 Mn127 2.221 . S
O145 Mn129 2.290 . S
O145 C139 1.278 . S
O146 Mn129 2.251 . S
O146 C139 1.241 . S
O147 Mn148 2.163 . S
O147 C161 1.244 . S
Mn148 O147 2.163 . S
Mn148 O151 2.160 . S
Mn148 O152 2.221 . S
Mn148 O154 2.163 . S
Mn148 O156 2.160 . S
Mn148 O166 2.221 . S
O149 Mn150 2.087 . S
O149 C161 1.256 . S
Mn150 O149 2.087 . S
Mn150 O157 2.089 . S
Mn150 O166 2.290 . S
Mn150 O167 2.251 . S
O151 Mn148 2.160 . S
O151 C162 1.239 . S
O152 Mn148 2.221 . S
O152 Mn153 2.290 . S
O152 C163 1.278 . S
Mn153 O152 2.290 . S
Mn153 O155 2.089 . S
Mn153 O158 2.251 . S
Mn153 O159 2.087 . S
O154 Mn148 2.163 . S
O154 C164 1.244 . S
O155 Mn153 2.089 . S
O155 C162 1.256 . S
O156 Mn148 2.160 . S
O156 C165 1.239 . S
O157 Mn150 2.089 . S
O157 C165 1.256 . S
O158 Mn153 2.251 . S
O158 C163 1.241 . S
O159 Mn153 2.087 . S
O159 C164 1.256 . S
C160 O166 1.278 . S
C160 O167 1.241 . S
C161 O147 1.244 . S
C161 O149 1.256 . S
C162 O151 1.239 . S
C162 O155 1.256 . S
C163 O152 1.278 . S
C163 O158 1.241 . S
C164 O154 1.244 . S
C164 O159 1.256 . S
C165 O156 1.239 . S
C165 O157 1.256 . S
O166 Mn148 2.221 . S
O166 Mn150 2.290 . S
O166 C160 1.278 . S
O167 Mn150 2.251 . S
O167 C160 1.241 . S
O168 Mn169 2.163 . S
O168 C182 1.244 . S
Mn169 O168 2.163 . S
Mn169 O172 2.160 . S
Mn169 O173 2.221 . S
Mn169 O175 2.163 . S
Mn169 O177 2.160 . S
Mn169 O187 2.221 . S
O170 Mn171 2.087 . S
O170 C182 1.256 . S
Mn171 O170 2.087 . S
Mn171 O178 2.089 . S
Mn171 O187 2.290 . S
Mn171 O188 2.251 . S
O172 Mn169 2.160 . S
O172 C183 1.239 . S
O173 Mn169 2.221 . S
O173 Mn174 2.290 . S
O173 C184 1.278 . S
Mn174 O173 2.290 . S
Mn174 O176 2.089 . S
Mn174 O179 2.251 . S
Mn174 O180 2.087 . S
O175 Mn169 2.163 . S
O175 C185 1.244 . S
O176 Mn174 2.089 . S
O176 C183 1.256 . S
O177 Mn169 2.160 . S
O177 C186 1.239 . S
O178 Mn171 2.089 . S
O178 C186 1.256 . S
O179 Mn174 2.251 . S
O179 C184 1.241 . S
O180 Mn174 2.087 . S
O180 C185 1.256 . S
C181 O187 1.278 . S
C181 O188 1.241 . S
C182 O168 1.244 . S
C182 O170 1.256 . S
C183 O172 1.239 . S
C183 O176 1.256 . S
C184 O173 1.278 . S
C184 O179 1.241 . S
C185 O175 1.244 . S
C185 O180 1.256 . S
C186 O177 1.239 . S
C186 O178 1.256 . S
O187 Mn169 2.221 . S
O187 Mn171 2.290 . S
O187 C181 1.278 . S
O188 Mn171 2.251 . S
O188 C181 1.241 . S
O189 Mn190 2.163 . S
O189 C203 1.244 . S
Mn190 O189 2.163 . S
Mn190 O193 2.160 . S
Mn190 O194 2.221 . S
Mn190 O196 2.163 . S
Mn190 O198 2.160 . S
Mn190 O208 2.221 . S
O191 Mn192 2.087 1_556 S
O191 C203 1.256 1_556 S
Mn192 O191 2.087 1_554 S
Mn192 O199 2.089 1_554 S
Mn192 O208 2.290 . S
Mn192 O209 2.251 . S
O193 Mn190 2.160 . S
O193 C204 1.239 . S
O194 Mn190 2.221 . S
O194 Mn195 2.290 . S
O194 C205 1.278 . S
Mn195 O194 2.290 . S
Mn195 O197 2.089 . S
Mn195 O200 2.251 . S
Mn195 O201 2.087 . S
O196 Mn190 2.163 . S
O196 C206 1.244 . S
O197 Mn195 2.089 . S
O197 C204 1.256 . S
O198 Mn190 2.160 . S
O198 C207 1.239 . S
O199 Mn192 2.089 1_556 S
O199 C207 1.256 1_556 S
O200 Mn195 2.251 . S
O200 C205 1.241 . S
O201 Mn195 2.087 . S
O201 C206 1.256 . S
C202 O208 1.278 . S
C202 O209 1.241 . S
C203 O189 1.244 . S
C203 O191 1.256 1_554 S
C204 O193 1.239 . S
C204 O197 1.256 . S
C205 O194 1.278 . S
C205 O200 1.241 . S
C206 O196 1.244 . S
C206 O201 1.256 . S
C207 O198 1.239 . S
C207 O199 1.256 1_554 S
O208 Mn190 2.221 . S
O208 Mn192 2.290 . S
O208 C202 1.278 . S
O209 Mn192 2.251 . S
O209 C202 1.241 . S
O210 Mn211 2.163 . S
O210 C224 1.244 . S
Mn211 O210 2.163 . S
Mn211 O214 2.160 . S
Mn211 O215 2.221 . S
Mn211 O217 2.163 . S
Mn211 O219 2.160 . S
Mn211 O229 2.221 . S
O212 Mn213 2.087 1_554 S
O212 C224 1.256 1_554 S
Mn213 O212 2.087 1_556 S
Mn213 O220 2.089 1_556 S
Mn213 O229 2.290 . S
Mn213 O230 2.251 . S
O214 Mn211 2.160 . S
O214 C225 1.239 . S
O215 Mn211 2.221 . S
O215 Mn216 2.290 . S
O215 C226 1.278 . S
Mn216 O215 2.290 . S
Mn216 O218 2.089 . S
Mn216 O221 2.251 . S
Mn216 O222 2.087 . S
O217 Mn211 2.163 . S
O217 C227 1.244 . S
O218 Mn216 2.089 . S
O218 C225 1.256 . S
O219 Mn211 2.160 . S
O219 C228 1.239 . S
O220 Mn213 2.089 1_554 S
O220 C228 1.256 1_554 S
O221 Mn216 2.251 . S
O221 C226 1.241 . S
O222 Mn216 2.087 . S
O222 C227 1.256 . S
C223 O229 1.278 . S
C223 O230 1.241 . S
C224 O210 1.244 . S
C224 O212 1.256 1_556 S
C225 O214 1.239 . S
C225 O218 1.256 . S
C226 O215 1.278 . S
C226 O221 1.241 . S
C227 O217 1.244 . S
C227 O222 1.256 . S
C228 O219 1.239 . S
C228 O220 1.256 1_556 S
O229 Mn211 2.221 . S
O229 Mn213 2.290 . S
O229 C223 1.278 . S
O230 Mn213 2.251 . S
O230 C223 1.241 . S
O231 Mn232 2.163 . S
O231 C245 1.244 . S
Mn232 O231 2.163 . S
Mn232 O235 2.160 . S
Mn232 O236 2.221 . S
Mn232 O238 2.163 . S
Mn232 O240 2.160 . S
Mn232 O250 2.221 . S
O233 Mn234 2.087 . S
O233 C245 1.256 . S
Mn234 O233 2.087 . S
Mn234 O241 2.089 . S
Mn234 O250 2.290 . S
Mn234 O251 2.251 . S
O235 Mn232 2.160 . S
O235 C246 1.239 . S
O236 Mn232 2.221 . S
O236 Mn237 2.290 . S
O236 C247 1.278 . S
Mn237 O236 2.290 . S
Mn237 O239 2.089 . S
Mn237 O242 2.251 . S
Mn237 O243 2.087 . S
O238 Mn232 2.163 . S
O238 C248 1.244 . S
O239 Mn237 2.089 . S
O239 C246 1.256 . S
O240 Mn232 2.160 . S
O240 C249 1.239 . S
O241 Mn234 2.089 . S
O241 C249 1.256 . S
O242 Mn237 2.251 . S
O242 C247 1.241 . S
O243 Mn237 2.087 . S
O243 C248 1.256 . S
C244 O250 1.278 . S
C244 O251 1.241 . S
C245 O231 1.244 . S
C245 O233 1.256 . S
C246 O235 1.239 . S
C246 O239 1.256 . S
C247 O236 1.278 . S
C247 O242 1.241 . S
C248 O238 1.244 . S
C248 O243 1.256 . S
C249 O240 1.239 . S
C249 O241 1.256 . S
O250 Mn232 2.221 . S
O250 Mn234 2.290 . S
O250 C244 1.278 . S
O251 Mn234 2.251 . S
O251 C244 1.241 . S
O252 Mn253 2.163 . S
O252 C266 1.244 . S
Mn253 O252 2.163 . S
Mn253 O256 2.160 . S
Mn253 O257 2.221 . S
Mn253 O259 2.163 . S
Mn253 O261 2.160 . S
Mn253 O271 2.221 . S
O254 Mn255 2.087 . S
O254 C266 1.256 . S
Mn255 O254 2.087 . S
Mn255 O262 2.089 . S
Mn255 O271 2.290 . S
Mn255 O272 2.251 . S
O256 Mn253 2.160 . S
O256 C267 1.239 . S
O257 Mn253 2.221 . S
O257 Mn258 2.290 . S
O257 C268 1.278 . S
Mn258 O257 2.290 . S
Mn258 O260 2.089 . S
Mn258 O263 2.251 . S
Mn258 O264 2.087 . S
O259 Mn253 2.163 . S
O259 C269 1.244 . S
O260 Mn258 2.089 . S
O260 C267 1.256 . S
O261 Mn253 2.160 . S
O261 C270 1.239 . S
O262 Mn255 2.089 . S
O262 C270 1.256 . S
O263 Mn258 2.251 . S
O263 C268 1.241 . S
O264 Mn258 2.087 . S
O264 C269 1.256 . S
C265 O271 1.278 . S
C265 O272 1.241 . S
C266 O252 1.244 . S
C266 O254 1.256 . S
C267 O256 1.239 . S
C267 O260 1.256 . S
C268 O257 1.278 . S
C268 O263 1.241 . S
C269 O259 1.244 . S
C269 O264 1.256 . S
C270 O261 1.239 . S
C270 O262 1.256 . S
O271 Mn253 2.221 . S
O271 Mn255 2.290 . S
O271 C265 1.278 . S
O272 Mn255 2.251 . S
O272 C265 1.241 . S
O273 Mn274 2.163 1_655 S
O273 C287 1.244 . S
Mn274 O273 2.163 1_455 S
Mn274 O277 2.160 . S
Mn274 O278 2.221 . S
Mn274 O280 2.163 1_455 S
Mn274 O282 2.160 . S
Mn274 O292 2.221 . S
O275 Mn276 2.087 1_655 S
O275 C287 1.256 . S
Mn276 O275 2.087 1_455 S
Mn276 O283 2.089 1_554 S
Mn276 O292 2.290 . S
Mn276 O293 2.251 1_455 S
O277 Mn274 2.160 . S
O277 C288 1.239 . S
O278 Mn274 2.221 . S
O278 Mn279 2.290 . S
O278 C289 1.278 1_455 S
Mn279 O278 2.290 . S
Mn279 O281 2.089 . S
Mn279 O284 2.251 1_455 S
Mn279 O285 2.087 1_455 S
O280 Mn274 2.163 1_655 S
O280 C290 1.244 . S
O281 Mn279 2.089 . S
O281 C288 1.256 . S
O282 Mn274 2.160 . S
O282 C291 1.239 . S
O283 Mn276 2.089 1_556 S
O283 C291 1.256 1_556 S
O284 Mn279 2.251 1_655 S
O284 C289 1.241 . S
O285 Mn279 2.087 1_655 S
O285 C290 1.256 . S
C286 O292 1.278 1_655 S
C286 O293 1.241 . S
C287 O273 1.244 . S
C287 O275 1.256 . S
C288 O277 1.239 . S
C288 O281 1.256 . S
C289 O278 1.278 1_655 S
C289 O284 1.241 . S
C290 O280 1.244 . S
C290 O285 1.256 . S
C291 O282 1.239 . S
C291 O283 1.256 1_554 S
O292 Mn274 2.221 . S
O292 Mn276 2.290 . S
O292 C286 1.278 1_455 S
O293 Mn276 2.251 1_655 S
O293 C286 1.241 . S
O294 Mn295 2.163 . S
O294 C308 1.244 . S
Mn295 O294 2.163 . S
Mn295 O298 2.160 . S
Mn295 O299 2.221 . S
Mn295 O301 2.163 . S
Mn295 O303 2.160 . S
Mn295 O313 2.221 . S
O296 Mn297 2.087 . S
O296 C308 1.256 . S
Mn297 O296 2.087 . S
Mn297 O304 2.089 . S
Mn297 O313 2.290 . S
Mn297 O314 2.251 . S
O298 Mn295 2.160 . S
O298 C309 1.239 . S
O299 Mn295 2.221 . S
O299 Mn300 2.290 . S
O299 C310 1.278 . S
Mn300 O299 2.290 . S
Mn300 O302 2.089 . S
Mn300 O305 2.251 . S
Mn300 O306 2.087 . S
O301 Mn295 2.163 . S
O301 C311 1.244 . S
O302 Mn300 2.089 . S
O302 C309 1.256 . S
O303 Mn295 2.160 . S
O303 C312 1.239 . S
O304 Mn297 2.089 . S
O304 C312 1.256 . S
O305 Mn300 2.251 . S
O305 C310 1.241 . S
O306 Mn300 2.087 . S
O306 C311 1.256 . S
C307 O313 1.278 . S
C307 O314 1.241 . S
C308 O294 1.244 . S
C308 O296 1.256 . S
C309 O298 1.239 . S
C309 O302 1.256 . S
C310 O299 1.278 . S
C310 O305 1.241 . S
C311 O301 1.244 . S
C311 O306 1.256 . S
C312 O303 1.239 . S
C312 O304 1.256 . S
O313 Mn295 2.221 . S
O313 Mn297 2.290 . S
O313 C307 1.278 . S
O314 Mn297 2.251 . S
O314 C307 1.241 . S
O315 Mn316 2.163 1_655 S
O315 C329 1.244 . S
Mn316 O315 2.163 1_455 S
Mn316 O319 2.160 . S
Mn316 O320 2.221 . S
Mn316 O322 2.163 1_455 S
Mn316 O324 2.160 . S
Mn316 O334 2.221 . S
O317 Mn318 2.087 1_655 S
O317 C329 1.256 . S
Mn318 O317 2.087 1_455 S
Mn318 O325 2.089 1_556 S
Mn318 O334 2.290 . S
Mn318 O335 2.251 1_455 S
O319 Mn316 2.160 . S
O319 C330 1.239 . S
O320 Mn316 2.221 . S
O320 Mn321 2.290 . S
O320 C331 1.278 1_455 S
Mn321 O320 2.290 . S
Mn321 O323 2.089 . S
Mn321 O326 2.251 1_455 S
Mn321 O327 2.087 1_455 S
O322 Mn316 2.163 1_655 S
O322 C332 1.244 . S
O323 Mn321 2.089 . S
O323 C330 1.256 . S
O324 Mn316 2.160 . S
O324 C333 1.239 . S
O325 Mn318 2.089 1_554 S
O325 C333 1.256 1_554 S
O326 Mn321 2.251 1_655 S
O326 C331 1.241 . S
O327 Mn321 2.087 1_655 S
O327 C332 1.256 . S
C328 O334 1.278 1_655 S
C328 O335 1.241 . S
C329 O315 1.244 . S
C329 O317 1.256 . S
C330 O319 1.239 . S
C330 O323 1.256 . S
C331 O320 1.278 1_655 S
C331 O326 1.241 . S
C332 O322 1.244 . S
C332 O327 1.256 . S
C333 O324 1.239 . S
C333 O325 1.256 1_556 S
O334 Mn316 2.221 . S
O334 Mn318 2.290 . S
O334 C328 1.278 1_455 S
O335 Mn318 2.251 1_655 S
O335 C328 1.241 . S
H336 C342 0.930 . S
H337 C345 0.930 . S
H338 C346 0.930 . S
H339 C347 0.930 . S
H340 C350 0.930 . S
H341 C351 0.930 . S
C342 H336 0.930 . S
C342 C343 1.355 . S
C342 C344 1.415 . S
C343 C342 1.355 . S
C343 C345 1.419 . S
C344 C342 1.415 . S
C344 C349 1.425 . S
C344 C351 1.409 . S
C345 H337 0.930 . S
C345 C343 1.419 . S
C345 C346 1.362 . S
C346 H338 0.930 . S
C346 C345 1.362 . S
C346 C349 1.409 . S
C347 H339 0.930 . S
C347 C348 1.355 . S
C347 C349 1.415 . S
C348 C347 1.355 . S
C348 C350 1.419 . S
C349 C344 1.425 . S
C349 C346 1.409 . S
C349 C347 1.415 . S
C350 H340 0.930 . S
C350 C348 1.419 . S
C350 C351 1.362 . S
C351 H341 0.930 . S
C351 C344 1.409 . S
C351 C350 1.362 . S
H352 C358 0.930 . S
H353 C361 0.930 . S
H354 C362 0.930 . S
H355 C363 0.930 . S
H356 C366 0.930 . S
H357 C367 0.930 . S
C358 H352 0.930 . S
C358 C359 1.355 . S
C358 C360 1.415 . S
C359 C358 1.355 . S
C359 C361 1.419 . S
C360 C358 1.415 . S
C360 C365 1.425 . S
C360 C367 1.409 . S
C361 H353 0.930 . S
C361 C359 1.419 . S
C361 C362 1.362 . S
C362 H354 0.930 . S
C362 C361 1.362 . S
C362 C365 1.409 . S
C363 H355 0.930 . S
C363 C364 1.355 . S
C363 C365 1.415 . S
C364 C363 1.355 . S
C364 C366 1.419 . S
C365 C360 1.425 . S
C365 C362 1.409 . S
C365 C363 1.415 . S
C366 H356 0.930 . S
C366 C364 1.419 . S
C366 C367 1.362 . S
C367 H357 0.930 . S
C367 C360 1.409 . S
C367 C366 1.362 . S
H368 C374 0.930 . S
H369 C377 0.930 . S
H370 C378 0.930 . S
H371 C379 0.930 . S
H372 C382 0.930 . S
H373 C383 0.930 . S
C374 H368 0.930 . S
C374 C375 1.355 . S
C374 C376 1.415 . S
C375 C374 1.355 . S
C375 C377 1.419 . S
C376 C374 1.415 . S
C376 C381 1.425 . S
C376 C383 1.409 . S
C377 H369 0.930 . S
C377 C375 1.419 . S
C377 C378 1.362 . S
C378 H370 0.930 . S
C378 C377 1.362 . S
C378 C381 1.409 . S
C379 H371 0.930 . S
C379 C380 1.355 . S
C379 C381 1.415 . S
C380 C379 1.355 . S
C380 C382 1.419 . S
C381 C376 1.425 . S
C381 C378 1.409 . S
C381 C379 1.415 . S
C382 H372 0.930 . S
C382 C380 1.419 . S
C382 C383 1.362 . S
C383 H373 0.930 . S
C383 C376 1.409 . S
C383 C382 1.362 . S
H384 C390 0.930 . S
H385 C393 0.930 . S
H386 C394 0.930 . S
H387 C395 0.930 . S
H388 C398 0.930 . S
H389 C399 0.930 . S
C390 H384 0.930 . S
C390 C391 1.355 . S
C390 C392 1.415 . S
C391 C390 1.355 . S
C391 C393 1.419 . S
C392 C390 1.415 . S
C392 C397 1.425 . S
C392 C399 1.409 . S
C393 H385 0.930 . S
C393 C391 1.419 . S
C393 C394 1.362 . S
C394 H386 0.930 . S
C394 C393 1.362 . S
C394 C397 1.409 . S
C395 H387 0.930 . S
C395 C396 1.355 . S
C395 C397 1.415 . S
C396 C395 1.355 . S
C396 C398 1.419 . S
C397 C392 1.425 . S
C397 C394 1.409 . S
C397 C395 1.415 . S
C398 H388 0.930 . S
C398 C396 1.419 . S
C398 C399 1.362 . S
C399 H389 0.930 . S
C399 C392 1.409 . S
C399 C398 1.362 . S
H400 C406 0.930 . S
H401 C409 0.930 . S
H402 C410 0.930 . S
H403 C411 0.930 . S
H404 C414 0.930 1_556 S
H405 C415 0.930 . S
C406 H400 0.930 . S
C406 C407 1.355 . S
C406 C408 1.415 . S
C407 C406 1.355 . S
C407 C409 1.419 . S
C408 C406 1.415 . S
C408 C413 1.425 . S
C408 C415 1.409 . S
C409 H401 0.930 . S
C409 C407 1.419 . S
C409 C410 1.362 . S
C410 H402 0.930 . S
C410 C409 1.362 . S
C410 C413 1.409 . S
C411 H403 0.930 . S
C411 C412 1.355 . S
C411 C413 1.415 . S
C412 C411 1.355 . S
C412 C414 1.419 . S
C413 C408 1.425 . S
C413 C410 1.409 . S
C413 C411 1.415 . S
C414 H404 0.930 1_554 S
C414 C412 1.419 . S
C414 C415 1.362 . S
C415 H405 0.930 . S
C415 C408 1.409 . S
C415 C414 1.362 . S
H416 C422 0.930 . S
H417 C425 0.930 . S
H418 C426 0.930 . S
H419 C427 0.930 . S
H420 C430 0.930 . S
H421 C431 0.930 . S
C422 H416 0.930 . S
C422 C423 1.355 . S
C422 C424 1.415 . S
C423 C422 1.355 . S
C423 C425 1.419 . S
C424 C422 1.415 . S
C424 C429 1.425 . S
C424 C431 1.409 . S
C425 H417 0.930 . S
C425 C423 1.419 . S
C425 C426 1.362 . S
C426 H418 0.930 . S
C426 C425 1.362 . S
C426 C429 1.409 . S
C427 H419 0.930 . S
C427 C428 1.355 . S
C427 C429 1.415 . S
C428 C427 1.355 . S
C428 C430 1.419 . S
C429 C424 1.425 . S
C429 C426 1.409 . S
C429 C427 1.415 . S
C430 H420 0.930 . S
C430 C428 1.419 . S
C430 C431 1.362 . S
C431 H421 0.930 . S
C431 C424 1.409 . S
C431 C430 1.362 . S
H432 C438 0.930 . S
H433 C441 0.930 . S
H434 C442 0.930 . S
H435 C443 0.930 . S
H436 C446 0.930 . S
H437 C447 0.930 . S
C438 H432 0.930 . S
C438 C439 1.355 . S
C438 C440 1.415 . S
C439 C438 1.355 . S
C439 C441 1.419 . S
C440 C438 1.415 . S
C440 C445 1.425 . S
C440 C447 1.409 . S
C441 H433 0.930 . S
C441 C439 1.419 . S
C441 C442 1.362 . S
C442 H434 0.930 . S
C442 C441 1.362 . S
C442 C445 1.409 . S
C443 H435 0.930 . S
C443 C444 1.355 . S
C443 C445 1.415 . S
C444 C443 1.355 . S
C444 C446 1.419 . S
C445 C440 1.425 . S
C445 C442 1.409 . S
C445 C443 1.415 . S
C446 H436 0.930 . S
C446 C444 1.419 . S
C446 C447 1.362 . S
C447 H437 0.930 . S
C447 C440 1.409 . S
C447 C446 1.362 . S
H448 C454 0.930 . S
H449 C457 0.930 . S
H450 C458 0.930 . S
H451 C459 0.930 . S
H452 C462 0.930 . S
H453 C463 0.930 . S
C454 H448 0.930 . S
C454 C455 1.355 . S
C454 C456 1.415 . S
C455 C454 1.355 . S
C455 C457 1.419 . S
C456 C454 1.415 . S
C456 C461 1.425 . S
C456 C463 1.409 . S
C457 H449 0.930 . S
C457 C455 1.419 . S
C457 C458 1.362 . S
C458 H450 0.930 . S
C458 C457 1.362 . S
C458 C461 1.409 . S
C459 H451 0.930 . S
C459 C460 1.355 . S
C459 C461 1.415 . S
C460 C459 1.355 . S
C460 C462 1.419 . S
C461 C456 1.425 . S
C461 C458 1.409 . S
C461 C459 1.415 . S
C462 H452 0.930 . S
C462 C460 1.419 . S
C462 C463 1.362 . S
C463 H453 0.930 . S
C463 C456 1.409 . S
C463 C462 1.362 . S
H464 C470 0.930 . S
H465 C473 0.930 . S
H466 C474 0.930 . S
H467 C475 0.930 . S
H468 C478 0.930 . S
H469 C479 0.930 . S
C470 H464 0.930 . S
C470 C471 1.355 . S
C470 C472 1.415 . S
C471 C470 1.355 . S
C471 C473 1.419 . S
C472 C470 1.415 . S
C472 C477 1.425 . S
C472 C479 1.409 . S
C473 H465 0.930 . S
C473 C471 1.419 . S
C473 C474 1.362 . S
C474 H466 0.930 . S
C474 C473 1.362 . S
C474 C477 1.409 . S
C475 H467 0.930 . S
C475 C476 1.355 . S
C475 C477 1.415 . S
C476 C475 1.355 . S
C476 C478 1.419 . S
C477 C472 1.425 . S
C477 C474 1.409 . S
C477 C475 1.415 . S
C478 H468 0.930 . S
C478 C476 1.419 . S
C478 C479 1.362 . S
C479 H469 0.930 . S
C479 C472 1.409 . S
C479 C478 1.362 . S
H480 C486 0.930 . S
H481 C489 0.930 . S
H482 C490 0.930 . S
H483 C491 0.930 . S
H484 C494 0.930 . S
H485 C495 0.930 . S
C486 H480 0.930 . S
C486 C487 1.355 . S
C486 C488 1.415 . S
C487 C486 1.355 . S
C487 C489 1.419 . S
C488 C486 1.415 . S
C488 C493 1.425 . S
C488 C495 1.409 . S
C489 H481 0.930 . S
C489 C487 1.419 . S
C489 C490 1.362 . S
C490 H482 0.930 . S
C490 C489 1.362 . S
C490 C493 1.409 . S
C491 H483 0.930 . S
C491 C492 1.355 . S
C491 C493 1.415 . S
C492 C491 1.355 . S
C492 C494 1.419 . S
C493 C488 1.425 . S
C493 C490 1.409 . S
C493 C491 1.415 . S
C494 H484 0.930 . S
C494 C492 1.419 . S
C494 C495 1.362 . S
C495 H485 0.930 . S
C495 C488 1.409 . S
C495 C494 1.362 . S
H496 C502 0.930 . S
H497 C505 0.930 . S
H498 C506 0.930 . S
H499 C507 0.930 . S
H500 C510 0.930 . S
H501 C511 0.930 . S
C502 H496 0.930 . S
C502 C503 1.355 . S
C502 C504 1.415 . S
C503 C502 1.355 . S
C503 C505 1.419 . S
C504 C502 1.415 . S
C504 C509 1.425 . S
C504 C511 1.409 . S
C505 H497 0.930 . S
C505 C503 1.419 . S
C505 C506 1.362 . S
C506 H498 0.930 . S
C506 C505 1.362 . S
C506 C509 1.409 . S
C507 H499 0.930 . S
C507 C508 1.355 . S
C507 C509 1.415 . S
C508 C507 1.355 . S
C508 C510 1.419 . S
C509 C504 1.425 . S
C509 C506 1.409 . S
C509 C507 1.415 . S
C510 H500 0.930 . S
C510 C508 1.419 . S
C510 C511 1.362 . S
C511 H501 0.930 . S
C511 C504 1.409 . S
C511 C510 1.362 . S
H512 C518 0.930 . S
H513 C521 0.930 . S
H514 C522 0.930 . S
H515 C523 0.930 . S
H516 C526 0.930 . S
H517 C527 0.930 . S
C518 H512 0.930 . S
C518 C519 1.355 . S
C518 C520 1.415 . S
C519 C518 1.355 . S
C519 C521 1.419 . S
C520 C518 1.415 . S
C520 C525 1.425 . S
C520 C527 1.409 . S
C521 H513 0.930 . S
C521 C519 1.419 . S
C521 C522 1.362 . S
C522 H514 0.930 . S
C522 C521 1.362 . S
C522 C525 1.409 . S
C523 H515 0.930 . S
C523 C524 1.355 . S
C523 C525 1.415 . S
C524 C523 1.355 . S
C524 C526 1.419 . S
C525 C520 1.425 . S
C525 C522 1.409 . S
C525 C523 1.415 . S
C526 H516 0.930 . S
C526 C524 1.419 . S
C526 C527 1.362 . S
C527 H517 0.930 . S
C527 C520 1.409 . S
C527 C526 1.362 . S
H528 C534 0.930 . S
H529 C537 0.930 . S
H530 C538 0.930 . S
H531 C539 0.930 . S
H532 C542 0.930 . S
H533 C543 0.930 . S
C534 H528 0.930 . S
C534 C535 1.355 . S
C534 C536 1.415 . S
C535 C534 1.355 . S
C535 C537 1.419 . S
C536 C534 1.415 . S
C536 C541 1.425 . S
C536 C543 1.409 . S
C537 H529 0.930 . S
C537 C535 1.419 . S
C537 C538 1.362 . S
C538 H530 0.930 . S
C538 C537 1.362 . S
C538 C541 1.409 . S
C539 H531 0.930 . S
C539 C540 1.355 . S
C539 C541 1.415 . S
C540 C539 1.355 . S
C540 C542 1.419 . S
C541 C536 1.425 . S
C541 C538 1.409 . S
C541 C539 1.415 . S
C542 H532 0.930 . S
C542 C540 1.419 . S
C542 C543 1.362 . S
C543 H533 0.930 . S
C543 C536 1.409 . S
C543 C542 1.362 . S
H544 C550 0.930 . S
H545 C553 0.930 . S
H546 C554 0.930 . S
H547 C555 0.930 . S
H548 C558 0.930 . S
H549 C559 0.930 . S
C550 H544 0.930 . S
C550 C551 1.355 . S
C550 C552 1.415 . S
C551 C550 1.355 . S
C551 C553 1.419 . S
C552 C550 1.415 . S
C552 C557 1.425 . S
C552 C559 1.409 . S
C553 H545 0.930 . S
C553 C551 1.419 . S
C553 C554 1.362 . S
C554 H546 0.930 . S
C554 C553 1.362 . S
C554 C557 1.409 . S
C555 H547 0.930 . S
C555 C556 1.355 . S
C555 C557 1.415 . S
C556 C555 1.355 . S
C556 C558 1.419 . S
C557 C552 1.425 . S
C557 C554 1.409 . S
C557 C555 1.415 . S
C558 H548 0.930 . S
C558 C556 1.419 . S
C558 C559 1.362 . S
C559 H549 0.930 . S
C559 C552 1.409 . S
C559 C558 1.362 . S
H560 C566 0.930 . S
H561 C569 0.930 . S
H562 C570 0.930 . S
H563 C571 0.930 . S
H564 C574 0.930 1_556 S
H565 C575 0.930 . S
C566 H560 0.930 . S
C566 C567 1.355 . S
C566 C568 1.415 . S
C567 C566 1.355 . S
C567 C569 1.419 . S
C568 C566 1.415 . S
C568 C573 1.425 . S
C568 C575 1.409 . S
C569 H561 0.930 . S
C569 C567 1.419 . S
C569 C570 1.362 . S
C570 H562 0.930 . S
C570 C569 1.362 . S
C570 C573 1.409 . S
C571 H563 0.930 . S
C571 C572 1.355 . S
C571 C573 1.415 . S
C572 C571 1.355 . S
C572 C574 1.419 . S
C573 C568 1.425 . S
C573 C570 1.409 . S
C573 C571 1.415 . S
C574 H564 0.930 1_554 S
C574 C572 1.419 . S
C574 C575 1.362 . S
C575 H565 0.930 . S
C575 C568 1.409 . S
C575 C574 1.362 . S
H576 C582 0.930 . S
H577 C585 0.930 . S
H578 C586 0.930 . S
H579 C587 0.930 . S
H580 C590 0.930 . S
H581 C591 0.930 . S
C582 H576 0.930 . S
C582 C583 1.355 . S
C582 C584 1.415 . S
C583 C582 1.355 . S
C583 C585 1.419 . S
C584 C582 1.415 . S
C584 C589 1.425 . S
C584 C591 1.409 . S
C585 H577 0.930 . S
C585 C583 1.419 . S
C585 C586 1.362 . S
C586 H578 0.930 . S
C586 C585 1.362 . S
C586 C589 1.409 . S
C587 H579 0.930 . S
C587 C588 1.355 . S
C587 C589 1.415 . S
C588 C587 1.355 . S
C588 C590 1.419 . S
C589 C584 1.425 . S
C589 C586 1.409 . S
C589 C587 1.415 . S
C590 H580 0.930 . S
C590 C588 1.419 . S
C590 C591 1.362 . S
C591 H581 0.930 . S
C591 C584 1.409 . S
C591 C590 1.362 . S
H592 C598 0.930 . S
H593 C601 0.930 . S
H594 C602 0.930 . S
H595 C603 0.930 . S
H596 C606 0.930 . S
H597 C607 0.930 . S
C598 H592 0.930 . S
C598 C599 1.355 . S
C598 C600 1.415 1_655 S
C599 C598 1.355 . S
C599 C601 1.419 . S
C600 C598 1.415 1_455 S
C600 C605 1.425 . S
C600 C607 1.409 . S
C601 H593 0.930 . S
C601 C599 1.419 . S
C601 C602 1.362 . S
C602 H594 0.930 . S
C602 C601 1.362 . S
C602 C605 1.409 1_655 S
C603 H595 0.930 . S
C603 C604 1.355 . S
C603 C605 1.415 . S
C604 C603 1.355 . S
C604 C606 1.419 . S
C605 C600 1.425 . S
C605 C602 1.409 1_455 S
C605 C603 1.415 . S
C606 H596 0.930 . S
C606 C604 1.419 . S
C606 C607 1.362 . S
C607 H597 0.930 . S
C607 C600 1.409 . S
C607 C606 1.362 . S
H608 C614 0.930 . S
H609 C617 0.930 . S
H610 C618 0.930 . S
H611 C619 0.930 . S
H612 C622 0.930 . S
H613 C623 0.930 . S
C614 H608 0.930 . S
C614 C615 1.355 . S
C614 C616 1.415 1_655 S
C615 C614 1.355 . S
C615 C617 1.419 . S
C616 C614 1.415 1_455 S
C616 C621 1.425 . S
C616 C623 1.409 . S
C617 H609 0.930 . S
C617 C615 1.419 . S
C617 C618 1.362 . S
C618 H610 0.930 . S
C618 C617 1.362 . S
C618 C621 1.409 1_655 S
C619 H611 0.930 . S
C619 C620 1.355 . S
C619 C621 1.415 . S
C620 C619 1.355 . S
C620 C622 1.419 . S
C621 C616 1.425 . S
C621 C618 1.409 1_455 S
C621 C619 1.415 . S
C622 H612 0.930 . S
C622 C620 1.419 . S
C622 C623 1.362 . S
C623 H613 0.930 . S
C623 C616 1.409 . S
C623 C622 1.362 . S
H624 C630 0.930 . S
H625 C633 0.930 . S
H626 C634 0.930 . S
H627 C635 0.930 . S
H628 C638 0.930 . S
H629 C639 0.930 . S
C630 H624 0.930 . S
C630 C631 1.355 . S
C630 C632 1.415 . S
C631 C630 1.355 . S
C631 C633 1.419 . S
C632 C630 1.415 . S
C632 C637 1.425 . S
C632 C639 1.409 . S
C633 H625 0.930 . S
C633 C631 1.419 . S
C633 C634 1.362 . S
C634 H626 0.930 . S
C634 C633 1.362 . S
C634 C637 1.409 . S
C635 H627 0.930 . S
C635 C636 1.355 . S
C635 C637 1.415 . S
C636 C635 1.355 . S
C636 C638 1.419 . S
C637 C632 1.425 . S
C637 C634 1.409 . S
C637 C635 1.415 . S
C638 H628 0.930 . S
C638 C636 1.419 . S
C638 C639 1.362 . S
C639 H629 0.930 . S
C639 C632 1.409 . S
C639 C638 1.362 . S
H640 C646 0.930 . S
H641 C649 0.930 . S
H642 C650 0.930 . S
H643 C651 0.930 . S
H644 C654 0.930 . S
H645 C655 0.930 . S
C646 H640 0.930 . S
C646 C647 1.355 . S
C646 C648 1.415 . S
C647 C646 1.355 . S
C647 C649 1.419 . S
C648 C646 1.415 . S
C648 C653 1.425 . S
C648 C655 1.409 . S
C649 H641 0.930 . S
C649 C647 1.419 . S
C649 C650 1.362 . S
C650 H642 0.930 . S
C650 C649 1.362 . S
C650 C653 1.409 . S
C651 H643 0.930 . S
C651 C652 1.355 . S
C651 C653 1.415 . S
C652 C651 1.355 . S
C652 C654 1.419 . S
C653 C648 1.425 . S
C653 C650 1.409 . S
C653 C651 1.415 . S
C654 H644 0.930 . S
C654 C652 1.419 . S
C654 C655 1.362 . S
C655 H645 0.930 . S
C655 C648 1.409 . S
C655 C654 1.362 . S
H656 C662 0.930 . S
H657 C665 0.930 . S
H658 C666 0.930 . S
H659 C667 0.930 . S
H660 C670 0.930 . S
H661 C671 0.930 . S
C662 H656 0.930 . S
C662 C663 1.355 1_655 S
C662 C664 1.415 . S
C663 C662 1.355 1_455 S
C663 C665 1.419 . S
C664 C662 1.415 . S
C664 C669 1.425 1_655 S
C664 C671 1.409 . S
C665 H657 0.930 . S
C665 C663 1.419 . S
C665 C666 1.362 . S
C666 H658 0.930 . S
C666 C665 1.362 . S
C666 C669 1.409 . S
C667 H659 0.930 . S
C667 C668 1.355 1_455 S
C667 C669 1.415 . S
C668 C667 1.355 1_655 S
C668 C670 1.419 . S
C669 C664 1.425 1_455 S
C669 C666 1.409 . S
C669 C667 1.415 . S
C670 H660 0.930 . S
C670 C668 1.419 . S
C670 C671 1.362 . S
C671 H661 0.930 . S
C671 C664 1.409 . S
C671 C670 1.362 . S
H672 C678 0.930 . S
H673 C681 0.930 . S
H674 C682 0.930 . S
H675 C683 0.930 . S
H676 C686 0.930 . S
H677 C687 0.930 1_556 S
C678 H672 0.930 . S
C678 C679 1.355 . S
C678 C680 1.415 . S
C679 C678 1.355 . S
C679 C681 1.419 . S
C680 C678 1.415 . S
C680 C685 1.425 . S
C680 C687 1.409 . S
C681 H673 0.930 . S
C681 C679 1.419 . S
C681 C682 1.362 . S
C682 H674 0.930 . S
C682 C681 1.362 . S
C682 C685 1.409 . S
C683 H675 0.930 . S
C683 C684 1.355 . S
C683 C685 1.415 . S
C684 C683 1.355 . S
C684 C686 1.419 . S
C685 C680 1.425 . S
C685 C682 1.409 . S
C685 C683 1.415 . S
C686 H676 0.930 . S
C686 C684 1.419 . S
C686 C687 1.362 . S
C687 H677 0.930 1_554 S
C687 C680 1.409 . S
C687 C686 1.362 . S
H688 C694 0.930 . S
H689 C697 0.930 . S
H690 C698 0.930 . S
H691 C699 0.930 . S
H692 C702 0.930 . S
H693 C703 0.930 . S
C694 H688 0.930 . S
C694 C695 1.355 . S
C694 C696 1.415 . S
C695 C694 1.355 . S
C695 C697 1.419 . S
C696 C694 1.415 . S
C696 C701 1.425 . S
C696 C703 1.409 . S
C697 H689 0.930 . S
C697 C695 1.419 . S
C697 C698 1.362 . S
C698 H690 0.930 . S
C698 C697 1.362 . S
C698 C701 1.409 . S
C699 H691 0.930 . S
C699 C700 1.355 . S
C699 C701 1.415 . S
C700 C699 1.355 . S
C700 C702 1.419 . S
C701 C696 1.425 . S
C701 C698 1.409 . S
C701 C699 1.415 . S
C702 H692 0.930 . S
C702 C700 1.419 . S
C702 C703 1.362 . S
C703 H693 0.930 . S
C703 C696 1.409 . S
C703 C702 1.362 . S
H704 C710 0.930 . S
H705 C713 0.930 . S
H706 C714 0.930 1_655 S
H707 C715 0.930 . S
H708 C718 0.930 . S
H709 C719 0.930 1_455 S
C710 H704 0.930 . S
C710 C711 1.355 . S
C710 C712 1.415 . S
C711 C710 1.355 . S
C711 C713 1.419 . S
C712 C710 1.415 . S
C712 C717 1.425 1_455 S
C712 C719 1.409 1_455 S
C713 H705 0.930 . S
C713 C711 1.419 . S
C713 C714 1.362 . S
C714 H706 0.930 1_455 S
C714 C713 1.362 . S
C714 C717 1.409 1_455 S
C715 H707 0.930 . S
C715 C716 1.355 . S
C715 C717 1.415 . S
C716 C715 1.355 . S
C716 C718 1.419 . S
C717 C712 1.425 1_655 S
C717 C714 1.409 1_655 S
C717 C715 1.415 . S
C718 H708 0.930 . S
C718 C716 1.419 . S
C718 C719 1.362 . S
C719 H709 0.930 1_655 S
C719 C712 1.409 1_655 S
C719 C718 1.362 . S
H720 C726 0.930 . S
H721 C729 0.926 1_655 S
H722 C730 0.930 1_655 S
H723 C731 0.929 1_655 S
H724 C734 0.930 . S
H725 C735 0.930 . S
C726 H720 0.930 . S
C726 C727 1.355 . S
C726 C728 1.415 1_545 S
C727 C726 1.355 . S
C727 C729 1.419 . S
C728 C726 1.415 1_565 S
C728 C733 1.425 1_564 S
C728 C735 1.409 . S
C729 H721 0.926 1_455 S
C729 C727 1.419 . S
C729 C730 1.362 1_554 S
C730 H722 0.930 1_455 S
C730 C729 1.362 1_556 S
C730 C733 1.409 . S
C731 H723 0.929 1_455 S
C731 C732 1.355 . S
C731 C733 1.415 1_565 S
C732 C731 1.355 . S
C732 C734 1.419 . S
C733 C728 1.425 1_546 S
C733 C730 1.409 . S
C733 C731 1.415 1_545 S
C734 H724 0.930 . S
C734 C732 1.419 . S
C734 C735 1.362 1_556 S
C735 H725 0.930 . S
C735 C728 1.409 . S
C735 C734 1.362 1_554 S
H736 C742 0.930 . S
H737 C745 0.930 . S
H738 C746 0.930 . S
H739 C747 0.930 . S
H740 C750 0.930 . S
H741 C751 0.930 . S
C742 H736 0.930 . S
C742 C743 1.355 . S
C742 C744 1.415 . S
C743 C742 1.355 . S
C743 C745 1.419 . S
C744 C742 1.415 . S
C744 C749 1.425 . S
C744 C751 1.409 . S
C745 H737 0.930 . S
C745 C743 1.419 . S
C745 C746 1.362 . S
C746 H738 0.930 . S
C746 C745 1.362 . S
C746 C749 1.409 . S
C747 H739 0.930 . S
C747 C748 1.355 . S
C747 C749 1.415 . S
C748 C747 1.355 . S
C748 C750 1.419 . S
C749 C744 1.425 . S
C749 C746 1.409 . S
C749 C747 1.415 . S
C750 H740 0.930 . S
C750 C748 1.419 . S
C750 C751 1.362 . S
C751 H741 0.930 . S
C751 C744 1.409 . S
C751 C750 1.362 . S
H752 C758 0.930 . S
H753 C761 0.930 . S
H754 C762 0.930 . S
H755 C763 0.930 . S
H756 C766 0.930 . S
H757 C767 0.930 . S
C758 H752 0.930 . S
C758 C759 1.355 . S
C758 C760 1.415 . S
C759 C758 1.355 . S
C759 C761 1.419 . S
C760 C758 1.415 . S
C760 C765 1.425 1_545 S
C760 C767 1.409 . S
C761 H753 0.930 . S
C761 C759 1.419 . S
C761 C762 1.362 1_545 S
C762 H754 0.930 . S
C762 C761 1.362 1_565 S
C762 C765 1.409 . S
C763 H755 0.930 . S
C763 C764 1.355 . S
C763 C765 1.415 . S
C764 C763 1.355 . S
C764 C766 1.419 . S
C765 C760 1.425 1_565 S
C765 C762 1.409 . S
C765 C763 1.415 . S
C766 H756 0.930 . S
C766 C764 1.419 . S
C766 C767 1.362 1_565 S
C767 H757 0.930 . S
C767 C760 1.409 . S
C767 C766 1.362 1_545 S
H768 C774 0.930 . S
H769 C777 0.930 . S
H770 C778 0.930 . S
H771 C779 0.930 . S
H772 C782 0.930 . S
H773 C783 0.930 . S
C774 H768 0.930 . S
C774 C775 1.355 . S
C774 C776 1.415 . S
C775 C774 1.355 . S
C775 C777 1.419 . S
C776 C774 1.415 . S
C776 C781 1.425 . S
C776 C783 1.409 . S
C777 H769 0.930 . S
C777 C775 1.419 . S
C777 C778 1.362 . S
C778 H770 0.930 . S
C778 C777 1.362 . S
C778 C781 1.409 . S
C779 H771 0.930 . S
C779 C780 1.355 . S
C779 C781 1.415 . S
C780 C779 1.355 . S
C780 C782 1.419 . S
C781 C776 1.425 . S
C781 C778 1.409 . S
C781 C779 1.415 . S
C782 H772 0.930 . S
C782 C780 1.419 . S
C782 C783 1.362 . S
C783 H773 0.930 . S
C783 C776 1.409 . S
C783 C782 1.362 . S
H784 C790 0.930 . S
H785 C793 0.930 . S
H786 C794 0.930 . S
H787 C795 0.930 . S
H788 C798 0.930 . S
H789 C799 0.930 . S
C790 H784 0.930 . S
C790 C791 1.355 . S
C790 C792 1.415 . S
C791 C790 1.355 . S
C791 C793 1.419 . S
C792 C790 1.415 . S
C792 C797 1.425 . S
C792 C799 1.409 . S
C793 H785 0.930 . S
C793 C791 1.419 . S
C793 C794 1.362 . S
C794 H786 0.930 . S
C794 C793 1.362 . S
C794 C797 1.409 . S
C795 H787 0.930 . S
C795 C796 1.355 . S
C795 C797 1.415 . S
C796 C795 1.355 . S
C796 C798 1.419 . S
C797 C792 1.425 . S
C797 C794 1.409 . S
C797 C795 1.415 . S
C798 H788 0.930 . S
C798 C796 1.419 . S
C798 C799 1.362 . S
C799 H789 0.930 . S
C799 C792 1.409 . S
C799 C798 1.362 . S
H800 C806 0.930 . S
H801 C809 0.930 . S
H802 C810 0.930 . S
H803 C811 0.930 . S
H804 C814 0.930 . S
H805 C815 0.930 . S
C806 H800 0.930 . S
C806 C807 1.355 . S
C806 C808 1.415 . S
C807 C806 1.355 . S
C807 C809 1.419 . S
C808 C806 1.415 . S
C808 C813 1.425 . S
C808 C815 1.409 . S
C809 H801 0.930 . S
C809 C807 1.419 . S
C809 C810 1.362 . S
C810 H802 0.930 . S
C810 C809 1.362 . S
C810 C813 1.409 . S
C811 H803 0.930 . S
C811 C812 1.355 . S
C811 C813 1.415 . S
C812 C811 1.355 . S
C812 C814 1.419 . S
C813 C808 1.425 . S
C813 C810 1.409 . S
C813 C811 1.415 . S
C814 H804 0.930 . S
C814 C812 1.419 . S
C814 C815 1.362 . S
C815 H805 0.930 . S
C815 C808 1.409 . S
C815 C814 1.362 . S
H816 C822 0.930 . S
H817 C825 0.930 . S
H818 C826 0.930 . S
H819 C827 0.930 . S
H820 C830 0.930 . S
H821 C831 0.930 . S
C822 H816 0.930 . S
C822 C823 1.355 . S
C822 C824 1.415 . S
C823 C822 1.355 . S
C823 C825 1.419 . S
C824 C822 1.415 . S
C824 C829 1.425 . S
C824 C831 1.409 . S
C825 H817 0.930 . S
C825 C823 1.419 . S
C825 C826 1.362 . S
C826 H818 0.930 . S
C826 C825 1.362 . S
C826 C829 1.409 . S
C827 H819 0.930 . S
C827 C828 1.355 . S
C827 C829 1.415 . S
C828 C827 1.355 . S
C828 C830 1.419 . S
C829 C824 1.425 . S
C829 C826 1.409 . S
C829 C827 1.415 . S
C830 H820 0.930 . S
C830 C828 1.419 . S
C830 C831 1.362 . S
C831 H821 0.930 . S
C831 C824 1.409 . S
C831 C830 1.362 . S
H832 C838 0.930 . S
H833 C841 0.930 . S
H834 C842 0.930 . S
H835 C843 0.930 . S
H836 C846 0.930 . S
H837 C847 0.930 . S
C838 H832 0.930 . S
C838 C839 1.355 . S
C838 C840 1.415 . S
C839 C838 1.355 . S
C839 C841 1.419 1_655 S
C840 C838 1.415 . S
C840 C845 1.425 1_656 S
C840 C847 1.409 . S
C841 H833 0.930 . S
C841 C839 1.419 1_455 S
C841 C842 1.362 1_556 S
C842 H834 0.930 . S
C842 C841 1.362 1_554 S
C842 C845 1.409 . S
C843 H835 0.930 . S
C843 C844 1.355 1_455 S
C843 C845 1.415 . S
C844 C843 1.355 1_655 S
C844 C846 1.419 . S
C845 C840 1.425 1_454 S
C845 C842 1.409 . S
C845 C843 1.415 . S
C846 H836 0.930 . S
C846 C844 1.419 . S
C846 C847 1.362 1_554 S
C847 H837 0.930 . S
C847 C840 1.409 . S
C847 C846 1.362 1_556 S
H848 C854 0.930 . S
H849 C857 0.930 . S
H850 C858 0.930 . S
H851 C859 0.930 . S
H852 C862 0.930 . S
H853 C863 0.930 . S
C854 H848 0.930 . S
C854 C855 1.355 . S
C854 C856 1.415 . S
C855 C854 1.355 . S
C855 C857 1.419 . S
C856 C854 1.415 . S
C856 C861 1.425 . S
C856 C863 1.409 . S
C857 H849 0.930 . S
C857 C855 1.419 . S
C857 C858 1.362 . S
C858 H850 0.930 . S
C858 C857 1.362 . S
C858 C861 1.409 . S
C859 H851 0.930 . S
C859 C860 1.355 . S
C859 C861 1.415 . S
C860 C859 1.355 . S
C860 C862 1.419 . S
C861 C856 1.425 . S
C861 C858 1.409 . S
C861 C859 1.415 . S
C862 H852 0.930 . S
C862 C860 1.419 . S
C862 C863 1.362 . S
C863 H853 0.930 . S
C863 C856 1.409 . S
C863 C862 1.362 . S
H864 C870 0.930 . S
H865 C873 0.930 . S
H866 C874 0.930 . S
H867 C875 0.930 . S
H868 C878 0.930 . S
H869 C879 0.930 . S
C870 H864 0.930 . S
C870 C871 1.355 . S
C870 C872 1.415 . S
C871 C870 1.355 . S
C871 C873 1.419 . S
C872 C870 1.415 . S
C872 C877 1.425 . S
C872 C879 1.409 . S
C873 H865 0.930 . S
C873 C871 1.419 . S
C873 C874 1.362 . S
C874 H866 0.930 . S
C874 C873 1.362 . S
C874 C877 1.409 . S
C875 H867 0.930 . S
C875 C876 1.355 . S
C875 C877 1.415 . S
C876 C875 1.355 . S
C876 C878 1.419 . S
C877 C872 1.425 . S
C877 C874 1.409 . S
C877 C875 1.415 . S
C878 H868 0.930 . S
C878 C876 1.419 . S
C878 C879 1.362 . S
C879 H869 0.930 . S
C879 C872 1.409 . S
C879 C878 1.362 . S
H880 C886 0.930 . S
H881 C889 0.930 . S
H882 C890 0.930 . S
H883 C891 0.930 . S
H884 C894 0.930 . S
H885 C895 0.930 . S
C886 H880 0.930 . S
C886 C887 1.355 . S
C886 C888 1.415 . S
C887 C886 1.355 . S
C887 C889 1.419 . S
C888 C886 1.415 . S
C888 C893 1.425 . S
C888 C895 1.409 . S
C889 H881 0.930 . S
C889 C887 1.419 . S
C889 C890 1.362 . S
C890 H882 0.930 . S
C890 C889 1.362 . S
C890 C893 1.409 . S
C891 H883 0.930 . S
C891 C892 1.355 . S
C891 C893 1.415 . S
C892 C891 1.355 . S
C892 C894 1.419 . S
C893 C888 1.425 . S
C893 C890 1.409 . S
C893 C891 1.415 . S
C894 H884 0.930 . S
C894 C892 1.419 . S
C894 C895 1.362 . S
C895 H885 0.930 . S
C895 C888 1.409 . S
C895 C894 1.362 . S
H896 C902 0.930 . S
H897 C905 0.930 . S
H898 C906 0.930 . S
H899 C907 0.930 . S
H900 C910 0.930 . S
H901 C911 0.930 . S
C902 H896 0.930 . S
C902 C903 1.355 . S
C902 C904 1.415 . S
C903 C902 1.355 . S
C903 C905 1.419 . S
C904 C902 1.415 . S
C904 C909 1.425 . S
C904 C911 1.409 . S
C905 H897 0.930 . S
C905 C903 1.419 . S
C905 C906 1.362 . S
C906 H898 0.930 . S
C906 C905 1.362 . S
C906 C909 1.409 . S
C907 H899 0.930 . S
C907 C908 1.355 . S
C907 C909 1.415 . S
C908 C907 1.355 . S
C908 C910 1.419 . S
C909 C904 1.425 . S
C909 C906 1.409 . S
C909 C907 1.415 . S
C910 H900 0.930 . S
C910 C908 1.419 . S
C910 C911 1.362 . S
C911 H901 0.930 . S
C911 C904 1.409 . S
C911 C910 1.362 . S
H912 C918 0.930 . S
H913 C921 0.930 . S
H914 C922 0.930 . S
H915 C923 0.930 . S
H916 C926 0.930 . S
H917 C927 0.930 . S
C918 H912 0.930 . S
C918 C919 1.355 . S
C918 C920 1.415 . S
C919 C918 1.355 . S
C919 C921 1.419 . S
C920 C918 1.415 . S
C920 C925 1.425 . S
C920 C927 1.409 . S
C921 H913 0.930 . S
C921 C919 1.419 . S
C921 C922 1.362 . S
C922 H914 0.930 . S
C922 C921 1.362 . S
C922 C925 1.409 . S
C923 H915 0.930 . S
C923 C924 1.355 . S
C923 C925 1.415 . S
C924 C923 1.355 . S
C924 C926 1.419 . S
C925 C920 1.425 . S
C925 C922 1.409 . S
C925 C923 1.415 . S
C926 H916 0.930 . S
C926 C924 1.419 . S
C926 C927 1.362 . S
C927 H917 0.930 . S
C927 C920 1.409 . S
C927 C926 1.362 . S
H928 C934 0.930 . S
H929 C937 0.930 . S
H930 C938 0.930 . S
H931 C939 0.930 . S
H932 C942 0.930 . S
H933 C943 0.930 . S
C934 H928 0.930 . S
C934 C935 1.355 . S
C934 C936 1.415 . S
C935 C934 1.355 . S
C935 C937 1.419 . S
C936 C934 1.415 . S
C936 C941 1.425 . S
C936 C943 1.409 . S
C937 H929 0.930 . S
C937 C935 1.419 . S
C937 C938 1.362 . S
C938 H930 0.930 . S
C938 C937 1.362 . S
C938 C941 1.409 . S
C939 H931 0.930 . S
C939 C940 1.355 . S
C939 C941 1.415 . S
C940 C939 1.355 . S
C940 C942 1.419 . S
C941 C936 1.425 . S
C941 C938 1.409 . S
C941 C939 1.415 . S
C942 H932 0.930 . S
C942 C940 1.419 . S
C942 C943 1.362 . S
C943 H933 0.930 . S
C943 C936 1.409 . S
C943 C942 1.362 . S
H944 C950 0.930 . S
H945 C953 0.930 . S
H946 C954 0.930 . S
H947 C955 0.930 . S
H948 C958 0.930 . S
H949 C959 0.930 . S
C950 H944 0.930 . S
C950 C951 1.355 . S
C950 C952 1.415 . S
C951 C950 1.355 . S
C951 C953 1.419 . S
C952 C950 1.415 . S
C952 C957 1.425 . S
C952 C959 1.409 . S
C953 H945 0.930 . S
C953 C951 1.419 . S
C953 C954 1.362 . S
C954 H946 0.930 . S
C954 C953 1.362 . S
C954 C957 1.409 . S
C955 H947 0.930 . S
C955 C956 1.355 . S
C955 C957 1.415 . S
C956 C955 1.355 . S
C956 C958 1.419 . S
C957 C952 1.425 . S
C957 C954 1.409 . S
C957 C955 1.415 . S
C958 H948 0.930 . S
C958 C956 1.419 . S
C958 C959 1.362 . S
C959 H949 0.930 . S
C959 C952 1.409 . S
C959 C958 1.362 . S
H960 C966 0.930 . S
H961 C969 0.930 . S
H962 C970 0.930 . S
H963 C971 0.930 . S
H964 C974 0.930 . S
H965 C975 0.930 . S
C966 H960 0.930 . S
C966 C967 1.355 . S
C966 C968 1.415 . S
C967 C966 1.355 . S
C967 C969 1.419 . S
C968 C966 1.415 . S
C968 C973 1.425 . S
C968 C975 1.409 . S
C969 H961 0.930 . S
C969 C967 1.419 . S
C969 C970 1.362 . S
C970 H962 0.930 . S
C970 C969 1.362 . S
C970 C973 1.409 . S
C971 H963 0.930 . S
C971 C972 1.355 . S
C971 C973 1.415 . S
C972 C971 1.355 . S
C972 C974 1.419 . S
C973 C968 1.425 . S
C973 C970 1.409 . S
C973 C971 1.415 . S
C974 H964 0.930 . S
C974 C972 1.419 . S
C974 C975 1.362 . S
C975 H965 0.930 . S
C975 C968 1.409 . S
C975 C974 1.362 . S
H976 C982 0.930 . S
H977 C985 0.930 . S
H978 C986 0.930 . S
H979 C987 0.930 . S
H980 C990 0.930 1_554 S
H981 C991 0.930 . S
C982 H976 0.930 . S
C982 C983 1.355 . S
C982 C984 1.415 . S
C983 C982 1.355 . S
C983 C985 1.419 . S
C984 C982 1.415 . S
C984 C989 1.425 . S
C984 C991 1.409 . S
C985 H977 0.930 . S
C985 C983 1.419 . S
C985 C986 1.362 . S
C986 H978 0.930 . S
C986 C985 1.362 . S
C986 C989 1.409 . S
C987 H979 0.930 . S
C987 C988 1.355 . S
C987 C989 1.415 . S
C988 C987 1.355 . S
C988 C990 1.419 . S
C989 C984 1.425 . S
C989 C986 1.409 . S
C989 C987 1.415 . S
C990 H980 0.930 1_556 S
C990 C988 1.419 . S
C990 C991 1.362 . S
C991 H981 0.930 . S
C991 C984 1.409 . S
C991 C990 1.362 . S
H992 C998 0.930 . S
H993 C1001 0.930 . S
H994 C1002 0.930 . S
H995 C1003 0.930 . S
H996 C1006 0.930 . S
H997 C1007 0.930 . S
C998 H992 0.930 . S
C998 C999 1.355 . S
C998 C1000 1.415 . S
C999 C998 1.355 . S
C999 C1001 1.419 . S
C1000 C998 1.415 . S
C1000 C1005 1.425 . S
C1000 C1007 1.409 . S
C1001 H993 0.930 . S
C1001 C999 1.419 . S
C1001 C1002 1.362 . S
C1002 H994 0.930 . S
C1002 C1001 1.362 . S
C1002 C1005 1.409 . S
C1003 H995 0.930 . S
C1003 C1004 1.355 . S
C1003 C1005 1.415 . S
C1004 C1003 1.355 . S
C1004 C1006 1.419 . S
C1005 C1000 1.425 . S
C1005 C1002 1.409 . S
C1005 C1003 1.415 . S
C1006 H996 0.930 . S
C1006 C1004 1.419 . S
C1006 C1007 1.362 . S
C1007 H997 0.930 . S
C1007 C1000 1.409 . S
C1007 C1006 1.362 . S
H1008 C1014 0.930 . S
H1009 C1017 0.930 . S
H1010 C1018 0.930 . S
H1011 C1019 0.930 . S
H1012 C1022 0.930 . S
H1013 C1023 0.930 . S
C1014 H1008 0.930 . S
C1014 C1015 1.355 . S
C1014 C1016 1.415 . S
C1015 C1014 1.355 . S
C1015 C1017 1.419 . S
C1016 C1014 1.415 . S
C1016 C1021 1.425 . S
C1016 C1023 1.409 . S
C1017 H1009 0.930 . S
C1017 C1015 1.419 . S
C1017 C1018 1.362 . S
C1018 H1010 0.930 . S
C1018 C1017 1.362 . S
C1018 C1021 1.409 . S
C1019 H1011 0.930 . S
C1019 C1020 1.355 . S
C1019 C1021 1.415 . S
C1020 C1019 1.355 . S
C1020 C1022 1.419 . S
C1021 C1016 1.425 . S
C1021 C1018 1.409 . S
C1021 C1019 1.415 . S
C1022 H1012 0.930 . S
C1022 C1020 1.419 . S
C1022 C1023 1.362 . S
C1023 H1013 0.930 . S
C1023 C1016 1.409 . S
C1023 C1022 1.362 . S
H1024 C1030 0.930 . S
H1025 C1033 0.930 . S
H1026 C1034 0.930 . S
H1027 C1035 0.930 . S
H1028 C1038 0.930 . S
H1029 C1039 0.930 . S
C1030 H1024 0.930 . S
C1030 C1031 1.355 . S
C1030 C1032 1.415 . S
C1031 C1030 1.355 . S
C1031 C1033 1.419 . S
C1032 C1030 1.415 . S
C1032 C1037 1.425 . S
C1032 C1039 1.409 . S
C1033 H1025 0.930 . S
C1033 C1031 1.419 . S
C1033 C1034 1.362 . S
C1034 H1026 0.930 . S
C1034 C1033 1.362 . S
C1034 C1037 1.409 . S
C1035 H1027 0.930 . S
C1035 C1036 1.355 . S
C1035 C1037 1.415 . S
C1036 C1035 1.355 . S
C1036 C1038 1.419 . S
C1037 C1032 1.425 . S
C1037 C1034 1.409 . S
C1037 C1035 1.415 . S
C1038 H1028 0.930 . S
C1038 C1036 1.419 . S
C1038 C1039 1.362 . S
C1039 H1029 0.930 . S
C1039 C1032 1.409 . S
C1039 C1038 1.362 . S
H1040 C1046 0.930 . S
H1041 C1049 0.930 . S
H1042 C1050 0.930 . S
H1043 C1051 0.930 . S
H1044 C1054 0.930 . S
H1045 C1055 0.930 . S
C1046 H1040 0.930 . S
C1046 C1047 1.355 . S
C1046 C1048 1.415 . S
C1047 C1046 1.355 . S
C1047 C1049 1.419 . S
C1048 C1046 1.415 . S
C1048 C1053 1.425 . S
C1048 C1055 1.409 . S
C1049 H1041 0.930 . S
C1049 C1047 1.419 . S
C1049 C1050 1.362 . S
C1050 H1042 0.930 . S
C1050 C1049 1.362 . S
C1050 C1053 1.409 . S
C1051 H1043 0.930 . S
C1051 C1052 1.355 . S
C1051 C1053 1.415 . S
C1052 C1051 1.355 . S
C1052 C1054 1.419 . S
C1053 C1048 1.425 . S
C1053 C1050 1.409 . S
C1053 C1051 1.415 . S
C1054 H1044 0.930 . S
C1054 C1052 1.419 . S
C1054 C1055 1.362 . S
C1055 H1045 0.930 . S
C1055 C1048 1.409 . S
C1055 C1054 1.362 . S
H1056 C1062 0.930 . S
H1057 C1065 0.930 1_554 S
H1058 C1066 0.930 . S
H1059 C1067 0.930 . S
H1060 C1070 0.930 . S
H1061 C1071 0.930 . S
C1062 H1056 0.930 . S
C1062 C1063 1.355 . S
C1062 C1064 1.415 . S
C1063 C1062 1.355 . S
C1063 C1065 1.419 . S
C1064 C1062 1.415 . S
C1064 C1069 1.425 . S
C1064 C1071 1.409 . S
C1065 H1057 0.930 1_556 S
C1065 C1063 1.419 . S
C1065 C1066 1.362 . S
C1066 H1058 0.930 . S
C1066 C1065 1.362 . S
C1066 C1069 1.409 . S
C1067 H1059 0.930 . S
C1067 C1068 1.355 . S
C1067 C1069 1.415 . S
C1068 C1067 1.355 . S
C1068 C1070 1.419 . S
C1069 C1064 1.425 . S
C1069 C1066 1.409 . S
C1069 C1067 1.415 . S
C1070 H1060 0.930 . S
C1070 C1068 1.419 . S
C1070 C1071 1.362 . S
C1071 H1061 0.930 . S
C1071 C1064 1.409 . S
C1071 C1070 1.362 . S
H1072 C1078 0.930 . S
H1073 C1081 0.930 . S
H1074 C1082 0.930 . S
H1075 C1083 0.930 . S
H1076 C1086 0.930 . S
H1077 C1087 0.930 . S
C1078 H1072 0.930 . S
C1078 C1079 1.355 . S
C1078 C1080 1.415 . S
C1079 C1078 1.355 . S
C1079 C1081 1.419 . S
C1080 C1078 1.415 . S
C1080 C1085 1.425 . S
C1080 C1087 1.409 . S
C1081 H1073 0.930 . S
C1081 C1079 1.419 . S
C1081 C1082 1.362 . S
C1082 H1074 0.930 . S
C1082 C1081 1.362 . S
C1082 C1085 1.409 . S
C1083 H1075 0.930 . S
C1083 C1084 1.355 . S
C1083 C1085 1.415 . S
C1084 C1083 1.355 . S
C1084 C1086 1.419 . S
C1085 C1080 1.425 . S
C1085 C1082 1.409 . S
C1085 C1083 1.415 . S
C1086 H1076 0.930 . S
C1086 C1084 1.419 . S
C1086 C1087 1.362 . S
C1087 H1077 0.930 . S
C1087 C1080 1.409 . S
C1087 C1086 1.362 . S
H1088 C1094 0.930 . S
H1089 C1097 0.930 . S
H1090 C1098 0.930 . S
H1091 C1099 0.930 . S
H1092 C1102 0.930 . S
H1093 C1103 0.930 . S
C1094 H1088 0.930 . S
C1094 C1095 1.355 . S
C1094 C1096 1.415 . S
C1095 C1094 1.355 . S
C1095 C1097 1.419 . S
C1096 C1094 1.415 . S
C1096 C1101 1.425 . S
C1096 C1103 1.409 . S
C1097 H1089 0.930 . S
C1097 C1095 1.419 . S
C1097 C1098 1.362 . S
C1098 H1090 0.930 . S
C1098 C1097 1.362 . S
C1098 C1101 1.409 . S
C1099 H1091 0.930 . S
C1099 C1100 1.355 . S
C1099 C1101 1.415 . S
C1100 C1099 1.355 . S
C1100 C1102 1.419 . S
C1101 C1096 1.425 . S
C1101 C1098 1.409 . S
C1101 C1099 1.415 . S
C1102 H1092 0.930 . S
C1102 C1100 1.419 . S
C1102 C1103 1.362 . S
C1103 H1093 0.930 . S
C1103 C1096 1.409 . S
C1103 C1102 1.362 . S
C343 C14 1.386 1_556 S
C348 C164 1.459 . S
C359 C38 1.398 . S
C364 C98 1.452 1_554 S
C375 C119 1.449 . S
C380 C56 1.345 . S
C391 C77 1.373 . S
C396 C140 1.464 . S
C407 C249 1.278 . S
C412 C102 1.263 1_554 S
C423 C186 1.319 . S
C428 C18 1.256 1_556 S
C439 C225 1.303 . S
C444 C144 1.275 . S
C455 C60 1.331 . S
C460 C204 1.240 . S
C471 C206 1.426 . S
C476 C266 1.352 . S
C487 C227 1.385 . S
C492 C308 1.383 . S
C503 C287 1.453 1_556 S
C508 C182 1.396 . S
C519 C245 1.447 . S
C524 C329 1.406 1_554 S
C535 C312 1.272 . S
C540 C81 1.305 . S
C551 C270 1.213 . S
C556 C123 1.337 . S
C567 C36 1.260 . S
C572 C333 1.280 1_554 S
C583 C162 1.323 . S
C588 C291 1.251 1_556 S
C599 C286 0.927 . S
C604 C13 0.727 . S
C615 C244 0.817 . S
C620 C37 0.815 . S
C631 C265 0.808 . S
C636 C55 0.867 . S
C647 C226 0.898 . S
C652 C76 0.733 . S
C663 C97 0.729 . S
C668 C328 0.926 . S
C679 C205 0.718 . S
C684 C118 0.932 . S
C695 C139 0.701 . S
C700 C307 0.933 . S
C711 C163 0.849 . S
C716 C181 0.828 . S
C727 C16 1.227 . S
C732 C100 1.227 . S
C743 C34 1.147 . S
C748 C121 1.148 . S
C759 C142 1.145 . S
C764 C58 1.144 . S
C775 C79 1.226 . S
C780 C160 1.226 . S
C791 C223 1.175 . S
C796 C184 1.176 . S
C807 C247 1.227 . S
C812 C202 1.227 . S
C823 C268 1.227 . S
C828 C310 1.227 . S
C839 C331 1.226 . S
C844 C289 1.226 . S
C855 C17 1.464 . S
C860 C161 1.477 . S
C871 C35 1.464 . S
C876 C101 1.477 . S
C887 C122 1.485 1_556 S
C892 C59 1.469 . S
C903 C143 1.462 . S
C908 C80 1.468 1_554 S
C919 C246 1.362 . S
C924 C99 1.398 . S
C935 C183 1.381 . S
C940 C15 1.356 . S
C951 C228 1.382 1_554 S
C956 C141 1.410 . S
C967 C57 1.356 . S
C972 C207 1.381 1_556 S
C983 C269 1.494 . S
C988 C203 1.485 1_556 S
C999 C311 1.465 . S
C1004 C224 1.479 1_554 S
C1015 C290 1.486 . S
C1020 C185 1.470 . S
C1031 C332 1.492 . S
C1036 C248 1.480 . S
C1047 C309 1.369 . S
C1052 C78 1.405 1_554 S
C1063 C120 1.409 1_556 S
C1068 C267 1.378 . S
C1079 C39 1.410 . S
C1084 C330 1.385 . S
C1095 C288 1.406 . S
C1100 C165 1.371 . S
