# Generated by pormake.
# Topology sxa, (6)-cn, num edge types: 1
# Building blocks:
#     Node 0, Type 0, BuildingBlock: BETDEL_clean_sbu_0, # of connection points: 6
#     Node 1, Type 0, BuildingBlock: BETDEL_clean_sbu_0, # of connection points: 6
#     Node 2, Type 0, BuildingBlock: BETDEL_clean_sbu_0, # of connection points: 6
#     Node 3, Type 0, BuildingBlock: BETDEL_clean_sbu_0, # of connection points: 6
#     Edge 4, Type (0, 0), BuildingBlock: UVAHIK_clean_linker_0, # of connection points: 2
#     Edge 5, Type (0, 0), BuildingBlock: UVAHIK_clean_linker_0, # of connection points: 2
#     Edge 6, Type (0, 0), BuildingBlock: UVAHIK_clean_linker_0, # of connection points: 2
#     Edge 7, Type (0, 0), BuildingBlock: UVAHIK_clean_linker_0, # of connection points: 2
#     Edge 8, Type (0, 0), BuildingBlock: UVAHIK_clean_linker_0, # of connection points: 2
#     Edge 9, Type (0, 0), BuildingBlock: UVAHIK_clean_linker_0, # of connection points: 2
#     Edge 10, Type (0, 0), BuildingBlock: UVAHIK_clean_linker_0, # of connection points: 2
#     Edge 11, Type (0, 0), BuildingBlock: UVAHIK_clean_linker_0, # of connection points: 2
#     Edge 12, Type (0, 0), BuildingBlock: UVAHIK_clean_linker_0, # of connection points: 2
#     Edge 13, Type (0, 0), BuildingBlock: UVAHIK_clean_linker_0, # of connection points: 2
#     Edge 14, Type (0, 0), BuildingBlock: UVAHIK_clean_linker_0, # of connection points: 2
#     Edge 15, Type (0, 0), BuildingBlock: UVAHIK_clean_linker_0, # of connection points: 2
# Relax obj value: 0.077
# Max RMSD: 0.215
# Mean RMSD: 0.215
data_MOF--net-sxa--node1-BETDEL_clean_sbu_0--edge1-UVAHIK_clean_linker_0
_symmetry_space_group_name_H-M    P1
_symmetry_Int_Tables_number       1
_symmetry_cell_setting            triclinic
loop_
_symmetry_equiv_pos_as_xyz
'x, y, z'
_cell_length_a     36.852953
_cell_length_b     35.874624
_cell_length_c     16.029037
_cell_angle_alpha  92.533548
_cell_angle_beta   89.857914
_cell_angle_gamma 90.051435
loop_
_atom_site_label
_atom_site_type_symbol
_atom_site_fract_x
_atom_site_fract_y
_atom_site_fract_z
_atom_type_partial_charge
Dy0 Dy 0.03082 0.77397 0.09829 0.0
C1 C 0.92211 0.78025 0.35337 0.0
C2 C 0.07621 0.78574 0.96798 0.0
Dy3 Dy 0.9815 0.78036 0.24972 0.0
O4 O 0.05912 0.75465 0.97993 0.0
O5 O 0.06709 0.81053 0.02566 0.0
O6 O 0.05239 0.72022 0.14367 0.0
O7 O 0.99823 0.7334 0.16501 0.0
C8 C 0.02204 0.70861 0.17444 0.0
C9 C 1.00598 0.84544 0.19244 0.0
O10 O 0.0352 0.77052 0.31184 0.0
O11 O 0.06746 0.79388 0.20193 0.0
O12 O 0.92963 0.80509 0.29976 0.0
O13 O 0.94808 0.75554 0.35324 0.0
O14 O 1.00137 0.84001 0.27132 0.0
O15 O 0.99586 0.81702 0.15055 0.0
O16 O 0.97869 0.77197 0.02777 0.0
O17 O 0.94301 0.76471 0.14623 0.0
C18 C 0.06574 0.78359 0.28006 0.0
C19 C 0.94713 0.76599 0.06428 0.0
Dy20 Dy 0.54129 0.28312 0.09311 0.0
C21 C 0.43306 0.25921 0.35481 0.0
C22 C 0.58786 0.30028 0.96866 0.0
Dy23 Dy 0.48869 0.28025 0.25289 0.0
O24 O 0.56955 0.26931 0.97151 0.0
O25 O 0.57929 0.32223 0.03229 0.0
O26 O 0.56019 0.22587 0.12135 0.0
O27 O 0.50703 0.241 0.15075 0.0
C28 C 0.52986 0.21477 0.15343 0.0
C29 C 0.50254 0.3507 0.20583 0.0
O30 O 0.54405 0.2705 0.30894 0.0
O31 O 0.57733 0.29664 0.20182 0.0
O32 O 0.45696 0.28493 0.37401 0.0
O33 O 0.44118 0.24359 0.28255 0.0
O34 O 0.48155 0.34393 0.26873 0.0
O35 O 0.51441 0.31995 0.17899 0.0
O36 O 0.48812 0.29183 0.03001 0.0
O37 O 0.45037 0.28403 0.14647 0.0
C38 C 0.5747 0.28454 0.27865 0.0
C39 C 0.45584 0.28978 0.06625 0.0
Dy40 Dy 0.04166 0.27021 0.91472 0.0
C41 C 0.92975 0.27189 0.6553 0.0
C42 C 0.08814 0.25516 0.04004 0.0
Dy43 Dy 0.98982 0.26641 0.75412 0.0
O44 O 0.06924 0.28569 0.03605 0.0
O45 O 0.08038 0.23265 0.97689 0.0
O46 O 0.05635 0.32827 0.88439 0.0
O47 O 1.00445 0.30875 0.85405 0.0
C48 C 0.02557 0.33658 0.85049 0.0
C49 C 0.01181 0.19818 0.80125 0.0
O50 O 0.0439 0.27687 0.69261 0.0
O51 O 0.0801 0.26257 0.80725 0.0
O52 O 0.93638 0.24585 0.70649 0.0
O53 O 0.9571 0.29522 0.65494 0.0
O54 O 0.99265 0.20258 0.73459 0.0
O55 O 0.01839 0.23006 0.83123 0.0
O56 O 0.98875 0.25973 0.97773 0.0
O57 O 0.95297 0.27531 0.86415 0.0
C58 C 0.07606 0.27061 0.72763 0.0
C59 C 0.95702 0.26644 0.94299 0.0
Dy60 Dy 0.53059 0.77469 0.90667 0.0
C61 C 0.4213 0.77075 0.65463 0.0
C62 C 0.57574 0.76099 0.03569 0.0
Dy63 Dy 0.48116 0.77023 0.7561 0.0
O64 O 0.55903 0.79242 0.0256 0.0
O65 O 0.56627 0.73686 0.97695 0.0
O66 O 0.55392 0.82792 0.86229 0.0
O67 O 0.49943 0.81655 0.84083 0.0
C68 C 0.52407 0.84054 0.83153 0.0
C69 C 0.50352 0.70429 0.81295 0.0
O70 O 0.53496 0.7792 0.69322 0.0
O71 O 0.56656 0.75422 0.80175 0.0
O72 O 0.42831 0.74658 0.70995 0.0
O73 O 0.448 0.7946 0.6519 0.0
O74 O 0.49949 0.71004 0.73414 0.0
O75 O 0.49418 0.73296 0.85489 0.0
O76 O 0.47837 0.77762 0.97746 0.0
O77 O 0.44365 0.78862 0.8599 0.0
C78 C 0.56517 0.76523 0.72414 0.0
C79 C 0.44734 0.78602 0.94162 0.0
C80 C 0.03575 0.40487 0.84084 0.0
C81 C 0.01288 0.37553 0.86282 0.0
C82 C 0.02939 0.44136 0.87221 0.0
C83 C 1.00109 0.48898 0.06013 0.0
H84 H 0.99307 0.57865 0.9349 0.0
C85 C 0.04027 0.64135 0.17225 0.0
C86 C 0.01319 0.66838 0.16271 0.0
C87 C 0.03487 0.60442 0.14254 0.0
C88 C 0.99506 0.55378 0.97057 0.0
H89 H 0.96473 0.36149 0.93262 0.0
H90 H 0.95421 0.42519 0.98945 0.0
H91 H 0.99267 0.51719 0.86082 0.0
H92 H 0.95852 0.6774 0.11794 0.0
H93 H 0.94967 0.61319 0.06374 0.0
H94 H 1.00563 0.52567 0.1694 0.0
C95 C 0.97662 0.41999 0.94664 0.0
C96 C 0.9949 0.51875 0.92826 0.0
C97 C 0.98242 0.38367 0.91341 0.0
C98 C 0.97985 0.65723 0.12681 0.0
C99 C 0.97483 0.62057 0.09519 0.0
C100 C 1.00223 0.52405 0.10223 0.0
C101 C 1.0006 0.44895 0.92801 0.0
C102 C 0.99796 0.48603 0.97265 0.0
C103 C 1.00261 0.59407 0.10104 0.0
C104 C 0.9993 0.55677 0.05779 0.0
H105 H 0.05974 0.39921 0.80317 0.0
H106 H 0.04835 0.46318 0.85724 0.0
H107 H 1.0039 0.46414 0.09564 0.0
H108 H 0.0663 0.64921 0.19898 0.0
H109 H 0.05672 0.58446 0.14761 0.0
C110 C 0.49869 0.42029 0.21032 0.0
C111 C 0.5065 0.38676 0.16569 0.0
C112 C 0.50092 0.45437 0.1713 0.0
C113 C 0.53722 0.49892 0.98175 0.0
H114 H 0.46551 0.5744 0.04217 0.0
C115 C 0.51452 0.63495 0.80039 0.0
C116 C 0.5089 0.66768 0.85011 0.0
C117 C 0.5166 0.6002 0.8372 0.0
C118 C 0.48594 0.55374 0.02505 0.0
H119 H 0.52162 0.36234 0.0448 0.0
H120 H 0.52519 0.42152 0.97612 0.0
H121 H 0.46433 0.51508 0.10978 0.0
H122 H 0.5023 0.6899 0.9773 0.0
H123 H 0.50595 0.62973 0.04098 0.0
H124 H 0.55825 0.53776 0.89558 0.0
C125 C 0.51844 0.42187 0.04194 0.0
C126 C 0.48538 0.5197 0.06414 0.0
C127 C 0.5165 0.38786 0.08129 0.0
C128 C 0.50647 0.66517 0.93718 0.0
C129 C 0.50832 0.63064 0.97372 0.0
C130 C 0.53758 0.53297 0.94204 0.0
C131 C 0.51049 0.45564 0.08626 0.0
C132 C 0.51116 0.49186 0.04363 0.0
C133 C 0.5128 0.59766 0.92423 0.0
C134 C 0.51211 0.56089 0.96383 0.0
H135 H 0.49087 0.42017 0.27551 0.0
H136 H 0.49518 0.47975 0.20801 0.0
H137 H 0.55778 0.47838 0.96486 0.0
H138 H 0.51651 0.6361 0.73313 0.0
H139 H 0.51998 0.57525 0.79741 0.0
C140 C 0.48346 0.89337 0.87863 0.0
C141 C 0.51656 0.88105 0.84309 0.0
C142 C 0.47958 0.93022 0.91001 0.0
C143 C 0.5061 0.02556 0.90199 0.0
H144 H 0.50664 0.03317 0.14443 0.0
C145 C 0.488 0.16553 0.09408 0.0
C146 C 0.51958 0.17512 0.13929 0.0
C147 C 0.48296 0.12904 0.06121 0.0
C148 C 0.50613 0.03139 0.0768 0.0
H149 H 0.57049 0.89832 0.80732 0.0
H150 H 0.56293 0.96342 0.85849 0.0
H151 H 0.50588 0.97143 0.07143 0.0
H152 H 0.56947 0.15378 0.18961 0.0
H153 H 0.55962 0.08942 0.13605 0.0
H154 H 0.50605 0.0855 0.90727 0.0
C155 C 0.5404 0.94421 0.86335 0.0
C156 C 0.50564 0.99621 0.03517 0.0
C157 C 0.54463 0.9071 0.83376 0.0
C158 C 0.5447 0.14699 0.15595 0.0
C159 C 0.53917 0.1103 0.12497 0.0
C160 C 0.50566 0.06075 0.94363 0.0
C161 C 0.5083 0.95569 0.90431 0.0
C162 C 0.50611 0.99302 0.94746 0.0
C163 C 0.50891 0.1013 0.07484 0.0
C164 C 0.50616 0.06398 0.03141 0.0
H165 H 0.46141 0.87396 0.88742 0.0
H166 H 0.45458 0.93852 0.94128 0.0
H167 H 0.50661 1.02371 0.83435 0.0
H168 H 0.46845 0.18674 0.07907 0.0
H169 H 0.45938 0.12273 0.0229 0.0
C170 C 0.0127 0.88397 0.06787 0.0
C171 C 0.01325 0.88172 0.15512 0.0
C172 C 0.01657 0.91825 0.03096 0.0
C173 C 0.04643 1.01621 0.06678 0.0
H174 H 0.98019 0.03337 0.88486 0.0
C175 C 0.02551 0.16145 0.92651 0.0
C176 C 0.01903 0.16243 0.84036 0.0
C177 C 0.02823 0.12732 0.9652 0.0
C178 C 0.99932 0.02893 0.9346 0.0
H179 H 0.01938 0.9135 0.27224 0.0
H180 H 0.02589 0.97393 0.20752 0.0
H181 H 0.97867 0.9742 0.95274 0.0
H182 H 0.01091 0.12871 0.72669 0.0
H183 H 0.01637 0.06907 0.79343 0.0
H184 H 0.06694 0.07124 0.0485 0.0
C185 C 0.02272 0.94897 0.1677 0.0
C186 C 0.99839 0.99493 0.97377 0.0
C187 C 0.01886 0.91444 0.20481 0.0
C188 C 0.01605 0.12871 0.79321 0.0
C189 C 0.0189 0.09458 0.83168 0.0
C190 C 0.04743 0.05034 0.02732 0.0
C191 C 0.02093 0.95132 0.08028 0.0
C192 C 0.02202 0.988 0.04007 0.0
C193 C 0.02433 0.0934 0.91849 0.0
C194 C 0.02396 0.05706 0.96042 0.0
H195 H 0.00849 0.85924 0.0278 0.0
H196 H 0.01578 0.91888 0.96349 0.0
H197 H 0.06519 1.01168 0.11724 0.0
H198 H 0.02669 0.18701 0.96477 0.0
H199 H 0.03182 0.12757 0.03225 0.0
C200 C 0.37779 0.80109 0.55678 0.0
C201 C 0.38574 0.77291 0.61199 0.0
C202 C 0.34286 0.8039 0.52256 0.0
C203 C 0.24712 0.77734 0.56109 0.0
H204 H 0.23391 0.79406 0.32606 0.0
C205 C 0.10655 0.76313 0.39599 0.0
C206 C 0.09964 0.78656 0.32991 0.0
C207 C 0.14084 0.76317 0.43436 0.0
C208 C 0.23695 0.78998 0.3922 0.0
H209 H 0.36349 0.72538 0.67387 0.0
H210 H 0.30308 0.73027 0.61462 0.0
H211 H 0.29498 0.79162 0.38317 0.0
H212 H 0.12254 0.83004 0.25595 0.0
H213 H 0.18126 0.831 0.32395 0.0
H214 H 0.18911 0.77592 0.57043 0.0
C215 C 0.32349 0.75041 0.59805 0.0
C216 C 0.2721 0.78852 0.42485 0.0
C217 C 0.35829 0.74743 0.63143 0.0
C218 C 0.12707 0.81121 0.30591 0.0
C219 C 0.16098 0.81155 0.34456 0.0
C220 C 0.21191 0.77907 0.52858 0.0
C221 C 0.31516 0.77882 0.54371 0.0
C222 C 0.27768 0.78195 0.50958 0.0
C223 C 0.16879 0.78689 0.40788 0.0
C224 C 0.20627 0.78533 0.44354 0.0
H225 H 0.39833 0.82125 0.54111 0.0
H226 H 0.33729 0.82622 0.48111 0.0
H227 H 0.25042 0.7727 0.62696 0.0
H228 H 0.08607 0.74366 0.41554 0.0
H229 H 0.14579 0.74363 0.4826 0.0
C230 C 0.14127 0.28753 0.71948 0.0
C231 C 0.11022 0.27309 0.67892 0.0
C232 C 0.17519 0.28575 0.68072 0.0
C233 C 0.22318 0.26724 0.47773 0.0
H234 H 0.30378 0.24793 0.62503 0.0
C235 C 0.36921 0.23527 0.35574 0.0
C236 C 0.39741 0.25512 0.39673 0.0
C237 C 0.33393 0.23576 0.38867 0.0
C238 C 0.28165 0.25358 0.58307 0.0
H239 H 0.09017 0.2466 0.56424 0.0
H240 H 0.15001 0.24259 0.49619 0.0
H241 H 0.24261 0.25259 0.68154 0.0
H242 H 0.41088 0.2903 0.50546 0.0
H243 H 0.3495 0.2904 0.56432 0.0
H244 H 0.26266 0.26747 0.37896 0.0
C245 C 0.14796 0.25585 0.55801 0.0
C246 C 0.24644 0.25645 0.61549 0.0
C247 C 0.11362 0.25814 0.59678 0.0
C248 C 0.38983 0.27444 0.47288 0.0
C249 C 0.35463 0.27452 0.50644 0.0
C250 C 0.25851 0.26398 0.44509 0.0
C251 C 0.1794 0.26882 0.60047 0.0
C252 C 0.21667 0.26394 0.56371 0.0
C253 C 0.32609 0.25572 0.46401 0.0
C254 C 0.28824 0.25755 0.49761 0.0
H255 H 0.13946 0.29973 0.78243 0.0
H256 H 0.19829 0.29729 0.71459 0.0
H257 H 0.20116 0.27327 0.43585 0.0
H258 H 0.37409 0.22036 0.29653 0.0
H259 H 0.31273 0.22066 0.35487 0.0
C260 C 0.88586 0.30472 0.56168 0.0
C261 C 0.89397 0.27552 0.6141 0.0
C262 C 0.85079 0.30806 0.52819 0.0
C263 C 0.75509 0.27925 0.56371 0.0
H264 H 0.742 0.2993 0.33031 0.0
C265 C 0.61569 0.26257 0.39321 0.0
C266 C 0.60824 0.28732 0.32995 0.0
C267 C 0.64979 0.26306 0.43263 0.0
C268 C 0.745 0.29424 0.39602 0.0
H269 H 0.87172 0.22694 0.6722 0.0
H270 H 0.81135 0.23276 0.61441 0.0
H271 H 0.80298 0.29791 0.38824 0.0
H272 H 0.62989 0.33362 0.26258 0.0
H273 H 0.68818 0.33511 0.33205 0.0
H274 H 0.69711 0.27556 0.57158 0.0
C275 C 0.83164 0.25328 0.59935 0.0
C276 C 0.7801 0.29345 0.42918 0.0
C277 C 0.86649 0.24978 0.63188 0.0
C278 C 0.63485 0.31367 0.31007 0.0
C279 C 0.66855 0.31437 0.34961 0.0
C280 C 0.71993 0.28023 0.53064 0.0
C281 C 0.82316 0.28253 0.54745 0.0
C282 C 0.78566 0.28567 0.51328 0.0
C283 C 0.67697 0.28851 0.40991 0.0
C284 C 0.71436 0.28762 0.44619 0.0
H285 H 0.9064 0.32509 0.54733 0.0
H286 H 0.84511 0.33102 0.48858 0.0
H287 H 0.75834 0.27363 0.62911 0.0
H288 H 0.59584 0.24185 0.40969 0.0
H289 H 0.65528 0.2426 0.47863 0.0
C290 C 0.85959 0.80449 0.37959 0.0
C291 C 0.88654 0.77815 0.39639 0.0
C292 C 0.82466 0.80142 0.41268 0.0
C293 C 0.77203 0.76063 0.58135 0.0
H294 H 0.68986 0.77634 0.43619 0.0
C295 C 0.62622 0.73718 0.69666 0.0
C296 C 0.59916 0.76244 0.67423 0.0
C297 C 0.66031 0.73713 0.65839 0.0
C298 C 0.71242 0.77231 0.47796 0.0
H299 H 0.89814 0.72821 0.46246 0.0
H300 H 0.83691 0.72309 0.52202 0.0
H301 H 0.75145 0.78021 0.38091 0.0
H302 H 0.5864 0.80677 0.59182 0.0
H303 H 0.64639 0.8073 0.52557 0.0
H304 H 0.73333 0.75359 0.67892 0.0
C305 C 0.84295 0.74615 0.48284 0.0
C306 C 0.7478 0.77442 0.44615 0.0
C307 C 0.87799 0.74905 0.44888 0.0
C308 C 0.60659 0.78679 0.61006 0.0
C309 C 0.64103 0.78704 0.57215 0.0
C310 C 0.73671 0.75881 0.61334 0.0
C311 C 0.81572 0.77205 0.4641 0.0
C312 C 0.77806 0.76869 0.4975 0.0
C313 C 0.66865 0.76269 0.59713 0.0
C314 C 0.70632 0.76457 0.56216 0.0
H315 H 0.86525 0.82725 0.33927 0.0
H316 H 0.8046 0.82218 0.39805 0.0
H317 H 0.79469 0.75662 0.62291 0.0
H318 H 0.62129 0.71768 0.74518 0.0
H319 H 0.68031 0.7172 0.67776 0.0
C320 C 0.39634 0.82459 0.99185 0.0
C321 C 0.41402 0.79003 0.99005 0.0
C322 C 0.35863 0.82621 0.99772 0.0
C323 C 0.27491 0.76885 0.01792 0.0
H324 H 0.24011 0.83188 0.84422 0.0
C325 C 0.13019 0.75464 0.90479 0.0
C326 C 0.11104 0.78773 0.92388 0.0
C327 C 0.16795 0.7554 0.89882 0.0
C328 C 0.24957 0.81413 0.8926 0.0
H329 H 0.40741 0.73061 1.0013 0.0
H330 H 0.34158 0.73309 0.01095 0.0
H331 H 0.30387 0.83432 0.88452 0.0
H332 H 0.1151 0.84793 0.93788 0.0
H333 H 0.18102 0.84934 0.92508 0.0
H334 H 0.22058 0.74818 0.02444 0.0
C335 C 0.35641 0.75911 0.00909 0.0
C336 C 0.28589 0.81587 0.91679 0.0
C337 C 0.39419 0.75763 0.0044 0.0
C338 C 0.1294 0.82203 0.92367 0.0
C339 C 0.16711 0.82282 0.91668 0.0
C340 C 0.23871 0.76682 0.99302 0.0
C341 C 0.3382 0.79315 1.00006 0.0
C342 C 0.29896 0.79333 0.97995 0.0
C343 C 0.18672 0.7893 0.91023 0.0
C344 C 0.22577 0.7894 0.93012 0.0
H345 H 0.41128 0.84983 0.97986 0.0
H346 H 0.34539 0.85299 0.99322 0.0
H347 H 0.28401 0.75135 0.06707 0.0
H348 H 0.11662 0.72783 0.90421 0.0
H349 H 0.18263 0.72927 0.8922 0.0
C350 C 0.1391 0.28599 0.11628 0.0
C351 C 0.12294 0.25304 0.0838 0.0
C352 C 0.1768 0.28837 0.12269 0.0
C353 C 0.25119 0.24939 1.0003 0.0
H354 H 0.31175 0.31002 0.14963 0.0
C355 C 0.40708 0.25904 0.98663 0.0
C356 C 0.42285 0.29241 0.01732 0.0
C357 C 0.36939 0.25589 0.982 0.0
C358 C 0.29493 0.29358 0.1066 0.0
H359 H 0.13224 0.19496 0.04724 0.0
H360 H 0.19802 0.19887 0.06029 0.0
H361 H 0.24936 0.29658 0.18987 0.0
H362 H 0.4129 0.34984 0.05723 0.0
H363 H 0.347 0.34491 0.04611 0.0
H364 H 0.29671 0.24643 0.91698 0.0
C365 C 0.18185 0.2232 0.07771 0.0
C366 C 0.25942 0.28554 0.13021 0.0
C367 C 0.14422 0.22087 0.07115 0.0
C368 C 0.40111 0.32403 0.03213 0.0
C369 C 0.36347 0.32096 0.02738 0.0
C370 C 0.28668 0.25742 0.9767 0.0
C371 C 0.19849 0.2577 0.09733 0.0
C372 C 0.23721 0.26338 0.07727 0.0
C373 C 0.34733 0.28615 0.00826 0.0
C374 C 0.30883 0.27976 0.0294 0.0
H375 H 0.12319 0.31114 0.12709 0.0
H376 H 0.18889 0.31524 0.13886 0.0
H377 H 0.23436 0.23299 0.95718 0.0
H378 H 0.42348 0.23416 0.97677 0.0
H379 H 0.35769 0.22872 0.96688 0.0
C380 C 0.63964 0.27067 0.89259 0.0
C381 C 0.62297 0.30318 0.92602 0.0
C382 C 0.67738 0.26885 0.88636 0.0
C383 C 0.75184 0.30914 0.00778 0.0
H384 H 0.81217 0.24772 0.85899 0.0
C385 C 0.90801 0.29947 0.01803 0.0
C386 C 0.92355 0.26539 0.99115 0.0
C387 C 0.87034 0.3031 0.02211 0.0
C388 C 0.79542 0.26444 0.90179 0.0
H389 H 0.63152 0.36112 0.96494 0.0
H390 H 0.69737 0.35829 0.95164 0.0
H391 H 0.74964 0.26061 0.81982 0.0
H392 H 0.91304 0.20748 0.95651 0.0
H393 H 0.84712 0.21338 0.966 0.0
H394 H 0.79771 0.31305 0.08954 0.0
C395 C 0.68156 0.33379 0.93359 0.0
C396 C 0.7598 0.27213 0.87887 0.0
C397 C 0.64387 0.33554 0.94021 0.0
C398 C 0.90146 0.23384 0.9789 0.0
C399 C 0.86382 0.23743 0.98268 0.0
C400 C 0.78748 0.30155 0.03054 0.0
C401 C 0.6987 0.29966 0.9127 0.0
C402 C 0.7376 0.29448 0.93175 0.0
C403 C 0.84802 0.27264 0.99874 0.0
C404 C 0.80951 0.2789 0.97807 0.0
H405 H 0.62406 0.24538 0.88063 0.0
H406 H 0.68978 0.24222 0.86926 0.0
H407 H 0.73512 0.32569 0.05095 0.0
H408 H 0.92467 0.32426 0.02605 0.0
H409 H 0.85887 0.33056 0.03482 0.0
C410 C 0.89335 0.79462 0.00592 0.0
C411 C 0.91391 0.76234 0.01575 0.0
C412 C 0.85567 0.79224 1.0 0.0
C413 C 0.78578 0.73131 0.08181 0.0
H414 H 0.7201 0.80079 0.98208 0.0
C415 C 0.62911 0.72399 0.07521 0.0
C416 C 0.61063 0.75823 0.0789 0.0
C417 C 0.66684 0.72325 0.08149 0.0
C418 C 0.73831 0.7816 0.01126 0.0
H419 H 0.91261 0.70216 0.01759 0.0
H420 H 0.84683 0.69758 1.00266 0.0
H421 H 0.78373 0.79962 0.94019 0.0
H422 H 0.61603 0.8178 0.10489 0.0
H423 H 0.68204 0.81644 0.11586 0.0
H424 H 0.73989 0.71285 0.15151 0.0
C425 C 0.85945 0.72484 1.00212 0.0
C426 C 0.77463 0.78071 0.98676 0.0
C427 C 0.89711 0.72733 0.00894 0.0
C428 C 0.62969 0.79105 0.10119 0.0
C429 C 0.66746 0.79035 0.10657 0.0
C430 C 0.74932 0.73192 0.10558 0.0
C431 C 0.83824 0.75743 0.00361 0.0
C432 C 0.79886 0.75573 0.02213 0.0
C433 C 0.68634 0.75676 0.09125 0.0
C434 C 0.7254 0.75734 0.07112 0.0
H435 H 0.90589 0.82192 0.01302 0.0
H436 H 0.84023 0.81792 1.00136 0.0
H437 H 0.80387 0.71234 0.11195 0.0
H438 H 0.61489 0.69828 0.05854 0.0
H439 H 0.68083 0.69695 0.0701 0.0
loop_
_geom_bond_atom_site_label_1
_geom_bond_atom_site_label_2
_geom_bond_distance
_geom_bond_site_symmetry_2
_ccdc_geom_bond_type
Dy0 O4 2.398 . S
Dy0 O5 2.491 . S
Dy0 O6 2.403 . S
Dy0 O7 2.664 1_455 S
Dy0 O11 2.326 . S
Dy0 O15 2.310 . S
Dy0 O16 2.351 1_455 S
C1 O12 1.185 . S
C1 O13 1.355 . S
C2 O4 1.185 . S
C2 O5 1.355 . S
Dy3 O7 2.310 . S
Dy3 O10 2.351 1_655 S
Dy3 O12 2.398 . S
Dy3 O13 2.491 . S
Dy3 O14 2.403 . S
Dy3 O15 2.664 1_655 S
Dy3 O17 2.326 . S
O4 Dy0 2.398 . S
O4 C2 1.185 . S
O5 Dy0 2.491 . S
O5 C2 1.355 . S
O6 Dy0 2.403 . S
O6 C8 1.254 . S
O7 Dy0 2.664 1_655 S
O7 Dy3 2.310 . S
O7 C8 1.268 1_655 S
C8 O6 1.254 . S
C8 O7 1.268 1_455 S
C9 O14 1.237 1_455 S
C9 O15 1.277 . S
O10 Dy3 2.351 1_455 S
O10 C18 1.249 . S
O11 Dy0 2.326 . S
O11 C18 1.267 . S
O12 C1 1.185 . S
O12 Dy3 2.398 . S
O13 C1 1.355 . S
O13 Dy3 2.491 . S
O14 Dy3 2.403 . S
O14 C9 1.237 1_655 S
O15 Dy0 2.310 . S
O15 Dy3 2.664 1_455 S
O15 C9 1.277 . S
O16 Dy0 2.351 1_655 S
O16 C19 1.249 . S
O17 Dy3 2.326 . S
O17 C19 1.267 . S
C18 O10 1.249 . S
C18 O11 1.267 . S
C19 O16 1.249 . S
C19 O17 1.267 . S
Dy20 O24 2.398 . S
Dy20 O25 2.491 . S
Dy20 O26 2.403 . S
Dy20 O27 2.664 . S
Dy20 O31 2.326 . S
Dy20 O35 2.310 . S
Dy20 O36 2.351 . S
C21 O32 1.185 . S
C21 O33 1.355 . S
C22 O24 1.185 . S
C22 O25 1.355 . S
Dy23 O27 2.310 . S
Dy23 O30 2.351 . S
Dy23 O32 2.398 . S
Dy23 O33 2.491 . S
Dy23 O34 2.403 . S
Dy23 O35 2.664 . S
Dy23 O37 2.326 . S
O24 Dy20 2.398 . S
O24 C22 1.185 . S
O25 Dy20 2.491 . S
O25 C22 1.355 . S
O26 Dy20 2.403 . S
O26 C28 1.254 . S
O27 Dy20 2.664 . S
O27 Dy23 2.310 . S
O27 C28 1.268 . S
C28 O26 1.254 . S
C28 O27 1.268 . S
C29 O34 1.254 . S
C29 O35 1.268 . S
O30 Dy23 2.351 . S
O30 C38 1.249 . S
O31 Dy20 2.326 . S
O31 C38 1.267 . S
O32 C21 1.185 . S
O32 Dy23 2.398 . S
O33 C21 1.355 . S
O33 Dy23 2.491 . S
O34 Dy23 2.403 . S
O34 C29 1.254 . S
O35 Dy20 2.310 . S
O35 Dy23 2.664 . S
O35 C29 1.268 . S
O36 Dy20 2.351 . S
O36 C39 1.249 . S
O37 Dy23 2.326 . S
O37 C39 1.267 . S
C38 O30 1.249 . S
C38 O31 1.267 . S
C39 O36 1.249 . S
C39 O37 1.267 . S
Dy40 O44 2.398 . S
Dy40 O45 2.491 . S
Dy40 O46 2.403 . S
Dy40 O47 2.664 1_455 S
Dy40 O51 2.326 . S
Dy40 O55 2.310 . S
Dy40 O56 2.351 1_455 S
C41 O52 1.185 . S
C41 O53 1.355 . S
C42 O44 1.185 . S
C42 O45 1.355 . S
Dy43 O47 2.310 . S
Dy43 O50 2.351 1_655 S
Dy43 O52 2.398 . S
Dy43 O53 2.491 . S
Dy43 O54 2.403 . S
Dy43 O55 2.664 1_655 S
Dy43 O57 2.326 . S
O44 Dy40 2.398 . S
O44 C42 1.185 . S
O45 Dy40 2.491 . S
O45 C42 1.355 . S
O46 Dy40 2.403 . S
O46 C48 1.254 . S
O47 Dy40 2.664 1_655 S
O47 Dy43 2.310 . S
O47 C48 1.268 1_655 S
C48 O46 1.254 . S
C48 O47 1.268 1_455 S
C49 O54 1.237 1_455 S
C49 O55 1.277 . S
O50 Dy43 2.351 1_455 S
O50 C58 1.249 . S
O51 Dy40 2.326 . S
O51 C58 1.267 . S
O52 C41 1.185 . S
O52 Dy43 2.398 . S
O53 C41 1.355 . S
O53 Dy43 2.491 . S
O54 Dy43 2.403 . S
O54 C49 1.237 1_655 S
O55 Dy40 2.310 . S
O55 Dy43 2.664 1_455 S
O55 C49 1.277 . S
O56 Dy40 2.351 1_655 S
O56 C59 1.249 . S
O57 Dy43 2.326 . S
O57 C59 1.267 . S
C58 O50 1.249 . S
C58 O51 1.267 . S
C59 O56 1.249 . S
C59 O57 1.267 . S
Dy60 O64 2.398 . S
Dy60 O65 2.491 . S
Dy60 O66 2.403 . S
Dy60 O67 2.664 . S
Dy60 O71 2.326 . S
Dy60 O75 2.310 . S
Dy60 O76 2.351 . S
C61 O72 1.185 . S
C61 O73 1.355 . S
C62 O64 1.185 . S
C62 O65 1.355 . S
Dy63 O67 2.310 . S
Dy63 O70 2.351 . S
Dy63 O72 2.398 . S
Dy63 O73 2.491 . S
Dy63 O74 2.403 . S
Dy63 O75 2.664 . S
Dy63 O77 2.326 . S
O64 Dy60 2.398 . S
O64 C62 1.185 . S
O65 Dy60 2.491 . S
O65 C62 1.355 . S
O66 Dy60 2.403 . S
O66 C68 1.254 . S
O67 Dy60 2.664 . S
O67 Dy63 2.310 . S
O67 C68 1.268 . S
C68 O66 1.254 . S
C68 O67 1.268 . S
C69 O74 1.254 . S
C69 O75 1.268 . S
O70 Dy63 2.351 . S
O70 C78 1.249 . S
O71 Dy60 2.326 . S
O71 C78 1.267 . S
O72 C61 1.185 . S
O72 Dy63 2.398 . S
O73 C61 1.355 . S
O73 Dy63 2.491 . S
O74 Dy63 2.403 . S
O74 C69 1.254 . S
O75 Dy60 2.310 . S
O75 Dy63 2.664 . S
O75 C69 1.268 . S
O76 Dy60 2.351 . S
O76 C79 1.249 . S
O77 Dy63 2.326 . S
O77 C79 1.267 . S
C78 O70 1.249 . S
C78 O71 1.267 . S
C79 O76 1.249 . S
C79 O77 1.267 . S
C80 C81 1.349 1_455 S
C80 C82 1.327 . S
C80 H105 0.950 . S
C81 C80 1.349 1_655 S
C81 C97 1.349 . S
C82 C80 1.327 . S
C82 C101 1.429 1_455 S
C82 H106 0.950 . S
C83 C100 1.574 . S
C83 C102 1.368 1_554 S
C83 H107 0.949 . S
H84 C88 0.949 . S
C85 C86 1.349 . S
C85 C87 1.327 . S
C85 H108 0.950 . S
C86 C85 1.349 . S
C86 C98 1.349 1_655 S
C87 C85 1.327 . S
C87 C103 1.429 . S
C87 H109 0.950 . S
C88 H84 0.949 . S
C88 C96 1.574 . S
C88 C104 1.368 1_456 S
H89 C97 0.950 . S
H90 C95 0.950 1_554 S
H91 C96 0.949 . S
H92 C98 0.950 . S
H93 C99 0.950 1_556 S
H94 C100 0.949 . S
C95 H90 0.950 1_556 S
C95 C97 1.327 . S
C95 C101 1.429 . S
C96 C88 1.574 . S
C96 H91 0.949 . S
C96 C102 1.368 1_455 S
C97 C81 1.349 . S
C97 H89 0.950 . S
C97 C95 1.327 . S
C98 C86 1.349 1_455 S
C98 H92 0.950 . S
C98 C99 1.327 . S
C99 H93 0.950 1_554 S
C99 C98 1.327 . S
C99 C103 1.429 1_455 S
C100 C83 1.574 . S
C100 H94 0.949 . S
C100 C104 1.368 . S
C101 C82 1.429 1_655 S
C101 C95 1.429 . S
C101 C102 1.523 . S
C102 C83 1.368 1_556 S
C102 C96 1.368 1_655 S
C102 C101 1.523 . S
C103 C87 1.429 . S
C103 C99 1.429 1_655 S
C103 C104 1.523 . S
C104 C88 1.368 1_654 S
C104 C100 1.368 . S
C104 C103 1.523 . S
H105 C80 0.950 . S
H106 C82 0.950 . S
H107 C83 0.949 . S
H108 C85 0.950 . S
H109 C87 0.950 . S
C110 C111 1.349 . S
C110 C112 1.327 . S
C110 H135 0.950 . S
C111 C110 1.349 . S
C111 C127 1.349 . S
C112 C110 1.327 . S
C112 C131 1.429 . S
C112 H136 0.950 . S
C113 C130 1.574 . S
C113 C132 1.368 1_556 S
C113 H137 0.949 . S
H114 C118 0.949 . S
C115 C116 1.349 . S
C115 C117 1.327 . S
C115 H138 0.950 . S
C116 C115 1.349 . S
C116 C128 1.349 . S
C117 C115 1.327 . S
C117 C133 1.429 . S
C117 H139 0.950 . S
C118 H114 0.949 . S
C118 C126 1.574 . S
C118 C134 1.368 1_554 S
H119 C127 0.950 . S
H120 C125 0.950 1_556 S
H121 C126 0.949 . S
H122 C128 0.950 . S
H123 C129 0.950 1_554 S
H124 C130 0.949 . S
C125 H120 0.950 1_554 S
C125 C127 1.327 . S
C125 C131 1.429 . S
C126 C118 1.574 . S
C126 H121 0.949 . S
C126 C132 1.368 . S
C127 C111 1.349 . S
C127 H119 0.950 . S
C127 C125 1.327 . S
C128 C116 1.349 . S
C128 H122 0.950 . S
C128 C129 1.327 . S
C129 H123 0.950 1_556 S
C129 C128 1.327 . S
C129 C133 1.429 . S
C130 C113 1.574 . S
C130 H124 0.949 . S
C130 C134 1.368 . S
C131 C112 1.429 . S
C131 C125 1.429 . S
C131 C132 1.523 . S
C132 C113 1.368 1_554 S
C132 C126 1.368 . S
C132 C131 1.523 . S
C133 C117 1.429 . S
C133 C129 1.429 . S
C133 C134 1.523 . S
C134 C118 1.368 1_556 S
C134 C130 1.368 . S
C134 C133 1.523 . S
H135 C110 0.950 . S
H136 C112 0.950 . S
H137 C113 0.949 . S
H138 C115 0.950 . S
H139 C117 0.950 . S
C140 C141 1.349 . S
C140 C142 1.327 . S
C140 H165 0.950 . S
C141 C140 1.349 . S
C141 C157 1.349 . S
C142 C140 1.327 . S
C142 C161 1.429 . S
C142 H166 0.950 1_556 S
C143 C160 1.574 1_565 S
C143 C162 1.368 . S
C143 H167 0.949 . S
H144 C148 0.949 . S
C145 C146 1.349 . S
C145 C147 1.327 . S
C145 H168 0.950 . S
C146 C145 1.349 . S
C146 C158 1.349 . S
C147 C145 1.327 . S
C147 C163 1.429 . S
C147 H169 0.950 1_554 S
C148 H144 0.949 . S
C148 C156 1.574 1_545 S
C148 C164 1.368 . S
H149 C157 0.950 . S
H150 C155 0.950 . S
H151 C156 0.949 . S
H152 C158 0.950 . S
H153 C159 0.950 . S
H154 C160 0.949 . S
C155 H150 0.950 . S
C155 C157 1.327 . S
C155 C161 1.429 . S
C156 C148 1.574 1_565 S
C156 H151 0.949 . S
C156 C162 1.368 1_554 S
C157 C141 1.349 . S
C157 H149 0.950 . S
C157 C155 1.327 . S
C158 C146 1.349 . S
C158 H152 0.950 . S
C158 C159 1.327 . S
C159 H153 0.950 . S
C159 C158 1.327 . S
C159 C163 1.429 . S
C160 C143 1.574 1_545 S
C160 H154 0.949 . S
C160 C164 1.368 1_556 S
C161 C142 1.429 . S
C161 C155 1.429 . S
C161 C162 1.523 . S
C162 C143 1.368 . S
C162 C156 1.368 1_556 S
C162 C161 1.523 . S
C163 C147 1.429 . S
C163 C159 1.429 . S
C163 C164 1.523 . S
C164 C148 1.368 . S
C164 C160 1.368 1_554 S
C164 C163 1.523 . S
H165 C140 0.950 . S
H166 C142 0.950 1_554 S
H167 C143 0.949 . S
H168 C145 0.950 . S
H169 C147 0.950 1_556 S
C170 C171 1.349 1_655 S
C170 C172 1.327 . S
C170 H195 0.950 . S
C171 C170 1.349 1_455 S
C171 C187 1.349 . S
C172 C170 1.327 . S
C172 C191 1.429 1_655 S
C172 H196 0.950 1_554 S
C173 C190 1.574 1_565 S
C173 C192 1.368 . S
C173 H197 0.949 . S
H174 C178 0.949 . S
C175 C176 1.349 . S
C175 C177 1.327 . S
C175 H198 0.950 . S
C176 C175 1.349 . S
C176 C188 1.349 1_455 S
C177 C175 1.327 . S
C177 C193 1.429 . S
C177 H199 0.950 1_556 S
C178 H174 0.949 . S
C178 C186 1.574 1_545 S
C178 C194 1.368 1_655 S
H179 C187 0.950 . S
H180 C185 0.950 . S
H181 C186 0.949 . S
H182 C188 0.950 . S
H183 C189 0.950 . S
H184 C190 0.949 . S
C185 H180 0.950 . S
C185 C187 1.327 . S
C185 C191 1.429 . S
C186 C178 1.574 1_565 S
C186 H181 0.949 . S
C186 C192 1.368 1_656 S
C187 C171 1.349 . S
C187 H179 0.950 . S
C187 C185 1.327 . S
C188 C176 1.349 1_655 S
C188 H182 0.950 . S
C188 C189 1.327 . S
C189 H183 0.950 . S
C189 C188 1.327 . S
C189 C193 1.429 1_655 S
C190 C173 1.574 1_545 S
C190 H184 0.949 . S
C190 C194 1.368 1_554 S
C191 C172 1.429 1_455 S
C191 C185 1.429 . S
C191 C192 1.523 . S
C192 C173 1.368 . S
C192 C186 1.368 1_454 S
C192 C191 1.523 . S
C193 C177 1.429 . S
C193 C189 1.429 1_455 S
C193 C194 1.523 . S
C194 C178 1.368 1_455 S
C194 C190 1.368 1_556 S
C194 C193 1.523 . S
H195 C170 0.950 . S
H196 C172 0.950 1_556 S
H197 C173 0.949 . S
H198 C175 0.950 . S
H199 C177 0.950 1_554 S
C200 C201 1.349 . S
C200 C202 1.327 . S
C200 H225 0.950 . S
C201 C200 1.349 . S
C201 C217 1.349 . S
C202 C200 1.327 . S
C202 C221 1.429 . S
C202 H226 0.950 . S
C203 C220 1.574 . S
C203 C222 1.368 . S
C203 H227 0.949 . S
H204 C208 0.949 . S
C205 C206 1.349 . S
C205 C207 1.327 . S
C205 H228 0.950 . S
C206 C205 1.349 . S
C206 C218 1.349 . S
C207 C205 1.327 . S
C207 C223 1.429 . S
C207 H229 0.950 . S
C208 H204 0.949 . S
C208 C216 1.574 . S
C208 C224 1.368 . S
H209 C217 0.950 . S
H210 C215 0.950 . S
H211 C216 0.949 . S
H212 C218 0.950 . S
H213 C219 0.950 . S
H214 C220 0.949 . S
C215 H210 0.950 . S
C215 C217 1.327 . S
C215 C221 1.429 . S
C216 C208 1.574 . S
C216 H211 0.949 . S
C216 C222 1.368 . S
C217 C201 1.349 . S
C217 H209 0.950 . S
C217 C215 1.327 . S
C218 C206 1.349 . S
C218 H212 0.950 . S
C218 C219 1.327 . S
C219 H213 0.950 . S
C219 C218 1.327 . S
C219 C223 1.429 . S
C220 C203 1.574 . S
C220 H214 0.949 . S
C220 C224 1.368 . S
C221 C202 1.429 . S
C221 C215 1.429 . S
C221 C222 1.523 . S
C222 C203 1.368 . S
C222 C216 1.368 . S
C222 C221 1.523 . S
C223 C207 1.429 . S
C223 C219 1.429 . S
C223 C224 1.523 . S
C224 C208 1.368 . S
C224 C220 1.368 . S
C224 C223 1.523 . S
H225 C200 0.950 . S
H226 C202 0.950 . S
H227 C203 0.949 . S
H228 C205 0.950 . S
H229 C207 0.950 . S
C230 C231 1.349 . S
C230 C232 1.327 . S
C230 H255 0.950 . S
C231 C230 1.349 . S
C231 C247 1.349 . S
C232 C230 1.327 . S
C232 C251 1.429 . S
C232 H256 0.950 . S
C233 C250 1.574 . S
C233 C252 1.368 . S
C233 H257 0.949 . S
H234 C238 0.949 . S
C235 C236 1.349 . S
C235 C237 1.327 . S
C235 H258 0.950 . S
C236 C235 1.349 . S
C236 C248 1.349 . S
C237 C235 1.327 . S
C237 C253 1.429 . S
C237 H259 0.950 . S
C238 H234 0.949 . S
C238 C246 1.574 . S
C238 C254 1.368 . S
H239 C247 0.950 . S
H240 C245 0.950 . S
H241 C246 0.949 . S
H242 C248 0.950 . S
H243 C249 0.950 . S
H244 C250 0.949 . S
C245 H240 0.950 . S
C245 C247 1.327 . S
C245 C251 1.429 . S
C246 C238 1.574 . S
C246 H241 0.949 . S
C246 C252 1.368 . S
C247 C231 1.349 . S
C247 H239 0.950 . S
C247 C245 1.327 . S
C248 C236 1.349 . S
C248 H242 0.950 . S
C248 C249 1.327 . S
C249 H243 0.950 . S
C249 C248 1.327 . S
C249 C253 1.429 . S
C250 C233 1.574 . S
C250 H244 0.949 . S
C250 C254 1.368 . S
C251 C232 1.429 . S
C251 C245 1.429 . S
C251 C252 1.523 . S
C252 C233 1.368 . S
C252 C246 1.368 . S
C252 C251 1.523 . S
C253 C237 1.429 . S
C253 C249 1.429 . S
C253 C254 1.523 . S
C254 C238 1.368 . S
C254 C250 1.368 . S
C254 C253 1.523 . S
H255 C230 0.950 . S
H256 C232 0.950 . S
H257 C233 0.949 . S
H258 C235 0.950 . S
H259 C237 0.950 . S
C260 C261 1.349 . S
C260 C262 1.327 . S
C260 H285 0.950 . S
C261 C260 1.349 . S
C261 C277 1.349 . S
C262 C260 1.327 . S
C262 C281 1.429 . S
C262 H286 0.950 . S
C263 C280 1.574 . S
C263 C282 1.368 . S
C263 H287 0.949 . S
H264 C268 0.949 . S
C265 C266 1.349 . S
C265 C267 1.327 . S
C265 H288 0.950 . S
C266 C265 1.349 . S
C266 C278 1.349 . S
C267 C265 1.327 . S
C267 C283 1.429 . S
C267 H289 0.950 . S
C268 H264 0.949 . S
C268 C276 1.574 . S
C268 C284 1.368 . S
H269 C277 0.950 . S
H270 C275 0.950 . S
H271 C276 0.949 . S
H272 C278 0.950 . S
H273 C279 0.950 . S
H274 C280 0.949 . S
C275 H270 0.950 . S
C275 C277 1.327 . S
C275 C281 1.429 . S
C276 C268 1.574 . S
C276 H271 0.949 . S
C276 C282 1.368 . S
C277 C261 1.349 . S
C277 H269 0.950 . S
C277 C275 1.327 . S
C278 C266 1.349 . S
C278 H272 0.950 . S
C278 C279 1.327 . S
C279 H273 0.950 . S
C279 C278 1.327 . S
C279 C283 1.429 . S
C280 C263 1.574 . S
C280 H274 0.949 . S
C280 C284 1.368 . S
C281 C262 1.429 . S
C281 C275 1.429 . S
C281 C282 1.523 . S
C282 C263 1.368 . S
C282 C276 1.368 . S
C282 C281 1.523 . S
C283 C267 1.429 . S
C283 C279 1.429 . S
C283 C284 1.523 . S
C284 C268 1.368 . S
C284 C280 1.368 . S
C284 C283 1.523 . S
H285 C260 0.950 . S
H286 C262 0.950 . S
H287 C263 0.949 . S
H288 C265 0.950 . S
H289 C267 0.950 . S
C290 C291 1.349 . S
C290 C292 1.327 . S
C290 H315 0.950 . S
C291 C290 1.349 . S
C291 C307 1.349 . S
C292 C290 1.327 . S
C292 C311 1.429 . S
C292 H316 0.950 . S
C293 C310 1.574 . S
C293 C312 1.368 . S
C293 H317 0.949 . S
H294 C298 0.949 . S
C295 C296 1.349 . S
C295 C297 1.327 . S
C295 H318 0.950 . S
C296 C295 1.349 . S
C296 C308 1.349 . S
C297 C295 1.327 . S
C297 C313 1.429 . S
C297 H319 0.950 . S
C298 H294 0.949 . S
C298 C306 1.574 . S
C298 C314 1.368 . S
H299 C307 0.950 . S
H300 C305 0.950 . S
H301 C306 0.949 . S
H302 C308 0.950 . S
H303 C309 0.950 . S
H304 C310 0.949 . S
C305 H300 0.950 . S
C305 C307 1.327 . S
C305 C311 1.429 . S
C306 C298 1.574 . S
C306 H301 0.949 . S
C306 C312 1.368 . S
C307 C291 1.349 . S
C307 H299 0.950 . S
C307 C305 1.327 . S
C308 C296 1.349 . S
C308 H302 0.950 . S
C308 C309 1.327 . S
C309 H303 0.950 . S
C309 C308 1.327 . S
C309 C313 1.429 . S
C310 C293 1.574 . S
C310 H304 0.949 . S
C310 C314 1.368 . S
C311 C292 1.429 . S
C311 C305 1.429 . S
C311 C312 1.523 . S
C312 C293 1.368 . S
C312 C306 1.368 . S
C312 C311 1.523 . S
C313 C297 1.429 . S
C313 C309 1.429 . S
C313 C314 1.523 . S
C314 C298 1.368 . S
C314 C310 1.368 . S
C314 C313 1.523 . S
H315 C290 0.950 . S
H316 C292 0.950 . S
H317 C293 0.949 . S
H318 C295 0.950 . S
H319 C297 0.950 . S
C320 C321 1.349 . S
C320 C322 1.327 . S
C320 H345 0.950 . S
C321 C320 1.349 . S
C321 C337 1.349 . S
C322 C320 1.327 . S
C322 C341 1.429 . S
C322 H346 0.950 . S
C323 C340 1.574 . S
C323 C342 1.368 1_554 S
C323 H347 0.949 . S
H324 C328 0.949 . S
C325 C326 1.349 . S
C325 C327 1.327 . S
C325 H348 0.950 . S
C326 C325 1.349 . S
C326 C338 1.349 1_554 S
C327 C325 1.327 . S
C327 C343 1.429 1_554 S
C327 H349 0.950 . S
C328 H324 0.949 . S
C328 C336 1.574 . S
C328 C344 1.368 . S
H329 C337 0.950 1_554 S
H330 C335 0.950 1_554 S
H331 C336 0.949 . S
H332 C338 0.950 . S
H333 C339 0.950 . S
H334 C340 0.949 . S
C335 H330 0.950 1_556 S
C335 C337 1.327 . S
C335 C341 1.429 . S
C336 C328 1.574 . S
C336 H331 0.949 . S
C336 C342 1.368 . S
C337 C321 1.349 . S
C337 H329 0.950 1_556 S
C337 C335 1.327 . S
C338 C326 1.349 1_556 S
C338 H332 0.950 . S
C338 C339 1.327 . S
C339 H333 0.950 . S
C339 C338 1.327 . S
C339 C343 1.429 . S
C340 C323 1.574 . S
C340 H334 0.949 . S
C340 C344 1.368 1_554 S
C341 C322 1.429 . S
C341 C335 1.429 . S
C341 C342 1.523 . S
C342 C323 1.368 1_556 S
C342 C336 1.368 . S
C342 C341 1.523 . S
C343 C327 1.429 1_556 S
C343 C339 1.429 . S
C343 C344 1.523 . S
C344 C328 1.368 . S
C344 C340 1.368 1_556 S
C344 C343 1.523 . S
H345 C320 0.950 . S
H346 C322 0.950 . S
H347 C323 0.949 . S
H348 C325 0.950 . S
H349 C327 0.950 . S
C350 C351 1.349 1_554 S
C350 C352 1.327 . S
C350 H375 0.950 . S
C351 C350 1.349 1_556 S
C351 C367 1.349 . S
C352 C350 1.327 . S
C352 C371 1.429 . S
C352 H376 0.950 . S
C353 C370 1.574 . S
C353 C372 1.368 1_556 S
C353 H377 0.949 . S
H354 C358 0.949 . S
C355 C356 1.349 . S
C355 C357 1.327 . S
C355 H378 0.948 1_554 S
C356 C355 1.349 . S
C356 C368 1.349 . S
C357 C355 1.327 . S
C357 C373 1.429 . S
C357 H379 0.950 1_554 S
C358 H354 0.949 . S
C358 C366 1.574 . S
C358 C374 1.368 . S
H359 C367 0.950 . S
H360 C365 0.950 . S
H361 C366 0.949 . S
H362 C368 0.950 . S
H363 C369 0.950 . S
H364 C370 0.949 . S
C365 H360 0.950 . S
C365 C367 1.327 . S
C365 C371 1.429 1_556 S
C366 C358 1.574 . S
C366 H361 0.949 . S
C366 C372 1.368 . S
C367 C351 1.349 . S
C367 H359 0.950 . S
C367 C365 1.327 . S
C368 C356 1.349 . S
C368 H362 0.950 . S
C368 C369 1.327 . S
C369 H363 0.950 . S
C369 C368 1.327 . S
C369 C373 1.429 . S
C370 C353 1.574 . S
C370 H364 0.949 . S
C370 C374 1.368 1_556 S
C371 C352 1.429 . S
C371 C365 1.429 1_554 S
C371 C372 1.523 . S
C372 C353 1.368 1_554 S
C372 C366 1.368 . S
C372 C371 1.523 . S
C373 C357 1.429 . S
C373 C369 1.429 . S
C373 C374 1.523 . S
C374 C358 1.368 . S
C374 C370 1.368 1_554 S
C374 C373 1.523 . S
H375 C350 0.950 . S
H376 C352 0.950 . S
H377 C353 0.949 . S
H378 C355 0.948 1_556 S
H379 C357 0.950 1_556 S
C380 C381 1.349 1_556 S
C380 C382 1.327 . S
C380 H405 0.950 . S
C381 C380 1.349 1_554 S
C381 C397 1.349 . S
C382 C380 1.327 . S
C382 C401 1.429 . S
C382 H406 0.950 . S
C383 C400 1.574 . S
C383 C402 1.368 1_554 S
C383 H407 0.949 . S
H384 C388 0.949 . S
C385 C386 1.349 . S
C385 C387 1.327 . S
C385 H408 0.950 . S
C386 C385 1.349 . S
C386 C398 1.349 . S
C387 C385 1.327 . S
C387 C403 1.429 . S
C387 H409 0.950 1_556 S
C388 H384 0.949 . S
C388 C396 1.574 . S
C388 C404 1.368 . S
H389 C397 0.950 . S
H390 C395 0.950 . S
H391 C396 0.949 . S
H392 C398 0.950 . S
H393 C399 0.950 . S
H394 C400 0.949 . S
C395 H390 0.950 . S
C395 C397 1.327 . S
C395 C401 1.429 1_554 S
C396 C388 1.574 . S
C396 H391 0.949 . S
C396 C402 1.368 . S
C397 C381 1.349 . S
C397 H389 0.950 . S
C397 C395 1.327 . S
C398 C386 1.349 . S
C398 H392 0.950 . S
C398 C399 1.327 . S
C399 H393 0.950 . S
C399 C398 1.327 . S
C399 C403 1.429 . S
C400 C383 1.574 . S
C400 H394 0.949 . S
C400 C404 1.368 1_554 S
C401 C382 1.429 . S
C401 C395 1.429 1_556 S
C401 C402 1.523 . S
C402 C383 1.368 1_556 S
C402 C396 1.368 . S
C402 C401 1.523 . S
C403 C387 1.429 . S
C403 C399 1.429 . S
C403 C404 1.523 . S
C404 C388 1.368 . S
C404 C400 1.368 1_556 S
C404 C403 1.523 . S
H405 C380 0.950 . S
H406 C382 0.950 . S
H407 C383 0.949 . S
H408 C385 0.950 . S
H409 C387 0.950 1_554 S
C410 C411 1.349 . S
C410 C412 1.327 . S
C410 H435 0.950 1_554 S
C411 C410 1.349 . S
C411 C427 1.349 . S
C412 C410 1.327 . S
C412 C431 1.429 . S
C412 H436 0.950 1_554 S
C413 C430 1.574 . S
C413 C432 1.368 . S
C413 H437 0.949 . S
H414 C418 0.949 . S
C415 C416 1.349 1_554 S
C415 C417 1.327 . S
C415 H438 0.950 . S
C416 C415 1.349 1_556 S
C416 C428 1.349 . S
C417 C415 1.327 . S
C417 C433 1.429 . S
C417 H439 0.950 . S
C418 H414 0.949 . S
C418 C426 1.574 . S
C418 C434 1.368 1_556 S
H419 C427 0.950 . S
H420 C425 0.950 . S
H421 C426 0.949 . S
H422 C428 0.950 . S
H423 C429 0.950 . S
H424 C430 0.949 . S
C425 H420 0.950 . S
C425 C427 1.327 . S
C425 C431 1.429 . S
C426 C418 1.574 . S
C426 H421 0.949 . S
C426 C432 1.368 1_556 S
C427 C411 1.349 . S
C427 H419 0.950 . S
C427 C425 1.327 . S
C428 C416 1.349 . S
C428 H422 0.950 . S
C428 C429 1.327 . S
C429 H423 0.950 . S
C429 C428 1.327 . S
C429 C433 1.429 1_556 S
C430 C413 1.574 . S
C430 H424 0.949 . S
C430 C434 1.368 . S
C431 C412 1.429 . S
C431 C425 1.429 . S
C431 C432 1.523 . S
C432 C413 1.368 . S
C432 C426 1.368 1_554 S
C432 C431 1.523 . S
C433 C417 1.429 . S
C433 C429 1.429 1_554 S
C433 C434 1.523 . S
C434 C418 1.368 1_554 S
C434 C430 1.368 . S
C434 C433 1.523 . S
H435 C410 0.950 1_556 S
H436 C412 0.950 1_556 S
H437 C413 0.949 . S
H438 C415 0.950 . S
H439 C417 0.950 . S
C81 C48 1.763 1_655 S
C86 C8 1.763 1_655 S
C111 C29 2.003 . S
C116 C69 2.003 . S
C141 C68 1.763 . S
C146 C28 1.763 . S
C171 C9 2.006 . S
C176 C49 2.006 . S
C201 C61 1.530 . S
C206 C18 1.537 . S
C231 C58 1.537 . S
C236 C21 1.530 . S
C261 C41 1.530 . S
C266 C38 1.537 . S
C291 C1 1.530 . S
C296 C78 1.537 . S
C321 C79 0.805 . S
C326 C2 0.808 . S
C351 C42 0.808 . S
C356 C39 0.805 . S
C381 C22 0.808 . S
C386 C59 0.805 . S
C411 C19 0.805 . S
C416 C62 0.808 . S
