# Generated by pormake.
# Topology whe, (6)-cn, num edge types: 1
# Building blocks:
#     Node 0, Type 0, BuildingBlock: IZENUY_clean_sbu_0, # of connection points: 6
#     Node 1, Type 0, BuildingBlock: IZENUY_clean_sbu_0, # of connection points: 6
#     Node 2, Type 0, BuildingBlock: IZENUY_clean_sbu_0, # of connection points: 6
#     Node 3, Type 0, BuildingBlock: IZENUY_clean_sbu_0, # of connection points: 6
#     Node 4, Type 0, BuildingBlock: IZENUY_clean_sbu_0, # of connection points: 6
#     Node 5, Type 0, BuildingBlock: IZENUY_clean_sbu_0, # of connection points: 6
#     Node 6, Type 0, BuildingBlock: IZENUY_clean_sbu_0, # of connection points: 6
#     Node 7, Type 0, BuildingBlock: IZENUY_clean_sbu_0, # of connection points: 6
#     Node 8, Type 0, BuildingBlock: IZENUY_clean_sbu_0, # of connection points: 6
#     Node 9, Type 0, BuildingBlock: IZENUY_clean_sbu_0, # of connection points: 6
#     Node 10, Type 0, BuildingBlock: IZENUY_clean_sbu_0, # of connection points: 6
#     Node 11, Type 0, BuildingBlock: IZENUY_clean_sbu_0, # of connection points: 6
#     Node 12, Type 0, BuildingBlock: IZENUY_clean_sbu_0, # of connection points: 6
#     Node 13, Type 0, BuildingBlock: IZENUY_clean_sbu_0, # of connection points: 6
#     Node 14, Type 0, BuildingBlock: IZENUY_clean_sbu_0, # of connection points: 6
#     Node 15, Type 0, BuildingBlock: IZENUY_clean_sbu_0, # of connection points: 6
#     Edge 16, Type (0, 0), BuildingBlock: UVAHIK_clean_linker_0, # of connection points: 2
#     Edge 17, Type (0, 0), BuildingBlock: UVAHIK_clean_linker_0, # of connection points: 2
#     Edge 18, Type (0, 0), BuildingBlock: UVAHIK_clean_linker_0, # of connection points: 2
#     Edge 19, Type (0, 0), BuildingBlock: UVAHIK_clean_linker_0, # of connection points: 2
#     Edge 20, Type (0, 0), BuildingBlock: UVAHIK_clean_linker_0, # of connection points: 2
#     Edge 21, Type (0, 0), BuildingBlock: UVAHIK_clean_linker_0, # of connection points: 2
#     Edge 22, Type (0, 0), BuildingBlock: UVAHIK_clean_linker_0, # of connection points: 2
#     Edge 23, Type (0, 0), BuildingBlock: UVAHIK_clean_linker_0, # of connection points: 2
#     Edge 24, Type (0, 0), BuildingBlock: UVAHIK_clean_linker_0, # of connection points: 2
#     Edge 25, Type (0, 0), BuildingBlock: UVAHIK_clean_linker_0, # of connection points: 2
#     Edge 26, Type (0, 0), BuildingBlock: UVAHIK_clean_linker_0, # of connection points: 2
#     Edge 27, Type (0, 0), BuildingBlock: UVAHIK_clean_linker_0, # of connection points: 2
#     Edge 28, Type (0, 0), BuildingBlock: UVAHIK_clean_linker_0, # of connection points: 2
#     Edge 29, Type (0, 0), BuildingBlock: UVAHIK_clean_linker_0, # of connection points: 2
#     Edge 30, Type (0, 0), BuildingBlock: UVAHIK_clean_linker_0, # of connection points: 2
#     Edge 31, Type (0, 0), BuildingBlock: UVAHIK_clean_linker_0, # of connection points: 2
#     Edge 32, Type (0, 0), BuildingBlock: UVAHIK_clean_linker_0, # of connection points: 2
#     Edge 33, Type (0, 0), BuildingBlock: UVAHIK_clean_linker_0, # of connection points: 2
#     Edge 34, Type (0, 0), BuildingBlock: UVAHIK_clean_linker_0, # of connection points: 2
#     Edge 35, Type (0, 0), BuildingBlock: UVAHIK_clean_linker_0, # of connection points: 2
#     Edge 36, Type (0, 0), BuildingBlock: UVAHIK_clean_linker_0, # of connection points: 2
#     Edge 37, Type (0, 0), BuildingBlock: UVAHIK_clean_linker_0, # of connection points: 2
#     Edge 38, Type (0, 0), BuildingBlock: UVAHIK_clean_linker_0, # of connection points: 2
#     Edge 39, Type (0, 0), BuildingBlock: UVAHIK_clean_linker_0, # of connection points: 2
#     Edge 40, Type (0, 0), BuildingBlock: UVAHIK_clean_linker_0, # of connection points: 2
#     Edge 41, Type (0, 0), BuildingBlock: UVAHIK_clean_linker_0, # of connection points: 2
#     Edge 42, Type (0, 0), BuildingBlock: UVAHIK_clean_linker_0, # of connection points: 2
#     Edge 43, Type (0, 0), BuildingBlock: UVAHIK_clean_linker_0, # of connection points: 2
#     Edge 44, Type (0, 0), BuildingBlock: UVAHIK_clean_linker_0, # of connection points: 2
#     Edge 45, Type (0, 0), BuildingBlock: UVAHIK_clean_linker_0, # of connection points: 2
#     Edge 46, Type (0, 0), BuildingBlock: UVAHIK_clean_linker_0, # of connection points: 2
#     Edge 47, Type (0, 0), BuildingBlock: UVAHIK_clean_linker_0, # of connection points: 2
#     Edge 48, Type (0, 0), BuildingBlock: UVAHIK_clean_linker_0, # of connection points: 2
#     Edge 49, Type (0, 0), BuildingBlock: UVAHIK_clean_linker_0, # of connection points: 2
#     Edge 50, Type (0, 0), BuildingBlock: UVAHIK_clean_linker_0, # of connection points: 2
#     Edge 51, Type (0, 0), BuildingBlock: UVAHIK_clean_linker_0, # of connection points: 2
#     Edge 52, Type (0, 0), BuildingBlock: UVAHIK_clean_linker_0, # of connection points: 2
#     Edge 53, Type (0, 0), BuildingBlock: UVAHIK_clean_linker_0, # of connection points: 2
#     Edge 54, Type (0, 0), BuildingBlock: UVAHIK_clean_linker_0, # of connection points: 2
#     Edge 55, Type (0, 0), BuildingBlock: UVAHIK_clean_linker_0, # of connection points: 2
#     Edge 56, Type (0, 0), BuildingBlock: UVAHIK_clean_linker_0, # of connection points: 2
#     Edge 57, Type (0, 0), BuildingBlock: UVAHIK_clean_linker_0, # of connection points: 2
#     Edge 58, Type (0, 0), BuildingBlock: UVAHIK_clean_linker_0, # of connection points: 2
#     Edge 59, Type (0, 0), BuildingBlock: UVAHIK_clean_linker_0, # of connection points: 2
#     Edge 60, Type (0, 0), BuildingBlock: UVAHIK_clean_linker_0, # of connection points: 2
#     Edge 61, Type (0, 0), BuildingBlock: UVAHIK_clean_linker_0, # of connection points: 2
#     Edge 62, Type (0, 0), BuildingBlock: UVAHIK_clean_linker_0, # of connection points: 2
#     Edge 63, Type (0, 0), BuildingBlock: UVAHIK_clean_linker_0, # of connection points: 2
# Relax obj value: 0.463
# Max RMSD: 0.278
# Mean RMSD: 0.278
data_MOF--net-whe--node1-IZENUY_clean_sbu_0--edge1-UVAHIK_clean_linker_0
_symmetry_space_group_name_H-M    P1
_symmetry_Int_Tables_number       1
_symmetry_cell_setting            triclinic
loop_
_symmetry_equiv_pos_as_xyz
'x, y, z'
_cell_length_a     43.159526
_cell_length_b     43.364252
_cell_length_c     70.204574
_cell_angle_alpha  89.950517
_cell_angle_beta   90.084595
_cell_angle_gamma 89.929662
loop_
_atom_site_label
_atom_site_type_symbol
_atom_site_fract_x
_atom_site_fract_y
_atom_site_fract_z
_atom_type_partial_charge
Fe0 Fe 0.09057 0.2821 0.16331 0.0
Fe1 Fe 0.07046 0.3308 0.13404 0.0
O2 O 0.10013 0.31 0.14602 0.0
Fe3 Fe 0.13925 0.31871 0.14057 0.0
O4 O 0.15581 0.30837 0.16425 0.0
O5 O 0.1149 0.29929 0.18156 0.0
O6 O 0.05875 0.30534 0.17323 0.0
C7 C 0.05249 0.33387 0.17122 0.0
C8 C 0.13903 0.25512 0.14126 0.0
O9 O 0.05796 0.34812 0.15595 0.0
C10 C 0.10829 0.31977 0.10441 0.0
O11 O 0.06524 0.26126 0.14714 0.0
O12 O 0.04068 0.30128 0.13585 0.0
O13 O 0.14633 0.27955 0.13235 0.0
O14 O 0.1212 0.25559 0.15567 0.0
C15 C 0.11277 0.37623 0.14179 0.0
O16 O 0.08214 0.3142 0.11167 0.0
O17 O 0.13073 0.32858 0.11506 0.0
C18 C 0.04257 0.27263 0.13835 0.0
O19 O 0.0942 0.36488 0.12993 0.0
O20 O 0.13299 0.35874 0.14934 0.0
C21 C 0.14375 0.30263 0.18034 0.0
Fe22 Fe 0.68413 0.13325 0.14882 0.0
Fe23 Fe 0.71884 0.08299 0.17153 0.0
O24 O 0.69184 0.09382 0.15382 0.0
Fe25 Fe 0.67081 0.06549 0.14081 0.0
O26 O 0.63722 0.09037 0.13694 0.0
O27 O 0.64376 0.12746 0.15727 0.0
O28 O 0.69431 0.14885 0.1725 0.0
C29 C 0.69981 0.13668 0.18851 0.0
C30 C 0.6841 0.10482 0.11231 0.0
O31 O 0.7023 0.10787 0.18973 0.0
C32 C 0.72807 0.0354 0.14604 0.0
O33 O 0.72384 0.13944 0.1411 0.0
O34 O 0.74689 0.11237 0.1641 0.0
O35 O 0.68863 0.0782 0.11901 0.0
O36 O 0.67463 0.12641 0.12321 0.0
C37 C 0.66543 0.04556 0.17763 0.0
O38 O 0.73949 0.05679 0.15583 0.0
O39 O 0.69965 0.03503 0.14219 0.0
C40 C 0.74804 0.13086 0.15 0.0
O41 O 0.69359 0.05247 0.18105 0.0
O42 O 0.65238 0.05157 0.162 0.0
C43 C 0.62597 0.10795 0.14937 0.0
Fe44 Fe 0.88416 0.68161 0.14259 0.0
Fe45 Fe 0.92845 0.72649 0.16318 0.0
O46 O 0.92204 0.6947 0.14793 0.0
Fe47 Fe 0.95424 0.67465 0.13823 0.0
O48 O 0.93445 0.6379 0.13564 0.0
O49 O 0.89314 0.6433 0.15313 0.0
O50 O 0.86654 0.6932 0.16568 0.0
C51 C 0.87776 0.70249 0.18142 0.0
C52 C 0.91728 0.67825 0.10722 0.0
O53 O 0.90589 0.70998 0.18249 0.0
C54 C 0.97543 0.73566 0.13788 0.0
O55 O 0.87331 0.71866 0.13231 0.0
O56 O 0.89532 0.74837 0.1542 0.0
O57 O 0.94295 0.68596 0.11451 0.0
O58 O 0.89481 0.66955 0.11785 0.0
C59 C 0.96911 0.68039 0.17579 0.0
O60 O 0.95143 0.74657 0.14543 0.0
O61 O 0.98088 0.70718 0.13863 0.0
C62 C 0.87776 0.74476 0.1399 0.0
O63 O 0.96269 0.70888 0.17429 0.0
O64 O 0.96585 0.66243 0.1618 0.0
C65 C 0.91493 0.62651 0.14684 0.0
Fe66 Fe 0.33299 0.86958 0.14992 0.0
Fe67 Fe 0.29112 0.92009 0.16743 0.0
O68 O 0.32252 0.90892 0.1529 0.0
Fe69 Fe 0.34501 0.93741 0.14098 0.0
O70 O 0.38 0.91389 0.13975 0.0
O71 O 0.37153 0.87791 0.16057 0.0
O72 O 0.31973 0.85582 0.17351 0.0
C73 C 0.3092 0.86911 0.18819 0.0
C74 C 0.33692 0.89573 0.1129 0.0
O75 O 0.30384 0.89764 0.18787 0.0
C76 C 0.28636 0.96545 0.14027 0.0
O77 O 0.29537 0.86009 0.13987 0.0
O78 O 0.2661 0.88915 0.15886 0.0
O79 O 0.33171 0.92298 0.1184 0.0
O80 O 0.346 0.87526 0.1248 0.0
C81 C 0.34154 0.95938 0.17725 0.0
O82 O 0.27355 0.9436 0.1489 0.0
O83 O 0.31535 0.96716 0.13971 0.0
C84 C 0.26919 0.86892 0.14594 0.0
O85 O 0.3128 0.95257 0.1778 0.0
O86 O 0.35858 0.9525 0.16328 0.0
C87 C 0.38992 0.89711 0.153 0.0
Fe88 Fe 0.09255 0.7223 0.35432 0.0
Fe89 Fe 0.07409 0.6743 0.38444 0.0
O90 O 0.10262 0.6922 0.3701 0.0
Fe91 Fe 0.14135 0.67868 0.37189 0.0
O92 O 0.15353 0.68959 0.34747 0.0
O93 O 0.11031 0.7036 0.33389 0.0
O94 O 0.05575 0.70396 0.34712 0.0
C95 C 0.04478 0.67708 0.35006 0.0
C96 C 0.14831 0.74171 0.37257 0.0
O97 O 0.05348 0.66068 0.3639 0.0
C98 C 0.12025 0.67857 0.41009 0.0
O99 O 0.07389 0.74498 0.3728 0.0
O100 O 0.04847 0.7074 0.38634 0.0
O101 O 0.15428 0.71612 0.3806 0.0
O102 O 0.12786 0.74428 0.35958 0.0
C103 C 0.10811 0.62494 0.37136 0.0
O104 O 0.09347 0.68759 0.40562 0.0
O105 O 0.1379 0.66693 0.39743 0.0
C106 C 0.05267 0.73574 0.38362 0.0
O107 O 0.09399 0.63711 0.38514 0.0
O108 O 0.1286 0.6406 0.36268 0.0
C109 C 0.13888 0.69802 0.33271 0.0
Fe110 Fe 0.31942 0.12923 0.37076 0.0
Fe111 Fe 0.2658 0.08689 0.35896 0.0
O112 O 0.3032 0.0919 0.36881 0.0
Fe113 Fe 0.32383 0.0588 0.37636 0.0
O114 O 0.35486 0.06656 0.36013 0.0
O115 O 0.36023 0.11611 0.36605 0.0
O116 O 0.31456 0.13751 0.34499 0.0
C117 C 0.28808 0.1375 0.33702 0.0
C118 C 0.33775 0.10257 0.40485 0.0
O119 O 0.26641 0.12169 0.34414 0.0
C120 C 0.26705 0.0411 0.38777 0.0
O121 O 0.28143 0.14733 0.37644 0.0
O122 O 0.24896 0.10788 0.3785 0.0
O123 O 0.34393 0.07781 0.39612 0.0
O124 O 0.32457 0.1247 0.39638 0.0
C125 C 0.30083 0.04374 0.34107 0.0
O126 O 0.25693 0.05112 0.37199 0.0
O127 O 0.29384 0.04839 0.3932 0.0
C128 C 0.25625 0.13536 0.38253 0.0
O129 O 0.28266 0.06637 0.33899 0.0
O130 O 0.30722 0.03447 0.35769 0.0
C131 C 0.37085 0.09062 0.35963 0.0
Fe132 Fe 0.92126 0.29163 0.35071 0.0
Fe133 Fe 0.93977 0.34342 0.37826 0.0
O134 O 0.91075 0.32103 0.36681 0.0
Fe135 Fe 0.87135 0.32958 0.37165 0.0
O136 O 0.85559 0.31721 0.34829 0.0
O137 O 0.89685 0.30635 0.33164 0.0
O138 O 0.95272 0.31453 0.34018 0.0
C139 C 0.9583 0.34333 0.34111 0.0
C140 C 0.87283 0.2659 0.37327 0.0
O141 O 0.95231 0.35899 0.35579 0.0
C142 C 0.90122 0.33295 0.40775 0.0
O143 O 0.94674 0.27291 0.36785 0.0
O144 O 0.97019 0.31447 0.37766 0.0
O145 O 0.86466 0.291 0.38111 0.0
O146 O 0.89111 0.26535 0.35909 0.0
C147 C 0.89665 0.38741 0.3689 0.0
O148 O 0.92799 0.32837 0.40108 0.0
O149 O 0.87917 0.34153 0.39677 0.0
C150 C 0.9688 0.28562 0.37649 0.0
O151 O 0.91534 0.3774 0.38116 0.0
O152 O 0.87707 0.36892 0.3617 0.0
C153 C 0.86795 0.30979 0.33258 0.0
Fe154 Fe 0.74556 0.92267 0.35007 0.0
Fe155 Fe 0.68844 0.9475 0.37029 0.0
O156 O 0.71084 0.91556 0.36271 0.0
Fe157 Fe 0.69895 0.8773 0.36747 0.0
O158 O 0.6997 0.86619 0.34211 0.0
O159 O 0.74545 0.88641 0.33668 0.0
O160 O 0.72335 0.93896 0.33071 0.0
C161 C 0.70354 0.96001 0.33296 0.0
C162 C 0.76389 0.87857 0.37509 0.0
O163 O 0.69887 0.97086 0.34943 0.0
C164 C 0.68437 0.90614 0.40137 0.0
O165 O 0.75321 0.96056 0.36095 0.0
O166 O 0.72012 0.96256 0.38441 0.0
O167 O 0.73932 0.86344 0.37114 0.0
O168 O 0.7679 0.90574 0.36904 0.0
C169 C 0.64214 0.90964 0.35849 0.0
O170 O 0.67406 0.92921 0.39227 0.0
O171 O 0.69835 0.88462 0.3929 0.0
C172 C 0.74522 0.97111 0.37703 0.0
O173 O 0.65567 0.93499 0.35676 0.0
O174 O 0.65634 0.8861 0.36523 0.0
C175 C 0.72378 0.86847 0.33183 0.0
Fe176 Fe 0.93248 0.73514 0.85172 0.0
Fe177 Fe 0.95995 0.68929 0.87163 0.0
O178 O 0.92438 0.70546 0.86702 0.0
Fe179 Fe 0.88879 0.68807 0.86983 0.0
O180 O 0.8753 0.69508 0.84499 0.0
O181 O 0.91698 0.71413 0.83127 0.0
O182 O 0.97128 0.71459 0.84929 0.0
C183 C 0.99561 0.71704 0.83928 0.0
C184 C 0.87624 0.75148 0.8685 0.0
O185 O 0.97223 0.71296 0.85002 0.0
C186 C 0.9226 0.66993 0.90221 0.0
O187 O 0.94871 0.75865 0.87112 0.0
O188 O 0.97038 0.72082 0.88752 0.0
O189 O 0.87289 0.72562 0.87698 0.0
O190 O 0.89571 0.75508 0.85506 0.0
C191 C 0.929 0.63974 0.85641 0.0
O192 O 0.94784 0.66745 0.89285 0.0
O193 O 0.89804 0.68072 0.89471 0.0
C194 C 0.96548 0.74939 0.88494 0.0
O195 O 0.95221 0.65728 0.85603 0.0
O196 O 0.90297 0.6486 0.86328 0.0
C197 C 0.88927 0.70471 0.83012 0.0
Fe198 Fe 0.326 0.8697 0.87179 0.0
Fe199 Fe 0.28888 0.91984 0.85087 0.0
O200 O 0.31624 0.90899 0.86828 0.0
Fe201 Fe 0.33458 0.93722 0.88252 0.0
O202 O 0.3701 0.91493 0.88553 0.0
O203 O 0.36648 0.87823 0.86432 0.0
O204 O 0.31704 0.85697 0.84722 0.0
C205 C 0.31299 0.87123 0.83165 0.0
C206 C 0.32403 0.89374 0.90928 0.0
O207 O 0.30955 0.90008 0.83187 0.0
C208 C 0.27435 0.96186 0.87851 0.0
O209 O 0.28623 0.86097 0.87911 0.0
O210 O 0.26406 0.88651 0.85542 0.0
O211 O 0.31772 0.92071 0.90372 0.0
O212 O 0.33501 0.87418 0.89756 0.0
C213 C 0.33737 0.96398 0.84746 0.0
O214 O 0.26516 0.94025 0.86802 0.0
O215 O 0.30278 0.96499 0.88211 0.0
C216 C 0.26217 0.86903 0.86988 0.0
O217 O 0.30987 0.95504 0.84405 0.0
O218 O 0.35216 0.95493 0.86193 0.0
C219 C 0.38278 0.8981 0.87316 0.0
Fe220 Fe 0.14228 0.32048 0.8678 0.0
Fe221 Fe 0.09215 0.29002 0.84287 0.0
O222 O 0.10424 0.31379 0.86095 0.0
Fe223 Fe 0.07346 0.33809 0.86459 0.0
O224 O 0.09303 0.36964 0.85316 0.0
O225 O 0.1403 0.36335 0.8646 0.0
O226 O 0.15913 0.31554 0.84371 0.0
C227 C 0.14707 0.31137 0.82733 0.0
C228 C 0.10754 0.34052 0.89905 0.0
O229 O 0.11805 0.30803 0.82551 0.0
C230 C 0.04937 0.27998 0.87216 0.0
O231 O 0.14701 0.27913 0.87215 0.0
O232 O 0.12076 0.26005 0.84742 0.0
O233 O 0.08583 0.35113 0.8885 0.0
O234 O 0.12975 0.32474 0.8923 0.0
C235 C 0.06325 0.33954 0.82493 0.0
O236 O 0.06564 0.26907 0.8587 0.0
O237 O 0.05122 0.30821 0.87655 0.0
C238 C 0.13876 0.25662 0.86164 0.0
O239 O 0.06139 0.32061 0.83866 0.0
O240 O 0.06002 0.32394 0.84026 0.0
C241 C 0.11933 0.38022 0.85702 0.0
Fe242 Fe 0.74861 0.08657 0.85967 0.0
Fe243 Fe 0.69234 0.05888 0.8792 0.0
O244 O 0.71203 0.09176 0.87047 0.0
Fe245 Fe 0.69578 0.12925 0.87236 0.0
O246 O 0.69808 0.13629 0.84656 0.0
O247 O 0.74618 0.12046 0.84413 0.0
O248 O 0.73078 0.06501 0.84071 0.0
C249 C 0.71339 0.04203 0.84332 0.0
C250 C 0.75986 0.13607 0.88212 0.0
O251 O 0.70631 0.03365 0.86005 0.0
C252 C 0.68136 0.10409 0.90744 0.0
O253 O 0.75892 0.05134 0.8728 0.0
O254 O 0.72392 0.04884 0.89505 0.0
O255 O 0.7342 0.14783 0.87653 0.0
O256 O 0.76683 0.10845 0.87831 0.0
C257 C 0.64396 0.09009 0.86311 0.0
O258 O 0.67465 0.07872 0.89955 0.0
O259 O 0.69296 0.12597 0.89804 0.0
C260 C 0.75016 0.04141 0.88885 0.0
O261 O 0.65978 0.06596 0.86409 0.0
O262 O 0.6547 0.11588 0.86896 0.0
C263 C 0.72325 0.13491 0.83734 0.0
Fe264 Fe 0.92196 0.27454 0.66441 0.0
Fe265 Fe 0.94763 0.33114 0.64419 0.0
O266 O 0.91525 0.30949 0.65193 0.0
Fe267 Fe 0.87672 0.3219 0.64757 0.0
O268 O 0.86628 0.32059 0.67298 0.0
O269 O 0.88521 0.27429 0.67736 0.0
O270 O 0.93805 0.29603 0.68401 0.0
C271 C 0.95886 0.31625 0.68212 0.0
C272 C 0.8781 0.25782 0.63876 0.0
O273 O 0.9701 0.32198 0.66577 0.0
C274 C 0.90531 0.33582 0.61323 0.0
O275 O 0.96051 0.26685 0.65445 0.0
O276 O 0.96328 0.29895 0.63074 0.0
O277 O 0.86278 0.28191 0.64341 0.0
O278 O 0.90529 0.25312 0.64493 0.0
C279 C 0.90961 0.37788 0.65627 0.0
O280 O 0.92979 0.34423 0.62176 0.0
O281 O 0.88319 0.32356 0.62214 0.0
C282 C 0.97225 0.27458 0.6387 0.0
O283 O 0.93539 0.36473 0.65681 0.0
O284 O 0.88543 0.36397 0.65033 0.0
C285 C 0.86834 0.29627 0.68289 0.0
Fe286 Fe 0.75876 0.91562 0.65297 0.0
Fe287 Fe 0.70024 0.94518 0.63729 0.0
O288 O 0.72116 0.91142 0.64323 0.0
Fe289 Fe 0.70544 0.8741 0.63977 0.0
O290 O 0.71141 0.86292 0.66509 0.0
O291 O 0.75943 0.87878 0.66558 0.0
O292 O 0.74225 0.93266 0.67407 0.0
C293 C 0.72362 0.95514 0.67357 0.0
C294 C 0.76821 0.87124 0.6265 0.0
O295 O 0.71558 0.96674 0.65772 0.0
C296 C 0.68664 0.90448 0.60684 0.0
O297 O 0.76687 0.95349 0.64239 0.0
O298 O 0.73034 0.95837 0.62129 0.0
O299 O 0.7437 0.85764 0.63246 0.0
O300 O 0.77515 0.89808 0.63213 0.0
C301 C 0.65328 0.91078 0.65235 0.0
O302 O 0.68132 0.92886 0.61619 0.0
O303 O 0.699 0.88123 0.61458 0.0
C304 C 0.75691 0.96532 0.62712 0.0
O305 O 0.6688 0.93511 0.65263 0.0
O306 O 0.66453 0.88584 0.64552 0.0
C307 C 0.73822 0.86237 0.6726 0.0
Fe308 Fe 0.1 0.7535 0.64637 0.0
Fe309 Fe 0.06563 0.69408 0.63678 0.0
O310 O 0.10012 0.71322 0.64326 0.0
Fe311 Fe 0.13529 0.69225 0.64593 0.0
O312 O 0.13904 0.70369 0.67097 0.0
O313 O 0.13079 0.75295 0.66473 0.0
O314 O 0.07272 0.75102 0.66549 0.0
C315 C 0.04631 0.73893 0.66404 0.0
C316 C 0.15422 0.74747 0.62765 0.0
O317 O 0.04016 0.7192 0.65122 0.0
C318 C 0.11151 0.66844 0.61282 0.0
O319 O 0.06852 0.76168 0.62927 0.0
O320 O 0.06063 0.71724 0.61564 0.0
O321 O 0.16059 0.72469 0.63839 0.0
O322 O 0.12707 0.758 0.62706 0.0
C323 C 0.08904 0.65018 0.65987 0.0
O324 O 0.08535 0.66604 0.62103 0.0
O325 O 0.13403 0.68107 0.62118 0.0
C326 C 0.05643 0.74585 0.61607 0.0
O327 O 0.06796 0.66967 0.65749 0.0
O328 O 0.11603 0.65539 0.65327 0.0
C329 C 0.14055 0.73188 0.67588 0.0
Fe330 Fe 0.33506 0.06163 0.63965 0.0
Fe331 Fe 0.33012 0.13236 0.64275 0.0
O332 O 0.31402 0.09514 0.64576 0.0
Fe333 Fe 0.27619 0.09111 0.65502 0.0
O334 O 0.29171 0.07258 0.67589 0.0
O335 O 0.31961 0.03917 0.65976 0.0
O336 O 0.36607 0.0713 0.6555 0.0
C337 C 0.3822 0.09515 0.65475 0.0
C338 C 0.27886 0.04119 0.62895 0.0
O339 O 0.37119 0.11997 0.64762 0.0
C340 C 0.26703 0.13788 0.63027 0.0
O341 O 0.35421 0.07897 0.61876 0.0
O342 O 0.33509 0.12602 0.61746 0.0
O343 O 0.26782 0.05376 0.6437 0.0
O344 O 0.30531 0.04885 0.6233 0.0
C345 C 0.29835 0.14291 0.67577 0.0
O346 O 0.29208 0.15006 0.63646 0.0
O347 O 0.26021 0.11028 0.63438 0.0
C348 C 0.34778 0.10326 0.60946 0.0
O349 O 0.32512 0.14213 0.66823 0.0
O350 O 0.27657 0.12728 0.66856 0.0
C351 C 0.30995 0.04982 0.67552 0.0
C352 C 0.13987 0.19767 0.14294 0.0
C353 C 0.1524 0.22508 0.13552 0.0
C354 C 0.15273 0.16916 0.13836 0.0
C355 C 0.22594 0.13403 0.12473 0.0
H356 H 0.17523 0.06109 0.1177 0.0
C357 C 0.28176 0.01426 0.12157 0.0
C358 C 0.26784 0.99184 0.13323 0.0
C359 C 0.26618 0.04157 0.11717 0.0
C360 C 0.1897 0.08122 0.11968 0.0
H361 H 0.18782 0.24391 0.11699 0.0
H362 H 0.21064 0.19375 0.1091 0.0
H363 H 0.15085 0.11193 0.11844 0.0
H364 H 0.2259 0.97966 0.14843 0.0
H365 H 0.19889 0.02763 0.14108 0.0
H366 H 0.26463 0.10347 0.12678 0.0
C367 C 0.19082 0.19456 0.11852 0.0
C368 C 0.17576 0.11032 0.12006 0.0
C369 C 0.17773 0.22323 0.123 0.0
C370 C 0.23727 0.9965 0.13944 0.0
C371 C 0.22174 0.02398 0.13514 0.0
C372 C 0.23987 0.10496 0.12442 0.0
C373 C 0.17856 0.16726 0.12629 0.0
C374 C 0.19366 0.13696 0.12305 0.0
C375 C 0.23638 0.04721 0.12442 0.0
C376 C 0.22185 0.07814 0.12232 0.0
H377 H 0.12019 0.19817 0.1525 0.0
H378 H 0.14301 0.14863 0.14479 0.0
H379 H 0.24031 0.15407 0.1273 0.0
H380 H 0.30514 0.01115 0.11632 0.0
H381 H 0.27785 0.05866 0.10852 0.0
C382 C 0.9927 0.26494 0.12101 0.0
C383 C 0.01556 0.25331 0.13338 0.0
C384 C 0.96488 0.24916 0.1184 0.0
C385 C 0.9242 0.17511 0.12763 0.0
H386 H 0.85201 0.22808 0.13176 0.0
C387 C 0.80572 0.13161 0.15304 0.0
C388 C 0.77867 0.14331 0.14446 0.0
C389 C 0.83474 0.14333 0.14824 0.0
C390 C 0.87185 0.21297 0.13022 0.0
H391 H 0.02797 0.21506 0.15178 0.0
H392 H 0.97908 0.18772 0.14752 0.0
H393 H 0.90323 0.25095 0.12919 0.0
H394 H 0.76108 0.17615 0.12375 0.0
H395 H 0.81202 0.19682 0.11544 0.0
H396 H 0.89267 0.13712 0.12935 0.0
C397 C 0.98279 0.2089 0.13966 0.0
C398 C 0.90127 0.22607 0.12873 0.0
C399 C 0.01079 0.22461 0.14217 0.0
C400 C 0.78142 0.16674 0.13071 0.0
C401 C 0.81056 0.17861 0.12597 0.0
C402 C 0.89474 0.16201 0.12917 0.0
C403 C 0.95917 0.22149 0.12819 0.0
C404 C 0.92785 0.20731 0.12775 0.0
C405 C 0.8375 0.1671 0.13478 0.0
C406 C 0.86831 0.18082 0.13086 0.0
H407 H 0.9959 0.28679 0.11379 0.0
H408 H 0.94748 0.25911 0.10911 0.0
H409 H 0.94414 0.16003 0.12659 0.0
H410 H 0.80457 0.11345 0.16361 0.0
H411 H 0.85498 0.13428 0.15549 0.0
C412 C 0.87763 0.79638 0.12496 0.0
C413 C 0.86098 0.77198 0.13307 0.0
C414 C 0.86353 0.82501 0.12211 0.0
C415 C 0.78745 0.86638 0.12394 0.0
H416 H 0.83962 0.93613 0.1367 0.0
C417 C 0.73752 0.98932 0.12557 0.0
C418 C 0.74709 0.00843 0.14061 0.0
C419 C 0.75308 0.96179 0.12171 0.0
C420 C 0.82463 0.91694 0.13322 0.0
H421 H 0.81674 0.7577 0.14439 0.0
H422 H 0.79204 0.80794 0.13997 0.0
H423 H 0.86204 0.88486 0.13519 0.0
H424 H 0.78115 0.01423 0.16302 0.0
H425 H 0.80778 0.9657 0.15675 0.0
H426 H 0.74966 0.89818 0.1232 0.0
C427 C 0.81567 0.80495 0.13516 0.0
C428 C 0.83762 0.88747 0.13202 0.0
C429 C 0.82971 0.77613 0.1377 0.0
C430 C 0.77333 1.00004 0.15127 0.0
C431 C 0.78866 0.97221 0.1476 0.0
C432 C 0.77439 0.8958 0.12537 0.0
C433 C 0.83267 0.83003 0.12781 0.0
C434 C 0.81915 0.86171 0.12755 0.0
C435 C 0.77834 0.95241 0.133 0.0
C436 C 0.79274 0.92145 0.13023 0.0
H437 H 0.90194 0.7936 0.12149 0.0
H438 H 0.87716 0.84347 0.11601 0.0
H439 H 0.77254 0.84724 0.12022 0.0
H440 H 0.71758 0.9954 0.11694 0.0
H441 H 0.74495 0.94763 0.11003 0.0
C442 C 0.21881 0.87587 0.12981 0.0
C443 C 0.24083 0.85594 0.13783 0.0
C444 C 0.18987 0.86478 0.1243 0.0
C445 C 0.14359 0.79238 0.11848 0.0
H446 H 0.07527 0.84731 0.13014 0.0
C447 C 0.01944 0.74703 0.11632 0.0
C448 C 1.00043 0.75615 0.13149 0.0
C449 C 0.04683 0.76287 0.11244 0.0
C450 C 0.09401 0.83157 0.1269 0.0
H451 H 0.25077 0.80896 0.14609 0.0
H452 H 0.19956 0.78953 0.13745 0.0
H453 H 0.12792 0.86603 0.13256 0.0
H454 H 0.994 0.78969 0.15394 0.0
H455 H 0.04246 0.81654 0.1479 0.0
H456 H 0.10983 0.75717 0.11448 0.0
C457 C 0.20475 0.81352 0.13466 0.0
C458 C 0.12438 0.84248 0.12795 0.0
C459 C 0.23407 0.82455 0.13972 0.0
C460 C 1.00822 0.78242 0.14205 0.0
C461 C 0.03603 0.79784 0.1385 0.0
C462 C 0.11325 0.78129 0.11781 0.0
C463 C 0.18201 0.83366 0.12726 0.0
C464 C 0.14964 0.82287 0.12411 0.0
C465 C 0.05622 0.78761 0.12404 0.0
C466 C 0.08806 0.80057 0.12238 0.0
H467 H 0.22383 0.90022 0.12817 0.0
H468 H 0.17342 0.88083 0.11816 0.0
H469 H 0.16231 0.77674 0.11501 0.0
H470 H 0.01364 0.72694 0.10787 0.0
H471 H 0.06119 0.7549 0.10081 0.0
C472 C 0.22011 0.00934 0.39415 0.0
C473 C 0.25217 0.01356 0.39603 0.0
C474 C 0.20694 0.98039 0.39737 0.0
C475 C 0.19148 0.91583 0.38611 0.0
H476 H 0.22681 0.8496 0.41629 0.0
C477 C 0.1722 0.79166 0.36381 0.0
C478 C 0.16547 0.76973 0.37789 0.0
C479 C 0.18345 0.82062 0.3688 0.0
C480 C 0.21644 0.86788 0.40792 0.0
H481 H 0.29532 0.99155 0.40419 0.0
H482 H 0.27278 0.94087 0.4089 0.0
H483 H 0.24172 0.90291 0.42279 0.0
H484 H 0.16647 0.76015 0.40815 0.0
H485 H 0.18554 0.81146 0.41705 0.0
H486 H 0.16569 0.88123 0.37155 0.0
C487 C 0.25744 0.95984 0.40546 0.0
C488 C 0.22519 0.89846 0.41152 0.0
C489 C 0.27047 0.98899 0.40271 0.0
C490 C 0.17172 0.77669 0.39704 0.0
C491 C 0.18257 0.80605 0.40211 0.0
C492 C 0.18252 0.8855 0.3827 0.0
C493 C 0.22572 0.95482 0.40194 0.0
C494 C 0.21334 0.9228 0.40034 0.0
C495 C 0.1876 0.82867 0.38804 0.0
C496 C 0.19555 0.86102 0.39313 0.0
H497 H 0.20547 0.02803 0.38922 0.0
H498 H 0.18225 0.97774 0.39521 0.0
H499 H 0.18209 0.93361 0.37694 0.0
H500 H 0.16792 0.78668 0.34891 0.0
H501 H 0.18812 0.83704 0.35753 0.0
C502 C 0.20938 0.142 0.40258 0.0
C503 C 0.23143 0.15496 0.39027 0.0
C504 C 0.1817 0.15743 0.40636 0.0
C505 C 0.11743 0.17995 0.39728 0.0
H506 H 0.10678 0.26865 0.39723 0.0
C507 C 1.0032 0.23903 0.37493 0.0
C508 C 0.99558 0.26745 0.38326 0.0
C509 C 0.03119 0.22446 0.37948 0.0
C510 C 0.10923 0.2438 0.39758 0.0
H511 H 0.2429 0.19498 0.37323 0.0
H512 H 0.19426 0.22176 0.37944 0.0
H513 H 0.15854 0.24692 0.40008 0.0
H514 H 0.00993 0.3017 0.40396 0.0
H515 H 0.05813 0.27587 0.41233 0.0
H516 H 0.06812 0.17682 0.39493 0.0
C517 C 0.19845 0.19994 0.3865 0.0
C518 C 0.13902 0.23136 0.39897 0.0
C519 C 0.22639 0.18464 0.38293 0.0
C520 C 0.01546 0.28002 0.39708 0.0
C521 C 0.04318 0.26532 0.4018 0.0
C522 C 0.08764 0.19239 0.39603 0.0
C523 C 0.17527 0.18593 0.39765 0.0
C524 C 0.14355 0.19929 0.39848 0.0
C525 C 0.05187 0.23787 0.39263 0.0
C526 C 0.0832 0.22447 0.3958 0.0
H527 H 0.21289 0.11918 0.40851 0.0
H528 H 0.16475 0.14636 0.41543 0.0
H529 H 0.11998 0.15514 0.39656 0.0
H530 H 0.98834 0.22887 0.36419 0.0
H531 H 0.03723 0.20347 0.37202 0.0
C532 C 0.74688 0.01753 0.39834 0.0
C533 C 0.76141 0.99839 0.38484 0.0
C534 C 0.76005 0.04584 0.40338 0.0
C535 C 0.83196 0.09225 0.40063 0.0
H536 H 0.77625 0.16148 0.39307 0.0
C537 C 0.87396 0.20847 0.37363 0.0
C538 C 0.86052 0.23604 0.38017 0.0
C539 C 0.86255 0.18 0.37946 0.0
C540 C 0.79201 0.14249 0.3957 0.0
H541 H 0.80218 0.99291 0.36715 0.0
H542 H 0.82518 0.04208 0.37602 0.0
H543 H 0.75544 0.10925 0.39443 0.0
H544 H 0.82485 0.25522 0.3984 0.0
H545 H 0.80454 0.20496 0.40853 0.0
H546 H 0.86865 0.12535 0.40117 0.0
C547 C 0.8036 0.03531 0.38267 0.0
C548 C 0.7801 0.11254 0.39646 0.0
C549 C 0.79032 0.0072 0.37749 0.0
C550 C 0.83562 0.2344 0.39304 0.0
C551 C 0.82399 0.20568 0.39881 0.0
C552 C 0.84384 0.12216 0.39994 0.0
C553 C 0.78818 0.05533 0.39524 0.0
C554 C 0.80009 0.08705 0.39822 0.0
C555 C 0.83733 0.17818 0.392 0.0
C556 C 0.82413 0.14749 0.3967 0.0
H557 H 0.72462 0.01138 0.40434 0.0
H558 H 0.74781 0.06068 0.41324 0.0
H559 H 0.84784 0.07308 0.40233 0.0
H560 H 0.8933 0.20875 0.36381 0.0
H561 H 0.87301 0.15933 0.37365 0.0
C562 C 0.00978 0.74901 0.40581 0.0
C563 C 0.0285 0.75723 0.39027 0.0
C564 C 0.98256 0.76521 0.40965 0.0
C565 C 0.93612 0.83438 0.39583 0.0
H566 H 0.86679 0.7796 0.40522 0.0
C567 C 0.79737 0.83215 0.38025 0.0
C568 C 0.79077 0.86324 0.38394 0.0
C569 C 0.82599 0.81963 0.38561 0.0
C570 C 0.88586 0.79522 0.40257 0.0
H571 H 0.03467 0.79018 0.36738 0.0
H572 H 0.9868 0.81808 0.37372 0.0
H573 H 0.91927 0.75929 0.40589 0.0
H574 H 0.80739 0.90489 0.39757 0.0
H575 H 0.85668 0.88281 0.40759 0.0
H576 H 0.90263 0.86985 0.39122 0.0
C577 C 0.99327 0.79942 0.38319 0.0
C578 C 0.91607 0.78369 0.40324 0.0
C579 C 0.02075 0.78342 0.37951 0.0
C580 C 0.81215 0.88092 0.39433 0.0
C581 C 0.84047 0.86833 0.39993 0.0
C582 C 0.90591 0.84585 0.395 0.0
C583 C 0.97325 0.78975 0.39785 0.0
C584 C 0.94156 0.803 0.39951 0.0
C585 C 0.84827 0.83791 0.39498 0.0
C586 C 0.88035 0.82629 0.39801 0.0
H587 H 0.01544 0.7291 0.41449 0.0
H588 H 0.96815 0.75768 0.42138 0.0
H589 H 0.95519 0.84999 0.39313 0.0
H590 H 0.78133 0.81811 0.37215 0.0
H591 H 0.83125 0.79619 0.38141 0.0
C592 C 0.8382 0.77785 0.89045 0.0
C593 C 0.85966 0.77927 0.87538 0.0
C594 C 0.82568 0.80503 0.89812 0.0
C595 C 0.84432 0.88654 0.90401 0.0
H596 H 0.75629 0.90395 0.90226 0.0
C597 C 0.79584 1.00626 0.89048 0.0
C598 C 0.76637 0.01452 0.89721 0.0
C599 C 0.80834 0.97738 0.8947 0.0
C600 C 0.78088 0.89929 0.9034 0.0
H601 H 0.88399 0.81045 0.85628 0.0
H602 H 0.86254 0.85717 0.86972 0.0
H603 H 0.77479 0.85162 0.89606 0.0
H604 H 0.72814 1.00004 0.91518 0.0
H605 H 0.75014 0.94951 0.9226 0.0
H606 H 0.85071 0.93426 0.91059 0.0
C607 C 0.85557 0.83519 0.87568 0.0
C608 C 0.79141 0.86933 0.89978 0.0
C609 C 0.86762 0.80829 0.86788 0.0
C610 C 0.75085 0.99431 0.90965 0.0
C611 C 0.76332 0.96526 0.9138 0.0
C612 C 0.83383 0.91636 0.90777 0.0
C613 C 0.83493 0.8339 0.89105 0.0
C614 C 0.82328 0.86311 0.89921 0.0
C615 C 0.79165 0.95605 0.90576 0.0
C616 C 0.8021 0.92341 0.90661 0.0
H617 H 0.83161 0.75589 0.89657 0.0
H618 H 0.80953 0.80356 0.90988 0.0
H619 H 0.86903 0.88213 0.9039 0.0
H620 H 0.80849 0.02138 0.88098 0.0
H621 H 0.83012 0.97104 0.88812 0.0
C622 C 0.99019 0.80137 0.88704 0.0
C623 C 0.9868 0.77143 0.89442 0.0
C624 C 0.01792 0.81746 0.88967 0.0
C625 C 0.09674 0.81532 0.91196 0.0
H626 H 0.12201 0.83763 0.86082 0.0
C627 C 0.22579 0.83495 0.88889 0.0
C628 C 0.23075 0.85889 0.87571 0.0
C629 C 0.19546 0.82642 0.89396 0.0
C630 C 0.11534 0.83201 0.87528 0.0
H631 H 1.00757 0.73741 0.91326 0.0
H632 H 0.05584 0.76527 0.9176 0.0
H633 H 0.0688 0.82325 0.86674 0.0
H634 H 0.20771 0.89372 0.85845 0.0
H635 H 0.15583 0.87939 0.86745 0.0
H636 H 0.14392 0.82377 0.92028 0.0
C637 C 0.03742 0.7762 0.90955 0.0
C638 C 0.08465 0.82391 0.87871 0.0
C639 C 0.00962 0.76017 0.90702 0.0
C640 C 0.20492 0.87462 0.86825 0.0
C641 C 0.17497 0.86638 0.87342 0.0
C642 C 0.12766 0.82367 0.90852 0.0
C643 C 0.04269 0.80392 0.89974 0.0
C644 C 0.07486 0.81548 0.89706 0.0
C645 C 0.16971 0.84186 0.88605 0.0
C646 C 0.13727 0.83219 0.89011 0.0
H647 H 0.97291 0.81106 0.87756 0.0
H648 H 0.02094 0.83933 0.88244 0.0
H649 H 0.08996 0.80873 0.92624 0.0
H650 H 0.24521 0.82262 0.89504 0.0
H651 H 0.19217 0.80735 0.90372 0.0
C652 C 0.2635 0.01239 0.8942 0.0
C653 C 0.25293 0.98727 0.88333 0.0
C654 C 0.2459 0.0393 0.89548 0.0
C655 C 0.19215 0.08156 0.86566 0.0
H656 H 0.18762 0.13816 0.90832 0.0
C657 C 0.13446 0.19968 0.8578 0.0
C658 C 0.14939 0.22507 0.86619 0.0
C659 C 0.14378 0.16972 0.86203 0.0
C660 C 0.18893 0.12265 0.89626 0.0
H661 H 0.21416 0.96951 0.86696 0.0
H662 H 0.18339 0.01656 0.86929 0.0
H663 H 0.20781 0.08597 0.9132 0.0
H664 H 0.18558 0.23885 0.88586 0.0
H665 H 0.2026 0.18623 0.89286 0.0
H666 H 0.1745 0.11822 0.84853 0.0
C667 C 0.20559 0.01556 0.87648 0.0
C668 C 0.20028 0.09277 0.89909 0.0
C669 C 0.22316 0.98859 0.87523 0.0
C670 C 0.17369 0.21976 0.87913 0.0
C671 C 0.18325 0.18963 0.88325 0.0
C672 C 0.181 0.11136 0.86282 0.0
C673 C 0.21739 0.04159 0.88594 0.0
C674 C 0.20221 0.07203 0.88376 0.0
C675 C 0.1685 0.16431 0.87462 0.0
C676 C 0.17946 0.13234 0.87804 0.0
H677 H 0.28619 0.01197 0.90082 0.0
H678 H 0.25563 0.05898 0.90285 0.0
H679 H 0.19406 0.06639 0.85347 0.0
H680 H 0.11527 0.20287 0.84802 0.0
H681 H 0.13149 0.15074 0.85544 0.0
C682 C 0.01514 0.23329 0.87228 0.0
C683 C 0.02416 0.26129 0.88067 0.0
C684 C 0.98718 0.21929 0.8774 0.0
C685 C 0.91051 0.24088 0.89608 0.0
H686 H 0.89677 0.15266 0.89493 0.0
C687 C 0.80714 0.14253 0.90187 0.0
C688 C 0.78521 0.15557 0.88943 0.0
C689 C 0.83533 0.15726 0.90528 0.0
C690 C 0.90014 0.17737 0.89563 0.0
H691 H 0.0122 0.29503 0.90228 0.0
H692 H 0.96381 0.27029 0.91143 0.0
H693 H 0.94935 0.17251 0.89338 0.0
H694 H 0.7746 0.19516 0.87179 0.0
H695 H 0.82417 0.22086 0.87748 0.0
H696 H 0.86121 0.2457 0.89824 0.0
C697 C 0.9779 0.25961 0.90051 0.0
C698 C 0.93035 0.18875 0.8945 0.0
C699 C 1.00581 0.27364 0.89536 0.0
C700 C 0.79099 0.18478 0.88159 0.0
C701 C 0.81946 0.19942 0.88484 0.0
C702 C 0.88024 0.22949 0.89724 0.0
C703 C 0.96769 0.23289 0.8911 0.0
C704 C 0.93591 0.22065 0.89438 0.0
C705 C 0.84245 0.18518 0.89611 0.0
C706 C 0.87463 0.19758 0.89675 0.0
H707 H 0.02866 0.22314 0.8609 0.0
H708 H 0.98002 0.19878 0.86979 0.0
H709 H 0.91387 0.26562 0.8958 0.0
H710 H 0.80313 0.12009 0.9082 0.0
H711 H 0.8521 0.14604 0.91446 0.0
C712 C 0.75847 0.01092 0.60504 0.0
C713 C 0.77272 0.99271 0.61916 0.0
C714 C 0.77083 0.03967 0.60014 0.0
C715 C 0.8399 0.09029 0.60718 0.0
H716 H 0.77903 0.1561 0.60701 0.0
C717 C 0.83256 0.2235 0.63314 0.0
C718 C 0.86287 0.23237 0.62858 0.0
C719 C 0.82048 0.19589 0.626 0.0
C720 C 0.79636 0.13804 0.60706 0.0
H721 H 0.81242 0.98928 0.63803 0.0
H722 H 0.83351 0.03923 0.62982 0.0
H723 H 0.76193 0.10272 0.60556 0.0
H724 H 0.90331 0.22136 0.61169 0.0
H725 H 0.88175 0.17419 0.59836 0.0
H726 H 0.8742 0.12513 0.61033 0.0
C727 C 0.81298 0.03147 0.62236 0.0
C728 C 0.78656 0.10736 0.60591 0.0
C729 C 0.80072 1.00281 0.62721 0.0
C730 C 0.87999 0.21466 0.61561 0.0
C731 C 0.86769 0.18752 0.60811 0.0
C732 C 0.84966 0.12085 0.60859 0.0
C733 C 0.79769 0.0507 0.60921 0.0
C734 C 0.8082 0.08308 0.60663 0.0
C735 C 0.83833 0.17701 0.61387 0.0
C736 C 0.82798 0.14513 0.60915 0.0
H737 H 0.73701 1.00367 0.59841 0.0
H738 H 0.75879 0.05366 0.58969 0.0
H739 H 0.85723 0.0722 0.60738 0.0
H740 H 0.81901 0.23678 0.6432 0.0
H741 H 0.79793 0.18855 0.63096 0.0
C742 C 1.00906 0.73836 0.59604 0.0
C743 C 0.02968 0.75859 0.60533 0.0
C744 C 0.97933 0.74814 0.59098 0.0
C745 C 0.91581 0.77237 0.60589 0.0
H746 H 0.88886 0.8405 0.5742 0.0
C747 C 0.8168 0.87111 0.6075 0.0
C748 C 0.79232 0.85438 0.61569 0.0
C749 C 0.84282 0.85609 0.60038 0.0
C750 C 0.89596 0.82152 0.58324 0.0
H751 H 0.03639 0.80591 0.61443 0.0
H752 H 0.98464 0.82318 0.6049 0.0
H753 H 0.94248 0.82249 0.57235 0.0
H754 H 0.77471 0.80847 0.62117 0.0
H755 H 0.81995 0.78189 0.60806 0.0
H756 H 0.87064 0.77282 0.61814 0.0
C757 C 0.99151 0.79962 0.60196 0.0
C758 C 0.9266 0.81113 0.582 0.0
C759 C 0.02111 0.78972 0.60739 0.0
C760 C 0.79331 0.82202 0.61511 0.0
C761 C 0.81943 0.80684 0.60776 0.0
C762 C 0.88545 0.7832 0.60749 0.0
C763 C 0.96998 0.77851 0.59458 0.0
C764 C 0.93685 0.78689 0.5936 0.0
C765 C 0.84506 0.82376 0.60095 0.0
C766 C 0.8753 0.80855 0.59659 0.0
H767 H 0.01486 0.71426 0.59408 0.0
H768 H 0.96305 0.73154 0.58525 0.0
H769 H 0.9234 0.75376 0.6151 0.0
H770 H 0.81663 0.8961 0.60744 0.0
H771 H 0.86195 0.87016 0.59553 0.0
C772 C 0.20601 0.77256 0.63094 0.0
C773 C 0.17882 0.76789 0.62035 0.0
C774 C 0.22407 0.79886 0.62778 0.0
C775 C 0.23352 0.86881 0.59713 0.0
H776 H 0.24105 0.91036 0.6458 0.0
C777 C 0.23989 0.99878 0.63157 0.0
C778 C 0.26565 0.01157 0.62224 0.0
C779 C 0.23168 0.96806 0.62853 0.0
C780 C 0.23904 0.89909 0.63208 0.0
H781 H 0.15129 0.7846 0.59666 0.0
H782 H 0.18272 0.83021 0.59109 0.0
H783 H 0.22759 0.85601 0.64495 0.0
H784 H 0.30118 1.00283 0.60103 0.0
H785 H 0.28653 0.94915 0.59564 0.0
H786 H 0.24406 0.91256 0.58434 0.0
C787 C 0.19018 0.81393 0.60187 0.0
C788 C 0.23186 0.86777 0.6316 0.0
C789 C 0.17208 0.78782 0.6051 0.0
C790 C 0.28133 0.99367 0.60856 0.0
C791 C 0.27298 0.9629 0.60546 0.0
C792 C 0.24097 0.90024 0.59763 0.0
C793 C 0.21529 0.82068 0.61391 0.0
C794 C 0.22835 0.85237 0.61413 0.0
C795 C 0.24888 0.94949 0.616 0.0
C796 C 0.24298 0.91583 0.61512 0.0
H797 H 0.21173 0.7576 0.64281 0.0
H798 H 0.24365 0.80321 0.63706 0.0
H799 H 0.23104 0.85754 0.58345 0.0
H800 H 0.22707 0.01194 0.64204 0.0
H801 H 0.21249 0.95849 0.63651 0.0
C802 C 0.23995 0.1889 0.62816 0.0
C803 C 0.2417 0.15767 0.62294 0.0
C804 C 0.21254 0.20555 0.62528 0.0
C805 C 0.13505 0.20512 0.60209 0.0
H806 H 0.10761 0.23962 0.65016 0.0
C807 C 0.01528 0.23685 0.64389 0.0
C808 C 1.00137 0.25953 0.63236 0.0
C809 C 0.04499 0.22602 0.63985 0.0
C810 C 0.11502 0.23021 0.63661 0.0
H811 H 0.21729 0.12031 0.60896 0.0
H812 H 0.16967 0.14945 0.60377 0.0
H813 H 0.16051 0.22065 0.64711 0.0
H814 H 1.00705 0.28696 0.60672 0.0
H815 H 0.05906 0.26734 0.59948 0.0
H816 H 0.08896 0.21429 0.59183 0.0
C817 C 0.1893 0.16104 0.61018 0.0
C818 C 0.14541 0.21967 0.63478 0.0
C819 C 0.21655 0.1443 0.61324 0.0
C820 C 0.01716 0.26962 0.61595 0.0
C821 C 0.04688 0.25842 0.61178 0.0
C822 C 0.10462 0.21614 0.60385 0.0
C823 C 0.18654 0.1914 0.61692 0.0
C824 C 0.15563 0.20645 0.61764 0.0
C825 C 0.0614 0.23725 0.62406 0.0
C826 C 0.09417 0.22808 0.6213 0.0
H827 H 0.25887 0.19985 0.6357 0.0
H828 H 0.21116 0.22905 0.63044 0.0
H829 H 0.14232 0.19507 0.5887 0.0
H830 H 1.0038 0.22833 0.65654 0.0
H831 H 0.05549 0.2093 0.64936 0.0
C832 C 0.19535 0.28675 0.19514 0.0
C833 C 0.16354 0.2935 0.19716 0.0
C834 C 0.21251 0.27351 0.21024 0.0
C835 C 0.20945 0.25759 0.26315 0.0
H836 H 0.26954 0.19365 0.25191 0.0
C837 C 0.24838 0.17007 0.32036 0.0
C838 C 0.2793 0.15957 0.32133 0.0
C839 C 0.23798 0.18895 0.30547 0.0
C840 C 0.25319 0.21175 0.25536 0.0
H841 H 0.12541 0.29209 0.21721 0.0
H842 H 0.15486 0.26934 0.24318 0.0
H843 H 0.2445 0.22182 0.22583 0.0
H844 H 0.32359 0.16141 0.30698 0.0
H845 H 0.30526 0.19448 0.28055 0.0
H846 H 0.21756 0.24718 0.29259 0.0
C847 C 0.16692 0.27444 0.23005 0.0
C848 C 0.23872 0.22803 0.24033 0.0
C849 C 0.14982 0.28753 0.21499 0.0
C850 C 0.29972 0.1691 0.30683 0.0
C851 C 0.28907 0.18787 0.29159 0.0
C852 C 0.22377 0.24131 0.2781 0.0
C853 C 0.1985 0.26671 0.22793 0.0
C854 C 0.2161 0.25089 0.24393 0.0
C855 C 0.25793 0.1981 0.29069 0.0
C856 C 0.24546 0.21766 0.27452 0.0
H857 H 0.20683 0.29067 0.18165 0.0
H858 H 0.23678 0.26841 0.20796 0.0
H859 H 0.19293 0.27546 0.26675 0.0
H860 H 0.23182 0.16351 0.33122 0.0
H861 H 0.21383 0.19575 0.30534 0.0
C862 C 0.81561 0.29769 0.31761 0.0
C863 C 0.84821 0.29865 0.31628 0.0
C864 C 0.79761 0.28259 0.30367 0.0
C865 C 0.80389 0.22024 0.26747 0.0
H866 H 0.72462 0.25026 0.24914 0.0
C867 C 0.72353 0.14305 0.22131 0.0
C868 C 0.7101 0.15648 0.20495 0.0
C869 C 0.73816 0.16126 0.23524 0.0
C870 C 0.74674 0.24152 0.25406 0.0
H871 H 0.88697 0.28515 0.29846 0.0
H872 H 0.85582 0.2591 0.2744 0.0
H873 H 0.75467 0.28119 0.27181 0.0
H874 H 0.70071 0.20027 0.19115 0.0
H875 H 0.72565 0.23194 0.21558 0.0
H876 H 0.79612 0.18064 0.24982 0.0
C877 C 0.8441 0.26974 0.28634 0.0
C878 C 0.76393 0.25921 0.2672 0.0
C879 C 0.86202 0.28504 0.30014 0.0
C880 C 0.71054 0.18893 0.20352 0.0
C881 C 0.72493 0.20719 0.21758 0.0
C882 C 0.78658 0.20243 0.25456 0.0
C883 C 0.81164 0.26767 0.28805 0.0
C884 C 0.7929 0.24895 0.27404 0.0
C885 C 0.73968 0.1936 0.23344 0.0
C886 C 0.75773 0.21273 0.24758 0.0
H887 H 0.80399 0.30765 0.32981 0.0
H888 H 0.77275 0.2815 0.30558 0.0
H889 H 0.82584 0.21125 0.2725 0.0
H890 H 0.72385 0.11823 0.22304 0.0
H891 H 0.74871 0.14986 0.24735 0.0
C892 C 0.86909 0.71672 0.21598 0.0
C893 C 0.85684 0.71102 0.19769 0.0
C894 C 0.85073 0.72974 0.23047 0.0
C895 C 0.78196 0.78009 0.23693 0.0
H896 H 0.78907 0.75728 0.29018 0.0
C897 C 0.744 0.86078 0.29879 0.0
C898 C 0.72964 0.84815 0.315 0.0
C899 C 0.75532 0.84188 0.28414 0.0
C900 C 0.78652 0.76381 0.27536 0.0
H901 H 0.81503 0.7142 0.18067 0.0
H902 H 0.78314 0.73693 0.20582 0.0
H903 H 0.81689 0.72756 0.26593 0.0
H904 H 0.71587 0.80536 0.32838 0.0
H905 H 0.73601 0.77205 0.3028 0.0
H906 H 0.75223 0.81676 0.24637 0.0
C907 C 0.80705 0.7313 0.20898 0.0
C908 C 0.80276 0.7469 0.26143 0.0
C909 C 0.8253 0.71785 0.19457 0.0
C910 C 0.72623 0.8159 0.31594 0.0
C911 C 0.73819 0.79682 0.30137 0.0
C912 C 0.76611 0.79725 0.25087 0.0
C913 C 0.81959 0.73797 0.22708 0.0
C914 C 0.80093 0.75487 0.24197 0.0
C915 C 0.75331 0.80953 0.28535 0.0
C916 C 0.7683 0.78958 0.27035 0.0
H917 H 0.89327 0.71198 0.21897 0.0
H918 H 0.8614 0.73462 0.2441 0.0
H919 H 0.78008 0.78724 0.22219 0.0
H920 H 0.74737 0.88548 0.29771 0.0
H921 H 0.76699 0.85265 0.27222 0.0
C922 C 0.27396 0.8626 0.21659 0.0
C923 C 0.29707 0.85029 0.20459 0.0
C924 C 0.25854 0.84405 0.22998 0.0
C925 C 0.26232 0.77745 0.26099 0.0
H926 H 0.17373 0.76973 0.25359 0.0
C927 C 0.18786 0.70169 0.31269 0.0
C928 C 0.15657 0.70955 0.31567 0.0
C929 C 0.20553 0.71622 0.29836 0.0
C930 C 0.19829 0.77189 0.25632 0.0
H931 H 0.32261 0.80856 0.19807 0.0
H932 H 0.29664 0.77654 0.22222 0.0
H933 H 0.20409 0.80092 0.23174 0.0
H934 H 0.11964 0.73932 0.30559 0.0
H935 H 0.15011 0.76527 0.28162 0.0
H936 H 0.25671 0.75006 0.28613 0.0
C937 C 0.29023 0.8006 0.22089 0.0
C938 C 0.2158 0.78969 0.24351 0.0
C939 C 0.30518 0.81902 0.20708 0.0
C940 C 0.14344 0.73204 0.30362 0.0
C941 C 0.1612 0.74704 0.28964 0.0
C942 C 0.24469 0.76025 0.27415 0.0
C943 C 0.26619 0.81274 0.2322 0.0
C944 C 0.24803 0.7928 0.24567 0.0
C945 C 0.19278 0.73974 0.28675 0.0
C946 C 0.21217 0.75718 0.27218 0.0
H947 H 0.26668 0.88639 0.21508 0.0
H948 H 0.24024 0.85416 0.23849 0.0
H949 H 0.28709 0.77951 0.26313 0.0
H950 H 0.19894 0.68462 0.32169 0.0
H951 H 0.22934 0.70901 0.29659 0.0
C952 C 0.77892 0.82926 0.68762 0.0
C953 C 0.74797 0.83974 0.68773 0.0
C954 C 0.79118 0.81196 0.70267 0.0
C955 C 0.7737 0.76401 0.74534 0.0
H956 H 0.8567 0.7888 0.75989 0.0
C957 C 0.83845 0.71417 0.81269 0.0
C958 C 0.8711 0.71248 0.81241 0.0
C959 C 0.82176 0.72733 0.79741 0.0
C960 C 0.83376 0.78099 0.75593 0.0
H961 H 0.70527 0.83857 0.70383 0.0
H962 H 0.72683 0.80784 0.73045 0.0
H963 H 0.8302 0.81564 0.73431 0.0
H964 H 0.91136 0.72216 0.79498 0.0
H965 H 0.88255 0.74373 0.76829 0.0
H966 H 0.77752 0.72911 0.76702 0.0
C967 C 0.74157 0.8133 0.71845 0.0
C968 C 0.81836 0.79665 0.74118 0.0
C969 C 0.72911 0.83085 0.70316 0.0
C970 C 0.88632 0.72296 0.79588 0.0
C971 C 0.86967 0.73586 0.78058 0.0
C972 C 0.78926 0.74812 0.76014 0.0
C973 C 0.77314 0.80434 0.71865 0.0
C974 C 0.78822 0.78827 0.7354 0.0
C975 C 0.83712 0.73918 0.78124 0.0
C976 C 0.81979 0.7561 0.76557 0.0
H977 H 0.79419 0.83507 0.67592 0.0
H978 H 0.81521 0.80487 0.70187 0.0
H979 H 0.75061 0.75671 0.74133 0.0
H980 H 0.82576 0.70677 0.82518 0.0
H981 H 0.79686 0.72944 0.7987 0.0
C982 C 0.18428 0.7256 0.69985 0.0
C983 C 0.15801 0.74168 0.69328 0.0
C984 C 0.20289 0.7378 0.71456 0.0
C985 C 0.21808 0.81289 0.74037 0.0
H986 H 0.26619 0.76104 0.77422 0.0
C987 C 0.29963 0.86829 0.79653 0.0
C988 C 0.30294 0.85361 0.81431 0.0
C989 C 0.28508 0.85328 0.78117 0.0
C990 C 0.25272 0.77606 0.76509 0.0
H991 H 0.1299 0.78238 0.69781 0.0
H992 H 0.1608 0.8026 0.72387 0.0
H993 H 0.23325 0.7375 0.75019 0.0
H994 H 0.29397 0.81096 0.82947 0.0
H995 H 0.26802 0.78538 0.8032 0.0
H996 H 0.23606 0.85135 0.75581 0.0
C997 C 0.16825 0.78133 0.71725 0.0
C998 C 0.234 0.76241 0.75097 0.0
C999 C 0.15011 0.76947 0.70237 0.0
C1000 C 0.29228 0.82303 0.81599 0.0
C1001 C 0.27728 0.80821 0.80075 0.0
C1002 C 0.23639 0.82648 0.75462 0.0
C1003 C 0.19549 0.76622 0.72334 0.0
C1004 C 0.21612 0.78056 0.73839 0.0
C1005 C 0.27276 0.82326 0.78313 0.0
C1006 C 0.25407 0.8084 0.76733 0.0
H1007 H 0.19128 0.70431 0.69303 0.0
H1008 H 0.22366 0.72537 0.71854 0.0
H1009 H 0.20552 0.82804 0.73084 0.0
H1010 H 0.30754 0.89178 0.79462 0.0
H1011 H 0.28312 0.86561 0.76782 0.0
C1012 C 0.19875 0.29513 0.81324 0.0
C1013 C 0.16735 0.30327 0.81065 0.0
C1014 C 0.21589 0.2812 0.79847 0.0
C1015 C 0.20272 0.23523 0.7542 0.0
H1016 H 0.29067 0.24641 0.74543 0.0
C1017 C 0.25997 0.18047 0.68872 0.0
C1018 C 0.28927 0.16639 0.6904 0.0
C1019 C 0.248 0.19912 0.7032 0.0
C1020 C 0.26616 0.24275 0.74779 0.0
H1021 H 0.1303 0.30465 0.78979 0.0
H1022 H 0.1601 0.28133 0.76414 0.0
H1023 H 0.26454 0.27614 0.77046 0.0
H1024 H 0.32952 0.1622 0.70862 0.0
H1025 H 0.3084 0.19493 0.7343 0.0
H1026 H 0.20408 0.2018 0.73187 0.0
C1027 C 0.17139 0.28487 0.77775 0.0
C1028 C 0.25109 0.25989 0.76218 0.0
C1029 C 0.15429 0.29868 0.79248 0.0
C1030 C 0.30697 0.17279 0.70679 0.0
C1031 C 0.29476 0.19151 0.72152 0.0
C1032 C 0.21768 0.2182 0.73994 0.0
C1033 C 0.20219 0.27494 0.78063 0.0
C1034 C 0.21897 0.25668 0.76547 0.0
C1035 C 0.26464 0.20429 0.72014 0.0
C1036 C 0.24957 0.22187 0.73625 0.0
H1037 H 0.20968 0.29795 0.82702 0.0
H1038 H 0.23943 0.27394 0.80139 0.0
H1039 H 0.17827 0.23117 0.75654 0.0
H1040 H 0.24578 0.17653 0.67621 0.0
H1041 H 0.22526 0.20919 0.70114 0.0
C1042 C 0.86416 0.28108 0.71693 0.0
C1043 C 0.84925 0.29081 0.70018 0.0
C1044 C 0.84735 0.26828 0.73204 0.0
C1045 C 0.76746 0.25232 0.75121 0.0
H1046 H 0.81056 0.18401 0.77507 0.0
C1047 C 0.71999 0.18413 0.81784 0.0
C1048 C 0.72857 0.15293 0.81954 0.0
C1049 C 0.73137 0.20231 0.80269 0.0
C1050 C 0.79782 0.20273 0.76849 0.0
H1051 H 0.80473 0.29526 0.68629 0.0
H1052 H 0.7751 0.27234 0.7126 0.0
H1053 H 0.83625 0.21373 0.75068 0.0
H1054 H 0.75394 0.11593 0.80599 0.0
H1055 H 0.77235 0.14673 0.77939 0.0
H1056 H 0.72855 0.24031 0.76886 0.0
C1057 C 0.79985 0.27531 0.7143 0.0
C1058 C 0.81293 0.22034 0.75461 0.0
C1059 C 0.81678 0.28864 0.69921 0.0
C1060 C 0.74704 0.13994 0.80516 0.0
C1061 C 0.75796 0.15782 0.78999 0.0
C1062 C 0.75219 0.23451 0.76517 0.0
C1063 C 0.81505 0.26393 0.73071 0.0
C1064 C 0.79818 0.24556 0.74573 0.0
C1065 C 0.75139 0.18961 0.78884 0.0
C1066 C 0.76711 0.20926 0.77397 0.0
H1067 H 0.88917 0.28215 0.71802 0.0
H1068 H 0.85999 0.26079 0.74454 0.0
H1069 H 0.75525 0.27157 0.74484 0.0
H1070 H 0.70614 0.19494 0.82883 0.0
H1071 H 0.72573 0.22664 0.8024 0.0
C1072 C 0.13775 0.329 0.07367 0.0
C1073 C 0.11004 0.32193 0.08323 0.0
C1074 C 0.13815 0.33233 0.05373 0.0
C1075 C 0.09043 0.31521 0.01018 0.0
H1076 H 0.14318 0.37637 0.98641 0.0
C1077 C 0.07915 0.34646 0.93018 0.0
C1078 C 0.10712 0.34536 0.91998 0.0
C1079 C 0.07933 0.34606 0.95019 0.0
C1080 C 0.12833 0.35917 0.99286 0.0
H1081 H 0.06096 0.31288 0.07906 0.0
H1082 H 0.06149 0.31957 0.04497 0.0
H1083 H 0.14486 0.3694 0.02095 0.0
H1084 H 0.15717 0.3447 0.92277 0.0
H1085 H 0.15744 0.34474 0.9575 0.0
H1086 H 0.07358 0.30541 0.9821 0.0
C1087 C 0.08322 0.32175 0.05257 0.0
C1088 C 0.12946 0.35497 0.01267 0.0
C1089 C 0.08289 0.31811 0.07232 0.0
C1090 C 0.1352 0.3455 0.93021 0.0
C1091 C 0.13539 0.34563 0.95013 0.0
C1092 C 0.08902 0.31972 0.99045 0.0
C1093 C 0.11078 0.32888 0.04289 0.0
C1094 C 0.11049 0.33292 0.02166 0.0
C1095 C 0.10748 0.34513 0.96038 0.0
C1096 C 0.10795 0.34171 0.98153 0.0
H1097 H 0.15909 0.33206 0.08158 0.0
H1098 H 0.15996 0.33742 0.04682 0.0
H1099 H 0.07597 0.29747 0.01636 0.0
H1100 H 0.05717 0.34612 0.92272 0.0
H1101 H 0.05743 0.34593 0.9577 0.0
C1102 C 0.68882 0.08253 0.07965 0.0
C1103 C 0.68462 0.1086 0.09128 0.0
C1104 C 0.68843 0.08507 0.05988 0.0
C1105 C 0.66335 0.13562 0.02008 0.0
H1106 H 0.716 0.08027 0.9912 0.0
C1107 C 0.67936 0.13659 0.93711 0.0
C1108 C 0.67719 0.1075 0.92832 0.0
C1109 C 0.67897 0.1392 0.957 0.0
C1110 C 0.70106 0.09576 0.99908 0.0
H1111 H 0.67709 0.15802 0.09104 0.0
H1112 H 0.67725 0.16266 0.05622 0.0
H1113 H 0.72008 0.0815 0.02573 0.0
H1114 H 0.67208 0.05845 0.9336 0.0
H1115 H 0.67192 0.06305 0.96822 0.0
H1116 H 0.64496 0.15023 0.99305 0.0
C1117 C 0.68023 0.14008 0.06256 0.0
C1118 C 0.70328 0.09643 0.0189 0.0
C1119 C 0.68033 0.13748 0.08251 0.0
C1120 C 0.67369 0.08122 0.93985 0.0
C1121 C 0.6738 0.0838 0.95969 0.0
C1122 C 0.66148 0.13527 1.00013 0.0
C1123 C 0.68431 0.11383 0.05099 0.0
C1124 C 0.68394 0.1158 0.02975 0.0
C1125 C 0.67696 0.11273 0.96847 0.0
C1126 C 0.67987 0.11482 0.98949 0.0
H1127 H 0.69195 0.05981 0.0858 0.0
H1128 H 0.69086 0.06418 0.05157 0.0
H1129 H 0.64794 0.15069 0.02792 0.0
H1130 H 0.68206 0.1573 0.92863 0.0
H1131 H 0.6815 0.16177 0.96342 0.0
C1132 C 0.89345 0.65823 0.9322 0.0
C1133 C 0.92195 0.66262 0.9229 0.0
C1134 C 0.892 0.65586 0.95205 0.0
C1135 C 0.94031 0.64538 0.99586 0.0
H1136 H 0.87191 0.68802 0.02018 0.0
C1137 C 0.9426 0.67952 0.07511 0.0
C1138 C 0.91573 0.67488 0.08612 0.0
C1139 C 0.9421 0.67549 0.05539 0.0
C1140 C 0.89093 0.67566 0.01363 0.0
H1141 H 0.97146 0.66699 0.92724 0.0
H1142 H 0.96898 0.66345 0.96189 0.0
H1143 H 0.87401 0.68488 0.98555 0.0
H1144 H 0.86706 0.66281 0.08474 0.0
H1145 H 0.86612 0.65613 0.05003 0.0
H1146 H 0.95764 0.63705 0.02402 0.0
C1147 C 0.94769 0.66127 0.95384 0.0
C1148 C 0.89215 0.67375 0.99372 0.0
C1149 C 0.94916 0.66332 0.93392 0.0
C1150 C 0.88816 0.66653 0.07674 0.0
C1151 C 0.88762 0.66278 0.05686 0.0
C1152 C 0.9392 0.64751 0.01575 0.0
C1153 C 0.91898 0.65817 0.96323 0.0
C1154 C 0.91699 0.6588 0.98452 0.0
C1155 C 0.9147 0.66696 0.04598 0.0
C1156 C 0.91466 0.66294 0.02488 0.0
H1157 H 0.87203 0.65732 0.92416 0.0
H1158 H 0.86957 0.65268 0.95865 0.0
H1159 H 0.95949 0.63318 0.98939 0.0
H1160 H 0.9643 0.68609 0.08173 0.0
H1161 H 0.96323 0.67943 0.04744 0.0
C1162 C 0.32357 0.91214 0.07989 0.0
C1163 C 0.33605 0.8896 0.09211 0.0
C1164 C 0.32387 0.90809 0.06024 0.0
C1165 C 0.32893 0.85206 0.0214 0.0
H1166 H 0.35228 0.92493 0.99273 0.0
C1167 C 0.33754 0.86067 0.93777 0.0
C1168 C 0.32399 0.8875 0.93007 0.0
C1169 C 0.3401 0.85693 0.95758 0.0
C1170 C 0.34562 0.90439 1.00051 0.0
H1171 H 0.35747 0.84436 0.09315 0.0
H1172 H 0.35805 0.83729 0.05837 0.0
H1173 H 0.35572 0.92542 0.02729 0.0
H1174 H 0.30079 0.93043 0.93723 0.0
H1175 H 0.30532 0.92388 0.97143 0.0
H1176 H 0.31847 0.83131 0.99431 0.0
C1177 C 0.34813 0.85816 0.06425 0.0
C1178 C 0.34759 0.90466 0.02031 0.0
C1179 C 0.34788 0.86225 0.08412 0.0
C1180 C 0.31181 0.90969 0.94259 0.0
C1181 C 0.31448 0.90602 0.96224 0.0
C1182 C 0.32703 0.85176 1.00142 0.0
C1183 C 0.33667 0.8814 0.05213 0.0
C1184 C 0.33838 0.87889 0.03104 0.0
C1185 C 0.32931 0.88002 0.96997 0.0
C1186 C 0.3345 0.87831 0.99086 0.0
H1187 H 0.31371 0.93326 0.08547 0.0
H1188 H 0.31412 0.92608 0.05133 0.0
H1189 H 0.3217 0.83186 0.0293 0.0
H1190 H 0.34702 0.84307 0.92852 0.0
H1191 H 0.35155 0.83661 0.96318 0.0
C1192 C 0.14306 0.65056 0.43828 0.0
C1193 C 0.12723 0.67609 0.43066 0.0
C1194 C 0.14388 0.64577 0.45807 0.0
C1195 C 0.09896 0.6673 0.50111 0.0
H1196 H 0.1691 0.6348 0.52919 0.0
C1197 C 0.14372 0.66393 0.5833 0.0
C1198 C 0.11535 0.6588 0.59265 0.0
C1199 C 0.14624 0.66032 0.56359 0.0
C1200 C 0.14929 0.64395 0.52157 0.0
H1201 H 0.10206 0.7178 0.43768 0.0
H1202 H 0.10444 0.71017 0.47194 0.0
H1203 H 0.17311 0.64227 0.49477 0.0
H1204 H 0.06791 0.64373 0.58863 0.0
H1205 H 0.0725 0.6366 0.55426 0.0
H1206 H 0.07552 0.67036 0.52778 0.0
C1207 C 0.1152 0.69314 0.4628 0.0
C1208 C 0.15153 0.64797 0.50179 0.0
C1209 C 0.11412 0.69772 0.44316 0.0
C1210 C 0.09007 0.64802 0.58192 0.0
C1211 C 0.09265 0.64423 0.56216 0.0
C1212 C 0.09677 0.66342 0.5208 0.0
C1213 C 0.12905 0.66656 0.47052 0.0
C1214 C 0.12656 0.66029 0.49137 0.0
C1215 C 0.1205 0.65129 0.55265 0.0
C1216 C 0.12203 0.65213 0.53139 0.0
H1217 H 0.15317 0.63342 0.42894 0.0
H1218 H 0.1548 0.62507 0.46353 0.0
H1219 H 0.07898 0.67616 0.49352 0.0
H1220 H 0.16374 0.67227 0.59106 0.0
H1221 H 0.16797 0.66628 0.55685 0.0
C1222 C 0.36006 0.08026 0.43492 0.0
C1223 C 0.34544 0.10496 0.42546 0.0
C1224 C 0.36466 0.08098 0.45464 0.0
C1225 C 0.36632 0.13267 0.49676 0.0
H1226 H 0.34572 0.05801 0.52439 0.0
C1227 C 0.34543 0.13107 0.5781 0.0
C1228 C 0.3541 0.1048 0.58864 0.0
C1229 C 0.34823 0.13158 0.55826 0.0
C1230 C 0.35212 0.07892 0.51694 0.0
H1231 H 0.32505 0.15024 0.42943 0.0
H1232 H 0.33305 0.15144 0.46387 0.0
H1233 H 0.34352 0.05832 0.48976 0.0
H1234 H 0.37361 0.05882 0.58646 0.0
H1235 H 0.37898 0.05991 0.55185 0.0
H1236 H 0.37466 0.15336 0.52399 0.0
C1237 C 0.34115 0.13158 0.45596 0.0
C1238 C 0.3508 0.07911 0.49702 0.0
C1239 C 0.33647 0.13085 0.4362 0.0
C1240 C 0.36663 0.07942 0.57884 0.0
C1241 C 0.36948 0.07996 0.55895 0.0
C1242 C 0.36775 0.13246 0.5167 0.0
C1243 C 0.35482 0.10641 0.46547 0.0
C1244 C 0.35762 0.10605 0.48666 0.0
C1245 C 0.35983 0.10587 0.54836 0.0
C1246 C 0.36038 0.10565 0.52708 0.0
H1247 H 0.36744 0.05998 0.42715 0.0
H1248 H 0.37574 0.06142 0.46143 0.0
H1249 H 0.37215 0.15369 0.48924 0.0
H1250 H 0.33557 0.15104 0.5851 0.0
H1251 H 0.34019 0.15179 0.55064 0.0
C1252 C 0.87437 0.35041 0.43779 0.0
C1253 C 0.89772 0.33318 0.42876 0.0
C1254 C 0.87354 0.35265 0.45774 0.0
C1255 C 0.92466 0.34206 0.50016 0.0
H1256 H 0.84762 0.34467 0.52835 0.0
C1257 C 0.87868 0.32476 0.58222 0.0
C1258 C 0.90253 0.33975 0.59226 0.0
C1259 C 0.87689 0.32662 0.56236 0.0
C1260 C 0.86939 0.34376 0.52073 0.0
H1261 H 0.93739 0.30343 0.43361 0.0
H1262 H 0.93535 0.30645 0.46808 0.0
H1263 H 0.84638 0.34097 0.49372 0.0
H1264 H 0.9427 0.3693 0.58923 0.0
H1265 H 0.93912 0.37328 0.55461 0.0
H1266 H 0.94773 0.34342 0.52709 0.0
C1267 C 0.91834 0.31924 0.45992 0.0
C1268 C 0.86866 0.34204 0.5008 0.0
C1269 C 0.91936 0.31728 0.44009 0.0
C1270 C 0.92414 0.35731 0.58195 0.0
C1271 C 0.92217 0.35941 0.56206 0.0
C1272 C 0.92539 0.34353 0.52005 0.0
C1273 C 0.89587 0.33747 0.46906 0.0
C1274 C 0.8963 0.34077 0.49025 0.0
C1275 C 0.89874 0.34377 0.55196 0.0
C1276 C 0.89779 0.34411 0.53066 0.0
H1277 H 0.85743 0.363 0.42945 0.0
H1278 H 0.85596 0.36702 0.46423 0.0
H1279 H 0.94647 0.3418 0.49257 0.0
H1280 H 0.86174 0.3108 0.58964 0.0
H1281 H 0.85884 0.31379 0.55517 0.0
C1282 C 0.67467 0.8758 0.57662 0.0
C1283 C 0.67966 0.90382 0.58615 0.0
C1284 C 0.67071 0.87517 0.55681 0.0
C1285 C 0.65927 0.92673 0.51403 0.0
H1286 H 0.69136 0.85545 0.48734 0.0
C1287 C 0.65595 0.91986 0.43149 0.0
C1288 C 0.68024 0.90426 0.42231 0.0
C1289 C 0.65284 0.91847 0.45136 0.0
C1290 C 0.68265 0.87581 0.49445 0.0
H1291 H 0.68437 0.95318 0.58236 0.0
H1292 H 0.67911 0.95207 0.54795 0.0
H1293 H 0.69216 0.85632 0.52174 0.0
H1294 H 0.72066 0.87546 0.42679 0.0
H1295 H 0.71634 0.87429 0.46122 0.0
H1296 H 0.6519 0.94715 0.48669 0.0
C1297 C 0.67694 0.93055 0.55564 0.0
C1298 C 0.68249 0.87604 0.51438 0.0
C1299 C 0.68015 0.93123 0.57547 0.0
C1300 C 0.70141 0.88739 0.43341 0.0
C1301 C 0.69874 0.88656 0.45325 0.0
C1302 C 0.66006 0.92678 0.49408 0.0
C1303 C 0.67246 0.90247 0.54591 0.0
C1304 C 0.67101 0.9016 0.52455 0.0
C1305 C 0.67437 0.902 0.4626 0.0
C1306 C 0.67202 0.90142 0.48393 0.0
H1307 H 0.67396 0.8543 0.58447 0.0
H1308 H 0.66649 0.85312 0.55008 0.0
H1309 H 0.64957 0.94664 0.52115 0.0
H1310 H 0.63916 0.93291 0.4233 0.0
H1311 H 0.63339 0.93021 0.45783 0.0
C1312 C 0.02554 0.37973 0.18506 0.0
C1313 C 0.0413 0.35159 0.18761 0.0
C1314 C 0.0181 0.39806 0.20077 0.0
C1315 C 0.98504 0.40927 0.23932 0.0
H1316 H 0.04279 0.40843 0.28172 0.0
C1317 C 0.9597 0.34885 0.30613 0.0
C1318 C 0.96921 0.35944 0.32404 0.0
C1319 C 0.96675 0.36558 0.28985 0.0
C1320 C 0.02641 0.41013 0.27005 0.0
H1321 H 0.06211 0.32078 0.20835 0.0
H1322 H 0.04899 0.35245 0.23564 0.0
H1323 H 0.06236 0.40693 0.24924 0.0
H1324 H 0.99356 0.3957 0.33915 0.0
H1325 H 1.0078 0.42415 0.31012 0.0
H1326 H 0.94904 0.40911 0.2602 0.0
C1327 C 0.04269 0.36061 0.22156 0.0
C1328 C 0.03762 0.40915 0.25147 0.0
C1329 C 0.04957 0.34212 0.206 0.0
C1330 C 0.98624 0.38698 0.32541 0.0
C1331 C 0.99396 0.40344 0.30896 0.0
C1332 C 0.97384 0.41035 0.25791 0.0
C1333 C 0.02708 0.38878 0.2191 0.0
C1334 C 0.0169 0.40556 0.23618 0.0
C1335 C 0.98386 0.39305 0.29109 0.0
C1336 C 0.99447 0.40761 0.27332 0.0
H1337 H 0.01919 0.38764 0.17093 0.0
H1338 H 1.00556 0.41944 0.19862 0.0
H1339 H 0.96864 0.40692 0.22772 0.0
H1340 H 0.94617 0.32794 0.30471 0.0
H1341 H 0.95954 0.35649 0.27617 0.0
C1342 C 0.66708 0.93645 0.31005 0.0
C1343 C 0.67899 0.96311 0.31867 0.0
C1344 C 0.64251 0.93841 0.29726 0.0
C1345 C 0.61552 0.95107 0.25918 0.0
H1346 H 0.57537 0.03012 0.2522 0.0
C1347 C 0.64924 0.04367 0.21125 0.0
C1348 C 0.64651 0.03212 0.19274 0.0
C1349 C 0.63045 0.03227 0.22566 0.0
C1350 C 0.5852 0.0073 0.254 0.0
H1351 H 0.67361 0.01236 0.32182 0.0
H1352 H 0.63291 0.0166 0.29797 0.0
H1353 H 0.58505 0.01111 0.28432 0.0
H1354 H 0.62125 1.00096 0.17428 0.0
H1355 H 0.58973 0.97898 0.20012 0.0
H1356 H 0.61737 0.94822 0.22892 0.0
C1357 C 0.64129 0.99381 0.30157 0.0
C1358 C 0.59142 0.99666 0.27238 0.0
C1359 C 0.6652 0.99165 0.31492 0.0
C1360 C 0.62399 0.0097 0.18863 0.0
C1361 C 0.60567 0.9976 0.20323 0.0
C1362 C 0.60858 0.96135 0.24089 0.0
C1363 C 0.63003 0.96723 0.29221 0.0
C1364 C 0.61007 0.97033 0.27499 0.0
C1365 C 0.60905 0.00861 0.2219 0.0
C1366 C 0.59699 0.99121 0.23826 0.0
H1367 H 0.67645 0.91391 0.31345 0.0
H1368 H 0.63389 0.91728 0.29101 0.0
H1369 H 0.6291 0.93018 0.26036 0.0
H1370 H 0.66592 0.06153 0.21459 0.0
H1371 H 0.63413 0.04061 0.24003 0.0
C1372 C 0.01527 0.63232 0.33698 0.0
C1373 C 0.02179 0.66415 0.33679 0.0
C1374 C 0.99813 0.61899 0.32228 0.0
C1375 C 0.94746 0.63452 0.28185 0.0
H1376 H 0.01329 0.60409 0.24928 0.0
C1377 C 0.96726 0.68518 0.21091 0.0
C1378 C 0.97458 0.66736 0.19487 0.0
C1379 C 0.96522 0.67154 0.22873 0.0
C1380 C 0.99414 0.61135 0.25818 0.0
H1381 H 0.01218 0.70752 0.32257 0.0
H1382 H 0.98134 0.68446 0.29731 0.0
H1383 H 0.01941 0.60208 0.28378 0.0
H1384 H 0.98801 0.62177 0.18514 0.0
H1385 H 0.98514 0.59791 0.21681 0.0
H1386 H 0.92345 0.64649 0.25627 0.0
C1387 C 0.99009 0.66973 0.30858 0.0
C1388 C 0.99758 0.6101 0.27793 0.0
C1389 C 1.00802 0.6829 0.3229 0.0
C1390 C 0.98197 0.63596 0.19726 0.0
C1391 C 0.98009 0.62226 0.21527 0.0
C1392 C 0.94384 0.6354 0.26216 0.0
C1393 C 0.98617 0.6376 0.30773 0.0
C1394 C 0.97548 0.62426 0.28971 0.0
C1395 C 0.97065 0.63982 0.23101 0.0
C1396 C 0.96844 0.6265 0.25027 0.0
H1397 H 0.02483 0.61746 0.34789 0.0
H1398 H 0.99547 0.59415 0.32177 0.0
H1399 H 0.93012 0.64538 0.29077 0.0
H1400 H 0.96156 0.70943 0.20963 0.0
H1401 H 0.95914 0.6859 0.24079 0.0
C1402 C 0.31895 0.04974 0.30765 0.0
C1403 C 0.32185 0.03526 0.32541 0.0
C1404 C 0.34181 0.04605 0.2939 0.0
C1405 C 0.3988 0.99034 0.27861 0.0
H1406 H 0.39892 0.04981 0.23736 0.0
C1407 C 0.38346 0.99028 0.1928 0.0
C1408 C 0.35616 0.97269 0.19417 0.0
C1409 C 0.39906 0.9996 0.20929 0.0
C1410 C 0.40061 0.03319 0.24885 0.0
H1411 H 0.35103 1.00533 0.34267 0.0
H1412 H 0.39099 0.99899 0.31861 0.0
H1413 H 0.38987 0.06719 0.26983 0.0
H1414 H 0.32389 0.95084 0.21358 0.0
H1415 H 0.35093 0.96687 0.24213 0.0
H1416 H 0.4071 0.95614 0.25738 0.0
C1417 C 0.37099 0.01314 0.31531 0.0
C1418 C 0.39491 0.04302 0.26742 0.0
C1419 C 0.34788 0.01653 0.329 0.0
C1420 C 0.34466 0.96466 0.21212 0.0
C1421 C 0.36055 0.97325 0.22843 0.0
C1422 C 0.40516 0.98066 0.26013 0.0
C1423 C 0.3683 0.02799 0.29761 0.0
C1424 C 0.39003 0.02109 0.28189 0.0
C1425 C 0.38805 0.99043 0.22718 0.0
C1426 C 0.402 1.00154 0.24498 0.0
H1427 H 0.29929 0.06443 0.30445 0.0
H1428 H 0.33823 0.05686 0.28016 0.0
H1429 H 0.39617 0.97286 0.2895 0.0
H1430 H 0.39279 0.99657 0.17902 0.0
H1431 H 0.4197 0.01363 0.20816 0.0
C1432 C 1.0038 0.73003 0.68725 0.0
C1433 C 0.02203 0.75047 0.67669 0.0
C1434 C 0.98777 0.74075 0.70322 0.0
C1435 C 1.00808 0.79573 0.73868 0.0
H1436 H 0.94138 0.75602 0.76619 0.0
C1437 C 0.9709 0.75941 0.81973 0.0
C1438 C 0.99554 0.73871 0.82314 0.0
C1439 C 0.9683 0.77443 0.80225 0.0
C1440 C 0.9596 0.76807 0.75865 0.0
H1441 H 0.03425 0.79838 0.67227 0.0
H1442 H 1.00581 0.8172 0.6999 0.0
H1443 H 0.94039 0.75685 0.73136 0.0
H1444 H 0.03872 0.72084 0.81216 0.0
H1445 H 0.03482 0.74803 0.78175 0.0
H1446 H 0.02874 0.80423 0.7659 0.0
C1447 C 1.00441 0.79295 0.69629 0.0
C1448 C 0.9591 0.76839 0.73877 0.0
C1449 C 0.02073 0.78219 0.68057 0.0
C1450 C 0.01935 0.73629 0.80974 0.0
C1451 C 0.01714 0.7519 0.79243 0.0
C1452 C 1.00873 0.79507 0.75849 0.0
C1453 C 0.98977 0.77201 0.70856 0.0
C1454 C 0.98425 0.78067 0.72863 0.0
C1455 C 0.99092 0.76995 0.78828 0.0
C1456 C 0.98538 0.77974 0.76852 0.0
H1457 H 1.00448 0.70549 0.68438 0.0
H1458 H 0.97674 0.72402 0.71243 0.0
H1459 H 0.02796 0.80521 0.73133 0.0
H1460 H 0.9529 0.76312 0.83011 0.0
H1461 H 0.94808 0.78851 0.79935 0.0
C1462 C 0.31277 0.05103 0.71075 0.0
C1463 C 0.32491 0.04036 0.69344 0.0
C1464 C 0.33009 0.04887 0.72737 0.0
C1465 C 0.37721 0.05929 0.7577 0.0
H1466 H 0.39914 0.97777 0.77585 0.0
C1467 C 0.33412 1.00494 0.82287 0.0
C1468 C 0.35232 0.98516 0.83401 0.0
C1469 C 0.34729 0.02078 0.8077 0.0
C1470 C 0.39447 1.00097 0.77085 0.0
H1471 H 0.36416 0.01755 0.68015 0.0
H1472 H 0.39426 0.01305 0.70964 0.0
H1473 H 0.38937 0.98581 0.74202 0.0
H1474 H 0.39884 0.96878 0.83944 0.0
H1475 H 0.42166 0.99478 0.81176 0.0
H1476 H 0.37838 0.07344 0.78688 0.0
C1477 C 0.37149 0.02355 0.71009 0.0
C1478 C 0.3887 1.00551 0.75149 0.0
C1479 C 0.35407 0.02576 0.69332 0.0
C1480 C 0.38438 0.98347 0.83076 0.0
C1481 C 0.39746 0.99853 0.81512 0.0
C1482 C 0.38268 0.05467 0.77704 0.0
C1483 C 0.35996 0.03599 0.72711 0.0
C1484 C 0.37752 0.0341 0.74511 0.0
C1485 C 0.37869 0.01648 0.80315 0.0
C1486 C 0.38879 0.02489 0.78386 0.0
H1487 H 0.29033 0.06223 0.71133 0.0
H1488 H 0.32012 0.05755 0.74047 0.0
H1489 H 0.36941 0.08178 0.75295 0.0
H1490 H 0.30941 0.00699 0.8253 0.0
H1491 H 0.33225 0.03422 0.7985 0.0
C1492 C 0.97858 0.36641 0.695 0.0
C1493 C 0.96474 0.33749 0.69812 0.0
C1494 C 0.97964 0.38833 0.70958 0.0
C1495 C 0.95011 0.40427 0.75869 0.0
H1496 H 0.03593 0.42445 0.7681 0.0
C1497 C 0.00971 0.35909 0.81968 0.0
C1498 C 0.04154 0.36467 0.82104 0.0
C1499 C 0.99109 0.37914 0.80906 0.0
C1500 C 0.01149 0.42024 0.76593 0.0
H1501 H 0.94136 0.30888 0.71898 0.0
H1502 H 0.94438 0.34631 0.74448 0.0
H1503 H 0.01964 0.41287 0.73638 0.0
H1504 H 0.07806 0.39732 0.81555 0.0
H1505 H 0.04512 0.4342 0.79913 0.0
H1506 H 0.94262 0.40933 0.78862 0.0
C1507 C 0.95338 0.35266 0.73062 0.0
C1508 C 1.00214 0.41346 0.74743 0.0
C1509 C 0.95228 0.33087 0.71611 0.0
C1510 C 0.05351 0.39272 0.8146 0.0
C1511 C 0.0346 0.41359 0.80495 0.0
C1512 C 0.95944 0.41128 0.77726 0.0
C1513 C 0.96699 0.38167 0.72755 0.0
C1514 C 0.97223 0.40224 0.74406 0.0
C1515 C 1.00421 0.40513 0.79995 0.0
C1516 C 0.99106 0.4156 0.78136 0.0
H1517 H 0.98789 0.37246 0.68118 0.0
H1518 H 0.99046 0.41042 0.70683 0.0
H1519 H 0.92642 0.39702 0.75625 0.0
H1520 H 1.00004 0.3375 0.82467 0.0
H1521 H 0.96766 0.37178 0.80601 0.0
C1522 C 0.70308 0.04024 0.80864 0.0
C1523 C 0.69735 0.02837 0.82687 0.0
C1524 C 0.68541 0.03072 0.79323 0.0
C1525 C 0.64924 0.96485 0.77466 0.0
H1526 H 0.64056 0.02373 0.73341 0.0
C1527 C 0.67795 0.97917 0.68964 0.0
C1528 C 0.70619 0.96302 0.69089 0.0
C1529 C 0.65899 0.98227 0.70563 0.0
C1530 C 0.64162 1.00664 0.74465 0.0
H1531 H 0.66844 0.9972 0.84331 0.0
H1532 H 0.63817 0.97942 0.81582 0.0
H1533 H 0.63614 0.04111 0.76609 0.0
H1534 H 0.73685 0.93781 0.70983 0.0
H1535 H 0.70494 0.94467 0.73779 0.0
H1536 H 0.65689 0.93073 0.75324 0.0
C1537 C 0.65603 0.99662 0.81375 0.0
C1538 C 0.63916 0.01667 0.76342 0.0
C1539 C 0.67366 1.00643 0.82934 0.0
C1540 C 0.71532 0.9505 0.70843 0.0
C1541 C 0.69658 0.9538 0.72437 0.0
C1542 C 0.6511 0.95467 0.75587 0.0
C1543 C 0.66162 0.00897 0.7956 0.0
C1544 C 0.64663 0.99649 0.7784 0.0
C1545 C 0.6681 0.96951 0.72316 0.0
C1546 C 0.65089 0.97621 0.74088 0.0
H1547 H 0.72099 0.05728 0.80622 0.0
H1548 H 0.69105 0.03984 0.77929 0.0
H1549 H 0.65436 0.94866 0.786 0.0
H1550 H 0.67001 0.98864 0.67622 0.0
H1551 H 0.63729 0.99465 0.70429 0.0
C1552 C 0.09571 0.42929 0.1345 0.0
C1553 C 0.10505 0.40784 0.14842 0.0
C1554 C 0.07491 0.45297 0.13889 0.0
C1555 C 0.03678 0.50295 0.17193 0.0
H1556 H 0.96215 0.4843 0.14331 0.0
C1557 C 0.93202 0.5879 0.17113 0.0
C1558 C 0.92082 0.59419 0.15272 0.0
C1559 C 0.95133 0.56218 0.1745 0.0
C1560 C 0.98273 0.49007 0.15139 0.0
H1561 H 0.10204 0.3965 0.1784 0.0
H1562 H 0.0669 0.43944 0.18636 0.0
H1563 H 1.00626 0.44923 0.14202 0.0
H1564 H 0.91904 0.57715 0.12383 0.0
H1565 H 0.95125 0.53231 0.1296 0.0
H1566 H 0.0139 0.54473 0.18048 0.0
C1567 C 0.07538 0.43726 0.17192 0.0
C1568 C 1.008 0.46981 0.1507 0.0
C1569 C 0.09599 0.41303 0.16743 0.0
C1570 C 0.92665 0.57256 0.13828 0.0
C1571 C 0.94555 0.54687 0.14162 0.0
C1572 C 0.0115 0.52357 0.17245 0.0
C1573 C 0.06325 0.45626 0.15743 0.0
C1574 C 0.03558 0.47633 0.16055 0.0
C1575 C 0.95946 0.54199 0.15954 0.0
C1576 C 0.98436 0.51785 0.16173 0.0
H1577 H 0.10189 0.42573 0.1197 0.0
H1578 H 0.06622 0.46744 0.12748 0.0
H1579 H 0.05776 0.50854 0.17967 0.0
H1580 H 0.92836 0.60441 0.18247 0.0
H1581 H 0.96108 0.55902 0.18859 0.0
C1582 C 0.57264 0.08889 0.14399 0.0
C1583 C 0.59539 0.09846 0.15709 0.0
C1584 C 0.5499 0.06752 0.14921 0.0
C1585 C 0.49929 0.0298 0.17769 0.0
H1586 H 0.53152 0.95008 0.16222 0.0
C1587 C 0.42173 0.92056 0.17901 0.0
C1588 C 0.42038 0.9061 0.1611 0.0
C1589 C 0.44573 0.94145 0.18329 0.0
C1590 C 0.5222 0.97206 0.16679 0.0
H1591 H 0.61037 0.09483 0.18645 0.0
H1592 H 0.56993 0.0577 0.19571 0.0
H1593 H 0.565 0.99564 0.16123 0.0
H1594 H 0.44443 0.90035 0.13434 0.0
H1595 H 0.48667 0.9354 0.14201 0.0
H1596 H 0.45596 1.00666 0.18216 0.0
C1597 C 0.56997 0.06689 0.18136 0.0
C1598 C 0.54145 0.9981 0.16632 0.0
C1599 C 0.59279 0.08855 0.17614 0.0
C1600 C 0.44517 0.91056 0.14842 0.0
C1601 C 0.46927 0.931 0.15277 0.0
C1602 C 0.47999 1.00368 0.17822 0.0
C1603 C 0.54925 0.05518 0.16767 0.0
C1604 C 0.53006 0.02732 0.17142 0.0
C1605 C 0.46906 0.94798 0.16984 0.0
C1606 C 0.49097 0.97454 0.17236 0.0
H1607 H 0.57429 0.09565 0.12916 0.0
H1608 H 0.53421 0.05888 0.1384 0.0
H1609 H 0.4898 0.05213 0.1814 0.0
H1610 H 0.40265 0.9182 0.18892 0.0
H1611 H 0.44516 0.95371 0.19671 0.0
C1612 C 0.08715 0.59026 0.34548 0.0
C1613 C 0.09572 0.59481 0.36464 0.0
C1614 C 0.06492 0.56769 0.34062 0.0
C1615 C 0.994 0.54064 0.35868 0.0
H1616 H 1.0008 0.45944 0.3362 0.0
C1617 C 0.90849 0.44237 0.37465 0.0
C1618 C 0.90358 0.41863 0.36137 0.0
C1619 C 0.92818 0.46712 0.3705 0.0
C1620 C 0.99818 0.48236 0.34202 0.0
H1621 H 0.08977 0.57743 0.39334 0.0
H1622 H 0.05136 0.53864 0.38491 0.0
H1623 H 0.04605 0.49367 0.33672 0.0
H1624 H 0.91383 0.4036 0.33269 0.0
H1625 H 0.94766 0.44743 0.32515 0.0
H1626 H 0.94663 0.52938 0.36454 0.0
C1627 C 0.06161 0.55238 0.37367 0.0
C1628 C 0.02423 0.50188 0.34241 0.0
C1629 C 0.08386 0.57445 0.37844 0.0
C1630 C 0.91654 0.42183 0.3431 0.0
C1631 C 0.93657 0.44659 0.33896 0.0
C1632 C 0.96799 0.5213 0.3582 0.0
C1633 C 0.05086 0.54967 0.3549 0.0
C1634 C 0.02256 0.5309 0.3512 0.0
C1635 C 0.94384 0.46879 0.35295 0.0
C1636 C 0.96986 0.49146 0.35036 0.0
H1637 H 0.09522 0.60601 0.33458 0.0
H1638 H 0.05692 0.5661 0.32603 0.0
H1639 H 0.99209 0.56295 0.36553 0.0
H1640 H 0.8995 0.4402 0.389 0.0
H1641 H 0.93314 0.48348 0.38174 0.0
C1642 C 0.59394 0.92051 0.34038 0.0
C1643 C 0.60794 0.91241 0.35779 0.0
C1644 C 0.56692 0.93864 0.3399 0.0
C1645 C 0.53073 0.99986 0.36841 0.0
H1646 H 0.46158 0.99271 0.33351 0.0
C1647 C 0.42332 0.0809 0.37269 0.0
C1648 C 0.40431 0.08477 0.3566 0.0
C1649 C 0.44962 0.06178 0.37199 0.0
C1650 C 0.48098 0.99561 0.34311 0.0
H1651 H 0.60325 0.91555 0.38839 0.0
H1652 H 0.55582 0.94647 0.38765 0.0
H1653 H 0.50121 0.9526 0.33427 0.0
H1654 H 0.39927 0.07326 0.32683 0.0
H1655 H 0.44609 0.0418 0.32509 0.0
H1656 H 0.5114 0.04318 0.3769 0.0
C1657 C 0.56582 0.93896 0.37429 0.0
C1658 C 0.50363 0.97226 0.34366 0.0
C1659 C 0.5926 0.92051 0.37473 0.0
C1660 C 0.4138 0.07127 0.33937 0.0
C1661 C 0.44031 0.05248 0.33856 0.0
C1662 C 0.5084 0.02343 0.36767 0.0
C1663 C 0.55343 0.94949 0.35688 0.0
C1664 C 0.52868 0.97388 0.35645 0.0
C1665 C 0.45786 0.04611 0.35509 0.0
C1666 C 0.48293 0.02172 0.3551 0.0
H1667 H 0.60554 0.9153 0.32712 0.0
H1668 H 0.55813 0.94624 0.32622 0.0
H1669 H 0.55006 1.00232 0.37815 0.0
H1670 H 0.41603 0.08997 0.38635 0.0
H1671 H 0.462 0.05755 0.38514 0.0
C1672 C 0.10835 0.42758 0.87474 0.0
C1673 C 0.11964 0.41428 0.85786 0.0
C1674 C 0.08928 0.45382 0.87416 0.0
C1675 C 0.03552 0.49203 0.83959 0.0
H1676 H 0.0206 0.54766 0.88175 0.0
C1677 C 0.95307 0.59874 0.83669 0.0
C1678 C 0.93674 0.60683 0.85329 0.0
C1679 C 0.97325 0.57333 0.83652 0.0
C1680 C 0.02416 0.53202 0.86993 0.0
H1681 H 0.12388 0.42103 0.82751 0.0
H1682 H 0.09228 0.46777 0.82645 0.0
H1683 H 0.06456 0.5124 0.88294 0.0
H1684 H 0.9277 0.59346 0.88243 0.0
H1685 H 0.96252 0.54882 0.88212 0.0
H1686 H 0.9954 0.51233 0.82645 0.0
C1687 C 0.0966 0.45707 0.84014 0.0
C1688 C 0.04956 0.51175 0.87058 0.0
C1689 C 0.11549 0.43066 0.84077 0.0
C1690 C 0.93915 0.58734 0.86924 0.0
C1691 C 0.95973 0.56217 0.86919 0.0
C1692 C 0.01034 0.51257 0.83886 0.0
C1693 C 0.08149 0.46786 0.85666 0.0
C1694 C 0.05567 0.49126 0.85546 0.0
C1695 C 0.97809 0.55566 0.85309 0.0
C1696 C 1.00415 0.53273 0.85407 0.0
H1697 H 0.11055 0.41525 0.88812 0.0
H1698 H 0.07843 0.46118 0.88727 0.0
H1699 H 0.03869 0.47625 0.82782 0.0
H1700 H 0.95246 0.61381 0.82437 0.0
H1701 H 0.98697 0.56915 0.82387 0.0
C1702 C 0.59017 0.082 0.87443 0.0
C1703 C 0.61077 0.08443 0.85905 0.0
C1704 C 0.56399 0.0628 0.87329 0.0
C1705 C 0.53621 0.99366 0.84572 0.0
H1706 H 0.46507 1.00212 0.87885 0.0
C1707 C 0.42502 0.91245 0.84992 0.0
C1708 C 0.4156 0.90583 0.86867 0.0
C1709 C 0.45054 0.93213 0.84656 0.0
C1710 C 0.48485 0.99937 0.86952 0.0
H1711 H 0.6189 0.07006 0.82999 0.0
H1712 H 0.57228 0.03868 0.82739 0.0
H1713 H 0.50202 0.04427 0.87633 0.0
H1714 H 0.42774 0.91176 0.89839 0.0
H1715 H 0.47157 0.94566 0.89257 0.0
H1716 H 0.51814 0.94874 0.83872 0.0
C1717 C 0.57664 0.0506 0.84066 0.0
C1718 C 0.50626 0.02358 0.86813 0.0
C1719 C 0.60301 0.06943 0.84193 0.0
C1720 C 0.43428 0.91641 0.88377 0.0
C1721 C 0.4592 0.93624 0.88046 0.0
C1722 C 0.51439 0.9696 0.84687 0.0
C1723 C 0.5575 0.04565 0.85663 0.0
C1724 C 0.53275 0.021 0.85652 0.0
C1725 C 0.46664 0.94572 0.86191 0.0
C1726 C 0.48882 0.97189 0.85914 0.0
H1727 H 0.59608 0.0922 0.88805 0.0
H1728 H 0.55033 0.05966 0.88605 0.0
H1729 H 0.55636 0.99021 0.83681 0.0
H1730 H 0.41086 0.90523 0.83799 0.0
H1731 H 0.45585 0.93886 0.83207 0.0
C1732 C 0.91846 0.42942 0.64252 0.0
C1733 C 0.9115 0.41168 0.65868 0.0
C1734 C 0.9357 0.45674 0.6441 0.0
C1735 C 0.99093 0.49505 0.6785 0.0
H1736 H 0.99453 0.55675 0.63861 0.0
C1737 C 0.05834 0.61338 0.67969 0.0
C1738 C 0.0781 0.61845 0.66407 0.0
C1739 C 0.03947 0.58704 0.68055 0.0
C1740 C 0.99388 0.53956 0.64981 0.0
H1741 H 0.91544 0.40984 0.68935 0.0
H1742 H 0.94272 0.45873 0.69245 0.0
H1743 H 0.95446 0.51729 0.63761 0.0
H1744 H 0.09372 0.59958 0.63722 0.0
H1745 H 0.06026 0.55388 0.63852 0.0
H1746 H 0.02967 0.51881 0.69107 0.0
C1747 C 0.93626 0.45113 0.67832 0.0
C1748 C 0.97091 0.51668 0.64924 0.0
C1749 C 0.91961 0.42345 0.67665 0.0
C1750 C 0.07952 0.59587 0.64972 0.0
C1751 C 0.06 0.56997 0.65032 0.0
C1752 C 0.01339 0.51848 0.67931 0.0
C1753 C 0.94615 0.46744 0.662 0.0
C1754 C 0.96917 0.49364 0.66343 0.0
C1755 C 0.03918 0.5657 0.6655 0.0
C1756 C 0.0154 0.54072 0.66483 0.0
H1757 H 0.91368 0.42038 0.62843 0.0
H1758 H 0.9428 0.46792 0.63105 0.0
H1759 H 0.99131 0.47765 0.68955 0.0
H1760 H 0.05607 0.63078 0.69067 0.0
H1761 H 0.02357 0.58444 0.69237 0.0
C1762 C 0.6008 0.92087 0.63936 0.0
C1763 C 0.61965 0.91596 0.65542 0.0
C1764 C 0.57444 0.93993 0.64039 0.0
C1765 C 0.54115 1.00311 0.67153 0.0
H1766 H 0.47516 1.00143 0.63409 0.0
C1767 C 0.42632 0.07603 0.67436 0.0
C1768 C 0.41587 0.0892 0.65715 0.0
C1769 C 0.45304 0.05745 0.67489 0.0
C1770 C 0.4936 1.0024 0.64456 0.0
H1771 H 0.62432 0.92586 0.68545 0.0
H1772 H 0.57716 0.95651 0.68779 0.0
H1773 H 0.51379 0.96048 0.6344 0.0
H1774 H 0.426 0.09357 0.62711 0.0
H1775 H 0.4726 0.0612 0.628 0.0
H1776 H 0.51967 0.0445 0.68212 0.0
C1777 C 0.58317 0.94693 0.67406 0.0
C1778 C 0.51601 0.97882 0.64474 0.0
C1779 C 0.60987 0.9284 0.67291 0.0
C1780 C 0.43399 0.08481 0.64073 0.0
C1781 C 0.46032 0.06564 0.64116 0.0
C1782 C 0.5183 0.02631 0.67159 0.0
C1783 C 0.56579 0.95444 0.65762 0.0
C1784 C 0.54047 0.97876 0.65813 0.0
C1785 C 0.46956 0.05081 0.65811 0.0
C1786 C 0.49438 0.02648 0.65798 0.0
H1787 H 0.6083 0.91276 0.62552 0.0
H1788 H 0.56236 0.94499 0.62725 0.0
H1789 H 0.5597 1.00484 0.68185 0.0
H1790 H 0.41228 0.07791 0.68709 0.0
H1791 H 0.45932 0.04631 0.68817 0.0
loop_
_geom_bond_atom_site_label_1
_geom_bond_atom_site_label_2
_geom_bond_distance
_geom_bond_site_symmetry_2
_ccdc_geom_bond_type
Fe0 O2 1.918 . S
Fe0 O5 1.997 . S
Fe0 O6 2.002 . S
Fe0 O11 1.976 . S
Fe0 O14 1.996 . S
Fe1 O2 1.918 . S
Fe1 O9 1.997 . S
Fe1 O12 1.996 . S
Fe1 O16 1.976 . S
Fe1 O19 2.002 . S
O2 Fe0 1.918 . S
O2 Fe1 1.918 . S
O2 Fe3 1.918 . S
Fe3 O2 1.918 . S
Fe3 O4 2.002 . S
Fe3 O13 1.976 . S
Fe3 O17 1.996 . S
Fe3 O20 1.997 . S
O4 Fe3 2.002 . S
O4 C21 1.295 . S
O5 Fe0 1.997 . S
O5 C21 1.235 . S
O6 Fe0 2.002 . S
O6 C7 1.295 . S
C7 O6 1.295 . S
C7 O9 1.235 . S
C8 O13 1.287 . S
C8 O14 1.255 . S
O9 Fe1 1.997 . S
O9 C7 1.235 . S
C10 O16 1.287 . S
C10 O17 1.255 . S
O11 Fe0 1.976 . S
O11 C18 1.287 . S
O12 Fe1 1.996 . S
O12 C18 1.255 . S
O13 Fe3 1.976 . S
O13 C8 1.287 . S
O14 Fe0 1.996 . S
O14 C8 1.255 . S
C15 O19 1.295 . S
C15 O20 1.235 . S
O16 Fe1 1.976 . S
O16 C10 1.287 . S
O17 Fe3 1.996 . S
O17 C10 1.255 . S
C18 O11 1.287 . S
C18 O12 1.255 . S
O19 Fe1 2.002 . S
O19 C15 1.295 . S
O20 Fe3 1.997 . S
O20 C15 1.235 . S
C21 O4 1.295 . S
C21 O5 1.235 . S
Fe22 O24 1.918 . S
Fe22 O27 1.997 . S
Fe22 O28 2.002 . S
Fe22 O33 1.976 . S
Fe22 O36 1.996 . S
Fe23 O24 1.918 . S
Fe23 O31 1.997 . S
Fe23 O34 1.996 . S
Fe23 O38 1.976 . S
Fe23 O41 2.002 . S
O24 Fe22 1.918 . S
O24 Fe23 1.918 . S
O24 Fe25 1.918 . S
Fe25 O24 1.918 . S
Fe25 O26 2.002 . S
Fe25 O35 1.976 . S
Fe25 O39 1.996 . S
Fe25 O42 1.997 . S
O26 Fe25 2.002 . S
O26 C43 1.295 . S
O27 Fe22 1.997 . S
O27 C43 1.235 . S
O28 Fe22 2.002 . S
O28 C29 1.295 . S
C29 O28 1.295 . S
C29 O31 1.235 . S
C30 O35 1.287 . S
C30 O36 1.255 . S
O31 Fe23 1.997 . S
O31 C29 1.235 . S
C32 O38 1.287 . S
C32 O39 1.255 . S
O33 Fe22 1.976 . S
O33 C40 1.287 . S
O34 Fe23 1.996 . S
O34 C40 1.255 . S
O35 Fe25 1.976 . S
O35 C30 1.287 . S
O36 Fe22 1.996 . S
O36 C30 1.255 . S
C37 O41 1.295 . S
C37 O42 1.235 . S
O38 Fe23 1.976 . S
O38 C32 1.287 . S
O39 Fe25 1.996 . S
O39 C32 1.255 . S
C40 O33 1.287 . S
C40 O34 1.255 . S
O41 Fe23 2.002 . S
O41 C37 1.295 . S
O42 Fe25 1.997 . S
O42 C37 1.235 . S
C43 O26 1.295 . S
C43 O27 1.235 . S
Fe44 O46 1.918 . S
Fe44 O49 1.997 . S
Fe44 O50 2.002 . S
Fe44 O55 1.976 . S
Fe44 O58 1.996 . S
Fe45 O46 1.918 . S
Fe45 O53 1.997 . S
Fe45 O56 1.996 . S
Fe45 O60 1.976 . S
Fe45 O63 2.002 . S
O46 Fe44 1.918 . S
O46 Fe45 1.918 . S
O46 Fe47 1.918 . S
Fe47 O46 1.918 . S
Fe47 O48 2.002 . S
Fe47 O57 1.976 . S
Fe47 O61 1.996 . S
Fe47 O64 1.997 . S
O48 Fe47 2.002 . S
O48 C65 1.295 . S
O49 Fe44 1.997 . S
O49 C65 1.235 . S
O50 Fe44 2.002 . S
O50 C51 1.295 . S
C51 O50 1.295 . S
C51 O53 1.235 . S
C52 O57 1.287 . S
C52 O58 1.255 . S
O53 Fe45 1.997 . S
O53 C51 1.235 . S
C54 O60 1.287 . S
C54 O61 1.255 . S
O55 Fe44 1.976 . S
O55 C62 1.287 . S
O56 Fe45 1.996 . S
O56 C62 1.255 . S
O57 Fe47 1.976 . S
O57 C52 1.287 . S
O58 Fe44 1.996 . S
O58 C52 1.255 . S
C59 O63 1.295 . S
C59 O64 1.235 . S
O60 Fe45 1.976 . S
O60 C54 1.287 . S
O61 Fe47 1.996 . S
O61 C54 1.255 . S
C62 O55 1.287 . S
C62 O56 1.255 . S
O63 Fe45 2.002 . S
O63 C59 1.295 . S
O64 Fe47 1.997 . S
O64 C59 1.235 . S
C65 O48 1.295 . S
C65 O49 1.235 . S
Fe66 O68 1.918 . S
Fe66 O71 1.997 . S
Fe66 O72 2.002 . S
Fe66 O77 1.976 . S
Fe66 O80 1.996 . S
Fe67 O68 1.918 . S
Fe67 O75 1.997 . S
Fe67 O78 1.996 . S
Fe67 O82 1.976 . S
Fe67 O85 2.002 . S
O68 Fe66 1.918 . S
O68 Fe67 1.918 . S
O68 Fe69 1.918 . S
Fe69 O68 1.918 . S
Fe69 O70 2.002 . S
Fe69 O79 1.976 . S
Fe69 O83 1.996 . S
Fe69 O86 1.997 . S
O70 Fe69 2.002 . S
O70 C87 1.295 . S
O71 Fe66 1.997 . S
O71 C87 1.235 . S
O72 Fe66 2.002 . S
O72 C73 1.295 . S
C73 O72 1.295 . S
C73 O75 1.235 . S
C74 O79 1.287 . S
C74 O80 1.255 . S
O75 Fe67 1.997 . S
O75 C73 1.235 . S
C76 O82 1.287 . S
C76 O83 1.255 . S
O77 Fe66 1.976 . S
O77 C84 1.287 . S
O78 Fe67 1.996 . S
O78 C84 1.255 . S
O79 Fe69 1.976 . S
O79 C74 1.287 . S
O80 Fe66 1.996 . S
O80 C74 1.255 . S
C81 O85 1.295 . S
C81 O86 1.235 . S
O82 Fe67 1.976 . S
O82 C76 1.287 . S
O83 Fe69 1.996 . S
O83 C76 1.255 . S
C84 O77 1.287 . S
C84 O78 1.255 . S
O85 Fe67 2.002 . S
O85 C81 1.295 . S
O86 Fe69 1.997 . S
O86 C81 1.235 . S
C87 O70 1.295 . S
C87 O71 1.235 . S
Fe88 O90 1.918 . S
Fe88 O93 1.997 . S
Fe88 O94 2.002 . S
Fe88 O99 1.976 . S
Fe88 O102 1.996 . S
Fe89 O90 1.918 . S
Fe89 O97 1.997 . S
Fe89 O100 1.996 . S
Fe89 O104 1.976 . S
Fe89 O107 2.002 . S
O90 Fe88 1.918 . S
O90 Fe89 1.918 . S
O90 Fe91 1.918 . S
Fe91 O90 1.918 . S
Fe91 O92 2.002 . S
Fe91 O101 1.976 . S
Fe91 O105 1.996 . S
Fe91 O108 1.997 . S
O92 Fe91 2.002 . S
O92 C109 1.295 . S
O93 Fe88 1.997 . S
O93 C109 1.235 . S
O94 Fe88 2.002 . S
O94 C95 1.295 . S
C95 O94 1.295 . S
C95 O97 1.235 . S
C96 O101 1.287 . S
C96 O102 1.255 . S
O97 Fe89 1.997 . S
O97 C95 1.235 . S
C98 O104 1.287 . S
C98 O105 1.255 . S
O99 Fe88 1.976 . S
O99 C106 1.287 . S
O100 Fe89 1.996 . S
O100 C106 1.255 . S
O101 Fe91 1.976 . S
O101 C96 1.287 . S
O102 Fe88 1.996 . S
O102 C96 1.255 . S
C103 O107 1.295 . S
C103 O108 1.235 . S
O104 Fe89 1.976 . S
O104 C98 1.287 . S
O105 Fe91 1.996 . S
O105 C98 1.255 . S
C106 O99 1.287 . S
C106 O100 1.255 . S
O107 Fe89 2.002 . S
O107 C103 1.295 . S
O108 Fe91 1.997 . S
O108 C103 1.235 . S
C109 O92 1.295 . S
C109 O93 1.235 . S
Fe110 O112 1.918 . S
Fe110 O115 1.997 . S
Fe110 O116 2.002 . S
Fe110 O121 1.976 . S
Fe110 O124 1.996 . S
Fe111 O112 1.918 . S
Fe111 O119 1.997 . S
Fe111 O122 1.996 . S
Fe111 O126 1.976 . S
Fe111 O129 2.002 . S
O112 Fe110 1.918 . S
O112 Fe111 1.918 . S
O112 Fe113 1.918 . S
Fe113 O112 1.918 . S
Fe113 O114 2.002 . S
Fe113 O123 1.976 . S
Fe113 O127 1.996 . S
Fe113 O130 1.997 . S
O114 Fe113 2.002 . S
O114 C131 1.295 . S
O115 Fe110 1.997 . S
O115 C131 1.235 . S
O116 Fe110 2.002 . S
O116 C117 1.295 . S
C117 O116 1.295 . S
C117 O119 1.235 . S
C118 O123 1.287 . S
C118 O124 1.255 . S
O119 Fe111 1.997 . S
O119 C117 1.235 . S
C120 O126 1.287 . S
C120 O127 1.255 . S
O121 Fe110 1.976 . S
O121 C128 1.287 . S
O122 Fe111 1.996 . S
O122 C128 1.255 . S
O123 Fe113 1.976 . S
O123 C118 1.287 . S
O124 Fe110 1.996 . S
O124 C118 1.255 . S
C125 O129 1.295 . S
C125 O130 1.235 . S
O126 Fe111 1.976 . S
O126 C120 1.287 . S
O127 Fe113 1.996 . S
O127 C120 1.255 . S
C128 O121 1.287 . S
C128 O122 1.255 . S
O129 Fe111 2.002 . S
O129 C125 1.295 . S
O130 Fe113 1.997 . S
O130 C125 1.235 . S
C131 O114 1.295 . S
C131 O115 1.235 . S
Fe132 O134 1.918 . S
Fe132 O137 1.997 . S
Fe132 O138 2.002 . S
Fe132 O143 1.976 . S
Fe132 O146 1.996 . S
Fe133 O134 1.918 . S
Fe133 O141 1.997 . S
Fe133 O144 1.996 . S
Fe133 O148 1.976 . S
Fe133 O151 2.002 . S
O134 Fe132 1.918 . S
O134 Fe133 1.918 . S
O134 Fe135 1.918 . S
Fe135 O134 1.918 . S
Fe135 O136 2.002 . S
Fe135 O145 1.976 . S
Fe135 O149 1.996 . S
Fe135 O152 1.997 . S
O136 Fe135 2.002 . S
O136 C153 1.295 . S
O137 Fe132 1.997 . S
O137 C153 1.235 . S
O138 Fe132 2.002 . S
O138 C139 1.295 . S
C139 O138 1.295 . S
C139 O141 1.235 . S
C140 O145 1.287 . S
C140 O146 1.255 . S
O141 Fe133 1.997 . S
O141 C139 1.235 . S
C142 O148 1.287 . S
C142 O149 1.255 . S
O143 Fe132 1.976 . S
O143 C150 1.287 . S
O144 Fe133 1.996 . S
O144 C150 1.255 . S
O145 Fe135 1.976 . S
O145 C140 1.287 . S
O146 Fe132 1.996 . S
O146 C140 1.255 . S
C147 O151 1.295 . S
C147 O152 1.235 . S
O148 Fe133 1.976 . S
O148 C142 1.287 . S
O149 Fe135 1.996 . S
O149 C142 1.255 . S
C150 O143 1.287 . S
C150 O144 1.255 . S
O151 Fe133 2.002 . S
O151 C147 1.295 . S
O152 Fe135 1.997 . S
O152 C147 1.235 . S
C153 O136 1.295 . S
C153 O137 1.235 . S
Fe154 O156 1.918 . S
Fe154 O159 1.997 . S
Fe154 O160 2.002 . S
Fe154 O165 1.976 . S
Fe154 O168 1.996 . S
Fe155 O156 1.918 . S
Fe155 O163 1.997 . S
Fe155 O166 1.996 . S
Fe155 O170 1.976 . S
Fe155 O173 2.002 . S
O156 Fe154 1.918 . S
O156 Fe155 1.918 . S
O156 Fe157 1.918 . S
Fe157 O156 1.918 . S
Fe157 O158 2.002 . S
Fe157 O167 1.976 . S
Fe157 O171 1.996 . S
Fe157 O174 1.997 . S
O158 Fe157 2.002 . S
O158 C175 1.295 . S
O159 Fe154 1.997 . S
O159 C175 1.235 . S
O160 Fe154 2.002 . S
O160 C161 1.295 . S
C161 O160 1.295 . S
C161 O163 1.235 . S
C162 O167 1.287 . S
C162 O168 1.255 . S
O163 Fe155 1.997 . S
O163 C161 1.235 . S
C164 O170 1.287 . S
C164 O171 1.255 . S
O165 Fe154 1.976 . S
O165 C172 1.287 . S
O166 Fe155 1.996 . S
O166 C172 1.255 . S
O167 Fe157 1.976 . S
O167 C162 1.287 . S
O168 Fe154 1.996 . S
O168 C162 1.255 . S
C169 O173 1.295 . S
C169 O174 1.235 . S
O170 Fe155 1.976 . S
O170 C164 1.287 . S
O171 Fe157 1.996 . S
O171 C164 1.255 . S
C172 O165 1.287 . S
C172 O166 1.255 . S
O173 Fe155 2.002 . S
O173 C169 1.295 . S
O174 Fe157 1.997 . S
O174 C169 1.235 . S
C175 O158 1.295 . S
C175 O159 1.235 . S
Fe176 O178 1.918 . S
Fe176 O181 1.997 . S
Fe176 O182 2.002 . S
Fe176 O187 1.976 . S
Fe176 O190 1.996 . S
Fe177 O178 1.918 . S
Fe177 O185 1.997 . S
Fe177 O188 1.996 . S
Fe177 O192 1.976 . S
Fe177 O195 2.002 . S
O178 Fe176 1.918 . S
O178 Fe177 1.918 . S
O178 Fe179 1.918 . S
Fe179 O178 1.918 . S
Fe179 O180 2.002 . S
Fe179 O189 1.976 . S
Fe179 O193 1.996 . S
Fe179 O196 1.997 . S
O180 Fe179 2.002 . S
O180 C197 1.295 . S
O181 Fe176 1.997 . S
O181 C197 1.235 . S
O182 Fe176 2.002 . S
O182 C183 1.295 . S
C183 O182 1.295 . S
C183 O185 1.235 . S
C184 O189 1.287 . S
C184 O190 1.255 . S
O185 Fe177 1.997 . S
O185 C183 1.235 . S
C186 O192 1.287 . S
C186 O193 1.255 . S
O187 Fe176 1.976 . S
O187 C194 1.287 . S
O188 Fe177 1.996 . S
O188 C194 1.255 . S
O189 Fe179 1.976 . S
O189 C184 1.287 . S
O190 Fe176 1.996 . S
O190 C184 1.255 . S
C191 O195 1.295 . S
C191 O196 1.235 . S
O192 Fe177 1.976 . S
O192 C186 1.287 . S
O193 Fe179 1.996 . S
O193 C186 1.255 . S
C194 O187 1.287 . S
C194 O188 1.255 . S
O195 Fe177 2.002 . S
O195 C191 1.295 . S
O196 Fe179 1.997 . S
O196 C191 1.235 . S
C197 O180 1.295 . S
C197 O181 1.235 . S
Fe198 O200 1.918 . S
Fe198 O203 1.997 . S
Fe198 O204 2.002 . S
Fe198 O209 1.976 . S
Fe198 O212 1.996 . S
Fe199 O200 1.918 . S
Fe199 O207 1.997 . S
Fe199 O210 1.996 . S
Fe199 O214 1.976 . S
Fe199 O217 2.002 . S
O200 Fe198 1.918 . S
O200 Fe199 1.918 . S
O200 Fe201 1.918 . S
Fe201 O200 1.918 . S
Fe201 O202 2.002 . S
Fe201 O211 1.976 . S
Fe201 O215 1.996 . S
Fe201 O218 1.997 . S
O202 Fe201 2.002 . S
O202 C219 1.295 . S
O203 Fe198 1.997 . S
O203 C219 1.235 . S
O204 Fe198 2.002 . S
O204 C205 1.295 . S
C205 O204 1.295 . S
C205 O207 1.235 . S
C206 O211 1.287 . S
C206 O212 1.255 . S
O207 Fe199 1.997 . S
O207 C205 1.235 . S
C208 O214 1.287 . S
C208 O215 1.255 . S
O209 Fe198 1.976 . S
O209 C216 1.287 . S
O210 Fe199 1.996 . S
O210 C216 1.255 . S
O211 Fe201 1.976 . S
O211 C206 1.287 . S
O212 Fe198 1.996 . S
O212 C206 1.255 . S
C213 O217 1.295 . S
C213 O218 1.235 . S
O214 Fe199 1.976 . S
O214 C208 1.287 . S
O215 Fe201 1.996 . S
O215 C208 1.255 . S
C216 O209 1.287 . S
C216 O210 1.255 . S
O217 Fe199 2.002 . S
O217 C213 1.295 . S
O218 Fe201 1.997 . S
O218 C213 1.235 . S
C219 O202 1.295 . S
C219 O203 1.235 . S
Fe220 O222 1.918 . S
Fe220 O225 1.997 . S
Fe220 O226 2.002 . S
Fe220 O231 1.976 . S
Fe220 O234 1.996 . S
Fe221 O222 1.918 . S
Fe221 O229 1.997 . S
Fe221 O232 1.996 . S
Fe221 O236 1.976 . S
Fe221 O239 2.002 . S
O222 Fe220 1.918 . S
O222 Fe221 1.918 . S
O222 Fe223 1.918 . S
Fe223 O222 1.918 . S
Fe223 O224 2.002 . S
Fe223 O233 1.976 . S
Fe223 O237 1.996 . S
Fe223 O240 1.997 . S
O224 Fe223 2.002 . S
O224 C241 1.295 . S
O225 Fe220 1.997 . S
O225 C241 1.235 . S
O226 Fe220 2.002 . S
O226 C227 1.295 . S
C227 O226 1.295 . S
C227 O229 1.235 . S
C228 O233 1.287 . S
C228 O234 1.255 . S
O229 Fe221 1.997 . S
O229 C227 1.235 . S
C230 O236 1.287 . S
C230 O237 1.255 . S
O231 Fe220 1.976 . S
O231 C238 1.287 . S
O232 Fe221 1.996 . S
O232 C238 1.255 . S
O233 Fe223 1.976 . S
O233 C228 1.287 . S
O234 Fe220 1.996 . S
O234 C228 1.255 . S
C235 O239 1.295 . S
C235 O240 1.235 . S
O236 Fe221 1.976 . S
O236 C230 1.287 . S
O237 Fe223 1.996 . S
O237 C230 1.255 . S
C238 O231 1.287 . S
C238 O232 1.255 . S
O239 Fe221 2.002 . S
O239 C235 1.295 . S
O240 Fe223 1.997 . S
O240 C235 1.235 . S
C241 O224 1.295 . S
C241 O225 1.235 . S
Fe242 O244 1.918 . S
Fe242 O247 1.997 . S
Fe242 O248 2.002 . S
Fe242 O253 1.976 . S
Fe242 O256 1.996 . S
Fe243 O244 1.918 . S
Fe243 O251 1.997 . S
Fe243 O254 1.996 . S
Fe243 O258 1.976 . S
Fe243 O261 2.002 . S
O244 Fe242 1.918 . S
O244 Fe243 1.918 . S
O244 Fe245 1.918 . S
Fe245 O244 1.918 . S
Fe245 O246 2.002 . S
Fe245 O255 1.976 . S
Fe245 O259 1.996 . S
Fe245 O262 1.997 . S
O246 Fe245 2.002 . S
O246 C263 1.295 . S
O247 Fe242 1.997 . S
O247 C263 1.235 . S
O248 Fe242 2.002 . S
O248 C249 1.295 . S
C249 O248 1.295 . S
C249 O251 1.235 . S
C250 O255 1.287 . S
C250 O256 1.255 . S
O251 Fe243 1.997 . S
O251 C249 1.235 . S
C252 O258 1.287 . S
C252 O259 1.255 . S
O253 Fe242 1.976 . S
O253 C260 1.287 . S
O254 Fe243 1.996 . S
O254 C260 1.255 . S
O255 Fe245 1.976 . S
O255 C250 1.287 . S
O256 Fe242 1.996 . S
O256 C250 1.255 . S
C257 O261 1.295 . S
C257 O262 1.235 . S
O258 Fe243 1.976 . S
O258 C252 1.287 . S
O259 Fe245 1.996 . S
O259 C252 1.255 . S
C260 O253 1.287 . S
C260 O254 1.255 . S
O261 Fe243 2.002 . S
O261 C257 1.295 . S
O262 Fe245 1.997 . S
O262 C257 1.235 . S
C263 O246 1.295 . S
C263 O247 1.235 . S
Fe264 O266 1.918 . S
Fe264 O269 1.997 . S
Fe264 O270 2.002 . S
Fe264 O275 1.976 . S
Fe264 O278 1.996 . S
Fe265 O266 1.918 . S
Fe265 O273 1.997 . S
Fe265 O276 1.996 . S
Fe265 O280 1.976 . S
Fe265 O283 2.002 . S
O266 Fe264 1.918 . S
O266 Fe265 1.918 . S
O266 Fe267 1.918 . S
Fe267 O266 1.918 . S
Fe267 O268 2.002 . S
Fe267 O277 1.976 . S
Fe267 O281 1.996 . S
Fe267 O284 1.997 . S
O268 Fe267 2.002 . S
O268 C285 1.295 . S
O269 Fe264 1.997 . S
O269 C285 1.235 . S
O270 Fe264 2.002 . S
O270 C271 1.295 . S
C271 O270 1.295 . S
C271 O273 1.235 . S
C272 O277 1.287 . S
C272 O278 1.255 . S
O273 Fe265 1.997 . S
O273 C271 1.235 . S
C274 O280 1.287 . S
C274 O281 1.255 . S
O275 Fe264 1.976 . S
O275 C282 1.287 . S
O276 Fe265 1.996 . S
O276 C282 1.255 . S
O277 Fe267 1.976 . S
O277 C272 1.287 . S
O278 Fe264 1.996 . S
O278 C272 1.255 . S
C279 O283 1.295 . S
C279 O284 1.235 . S
O280 Fe265 1.976 . S
O280 C274 1.287 . S
O281 Fe267 1.996 . S
O281 C274 1.255 . S
C282 O275 1.287 . S
C282 O276 1.255 . S
O283 Fe265 2.002 . S
O283 C279 1.295 . S
O284 Fe267 1.997 . S
O284 C279 1.235 . S
C285 O268 1.295 . S
C285 O269 1.235 . S
Fe286 O288 1.918 . S
Fe286 O291 1.997 . S
Fe286 O292 2.002 . S
Fe286 O297 1.976 . S
Fe286 O300 1.996 . S
Fe287 O288 1.918 . S
Fe287 O295 1.997 . S
Fe287 O298 1.996 . S
Fe287 O302 1.976 . S
Fe287 O305 2.002 . S
O288 Fe286 1.918 . S
O288 Fe287 1.918 . S
O288 Fe289 1.918 . S
Fe289 O288 1.918 . S
Fe289 O290 2.002 . S
Fe289 O299 1.976 . S
Fe289 O303 1.996 . S
Fe289 O306 1.997 . S
O290 Fe289 2.002 . S
O290 C307 1.295 . S
O291 Fe286 1.997 . S
O291 C307 1.235 . S
O292 Fe286 2.002 . S
O292 C293 1.295 . S
C293 O292 1.295 . S
C293 O295 1.235 . S
C294 O299 1.287 . S
C294 O300 1.255 . S
O295 Fe287 1.997 . S
O295 C293 1.235 . S
C296 O302 1.287 . S
C296 O303 1.255 . S
O297 Fe286 1.976 . S
O297 C304 1.287 . S
O298 Fe287 1.996 . S
O298 C304 1.255 . S
O299 Fe289 1.976 . S
O299 C294 1.287 . S
O300 Fe286 1.996 . S
O300 C294 1.255 . S
C301 O305 1.295 . S
C301 O306 1.235 . S
O302 Fe287 1.976 . S
O302 C296 1.287 . S
O303 Fe289 1.996 . S
O303 C296 1.255 . S
C304 O297 1.287 . S
C304 O298 1.255 . S
O305 Fe287 2.002 . S
O305 C301 1.295 . S
O306 Fe289 1.997 . S
O306 C301 1.235 . S
C307 O290 1.295 . S
C307 O291 1.235 . S
Fe308 O310 1.918 . S
Fe308 O313 1.997 . S
Fe308 O314 2.002 . S
Fe308 O319 1.976 . S
Fe308 O322 1.996 . S
Fe309 O310 1.918 . S
Fe309 O317 1.997 . S
Fe309 O320 1.996 . S
Fe309 O324 1.976 . S
Fe309 O327 2.002 . S
O310 Fe308 1.918 . S
O310 Fe309 1.918 . S
O310 Fe311 1.918 . S
Fe311 O310 1.918 . S
Fe311 O312 2.002 . S
Fe311 O321 1.976 . S
Fe311 O325 1.996 . S
Fe311 O328 1.997 . S
O312 Fe311 2.002 . S
O312 C329 1.295 . S
O313 Fe308 1.997 . S
O313 C329 1.235 . S
O314 Fe308 2.002 . S
O314 C315 1.295 . S
C315 O314 1.295 . S
C315 O317 1.235 . S
C316 O321 1.287 . S
C316 O322 1.255 . S
O317 Fe309 1.997 . S
O317 C315 1.235 . S
C318 O324 1.287 . S
C318 O325 1.255 . S
O319 Fe308 1.976 . S
O319 C326 1.287 . S
O320 Fe309 1.996 . S
O320 C326 1.255 . S
O321 Fe311 1.976 . S
O321 C316 1.287 . S
O322 Fe308 1.996 . S
O322 C316 1.255 . S
C323 O327 1.295 . S
C323 O328 1.235 . S
O324 Fe309 1.976 . S
O324 C318 1.287 . S
O325 Fe311 1.996 . S
O325 C318 1.255 . S
C326 O319 1.287 . S
C326 O320 1.255 . S
O327 Fe309 2.002 . S
O327 C323 1.295 . S
O328 Fe311 1.997 . S
O328 C323 1.235 . S
C329 O312 1.295 . S
C329 O313 1.235 . S
Fe330 O332 1.918 . S
Fe330 O335 1.997 . S
Fe330 O336 2.002 . S
Fe330 O341 1.976 . S
Fe330 O344 1.996 . S
Fe331 O332 1.918 . S
Fe331 O339 1.997 . S
Fe331 O342 1.996 . S
Fe331 O346 1.976 . S
Fe331 O349 2.002 . S
O332 Fe330 1.918 . S
O332 Fe331 1.918 . S
O332 Fe333 1.918 . S
Fe333 O332 1.918 . S
Fe333 O334 2.002 . S
Fe333 O343 1.976 . S
Fe333 O347 1.996 . S
Fe333 O350 1.997 . S
O334 Fe333 2.002 . S
O334 C351 1.295 . S
O335 Fe330 1.997 . S
O335 C351 1.235 . S
O336 Fe330 2.002 . S
O336 C337 1.295 . S
C337 O336 1.295 . S
C337 O339 1.235 . S
C338 O343 1.287 . S
C338 O344 1.255 . S
O339 Fe331 1.997 . S
O339 C337 1.235 . S
C340 O346 1.287 . S
C340 O347 1.255 . S
O341 Fe330 1.976 . S
O341 C348 1.287 . S
O342 Fe331 1.996 . S
O342 C348 1.255 . S
O343 Fe333 1.976 . S
O343 C338 1.287 . S
O344 Fe330 1.996 . S
O344 C338 1.255 . S
C345 O349 1.295 . S
C345 O350 1.235 . S
O346 Fe331 1.976 . S
O346 C340 1.287 . S
O347 Fe333 1.996 . S
O347 C340 1.255 . S
C348 O341 1.287 . S
C348 O342 1.255 . S
O349 Fe331 2.002 . S
O349 C345 1.295 . S
O350 Fe333 1.997 . S
O350 C345 1.235 . S
C351 O334 1.295 . S
C351 O335 1.235 . S
C352 C353 1.349 . S
C352 C354 1.327 . S
C352 H377 0.950 . S
C353 C352 1.349 . S
C353 C369 1.349 . S
C354 C352 1.327 . S
C354 C373 1.429 . S
C354 H378 0.950 . S
C355 C372 1.574 . S
C355 C374 1.368 . S
C355 H379 0.949 . S
H356 C360 0.949 . S
C357 C358 1.349 1_545 S
C357 C359 1.327 . S
C357 H380 0.950 . S
C358 C357 1.349 1_565 S
C358 C370 1.349 . S
C359 C357 1.327 . S
C359 C375 1.429 . S
C359 H381 0.950 . S
C360 H356 0.949 . S
C360 C368 1.574 . S
C360 C376 1.368 . S
H361 C369 0.950 . S
H362 C367 0.950 . S
H363 C368 0.949 . S
H364 C370 0.950 . S
H365 C371 0.950 . S
H366 C372 0.949 . S
C367 H362 0.950 . S
C367 C369 1.327 . S
C367 C373 1.429 . S
C368 C360 1.574 . S
C368 H363 0.949 . S
C368 C374 1.368 . S
C369 C353 1.349 . S
C369 H361 0.950 . S
C369 C367 1.327 . S
C370 C358 1.349 . S
C370 H364 0.950 . S
C370 C371 1.327 1_565 S
C371 H365 0.950 . S
C371 C370 1.327 1_545 S
C371 C375 1.429 . S
C372 C355 1.574 . S
C372 H366 0.949 . S
C372 C376 1.368 . S
C373 C354 1.429 . S
C373 C367 1.429 . S
C373 C374 1.523 . S
C374 C355 1.368 . S
C374 C368 1.368 . S
C374 C373 1.523 . S
C375 C359 1.429 . S
C375 C371 1.429 . S
C375 C376 1.523 . S
C376 C360 1.368 . S
C376 C372 1.368 . S
C376 C375 1.523 . S
H377 C352 0.950 . S
H378 C354 0.950 . S
H379 C355 0.949 . S
H380 C357 0.950 . S
H381 C359 0.950 . S
C382 C383 1.349 . S
C382 C384 1.327 1_455 S
C382 H407 0.950 . S
C383 C382 1.349 . S
C383 C399 1.349 1_455 S
C384 C382 1.327 1_655 S
C384 C403 1.429 . S
C384 H408 0.950 . S
C385 C402 1.574 . S
C385 C404 1.368 . S
C385 H409 0.949 . S
H386 C390 0.949 . S
C387 C388 1.349 . S
C387 C389 1.327 . S
C387 H410 0.950 . S
C388 C387 1.349 . S
C388 C400 1.349 . S
C389 C387 1.327 . S
C389 C405 1.429 . S
C389 H411 0.950 . S
C390 H386 0.949 . S
C390 C398 1.574 . S
C390 C406 1.368 . S
H391 C399 0.950 . S
H392 C397 0.950 . S
H393 C398 0.949 . S
H394 C400 0.950 . S
H395 C401 0.950 . S
H396 C402 0.949 . S
C397 H392 0.950 . S
C397 C399 1.327 . S
C397 C403 1.429 . S
C398 C390 1.574 . S
C398 H393 0.949 . S
C398 C404 1.368 . S
C399 C383 1.349 1_655 S
C399 H391 0.950 . S
C399 C397 1.327 . S
C400 C388 1.349 . S
C400 H394 0.950 . S
C400 C401 1.327 . S
C401 H395 0.950 . S
C401 C400 1.327 . S
C401 C405 1.429 . S
C402 C385 1.574 . S
C402 H396 0.949 . S
C402 C406 1.368 . S
C403 C384 1.429 . S
C403 C397 1.429 . S
C403 C404 1.523 . S
C404 C385 1.368 . S
C404 C398 1.368 . S
C404 C403 1.523 . S
C405 C389 1.429 . S
C405 C401 1.429 . S
C405 C406 1.523 . S
C406 C390 1.368 . S
C406 C402 1.368 . S
C406 C405 1.523 . S
H407 C382 0.950 . S
H408 C384 0.950 . S
H409 C385 0.949 . S
H410 C387 0.950 . S
H411 C389 0.950 . S
C412 C413 1.349 . S
C412 C414 1.327 . S
C412 H437 0.950 . S
C413 C412 1.349 . S
C413 C429 1.349 . S
C414 C412 1.327 . S
C414 C433 1.429 . S
C414 H438 0.950 . S
C415 C432 1.574 . S
C415 C434 1.368 . S
C415 H439 0.949 . S
H416 C420 0.949 . S
C417 C418 1.349 1_565 S
C417 C419 1.327 . S
C417 H440 0.950 . S
C418 C417 1.349 1_545 S
C418 C430 1.349 . S
C419 C417 1.327 . S
C419 C435 1.429 . S
C419 H441 0.950 . S
C420 H416 0.949 . S
C420 C428 1.574 . S
C420 C436 1.368 . S
H421 C429 0.950 . S
H422 C427 0.950 . S
H423 C428 0.949 . S
H424 C430 0.950 . S
H425 C431 0.950 . S
H426 C432 0.949 . S
C427 H422 0.950 . S
C427 C429 1.327 . S
C427 C433 1.429 . S
C428 C420 1.574 . S
C428 H423 0.949 . S
C428 C434 1.368 . S
C429 C413 1.349 . S
C429 H421 0.950 . S
C429 C427 1.327 . S
C430 C418 1.349 . S
C430 H424 0.950 . S
C430 C431 1.327 1_545 S
C431 H425 0.950 . S
C431 C430 1.327 1_565 S
C431 C435 1.429 . S
C432 C415 1.574 . S
C432 H426 0.949 . S
C432 C436 1.368 . S
C433 C414 1.429 . S
C433 C427 1.429 . S
C433 C434 1.523 . S
C434 C415 1.368 . S
C434 C428 1.368 . S
C434 C433 1.523 . S
C435 C419 1.429 . S
C435 C431 1.429 . S
C435 C436 1.523 . S
C436 C420 1.368 . S
C436 C432 1.368 . S
C436 C435 1.523 . S
H437 C412 0.950 . S
H438 C414 0.950 . S
H439 C415 0.949 . S
H440 C417 0.950 . S
H441 C419 0.950 . S
C442 C443 1.349 . S
C442 C444 1.327 . S
C442 H467 0.950 . S
C443 C442 1.349 . S
C443 C459 1.349 . S
C444 C442 1.327 . S
C444 C463 1.429 . S
C444 H468 0.950 . S
C445 C462 1.574 . S
C445 C464 1.368 . S
C445 H469 0.949 . S
H446 C450 0.949 . S
C447 C448 1.349 1_455 S
C447 C449 1.327 . S
C447 H470 0.950 . S
C448 C447 1.349 1_655 S
C448 C460 1.349 . S
C449 C447 1.327 . S
C449 C465 1.429 . S
C449 H471 0.950 . S
C450 H446 0.949 . S
C450 C458 1.574 . S
C450 C466 1.368 . S
H451 C459 0.950 . S
H452 C457 0.950 . S
H453 C458 0.949 . S
H454 C460 0.950 . S
H455 C461 0.950 . S
H456 C462 0.949 . S
C457 H452 0.950 . S
C457 C459 1.327 . S
C457 C463 1.429 . S
C458 C450 1.574 . S
C458 H453 0.949 . S
C458 C464 1.368 . S
C459 C443 1.349 . S
C459 H451 0.950 . S
C459 C457 1.327 . S
C460 C448 1.349 . S
C460 H454 0.950 . S
C460 C461 1.327 1_655 S
C461 H455 0.950 . S
C461 C460 1.327 1_455 S
C461 C465 1.429 . S
C462 C445 1.574 . S
C462 H456 0.949 . S
C462 C466 1.368 . S
C463 C444 1.429 . S
C463 C457 1.429 . S
C463 C464 1.523 . S
C464 C445 1.368 . S
C464 C458 1.368 . S
C464 C463 1.523 . S
C465 C449 1.429 . S
C465 C461 1.429 . S
C465 C466 1.523 . S
C466 C450 1.368 . S
C466 C462 1.368 . S
C466 C465 1.523 . S
H467 C442 0.950 . S
H468 C444 0.950 . S
H469 C445 0.949 . S
H470 C447 0.950 . S
H471 C449 0.950 . S
C472 C473 1.349 . S
C472 C474 1.327 1_545 S
C472 H497 0.950 . S
C473 C472 1.349 . S
C473 C489 1.349 1_545 S
C474 C472 1.327 1_565 S
C474 C493 1.429 . S
C474 H498 0.950 . S
C475 C492 1.574 . S
C475 C494 1.368 . S
C475 H499 0.949 . S
H476 C480 0.949 . S
C477 C478 1.349 . S
C477 C479 1.327 . S
C477 H500 0.950 . S
C478 C477 1.349 . S
C478 C490 1.349 . S
C479 C477 1.327 . S
C479 C495 1.429 . S
C479 H501 0.950 . S
C480 H476 0.949 . S
C480 C488 1.574 . S
C480 C496 1.368 . S
H481 C489 0.950 . S
H482 C487 0.950 . S
H483 C488 0.949 . S
H484 C490 0.950 . S
H485 C491 0.950 . S
H486 C492 0.949 . S
C487 H482 0.950 . S
C487 C489 1.327 . S
C487 C493 1.429 . S
C488 C480 1.574 . S
C488 H483 0.949 . S
C488 C494 1.368 . S
C489 C473 1.349 1_565 S
C489 H481 0.950 . S
C489 C487 1.327 . S
C490 C478 1.349 . S
C490 H484 0.950 . S
C490 C491 1.327 . S
C491 H485 0.950 . S
C491 C490 1.327 . S
C491 C495 1.429 . S
C492 C475 1.574 . S
C492 H486 0.949 . S
C492 C496 1.368 . S
C493 C474 1.429 . S
C493 C487 1.429 . S
C493 C494 1.523 . S
C494 C475 1.368 . S
C494 C488 1.368 . S
C494 C493 1.523 . S
C495 C479 1.429 . S
C495 C491 1.429 . S
C495 C496 1.523 . S
C496 C480 1.368 . S
C496 C492 1.368 . S
C496 C495 1.523 . S
H497 C472 0.950 . S
H498 C474 0.950 . S
H499 C475 0.949 . S
H500 C477 0.950 . S
H501 C479 0.950 . S
C502 C503 1.349 . S
C502 C504 1.327 . S
C502 H527 0.950 . S
C503 C502 1.349 . S
C503 C519 1.349 . S
C504 C502 1.327 . S
C504 C523 1.429 . S
C504 H528 0.950 . S
C505 C522 1.574 . S
C505 C524 1.368 . S
C505 H529 0.949 . S
H506 C510 0.949 . S
C507 C508 1.349 . S
C507 C509 1.327 1_655 S
C507 H530 0.950 . S
C508 C507 1.349 . S
C508 C520 1.349 1_655 S
C509 C507 1.327 1_455 S
C509 C525 1.429 . S
C509 H531 0.950 . S
C510 H506 0.949 . S
C510 C518 1.574 . S
C510 C526 1.368 . S
H511 C519 0.950 . S
H512 C517 0.950 . S
H513 C518 0.949 . S
H514 C520 0.950 . S
H515 C521 0.950 . S
H516 C522 0.949 . S
C517 H512 0.950 . S
C517 C519 1.327 . S
C517 C523 1.429 . S
C518 C510 1.574 . S
C518 H513 0.949 . S
C518 C524 1.368 . S
C519 C503 1.349 . S
C519 H511 0.950 . S
C519 C517 1.327 . S
C520 C508 1.349 1_455 S
C520 H514 0.950 . S
C520 C521 1.327 . S
C521 H515 0.950 . S
C521 C520 1.327 . S
C521 C525 1.429 . S
C522 C505 1.574 . S
C522 H516 0.949 . S
C522 C526 1.368 . S
C523 C504 1.429 . S
C523 C517 1.429 . S
C523 C524 1.523 . S
C524 C505 1.368 . S
C524 C518 1.368 . S
C524 C523 1.523 . S
C525 C509 1.429 . S
C525 C521 1.429 . S
C525 C526 1.523 . S
C526 C510 1.368 . S
C526 C522 1.368 . S
C526 C525 1.523 . S
H527 C502 0.950 . S
H528 C504 0.950 . S
H529 C505 0.949 . S
H530 C507 0.950 . S
H531 C509 0.950 . S
C532 C533 1.349 . S
C532 C534 1.327 1_565 S
C532 H557 0.950 . S
C533 C532 1.349 . S
C533 C549 1.349 1_565 S
C534 C532 1.327 1_545 S
C534 C553 1.429 . S
C534 H558 0.950 . S
C535 C552 1.574 . S
C535 C554 1.368 . S
C535 H559 0.949 . S
H536 C540 0.949 . S
C537 C538 1.349 . S
C537 C539 1.327 . S
C537 H560 0.950 . S
C538 C537 1.349 . S
C538 C550 1.349 . S
C539 C537 1.327 . S
C539 C555 1.429 . S
C539 H561 0.950 . S
C540 H536 0.949 . S
C540 C548 1.574 . S
C540 C556 1.368 . S
H541 C549 0.950 . S
H542 C547 0.950 . S
H543 C548 0.949 . S
H544 C550 0.950 . S
H545 C551 0.950 . S
H546 C552 0.949 . S
C547 H542 0.950 . S
C547 C549 1.327 . S
C547 C553 1.429 . S
C548 C540 1.574 . S
C548 H543 0.949 . S
C548 C554 1.368 . S
C549 C533 1.349 1_545 S
C549 H541 0.950 . S
C549 C547 1.327 . S
C550 C538 1.349 . S
C550 H544 0.950 . S
C550 C551 1.327 . S
C551 H545 0.950 . S
C551 C550 1.327 . S
C551 C555 1.429 . S
C552 C535 1.574 . S
C552 H546 0.949 . S
C552 C556 1.368 . S
C553 C534 1.429 . S
C553 C547 1.429 . S
C553 C554 1.523 . S
C554 C535 1.368 . S
C554 C548 1.368 . S
C554 C553 1.523 . S
C555 C539 1.429 . S
C555 C551 1.429 . S
C555 C556 1.523 . S
C556 C540 1.368 . S
C556 C552 1.368 . S
C556 C555 1.523 . S
H557 C532 0.950 . S
H558 C534 0.950 . S
H559 C535 0.949 . S
H560 C537 0.950 . S
H561 C539 0.950 . S
C562 C563 1.349 . S
C562 C564 1.327 1_455 S
C562 H587 0.950 . S
C563 C562 1.349 . S
C563 C579 1.349 1_455 S
C564 C562 1.327 1_655 S
C564 C583 1.429 . S
C564 H588 0.950 . S
C565 C582 1.574 . S
C565 C584 1.368 . S
C565 H589 0.949 . S
H566 C570 0.949 . S
C567 C568 1.349 . S
C567 C569 1.327 . S
C567 H590 0.950 . S
C568 C567 1.349 . S
C568 C580 1.349 . S
C569 C567 1.327 . S
C569 C585 1.429 . S
C569 H591 0.950 . S
C570 H566 0.949 . S
C570 C578 1.574 . S
C570 C586 1.368 . S
H571 C579 0.950 . S
H572 C577 0.950 . S
H573 C578 0.949 . S
H574 C580 0.950 . S
H575 C581 0.950 . S
H576 C582 0.949 . S
C577 H572 0.950 . S
C577 C579 1.327 . S
C577 C583 1.429 . S
C578 C570 1.574 . S
C578 H573 0.949 . S
C578 C584 1.368 . S
C579 C563 1.349 1_655 S
C579 H571 0.950 . S
C579 C577 1.327 . S
C580 C568 1.349 . S
C580 H574 0.950 . S
C580 C581 1.327 . S
C581 H575 0.950 . S
C581 C580 1.327 . S
C581 C585 1.429 . S
C582 C565 1.574 . S
C582 H576 0.949 . S
C582 C586 1.368 . S
C583 C564 1.429 . S
C583 C577 1.429 . S
C583 C584 1.523 . S
C584 C565 1.368 . S
C584 C578 1.368 . S
C584 C583 1.523 . S
C585 C569 1.429 . S
C585 C581 1.429 . S
C585 C586 1.523 . S
C586 C570 1.368 . S
C586 C582 1.368 . S
C586 C585 1.523 . S
H587 C562 0.950 . S
H588 C564 0.950 . S
H589 C565 0.949 . S
H590 C567 0.950 . S
H591 C569 0.950 . S
C592 C593 1.349 . S
C592 C594 1.327 . S
C592 H617 0.950 . S
C593 C592 1.349 . S
C593 C609 1.349 . S
C594 C592 1.327 . S
C594 C613 1.429 . S
C594 H618 0.950 . S
C595 C612 1.574 . S
C595 C614 1.368 . S
C595 H619 0.949 . S
H596 C600 0.949 . S
C597 C598 1.349 . S
C597 C599 1.327 1_545 S
C597 H620 0.950 . S
C598 C597 1.349 . S
C598 C610 1.349 1_545 S
C599 C597 1.327 1_565 S
C599 C615 1.429 . S
C599 H621 0.950 . S
C600 H596 0.949 . S
C600 C608 1.574 . S
C600 C616 1.368 . S
H601 C609 0.950 . S
H602 C607 0.950 . S
H603 C608 0.949 . S
H604 C610 0.950 . S
H605 C611 0.950 . S
H606 C612 0.949 . S
C607 H602 0.950 . S
C607 C609 1.327 . S
C607 C613 1.429 . S
C608 C600 1.574 . S
C608 H603 0.949 . S
C608 C614 1.368 . S
C609 C593 1.349 . S
C609 H601 0.950 . S
C609 C607 1.327 . S
C610 C598 1.349 1_565 S
C610 H604 0.950 . S
C610 C611 1.327 . S
C611 H605 0.950 . S
C611 C610 1.327 . S
C611 C615 1.429 . S
C612 C595 1.574 . S
C612 H606 0.949 . S
C612 C616 1.368 . S
C613 C594 1.429 . S
C613 C607 1.429 . S
C613 C614 1.523 . S
C614 C595 1.368 . S
C614 C608 1.368 . S
C614 C613 1.523 . S
C615 C599 1.429 . S
C615 C611 1.429 . S
C615 C616 1.523 . S
C616 C600 1.368 . S
C616 C612 1.368 . S
C616 C615 1.523 . S
H617 C592 0.950 . S
H618 C594 0.950 . S
H619 C595 0.949 . S
H620 C597 0.950 . S
H621 C599 0.950 . S
C622 C623 1.349 . S
C622 C624 1.327 1_655 S
C622 H647 0.950 . S
C623 C622 1.349 . S
C623 C639 1.349 1_655 S
C624 C622 1.327 1_455 S
C624 C643 1.429 . S
C624 H648 0.950 . S
C625 C642 1.574 . S
C625 C644 1.368 . S
C625 H649 0.949 . S
H626 C630 0.949 . S
C627 C628 1.349 . S
C627 C629 1.327 . S
C627 H650 0.950 . S
C628 C627 1.349 . S
C628 C640 1.349 . S
C629 C627 1.327 . S
C629 C645 1.429 . S
C629 H651 0.950 . S
C630 H626 0.949 . S
C630 C638 1.574 . S
C630 C646 1.368 . S
H631 C639 0.950 . S
H632 C637 0.950 . S
H633 C638 0.949 . S
H634 C640 0.950 . S
H635 C641 0.950 . S
H636 C642 0.949 . S
C637 H632 0.950 . S
C637 C639 1.327 . S
C637 C643 1.429 . S
C638 C630 1.574 . S
C638 H633 0.949 . S
C638 C644 1.368 . S
C639 C623 1.349 1_455 S
C639 H631 0.950 . S
C639 C637 1.327 . S
C640 C628 1.349 . S
C640 H634 0.950 . S
C640 C641 1.327 . S
C641 H635 0.950 . S
C641 C640 1.327 . S
C641 C645 1.429 . S
C642 C625 1.574 . S
C642 H636 0.949 . S
C642 C646 1.368 . S
C643 C624 1.429 . S
C643 C637 1.429 . S
C643 C644 1.523 . S
C644 C625 1.368 . S
C644 C638 1.368 . S
C644 C643 1.523 . S
C645 C629 1.429 . S
C645 C641 1.429 . S
C645 C646 1.523 . S
C646 C630 1.368 . S
C646 C642 1.368 . S
C646 C645 1.523 . S
H647 C622 0.950 . S
H648 C624 0.950 . S
H649 C625 0.949 . S
H650 C627 0.950 . S
H651 C629 0.950 . S
C652 C653 1.349 1_545 S
C652 C654 1.327 . S
C652 H677 0.950 . S
C653 C652 1.349 1_565 S
C653 C669 1.349 . S
C654 C652 1.327 . S
C654 C673 1.429 . S
C654 H678 0.950 . S
C655 C672 1.574 . S
C655 C674 1.368 . S
C655 H679 0.949 . S
H656 C660 0.949 . S
C657 C658 1.349 . S
C657 C659 1.327 . S
C657 H680 0.950 . S
C658 C657 1.349 . S
C658 C670 1.349 . S
C659 C657 1.327 . S
C659 C675 1.429 . S
C659 H681 0.950 . S
C660 H656 0.949 . S
C660 C668 1.574 . S
C660 C676 1.368 . S
H661 C669 0.950 . S
H662 C667 0.950 . S
H663 C668 0.949 . S
H664 C670 0.950 . S
H665 C671 0.950 . S
H666 C672 0.949 . S
C667 H662 0.950 . S
C667 C669 1.327 1_545 S
C667 C673 1.429 . S
C668 C660 1.574 . S
C668 H663 0.949 . S
C668 C674 1.368 . S
C669 C653 1.349 . S
C669 H661 0.950 . S
C669 C667 1.327 1_565 S
C670 C658 1.349 . S
C670 H664 0.950 . S
C670 C671 1.327 . S
C671 H665 0.950 . S
C671 C670 1.327 . S
C671 C675 1.429 . S
C672 C655 1.574 . S
C672 H666 0.949 . S
C672 C676 1.368 . S
C673 C654 1.429 . S
C673 C667 1.429 . S
C673 C674 1.523 . S
C674 C655 1.368 . S
C674 C668 1.368 . S
C674 C673 1.523 . S
C675 C659 1.429 . S
C675 C671 1.429 . S
C675 C676 1.523 . S
C676 C660 1.368 . S
C676 C672 1.368 . S
C676 C675 1.523 . S
H677 C652 0.950 . S
H678 C654 0.950 . S
H679 C655 0.949 . S
H680 C657 0.950 . S
H681 C659 0.950 . S
C682 C683 1.345 1_655 S
C682 C684 1.337 . S
C682 H707 0.943 1_655 S
C683 C682 1.345 1_455 S
C683 C699 1.349 1_455 S
C684 C682 1.337 . S
C684 C703 1.429 . S
C684 H708 0.950 . S
C685 C702 1.574 . S
C685 C704 1.368 . S
C685 H709 0.949 . S
H686 C690 0.949 . S
C687 C688 1.349 . S
C687 C689 1.327 . S
C687 H710 0.950 . S
C688 C687 1.349 . S
C688 C700 1.349 . S
C689 C687 1.327 . S
C689 C705 1.429 . S
C689 H711 0.950 . S
C690 H686 0.949 . S
C690 C698 1.574 . S
C690 C706 1.368 . S
H691 C699 0.949 1_455 S
H692 C697 0.950 . S
H693 C698 0.949 . S
H694 C700 0.950 . S
H695 C701 0.950 . S
H696 C702 0.949 . S
C697 H692 0.950 . S
C697 C699 1.327 . S
C697 C703 1.429 . S
C698 C690 1.574 . S
C698 H693 0.949 . S
C698 C704 1.368 . S
C699 C683 1.349 1_655 S
C699 H691 0.949 1_655 S
C699 C697 1.327 . S
C700 C688 1.349 . S
C700 H694 0.950 . S
C700 C701 1.327 . S
C701 H695 0.950 . S
C701 C700 1.327 . S
C701 C705 1.429 . S
C702 C685 1.574 . S
C702 H696 0.949 . S
C702 C706 1.368 . S
C703 C684 1.429 . S
C703 C697 1.429 . S
C703 C704 1.523 . S
C704 C685 1.368 . S
C704 C698 1.368 . S
C704 C703 1.523 . S
C705 C689 1.429 . S
C705 C701 1.429 . S
C705 C706 1.523 . S
C706 C690 1.368 . S
C706 C702 1.368 . S
C706 C705 1.523 . S
H707 C682 0.943 1_455 S
H708 C684 0.950 . S
H709 C685 0.949 . S
H710 C687 0.950 . S
H711 C689 0.950 . S
C712 C713 1.349 1_545 S
C712 C714 1.327 . S
C712 H737 0.950 . S
C713 C712 1.349 1_565 S
C713 C729 1.349 . S
C714 C712 1.327 . S
C714 C733 1.429 . S
C714 H738 0.950 . S
C715 C732 1.574 . S
C715 C734 1.368 . S
C715 H739 0.949 . S
H716 C720 0.949 . S
C717 C718 1.349 . S
C717 C719 1.327 . S
C717 H740 0.950 . S
C718 C717 1.349 . S
C718 C730 1.349 . S
C719 C717 1.327 . S
C719 C735 1.429 . S
C719 H741 0.950 . S
C720 H716 0.949 . S
C720 C728 1.574 . S
C720 C736 1.368 . S
H721 C729 0.950 . S
H722 C727 0.950 . S
H723 C728 0.949 . S
H724 C730 0.950 . S
H725 C731 0.950 . S
H726 C732 0.949 . S
C727 H722 0.950 . S
C727 C729 1.327 1_545 S
C727 C733 1.429 . S
C728 C720 1.574 . S
C728 H723 0.949 . S
C728 C734 1.368 . S
C729 C713 1.349 . S
C729 H721 0.950 . S
C729 C727 1.327 1_565 S
C730 C718 1.349 . S
C730 H724 0.950 . S
C730 C731 1.327 . S
C731 H725 0.950 . S
C731 C730 1.327 . S
C731 C735 1.429 . S
C732 C715 1.574 . S
C732 H726 0.949 . S
C732 C736 1.368 . S
C733 C714 1.429 . S
C733 C727 1.429 . S
C733 C734 1.523 . S
C734 C715 1.368 . S
C734 C728 1.368 . S
C734 C733 1.523 . S
C735 C719 1.429 . S
C735 C731 1.429 . S
C735 C736 1.523 . S
C736 C720 1.368 . S
C736 C732 1.368 . S
C736 C735 1.523 . S
H737 C712 0.950 . S
H738 C714 0.950 . S
H739 C715 0.949 . S
H740 C717 0.950 . S
H741 C719 0.950 . S
C742 C743 1.349 1_655 S
C742 C744 1.327 . S
C742 H767 0.950 . S
C743 C742 1.349 1_455 S
C743 C759 1.349 . S
C744 C742 1.327 . S
C744 C763 1.429 . S
C744 H768 0.950 . S
C745 C762 1.574 . S
C745 C764 1.368 . S
C745 H769 0.949 . S
H746 C750 0.949 . S
C747 C748 1.349 . S
C747 C749 1.327 . S
C747 H770 0.950 . S
C748 C747 1.349 . S
C748 C760 1.349 . S
C749 C747 1.327 . S
C749 C765 1.429 . S
C749 H771 0.950 . S
C750 H746 0.949 . S
C750 C758 1.574 . S
C750 C766 1.368 . S
H751 C759 0.950 . S
H752 C757 0.950 . S
H753 C758 0.949 . S
H754 C760 0.950 . S
H755 C761 0.950 . S
H756 C762 0.949 . S
C757 H752 0.950 . S
C757 C759 1.327 1_655 S
C757 C763 1.429 . S
C758 C750 1.574 . S
C758 H753 0.949 . S
C758 C764 1.368 . S
C759 C743 1.349 . S
C759 H751 0.950 . S
C759 C757 1.327 1_455 S
C760 C748 1.349 . S
C760 H754 0.950 . S
C760 C761 1.327 . S
C761 H755 0.950 . S
C761 C760 1.327 . S
C761 C765 1.429 . S
C762 C745 1.574 . S
C762 H756 0.949 . S
C762 C766 1.368 . S
C763 C744 1.429 . S
C763 C757 1.429 . S
C763 C764 1.523 . S
C764 C745 1.368 . S
C764 C758 1.368 . S
C764 C763 1.523 . S
C765 C749 1.429 . S
C765 C761 1.429 . S
C765 C766 1.523 . S
C766 C750 1.368 . S
C766 C762 1.368 . S
C766 C765 1.523 . S
H767 C742 0.950 . S
H768 C744 0.950 . S
H769 C745 0.949 . S
H770 C747 0.950 . S
H771 C749 0.950 . S
C772 C773 1.349 . S
C772 C774 1.327 . S
C772 H797 0.950 . S
C773 C772 1.349 . S
C773 C789 1.349 . S
C774 C772 1.327 . S
C774 C793 1.429 . S
C774 H798 0.950 . S
C775 C792 1.574 . S
C775 C794 1.368 . S
C775 H799 0.949 . S
H776 C780 0.949 . S
C777 C778 1.349 . S
C777 C779 1.327 1_545 S
C777 H800 0.950 . S
C778 C777 1.349 . S
C778 C790 1.349 1_545 S
C779 C777 1.327 1_565 S
C779 C795 1.429 . S
C779 H801 0.950 . S
C780 H776 0.949 . S
C780 C788 1.574 . S
C780 C796 1.368 . S
H781 C789 0.950 . S
H782 C787 0.950 . S
H783 C788 0.949 . S
H784 C790 0.950 . S
H785 C791 0.950 . S
H786 C792 0.949 . S
C787 H782 0.950 . S
C787 C789 1.327 . S
C787 C793 1.429 . S
C788 C780 1.574 . S
C788 H783 0.949 . S
C788 C794 1.368 . S
C789 C773 1.349 . S
C789 H781 0.950 . S
C789 C787 1.327 . S
C790 C778 1.349 1_565 S
C790 H784 0.950 . S
C790 C791 1.327 . S
C791 H785 0.950 . S
C791 C790 1.327 . S
C791 C795 1.429 . S
C792 C775 1.574 . S
C792 H786 0.949 . S
C792 C796 1.368 . S
C793 C774 1.429 . S
C793 C787 1.429 . S
C793 C794 1.523 . S
C794 C775 1.368 . S
C794 C788 1.368 . S
C794 C793 1.523 . S
C795 C779 1.429 . S
C795 C791 1.429 . S
C795 C796 1.523 . S
C796 C780 1.368 . S
C796 C792 1.368 . S
C796 C795 1.523 . S
H797 C772 0.950 . S
H798 C774 0.950 . S
H799 C775 0.949 . S
H800 C777 0.950 . S
H801 C779 0.950 . S
C802 C803 1.349 . S
C802 C804 1.327 . S
C802 H827 0.950 . S
C803 C802 1.349 . S
C803 C819 1.349 . S
C804 C802 1.327 . S
C804 C823 1.429 . S
C804 H828 0.950 . S
C805 C822 1.574 . S
C805 C824 1.368 . S
C805 H829 0.949 . S
H806 C810 0.949 . S
C807 C808 1.349 . S
C807 C809 1.327 1_655 S
C807 H830 0.950 . S
C808 C807 1.349 . S
C808 C820 1.349 1_655 S
C809 C807 1.327 1_455 S
C809 C825 1.429 . S
C809 H831 0.950 . S
C810 H806 0.949 . S
C810 C818 1.574 . S
C810 C826 1.368 . S
H811 C819 0.950 . S
H812 C817 0.950 . S
H813 C818 0.949 . S
H814 C820 0.950 . S
H815 C821 0.950 . S
H816 C822 0.949 . S
C817 H812 0.950 . S
C817 C819 1.327 . S
C817 C823 1.429 . S
C818 C810 1.574 . S
C818 H813 0.949 . S
C818 C824 1.368 . S
C819 C803 1.349 . S
C819 H811 0.950 . S
C819 C817 1.327 . S
C820 C808 1.349 1_455 S
C820 H814 0.950 . S
C820 C821 1.327 . S
C821 H815 0.950 . S
C821 C820 1.327 . S
C821 C825 1.429 . S
C822 C805 1.574 . S
C822 H816 0.949 . S
C822 C826 1.368 . S
C823 C804 1.429 . S
C823 C817 1.429 . S
C823 C824 1.523 . S
C824 C805 1.368 . S
C824 C818 1.368 . S
C824 C823 1.523 . S
C825 C809 1.429 . S
C825 C821 1.429 . S
C825 C826 1.523 . S
C826 C810 1.368 . S
C826 C822 1.368 . S
C826 C825 1.523 . S
H827 C802 0.950 . S
H828 C804 0.950 . S
H829 C805 0.949 . S
H830 C807 0.950 . S
H831 C809 0.950 . S
C832 C833 1.349 . S
C832 C834 1.327 . S
C832 H857 0.950 . S
C833 C832 1.349 . S
C833 C849 1.349 . S
C834 C832 1.327 . S
C834 C853 1.429 . S
C834 H858 0.950 . S
C835 C852 1.574 . S
C835 C854 1.368 . S
C835 H859 0.949 . S
H836 C840 0.949 . S
C837 C838 1.349 . S
C837 C839 1.327 . S
C837 H860 0.950 . S
C838 C837 1.349 . S
C838 C850 1.349 . S
C839 C837 1.327 . S
C839 C855 1.429 . S
C839 H861 0.950 . S
C840 H836 0.949 . S
C840 C848 1.574 . S
C840 C856 1.368 . S
H841 C849 0.950 . S
H842 C847 0.950 . S
H843 C848 0.949 . S
H844 C850 0.950 . S
H845 C851 0.950 . S
H846 C852 0.949 . S
C847 H842 0.950 . S
C847 C849 1.327 . S
C847 C853 1.429 . S
C848 C840 1.574 . S
C848 H843 0.949 . S
C848 C854 1.368 . S
C849 C833 1.349 . S
C849 H841 0.950 . S
C849 C847 1.327 . S
C850 C838 1.349 . S
C850 H844 0.950 . S
C850 C851 1.327 . S
C851 H845 0.950 . S
C851 C850 1.327 . S
C851 C855 1.429 . S
C852 C835 1.574 . S
C852 H846 0.949 . S
C852 C856 1.368 . S
C853 C834 1.429 . S
C853 C847 1.429 . S
C853 C854 1.523 . S
C854 C835 1.368 . S
C854 C848 1.368 . S
C854 C853 1.523 . S
C855 C839 1.429 . S
C855 C851 1.429 . S
C855 C856 1.523 . S
C856 C840 1.368 . S
C856 C852 1.368 . S
C856 C855 1.523 . S
H857 C832 0.950 . S
H858 C834 0.950 . S
H859 C835 0.949 . S
H860 C837 0.950 . S
H861 C839 0.950 . S
C862 C863 1.349 . S
C862 C864 1.327 . S
C862 H887 0.950 . S
C863 C862 1.349 . S
C863 C879 1.349 . S
C864 C862 1.327 . S
C864 C883 1.429 . S
C864 H888 0.950 . S
C865 C882 1.574 . S
C865 C884 1.368 . S
C865 H889 0.949 . S
H866 C870 0.949 . S
C867 C868 1.349 . S
C867 C869 1.327 . S
C867 H890 0.950 . S
C868 C867 1.349 . S
C868 C880 1.349 . S
C869 C867 1.327 . S
C869 C885 1.429 . S
C869 H891 0.950 . S
C870 H866 0.949 . S
C870 C878 1.574 . S
C870 C886 1.368 . S
H871 C879 0.950 . S
H872 C877 0.950 . S
H873 C878 0.949 . S
H874 C880 0.950 . S
H875 C881 0.950 . S
H876 C882 0.949 . S
C877 H872 0.950 . S
C877 C879 1.327 . S
C877 C883 1.429 . S
C878 C870 1.574 . S
C878 H873 0.949 . S
C878 C884 1.368 . S
C879 C863 1.349 . S
C879 H871 0.950 . S
C879 C877 1.327 . S
C880 C868 1.349 . S
C880 H874 0.950 . S
C880 C881 1.327 . S
C881 H875 0.950 . S
C881 C880 1.327 . S
C881 C885 1.429 . S
C882 C865 1.574 . S
C882 H876 0.949 . S
C882 C886 1.368 . S
C883 C864 1.429 . S
C883 C877 1.429 . S
C883 C884 1.523 . S
C884 C865 1.368 . S
C884 C878 1.368 . S
C884 C883 1.523 . S
C885 C869 1.429 . S
C885 C881 1.429 . S
C885 C886 1.523 . S
C886 C870 1.368 . S
C886 C882 1.368 . S
C886 C885 1.523 . S
H887 C862 0.950 . S
H888 C864 0.950 . S
H889 C865 0.949 . S
H890 C867 0.950 . S
H891 C869 0.950 . S
C892 C893 1.349 . S
C892 C894 1.327 . S
C892 H917 0.950 . S
C893 C892 1.349 . S
C893 C909 1.349 . S
C894 C892 1.327 . S
C894 C913 1.429 . S
C894 H918 0.950 . S
C895 C912 1.574 . S
C895 C914 1.368 . S
C895 H919 0.949 . S
H896 C900 0.949 . S
C897 C898 1.349 . S
C897 C899 1.327 . S
C897 H920 0.950 . S
C898 C897 1.349 . S
C898 C910 1.349 . S
C899 C897 1.327 . S
C899 C915 1.429 . S
C899 H921 0.950 . S
C900 H896 0.949 . S
C900 C908 1.574 . S
C900 C916 1.368 . S
H901 C909 0.950 . S
H902 C907 0.950 . S
H903 C908 0.949 . S
H904 C910 0.950 . S
H905 C911 0.950 . S
H906 C912 0.949 . S
C907 H902 0.950 . S
C907 C909 1.327 . S
C907 C913 1.429 . S
C908 C900 1.574 . S
C908 H903 0.949 . S
C908 C914 1.368 . S
C909 C893 1.349 . S
C909 H901 0.950 . S
C909 C907 1.327 . S
C910 C898 1.349 . S
C910 H904 0.950 . S
C910 C911 1.327 . S
C911 H905 0.950 . S
C911 C910 1.327 . S
C911 C915 1.429 . S
C912 C895 1.574 . S
C912 H906 0.949 . S
C912 C916 1.368 . S
C913 C894 1.429 . S
C913 C907 1.429 . S
C913 C914 1.523 . S
C914 C895 1.368 . S
C914 C908 1.368 . S
C914 C913 1.523 . S
C915 C899 1.429 . S
C915 C911 1.429 . S
C915 C916 1.523 . S
C916 C900 1.368 . S
C916 C912 1.368 . S
C916 C915 1.523 . S
H917 C892 0.950 . S
H918 C894 0.950 . S
H919 C895 0.949 . S
H920 C897 0.950 . S
H921 C899 0.950 . S
C922 C923 1.349 . S
C922 C924 1.327 . S
C922 H947 0.950 . S
C923 C922 1.349 . S
C923 C939 1.349 . S
C924 C922 1.327 . S
C924 C943 1.429 . S
C924 H948 0.950 . S
C925 C942 1.574 . S
C925 C944 1.368 . S
C925 H949 0.949 . S
H926 C930 0.949 . S
C927 C928 1.349 . S
C927 C929 1.327 . S
C927 H950 0.950 . S
C928 C927 1.349 . S
C928 C940 1.349 . S
C929 C927 1.327 . S
C929 C945 1.429 . S
C929 H951 0.950 . S
C930 H926 0.949 . S
C930 C938 1.574 . S
C930 C946 1.368 . S
H931 C939 0.950 . S
H932 C937 0.950 . S
H933 C938 0.949 . S
H934 C940 0.950 . S
H935 C941 0.950 . S
H936 C942 0.949 . S
C937 H932 0.950 . S
C937 C939 1.327 . S
C937 C943 1.429 . S
C938 C930 1.574 . S
C938 H933 0.949 . S
C938 C944 1.368 . S
C939 C923 1.349 . S
C939 H931 0.950 . S
C939 C937 1.327 . S
C940 C928 1.349 . S
C940 H934 0.950 . S
C940 C941 1.327 . S
C941 H935 0.950 . S
C941 C940 1.327 . S
C941 C945 1.429 . S
C942 C925 1.574 . S
C942 H936 0.949 . S
C942 C946 1.368 . S
C943 C924 1.429 . S
C943 C937 1.429 . S
C943 C944 1.523 . S
C944 C925 1.368 . S
C944 C938 1.368 . S
C944 C943 1.523 . S
C945 C929 1.429 . S
C945 C941 1.429 . S
C945 C946 1.523 . S
C946 C930 1.368 . S
C946 C942 1.368 . S
C946 C945 1.523 . S
H947 C922 0.950 . S
H948 C924 0.950 . S
H949 C925 0.949 . S
H950 C927 0.950 . S
H951 C929 0.950 . S
C952 C953 1.349 . S
C952 C954 1.327 . S
C952 H977 0.950 . S
C953 C952 1.349 . S
C953 C969 1.349 . S
C954 C952 1.327 . S
C954 C973 1.429 . S
C954 H978 0.950 . S
C955 C972 1.574 . S
C955 C974 1.368 . S
C955 H979 0.949 . S
H956 C960 0.949 . S
C957 C958 1.349 . S
C957 C959 1.327 . S
C957 H980 0.950 . S
C958 C957 1.349 . S
C958 C970 1.349 . S
C959 C957 1.327 . S
C959 C975 1.429 . S
C959 H981 0.950 . S
C960 H956 0.949 . S
C960 C968 1.574 . S
C960 C976 1.368 . S
H961 C969 0.950 . S
H962 C967 0.950 . S
H963 C968 0.949 . S
H964 C970 0.950 . S
H965 C971 0.950 . S
H966 C972 0.949 . S
C967 H962 0.950 . S
C967 C969 1.327 . S
C967 C973 1.429 . S
C968 C960 1.574 . S
C968 H963 0.949 . S
C968 C974 1.368 . S
C969 C953 1.349 . S
C969 H961 0.950 . S
C969 C967 1.327 . S
C970 C958 1.349 . S
C970 H964 0.950 . S
C970 C971 1.327 . S
C971 H965 0.950 . S
C971 C970 1.327 . S
C971 C975 1.429 . S
C972 C955 1.574 . S
C972 H966 0.949 . S
C972 C976 1.368 . S
C973 C954 1.429 . S
C973 C967 1.429 . S
C973 C974 1.523 . S
C974 C955 1.368 . S
C974 C968 1.368 . S
C974 C973 1.523 . S
C975 C959 1.429 . S
C975 C971 1.429 . S
C975 C976 1.523 . S
C976 C960 1.368 . S
C976 C972 1.368 . S
C976 C975 1.523 . S
H977 C952 0.950 . S
H978 C954 0.950 . S
H979 C955 0.949 . S
H980 C957 0.950 . S
H981 C959 0.950 . S
C982 C983 1.349 . S
C982 C984 1.327 . S
C982 H1007 0.950 . S
C983 C982 1.349 . S
C983 C999 1.349 . S
C984 C982 1.327 . S
C984 C1003 1.429 . S
C984 H1008 0.950 . S
C985 C1002 1.574 . S
C985 C1004 1.368 . S
C985 H1009 0.949 . S
H986 C990 0.949 . S
C987 C988 1.349 . S
C987 C989 1.327 . S
C987 H1010 0.950 . S
C988 C987 1.349 . S
C988 C1000 1.349 . S
C989 C987 1.327 . S
C989 C1005 1.429 . S
C989 H1011 0.950 . S
C990 H986 0.949 . S
C990 C998 1.574 . S
C990 C1006 1.368 . S
H991 C999 0.950 . S
H992 C997 0.950 . S
H993 C998 0.949 . S
H994 C1000 0.950 . S
H995 C1001 0.950 . S
H996 C1002 0.949 . S
C997 H992 0.950 . S
C997 C999 1.327 . S
C997 C1003 1.429 . S
C998 C990 1.574 . S
C998 H993 0.949 . S
C998 C1004 1.368 . S
C999 C983 1.349 . S
C999 H991 0.950 . S
C999 C997 1.327 . S
C1000 C988 1.349 . S
C1000 H994 0.950 . S
C1000 C1001 1.327 . S
C1001 H995 0.950 . S
C1001 C1000 1.327 . S
C1001 C1005 1.429 . S
C1002 C985 1.574 . S
C1002 H996 0.949 . S
C1002 C1006 1.368 . S
C1003 C984 1.429 . S
C1003 C997 1.429 . S
C1003 C1004 1.523 . S
C1004 C985 1.368 . S
C1004 C998 1.368 . S
C1004 C1003 1.523 . S
C1005 C989 1.429 . S
C1005 C1001 1.429 . S
C1005 C1006 1.523 . S
C1006 C990 1.368 . S
C1006 C1002 1.368 . S
C1006 C1005 1.523 . S
H1007 C982 0.950 . S
H1008 C984 0.950 . S
H1009 C985 0.949 . S
H1010 C987 0.950 . S
H1011 C989 0.950 . S
C1012 C1013 1.349 . S
C1012 C1014 1.327 . S
C1012 H1037 0.950 . S
C1013 C1012 1.349 . S
C1013 C1029 1.349 . S
C1014 C1012 1.327 . S
C1014 C1033 1.429 . S
C1014 H1038 0.950 . S
C1015 C1032 1.574 . S
C1015 C1034 1.368 . S
C1015 H1039 0.949 . S
H1016 C1020 0.949 . S
C1017 C1018 1.349 . S
C1017 C1019 1.327 . S
C1017 H1040 0.950 . S
C1018 C1017 1.349 . S
C1018 C1030 1.349 . S
C1019 C1017 1.327 . S
C1019 C1035 1.429 . S
C1019 H1041 0.950 . S
C1020 H1016 0.949 . S
C1020 C1028 1.574 . S
C1020 C1036 1.368 . S
H1021 C1029 0.950 . S
H1022 C1027 0.950 . S
H1023 C1028 0.949 . S
H1024 C1030 0.950 . S
H1025 C1031 0.950 . S
H1026 C1032 0.949 . S
C1027 H1022 0.950 . S
C1027 C1029 1.327 . S
C1027 C1033 1.429 . S
C1028 C1020 1.574 . S
C1028 H1023 0.949 . S
C1028 C1034 1.368 . S
C1029 C1013 1.349 . S
C1029 H1021 0.950 . S
C1029 C1027 1.327 . S
C1030 C1018 1.349 . S
C1030 H1024 0.950 . S
C1030 C1031 1.327 . S
C1031 H1025 0.950 . S
C1031 C1030 1.327 . S
C1031 C1035 1.429 . S
C1032 C1015 1.574 . S
C1032 H1026 0.949 . S
C1032 C1036 1.368 . S
C1033 C1014 1.429 . S
C1033 C1027 1.429 . S
C1033 C1034 1.523 . S
C1034 C1015 1.368 . S
C1034 C1028 1.368 . S
C1034 C1033 1.523 . S
C1035 C1019 1.429 . S
C1035 C1031 1.429 . S
C1035 C1036 1.523 . S
C1036 C1020 1.368 . S
C1036 C1032 1.368 . S
C1036 C1035 1.523 . S
H1037 C1012 0.950 . S
H1038 C1014 0.950 . S
H1039 C1015 0.949 . S
H1040 C1017 0.950 . S
H1041 C1019 0.950 . S
C1042 C1043 1.349 . S
C1042 C1044 1.327 . S
C1042 H1067 0.950 . S
C1043 C1042 1.349 . S
C1043 C1059 1.349 . S
C1044 C1042 1.327 . S
C1044 C1063 1.429 . S
C1044 H1068 0.950 . S
C1045 C1062 1.574 . S
C1045 C1064 1.368 . S
C1045 H1069 0.949 . S
H1046 C1050 0.949 . S
C1047 C1048 1.349 . S
C1047 C1049 1.327 . S
C1047 H1070 0.950 . S
C1048 C1047 1.349 . S
C1048 C1060 1.349 . S
C1049 C1047 1.327 . S
C1049 C1065 1.429 . S
C1049 H1071 0.950 . S
C1050 H1046 0.949 . S
C1050 C1058 1.574 . S
C1050 C1066 1.368 . S
H1051 C1059 0.950 . S
H1052 C1057 0.950 . S
H1053 C1058 0.949 . S
H1054 C1060 0.950 . S
H1055 C1061 0.950 . S
H1056 C1062 0.949 . S
C1057 H1052 0.950 . S
C1057 C1059 1.327 . S
C1057 C1063 1.429 . S
C1058 C1050 1.574 . S
C1058 H1053 0.949 . S
C1058 C1064 1.368 . S
C1059 C1043 1.349 . S
C1059 H1051 0.950 . S
C1059 C1057 1.327 . S
C1060 C1048 1.349 . S
C1060 H1054 0.950 . S
C1060 C1061 1.327 . S
C1061 H1055 0.950 . S
C1061 C1060 1.327 . S
C1061 C1065 1.429 . S
C1062 C1045 1.574 . S
C1062 H1056 0.949 . S
C1062 C1066 1.368 . S
C1063 C1044 1.429 . S
C1063 C1057 1.429 . S
C1063 C1064 1.523 . S
C1064 C1045 1.368 . S
C1064 C1058 1.368 . S
C1064 C1063 1.523 . S
C1065 C1049 1.429 . S
C1065 C1061 1.429 . S
C1065 C1066 1.523 . S
C1066 C1050 1.368 . S
C1066 C1062 1.368 . S
C1066 C1065 1.523 . S
H1067 C1042 0.950 . S
H1068 C1044 0.950 . S
H1069 C1045 0.949 . S
H1070 C1047 0.950 . S
H1071 C1049 0.950 . S
C1072 C1073 1.349 . S
C1072 C1074 1.327 . S
C1072 H1097 0.950 . S
C1073 C1072 1.349 . S
C1073 C1089 1.349 . S
C1074 C1072 1.327 . S
C1074 C1093 1.429 . S
C1074 H1098 0.950 . S
C1075 C1092 1.574 1_554 S
C1075 C1094 1.368 . S
C1075 H1099 0.949 . S
H1076 C1080 0.949 . S
C1077 C1078 1.349 . S
C1077 C1079 1.327 . S
C1077 H1100 0.950 . S
C1078 C1077 1.349 . S
C1078 C1090 1.349 . S
C1079 C1077 1.327 . S
C1079 C1095 1.429 . S
C1079 H1101 0.950 . S
C1080 H1076 0.949 . S
C1080 C1088 1.574 1_556 S
C1080 C1096 1.368 . S
H1081 C1089 0.950 . S
H1082 C1087 0.950 . S
H1083 C1088 0.949 . S
H1084 C1090 0.950 . S
H1085 C1091 0.950 . S
H1086 C1092 0.949 . S
C1087 H1082 0.950 . S
C1087 C1089 1.327 . S
C1087 C1093 1.429 . S
C1088 C1080 1.574 1_554 S
C1088 H1083 0.949 . S
C1088 C1094 1.368 . S
C1089 C1073 1.349 . S
C1089 H1081 0.950 . S
C1089 C1087 1.327 . S
C1090 C1078 1.349 . S
C1090 H1084 0.950 . S
C1090 C1091 1.327 . S
C1091 H1085 0.950 . S
C1091 C1090 1.327 . S
C1091 C1095 1.429 . S
C1092 C1075 1.574 1_556 S
C1092 H1086 0.949 . S
C1092 C1096 1.368 . S
C1093 C1074 1.429 . S
C1093 C1087 1.429 . S
C1093 C1094 1.523 . S
C1094 C1075 1.368 . S
C1094 C1088 1.368 . S
C1094 C1093 1.523 . S
C1095 C1079 1.429 . S
C1095 C1091 1.429 . S
C1095 C1096 1.523 . S
C1096 C1080 1.368 . S
C1096 C1092 1.368 . S
C1096 C1095 1.523 . S
H1097 C1072 0.950 . S
H1098 C1074 0.950 . S
H1099 C1075 0.949 . S
H1100 C1077 0.950 . S
H1101 C1079 0.950 . S
C1102 C1103 1.349 . S
C1102 C1104 1.327 . S
C1102 H1127 0.950 . S
C1103 C1102 1.349 . S
C1103 C1119 1.349 . S
C1104 C1102 1.327 . S
C1104 C1123 1.429 . S
C1104 H1128 0.950 . S
C1105 C1122 1.574 1_554 S
C1105 C1124 1.368 . S
C1105 H1129 0.949 . S
H1106 C1110 0.949 . S
C1107 C1108 1.349 . S
C1107 C1109 1.327 . S
C1107 H1130 0.950 . S
C1108 C1107 1.349 . S
C1108 C1120 1.349 . S
C1109 C1107 1.327 . S
C1109 C1125 1.429 . S
C1109 H1131 0.950 . S
C1110 H1106 0.949 . S
C1110 C1118 1.574 1_556 S
C1110 C1126 1.368 . S
H1111 C1119 0.950 . S
H1112 C1117 0.950 . S
H1113 C1118 0.949 . S
H1114 C1120 0.950 . S
H1115 C1121 0.950 . S
H1116 C1122 0.949 . S
C1117 H1112 0.950 . S
C1117 C1119 1.327 . S
C1117 C1123 1.429 . S
C1118 C1110 1.574 1_554 S
C1118 H1113 0.949 . S
C1118 C1124 1.368 . S
C1119 C1103 1.349 . S
C1119 H1111 0.950 . S
C1119 C1117 1.327 . S
C1120 C1108 1.349 . S
C1120 H1114 0.950 . S
C1120 C1121 1.327 . S
C1121 H1115 0.950 . S
C1121 C1120 1.327 . S
C1121 C1125 1.429 . S
C1122 C1105 1.574 1_556 S
C1122 H1116 0.949 . S
C1122 C1126 1.368 . S
C1123 C1104 1.429 . S
C1123 C1117 1.429 . S
C1123 C1124 1.523 . S
C1124 C1105 1.368 . S
C1124 C1118 1.368 . S
C1124 C1123 1.523 . S
C1125 C1109 1.429 . S
C1125 C1121 1.429 . S
C1125 C1126 1.523 . S
C1126 C1110 1.368 . S
C1126 C1122 1.368 . S
C1126 C1125 1.523 . S
H1127 C1102 0.950 . S
H1128 C1104 0.950 . S
H1129 C1105 0.949 . S
H1130 C1107 0.950 . S
H1131 C1109 0.950 . S
C1132 C1133 1.349 . S
C1132 C1134 1.327 . S
C1132 H1157 0.950 . S
C1133 C1132 1.349 . S
C1133 C1149 1.349 . S
C1134 C1132 1.327 . S
C1134 C1153 1.429 . S
C1134 H1158 0.950 . S
C1135 C1152 1.574 1_556 S
C1135 C1154 1.368 . S
C1135 H1159 0.949 . S
H1136 C1140 0.949 . S
C1137 C1138 1.349 . S
C1137 C1139 1.327 . S
C1137 H1160 0.950 . S
C1138 C1137 1.349 . S
C1138 C1150 1.349 . S
C1139 C1137 1.327 . S
C1139 C1155 1.429 . S
C1139 H1161 0.950 . S
C1140 H1136 0.949 . S
C1140 C1148 1.574 1_554 S
C1140 C1156 1.368 . S
H1141 C1149 0.950 . S
H1142 C1147 0.950 . S
H1143 C1148 0.949 . S
H1144 C1150 0.950 . S
H1145 C1151 0.950 . S
H1146 C1152 0.949 . S
C1147 H1142 0.950 . S
C1147 C1149 1.327 . S
C1147 C1153 1.429 . S
C1148 C1140 1.574 1_556 S
C1148 H1143 0.949 . S
C1148 C1154 1.368 . S
C1149 C1133 1.349 . S
C1149 H1141 0.950 . S
C1149 C1147 1.327 . S
C1150 C1138 1.349 . S
C1150 H1144 0.950 . S
C1150 C1151 1.327 . S
C1151 H1145 0.950 . S
C1151 C1150 1.327 . S
C1151 C1155 1.429 . S
C1152 C1135 1.574 1_554 S
C1152 H1146 0.949 . S
C1152 C1156 1.368 . S
C1153 C1134 1.429 . S
C1153 C1147 1.429 . S
C1153 C1154 1.523 . S
C1154 C1135 1.368 . S
C1154 C1148 1.368 . S
C1154 C1153 1.523 . S
C1155 C1139 1.429 . S
C1155 C1151 1.429 . S
C1155 C1156 1.523 . S
C1156 C1140 1.368 . S
C1156 C1152 1.368 . S
C1156 C1155 1.523 . S
H1157 C1132 0.950 . S
H1158 C1134 0.950 . S
H1159 C1135 0.949 . S
H1160 C1137 0.950 . S
H1161 C1139 0.950 . S
C1162 C1163 1.349 . S
C1162 C1164 1.327 . S
C1162 H1187 0.950 . S
C1163 C1162 1.349 . S
C1163 C1179 1.349 . S
C1164 C1162 1.327 . S
C1164 C1183 1.429 . S
C1164 H1188 0.950 . S
C1165 C1182 1.574 1_554 S
C1165 C1184 1.368 . S
C1165 H1189 0.949 . S
H1166 C1170 0.949 . S
C1167 C1168 1.349 . S
C1167 C1169 1.327 . S
C1167 H1190 0.950 . S
C1168 C1167 1.349 . S
C1168 C1180 1.349 . S
C1169 C1167 1.327 . S
C1169 C1185 1.429 . S
C1169 H1191 0.950 . S
C1170 H1166 0.949 . S
C1170 C1178 1.574 1_556 S
C1170 C1186 1.368 . S
H1171 C1179 0.950 . S
H1172 C1177 0.950 . S
H1173 C1178 0.949 . S
H1174 C1180 0.950 . S
H1175 C1181 0.950 . S
H1176 C1182 0.949 . S
C1177 H1172 0.950 . S
C1177 C1179 1.327 . S
C1177 C1183 1.429 . S
C1178 C1170 1.574 1_554 S
C1178 H1173 0.949 . S
C1178 C1184 1.368 . S
C1179 C1163 1.349 . S
C1179 H1171 0.950 . S
C1179 C1177 1.327 . S
C1180 C1168 1.349 . S
C1180 H1174 0.950 . S
C1180 C1181 1.327 . S
C1181 H1175 0.950 . S
C1181 C1180 1.327 . S
C1181 C1185 1.429 . S
C1182 C1165 1.574 1_556 S
C1182 H1176 0.949 . S
C1182 C1186 1.368 . S
C1183 C1164 1.429 . S
C1183 C1177 1.429 . S
C1183 C1184 1.523 . S
C1184 C1165 1.368 . S
C1184 C1178 1.368 . S
C1184 C1183 1.523 . S
C1185 C1169 1.429 . S
C1185 C1181 1.429 . S
C1185 C1186 1.523 . S
C1186 C1170 1.368 . S
C1186 C1182 1.368 . S
C1186 C1185 1.523 . S
H1187 C1162 0.950 . S
H1188 C1164 0.950 . S
H1189 C1165 0.949 . S
H1190 C1167 0.950 . S
H1191 C1169 0.950 . S
C1192 C1193 1.349 . S
C1192 C1194 1.327 . S
C1192 H1217 0.950 . S
C1193 C1192 1.349 . S
C1193 C1209 1.349 . S
C1194 C1192 1.327 . S
C1194 C1213 1.429 . S
C1194 H1218 0.950 . S
C1195 C1212 1.574 . S
C1195 C1214 1.368 . S
C1195 H1219 0.949 . S
H1196 C1200 0.949 . S
C1197 C1198 1.349 . S
C1197 C1199 1.327 . S
C1197 H1220 0.950 . S
C1198 C1197 1.349 . S
C1198 C1210 1.349 . S
C1199 C1197 1.327 . S
C1199 C1215 1.429 . S
C1199 H1221 0.950 . S
C1200 H1196 0.949 . S
C1200 C1208 1.574 . S
C1200 C1216 1.368 . S
H1201 C1209 0.950 . S
H1202 C1207 0.950 . S
H1203 C1208 0.949 . S
H1204 C1210 0.950 . S
H1205 C1211 0.950 . S
H1206 C1212 0.949 . S
C1207 H1202 0.950 . S
C1207 C1209 1.327 . S
C1207 C1213 1.429 . S
C1208 C1200 1.574 . S
C1208 H1203 0.949 . S
C1208 C1214 1.368 . S
C1209 C1193 1.349 . S
C1209 H1201 0.950 . S
C1209 C1207 1.327 . S
C1210 C1198 1.349 . S
C1210 H1204 0.950 . S
C1210 C1211 1.327 . S
C1211 H1205 0.950 . S
C1211 C1210 1.327 . S
C1211 C1215 1.429 . S
C1212 C1195 1.574 . S
C1212 H1206 0.949 . S
C1212 C1216 1.368 . S
C1213 C1194 1.429 . S
C1213 C1207 1.429 . S
C1213 C1214 1.523 . S
C1214 C1195 1.368 . S
C1214 C1208 1.368 . S
C1214 C1213 1.523 . S
C1215 C1199 1.429 . S
C1215 C1211 1.429 . S
C1215 C1216 1.523 . S
C1216 C1200 1.368 . S
C1216 C1212 1.368 . S
C1216 C1215 1.523 . S
H1217 C1192 0.950 . S
H1218 C1194 0.950 . S
H1219 C1195 0.949 . S
H1220 C1197 0.950 . S
H1221 C1199 0.950 . S
C1222 C1223 1.349 . S
C1222 C1224 1.327 . S
C1222 H1247 0.950 . S
C1223 C1222 1.349 . S
C1223 C1239 1.349 . S
C1224 C1222 1.327 . S
C1224 C1243 1.429 . S
C1224 H1248 0.950 . S
C1225 C1242 1.574 . S
C1225 C1244 1.368 . S
C1225 H1249 0.949 . S
H1226 C1230 0.949 . S
C1227 C1228 1.349 . S
C1227 C1229 1.327 . S
C1227 H1250 0.950 . S
C1228 C1227 1.349 . S
C1228 C1240 1.349 . S
C1229 C1227 1.327 . S
C1229 C1245 1.429 . S
C1229 H1251 0.950 . S
C1230 H1226 0.949 . S
C1230 C1238 1.574 . S
C1230 C1246 1.368 . S
H1231 C1239 0.950 . S
H1232 C1237 0.950 . S
H1233 C1238 0.949 . S
H1234 C1240 0.950 . S
H1235 C1241 0.950 . S
H1236 C1242 0.949 . S
C1237 H1232 0.950 . S
C1237 C1239 1.327 . S
C1237 C1243 1.429 . S
C1238 C1230 1.574 . S
C1238 H1233 0.949 . S
C1238 C1244 1.368 . S
C1239 C1223 1.349 . S
C1239 H1231 0.950 . S
C1239 C1237 1.327 . S
C1240 C1228 1.349 . S
C1240 H1234 0.950 . S
C1240 C1241 1.327 . S
C1241 H1235 0.950 . S
C1241 C1240 1.327 . S
C1241 C1245 1.429 . S
C1242 C1225 1.574 . S
C1242 H1236 0.949 . S
C1242 C1246 1.368 . S
C1243 C1224 1.429 . S
C1243 C1237 1.429 . S
C1243 C1244 1.523 . S
C1244 C1225 1.368 . S
C1244 C1238 1.368 . S
C1244 C1243 1.523 . S
C1245 C1229 1.429 . S
C1245 C1241 1.429 . S
C1245 C1246 1.523 . S
C1246 C1230 1.368 . S
C1246 C1242 1.368 . S
C1246 C1245 1.523 . S
H1247 C1222 0.950 . S
H1248 C1224 0.950 . S
H1249 C1225 0.949 . S
H1250 C1227 0.950 . S
H1251 C1229 0.950 . S
C1252 C1253 1.349 . S
C1252 C1254 1.327 . S
C1252 H1277 0.950 . S
C1253 C1252 1.349 . S
C1253 C1269 1.349 . S
C1254 C1252 1.327 . S
C1254 C1273 1.429 . S
C1254 H1278 0.950 . S
C1255 C1272 1.574 . S
C1255 C1274 1.368 . S
C1255 H1279 0.949 . S
H1256 C1260 0.949 . S
C1257 C1258 1.349 . S
C1257 C1259 1.327 . S
C1257 H1280 0.950 . S
C1258 C1257 1.349 . S
C1258 C1270 1.349 . S
C1259 C1257 1.327 . S
C1259 C1275 1.429 . S
C1259 H1281 0.950 . S
C1260 H1256 0.949 . S
C1260 C1268 1.574 . S
C1260 C1276 1.368 . S
H1261 C1269 0.950 . S
H1262 C1267 0.950 . S
H1263 C1268 0.949 . S
H1264 C1270 0.950 . S
H1265 C1271 0.950 . S
H1266 C1272 0.949 . S
C1267 H1262 0.950 . S
C1267 C1269 1.327 . S
C1267 C1273 1.429 . S
C1268 C1260 1.574 . S
C1268 H1263 0.949 . S
C1268 C1274 1.368 . S
C1269 C1253 1.349 . S
C1269 H1261 0.950 . S
C1269 C1267 1.327 . S
C1270 C1258 1.349 . S
C1270 H1264 0.950 . S
C1270 C1271 1.327 . S
C1271 H1265 0.950 . S
C1271 C1270 1.327 . S
C1271 C1275 1.429 . S
C1272 C1255 1.574 . S
C1272 H1266 0.949 . S
C1272 C1276 1.368 . S
C1273 C1254 1.429 . S
C1273 C1267 1.429 . S
C1273 C1274 1.523 . S
C1274 C1255 1.368 . S
C1274 C1268 1.368 . S
C1274 C1273 1.523 . S
C1275 C1259 1.429 . S
C1275 C1271 1.429 . S
C1275 C1276 1.523 . S
C1276 C1260 1.368 . S
C1276 C1272 1.368 . S
C1276 C1275 1.523 . S
H1277 C1252 0.950 . S
H1278 C1254 0.950 . S
H1279 C1255 0.949 . S
H1280 C1257 0.950 . S
H1281 C1259 0.950 . S
C1282 C1283 1.349 . S
C1282 C1284 1.327 . S
C1282 H1307 0.950 . S
C1283 C1282 1.349 . S
C1283 C1299 1.349 . S
C1284 C1282 1.327 . S
C1284 C1303 1.429 . S
C1284 H1308 0.950 . S
C1285 C1302 1.574 . S
C1285 C1304 1.368 . S
C1285 H1309 0.949 . S
H1286 C1290 0.949 . S
C1287 C1288 1.349 . S
C1287 C1289 1.327 . S
C1287 H1310 0.950 . S
C1288 C1287 1.349 . S
C1288 C1300 1.349 . S
C1289 C1287 1.327 . S
C1289 C1305 1.429 . S
C1289 H1311 0.950 . S
C1290 H1286 0.949 . S
C1290 C1298 1.574 . S
C1290 C1306 1.368 . S
H1291 C1299 0.950 . S
H1292 C1297 0.950 . S
H1293 C1298 0.949 . S
H1294 C1300 0.950 . S
H1295 C1301 0.950 . S
H1296 C1302 0.949 . S
C1297 H1292 0.950 . S
C1297 C1299 1.327 . S
C1297 C1303 1.429 . S
C1298 C1290 1.574 . S
C1298 H1293 0.949 . S
C1298 C1304 1.368 . S
C1299 C1283 1.349 . S
C1299 H1291 0.950 . S
C1299 C1297 1.327 . S
C1300 C1288 1.349 . S
C1300 H1294 0.950 . S
C1300 C1301 1.327 . S
C1301 H1295 0.950 . S
C1301 C1300 1.327 . S
C1301 C1305 1.429 . S
C1302 C1285 1.574 . S
C1302 H1296 0.949 . S
C1302 C1306 1.368 . S
C1303 C1284 1.429 . S
C1303 C1297 1.429 . S
C1303 C1304 1.523 . S
C1304 C1285 1.368 . S
C1304 C1298 1.368 . S
C1304 C1303 1.523 . S
C1305 C1289 1.429 . S
C1305 C1301 1.429 . S
C1305 C1306 1.523 . S
C1306 C1290 1.368 . S
C1306 C1302 1.368 . S
C1306 C1305 1.523 . S
H1307 C1282 0.950 . S
H1308 C1284 0.950 . S
H1309 C1285 0.949 . S
H1310 C1287 0.950 . S
H1311 C1289 0.950 . S
C1312 C1313 1.349 . S
C1312 C1314 1.327 . S
C1312 H1337 0.950 . S
C1313 C1312 1.349 . S
C1313 C1329 1.349 . S
C1314 C1312 1.327 . S
C1314 C1333 1.429 . S
C1314 H1338 0.950 1_455 S
C1315 C1332 1.574 . S
C1315 C1334 1.368 . S
C1315 H1339 0.949 . S
H1316 C1320 0.949 . S
C1317 C1318 1.349 . S
C1317 C1319 1.327 . S
C1317 H1340 0.950 . S
C1318 C1317 1.349 . S
C1318 C1330 1.349 . S
C1319 C1317 1.327 . S
C1319 C1335 1.429 . S
C1319 H1341 0.950 1_655 S
C1320 H1316 0.949 . S
C1320 C1328 1.574 . S
C1320 C1336 1.368 . S
H1321 C1329 0.950 . S
H1322 C1327 0.950 . S
H1323 C1328 0.949 . S
H1324 C1330 0.950 . S
H1325 C1331 0.950 . S
H1326 C1332 0.949 . S
C1327 H1322 0.950 . S
C1327 C1329 1.327 . S
C1327 C1333 1.429 . S
C1328 C1320 1.574 . S
C1328 H1323 0.949 . S
C1328 C1334 1.368 1_655 S
C1329 C1313 1.349 . S
C1329 H1321 0.950 . S
C1329 C1327 1.327 . S
C1330 C1318 1.349 . S
C1330 H1324 0.950 . S
C1330 C1331 1.327 . S
C1331 H1325 0.950 . S
C1331 C1330 1.327 . S
C1331 C1335 1.429 . S
C1332 C1315 1.574 . S
C1332 H1326 0.949 . S
C1332 C1336 1.368 1_455 S
C1333 C1314 1.429 . S
C1333 C1327 1.429 . S
C1333 C1334 1.523 . S
C1334 C1315 1.368 . S
C1334 C1328 1.368 1_455 S
C1334 C1333 1.523 . S
C1335 C1319 1.429 . S
C1335 C1331 1.429 . S
C1335 C1336 1.523 . S
C1336 C1320 1.368 . S
C1336 C1332 1.368 1_655 S
C1336 C1335 1.523 . S
H1337 C1312 0.950 . S
H1338 C1314 0.950 1_655 S
H1339 C1315 0.949 . S
H1340 C1317 0.950 . S
H1341 C1319 0.950 1_455 S
C1342 C1343 1.349 . S
C1342 C1344 1.327 . S
C1342 H1367 0.950 . S
C1343 C1342 1.349 . S
C1343 C1359 1.349 . S
C1344 C1342 1.327 . S
C1344 C1363 1.429 . S
C1344 H1368 0.950 . S
C1345 C1362 1.574 . S
C1345 C1364 1.368 1_545 S
C1345 H1369 0.949 . S
H1346 C1350 0.949 . S
C1347 C1348 1.349 . S
C1347 C1349 1.327 . S
C1347 H1370 0.950 . S
C1348 C1347 1.349 . S
C1348 C1360 1.349 . S
C1349 C1347 1.327 . S
C1349 C1365 1.429 . S
C1349 H1371 0.950 . S
C1350 H1346 0.949 . S
C1350 C1358 1.574 . S
C1350 C1366 1.368 1_565 S
H1351 C1359 0.970 . S
H1352 C1357 0.950 1_545 S
H1353 C1358 0.949 . S
H1354 C1360 0.970 . S
H1355 C1361 0.950 1_565 S
H1356 C1362 0.949 . S
C1357 H1352 0.950 1_565 S
C1357 C1359 1.327 . S
C1357 C1363 1.429 . S
C1358 C1350 1.574 . S
C1358 H1353 0.949 . S
C1358 C1364 1.368 . S
C1359 C1343 1.349 . S
C1359 H1351 0.970 . S
C1359 C1357 1.327 . S
C1360 C1348 1.349 . S
C1360 H1354 0.970 . S
C1360 C1361 1.327 . S
C1361 H1355 0.950 1_545 S
C1361 C1360 1.327 . S
C1361 C1365 1.429 . S
C1362 C1345 1.574 . S
C1362 H1356 0.949 . S
C1362 C1366 1.368 . S
C1363 C1344 1.429 . S
C1363 C1357 1.429 . S
C1363 C1364 1.523 . S
C1364 C1345 1.368 1_565 S
C1364 C1358 1.368 . S
C1364 C1363 1.523 . S
C1365 C1349 1.429 . S
C1365 C1361 1.429 . S
C1365 C1366 1.523 . S
C1366 C1350 1.368 1_545 S
C1366 C1362 1.368 . S
C1366 C1365 1.523 . S
H1367 C1342 0.950 . S
H1368 C1344 0.950 . S
H1369 C1345 0.949 . S
H1370 C1347 0.950 . S
H1371 C1349 0.950 . S
C1372 C1373 1.349 . S
C1372 C1374 1.327 . S
C1372 H1397 0.950 . S
C1373 C1372 1.349 . S
C1373 C1389 1.349 . S
C1374 C1372 1.327 . S
C1374 C1393 1.429 . S
C1374 H1398 0.950 1_455 S
C1375 C1392 1.574 . S
C1375 C1394 1.368 . S
C1375 H1399 0.949 . S
H1376 C1380 0.949 . S
C1377 C1378 1.349 . S
C1377 C1379 1.327 . S
C1377 H1400 0.950 . S
C1378 C1377 1.349 . S
C1378 C1390 1.349 . S
C1379 C1377 1.327 . S
C1379 C1395 1.429 . S
C1379 H1401 0.950 1_655 S
C1380 H1376 0.949 . S
C1380 C1388 1.574 . S
C1380 C1396 1.368 . S
H1381 C1389 0.950 . S
H1382 C1387 0.950 . S
H1383 C1388 0.949 . S
H1384 C1390 0.950 . S
H1385 C1391 0.950 . S
H1386 C1392 0.949 . S
C1387 H1382 0.950 . S
C1387 C1389 1.327 . S
C1387 C1393 1.429 . S
C1388 C1380 1.574 . S
C1388 H1383 0.949 . S
C1388 C1394 1.368 1_655 S
C1389 C1373 1.349 . S
C1389 H1381 0.950 . S
C1389 C1387 1.327 . S
C1390 C1378 1.349 . S
C1390 H1384 0.950 . S
C1390 C1391 1.327 . S
C1391 H1385 0.950 . S
C1391 C1390 1.327 . S
C1391 C1395 1.429 . S
C1392 C1375 1.574 . S
C1392 H1386 0.949 . S
C1392 C1396 1.368 1_455 S
C1393 C1374 1.429 . S
C1393 C1387 1.429 . S
C1393 C1394 1.523 . S
C1394 C1375 1.368 . S
C1394 C1388 1.368 1_455 S
C1394 C1393 1.523 . S
C1395 C1379 1.429 . S
C1395 C1391 1.429 . S
C1395 C1396 1.523 . S
C1396 C1380 1.368 . S
C1396 C1392 1.368 1_655 S
C1396 C1395 1.523 . S
H1397 C1372 0.950 . S
H1398 C1374 0.950 1_655 S
H1399 C1375 0.949 . S
H1400 C1377 0.950 . S
H1401 C1379 0.950 1_455 S
C1402 C1403 1.349 . S
C1402 C1404 1.327 . S
C1402 H1427 0.950 . S
C1403 C1402 1.349 . S
C1403 C1419 1.349 . S
C1404 C1402 1.327 . S
C1404 C1423 1.429 . S
C1404 H1428 0.950 1_545 S
C1405 C1422 1.574 . S
C1405 C1424 1.368 . S
C1405 H1429 0.949 . S
H1406 C1410 0.949 . S
C1407 C1408 1.349 . S
C1407 C1409 1.327 . S
C1407 H1430 0.950 . S
C1408 C1407 1.349 . S
C1408 C1420 1.349 . S
C1409 C1407 1.327 . S
C1409 C1425 1.429 . S
C1409 H1431 0.950 1_565 S
C1410 H1406 0.949 . S
C1410 C1418 1.574 . S
C1410 C1426 1.368 . S
H1411 C1419 0.950 . S
H1412 C1417 0.950 . S
H1413 C1418 0.949 . S
H1414 C1420 0.950 . S
H1415 C1421 0.950 . S
H1416 C1422 0.949 . S
C1417 H1412 0.950 . S
C1417 C1419 1.327 . S
C1417 C1423 1.429 . S
C1418 C1410 1.574 . S
C1418 H1413 0.949 . S
C1418 C1424 1.368 1_565 S
C1419 C1403 1.349 . S
C1419 H1411 0.950 . S
C1419 C1417 1.327 . S
C1420 C1408 1.349 . S
C1420 H1414 0.950 . S
C1420 C1421 1.327 . S
C1421 H1415 0.950 . S
C1421 C1420 1.327 . S
C1421 C1425 1.429 . S
C1422 C1405 1.574 . S
C1422 H1416 0.949 . S
C1422 C1426 1.368 1_545 S
C1423 C1404 1.429 . S
C1423 C1417 1.429 . S
C1423 C1424 1.523 . S
C1424 C1405 1.368 . S
C1424 C1418 1.368 1_545 S
C1424 C1423 1.523 . S
C1425 C1409 1.429 . S
C1425 C1421 1.429 . S
C1425 C1426 1.523 . S
C1426 C1410 1.368 . S
C1426 C1422 1.368 1_565 S
C1426 C1425 1.523 . S
H1427 C1402 0.950 . S
H1428 C1404 0.950 1_565 S
H1429 C1405 0.949 . S
H1430 C1407 0.950 . S
H1431 C1409 0.950 1_545 S
C1432 C1433 1.349 . S
C1432 C1434 1.327 . S
C1432 H1457 0.950 . S
C1433 C1432 1.349 . S
C1433 C1449 1.349 . S
C1434 C1432 1.327 . S
C1434 C1453 1.429 . S
C1434 H1458 0.950 . S
C1435 C1452 1.574 . S
C1435 C1454 1.368 1_655 S
C1435 H1459 0.949 . S
H1436 C1440 0.949 . S
C1437 C1438 1.349 . S
C1437 C1439 1.327 . S
C1437 H1460 0.950 . S
C1438 C1437 1.349 . S
C1438 C1450 1.349 . S
C1439 C1437 1.327 . S
C1439 C1455 1.429 . S
C1439 H1461 0.950 . S
C1440 H1436 0.949 . S
C1440 C1448 1.574 . S
C1440 C1456 1.368 1_455 S
H1441 C1449 0.950 . S
H1442 C1447 0.950 1_655 S
H1443 C1448 0.949 . S
H1444 C1450 0.950 . S
H1445 C1451 0.950 1_455 S
H1446 C1452 0.949 . S
C1447 H1442 0.950 1_455 S
C1447 C1449 1.327 . S
C1447 C1453 1.429 . S
C1448 C1440 1.574 . S
C1448 H1443 0.949 . S
C1448 C1454 1.368 . S
C1449 C1433 1.349 . S
C1449 H1441 0.950 . S
C1449 C1447 1.327 . S
C1450 C1438 1.349 . S
C1450 H1444 0.950 . S
C1450 C1451 1.327 . S
C1451 H1445 0.950 1_655 S
C1451 C1450 1.327 . S
C1451 C1455 1.429 . S
C1452 C1435 1.574 . S
C1452 H1446 0.949 . S
C1452 C1456 1.368 . S
C1453 C1434 1.429 . S
C1453 C1447 1.429 . S
C1453 C1454 1.523 . S
C1454 C1435 1.368 1_455 S
C1454 C1448 1.368 . S
C1454 C1453 1.523 . S
C1455 C1439 1.429 . S
C1455 C1451 1.429 . S
C1455 C1456 1.523 . S
C1456 C1440 1.368 1_655 S
C1456 C1452 1.368 . S
C1456 C1455 1.523 . S
H1457 C1432 0.950 . S
H1458 C1434 0.950 . S
H1459 C1435 0.949 . S
H1460 C1437 0.950 . S
H1461 C1439 0.950 . S
C1462 C1463 1.349 . S
C1462 C1464 1.327 1_545 S
C1462 H1487 0.950 1_545 S
C1463 C1462 1.349 . S
C1463 C1479 1.349 . S
C1464 C1462 1.327 1_565 S
C1464 C1483 1.429 1_565 S
C1464 H1488 0.950 . S
C1465 C1482 1.574 . S
C1465 C1484 1.368 . S
C1465 H1489 0.949 . S
H1466 C1470 0.949 . S
C1467 C1468 1.349 . S
C1467 C1469 1.327 1_565 S
C1467 H1490 0.950 1_565 S
C1468 C1467 1.349 . S
C1468 C1480 1.349 . S
C1469 C1467 1.327 1_545 S
C1469 C1485 1.429 1_545 S
C1469 H1491 0.950 . S
C1470 H1466 0.949 . S
C1470 C1478 1.574 . S
C1470 C1486 1.368 . S
H1471 C1479 0.950 . S
H1472 C1477 0.950 . S
H1473 C1478 0.949 . S
H1474 C1480 0.950 . S
H1475 C1481 0.950 . S
H1476 C1482 0.949 . S
C1477 H1472 0.950 . S
C1477 C1479 1.327 . S
C1477 C1483 1.429 . S
C1478 C1470 1.574 . S
C1478 H1473 0.949 . S
C1478 C1484 1.368 1_565 S
C1479 C1463 1.349 . S
C1479 H1471 0.950 . S
C1479 C1477 1.327 . S
C1480 C1468 1.349 . S
C1480 H1474 0.950 . S
C1480 C1481 1.327 . S
C1481 H1475 0.950 . S
C1481 C1480 1.327 . S
C1481 C1485 1.429 . S
C1482 C1465 1.574 . S
C1482 H1476 0.949 . S
C1482 C1486 1.368 1_545 S
C1483 C1464 1.429 1_545 S
C1483 C1477 1.429 . S
C1483 C1484 1.523 . S
C1484 C1465 1.368 . S
C1484 C1478 1.368 1_545 S
C1484 C1483 1.523 . S
C1485 C1469 1.429 1_565 S
C1485 C1481 1.429 . S
C1485 C1486 1.523 . S
C1486 C1470 1.368 . S
C1486 C1482 1.368 1_565 S
C1486 C1485 1.523 . S
H1487 C1462 0.950 1_565 S
H1488 C1464 0.950 . S
H1489 C1465 0.949 . S
H1490 C1467 0.950 1_545 S
H1491 C1469 0.950 . S
C1492 C1493 1.349 . S
C1492 C1494 1.327 . S
C1492 H1517 0.950 . S
C1493 C1492 1.349 . S
C1493 C1509 1.349 . S
C1494 C1492 1.327 . S
C1494 C1513 1.429 . S
C1494 H1518 0.950 . S
C1495 C1512 1.574 . S
C1495 C1514 1.368 1_455 S
C1495 H1519 0.949 . S
H1496 C1500 0.949 . S
C1497 C1498 1.349 . S
C1497 C1499 1.327 . S
C1497 H1520 0.950 . S
C1498 C1497 1.349 . S
C1498 C1510 1.349 . S
C1499 C1497 1.327 . S
C1499 C1515 1.429 . S
C1499 H1521 0.950 . S
C1500 H1496 0.949 . S
C1500 C1508 1.574 . S
C1500 C1516 1.368 1_655 S
H1501 C1509 0.950 . S
H1502 C1507 0.950 1_455 S
H1503 C1508 0.949 . S
H1504 C1510 0.950 . S
H1505 C1511 0.950 1_655 S
H1506 C1512 0.949 . S
C1507 H1502 0.950 1_655 S
C1507 C1509 1.327 . S
C1507 C1513 1.429 . S
C1508 C1500 1.574 . S
C1508 H1503 0.949 . S
C1508 C1514 1.368 . S
C1509 C1493 1.349 . S
C1509 H1501 0.950 . S
C1509 C1507 1.327 . S
C1510 C1498 1.349 . S
C1510 H1504 0.950 . S
C1510 C1511 1.327 . S
C1511 H1505 0.950 1_455 S
C1511 C1510 1.327 . S
C1511 C1515 1.429 . S
C1512 C1495 1.574 . S
C1512 H1506 0.949 . S
C1512 C1516 1.368 . S
C1513 C1494 1.429 . S
C1513 C1507 1.429 . S
C1513 C1514 1.523 . S
C1514 C1495 1.368 1_655 S
C1514 C1508 1.368 . S
C1514 C1513 1.523 . S
C1515 C1499 1.429 . S
C1515 C1511 1.429 . S
C1515 C1516 1.523 . S
C1516 C1500 1.368 1_455 S
C1516 C1512 1.368 . S
C1516 C1515 1.523 . S
H1517 C1492 0.950 . S
H1518 C1494 0.950 . S
H1519 C1495 0.949 . S
H1520 C1497 0.950 . S
H1521 C1499 0.950 . S
C1522 C1523 1.349 . S
C1522 C1524 1.327 . S
C1522 H1547 0.950 . S
C1523 C1522 1.349 . S
C1523 C1539 1.349 . S
C1524 C1522 1.327 . S
C1524 C1543 1.429 . S
C1524 H1548 0.950 . S
C1525 C1542 1.574 . S
C1525 C1544 1.368 1_565 S
C1525 H1549 0.949 . S
H1526 C1530 0.949 . S
C1527 C1528 1.349 . S
C1527 C1529 1.327 . S
C1527 H1550 0.950 . S
C1528 C1527 1.349 . S
C1528 C1540 1.349 . S
C1529 C1527 1.327 . S
C1529 C1545 1.429 . S
C1529 H1551 0.950 . S
C1530 H1526 0.949 . S
C1530 C1538 1.574 . S
C1530 C1546 1.368 1_545 S
H1531 C1539 0.950 . S
H1532 C1537 0.950 . S
H1533 C1538 0.949 . S
H1534 C1540 0.950 . S
H1535 C1541 0.950 . S
H1536 C1542 0.949 . S
C1537 H1532 0.950 . S
C1537 C1539 1.327 . S
C1537 C1543 1.429 . S
C1538 C1530 1.574 . S
C1538 H1533 0.949 . S
C1538 C1544 1.368 . S
C1539 C1523 1.349 . S
C1539 H1531 0.950 . S
C1539 C1537 1.327 . S
C1540 C1528 1.349 . S
C1540 H1534 0.950 . S
C1540 C1541 1.327 . S
C1541 H1535 0.950 . S
C1541 C1540 1.327 . S
C1541 C1545 1.429 . S
C1542 C1525 1.574 . S
C1542 H1536 0.949 . S
C1542 C1546 1.368 . S
C1543 C1524 1.429 . S
C1543 C1537 1.429 . S
C1543 C1544 1.523 . S
C1544 C1525 1.368 1_545 S
C1544 C1538 1.368 . S
C1544 C1543 1.523 . S
C1545 C1529 1.429 . S
C1545 C1541 1.429 . S
C1545 C1546 1.523 . S
C1546 C1530 1.368 1_565 S
C1546 C1542 1.368 . S
C1546 C1545 1.523 . S
H1547 C1522 0.950 . S
H1548 C1524 0.950 . S
H1549 C1525 0.949 . S
H1550 C1527 0.950 . S
H1551 C1529 0.950 . S
C1552 C1553 1.349 . S
C1552 C1554 1.327 . S
C1552 H1577 0.950 . S
C1553 C1552 1.349 . S
C1553 C1569 1.349 . S
C1554 C1552 1.327 . S
C1554 C1573 1.429 . S
C1554 H1578 0.950 . S
C1555 C1572 1.574 . S
C1555 C1574 1.368 . S
C1555 H1579 0.949 . S
H1556 C1560 0.949 . S
C1557 C1558 1.349 . S
C1557 C1559 1.327 . S
C1557 H1580 0.950 . S
C1558 C1557 1.349 . S
C1558 C1570 1.349 . S
C1559 C1557 1.327 . S
C1559 C1575 1.429 . S
C1559 H1581 0.950 . S
C1560 H1556 0.949 . S
C1560 C1568 1.574 . S
C1560 C1576 1.368 . S
H1561 C1569 0.950 . S
H1562 C1567 0.950 . S
H1563 C1568 0.949 . S
H1564 C1570 0.950 . S
H1565 C1571 0.950 . S
H1566 C1572 0.949 . S
C1567 H1562 0.950 . S
C1567 C1569 1.327 . S
C1567 C1573 1.429 . S
C1568 C1560 1.574 . S
C1568 H1563 0.949 . S
C1568 C1574 1.368 1_655 S
C1569 C1553 1.349 . S
C1569 H1561 0.950 . S
C1569 C1567 1.327 . S
C1570 C1558 1.349 . S
C1570 H1564 0.950 . S
C1570 C1571 1.327 . S
C1571 H1565 0.950 . S
C1571 C1570 1.327 . S
C1571 C1575 1.429 . S
C1572 C1555 1.574 . S
C1572 H1566 0.949 . S
C1572 C1576 1.368 1_455 S
C1573 C1554 1.429 . S
C1573 C1567 1.429 . S
C1573 C1574 1.523 . S
C1574 C1555 1.368 . S
C1574 C1568 1.368 1_455 S
C1574 C1573 1.523 . S
C1575 C1559 1.429 . S
C1575 C1571 1.429 . S
C1575 C1576 1.523 . S
C1576 C1560 1.368 . S
C1576 C1572 1.368 1_655 S
C1576 C1575 1.523 . S
H1577 C1552 0.950 . S
H1578 C1554 0.950 . S
H1579 C1555 0.949 . S
H1580 C1557 0.950 . S
H1581 C1559 0.950 . S
C1582 C1583 1.349 . S
C1582 C1584 1.327 . S
C1582 H1607 0.950 . S
C1583 C1582 1.349 . S
C1583 C1599 1.349 . S
C1584 C1582 1.327 . S
C1584 C1603 1.429 . S
C1584 H1608 0.950 . S
C1585 C1602 1.574 . S
C1585 C1604 1.368 . S
C1585 H1609 0.949 . S
H1586 C1590 0.949 . S
C1587 C1588 1.349 . S
C1587 C1589 1.327 . S
C1587 H1610 0.950 . S
C1588 C1587 1.349 . S
C1588 C1600 1.349 . S
C1589 C1587 1.327 . S
C1589 C1605 1.429 . S
C1589 H1611 0.950 . S
C1590 H1586 0.949 . S
C1590 C1598 1.574 . S
C1590 C1606 1.368 . S
H1591 C1599 0.950 . S
H1592 C1597 0.950 . S
H1593 C1598 0.949 . S
H1594 C1600 0.950 . S
H1595 C1601 0.950 . S
H1596 C1602 0.949 . S
C1597 H1592 0.950 . S
C1597 C1599 1.327 . S
C1597 C1603 1.429 . S
C1598 C1590 1.574 . S
C1598 H1593 0.949 . S
C1598 C1604 1.368 1_565 S
C1599 C1583 1.349 . S
C1599 H1591 0.950 . S
C1599 C1597 1.327 . S
C1600 C1588 1.349 . S
C1600 H1594 0.950 . S
C1600 C1601 1.327 . S
C1601 H1595 0.950 . S
C1601 C1600 1.327 . S
C1601 C1605 1.429 . S
C1602 C1585 1.574 . S
C1602 H1596 0.949 . S
C1602 C1606 1.368 1_545 S
C1603 C1584 1.429 . S
C1603 C1597 1.429 . S
C1603 C1604 1.523 . S
C1604 C1585 1.368 . S
C1604 C1598 1.368 1_545 S
C1604 C1603 1.523 . S
C1605 C1589 1.429 . S
C1605 C1601 1.429 . S
C1605 C1606 1.523 . S
C1606 C1590 1.368 . S
C1606 C1602 1.368 1_565 S
C1606 C1605 1.523 . S
H1607 C1582 0.950 . S
H1608 C1584 0.950 . S
H1609 C1585 0.949 . S
H1610 C1587 0.950 . S
H1611 C1589 0.950 . S
C1612 C1613 1.349 . S
C1612 C1614 1.327 . S
C1612 H1637 0.950 . S
C1613 C1612 1.349 . S
C1613 C1629 1.349 . S
C1614 C1612 1.327 . S
C1614 C1633 1.429 . S
C1614 H1638 0.950 . S
C1615 C1632 1.574 . S
C1615 C1634 1.368 1_655 S
C1615 H1639 0.949 . S
H1616 C1620 0.949 . S
C1617 C1618 1.349 . S
C1617 C1619 1.327 . S
C1617 H1640 0.950 . S
C1618 C1617 1.349 . S
C1618 C1630 1.349 . S
C1619 C1617 1.327 . S
C1619 C1635 1.429 . S
C1619 H1641 0.950 . S
C1620 H1616 0.949 . S
C1620 C1628 1.574 . S
C1620 C1636 1.368 1_455 S
H1621 C1629 0.950 . S
H1622 C1627 0.950 . S
H1623 C1628 0.949 . S
H1624 C1630 0.950 . S
H1625 C1631 0.950 . S
H1626 C1632 0.949 . S
C1627 H1622 0.950 . S
C1627 C1629 1.327 . S
C1627 C1633 1.429 . S
C1628 C1620 1.574 . S
C1628 H1623 0.949 . S
C1628 C1634 1.368 . S
C1629 C1613 1.349 . S
C1629 H1621 0.950 . S
C1629 C1627 1.327 . S
C1630 C1618 1.349 . S
C1630 H1624 0.950 . S
C1630 C1631 1.327 . S
C1631 H1625 0.950 . S
C1631 C1630 1.327 . S
C1631 C1635 1.429 . S
C1632 C1615 1.574 . S
C1632 H1626 0.949 . S
C1632 C1636 1.368 . S
C1633 C1614 1.429 . S
C1633 C1627 1.429 . S
C1633 C1634 1.523 . S
C1634 C1615 1.368 1_455 S
C1634 C1628 1.368 . S
C1634 C1633 1.523 . S
C1635 C1619 1.429 . S
C1635 C1631 1.429 . S
C1635 C1636 1.523 . S
C1636 C1620 1.368 1_655 S
C1636 C1632 1.368 . S
C1636 C1635 1.523 . S
H1637 C1612 0.950 . S
H1638 C1614 0.950 . S
H1639 C1615 0.949 . S
H1640 C1617 0.950 . S
H1641 C1619 0.950 . S
C1642 C1643 1.349 . S
C1642 C1644 1.327 . S
C1642 H1667 0.950 . S
C1643 C1642 1.349 . S
C1643 C1659 1.349 . S
C1644 C1642 1.327 . S
C1644 C1663 1.429 . S
C1644 H1668 0.950 . S
C1645 C1662 1.574 . S
C1645 C1664 1.368 1_545 S
C1645 H1669 0.949 . S
H1646 C1650 0.949 . S
C1647 C1648 1.349 . S
C1647 C1649 1.327 . S
C1647 H1670 0.950 . S
C1648 C1647 1.349 . S
C1648 C1660 1.349 . S
C1649 C1647 1.327 . S
C1649 C1665 1.429 . S
C1649 H1671 0.950 . S
C1650 H1646 0.949 . S
C1650 C1658 1.574 . S
C1650 C1666 1.368 1_565 S
H1651 C1659 0.950 . S
H1652 C1657 0.950 . S
H1653 C1658 0.949 . S
H1654 C1660 0.950 . S
H1655 C1661 0.950 . S
H1656 C1662 0.949 . S
C1657 H1652 0.950 . S
C1657 C1659 1.327 . S
C1657 C1663 1.429 . S
C1658 C1650 1.574 . S
C1658 H1653 0.949 . S
C1658 C1664 1.368 . S
C1659 C1643 1.349 . S
C1659 H1651 0.950 . S
C1659 C1657 1.327 . S
C1660 C1648 1.349 . S
C1660 H1654 0.950 . S
C1660 C1661 1.327 . S
C1661 H1655 0.950 . S
C1661 C1660 1.327 . S
C1661 C1665 1.429 . S
C1662 C1645 1.574 . S
C1662 H1656 0.949 . S
C1662 C1666 1.368 . S
C1663 C1644 1.429 . S
C1663 C1657 1.429 . S
C1663 C1664 1.523 . S
C1664 C1645 1.368 1_565 S
C1664 C1658 1.368 . S
C1664 C1663 1.523 . S
C1665 C1649 1.429 . S
C1665 C1661 1.429 . S
C1665 C1666 1.523 . S
C1666 C1650 1.368 1_545 S
C1666 C1662 1.368 . S
C1666 C1665 1.523 . S
H1667 C1642 0.950 . S
H1668 C1644 0.950 . S
H1669 C1645 0.949 . S
H1670 C1647 0.950 . S
H1671 C1649 0.950 . S
C1672 C1673 1.349 . S
C1672 C1674 1.327 . S
C1672 H1697 0.950 . S
C1673 C1672 1.349 . S
C1673 C1689 1.349 . S
C1674 C1672 1.327 . S
C1674 C1693 1.429 . S
C1674 H1698 0.950 . S
C1675 C1692 1.574 . S
C1675 C1694 1.368 1_655 S
C1675 H1699 0.949 . S
H1676 C1680 0.949 . S
C1677 C1678 1.349 . S
C1677 C1679 1.327 . S
C1677 H1700 0.950 . S
C1678 C1677 1.349 . S
C1678 C1690 1.349 . S
C1679 C1677 1.327 . S
C1679 C1695 1.429 . S
C1679 H1701 0.950 . S
C1680 H1676 0.949 . S
C1680 C1688 1.574 . S
C1680 C1696 1.368 1_455 S
H1681 C1689 0.950 . S
H1682 C1687 0.950 . S
H1683 C1688 0.949 . S
H1684 C1690 0.950 . S
H1685 C1691 0.950 . S
H1686 C1692 0.949 . S
C1687 H1682 0.950 . S
C1687 C1689 1.327 . S
C1687 C1693 1.429 . S
C1688 C1680 1.574 . S
C1688 H1683 0.949 . S
C1688 C1694 1.368 . S
C1689 C1673 1.349 . S
C1689 H1681 0.950 . S
C1689 C1687 1.327 . S
C1690 C1678 1.349 . S
C1690 H1684 0.950 . S
C1690 C1691 1.327 . S
C1691 H1685 0.950 . S
C1691 C1690 1.327 . S
C1691 C1695 1.429 . S
C1692 C1675 1.574 . S
C1692 H1686 0.949 . S
C1692 C1696 1.368 . S
C1693 C1674 1.429 . S
C1693 C1687 1.429 . S
C1693 C1694 1.523 . S
C1694 C1675 1.368 1_455 S
C1694 C1688 1.368 . S
C1694 C1693 1.523 . S
C1695 C1679 1.429 . S
C1695 C1691 1.429 . S
C1695 C1696 1.523 . S
C1696 C1680 1.368 1_655 S
C1696 C1692 1.368 . S
C1696 C1695 1.523 . S
H1697 C1672 0.950 . S
H1698 C1674 0.950 . S
H1699 C1675 0.949 . S
H1700 C1677 0.950 . S
H1701 C1679 0.950 . S
C1702 C1703 1.349 . S
C1702 C1704 1.327 . S
C1702 H1727 0.950 . S
C1703 C1702 1.349 . S
C1703 C1719 1.349 . S
C1704 C1702 1.327 . S
C1704 C1723 1.429 . S
C1704 H1728 0.950 . S
C1705 C1722 1.574 . S
C1705 C1724 1.368 1_565 S
C1705 H1729 0.949 . S
H1706 C1710 0.949 . S
C1707 C1708 1.349 . S
C1707 C1709 1.327 . S
C1707 H1730 0.950 . S
C1708 C1707 1.349 . S
C1708 C1720 1.349 . S
C1709 C1707 1.327 . S
C1709 C1725 1.429 . S
C1709 H1731 0.950 . S
C1710 H1706 0.949 . S
C1710 C1718 1.574 . S
C1710 C1726 1.368 1_545 S
H1711 C1719 0.950 . S
H1712 C1717 0.950 . S
H1713 C1718 0.949 . S
H1714 C1720 0.950 . S
H1715 C1721 0.950 . S
H1716 C1722 0.949 . S
C1717 H1712 0.950 . S
C1717 C1719 1.327 . S
C1717 C1723 1.429 . S
C1718 C1710 1.574 . S
C1718 H1713 0.949 . S
C1718 C1724 1.368 . S
C1719 C1703 1.349 . S
C1719 H1711 0.950 . S
C1719 C1717 1.327 . S
C1720 C1708 1.349 . S
C1720 H1714 0.950 . S
C1720 C1721 1.327 . S
C1721 H1715 0.950 . S
C1721 C1720 1.327 . S
C1721 C1725 1.429 . S
C1722 C1705 1.574 . S
C1722 H1716 0.949 . S
C1722 C1726 1.368 . S
C1723 C1704 1.429 . S
C1723 C1717 1.429 . S
C1723 C1724 1.523 . S
C1724 C1705 1.368 1_545 S
C1724 C1718 1.368 . S
C1724 C1723 1.523 . S
C1725 C1709 1.429 . S
C1725 C1721 1.429 . S
C1725 C1726 1.523 . S
C1726 C1710 1.368 1_565 S
C1726 C1722 1.368 . S
C1726 C1725 1.523 . S
H1727 C1702 0.950 . S
H1728 C1704 0.950 . S
H1729 C1705 0.949 . S
H1730 C1707 0.950 . S
H1731 C1709 0.950 . S
C1732 C1733 1.349 . S
C1732 C1734 1.327 . S
C1732 H1757 0.950 . S
C1733 C1732 1.349 . S
C1733 C1749 1.349 . S
C1734 C1732 1.327 . S
C1734 C1753 1.429 . S
C1734 H1758 0.950 . S
C1735 C1752 1.574 . S
C1735 C1754 1.368 1_455 S
C1735 H1759 0.949 . S
H1736 C1740 0.949 . S
C1737 C1738 1.349 . S
C1737 C1739 1.327 . S
C1737 H1760 0.950 . S
C1738 C1737 1.349 . S
C1738 C1750 1.349 . S
C1739 C1737 1.327 . S
C1739 C1755 1.429 . S
C1739 H1761 0.950 . S
C1740 H1736 0.949 . S
C1740 C1748 1.574 . S
C1740 C1756 1.368 1_655 S
H1741 C1749 0.950 . S
H1742 C1747 0.950 . S
H1743 C1748 0.949 . S
H1744 C1750 0.950 . S
H1745 C1751 0.950 . S
H1746 C1752 0.949 . S
C1747 H1742 0.950 . S
C1747 C1749 1.327 . S
C1747 C1753 1.429 . S
C1748 C1740 1.574 . S
C1748 H1743 0.949 . S
C1748 C1754 1.368 . S
C1749 C1733 1.349 . S
C1749 H1741 0.950 . S
C1749 C1747 1.327 . S
C1750 C1738 1.349 . S
C1750 H1744 0.950 . S
C1750 C1751 1.327 . S
C1751 H1745 0.950 . S
C1751 C1750 1.327 . S
C1751 C1755 1.429 . S
C1752 C1735 1.574 . S
C1752 H1746 0.949 . S
C1752 C1756 1.368 . S
C1753 C1734 1.429 . S
C1753 C1747 1.429 . S
C1753 C1754 1.523 . S
C1754 C1735 1.368 1_655 S
C1754 C1748 1.368 . S
C1754 C1753 1.523 . S
C1755 C1739 1.429 . S
C1755 C1751 1.429 . S
C1755 C1756 1.523 . S
C1756 C1740 1.368 1_455 S
C1756 C1752 1.368 . S
C1756 C1755 1.523 . S
H1757 C1732 0.950 . S
H1758 C1734 0.950 . S
H1759 C1735 0.949 . S
H1760 C1737 0.950 . S
H1761 C1739 0.950 . S
C1762 C1763 1.349 . S
C1762 C1764 1.327 . S
C1762 H1787 0.950 . S
C1763 C1762 1.349 . S
C1763 C1779 1.349 . S
C1764 C1762 1.327 . S
C1764 C1783 1.429 . S
C1764 H1788 0.950 . S
C1765 C1782 1.574 . S
C1765 C1784 1.368 1_545 S
C1765 H1789 0.949 . S
H1766 C1770 0.949 . S
C1767 C1768 1.349 . S
C1767 C1769 1.327 . S
C1767 H1790 0.950 . S
C1768 C1767 1.349 . S
C1768 C1780 1.349 . S
C1769 C1767 1.327 . S
C1769 C1785 1.429 . S
C1769 H1791 0.950 . S
C1770 H1766 0.949 . S
C1770 C1778 1.574 . S
C1770 C1786 1.368 1_565 S
H1771 C1779 0.950 . S
H1772 C1777 0.950 . S
H1773 C1778 0.949 . S
H1774 C1780 0.950 . S
H1775 C1781 0.950 . S
H1776 C1782 0.949 . S
C1777 H1772 0.950 . S
C1777 C1779 1.327 . S
C1777 C1783 1.429 . S
C1778 C1770 1.574 . S
C1778 H1773 0.949 . S
C1778 C1784 1.368 . S
C1779 C1763 1.349 . S
C1779 H1771 0.950 . S
C1779 C1777 1.327 . S
C1780 C1768 1.349 . S
C1780 H1774 0.950 . S
C1780 C1781 1.327 . S
C1781 H1775 0.950 . S
C1781 C1780 1.327 . S
C1781 C1785 1.429 . S
C1782 C1765 1.574 . S
C1782 H1776 0.949 . S
C1782 C1786 1.368 . S
C1783 C1764 1.429 . S
C1783 C1777 1.429 . S
C1783 C1784 1.523 . S
C1784 C1765 1.368 1_565 S
C1784 C1778 1.368 . S
C1784 C1783 1.523 . S
C1785 C1769 1.429 . S
C1785 C1781 1.429 . S
C1785 C1786 1.523 . S
C1786 C1770 1.368 1_545 S
C1786 C1782 1.368 . S
C1786 C1785 1.523 . S
H1787 C1762 0.950 . S
H1788 C1764 0.950 . S
H1789 C1765 0.949 . S
H1790 C1767 0.950 . S
H1791 C1769 0.950 . S
C353 C8 0.767 . S
C358 C76 0.768 . S
C383 C18 0.768 . S
C388 C40 0.767 . S
C413 C62 0.767 . S
C418 C32 0.768 . S
C443 C84 0.767 . S
C448 C54 0.768 . S
C473 C120 0.768 . S
C478 C96 0.767 . S
C503 C128 0.767 . S
C508 C150 0.768 . S
C533 C172 0.768 . S
C538 C140 0.767 . S
C563 C106 0.768 . S
C568 C162 0.767 . S
C593 C184 0.767 . S
C598 C260 0.768 . S
C623 C194 0.768 . S
C628 C216 0.767 . S
C653 C208 0.768 . S
C658 C238 0.767 . S
C683 C230 0.768 . S
C688 C250 0.767 . S
C713 C304 0.768 . S
C718 C272 0.767 . S
C743 C326 0.768 . S
C748 C294 0.767 . S
C773 C316 0.767 . S
C778 C338 0.768 . S
C803 C340 0.767 . S
C808 C282 0.768 . S
C833 C21 1.704 . S
C838 C117 1.704 . S
C863 C153 1.704 . S
C868 C29 1.704 . S
C893 C51 1.704 . S
C898 C175 1.704 . S
C923 C73 1.704 . S
C928 C109 1.704 . S
C953 C307 1.704 . S
C958 C197 1.704 . S
C983 C329 1.704 . S
C988 C205 1.704 . S
C1013 C227 1.704 . S
C1018 C345 1.704 . S
C1043 C285 1.704 . S
C1048 C263 1.704 . S
C1073 C10 1.437 . S
C1078 C228 1.437 . S
C1103 C30 1.437 . S
C1108 C252 1.437 . S
C1133 C186 1.437 . S
C1138 C52 1.437 . S
C1163 C74 1.437 . S
C1168 C206 1.437 . S
C1193 C98 1.437 . S
C1198 C318 1.437 . S
C1223 C118 1.437 . S
C1228 C348 1.437 . S
C1253 C142 1.437 . S
C1258 C274 1.437 . S
C1283 C296 1.437 . S
C1288 C164 1.437 . S
C1313 C7 0.343 . S
C1318 C139 0.343 . S
C1343 C161 0.343 . S
C1348 C37 0.343 . S
C1373 C95 0.343 . S
C1378 C59 0.343 . S
C1403 C125 0.343 . S
C1408 C81 0.343 . S
C1433 C315 0.343 . S
C1438 C183 0.343 . S
C1463 C351 0.343 . S
C1468 C213 0.343 . S
C1493 C271 0.343 . S
C1498 C235 0.343 . S
C1523 C249 0.343 . S
C1528 C293 0.343 . S
C1553 C15 1.722 . S
C1558 C65 1.722 . S
C1583 C43 1.722 . S
C1588 C87 1.722 . S
C1613 C103 1.722 . S
C1618 C147 1.722 . S
C1643 C169 1.722 . S
C1648 C131 1.722 . S
C1673 C241 1.722 . S
C1678 C191 1.722 . S
C1703 C257 1.722 . S
C1708 C219 1.722 . S
C1733 C279 1.722 . S
C1738 C323 1.722 . S
C1763 C301 1.722 . S
C1768 C337 1.722 . S
