# Generated by pormake.
# Topology yfh, (5)-cn, num edge types: 1
# Building blocks:
#     Node 0, Type 0, BuildingBlock: XOMCOT_clean_sbu_0, # of connection points: 5
#     Node 1, Type 0, BuildingBlock: XOMCOT_clean_sbu_0, # of connection points: 5
#     Node 2, Type 0, BuildingBlock: XOMCOT_clean_sbu_0, # of connection points: 5
#     Node 3, Type 0, BuildingBlock: XOMCOT_clean_sbu_0, # of connection points: 5
#     Node 4, Type 0, BuildingBlock: XOMCOT_clean_sbu_0, # of connection points: 5
#     Node 5, Type 0, BuildingBlock: XOMCOT_clean_sbu_0, # of connection points: 5
#     Node 6, Type 0, BuildingBlock: XOMCOT_clean_sbu_0, # of connection points: 5
#     Node 7, Type 0, BuildingBlock: XOMCOT_clean_sbu_0, # of connection points: 5
#     Edge 8, Type (0, 0), BuildingBlock: TEMPAE_clean_linker_10, # of connection points: 2
#     Edge 9, Type (0, 0), BuildingBlock: TEMPAE_clean_linker_10, # of connection points: 2
#     Edge 10, Type (0, 0), BuildingBlock: TEMPAE_clean_linker_10, # of connection points: 2
#     Edge 11, Type (0, 0), BuildingBlock: TEMPAE_clean_linker_10, # of connection points: 2
#     Edge 12, Type (0, 0), BuildingBlock: TEMPAE_clean_linker_10, # of connection points: 2
#     Edge 13, Type (0, 0), BuildingBlock: TEMPAE_clean_linker_10, # of connection points: 2
#     Edge 14, Type (0, 0), BuildingBlock: TEMPAE_clean_linker_10, # of connection points: 2
#     Edge 15, Type (0, 0), BuildingBlock: TEMPAE_clean_linker_10, # of connection points: 2
#     Edge 16, Type (0, 0), BuildingBlock: TEMPAE_clean_linker_10, # of connection points: 2
#     Edge 17, Type (0, 0), BuildingBlock: TEMPAE_clean_linker_10, # of connection points: 2
#     Edge 18, Type (0, 0), BuildingBlock: TEMPAE_clean_linker_10, # of connection points: 2
#     Edge 19, Type (0, 0), BuildingBlock: TEMPAE_clean_linker_10, # of connection points: 2
#     Edge 20, Type (0, 0), BuildingBlock: TEMPAE_clean_linker_10, # of connection points: 2
#     Edge 21, Type (0, 0), BuildingBlock: TEMPAE_clean_linker_10, # of connection points: 2
#     Edge 22, Type (0, 0), BuildingBlock: TEMPAE_clean_linker_10, # of connection points: 2
#     Edge 23, Type (0, 0), BuildingBlock: TEMPAE_clean_linker_10, # of connection points: 2
#     Edge 24, Type (0, 0), BuildingBlock: TEMPAE_clean_linker_10, # of connection points: 2
#     Edge 25, Type (0, 0), BuildingBlock: TEMPAE_clean_linker_10, # of connection points: 2
#     Edge 26, Type (0, 0), BuildingBlock: TEMPAE_clean_linker_10, # of connection points: 2
#     Edge 27, Type (0, 0), BuildingBlock: TEMPAE_clean_linker_10, # of connection points: 2
# Relax obj value: 0.377
# Max RMSD: 0.266
# Mean RMSD: 0.266
data_MOF--net-yfh--node1-XOMCOT_clean_sbu_0--edge1-TEMPAE_clean_linker_10
_symmetry_space_group_name_H-M    P1
_symmetry_Int_Tables_number       1
_symmetry_cell_setting            triclinic
loop_
_symmetry_equiv_pos_as_xyz
'x, y, z'
_cell_length_a     28.268086
_cell_length_b     28.308825
_cell_length_c     59.96549
_cell_angle_alpha  89.722612
_cell_angle_beta   90.025509
_cell_angle_gamma 89.986695
loop_
_atom_site_label
_atom_site_type_symbol
_atom_site_fract_x
_atom_site_fract_y
_atom_site_fract_z
_atom_type_partial_charge
Co0 Co 0.34905 0.19067 0.12871 0.0
C1 C 0.32731 0.2146 0.08222 0.0
C2 C 0.26651 0.18721 0.09952 0.0
C3 C 0.25345 0.19827 0.07803 0.0
N4 N 0.31274 0.19728 0.10194 0.0
N5 N 0.29183 0.21523 0.06729 0.0
H6 H 0.36298 0.22659 0.0789 0.0
H7 H 0.24401 0.1729 0.11247 0.0
C8 C 0.33809 0.08691 0.13793 0.0
O9 O 0.38346 0.08547 0.14269 0.0
N10 N 0.38402 0.18453 0.15654 0.0
C11 C 0.42493 0.20526 0.16282 0.0
C12 C 0.43674 0.18972 0.18391 0.0
C13 C 0.37009 0.15944 0.17458 0.0
N14 N 0.40228 0.16066 0.19117 0.0
C15 C 0.44107 0.18781 0.10867 0.0
C16 C 0.42207 0.11503 0.07952 0.0
C17 C 0.46351 0.14147 0.07655 0.0
C18 C 0.47338 0.17742 0.09182 0.0
C19 C 0.39052 0.12678 0.09653 0.0
N20 N 0.40001 0.16287 0.11101 0.0
H21 H 0.44721 0.21916 0.11821 0.0
H22 H 0.35652 0.10951 0.09658 0.0
H23 H 0.44469 0.23083 0.15329 0.0
H24 H 0.33762 0.13934 0.17535 0.0
O25 O 0.36804 0.25558 0.12588 0.0
O26 O 0.30344 0.23203 0.14343 0.0
O27 O 0.31823 0.12647 0.13328 0.0
C28 C 0.32916 0.26704 0.13594 0.0
H29 H 0.21879 0.19335 0.07071 0.0
H30 H 0.46817 0.19913 0.19319 0.0
H31 H 0.41268 0.08714 0.06805 0.0
H32 H 0.50398 0.20003 0.08977 0.0
Co33 Co 0.34921 0.79916 0.36636 0.0
C34 C 0.3039 0.73804 0.33271 0.0
C35 C 0.3613 0.70342 0.34913 0.0
C36 C 0.33738 0.67047 0.33669 0.0
N37 N 0.34129 0.74639 0.3461 0.0
N38 N 0.30092 0.69238 0.32661 0.0
H39 H 0.2773 0.76385 0.3286 0.0
H40 H 0.3893 0.69561 0.36086 0.0
C41 C 0.44666 0.77291 0.35388 0.0
O42 O 0.42985 0.77528 0.33346 0.0
N43 N 0.35546 0.8492 0.38766 0.0
C44 C 0.33371 0.89149 0.38707 0.0
C45 C 0.34252 0.91439 0.40683 0.0
C46 C 0.3768 0.84655 0.40765 0.0
N47 N 0.36944 0.88597 0.4198 0.0
C48 C 0.3351 0.85198 0.32565 0.0
C49 C 0.41494 0.90775 0.32932 0.0
C50 C 0.38453 0.91457 0.31114 0.0
C51 C 0.34423 0.88618 0.30943 0.0
C52 C 0.40485 0.8725 0.34503 0.0
N53 N 0.36591 0.84412 0.34279 0.0
H54 H 0.30199 0.83372 0.32488 0.0
H55 H 0.4279 0.86868 0.35931 0.0
H56 H 0.31174 0.90408 0.37351 0.0
H57 H 0.39656 0.81597 0.41322 0.0
O58 O 0.2821 0.80961 0.36608 0.0
O59 O 0.31862 0.75926 0.38868 0.0
O60 O 0.41882 0.78115 0.37037 0.0
C61 C 0.2789 0.77724 0.38136 0.0
H62 H 0.3451 0.63308 0.33585 0.0
H63 H 0.32865 0.94853 0.41155 0.0
H64 H 0.44604 0.92963 0.33144 0.0
H65 H 0.31885 0.89169 0.29612 0.0
Co66 Co 0.65005 0.87658 0.6141 0.0
C67 C 0.66519 0.84551 0.56852 0.0
C68 C 0.72265 0.88934 0.57949 0.0
C69 C 0.73343 0.87181 0.55872 0.0
N70 N 0.67993 0.87262 0.58548 0.0
N71 N 0.6974 0.84393 0.55208 0.0
H72 H 0.63279 0.82515 0.56879 0.0
H73 H 0.74563 0.91009 0.59002 0.0
C74 C 0.66239 0.97977 0.62415 0.0
O75 O 0.6182 0.98133 0.6309 0.0
N76 N 0.62062 0.87923 0.64334 0.0
C77 C 0.58541 0.85157 0.65128 0.0
C78 C 0.57822 0.86151 0.67345 0.0
C79 C 0.63578 0.9038 0.6612 0.0
N80 N 0.6097 0.89466 0.67953 0.0
C81 C 0.55375 0.88138 0.59885 0.0
C82 C 0.56958 0.9538 0.56871 0.0
C83 C 0.52823 0.92703 0.56687 0.0
C84 C 0.51933 0.89194 0.58285 0.0
C85 C 0.60316 0.94178 0.5847 0.0
N86 N 0.59568 0.9053 0.59934 0.0
H87 H 0.54846 0.85065 0.60911 0.0
H88 H 0.63722 0.95871 0.5835 0.0
H89 H 0.56733 0.82431 0.6421 0.0
H90 H 0.66629 0.9268 0.66113 0.0
O91 O 0.63189 0.81123 0.61138 0.0
O92 O 0.69929 0.83572 0.62615 0.0
O93 O 0.68097 0.94051 0.61829 0.0
C94 C 0.67294 0.80047 0.61969 0.0
H95 H 0.76675 0.87603 0.55004 0.0
H96 H 0.55197 0.84557 0.68425 0.0
H97 H 0.57789 0.98106 0.55659 0.0
H98 H 0.48827 0.86969 0.58169 0.0
Co99 Co 0.68008 0.19271 0.87183 0.0
C100 C 0.6974 0.21132 0.82412 0.0
C101 C 0.67629 0.27378 0.8418 0.0
C102 C 0.6822 0.28534 0.8197 0.0
N103 N 0.68538 0.2274 0.84441 0.0
N104 N 0.69498 0.24591 0.80874 0.0
H105 H 0.70633 0.17494 0.82055 0.0
H106 H 0.66502 0.29718 0.85498 0.0
C107 C 0.57557 0.20367 0.87975 0.0
O108 O 0.57348 0.15878 0.88533 0.0
N109 N 0.67575 0.15949 0.90033 0.0
C110 C 0.70431 0.12469 0.90797 0.0
C111 C 0.69139 0.11296 0.92938 0.0
C112 C 0.64796 0.17036 0.91793 0.0
N113 N 0.65573 0.14155 0.93557 0.0
C114 C 0.67381 0.09713 0.85605 0.0
C115 C 0.60574 0.11484 0.82402 0.0
C116 C 0.6299 0.07162 0.82362 0.0
C117 C 0.6628 0.06222 0.84056 0.0
C118 C 0.61718 0.14841 0.84008 0.0
N119 N 0.6518 0.14003 0.85558 0.0
H120 H 0.70292 0.09063 0.86711 0.0
H121 H 0.60162 0.183 0.83841 0.0
H122 H 0.73403 0.10986 0.89913 0.0
H123 H 0.62278 0.19903 0.918 0.0
O124 O 0.74529 0.17429 0.86889 0.0
O125 O 0.72128 0.23962 0.88555 0.0
O126 O 0.61561 0.22326 0.87588 0.0
C127 C 0.75647 0.21358 0.87862 0.0
H128 H 0.67558 0.31945 0.81206 0.0
H129 H 0.70794 0.08639 0.93982 0.0
H130 H 0.58095 0.12441 0.81099 0.0
H131 H 0.68208 0.02918 0.84109 0.0
Co132 Co 0.82552 0.36899 0.61466 0.0
C133 C 0.76661 0.32146 0.64907 0.0
C134 C 0.726 0.36656 0.62778 0.0
C135 C 0.69526 0.34125 0.64099 0.0
N136 N 0.771 0.35524 0.6333 0.0
N137 N 0.72105 0.31258 0.65418 0.0
H138 H 0.79561 0.3018 0.65603 0.0
H139 H 0.71606 0.38977 0.6142 0.0
C140 C 0.78266 0.46137 0.62463 0.0
O141 O 0.78211 0.44527 0.64523 0.0
N142 N 0.87781 0.38082 0.59499 0.0
C143 C 0.92312 0.36739 0.59797 0.0
C144 C 0.94723 0.37426 0.57826 0.0
C145 C 0.87475 0.39544 0.57368 0.0
N146 N 0.91665 0.39172 0.56303 0.0
C147 C 0.87594 0.36091 0.65603 0.0
C148 C 0.91291 0.4512 0.65658 0.0
C149 C 0.92186 0.42079 0.67459 0.0
C150 C 0.90361 0.37494 0.67398 0.0
C151 C 0.88424 0.4358 0.639 0.0
N152 N 0.86396 0.39185 0.63947 0.0
H153 H 0.86626 0.32435 0.65508 0.0
H154 H 0.87893 0.45904 0.62488 0.0
H155 H 0.93703 0.3515 0.61304 0.0
H156 H 0.84179 0.40542 0.56576 0.0
O157 O 0.84382 0.30395 0.61636 0.0
O158 O 0.79323 0.33257 0.59162 0.0
O159 O 0.79959 0.43536 0.60902 0.0
C160 C 0.81401 0.29568 0.60046 0.0
H161 H 0.65702 0.34265 0.64039 0.0
H162 H 0.98396 0.36567 0.57517 0.0
H163 H 0.9279 0.4864 0.65609 0.0
H164 H 0.91211 0.34948 0.68693 0.0
Co165 Co 0.18826 0.36123 0.85901 0.0
C166 C 0.23073 0.31694 0.90018 0.0
C167 C 0.20231 0.26734 0.87692 0.0
C168 C 0.22405 0.24258 0.89372 0.0
N169 N 0.20615 0.31401 0.88097 0.0
N170 N 0.24188 0.27381 0.90837 0.0
H171 H 0.24013 0.34936 0.90827 0.0
H172 H 0.18576 0.25237 0.86231 0.0
C173 C 0.09921 0.31869 0.87538 0.0
O174 O 0.11861 0.32379 0.89514 0.0
N175 N 0.1712 0.40574 0.83612 0.0
C176 C 0.18349 0.4516 0.83461 0.0
C177 C 0.16264 0.47058 0.8158 0.0
C178 C 0.1437 0.39715 0.8183 0.0
N179 N 0.13778 0.43619 0.80559 0.0
C180 C 0.20212 0.42784 0.89401 0.0
C181 C 0.10998 0.45957 0.89708 0.0
C182 C 0.14436 0.47863 0.9113 0.0
C183 C 0.19097 0.46256 0.90942 0.0
C184 C 0.12283 0.42466 0.88175 0.0
N185 N 0.16801 0.40721 0.88123 0.0
H186 H 0.23878 0.41829 0.8922 0.0
H187 H 0.09657 0.41253 0.87002 0.0
H188 H 0.20571 0.46996 0.84642 0.0
H189 H 0.12761 0.36321 0.81499 0.0
O190 O 0.25275 0.38126 0.85708 0.0
O191 O 0.22317 0.32263 0.83743 0.0
O192 O 0.12217 0.33197 0.85793 0.0
C193 C 0.26045 0.3466 0.84362 0.0
H194 H 0.22696 0.20454 0.89481 0.0
H195 H 0.16581 0.50671 0.81002 0.0
H196 H 0.07384 0.47223 0.89746 0.0
H197 H 0.21889 0.47654 0.91986 0.0
Co198 Co 0.17529 0.68959 0.1129 0.0
C199 C 0.19539 0.70117 0.16057 0.0
C200 C 0.25802 0.68359 0.14204 0.0
C201 C 0.26952 0.6856 0.16432 0.0
N202 N 0.2115 0.69274 0.13989 0.0
N203 N 0.22991 0.69613 0.17576 0.0
H204 H 0.15878 0.70843 0.16459 0.0
H205 H 0.28134 0.67416 0.12848 0.0
C206 C 0.18749 0.58693 0.1016 0.0
O207 O 0.14231 0.58534 0.09649 0.0
N208 N 0.14018 0.6876 0.08502 0.0
C209 C 0.10202 0.7133 0.0789 0.0
C210 C 0.08984 0.70201 0.05735 0.0
C211 C 0.15238 0.66364 0.06651 0.0
N212 N 0.12135 0.67032 0.04966 0.0
C213 C 0.08179 0.68013 0.13134 0.0
C214 C 0.10368 0.60657 0.15999 0.0
C215 C 0.06073 0.63046 0.16278 0.0
C216 C 0.04909 0.66628 0.14752 0.0
C217 C 0.13503 0.62099 0.14337 0.0
N218 N 0.12457 0.65815 0.12949 0.0
H219 H 0.07405 0.71131 0.12181 0.0
H220 H 0.16992 0.60558 0.14351 0.0
H221 H 0.08489 0.73992 0.08886 0.0
H222 H 0.18406 0.64251 0.06517 0.0
O223 O 0.15596 0.75398 0.11762 0.0
O224 O 0.22046 0.73291 0.09926 0.0
O225 O 0.20682 0.62641 0.10669 0.0
C226 C 0.19461 0.76678 0.10757 0.0
H227 H 0.30346 0.6771 0.17169 0.0
H228 H 0.05996 0.71601 0.04818 0.0
H229 H 0.11504 0.57962 0.1717 0.0
H230 H 0.01613 0.68556 0.14885 0.0
Co231 Co 0.85368 0.61694 0.37095 0.0
C232 C 0.81708 0.6308 0.41716 0.0
C233 C 0.86667 0.68412 0.40717 0.0
C234 C 0.85084 0.69474 0.42812 0.0
N235 N 0.84722 0.64287 0.40062 0.0
N236 N 0.81989 0.66115 0.43429 0.0
H237 H 0.79121 0.6029 0.41629 0.0
H238 H 0.88922 0.70624 0.39698 0.0
C239 C 0.95186 0.63564 0.38662 0.0
O240 O 0.93887 0.61388 0.40505 0.0
N241 N 0.8594 0.59283 0.34121 0.0
C242 C 0.83436 0.55712 0.33228 0.0
C243 C 0.84849 0.55131 0.3105 0.0
C244 C 0.88853 0.60814 0.32497 0.0
N245 N 0.88259 0.58329 0.30604 0.0
C246 C 0.84116 0.53006 0.3948 0.0
C247 C 0.9329 0.49791 0.39026 0.0
C248 C 0.90341 0.47709 0.40632 0.0
C249 C 0.85598 0.49128 0.40728 0.0
C250 C 0.91597 0.5361 0.37769 0.0
N251 N 0.87261 0.55516 0.38228 0.0
H252 H 0.80484 0.54106 0.39607 0.0
H253 H 0.93912 0.55257 0.36561 0.0
H254 H 0.80778 0.53674 0.34102 0.0
H255 H 0.91301 0.63725 0.32683 0.0
O256 O 0.78642 0.60647 0.37001 0.0
O257 O 0.82109 0.6732 0.35987 0.0
O258 O 0.92246 0.63963 0.37033 0.0
C259 C 0.7819 0.64976 0.3632 0.0
H260 H 0.85858 0.72649 0.43744 0.0
H261 H 0.83526 0.5252 0.29893 0.0
H262 H 0.96932 0.48669 0.3884 0.0
H263 H 0.83144 0.4753 0.41895 0.0
C264 C 0.25654 0.25119 0.03408 0.0
C265 C 0.29478 0.22857 0.0443 0.0
C266 C 0.25692 0.26068 0.01121 0.0
C267 C 0.2964 0.24657 -0.00169 0.0
C268 C 0.33621 0.22577 0.00874 0.0
C269 C 0.33494 0.21704 0.03175 0.0
C270 C 0.2141 0.28378 0.00071 0.0
C271 C 0.37885 0.2101 -0.00443 0.0
C272 C 0.25529 0.22025 0.94022 0.0
C273 C 0.26406 0.26344 0.92944 0.0
C274 C 0.26982 0.21262 0.96221 0.0
C275 C 0.29302 0.24933 0.97377 0.0
C276 C 0.30577 0.29132 0.96246 0.0
C277 C 0.29141 0.29775 0.9403 0.0
C278 C 0.25667 0.16679 0.97364 0.0
C279 C 0.33126 0.33086 0.97423 0.0
H280 H 0.226 0.26077 0.04399 0.0
H281 H 0.36441 0.19924 0.03974 0.0
H282 H 0.225 0.31435 0.99027 0.0
H283 H 0.19599 0.25818 0.98966 0.0
H284 H 0.18832 0.29624 0.01337 0.0
H285 H 0.41045 0.20572 0.00641 0.0
H286 H 0.37112 0.17558 0.98767 0.0
H287 H 0.38741 0.23559 0.98206 0.0
H288 H 0.2345 0.19333 0.93205 0.0
H289 H 0.30002 0.33048 0.93183 0.0
H290 H 0.2275 0.17327 0.98563 0.0
H291 H 0.28715 0.15262 0.98322 0.0
H292 H 0.24483 0.13955 0.96159 0.0
H293 H 0.30635 0.34883 0.9857 0.0
H294 H 0.34539 0.35752 0.96231 0.0
H295 H 0.36088 0.31686 0.98445 0.0
C296 C 0.25509 0.71593 0.21338 0.0
C297 C 0.22392 0.69243 0.19931 0.0
C298 C 0.25323 0.70874 0.2364 0.0
C299 C 0.22025 0.67588 0.24536 0.0
C300 C 0.18723 0.65346 0.2312 0.0
C301 C 0.18928 0.6624 0.20822 0.0
C302 C 0.2882 0.73477 0.25096 0.0
C303 C 0.15182 0.61788 0.23976 0.0
C304 C 0.28377 0.63775 0.29599 0.0
C305 C 0.26868 0.67345 0.31042 0.0
C306 C 0.26157 0.63161 0.27535 0.0
C307 C 0.22464 0.66272 0.26915 0.0
C308 C 0.20339 0.69173 0.2854 0.0
C309 C 0.22564 0.69651 0.30611 0.0
C310 C 0.28263 0.5974 0.25891 0.0
C311 C 0.16194 0.72319 0.27984 0.0
H312 H 0.28143 0.73931 0.20621 0.0
H313 H 0.16546 0.64401 0.19707 0.0
H314 H 0.2697 0.75196 0.26507 0.0
H315 H 0.3142 0.70942 0.25803 0.0
H316 H 0.30796 0.76232 0.24156 0.0
H317 H 0.11874 0.61918 0.22974 0.0
H318 H 0.16694 0.5819 0.23802 0.0
H319 H 0.14295 0.62335 0.25757 0.0
H320 H 0.31599 0.61843 0.29954 0.0
H321 H 0.21195 0.72185 0.31795 0.0
H322 H 0.30737 0.61662 0.24771 0.0
H323 H 0.25459 0.58133 0.24844 0.0
H324 H 0.30265 0.56885 0.2675 0.0
H325 H 0.17511 0.75571 0.27149 0.0
H326 H 0.14246 0.73375 0.29512 0.0
H327 H 0.13709 0.70543 0.26827 0.0
C328 C 0.74103 0.67387 0.44968 0.0
C329 C 0.78914 0.66472 0.45301 0.0
C330 C 0.71388 0.69382 0.46678 0.0
C331 C 0.73595 0.70446 0.48734 0.0
C332 C 0.78265 0.68872 0.49162 0.0
C333 C 0.80895 0.66943 0.47419 0.0
C334 C 0.66368 0.70868 0.4619 0.0
C335 C 0.807 0.69799 0.51359 0.0
C336 C 0.72077 0.82312 0.51413 0.0
C337 C 0.69867 0.81077 0.53412 0.0
C338 C 0.72957 0.78911 0.49785 0.0
C339 C 0.71608 0.74155 0.50185 0.0
C340 C 0.69044 0.72958 0.52129 0.0
C341 C 0.68208 0.76448 0.53729 0.0
C342 C 0.75659 0.80351 0.47716 0.0
C343 C 0.67501 0.67953 0.52613 0.0
H344 H 0.72607 0.67001 0.43314 0.0
H345 H 0.84623 0.66182 0.47649 0.0
H346 H 0.64098 0.70445 0.47686 0.0
H347 H 0.66321 0.74655 0.45703 0.0
H348 H 0.64834 0.68797 0.44796 0.0
H349 H 0.84024 0.67734 0.51532 0.0
H350 H 0.81583 0.73611 0.51477 0.0
H351 H 0.78338 0.68906 0.52775 0.0
H352 H 0.73286 0.8591 0.51169 0.0
H353 H 0.66523 0.75474 0.55287 0.0
H354 H 0.73826 0.7907 0.46199 0.0
H355 H 0.79233 0.78726 0.47749 0.0
H356 H 0.7608 0.84244 0.47578 0.0
H357 H 0.66616 0.66028 0.51061 0.0
H358 H 0.64386 0.67879 0.53743 0.0
H359 H 0.70423 0.66035 0.53459 0.0
C360 C 0.73291 0.2442 0.67898 0.0
C361 C 0.70473 0.28211 0.67179 0.0
C362 C 0.72614 0.22391 0.70004 0.0
C363 C 0.69026 0.24208 0.71397 0.0
C364 C 0.65681 0.27444 0.70523 0.0
C365 C 0.66463 0.29443 0.68416 0.0
C366 C 0.76143 0.18798 0.70841 0.0
C367 C 0.61669 0.293 0.71928 0.0
C368 C 0.67472 0.20424 0.77425 0.0
C369 C 0.69848 0.24096 0.78512 0.0
C370 C 0.67279 0.20273 0.7509 0.0
C371 C 0.69576 0.23853 0.73843 0.0
C372 C 0.72208 0.27409 0.74949 0.0
C373 C 0.72258 0.2751 0.77275 0.0
C374 C 0.64404 0.16457 0.73982 0.0
C375 C 0.74822 0.31232 0.73682 0.0
H376 H 0.7626 0.23289 0.66892 0.0
H377 H 0.64207 0.32298 0.67848 0.0
H378 H 0.78952 0.20641 0.71794 0.0
H379 H 0.74451 0.16191 0.71972 0.0
H380 H 0.77844 0.16888 0.69438 0.0
H381 H 0.58862 0.30944 0.70885 0.0
H382 H 0.60081 0.26431 0.72946 0.0
H383 H 0.6305 0.3202 0.73086 0.0
H384 H 0.65571 0.17814 0.78404 0.0
H385 H 0.74114 0.30306 0.78141 0.0
H386 H 0.66086 0.15245 0.72415 0.0
H387 H 0.60864 0.17886 0.73549 0.0
H388 H 0.63893 0.13371 0.75109 0.0
H389 H 0.7721 0.29639 0.72425 0.0
H390 H 0.76966 0.33508 0.74798 0.0
H391 H 0.72254 0.33507 0.72779 0.0
C392 C 0.60962 0.18137 0.96501 0.0
C393 C 0.63018 0.14027 0.95637 0.0
C394 C 0.58344 0.18012 0.9849 0.0
C395 C 0.57747 0.13664 -0.00366 0.0
C396 C 0.5983 0.09508 0.98777 0.0
C397 C 0.6245 0.09743 0.96793 0.0
C398 C 0.56198 0.22526 -0.00639 0.0
C399 C 0.59217 0.04797 -0.00067 0.0
C400 C 0.54263 0.14126 0.05747 0.0
C401 C 0.49335 0.13575 0.0563 0.0
C402 C 0.57054 0.14109 0.03812 0.0
C403 C 0.54875 0.1346 0.0171 0.0
C404 C 0.49929 0.12738 0.01584 0.0
C405 C 0.47215 0.12847 0.03541 0.0
C406 C 0.62319 0.14906 0.04011 0.0
C407 C 0.4748 0.11983 -0.00625 0.0
H408 H 0.61433 0.21465 0.95632 0.0
H409 H 0.63961 0.06541 0.96116 0.0
H410 H 0.52291 0.22184 -0.00563 0.0
H411 H 0.57461 0.23194 0.01083 0.0
H412 H 0.57089 0.25633 0.98303 0.0
H413 H 0.61135 0.01909 0.99071 0.0
H414 H 0.60517 0.05004 0.01676 0.0
H415 H 0.55405 0.03873 0.0001 0.0
H416 H 0.55936 0.1464 0.07354 0.0
H417 H 0.43403 0.12521 0.0342 0.0
H418 H 0.63319 0.18175 0.03098 0.0
H419 H 0.64274 0.11942 0.03234 0.0
H420 H 0.63482 0.15241 0.05773 0.0
H421 H 0.47689 0.15261 0.98358 0.0
H422 H 0.43695 0.11022 -0.00417 0.0
H423 H 0.49268 0.09147 0.98422 0.0
C424 C 0.38966 0.94286 0.27173 0.0
C425 C 0.39294 0.9526 0.29456 0.0
C426 C 0.39388 0.97901 0.25579 0.0
C427 C 0.40088 0.02614 0.26289 0.0
C428 C 0.40512 0.03606 0.28593 0.0
C429 C 0.40141 0.99904 0.30152 0.0
C430 C 0.38989 0.96686 0.23135 0.0
C431 C 0.41199 0.08592 0.29413 0.0
C432 C 0.44509 0.11223 0.21886 0.0
C433 C 0.40255 0.13147 0.2109 0.0
C434 C 0.4453 0.07895 0.23629 0.0
C435 C 0.40196 0.06502 0.24613 0.0
C436 C 0.35913 0.08601 0.23886 0.0
C437 C 0.35993 0.11878 0.22124 0.0
C438 C 0.49163 0.05703 0.24342 0.0
C439 C 0.31224 0.0726 0.24916 0.0
H440 H 0.38346 0.90687 0.26636 0.0
H441 H 0.40344 0.00665 0.31919 0.0
H442 H 0.3582 0.98421 0.22408 0.0
H443 H 0.42117 0.98035 0.22215 0.0
H444 H 0.38706 0.92819 0.22857 0.0
H445 H 0.41684 0.08741 0.3125 0.0
H446 H 0.44324 0.10221 0.28598 0.0
H447 H 0.38076 0.10767 0.28956 0.0
H448 H 0.47803 0.12149 0.21073 0.0
H449 H 0.3271 0.13403 0.21529 0.0
H450 H 0.49179 0.019 0.23901 0.0
H451 H 0.49589 0.0593 0.26177 0.0
H452 H 0.5225 0.0743 0.23532 0.0
H453 H 0.30405 0.03519 0.24529 0.0
H454 H 0.28276 0.095 0.24291 0.0
H455 H 0.31403 0.07573 0.26757 0.0
C456 C 0.3907 0.94161 0.44982 0.0
C457 C 0.38558 0.89508 0.44219 0.0
C458 C 0.40865 0.95091 0.47117 0.0
C459 C 0.42231 0.9128 0.48508 0.0
C460 C 0.4157 0.86578 0.47782 0.0
C461 C 0.39717 0.85752 0.45653 0.0
C462 C 0.41491 1.00151 0.47844 0.0
C463 C 0.43011 0.82416 0.49215 0.0
C464 C 0.52336 0.9287 0.52551 0.0
C465 C 0.4999 0.92924 0.54612 0.0
C466 C 0.49827 0.92494 0.50552 0.0
C467 C 0.44836 0.92177 0.5061 0.0
C468 C 0.42421 0.92399 0.52676 0.0
C469 C 0.45038 0.92733 0.54662 0.0
C470 C 0.52542 0.92208 0.48386 0.0
C471 C 0.37095 0.92127 0.52791 0.0
H472 H 0.38212 0.9709 0.43889 0.0
H473 H 0.39222 0.82148 0.45107 0.0
H474 H 0.40047 0.00656 0.49547 0.0
H475 H 0.45316 0.01017 0.47907 0.0
H476 H 0.39727 0.0268 0.46691 0.0
H477 H 0.41958 0.78987 0.48471 0.0
H478 H 0.46908 0.8242 0.49441 0.0
H479 H 0.41397 0.82691 0.50895 0.0
H480 H 0.5617 0.929 0.52504 0.0
H481 H 0.43224 0.92772 0.56254 0.0
H482 H 0.51222 0.94897 0.47187 0.0
H483 H 0.5199 0.88691 0.47619 0.0
H484 H 0.56401 0.92752 0.48624 0.0
H485 H 0.35483 0.94713 0.5162 0.0
H486 H 0.35741 0.92818 0.54498 0.0
H487 H 0.35907 0.88562 0.52274 0.0
C488 C 0.58166 0.03391 0.7933 0.0
C489 C 0.62527 0.03958 0.80415 0.0
C490 C 0.57828 0.00826 0.77339 0.0
C491 C 0.61935 0.98718 0.76432 0.0
C492 C 0.66308 0.99118 0.77561 0.0
C493 C 0.6656 0.01767 0.79524 0.0
C494 C 0.5311 1.00505 0.76169 0.0
C495 C 0.7076 0.9689 0.76652 0.0
C496 C 0.60431 0.89195 0.72053 0.0
C497 C 0.61334 0.91728 0.70086 0.0
C498 C 0.6065 0.91414 0.74138 0.0
C499 C 0.61718 0.96292 0.74245 0.0
C500 C 0.62629 0.98865 0.7226 0.0
C501 C 0.62457 0.96539 0.70205 0.0
C502 C 0.5976 0.8854 0.76223 0.0
C503 C 0.63703 0.04089 0.72303 0.0
H504 H 0.55023 0.05022 0.80017 0.0
H505 H 0.69973 0.02262 0.80312 0.0
H506 H 0.53338 0.02265 0.74515 0.0
H507 H 0.52173 0.96756 0.75872 0.0
H508 H 0.50219 0.02186 0.77137 0.0
H509 H 0.73783 0.97186 0.77827 0.0
H510 H 0.70149 0.931 0.76289 0.0
H511 H 0.71752 0.98638 0.75059 0.0
H512 H 0.59607 0.85465 0.71958 0.0
H513 H 0.63082 0.98511 0.6868 0.0
H514 H 0.56706 0.90017 0.77149 0.0
H515 H 0.62881 0.88737 0.77343 0.0
H516 H 0.59028 0.84769 0.75853 0.0
H517 H 0.60645 0.06023 0.73013 0.0
H518 H 0.64454 0.05542 0.70615 0.0
H519 H 0.66796 0.0479 0.73391 0.0
C520 C 0.0863 0.48265 0.78044 0.0
C521 C 0.10958 0.44024 0.78567 0.0
C522 C 0.05636 0.48596 0.7618 0.0
C523 C 0.04985 0.44598 0.74806 0.0
C524 C 0.07448 0.40358 0.75286 0.0
C525 C 0.10393 0.40123 0.77163 0.0
C526 C 0.03047 0.53165 0.75725 0.0
C527 C 0.06878 0.36024 0.73851 0.0
C528 C 0.93736 0.4255 0.71537 0.0
C529 C 0.95224 0.43484 0.69351 0.0
C530 C 0.9681 0.43158 0.73345 0.0
C531 C 0.015 0.447 0.72951 0.0
C532 C 0.02945 0.45893 0.70758 0.0
C533 C 0.99772 0.45287 0.68978 0.0
C534 C 0.95113 0.41899 0.75661 0.0
C535 C 0.07921 0.47534 0.70274 0.0
H536 H 0.09025 0.51277 0.79134 0.0
H537 H 0.12253 0.36869 0.77538 0.0
H538 H 0.03588 0.54297 0.73971 0.0
H539 H 0.99192 0.52622 0.75962 0.0
H540 H 0.04223 0.56052 0.76845 0.0
H541 H 0.09254 0.33097 0.74378 0.0
H542 H 0.03169 0.34756 0.73938 0.0
H543 H 0.07631 0.36906 0.72082 0.0
H544 H 0.90197 0.41198 0.71824 0.0
H545 H 0.00931 0.45978 0.67284 0.0
H546 H 0.95939 0.44788 0.76842 0.0
H547 H 0.96983 0.38687 0.76259 0.0
H548 H 0.91245 0.41207 0.7571 0.0
H549 H 0.08963 0.50388 0.71436 0.0
H550 H 0.08319 0.48841 0.68534 0.0
H551 H 0.10416 0.44555 0.70534 0.0
C552 C 0.09301 0.50873 0.94216 0.0
C553 C 0.13253 0.51458 0.92832 0.0
C554 C 0.08619 0.53796 0.96074 0.0
C555 C 0.11989 0.5735 0.96557 0.0
C556 C 0.158 0.5816 0.95077 0.0
C557 C 0.16365 0.55225 0.93224 0.0
C558 C 0.04467 0.52879 0.97598 0.0
C559 C 0.19473 0.61909 0.95532 0.0
C560 C 0.09714 0.66606 0.01001 0.0
C561 C 0.12076 0.64641 0.02846 0.0
C562 C 0.09565 0.64238 0.98949 0.0
C563 C 0.11873 0.5983 0.98733 0.0
C564 C 0.14246 0.57822 0.00587 0.0
C565 C 0.14291 0.60233 0.0262 0.0
C566 C 0.06969 0.66462 0.97009 0.0
C567 C 0.16774 0.53131 0.00423 0.0
H568 H 0.06886 0.47967 0.93922 0.0
H569 H 0.19365 0.55761 0.92126 0.0
H570 H 0.05738 0.51222 0.99168 0.0
H571 H 0.02699 0.56241 0.98046 0.0
H572 H 0.01821 0.50489 0.96825 0.0
H573 H 0.21924 0.62415 0.94103 0.0
H574 H 0.17755 0.65336 0.95908 0.0
H575 H 0.21584 0.60879 0.97017 0.0
H576 H 0.0802 0.70018 0.0115 0.0
H577 H 0.16023 0.5862 0.04042 0.0
H578 H 0.0429 0.63969 0.96349 0.0
H579 H 0.09486 0.67228 0.95636 0.0
H580 H 0.05168 0.69801 0.97479 0.0
H581 H 0.14254 0.50338 -0.00092 0.0
H582 H 0.18434 0.52049 0.02026 0.0
H583 H 0.19572 0.53336 0.99128 0.0
C584 C 0.02716 0.57665 0.19229 0.0
C585 C 0.03136 0.62208 0.18301 0.0
C586 C 1.00305 0.56928 0.21246 0.0
C587 C 0.98187 0.60811 0.22339 0.0
C588 C 0.9851 0.65383 0.21393 0.0
C589 C 0.0102 0.66034 0.19401 0.0
C590 C 1.00083 0.5201 0.22226 0.0
C591 C 0.9627 0.69607 0.22504 0.0
C592 C 0.88387 0.58366 0.26504 0.0
C593 C 0.90752 0.58945 0.28537 0.0
C594 C 0.90763 0.58976 0.24471 0.0
C595 C 0.9564 0.60108 0.24479 0.0
C596 C 0.98058 0.60661 0.26531 0.0
C597 C 0.95569 0.60106 0.28538 0.0
C598 C 0.88044 0.58474 0.22317 0.0
C599 C 0.03281 0.61771 0.26608 0.0
H600 H 0.04301 0.54681 0.18386 0.0
H601 H 0.01426 0.69579 0.18741 0.0
H602 H 0.01712 0.51984 0.2391 0.0
H603 H 0.96345 0.50897 0.22424 0.0
H604 H 0.01938 0.49374 0.21174 0.0
H605 H 0.96649 0.72887 0.21495 0.0
H606 H 0.9245 0.68945 0.22793 0.0
H607 H 0.97929 0.70193 0.24156 0.0
H608 H 0.84649 0.57525 0.26508 0.0
H609 H 0.97404 0.60491 0.30113 0.0
H610 H 0.89647 0.55665 0.21279 0.0
H611 H 0.88244 0.61816 0.21346 0.0
H612 H 0.84261 0.57597 0.22602 0.0
H613 H 0.05296 0.5882 0.25853 0.0
H614 H 0.0458 0.6231 0.28337 0.0
H615 H 0.04062 0.64993 0.25614 0.0
C616 C 0.89706 0.40981 0.4332 0.0
C617 C 0.92282 0.44826 0.42482 0.0
C618 C 0.90463 0.3933 0.45499 0.0
C619 C 0.93862 0.41602 0.46857 0.0
C620 C 0.96884 0.45062 0.45917 0.0
C621 C 0.96063 0.4663 0.4373 0.0
C622 C 0.87237 0.35552 0.46422 0.0
C623 C 1.0059 0.47532 0.47298 0.0
C624 C 0.89924 0.43427 0.5282 0.0
C625 C 0.92493 0.39952 0.53963 0.0
C626 C 0.90422 0.44042 0.50515 0.0
C627 C 0.93565 0.41091 0.49318 0.0
C628 C 0.96263 0.37645 0.50467 0.0
C629 C 0.95698 0.37118 0.52782 0.0
C630 C 0.87513 0.47806 0.49357 0.0
C631 C 0.99634 0.34433 0.49245 0.0
H632 H 0.86824 0.3954 0.42342 0.0
H633 H 0.98063 0.49613 0.43092 0.0
H634 H 0.89225 0.33049 0.47499 0.0
H635 H 0.84466 0.37228 0.47464 0.0
H636 H 0.85464 0.33539 0.45074 0.0
H637 H 0.0324 0.49365 0.46235 0.0
H638 H 0.9885 0.50207 0.48368 0.0
H639 H 0.02453 0.45002 0.48411 0.0
H640 H 0.87501 0.45662 0.53735 0.0
H641 H 0.97651 0.34388 0.53656 0.0
H642 H 0.85121 0.4615 0.48119 0.0
H643 H 0.89865 0.50274 0.48437 0.0
H644 H 0.85333 0.4988 0.50542 0.0
H645 H 0.97601 0.32012 0.48156 0.0
H646 H 0.01819 0.32277 0.50406 0.0
H647 H 0.02019 0.36522 0.48151 0.0
C648 C 0.25234 0.83156 0.09792 0.0
C649 C 0.21143 0.81641 0.10907 0.0
C650 C 0.2712 0.87696 0.10163 0.0
C651 C 0.24922 0.90749 0.11721 0.0
C652 C 0.20733 0.89268 0.12809 0.0
C653 C 0.18875 0.84768 0.12372 0.0
C654 C 0.31533 0.89179 0.08931 0.0
C655 C 0.18319 0.92358 0.14512 0.0
C656 C 0.32642 1.00056 0.14509 0.0
C657 C 0.31257 0.04196 0.13396 0.0
C658 C 0.30561 0.95677 0.14003 0.0
C659 C 0.27103 0.95402 0.12295 0.0
C660 C 0.25682 0.99582 0.1117 0.0
C661 C 0.2773 0.03935 0.11753 0.0
C662 C 0.32087 0.91339 0.1529 0.0
C663 C 0.22079 0.9944 0.09312 0.0
H664 H 0.27012 0.80764 0.08662 0.0
H665 H 0.15732 0.83628 0.13258 0.0
H666 H 0.30985 0.92667 0.08118 0.0
H667 H 0.345 0.89572 0.10127 0.0
H668 H 0.3258 0.8658 0.0764 0.0
H669 H 0.15003 0.90754 0.15159 0.0
H670 H 0.20743 0.92979 0.15937 0.0
H671 H 0.17467 0.95855 0.13774 0.0
H672 H 0.35368 1.00241 0.15778 0.0
H673 H 0.267 0.07113 0.1086 0.0
H674 H 0.33729 0.88753 0.14142 0.0
H675 H 0.28961 0.896 0.16055 0.0
H676 H 0.34665 0.9218 0.1663 0.0
H677 H 0.23339 0.97074 0.07967 0.0
H678 H 0.21387 0.02992 0.08587 0.0
H679 H 0.18693 0.97965 0.09938 0.0
C680 C 0.72806 0.72066 0.36097 0.0
C681 C 0.73415 0.67151 0.36181 0.0
C682 C 0.68245 0.74086 0.36151 0.0
C683 C 0.64206 0.71119 0.3627 0.0
C684 C 0.64821 0.6616 0.36359 0.0
C685 C 0.694 0.64248 0.3632 0.0
C686 C 0.6774 0.7939 0.36067 0.0
C687 C 0.60631 0.62853 0.36457 0.0
C688 C 0.51839 0.75566 0.37801 0.0
C689 C 0.49736 0.75988 0.35689 0.0
C690 C 0.56612 0.74156 0.38025 0.0
C691 C 0.59322 0.73124 0.36094 0.0
C692 C 0.57237 0.7366 0.33964 0.0
C693 C 0.52505 0.75088 0.3379 0.0
C694 C 0.58723 0.73658 0.40326 0.0
C695 C 0.59959 0.72569 0.31859 0.0
H696 H 0.75891 0.74334 0.36027 0.0
H697 H 0.6983 0.60445 0.36398 0.0
H698 H 0.65869 0.80452 0.34518 0.0
H699 H 0.65568 0.80619 0.37492 0.0
H700 H 0.71217 0.81215 0.36116 0.0
H701 H 0.61713 0.59093 0.36614 0.0
H702 H 0.58335 0.63753 0.37893 0.0
H703 H 0.58467 0.6326 0.34924 0.0
H704 H 0.49748 0.76278 0.39276 0.0
H705 H 0.50955 0.75421 0.32144 0.0
H706 H 0.62126 0.75598 0.40424 0.0
H707 H 0.59497 0.69884 0.40676 0.0
H708 H 0.56317 0.74998 0.41644 0.0
H709 H 0.63303 0.74615 0.31813 0.0
H710 H 0.57901 0.73389 0.30327 0.0
H711 H 0.60918 0.68768 0.31836 0.0
C712 C 0.71666 0.02792 0.60036 0.0
C713 C 0.68753 0.02443 0.61924 0.0
C714 C 0.73767 0.07103 0.59426 0.0
C715 C 0.73052 0.11133 0.60772 0.0
C716 C 0.70171 0.10778 0.62702 0.0
C717 C 0.67994 0.06452 0.63234 0.0
C718 C 0.76724 0.07352 0.57332 0.0
C719 C 0.69471 0.1494 0.64232 0.0
C720 C 0.82142 0.20975 0.60809 0.0
C721 C 0.7972 0.2466 0.59724 0.0
C722 C 0.80074 0.16517 0.61096 0.0
C723 C 0.75501 0.15665 0.60232 0.0
C724 C 0.73186 0.19247 0.58979 0.0
C725 C 0.75311 0.23727 0.58752 0.0
C726 C 0.82657 0.12833 0.62463 0.0
C727 C 0.68348 0.18435 0.57989 0.0
H728 H 0.72186 0.99722 0.58992 0.0
H729 H 0.65741 0.06185 0.64693 0.0
H730 H 0.75335 0.1015 0.56206 0.0
H731 H 0.80418 0.08318 0.57756 0.0
H732 H 0.76765 0.0395 0.56416 0.0
H733 H 0.67002 0.14137 0.65624 0.0
H734 H 0.7293 0.15989 0.64949 0.0
H735 H 0.68088 0.18018 0.63284 0.0
H736 H 0.85559 0.21658 0.61563 0.0
H737 H 0.734 0.26559 0.57927 0.0
H738 H 0.82803 0.0943 0.61558 0.0
H739 H 0.80712 0.12193 0.64044 0.0
H740 H 0.86326 0.13928 0.62878 0.0
H741 H 0.68264 0.15045 0.57069 0.0
H742 H 0.67286 0.21334 0.56838 0.0
H743 H 0.65694 0.1819 0.59347 0.0
C744 C 0.48967 0.2217 0.8852 0.0
C745 C 0.53143 0.22803 0.87299 0.0
C746 C 0.4467 0.2416 0.87788 0.0
C747 C 0.44501 0.26631 0.85724 0.0
C748 C 0.48701 0.27184 0.84463 0.0
C749 C 0.5299 0.25374 0.85294 0.0
C750 C 0.40327 0.23669 0.89238 0.0
C751 C 0.48652 0.29617 0.82216 0.0
C752 C 0.31977 0.28299 0.83445 0.0
C753 C 0.30982 0.32919 0.84134 0.0
C754 C 0.3648 0.26284 0.8382 0.0
C755 C 0.39995 0.28903 0.8497 0.0
C756 C 0.39079 0.33653 0.85546 0.0
C757 C 0.34639 0.35621 0.85076 0.0
C758 C 0.37386 0.21273 0.83092 0.0
C759 C 0.42646 0.36555 0.86824 0.0
H760 H 0.49078 0.20164 0.90064 0.0
H761 H 0.56198 0.25814 0.84326 0.0
H762 H 0.38875 0.27214 0.89628 0.0
H763 H 0.37535 0.21702 0.88334 0.0
H764 H 0.41087 0.21794 0.9083 0.0
H765 H 0.52145 0.29451 0.81371 0.0
H766 H 0.4596 0.27956 0.81123 0.0
H767 H 0.47648 0.33378 0.82408 0.0
H768 H 0.29182 0.26174 0.82726 0.0
H769 H 0.33928 0.39207 0.85607 0.0
H770 H 0.37342 0.18898 0.84568 0.0
H771 H 0.40926 0.20968 0.82306 0.0
H772 H 0.34665 0.20024 0.81894 0.0
H773 H 0.43239 0.3493 0.8849 0.0
H774 H 0.41463 0.40261 0.87063 0.0
H775 H 0.46097 0.366 0.85949 0.0
C776 C 0.77987 0.53729 0.60225 0.0
C777 C 0.76527 0.51018 0.62064 0.0
C778 C 0.76648 0.5852 0.60021 0.0
C779 C 0.73772 0.60609 0.61688 0.0
C780 C 0.72182 0.57827 0.63504 0.0
C781 C 0.7358 0.53094 0.63668 0.0
C782 C 0.78405 0.61374 0.58057 0.0
C783 C 0.69048 0.59867 0.653 0.0
C784 C 0.73396 0.73832 0.62843 0.0
C785 C 0.69042 0.75105 0.61896 0.0
C786 C 0.75091 0.69163 0.627 0.0
C787 C 0.72381 0.65696 0.61574 0.0
C788 C 0.68058 0.67009 0.60554 0.0
C789 C 0.66436 0.71678 0.60736 0.0
C790 C 0.79726 0.6791 0.63805 0.0
C791 C 0.65072 0.6345 0.59322 0.0
H792 H 0.80283 0.52155 0.58986 0.0
H793 H 0.72386 0.51016 0.65083 0.0
H794 H 0.75409 0.63164 0.57207 0.0
H795 H 0.80837 0.64174 0.58652 0.0
H796 H 0.80311 0.59161 0.56824 0.0
H797 H 0.68048 0.57202 0.66581 0.0
H798 H 0.70893 0.62824 0.66141 0.0
H799 H 0.65767 0.61321 0.64548 0.0
H800 H 0.75462 0.76472 0.63711 0.0
H801 H 0.63111 0.72643 0.59957 0.0
H802 H 0.82072 0.66068 0.62608 0.0
H803 H 0.79073 0.65447 0.65216 0.0
H804 H 0.816 0.71071 0.6445 0.0
H805 H 0.67236 0.61577 0.58062 0.0
H806 H 0.62005 0.65116 0.58466 0.0
H807 H 0.63725 0.60754 0.60511 0.0
C808 C 0.84232 0.1987 0.87175 0.0
C809 C 0.8066 0.22944 0.87908 0.0
C810 C 0.88956 0.21356 0.86997 0.0
C811 C 0.90177 0.26046 0.87566 0.0
C812 C 0.86598 0.29171 0.88319 0.0
C813 C 0.81881 0.27582 0.88483 0.0
C814 C 0.92649 0.17889 0.86207 0.0
C815 C 0.87755 0.34194 0.88949 0.0
C816 C 0.02888 0.28196 0.8936 0.0
C817 C 0.04931 0.30202 0.8744 0.0
C818 C 0.9811 0.26874 0.89419 0.0
C819 C 0.95249 0.27557 0.8751 0.0
C820 C 0.97284 0.29532 0.85551 0.0
C821 C 0.02109 0.30824 0.85537 0.0
C822 C 0.96121 0.24745 0.91537 0.0
C823 C 0.94352 0.30311 0.83479 0.0
H824 H 0.83331 0.16281 0.86717 0.0
H825 H 0.79141 0.29996 0.89026 0.0
H826 H 0.94519 0.19334 0.84728 0.0
H827 H 0.95336 0.17328 0.87531 0.0
H828 H 0.91101 0.14413 0.85762 0.0
H829 H 0.84558 0.36228 0.89434 0.0
H830 H 0.90284 0.34211 0.90365 0.0
H831 H 0.89497 0.36024 0.87531 0.0
H832 H 0.05028 0.27671 0.90841 0.0
H833 H 0.03643 0.32399 0.84053 0.0
H834 H 0.94733 0.21153 0.912 0.0
H835 H 0.93118 0.2691 0.92143 0.0
H836 H 0.98806 0.24489 0.92885 0.0
H837 H 0.92872 0.26899 0.82901 0.0
H838 H 0.96436 0.31915 0.82099 0.0
H839 H 0.91317 0.32657 0.83861 0.0
C840 C 0.24519 0.53923 0.12403 0.0
C841 C 0.21263 0.54198 0.10638 0.0
C842 C 0.26444 0.49562 0.13082 0.0
C843 C 0.25204 0.45387 0.11925 0.0
C844 C 0.22026 0.45674 0.10098 0.0
C845 C 0.20038 0.5006 0.09502 0.0
C846 C 0.29728 0.4941 0.15067 0.0
C847 C 0.20723 0.41344 0.08772 0.0
C848 C 0.33609 0.34905 0.12096 0.0
C849 C 0.31182 0.31661 0.13461 0.0
C850 C 0.31737 0.39385 0.11614 0.0
C851 C 0.27368 0.40746 0.12562 0.0
C852 C 0.25003 0.37589 0.14034 0.0
C853 C 0.26908 0.33057 0.14444 0.0
C854 C 0.34339 0.42576 0.10003 0.0
C855 C 0.20396 0.38953 0.15124 0.0
H856 H 0.25416 0.57095 0.13316 0.0
H857 H 0.17512 0.50255 0.08143 0.0
H858 H 0.283 0.46961 0.16351 0.0
H859 H 0.33237 0.48031 0.14561 0.0
H860 H 0.30222 0.52944 0.1583 0.0
H861 H 0.1832 0.42184 0.07358 0.0
H862 H 0.23965 0.39655 0.08103 0.0
H863 H 0.18962 0.38717 0.0987 0.0
H864 H 0.36901 0.33869 0.11311 0.0
H865 H 0.25002 0.30578 0.15493 0.0
H866 H 0.35035 0.46054 0.10779 0.0
H867 H 0.32112 0.4322 0.08507 0.0
H868 H 0.37763 0.41045 0.09454 0.0
H869 H 0.20745 0.42442 0.15944 0.0
H870 H 0.19238 0.3631 0.16386 0.0
H871 H 0.17592 0.39289 0.13839 0.0
C872 C 0.19171 0.78546 0.38432 0.0
C873 C 0.232 0.7569 0.38641 0.0
C874 C 0.14611 0.76588 0.38451 0.0
C875 C 0.14062 0.71631 0.38635 0.0
C876 C 0.18121 0.68733 0.38897 0.0
C877 C 0.2265 0.70805 0.38916 0.0
C878 C 0.10386 0.7982 0.3822 0.0
C879 C 0.17688 0.63431 0.39073 0.0
C880 C 0.02201 0.669 0.40599 0.0
C881 C 0.99968 0.65708 0.38587 0.0
C882 C 0.06766 0.68827 0.40632 0.0
C883 C 0.09227 0.69512 0.38604 0.0
C884 C 0.0701 0.68299 0.36559 0.0
C885 C 0.02374 0.66457 0.36573 0.0
C886 C 0.0894 0.70169 0.42843 0.0
C887 C 0.0955 0.68922 0.34363 0.0
H888 H 0.19595 0.82323 0.38196 0.0
H889 H 0.25764 0.68578 0.39018 0.0
H890 H 0.0845 0.79008 0.36659 0.0
H891 H 0.07898 0.79233 0.39625 0.0
H892 H 0.1141 0.83608 0.38189 0.0
H893 H 0.21175 0.6168 0.39297 0.0
H894 H 0.15379 0.62461 0.40498 0.0
H895 H 0.16 0.6203 0.37542 0.0
H896 H 1.00346 0.66376 0.42163 0.0
H897 H 0.00675 0.65512 0.35016 0.0
H898 H 0.0983 0.73986 0.42841 0.0
H899 H 0.12285 0.68195 0.43106 0.0
H900 H 0.06542 0.69434 0.44271 0.0
H901 H 0.10395 0.72706 0.34088 0.0
H902 H 0.07418 0.67646 0.3293 0.0
H903 H 0.12958 0.66974 0.34395 0.0
loop_
_geom_bond_atom_site_label_1
_geom_bond_atom_site_label_2
_geom_bond_distance
_geom_bond_site_symmetry_2
_ccdc_geom_bond_type
Co0 N4 2.148 . S
Co0 N10 2.128 . S
Co0 N20 2.194 . S
Co0 O25 2.351 . S
Co0 O26 2.155 . S
Co0 O27 2.096 . S
C1 N4 1.301 . S
C1 N5 1.328 . S
C1 H6 0.930 . S
C2 C3 1.333 . S
C2 N4 1.317 . S
C2 H7 0.930 . S
C3 C2 1.333 . S
C3 N5 1.350 . S
C3 H29 0.931 . S
N4 Co0 2.148 . S
N4 C1 1.301 . S
N4 C2 1.317 . S
N5 C1 1.328 . S
N5 C3 1.350 . S
H6 C1 0.930 . S
H7 C2 0.930 . S
C8 O9 1.224 . S
C8 O27 1.247 . S
O9 C8 1.224 . S
N10 Co0 2.128 . S
N10 C11 1.355 . S
N10 C13 1.311 . S
C11 N10 1.355 . S
C11 C12 1.363 . S
C11 H23 0.929 . S
C12 C11 1.363 . S
C12 N14 1.375 . S
C12 H30 0.931 . S
C13 N10 1.311 . S
C13 N14 1.347 . S
C13 H24 0.929 . S
N14 C12 1.375 . S
N14 C13 1.347 . S
C15 C18 1.365 . S
C15 N20 1.328 . S
C15 H21 0.929 . S
C16 C17 1.362 . S
C16 C19 1.378 . S
C16 H31 0.929 . S
C17 C16 1.362 . S
C17 C18 1.366 . S
C18 C15 1.365 . S
C18 C17 1.366 . S
C18 H32 0.930 . S
C19 C16 1.378 . S
C19 N20 1.315 . S
C19 H22 0.930 . S
N20 Co0 2.194 . S
N20 C15 1.328 . S
N20 C19 1.315 . S
H21 C15 0.929 . S
H22 C19 0.930 . S
H23 C11 0.929 . S
H24 C13 0.929 . S
O25 Co0 2.351 . S
O25 C28 1.244 . S
O26 Co0 2.155 . S
O26 C28 1.240 . S
O27 Co0 2.096 . S
O27 C8 1.247 . S
C28 O25 1.244 . S
C28 O26 1.240 . S
H29 C3 0.931 . S
H30 C12 0.931 . S
H31 C16 0.929 . S
H32 C18 0.930 . S
Co33 N37 2.148 . S
Co33 N43 2.128 . S
Co33 N53 2.194 . S
Co33 O58 2.351 . S
Co33 O59 2.155 . S
Co33 O60 2.096 . S
C34 N37 1.301 . S
C34 N38 1.328 . S
C34 H39 0.930 . S
C35 C36 1.333 . S
C35 N37 1.317 . S
C35 H40 0.930 . S
C36 C35 1.333 . S
C36 N38 1.350 . S
C36 H62 0.931 . S
N37 Co33 2.148 . S
N37 C34 1.301 . S
N37 C35 1.317 . S
N38 C34 1.328 . S
N38 C36 1.350 . S
H39 C34 0.930 . S
H40 C35 0.930 . S
C41 O42 1.224 . S
C41 O60 1.247 . S
O42 C41 1.224 . S
N43 Co33 2.128 . S
N43 C44 1.355 . S
N43 C46 1.311 . S
C44 N43 1.355 . S
C44 C45 1.363 . S
C44 H56 0.929 . S
C45 C44 1.363 . S
C45 N47 1.375 . S
C45 H63 0.931 1_565 S
C46 N43 1.311 . S
C46 N47 1.347 . S
C46 H57 0.929 . S
N47 C45 1.375 . S
N47 C46 1.347 . S
C48 C51 1.365 1_565 S
C48 N53 1.328 . S
C48 H54 0.929 . S
C49 C50 1.362 1_565 S
C49 C52 1.378 . S
C49 H64 0.929 1_565 S
C50 C49 1.362 1_545 S
C50 C51 1.366 . S
C51 C48 1.365 1_545 S
C51 C50 1.366 . S
C51 H65 0.930 . S
C52 C49 1.378 . S
C52 N53 1.315 . S
C52 H55 0.930 . S
N53 Co33 2.194 . S
N53 C48 1.328 . S
N53 C52 1.315 . S
H54 C48 0.929 . S
H55 C52 0.930 . S
H56 C44 0.929 . S
H57 C46 0.929 . S
O58 Co33 2.351 . S
O58 C61 1.244 . S
O59 Co33 2.155 . S
O59 C61 1.240 . S
O60 Co33 2.096 . S
O60 C41 1.247 . S
C61 O58 1.244 . S
C61 O59 1.240 . S
H62 C36 0.931 . S
H63 C45 0.931 1_545 S
H64 C49 0.929 1_545 S
H65 C51 0.930 . S
Co66 N70 2.148 . S
Co66 N76 2.128 . S
Co66 N86 2.194 . S
Co66 O91 2.351 . S
Co66 O92 2.155 . S
Co66 O93 2.096 . S
C67 N70 1.301 . S
C67 N71 1.328 . S
C67 H72 0.930 . S
C68 C69 1.333 . S
C68 N70 1.317 . S
C68 H73 0.930 . S
C69 C68 1.333 . S
C69 N71 1.350 . S
C69 H95 0.931 . S
N70 Co66 2.148 . S
N70 C67 1.301 . S
N70 C68 1.317 . S
N71 C67 1.328 . S
N71 C69 1.350 . S
H72 C67 0.930 . S
H73 C68 0.930 . S
C74 O75 1.224 . S
C74 O93 1.247 . S
O75 C74 1.224 . S
N76 Co66 2.128 . S
N76 C77 1.355 . S
N76 C79 1.311 . S
C77 N76 1.355 . S
C77 C78 1.363 . S
C77 H89 0.929 . S
C78 C77 1.363 . S
C78 N80 1.375 . S
C78 H96 0.931 . S
C79 N76 1.311 . S
C79 N80 1.347 . S
C79 H90 0.929 . S
N80 C78 1.375 . S
N80 C79 1.347 . S
C81 C84 1.365 . S
C81 N86 1.328 . S
C81 H87 0.929 . S
C82 C83 1.362 . S
C82 C85 1.378 . S
C82 H97 0.929 . S
C83 C82 1.362 . S
C83 C84 1.366 . S
C84 C81 1.365 . S
C84 C83 1.366 . S
C84 H98 0.930 . S
C85 C82 1.378 . S
C85 N86 1.315 . S
C85 H88 0.930 . S
N86 Co66 2.194 . S
N86 C81 1.328 . S
N86 C85 1.315 . S
H87 C81 0.929 . S
H88 C85 0.930 . S
H89 C77 0.929 . S
H90 C79 0.929 . S
O91 Co66 2.351 . S
O91 C94 1.244 . S
O92 Co66 2.155 . S
O92 C94 1.240 . S
O93 Co66 2.096 . S
O93 C74 1.247 . S
C94 O91 1.244 . S
C94 O92 1.240 . S
H95 C69 0.931 . S
H96 C78 0.931 . S
H97 C82 0.929 . S
H98 C84 0.930 . S
Co99 N103 2.148 . S
Co99 N109 2.128 . S
Co99 N119 2.194 . S
Co99 O124 2.351 . S
Co99 O125 2.155 . S
Co99 O126 2.096 . S
C100 N103 1.301 . S
C100 N104 1.328 . S
C100 H105 0.930 . S
C101 C102 1.333 . S
C101 N103 1.317 . S
C101 H106 0.930 . S
C102 C101 1.333 . S
C102 N104 1.350 . S
C102 H128 0.931 . S
N103 Co99 2.148 . S
N103 C100 1.301 . S
N103 C101 1.317 . S
N104 C100 1.328 . S
N104 C102 1.350 . S
H105 C100 0.930 . S
H106 C101 0.930 . S
C107 O108 1.224 . S
C107 O126 1.247 . S
O108 C107 1.224 . S
N109 Co99 2.128 . S
N109 C110 1.355 . S
N109 C112 1.311 . S
C110 N109 1.355 . S
C110 C111 1.363 . S
C110 H122 0.929 . S
C111 C110 1.363 . S
C111 N113 1.375 . S
C111 H129 0.931 1_545 S
C112 N109 1.311 . S
C112 N113 1.347 . S
C112 H123 0.929 . S
N113 C111 1.375 . S
N113 C112 1.347 . S
C114 C117 1.365 1_545 S
C114 N119 1.328 . S
C114 H120 0.929 . S
C115 C116 1.362 1_545 S
C115 C118 1.378 . S
C115 H130 0.929 1_545 S
C116 C115 1.362 1_565 S
C116 C117 1.366 . S
C117 C114 1.365 1_565 S
C117 C116 1.366 . S
C117 H131 0.930 . S
C118 C115 1.378 . S
C118 N119 1.315 . S
C118 H121 0.930 . S
N119 Co99 2.194 . S
N119 C114 1.328 . S
N119 C118 1.315 . S
H120 C114 0.929 . S
H121 C118 0.930 . S
H122 C110 0.929 . S
H123 C112 0.929 . S
O124 Co99 2.351 . S
O124 C127 1.244 . S
O125 Co99 2.155 . S
O125 C127 1.240 . S
O126 Co99 2.096 . S
O126 C107 1.247 . S
C127 O124 1.244 . S
C127 O125 1.240 . S
H128 C102 0.931 . S
H129 C111 0.931 1_565 S
H130 C115 0.929 1_565 S
H131 C117 0.930 . S
Co132 N136 2.148 . S
Co132 N142 2.128 . S
Co132 N152 2.194 . S
Co132 O157 2.351 . S
Co132 O158 2.155 . S
Co132 O159 2.096 . S
C133 N136 1.301 . S
C133 N137 1.328 . S
C133 H138 0.930 . S
C134 C135 1.333 . S
C134 N136 1.317 . S
C134 H139 0.930 . S
C135 C134 1.333 . S
C135 N137 1.350 . S
C135 H161 0.931 . S
N136 Co132 2.148 . S
N136 C133 1.301 . S
N136 C134 1.317 . S
N137 C133 1.328 . S
N137 C135 1.350 . S
H138 C133 0.930 . S
H139 C134 0.930 . S
C140 O141 1.224 . S
C140 O159 1.247 . S
O141 C140 1.224 . S
N142 Co132 2.128 . S
N142 C143 1.355 . S
N142 C145 1.311 . S
C143 N142 1.355 . S
C143 C144 1.363 . S
C143 H155 0.929 . S
C144 C143 1.363 . S
C144 N146 1.375 . S
C144 H162 0.931 1_655 S
C145 N142 1.311 . S
C145 N146 1.347 . S
C145 H156 0.929 . S
N146 C144 1.375 . S
N146 C145 1.347 . S
C147 C150 1.365 1_655 S
C147 N152 1.328 . S
C147 H153 0.929 . S
C148 C149 1.362 1_655 S
C148 C151 1.378 . S
C148 H163 0.929 1_655 S
C149 C148 1.362 1_455 S
C149 C150 1.366 . S
C150 C147 1.365 1_455 S
C150 C149 1.366 . S
C150 H164 0.930 . S
C151 C148 1.378 . S
C151 N152 1.315 . S
C151 H154 0.930 . S
N152 Co132 2.194 . S
N152 C147 1.328 . S
N152 C151 1.315 . S
H153 C147 0.929 . S
H154 C151 0.930 . S
H155 C143 0.929 . S
H156 C145 0.929 . S
O157 Co132 2.351 . S
O157 C160 1.244 . S
O158 Co132 2.155 . S
O158 C160 1.240 . S
O159 Co132 2.096 . S
O159 C140 1.247 . S
C160 O157 1.244 . S
C160 O158 1.240 . S
H161 C135 0.931 . S
H162 C144 0.931 1_455 S
H163 C148 0.929 1_455 S
H164 C150 0.930 . S
Co165 N169 2.148 . S
Co165 N175 2.128 . S
Co165 N185 2.194 . S
Co165 O190 2.351 . S
Co165 O191 2.155 . S
Co165 O192 2.096 . S
C166 N169 1.301 . S
C166 N170 1.328 . S
C166 H171 0.930 . S
C167 C168 1.333 . S
C167 N169 1.317 . S
C167 H172 0.930 . S
C168 C167 1.333 . S
C168 N170 1.350 . S
C168 H194 0.931 . S
N169 Co165 2.148 . S
N169 C166 1.301 . S
N169 C167 1.317 . S
N170 C166 1.328 . S
N170 C168 1.350 . S
H171 C166 0.930 . S
H172 C167 0.930 . S
C173 O174 1.224 . S
C173 O192 1.247 . S
O174 C173 1.224 . S
N175 Co165 2.128 . S
N175 C176 1.355 . S
N175 C178 1.311 . S
C176 N175 1.355 . S
C176 C177 1.363 . S
C176 H188 0.929 . S
C177 C176 1.363 . S
C177 N179 1.375 . S
C177 H195 0.931 . S
C178 N175 1.311 . S
C178 N179 1.347 . S
C178 H189 0.929 . S
N179 C177 1.375 . S
N179 C178 1.347 . S
C180 C183 1.365 . S
C180 N185 1.328 . S
C180 H186 0.929 . S
C181 C182 1.362 . S
C181 C184 1.378 . S
C181 H196 0.929 . S
C182 C181 1.362 . S
C182 C183 1.366 . S
C183 C180 1.365 . S
C183 C182 1.366 . S
C183 H197 0.930 . S
C184 C181 1.378 . S
C184 N185 1.315 . S
C184 H187 0.930 . S
N185 Co165 2.194 . S
N185 C180 1.328 . S
N185 C184 1.315 . S
H186 C180 0.929 . S
H187 C184 0.930 . S
H188 C176 0.929 . S
H189 C178 0.929 . S
O190 Co165 2.351 . S
O190 C193 1.244 . S
O191 Co165 2.155 . S
O191 C193 1.240 . S
O192 Co165 2.096 . S
O192 C173 1.247 . S
C193 O190 1.244 . S
C193 O191 1.240 . S
H194 C168 0.931 . S
H195 C177 0.931 . S
H196 C181 0.929 . S
H197 C183 0.930 . S
Co198 N202 2.148 . S
Co198 N208 2.128 . S
Co198 N218 2.194 . S
Co198 O223 2.351 . S
Co198 O224 2.155 . S
Co198 O225 2.096 . S
C199 N202 1.301 . S
C199 N203 1.328 . S
C199 H204 0.930 . S
C200 C201 1.333 . S
C200 N202 1.317 . S
C200 H205 0.930 . S
C201 C200 1.333 . S
C201 N203 1.350 . S
C201 H227 0.931 . S
N202 Co198 2.148 . S
N202 C199 1.301 . S
N202 C200 1.317 . S
N203 C199 1.328 . S
N203 C201 1.350 . S
H204 C199 0.930 . S
H205 C200 0.930 . S
C206 O207 1.224 . S
C206 O225 1.247 . S
O207 C206 1.224 . S
N208 Co198 2.128 . S
N208 C209 1.355 . S
N208 C211 1.311 . S
C209 N208 1.355 . S
C209 C210 1.363 . S
C209 H221 0.929 . S
C210 C209 1.363 . S
C210 N212 1.375 . S
C210 H228 0.931 1_455 S
C211 N208 1.311 . S
C211 N212 1.347 . S
C211 H222 0.929 . S
N212 C210 1.375 . S
N212 C211 1.347 . S
C213 C216 1.365 1_455 S
C213 N218 1.328 . S
C213 H219 0.929 . S
C214 C215 1.362 1_455 S
C214 C217 1.378 . S
C214 H229 0.929 1_455 S
C215 C214 1.362 1_655 S
C215 C216 1.366 . S
C216 C213 1.365 1_655 S
C216 C215 1.366 . S
C216 H230 0.930 . S
C217 C214 1.378 . S
C217 N218 1.315 . S
C217 H220 0.930 . S
N218 Co198 2.194 . S
N218 C213 1.328 . S
N218 C217 1.315 . S
H219 C213 0.929 . S
H220 C217 0.930 . S
H221 C209 0.929 . S
H222 C211 0.929 . S
O223 Co198 2.351 . S
O223 C226 1.244 . S
O224 Co198 2.155 . S
O224 C226 1.240 . S
O225 Co198 2.096 . S
O225 C206 1.247 . S
C226 O223 1.244 . S
C226 O224 1.240 . S
H227 C201 0.931 . S
H228 C210 0.931 1_655 S
H229 C214 0.929 1_655 S
H230 C216 0.930 . S
Co231 N235 2.148 . S
Co231 N241 2.128 . S
Co231 N251 2.194 . S
Co231 O256 2.351 . S
Co231 O257 2.155 . S
Co231 O258 2.096 . S
C232 N235 1.301 . S
C232 N236 1.328 . S
C232 H237 0.930 . S
C233 C234 1.333 . S
C233 N235 1.317 . S
C233 H238 0.930 . S
C234 C233 1.333 . S
C234 N236 1.350 . S
C234 H260 0.931 . S
N235 Co231 2.148 . S
N235 C232 1.301 . S
N235 C233 1.317 . S
N236 C232 1.328 . S
N236 C234 1.350 . S
H237 C232 0.930 . S
H238 C233 0.930 . S
C239 O240 1.224 . S
C239 O258 1.247 . S
O240 C239 1.224 . S
N241 Co231 2.128 . S
N241 C242 1.355 . S
N241 C244 1.311 . S
C242 N241 1.355 . S
C242 C243 1.363 . S
C242 H254 0.929 . S
C243 C242 1.363 . S
C243 N245 1.375 . S
C243 H261 0.931 . S
C244 N241 1.311 . S
C244 N245 1.347 . S
C244 H255 0.929 . S
N245 C243 1.375 . S
N245 C244 1.347 . S
C246 C249 1.365 . S
C246 N251 1.328 . S
C246 H252 0.929 . S
C247 C248 1.362 . S
C247 C250 1.378 . S
C247 H262 0.929 . S
C248 C247 1.362 . S
C248 C249 1.366 . S
C249 C246 1.365 . S
C249 C248 1.366 . S
C249 H263 0.930 . S
C250 C247 1.378 . S
C250 N251 1.315 . S
C250 H253 0.930 . S
N251 Co231 2.194 . S
N251 C246 1.328 . S
N251 C250 1.315 . S
H252 C246 0.929 . S
H253 C250 0.930 . S
H254 C242 0.929 . S
H255 C244 0.929 . S
O256 Co231 2.351 . S
O256 C259 1.244 . S
O257 Co231 2.155 . S
O257 C259 1.240 . S
O258 Co231 2.096 . S
O258 C239 1.247 . S
C259 O256 1.244 . S
C259 O257 1.240 . S
H260 C234 0.931 . S
H261 C243 0.931 . S
H262 C247 0.929 . S
H263 C249 0.930 . S
C264 C265 1.391 . S
C264 C266 1.394 . S
C264 H280 0.931 . S
C265 C264 1.391 . S
C265 C269 1.376 . S
C266 C264 1.394 . S
C266 C267 1.369 . S
C266 C270 1.531 . S
C267 C266 1.369 . S
C267 C268 1.410 . S
C267 C275 1.503 1_554 S
C268 C267 1.410 . S
C268 C269 1.392 . S
C268 C271 1.511 1_554 S
C269 C265 1.376 . S
C269 C268 1.392 . S
C269 H281 0.929 . S
C270 C266 1.531 . S
C270 H282 0.960 . S
C270 H283 0.962 . S
C270 H284 0.960 . S
C271 C268 1.511 1_556 S
C271 H285 0.961 . S
C271 H286 0.961 . S
C271 H287 0.961 . S
C272 C273 1.370 . S
C272 C274 1.363 . S
C272 H288 0.931 . S
C273 C272 1.370 . S
C273 C277 1.408 . S
C274 C272 1.363 . S
C274 C275 1.370 . S
C274 C278 1.524 . S
C275 C267 1.503 1_556 S
C275 C274 1.370 . S
C275 C276 1.403 . S
C276 C275 1.403 . S
C276 C277 1.404 . S
C276 C279 1.539 . S
C277 C273 1.408 . S
C277 C276 1.404 . S
C277 H289 0.930 . S
C278 C274 1.524 . S
C278 H290 0.956 1_556 S
C278 H291 0.961 . S
C278 H292 0.961 . S
C279 C276 1.539 . S
C279 H293 0.958 1_556 S
C279 H294 0.961 . S
C279 H295 0.948 1_556 S
H280 C264 0.931 . S
H281 C269 0.929 . S
H282 C270 0.960 . S
H283 C270 0.962 . S
H284 C270 0.960 . S
H285 C271 0.961 . S
H286 C271 0.961 . S
H287 C271 0.961 . S
H288 C272 0.931 . S
H289 C277 0.930 . S
H290 C278 0.956 1_554 S
H291 C278 0.961 . S
H292 C278 0.961 . S
H293 C279 0.958 1_554 S
H294 C279 0.961 . S
H295 C279 0.948 1_554 S
C296 C297 1.391 . S
C296 C298 1.394 . S
C296 H312 0.931 . S
C297 C296 1.391 . S
C297 C301 1.376 . S
C298 C296 1.394 . S
C298 C299 1.369 . S
C298 C302 1.531 . S
C299 C298 1.369 . S
C299 C300 1.410 . S
C299 C307 1.503 . S
C300 C299 1.410 . S
C300 C301 1.392 . S
C300 C303 1.511 . S
C301 C297 1.376 . S
C301 C300 1.392 . S
C301 H313 0.929 . S
C302 C298 1.531 . S
C302 H314 0.960 . S
C302 H315 0.962 . S
C302 H316 0.960 . S
C303 C300 1.511 . S
C303 H317 0.961 . S
C303 H318 0.961 . S
C303 H319 0.961 . S
C304 C305 1.370 . S
C304 C306 1.363 . S
C304 H320 0.931 . S
C305 C304 1.370 . S
C305 C309 1.408 . S
C306 C304 1.363 . S
C306 C307 1.370 . S
C306 C310 1.524 . S
C307 C299 1.503 . S
C307 C306 1.370 . S
C307 C308 1.403 . S
C308 C307 1.403 . S
C308 C309 1.404 . S
C308 C311 1.539 . S
C309 C305 1.408 . S
C309 C308 1.404 . S
C309 H321 0.930 . S
C310 C306 1.524 . S
C310 H322 0.956 . S
C310 H323 0.961 . S
C310 H324 0.961 . S
C311 C308 1.539 . S
C311 H325 0.958 . S
C311 H326 0.961 . S
C311 H327 0.960 . S
H312 C296 0.931 . S
H313 C301 0.929 . S
H314 C302 0.960 . S
H315 C302 0.962 . S
H316 C302 0.960 . S
H317 C303 0.961 . S
H318 C303 0.961 . S
H319 C303 0.961 . S
H320 C304 0.931 . S
H321 C309 0.930 . S
H322 C310 0.956 . S
H323 C310 0.961 . S
H324 C310 0.961 . S
H325 C311 0.958 . S
H326 C311 0.961 . S
H327 C311 0.960 . S
C328 C329 1.391 . S
C328 C330 1.394 . S
C328 H344 0.931 . S
C329 C328 1.391 . S
C329 C333 1.376 . S
C330 C328 1.394 . S
C330 C331 1.369 . S
C330 C334 1.531 . S
C331 C330 1.369 . S
C331 C332 1.410 . S
C331 C339 1.503 . S
C332 C331 1.410 . S
C332 C333 1.392 . S
C332 C335 1.511 . S
C333 C329 1.376 . S
C333 C332 1.392 . S
C333 H345 0.929 . S
C334 C330 1.531 . S
C334 H346 0.960 . S
C334 H347 0.962 . S
C334 H348 0.960 . S
C335 C332 1.511 . S
C335 H349 0.961 . S
C335 H350 0.961 . S
C335 H351 0.961 . S
C336 C337 1.370 . S
C336 C338 1.363 . S
C336 H352 0.931 . S
C337 C336 1.370 . S
C337 C341 1.408 . S
C338 C336 1.363 . S
C338 C339 1.370 . S
C338 C342 1.524 . S
C339 C331 1.503 . S
C339 C338 1.370 . S
C339 C340 1.403 . S
C340 C339 1.403 . S
C340 C341 1.404 . S
C340 C343 1.539 . S
C341 C337 1.408 . S
C341 C340 1.404 . S
C341 H353 0.930 . S
C342 C338 1.524 . S
C342 H354 0.956 . S
C342 H355 0.961 . S
C342 H356 0.961 . S
C343 C340 1.539 . S
C343 H357 0.958 . S
C343 H358 0.961 . S
C343 H359 0.960 . S
H344 C328 0.931 . S
H345 C333 0.929 . S
H346 C334 0.960 . S
H347 C334 0.962 . S
H348 C334 0.960 . S
H349 C335 0.961 . S
H350 C335 0.961 . S
H351 C335 0.961 . S
H352 C336 0.931 . S
H353 C341 0.930 . S
H354 C342 0.956 . S
H355 C342 0.961 . S
H356 C342 0.961 . S
H357 C343 0.958 . S
H358 C343 0.961 . S
H359 C343 0.960 . S
C360 C361 1.391 . S
C360 C362 1.394 . S
C360 H376 0.931 . S
C361 C360 1.391 . S
C361 C365 1.376 . S
C362 C360 1.394 . S
C362 C363 1.369 . S
C362 C366 1.531 . S
C363 C362 1.369 . S
C363 C364 1.410 . S
C363 C371 1.503 . S
C364 C363 1.410 . S
C364 C365 1.392 . S
C364 C367 1.511 . S
C365 C361 1.376 . S
C365 C364 1.392 . S
C365 H377 0.929 . S
C366 C362 1.531 . S
C366 H378 0.960 . S
C366 H379 0.962 . S
C366 H380 0.960 . S
C367 C364 1.511 . S
C367 H381 0.961 . S
C367 H382 0.961 . S
C367 H383 0.961 . S
C368 C369 1.370 . S
C368 C370 1.363 . S
C368 H384 0.931 . S
C369 C368 1.370 . S
C369 C373 1.408 . S
C370 C368 1.363 . S
C370 C371 1.370 . S
C370 C374 1.524 . S
C371 C363 1.503 . S
C371 C370 1.370 . S
C371 C372 1.403 . S
C372 C371 1.403 . S
C372 C373 1.404 . S
C372 C375 1.539 . S
C373 C369 1.408 . S
C373 C372 1.404 . S
C373 H385 0.930 . S
C374 C370 1.524 . S
C374 H386 0.956 . S
C374 H387 0.961 . S
C374 H388 0.961 . S
C375 C372 1.539 . S
C375 H389 0.958 . S
C375 H390 0.961 . S
C375 H391 0.960 . S
H376 C360 0.931 . S
H377 C365 0.929 . S
H378 C366 0.960 . S
H379 C366 0.962 . S
H380 C366 0.960 . S
H381 C367 0.961 . S
H382 C367 0.961 . S
H383 C367 0.961 . S
H384 C368 0.931 . S
H385 C373 0.930 . S
H386 C374 0.956 . S
H387 C374 0.961 . S
H388 C374 0.961 . S
H389 C375 0.958 . S
H390 C375 0.961 . S
H391 C375 0.960 . S
C392 C393 1.391 . S
C392 C394 1.394 . S
C392 H408 0.931 . S
C393 C392 1.391 . S
C393 C397 1.376 . S
C394 C392 1.394 . S
C394 C395 1.369 . S
C394 C398 1.531 . S
C395 C394 1.369 . S
C395 C396 1.410 . S
C395 C403 1.503 1_556 S
C396 C395 1.410 . S
C396 C397 1.392 . S
C396 C399 1.511 . S
C397 C393 1.376 . S
C397 C396 1.392 . S
C397 H409 0.929 . S
C398 C394 1.531 . S
C398 H410 0.960 . S
C398 H411 0.962 . S
C398 H412 0.960 . S
C399 C396 1.511 . S
C399 H413 0.961 1_545 S
C399 H414 0.961 1_556 S
C399 H415 0.961 . S
C400 C401 1.370 . S
C400 C402 1.363 . S
C400 H416 0.931 . S
C401 C400 1.370 . S
C401 C405 1.408 . S
C402 C400 1.363 . S
C402 C403 1.370 . S
C402 C406 1.524 . S
C403 C395 1.503 1_554 S
C403 C402 1.370 . S
C403 C404 1.403 . S
C404 C403 1.403 . S
C404 C405 1.404 . S
C404 C407 1.539 1_554 S
C405 C401 1.408 . S
C405 C404 1.404 . S
C405 H417 0.930 . S
C406 C402 1.524 . S
C406 H418 0.956 . S
C406 H419 0.961 . S
C406 H420 0.961 . S
C407 C404 1.539 1_556 S
C407 H421 0.958 . S
C407 H422 0.961 1_556 S
C407 H423 0.960 . S
H408 C392 0.931 . S
H409 C397 0.929 . S
H410 C398 0.960 . S
H411 C398 0.962 . S
H412 C398 0.960 . S
H413 C399 0.961 1_565 S
H414 C399 0.961 1_554 S
H415 C399 0.961 . S
H416 C400 0.931 . S
H417 C405 0.930 . S
H418 C406 0.956 . S
H419 C406 0.961 . S
H420 C406 0.961 . S
H421 C407 0.958 . S
H422 C407 0.961 1_554 S
H423 C407 0.960 . S
C424 C425 1.391 . S
C424 C426 1.394 . S
C424 H440 0.931 1_545 S
C425 C424 1.391 . S
C425 C429 1.376 . S
C426 C424 1.394 . S
C426 C427 1.369 . S
C426 C430 1.531 1_545 S
C427 C426 1.369 . S
C427 C428 1.410 . S
C427 C435 1.503 . S
C428 C427 1.410 . S
C428 C429 1.392 . S
C428 C431 1.511 . S
C429 C425 1.376 . S
C429 C428 1.392 . S
C429 H441 0.929 . S
C430 C426 1.531 1_565 S
C430 H442 0.960 1_565 S
C430 H443 0.962 . S
C430 H444 0.960 . S
C431 C428 1.511 . S
C431 H445 0.961 . S
C431 H446 0.961 . S
C431 H447 0.961 . S
C432 C433 1.370 . S
C432 C434 1.363 . S
C432 H448 0.931 . S
C433 C432 1.370 . S
C433 C437 1.408 . S
C434 C432 1.363 . S
C434 C435 1.370 . S
C434 C438 1.524 . S
C435 C427 1.503 . S
C435 C434 1.370 . S
C435 C436 1.403 . S
C436 C435 1.403 . S
C436 C437 1.404 . S
C436 C439 1.539 . S
C437 C433 1.408 . S
C437 C436 1.404 . S
C437 H449 0.930 . S
C438 C434 1.524 . S
C438 H450 0.956 . S
C438 H451 0.961 . S
C438 H452 0.961 . S
C439 C436 1.539 . S
C439 H453 0.958 . S
C439 H454 0.961 . S
C439 H455 0.960 . S
H440 C424 0.931 1_565 S
H441 C429 0.929 . S
H442 C430 0.960 1_545 S
H443 C430 0.962 . S
H444 C430 0.960 . S
H445 C431 0.961 . S
H446 C431 0.961 . S
H447 C431 0.961 . S
H448 C432 0.931 . S
H449 C437 0.930 . S
H450 C438 0.956 . S
H451 C438 0.961 . S
H452 C438 0.961 . S
H453 C439 0.958 . S
H454 C439 0.961 . S
H455 C439 0.960 . S
C456 C457 1.391 . S
C456 C458 1.394 . S
C456 H472 0.931 . S
C457 C456 1.391 . S
C457 C461 1.376 . S
C458 C456 1.394 . S
C458 C459 1.369 . S
C458 C462 1.531 . S
C459 C458 1.369 . S
C459 C460 1.410 . S
C459 C467 1.503 . S
C460 C459 1.410 . S
C460 C461 1.392 . S
C460 C463 1.511 . S
C461 C457 1.376 . S
C461 C460 1.392 . S
C461 H473 0.929 . S
C462 C458 1.531 . S
C462 H474 0.960 . S
C462 H475 0.962 . S
C462 H476 0.960 1_565 S
C463 C460 1.511 . S
C463 H477 0.961 . S
C463 H478 0.961 . S
C463 H479 0.961 . S
C464 C465 1.370 . S
C464 C466 1.363 . S
C464 H480 0.931 . S
C465 C464 1.370 . S
C465 C469 1.408 . S
C466 C464 1.363 . S
C466 C467 1.370 . S
C466 C470 1.524 . S
C467 C459 1.503 . S
C467 C466 1.370 . S
C467 C468 1.403 . S
C468 C467 1.403 . S
C468 C469 1.404 . S
C468 C471 1.539 . S
C469 C465 1.408 . S
C469 C468 1.404 . S
C469 H481 0.930 . S
C470 C466 1.524 . S
C470 H482 0.956 . S
C470 H483 0.961 . S
C470 H484 0.961 . S
C471 C468 1.539 . S
C471 H485 0.958 . S
C471 H486 0.961 . S
C471 H487 0.960 . S
H472 C456 0.931 . S
H473 C461 0.929 . S
H474 C462 0.960 . S
H475 C462 0.962 . S
H476 C462 0.960 1_545 S
H477 C463 0.961 . S
H478 C463 0.961 . S
H479 C463 0.961 . S
H480 C464 0.931 . S
H481 C469 0.930 . S
H482 C470 0.956 . S
H483 C470 0.961 . S
H484 C470 0.961 . S
H485 C471 0.958 . S
H486 C471 0.961 . S
H487 C471 0.960 . S
C488 C489 1.391 . S
C488 C490 1.394 . S
C488 H504 0.931 . S
C489 C488 1.391 . S
C489 C493 1.376 . S
C490 C488 1.394 . S
C490 C491 1.369 . S
C490 C494 1.531 . S
C491 C490 1.369 . S
C491 C492 1.410 . S
C491 C499 1.503 . S
C492 C491 1.410 . S
C492 C493 1.392 . S
C492 C495 1.511 . S
C493 C489 1.376 . S
C493 C492 1.392 . S
C493 H505 0.929 . S
C494 C490 1.531 . S
C494 H506 0.960 . S
C494 H507 0.962 . S
C494 H508 0.960 . S
C495 C492 1.511 . S
C495 H509 0.961 . S
C495 H510 0.961 . S
C495 H511 0.961 . S
C496 C497 1.370 . S
C496 C498 1.363 . S
C496 H512 0.931 . S
C497 C496 1.370 . S
C497 C501 1.408 . S
C498 C496 1.363 . S
C498 C499 1.370 . S
C498 C502 1.524 . S
C499 C491 1.503 . S
C499 C498 1.370 . S
C499 C500 1.403 . S
C500 C499 1.403 . S
C500 C501 1.404 . S
C500 C503 1.539 1_565 S
C501 C497 1.408 . S
C501 C500 1.404 . S
C501 H513 0.930 . S
C502 C498 1.524 . S
C502 H514 0.956 . S
C502 H515 0.961 . S
C502 H516 0.961 . S
C503 C500 1.539 1_545 S
C503 H517 0.958 . S
C503 H518 0.961 . S
C503 H519 0.960 . S
H504 C488 0.931 . S
H505 C493 0.929 . S
H506 C494 0.960 . S
H507 C494 0.962 . S
H508 C494 0.960 . S
H509 C495 0.961 . S
H510 C495 0.961 . S
H511 C495 0.961 . S
H512 C496 0.931 . S
H513 C501 0.930 . S
H514 C502 0.956 . S
H515 C502 0.961 . S
H516 C502 0.961 . S
H517 C503 0.958 . S
H518 C503 0.961 . S
H519 C503 0.960 . S
C520 C521 1.391 . S
C520 C522 1.394 . S
C520 H536 0.931 . S
C521 C520 1.391 . S
C521 C525 1.376 . S
C522 C520 1.394 . S
C522 C523 1.369 . S
C522 C526 1.531 . S
C523 C522 1.369 . S
C523 C524 1.410 . S
C523 C531 1.503 . S
C524 C523 1.410 . S
C524 C525 1.392 . S
C524 C527 1.511 . S
C525 C521 1.376 . S
C525 C524 1.392 . S
C525 H537 0.929 . S
C526 C522 1.531 . S
C526 H538 0.960 . S
C526 H539 0.962 1_455 S
C526 H540 0.960 . S
C527 C524 1.511 . S
C527 H541 0.961 . S
C527 H542 0.961 . S
C527 H543 0.961 . S
C528 C529 1.370 . S
C528 C530 1.363 . S
C528 H544 0.931 . S
C529 C528 1.370 . S
C529 C533 1.408 . S
C530 C528 1.363 . S
C530 C531 1.370 . S
C530 C534 1.524 . S
C531 C523 1.503 . S
C531 C530 1.370 . S
C531 C532 1.403 . S
C532 C531 1.403 . S
C532 C533 1.404 . S
C532 C535 1.539 . S
C533 C529 1.408 . S
C533 C532 1.404 . S
C533 H545 0.930 . S
C534 C530 1.524 . S
C534 H546 0.947 1_455 S
C534 H547 0.961 . S
C534 H548 0.961 . S
C535 C532 1.539 . S
C535 H549 0.958 . S
C535 H550 0.961 . S
C535 H551 0.960 . S
H536 C520 0.931 . S
H537 C525 0.929 . S
H538 C526 0.960 . S
H539 C526 0.962 1_655 S
H540 C526 0.960 . S
H541 C527 0.961 . S
H542 C527 0.961 . S
H543 C527 0.961 . S
H544 C528 0.931 . S
H545 C533 0.930 . S
H546 C534 0.947 1_655 S
H547 C534 0.961 . S
H548 C534 0.961 . S
H549 C535 0.958 . S
H550 C535 0.961 . S
H551 C535 0.960 . S
C552 C553 1.391 . S
C552 C554 1.394 . S
C552 H568 0.931 . S
C553 C552 1.391 . S
C553 C557 1.376 . S
C554 C552 1.394 . S
C554 C555 1.369 . S
C554 C558 1.531 . S
C555 C554 1.369 . S
C555 C556 1.410 . S
C555 C563 1.503 1_556 S
C556 C555 1.410 . S
C556 C557 1.392 . S
C556 C559 1.511 1_556 S
C557 C553 1.376 . S
C557 C556 1.392 . S
C557 H569 0.929 . S
C558 C554 1.531 . S
C558 H570 0.960 . S
C558 H571 0.962 . S
C558 H572 0.960 . S
C559 C556 1.511 1_554 S
C559 H573 0.961 1_554 S
C559 H574 0.961 . S
C559 H575 0.961 . S
C560 C561 1.370 . S
C560 C562 1.363 . S
C560 H576 0.931 . S
C561 C560 1.370 . S
C561 C565 1.408 . S
C562 C560 1.363 . S
C562 C563 1.370 . S
C562 C566 1.506 1_554 S
C563 C555 1.503 1_554 S
C563 C562 1.370 . S
C563 C564 1.403 . S
C564 C563 1.403 . S
C564 C565 1.404 . S
C564 C567 1.539 . S
C565 C561 1.408 . S
C565 C564 1.404 . S
C565 H577 0.930 . S
C566 C562 1.506 1_556 S
C566 H578 0.974 . S
C566 H579 0.971 . S
C566 H580 0.951 1_556 S
C567 C564 1.539 . S
C567 H581 0.958 . S
C567 H582 0.961 . S
C567 H583 0.960 . S
H568 C552 0.931 . S
H569 C557 0.929 . S
H570 C558 0.960 . S
H571 C558 0.962 . S
H572 C558 0.960 . S
H573 C559 0.961 1_556 S
H574 C559 0.961 . S
H575 C559 0.961 . S
H576 C560 0.931 . S
H577 C565 0.930 . S
H578 C566 0.974 . S
H579 C566 0.971 . S
H580 C566 0.951 1_554 S
H581 C567 0.958 . S
H582 C567 0.961 . S
H583 C567 0.960 . S
C584 C585 1.391 . S
C584 C586 1.394 . S
C584 H600 0.931 . S
C585 C584 1.391 . S
C585 C589 1.376 . S
C586 C584 1.394 . S
C586 C587 1.369 . S
C586 C590 1.531 . S
C587 C586 1.369 . S
C587 C588 1.410 . S
C587 C595 1.503 . S
C588 C587 1.410 . S
C588 C589 1.392 . S
C588 C591 1.511 . S
C589 C585 1.376 . S
C589 C588 1.392 . S
C589 H601 0.929 . S
C590 C586 1.531 . S
C590 H602 0.960 . S
C590 H603 0.962 . S
C590 H604 0.960 . S
C591 C588 1.511 . S
C591 H605 0.961 . S
C591 H606 0.961 . S
C591 H607 0.961 . S
C592 C593 1.370 . S
C592 C594 1.363 . S
C592 H608 0.931 . S
C593 C592 1.370 . S
C593 C597 1.408 . S
C594 C592 1.363 . S
C594 C595 1.370 . S
C594 C598 1.524 . S
C595 C587 1.503 . S
C595 C594 1.370 . S
C595 C596 1.403 . S
C596 C595 1.403 . S
C596 C597 1.404 . S
C596 C599 1.539 1_655 S
C597 C593 1.408 . S
C597 C596 1.404 . S
C597 H609 0.930 . S
C598 C594 1.524 . S
C598 H610 0.956 . S
C598 H611 0.961 . S
C598 H612 0.961 . S
C599 C596 1.539 1_455 S
C599 H613 0.958 . S
C599 H614 0.961 . S
C599 H615 0.960 . S
H600 C584 0.931 . S
H601 C589 0.929 . S
H602 C590 0.960 . S
H603 C590 0.962 . S
H604 C590 0.960 . S
H605 C591 0.961 . S
H606 C591 0.961 . S
H607 C591 0.961 . S
H608 C592 0.931 . S
H609 C597 0.930 . S
H610 C598 0.956 . S
H611 C598 0.961 . S
H612 C598 0.961 . S
H613 C599 0.958 . S
H614 C599 0.961 . S
H615 C599 0.960 . S
C616 C617 1.391 . S
C616 C618 1.394 . S
C616 H632 0.931 . S
C617 C616 1.391 . S
C617 C621 1.376 . S
C618 C616 1.394 . S
C618 C619 1.369 . S
C618 C622 1.531 . S
C619 C618 1.369 . S
C619 C620 1.410 . S
C619 C627 1.503 . S
C620 C619 1.410 . S
C620 C621 1.392 . S
C620 C623 1.511 . S
C621 C617 1.376 . S
C621 C620 1.392 . S
C621 H633 0.929 . S
C622 C618 1.531 . S
C622 H634 0.960 . S
C622 H635 0.962 . S
C622 H636 0.960 . S
C623 C620 1.511 . S
C623 H637 0.961 . S
C623 H638 0.961 . S
C623 H639 0.961 . S
C624 C625 1.370 . S
C624 C626 1.363 . S
C624 H640 0.931 . S
C625 C624 1.370 . S
C625 C629 1.408 . S
C626 C624 1.363 . S
C626 C627 1.370 . S
C626 C630 1.524 . S
C627 C619 1.503 . S
C627 C626 1.370 . S
C627 C628 1.403 . S
C628 C627 1.403 . S
C628 C629 1.404 . S
C628 C631 1.539 . S
C629 C625 1.408 . S
C629 C628 1.404 . S
C629 H641 0.930 . S
C630 C626 1.524 . S
C630 H642 0.956 . S
C630 H643 0.961 . S
C630 H644 0.961 . S
C631 C628 1.539 . S
C631 H645 0.958 . S
C631 H646 0.961 . S
C631 H647 0.960 . S
H632 C616 0.931 . S
H633 C621 0.929 . S
H634 C622 0.960 . S
H635 C622 0.962 . S
H636 C622 0.960 . S
H637 C623 0.961 . S
H638 C623 0.961 . S
H639 C623 0.961 . S
H640 C624 0.931 . S
H641 C629 0.930 . S
H642 C630 0.956 . S
H643 C630 0.961 . S
H644 C630 0.961 . S
H645 C631 0.958 . S
H646 C631 0.961 . S
H647 C631 0.960 . S
C648 C649 1.391 . S
C648 C650 1.394 . S
C648 H664 0.931 . S
C649 C648 1.391 . S
C649 C653 1.376 . S
C650 C648 1.394 . S
C650 C651 1.369 . S
C650 C654 1.531 . S
C651 C650 1.369 . S
C651 C652 1.410 . S
C651 C659 1.503 . S
C652 C651 1.410 . S
C652 C653 1.392 . S
C652 C655 1.511 . S
C653 C649 1.376 . S
C653 C652 1.392 . S
C653 H665 0.929 . S
C654 C650 1.531 . S
C654 H666 0.960 . S
C654 H667 0.962 . S
C654 H668 0.960 . S
C655 C652 1.511 . S
C655 H669 0.961 . S
C655 H670 0.961 . S
C655 H671 0.961 . S
C656 C657 1.370 1_565 S
C656 C658 1.363 . S
C656 H672 0.931 . S
C657 C656 1.370 1_545 S
C657 C661 1.408 . S
C658 C656 1.363 . S
C658 C659 1.370 . S
C658 C662 1.524 . S
C659 C651 1.503 . S
C659 C658 1.370 . S
C659 C660 1.403 . S
C660 C659 1.403 . S
C660 C661 1.404 1_565 S
C660 C663 1.539 . S
C661 C657 1.408 . S
C661 C660 1.404 1_545 S
C661 H673 0.930 . S
C662 C658 1.524 . S
C662 H674 0.956 . S
C662 H675 0.961 . S
C662 H676 0.961 . S
C663 C660 1.539 . S
C663 H677 0.958 . S
C663 H678 0.961 . S
C663 H679 0.960 . S
H664 C648 0.931 . S
H665 C653 0.929 . S
H666 C654 0.960 . S
H667 C654 0.962 . S
H668 C654 0.960 . S
H669 C655 0.961 . S
H670 C655 0.961 . S
H671 C655 0.961 . S
H672 C656 0.931 . S
H673 C661 0.930 . S
H674 C662 0.956 . S
H675 C662 0.961 . S
H676 C662 0.961 . S
H677 C663 0.958 . S
H678 C663 0.961 . S
H679 C663 0.960 . S
C680 C681 1.391 . S
C680 C682 1.394 . S
C680 H696 0.931 . S
C681 C680 1.391 . S
C681 C685 1.376 . S
C682 C680 1.394 . S
C682 C683 1.369 . S
C682 C686 1.531 . S
C683 C682 1.369 . S
C683 C684 1.410 . S
C683 C691 1.503 . S
C684 C683 1.410 . S
C684 C685 1.392 . S
C684 C687 1.511 . S
C685 C681 1.376 . S
C685 C684 1.392 . S
C685 H697 0.929 . S
C686 C682 1.531 . S
C686 H698 0.960 . S
C686 H699 0.962 . S
C686 H700 0.960 . S
C687 C684 1.511 . S
C687 H701 0.961 . S
C687 H702 0.961 . S
C687 H703 0.961 . S
C688 C689 1.370 . S
C688 C690 1.363 . S
C688 H704 0.931 . S
C689 C688 1.370 . S
C689 C693 1.408 . S
C690 C688 1.363 . S
C690 C691 1.370 . S
C690 C694 1.524 . S
C691 C683 1.503 . S
C691 C690 1.370 . S
C691 C692 1.403 . S
C692 C691 1.403 . S
C692 C693 1.404 . S
C692 C695 1.539 . S
C693 C689 1.408 . S
C693 C692 1.404 . S
C693 H705 0.930 . S
C694 C690 1.524 . S
C694 H706 0.956 . S
C694 H707 0.961 . S
C694 H708 0.961 . S
C695 C692 1.539 . S
C695 H709 0.958 . S
C695 H710 0.961 . S
C695 H711 0.960 . S
H696 C680 0.931 . S
H697 C685 0.929 . S
H698 C686 0.960 . S
H699 C686 0.962 . S
H700 C686 0.960 . S
H701 C687 0.961 . S
H702 C687 0.961 . S
H703 C687 0.961 . S
H704 C688 0.931 . S
H705 C693 0.930 . S
H706 C694 0.956 . S
H707 C694 0.961 . S
H708 C694 0.961 . S
H709 C695 0.958 . S
H710 C695 0.961 . S
H711 C695 0.960 . S
C712 C713 1.391 1_545 S
C712 C714 1.394 . S
C712 H728 0.931 1_545 S
C713 C712 1.391 1_565 S
C713 C717 1.376 . S
C714 C712 1.394 . S
C714 C715 1.369 . S
C714 C718 1.531 . S
C715 C714 1.369 . S
C715 C716 1.410 . S
C715 C723 1.503 . S
C716 C715 1.410 . S
C716 C717 1.392 1_545 S
C716 C719 1.511 . S
C717 C713 1.376 . S
C717 C716 1.392 1_565 S
C717 H729 0.929 . S
C718 C714 1.531 . S
C718 H730 0.960 . S
C718 H731 0.962 . S
C718 H732 0.960 . S
C719 C716 1.511 . S
C719 H733 0.961 . S
C719 H734 0.961 . S
C719 H735 0.961 . S
C720 C721 1.370 . S
C720 C722 1.363 . S
C720 H736 0.931 . S
C721 C720 1.370 . S
C721 C725 1.408 . S
C722 C720 1.363 . S
C722 C723 1.370 . S
C722 C726 1.524 . S
C723 C715 1.503 . S
C723 C722 1.370 . S
C723 C724 1.403 . S
C724 C723 1.403 . S
C724 C725 1.404 . S
C724 C727 1.539 . S
C725 C721 1.408 . S
C725 C724 1.404 . S
C725 H737 0.930 . S
C726 C722 1.524 . S
C726 H738 0.956 . S
C726 H739 0.961 . S
C726 H740 0.961 . S
C727 C724 1.539 . S
C727 H741 0.958 . S
C727 H742 0.961 . S
C727 H743 0.960 . S
H728 C712 0.931 1_565 S
H729 C717 0.929 . S
H730 C718 0.960 . S
H731 C718 0.962 . S
H732 C718 0.960 . S
H733 C719 0.961 . S
H734 C719 0.961 . S
H735 C719 0.961 . S
H736 C720 0.931 . S
H737 C725 0.930 . S
H738 C726 0.956 . S
H739 C726 0.961 . S
H740 C726 0.961 . S
H741 C727 0.958 . S
H742 C727 0.961 . S
H743 C727 0.960 . S
C744 C745 1.391 . S
C744 C746 1.394 . S
C744 H760 0.931 . S
C745 C744 1.391 . S
C745 C749 1.376 . S
C746 C744 1.394 . S
C746 C747 1.369 . S
C746 C750 1.531 . S
C747 C746 1.369 . S
C747 C748 1.410 . S
C747 C755 1.503 . S
C748 C747 1.410 . S
C748 C749 1.392 . S
C748 C751 1.511 . S
C749 C745 1.376 . S
C749 C748 1.392 . S
C749 H761 0.929 . S
C750 C746 1.531 . S
C750 H762 0.960 . S
C750 H763 0.962 . S
C750 H764 0.960 . S
C751 C748 1.511 . S
C751 H765 0.961 . S
C751 H766 0.961 . S
C751 H767 0.961 . S
C752 C753 1.370 . S
C752 C754 1.363 . S
C752 H768 0.931 . S
C753 C752 1.370 . S
C753 C757 1.408 . S
C754 C752 1.363 . S
C754 C755 1.370 . S
C754 C758 1.524 . S
C755 C747 1.503 . S
C755 C754 1.370 . S
C755 C756 1.403 . S
C756 C755 1.403 . S
C756 C757 1.404 . S
C756 C759 1.539 . S
C757 C753 1.408 . S
C757 C756 1.404 . S
C757 H769 0.930 . S
C758 C754 1.524 . S
C758 H770 0.956 . S
C758 H771 0.961 . S
C758 H772 0.961 . S
C759 C756 1.539 . S
C759 H773 0.958 . S
C759 H774 0.961 . S
C759 H775 0.960 . S
H760 C744 0.931 . S
H761 C749 0.929 . S
H762 C750 0.960 . S
H763 C750 0.962 . S
H764 C750 0.960 . S
H765 C751 0.961 . S
H766 C751 0.961 . S
H767 C751 0.961 . S
H768 C752 0.931 . S
H769 C757 0.930 . S
H770 C758 0.956 . S
H771 C758 0.961 . S
H772 C758 0.961 . S
H773 C759 0.958 . S
H774 C759 0.961 . S
H775 C759 0.960 . S
C776 C777 1.391 . S
C776 C778 1.394 . S
C776 H792 0.931 . S
C777 C776 1.391 . S
C777 C781 1.376 . S
C778 C776 1.394 . S
C778 C779 1.369 . S
C778 C782 1.531 . S
C779 C778 1.369 . S
C779 C780 1.410 . S
C779 C787 1.503 . S
C780 C779 1.410 . S
C780 C781 1.392 . S
C780 C783 1.511 . S
C781 C777 1.376 . S
C781 C780 1.392 . S
C781 H793 0.929 . S
C782 C778 1.531 . S
C782 H794 0.960 . S
C782 H795 0.962 . S
C782 H796 0.960 . S
C783 C780 1.511 . S
C783 H797 0.961 . S
C783 H798 0.961 . S
C783 H799 0.961 . S
C784 C785 1.370 . S
C784 C786 1.363 . S
C784 H800 0.931 . S
C785 C784 1.370 . S
C785 C789 1.408 . S
C786 C784 1.363 . S
C786 C787 1.370 . S
C786 C790 1.524 . S
C787 C779 1.503 . S
C787 C786 1.370 . S
C787 C788 1.403 . S
C788 C787 1.403 . S
C788 C789 1.404 . S
C788 C791 1.539 . S
C789 C785 1.408 . S
C789 C788 1.404 . S
C789 H801 0.930 . S
C790 C786 1.524 . S
C790 H802 0.956 . S
C790 H803 0.961 . S
C790 H804 0.961 . S
C791 C788 1.539 . S
C791 H805 0.958 . S
C791 H806 0.961 . S
C791 H807 0.960 . S
H792 C776 0.931 . S
H793 C781 0.929 . S
H794 C782 0.960 . S
H795 C782 0.962 . S
H796 C782 0.960 . S
H797 C783 0.961 . S
H798 C783 0.961 . S
H799 C783 0.961 . S
H800 C784 0.931 . S
H801 C789 0.930 . S
H802 C790 0.956 . S
H803 C790 0.961 . S
H804 C790 0.961 . S
H805 C791 0.958 . S
H806 C791 0.961 . S
H807 C791 0.960 . S
C808 C809 1.391 . S
C808 C810 1.394 . S
C808 H824 0.931 . S
C809 C808 1.391 . S
C809 C813 1.376 . S
C810 C808 1.394 . S
C810 C811 1.369 . S
C810 C814 1.531 . S
C811 C810 1.369 . S
C811 C812 1.410 . S
C811 C819 1.503 . S
C812 C811 1.410 . S
C812 C813 1.392 . S
C812 C815 1.511 . S
C813 C809 1.376 . S
C813 C812 1.392 . S
C813 H825 0.929 . S
C814 C810 1.531 . S
C814 H826 0.960 . S
C814 H827 0.962 . S
C814 H828 0.960 . S
C815 C812 1.511 . S
C815 H829 0.961 . S
C815 H830 0.961 . S
C815 H831 0.961 . S
C816 C817 1.370 . S
C816 C818 1.363 1_455 S
C816 H832 0.931 . S
C817 C816 1.370 . S
C817 C821 1.408 1_455 S
C818 C816 1.363 1_655 S
C818 C819 1.370 . S
C818 C822 1.524 . S
C819 C811 1.503 . S
C819 C818 1.370 . S
C819 C820 1.403 . S
C820 C819 1.403 . S
C820 C821 1.404 . S
C820 C823 1.539 . S
C821 C817 1.408 1_655 S
C821 C820 1.404 . S
C821 H833 0.930 . S
C822 C818 1.524 . S
C822 H834 0.956 . S
C822 H835 0.961 . S
C822 H836 0.961 . S
C823 C820 1.539 . S
C823 H837 0.958 . S
C823 H838 0.961 . S
C823 H839 0.960 . S
H824 C808 0.931 . S
H825 C813 0.929 . S
H826 C814 0.960 . S
H827 C814 0.962 . S
H828 C814 0.960 . S
H829 C815 0.961 . S
H830 C815 0.961 . S
H831 C815 0.961 . S
H832 C816 0.931 . S
H833 C821 0.930 . S
H834 C822 0.956 . S
H835 C822 0.961 . S
H836 C822 0.961 . S
H837 C823 0.958 . S
H838 C823 0.961 . S
H839 C823 0.960 . S
C840 C841 1.391 . S
C840 C842 1.394 . S
C840 H856 0.931 . S
C841 C840 1.391 . S
C841 C845 1.376 . S
C842 C840 1.394 . S
C842 C843 1.369 . S
C842 C846 1.531 . S
C843 C842 1.369 . S
C843 C844 1.410 . S
C843 C851 1.503 . S
C844 C843 1.410 . S
C844 C845 1.392 . S
C844 C847 1.511 . S
C845 C841 1.376 . S
C845 C844 1.392 . S
C845 H857 0.929 . S
C846 C842 1.531 . S
C846 H858 0.960 . S
C846 H859 0.962 . S
C846 H860 0.960 . S
C847 C844 1.511 . S
C847 H861 0.961 . S
C847 H862 0.961 . S
C847 H863 0.961 . S
C848 C849 1.370 . S
C848 C850 1.363 . S
C848 H864 0.931 . S
C849 C848 1.370 . S
C849 C853 1.408 . S
C850 C848 1.363 . S
C850 C851 1.370 . S
C850 C854 1.524 . S
C851 C843 1.503 . S
C851 C850 1.370 . S
C851 C852 1.403 . S
C852 C851 1.403 . S
C852 C853 1.404 . S
C852 C855 1.539 . S
C853 C849 1.408 . S
C853 C852 1.404 . S
C853 H865 0.930 . S
C854 C850 1.524 . S
C854 H866 0.956 . S
C854 H867 0.961 . S
C854 H868 0.961 . S
C855 C852 1.539 . S
C855 H869 0.958 . S
C855 H870 0.961 . S
C855 H871 0.960 . S
H856 C840 0.931 . S
H857 C845 0.929 . S
H858 C846 0.960 . S
H859 C846 0.962 . S
H860 C846 0.960 . S
H861 C847 0.961 . S
H862 C847 0.961 . S
H863 C847 0.961 . S
H864 C848 0.931 . S
H865 C853 0.930 . S
H866 C854 0.956 . S
H867 C854 0.961 . S
H868 C854 0.961 . S
H869 C855 0.958 . S
H870 C855 0.961 . S
H871 C855 0.960 . S
C872 C873 1.391 . S
C872 C874 1.394 . S
C872 H888 0.931 . S
C873 C872 1.391 . S
C873 C877 1.376 . S
C874 C872 1.394 . S
C874 C875 1.369 . S
C874 C878 1.531 . S
C875 C874 1.369 . S
C875 C876 1.410 . S
C875 C883 1.503 . S
C876 C875 1.410 . S
C876 C877 1.392 . S
C876 C879 1.511 . S
C877 C873 1.376 . S
C877 C876 1.392 . S
C877 H889 0.929 . S
C878 C874 1.531 . S
C878 H890 0.960 . S
C878 H891 0.962 . S
C878 H892 0.960 . S
C879 C876 1.511 . S
C879 H893 0.961 . S
C879 H894 0.961 . S
C879 H895 0.961 . S
C880 C881 1.370 . S
C880 C882 1.363 1_655 S
C880 H896 0.931 . S
C881 C880 1.370 . S
C881 C885 1.408 1_655 S
C882 C880 1.363 1_455 S
C882 C883 1.370 . S
C882 C886 1.524 . S
C883 C875 1.503 . S
C883 C882 1.370 . S
C883 C884 1.403 . S
C884 C883 1.403 . S
C884 C885 1.404 . S
C884 C887 1.539 . S
C885 C881 1.408 1_455 S
C885 C884 1.404 . S
C885 H897 0.930 . S
C886 C882 1.524 . S
C886 H898 0.956 . S
C886 H899 0.961 . S
C886 H900 0.961 1_455 S
C887 C884 1.539 . S
C887 H901 0.958 . S
C887 H902 0.961 . S
C887 H903 0.960 . S
H888 C872 0.931 . S
H889 C877 0.929 . S
H890 C878 0.960 . S
H891 C878 0.962 . S
H892 C878 0.960 . S
H893 C879 0.961 . S
H894 C879 0.961 . S
H895 C879 0.961 . S
H896 C880 0.931 . S
H897 C885 0.930 . S
H898 C886 0.956 . S
H899 C886 0.961 . S
H900 C886 0.961 1_655 S
H901 C887 0.958 . S
H902 C887 0.961 . S
H903 C887 0.960 . S
C265 N5 0.412 . S
C273 N170 0.349 . S
C297 N203 0.412 . S
C305 N38 0.349 . S
C329 N236 0.377 . S
C337 N71 0.338 . S
C361 N137 0.216 . S
C369 N104 0.271 . S
C393 N113 1.413 . S
C401 C17 1.292 . S
C425 C50 1.326 . S
C433 N14 1.390 . S
C457 N47 1.384 . S
C465 C83 1.334 . S
C489 C116 1.254 . S
C497 N80 1.417 . S
C521 N179 1.394 . S
C529 C149 1.331 . S
C553 C182 1.256 . S
C561 N212 1.412 . S
C585 C215 1.255 . S
C593 N245 1.412 . S
C617 C248 1.357 . S
C625 N146 1.399 . S
C649 C226 1.944 . S
C657 C8 1.979 . S
C681 C259 1.962 . S
C689 C41 1.976 . S
C713 C74 1.968 . S
C721 C160 1.943 . S
C745 C107 1.973 . S
C753 C193 1.956 . S
C777 C140 1.979 . S
C785 C94 1.949 . S
C809 C127 1.928 . S
C817 C173 1.975 . S
C841 C206 1.962 . S
C849 C28 1.951 . S
C873 C61 1.933 . S
C881 C239 1.973 . S
