# Generated by pormake.
# Topology ict, (4)-cn, num edge types: 1
# Building blocks:
#     Node 0, Type 0, BuildingBlock: AZAVOO_clean_sbu_0, # of connection points: 4
#     Node 1, Type 0, BuildingBlock: AZAVOO_clean_sbu_0, # of connection points: 4
#     Node 2, Type 0, BuildingBlock: AZAVOO_clean_sbu_0, # of connection points: 4
#     Node 3, Type 0, BuildingBlock: AZAVOO_clean_sbu_0, # of connection points: 4
#     Node 4, Type 0, BuildingBlock: AZAVOO_clean_sbu_0, # of connection points: 4
#     Node 5, Type 0, BuildingBlock: AZAVOO_clean_sbu_0, # of connection points: 4
#     Node 6, Type 0, BuildingBlock: AZAVOO_clean_sbu_0, # of connection points: 4
#     Node 7, Type 0, BuildingBlock: AZAVOO_clean_sbu_0, # of connection points: 4
#     Node 8, Type 0, BuildingBlock: AZAVOO_clean_sbu_0, # of connection points: 4
#     Node 9, Type 0, BuildingBlock: AZAVOO_clean_sbu_0, # of connection points: 4
#     Node 10, Type 0, BuildingBlock: AZAVOO_clean_sbu_0, # of connection points: 4
#     Node 11, Type 0, BuildingBlock: AZAVOO_clean_sbu_0, # of connection points: 4
#     Node 12, Type 0, BuildingBlock: AZAVOO_clean_sbu_0, # of connection points: 4
#     Node 13, Type 0, BuildingBlock: AZAVOO_clean_sbu_0, # of connection points: 4
#     Node 14, Type 0, BuildingBlock: AZAVOO_clean_sbu_0, # of connection points: 4
#     Node 15, Type 0, BuildingBlock: AZAVOO_clean_sbu_0, # of connection points: 4
#     Node 16, Type 0, BuildingBlock: AZAVOO_clean_sbu_0, # of connection points: 4
#     Node 17, Type 0, BuildingBlock: AZAVOO_clean_sbu_0, # of connection points: 4
#     Node 18, Type 0, BuildingBlock: AZAVOO_clean_sbu_0, # of connection points: 4
#     Node 19, Type 0, BuildingBlock: AZAVOO_clean_sbu_0, # of connection points: 4
#     Node 20, Type 0, BuildingBlock: AZAVOO_clean_sbu_0, # of connection points: 4
#     Node 21, Type 0, BuildingBlock: AZAVOO_clean_sbu_0, # of connection points: 4
#     Node 22, Type 0, BuildingBlock: AZAVOO_clean_sbu_0, # of connection points: 4
#     Node 23, Type 0, BuildingBlock: AZAVOO_clean_sbu_0, # of connection points: 4
#     Node 24, Type 0, BuildingBlock: AZAVOO_clean_sbu_0, # of connection points: 4
#     Node 25, Type 0, BuildingBlock: AZAVOO_clean_sbu_0, # of connection points: 4
#     Node 26, Type 0, BuildingBlock: AZAVOO_clean_sbu_0, # of connection points: 4
#     Node 27, Type 0, BuildingBlock: AZAVOO_clean_sbu_0, # of connection points: 4
#     Node 28, Type 0, BuildingBlock: AZAVOO_clean_sbu_0, # of connection points: 4
#     Node 29, Type 0, BuildingBlock: AZAVOO_clean_sbu_0, # of connection points: 4
#     Node 30, Type 0, BuildingBlock: AZAVOO_clean_sbu_0, # of connection points: 4
#     Node 31, Type 0, BuildingBlock: AZAVOO_clean_sbu_0, # of connection points: 4
#     Node 32, Type 0, BuildingBlock: AZAVOO_clean_sbu_0, # of connection points: 4
#     Node 33, Type 0, BuildingBlock: AZAVOO_clean_sbu_0, # of connection points: 4
#     Node 34, Type 0, BuildingBlock: AZAVOO_clean_sbu_0, # of connection points: 4
#     Node 35, Type 0, BuildingBlock: AZAVOO_clean_sbu_0, # of connection points: 4
#     Edge 36, Type (0, 0), BuildingBlock: AJUNOK_clean_linker_0, # of connection points: 2
#     Edge 37, Type (0, 0), BuildingBlock: AJUNOK_clean_linker_0, # of connection points: 2
#     Edge 38, Type (0, 0), BuildingBlock: AJUNOK_clean_linker_0, # of connection points: 2
#     Edge 39, Type (0, 0), BuildingBlock: AJUNOK_clean_linker_0, # of connection points: 2
#     Edge 40, Type (0, 0), BuildingBlock: AJUNOK_clean_linker_0, # of connection points: 2
#     Edge 41, Type (0, 0), BuildingBlock: AJUNOK_clean_linker_0, # of connection points: 2
#     Edge 42, Type (0, 0), BuildingBlock: AJUNOK_clean_linker_0, # of connection points: 2
#     Edge 43, Type (0, 0), BuildingBlock: AJUNOK_clean_linker_0, # of connection points: 2
#     Edge 44, Type (0, 0), BuildingBlock: AJUNOK_clean_linker_0, # of connection points: 2
#     Edge 45, Type (0, 0), BuildingBlock: AJUNOK_clean_linker_0, # of connection points: 2
#     Edge 46, Type (0, 0), BuildingBlock: AJUNOK_clean_linker_0, # of connection points: 2
#     Edge 47, Type (0, 0), BuildingBlock: AJUNOK_clean_linker_0, # of connection points: 2
#     Edge 48, Type (0, 0), BuildingBlock: AJUNOK_clean_linker_0, # of connection points: 2
#     Edge 49, Type (0, 0), BuildingBlock: AJUNOK_clean_linker_0, # of connection points: 2
#     Edge 50, Type (0, 0), BuildingBlock: AJUNOK_clean_linker_0, # of connection points: 2
#     Edge 51, Type (0, 0), BuildingBlock: AJUNOK_clean_linker_0, # of connection points: 2
#     Edge 52, Type (0, 0), BuildingBlock: AJUNOK_clean_linker_0, # of connection points: 2
#     Edge 53, Type (0, 0), BuildingBlock: AJUNOK_clean_linker_0, # of connection points: 2
#     Edge 54, Type (0, 0), BuildingBlock: AJUNOK_clean_linker_0, # of connection points: 2
#     Edge 55, Type (0, 0), BuildingBlock: AJUNOK_clean_linker_0, # of connection points: 2
#     Edge 56, Type (0, 0), BuildingBlock: AJUNOK_clean_linker_0, # of connection points: 2
#     Edge 57, Type (0, 0), BuildingBlock: AJUNOK_clean_linker_0, # of connection points: 2
#     Edge 58, Type (0, 0), BuildingBlock: AJUNOK_clean_linker_0, # of connection points: 2
#     Edge 59, Type (0, 0), BuildingBlock: AJUNOK_clean_linker_0, # of connection points: 2
#     Edge 60, Type (0, 0), BuildingBlock: AJUNOK_clean_linker_0, # of connection points: 2
#     Edge 61, Type (0, 0), BuildingBlock: AJUNOK_clean_linker_0, # of connection points: 2
#     Edge 62, Type (0, 0), BuildingBlock: AJUNOK_clean_linker_0, # of connection points: 2
#     Edge 63, Type (0, 0), BuildingBlock: AJUNOK_clean_linker_0, # of connection points: 2
#     Edge 64, Type (0, 0), BuildingBlock: AJUNOK_clean_linker_0, # of connection points: 2
#     Edge 65, Type (0, 0), BuildingBlock: AJUNOK_clean_linker_0, # of connection points: 2
#     Edge 66, Type (0, 0), BuildingBlock: AJUNOK_clean_linker_0, # of connection points: 2
#     Edge 67, Type (0, 0), BuildingBlock: AJUNOK_clean_linker_0, # of connection points: 2
#     Edge 68, Type (0, 0), BuildingBlock: AJUNOK_clean_linker_0, # of connection points: 2
#     Edge 69, Type (0, 0), BuildingBlock: AJUNOK_clean_linker_0, # of connection points: 2
#     Edge 70, Type (0, 0), BuildingBlock: AJUNOK_clean_linker_0, # of connection points: 2
#     Edge 71, Type (0, 0), BuildingBlock: AJUNOK_clean_linker_0, # of connection points: 2
#     Edge 72, Type (0, 0), BuildingBlock: AJUNOK_clean_linker_0, # of connection points: 2
#     Edge 73, Type (0, 0), BuildingBlock: AJUNOK_clean_linker_0, # of connection points: 2
#     Edge 74, Type (0, 0), BuildingBlock: AJUNOK_clean_linker_0, # of connection points: 2
#     Edge 75, Type (0, 0), BuildingBlock: AJUNOK_clean_linker_0, # of connection points: 2
#     Edge 76, Type (0, 0), BuildingBlock: AJUNOK_clean_linker_0, # of connection points: 2
#     Edge 77, Type (0, 0), BuildingBlock: AJUNOK_clean_linker_0, # of connection points: 2
#     Edge 78, Type (0, 0), BuildingBlock: AJUNOK_clean_linker_0, # of connection points: 2
#     Edge 79, Type (0, 0), BuildingBlock: AJUNOK_clean_linker_0, # of connection points: 2
#     Edge 80, Type (0, 0), BuildingBlock: AJUNOK_clean_linker_0, # of connection points: 2
#     Edge 81, Type (0, 0), BuildingBlock: AJUNOK_clean_linker_0, # of connection points: 2
#     Edge 82, Type (0, 0), BuildingBlock: AJUNOK_clean_linker_0, # of connection points: 2
#     Edge 83, Type (0, 0), BuildingBlock: AJUNOK_clean_linker_0, # of connection points: 2
#     Edge 84, Type (0, 0), BuildingBlock: AJUNOK_clean_linker_0, # of connection points: 2
#     Edge 85, Type (0, 0), BuildingBlock: AJUNOK_clean_linker_0, # of connection points: 2
#     Edge 86, Type (0, 0), BuildingBlock: AJUNOK_clean_linker_0, # of connection points: 2
#     Edge 87, Type (0, 0), BuildingBlock: AJUNOK_clean_linker_0, # of connection points: 2
#     Edge 88, Type (0, 0), BuildingBlock: AJUNOK_clean_linker_0, # of connection points: 2
#     Edge 89, Type (0, 0), BuildingBlock: AJUNOK_clean_linker_0, # of connection points: 2
#     Edge 90, Type (0, 0), BuildingBlock: AJUNOK_clean_linker_0, # of connection points: 2
#     Edge 91, Type (0, 0), BuildingBlock: AJUNOK_clean_linker_0, # of connection points: 2
#     Edge 92, Type (0, 0), BuildingBlock: AJUNOK_clean_linker_0, # of connection points: 2
#     Edge 93, Type (0, 0), BuildingBlock: AJUNOK_clean_linker_0, # of connection points: 2
#     Edge 94, Type (0, 0), BuildingBlock: AJUNOK_clean_linker_0, # of connection points: 2
#     Edge 95, Type (0, 0), BuildingBlock: AJUNOK_clean_linker_0, # of connection points: 2
#     Edge 96, Type (0, 0), BuildingBlock: AJUNOK_clean_linker_0, # of connection points: 2
#     Edge 97, Type (0, 0), BuildingBlock: AJUNOK_clean_linker_0, # of connection points: 2
#     Edge 98, Type (0, 0), BuildingBlock: AJUNOK_clean_linker_0, # of connection points: 2
#     Edge 99, Type (0, 0), BuildingBlock: AJUNOK_clean_linker_0, # of connection points: 2
#     Edge 100, Type (0, 0), BuildingBlock: AJUNOK_clean_linker_0, # of connection points: 2
#     Edge 101, Type (0, 0), BuildingBlock: AJUNOK_clean_linker_0, # of connection points: 2
#     Edge 102, Type (0, 0), BuildingBlock: AJUNOK_clean_linker_0, # of connection points: 2
#     Edge 103, Type (0, 0), BuildingBlock: AJUNOK_clean_linker_0, # of connection points: 2
#     Edge 104, Type (0, 0), BuildingBlock: AJUNOK_clean_linker_0, # of connection points: 2
#     Edge 105, Type (0, 0), BuildingBlock: AJUNOK_clean_linker_0, # of connection points: 2
#     Edge 106, Type (0, 0), BuildingBlock: AJUNOK_clean_linker_0, # of connection points: 2
#     Edge 107, Type (0, 0), BuildingBlock: AJUNOK_clean_linker_0, # of connection points: 2
# Relax obj value: 0.149
# Max RMSD: 0.170
# Mean RMSD: 0.155
data_MOF--net-ict--node1-AZAVOO_clean_sbu_0--edge1-AJUNOK_clean_linker_0
_symmetry_space_group_name_H-M    P1
_symmetry_Int_Tables_number       1
_symmetry_cell_setting            triclinic
loop_
_symmetry_equiv_pos_as_xyz
'x, y, z'
_cell_length_a     49.145095
_cell_length_b     49.202412
_cell_length_c     26.909012
_cell_angle_alpha  89.816858
_cell_angle_beta   90.129352
_cell_angle_gamma 120.29607
loop_
_atom_site_label
_atom_site_type_symbol
_atom_site_fract_x
_atom_site_fract_y
_atom_site_fract_z
_atom_type_partial_charge
Mg0 Mg 0.22263 0.2276 0.07567 0.0
O1 O 0.21794 0.17855 0.07491 0.0
O2 O 0.1803 0.14907 0.12962 0.0
Mg3 Mg 0.16304 0.17856 0.16912 0.0
C4 C 0.2003 0.15224 0.09654 0.0
C5 C 0.27403 0.27071 0.00231 0.0
O6 O 0.27452 0.28998 0.03644 0.0
O7 O 0.17534 0.20754 0.03352 0.0
O8 O 0.14179 0.18239 0.09585 0.0
O9 O 0.25781 0.24592 0.13921 0.0
O10 O 0.20628 0.22117 0.14825 0.0
C11 C 0.14721 0.19192 0.05082 0.0
C12 C 0.23362 0.23482 0.16835 0.0
O13 O 0.25355 0.24159 0.00587 0.0
Mg14 Mg 0.77312 0.01164 0.04304 0.0
O15 O 0.82167 0.05732 0.05006 0.0
O16 O 0.85023 0.04743 0.10371 0.0
Mg17 Mg 0.82054 -0.00214 0.13523 0.0
C18 C 0.84747 0.06577 0.07314 0.0
C19 C 0.73815 0.0374 0.98034 0.0
O20 O 0.72192 0.02867 0.02186 0.0
O21 O 0.79609 0.98875 -0.00281 0.0
O22 O 0.82038 0.97852 0.05873 0.0
O23 O 0.75142 0.02182 0.11032 0.0
O24 O 0.77676 -0.00417 0.11311 0.0
C25 C 0.81235 0.97672 0.01318 0.0
C26 C 0.76095 0.00599 0.13618 0.0
O27 O 0.76145 0.03298 0.97592 0.0
Mg28 Mg 0.98601 0.78058 0.98482 0.0
O29 O -0.0046 0.78049 0.06861 0.0
O30 O 0.94953 0.74498 0.10268 0.0
Mg31 Mg 0.91014 0.72954 0.04467 0.0
C32 C 0.97908 0.76448 0.10586 0.0
C33 C 0.06415 0.82093 0.97163 0.0
O34 O 0.08893 0.81865 0.96056 0.0
O35 O 0.97699 0.731 0.97572 0.0
O36 O 0.92795 0.70053 0.00368 0.0
O37 O 0.97692 0.82133 -0.00957 0.0
O38 O 0.94064 0.77142 -0.00112 0.0
C39 C 0.95267 0.70402 0.98214 0.0
C40 C 0.94773 0.80031 -0.00153 0.0
O41 O 0.03717 0.79641 0.96909 0.0
Mg42 Mg 0.2165 0.22976 0.49346 0.0
O43 O 0.22297 0.23653 0.40975 0.0
O44 O 0.21097 0.27248 0.38487 0.0
Mg45 Mg 0.19116 0.28454 0.45337 0.0
C46 C 0.22094 0.25356 0.37599 0.0
C47 C 0.255 0.18936 0.48561 0.0
O48 O 0.28349 0.19349 0.48174 0.0
O49 O 0.2582 0.27826 0.50997 0.0
O50 O 0.24022 0.31034 0.48911 0.0
O51 O 0.16567 0.19072 0.48222 0.0
O52 O 0.18052 0.24056 0.49322 0.0
C53 C 0.26164 0.30566 0.50697 0.0
C54 C 0.15809 0.21232 0.48604 0.0
O55 O 0.25215 0.21345 0.48975 0.0
Mg56 Mg 0.76104 0.98691 0.43944 0.0
O57 O 0.76489 0.94195 0.43518 0.0
O58 O 0.79994 0.95022 0.3759 0.0
Mg59 Mg 0.81701 -0.00191 0.3394 0.0
C60 C 0.78099 0.93301 0.41001 0.0
C61 C 0.70554 0.96577 0.51232 0.0
O62 O 0.69652 0.9755 0.47348 0.0
O63 O 0.80984 0.01381 0.47776 0.0
O64 O 0.84072 0.02204 0.4118 0.0
O65 O 0.72411 0.97096 0.378 0.0
O66 O 0.77542 -0.00162 0.3663 0.0
C67 C 0.83721 0.02619 0.45763 0.0
C68 C 0.74768 0.98488 0.3478 0.0
O69 O 0.73266 0.96837 0.51153 0.0
Mg70 Mg 0.00558 0.78302 0.40324 0.0
O71 O 0.04737 0.83391 0.41215 0.0
O72 O 0.03765 0.86265 0.35845 0.0
Mg73 Mg -0.00556 0.83228 0.3108 0.0
C74 C 0.0542 0.86048 0.39316 0.0
C75 C 0.04462 0.76595 0.47547 0.0
O76 O 0.06248 0.77528 0.43564 0.0
O77 O 0.97247 0.79702 0.44234 0.0
O78 O 0.9643 0.82229 0.37997 0.0
O79 O 0.02824 0.77042 0.34015 0.0
O80 O -0.00125 0.79184 0.33004 0.0
C81 C 0.95847 0.8108 0.42388 0.0
C82 C 0.01527 0.78132 0.31047 0.0
O83 O 0.01938 0.76728 0.47521 0.0
Mg84 Mg 0.77659 0.80641 0.92571 0.0
O85 O 0.82371 0.81015 0.95037 0.0
O86 O 0.83255 0.82879 0.02825 0.0
Mg87 Mg 0.79605 0.84261 0.04884 0.0
C88 C 0.83989 0.81812 -0.00941 0.0
C89 C 0.74597 0.76731 0.83366 0.0
O90 O 0.72648 0.77676 0.84759 0.0
O91 O 0.7485 0.76536 0.97901 0.0
O92 O 0.75749 0.7903 0.05173 0.0
O93 O 0.80107 0.85441 0.89079 0.0
O94 O 0.78648 0.84449 0.96955 0.0
C95 C 0.74336 0.76526 0.02557 0.0
C96 C 0.7998 0.8647 0.93437 0.0
O97 O 0.76966 0.77404 0.86112 0.0
Mg98 Mg 0.1964 0.98501 0.95844 0.0
O99 O 0.19849 0.0287 -0.00463 0.0
O100 O 0.18446 0.01384 0.07416 0.0
Mg101 Mg 0.17167 0.96321 0.08789 0.0
C102 C 0.19349 0.0345 0.03975 0.0
C103 C 0.21861 0.99003 0.8544 0.0
O104 O 0.20625 0.96058 0.86873 0.0
O105 O 0.24203 -0.00511 -0.00242 0.0
O106 O 0.22296 0.9771 0.07368 0.0
O107 O 0.1451 0.96294 0.93863 0.0
O108 O 0.16262 0.95462 0.00862 0.0
C109 C 0.24555 0.98827 0.0423 0.0
C110 C 0.13894 0.94803 0.98052 0.0
O111 O 0.22074 0.01011 0.88635 0.0
Mg112 Mg 0.01789 0.23364 0.94668 0.0
O113 O 0.97337 0.19194 0.98327 0.0
O114 O 0.98768 0.18941 0.0612 0.0
Mg115 Mg 0.03951 0.22554 0.07393 0.0
C116 C 0.96697 0.17958 0.02676 0.0
C117 C 0.00693 0.25654 0.84803 0.0
O118 O 0.03604 0.27765 0.85976 0.0
O119 O 0.01131 0.26976 -0.00979 0.0
O120 O 0.02941 0.266 0.06469 0.0
O121 O 0.03663 0.20259 0.92117 0.0
O122 O 0.04694 0.22651 -0.00617 0.0
C123 C 0.01924 0.2792 0.03492 0.0
C124 C 0.05051 0.20829 0.96389 0.0
O125 O 0.99061 0.23519 0.87969 0.0
Mg126 Mg 0.78286 0.76281 0.52625 0.0
O127 O 0.78007 0.80553 0.49438 0.0
O128 O 0.79485 0.80865 0.41513 0.0
Mg129 Mg 0.80971 0.77279 0.39718 0.0
C130 C 0.78519 0.81834 0.45125 0.0
C131 C 0.75879 0.74214 0.62849 0.0
O132 O 0.77513 0.72868 0.61646 0.0
O133 O 0.73886 0.72784 0.48331 0.0
O134 O 0.75892 0.7321 0.40731 0.0
O135 O 0.83348 0.79282 0.55043 0.0
O136 O 0.81815 0.77107 0.47651 0.0
C137 C 0.7361 0.71886 0.43813 0.0
C138 C 0.84081 0.78815 0.50641 0.0
O139 O 0.75517 0.75889 0.59597 0.0
Mg140 Mg 0.22187 0.02432 0.53587 0.0
O141 O 0.17749 0.98121 0.5016 0.0
O142 O 0.17726 -0.0039 0.42285 0.0
Mg143 Mg 0.21802 0.04478 0.40565 0.0
C144 C 0.16524 0.97608 0.45807 0.0
C145 C 0.23227 0.02103 0.6432 0.0
O146 O 0.2433 0.05056 0.63034 0.0
O147 O 0.25503 0.01108 0.49609 0.0
O148 O 0.25274 0.02764 0.41955 0.0
O149 O 0.1953 0.04913 0.55552 0.0
O150 O 0.21947 0.0547 0.48459 0.0
C151 C 0.26389 0.01609 0.45062 0.0
C152 C 0.20349 0.06265 0.51251 0.0
O153 O 0.22064 0.00013 0.60929 0.0
Mg154 Mg 0.97441 0.19936 0.54399 0.0
O155 O 0.02012 0.19873 0.52431 0.0
O156 O 0.01311 0.17931 0.44717 0.0
Mg157 Mg 0.964 0.16626 0.41924 0.0
C158 C 0.02986 0.19042 0.48629 0.0
C159 C 0.97307 0.22586 0.64196 0.0
O160 O 0.94376 0.20641 0.62871 0.0
O161 O 0.9888 0.24132 0.49288 0.0
O162 O 0.97676 0.21843 0.41827 0.0
O163 O 0.95036 0.15051 0.57589 0.0
O164 O 0.94891 0.16187 0.49688 0.0
C165 C 0.98579 0.24261 0.44591 0.0
C166 C 0.94052 0.1409 0.53123 0.0
O167 O -0.00495 0.23029 0.61222 0.0
Mg168 Mg 0.88867 0.54227 0.41579 0.0
O169 O 0.88859 0.49541 0.40859 0.0
O170 O 0.85118 0.4616 0.46017 0.0
Mg171 Mg 0.82967 0.48583 0.50418 0.0
C172 C 0.87239 0.46793 0.42749 0.0
C173 C 0.9483 0.56936 0.34657 0.0
O174 O 0.96017 0.56633 0.38861 0.0
O175 O 0.84115 0.52185 0.37361 0.0
O176 O 0.80787 0.49269 0.43389 0.0
O177 O 0.92267 0.55999 0.48178 0.0
O178 O 0.87125 0.53114 0.48807 0.0
C179 C 0.81304 0.5048 0.39047 0.0
C180 C 0.89798 0.54589 0.5098 0.0
O181 O 0.9192 0.56107 0.34519 0.0
Mg182 Mg 0.43425 0.33565 0.37236 0.0
O183 O 0.4845 0.37846 0.3826 0.0
O184 O 0.50837 0.36544 0.44071 0.0
Mg185 Mg 0.47427 0.31625 0.47065 0.0
C186 C 0.50866 0.38489 0.40897 0.0
C187 C 0.40529 0.36518 0.30348 0.0
O188 O 0.38667 0.3565 0.34245 0.0
O189 O 0.45455 0.30884 0.33051 0.0
O190 O 0.47423 0.29562 0.3953 0.0
O191 O 0.41309 0.34881 0.43693 0.0
O192 O 0.43361 0.31843 0.4432 0.0
C193 C 0.4678 0.29431 0.34906 0.0
C194 C 0.41917 0.33078 0.46412 0.0
O195 O 0.42776 0.35933 0.30308 0.0
Mg196 Mg 0.63848 0.11589 0.33719 0.0
O197 O 0.64903 0.11015 0.4179 0.0
O198 O 0.60825 0.0669 0.44908 0.0
Mg199 Mg 0.57027 0.0467 0.3884 0.0
C200 C 0.63582 0.09081 0.45349 0.0
C201 C 0.69595 0.18009 0.317 0.0
O202 O 0.67242 0.18466 0.30677 0.0
O203 O 0.64547 0.07565 0.3109 0.0
O204 O 0.60106 0.03456 0.33982 0.0
O205 O 0.6166 0.14365 0.36068 0.0
O206 O 0.5895 0.09227 0.34837 0.0
C207 C 0.62678 0.04599 0.31529 0.0
C208 C 0.58966 0.11778 0.35981 0.0
O209 O 0.69001 0.15269 0.3294 0.0
Mg210 Mg 0.8446 0.53375 0.82506 0.0
O211 O 0.86391 0.54166 0.74524 0.0
O212 O 0.8673 0.58574 0.71624 0.0
Mg213 Mg 0.84585 0.6032 0.77467 0.0
C214 C 0.87171 0.56248 0.71137 0.0
C215 C 0.85038 0.47491 0.80803 0.0
O216 O 0.83177 0.47228 0.77097 0.0
O217 O 0.89059 0.57421 0.85544 0.0
O218 O 0.88728 0.61521 0.8267 0.0
O219 O 0.79484 0.50546 0.7989 0.0
O220 O 0.81965 0.55676 0.81154 0.0
C221 C 0.90115 0.60376 0.85209 0.0
C222 C 0.79411 0.5314 0.7997 0.0
O223 O 0.86035 0.49837 0.837 0.0
Mg224 Mg 0.41506 0.32035 0.76703 0.0
O225 O 0.42404 0.2782 0.76802 0.0
O226 O 0.46023 0.28876 0.70964 0.0
Mg227 Mg 0.47316 0.33467 0.66935 0.0
C228 C 0.44216 0.27116 0.74428 0.0
C229 C 0.37069 0.3168 0.84831 0.0
O230 O 0.37456 0.34002 0.81931 0.0
O231 O 0.46287 0.35234 0.80556 0.0
O232 O 0.49482 0.3621 0.74048 0.0
O233 O 0.37857 0.29948 0.70546 0.0
O234 O 0.42949 0.33133 0.69393 0.0
C235 C 0.49031 0.36686 0.78558 0.0
C236 C 0.40191 0.31516 0.67538 0.0
O237 O 0.386 0.30295 0.83855 0.0
Mg238 Mg 0.67203 0.11919 0.74845 0.0
O239 O 0.71845 0.16692 0.75521 0.0
O240 O 0.71312 0.19923 0.70296 0.0
Mg241 Mg 0.66812 0.17298 0.65691 0.0
C242 C 0.72854 0.19424 0.73645 0.0
C243 C 0.70714 0.09677 0.81827 0.0
O244 O 0.72374 0.10362 0.77717 0.0
O245 O 0.64424 0.13921 0.78861 0.0
O246 O 0.63908 0.16655 0.72637 0.0
O247 O 0.68934 0.10121 0.68522 0.0
O248 O 0.66582 0.1288 0.67542 0.0
C249 C 0.6326 0.1553 0.7704 0.0
C250 C 0.67862 0.11438 0.65563 0.0
O251 O 0.68399 0.10155 0.81969 0.0
Mg252 Mg 0.41726 0.11691 0.27033 0.0
O253 O 0.46191 0.11865 0.30239 0.0
O254 O 0.4703 0.14128 0.37728 0.0
Mg255 Mg 0.43274 0.15416 0.39283 0.0
C256 C 0.47777 0.12853 0.34278 0.0
C257 C 0.39662 0.08777 0.17093 0.0
O258 O 0.38092 0.10218 0.18097 0.0
O259 O 0.38664 0.07582 0.32243 0.0
O260 O 0.39537 0.10136 0.39456 0.0
O261 O 0.44505 0.16478 0.23591 0.0
O262 O 0.42635 0.15567 0.31258 0.0
C263 C 0.38151 0.07605 0.36897 0.0
C264 C 0.44238 0.17557 0.27817 0.0
O265 O 0.41357 0.086 0.20519 0.0
Mg266 Mg 0.88505 0.31011 0.28488 0.0
O267 O 0.88793 0.35419 0.32309 0.0
O268 O 0.86935 0.33607 0.39913 0.0
Mg269 Mg 0.85529 0.28491 0.41065 0.0
C270 C 0.88037 0.3582 0.36696 0.0
C271 C 0.89888 0.31075 0.18307 0.0
O272 O 0.88059 0.28234 0.20108 0.0
O273 O 0.92861 0.31628 0.32592 0.0
O274 O 0.90657 0.29712 0.39996 0.0
O275 O 0.83601 0.29383 0.26065 0.0
O276 O 0.84809 0.27909 0.33069 0.0
C277 C 0.93017 0.30809 0.37049 0.0
C278 C 0.82675 0.27775 0.30136 0.0
O279 O 0.91048 0.334 0.21301 0.0
Mg280 Mg 0.68351 0.54996 0.29033 0.0
O281 O 0.63867 0.50763 0.32557 0.0
O282 O 0.6524 0.5061 0.40424 0.0
Mg283 Mg 0.70388 0.54265 0.41855 0.0
C284 C 0.63196 0.49573 0.36942 0.0
C285 C 0.67529 0.57374 0.19158 0.0
O286 O 0.7048 0.5928 0.2042 0.0
O287 O 0.67462 0.5847 0.33327 0.0
O288 O 0.69188 0.58195 0.40892 0.0
O289 O 0.70372 0.52006 0.26554 0.0
O290 O 0.71216 0.54302 0.33877 0.0
C291 C 0.68118 0.59417 0.37819 0.0
C292 C 0.71685 0.52548 0.30886 0.0
O293 O 0.6575 0.55234 0.22219 0.0
Mg294 Mg 0.45717 0.10845 0.86577 0.0
O295 O 0.4521 0.15001 0.83373 0.0
O296 O 0.46831 0.15428 0.75507 0.0
Mg297 Mg 0.48656 0.12091 0.73796 0.0
C298 C 0.45713 0.16286 0.7906 0.0
C299 C 0.43051 0.08411 0.9663 0.0
O300 O 0.4488 0.07265 0.9553 0.0
O301 O 0.41494 0.07244 0.82049 0.0
O302 O 0.43663 0.07812 0.74549 0.0
O303 O 0.50717 0.13994 0.89239 0.0
O304 O 0.49386 0.11917 0.81763 0.0
C305 C 0.41346 0.06369 0.77542 0.0
C306 C 0.51571 0.13625 0.84868 0.0
O307 O 0.4272 0.10133 0.93426 0.0
Mg308 Mg 0.91027 0.34756 0.86587 0.0
O309 O 0.86414 0.30507 0.83374 0.0
O310 O 0.86169 0.32102 0.75652 0.0
Mg311 Mg 0.9028 0.36929 0.73819 0.0
C312 C 0.85032 0.30081 0.7916 0.0
C313 C 0.89154 0.31906 0.96941 0.0
O314 O 0.9125 0.32061 0.93781 0.0
O315 O 0.94165 0.33451 0.82192 0.0
O316 O 0.93791 0.35202 0.74707 0.0
O317 O 0.88381 0.37026 0.89264 0.0
O318 O 0.90509 0.37812 0.81796 0.0
C319 C 0.94953 0.33997 0.77624 0.0
C320 C 0.8884 0.38321 0.84926 0.0
O321 O 0.91152 0.32115 0.93735 0.0
Mg322 Mg 0.62694 0.54252 0.88109 0.0
O323 O 0.6676 0.5359 0.85246 0.0
O324 O 0.65564 0.5178 0.77438 0.0
Mg325 Mg 0.60914 0.51402 0.75282 0.0
C326 C 0.67391 0.52649 0.81205 0.0
C327 C 0.6334 0.56103 0.98683 0.0
O328 O 0.60315 0.54386 0.97687 0.0
O329 O 0.6471 0.58785 0.83555 0.0
O330 O 0.6334 0.56804 0.75903 0.0
O331 O 0.59889 0.49265 0.90765 0.0
O332 O 0.5965 0.50844 0.83166 0.0
C333 C 0.64622 0.59153 0.78867 0.0
C334 C 0.58763 0.48572 0.8631 0.0
O335 O 0.65294 0.56763 0.95149 0.0
Mg336 Mg 0.55655 0.88587 0.74101 0.0
O337 O 0.55536 0.83857 0.73295 0.0
O338 O 0.5154 0.80445 0.78028 0.0
Mg339 Mg 0.49502 0.82929 0.82545 0.0
C340 C 0.53723 0.81064 0.7489 0.0
C341 C 0.61579 0.9068 0.67536 0.0
O342 O 0.62295 0.89673 0.7158 0.0
O343 O 0.51027 0.86666 0.69592 0.0
O344 O 0.47503 0.83739 0.75406 0.0
O345 O 0.58926 0.90229 0.80803 0.0
O346 O 0.53764 0.87437 0.81222 0.0
C347 C 0.48167 0.84979 0.7108 0.0
C348 C 0.56407 0.88866 0.83504 0.0
O349 O 0.58904 0.90503 0.67301 0.0
Mg350 Mg 0.10441 0.67875 0.70971 0.0
O351 O 0.15544 0.7213 0.71313 0.0
O352 O 0.1826 0.70815 0.7644 0.0
Mg353 Mg 0.14984 0.65995 0.79878 0.0
C354 C 0.18126 0.72748 0.73421 0.0
C355 C 0.0712 0.70537 0.64132 0.0
O356 O 0.05173 0.69513 0.67927 0.0
O357 O 0.12079 0.6501 0.66345 0.0
O358 O 0.14379 0.63703 0.72343 0.0
O359 O 0.08722 0.693 0.77838 0.0
O360 O 0.10799 0.66275 0.77984 0.0
C361 C 0.13411 0.63491 0.67876 0.0
C362 C 0.09498 0.67556 0.80381 0.0
O363 O 0.09493 0.70148 0.64193 0.0
Mg364 Mg 0.31935 0.47125 0.66746 0.0
O365 O 0.32495 0.45987 0.7483 0.0
O366 O 0.28084 0.41638 0.77028 0.0
Mg367 Mg 0.24686 0.40065 0.70428 0.0
C368 C 0.30866 0.43859 0.78015 0.0
C369 C 0.37959 0.53305 0.64672 0.0
O370 O 0.35797 0.53812 0.62732 0.0
O371 O 0.32652 0.43197 0.63825 0.0
O372 O 0.28015 0.3902 0.65929 0.0
O373 O 0.29694 0.49892 0.69057 0.0
O374 O 0.27043 0.44837 0.67186 0.0
C375 C 0.30727 0.40235 0.63882 0.0
C376 C 0.27006 0.47334 0.68473 0.0
O377 O 0.37123 0.50645 0.66613 0.0
Mg378 Mg 0.51932 0.88391 0.15307 0.0
O379 O 0.53437 0.88968 0.07154 0.0
O380 O 0.5376 0.93359 0.04223 0.0
Mg381 Mg 0.51918 0.95261 0.1034 0.0
C382 C 0.54103 0.90975 0.03691 0.0
C383 C 0.51523 0.82047 0.17454 0.0
O384 O 0.48742 0.81449 0.1901 0.0
O385 O 0.56729 0.92482 0.17756 0.0
O386 O 0.56294 0.96553 0.15079 0.0
O387 O 0.46889 0.85543 0.13189 0.0
O388 O 0.49346 0.90687 0.14331 0.0
C389 C 0.5779 0.95442 0.17413 0.0
C390 C 0.4678 0.88116 0.13286 0.0
O391 O 0.53494 0.848 0.15939 0.0
Mg392 Mg 0.0913 0.65522 0.10822 0.0
O393 O 0.10353 0.61524 0.10436 0.0
O394 O 0.14121 0.63066 0.04711 0.0
Mg395 Mg 0.15165 0.67672 0.01052 0.0
C396 C 0.12351 0.61107 0.08012 0.0
C397 C 0.03304 0.6264 0.17652 0.0
O398 O 0.02321 0.6328 0.13509 0.0
O399 O 0.13843 0.68753 0.14908 0.0
O400 O 0.1712 0.70109 0.08417 0.0
O401 O 0.056 0.63571 0.04407 0.0
O402 O 0.10664 0.66944 0.03585 0.0
C403 C 0.16603 0.70363 0.12992 0.0
C404 C 0.07966 0.65313 0.01554 0.0
O405 O 0.06177 0.6334 0.17916 0.0
Mg406 Mg 0.34722 0.4573 0.07858 0.0
O407 O 0.39452 0.50432 0.08485 0.0
O408 O 0.391 0.5377 0.03239 0.0
Mg409 Mg 0.34376 0.51351 -0.00856 0.0
C410 C 0.40611 0.53145 0.06473 0.0
C411 C 0.38163 0.4308 0.14221 0.0
O412 O 0.39621 0.43625 0.09933 0.0
O413 O 0.3207 0.47711 0.12269 0.0
O414 O 0.31637 0.50654 0.06312 0.0
O415 O 0.3625 0.44031 0.011 0.0
O416 O 0.33849 0.46769 0.00728 0.0
C417 C 0.30965 0.49417 0.10644 0.0
C418 C 0.35028 0.45337 0.98438 0.0
O419 O 0.36019 0.43792 0.14697 0.0
Mg420 Mg 0.09115 0.45888 0.5943 0.0
O421 O 0.13877 0.46692 0.62431 0.0
O422 O 0.14567 0.48851 0.69985 0.0
Mg423 Mg 0.10346 0.49386 0.71791 0.0
C424 C 0.15486 0.47806 0.66422 0.0
C425 C 0.07176 0.42842 0.49583 0.0
O426 O 0.05377 0.44041 0.50565 0.0
O427 O 0.0662 0.41634 0.64516 0.0
O428 O 0.07258 0.43958 0.71882 0.0
O429 O 0.11308 0.50698 0.56079 0.0
O430 O 0.09552 0.49529 0.63806 0.0
C431 C 0.06161 0.41479 0.69199 0.0
C432 C 0.10924 0.51617 0.60379 0.0
O433 O 0.09075 0.42978 0.52921 0.0
Mg434 Mg 0.5699 0.66315 0.61012 0.0
O435 O 0.56489 0.70425 0.6442 0.0
O436 O 0.54322 0.68499 0.71867 0.0
Mg437 Mg 0.53628 0.63684 0.73458 0.0
C438 C 0.55336 0.70655 0.68567 0.0
C439 C 0.59404 0.66882 0.50951 0.0
O440 O 0.58011 0.63934 0.52438 0.0
O441 O 0.61352 0.67561 0.65717 0.0
O442 O 0.5893 0.65588 0.72962 0.0
O443 O 0.52087 0.64056 0.58108 0.0
O444 O 0.53338 0.63011 0.6545 0.0
C445 C 0.61422 0.6691 0.70303 0.0
C446 C 0.5119 0.62544 0.62274 0.0
O447 O 0.59722 0.68961 0.5409 0.0
Mg448 Mg 0.35424 0.89703 0.61437 0.0
O449 O 0.30953 0.85382 0.64799 0.0
O450 O 0.32336 0.84881 0.7251 0.0
Mg451 Mg 0.37496 0.88502 0.74002 0.0
C452 C 0.30291 0.83997 0.69035 0.0
C453 C 0.34302 0.92363 0.51912 0.0
O454 O 0.37234 0.94418 0.53066 0.0
O455 O 0.34678 0.93118 0.66178 0.0
O456 O 0.36408 0.92528 0.73567 0.0
O457 O 0.3736 0.86723 0.58525 0.0
O458 O 0.3832 0.88869 0.65987 0.0
C459 C 0.35379 0.93901 0.70729 0.0
C460 C 0.38718 0.87161 0.62806 0.0
O461 O 0.32712 0.90092 0.54898 0.0
Mg462 Mg 0.1312 0.44359 0.19438 0.0
O463 O 0.13006 0.48755 0.16408 0.0
O464 O 0.14846 0.49299 0.08648 0.0
Mg465 Mg 0.1626 0.45663 0.06812 0.0
C466 C 0.13762 0.50186 0.12207 0.0
C467 C 0.10079 0.41752 0.29161 0.0
O468 O 0.11501 0.40213 0.27835 0.0
O469 O 0.08866 0.41081 0.14706 0.0
O470 O 0.11072 0.41674 0.07234 0.0
O471 O 0.18061 0.47238 0.22389 0.0
O472 O 0.16838 0.45305 0.14797 0.0
C473 C 0.08691 0.40326 0.10131 0.0
C474 C 0.18975 0.46919 0.18039 0.0
O475 O 0.10103 0.43762 0.26147 0.0
Mg476 Mg 0.57817 0.69356 0.19821 0.0
O477 O 0.5363 0.64818 0.16232 0.0
O478 O 0.53342 0.66478 0.08608 0.0
Mg479 Mg 0.56823 0.71664 0.07317 0.0
C480 C 0.52399 0.64302 0.11873 0.0
C481 C 0.60212 0.69263 0.29666 0.0
O482 O 0.61551 0.72149 0.27915 0.0
O483 O 0.61491 0.68888 0.15261 0.0
O484 O 0.60927 0.70721 0.07946 0.0
O485 O 0.54588 0.70967 0.22609 0.0
O486 O 0.56952 0.72273 0.1534 0.0
C487 C 0.62336 0.69722 0.10759 0.0
C488 C 0.55126 0.72515 0.18489 0.0
O489 O 0.58388 0.67022 0.26775 0.0
Mg490 Mg 0.29443 0.88202 0.21439 0.0
O491 O 0.33835 0.88073 0.18572 0.0
O492 O 0.32559 0.8594 0.1097 0.0
Mg493 Mg 0.27545 0.84673 0.09029 0.0
C494 C 0.34509 0.87141 0.1456 0.0
C495 C 0.29963 0.90645 0.31556 0.0
O496 O 0.26969 0.88733 0.30545 0.0
O497 O 0.30636 0.92369 0.16324 0.0
O498 O 0.29041 0.89928 0.09007 0.0
O499 O 0.2725 0.83343 0.24724 0.0
O500 O 0.26574 0.84402 0.1699 0.0
C501 C 0.30145 0.92414 0.11664 0.0
C502 C 0.26016 0.82343 0.20391 0.0
O503 O 0.31974 0.91255 0.28129 0.0
C504 C 0.33143 0.27395 0.90419 0.0
C505 C 0.34698 0.30565 0.88883 0.0
C506 C 0.30734 0.26259 0.94004 0.0
C507 C 0.29834 0.28266 0.96258 0.0
H508 H 0.33746 0.25761 0.88771 0.0
H509 H 0.29601 0.23801 0.95065 0.0
S510 S 0.3323 0.36784 0.93626 0.0
N511 N 0.35182 0.35696 0.89929 0.0
N512 N 0.30715 0.33587 0.96705 0.0
C513 C 0.31399 0.31448 0.94791 0.0
C514 C 0.33812 0.3259 0.91097 0.0
C515 C 0.74011 0.07673 0.85717 0.0
C516 C 0.7147 0.08228 0.86088 0.0
C517 C 0.74744 0.06226 0.89577 0.0
C518 C 0.7297 0.05263 0.93991 0.0
H519 H 0.75452 0.08348 0.82399 0.0
H520 H 0.76722 0.05858 0.89079 0.0
S521 S 0.66101 0.06216 0.96905 0.0
N522 N 0.67195 0.07727 0.91284 0.0
N523 N 0.68561 0.0501 0.98528 0.0
C524 C 0.7043 0.05819 0.94435 0.0
C525 C 0.69685 0.07298 0.90496 0.0
C526 C 0.92943 0.64619 0.97114 0.0
C527 C 0.95005 0.67698 0.9542 0.0
C528 C 0.91735 0.62061 0.93836 0.0
C529 C 0.925 0.62528 0.88756 0.0
H530 H 0.92031 0.64224 0.00872 0.0
H531 H 0.8989 0.59789 0.95159 0.0
S532 S 0.98301 0.69982 0.82687 0.0
N533 N 0.98205 0.7096 0.88523 0.0
N534 N 0.95833 0.6615 0.82363 0.0
C535 C 0.94859 0.65509 0.87166 0.0
C536 C 0.96141 0.68105 0.9051 0.0
C537 C 0.31095 0.38775 0.55311 0.0
C538 C 0.31182 0.38204 0.60413 0.0
C539 C 0.2984 0.36283 0.51913 0.0
C540 C 0.28721 0.33174 0.53518 0.0
H541 H 0.31572 0.41066 0.54035 0.0
H542 H 0.29422 0.36742 0.4813 0.0
S543 S 0.29365 0.30659 0.66264 0.0
N544 N 0.30696 0.34473 0.66749 0.0
N545 N 0.28482 0.29793 0.60335 0.0
C546 C 0.29325 0.3268 0.58456 0.0
C547 C 0.3052 0.35205 0.6193 0.0
C548 C 0.63316 0.93642 0.59471 0.0
C549 C 0.63905 0.92127 0.63419 0.0
C550 C 0.65491 0.9509 0.55601 0.0
C551 C 0.68358 0.9509 0.55494 0.0
H552 H 0.6116 0.93733 0.59368 0.0
H553 H 0.64908 0.96222 0.52666 0.0
S554 S 0.71016 0.91357 0.64848 0.0
N555 N 0.67563 0.9066 0.66921 0.0
N556 N 0.71639 0.93378 0.59651 0.0
C557 C 0.68979 0.93571 0.59403 0.0
C558 C 0.66759 0.92092 0.63355 0.0
C559 C 0.03046 0.7362 0.55642 0.0
C560 C 0.0526 0.75188 0.51833 0.0
C561 C 0.03674 0.72134 0.5958 0.0
C562 C 0.06544 0.72147 0.59895 0.0
H563 H 0.00782 0.73495 0.55557 0.0
H564 H 0.01869 0.70939 0.62378 0.0
S565 S 0.13225 0.76077 0.51039 0.0
N566 N 0.1051 0.76764 0.48748 0.0
N567 N 0.11678 0.73979 0.56128 0.0
C568 C 0.08803 0.73748 0.56155 0.0
C569 C 0.08166 0.75266 0.52141 0.0
C570 C 0.65878 0.70209 0.03808 0.0
C571 C 0.65404 0.70231 0.08962 0.0
C572 C 0.689 0.71927 0.01742 0.0
C573 C 0.71542 0.73764 0.04768 0.0
H574 H 0.63874 0.69125 0.01311 0.0
H575 H 0.69101 0.72098 0.9773 0.0
S576 S 0.7166 0.73854 0.1855 0.0
N577 N 0.67896 0.71638 0.17099 0.0
N578 N 0.73578 0.74902 0.13214 0.0
C579 C 0.7115 0.73409 0.09955 0.0
C580 C 0.68073 0.71625 0.12061 0.0
C581 C 0.29526 0.97112 0.12599 0.0
C582 C 0.30137 0.95187 0.09489 0.0
C583 C 0.28135 0.98779 0.10696 0.0
C584 C 0.27346 0.98598 0.05627 0.0
H585 H 0.29747 0.97029 0.16596 0.0
H586 H 0.27331 -0.00099 0.13298 0.0
S587 S 0.29524 0.94823 0.95737 0.0
N588 N 0.30658 0.93905 0.00948 0.0
N589 N 0.28049 0.97049 0.97378 0.0
C590 C 0.28491 0.97177 0.02378 0.0
C591 C 0.29884 0.95456 0.04317 0.0
C592 C 0.04353 0.34855 0.11789 0.0
C593 C 0.0592 0.37359 0.08402 0.0
C594 C 0.02637 0.31738 0.10124 0.0
C595 C 0.02402 0.31024 0.05021 0.0
H596 H 0.04737 0.35258 0.1575 0.0
H597 H 0.01765 0.29867 0.12865 0.0
S598 S 0.0517 0.36811 0.94674 0.0
N599 N 0.06477 0.38981 -0.00255 0.0
N600 N 0.03206 0.3312 0.96605 0.0
C601 C 0.03504 0.33533 0.01609 0.0
C602 C 0.05289 0.36709 0.03307 0.0
C603 C 0.68544 0.63168 0.44409 0.0
C604 C 0.6824 0.62379 0.3933 0.0
C605 C 0.6986 0.66304 0.45933 0.0
C606 C 0.70954 0.68755 0.42419 0.0
H607 H 0.68052 0.61398 0.47221 0.0
H608 H 0.70371 0.66824 0.49848 0.0
S609 S 0.69711 0.67841 0.28797 0.0
N610 N 0.68371 0.64223 0.30871 0.0
N611 N 0.70901 0.70125 0.33754 0.0
C612 C 0.70183 0.67947 0.37398 0.0
C613 C 0.68808 0.64748 0.35842 0.0
C614 C 0.29718 0.01382 0.38351 0.0
C615 C 0.29279 0.0162 0.43472 0.0
C616 C 0.32735 0.02965 0.36239 0.0
C617 C 0.35397 0.04845 0.39192 0.0
H618 H 0.27703 0.00313 0.35877 0.0
H619 H 0.32919 0.03041 0.32223 0.0
S620 S 0.35596 0.05176 0.52964 0.0
N621 N 0.3181 0.03075 0.51573 0.0
N622 N 0.37488 0.06054 0.47604 0.0
C623 C 0.35031 0.04581 0.44391 0.0
C624 C 0.31958 0.02952 0.46543 0.0
C625 C 0.96313 0.30459 0.43741 0.0
C626 C 0.95695 0.30431 0.38628 0.0
C627 C 0.97712 0.288 0.4564 0.0
C628 C 0.98489 0.27012 0.42487 0.0
H629 H 0.95408 0.31486 0.46345 0.0
H630 H 0.97829 0.28628 0.4964 0.0
S631 S 0.98312 0.27054 0.28702 0.0
N632 N 0.96703 0.29159 0.30359 0.0
N633 N -0.00701 0.26001 0.3393 0.0
C634 C 0.98361 0.27402 0.37321 0.0
C635 C 0.96972 0.2913 0.35384 0.0
C636 C 0.02194 0.60738 0.26517 0.0
C637 C 0.01085 0.61134 0.21902 0.0
C638 C 0.00154 0.59364 0.30582 0.0
C639 C 0.96907 0.58318 0.30219 0.0
H640 H 0.04668 0.61514 0.2702 0.0
H641 H 0.01147 0.59142 0.34051 0.0
S642 S 0.92768 0.58705 0.18909 0.0
N643 N 0.96484 0.60288 0.17185 0.0
N644 N 0.92673 0.57717 0.24798 0.0
C645 C 0.95757 0.58667 0.25609 0.0
C646 C 0.97835 0.6007 0.21468 0.0
C647 C 0.37478 0.38776 0.26365 0.0
C648 C 0.40015 0.38207 0.26167 0.0
C649 C 0.36927 0.40383 0.22536 0.0
C650 C 0.38881 0.41489 0.18319 0.0
H651 H 0.35883 0.37968 0.29506 0.0
H652 H 0.34925 0.40728 0.22875 0.0
S653 S 0.45893 0.40676 0.1599 0.0
N654 N 0.44534 0.38928 0.21403 0.0
N655 N 0.43503 0.41937 0.14213 0.0
C656 C 0.4144 0.40952 0.18074 0.0
C657 C 0.42005 0.39317 0.21986 0.0
C658 C 0.621 0.00863 0.19361 0.0
C659 C 0.60388 0.97657 0.20697 0.0
C660 C 0.63394 0.03218 0.22998 0.0
C661 C 0.62965 0.02428 0.28075 0.0
H662 H 0.62114 0.01562 0.15533 0.0
H663 H 0.64334 0.05639 0.21832 0.0
S664 S 0.59614 0.94428 0.33418 0.0
N665 N 0.59084 0.93844 0.27365 0.0
N666 N 0.61448 0.98281 0.342 0.0
C667 C 0.61753 -0.0074 0.29401 0.0
C668 C 0.6048 0.96862 0.25696 0.0
C669 C 0.36715 -0.00568 0.6915 0.0
C670 C 0.35712 0.96904 0.72503 0.0
C671 C 0.38224 0.02548 0.70853 0.0
C672 C 0.38741 0.03239 0.75963 0.0
H673 H 0.36652 0.99038 0.65182 0.0
H674 H 0.39244 0.04429 0.6813 0.0
S675 S 0.3575 0.97406 0.86251 0.0
N676 N 0.34737 0.95255 0.81151 0.0
N677 N 0.3753 0.01105 0.84363 0.0
C678 C 0.37321 0.00715 0.79351 0.0
C679 C 0.35819 0.97544 0.77613 0.0
C680 C 0.03505 0.38236 0.76704 0.0
C681 C 0.03808 0.38441 0.7149 0.0
C682 C 0.00615 0.36148 0.78939 0.0
C683 C 0.97946 0.34275 0.76 0.0
H684 H 0.05383 0.39948 0.79042 0.0
H685 H 0.00366 0.36396 0.82887 0.0
S686 S 0.97884 0.32924 0.6247 0.0
N687 N 0.01503 0.35805 0.63645 0.0
N688 N 0.96042 0.31964 0.67876 0.0
C689 C 0.98407 0.33971 0.70934 0.0
C690 C 0.01358 0.36059 0.68652 0.0
C691 C 0.65697 0.62721 0.71612 0.0
C692 C 0.65472 0.6229 0.76809 0.0
C693 C 0.65056 0.64907 0.69348 0.0
C694 C 0.64095 0.66651 0.72227 0.0
H695 H 0.65988 0.61109 0.69245 0.0
H696 H 0.64791 0.64822 0.65342 0.0
S697 S 0.64557 0.67414 0.85926 0.0
N698 N 0.65327 0.64575 0.84758 0.0
N699 N 0.64041 0.68622 0.80455 0.0
C700 C 0.6457 0.66748 0.77388 0.0
C701 C 0.65253 0.64548 0.79709 0.0
C702 C 0.1862 0.06912 0.09936 0.0
C703 C 0.19725 0.06564 0.05287 0.0
C704 C 0.18818 0.09738 0.1133 0.0
C705 C 0.20149 0.12376 0.08167 0.0
H706 H 0.17532 0.04965 0.12533 0.0
H707 H 0.17881 0.09835 0.14923 0.0
S708 S 0.23547 0.12799 0.95672 0.0
N709 N 0.22315 0.09165 0.97568 0.0
N710 N 0.22695 0.14503 0.00204 0.0
C711 C 0.21348 0.12109 0.03551 0.0
C712 C 0.21127 0.09201 0.02106 0.0
C713 C 0.93078 0.13537 0.08296 0.0
C714 C 0.93518 0.15206 0.03819 0.0
C715 C 0.90208 0.10838 0.09442 0.0
C716 C 0.87613 0.09669 0.06193 0.0
H717 H 0.94992 0.1427 0.10927 0.0
H718 H 0.9005 0.09625 0.12892 0.0
S719 S 0.87416 0.13255 0.9412 0.0
N720 N 0.91033 0.15565 0.96205 0.0
N721 N 0.85622 0.10483 0.98372 0.0
C722 C 0.87966 0.11368 0.01775 0.0
C723 C 0.90916 0.14126 0.00582 0.0
C724 C 0.89095 0.82642 0.95655 0.0
C725 C 0.8681 0.81477 -0.00564 0.0
C726 C 0.91796 0.82357 0.95993 0.0
C727 C 0.92253 0.80823 0.00056 0.0
H728 H 0.88795 0.83785 0.92423 0.0
H729 H 0.93468 0.83219 0.92952 0.0
S730 S 0.8698 0.77383 0.10928 0.0
N731 N 0.85228 0.78818 0.07432 0.0
N732 N 0.90229 0.78161 0.07941 0.0
C733 C 0.89999 0.79669 0.03865 0.0
C734 C 0.87297 0.80032 0.0359 0.0
C735 C 0.11715 0.22495 0.51253 0.0
C736 C 0.12502 0.20546 0.48528 0.0
C737 C 0.08624 0.21942 0.51368 0.0
C738 C 0.06201 0.1946 0.48665 0.0
H739 H 0.13502 0.24458 0.53371 0.0
H740 H 0.08147 0.23517 0.53509 0.0
S741 S 0.07016 0.13669 0.4092 0.0
N742 N 0.10598 0.16006 0.43118 0.0
N743 N 0.04795 0.15007 0.43193 0.0
C744 C 0.06954 0.17491 0.45907 0.0
C745 C 0.10098 0.18019 0.4588 0.0
C746 C 0.79113 0.86193 0.39581 0.0
C747 C 0.78147 0.84627 0.44198 0.0
C748 C 0.79 0.88924 0.38579 0.0
C749 C 0.77895 0.90233 0.42119 0.0
H750 H 0.80034 0.85347 0.36701 0.0
H751 H 0.79829 0.90038 0.34987 0.0
S752 S 0.74903 0.86991 0.5471 0.0
N753 N 0.75913 0.84541 0.52303 0.0
N754 N 0.75686 0.89685 0.50399 0.0
C755 C 0.76819 0.88652 0.46707 0.0
C756 C 0.76954 0.85858 0.47751 0.0
C757 C 0.10406 0.88917 0.4443 0.0
C758 C 0.08156 0.89002 0.41261 0.0
C759 C 0.13056 0.91707 0.46127 0.0
C760 C 0.13545 0.94671 0.44691 0.0
H761 H 0.10162 0.86683 0.45521 0.0
H762 H 0.14788 0.91544 0.48406 0.0
S763 S 0.08193 0.96231 0.37034 0.0
N764 N 0.06488 0.92361 0.37191 0.0
N765 N 0.11448 0.97543 0.40334 0.0
C766 C 0.11254 0.9479 0.41724 0.0
C767 C 0.08567 0.91975 0.40018 0.0
C768 C 0.79649 0.93909 0.94189 0.0
C769 C 0.81718 0.95479 0.98165 0.0
C770 C 0.79323 0.91106 0.92285 0.0
C771 C 0.81044 0.89796 0.94317 0.0
H772 H 0.78069 0.9468 0.92842 0.0
H773 H 0.77519 0.89817 0.8952 0.0
S774 S 0.87284 0.93335 0.03871 0.0
N775 N 0.85962 0.95814 0.03342 0.0
N776 N 0.85214 0.90476 -0.00116 0.0
C777 C 0.83343 0.91497 0.97891 0.0
C778 C 0.83728 0.94373 -0.00235 0.0
C779 C 0.10639 0.89929 0.02967 0.0
C780 C 0.10865 0.91832 0.9888 0.0
C781 C 0.08719 0.86652 0.02747 0.0
C782 C 0.06904 0.85193 0.98509 0.0
H783 H 0.12244 0.90916 0.06079 0.0
H784 H 0.08943 0.85242 0.05647 0.0
S785 S 0.05816 0.89151 0.87617 0.0
N786 N 0.08481 0.92058 0.91056 0.0
N787 N 0.04848 0.8588 0.9071 0.0
C788 C 0.0667 0.87085 0.94829 0.0
C789 C 0.08651 0.90427 0.95012 0.0
C790 C 0.12554 0.20627 0.97699 0.0
C791 C 0.12014 0.1887 0.02105 0.0
C792 C 0.1016 0.21007 0.95548 0.0
C793 C 0.07163 0.19652 0.9774 0.0
H794 H 0.14891 0.21902 0.96093 0.0
H795 H 0.10729 0.22568 0.92381 0.0
S796 S 0.04314 0.14348 0.08639 0.0
N797 N 0.08046 0.15331 0.08065 0.0
N798 N 0.03631 0.16181 0.04086 0.0
C799 C 0.06503 0.17678 0.01852 0.0
C800 C 0.08906 0.1724 0.04006 0.0
C801 C 0.91147 0.81758 0.42329 0.0
C802 C 0.93169 0.81034 0.45037 0.0
C803 C 0.8829 0.81217 0.44305 0.0
C804 C 0.87367 0.80011 0.49112 0.0
H805 H 0.91673 0.82588 0.38526 0.0
H806 H 0.86739 0.8164 0.41978 0.0
S807 S 0.9193 0.78116 0.58042 0.0
N808 N 0.94143 0.7931 0.52993 0.0
N809 N 0.88778 0.78372 0.56749 0.0
C810 C 0.8945 0.79506 0.52028 0.0
C811 C 0.9235 0.79998 0.49979 0.0
C812 C 0.22546 0.1375 0.44622 0.0
C813 C 0.22818 0.15707 0.48597 0.0
C814 C 0.21229 0.10509 0.45319 0.0
C815 C 0.20218 0.0914 0.50053 0.0
H816 H 0.23677 0.14771 0.41103 0.0
H817 H 0.21355 0.0915 0.42269 0.0
S818 S 0.19643 0.13181 0.61284 0.0
N819 N 0.21361 0.16006 0.5709 0.0
N820 N 0.18905 0.09898 0.58468 0.0
C821 C 0.20017 0.11004 0.53838 0.0
C822 C 0.21334 0.14311 0.53096 0.0
C823 C 0.91969 0.09481 0.47521 0.0
C824 C 0.91764 0.10769 0.52035 0.0
C825 C 0.89451 0.06649 0.45791 0.0
C826 C 0.86577 0.05041 0.48431 0.0
H827 H 0.94034 0.10748 0.4519 0.0
H828 H 0.897 0.05849 0.42166 0.0
S829 S 0.85061 0.07245 0.60865 0.0
N830 N 0.8867 0.10063 0.59464 0.0
N831 N 0.83866 0.0477 0.56141 0.0
C832 C 0.86452 0.06174 0.53172 0.0
C833 C 0.89062 0.09038 0.54986 0.0
C834 C 0.86826 0.41607 0.44321 0.0
C835 C 0.87777 0.44206 0.41153 0.0
C836 C 0.87038 0.38997 0.42876 0.0
C837 C 0.88183 0.38821 0.38153 0.0
H838 H 0.85867 0.4156 0.47963 0.0
H839 H 0.86212 0.37063 0.4549 0.0
S840 S 0.91169 0.45098 0.28526 0.0
N841 N 0.90072 0.46537 0.33144 0.0
N842 N 0.90438 0.41588 0.30381 0.0
C843 C 0.89244 0.41451 0.34983 0.0
C844 C 0.89053 0.44148 0.36492 0.0
C845 C 0.57653 0.45526 0.34337 0.0
C846 C 0.59972 0.46876 0.3808 0.0
C847 C 0.54663 0.42895 0.35312 0.0
C848 C 0.53878 0.41489 0.40058 0.0
H849 H 0.58162 0.46469 0.30595 0.0
H850 H 0.52995 0.4189 0.32278 0.0
S851 S 0.58937 0.44271 0.51302 0.0
N852 N 0.61135 0.46707 0.46863 0.0
N853 N 0.55564 0.41781 0.48623 0.0
C854 C 0.56123 0.42875 0.43869 0.0
C855 C 0.59151 0.45559 0.42902 0.0
C856 C 0.50703 0.09977 0.32885 0.0
C857 C 0.50576 0.12511 0.35035 0.0
C858 C 0.53353 0.09639 0.33501 0.0
C859 C 0.56002 0.11861 0.36204 0.0
H860 H 0.48745 0.08246 0.30689 0.0
H861 H 0.53377 0.07698 0.31655 0.0
S862 S 0.56812 0.18859 0.42738 0.0
N863 N 0.53283 0.17211 0.4016 0.0
N864 N 0.58283 0.1661 0.41214 0.0
C865 C 0.55875 0.14362 0.38474 0.0
C866 C 0.53159 0.1468 0.37915 0.0
C867 C 0.76073 0.55382 0.82451 0.0
C868 C 0.76391 0.5311 0.79749 0.0
C869 C 0.73142 0.55178 0.82979 0.0
C870 C 0.70429 0.52737 0.80729 0.0
H871 H 0.78083 0.57277 0.84335 0.0
H872 H 0.73006 0.56962 0.85134 0.0
S873 S 0.70014 0.46281 0.73058 0.0
N874 N 0.73756 0.4838 0.7471 0.0
N875 N 0.68252 0.48051 0.75559 0.0
C876 C 0.70726 0.50502 0.77889 0.0
C877 C 0.73704 0.50674 0.77436 0.0
C878 C 0.46056 0.20509 0.73425 0.0
C879 C 0.45115 0.18935 0.78038 0.0
C880 C 0.45681 0.23079 0.72302 0.0
C881 C 0.4433 0.24218 0.75712 0.0
H882 H 0.47146 0.19789 0.7063 0.0
H883 H 0.46491 0.24197 0.68707 0.0
S884 S 0.41325 0.2089 0.88257 0.0
N885 N 0.42662 0.18663 0.86013 0.0
N886 N 0.41947 0.23505 0.83884 0.0
C887 C 0.43296 0.22632 0.80305 0.0
C888 C 0.43696 0.20001 0.81472 0.0
C889 C 0.7815 0.21679 0.77913 0.0
C890 C 0.75875 0.22139 0.75438 0.0
C891 C 0.81086 0.24251 0.79347 0.0
C892 C 0.81834 0.27358 0.78337 0.0
H893 H 0.77698 0.19319 0.78623 0.0
H894 H 0.82817 0.23805 0.81071 0.0
S895 S 0.76561 0.29873 0.72688 0.0
N896 N 0.74489 0.25993 0.72582 0.0
N897 N 0.79968 0.30767 0.7523 0.0
C898 C 0.79527 0.27847 0.76112 0.0
C899 C 0.76559 0.25256 0.74672 0.0
C900 C 0.44211 0.22521 0.26341 0.0
C901 C 0.45587 0.20939 0.28643 0.0
C902 C 0.44892 0.25503 0.27996 0.0
C903 C 0.46978 0.26981 0.31992 0.0
H904 H 0.42412 0.21344 0.23526 0.0
H905 H 0.43563 0.26512 0.26435 0.0
S906 S 0.51742 0.24066 0.38367 0.0
N907 N 0.49475 0.21221 0.3448 0.0
N908 N 0.50873 0.26869 0.37501 0.0
C909 C 0.48649 0.2556 0.33878 0.0
C910 C 0.47907 0.22511 0.32248 0.0
C911 C 0.78395 0.22859 0.33947 0.0
C912 C 0.79301 0.25562 0.31042 0.0
C913 C 0.75244 0.20438 0.34166 0.0
C914 C 0.72879 0.20657 0.31553 0.0
H915 H 0.80147 0.22539 0.3589 0.0
H916 H 0.74667 0.18365 0.36358 0.0
S917 S 0.73995 0.27402 0.23805 0.0
N918 N 0.7757 0.28422 0.25763 0.0
N919 N 0.71634 0.23897 0.26235 0.0
C920 C 0.73734 0.23421 0.28834 0.0
C921 C 0.76949 0.25868 0.28563 0.0
C922 C 0.79063 0.52022 0.31864 0.0
C923 C 0.78579 0.5033 0.36329 0.0
C924 C 0.76702 0.5252 0.29874 0.0
C925 C 0.73797 0.51374 0.32309 0.0
H926 H 0.81337 0.53125 0.3004 0.0
H927 H 0.77231 0.53991 0.26601 0.0
S928 S 0.71091 0.46376 0.43563 0.0
N929 N 0.74729 0.47121 0.42692 0.0
N930 N 0.70397 0.48199 0.3901 0.0
C931 C 0.73186 0.49499 0.36534 0.0
C932 C 0.75546 0.48929 0.38518 0.0
C933 C 0.58801 0.16595 0.7694 0.0
C934 C 0.60683 0.15696 0.7967 0.0
C935 C 0.55945 0.16128 0.7881 0.0
C936 C 0.54894 0.14839 0.83544 0.0
H937 H 0.59416 0.17474 0.73172 0.0
H938 H 0.54479 0.16647 0.76439 0.0
S939 S 0.59105 0.12544 0.92545 0.0
N940 N 0.61413 0.13756 0.87603 0.0
N941 N 0.56064 0.12974 0.9117 0.0
C942 C 0.56861 0.14195 0.86511 0.0
C943 C 0.59753 0.14603 0.84564 0.0
C944 C 0.87216 0.44982 0.86347 0.0
C945 C 0.85892 0.45051 0.81737 0.0
C946 C 0.8807 0.42726 0.87369 0.0
C947 C 0.87687 0.4049 0.83795 0.0
H948 H 0.87596 0.46683 0.89209 0.0
H949 H 0.89116 0.42785 0.90947 0.0
S950 S 0.84144 0.39493 0.71285 0.0
N951 N 0.84098 0.42565 0.73643 0.0
N952 N 0.85737 0.38335 0.75597 0.0
C953 C 0.8632 0.40481 0.7921 0.0
C954 C 0.8541 0.42758 0.78175 0.0
C955 C 0.56819 0.44236 0.80182 0.0
C956 C 0.5653 0.45303 0.84854 0.0
C957 C 0.54489 0.4132 0.78382 0.0
C958 C 0.51722 0.39377 0.8113 0.0
H959 H 0.58828 0.45699 0.77839 0.0
H960 H 0.54803 0.40678 0.7467 0.0
S961 S 0.50043 0.40991 0.93884 0.0
N962 N 0.53472 0.44106 0.92455 0.0
N963 N 0.49011 0.38634 0.89017 0.0
C964 C 0.51506 0.4034 0.85963 0.0
C965 C 0.53929 0.43302 0.87836 0.0
C966 C 0.5725 0.76477 0.689 0.0
C967 C 0.54846 0.73335 0.69578 0.0
C968 C 0.56869 0.78982 0.70559 0.0
C969 C 0.54071 0.78421 0.72942 0.0
H970 H 0.59474 0.76997 0.67264 0.0
H971 H 0.58808 0.81368 0.70084 0.0
S972 S 0.46911 0.70585 0.74893 0.0
N973 N 0.49475 0.69801 0.72301 0.0
N974 N 0.48743 0.74452 0.75378 0.0
C975 C 0.51602 0.75277 0.73393 0.0
C976 C 0.51994 0.72753 0.71718 0.0
C977 C 0.23751 0.76684 0.75353 0.0
C978 C 0.21112 0.75732 0.72256 0.0
C979 C 0.26661 0.79354 0.74276 0.0
C980 C 0.27103 0.81212 0.70022 0.0
H981 H 0.23586 0.75345 0.78656 0.0
H982 H 0.28597 0.79931 0.76802 0.0
S983 S 0.20938 0.79801 0.60701 0.0
N984 N 0.19114 0.76906 0.64755 0.0
N985 N 0.24601 0.8193 0.62717 0.0
C986 C 0.24478 0.80317 0.66898 0.0
C987 C 0.21486 0.77588 0.68021 0.0
C988 C 0.21442 0.45086 0.65678 0.0
C989 C 0.24015 0.47375 0.68442 0.0
C990 C 0.18719 0.45277 0.64973 0.0
C991 C 0.18435 0.47728 0.67089 0.0
H992 H 0.21565 0.43179 0.63897 0.0
H993 H 0.16813 0.43474 0.62784 0.0
S994 S 0.24431 0.54242 0.74834 0.0
N995 N 0.26074 0.52133 0.73399 0.0
N996 N 0.2092 0.52452 0.72183 0.0
C997 C 0.20951 0.49987 0.69978 0.0
C998 C 0.23749 0.49821 0.70626 0.0
C999 C 0.40332 0.89965 0.16168 0.0
C1000 C 0.37647 0.87431 0.14003 0.0
C1001 C 0.43318 0.90271 0.15658 0.0
C1002 C 0.43717 0.88016 0.13056 0.0
H1003 H 0.40127 0.91728 0.18269 0.0
H1004 H 0.45305 0.92226 0.17485 0.0
S1005 S 0.37448 0.80968 0.06616 0.0
N1006 N 0.35597 0.82669 0.09034 0.0
N1007 N 0.41187 0.83209 0.08185 0.0
C1008 C 0.4106 0.85498 0.10812 0.0
C1009 C 0.38033 0.85214 0.11258 0.0
C1010 C 0.10716 0.55968 0.12499 0.0
C1011 C 0.12748 0.58345 0.09152 0.0
C1012 C 0.11086 0.53366 0.13597 0.0
C1013 C 0.13488 0.5303 0.11362 0.0
H1014 H 0.08808 0.561 0.14265 0.0
H1015 H 0.09438 0.51573 0.1612 0.0
S1016 S 0.19627 0.58707 0.02723 0.0
N1017 N 0.17394 0.60248 0.0388 0.0
N1018 N 0.1806 0.55399 0.05931 0.0
C1019 C 0.15579 0.55423 0.0812 0.0
C1020 C 0.15217 0.58063 0.07017 0.0
C1021 C 0.47618 0.59077 0.14176 0.0
C1022 C 0.49653 0.61171 0.10518 0.0
C1023 C 0.44751 0.5637 0.12861 0.0
C1024 C 0.43817 0.55688 0.07853 0.0
H1025 H 0.48166 0.59607 0.18079 0.0
H1026 H 0.43186 0.54894 0.15786 0.0
S1027 S 0.48515 0.60065 0.96839 0.0
N1028 N 0.50692 0.62086 0.0163 0.0
N1029 N 0.45303 0.57083 -0.00767 0.0
C1030 C 0.45913 0.57641 0.04173 0.0
C1031 C 0.48831 0.60357 0.05486 0.0
C1032 C 0.15091 0.59551 0.66499 0.0
C1033 C 0.13347 0.60947 0.64834 0.0
C1034 C 0.14398 0.56577 0.6485 0.0
C1035 C 0.12012 0.54939 0.61356 0.0
H1036 H 0.1686 0.6066 0.69376 0.0
H1037 H 0.15644 0.55495 0.66473 0.0
S1038 S 0.07055 0.57665 0.55243 0.0
N1039 N 0.0932 0.60543 0.59089 0.0
N1040 N 0.08117 0.54987 0.55862 0.0
C1041 C 0.10449 0.56401 0.59296 0.0
C1042 C 0.11108 0.59413 0.61042 0.0
C1043 C 0.42318 0.58225 0.60955 0.0
C1044 C 0.41322 0.5575 0.64403 0.0
C1045 C 0.45513 0.60461 0.60382 0.0
C1046 C 0.47826 0.60329 0.63283 0.0
H1047 H 0.40628 0.58395 0.58575 0.0
H1048 H 0.46175 0.62282 0.57595 0.0
S1049 S 0.46431 0.54431 0.73079 0.0
N1050 N 0.42885 0.53384 0.70942 0.0
N1051 N 0.48894 0.57586 0.69865 0.0
C1052 C 0.46856 0.57928 0.66867 0.0
C1053 C 0.43602 0.55635 0.67423 0.0
C1054 C 0.43873 0.87421 0.61993 0.0
C1055 C 0.40816 0.85935 0.63988 0.0
C1056 C 0.46204 0.86895 0.64023 0.0
C1057 C 0.45542 0.84857 0.68112 0.0
H1058 H 0.44528 0.89174 0.59089 0.0
H1059 H 0.48582 0.88261 0.62597 0.0
S1060 S 0.3767 0.79966 0.73997 0.0
N1061 N 0.37115 0.82086 0.69787 0.0
N1062 N 0.41412 0.80968 0.73523 0.0
C1063 C 0.42385 0.83126 0.69789 0.0
C1064 C 0.40044 0.8371 0.67763 0.0
C1065 C 0.23507 0.49748 0.12329 0.0
C1066 C 0.22325 0.4819 0.16855 0.0
C1067 C 0.26465 0.50417 0.10615 0.0
C1068 C 0.28317 0.49448 0.13276 0.0
H1069 H 0.22081 0.50344 0.09997 0.0
H1070 H 0.27187 0.51506 0.06986 0.0
S1071 S 0.26374 0.45598 0.25672 0.0
N1072 N 0.23317 0.45993 0.24266 0.0
N1073 N 0.28849 0.47133 0.20962 0.0
C1074 C 0.27239 0.48075 0.1799 0.0
C1075 C 0.24245 0.47468 0.19793 0.0
C1076 C 0.50769 0.76932 0.20611 0.0
C1077 C 0.52323 0.79527 0.1739 0.0
C1078 C 0.51599 0.74595 0.20796 0.0
C1079 C 0.53974 0.7474 0.17704 0.0
H1080 H 0.48965 0.7675 0.23122 0.0
H1081 H 0.50417 0.72699 0.23463 0.0
S1082 S 0.58555 0.80913 0.08278 0.0
N1083 N 0.56203 0.82007 0.10808 0.0
N1084 N 0.57749 0.77612 0.11119 0.0
C1085 C 0.55447 0.77253 0.14304 0.0
C1086 C 0.5463 0.79651 0.14164 0.0
C1087 C 0.22181 0.74745 0.1334 0.0
C1088 C 0.19245 0.72977 0.15767 0.0
C1089 C 0.24462 0.77711 0.1505 0.0
C1090 C 0.23954 0.78978 0.19352 0.0
H1091 H 0.22655 0.73945 0.09877 0.0
H1092 H 0.26579 0.79081 0.12867 0.0
S1093 S 0.16995 0.75136 0.27637 0.0
N1094 N 0.16157 0.72587 0.23083 0.0
N1095 N 0.20538 0.7814 0.26398 0.0
C1096 C 0.21203 0.77126 0.22127 0.0
C1097 C 0.18827 0.7412 0.20322 0.0
C1098 C 0.21815 0.21408 0.25423 0.0
C1099 C 0.23635 0.23964 0.22249 0.0
C1100 C 0.21459 0.21881 0.3046 0.0
C1101 C 0.22817 0.24934 0.32437 0.0
H1102 H 0.20575 0.19033 0.23965 0.0
H1103 H 0.19978 0.19852 0.3276 0.0
S1104 S 0.27959 0.32398 0.2574 0.0
N1105 N 0.26986 0.29636 0.21494 0.0
N1106 N 0.26206 0.30537 0.30931 0.0
C1107 C 0.24728 0.27504 0.29345 0.0
C1108 C 0.25169 0.27014 0.24251 0.0
C1109 C 0.76443 0.98009 0.21368 0.0
C1110 C 0.75407 -0.00114 0.18994 0.0
C1111 C 0.75992 0.97357 0.26448 0.0
C1112 C 0.7442 0.98486 0.2936 0.0
H1113 H 0.77673 0.97065 0.19327 0.0
H1114 H 0.76976 0.96042 0.28148 0.0
S1115 S 0.70893 0.03173 0.24976 0.0
N1116 N 0.72484 0.0264 0.19937 0.0
N1117 N 0.71609 0.01364 0.29542 0.0
C1118 C 0.73189 0.00194 0.27036 0.0
C1119 C 0.73686 0.00905 0.21836 0.0
C1120 C -0.00408 0.74741 0.23615 0.0
C1121 C 0.01454 0.77767 0.25615 0.0
C1122 C 0.98567 0.74328 0.18658 0.0
C1123 C -0.0057 0.76928 0.1551 0.0
H1124 H 0.98712 0.72688 0.25997 0.0
H1125 H 0.96985 0.71962 0.17336 0.0
S1126 S 0.0455 0.85327 0.18858 0.0
N1127 N 0.04283 0.83391 0.24035 0.0
N1128 N 0.02481 0.82622 0.14644 0.0
C1129 C 0.0149 0.79956 0.1737 0.0
C1130 C 0.02465 0.80375 0.22453 0.0
C1131 C 0.76586 0.74579 0.76837 0.0
C1132 C 0.74407 0.7548 0.78286 0.0
C1133 C 0.76898 0.73978 0.71855 0.0
C1134 C 0.75069 0.74291 0.68115 0.0
H1135 H 0.78172 0.74474 0.79531 0.0
H1136 H 0.7872 0.73445 0.7091 0.0
S1137 S 0.68583 0.75953 0.70025 0.0
N1138 N 0.70039 0.76167 0.75641 0.0
N1139 N 0.70692 0.751 0.66251 0.0
C1140 C 0.72707 0.74937 0.6954 0.0
C1141 C 0.72354 0.75507 0.74635 0.0
C1142 C 0.23556 0.03543 0.73297 0.0
C1143 C 0.23124 0.01294 0.69672 0.0
C1144 C 0.23267 0.02826 0.78385 0.0
C1145 C 0.22548 -0.00169 0.8008 0.0
H1146 H 0.24034 0.05864 0.72206 0.0
H1147 H 0.23519 0.04612 0.80992 0.0
S1148 S 0.21584 0.9322 0.72143 0.0
N1149 N 0.22204 0.96033 0.68157 0.0
N1150 N 0.21694 0.94677 0.77707 0.0
C1151 C 0.22263 0.97604 0.76504 0.0
C1152 C 0.22537 0.98334 0.7131 0.0
C1153 C 0.95945 0.21891 0.73181 0.0
C1154 C 0.98001 0.23747 0.69364 0.0
C1155 C 0.96737 0.2265 0.78183 0.0
C1156 C -0.00393 0.25313 0.79567 0.0
H1157 H 0.93781 0.19733 0.72317 0.0
H1158 H 0.95154 0.21041 0.80974 0.0
S1159 S 0.05451 0.31329 0.70928 0.0
N1160 N 0.02778 0.2861 0.67244 0.0
N1161 N 0.04259 0.301 0.7666 0.0
C1162 C 0.01543 0.27352 0.75767 0.0
C1163 C 0.00748 0.26549 0.70661 0.0
C1164 C 0.87855 0.52384 0.5942 0.0
C1165 C 0.89891 0.54971 0.56432 0.0
C1166 C 0.87158 0.52802 0.64315 0.0
C1167 C 0.88402 0.55832 0.66345 0.0
H1168 H 0.86669 0.50031 0.5788 0.0
H1169 H 0.85468 0.50753 0.66398 0.0
S1170 S 0.94161 0.63344 0.60267 0.0
N1171 N 0.93409 0.6063 0.56028 0.0
N1172 N 0.92036 0.61434 0.65182 0.0
C1173 C 0.90603 0.5842 0.63509 0.0
C1174 C 0.9137 0.57984 0.58565 0.0
C1175 C 0.40386 0.3443 0.5455 0.0
C1176 C 0.41033 0.3242 0.51731 0.0
C1177 C 0.39832 0.33959 0.59688 0.0
C1178 C 0.39842 0.31431 0.62128 0.0
H1179 H 0.40452 0.36457 0.52832 0.0
H1180 H 0.39552 0.35671 0.61808 0.0
S1181 S 0.41042 0.25298 0.56411 0.0
N1182 N 0.41345 0.27621 0.51744 0.0
N1183 N 0.40345 0.26806 0.61385 0.0
C1184 C 0.40306 0.29315 0.59333 0.0
C1185 C 0.40883 0.29788 0.54128 0.0
C1186 C 0.65658 0.07798 0.58422 0.0
C1187 C 0.67563 0.10886 0.60166 0.0
C1188 C 0.64478 0.07223 0.53548 0.0
C1189 C 0.65209 0.09718 0.50227 0.0
H1190 H 0.64878 0.05822 0.60948 0.0
H1191 H 0.62888 0.04812 0.52433 0.0
S1192 S 0.70457 0.18226 0.52868 0.0
N1193 N 0.7036 0.16448 0.58136 0.0
N1194 N 0.68229 0.15394 0.48931 0.0
C1195 C 0.67317 0.1281 0.51834 0.0
C1196 C 0.68467 0.13388 0.56822 0.0
C1197 C 0.42376 0.07357 0.10614 0.0
C1198 C 0.40038 0.08088 0.11848 0.0
C1199 C 0.43222 0.07322 0.05657 0.0
C1200 C 0.41783 0.08037 0.01735 0.0
H1201 H 0.43677 0.0696 0.13499 0.0
H1202 H 0.45133 0.06881 0.04927 0.0
S1203 S 0.35113 0.09501 0.02878 0.0
N1204 N 0.35973 0.09085 0.08664 0.0
N1205 N 0.37617 0.09069 -0.00641 0.0
C1206 C 0.39286 0.08541 0.02878 0.0
C1207 C 0.38396 0.08546 0.07929 0.0
C1208 C 0.86973 0.30055 0.10404 0.0
C1209 C 0.89888 0.31495 0.12889 0.0
C1210 C 0.86804 0.30184 0.0523 0.0
C1211 C 0.89541 0.3166 0.0233 0.0
H1212 H 0.84793 0.28833 0.12491 0.0
H1213 H 0.84504 0.29102 0.03479 0.0
S1214 S 0.9777 0.35838 0.07055 0.0
N1215 N 0.95581 0.34511 0.12118 0.0
N1216 N 0.95287 0.34683 0.02323 0.0
C1217 C 0.92491 0.33113 0.0476 0.0
C1218 C 0.92657 0.33047 0.10066 0.0
C1219 C 0.63308 0.5525 0.12673 0.0
C1220 C 0.66431 0.57425 0.14029 0.0
C1221 C 0.62307 0.54949 0.0773 0.0
C1222 C 0.64393 0.56788 0.03923 0.0
H1223 H 0.61637 0.53689 0.15421 0.0
H1224 H 0.59905 0.53159 0.06872 0.0
S1225 S 0.72693 0.63145 0.05561 0.0
N1226 N 0.7152 0.61702 0.11204 0.0
N1227 N 0.6963 0.61084 0.01898 0.0
C1228 C 0.67473 0.59092 0.05246 0.0
C1229 C 0.68491 0.59426 0.10301 0.0
C1230 C 0.53638 0.8736 0.96824 0.0
C1231 C 0.55127 0.90418 0.98817 0.0
C1232 C 0.54248 0.86825 0.9194 0.0
C1233 C 0.56439 0.89311 0.88935 0.0
H1234 H 0.51855 0.85393 0.98947 0.0
H1235 H 0.52902 0.84469 0.90441 0.0
S1236 S 0.61288 0.97678 0.92651 0.0
N1237 N 0.59092 0.95917 0.9758 0.0
N1238 N 0.60314 0.9489 0.88457 0.0
C1239 C 0.58123 0.92336 0.91019 0.0
C1240 C 0.57441 0.92897 0.95945 0.0
C1241 C 0.0921 0.64186 0.93214 0.0
C1242 C 0.07731 0.65414 0.96126 0.0
C1243 C 0.0972 0.64874 0.8814 0.0
C1244 C 0.08857 0.66899 0.85786 0.0
H1245 H 0.1007 0.62759 0.94907 0.0
H1246 H 0.10847 0.63829 0.86084 0.0
S1247 S 0.0483 0.70667 0.91873 0.0
N1248 N 0.05322 0.68668 0.96383 0.0
N1249 N 0.06315 0.70017 0.86813 0.0
C1250 C 0.07298 0.68084 0.88662 0.0
C1251 C 0.06736 0.67335 0.93843 0.0
C1252 C 0.31128 0.42538 0.91863 0.0
C1253 C 0.34279 0.44636 0.93142 0.0
C1254 C 0.30091 0.42216 0.86942 0.0
C1255 C 0.32155 0.44036 0.83097 0.0
H1256 H 0.29418 0.41207 0.94732 0.0
H1257 H 0.27616 0.40617 0.86198 0.0
S1258 S 0.40718 0.49759 0.8454 0.0
N1259 N 0.39503 0.48456 0.90239 0.0
N1260 N 0.37585 0.47892 0.80925 0.0
C1261 C 0.35358 0.46073 0.84321 0.0
C1262 C 0.36412 0.4637 0.89362 0.0
C1263 C 0.064 0.43149 0.40487 0.0
C1264 C 0.07457 0.4201 0.44405 0.0
C1265 C 0.07131 0.4292 0.35539 0.0
C1266 C 0.08907 0.41504 0.34308 0.0
H1267 H 0.05143 0.44384 0.41244 0.0
H1268 H 0.06391 0.43964 0.32678 0.0
S1269 S 0.11785 0.37683 0.43145 0.0
N1270 N 0.10054 0.39095 0.46698 0.0
N1271 N 0.1139 0.38609 0.37391 0.0
C1272 C 0.09764 0.4013 0.38163 0.0
C1273 C 0.0905 0.404 0.43214 0.0
C1274 C 0.59013 0.65655 0.36977 0.0
C1275 C 0.60451 0.68731 0.35063 0.0
C1276 C 0.58839 0.65101 0.42113 0.0
C1277 C 0.60064 0.67597 0.45566 0.0
H1278 H 0.57922 0.6365 0.34502 0.0
H1279 H 0.57611 0.62678 0.43374 0.0
S1280 S 0.64422 0.76109 0.42497 0.0
N1281 N 0.63416 0.74332 0.37052 0.0
N1282 N 0.6303 0.73265 0.46685 0.0
C1283 C 0.61662 0.70686 0.43707 0.0
C1284 C 0.61872 0.71258 0.38467 0.0
C1285 C 0.29013 0.89478 0.40591 0.0
C1286 C 0.30955 0.91484 0.36788 0.0
C1287 C 0.3005 0.89892 0.45522 0.0
C1288 C 0.33062 0.92348 0.46866 0.0
H1289 H 0.2673 0.87463 0.3973 0.0
H1290 H 0.2852 0.88184 0.48256 0.0
S1291 S 0.38786 0.98636 0.38438 0.0
N1292 N 0.35842 0.96265 0.34768 0.0
N1293 N 0.37791 0.97103 0.4407 0.0
C1294 C 0.34924 0.94533 0.43158 0.0
C1295 C 0.33874 0.94082 0.3811 0.0
loop_
_geom_bond_atom_site_label_1
_geom_bond_atom_site_label_2
_geom_bond_distance
_geom_bond_site_symmetry_2
_ccdc_geom_bond_type
Mg0 O1 2.028 . S
Mg0 O7 1.986 . S
Mg0 O9 2.114 . S
Mg0 O10 2.251 . S
Mg0 O13 2.010 . S
O1 Mg0 2.028 . S
O1 C4 1.250 . S
O2 Mg3 2.028 . S
O2 C4 1.248 . S
Mg3 O2 2.028 . S
Mg3 O8 2.032 . S
Mg3 O10 2.079 . S
C4 O1 1.250 . S
C4 O2 1.248 . S
C5 O6 1.264 . S
C5 O13 1.249 . S
O6 C5 1.264 . S
O7 Mg0 1.986 . S
O7 C11 1.246 . S
O8 Mg3 2.032 . S
O8 C11 1.259 . S
O9 Mg0 2.114 . S
O9 C12 1.252 . S
O10 Mg0 2.251 . S
O10 Mg3 2.079 . S
O10 C12 1.273 . S
C11 O7 1.246 . S
C11 O8 1.259 . S
C12 O9 1.252 . S
C12 O10 1.273 . S
O13 Mg0 2.010 . S
O13 C5 1.249 . S
Mg14 O15 2.028 . S
Mg14 O21 1.986 1_545 S
Mg14 O23 2.114 . S
Mg14 O24 2.251 . S
Mg14 O27 2.010 . S
O15 Mg14 2.028 . S
O15 C18 1.250 . S
O16 Mg17 2.028 . S
O16 C18 1.248 . S
Mg17 O16 2.028 . S
Mg17 O22 2.032 1_545 S
Mg17 O24 2.079 . S
C18 O15 1.250 . S
C18 O16 1.248 . S
C19 O20 1.264 . S
C19 O27 1.249 1_556 S
O20 C19 1.264 . S
O21 Mg14 1.986 1_565 S
O21 C25 1.246 . S
O22 Mg17 2.032 1_565 S
O22 C25 1.259 . S
O23 Mg14 2.114 . S
O23 C26 1.252 . S
O24 Mg14 2.251 . S
O24 Mg17 2.079 . S
O24 C26 1.273 . S
C25 O21 1.246 . S
C25 O22 1.259 . S
C26 O23 1.252 . S
C26 O24 1.273 . S
O27 Mg14 2.010 . S
O27 C19 1.249 1_554 S
Mg28 O29 2.039 . S
Mg28 O35 1.986 1_554 S
Mg28 O37 2.114 . S
Mg28 O38 2.251 . S
Mg28 O41 2.010 1_654 S
O29 Mg28 2.039 . S
O29 C32 1.260 . S
O30 Mg31 2.028 . S
O30 C32 1.248 . S
Mg31 O30 2.028 . S
Mg31 O36 2.032 . S
Mg31 O38 2.079 . S
C32 O29 1.260 . S
C32 O30 1.248 . S
C33 O34 1.264 . S
C33 O41 1.249 . S
O34 C33 1.264 . S
O35 Mg28 1.986 1_556 S
O35 C39 1.246 . S
O36 Mg31 2.032 . S
O36 C39 1.259 1_554 S
O37 Mg28 2.114 . S
O37 C40 1.252 . S
O38 Mg28 2.251 . S
O38 Mg31 2.079 . S
O38 C40 1.273 . S
C39 O35 1.246 . S
C39 O36 1.259 1_556 S
C40 O37 1.252 . S
C40 O38 1.273 . S
O41 Mg28 2.010 1_456 S
O41 C33 1.249 . S
Mg42 O43 2.028 . S
Mg42 O49 1.986 . S
Mg42 O51 2.114 . S
Mg42 O52 2.251 . S
Mg42 O55 2.010 . S
O43 Mg42 2.028 . S
O43 C46 1.250 . S
O44 Mg45 2.028 . S
O44 C46 1.248 . S
Mg45 O44 2.028 . S
Mg45 O50 2.032 . S
Mg45 O52 2.079 . S
C46 O43 1.250 . S
C46 O44 1.248 . S
C47 O48 1.264 . S
C47 O55 1.249 . S
O48 C47 1.264 . S
O49 Mg42 1.986 . S
O49 C53 1.246 . S
O50 Mg45 2.032 . S
O50 C53 1.259 . S
O51 Mg42 2.114 . S
O51 C54 1.252 . S
O52 Mg42 2.251 . S
O52 Mg45 2.079 . S
O52 C54 1.273 . S
C53 O49 1.246 . S
C53 O50 1.259 . S
C54 O51 1.252 . S
C54 O52 1.273 . S
O55 Mg42 2.010 . S
O55 C47 1.249 . S
Mg56 O57 2.035 . S
Mg56 O63 1.984 1_565 S
Mg56 O65 2.115 . S
Mg56 O66 2.252 1_565 S
Mg56 O69 2.008 . S
O57 Mg56 2.035 . S
O57 C60 1.250 . S
O58 Mg59 2.028 1_565 S
O58 C60 1.248 . S
Mg59 O58 2.028 1_545 S
Mg59 O64 2.032 . S
Mg59 O66 2.079 . S
C60 O57 1.250 . S
C60 O58 1.248 . S
C61 O62 1.264 . S
C61 O69 1.249 . S
O62 C61 1.264 . S
O63 Mg56 1.984 1_545 S
O63 C67 1.246 . S
O64 Mg59 2.032 . S
O64 C67 1.259 . S
O65 Mg56 2.115 . S
O65 C68 1.252 . S
O66 Mg56 2.252 1_545 S
O66 Mg59 2.079 . S
O66 C68 1.273 1_545 S
C67 O63 1.246 . S
C67 O64 1.259 . S
C68 O65 1.252 . S
C68 O66 1.273 1_565 S
O69 Mg56 2.008 . S
O69 C61 1.249 . S
Mg70 O71 2.028 . S
Mg70 O77 1.986 1_455 S
Mg70 O79 2.114 . S
Mg70 O80 2.251 . S
Mg70 O83 2.010 . S
O71 Mg70 2.028 . S
O71 C74 1.250 . S
O72 Mg73 2.028 . S
O72 C74 1.248 . S
Mg73 O72 2.028 . S
Mg73 O78 2.032 1_455 S
Mg73 O80 2.079 . S
C74 O71 1.250 . S
C74 O72 1.248 . S
C75 O76 1.264 . S
C75 O83 1.249 . S
O76 C75 1.264 . S
O77 Mg70 1.986 1_655 S
O77 C81 1.246 . S
O78 Mg73 2.032 1_655 S
O78 C81 1.259 . S
O79 Mg70 2.114 . S
O79 C82 1.252 . S
O80 Mg70 2.251 . S
O80 Mg73 2.079 . S
O80 C82 1.273 . S
C81 O77 1.246 . S
C81 O78 1.259 . S
C82 O79 1.252 . S
C82 O80 1.273 . S
O83 Mg70 2.010 . S
O83 C75 1.249 . S
Mg84 O85 2.028 . S
Mg84 O91 1.986 . S
Mg84 O93 2.114 . S
Mg84 O94 2.251 1_556 S
Mg84 O97 2.010 . S
O85 Mg84 2.028 . S
O85 C88 1.250 1_556 S
O86 Mg87 2.028 . S
O86 C88 1.248 . S
Mg87 O86 2.028 . S
Mg87 O92 2.032 . S
Mg87 O94 2.079 . S
C88 O85 1.250 1_554 S
C88 O86 1.248 . S
C89 O90 1.264 . S
C89 O97 1.249 . S
O90 C89 1.264 . S
O91 Mg84 1.986 . S
O91 C95 1.246 1_556 S
O92 Mg87 2.032 . S
O92 C95 1.259 . S
O93 Mg84 2.114 . S
O93 C96 1.252 . S
O94 Mg84 2.251 1_554 S
O94 Mg87 2.079 . S
O94 C96 1.273 1_554 S
C95 O91 1.246 1_554 S
C95 O92 1.259 . S
C96 O93 1.252 . S
C96 O94 1.273 1_556 S
O97 Mg84 2.010 . S
O97 C89 1.249 . S
Mg98 O99 2.028 1_565 S
Mg98 O105 1.986 . S
Mg98 O107 2.114 . S
Mg98 O108 2.251 1_556 S
Mg98 O111 2.010 . S
O99 Mg98 2.028 1_545 S
O99 C102 1.250 1_556 S
O100 Mg101 2.028 1_545 S
O100 C102 1.248 . S
Mg101 O100 2.028 1_565 S
Mg101 O106 2.032 . S
Mg101 O108 2.079 . S
C102 O99 1.250 1_554 S
C102 O100 1.248 . S
C103 O104 1.264 . S
C103 O111 1.249 . S
O104 C103 1.264 . S
O105 Mg98 1.986 . S
O105 C109 1.246 1_556 S
O106 Mg101 2.032 . S
O106 C109 1.259 . S
O107 Mg98 2.114 . S
O107 C110 1.252 . S
O108 Mg98 2.251 1_554 S
O108 Mg101 2.079 . S
O108 C110 1.273 1_554 S
C109 O105 1.246 1_554 S
C109 O106 1.259 . S
C110 O107 1.252 . S
C110 O108 1.273 1_556 S
O111 Mg98 2.010 . S
O111 C103 1.249 . S
Mg112 O113 2.028 1_455 S
Mg112 O119 1.986 . S
Mg112 O121 2.114 . S
Mg112 O122 2.251 1_556 S
Mg112 O125 2.010 . S
O113 Mg112 2.028 1_655 S
O113 C116 1.250 1_556 S
O114 Mg115 2.028 1_655 S
O114 C116 1.248 . S
Mg115 O114 2.028 1_455 S
Mg115 O120 2.032 . S
Mg115 O122 2.079 . S
C116 O113 1.250 1_554 S
C116 O114 1.248 . S
C117 O118 1.264 . S
C117 O125 1.249 . S
O118 C117 1.264 . S
O119 Mg112 1.986 . S
O119 C123 1.246 1_556 S
O120 Mg115 2.032 . S
O120 C123 1.259 . S
O121 Mg112 2.114 . S
O121 C124 1.252 . S
O122 Mg112 2.251 1_554 S
O122 Mg115 2.079 . S
O122 C124 1.273 1_554 S
C123 O119 1.246 1_554 S
C123 O120 1.259 . S
C124 O121 1.252 . S
C124 O122 1.273 1_556 S
O125 Mg112 2.010 . S
O125 C117 1.249 . S
Mg126 O127 2.028 . S
Mg126 O133 1.986 . S
Mg126 O135 2.114 . S
Mg126 O136 2.251 . S
Mg126 O139 2.010 . S
O127 Mg126 2.028 . S
O127 C130 1.250 . S
O128 Mg129 2.028 . S
O128 C130 1.248 . S
Mg129 O128 2.028 . S
Mg129 O134 2.032 . S
Mg129 O136 2.079 . S
C130 O127 1.250 . S
C130 O128 1.248 . S
C131 O132 1.264 . S
C131 O139 1.249 . S
O132 C131 1.264 . S
O133 Mg126 1.986 . S
O133 C137 1.246 . S
O134 Mg129 2.032 . S
O134 C137 1.259 . S
O135 Mg126 2.114 . S
O135 C138 1.252 . S
O136 Mg126 2.251 . S
O136 Mg129 2.079 . S
O136 C138 1.273 . S
C137 O133 1.246 . S
C137 O134 1.259 . S
C138 O135 1.252 . S
C138 O136 1.273 . S
O139 Mg126 2.010 . S
O139 C131 1.249 . S
Mg140 O141 2.028 1_545 S
Mg140 O147 1.986 . S
Mg140 O149 2.114 . S
Mg140 O150 2.251 . S
Mg140 O153 2.010 . S
O141 Mg140 2.028 1_565 S
O141 C144 1.250 . S
O142 Mg143 2.028 1_565 S
O142 C144 1.248 . S
Mg143 O142 2.028 1_545 S
Mg143 O148 2.032 . S
Mg143 O150 2.079 . S
C144 O141 1.250 . S
C144 O142 1.248 . S
C145 O146 1.264 . S
C145 O153 1.249 . S
O146 C145 1.264 . S
O147 Mg140 1.986 . S
O147 C151 1.246 . S
O148 Mg143 2.032 . S
O148 C151 1.259 . S
O149 Mg140 2.114 . S
O149 C152 1.252 . S
O150 Mg140 2.251 . S
O150 Mg143 2.079 . S
O150 C152 1.273 . S
C151 O147 1.246 . S
C151 O148 1.259 . S
C152 O149 1.252 . S
C152 O150 1.273 . S
O153 Mg140 2.010 . S
O153 C145 1.249 . S
Mg154 O155 2.028 1_655 S
Mg154 O161 1.986 . S
Mg154 O163 2.114 . S
Mg154 O164 2.251 . S
Mg154 O167 2.010 . S
O155 Mg154 2.028 1_455 S
O155 C158 1.250 . S
O156 Mg157 2.028 1_455 S
O156 C158 1.248 . S
Mg157 O156 2.028 1_655 S
Mg157 O162 2.032 . S
Mg157 O164 2.079 . S
C158 O155 1.250 . S
C158 O156 1.248 . S
C159 O160 1.264 . S
C159 O167 1.249 . S
O160 C159 1.264 . S
O161 Mg154 1.986 . S
O161 C165 1.246 . S
O162 Mg157 2.032 . S
O162 C165 1.259 . S
O163 Mg154 2.114 . S
O163 C166 1.252 . S
O164 Mg154 2.251 . S
O164 Mg157 2.079 . S
O164 C166 1.273 . S
C165 O161 1.246 . S
C165 O162 1.259 . S
C166 O163 1.252 . S
C166 O164 1.273 . S
O167 Mg154 2.010 . S
O167 C159 1.249 . S
Mg168 O169 2.028 . S
Mg168 O175 1.986 . S
Mg168 O177 2.114 . S
Mg168 O178 2.251 . S
Mg168 O181 2.010 . S
O169 Mg168 2.028 . S
O169 C172 1.250 . S
O170 Mg171 2.028 . S
O170 C172 1.248 . S
Mg171 O170 2.028 . S
Mg171 O176 2.032 . S
Mg171 O178 2.079 . S
C172 O169 1.250 . S
C172 O170 1.248 . S
C173 O174 1.264 . S
C173 O181 1.249 . S
O174 C173 1.264 . S
O175 Mg168 1.986 . S
O175 C179 1.246 . S
O176 Mg171 2.032 . S
O176 C179 1.259 . S
O177 Mg168 2.114 . S
O177 C180 1.252 . S
O178 Mg168 2.251 . S
O178 Mg171 2.079 . S
O178 C180 1.273 . S
C179 O175 1.246 . S
C179 O176 1.259 . S
C180 O177 1.252 . S
C180 O178 1.273 . S
O181 Mg168 2.010 . S
O181 C173 1.249 . S
Mg182 O183 2.028 . S
Mg182 O189 1.986 . S
Mg182 O191 2.114 . S
Mg182 O192 2.251 . S
Mg182 O195 2.010 . S
O183 Mg182 2.028 . S
O183 C186 1.250 . S
O184 Mg185 2.028 . S
O184 C186 1.248 . S
Mg185 O184 2.028 . S
Mg185 O190 2.032 . S
Mg185 O192 2.079 . S
C186 O183 1.250 . S
C186 O184 1.248 . S
C187 O188 1.264 . S
C187 O195 1.249 . S
O188 C187 1.264 . S
O189 Mg182 1.986 . S
O189 C193 1.246 . S
O190 Mg185 2.032 . S
O190 C193 1.259 . S
O191 Mg182 2.114 . S
O191 C194 1.252 . S
O192 Mg182 2.251 . S
O192 Mg185 2.079 . S
O192 C194 1.273 . S
C193 O189 1.246 . S
C193 O190 1.259 . S
C194 O191 1.252 . S
C194 O192 1.273 . S
O195 Mg182 2.010 . S
O195 C187 1.249 . S
Mg196 O197 2.028 . S
Mg196 O203 1.986 . S
Mg196 O205 2.114 . S
Mg196 O206 2.251 . S
Mg196 O209 2.010 . S
O197 Mg196 2.028 . S
O197 C200 1.250 . S
O198 Mg199 2.028 . S
O198 C200 1.248 . S
Mg199 O198 2.028 . S
Mg199 O204 2.032 . S
Mg199 O206 2.079 . S
C200 O197 1.250 . S
C200 O198 1.248 . S
C201 O202 1.264 . S
C201 O209 1.249 . S
O202 C201 1.264 . S
O203 Mg196 1.986 . S
O203 C207 1.246 . S
O204 Mg199 2.032 . S
O204 C207 1.259 . S
O205 Mg196 2.114 . S
O205 C208 1.252 . S
O206 Mg196 2.251 . S
O206 Mg199 2.079 . S
O206 C208 1.273 . S
C207 O203 1.246 . S
C207 O204 1.259 . S
C208 O205 1.252 . S
C208 O206 1.273 . S
O209 Mg196 2.010 . S
O209 C201 1.249 . S
Mg210 O211 2.028 . S
Mg210 O217 1.986 . S
Mg210 O219 2.114 . S
Mg210 O220 2.251 . S
Mg210 O223 2.010 . S
O211 Mg210 2.028 . S
O211 C214 1.250 . S
O212 Mg213 2.028 . S
O212 C214 1.248 . S
Mg213 O212 2.028 . S
Mg213 O218 2.032 . S
Mg213 O220 2.079 . S
C214 O211 1.250 . S
C214 O212 1.248 . S
C215 O216 1.264 . S
C215 O223 1.249 . S
O216 C215 1.264 . S
O217 Mg210 1.986 . S
O217 C221 1.246 . S
O218 Mg213 2.032 . S
O218 C221 1.259 . S
O219 Mg210 2.114 . S
O219 C222 1.252 . S
O220 Mg210 2.251 . S
O220 Mg213 2.079 . S
O220 C222 1.273 . S
C221 O217 1.246 . S
C221 O218 1.259 . S
C222 O219 1.252 . S
C222 O220 1.273 . S
O223 Mg210 2.010 . S
O223 C215 1.249 . S
Mg224 O225 2.028 . S
Mg224 O231 1.986 . S
Mg224 O233 2.114 . S
Mg224 O234 2.251 . S
Mg224 O237 2.010 . S
O225 Mg224 2.028 . S
O225 C228 1.250 . S
O226 Mg227 2.028 . S
O226 C228 1.248 . S
Mg227 O226 2.028 . S
Mg227 O232 2.032 . S
Mg227 O234 2.079 . S
C228 O225 1.250 . S
C228 O226 1.248 . S
C229 O230 1.264 . S
C229 O237 1.249 . S
O230 C229 1.264 . S
O231 Mg224 1.986 . S
O231 C235 1.246 . S
O232 Mg227 2.032 . S
O232 C235 1.259 . S
O233 Mg224 2.114 . S
O233 C236 1.252 . S
O234 Mg224 2.251 . S
O234 Mg227 2.079 . S
O234 C236 1.273 . S
C235 O231 1.246 . S
C235 O232 1.259 . S
C236 O233 1.252 . S
C236 O234 1.273 . S
O237 Mg224 2.010 . S
O237 C229 1.249 . S
Mg238 O239 2.028 . S
Mg238 O245 1.986 . S
Mg238 O247 2.114 . S
Mg238 O248 2.251 . S
Mg238 O251 2.010 . S
O239 Mg238 2.028 . S
O239 C242 1.250 . S
O240 Mg241 2.028 . S
O240 C242 1.248 . S
Mg241 O240 2.028 . S
Mg241 O246 2.032 . S
Mg241 O248 2.079 . S
C242 O239 1.250 . S
C242 O240 1.248 . S
C243 O244 1.264 . S
C243 O251 1.249 . S
O244 C243 1.264 . S
O245 Mg238 1.986 . S
O245 C249 1.246 . S
O246 Mg241 2.032 . S
O246 C249 1.259 . S
O247 Mg238 2.114 . S
O247 C250 1.252 . S
O248 Mg238 2.251 . S
O248 Mg241 2.079 . S
O248 C250 1.273 . S
C249 O245 1.246 . S
C249 O246 1.259 . S
C250 O247 1.252 . S
C250 O248 1.273 . S
O251 Mg238 2.010 . S
O251 C243 1.249 . S
Mg252 O253 2.028 . S
Mg252 O259 1.986 . S
Mg252 O261 2.114 . S
Mg252 O262 2.251 . S
Mg252 O265 2.010 . S
O253 Mg252 2.028 . S
O253 C256 1.250 . S
O254 Mg255 2.028 . S
O254 C256 1.248 . S
Mg255 O254 2.028 . S
Mg255 O260 2.032 . S
Mg255 O262 2.079 . S
C256 O253 1.250 . S
C256 O254 1.248 . S
C257 O258 1.264 . S
C257 O265 1.249 . S
O258 C257 1.264 . S
O259 Mg252 1.986 . S
O259 C263 1.246 . S
O260 Mg255 2.032 . S
O260 C263 1.259 . S
O261 Mg252 2.114 . S
O261 C264 1.252 . S
O262 Mg252 2.251 . S
O262 Mg255 2.079 . S
O262 C264 1.273 . S
C263 O259 1.246 . S
C263 O260 1.259 . S
C264 O261 1.252 . S
C264 O262 1.273 . S
O265 Mg252 2.010 . S
O265 C257 1.249 . S
Mg266 O267 2.028 . S
Mg266 O273 1.986 . S
Mg266 O275 2.114 . S
Mg266 O276 2.251 . S
Mg266 O279 2.010 . S
O267 Mg266 2.028 . S
O267 C270 1.250 . S
O268 Mg269 2.028 . S
O268 C270 1.248 . S
Mg269 O268 2.028 . S
Mg269 O274 2.032 . S
Mg269 O276 2.079 . S
C270 O267 1.250 . S
C270 O268 1.248 . S
C271 O272 1.264 . S
C271 O279 1.249 . S
O272 C271 1.264 . S
O273 Mg266 1.986 . S
O273 C277 1.246 . S
O274 Mg269 2.032 . S
O274 C277 1.259 . S
O275 Mg266 2.114 . S
O275 C278 1.252 . S
O276 Mg266 2.251 . S
O276 Mg269 2.079 . S
O276 C278 1.273 . S
C277 O273 1.246 . S
C277 O274 1.259 . S
C278 O275 1.252 . S
C278 O276 1.273 . S
O279 Mg266 2.010 . S
O279 C271 1.249 . S
Mg280 O281 2.028 . S
Mg280 O287 1.986 . S
Mg280 O289 2.114 . S
Mg280 O290 2.251 . S
Mg280 O293 2.010 . S
O281 Mg280 2.028 . S
O281 C284 1.250 . S
O282 Mg283 2.028 . S
O282 C284 1.248 . S
Mg283 O282 2.028 . S
Mg283 O288 2.032 . S
Mg283 O290 2.079 . S
C284 O281 1.250 . S
C284 O282 1.248 . S
C285 O286 1.264 . S
C285 O293 1.249 . S
O286 C285 1.264 . S
O287 Mg280 1.986 . S
O287 C291 1.246 . S
O288 Mg283 2.032 . S
O288 C291 1.259 . S
O289 Mg280 2.114 . S
O289 C292 1.252 . S
O290 Mg280 2.251 . S
O290 Mg283 2.079 . S
O290 C292 1.273 . S
C291 O287 1.246 . S
C291 O288 1.259 . S
C292 O289 1.252 . S
C292 O290 1.273 . S
O293 Mg280 2.010 . S
O293 C285 1.249 . S
Mg294 O295 2.028 . S
Mg294 O301 1.986 . S
Mg294 O303 2.114 . S
Mg294 O304 2.251 . S
Mg294 O307 2.010 . S
O295 Mg294 2.028 . S
O295 C298 1.250 . S
O296 Mg297 2.028 . S
O296 C298 1.248 . S
Mg297 O296 2.028 . S
Mg297 O302 2.032 . S
Mg297 O304 2.079 . S
C298 O295 1.250 . S
C298 O296 1.248 . S
C299 O300 1.264 1_556 S
C299 O307 1.249 . S
O300 C299 1.264 1_554 S
O301 Mg294 1.986 . S
O301 C305 1.246 . S
O302 Mg297 2.032 . S
O302 C305 1.259 . S
O303 Mg294 2.114 . S
O303 C306 1.252 . S
O304 Mg294 2.251 . S
O304 Mg297 2.079 . S
O304 C306 1.273 . S
C305 O301 1.246 . S
C305 O302 1.259 . S
C306 O303 1.252 . S
C306 O304 1.273 . S
O307 Mg294 2.010 . S
O307 C299 1.249 . S
Mg308 O309 2.028 . S
Mg308 O315 1.986 . S
Mg308 O317 2.114 . S
Mg308 O318 2.251 . S
Mg308 O321 2.010 . S
O309 Mg308 2.028 . S
O309 C312 1.250 . S
O310 Mg311 2.028 . S
O310 C312 1.248 . S
Mg311 O310 2.028 . S
Mg311 O316 2.032 . S
Mg311 O318 2.079 . S
C312 O309 1.250 . S
C312 O310 1.248 . S
C313 O314 1.264 1_556 S
C313 O321 1.249 . S
O314 C313 1.264 1_554 S
O315 Mg308 1.986 . S
O315 C319 1.246 . S
O316 Mg311 2.032 . S
O316 C319 1.259 . S
O317 Mg308 2.114 . S
O317 C320 1.252 . S
O318 Mg308 2.251 . S
O318 Mg311 2.079 . S
O318 C320 1.273 . S
C319 O315 1.246 . S
C319 O316 1.259 . S
C320 O317 1.252 . S
C320 O318 1.273 . S
O321 Mg308 2.010 . S
O321 C313 1.249 . S
Mg322 O323 2.028 . S
Mg322 O329 1.986 . S
Mg322 O331 2.114 . S
Mg322 O332 2.251 . S
Mg322 O335 2.010 . S
O323 Mg322 2.028 . S
O323 C326 1.250 . S
O324 Mg325 2.028 . S
O324 C326 1.248 . S
Mg325 O324 2.028 . S
Mg325 O330 2.032 . S
Mg325 O332 2.079 . S
C326 O323 1.250 . S
C326 O324 1.248 . S
C327 O328 1.264 . S
C327 O335 1.249 1_554 S
O328 C327 1.264 . S
O329 Mg322 1.986 . S
O329 C333 1.246 . S
O330 Mg325 2.032 . S
O330 C333 1.259 . S
O331 Mg322 2.114 . S
O331 C334 1.252 . S
O332 Mg322 2.251 . S
O332 Mg325 2.079 . S
O332 C334 1.273 . S
C333 O329 1.246 . S
C333 O330 1.259 . S
C334 O331 1.252 . S
C334 O332 1.273 . S
O335 Mg322 2.010 . S
O335 C327 1.249 1_556 S
Mg336 O337 2.028 . S
Mg336 O343 1.986 . S
Mg336 O345 2.114 . S
Mg336 O346 2.251 . S
Mg336 O349 2.010 . S
O337 Mg336 2.028 . S
O337 C340 1.250 . S
O338 Mg339 2.028 . S
O338 C340 1.248 . S
Mg339 O338 2.028 . S
Mg339 O344 2.032 . S
Mg339 O346 2.079 . S
C340 O337 1.250 . S
C340 O338 1.248 . S
C341 O342 1.264 . S
C341 O349 1.249 . S
O342 C341 1.264 . S
O343 Mg336 1.986 . S
O343 C347 1.246 . S
O344 Mg339 2.032 . S
O344 C347 1.259 . S
O345 Mg336 2.114 . S
O345 C348 1.252 . S
O346 Mg336 2.251 . S
O346 Mg339 2.079 . S
O346 C348 1.273 . S
C347 O343 1.246 . S
C347 O344 1.259 . S
C348 O345 1.252 . S
C348 O346 1.273 . S
O349 Mg336 2.010 . S
O349 C341 1.249 . S
Mg350 O351 2.028 . S
Mg350 O357 1.986 . S
Mg350 O359 2.114 . S
Mg350 O360 2.251 . S
Mg350 O363 2.010 . S
O351 Mg350 2.028 . S
O351 C354 1.250 . S
O352 Mg353 2.028 . S
O352 C354 1.248 . S
Mg353 O352 2.028 . S
Mg353 O358 2.032 . S
Mg353 O360 2.079 . S
C354 O351 1.250 . S
C354 O352 1.248 . S
C355 O356 1.264 . S
C355 O363 1.249 . S
O356 C355 1.264 . S
O357 Mg350 1.986 . S
O357 C361 1.246 . S
O358 Mg353 2.032 . S
O358 C361 1.259 . S
O359 Mg350 2.114 . S
O359 C362 1.252 . S
O360 Mg350 2.251 . S
O360 Mg353 2.079 . S
O360 C362 1.273 . S
C361 O357 1.246 . S
C361 O358 1.259 . S
C362 O359 1.252 . S
C362 O360 1.273 . S
O363 Mg350 2.010 . S
O363 C355 1.249 . S
Mg364 O365 2.028 . S
Mg364 O371 1.986 . S
Mg364 O373 2.114 . S
Mg364 O374 2.251 . S
Mg364 O377 2.010 . S
O365 Mg364 2.028 . S
O365 C368 1.250 . S
O366 Mg367 2.028 . S
O366 C368 1.248 . S
Mg367 O366 2.028 . S
Mg367 O372 2.032 . S
Mg367 O374 2.079 . S
C368 O365 1.250 . S
C368 O366 1.248 . S
C369 O370 1.264 . S
C369 O377 1.249 . S
O370 C369 1.264 . S
O371 Mg364 1.986 . S
O371 C375 1.246 . S
O372 Mg367 2.032 . S
O372 C375 1.259 . S
O373 Mg364 2.114 . S
O373 C376 1.252 . S
O374 Mg364 2.251 . S
O374 Mg367 2.079 . S
O374 C376 1.273 . S
C375 O371 1.246 . S
C375 O372 1.259 . S
C376 O373 1.252 . S
C376 O374 1.273 . S
O377 Mg364 2.010 . S
O377 C369 1.249 . S
Mg378 O379 2.028 . S
Mg378 O385 1.986 . S
Mg378 O387 2.114 . S
Mg378 O388 2.251 . S
Mg378 O391 2.010 . S
O379 Mg378 2.028 . S
O379 C382 1.250 . S
O380 Mg381 2.028 . S
O380 C382 1.248 . S
Mg381 O380 2.028 . S
Mg381 O386 2.032 . S
Mg381 O388 2.079 . S
C382 O379 1.250 . S
C382 O380 1.248 . S
C383 O384 1.264 . S
C383 O391 1.249 . S
O384 C383 1.264 . S
O385 Mg378 1.986 . S
O385 C389 1.246 . S
O386 Mg381 2.032 . S
O386 C389 1.259 . S
O387 Mg378 2.114 . S
O387 C390 1.252 . S
O388 Mg378 2.251 . S
O388 Mg381 2.079 . S
O388 C390 1.273 . S
C389 O385 1.246 . S
C389 O386 1.259 . S
C390 O387 1.252 . S
C390 O388 1.273 . S
O391 Mg378 2.010 . S
O391 C383 1.249 . S
Mg392 O393 2.028 . S
Mg392 O399 1.986 . S
Mg392 O401 2.114 . S
Mg392 O402 2.251 . S
Mg392 O405 2.010 . S
O393 Mg392 2.028 . S
O393 C396 1.250 . S
O394 Mg395 2.028 . S
O394 C396 1.248 . S
Mg395 O394 2.028 . S
Mg395 O400 2.032 . S
Mg395 O402 2.079 . S
C396 O393 1.250 . S
C396 O394 1.248 . S
C397 O398 1.264 . S
C397 O405 1.249 . S
O398 C397 1.264 . S
O399 Mg392 1.986 . S
O399 C403 1.246 . S
O400 Mg395 2.032 . S
O400 C403 1.259 . S
O401 Mg392 2.114 . S
O401 C404 1.252 . S
O402 Mg392 2.251 . S
O402 Mg395 2.079 . S
O402 C404 1.273 . S
C403 O399 1.246 . S
C403 O400 1.259 . S
C404 O401 1.252 . S
C404 O402 1.273 . S
O405 Mg392 2.010 . S
O405 C397 1.249 . S
Mg406 O407 2.028 . S
Mg406 O413 1.986 . S
Mg406 O415 2.114 . S
Mg406 O416 2.251 . S
Mg406 O419 2.010 . S
O407 Mg406 2.028 . S
O407 C410 1.250 . S
O408 Mg409 2.028 . S
O408 C410 1.248 . S
Mg409 O408 2.028 . S
Mg409 O414 2.032 . S
Mg409 O416 2.079 . S
C410 O407 1.250 . S
C410 O408 1.248 . S
C411 O412 1.264 . S
C411 O419 1.249 . S
O412 C411 1.264 . S
O413 Mg406 1.986 . S
O413 C417 1.246 . S
O414 Mg409 2.032 . S
O414 C417 1.259 . S
O415 Mg406 2.114 . S
O415 C418 1.252 . S
O416 Mg406 2.251 . S
O416 Mg409 2.079 . S
O416 C418 1.273 . S
C417 O413 1.246 . S
C417 O414 1.259 . S
C418 O415 1.252 . S
C418 O416 1.273 . S
O419 Mg406 2.010 . S
O419 C411 1.249 . S
Mg420 O421 2.028 . S
Mg420 O427 1.986 . S
Mg420 O429 2.114 . S
Mg420 O430 2.251 . S
Mg420 O433 2.010 . S
O421 Mg420 2.028 . S
O421 C424 1.250 . S
O422 Mg423 2.028 . S
O422 C424 1.248 . S
Mg423 O422 2.028 . S
Mg423 O428 2.032 . S
Mg423 O430 2.079 . S
C424 O421 1.250 . S
C424 O422 1.248 . S
C425 O426 1.264 . S
C425 O433 1.249 . S
O426 C425 1.264 . S
O427 Mg420 1.986 . S
O427 C431 1.246 . S
O428 Mg423 2.032 . S
O428 C431 1.259 . S
O429 Mg420 2.114 . S
O429 C432 1.252 . S
O430 Mg420 2.251 . S
O430 Mg423 2.079 . S
O430 C432 1.273 . S
C431 O427 1.246 . S
C431 O428 1.259 . S
C432 O429 1.252 . S
C432 O430 1.273 . S
O433 Mg420 2.010 . S
O433 C425 1.249 . S
Mg434 O435 2.028 . S
Mg434 O441 1.986 . S
Mg434 O443 2.114 . S
Mg434 O444 2.251 . S
Mg434 O447 2.010 . S
O435 Mg434 2.028 . S
O435 C438 1.250 . S
O436 Mg437 2.028 . S
O436 C438 1.248 . S
Mg437 O436 2.028 . S
Mg437 O442 2.032 . S
Mg437 O444 2.079 . S
C438 O435 1.250 . S
C438 O436 1.248 . S
C439 O440 1.264 . S
C439 O447 1.249 . S
O440 C439 1.264 . S
O441 Mg434 1.986 . S
O441 C445 1.246 . S
O442 Mg437 2.032 . S
O442 C445 1.259 . S
O443 Mg434 2.114 . S
O443 C446 1.252 . S
O444 Mg434 2.251 . S
O444 Mg437 2.079 . S
O444 C446 1.273 . S
C445 O441 1.246 . S
C445 O442 1.259 . S
C446 O443 1.252 . S
C446 O444 1.273 . S
O447 Mg434 2.010 . S
O447 C439 1.249 . S
Mg448 O449 2.028 . S
Mg448 O455 1.986 . S
Mg448 O457 2.114 . S
Mg448 O458 2.251 . S
Mg448 O461 2.010 . S
O449 Mg448 2.028 . S
O449 C452 1.250 . S
O450 Mg451 2.028 . S
O450 C452 1.248 . S
Mg451 O450 2.028 . S
Mg451 O456 2.032 . S
Mg451 O458 2.079 . S
C452 O449 1.250 . S
C452 O450 1.248 . S
C453 O454 1.264 . S
C453 O461 1.249 . S
O454 C453 1.264 . S
O455 Mg448 1.986 . S
O455 C459 1.246 . S
O456 Mg451 2.032 . S
O456 C459 1.259 . S
O457 Mg448 2.114 . S
O457 C460 1.252 . S
O458 Mg448 2.251 . S
O458 Mg451 2.079 . S
O458 C460 1.273 . S
C459 O455 1.246 . S
C459 O456 1.259 . S
C460 O457 1.252 . S
C460 O458 1.273 . S
O461 Mg448 2.010 . S
O461 C453 1.249 . S
Mg462 O463 2.028 . S
Mg462 O469 1.986 . S
Mg462 O471 2.114 . S
Mg462 O472 2.251 . S
Mg462 O475 2.010 . S
O463 Mg462 2.028 . S
O463 C466 1.250 . S
O464 Mg465 2.028 . S
O464 C466 1.248 . S
Mg465 O464 2.028 . S
Mg465 O470 2.032 . S
Mg465 O472 2.079 . S
C466 O463 1.250 . S
C466 O464 1.248 . S
C467 O468 1.264 . S
C467 O475 1.249 . S
O468 C467 1.264 . S
O469 Mg462 1.986 . S
O469 C473 1.246 . S
O470 Mg465 2.032 . S
O470 C473 1.259 . S
O471 Mg462 2.114 . S
O471 C474 1.252 . S
O472 Mg462 2.251 . S
O472 Mg465 2.079 . S
O472 C474 1.273 . S
C473 O469 1.246 . S
C473 O470 1.259 . S
C474 O471 1.252 . S
C474 O472 1.273 . S
O475 Mg462 2.010 . S
O475 C467 1.249 . S
Mg476 O477 2.028 . S
Mg476 O483 1.986 . S
Mg476 O485 2.114 . S
Mg476 O486 2.251 . S
Mg476 O489 2.010 . S
O477 Mg476 2.028 . S
O477 C480 1.250 . S
O478 Mg479 2.028 . S
O478 C480 1.248 . S
Mg479 O478 2.028 . S
Mg479 O484 2.032 . S
Mg479 O486 2.079 . S
C480 O477 1.250 . S
C480 O478 1.248 . S
C481 O482 1.264 . S
C481 O489 1.249 . S
O482 C481 1.264 . S
O483 Mg476 1.986 . S
O483 C487 1.246 . S
O484 Mg479 2.032 . S
O484 C487 1.259 . S
O485 Mg476 2.114 . S
O485 C488 1.252 . S
O486 Mg476 2.251 . S
O486 Mg479 2.079 . S
O486 C488 1.273 . S
C487 O483 1.246 . S
C487 O484 1.259 . S
C488 O485 1.252 . S
C488 O486 1.273 . S
O489 Mg476 2.010 . S
O489 C481 1.249 . S
Mg490 O491 2.028 . S
Mg490 O497 1.986 . S
Mg490 O499 2.114 . S
Mg490 O500 2.251 . S
Mg490 O503 2.010 . S
O491 Mg490 2.028 . S
O491 C494 1.250 . S
O492 Mg493 2.028 . S
O492 C494 1.248 . S
Mg493 O492 2.028 . S
Mg493 O498 2.032 . S
Mg493 O500 2.079 . S
C494 O491 1.250 . S
C494 O492 1.248 . S
C495 O496 1.264 . S
C495 O503 1.249 . S
O496 C495 1.264 . S
O497 Mg490 1.986 . S
O497 C501 1.246 . S
O498 Mg493 2.032 . S
O498 C501 1.259 . S
O499 Mg490 2.114 . S
O499 C502 1.252 . S
O500 Mg490 2.251 . S
O500 Mg493 2.079 . S
O500 C502 1.273 . S
C501 O497 1.246 . S
C501 O498 1.259 . S
C502 O499 1.252 . S
C502 O500 1.273 . S
O503 Mg490 2.010 . S
O503 C495 1.249 . S
C504 C505 1.369 . S
C504 C506 1.419 . S
C504 H508 0.930 . S
C505 C504 1.369 . S
C505 C514 1.429 . S
C506 C504 1.419 . S
C506 C507 1.363 . S
C506 H509 0.929 . S
C507 C506 1.363 . S
C507 C513 1.428 . S
H508 C504 0.930 . S
H509 C506 0.929 . S
S510 N511 1.613 . S
S510 N512 1.610 . S
N511 S510 1.613 . S
N511 C514 1.350 . S
N512 S510 1.610 . S
N512 C513 1.351 . S
C513 C507 1.428 . S
C513 N512 1.351 . S
C513 C514 1.434 . S
C514 C505 1.429 . S
C514 N511 1.350 . S
C514 C513 1.434 . S
C515 C516 1.369 . S
C515 C517 1.419 . S
C515 H519 0.930 . S
C516 C515 1.369 . S
C516 C525 1.429 . S
C517 C515 1.419 . S
C517 C518 1.363 . S
C517 H520 0.929 . S
C518 C517 1.363 . S
C518 C524 1.428 . S
H519 C515 0.930 . S
H520 C517 0.929 . S
S521 N522 1.613 . S
S521 N523 1.610 . S
N522 S521 1.613 . S
N522 C525 1.350 . S
N523 S521 1.610 . S
N523 C524 1.351 . S
C524 C518 1.428 . S
C524 N523 1.351 . S
C524 C525 1.434 . S
C525 C516 1.429 . S
C525 N522 1.350 . S
C525 C524 1.434 . S
C526 C527 1.369 . S
C526 C528 1.419 . S
C526 H530 0.930 . S
C527 C526 1.369 . S
C527 C536 1.429 . S
C528 C526 1.419 . S
C528 C529 1.363 . S
C528 H531 0.929 . S
C529 C528 1.363 . S
C529 C535 1.428 . S
H530 C526 0.930 . S
H531 C528 0.929 . S
S532 N533 1.613 . S
S532 N534 1.610 . S
N533 S532 1.613 . S
N533 C536 1.350 . S
N534 S532 1.610 . S
N534 C535 1.351 . S
C535 C529 1.428 . S
C535 N534 1.351 . S
C535 C536 1.434 . S
C536 C527 1.429 . S
C536 N533 1.350 . S
C536 C535 1.434 . S
C537 C538 1.369 . S
C537 C539 1.419 . S
C537 H541 0.930 . S
C538 C537 1.369 . S
C538 C547 1.429 . S
C539 C537 1.419 . S
C539 C540 1.363 . S
C539 H542 0.929 . S
C540 C539 1.363 . S
C540 C546 1.428 . S
H541 C537 0.930 . S
H542 C539 0.929 . S
S543 N544 1.613 . S
S543 N545 1.610 . S
N544 S543 1.613 . S
N544 C547 1.350 . S
N545 S543 1.610 . S
N545 C546 1.351 . S
C546 C540 1.428 . S
C546 N545 1.351 . S
C546 C547 1.434 . S
C547 C538 1.429 . S
C547 N544 1.350 . S
C547 C546 1.434 . S
C548 C549 1.369 . S
C548 C550 1.419 . S
C548 H552 0.930 . S
C549 C548 1.369 . S
C549 C558 1.429 . S
C550 C548 1.419 . S
C550 C551 1.363 . S
C550 H553 0.929 . S
C551 C550 1.363 . S
C551 C557 1.428 . S
H552 C548 0.930 . S
H553 C550 0.929 . S
S554 N555 1.613 . S
S554 N556 1.610 . S
N555 S554 1.613 . S
N555 C558 1.350 . S
N556 S554 1.610 . S
N556 C557 1.351 . S
C557 C551 1.428 . S
C557 N556 1.351 . S
C557 C558 1.434 . S
C558 C549 1.429 . S
C558 N555 1.350 . S
C558 C557 1.434 . S
C559 C560 1.369 . S
C559 C561 1.419 . S
C559 H563 0.930 . S
C560 C559 1.369 . S
C560 C569 1.429 . S
C561 C559 1.419 . S
C561 C562 1.363 . S
C561 H564 0.929 . S
C562 C561 1.363 . S
C562 C568 1.428 . S
H563 C559 0.930 . S
H564 C561 0.929 . S
S565 N566 1.613 . S
S565 N567 1.610 . S
N566 S565 1.613 . S
N566 C569 1.350 . S
N567 S565 1.610 . S
N567 C568 1.351 . S
C568 C562 1.428 . S
C568 N567 1.351 . S
C568 C569 1.434 . S
C569 C560 1.429 . S
C569 N566 1.350 . S
C569 C568 1.434 . S
C570 C571 1.369 . S
C570 C572 1.419 . S
C570 H574 0.930 . S
C571 C570 1.369 . S
C571 C580 1.429 . S
C572 C570 1.419 . S
C572 C573 1.363 . S
C572 H575 0.929 1_554 S
C573 C572 1.363 . S
C573 C579 1.428 . S
H574 C570 0.930 . S
H575 C572 0.929 1_556 S
S576 N577 1.613 . S
S576 N578 1.610 . S
N577 S576 1.613 . S
N577 C580 1.350 . S
N578 S576 1.610 . S
N578 C579 1.351 . S
C579 C573 1.428 . S
C579 N578 1.351 . S
C579 C580 1.434 . S
C580 C571 1.429 . S
C580 N577 1.350 . S
C580 C579 1.434 . S
C581 C582 1.369 . S
C581 C583 1.419 . S
C581 H585 0.930 . S
C582 C581 1.369 . S
C582 C591 1.429 . S
C583 C581 1.419 . S
C583 C584 1.363 . S
C583 H586 0.929 . S
C584 C583 1.363 . S
C584 C590 1.428 . S
H585 C581 0.930 . S
H586 C583 0.929 . S
S587 N588 1.613 . S
S587 N589 1.622 . S
N588 S587 1.613 . S
N588 C591 1.350 . S
N589 S587 1.622 . S
N589 C590 1.357 . S
C590 C584 1.428 . S
C590 N589 1.357 . S
C590 C591 1.434 . S
C591 C582 1.429 . S
C591 N588 1.350 . S
C591 C590 1.434 . S
C592 C593 1.369 . S
C592 C594 1.419 . S
C592 H596 0.930 . S
C593 C592 1.369 . S
C593 C602 1.429 . S
C594 C592 1.419 . S
C594 C595 1.363 . S
C594 H597 0.929 . S
C595 C594 1.363 . S
C595 C601 1.428 . S
H596 C592 0.930 . S
H597 C594 0.929 . S
S598 N599 1.613 1_556 S
S598 N600 1.610 . S
N599 S598 1.613 1_554 S
N599 C602 1.350 . S
N600 S598 1.610 . S
N600 C601 1.351 1_556 S
C601 C595 1.428 . S
C601 N600 1.351 1_554 S
C601 C602 1.434 . S
C602 C593 1.429 . S
C602 N599 1.350 . S
C602 C601 1.434 . S
C603 C604 1.369 . S
C603 C605 1.419 . S
C603 H607 0.930 . S
C604 C603 1.369 . S
C604 C613 1.429 . S
C605 C603 1.419 . S
C605 C606 1.363 . S
C605 H608 0.929 . S
C606 C605 1.363 . S
C606 C612 1.428 . S
H607 C603 0.930 . S
H608 C605 0.929 . S
S609 N610 1.613 . S
S609 N611 1.610 . S
N610 S609 1.613 . S
N610 C613 1.350 . S
N611 S609 1.610 . S
N611 C612 1.351 . S
C612 C606 1.428 . S
C612 N611 1.351 . S
C612 C613 1.434 . S
C613 C604 1.429 . S
C613 N610 1.350 . S
C613 C612 1.434 . S
C614 C615 1.369 . S
C614 C616 1.419 . S
C614 H618 0.930 . S
C615 C614 1.369 . S
C615 C624 1.429 . S
C616 C614 1.419 . S
C616 C617 1.363 . S
C616 H619 0.929 . S
C617 C616 1.363 . S
C617 C623 1.428 . S
H618 C614 0.930 . S
H619 C616 0.929 . S
S620 N621 1.613 . S
S620 N622 1.610 . S
N621 S620 1.613 . S
N621 C624 1.350 . S
N622 S620 1.610 . S
N622 C623 1.351 . S
C623 C617 1.428 . S
C623 N622 1.351 . S
C623 C624 1.434 . S
C624 C615 1.429 . S
C624 N621 1.350 . S
C624 C623 1.434 . S
C625 C626 1.369 . S
C625 C627 1.419 . S
C625 H629 0.930 . S
C626 C625 1.369 . S
C626 C635 1.429 . S
C627 C625 1.419 . S
C627 C628 1.363 . S
C627 H630 0.929 1_655 S
C628 C627 1.363 . S
C628 C634 1.428 . S
H629 C625 0.930 . S
H630 C627 0.929 1_455 S
S631 N632 1.613 . S
S631 N633 1.610 . S
N632 S631 1.613 . S
N632 C635 1.350 . S
N633 S631 1.610 . S
N633 C634 1.351 . S
C634 C628 1.428 . S
C634 N633 1.351 . S
C634 C635 1.434 . S
C635 C626 1.429 . S
C635 N632 1.350 . S
C635 C634 1.434 . S
C636 C637 1.369 . S
C636 C638 1.419 . S
C636 H640 0.930 . S
C637 C636 1.369 . S
C637 C646 1.429 1_455 S
C638 C636 1.419 . S
C638 C639 1.363 1_455 S
C638 H641 0.929 . S
C639 C638 1.363 1_655 S
C639 C645 1.428 . S
H640 C636 0.930 . S
H641 C638 0.929 . S
S642 N643 1.613 . S
S642 N644 1.610 . S
N643 S642 1.613 . S
N643 C646 1.350 . S
N644 S642 1.610 . S
N644 C645 1.351 . S
C645 C639 1.428 . S
C645 N644 1.351 . S
C645 C646 1.434 . S
C646 C637 1.429 1_655 S
C646 N643 1.350 . S
C646 C645 1.434 . S
C647 C648 1.369 . S
C647 C649 1.419 . S
C647 H651 0.930 . S
C648 C647 1.369 . S
C648 C657 1.429 . S
C649 C647 1.419 . S
C649 C650 1.363 . S
C649 H652 0.929 . S
C650 C649 1.363 . S
C650 C656 1.428 . S
H651 C647 0.930 . S
H652 C649 0.929 . S
S653 N654 1.613 . S
S653 N655 1.610 . S
N654 S653 1.613 . S
N654 C657 1.350 . S
N655 S653 1.610 . S
N655 C656 1.351 . S
C656 C650 1.428 . S
C656 N655 1.351 . S
C656 C657 1.434 . S
C657 C648 1.429 . S
C657 N654 1.350 . S
C657 C656 1.434 . S
C658 C659 1.369 1_545 S
C658 C660 1.419 . S
C658 H662 0.930 1_545 S
C659 C658 1.369 1_565 S
C659 C668 1.429 . S
C660 C658 1.419 . S
C660 C661 1.363 . S
C660 H663 0.929 . S
C661 C660 1.363 . S
C661 C667 1.428 . S
H662 C658 0.930 1_565 S
H663 C660 0.929 . S
S664 N665 1.598 1_545 S
S664 N666 1.614 . S
N665 S664 1.598 1_565 S
N665 C668 1.350 . S
N666 S664 1.614 . S
N666 C667 1.351 . S
C667 C661 1.428 . S
C667 N666 1.351 . S
C667 C668 1.434 1_545 S
C668 C659 1.429 . S
C668 N665 1.350 . S
C668 C667 1.434 1_565 S
C669 C670 1.369 1_545 S
C669 C671 1.419 . S
C669 H673 0.930 . S
C670 C669 1.369 1_565 S
C670 C679 1.429 . S
C671 C669 1.419 . S
C671 C672 1.363 . S
C671 H674 0.929 . S
C672 C671 1.363 . S
C672 C678 1.428 . S
H673 C669 0.930 . S
H674 C671 0.929 . S
S675 N676 1.613 . S
S675 N677 1.610 1_565 S
N676 S675 1.613 . S
N676 C679 1.350 . S
N677 S675 1.610 1_545 S
N677 C678 1.351 . S
C678 C672 1.428 . S
C678 N677 1.351 . S
C678 C679 1.434 1_545 S
C679 C670 1.429 . S
C679 N676 1.350 . S
C679 C678 1.434 1_565 S
C680 C681 1.369 . S
C680 C682 1.419 . S
C680 H684 0.930 . S
C681 C680 1.369 . S
C681 C690 1.429 . S
C682 C680 1.419 . S
C682 C683 1.363 1_455 S
C682 H685 0.929 . S
C683 C682 1.363 1_655 S
C683 C689 1.428 . S
H684 C680 0.930 . S
H685 C682 0.929 . S
S686 N687 1.613 1_655 S
S686 N688 1.610 . S
N687 S686 1.613 1_455 S
N687 C690 1.350 . S
N688 S686 1.610 . S
N688 C689 1.351 . S
C689 C683 1.428 . S
C689 N688 1.351 . S
C689 C690 1.434 1_655 S
C690 C681 1.429 . S
C690 N687 1.350 . S
C690 C689 1.434 1_455 S
C691 C692 1.369 . S
C691 C693 1.419 . S
C691 H695 0.930 . S
C692 C691 1.369 . S
C692 C701 1.429 . S
C693 C691 1.419 . S
C693 C694 1.363 . S
C693 H696 0.929 . S
C694 C693 1.363 . S
C694 C700 1.428 . S
H695 C691 0.930 . S
H696 C693 0.929 . S
S697 N698 1.613 . S
S697 N699 1.610 . S
N698 S697 1.613 . S
N698 C701 1.350 . S
N699 S697 1.610 . S
N699 C700 1.351 . S
C700 C694 1.428 . S
C700 N699 1.351 . S
C700 C701 1.434 . S
C701 C692 1.429 . S
C701 N698 1.350 . S
C701 C700 1.434 . S
C702 C703 1.369 . S
C702 C704 1.419 . S
C702 H706 0.930 . S
C703 C702 1.369 . S
C703 C712 1.429 1_554 S
C704 C702 1.419 . S
C704 C705 1.363 . S
C704 H707 0.929 . S
C705 C704 1.363 . S
C705 C711 1.428 1_554 S
H706 C702 0.930 . S
H707 C704 0.929 . S
S708 N709 1.613 . S
S708 N710 1.610 . S
N709 S708 1.613 . S
N709 C712 1.350 . S
N710 S708 1.610 . S
N710 C711 1.351 . S
C711 C705 1.428 1_556 S
C711 N710 1.351 . S
C711 C712 1.434 . S
C712 C703 1.429 1_556 S
C712 N709 1.350 . S
C712 C711 1.434 . S
C713 C714 1.369 1_556 S
C713 C715 1.419 1_556 S
C713 H717 0.930 . S
C714 C713 1.369 1_554 S
C714 C723 1.429 . S
C715 C713 1.419 1_554 S
C715 C716 1.363 . S
C715 H718 0.929 1_554 S
C716 C715 1.363 . S
C716 C722 1.428 . S
H717 C713 0.930 . S
H718 C715 0.929 1_556 S
S719 N720 1.613 . S
S719 N721 1.610 . S
N720 S719 1.613 . S
N720 C723 1.350 . S
N721 S719 1.610 . S
N721 C722 1.351 . S
C722 C716 1.428 . S
C722 N721 1.351 . S
C722 C723 1.434 . S
C723 C714 1.429 . S
C723 N720 1.350 . S
C723 C722 1.434 . S
C724 C725 1.369 1_556 S
C724 C726 1.419 . S
C724 H728 0.930 . S
C725 C724 1.369 1_554 S
C725 C734 1.429 . S
C726 C724 1.419 . S
C726 C727 1.363 1_556 S
C726 H729 0.929 . S
C727 C726 1.363 1_554 S
C727 C733 1.428 . S
H728 C724 0.930 . S
H729 C726 0.929 . S
S730 N731 1.613 . S
S730 N732 1.610 . S
N731 S730 1.613 . S
N731 C734 1.350 . S
N732 S730 1.610 . S
N732 C733 1.351 . S
C733 C727 1.428 . S
C733 N732 1.351 . S
C733 C734 1.434 . S
C734 C725 1.429 . S
C734 N731 1.350 . S
C734 C733 1.434 . S
C735 C736 1.369 . S
C735 C737 1.419 . S
C735 H739 0.930 . S
C736 C735 1.369 . S
C736 C745 1.429 . S
C737 C735 1.419 . S
C737 C738 1.363 . S
C737 H740 0.929 . S
C738 C737 1.363 . S
C738 C744 1.428 . S
H739 C735 0.930 . S
H740 C737 0.929 . S
S741 N742 1.613 . S
S741 N743 1.610 . S
N742 S741 1.613 . S
N742 C745 1.350 . S
N743 S741 1.610 . S
N743 C744 1.351 . S
C744 C738 1.428 . S
C744 N743 1.351 . S
C744 C745 1.434 . S
C745 C736 1.429 . S
C745 N742 1.350 . S
C745 C744 1.434 . S
C746 C747 1.369 . S
C746 C748 1.419 . S
C746 H750 0.930 . S
C747 C746 1.369 . S
C747 C756 1.429 . S
C748 C746 1.419 . S
C748 C749 1.363 . S
C748 H751 0.929 . S
C749 C748 1.363 . S
C749 C755 1.428 . S
H750 C746 0.930 . S
H751 C748 0.929 . S
S752 N753 1.613 . S
S752 N754 1.610 . S
N753 S752 1.613 . S
N753 C756 1.350 . S
N754 S752 1.610 . S
N754 C755 1.351 . S
C755 C749 1.428 . S
C755 N754 1.351 . S
C755 C756 1.434 . S
C756 C747 1.429 . S
C756 N753 1.350 . S
C756 C755 1.434 . S
C757 C758 1.369 . S
C757 C759 1.419 . S
C757 H761 0.930 . S
C758 C757 1.369 . S
C758 C767 1.429 . S
C759 C757 1.419 . S
C759 C760 1.363 . S
C759 H762 0.929 . S
C760 C759 1.363 . S
C760 C766 1.428 . S
H761 C757 0.930 . S
H762 C759 0.929 . S
S763 N764 1.613 . S
S763 N765 1.610 . S
N764 S763 1.613 . S
N764 C767 1.350 . S
N765 S763 1.610 . S
N765 C766 1.351 . S
C766 C760 1.428 . S
C766 N765 1.351 . S
C766 C767 1.434 . S
C767 C758 1.429 . S
C767 N764 1.350 . S
C767 C766 1.434 . S
C768 C769 1.371 . S
C768 C770 1.419 1_554 S
C768 H772 0.930 . S
C769 C768 1.371 . S
C769 C778 1.426 1_554 S
C770 C768 1.419 1_556 S
C770 C771 1.363 . S
C770 H773 0.929 1_556 S
C771 C770 1.363 . S
C771 C777 1.428 . S
H772 C768 0.930 . S
H773 C770 0.929 1_554 S
S774 N775 1.613 . S
S774 N776 1.610 . S
N775 S774 1.613 . S
N775 C778 1.350 . S
N776 S774 1.610 . S
N776 C777 1.351 . S
C777 C771 1.428 . S
C777 N776 1.351 . S
C777 C778 1.434 . S
C778 C769 1.426 1_556 S
C778 N775 1.350 . S
C778 C777 1.434 . S
C779 C780 1.369 1_554 S
C779 C781 1.419 . S
C779 H783 0.930 . S
C780 C779 1.369 1_556 S
C780 C789 1.429 . S
C781 C779 1.419 . S
C781 C782 1.363 . S
C781 H784 0.929 . S
C782 C781 1.363 . S
C782 C788 1.426 1_554 S
H783 C779 0.930 . S
H784 C781 0.929 . S
S785 N786 1.613 . S
S785 N787 1.610 . S
N786 S785 1.613 . S
N786 C789 1.350 . S
N787 S785 1.610 . S
N787 C788 1.352 . S
C788 C782 1.426 1_556 S
C788 N787 1.352 . S
C788 C789 1.435 . S
C789 C780 1.429 . S
C789 N786 1.350 . S
C789 C788 1.435 . S
C790 C791 1.369 1_556 S
C790 C792 1.419 . S
C790 H794 0.930 . S
C791 C790 1.369 1_554 S
C791 C800 1.429 . S
C792 C790 1.419 . S
C792 C793 1.363 1_556 S
C792 H795 0.929 . S
C793 C792 1.363 1_554 S
C793 C799 1.428 . S
H794 C790 0.930 . S
H795 C792 0.929 . S
S796 N797 1.613 . S
S796 N798 1.610 . S
N797 S796 1.613 . S
N797 C800 1.350 . S
N798 S796 1.610 . S
N798 C799 1.351 . S
C799 C793 1.428 . S
C799 N798 1.351 . S
C799 C800 1.434 . S
C800 C791 1.429 . S
C800 N797 1.350 . S
C800 C799 1.434 . S
C801 C802 1.369 . S
C801 C803 1.419 . S
C801 H805 0.930 . S
C802 C801 1.369 . S
C802 C811 1.429 . S
C803 C801 1.419 . S
C803 C804 1.363 . S
C803 H806 0.929 . S
C804 C803 1.363 . S
C804 C810 1.428 . S
H805 C801 0.930 . S
H806 C803 0.929 . S
S807 N808 1.613 . S
S807 N809 1.610 . S
N808 S807 1.613 . S
N808 C811 1.350 . S
N809 S807 1.610 . S
N809 C810 1.351 . S
C810 C804 1.428 . S
C810 N809 1.351 . S
C810 C811 1.434 . S
C811 C802 1.429 . S
C811 N808 1.350 . S
C811 C810 1.434 . S
C812 C813 1.369 . S
C812 C814 1.419 . S
C812 H816 0.930 . S
C813 C812 1.369 . S
C813 C822 1.429 . S
C814 C812 1.419 . S
C814 C815 1.363 . S
C814 H817 0.929 . S
C815 C814 1.363 . S
C815 C821 1.428 . S
H816 C812 0.930 . S
H817 C814 0.929 . S
S818 N819 1.613 . S
S818 N820 1.610 . S
N819 S818 1.613 . S
N819 C822 1.350 . S
N820 S818 1.610 . S
N820 C821 1.351 . S
C821 C815 1.428 . S
C821 N820 1.351 . S
C821 C822 1.434 . S
C822 C813 1.429 . S
C822 N819 1.350 . S
C822 C821 1.434 . S
C823 C824 1.369 . S
C823 C825 1.419 . S
C823 H827 0.930 . S
C824 C823 1.369 . S
C824 C833 1.429 . S
C825 C823 1.419 . S
C825 C826 1.363 . S
C825 H828 0.929 . S
C826 C825 1.363 . S
C826 C832 1.428 . S
H827 C823 0.930 . S
H828 C825 0.929 . S
S829 N830 1.613 . S
S829 N831 1.610 . S
N830 S829 1.613 . S
N830 C833 1.350 . S
N831 S829 1.610 . S
N831 C832 1.351 . S
C832 C826 1.428 . S
C832 N831 1.351 . S
C832 C833 1.434 . S
C833 C824 1.429 . S
C833 N830 1.350 . S
C833 C832 1.434 . S
C834 C835 1.369 . S
C834 C836 1.419 . S
C834 H838 0.930 . S
C835 C834 1.369 . S
C835 C844 1.429 . S
C836 C834 1.419 . S
C836 C837 1.363 . S
C836 H839 0.929 . S
C837 C836 1.363 . S
C837 C843 1.428 . S
H838 C834 0.930 . S
H839 C836 0.929 . S
S840 N841 1.613 . S
S840 N842 1.610 . S
N841 S840 1.613 . S
N841 C844 1.350 . S
N842 S840 1.610 . S
N842 C843 1.351 . S
C843 C837 1.428 . S
C843 N842 1.351 . S
C843 C844 1.434 . S
C844 C835 1.429 . S
C844 N841 1.350 . S
C844 C843 1.434 . S
C845 C846 1.369 . S
C845 C847 1.419 . S
C845 H849 0.930 . S
C846 C845 1.369 . S
C846 C855 1.429 . S
C847 C845 1.419 . S
C847 C848 1.363 . S
C847 H850 0.929 . S
C848 C847 1.363 . S
C848 C854 1.428 . S
H849 C845 0.930 . S
H850 C847 0.929 . S
S851 N852 1.613 . S
S851 N853 1.610 . S
N852 S851 1.613 . S
N852 C855 1.350 . S
N853 S851 1.610 . S
N853 C854 1.351 . S
C854 C848 1.428 . S
C854 N853 1.351 . S
C854 C855 1.434 . S
C855 C846 1.429 . S
C855 N852 1.350 . S
C855 C854 1.434 . S
C856 C857 1.369 . S
C856 C858 1.419 . S
C856 H860 0.930 . S
C857 C856 1.369 . S
C857 C866 1.429 . S
C858 C856 1.419 . S
C858 C859 1.363 . S
C858 H861 0.929 . S
C859 C858 1.363 . S
C859 C865 1.428 . S
H860 C856 0.930 . S
H861 C858 0.929 . S
S862 N863 1.613 . S
S862 N864 1.610 . S
N863 S862 1.613 . S
N863 C866 1.350 . S
N864 S862 1.610 . S
N864 C865 1.351 . S
C865 C859 1.428 . S
C865 N864 1.351 . S
C865 C866 1.434 . S
C866 C857 1.429 . S
C866 N863 1.350 . S
C866 C865 1.434 . S
C867 C868 1.369 . S
C867 C869 1.419 . S
C867 H871 0.930 . S
C868 C867 1.369 . S
C868 C877 1.429 . S
C869 C867 1.419 . S
C869 C870 1.363 . S
C869 H872 0.929 . S
C870 C869 1.363 . S
C870 C876 1.428 . S
H871 C867 0.930 . S
H872 C869 0.929 . S
S873 N874 1.613 . S
S873 N875 1.610 . S
N874 S873 1.613 . S
N874 C877 1.350 . S
N875 S873 1.610 . S
N875 C876 1.351 . S
C876 C870 1.428 . S
C876 N875 1.351 . S
C876 C877 1.434 . S
C877 C868 1.429 . S
C877 N874 1.350 . S
C877 C876 1.434 . S
C878 C879 1.369 . S
C878 C880 1.419 . S
C878 H882 0.930 . S
C879 C878 1.369 . S
C879 C888 1.429 . S
C880 C878 1.419 . S
C880 C881 1.363 . S
C880 H883 0.929 . S
C881 C880 1.363 . S
C881 C887 1.428 . S
H882 C878 0.930 . S
H883 C880 0.929 . S
S884 N885 1.613 . S
S884 N886 1.610 . S
N885 S884 1.613 . S
N885 C888 1.350 . S
N886 S884 1.610 . S
N886 C887 1.351 . S
C887 C881 1.428 . S
C887 N886 1.351 . S
C887 C888 1.434 . S
C888 C879 1.429 . S
C888 N885 1.350 . S
C888 C887 1.434 . S
C889 C890 1.369 . S
C889 C891 1.419 . S
C889 H893 0.930 . S
C890 C889 1.369 . S
C890 C899 1.429 . S
C891 C889 1.419 . S
C891 C892 1.363 . S
C891 H894 0.929 . S
C892 C891 1.363 . S
C892 C898 1.428 . S
H893 C889 0.930 . S
H894 C891 0.929 . S
S895 N896 1.613 . S
S895 N897 1.610 . S
N896 S895 1.613 . S
N896 C899 1.350 . S
N897 S895 1.610 . S
N897 C898 1.351 . S
C898 C892 1.428 . S
C898 N897 1.351 . S
C898 C899 1.434 . S
C899 C890 1.429 . S
C899 N896 1.350 . S
C899 C898 1.434 . S
C900 C901 1.369 . S
C900 C902 1.419 . S
C900 H904 0.930 . S
C901 C900 1.369 . S
C901 C910 1.429 . S
C902 C900 1.419 . S
C902 C903 1.363 . S
C902 H905 0.929 . S
C903 C902 1.363 . S
C903 C909 1.428 . S
H904 C900 0.930 . S
H905 C902 0.929 . S
S906 N907 1.613 . S
S906 N908 1.610 . S
N907 S906 1.613 . S
N907 C910 1.350 . S
N908 S906 1.610 . S
N908 C909 1.351 . S
C909 C903 1.428 . S
C909 N908 1.351 . S
C909 C910 1.434 . S
C910 C901 1.429 . S
C910 N907 1.350 . S
C910 C909 1.434 . S
C911 C912 1.369 . S
C911 C913 1.419 . S
C911 H915 0.930 . S
C912 C911 1.369 . S
C912 C921 1.429 . S
C913 C911 1.419 . S
C913 C914 1.363 . S
C913 H916 0.929 . S
C914 C913 1.363 . S
C914 C920 1.428 . S
H915 C911 0.930 . S
H916 C913 0.929 . S
S917 N918 1.613 . S
S917 N919 1.610 . S
N918 S917 1.613 . S
N918 C921 1.350 . S
N919 S917 1.610 . S
N919 C920 1.351 . S
C920 C914 1.428 . S
C920 N919 1.351 . S
C920 C921 1.434 . S
C921 C912 1.429 . S
C921 N918 1.350 . S
C921 C920 1.434 . S
C922 C923 1.369 . S
C922 C924 1.419 . S
C922 H926 0.930 . S
C923 C922 1.369 . S
C923 C932 1.429 . S
C924 C922 1.419 . S
C924 C925 1.363 . S
C924 H927 0.929 . S
C925 C924 1.363 . S
C925 C931 1.428 . S
H926 C922 0.930 . S
H927 C924 0.929 . S
S928 N929 1.613 . S
S928 N930 1.610 . S
N929 S928 1.613 . S
N929 C932 1.350 . S
N930 S928 1.610 . S
N930 C931 1.351 . S
C931 C925 1.428 . S
C931 N930 1.351 . S
C931 C932 1.434 . S
C932 C923 1.429 . S
C932 N929 1.350 . S
C932 C931 1.434 . S
C933 C934 1.369 . S
C933 C935 1.419 . S
C933 H937 0.930 . S
C934 C933 1.369 . S
C934 C943 1.429 . S
C935 C933 1.419 . S
C935 C936 1.363 . S
C935 H938 0.929 . S
C936 C935 1.363 . S
C936 C942 1.428 . S
H937 C933 0.930 . S
H938 C935 0.929 . S
S939 N940 1.613 . S
S939 N941 1.610 . S
N940 S939 1.613 . S
N940 C943 1.350 . S
N941 S939 1.610 . S
N941 C942 1.351 . S
C942 C936 1.428 . S
C942 N941 1.351 . S
C942 C943 1.434 . S
C943 C934 1.429 . S
C943 N940 1.350 . S
C943 C942 1.434 . S
C944 C945 1.369 . S
C944 C946 1.419 . S
C944 H948 0.930 . S
C945 C944 1.369 . S
C945 C954 1.429 . S
C946 C944 1.419 . S
C946 C947 1.363 . S
C946 H949 0.929 . S
C947 C946 1.363 . S
C947 C953 1.428 . S
H948 C944 0.930 . S
H949 C946 0.929 . S
S950 N951 1.613 . S
S950 N952 1.610 . S
N951 S950 1.613 . S
N951 C954 1.350 . S
N952 S950 1.610 . S
N952 C953 1.351 . S
C953 C947 1.428 . S
C953 N952 1.351 . S
C953 C954 1.434 . S
C954 C945 1.429 . S
C954 N951 1.350 . S
C954 C953 1.434 . S
C955 C956 1.369 . S
C955 C957 1.419 . S
C955 H959 0.930 . S
C956 C955 1.369 . S
C956 C965 1.429 . S
C957 C955 1.419 . S
C957 C958 1.363 . S
C957 H960 0.929 . S
C958 C957 1.363 . S
C958 C964 1.428 . S
H959 C955 0.930 . S
H960 C957 0.929 . S
S961 N962 1.613 . S
S961 N963 1.610 . S
N962 S961 1.613 . S
N962 C965 1.350 . S
N963 S961 1.610 . S
N963 C964 1.351 . S
C964 C958 1.428 . S
C964 N963 1.351 . S
C964 C965 1.434 . S
C965 C956 1.429 . S
C965 N962 1.350 . S
C965 C964 1.434 . S
C966 C967 1.369 . S
C966 C968 1.419 . S
C966 H970 0.930 . S
C967 C966 1.369 . S
C967 C976 1.429 . S
C968 C966 1.419 . S
C968 C969 1.363 . S
C968 H971 0.929 . S
C969 C968 1.363 . S
C969 C975 1.428 . S
H970 C966 0.930 . S
H971 C968 0.929 . S
S972 N973 1.613 . S
S972 N974 1.610 . S
N973 S972 1.613 . S
N973 C976 1.350 . S
N974 S972 1.610 . S
N974 C975 1.351 . S
C975 C969 1.428 . S
C975 N974 1.351 . S
C975 C976 1.434 . S
C976 C967 1.429 . S
C976 N973 1.350 . S
C976 C975 1.434 . S
C977 C978 1.369 . S
C977 C979 1.419 . S
C977 H981 0.930 . S
C978 C977 1.369 . S
C978 C987 1.429 . S
C979 C977 1.419 . S
C979 C980 1.363 . S
C979 H982 0.929 . S
C980 C979 1.363 . S
C980 C986 1.428 . S
H981 C977 0.930 . S
H982 C979 0.929 . S
S983 N984 1.613 . S
S983 N985 1.610 . S
N984 S983 1.613 . S
N984 C987 1.350 . S
N985 S983 1.610 . S
N985 C986 1.351 . S
C986 C980 1.428 . S
C986 N985 1.351 . S
C986 C987 1.434 . S
C987 C978 1.429 . S
C987 N984 1.350 . S
C987 C986 1.434 . S
C988 C989 1.369 . S
C988 C990 1.419 . S
C988 H992 0.930 . S
C989 C988 1.369 . S
C989 C998 1.429 . S
C990 C988 1.419 . S
C990 C991 1.363 . S
C990 H993 0.929 . S
C991 C990 1.363 . S
C991 C997 1.428 . S
H992 C988 0.930 . S
H993 C990 0.929 . S
S994 N995 1.613 . S
S994 N996 1.610 . S
N995 S994 1.613 . S
N995 C998 1.350 . S
N996 S994 1.610 . S
N996 C997 1.351 . S
C997 C991 1.428 . S
C997 N996 1.351 . S
C997 C998 1.434 . S
C998 C989 1.429 . S
C998 N995 1.350 . S
C998 C997 1.434 . S
C999 C1000 1.369 . S
C999 C1001 1.419 . S
C999 H1003 0.930 . S
C1000 C999 1.369 . S
C1000 C1009 1.429 . S
C1001 C999 1.419 . S
C1001 C1002 1.363 . S
C1001 H1004 0.929 . S
C1002 C1001 1.363 . S
C1002 C1008 1.428 . S
H1003 C999 0.930 . S
H1004 C1001 0.929 . S
S1005 N1006 1.613 . S
S1005 N1007 1.610 . S
N1006 S1005 1.613 . S
N1006 C1009 1.350 . S
N1007 S1005 1.610 . S
N1007 C1008 1.351 . S
C1008 C1002 1.428 . S
C1008 N1007 1.351 . S
C1008 C1009 1.434 . S
C1009 C1000 1.429 . S
C1009 N1006 1.350 . S
C1009 C1008 1.434 . S
C1010 C1011 1.369 . S
C1010 C1012 1.419 . S
C1010 H1014 0.930 . S
C1011 C1010 1.369 . S
C1011 C1020 1.429 . S
C1012 C1010 1.419 . S
C1012 C1013 1.363 . S
C1012 H1015 0.929 . S
C1013 C1012 1.363 . S
C1013 C1019 1.428 . S
H1014 C1010 0.930 . S
H1015 C1012 0.929 . S
S1016 N1017 1.613 . S
S1016 N1018 1.610 . S
N1017 S1016 1.613 . S
N1017 C1020 1.350 . S
N1018 S1016 1.610 . S
N1018 C1019 1.351 . S
C1019 C1013 1.428 . S
C1019 N1018 1.351 . S
C1019 C1020 1.434 . S
C1020 C1011 1.429 . S
C1020 N1017 1.350 . S
C1020 C1019 1.434 . S
C1021 C1022 1.369 . S
C1021 C1023 1.419 . S
C1021 H1025 0.930 . S
C1022 C1021 1.369 . S
C1022 C1031 1.429 . S
C1023 C1021 1.419 . S
C1023 C1024 1.363 . S
C1023 H1026 0.929 . S
C1024 C1023 1.363 . S
C1024 C1030 1.428 . S
H1025 C1021 0.930 . S
H1026 C1023 0.929 . S
S1027 N1028 1.613 . S
S1027 N1029 1.610 . S
N1028 S1027 1.613 . S
N1028 C1031 1.350 . S
N1029 S1027 1.610 . S
N1029 C1030 1.351 . S
C1030 C1024 1.428 . S
C1030 N1029 1.351 . S
C1030 C1031 1.434 . S
C1031 C1022 1.429 . S
C1031 N1028 1.350 . S
C1031 C1030 1.434 . S
C1032 C1033 1.369 . S
C1032 C1034 1.419 . S
C1032 H1036 0.930 . S
C1033 C1032 1.369 . S
C1033 C1042 1.429 . S
C1034 C1032 1.419 . S
C1034 C1035 1.363 . S
C1034 H1037 0.929 . S
C1035 C1034 1.363 . S
C1035 C1041 1.428 . S
H1036 C1032 0.930 . S
H1037 C1034 0.929 . S
S1038 N1039 1.613 . S
S1038 N1040 1.610 . S
N1039 S1038 1.613 . S
N1039 C1042 1.350 . S
N1040 S1038 1.610 . S
N1040 C1041 1.351 . S
C1041 C1035 1.428 . S
C1041 N1040 1.351 . S
C1041 C1042 1.434 . S
C1042 C1033 1.429 . S
C1042 N1039 1.350 . S
C1042 C1041 1.434 . S
C1043 C1044 1.369 . S
C1043 C1045 1.419 . S
C1043 H1047 0.930 . S
C1044 C1043 1.369 . S
C1044 C1053 1.429 . S
C1045 C1043 1.419 . S
C1045 C1046 1.363 . S
C1045 H1048 0.929 . S
C1046 C1045 1.363 . S
C1046 C1052 1.428 . S
H1047 C1043 0.930 . S
H1048 C1045 0.929 . S
S1049 N1050 1.613 . S
S1049 N1051 1.610 . S
N1050 S1049 1.613 . S
N1050 C1053 1.350 . S
N1051 S1049 1.610 . S
N1051 C1052 1.351 . S
C1052 C1046 1.428 . S
C1052 N1051 1.351 . S
C1052 C1053 1.434 . S
C1053 C1044 1.429 . S
C1053 N1050 1.350 . S
C1053 C1052 1.434 . S
C1054 C1055 1.369 . S
C1054 C1056 1.419 . S
C1054 H1058 0.930 . S
C1055 C1054 1.369 . S
C1055 C1064 1.429 . S
C1056 C1054 1.419 . S
C1056 C1057 1.363 . S
C1056 H1059 0.929 . S
C1057 C1056 1.363 . S
C1057 C1063 1.428 . S
H1058 C1054 0.930 . S
H1059 C1056 0.929 . S
S1060 N1061 1.613 . S
S1060 N1062 1.610 . S
N1061 S1060 1.613 . S
N1061 C1064 1.350 . S
N1062 S1060 1.610 . S
N1062 C1063 1.351 . S
C1063 C1057 1.428 . S
C1063 N1062 1.351 . S
C1063 C1064 1.434 . S
C1064 C1055 1.429 . S
C1064 N1061 1.350 . S
C1064 C1063 1.434 . S
C1065 C1066 1.369 . S
C1065 C1067 1.419 . S
C1065 H1069 0.930 . S
C1066 C1065 1.369 . S
C1066 C1075 1.429 . S
C1067 C1065 1.419 . S
C1067 C1068 1.363 . S
C1067 H1070 0.929 . S
C1068 C1067 1.363 . S
C1068 C1074 1.428 . S
H1069 C1065 0.930 . S
H1070 C1067 0.929 . S
S1071 N1072 1.613 . S
S1071 N1073 1.610 . S
N1072 S1071 1.613 . S
N1072 C1075 1.350 . S
N1073 S1071 1.610 . S
N1073 C1074 1.351 . S
C1074 C1068 1.428 . S
C1074 N1073 1.351 . S
C1074 C1075 1.434 . S
C1075 C1066 1.429 . S
C1075 N1072 1.350 . S
C1075 C1074 1.434 . S
C1076 C1077 1.369 . S
C1076 C1078 1.419 . S
C1076 H1080 0.930 . S
C1077 C1076 1.369 . S
C1077 C1086 1.429 . S
C1078 C1076 1.419 . S
C1078 C1079 1.363 . S
C1078 H1081 0.929 . S
C1079 C1078 1.363 . S
C1079 C1085 1.428 . S
H1080 C1076 0.930 . S
H1081 C1078 0.929 . S
S1082 N1083 1.613 . S
S1082 N1084 1.610 . S
N1083 S1082 1.613 . S
N1083 C1086 1.350 . S
N1084 S1082 1.610 . S
N1084 C1085 1.351 . S
C1085 C1079 1.428 . S
C1085 N1084 1.351 . S
C1085 C1086 1.434 . S
C1086 C1077 1.429 . S
C1086 N1083 1.350 . S
C1086 C1085 1.434 . S
C1087 C1088 1.369 . S
C1087 C1089 1.419 . S
C1087 H1091 0.930 . S
C1088 C1087 1.369 . S
C1088 C1097 1.429 . S
C1089 C1087 1.419 . S
C1089 C1090 1.363 . S
C1089 H1092 0.929 . S
C1090 C1089 1.363 . S
C1090 C1096 1.428 . S
H1091 C1087 0.930 . S
H1092 C1089 0.929 . S
S1093 N1094 1.613 . S
S1093 N1095 1.610 . S
N1094 S1093 1.613 . S
N1094 C1097 1.350 . S
N1095 S1093 1.610 . S
N1095 C1096 1.351 . S
C1096 C1090 1.428 . S
C1096 N1095 1.351 . S
C1096 C1097 1.434 . S
C1097 C1088 1.429 . S
C1097 N1094 1.350 . S
C1097 C1096 1.434 . S
C1098 C1099 1.369 . S
C1098 C1100 1.419 . S
C1098 H1102 0.930 . S
C1099 C1098 1.369 . S
C1099 C1108 1.429 . S
C1100 C1098 1.419 . S
C1100 C1101 1.363 . S
C1100 H1103 0.929 . S
C1101 C1100 1.363 . S
C1101 C1107 1.428 . S
H1102 C1098 0.930 . S
H1103 C1100 0.929 . S
S1104 N1105 1.613 . S
S1104 N1106 1.610 . S
N1105 S1104 1.613 . S
N1105 C1108 1.350 . S
N1106 S1104 1.610 . S
N1106 C1107 1.351 . S
C1107 C1101 1.428 . S
C1107 N1106 1.351 . S
C1107 C1108 1.434 . S
C1108 C1099 1.429 . S
C1108 N1105 1.350 . S
C1108 C1107 1.434 . S
C1109 C1110 1.369 . S
C1109 C1111 1.419 1_545 S
C1109 H1113 0.906 1_545 S
C1110 C1109 1.369 . S
C1110 C1119 1.429 . S
C1111 C1109 1.419 1_565 S
C1111 C1112 1.363 . S
C1111 H1114 0.929 . S
C1112 C1111 1.363 . S
C1112 C1118 1.428 1_565 S
H1113 C1109 0.906 1_565 S
H1114 C1111 0.929 . S
S1115 N1116 1.613 . S
S1115 N1117 1.610 . S
N1116 S1115 1.613 . S
N1116 C1119 1.350 . S
N1117 S1115 1.610 . S
N1117 C1118 1.351 . S
C1118 C1112 1.428 1_545 S
C1118 N1117 1.351 . S
C1118 C1119 1.434 . S
C1119 C1110 1.429 . S
C1119 N1116 1.350 . S
C1119 C1118 1.434 . S
C1120 C1121 1.369 1_655 S
C1120 C1122 1.419 . S
C1120 H1124 0.930 . S
C1121 C1120 1.369 1_455 S
C1121 C1130 1.429 . S
C1122 C1120 1.419 . S
C1122 C1123 1.363 . S
C1122 H1125 0.929 . S
C1123 C1122 1.363 . S
C1123 C1129 1.428 1_655 S
H1124 C1120 0.930 . S
H1125 C1122 0.929 . S
S1126 N1127 1.613 . S
S1126 N1128 1.610 . S
N1127 S1126 1.613 . S
N1127 C1130 1.350 . S
N1128 S1126 1.610 . S
N1128 C1129 1.351 . S
C1129 C1123 1.428 1_455 S
C1129 N1128 1.351 . S
C1129 C1130 1.434 . S
C1130 C1121 1.429 . S
C1130 N1127 1.350 . S
C1130 C1129 1.434 . S
C1131 C1132 1.369 . S
C1131 C1133 1.419 . S
C1131 H1135 0.930 . S
C1132 C1131 1.369 . S
C1132 C1141 1.429 . S
C1133 C1131 1.419 . S
C1133 C1134 1.363 . S
C1133 H1136 0.929 . S
C1134 C1133 1.363 . S
C1134 C1140 1.428 . S
H1135 C1131 0.930 . S
H1136 C1133 0.929 . S
S1137 N1138 1.613 . S
S1137 N1139 1.610 . S
N1138 S1137 1.613 . S
N1138 C1141 1.350 . S
N1139 S1137 1.610 . S
N1139 C1140 1.351 . S
C1140 C1134 1.428 . S
C1140 N1139 1.351 . S
C1140 C1141 1.434 . S
C1141 C1132 1.429 . S
C1141 N1138 1.350 . S
C1141 C1140 1.434 . S
C1142 C1143 1.369 . S
C1142 C1144 1.419 . S
C1142 H1146 0.930 . S
C1143 C1142 1.369 . S
C1143 C1152 1.418 1_545 S
C1144 C1142 1.419 . S
C1144 C1145 1.363 . S
C1144 H1147 0.929 . S
C1145 C1144 1.363 . S
C1145 C1151 1.428 . S
H1146 C1142 0.930 . S
H1147 C1144 0.929 . S
S1148 N1149 1.613 . S
S1148 N1150 1.610 . S
N1149 S1148 1.613 . S
N1149 C1152 1.362 . S
N1150 S1148 1.610 . S
N1150 C1151 1.351 1_565 S
C1151 C1145 1.428 . S
C1151 N1150 1.351 1_545 S
C1151 C1152 1.434 1_545 S
C1152 C1143 1.418 1_565 S
C1152 N1149 1.362 . S
C1152 C1151 1.434 1_565 S
C1153 C1154 1.369 1_655 S
C1153 C1155 1.419 . S
C1153 H1157 0.930 . S
C1154 C1153 1.369 1_455 S
C1154 C1163 1.429 . S
C1155 C1153 1.419 . S
C1155 C1156 1.363 1_655 S
C1155 H1158 0.929 . S
C1156 C1155 1.363 1_455 S
C1156 C1162 1.428 . S
H1157 C1153 0.930 . S
H1158 C1155 0.929 . S
S1159 N1160 1.613 . S
S1159 N1161 1.610 . S
N1160 S1159 1.613 . S
N1160 C1163 1.350 . S
N1161 S1159 1.610 . S
N1161 C1162 1.351 . S
C1162 C1156 1.428 . S
C1162 N1161 1.351 . S
C1162 C1163 1.434 . S
C1163 C1154 1.429 . S
C1163 N1160 1.350 . S
C1163 C1162 1.434 . S
C1164 C1165 1.369 . S
C1164 C1166 1.419 . S
C1164 H1168 0.930 . S
C1165 C1164 1.369 . S
C1165 C1174 1.429 . S
C1166 C1164 1.419 . S
C1166 C1167 1.363 . S
C1166 H1169 0.929 . S
C1167 C1166 1.363 . S
C1167 C1173 1.428 . S
H1168 C1164 0.930 . S
H1169 C1166 0.929 . S
S1170 N1171 1.613 . S
S1170 N1172 1.610 . S
N1171 S1170 1.613 . S
N1171 C1174 1.350 . S
N1172 S1170 1.610 . S
N1172 C1173 1.351 . S
C1173 C1167 1.428 . S
C1173 N1172 1.351 . S
C1173 C1174 1.434 . S
C1174 C1165 1.429 . S
C1174 N1171 1.350 . S
C1174 C1173 1.434 . S
C1175 C1176 1.369 . S
C1175 C1177 1.419 . S
C1175 H1179 0.930 . S
C1176 C1175 1.369 . S
C1176 C1185 1.429 . S
C1177 C1175 1.419 . S
C1177 C1178 1.363 . S
C1177 H1180 0.929 . S
C1178 C1177 1.363 . S
C1178 C1184 1.428 . S
H1179 C1175 0.930 . S
H1180 C1177 0.929 . S
S1181 N1182 1.613 . S
S1181 N1183 1.610 . S
N1182 S1181 1.613 . S
N1182 C1185 1.350 . S
N1183 S1181 1.610 . S
N1183 C1184 1.351 . S
C1184 C1178 1.428 . S
C1184 N1183 1.351 . S
C1184 C1185 1.434 . S
C1185 C1176 1.429 . S
C1185 N1182 1.350 . S
C1185 C1184 1.434 . S
C1186 C1187 1.369 . S
C1186 C1188 1.419 . S
C1186 H1190 0.930 . S
C1187 C1186 1.369 . S
C1187 C1196 1.429 . S
C1188 C1186 1.419 . S
C1188 C1189 1.363 . S
C1188 H1191 0.929 . S
C1189 C1188 1.363 . S
C1189 C1195 1.428 . S
H1190 C1186 0.930 . S
H1191 C1188 0.929 . S
S1192 N1193 1.613 . S
S1192 N1194 1.610 . S
N1193 S1192 1.613 . S
N1193 C1196 1.350 . S
N1194 S1192 1.610 . S
N1194 C1195 1.351 . S
C1195 C1189 1.428 . S
C1195 N1194 1.351 . S
C1195 C1196 1.434 . S
C1196 C1187 1.429 . S
C1196 N1193 1.350 . S
C1196 C1195 1.434 . S
C1197 C1198 1.369 . S
C1197 C1199 1.419 . S
C1197 H1201 0.930 . S
C1198 C1197 1.369 . S
C1198 C1207 1.429 . S
C1199 C1197 1.419 . S
C1199 C1200 1.363 . S
C1199 H1202 0.929 . S
C1200 C1199 1.363 . S
C1200 C1206 1.428 . S
H1201 C1197 0.930 . S
H1202 C1199 0.929 . S
S1203 N1204 1.613 . S
S1203 N1205 1.610 . S
N1204 S1203 1.613 . S
N1204 C1207 1.350 . S
N1205 S1203 1.610 . S
N1205 C1206 1.351 . S
C1206 C1200 1.428 . S
C1206 N1205 1.351 . S
C1206 C1207 1.434 . S
C1207 C1198 1.429 . S
C1207 N1204 1.350 . S
C1207 C1206 1.434 . S
C1208 C1209 1.369 . S
C1208 C1210 1.419 . S
C1208 H1212 0.930 . S
C1209 C1208 1.369 . S
C1209 C1218 1.429 . S
C1210 C1208 1.419 . S
C1210 C1211 1.363 . S
C1210 H1213 0.929 . S
C1211 C1210 1.363 . S
C1211 C1217 1.428 . S
H1212 C1208 0.930 . S
H1213 C1210 0.929 . S
S1214 N1215 1.613 . S
S1214 N1216 1.610 . S
N1215 S1214 1.613 . S
N1215 C1218 1.350 . S
N1216 S1214 1.610 . S
N1216 C1217 1.351 . S
C1217 C1211 1.428 . S
C1217 N1216 1.351 . S
C1217 C1218 1.434 . S
C1218 C1209 1.429 . S
C1218 N1215 1.350 . S
C1218 C1217 1.434 . S
C1219 C1220 1.369 . S
C1219 C1221 1.419 . S
C1219 H1223 0.930 . S
C1220 C1219 1.369 . S
C1220 C1229 1.429 . S
C1221 C1219 1.419 . S
C1221 C1222 1.363 . S
C1221 H1224 0.929 . S
C1222 C1221 1.363 . S
C1222 C1228 1.428 . S
H1223 C1219 0.930 . S
H1224 C1221 0.929 . S
S1225 N1226 1.613 . S
S1225 N1227 1.610 . S
N1226 S1225 1.613 . S
N1226 C1229 1.350 . S
N1227 S1225 1.610 . S
N1227 C1228 1.351 . S
C1228 C1222 1.428 . S
C1228 N1227 1.351 . S
C1228 C1229 1.434 . S
C1229 C1220 1.429 . S
C1229 N1226 1.350 . S
C1229 C1228 1.434 . S
C1230 C1231 1.369 . S
C1230 C1232 1.419 . S
C1230 H1234 0.930 . S
C1231 C1230 1.369 . S
C1231 C1240 1.429 . S
C1232 C1230 1.419 . S
C1232 C1233 1.363 . S
C1232 H1235 0.929 . S
C1233 C1232 1.363 . S
C1233 C1239 1.428 . S
H1234 C1230 0.930 . S
H1235 C1232 0.929 . S
S1236 N1237 1.613 . S
S1236 N1238 1.610 . S
N1237 S1236 1.613 . S
N1237 C1240 1.350 . S
N1238 S1236 1.610 . S
N1238 C1239 1.351 . S
C1239 C1233 1.428 . S
C1239 N1238 1.351 . S
C1239 C1240 1.434 . S
C1240 C1231 1.429 . S
C1240 N1237 1.350 . S
C1240 C1239 1.434 . S
C1241 C1242 1.369 . S
C1241 C1243 1.419 . S
C1241 H1245 0.930 . S
C1242 C1241 1.369 . S
C1242 C1251 1.429 . S
C1243 C1241 1.419 . S
C1243 C1244 1.363 . S
C1243 H1246 0.929 . S
C1244 C1243 1.363 . S
C1244 C1250 1.428 . S
H1245 C1241 0.930 . S
H1246 C1243 0.929 . S
S1247 N1248 1.613 . S
S1247 N1249 1.610 . S
N1248 S1247 1.613 . S
N1248 C1251 1.350 . S
N1249 S1247 1.610 . S
N1249 C1250 1.351 . S
C1250 C1244 1.428 . S
C1250 N1249 1.351 . S
C1250 C1251 1.434 . S
C1251 C1242 1.429 . S
C1251 N1248 1.350 . S
C1251 C1250 1.434 . S
C1252 C1253 1.369 . S
C1252 C1254 1.419 . S
C1252 H1256 0.930 . S
C1253 C1252 1.369 . S
C1253 C1262 1.429 . S
C1254 C1252 1.419 . S
C1254 C1255 1.363 . S
C1254 H1257 0.929 . S
C1255 C1254 1.363 . S
C1255 C1261 1.428 . S
H1256 C1252 0.930 . S
H1257 C1254 0.929 . S
S1258 N1259 1.613 . S
S1258 N1260 1.610 . S
N1259 S1258 1.613 . S
N1259 C1262 1.350 . S
N1260 S1258 1.610 . S
N1260 C1261 1.351 . S
C1261 C1255 1.428 . S
C1261 N1260 1.351 . S
C1261 C1262 1.434 . S
C1262 C1253 1.429 . S
C1262 N1259 1.350 . S
C1262 C1261 1.434 . S
C1263 C1264 1.369 . S
C1263 C1265 1.419 . S
C1263 H1267 0.930 . S
C1264 C1263 1.369 . S
C1264 C1273 1.429 . S
C1265 C1263 1.419 . S
C1265 C1266 1.363 . S
C1265 H1268 0.929 . S
C1266 C1265 1.363 . S
C1266 C1272 1.428 . S
H1267 C1263 0.930 . S
H1268 C1265 0.929 . S
S1269 N1270 1.613 . S
S1269 N1271 1.610 . S
N1270 S1269 1.613 . S
N1270 C1273 1.350 . S
N1271 S1269 1.610 . S
N1271 C1272 1.351 . S
C1272 C1266 1.428 . S
C1272 N1271 1.351 . S
C1272 C1273 1.434 . S
C1273 C1264 1.429 . S
C1273 N1270 1.350 . S
C1273 C1272 1.434 . S
C1274 C1275 1.369 . S
C1274 C1276 1.419 . S
C1274 H1278 0.930 . S
C1275 C1274 1.369 . S
C1275 C1284 1.429 . S
C1276 C1274 1.419 . S
C1276 C1277 1.363 . S
C1276 H1279 0.929 . S
C1277 C1276 1.363 . S
C1277 C1283 1.428 . S
H1278 C1274 0.930 . S
H1279 C1276 0.929 . S
S1280 N1281 1.613 . S
S1280 N1282 1.610 . S
N1281 S1280 1.613 . S
N1281 C1284 1.350 . S
N1282 S1280 1.610 . S
N1282 C1283 1.351 . S
C1283 C1277 1.428 . S
C1283 N1282 1.351 . S
C1283 C1284 1.434 . S
C1284 C1275 1.429 . S
C1284 N1281 1.350 . S
C1284 C1283 1.434 . S
C1285 C1286 1.369 . S
C1285 C1287 1.419 . S
C1285 H1289 0.930 . S
C1286 C1285 1.369 . S
C1286 C1295 1.429 . S
C1287 C1285 1.419 . S
C1287 C1288 1.363 . S
C1287 H1290 0.929 . S
C1288 C1287 1.363 . S
C1288 C1294 1.428 . S
H1289 C1285 0.930 . S
H1290 C1287 0.929 . S
S1291 N1292 1.613 . S
S1291 N1293 1.610 . S
N1292 S1291 1.613 . S
N1292 C1295 1.350 . S
N1293 S1291 1.610 . S
N1293 C1294 1.351 . S
C1294 C1288 1.428 . S
C1294 N1293 1.351 . S
C1294 C1295 1.434 . S
C1295 C1286 1.429 . S
C1295 N1292 1.350 . S
C1295 C1294 1.434 . S
C505 C229 1.375 . S
C507 C5 1.385 1_556 S
C516 C243 1.387 . S
C518 C19 1.377 . S
C527 C39 1.525 . S
C529 C221 1.526 . S
C538 C375 1.532 . S
C540 C53 1.532 . S
C549 C341 1.396 . S
C551 C61 1.387 . S
C560 C75 1.395 . S
C562 C355 1.386 . S
C571 C487 1.314 . S
C573 C95 1.317 . S
C582 C501 1.322 . S
C584 C109 1.315 . S
C593 C473 1.317 . S
C595 C123 1.322 . S
C604 C291 1.321 . S
C606 C137 1.316 . S
C615 C151 1.318 . S
C617 C263 1.318 . S
C626 C277 1.310 . S
C628 C165 1.319 . S
C637 C397 1.379 . S
C639 C173 1.390 . S
C648 C187 1.388 . S
C650 C411 1.395 . S
C659 C389 1.525 . S
C661 C207 1.526 . S
C670 C459 1.316 . S
C672 C305 1.321 . S
C681 C431 1.320 . S
C683 C319 1.310 . S
C692 C333 1.324 . S
C694 C445 1.311 . S
C703 C102 1.505 . S
C705 C4 1.536 . S
C714 C116 1.480 . S
C716 C18 1.489 . S
C725 C88 1.402 . S
C727 C40 1.421 . S
C736 C54 1.421 . S
C738 C158 1.402 . S
C747 C130 1.482 . S
C749 C60 1.491 . S
C758 C74 1.529 . S
C760 C144 1.499 . S
C769 C25 1.212 . S
C771 C96 1.247 . S
C780 C110 1.231 . S
C782 C33 1.095 1_554 S
C791 C11 1.297 . S
C793 C124 1.341 1_554 S
C802 C81 1.307 . S
C804 C138 1.336 . S
C813 C47 1.090 . S
C815 C152 1.229 . S
C824 C166 1.245 . S
C826 C67 1.207 . S
C835 C172 1.532 . S
C837 C270 1.504 . S
C846 C284 1.477 . S
C848 C186 1.488 . S
C857 C256 1.401 . S
C859 C208 1.422 . S
C868 C222 1.422 . S
C870 C326 1.402 . S
C879 C298 1.481 . S
C881 C228 1.490 . S
C890 C242 1.529 . S
C892 C312 1.499 . S
C901 C264 1.248 . S
C903 C193 1.200 . S
C912 C278 1.231 . S
C914 C201 1.100 . S
C923 C179 1.297 . S
C925 C292 1.341 . S
C934 C249 1.307 . S
C936 C306 1.337 . S
C945 C215 1.099 . S
C947 C320 1.230 . S
C956 C334 1.245 . S
C958 C235 1.207 . S
C967 C438 1.501 . S
C969 C340 1.531 . S
C978 C354 1.492 . S
C980 C452 1.482 . S
C989 C376 1.423 . S
C991 C424 1.403 . S
C1000 C494 1.405 . S
C1002 C390 1.422 . S
C1011 C396 1.488 . S
C1013 C466 1.478 . S
C1022 C480 1.499 . S
C1024 C410 1.529 . S
C1033 C361 1.204 . S
C1035 C432 1.245 . S
C1044 C369 1.105 . S
C1046 C446 1.225 . S
C1055 C460 1.340 . S
C1057 C347 1.299 . S
C1066 C474 1.338 . S
C1068 C417 1.305 . S
C1077 C383 1.107 . S
C1079 C488 1.228 . S
C1088 C403 1.211 . S
C1090 C502 1.243 . S
C1099 C12 1.468 . S
C1101 C46 1.475 . S
C1110 C26 1.399 . S
C1112 C68 1.395 . S
C1121 C82 1.471 . S
C1123 C32 1.478 . S
C1132 C89 1.072 . S
C1134 C131 1.078 . S
C1143 C145 1.132 . S
C1145 C103 1.123 1_545 S
C1154 C159 1.090 1_455 S
C1156 C117 1.061 . S
C1165 C180 1.470 . S
C1167 C214 1.476 . S
C1176 C194 1.393 . S
C1178 C236 1.398 . S
C1187 C250 1.469 . S
C1189 C200 1.477 . S
C1198 C257 1.071 . S
C1200 C299 1.076 1_554 S
C1209 C271 1.138 . S
C1211 C313 1.118 1_554 S
C1220 C285 1.062 . S
C1222 C327 1.085 . S
C1231 C382 1.477 1_556 S
C1233 C348 1.470 . S
C1242 C404 1.398 1_556 S
C1244 C362 1.397 . S
C1253 C418 1.472 1_556 S
C1255 C368 1.478 . S
C1264 C425 1.082 . S
C1266 C467 1.073 . S
C1275 C481 1.124 . S
C1277 C439 1.132 . S
C1286 C495 1.084 . S
C1288 C453 1.064 . S
