# Generated by pormake.
# Topology skb, (5)-cn, num edge types: 1
# Building blocks:
#     Node 0, Type 0, BuildingBlock: BEQFEK_clean_sbu_0, # of connection points: 5
#     Node 1, Type 0, BuildingBlock: BEQFEK_clean_sbu_0, # of connection points: 5
#     Node 2, Type 0, BuildingBlock: BEQFEK_clean_sbu_0, # of connection points: 5
#     Node 3, Type 0, BuildingBlock: BEQFEK_clean_sbu_0, # of connection points: 5
#     Node 4, Type 0, BuildingBlock: BEQFEK_clean_sbu_0, # of connection points: 5
#     Node 5, Type 0, BuildingBlock: BEQFEK_clean_sbu_0, # of connection points: 5
#     Node 6, Type 0, BuildingBlock: BEQFEK_clean_sbu_0, # of connection points: 5
#     Node 7, Type 0, BuildingBlock: BEQFEK_clean_sbu_0, # of connection points: 5
#     Node 8, Type 0, BuildingBlock: BEQFEK_clean_sbu_0, # of connection points: 5
#     Node 9, Type 0, BuildingBlock: BEQFEK_clean_sbu_0, # of connection points: 5
#     Node 10, Type 0, BuildingBlock: BEQFEK_clean_sbu_0, # of connection points: 5
#     Node 11, Type 0, BuildingBlock: BEQFEK_clean_sbu_0, # of connection points: 5
#     Node 12, Type 0, BuildingBlock: BEQFEK_clean_sbu_0, # of connection points: 5
#     Node 13, Type 0, BuildingBlock: BEQFEK_clean_sbu_0, # of connection points: 5
#     Node 14, Type 0, BuildingBlock: BEQFEK_clean_sbu_0, # of connection points: 5
#     Node 15, Type 0, BuildingBlock: BEQFEK_clean_sbu_0, # of connection points: 5
#     Edge 16, Type (0, 0), BuildingBlock: ZUJKAS_clean_linker_0, # of connection points: 2
#     Edge 17, Type (0, 0), BuildingBlock: ZUJKAS_clean_linker_0, # of connection points: 2
#     Edge 18, Type (0, 0), BuildingBlock: ZUJKAS_clean_linker_0, # of connection points: 2
#     Edge 19, Type (0, 0), BuildingBlock: ZUJKAS_clean_linker_0, # of connection points: 2
#     Edge 20, Type (0, 0), BuildingBlock: ZUJKAS_clean_linker_0, # of connection points: 2
#     Edge 21, Type (0, 0), BuildingBlock: ZUJKAS_clean_linker_0, # of connection points: 2
#     Edge 22, Type (0, 0), BuildingBlock: ZUJKAS_clean_linker_0, # of connection points: 2
#     Edge 23, Type (0, 0), BuildingBlock: ZUJKAS_clean_linker_0, # of connection points: 2
#     Edge 24, Type (0, 0), BuildingBlock: ZUJKAS_clean_linker_0, # of connection points: 2
#     Edge 25, Type (0, 0), BuildingBlock: ZUJKAS_clean_linker_0, # of connection points: 2
#     Edge 26, Type (0, 0), BuildingBlock: ZUJKAS_clean_linker_0, # of connection points: 2
#     Edge 27, Type (0, 0), BuildingBlock: ZUJKAS_clean_linker_0, # of connection points: 2
#     Edge 28, Type (0, 0), BuildingBlock: ZUJKAS_clean_linker_0, # of connection points: 2
#     Edge 29, Type (0, 0), BuildingBlock: ZUJKAS_clean_linker_0, # of connection points: 2
#     Edge 30, Type (0, 0), BuildingBlock: ZUJKAS_clean_linker_0, # of connection points: 2
#     Edge 31, Type (0, 0), BuildingBlock: ZUJKAS_clean_linker_0, # of connection points: 2
#     Edge 32, Type (0, 0), BuildingBlock: ZUJKAS_clean_linker_0, # of connection points: 2
#     Edge 33, Type (0, 0), BuildingBlock: ZUJKAS_clean_linker_0, # of connection points: 2
#     Edge 34, Type (0, 0), BuildingBlock: ZUJKAS_clean_linker_0, # of connection points: 2
#     Edge 35, Type (0, 0), BuildingBlock: ZUJKAS_clean_linker_0, # of connection points: 2
#     Edge 36, Type (0, 0), BuildingBlock: ZUJKAS_clean_linker_0, # of connection points: 2
#     Edge 37, Type (0, 0), BuildingBlock: ZUJKAS_clean_linker_0, # of connection points: 2
#     Edge 38, Type (0, 0), BuildingBlock: ZUJKAS_clean_linker_0, # of connection points: 2
#     Edge 39, Type (0, 0), BuildingBlock: ZUJKAS_clean_linker_0, # of connection points: 2
#     Edge 40, Type (0, 0), BuildingBlock: ZUJKAS_clean_linker_0, # of connection points: 2
#     Edge 41, Type (0, 0), BuildingBlock: ZUJKAS_clean_linker_0, # of connection points: 2
#     Edge 42, Type (0, 0), BuildingBlock: ZUJKAS_clean_linker_0, # of connection points: 2
#     Edge 43, Type (0, 0), BuildingBlock: ZUJKAS_clean_linker_0, # of connection points: 2
#     Edge 44, Type (0, 0), BuildingBlock: ZUJKAS_clean_linker_0, # of connection points: 2
#     Edge 45, Type (0, 0), BuildingBlock: ZUJKAS_clean_linker_0, # of connection points: 2
#     Edge 46, Type (0, 0), BuildingBlock: ZUJKAS_clean_linker_0, # of connection points: 2
#     Edge 47, Type (0, 0), BuildingBlock: ZUJKAS_clean_linker_0, # of connection points: 2
#     Edge 48, Type (0, 0), BuildingBlock: ZUJKAS_clean_linker_0, # of connection points: 2
#     Edge 49, Type (0, 0), BuildingBlock: ZUJKAS_clean_linker_0, # of connection points: 2
#     Edge 50, Type (0, 0), BuildingBlock: ZUJKAS_clean_linker_0, # of connection points: 2
#     Edge 51, Type (0, 0), BuildingBlock: ZUJKAS_clean_linker_0, # of connection points: 2
#     Edge 52, Type (0, 0), BuildingBlock: ZUJKAS_clean_linker_0, # of connection points: 2
#     Edge 53, Type (0, 0), BuildingBlock: ZUJKAS_clean_linker_0, # of connection points: 2
#     Edge 54, Type (0, 0), BuildingBlock: ZUJKAS_clean_linker_0, # of connection points: 2
#     Edge 55, Type (0, 0), BuildingBlock: ZUJKAS_clean_linker_0, # of connection points: 2
# Relax obj value: 0.049
# Max RMSD: 0.094
# Mean RMSD: 0.094
data_MOF--net-skb--node1-BEQFEK_clean_sbu_0--edge1-ZUJKAS_clean_linker_0
_symmetry_space_group_name_H-M    P1
_symmetry_Int_Tables_number       1
_symmetry_cell_setting            triclinic
loop_
_symmetry_equiv_pos_as_xyz
'x, y, z'
_cell_length_a     51.673224
_cell_length_b     39.193009
_cell_length_c     94.496257
_cell_angle_alpha  90.010241
_cell_angle_beta   90.000872
_cell_angle_gamma 89.988863
loop_
_atom_site_label
_atom_site_type_symbol
_atom_site_fract_x
_atom_site_fract_y
_atom_site_fract_z
_atom_type_partial_charge
Co0 Co 0.18841 0.0614 0.10624 0.0
Co1 Co 0.18562 0.06086 0.13963 0.0
C2 C 0.20752 0.12039 0.12359 0.0
O3 O 0.20353 0.10597 0.11171 0.0
O4 O 0.20165 0.1057 0.13518 0.0
C5 C 0.2123 0.0651 0.07854 0.0
O6 O 0.23189 0.0785 0.08544 0.0
C7 C 0.20372 0.05968 0.16956 0.0
C8 C 0.16787 0.04379 0.18045 0.0
C9 C 0.19337 0.053 0.1829 0.0
N10 N 0.18514 0.05446 0.15978 0.0
N11 N 0.16383 0.0449 0.16641 0.0
C12 C 0.23025 0.07253 0.16614 0.0
H13 H 0.23066 0.08443 0.15551 0.0
H14 H 0.244 0.0508 0.1661 0.0
H15 H 0.23672 0.0912 0.17423 0.0
C16 C 0.21363 0.99484 0.11172 0.0
N17 N 0.20399 0.02478 0.11632 0.0
N18 N 0.20267 0.02422 0.13024 0.0
C19 C 0.21123 0.99373 0.13492 0.0
C20 C 0.21848 0.97408 0.12333 0.0
C21 C 0.21704 0.98594 0.09643 0.0
H22 H 0.19795 0.98651 0.09105 0.0
H23 H 0.2296 0.00529 0.09135 0.0
H24 H 0.22608 0.9605 0.09501 0.0
O25 O 0.15067 0.06162 0.11008 0.0
O26 O 0.14897 0.06156 0.13356 0.0
H27 H 0.18913 0.98743 0.1539 0.0
H28 H 0.21279 0.95433 0.15107 0.0
C29 C 0.20891 0.98201 0.14995 0.0
H30 H 0.22284 0.99638 0.15658 0.0
H31 H 0.14637 0.03946 0.16134 0.0
O32 O 0.19236 0.05564 0.08539 0.0
C33 C 0.13774 0.06162 0.12156 0.0
Co34 Co 0.81014 0.02914 0.10625 0.0
Co35 Co 0.81263 0.0297 0.13967 0.0
C36 C 0.79259 0.96914 0.12366 0.0
O37 O 0.7961 0.98368 0.11174 0.0
O38 O 0.79812 0.98418 0.13521 0.0
C39 C 0.78764 0.02155 0.07831 0.0
O40 O 0.77063 0.00221 0.08483 0.0
C41 C 0.79565 0.02826 0.16985 0.0
C42 C 0.82901 0.05344 0.18009 0.0
C43 C 0.80521 0.0387 0.18295 0.0
N44 N 0.81297 0.03683 0.15979 0.0
N45 N 0.83283 0.05182 0.16603 0.0
C46 C 0.77098 0.00952 0.16695 0.0
H47 H 0.77199 0.99582 0.15674 0.0
H48 H 0.75484 0.02811 0.1663 0.0
H49 H 0.76676 0.99115 0.17558 0.0
C50 C 0.78396 0.09501 0.11174 0.0
N51 N 0.79377 0.06512 0.11632 0.0
N52 N 0.79441 0.0652 0.13025 0.0
C53 C 0.78482 0.09508 0.13498 0.0
C54 C 0.77802 0.1151 0.12342 0.0
C55 C 0.78392 0.10568 0.09653 0.0
H56 H 0.80329 0.10089 0.09186 0.0
H57 H 0.76968 0.08995 0.09064 0.0
H58 H 0.77901 0.13303 0.09521 0.0
O59 O 0.84782 0.03051 0.11007 0.0
O60 O 0.8493 0.03087 0.13356 0.0
H61 H 0.80334 0.10807 0.15448 0.0
H62 H 0.77249 0.129 0.15181 0.0
C63 C 0.78345 0.10495 0.15026 0.0
H64 H 0.77375 0.08443 0.15631 0.0
H65 H 0.84909 0.0609 0.16068 0.0
O66 O 0.80566 0.03542 0.08545 0.0
C67 C 0.86063 0.03122 0.12159 0.0
Co68 Co 0.18898 0.029 0.89924 0.0
Co69 Co 0.18748 0.03071 0.8659 0.0
C70 C 0.20856 0.97046 0.88143 0.0
O71 O 0.20413 0.98451 0.89336 0.0
O72 O 0.20323 0.98561 0.86986 0.0
C73 C 0.21383 0.02904 0.92681 0.0
O74 O 0.235 0.02209 0.91967 0.0
C75 C 0.20417 0.02907 0.83591 0.0
C76 C 0.17283 0.05858 0.82576 0.0
C77 C 0.1956 0.04122 0.82287 0.0
N78 N 0.18719 0.03883 0.84592 0.0
N79 N 0.16845 0.05629 0.83975 0.0
C80 C 0.22893 0.01086 0.83911 0.0
H81 H 0.2348 0.01554 0.85024 0.0
H82 H 0.24455 0.01935 0.83186 0.0
H83 H 0.22598 0.98302 0.83771 0.0
C84 C 0.21394 0.09634 0.89441 0.0
N85 N 0.20477 0.06624 0.88965 0.0
N86 N 0.20486 0.06644 0.87571 0.0
C87 C 0.2145 0.09645 0.87118 0.0
C88 C 0.22043 0.11651 0.88285 0.0
C89 C 0.213 0.10722 0.90959 0.0
H90 H 0.19506 0.09758 0.91463 0.0
H91 H 0.22983 0.09619 0.91526 0.0
H92 H 0.21364 0.13539 0.91067 0.0
O93 O 0.15144 0.02931 0.89522 0.0
O94 O 0.15061 0.03027 0.87174 0.0
H95 H 0.1976 0.11088 0.85143 0.0
H96 H 0.22908 0.1295 0.85462 0.0
C97 C 0.2171 0.10623 0.85594 0.0
H98 H 0.22625 0.08507 0.84999 0.0
H99 H 0.15276 0.06692 0.84513 0.0
O100 O 0.19267 0.03319 0.92015 0.0
C101 C 0.13894 0.02993 0.88361 0.0
Co102 Co 0.8116 0.05985 0.89913 0.0
Co103 Co 0.81314 0.0587 0.86579 0.0
C104 C 0.792 0.11871 0.8815 0.0
O105 O 0.79646 0.10455 0.8934 0.0
O106 O 0.79731 0.10367 0.8699 0.0
C107 C 0.7875 0.06295 0.92682 0.0
O108 O 0.76766 0.0757 0.91991 0.0
C109 C 0.79627 0.06024 0.83584 0.0
C110 C 0.82765 0.03087 0.82563 0.0
C111 C 0.80472 0.0479 0.8228 0.0
N112 N 0.81346 0.05083 0.8458 0.0
N113 N 0.83224 0.03351 0.8396 0.0
C114 C 0.7714 0.07811 0.83909 0.0
H115 H 0.76575 0.07362 0.85027 0.0
H116 H 0.75575 0.06919 0.83194 0.0
H117 H 0.77405 0.10595 0.83754 0.0
C118 C 0.78652 0.99283 0.89411 0.0
N119 N 0.79578 0.0229 0.88939 0.0
N120 N 0.79581 0.02277 0.87546 0.0
C121 C 0.78619 0.99278 0.87087 0.0
C122 C 0.78015 0.97266 0.88252 0.0
C123 C 0.78718 0.98212 0.90932 0.0
H124 H 0.80585 0.98987 0.91414 0.0
H125 H 0.77139 0.99527 0.9151 0.0
H126 H 0.78479 0.95416 0.91054 0.0
O127 O 0.84917 0.05957 0.89512 0.0
O128 O 0.84997 0.05918 0.87164 0.0
H129 H 0.80322 0.97871 0.8511 0.0
H130 H 0.77185 0.95971 0.85425 0.0
C131 C 0.78369 0.9831 0.85561 0.0
H132 H 0.7744 0.00419 0.8497 0.0
H133 H 0.84804 0.02308 0.84494 0.0
O134 O 0.80772 0.05452 0.91998 0.0
C135 C 0.86166 0.05926 0.88351 0.0
Co136 Co 0.18836 0.55955 0.60834 0.0
Co137 Co 0.18675 0.55883 0.64168 0.0
C138 C 0.2078 0.61868 0.62579 0.0
O139 O 0.20336 0.60433 0.61393 0.0
O140 O 0.20252 0.60381 0.63743 0.0
C141 C 0.21161 0.56413 0.58046 0.0
O142 O 0.2308 0.57915 0.58712 0.0
C143 C 0.20395 0.5607 0.67158 0.0
C144 C 0.17212 0.53275 0.68203 0.0
C145 C 0.19536 0.5492 0.68472 0.0
N146 N 0.18654 0.5514 0.6617 0.0
N147 N 0.16753 0.53489 0.66805 0.0
C148 C 0.22906 0.57776 0.66814 0.0
H149 H 0.23444 0.57287 0.65694 0.0
H150 H 0.24467 0.56851 0.67523 0.0
H151 H 0.2269 0.60571 0.66959 0.0
C152 C 0.21372 0.4929 0.61346 0.0
N153 N 0.2043 0.5229 0.61816 0.0
N154 N 0.20411 0.52277 0.63209 0.0
C155 C 0.21368 0.49277 0.6367 0.0
C156 C 0.21997 0.47273 0.62506 0.0
C157 C 0.21328 0.4823 0.59824 0.0
H158 H 0.19432 0.489 0.59349 0.0
H159 H 0.22851 0.49647 0.59242 0.0
H160 H 0.21661 0.45453 0.59694 0.0
O161 O 0.15081 0.55924 0.61237 0.0
O162 O 0.1499 0.55913 0.63585 0.0
H163 H 0.19612 0.47918 0.65638 0.0
H164 H 0.22722 0.45924 0.65337 0.0
C165 C 0.21579 0.48296 0.65196 0.0
H166 H 0.22533 0.50378 0.65793 0.0
H167 H 0.1515 0.52476 0.6628 0.0
O168 O 0.19215 0.55384 0.5875 0.0
C169 C 0.13827 0.55903 0.62396 0.0
Co170 Co 0.81073 0.53172 0.60761 0.0
Co171 Co 0.8124 0.53231 0.64091 0.0
C172 C 0.79121 0.47258 0.62504 0.0
O173 O 0.79565 0.48695 0.61318 0.0
O174 O 0.79654 0.48739 0.63668 0.0
C175 C 0.78677 0.52795 0.57998 0.0
O176 O 0.76741 0.51392 0.58686 0.0
C177 C 0.79551 0.53001 0.6708 0.0
C178 C 0.82708 0.55855 0.68121 0.0
C179 C 0.80407 0.5416 0.68392 0.0
N180 N 0.81273 0.53971 0.6609 0.0
N181 N 0.8316 0.55658 0.66723 0.0
C182 C 0.77055 0.51249 0.6674 0.0
H183 H 0.76491 0.51761 0.65627 0.0
H184 H 0.75495 0.52117 0.67462 0.0
H185 H 0.7731 0.48455 0.66868 0.0
C186 C 0.78547 0.5985 0.61281 0.0
N187 N 0.79488 0.56844 0.61745 0.0
N188 N 0.79503 0.56843 0.63139 0.0
C189 C 0.78539 0.59835 0.63605 0.0
C190 C 0.77915 0.61853 0.62445 0.0
C191 C 0.78593 0.6093 0.59761 0.0
H192 H 0.80472 0.6021 0.59278 0.0
H193 H 0.77038 0.5957 0.59181 0.0
H194 H 0.78307 0.63718 0.5964 0.0
O195 O 0.84833 0.53191 0.61156 0.0
O196 O 0.84921 0.53195 0.63504 0.0
H197 H 0.80272 0.61205 0.65578 0.0
H198 H 0.77141 0.6314 0.65277 0.0
C199 C 0.78311 0.60792 0.65133 0.0
H200 H 0.77379 0.58684 0.65724 0.0
H201 H 0.84747 0.56705 0.66195 0.0
O202 O 0.80671 0.5374 0.58682 0.0
C203 C 0.86086 0.53205 0.62316 0.0
Co204 Co 0.18833 0.52724 0.40101 0.0
Co205 Co 0.1864 0.52791 0.36761 0.0
C206 C 0.2064 0.46739 0.38372 0.0
O207 O 0.20271 0.48192 0.39562 0.0
O208 O 0.20095 0.48241 0.37215 0.0
C209 C 0.21107 0.52156 0.42895 0.0
O210 O 0.22945 0.50463 0.42239 0.0
C211 C 0.20425 0.52675 0.3376 0.0
C212 C 0.17117 0.5519 0.32709 0.0
C213 C 0.19513 0.53736 0.32443 0.0
N214 N 0.18656 0.53505 0.3475 0.0
N215 N 0.16685 0.55 0.34109 0.0
C216 C 0.22889 0.50813 0.34072 0.0
H217 H 0.2275 0.49405 0.35082 0.0
H218 H 0.2449 0.52683 0.34171 0.0
H219 H 0.23361 0.49009 0.33204 0.0
C220 C 0.21433 0.59335 0.39573 0.0
N221 N 0.20473 0.56341 0.39108 0.0
N222 N 0.20431 0.56354 0.37715 0.0
C223 C 0.21384 0.59352 0.3725 0.0
C224 C 0.22039 0.61352 0.3841 0.0
C225 C 0.21409 0.604 0.41095 0.0
H226 H 0.1948 0.5986 0.41559 0.0
H227 H 0.22862 0.58877 0.41685 0.0
H228 H 0.21848 0.6315 0.41227 0.0
O229 O 0.15075 0.52829 0.39695 0.0
O230 O 0.14957 0.52888 0.37346 0.0
H231 H 0.19556 0.60633 0.35291 0.0
H232 H 0.22617 0.62771 0.35576 0.0
C233 C 0.2154 0.60349 0.35724 0.0
H234 H 0.2254 0.58315 0.35122 0.0
H235 H 0.15039 0.55894 0.34631 0.0
O236 O 0.19221 0.53337 0.42183 0.0
C237 C 0.13808 0.52903 0.38539 0.0
Co238 Co 0.81033 0.55883 0.40065 0.0
Co239 Co 0.81273 0.55695 0.36734 0.0
C240 C 0.7914 0.61743 0.38281 0.0
O241 O 0.79566 0.60348 0.39477 0.0
O242 O 0.79683 0.60214 0.37127 0.0
C243 C 0.78813 0.56785 0.42853 0.0
O244 O 0.77114 0.58695 0.42188 0.0
C245 C 0.79548 0.5575 0.33752 0.0
C246 C 0.8282 0.53155 0.327 0.0
C247 C 0.80444 0.54667 0.32437 0.0
N248 N 0.81319 0.54917 0.34737 0.0
N249 N 0.83274 0.53382 0.34098 0.0
C250 C 0.76992 0.57338 0.34097 0.0
H251 H 0.76453 0.56778 0.3521 0.0
H252 H 0.75464 0.56385 0.33373 0.0
H253 H 0.77146 0.60147 0.33976 0.0
C254 C 0.78409 0.49278 0.39574 0.0
N255 N 0.79425 0.52218 0.39091 0.0
N256 N 0.79515 0.5212 0.37699 0.0
C257 C 0.78559 0.49104 0.37252 0.0
C258 C 0.77831 0.47196 0.38428 0.0
C259 C 0.78114 0.48434 0.4111 0.0
H260 H 0.80054 0.48324 0.41612 0.0
H261 H 0.76995 0.50483 0.41639 0.0
H262 H 0.77099 0.45971 0.4127 0.0
O263 O 0.84804 0.55814 0.39684 0.0
O264 O 0.8494 0.55747 0.37337 0.0
H265 H 0.80703 0.48029 0.35371 0.0
H266 H 0.77962 0.4526 0.35625 0.0
C267 C 0.78674 0.4791 0.35749 0.0
H268 H 0.77495 0.49633 0.35078 0.0
H269 H 0.84913 0.52467 0.3462 0.0
O270 O 0.80604 0.55346 0.42148 0.0
C271 C 0.86081 0.55765 0.38531 0.0
Co272 Co 0.68846 0.06319 0.60649 0.0
Co273 Co 0.68585 0.06214 0.63984 0.0
C274 C 0.70613 0.12287 0.62389 0.0
O275 O 0.70244 0.10845 0.61197 0.0
O276 O 0.7007 0.10773 0.63545 0.0
C277 C 0.7105 0.0709 0.57849 0.0
O278 O 0.72771 0.09002 0.58496 0.0
C279 C 0.7043 0.06137 0.66965 0.0
C280 C 0.66911 0.04344 0.68065 0.0
C281 C 0.69437 0.05386 0.68301 0.0
N282 N 0.68573 0.05546 0.65995 0.0
N283 N 0.6648 0.0447 0.66663 0.0
C284 C 0.73041 0.07555 0.66615 0.0
H285 H 0.73028 0.08781 0.65559 0.0
H286 H 0.74471 0.05446 0.66589 0.0
H287 H 0.73655 0.09426 0.67431 0.0
C288 C 0.71532 0.9978 0.61176 0.0
N289 N 0.70507 0.02727 0.61647 0.0
N290 N 0.7038 0.02639 0.63039 0.0
C291 C 0.71297 0.9961 0.63495 0.0
C292 C 0.72058 0.97694 0.62328 0.0
C293 C 0.71871 0.98925 0.59643 0.0
H294 H 0.69943 0.98744 0.59131 0.0
H295 H 0.72964 0.01 0.59116 0.0
H296 H 0.72935 0.96493 0.59495 0.0
O297 O 0.65075 0.0616 0.61038 0.0
O298 O 0.64918 0.06119 0.63385 0.0
H299 H 0.69084 0.98844 0.65384 0.0
H300 H 0.71534 0.95642 0.65097 0.0
C301 C 0.71078 0.98395 0.64993 0.0
H302 H 0.72428 0.99876 0.65666 0.0
H303 H 0.64744 0.03847 0.66161 0.0
O304 O 0.69257 0.05703 0.5857 0.0
C305 C 0.63789 0.06085 0.62187 0.0
Co306 Co 0.31022 0.02764 0.60642 0.0
Co307 Co 0.31286 0.02934 0.63973 0.0
C308 C 0.29176 0.96876 0.62412 0.0
O309 O 0.29575 0.98279 0.61214 0.0
O310 O 0.29726 0.98406 0.63563 0.0
C311 C 0.28813 0.02011 0.57835 0.0
O312 O 0.27036 0.00188 0.58481 0.0
C313 C 0.29465 0.02924 0.66938 0.0
C314 C 0.32806 0.05237 0.68036 0.0
C315 C 0.3036 0.03898 0.6827 0.0
N316 N 0.31302 0.03654 0.65976 0.0
N317 N 0.33297 0.05021 0.66641 0.0
C318 C 0.26861 0.01536 0.66556 0.0
H319 H 0.26408 0.02114 0.65433 0.0
H320 H 0.25343 0.02628 0.67253 0.0
H321 H 0.26877 0.98723 0.66688 0.0
C322 C 0.28375 0.09348 0.61146 0.0
N323 N 0.29398 0.06408 0.61624 0.0
N324 N 0.29515 0.0651 0.63016 0.0
C325 C 0.28579 0.09534 0.63466 0.0
C326 C 0.27828 0.11438 0.62294 0.0
C327 C 0.28044 0.10185 0.59611 0.0
H328 H 0.26925 0.08124 0.59091 0.0
H329 H 0.2701 0.12637 0.59456 0.0
H330 H 0.29974 0.10314 0.59098 0.0
O331 O 0.34791 0.02861 0.61029 0.0
O332 O 0.34957 0.02936 0.63375 0.0
H333 H 0.30762 0.10454 0.6535 0.0
H334 H 0.28166 0.13452 0.65079 0.0
C335 C 0.28747 0.10744 0.64966 0.0
H336 H 0.27478 0.09142 0.65639 0.0
H337 H 0.34989 0.05829 0.66141 0.0
O338 O 0.30629 0.03336 0.58559 0.0
C339 C 0.36082 0.02928 0.62176 0.0
Co340 Co 0.68834 0.02714 0.39961 0.0
Co341 Co 0.68693 0.02748 0.36621 0.0
C342 C 0.70703 0.96733 0.38252 0.0
O343 O 0.70302 0.98198 0.39436 0.0
O344 O 0.7017 0.98211 0.37088 0.0
C345 C 0.7115 0.02292 0.42741 0.0
O346 O 0.73046 0.00742 0.42074 0.0
C347 C 0.70522 0.02618 0.33628 0.0
C348 C 0.67194 0.05031 0.32555 0.0
C349 C 0.69609 0.03618 0.32304 0.0
N350 N 0.68732 0.03441 0.34609 0.0
N351 N 0.66752 0.04879 0.33956 0.0
C352 C 0.73003 0.00812 0.33956 0.0
H353 H 0.7288 0.99457 0.34979 0.0
H354 H 0.74586 0.02714 0.34036 0.0
H355 H 0.7349 0.98974 0.33103 0.0
C356 C 0.71424 0.09332 0.39437 0.0
N357 N 0.70476 0.06332 0.38971 0.0
N358 N 0.70453 0.06338 0.37577 0.0
C359 C 0.71403 0.09339 0.37114 0.0
C360 C 0.72041 0.11345 0.38275 0.0
C361 C 0.71376 0.10408 0.40958 0.0
H362 H 0.69459 0.0981 0.41423 0.0
H363 H 0.7286 0.08943 0.4155 0.0
H364 H 0.71762 0.13174 0.41086 0.0
O365 O 0.65082 0.02798 0.39541 0.0
O366 O 0.64999 0.02827 0.37192 0.0
H367 H 0.69587 0.10584 0.35148 0.0
H368 H 0.72625 0.12772 0.35443 0.0
C369 C 0.71568 0.10334 0.35588 0.0
H370 H 0.72592 0.08312 0.34991 0.0
H371 H 0.65089 0.0575 0.34467 0.0
O372 O 0.69205 0.03336 0.4204 0.0
C373 C 0.63832 0.02853 0.38379 0.0
Co374 Co 0.31095 0.05909 0.39909 0.0
Co375 Co 0.31271 0.05751 0.36574 0.0
C376 C 0.29125 0.11758 0.38149 0.0
O377 O 0.29584 0.10352 0.39339 0.0
O378 O 0.29654 0.10253 0.36988 0.0
C379 C 0.28912 0.06692 0.42714 0.0
O380 O 0.27146 0.08524 0.42064 0.0
C381 C 0.29458 0.05754 0.33602 0.0
C382 C 0.32712 0.03165 0.3253 0.0
C383 C 0.30315 0.04636 0.32284 0.0
N384 N 0.3127 0.04975 0.34573 0.0
N385 N 0.33215 0.0345 0.33921 0.0
C386 C 0.269 0.07314 0.33962 0.0
H387 H 0.264 0.06782 0.35083 0.0
H388 H 0.25359 0.06317 0.33255 0.0
H389 H 0.27025 0.1012 0.33822 0.0
C390 C 0.2853 0.9927 0.39429 0.0
N391 N 0.295 0.02231 0.3894 0.0
N392 N 0.2957 0.02135 0.37548 0.0
C393 C 0.2865 0.99093 0.37107 0.0
C394 C 0.27968 0.9717 0.38286 0.0
C395 C 0.28264 0.98426 0.40966 0.0
H396 H 0.27127 0.00454 0.41497 0.0
H397 H 0.27276 0.95945 0.41132 0.0
H398 H 0.3021 0.98354 0.41461 0.0
O399 O 0.34854 0.05896 0.395 0.0
O400 O 0.34956 0.05848 0.37152 0.0
H401 H 0.30788 0.98054 0.3522 0.0
H402 H 0.28085 0.95227 0.35486 0.0
C403 C 0.28765 0.97893 0.35604 0.0
H404 H 0.27556 0.99586 0.34936 0.0
H405 H 0.34876 0.02566 0.34431 0.0
O406 O 0.30726 0.05347 0.41995 0.0
C407 C 0.36114 0.05873 0.38342 0.0
Co408 Co 0.68842 0.56026 0.10819 0.0
Co409 Co 0.68622 0.55969 0.1415 0.0
C410 C 0.70784 0.61934 0.1255 0.0
O411 O 0.7035 0.6049 0.11366 0.0
O412 O 0.70235 0.60462 0.13716 0.0
C413 C 0.70006 0.57549 0.07876 0.0
O414 O 0.70665 0.60577 0.08349 0.0
C415 C 0.70446 0.55982 0.17114 0.0
C416 C 0.67086 0.53715 0.18212 0.0
C417 C 0.69543 0.55017 0.18445 0.0
N418 N 0.68602 0.5528 0.16152 0.0
N419 N 0.66596 0.53942 0.16818 0.0
C420 C 0.73063 0.57326 0.16733 0.0
H421 H 0.73512 0.56739 0.1561 0.0
H422 H 0.7457 0.56212 0.17431 0.0
H423 H 0.73073 0.60139 0.16865 0.0
C424 C 0.71435 0.49438 0.1134 0.0
N425 N 0.7044 0.52397 0.11814 0.0
N426 N 0.70339 0.52326 0.13206 0.0
C427 C 0.71252 0.49293 0.13661 0.0
C428 C 0.71972 0.47356 0.12492 0.0
C429 C 0.71746 0.48574 0.09806 0.0
H430 H 0.69806 0.48249 0.09321 0.0
H431 H 0.72735 0.50705 0.09256 0.0
H432 H 0.72889 0.46204 0.09657 0.0
O433 O 0.65078 0.56015 0.11215 0.0
O434 O 0.64946 0.56026 0.13562 0.0
H435 H 0.69087 0.48431 0.15556 0.0
H436 H 0.71663 0.45401 0.15284 0.0
C437 C 0.71095 0.48113 0.15166 0.0
H438 H 0.72382 0.49715 0.15829 0.0
H439 H 0.64897 0.53157 0.16317 0.0
O440 O 0.69218 0.553 0.08744 0.0
C441 C 0.63804 0.56014 0.12369 0.0
Co442 Co 0.31086 0.53024 0.10753 0.0
Co443 Co 0.31202 0.53011 0.14092 0.0
C444 C 0.29232 0.4701 0.12456 0.0
O445 O 0.29631 0.485 0.11278 0.0
O446 O 0.29752 0.48471 0.13625 0.0
C447 C 0.28587 0.53197 0.08013 0.0
O448 O 0.26474 0.52521 0.08734 0.0
C449 C 0.29454 0.52804 0.17104 0.0
C450 C 0.32732 0.55418 0.18141 0.0
C451 C 0.30373 0.53877 0.18418 0.0
N452 N 0.31186 0.5371 0.16105 0.0
N453 N 0.33137 0.55265 0.16738 0.0
C454 C 0.27022 0.50858 0.16805 0.0
H455 H 0.27165 0.49467 0.15791 0.0
H456 H 0.25381 0.52672 0.16723 0.0
H457 H 0.26609 0.49029 0.17673 0.0
C458 C 0.28501 0.59674 0.11299 0.0
N459 N 0.29441 0.5665 0.11746 0.0
N460 N 0.29418 0.5659 0.1314 0.0
C461 C 0.28421 0.5955 0.13621 0.0
C462 C 0.27819 0.61612 0.12472 0.0
C463 C 0.28616 0.60866 0.09794 0.0
H464 H 0.30411 0.59926 0.09284 0.0
H465 H 0.26932 0.5982 0.0921 0.0
H466 H 0.28564 0.6369 0.09722 0.0
O467 O 0.34834 0.53119 0.11171 0.0
O468 O 0.34896 0.53121 0.1352 0.0
H469 H 0.30099 0.60816 0.15621 0.0
H470 H 0.26984 0.62787 0.15307 0.0
C471 C 0.28151 0.6044 0.15154 0.0
H472 H 0.27191 0.58313 0.15718 0.0
H473 H 0.34755 0.56221 0.16209 0.0
O474 O 0.30718 0.53546 0.08669 0.0
C475 C 0.36073 0.53167 0.12335 0.0
Co476 Co 0.68966 0.52786 0.89965 0.0
Co477 Co 0.68587 0.5291 0.86647 0.0
C478 C 0.70754 0.4687 0.88198 0.0
O479 O 0.70395 0.48297 0.89394 0.0
O480 O 0.70168 0.48382 0.87047 0.0
C481 C 0.68771 0.51131 0.92901 0.0
O482 O 0.67682 0.48334 0.92418 0.0
C483 C 0.70325 0.52885 0.83676 0.0
C484 C 0.66948 0.55154 0.82594 0.0
C485 C 0.69398 0.53836 0.8235 0.0
N486 N 0.68502 0.53605 0.84647 0.0
N487 N 0.66485 0.54946 0.83992 0.0
C488 C 0.72947 0.51536 0.84046 0.0
H489 H 0.73421 0.52143 0.85164 0.0
H490 H 0.74442 0.52628 0.83335 0.0
H491 H 0.72947 0.4872 0.83924 0.0
C492 C 0.71599 0.59343 0.8943 0.0
N493 N 0.70557 0.56406 0.88961 0.0
N494 N 0.70386 0.56508 0.87572 0.0
C495 C 0.71297 0.59538 0.87113 0.0
C496 C 0.72093 0.61441 0.88277 0.0
C497 C 0.71993 0.6017 0.90961 0.0
H498 H 0.72988 0.58011 0.9149 0.0
H499 H 0.73164 0.62518 0.91102 0.0
H500 H 0.7008 0.60514 0.91476 0.0
O501 O 0.65178 0.52885 0.89632 0.0
O502 O 0.64942 0.52916 0.87286 0.0
H503 H 0.7161 0.63472 0.85501 0.0
H504 H 0.72329 0.59178 0.84929 0.0
C505 C 0.71064 0.60752 0.85616 0.0
H506 H 0.6904 0.60423 0.85252 0.0
H507 H 0.64799 0.55743 0.84502 0.0
O508 O 0.69508 0.53394 0.92027 0.0
C509 C 0.63853 0.5293 0.88495 0.0
Co510 Co 0.31098 0.56216 0.90083 0.0
Co511 Co 0.31357 0.55943 0.86755 0.0
C512 C 0.29227 0.62034 0.8828 0.0
O513 O 0.29631 0.60665 0.89483 0.0
O514 O 0.29782 0.60477 0.87135 0.0
C515 C 0.28745 0.56854 0.92853 0.0
O516 O 0.26825 0.5828 0.9216 0.0
C517 C 0.29567 0.55924 0.83786 0.0
C518 C 0.32871 0.53466 0.82708 0.0
C519 C 0.30456 0.54888 0.82462 0.0
N520 N 0.31379 0.55152 0.84757 0.0
N521 N 0.33352 0.53698 0.84104 0.0
C522 C 0.26988 0.57413 0.84153 0.0
H523 H 0.26497 0.56845 0.85273 0.0
H524 H 0.25459 0.5639 0.83445 0.0
H525 H 0.27072 0.60225 0.84026 0.0
C526 C 0.28489 0.4958 0.89617 0.0
N527 N 0.29494 0.52519 0.89125 0.0
N528 N 0.296 0.52386 0.87733 0.0
C529 C 0.28669 0.49348 0.87297 0.0
C530 C 0.27938 0.47463 0.88478 0.0
C531 C 0.28175 0.48774 0.91156 0.0
H532 H 0.26952 0.50761 0.91656 0.0
H533 H 0.27249 0.46255 0.91326 0.0
H534 H 0.30097 0.48823 0.9168 0.0
O535 O 0.34867 0.56138 0.897 0.0
O536 O 0.35028 0.55989 0.87353 0.0
H537 H 0.28187 0.45424 0.85692 0.0
H538 H 0.2759 0.49751 0.85121 0.0
C539 C 0.28821 0.48112 0.858 0.0
H540 H 0.30844 0.48325 0.8542 0.0
H541 H 0.35023 0.52845 0.84613 0.0
O542 O 0.307 0.55772 0.9217 0.0
C543 C 0.36156 0.56045 0.88551 0.0
H544 H 0.2437 0.0386 0.19078 0.0
H545 H 0.26193 0.04002 0.21467 0.0
H546 H 0.18825 0.07263 0.23125 0.0
H547 H 0.16996 0.07175 0.2074 0.0
H548 H 0.26461 0.09465 0.23513 0.0
H549 H 0.20546 0.9852 0.25386 0.0
H550 H 0.20941 0.99516 0.23532 0.0
H551 H 0.18735 0.01948 0.24602 0.0
C552 C 0.23153 0.04692 0.19942 0.0
C553 C 0.20544 0.05555 0.19712 0.0
C554 C 0.24192 0.04738 0.21311 0.0
C555 C 0.22637 0.05609 0.22474 0.0
C556 C 0.2005 0.06533 0.22245 0.0
H557 H 0.27366 0.09853 0.31182 0.0
H558 H 0.25447 0.10163 0.28811 0.0
C559 C 0.19011 0.06488 0.2088 0.0
C560 C 0.23698 0.05483 0.23932 0.0
H561 H 0.2305 0.01408 0.2711 0.0
C562 C 0.25717 0.07708 0.24301 0.0
C563 C 0.22735 0.03164 0.24953 0.0
C564 C 0.20635 0.00627 0.24601 0.0
C565 C 0.26778 0.07702 0.25671 0.0
C566 C 0.25785 0.05424 0.26696 0.0
C567 C 0.23786 0.03176 0.26324 0.0
C568 C 0.26874 0.05229 0.28144 0.0
C569 C 0.28987 0.10082 0.26009 0.0
C570 C 0.28269 0.0233 0.2856 0.0
C571 C 0.29353 0.0214 0.29912 0.0
C572 C 0.29026 0.04821 0.30884 0.0
C573 C 0.27598 0.07709 0.30472 0.0
C574 C 0.2653 0.0791 0.29112 0.0
H575 H 0.29803 0.11286 0.25043 0.0
H576 H 0.28287 0.12134 0.26722 0.0
H577 H 0.30554 0.08689 0.26568 0.0
H578 H 0.28552 0.00232 0.27829 0.0
H579 H 0.30449 0.99886 0.30197 0.0
H580 H 0.75371 0.0415 0.19082 0.0
H581 H 0.73595 0.03767 0.21474 0.0
H582 H 0.81298 0.02734 0.23168 0.0
H583 H 0.83093 0.03009 0.20775 0.0
H584 H 0.74498 0.98253 0.23648 0.0
H585 H 0.77894 0.11175 0.25231 0.0
H586 H 0.77556 0.09913 0.23402 0.0
H587 H 0.80252 0.08415 0.24424 0.0
C588 C 0.76688 0.0374 0.19953 0.0
C589 C 0.79375 0.0353 0.1973 0.0
C590 C 0.75669 0.03564 0.21324 0.0
C591 C 0.77318 0.03236 0.22494 0.0
C592 C 0.79996 0.03013 0.22277 0.0
H593 H 0.74782 0.0405 0.31585 0.0
H594 H 0.76676 0.03634 0.29225 0.0
C595 C 0.81015 0.03169 0.20909 0.0
C596 C 0.76247 0.03181 0.23947 0.0
H597 H 0.75912 0.07824 0.26998 0.0
C598 C 0.74799 0.00343 0.24382 0.0
C599 C 0.76663 0.05905 0.249 0.0
C600 C 0.7816 0.09043 0.2447 0.0
C601 C 0.73777 0.00137 0.25758 0.0
C602 C 0.74161 0.02886 0.26708 0.0
C603 C 0.75622 0.05717 0.2627 0.0
C604 C 0.73018 0.02922 0.2815 0.0
C605 C 0.72345 0.96946 0.26187 0.0
C606 C 0.7033 0.02684 0.28333 0.0
C607 C 0.69245 0.02854 0.29686 0.0
C608 C 0.70823 0.03281 0.30886 0.0
C609 C 0.73514 0.03571 0.30698 0.0
C610 C 0.74599 0.03384 0.29344 0.0
H611 H 0.72899 0.94734 0.25517 0.0
H612 H 0.72722 0.96293 0.27312 0.0
H613 H 0.70235 0.97367 0.26055 0.0
H614 H 0.69061 0.0243 0.27427 0.0
H615 H 0.67163 0.02667 0.29791 0.0
H616 H 0.30923 0.08263 0.70475 0.0
H617 H 0.29069 0.07827 0.72846 0.0
H618 H 0.25135 0.98569 0.71646 0.0
H619 H 0.27014 0.98957 0.69273 0.0
H620 H 0.2199 0.03247 0.73144 0.0
H621 H 0.31298 0.00978 0.75904 0.0
H622 H 0.31324 0.04701 0.74797 0.0
H623 H 0.30944 0.00552 0.74011 0.0
C624 C 0.29661 0.06132 0.70713 0.0
C625 C 0.29089 0.03674 0.69675 0.0
C626 C 0.28613 0.0588 0.72071 0.0
C627 C 0.26993 0.03142 0.72428 0.0
C628 C 0.26383 0.00704 0.71391 0.0
H629 H 0.22324 0.9873 0.81165 0.0
H630 H 0.24104 0.98257 0.78772 0.0
C631 C 0.27435 0.00953 0.70029 0.0
C632 C 0.25922 0.02865 0.7388 0.0
H633 H 0.27683 0.02439 0.77361 0.0
C634 C 0.23231 0.03039 0.74065 0.0
C635 C 0.27542 0.02539 0.7508 0.0
C636 C 0.30436 0.02147 0.74942 0.0
C637 C 0.22124 0.03035 0.75423 0.0
C638 C 0.23755 0.02899 0.76626 0.0
C639 C 0.26438 0.02584 0.76438 0.0
C640 C 0.2272 0.03197 0.78086 0.0
C641 C 0.19217 0.03179 0.75558 0.0
C642 C 0.21398 0.06157 0.78502 0.0
C643 C 0.20407 0.0645 0.79872 0.0
C644 C 0.20746 0.03808 0.80862 0.0
C645 C 0.22095 0.00856 0.80447 0.0
C646 C 0.23088 0.00564 0.79073 0.0
H647 H 0.18245 0.02288 0.74576 0.0
H648 H 0.18534 0.01599 0.76459 0.0
H649 H 0.18614 0.05857 0.7575 0.0
H650 H 0.21137 0.0825 0.77768 0.0
H651 H 0.19382 0.0876 0.80158 0.0
H652 H 0.74532 0.04232 0.69053 0.0
H653 H 0.76396 0.0442 0.71431 0.0
H654 H 0.68948 0.07134 0.7315 0.0
H655 H 0.67077 0.07014 0.70776 0.0
H656 H 0.76453 0.09876 0.73521 0.0
H657 H 0.71104 0.98366 0.75318 0.0
H658 H 0.71448 0.99468 0.73472 0.0
H659 H 0.6913 0.01666 0.74557 0.0
C660 C 0.73302 0.04959 0.69927 0.0
C661 C 0.7066 0.05663 0.69718 0.0
C662 C 0.74367 0.05031 0.7129 0.0
C663 C 0.72804 0.05762 0.72466 0.0
C664 C 0.70181 0.06521 0.72258 0.0
H665 H 0.77696 0.10131 0.81135 0.0
H666 H 0.75787 0.10444 0.78766 0.0
C667 C 0.69117 0.06455 0.709 0.0
C668 C 0.73895 0.0565 0.73916 0.0
H669 H 0.73483 0.01374 0.77057 0.0
C670 C 0.75808 0.08021 0.74296 0.0
C671 C 0.73064 0.03202 0.74918 0.0
C672 C 0.7109 0.00508 0.74548 0.0
C673 C 0.76893 0.08031 0.7566 0.0
C674 C 0.76021 0.05627 0.7667 0.0
C675 C 0.74128 0.03236 0.76284 0.0
C676 C 0.77124 0.0545 0.78118 0.0
C677 C 0.79 0.10566 0.76002 0.0
C678 C 0.78456 0.02511 0.78549 0.0
C679 C 0.79516 0.02309 0.79906 0.0
C680 C 0.79237 0.05022 0.80867 0.0
C681 C 0.77887 0.0796 0.80437 0.0
C682 C 0.7683 0.08165 0.79074 0.0
H683 H 0.79838 0.11721 0.75031 0.0
H684 H 0.7818 0.1265 0.76659 0.0
H685 H 0.80577 0.09333 0.76615 0.0
H686 H 0.78699 0.00384 0.77829 0.0
H687 H 0.8055 1.00014 0.80204 0.0
H688 H 0.19244 0.50353 0.70622 0.0
H689 H 0.21057 0.50819 0.73 0.0
H690 H 0.24348 0.60593 0.71935 0.0
H691 H 0.22505 0.60173 0.69555 0.0
H692 H 0.27806 0.56165 0.73355 0.0
H693 H 0.18417 0.57117 0.76165 0.0
H694 H 0.18624 0.53506 0.75001 0.0
H695 H 0.1872 0.57749 0.74279 0.0
C696 C 0.20353 0.52606 0.70892 0.0
C697 C 0.20761 0.55201 0.69888 0.0
C698 C 0.21378 0.52874 0.72254 0.0
C699 C 0.22809 0.55759 0.7265 0.0
C700 C 0.23249 0.58343 0.71649 0.0
H701 H 0.27285 0.59983 0.8143 0.0
H702 H 0.2543 0.60412 0.79053 0.0
C703 C 0.22218 0.58079 0.70282 0.0
C704 C 0.23873 0.56033 0.74104 0.0
H705 H 0.22131 0.5595 0.77592 0.0
C706 C 0.26567 0.56149 0.74282 0.0
C707 C 0.22252 0.56066 0.75311 0.0
C708 C 0.19342 0.56137 0.75184 0.0
C709 C 0.27686 0.56161 0.75637 0.0
C710 C 0.26066 0.56004 0.76843 0.0
C711 C 0.23371 0.56028 0.76666 0.0
C712 C 0.27136 0.55712 0.78296 0.0
C713 C 0.30594 0.5634 0.75764 0.0
C714 C 0.28663 0.52894 0.78668 0.0
C715 C 0.297 0.52623 0.80028 0.0
C716 C 0.29204 0.55142 0.81053 0.0
C717 C 0.27643 0.57944 0.80684 0.0
C718 C 0.26605 0.58215 0.79319 0.0
H719 H 0.31491 0.57421 0.74794 0.0
H720 H 0.31181 0.57915 0.76686 0.0
H721 H 0.31373 0.53726 0.75915 0.0
H722 H 0.29054 0.50896 0.77905 0.0
H723 H 0.30891 0.50429 0.80279 0.0
H724 H 0.80589 0.58752 0.70537 0.0
H725 H 0.78772 0.58228 0.72913 0.0
H726 H 0.75731 0.48308 0.71854 0.0
H727 H 0.77571 0.48794 0.69475 0.0
H728 H 0.7216 0.52542 0.73253 0.0
H729 H 0.81535 0.5213 0.76097 0.0
H730 H 0.81234 0.55729 0.74934 0.0
H731 H 0.81278 0.51484 0.7421 0.0
C732 C 0.79534 0.56455 0.70808 0.0
C733 C 0.79192 0.53838 0.69808 0.0
C734 C 0.78508 0.56154 0.72169 0.0
C735 C 0.77147 0.53211 0.72566 0.0
C736 C 0.76776 0.50602 0.71568 0.0
H737 H 0.72709 0.48879 0.81337 0.0
H738 H 0.74594 0.48506 0.78966 0.0
C739 C 0.77805 0.50902 0.70202 0.0
C740 C 0.76076 0.52903 0.74016 0.0
H741 H 0.77771 0.53132 0.77509 0.0
C742 C 0.73386 0.52639 0.74184 0.0
C743 C 0.77683 0.52976 0.75229 0.0
C744 C 0.80595 0.5306 0.75113 0.0
C745 C 0.72252 0.52583 0.75535 0.0
C746 C 0.73851 0.52847 0.76746 0.0
C747 C 0.76547 0.52972 0.76579 0.0
C748 C 0.72757 0.53102 0.78193 0.0
C749 C 0.69352 0.52242 0.75652 0.0
C750 C 0.71143 0.55845 0.78552 0.0
C751 C 0.70088 0.56085 0.79909 0.0
C752 C 0.70653 0.53612 0.80942 0.0
C753 C 0.72296 0.50884 0.80584 0.0
C754 C 0.73352 0.50644 0.79223 0.0
H755 H 0.68502 0.511 0.74681 0.0
H756 H 0.68806 0.50646 0.76576 0.0
H757 H 0.68487 0.54811 0.75795 0.0
H758 H 0.707 0.57809 0.77783 0.0
H759 H 0.68833 0.58222 0.80152 0.0
H760 H 0.32916 0.53112 0.20912 0.0
H761 H 0.31084 0.52818 0.23296 0.0
H762 H 0.23398 0.53651 0.21559 0.0
H763 H 0.2521 0.5405 0.19177 0.0
H764 H 0.27724 0.57981 0.24552 0.0
H765 H 0.23139 0.45159 0.24268 0.0
H766 H 0.25692 0.46467 0.23079 0.0
H767 H 0.22459 0.48025 0.22828 0.0
C768 C 0.30832 0.53208 0.21034 0.0
C769 C 0.29209 0.53514 0.19846 0.0
C770 C 0.29792 0.53034 0.22397 0.0
C771 C 0.27107 0.53153 0.22599 0.0
C772 C 0.25475 0.5347 0.2142 0.0
H773 H 0.17048 0.52975 0.29925 0.0
H774 H 0.18938 0.52842 0.27555 0.0
C775 C 0.26516 0.53664 0.20055 0.0
C776 C 0.26025 0.53118 0.24051 0.0
H777 H 0.22318 0.48432 0.26322 0.0
C778 C 0.26551 0.5589 0.24944 0.0
C779 C 0.24486 0.50394 0.2455 0.0
C780 C 0.23918 0.47323 0.23639 0.0
C781 C 0.25536 0.56044 0.26321 0.0
C782 C 0.24013 0.53302 0.2683 0.0
C783 C 0.23492 0.50525 0.25933 0.0
C784 C 0.22895 0.533 0.28278 0.0
C785 C 0.26042 0.59191 0.27199 0.0
C786 C 0.24492 0.5356 0.29475 0.0
C787 C 0.23414 0.53675 0.30833 0.0
C788 C 0.20719 0.53455 0.31021 0.0
C789 C 0.19132 0.53141 0.29818 0.0
C790 C 0.20208 0.53051 0.28463 0.0
H791 H 0.2659 0.61406 0.2653 0.0
H792 H 0.24316 0.59896 0.27835 0.0
H793 H 0.27669 0.5868 0.27936 0.0
H794 H 0.26574 0.53706 0.2936 0.0
H795 H 0.24696 0.54037 0.31723 0.0
H796 H 0.6899 0.50603 0.20633 0.0
H797 H 0.70856 0.50988 0.23002 0.0
H798 H 0.74782 0.60274 0.21831 0.0
H799 H 0.72899 0.59927 0.19458 0.0
H800 H 0.77932 0.55657 0.23309 0.0
H801 H 0.68619 0.57702 0.26089 0.0
H802 H 0.68613 0.53988 0.24977 0.0
H803 H 0.68954 0.58149 0.24196 0.0
C804 C 0.70254 0.52729 0.20877 0.0
C805 C 0.70823 0.55209 0.19848 0.0
C806 C 0.71308 0.52953 0.22234 0.0
C807 C 0.72927 0.55686 0.22599 0.0
C808 C 0.73535 0.58144 0.2157 0.0
H809 H 0.77478 0.59915 0.31364 0.0
H810 H 0.7568 0.60387 0.28975 0.0
C811 C 0.72479 0.5792 0.20208 0.0
C812 C 0.73999 0.55938 0.24052 0.0
H813 H 0.72245 0.56221 0.27535 0.0
C814 C 0.76692 0.55812 0.24233 0.0
C815 C 0.72379 0.56199 0.25255 0.0
C816 C 0.69482 0.56553 0.25123 0.0
C817 C 0.77804 0.55801 0.2559 0.0
C818 C 0.76176 0.55863 0.26795 0.0
C819 C 0.73489 0.56129 0.26611 0.0
C820 C 0.77219 0.55556 0.28253 0.0
C821 C 0.80714 0.55731 0.25718 0.0
C822 C 0.78633 0.52653 0.28649 0.0
C823 C 0.79642 0.52365 0.30014 0.0
C824 C 0.79224 0.54949 0.31021 0.0
C825 C 0.77774 0.57834 0.3063 0.0
C826 C 0.76769 0.58126 0.29259 0.0
H827 H 0.81664 0.5671 0.24745 0.0
H828 H 0.8138 0.57273 0.26635 0.0
H829 H 0.81362 0.53059 0.25878 0.0
H830 H 0.78954 0.50602 0.27901 0.0
H831 H 0.80745 0.50107 0.30284 0.0
H832 H 0.21785 0.1602 0.14679 0.0
H833 H 0.23224 0.21967 0.14705 0.0
H834 H 0.2355 0.21978 0.10147 0.0
H835 H 0.22089 0.16052 0.10103 0.0
H836 H 0.27759 0.24986 0.13559 0.0
H837 H 0.18831 0.30145 0.11082 0.0
H838 H 0.19002 0.259 0.11818 0.0
H839 H 0.20362 0.26769 0.10105 0.0
C840 C 0.22169 0.1728 0.1368 0.0
C841 C 0.21797 0.15562 0.12388 0.0
C842 C 0.22992 0.20678 0.13699 0.0
C843 C 0.23445 0.22426 0.12428 0.0
C844 C 0.23156 0.20694 0.11138 0.0
H845 H 0.28133 0.42927 0.10179 0.0
H846 H 0.26741 0.36966 0.10206 0.0
C847 C 0.22335 0.17298 0.11117 0.0
C848 C 0.24217 0.26065 0.12448 0.0
H849 H 0.22317 0.34008 0.11386 0.0
C850 C 0.26567 0.26965 0.13091 0.0
C851 C 0.22653 0.28634 0.11835 0.0
C852 C 0.2006 0.2783 0.11181 0.0
C853 C 0.27425 0.30364 0.13111 0.0
C854 C 0.25864 0.32932 0.12494 0.0
C855 C 0.2351 0.32032 0.11856 0.0
C856 C 0.26651 0.36568 0.12489 0.0
C857 C 0.30024 0.31163 0.13759 0.0
C858 C 0.27006 0.3834 0.13764 0.0
C859 C 0.27805 0.41747 0.13754 0.0
C860 C 0.28247 0.43455 0.12466 0.0
C861 C 0.2782 0.41692 0.1119 0.0
C862 C 0.27025 0.38284 0.11203 0.0
H863 H 0.31251 0.28846 0.13855 0.0
H864 H 0.3108 0.33092 0.13121 0.0
H865 H 0.29731 0.3222 0.14837 0.0
H866 H 0.26671 0.37085 0.14769 0.0
H867 H 0.28096 0.43029 0.14757 0.0
H868 H 0.71897 0.65943 0.14854 0.0
H869 H 0.73326 0.71901 0.14854 0.0
H870 H 0.7347 0.71863 0.10292 0.0
H871 H 0.72023 0.65938 0.10277 0.0
H872 H 0.77818 0.74927 0.13636 0.0
H873 H 0.68773 0.80027 0.1127 0.0
H874 H 0.68983 0.75797 0.12018 0.0
H875 H 0.7025 0.76631 0.10281 0.0
C876 C 0.72239 0.67196 0.1385 0.0
C877 C 0.71822 0.65463 0.12565 0.0
C878 C 0.73055 0.706 0.13853 0.0
C879 C 0.73455 0.72336 0.12573 0.0
C880 C 0.73119 0.70589 0.11291 0.0
H881 H 0.78069 0.92738 0.1013 0.0
H882 H 0.76673 0.86779 0.10216 0.0
C883 C 0.72306 0.67191 0.11286 0.0
C884 C 0.74223 0.75978 0.12573 0.0
H885 H 0.72288 0.83888 0.11485 0.0
C886 C 0.76606 0.76893 0.13174 0.0
C887 C 0.72634 0.78531 0.11967 0.0
C888 C 0.70006 0.77713 0.11358 0.0
C889 C 0.77473 0.80289 0.13156 0.0
C890 C 0.75889 0.82839 0.12544 0.0
C891 C 0.73499 0.81925 0.11951 0.0
C892 C 0.76684 0.86472 0.12502 0.0
C893 C 0.80106 0.81102 0.13759 0.0
C894 C 0.77099 0.88294 0.1376 0.0
C895 C 0.77898 0.91698 0.13715 0.0
C896 C 0.78283 0.93356 0.12411 0.0
C897 C 0.77801 0.91543 0.11152 0.0
C898 C 0.77003 0.88135 0.11199 0.0
H899 H 0.81331 0.78782 0.13855 0.0
H900 H 0.81135 0.82995 0.1309 0.0
H901 H 0.79871 0.82211 0.14832 0.0
H902 H 0.76806 0.8708 0.14777 0.0
H903 H 0.78232 0.93019 0.14706 0.0
H904 H 0.22024 0.93182 0.85809 0.0
H905 H 0.23491 0.87252 0.85754 0.0
H906 H 0.23463 0.86961 0.90315 0.0
H907 H 0.22029 0.92899 0.90386 0.0
H908 H 0.27893 0.84067 0.89097 0.0
H909 H 0.18923 0.78963 0.86639 0.0
H910 H 0.20441 0.82374 0.85679 0.0
H911 H 0.19096 0.83181 0.874 0.0
C912 C 0.22336 0.91865 0.86802 0.0
C913 C 0.2189 0.93516 0.88103 0.0
C914 C 0.23159 0.88467 0.86767 0.0
C915 C 0.23537 0.8665 0.88029 0.0
C916 C 0.23164 0.88313 0.89328 0.0
H917 H 0.27952 0.66206 0.90497 0.0
H918 H 0.26567 0.72158 0.90398 0.0
C919 C 0.22344 0.9171 0.89366 0.0
C920 C 0.24328 0.83015 0.88003 0.0
H921 H 0.22377 0.75073 0.86961 0.0
C922 C 0.26687 0.82099 0.88632 0.0
C923 C 0.2275 0.80456 0.87392 0.0
C924 C 0.2015 0.81275 0.86749 0.0
C925 C 0.27523 0.78692 0.88658 0.0
C926 C 0.25934 0.76129 0.88061 0.0
C927 C 0.23588 0.77047 0.87418 0.0
C928 C 0.26662 0.72475 0.88113 0.0
C929 C 0.30118 0.77871 0.89308 0.0
C930 C 0.27083 0.70643 0.86858 0.0
C931 C 0.27862 0.67227 0.86908 0.0
C932 C 0.28221 0.65576 0.88217 0.0
C933 C 0.27715 0.67398 0.89471 0.0
C934 C 0.26938 0.70809 0.89418 0.0
H935 H 0.31372 0.80166 0.8938 0.0
H936 H 0.29821 0.76876 0.90395 0.0
H937 H 0.31145 0.75886 0.88684 0.0
H938 H 0.26859 0.71879 0.8584 0.0
H939 H 0.28223 0.659 0.85922 0.0
H940 H 0.71755 0.42931 0.8586 0.0
H941 H 0.73127 0.36953 0.85807 0.0
H942 H 0.73402 0.36804 0.90367 0.0
H943 H 0.72008 0.42754 0.90435 0.0
H944 H 0.77616 0.33829 0.86944 0.0
H945 H 0.68651 0.28721 0.89391 0.0
H946 H 0.68855 0.32986 0.88677 0.0
H947 H 0.70189 0.3205 0.9039 0.0
C948 C 0.72112 0.41632 0.86853 0.0
C949 C 0.7175 0.43321 0.88153 0.0
C950 C 0.72896 0.38216 0.86819 0.0
C951 C 0.73318 0.36422 0.88083 0.0
C952 C 0.73032 0.38123 0.8938 0.0
H953 H 0.78034 0.16016 0.90397 0.0
H954 H 0.76588 0.21952 0.90329 0.0
C955 C 0.72251 0.41535 0.89415 0.0
C956 C 0.74065 0.32771 0.8805 0.0
H957 H 0.72145 0.2484 0.89117 0.0
C958 C 0.76415 0.31857 0.8741 0.0
C959 C 0.7249 0.3021 0.88659 0.0
C960 C 0.69894 0.31026 0.89307 0.0
C961 C 0.77267 0.28454 0.87396 0.0
C962 C 0.75702 0.25895 0.88016 0.0
C963 C 0.73341 0.26808 0.88645 0.0
C964 C 0.765 0.22262 0.88043 0.0
C965 C 0.7987 0.27641 0.86754 0.0
C966 C 0.76873 0.20444 0.86781 0.0
C967 C 0.77702 0.17049 0.86814 0.0
C968 C 0.78161 0.15399 0.88114 0.0
C969 C 0.77711 0.17205 0.89378 0.0
C970 C 0.76883 0.206 0.89342 0.0
H971 H 0.81092 0.29958 0.86643 0.0
H972 H 0.80929 0.25743 0.87407 0.0
H973 H 0.79582 0.26537 0.85685 0.0
H974 H 0.76532 0.21657 0.85768 0.0
H975 H 0.7801 0.15733 0.8582 0.0
H976 H 0.80486 0.92135 0.86866 0.0
H977 H 0.7941 0.86051 0.86874 0.0
H978 H 0.73046 0.88028 0.89714 0.0
H979 H 0.7408 0.94147 0.89675 0.0
H980 H 0.79251 0.81627 0.8917 0.0
H981 H 0.69649 0.82471 0.8655 0.0
H982 H 0.71942 0.85946 0.86534 0.0
H983 H 0.70008 0.8515 0.88079 0.0
C984 C 0.78833 0.91273 0.87474 0.0
C985 C 0.77338 0.936 0.88254 0.0
C986 C 0.78232 0.878 0.87486 0.0
C987 C 0.76125 0.86595 0.88277 0.0
C988 C 0.74647 0.88914 0.89073 0.0
H989 H 0.69692 0.66479 0.89751 0.0
H990 H 0.70761 0.72571 0.89785 0.0
C991 C 0.75247 0.92395 0.89058 0.0
C992 C 0.75526 0.82897 0.88294 0.0
H993 H 0.70853 0.77071 0.87467 0.0
C994 C 0.77418 0.80626 0.88794 0.0
C995 C 0.73134 0.81605 0.87802 0.0
C996 C 0.71072 0.83911 0.87199 0.0
C997 C 0.76969 0.77095 0.88834 0.0
C998 C 0.74578 0.75804 0.88341 0.0
C999 C 0.72684 0.78074 0.87845 0.0
C1000 C 0.73992 0.72104 0.88341 0.0
C1001 C 0.79033 0.74782 0.8943 0.0
C1002 C 0.75447 0.6983 0.87511 0.0
C1003 C 0.74846 0.66349 0.87497 0.0
C1004 C 0.72779 0.65101 0.88309 0.0
C1005 C 0.71319 0.6738 0.89132 0.0
C1006 C 0.71917 0.70854 0.89146 0.0
H1007 H 0.80468 0.76217 0.90073 0.0
H1008 H 0.78165 0.72753 0.90099 0.0
H1009 H 0.80082 0.73534 0.88546 0.0
H1010 H 0.77026 0.70753 0.86862 0.0
H1011 H 0.75988 0.64632 0.86851 0.0
H1012 H 0.23924 0.44303 0.87146 0.0
H1013 H 0.2289 0.38179 0.87159 0.0
H1014 H 0.29419 0.36302 0.89896 0.0
H1015 H 0.30453 0.42404 0.8988 0.0
H1016 H 0.26155 0.32775 0.86275 0.0
H1017 H 0.23414 0.31465 0.91933 0.0
H1018 H 0.23593 0.35548 0.91053 0.0
H1019 H 0.26498 0.33453 0.91634 0.0
C1020 C 0.25121 0.42573 0.87755 0.0
C1021 C 0.27247 0.43807 0.88523 0.0
C1022 C 0.24533 0.39089 0.87763 0.0
C1023 C 0.26055 0.368 0.88547 0.0
C1024 C 0.28186 0.38036 0.89311 0.0
H1025 H 0.25955 0.14759 0.8973 0.0
H1026 H 0.27005 0.20879 0.89771 0.0
C1027 C 0.28775 0.41513 0.89301 0.0
C1028 C 0.25482 0.33098 0.88519 0.0
H1029 H 0.23862 0.26338 0.90619 0.0
C1030 C 0.2564 0.31367 0.87223 0.0
C1031 C 0.2483 0.31272 0.8976 0.0
C1032 C 0.24549 0.33027 0.91173 0.0
C1033 C 0.25197 0.27841 0.87135 0.0
C1034 C 0.2453 0.26015 0.88374 0.0
C1035 C 0.2438 0.27745 0.89672 0.0
C1036 C 0.23923 0.22322 0.88339 0.0
C1037 C 0.25497 0.26089 0.85722 0.0
C1038 C 0.21825 0.21124 0.87538 0.0
C1039 C 0.21232 0.1765 0.87514 0.0
C1040 C 0.22718 0.15317 0.88295 0.0
C1041 C 0.24794 0.16517 0.89113 0.0
C1042 C 0.2539 0.19998 0.89137 0.0
H1043 H 0.26689 0.27624 0.84979 0.0
H1044 H 0.26402 0.23537 0.85846 0.0
H1045 H 0.23559 0.25738 0.85238 0.0
H1046 H 0.20627 0.22882 0.86945 0.0
H1047 H 0.19583 0.16792 0.86902 0.0
H1048 H 0.69435 0.42327 0.11086 0.0
H1049 H 0.70432 0.36215 0.11068 0.0
H1050 H 0.76962 0.38019 0.13813 0.0
H1051 H 0.75952 0.44147 0.13838 0.0
H1052 H 0.74893 0.32878 0.10192 0.0
H1053 H 0.72977 0.30537 0.15892 0.0
H1054 H 0.71973 0.34396 0.15005 0.0
H1055 H 0.7528 0.33868 0.15553 0.0
C1056 C 0.71091 0.41413 0.11678 0.0
C1057 C 0.72623 0.43687 0.12462 0.0
C1058 C 0.71653 0.37928 0.11671 0.0
C1059 C 0.73748 0.36658 0.12455 0.0
C1060 C 0.75305 0.38938 0.13225 0.0
H1061 H 0.80444 0.16631 0.13632 0.0
H1062 H 0.79411 0.22732 0.13633 0.0
C1063 C 0.74738 0.42428 0.13233 0.0
C1064 C 0.74313 0.32951 0.12449 0.0
H1065 H 0.7482 0.25965 0.1459 0.0
C1066 C 0.74867 0.31361 0.11152 0.0
C1067 C 0.7427 0.30981 0.13703 0.0
C1068 C 0.7357 0.32519 0.15116 0.0
C1069 C 0.7543 0.2786 0.11079 0.0
C1070 C 0.75399 0.25897 0.12334 0.0
C1071 C 0.74841 0.27484 0.1363 0.0
C1072 C 0.75992 0.222 0.12331 0.0
C1073 C 0.7611 0.26306 0.09666 0.0
C1074 C 0.74392 0.1988 0.1161 0.0
C1075 C 0.74972 0.16392 0.11616 0.0
C1076 C 0.77147 0.15181 0.1235 0.0
C1077 C 0.78736 0.17504 0.13075 0.0
C1078 C 0.78155 0.20982 0.13071 0.0
H1079 H 0.76625 0.28282 0.08871 0.0
H1080 H 0.77755 0.24501 0.09772 0.0
H1081 H 0.74419 0.24863 0.0926 0.0
H1082 H 0.7269 0.20765 0.11051 0.0
H1083 H 0.73718 0.14638 0.11055 0.0
H1084 H 0.2575 0.94222 0.1375 0.0
H1085 H 0.26761 0.8809 0.13761 0.0
H1086 H 0.20354 0.86231 0.10938 0.0
H1087 H 0.19344 0.9234 0.10928 0.0
H1088 H 0.23502 0.82639 0.14586 0.0
H1089 H 0.26453 0.81491 0.08954 0.0
H1090 H 0.26212 0.85551 0.09848 0.0
H1091 H 0.23345 0.83438 0.09223 0.0
C1092 C 0.24573 0.92493 0.13129 0.0
C1093 C 0.22496 0.93736 0.12323 0.0
C1094 C 0.25148 0.89005 0.13135 0.0
C1095 C 0.23659 0.8672 0.1233 0.0
C1096 C 0.21564 0.87962 0.11539 0.0
H1097 H 0.23896 0.64726 0.11041 0.0
H1098 H 0.22801 0.70831 0.11039 0.0
C1099 C 0.20989 0.91443 0.11534 0.0
C1100 C 0.24245 0.83022 0.1235 0.0
H1101 H 0.25968 0.76327 0.10237 0.0
C1102 C 0.24054 0.81258 0.13637 0.0
C1103 C 0.24951 0.81231 0.11108 0.0
C1104 C 0.25277 0.83023 0.09706 0.0
C1105 C 0.24513 0.77733 0.13714 0.0
C1106 C 0.25227 0.75944 0.12473 0.0
C1107 C 0.25412 0.77707 0.11185 0.0
C1108 C 0.25848 0.72255 0.12496 0.0
C1109 C 0.24182 0.75943 0.15116 0.0
C1110 C 0.2794 0.7105 0.133 0.0
C1111 C 0.28561 0.67584 0.13301 0.0
C1112 C 0.27106 0.65265 0.12495 0.0
C1113 C 0.25032 0.66471 0.11677 0.0
C1114 C 0.24409 0.69945 0.11675 0.0
H1115 H 0.22972 0.77455 0.15858 0.0
H1116 H 0.23282 0.73393 0.14973 0.0
H1117 H 0.2611 0.75578 0.15611 0.0
H1118 H 0.29115 0.728 0.13911 0.0
H1119 H 0.3021 0.66723 0.13913 0.0
H1120 H 0.21951 0.65793 0.64895 0.0
H1121 H 0.23414 0.71725 0.64923 0.0
H1122 H 0.23376 0.71898 0.60361 0.0
H1123 H 0.21946 0.65957 0.60317 0.0
H1124 H 0.27804 0.74833 0.61561 0.0
H1125 H 0.18836 0.79984 0.64004 0.0
H1126 H 0.20354 0.76597 0.64979 0.0
H1127 H 0.19013 0.75747 0.6326 0.0
C1128 C 0.2226 0.67085 0.63896 0.0
C1129 C 0.21811 0.654 0.62603 0.0
C1130 C 0.23081 0.70484 0.63915 0.0
C1131 C 0.23454 0.72269 0.62644 0.0
C1132 C 0.2308 0.70571 0.61353 0.0
H1133 H 0.2793 0.92733 0.60179 0.0
H1134 H 0.26533 0.86784 0.60259 0.0
C1135 C 0.22262 0.67173 0.61332 0.0
C1136 C 0.24242 0.75905 0.62655 0.0
H1137 H 0.22302 0.83861 0.63686 0.0
C1138 C 0.26601 0.7681 0.62023 0.0
C1139 C 0.22666 0.78475 0.6326 0.0
C1140 C 0.20065 0.77669 0.63904 0.0
C1141 C 0.27442 0.80214 0.61991 0.0
C1142 C 0.25859 0.82786 0.62588 0.0
C1143 C 0.23509 0.81881 0.6323 0.0
C1144 C 0.26602 0.86436 0.62544 0.0
C1145 C 0.30038 0.81023 0.61341 0.0
C1146 C 0.27015 0.88249 0.63804 0.0
C1147 C 0.27801 0.91662 0.63764 0.0
C1148 C 0.28175 0.93331 0.62461 0.0
C1149 C 0.27681 0.91528 0.61201 0.0
C1150 C 0.26897 0.88117 0.61244 0.0
H1151 H 0.31285 0.7872 0.61266 0.0
H1152 H 0.29742 0.82026 0.60255 0.0
H1153 H 0.31073 0.82997 0.61966 0.0
H1154 H 0.26777 0.87002 0.64819 0.0
H1155 H 0.28152 0.92974 0.64755 0.0
H1156 H 0.77933 0.43344 0.64819 0.0
H1157 H 0.7644 0.37426 0.64848 0.0
H1158 H 0.76479 0.37243 0.60286 0.0
H1159 H 0.7794 0.43172 0.60241 0.0
H1160 H 0.72036 0.34345 0.61486 0.0
H1161 H 0.80975 0.29127 0.63933 0.0
H1162 H 0.79476 0.32529 0.64909 0.0
H1163 H 0.80819 0.33363 0.63189 0.0
C1164 C 0.77619 0.42053 0.6382 0.0
C1165 C 0.78076 0.43732 0.62527 0.0
C1166 C 0.7678 0.38662 0.6384 0.0
C1167 C 0.76398 0.36877 0.6257 0.0
C1168 C 0.76781 0.38569 0.61278 0.0
H1169 H 0.71827 0.16406 0.60144 0.0
H1170 H 0.73227 0.22357 0.60208 0.0
C1171 C 0.77617 0.4196 0.61256 0.0
C1172 C 0.75591 0.33248 0.62582 0.0
H1173 H 0.77483 0.25283 0.63626 0.0
C1174 C 0.73228 0.3236 0.6195 0.0
C1175 C 0.77152 0.30668 0.63191 0.0
C1176 C 0.79758 0.31452 0.63834 0.0
C1177 C 0.72366 0.28964 0.61925 0.0
C1178 C 0.73933 0.26383 0.62526 0.0
C1179 C 0.76288 0.27271 0.63166 0.0
C1180 C 0.73166 0.2274 0.62492 0.0
C1181 C 0.69765 0.28175 0.61276 0.0
C1182 C 0.72752 0.20948 0.63756 0.0
C1183 C 0.71964 0.17535 0.63726 0.0
C1184 C 0.7159 0.15845 0.62427 0.0
C1185 C 0.72077 0.17629 0.61163 0.0
C1186 C 0.72863 0.2104 0.61196 0.0
H1187 H 0.68533 0.30491 0.61195 0.0
H1188 H 0.70055 0.27154 0.60192 0.0
H1189 H 0.68718 0.26221 0.61905 0.0
H1190 H 0.72997 0.2221 0.64768 0.0
H1191 H 0.71619 0.16238 0.6472 0.0
H1192 H 0.21673 0.42828 0.36037 0.0
H1193 H 0.23045 0.36861 0.35973 0.0
H1194 H 0.23219 0.36617 0.40533 0.0
H1195 H 0.21822 0.42575 0.40613 0.0
H1196 H 0.27508 0.33757 0.3711 0.0
H1197 H 0.18529 0.28512 0.39496 0.0
H1198 H 0.18726 0.32801 0.38807 0.0
H1199 H 0.20056 0.31814 0.40516 0.0
C1200 C 0.22005 0.41513 0.37028 0.0
C1201 C 0.21617 0.4318 0.38331 0.0
C1202 C 0.2279 0.38101 0.36988 0.0
C1203 C 0.23187 0.36283 0.38247 0.0
C1204 C 0.22869 0.37956 0.39549 0.0
H1205 H 0.27897 0.15808 0.40411 0.0
H1206 H 0.26432 0.21729 0.40376 0.0
C1207 C 0.22086 0.4137 0.39592 0.0
C1208 C 0.23949 0.32638 0.38198 0.0
H1209 H 0.22015 0.24648 0.39176 0.0
C1210 C 0.26303 0.3176 0.37554 0.0
C1211 C 0.22368 0.30044 0.38777 0.0
C1212 C 0.19767 0.30824 0.39427 0.0
C1213 C 0.27153 0.28358 0.37505 0.0
C1214 C 0.25579 0.25764 0.38092 0.0
C1215 C 0.23216 0.26642 0.38727 0.0
C1216 C 0.26384 0.22132 0.38093 0.0
C1217 C 0.29761 0.27581 0.36862 0.0
C1218 C 0.26787 0.20369 0.36819 0.0
C1219 C 0.2763 0.16976 0.36833 0.0
C1220 C 0.28071 0.1528 0.38124 0.0
C1221 C 0.27589 0.17033 0.39397 0.0
C1222 C 0.2675 0.20421 0.39381 0.0
H1223 H 0.30982 0.29905 0.36773 0.0
H1224 H 0.30816 0.25651 0.375 0.0
H1225 H 0.29481 0.26532 0.35782 0.0
H1226 H 0.26462 0.21622 0.35813 0.0
H1227 H 0.27963 0.157 0.35833 0.0
H1228 H 0.77881 0.65853 0.4052 0.0
H1229 H 0.76403 0.7177 0.4045 0.0
H1230 H 0.7663 0.71591 0.35889 0.0
H1231 H 0.78083 0.65653 0.35943 0.0
H1232 H 0.79055 0.77308 0.39243 0.0
H1233 H 0.69419 0.75481 0.36747 0.0
H1234 H 0.71227 0.72005 0.3752 0.0
H1235 H 0.72078 0.73607 0.358 0.0
C1236 C 0.77594 0.67053 0.39499 0.0
C1237 C 0.78101 0.65269 0.38236 0.0
C1238 C 0.76753 0.70441 0.39463 0.0
C1239 C 0.76384 0.72107 0.38165 0.0
C1240 C 0.76861 0.70332 0.36902 0.0
H1241 H 0.71813 0.92781 0.35937 0.0
H1242 H 0.73315 0.86865 0.35908 0.0
C1243 C 0.77703 0.66941 0.36936 0.0
C1244 C 0.75607 0.75747 0.3814 0.0
H1245 H 0.7084 0.81181 0.37053 0.0
C1246 C 0.77256 0.78157 0.38768 0.0
C1247 C 0.73265 0.76844 0.37514 0.0
C1248 C 0.7138 0.74352 0.36867 0.0
C1249 C 0.76638 0.81645 0.38776 0.0
C1250 C 0.74285 0.8274 0.3816 0.0
C1251 C 0.72644 0.80333 0.37523 0.0
C1252 C 0.73466 0.86366 0.38186 0.0
C1253 C 0.78531 0.84132 0.39419 0.0
C1254 C 0.73045 0.88043 0.39478 0.0
C1255 C 0.72193 0.91428 0.395 0.0
C1256 C 0.71724 0.93195 0.38229 0.0
C1257 C 0.72157 0.91504 0.36936 0.0
C1258 C 0.73012 0.8812 0.36916 0.0
H1259 H 0.80509 0.83033 0.39488 0.0
H1260 H 0.7862 0.8653 0.38795 0.0
H1261 H 0.77894 0.84777 0.40508 0.0
H1262 H 0.73335 0.86715 0.4047 0.0
H1263 H 0.71867 0.92639 0.40515 0.0
H1264 H 0.8037 0.42091 0.39786 0.0
H1265 H 0.79343 0.35984 0.39764 0.0
H1266 H 0.72715 0.37979 0.37113 0.0
H1267 H 0.73753 0.44099 0.3713 0.0
H1268 H 0.7486 0.3258 0.40638 0.0
H1269 H 0.76694 0.30672 0.349 0.0
H1270 H 0.77727 0.3445 0.35835 0.0
H1271 H 0.74407 0.33985 0.35301 0.0
C1272 C 0.78684 0.41219 0.39209 0.0
C1273 C 0.77135 0.43542 0.38459 0.0
C1274 C 0.78104 0.37739 0.39193 0.0
C1275 C 0.75976 0.36525 0.3842 0.0
C1276 C 0.74396 0.38856 0.37692 0.0
H1277 H 0.69423 0.16487 0.36982 0.0
H1278 H 0.70412 0.22601 0.37041 0.0
C1279 C 0.74979 0.42341 0.37707 0.0
C1280 C 0.75415 0.32819 0.38382 0.0
H1281 H 0.74915 0.25991 0.36154 0.0
C1282 C 0.74879 0.31133 0.39659 0.0
C1283 C 0.75448 0.30943 0.37103 0.0
C1284 C 0.76122 0.32591 0.35707 0.0
C1285 C 0.74328 0.27626 0.39689 0.0
C1286 C 0.74358 0.25752 0.38409 0.0
C1287 C 0.74895 0.27438 0.37133 0.0
C1288 C 0.73798 0.22046 0.38368 0.0
C1289 C 0.73661 0.25972 0.41084 0.0
C1290 C 0.75398 0.19708 0.39079 0.0
C1291 C 0.74841 0.16216 0.3904 0.0
C1292 C 0.72692 0.15016 0.38281 0.0
C1293 C 0.71112 0.17353 0.37559 0.0
C1294 C 0.71667 0.20838 0.37597 0.0
H1295 H 0.73105 0.27888 0.41896 0.0
H1296 H 0.72049 0.24124 0.40957 0.0
H1297 H 0.75375 0.24561 0.41483 0.0
H1298 H 0.77079 0.20583 0.39659 0.0
H1299 H 0.76088 0.14451 0.396 0.0
H1300 H 0.26099 0.64485 0.39716 0.0
H1301 H 0.27095 0.70622 0.39748 0.0
H1302 H 0.2043 0.72573 0.37121 0.0
H1303 H 0.19402 0.66475 0.37117 0.0
H1304 H 0.28091 0.7498 0.37442 0.0
H1305 H 0.19409 0.79171 0.40432 0.0
H1306 H 0.20427 0.74767 0.40357 0.0
H1307 H 0.18692 0.76631 0.389 0.0
C1308 C 0.2485 0.66239 0.39153 0.0
C1309 C 0.22684 0.65027 0.38411 0.0
C1310 C 0.25418 0.6973 0.39169 0.0
C1311 C 0.23815 0.72054 0.38453 0.0
C1312 C 0.21665 0.70833 0.37701 0.0
H1313 H 0.23931 0.93945 0.37 0.0
H1314 H 0.22956 0.87803 0.37023 0.0
C1315 C 0.21097 0.67351 0.37686 0.0
C1316 C 0.24415 0.7575 0.38465 0.0
H1317 H 0.21964 0.83535 0.39384 0.0
C1318 C 0.26761 0.76852 0.37875 0.0
C1319 C 0.22669 0.78182 0.39026 0.0
C1320 C 0.20168 0.77134 0.39727 0.0
C1321 C 0.27388 0.80333 0.37804 0.0
C1322 C 0.25639 0.82765 0.3836 0.0
C1323 C 0.23296 0.81663 0.38954 0.0
C1324 C 0.26218 0.86466 0.3835 0.0
C1325 C 0.29891 0.81384 0.37106 0.0
C1326 C 0.28349 0.87742 0.39102 0.0
C1327 C 0.28905 0.91229 0.39086 0.0
C1328 C 0.27326 0.93497 0.38326 0.0
C1329 C 0.25175 0.92231 0.37588 0.0
C1330 C 0.24618 0.88738 0.37604 0.0
H1331 H 0.3068 0.79328 0.3642 0.0
H1332 H 0.29618 0.83716 0.36455 0.0
H1333 H 0.31349 0.81955 0.37934 0.0
H1334 H 0.29581 0.86041 0.39704 0.0
H1335 H 0.30584 0.92151 0.39656 0.0
H1336 H 0.80402 0.66993 0.63815 0.0
H1337 H 0.79329 0.73081 0.63798 0.0
H1338 H 0.72906 0.71072 0.61003 0.0
H1339 H 0.73941 0.64953 0.61049 0.0
H1340 H 0.79131 0.77444 0.61474 0.0
H1341 H 0.69595 0.76728 0.64171 0.0
H1342 H 0.71882 0.73247 0.64191 0.0
H1343 H 0.69913 0.73997 0.62654 0.0
C1344 C 0.78736 0.6785 0.63216 0.0
C1345 C 0.77228 0.65515 0.62448 0.0
C1346 C 0.78137 0.71323 0.63199 0.0
C1347 C 0.76017 0.72521 0.62416 0.0
C1348 C 0.74519 0.70193 0.61637 0.0
H1349 H 0.69594 0.92632 0.609 0.0
H1350 H 0.70641 0.86532 0.60886 0.0
C1351 C 0.75118 0.66711 0.61655 0.0
C1352 C 0.75427 0.76221 0.62387 0.0
H1353 H 0.70791 0.82096 0.63219 0.0
C1354 C 0.77312 0.78466 0.61859 0.0
C1355 C 0.73052 0.7754 0.6289 0.0
C1356 C 0.71 0.75262 0.63521 0.0
C1357 C 0.76869 0.81997 0.61803 0.0
C1358 C 0.74496 0.83317 0.62308 0.0
C1359 C 0.72609 0.81072 0.62832 0.0
C1360 C 0.73922 0.8702 0.62295 0.0
C1361 C 0.78923 0.84279 0.61176 0.0
C1362 C 0.7541 0.89308 0.63099 0.0
C1363 C 0.74822 0.92792 0.63101 0.0
C1364 C 0.72735 0.94031 0.62302 0.0
C1365 C 0.71239 0.91738 0.61506 0.0
C1366 C 0.71825 0.8826 0.61504 0.0
H1367 H 0.80332 0.82816 0.60527 0.0
H1368 H 0.78041 0.86295 0.60506 0.0
H1369 H 0.80003 0.85545 0.62044 0.0
H1370 H 0.77006 0.88393 0.63738 0.0
H1371 H 0.75988 0.9452 0.63729 0.0
H1372 H 0.19475 0.42116 0.63844 0.0
H1373 H 0.20531 0.36023 0.63807 0.0
H1374 H 0.2701 0.38068 0.61055 0.0
H1375 H 0.25991 0.4419 0.61122 0.0
H1376 H 0.20763 0.31718 0.61458 0.0
H1377 H 0.30241 0.32319 0.64221 0.0
H1378 H 0.2796 0.35808 0.64244 0.0
H1379 H 0.29961 0.35097 0.62717 0.0
C1380 C 0.21149 0.41265 0.63251 0.0
C1381 C 0.22677 0.4361 0.62501 0.0
C1382 C 0.21738 0.37789 0.63222 0.0
C1383 C 0.23869 0.36601 0.62445 0.0
C1384 C 0.25388 0.3894 0.61684 0.0
H1385 H 0.30311 0.16518 0.6089 0.0
H1386 H 0.29256 0.22616 0.60883 0.0
C1387 C 0.24798 0.42423 0.61715 0.0
C1388 C 0.24449 0.329 0.62402 0.0
H1389 H 0.29056 0.26985 0.63232 0.0
C1390 C 0.22572 0.30678 0.6185 0.0
C1391 C 0.26811 0.31557 0.62913 0.0
C1392 C 0.28853 0.33809 0.63569 0.0
C1393 C 0.23009 0.27147 0.61777 0.0
C1394 C 0.25369 0.25805 0.6229 0.0
C1395 C 0.27248 0.28027 0.62839 0.0
C1396 C 0.25937 0.22101 0.62262 0.0
C1397 C 0.20964 0.24892 0.61125 0.0
C1398 C 0.24426 0.19797 0.63046 0.0
C1399 C 0.25018 0.16315 0.63044 0.0
C1400 C 0.27133 0.15094 0.62262 0.0
C1401 C 0.28647 0.174 0.61483 0.0
C1402 C 0.28056 0.20877 0.61486 0.0
H1403 H 0.19576 0.26378 0.60472 0.0
H1404 H 0.21857 0.22887 0.60452 0.0
H1405 H 0.19859 0.2361 0.6198 0.0
H1406 H 0.22811 0.207 0.63674 0.0
H1407 H 0.23837 0.14576 0.63657 0.0
H1408 H 0.8919 0.03355 0.09817 0.0
H1409 H 0.93912 0.03804 0.09754 0.0
H1410 H 0.94129 0.03879 0.14315 0.0
H1411 H 0.89423 0.03395 0.14394 0.0
H1412 H 0.97023 0.09009 0.1092 0.0
H1413 H 0.99325 0.96378 0.13259 0.0
H1414 H 0.96163 0.97416 0.1257 0.0
H1415 H 0.9712 0.98892 0.14293 0.0
C1416 C 0.90241 0.03444 0.10808 0.0
C1417 C 0.88925 0.03321 0.12111 0.0
C1418 C 0.92938 0.03706 0.10768 0.0
C1419 C 0.94367 0.03826 0.12029 0.0
C1420 C 0.93064 0.03721 0.1333 0.0
H1421 H 0.10394 0.06027 0.14383 0.0
H1422 H 0.05683 0.05592 0.14294 0.0
C1423 C 0.9037 0.0346 0.13372 0.0
C1424 C 0.97218 0.04163 0.11988 0.0
H1425 H 0.02815 0.00292 0.13034 0.0
C1426 C 0.98295 0.07095 0.11372 0.0
C1427 C 0.98863 0.01659 0.1258 0.0
C1428 C 0.97816 0.98393 0.13202 0.0
C1429 C 0.00981 0.07633 0.11365 0.0
C1430 C 0.02623 0.05146 0.11972 0.0
C1431 C 0.01546 0.02199 0.12575 0.0
C1432 C 0.05468 0.05558 0.12008 0.0
C1433 C 0.02034 0.10898 0.10746 0.0
C1434 C 0.06906 0.05679 0.1075 0.0
C1435 C 0.09603 0.05933 0.10795 0.0
C1436 C 0.1091 0.0605 0.12101 0.0
C1437 C 0.09454 0.05949 0.13359 0.0
C1438 C 0.06761 0.05695 0.13312 0.0
H1439 H 0.00506 0.12874 0.10632 0.0
H1440 H 0.03614 0.1194 0.11415 0.0
H1441 H 0.0284 0.10367 0.0968 0.0
H1442 H 0.05946 0.05516 0.09734 0.0
H1443 H 0.10663 0.05988 0.09806 0.0
H1444 H 0.10583 0.03337 0.86104 0.0
H1445 H 0.05872 0.03857 0.86158 0.0
H1446 H 0.05997 0.03503 0.90718 0.0
H1447 H 0.10713 0.03018 0.90681 0.0
H1448 H 0.02183 0.99403 0.87358 0.0
H1449 H 0.01884 0.12247 0.89845 0.0
H1450 H 0.04791 0.10497 0.89072 0.0
H1451 H 0.03744 0.0912 0.90793 0.0
C1452 C 0.09614 0.03365 0.8712 0.0
C1453 C 0.11031 0.03154 0.88389 0.0
C1454 C 0.06921 0.03663 0.87148 0.0
C1455 C 0.05596 0.03773 0.88442 0.0
C1456 C 0.06992 0.03491 0.89709 0.0
H1457 H 0.89355 0.0565 0.90666 0.0
H1458 H 0.94069 0.05092 0.90688 0.0
C1459 C 0.09686 0.03194 0.89684 0.0
C1460 C 0.02748 0.0415 0.88461 0.0
H1461 H 0.97871 0.09427 0.89535 0.0
C1462 C 0.01237 0.01596 0.8783 0.0
C1463 C 0.01528 0.07015 0.89081 0.0
C1464 C 0.03065 0.09895 0.89726 0.0
C1465 C 0.98527 0.01809 0.87816 0.0
C1466 C 0.97307 0.04683 0.88429 0.0
C1467 C 0.98817 0.07228 0.89067 0.0
C1468 C 0.94462 0.05103 0.88409 0.0
C1469 C 0.96993 0.98926 0.8717 0.0
C1470 C 0.93133 0.05364 0.8712 0.0
C1471 C 0.90441 0.0568 0.87102 0.0
C1472 C 0.89029 0.05763 0.88375 0.0
C1473 C 0.90378 0.05586 0.89666 0.0
C1474 C 0.93072 0.05267 0.89682 0.0
H1475 H 0.9816 0.96554 0.87084 0.0
H1476 H 0.95232 0.98374 0.87803 0.0
H1477 H 0.96374 0.99666 0.86088 0.0
H1478 H 0.94178 0.05317 0.86127 0.0
H1479 H 0.89469 0.05831 0.86088 0.0
H1480 H 0.89393 0.53417 0.64576 0.0
H1481 H 0.94106 0.5389 0.6453 0.0
H1482 H 0.93992 0.53757 0.59968 0.0
H1483 H 0.89272 0.53321 0.59998 0.0
H1484 H 0.97767 0.49454 0.63301 0.0
H1485 H 0.98162 0.62405 0.60916 0.0
H1486 H 0.9524 0.60653 0.6167 0.0
H1487 H 0.96289 0.59342 0.59941 0.0
C1488 C 0.90365 0.53485 0.63561 0.0
C1489 C 0.8895 0.53349 0.62289 0.0
C1490 C 0.93059 0.53756 0.63538 0.0
C1491 C 0.94388 0.53913 0.62246 0.0
C1492 C 0.92994 0.53708 0.60976 0.0
H1493 H 0.10655 0.55708 0.60074 0.0
H1494 H 0.0594 0.55182 0.60037 0.0
C1495 C 0.90297 0.53438 0.60996 0.0
C1496 C 0.97239 0.54256 0.62234 0.0
H1497 H 0.02156 0.59529 0.61215 0.0
C1498 C 0.9873 0.51658 0.62848 0.0
C1499 C 0.98481 0.57135 0.6164 0.0
C1500 C 0.96966 0.60061 0.61014 0.0
C1501 C 0.0144 0.51842 0.62871 0.0
C1502 C 0.02682 0.5473 0.62285 0.0
C1503 C 0.01192 0.5732 0.61663 0.0
C1504 C 0.05529 0.55119 0.62315 0.0
C1505 C 0.02953 0.48917 0.635 0.0
C1506 C 0.06849 0.55325 0.63609 0.0
C1507 C 0.09541 0.55624 0.63635 0.0
C1508 C 0.10963 0.55743 0.62366 0.0
C1509 C 0.09624 0.55614 0.61071 0.0
C1510 C 0.0693 0.55314 0.61046 0.0
H1511 H 0.01771 0.46555 0.63568 0.0
H1512 H 0.04713 0.48369 0.62865 0.0
H1513 H 0.03573 0.49608 0.64587 0.0
H1514 H 0.05795 0.5525 0.64599 0.0
H1515 H 0.10506 0.55736 0.64652 0.0
H1516 H 0.8923 0.55595 0.40866 0.0
H1517 H 0.93957 0.55236 0.40916 0.0
H1518 H 0.94137 0.55217 0.36354 0.0
H1519 H 0.89425 0.55609 0.36288 0.0
H1520 H 0.97079 0.50064 0.39722 0.0
H1521 H 0.99307 0.62753 0.37414 0.0
H1522 H 0.96156 0.61684 0.38112 0.0
H1523 H 0.971 0.60234 0.36383 0.0
C1524 C 0.90273 0.55541 0.39872 0.0
C1525 C 0.88945 0.55646 0.38573 0.0
C1526 C 0.92973 0.55331 0.39904 0.0
C1527 C 0.94393 0.55247 0.38639 0.0
C1528 C 0.93078 0.55347 0.37342 0.0
H1529 H 0.10465 0.53197 0.36295 0.0
H1530 H 0.05752 0.53661 0.36365 0.0
C1531 C 0.90381 0.55554 0.37308 0.0
C1532 C 0.97245 0.54934 0.38672 0.0
H1533 H 0.0282 0.58873 0.37633 0.0
C1534 C 0.9834 0.51998 0.39276 0.0
C1535 C 0.98875 0.57461 0.38084 0.0
C1536 C 0.97807 0.60727 0.37473 0.0
C1537 C 0.01027 0.51481 0.39277 0.0
C1538 C 0.02656 0.53997 0.38679 0.0
C1539 C 0.01561 0.56945 0.38086 0.0
C1540 C 0.05504 0.53617 0.3865 0.0
C1541 C 0.02096 0.48209 0.39882 0.0
C1542 C 0.06924 0.53456 0.39914 0.0
C1543 C 0.0962 0.53184 0.39879 0.0
C1544 C 0.10946 0.53089 0.38579 0.0
C1545 C 0.0951 0.53253 0.37315 0.0
C1546 C 0.06816 0.53524 0.37352 0.0
H1547 H 0.00581 0.4621 0.39976 0.0
H1548 H 0.03695 0.47209 0.39215 0.0
H1549 H 0.02879 0.48712 0.40955 0.0
H1550 H 0.05949 0.53589 0.40927 0.0
H1551 H 0.10663 0.53083 0.40873 0.0
H1552 H 0.39464 0.03172 0.64402 0.0
H1553 H 0.44172 0.03685 0.64308 0.0
H1554 H 0.43905 0.03569 0.59748 0.0
H1555 H 0.39188 0.0309 0.59825 0.0
H1556 H 0.47806 0.99263 0.63031 0.0
H1557 H 0.48073 0.1225 0.6067 0.0
H1558 H 0.45185 0.10476 0.61454 0.0
H1559 H 0.46177 0.09174 0.59714 0.0
C1560 C 0.40401 0.03253 0.63377 0.0
C1561 C 0.38943 0.03107 0.6212 0.0
C1562 C 0.43092 0.03546 0.63327 0.0
C1563 C 0.44377 0.03716 0.62022 0.0
C1564 C 0.42941 0.03507 0.60766 0.0
H1565 H 0.60667 0.05826 0.59843 0.0
H1566 H 0.55958 0.05179 0.59778 0.0
C1567 C 0.40247 0.03213 0.60813 0.0
C1568 C 0.47225 0.04079 0.61982 0.0
H1569 H 0.52089 0.09432 0.60958 0.0
C1570 C 0.48745 0.01486 0.62579 0.0
C1571 C 0.48437 0.06981 0.61389 0.0
C1572 C 0.4689 0.09897 0.6078 0.0
C1573 C 0.51454 0.01705 0.62591 0.0
C1574 C 0.52666 0.04623 0.62011 0.0
C1575 C 0.51148 0.072 0.61401 0.0
C1576 C 0.55507 0.05074 0.62053 0.0
C1577 C 0.52998 0.98791 0.63205 0.0
C1578 C 0.56799 0.05297 0.63355 0.0
C1579 C 0.59485 0.05666 0.63397 0.0
C1580 C 0.6093 0.0584 0.62137 0.0
C1581 C 0.59618 0.05691 0.60833 0.0
C1582 C 0.56928 0.05321 0.60793 0.0
H1583 H 0.51841 0.96405 0.6326 0.0
H1584 H 0.54766 0.98296 0.6257 0.0
H1585 H 0.53605 0.9946 0.64297 0.0
H1586 H 0.55729 0.05183 0.64339 0.0
H1587 H 0.60427 0.05792 0.6442 0.0
H1588 H 0.39281 0.05714 0.40668 0.0
H1589 H 0.44006 0.05345 0.40707 0.0
H1590 H 0.44156 0.05351 0.36145 0.0
H1591 H 0.39442 0.05753 0.36089 0.0
H1592 H 0.47079 0.00151 0.39511 0.0
H1593 H 0.49393 0.1281 0.372 0.0
H1594 H 0.46237 0.11781 0.379 0.0
H1595 H 0.47167 0.10315 0.36171 0.0
C1596 C 0.40317 0.05666 0.39671 0.0
C1597 C 0.3898 0.05775 0.38375 0.0
C1598 C 0.43016 0.05451 0.39698 0.0
C1599 C 0.44427 0.05365 0.3843 0.0
C1600 C 0.43104 0.05481 0.37135 0.0
H1601 H 0.6052 0.03145 0.36122 0.0
H1602 H 0.55807 0.03648 0.36173 0.0
C1603 C 0.40407 0.05693 0.37107 0.0
C1604 C 0.47278 0.05017 0.3846 0.0
H1605 H 0.52881 0.08895 0.37427 0.0
C1606 C 0.48352 0.02071 0.39065 0.0
C1607 C 0.48926 0.07525 0.37873 0.0
C1608 C 0.47879 0.10802 0.3726 0.0
C1609 C 0.51037 0.01526 0.39071 0.0
C1610 C 0.52683 0.04025 0.38476 0.0
C1611 C 0.51609 0.06981 0.37879 0.0
C1612 C 0.5553 0.0362 0.38457 0.0
C1613 C 0.52083 0.98245 0.3968 0.0
C1614 C 0.56933 0.03454 0.39726 0.0
C1615 C 0.59627 0.03159 0.39702 0.0
C1616 C 0.6097 0.03047 0.38407 0.0
C1617 C 0.59551 0.03213 0.37138 0.0
C1618 C 0.56858 0.03508 0.37164 0.0
H1619 H 0.50557 0.9626 0.3977 0.0
H1620 H 0.53684 0.97231 0.39019 0.0
H1621 H 0.52855 0.98743 0.40756 0.0
H1622 H 0.55946 0.036 0.40735 0.0
H1623 H 0.60657 0.03057 0.407 0.0
H1624 H 0.60454 0.55855 0.1461 0.0
H1625 H 0.55743 0.55386 0.14539 0.0
H1626 H 0.55941 0.55432 0.09978 0.0
H1627 H 0.60661 0.55864 0.10032 0.0
H1628 H 0.52099 0.59795 0.13275 0.0
H1629 H 0.51765 0.46792 0.10934 0.0
H1630 H 0.54671 0.48565 0.11698 0.0
H1631 H 0.53652 0.4984 0.09959 0.0
C1632 C 0.59502 0.55769 0.1359 0.0
C1633 C 0.60941 0.55878 0.12326 0.0
C1634 C 0.56808 0.55502 0.13553 0.0
C1635 C 0.55503 0.55321 0.12254 0.0
C1636 C 0.56921 0.55501 0.10991 0.0
H1637 H 0.39268 0.5338 0.10023 0.0
H1638 H 0.4398 0.53963 0.10001 0.0
C1639 C 0.59617 0.55768 0.11025 0.0
C1640 C 0.52653 0.54972 0.12227 0.0
H1641 H 0.47763 0.49657 0.11208 0.0
C1642 C 0.51148 0.57578 0.12826 0.0
C1643 C 0.51426 0.52075 0.11639 0.0
C1644 C 0.52956 0.4914 0.11031 0.0
C1645 C 0.48437 0.57384 0.12838 0.0
C1646 C 0.4721 0.54477 0.12258 0.0
C1647 C 0.48714 0.5188 0.11651 0.0
C1648 C 0.44364 0.54074 0.12279 0.0
C1649 C 0.46909 0.60315 0.1345 0.0
C1650 C 0.43031 0.5388 0.13569 0.0
C1651 C 0.40341 0.53548 0.13588 0.0
C1652 C 0.38934 0.53384 0.12315 0.0
C1653 C 0.40287 0.53509 0.11023 0.0
C1654 C 0.42979 0.53841 0.11007 0.0
H1655 H 0.48084 0.62684 0.13514 0.0
H1656 H 0.45156 0.60841 0.12805 0.0
H1657 H 0.46276 0.59646 0.14537 0.0
H1658 H 0.44074 0.53985 0.14563 0.0
H1659 H 0.39365 0.53442 0.14602 0.0
H1660 H 0.39269 0.5596 0.90901 0.0
H1661 H 0.43993 0.55571 0.90975 0.0
H1662 H 0.44242 0.55346 0.86416 0.0
H1663 H 0.39532 0.55768 0.86325 0.0
H1664 H 0.47119 0.50336 0.89843 0.0
H1665 H 0.49422 0.62892 0.8744 0.0
H1666 H 0.46256 0.61873 0.8813 0.0
H1667 H 0.47221 0.60349 0.86415 0.0
C1668 C 0.40327 0.55855 0.89912 0.0
C1669 C 0.39019 0.55911 0.88606 0.0
C1670 C 0.43025 0.55627 0.89958 0.0
C1671 C 0.44463 0.55477 0.88701 0.0
C1672 C 0.43168 0.55528 0.87397 0.0
H1673 H 0.60418 0.53109 0.86295 0.0
H1674 H 0.55716 0.53629 0.86419 0.0
C1675 C 0.40474 0.55753 0.87349 0.0
C1676 C 0.47314 0.55148 0.88749 0.0
H1677 H 0.5291 0.5897 0.87674 0.0
C1678 C 0.48391 0.52234 0.89381 0.0
C1679 C 0.4896 0.57631 0.88143 0.0
C1680 C 0.47912 0.60879 0.87505 0.0
C1681 C 0.51076 0.51686 0.89384 0.0
C1682 C 0.52718 0.54148 0.8876 0.0
C1683 C 0.51641 0.57083 0.88147 0.0
C1684 C 0.5556 0.53705 0.88706 0.0
C1685 C 0.52126 0.48433 0.90017 0.0
C1686 C 0.57028 0.53582 0.89953 0.0
C1687 C 0.59722 0.53276 0.89889 0.0
C1688 C 0.60993 0.53111 0.88573 0.0
C1689 C 0.59506 0.53223 0.87327 0.0
C1690 C 0.56818 0.53526 0.87393 0.0
H1691 H 0.50593 0.46472 0.90149 0.0
H1692 H 0.53692 0.47359 0.89346 0.0
H1693 H 0.52952 0.48992 0.91076 0.0
H1694 H 0.56096 0.53777 0.90977 0.0
H1695 H 0.60806 0.53215 0.90869 0.0
H1696 H 0.25636 0.03045 0.94413 0.0
H1697 H 0.25715 0.03585 0.96998 0.0
H1698 H 0.17383 0.04039 0.97069 0.0
H1699 H 0.17277 0.03525 0.94489 0.0
H1700 H 0.23133 0.09241 0.98693 0.0
H1701 H 0.19639 0.96134 0.99904 0.0
H1702 H 0.21154 0.97218 0.98239 0.0
H1703 H 0.17879 0.98492 0.98582 0.0
C1704 C 0.23819 0.03254 0.94978 0.0
C1705 C 0.2145 0.03233 0.94244 0.0
C1706 C 0.2387 0.03566 0.96454 0.0
C1707 C 0.21554 0.03819 0.97221 0.0
C1708 C 0.19189 0.03811 0.96494 0.0
H1709 H 0.17277 0.04804 0.06064 0.0
H1710 H 0.17438 0.04231 0.0349 0.0
C1711 C 0.19135 0.03529 0.9502 0.0
C1712 C 0.21603 0.04144 0.98783 0.0
H1713 H 0.20071 0.99929 0.0183 0.0
C1714 C 0.22479 0.07205 0.99383 0.0
C1715 C 0.20729 0.01488 0.99673 0.0
C1716 C 0.1981 0.98131 0.99075 0.0
C1717 C 0.2245 0.07713 0.00856 0.0
C1718 C 0.21591 0.05044 0.01752 0.0
C1719 C 0.20732 0.01972 0.01146 0.0
C1720 C 0.2152 0.05401 0.03319 0.0
C1721 C 0.23257 0.11146 0.0143 0.0
C1722 C 0.23768 0.06204 0.04086 0.0
C1723 C 0.23675 0.06572 0.05558 0.0
C1724 C 0.21341 0.06084 0.06296 0.0
C1725 C 0.19106 0.05202 0.05529 0.0
C1726 C 0.19195 0.04871 0.04056 0.0
H1727 H 0.23122 0.1317 0.0061 0.0
H1728 H 0.22043 0.11902 0.02347 0.0
H1729 H 0.25302 0.11009 0.01784 0.0
H1730 H 0.25601 0.06529 0.03547 0.0
H1731 H 0.25438 0.07215 0.06118 0.0
H1732 H 0.82548 0.03844 0.94426 0.0
H1733 H 0.82382 0.03132 0.96993 0.0
H1734 H 0.74551 0.06934 0.97037 0.0
H1735 H 0.74711 0.07707 0.94467 0.0
H1736 H 0.77623 0.09847 0.99111 0.0
H1737 H 0.78548 0.95751 0.99195 0.0
H1738 H 0.81078 0.97847 0.98227 0.0
H1739 H 0.77795 0.98095 0.97603 0.0
C1740 C 0.80784 0.04519 0.94979 0.0
C1741 C 0.78638 0.05823 0.94238 0.0
C1742 C 0.80688 0.0409 0.96447 0.0
C1743 C 0.7844 0.04927 0.97205 0.0
C1744 C 0.76301 0.06254 0.96472 0.0
H1745 H 0.75351 0.99268 0.05966 0.0
H1746 H 0.75167 1.00044 0.03398 0.0
C1747 C 0.76396 0.0669 0.95002 0.0
C1748 C 0.78344 0.045 0.98766 0.0
H1749 H 0.78992 0.98608 0.01406 0.0
C1750 C 0.77909 0.07387 0.99613 0.0
C1751 C 0.78686 0.01282 0.99419 0.0
C1752 C 0.79028 0.98059 0.98565 0.0
C1753 C 0.77864 0.07157 0.01097 0.0
C1754 C 0.78303 0.03961 0.01751 0.0
C1755 C 0.7868 0.01061 0.00903 0.0
C1756 C 0.78384 0.0357 0.03313 0.0
C1757 C 0.77318 0.1033 0.01951 0.0
C1758 C 0.80266 0.05275 0.04117 0.0
C1759 C 0.80376 0.0484 0.05585 0.0
C1760 C 0.78614 0.02672 0.06278 0.0
C1761 C 0.76732 0.00963 0.05468 0.0
C1762 C 0.76627 0.01398 0.04 0.0
H1763 H 0.76355 0.12327 0.01303 0.0
H1764 H 0.76074 0.09742 0.02877 0.0
H1765 H 0.79172 0.11393 0.02347 0.0
H1766 H 0.81673 0.06912 0.03607 0.0
H1767 H 0.81855 0.06186 0.06175 0.0
H1768 H 0.2499 0.58347 0.56207 0.0
H1769 H 0.25071 0.57638 0.53634 0.0
H1770 H 0.17601 0.52751 0.53784 0.0
H1771 H 0.17516 0.53403 0.56356 0.0
H1772 H 0.21119 0.49328 0.52081 0.0
H1773 H 0.20843 0.63128 0.50764 0.0
H1774 H 0.23424 0.61928 0.51937 0.0
H1775 H 0.20122 0.61528 0.52512 0.0
C1776 C 0.23362 0.57124 0.55693 0.0
C1777 C 0.2124 0.5595 0.56488 0.0
C1778 C 0.23406 0.56738 0.54221 0.0
C1779 C 0.21323 0.55192 0.53514 0.0
C1780 C 0.19223 0.53969 0.54307 0.0
H1781 H 0.1767 0.55633 0.44563 0.0
H1782 H 0.1777 0.5631 0.47134 0.0
C1783 C 0.19177 0.5435 0.55778 0.0
C1784 C 0.21341 0.54804 0.51951 0.0
H1785 H 0.21519 0.593 0.48855 0.0
C1786 C 0.21206 0.51507 0.51375 0.0
C1787 C 0.2142 0.57653 0.51032 0.0
C1788 C 0.21436 0.61262 0.51589 0.0
C1789 C 0.21176 0.50978 0.49905 0.0
C1790 C 0.21325 0.53823 0.48986 0.0
C1791 C 0.21432 0.57122 0.49562 0.0
C1792 C 0.21304 0.53434 0.47423 0.0
C1793 C 0.20927 0.47385 0.49348 0.0
C1794 C 0.2328 0.51634 0.46728 0.0
C1795 C 0.23228 0.51235 0.45257 0.0
C1796 C 0.21203 0.52645 0.44451 0.0
C1797 C 0.19252 0.54499 0.4515 0.0
C1798 C 0.19307 0.54895 0.4662 0.0
H1799 H 0.20191 0.45605 0.50169 0.0
H1800 H 0.19606 0.47292 0.48421 0.0
H1801 H 0.22858 0.46464 0.49003 0.0
H1802 H 0.24867 0.50542 0.47324 0.0
H1803 H 0.24769 0.4981 0.44753 0.0
H1804 H 0.82005 0.52991 0.44547 0.0
H1805 H 0.81779 0.52302 0.47115 0.0
H1806 H 0.75031 0.58768 0.47249 0.0
H1807 H 0.75262 0.59517 0.44681 0.0
H1808 H 0.7867 0.60465 0.4927 0.0
H1809 H 0.76657 0.46571 0.49382 0.0
H1810 H 0.79481 0.47679 0.48376 0.0
H1811 H 0.76347 0.49098 0.47794 0.0
C1812 C 0.80464 0.54257 0.4512 0.0
C1813 C 0.78647 0.56305 0.44406 0.0
C1814 C 0.80329 0.53842 0.46588 0.0
C1815 C 0.78365 0.55441 0.47371 0.0
C1816 C 0.76555 0.57496 0.46664 0.0
H1817 H 0.74721 0.51072 0.56205 0.0
H1818 H 0.74548 0.51832 0.53635 0.0
C1819 C 0.76689 0.57917 0.45195 0.0
C1820 C 0.7825 0.55061 0.48932 0.0
H1821 H 0.77786 0.49158 0.5158 0.0
C1822 C 0.78462 0.57996 0.49776 0.0
C1823 C 0.77944 0.51842 0.4959 0.0
C1824 C 0.77568 0.4862 0.4874 0.0
C1825 C 0.7844 0.57792 0.5126 0.0
C1826 C 0.78241 0.54559 0.51917 0.0
C1827 C 0.77964 0.51632 0.51074 0.0
C1828 C 0.78335 0.54154 0.53478 0.0
C1829 C 0.78602 0.61045 0.5211 0.0
C1830 C 0.80532 0.55177 0.54241 0.0
C1831 C 0.80635 0.54755 0.55709 0.0
C1832 C 0.7855 0.53273 0.56443 0.0
C1833 C 0.76358 0.52228 0.55674 0.0
C1834 C 0.76256 0.52656 0.54205 0.0
H1835 H 0.78018 0.633 0.51473 0.0
H1836 H 0.77355 0.60911 0.53065 0.0
H1837 H 0.8063 0.61439 0.52459 0.0
H1838 H 0.82181 0.56271 0.53699 0.0
H1839 H 0.82359 0.55572 0.56266 0.0
H1840 H 0.67736 0.03409 0.56184 0.0
H1841 H 0.67945 0.02574 0.53624 0.0
H1842 H 0.74907 0.08623 0.53442 0.0
H1843 H 0.7469 0.09526 0.56002 0.0
H1844 H 0.71386 0.10419 0.51396 0.0
H1845 H 0.7283 0.96402 0.51421 0.0
H1846 H 0.70034 0.97747 0.524 0.0
H1847 H 0.73209 0.98986 0.52989 0.0
C1848 C 0.6932 0.04553 0.55602 0.0
C1849 C 0.71201 0.06529 0.563 0.0
C1850 C 0.69445 0.04052 0.54138 0.0
C1851 C 0.71465 0.05489 0.53344 0.0
C1852 C 0.73339 0.07475 0.54036 0.0
H1853 H 0.74999 0.00365 0.44568 0.0
H1854 H 0.75173 0.01248 0.47131 0.0
C1855 C 0.73213 0.07985 0.55499 0.0
C1856 C 0.71575 0.05012 0.51787 0.0
H1857 H 0.71808 0.98937 0.49197 0.0
C1858 C 0.71493 0.0791 0.50915 0.0
C1859 C 0.7175 0.01739 0.5116 0.0
C1860 C 0.71987 0.98542 0.5204 0.0
C1861 C 0.71519 0.07621 0.49433 0.0
C1862 C 0.71585 0.04342 0.48807 0.0
C1863 C 0.71731 0.01448 0.49679 0.0
C1864 C 0.7149 0.03858 0.4725 0.0
C1865 C 0.71505 0.10833 0.48553 0.0
C1866 C 0.69349 0.05001 0.46469 0.0
C1867 C 0.69245 0.04508 0.45004 0.0
C1868 C 0.71274 0.02835 0.44293 0.0
C1869 C 0.73408 0.01669 0.45081 0.0
C1870 C 0.73509 0.02167 0.46546 0.0
H1871 H 0.72178 0.13076 0.4917 0.0
H1872 H 0.72753 0.10552 0.47603 0.0
H1873 H 0.695 0.11358 0.48192 0.0
H1874 H 0.67743 0.06246 0.46994 0.0
H1875 H 0.67567 0.05424 0.44432 0.0
H1876 H 0.323 0.03149 0.44388 0.0
H1877 H 0.32113 0.02349 0.4695 0.0
H1878 H 0.25047 0.08192 0.47122 0.0
H1879 H 0.25242 0.09061 0.4456 0.0
H1880 H 0.28513 0.10105 0.4917 0.0
H1881 H 0.27342 0.96047 0.49157 0.0
H1882 H 0.30119 0.97472 0.48181 0.0
H1883 H 0.26926 0.98606 0.47585 0.0
C1884 C 0.30699 0.04256 0.44968 0.0
C1885 C 0.28781 0.06162 0.44267 0.0
C1886 C 0.30587 0.03775 0.46433 0.0
C1887 C 0.28543 0.05161 0.47226 0.0
C1888 C 0.26634 0.07083 0.46531 0.0
H1889 H 0.25082 0.9983 0.55986 0.0
H1890 H 0.2492 0.00712 0.53423 0.0
C1891 C 0.26748 0.07573 0.45065 0.0
C1892 C 0.28437 0.04692 0.48784 0.0
H1893 H 0.28309 0.98627 0.51379 0.0
C1894 C 0.28454 0.07597 0.49654 0.0
C1895 C 0.28323 0.01418 0.49414 0.0
C1896 C 0.2815 0.98208 0.48537 0.0
C1897 C 0.28418 0.07317 0.51135 0.0
C1898 C 0.28416 0.0404 0.51765 0.0
C1899 C 0.28338 0.01137 0.50896 0.0
C1900 C 0.285 0.03565 0.53324 0.0
C1901 C 0.2835 0.10536 0.52011 0.0
C1902 C 0.30579 0.04845 0.54119 0.0
C1903 C 0.30672 0.04361 0.55584 0.0
C1904 C 0.28699 0.0255 0.56283 0.0
C1905 C 0.2663 0.01241 0.55482 0.0
C1906 C 0.26536 0.01739 0.54017 0.0
H1907 H 0.27609 0.12738 0.51391 0.0
H1908 H 0.27118 0.1021 0.52964 0.0
H1909 H 0.30342 0.11164 0.52364 0.0
H1910 H 0.32149 0.06191 0.53604 0.0
H1911 H 0.32302 0.05384 0.56166 0.0
H1912 H 0.68636 0.51617 0.06544 0.0
H1913 H 0.68626 0.5045 0.04001 0.0
H1914 H 0.71507 0.60584 0.03186 0.0
H1915 H 0.7154 0.61775 0.05727 0.0
H1916 H 0.65838 0.5411 0.01913 0.0
H1917 H 0.76423 0.54406 0.00893 0.0
H1918 H 0.75085 0.53956 0.02649 0.0
H1919 H 0.75169 0.58068 0.0181 0.0
C1920 C 0.69285 0.53593 0.05826 0.0
C1921 C 0.7009 0.56792 0.0634 0.0
C1922 C 0.69277 0.5292 0.04373 0.0
C1923 C 0.70093 0.55416 0.03408 0.0
C1924 C 0.70913 0.58602 0.03915 0.0
H1925 H 0.70698 0.5677 0.94249 0.0
H1926 H 0.71005 0.57764 0.968 0.0
C1927 C 0.70917 0.59283 0.05368 0.0
C1928 C 0.69975 0.54736 0.01866 0.0
H1929 H 0.73679 0.54148 0.98883 0.0
C1930 C 0.67552 0.54098 0.0125 0.0
C1931 C 0.72215 0.54742 0.01006 0.0
C1932 C 0.74876 0.553 0.01621 0.0
C1933 C 0.673 0.53523 0.99791 0.0
C1934 C 0.69541 0.53515 0.98929 0.0
C1935 C 0.71966 0.54154 0.99546 0.0
C1936 C 0.69404 0.52863 0.97385 0.0
C1937 C 0.6463 0.53015 0.99179 0.0
C1938 C 0.68446 0.49753 0.96869 0.0
C1939 C 0.6826 0.49178 0.95412 0.0
C1940 C 0.6905 0.51696 0.94444 0.0
C1941 C 0.70065 0.5478 0.94965 0.0
C1942 C 0.70245 0.55354 0.96423 0.0
H1943 H 0.63099 0.53984 0.999 0.0
H1944 H 0.64437 0.54322 0.98142 0.0
H1945 H 0.64288 0.50248 0.99013 0.0
H1946 H 0.67839 0.47767 0.97593 0.0
H1947 H 0.67487 0.46765 0.95047 0.0
H1948 H 0.24634 0.58102 0.9461 0.0
H1949 H 0.24491 0.57516 0.97193 0.0
H1950 H 0.32442 0.54197 0.97207 0.0
H1951 H 0.32606 0.54743 0.94629 0.0
H1952 H 0.26024 0.51011 0.98862 0.0
H1953 H 0.31727 0.62715 1.00053 0.0
H1954 H 0.29967 0.62177 0.98415 0.0
H1955 H 0.32942 0.59919 0.98694 0.0
C1956 C 0.26353 0.57247 0.95162 0.0
C1957 C 0.28634 0.56478 0.94413 0.0
C1958 C 0.26264 0.5691 0.96636 0.0
C1959 C 0.28461 0.55839 0.97385 0.0
C1960 C 0.30734 0.55053 0.96644 0.0
H1961 H 0.32667 0.53595 0.06181 0.0
H1962 H 0.32527 0.54162 0.03608 0.0
C1963 C 0.3082 0.55359 0.95171 0.0
C1964 C 0.28383 0.55526 0.98945 0.0
H1965 H 0.30645 0.59172 0.01981 0.0
C1966 C 0.27019 0.52799 0.99549 0.0
C1967 C 0.297 0.57854 0.99829 0.0
C1968 C 0.31159 0.6085 0.99223 0.0
C1969 C 0.26986 0.52291 0.01022 0.0
C1970 C 0.28295 0.54634 0.01912 0.0
C1971 C 0.2964 0.5738 0.01301 0.0
C1972 C 0.28346 0.54253 0.03477 0.0
C1973 C 0.25626 0.49185 0.01602 0.0
C1974 C 0.26042 0.54151 0.04265 0.0
C1975 C 0.26115 0.53789 0.05738 0.0
C1976 C 0.28496 0.5358 0.06454 0.0
C1977 C 0.308 0.53746 0.05664 0.0
C1978 C 0.30724 0.54073 0.04192 0.0
H1979 H 0.25383 0.4718 0.00781 0.0
H1980 H 0.26705 0.48077 0.02508 0.0
H1981 H 0.2367 0.49928 0.01976 0.0
H1982 H 0.24185 0.5438 0.03743 0.0
H1983 H 0.24306 0.53707 0.06316 0.0
loop_
_geom_bond_atom_site_label_1
_geom_bond_atom_site_label_2
_geom_bond_distance
_geom_bond_site_symmetry_2
_ccdc_geom_bond_type
Co0 O3 1.970 . S
Co0 N17 1.989 . S
Co0 O25 1.967 . S
Co0 O32 1.920 . S
Co1 O4 1.966 . S
Co1 N10 2.022 . S
Co1 N18 1.993 . S
Co1 O26 1.941 . S
C2 O3 1.258 . S
C2 O4 1.263 . S
O3 Co0 1.970 . S
O3 C2 1.258 . S
O4 Co1 1.966 . S
O4 C2 1.263 . S
C5 O6 1.235 . S
C5 O32 1.289 . S
O6 C5 1.235 . S
C7 C9 1.400 . S
C7 N10 1.351 . S
C7 C12 1.501 . S
C8 C9 1.387 . S
C8 N11 1.341 . S
C9 C7 1.400 . S
C9 C8 1.387 . S
N10 Co1 2.022 . S
N10 C7 1.351 . S
N10 N11 1.365 . S
N11 C8 1.341 . S
N11 N10 1.365 . S
N11 H31 0.862 . S
C12 C7 1.501 . S
C12 H13 0.961 . S
C12 H14 0.961 . S
C12 H15 0.960 . S
H13 C12 0.961 . S
H14 C12 0.961 . S
H15 C12 0.960 . S
C16 N17 1.342 1_565 S
C16 C20 1.401 . S
C16 C21 1.499 . S
N17 Co0 1.989 . S
N17 C16 1.342 1_545 S
N17 N18 1.388 . S
N18 Co1 1.993 . S
N18 N17 1.388 . S
N18 C19 1.346 1_545 S
C19 N18 1.346 1_565 S
C19 C20 1.396 . S
C19 C29 1.510 . S
C20 C16 1.401 . S
C20 C19 1.396 . S
C21 C16 1.499 . S
C21 H22 0.959 . S
C21 H23 0.960 . S
C21 H24 0.961 . S
H22 C21 0.959 . S
H23 C21 0.960 . S
H24 C21 0.961 . S
O25 Co0 1.967 . S
O25 C33 1.258 . S
O26 Co1 1.941 . S
O26 C33 1.266 . S
H27 C29 0.959 . S
H28 C29 0.961 . S
C29 C19 1.510 . S
C29 H27 0.959 . S
C29 H28 0.961 . S
C29 H30 0.960 . S
H30 C29 0.960 . S
H31 N11 0.862 . S
O32 Co0 1.920 . S
O32 C5 1.289 . S
C33 O25 1.258 . S
C33 O26 1.266 . S
Co34 O37 1.970 1_545 S
Co34 N51 1.989 . S
Co34 O59 1.967 . S
Co34 O66 1.920 . S
Co35 O38 1.966 1_545 S
Co35 N44 2.022 . S
Co35 N52 1.993 . S
Co35 O60 1.941 . S
C36 O37 1.258 . S
C36 O38 1.263 . S
O37 Co34 1.970 1_565 S
O37 C36 1.258 . S
O38 Co35 1.966 1_565 S
O38 C36 1.263 . S
C39 O40 1.235 . S
C39 O66 1.289 . S
O40 C39 1.235 . S
C41 C43 1.400 . S
C41 N44 1.351 . S
C41 C46 1.501 . S
C42 C43 1.387 . S
C42 N45 1.341 . S
C43 C41 1.400 . S
C43 C42 1.387 . S
N44 Co35 2.022 . S
N44 C41 1.351 . S
N44 N45 1.365 . S
N45 C42 1.341 . S
N45 N44 1.365 . S
N45 H65 0.862 . S
C46 C41 1.501 . S
C46 H47 0.961 1_545 S
C46 H48 0.961 . S
C46 H49 0.960 1_545 S
H47 C46 0.961 1_565 S
H48 C46 0.961 . S
H49 C46 0.960 1_565 S
C50 N51 1.342 . S
C50 C54 1.401 . S
C50 C55 1.499 . S
N51 Co34 1.989 . S
N51 C50 1.342 . S
N51 N52 1.388 . S
N52 Co35 1.993 . S
N52 N51 1.388 . S
N52 C53 1.346 . S
C53 N52 1.346 . S
C53 C54 1.396 . S
C53 C63 1.510 . S
C54 C50 1.401 . S
C54 C53 1.396 . S
C55 C50 1.499 . S
C55 H56 0.959 . S
C55 H57 0.960 . S
C55 H58 0.961 . S
H56 C55 0.959 . S
H57 C55 0.960 . S
H58 C55 0.961 . S
O59 Co34 1.967 . S
O59 C67 1.258 . S
O60 Co35 1.941 . S
O60 C67 1.266 . S
H61 C63 0.959 . S
H62 C63 0.961 . S
C63 C53 1.510 . S
C63 H61 0.959 . S
C63 H62 0.961 . S
C63 H64 0.960 . S
H64 C63 0.960 . S
H65 N45 0.862 . S
O66 Co34 1.920 . S
O66 C39 1.289 . S
C67 O59 1.258 . S
C67 O60 1.266 . S
Co68 O71 1.970 1_545 S
Co68 N85 1.989 . S
Co68 O93 1.967 . S
Co68 O100 1.920 . S
Co69 O72 1.966 1_545 S
Co69 N78 2.022 . S
Co69 N86 1.993 . S
Co69 O94 1.941 . S
C70 O71 1.258 . S
C70 O72 1.263 . S
O71 Co68 1.970 1_565 S
O71 C70 1.258 . S
O72 Co69 1.966 1_565 S
O72 C70 1.263 . S
C73 O74 1.235 . S
C73 O100 1.289 . S
O74 C73 1.235 . S
C75 C77 1.400 . S
C75 N78 1.351 . S
C75 C80 1.501 . S
C76 C77 1.387 . S
C76 N79 1.341 . S
C77 C75 1.400 . S
C77 C76 1.387 . S
N78 Co69 2.022 . S
N78 C75 1.351 . S
N78 N79 1.365 . S
N79 C76 1.341 . S
N79 N78 1.365 . S
N79 H99 0.862 . S
C80 C75 1.501 . S
C80 H81 0.961 1_545 S
C80 H82 0.961 . S
C80 H83 0.960 1_545 S
H81 C80 0.961 1_565 S
H82 C80 0.961 . S
H83 C80 0.960 1_565 S
C84 N85 1.342 . S
C84 C88 1.401 . S
C84 C89 1.499 . S
N85 Co68 1.989 . S
N85 C84 1.342 . S
N85 N86 1.388 . S
N86 Co69 1.993 . S
N86 N85 1.388 . S
N86 C87 1.346 . S
C87 N86 1.346 . S
C87 C88 1.396 . S
C87 C97 1.510 . S
C88 C84 1.401 . S
C88 C87 1.396 . S
C89 C84 1.499 . S
C89 H90 0.959 . S
C89 H91 0.960 . S
C89 H92 0.961 . S
H90 C89 0.959 . S
H91 C89 0.960 . S
H92 C89 0.961 . S
O93 Co68 1.967 . S
O93 C101 1.258 . S
O94 Co69 1.941 . S
O94 C101 1.266 . S
H95 C97 0.959 . S
H96 C97 0.961 . S
C97 C87 1.510 . S
C97 H95 0.959 . S
C97 H96 0.961 . S
C97 H98 0.960 . S
H98 C97 0.960 . S
H99 N79 0.862 . S
O100 Co68 1.920 . S
O100 C73 1.289 . S
C101 O93 1.258 . S
C101 O94 1.266 . S
Co102 O105 1.970 . S
Co102 N119 1.989 . S
Co102 O127 1.967 . S
Co102 O134 1.920 . S
Co103 O106 1.966 . S
Co103 N112 2.022 . S
Co103 N120 1.993 . S
Co103 O128 1.941 . S
C104 O105 1.258 . S
C104 O106 1.263 . S
O105 Co102 1.970 . S
O105 C104 1.258 . S
O106 Co103 1.966 . S
O106 C104 1.263 . S
C107 O108 1.235 . S
C107 O134 1.289 . S
O108 C107 1.235 . S
C109 C111 1.400 . S
C109 N112 1.351 . S
C109 C114 1.501 . S
C110 C111 1.387 . S
C110 N113 1.341 . S
C111 C109 1.400 . S
C111 C110 1.387 . S
N112 Co103 2.022 . S
N112 C109 1.351 . S
N112 N113 1.365 . S
N113 C110 1.341 . S
N113 N112 1.365 . S
N113 H133 0.862 . S
C114 C109 1.501 . S
C114 H115 0.961 . S
C114 H116 0.961 . S
C114 H117 0.960 . S
H115 C114 0.961 . S
H116 C114 0.961 . S
H117 C114 0.960 . S
C118 N119 1.342 1_565 S
C118 C122 1.401 . S
C118 C123 1.499 . S
N119 Co102 1.989 . S
N119 C118 1.342 1_545 S
N119 N120 1.388 . S
N120 Co103 1.993 . S
N120 N119 1.388 . S
N120 C121 1.346 1_545 S
C121 N120 1.346 1_565 S
C121 C122 1.396 . S
C121 C131 1.510 . S
C122 C118 1.401 . S
C122 C121 1.396 . S
C123 C118 1.499 . S
C123 H124 0.959 . S
C123 H125 0.960 . S
C123 H126 0.961 . S
H124 C123 0.959 . S
H125 C123 0.960 . S
H126 C123 0.961 . S
O127 Co102 1.967 . S
O127 C135 1.258 . S
O128 Co103 1.941 . S
O128 C135 1.266 . S
H129 C131 0.959 . S
H130 C131 0.961 . S
C131 C121 1.510 . S
C131 H129 0.959 . S
C131 H130 0.961 . S
C131 H132 0.960 . S
H132 C131 0.960 . S
H133 N113 0.862 . S
O134 Co102 1.920 . S
O134 C107 1.289 . S
C135 O127 1.258 . S
C135 O128 1.266 . S
Co136 O139 1.970 . S
Co136 N153 1.989 . S
Co136 O161 1.967 . S
Co136 O168 1.920 . S
Co137 O140 1.966 . S
Co137 N146 2.022 . S
Co137 N154 1.993 . S
Co137 O162 1.941 . S
C138 O139 1.258 . S
C138 O140 1.263 . S
O139 Co136 1.970 . S
O139 C138 1.258 . S
O140 Co137 1.966 . S
O140 C138 1.263 . S
C141 O142 1.235 . S
C141 O168 1.289 . S
O142 C141 1.235 . S
C143 C145 1.400 . S
C143 N146 1.351 . S
C143 C148 1.501 . S
C144 C145 1.387 . S
C144 N147 1.341 . S
C145 C143 1.400 . S
C145 C144 1.387 . S
N146 Co137 2.022 . S
N146 C143 1.351 . S
N146 N147 1.365 . S
N147 C144 1.341 . S
N147 N146 1.365 . S
N147 H167 0.862 . S
C148 C143 1.501 . S
C148 H149 0.961 . S
C148 H150 0.961 . S
C148 H151 0.960 . S
H149 C148 0.961 . S
H150 C148 0.961 . S
H151 C148 0.960 . S
C152 N153 1.342 . S
C152 C156 1.401 . S
C152 C157 1.499 . S
N153 Co136 1.989 . S
N153 C152 1.342 . S
N153 N154 1.388 . S
N154 Co137 1.993 . S
N154 N153 1.388 . S
N154 C155 1.346 . S
C155 N154 1.346 . S
C155 C156 1.396 . S
C155 C165 1.510 . S
C156 C152 1.401 . S
C156 C155 1.396 . S
C157 C152 1.499 . S
C157 H158 0.959 . S
C157 H159 0.960 . S
C157 H160 0.961 . S
H158 C157 0.959 . S
H159 C157 0.960 . S
H160 C157 0.961 . S
O161 Co136 1.967 . S
O161 C169 1.258 . S
O162 Co137 1.941 . S
O162 C169 1.266 . S
H163 C165 0.959 . S
H164 C165 0.961 . S
C165 C155 1.510 . S
C165 H163 0.959 . S
C165 H164 0.961 . S
C165 H166 0.960 . S
H166 C165 0.960 . S
H167 N147 0.862 . S
O168 Co136 1.920 . S
O168 C141 1.289 . S
C169 O161 1.258 . S
C169 O162 1.266 . S
Co170 O173 1.970 . S
Co170 N187 1.989 . S
Co170 O195 1.967 . S
Co170 O202 1.920 . S
Co171 O174 1.966 . S
Co171 N180 2.022 . S
Co171 N188 1.993 . S
Co171 O196 1.941 . S
C172 O173 1.258 . S
C172 O174 1.263 . S
O173 Co170 1.970 . S
O173 C172 1.258 . S
O174 Co171 1.966 . S
O174 C172 1.263 . S
C175 O176 1.235 . S
C175 O202 1.289 . S
O176 C175 1.235 . S
C177 C179 1.400 . S
C177 N180 1.351 . S
C177 C182 1.501 . S
C178 C179 1.387 . S
C178 N181 1.341 . S
C179 C177 1.400 . S
C179 C178 1.387 . S
N180 Co171 2.022 . S
N180 C177 1.351 . S
N180 N181 1.365 . S
N181 C178 1.341 . S
N181 N180 1.365 . S
N181 H201 0.862 . S
C182 C177 1.501 . S
C182 H183 0.961 . S
C182 H184 0.961 . S
C182 H185 0.960 . S
H183 C182 0.961 . S
H184 C182 0.961 . S
H185 C182 0.960 . S
C186 N187 1.342 . S
C186 C190 1.401 . S
C186 C191 1.499 . S
N187 Co170 1.989 . S
N187 C186 1.342 . S
N187 N188 1.388 . S
N188 Co171 1.993 . S
N188 N187 1.388 . S
N188 C189 1.346 . S
C189 N188 1.346 . S
C189 C190 1.396 . S
C189 C199 1.510 . S
C190 C186 1.401 . S
C190 C189 1.396 . S
C191 C186 1.499 . S
C191 H192 0.959 . S
C191 H193 0.960 . S
C191 H194 0.961 . S
H192 C191 0.959 . S
H193 C191 0.960 . S
H194 C191 0.961 . S
O195 Co170 1.967 . S
O195 C203 1.258 . S
O196 Co171 1.941 . S
O196 C203 1.266 . S
H197 C199 0.959 . S
H198 C199 0.961 . S
C199 C189 1.510 . S
C199 H197 0.959 . S
C199 H198 0.961 . S
C199 H200 0.960 . S
H200 C199 0.960 . S
H201 N181 0.862 . S
O202 Co170 1.920 . S
O202 C175 1.289 . S
C203 O195 1.258 . S
C203 O196 1.266 . S
Co204 O207 1.970 . S
Co204 N221 1.989 . S
Co204 O229 1.967 . S
Co204 O236 1.920 . S
Co205 O208 1.966 . S
Co205 N214 2.022 . S
Co205 N222 1.993 . S
Co205 O230 1.941 . S
C206 O207 1.258 . S
C206 O208 1.263 . S
O207 Co204 1.970 . S
O207 C206 1.258 . S
O208 Co205 1.966 . S
O208 C206 1.263 . S
C209 O210 1.235 . S
C209 O236 1.289 . S
O210 C209 1.235 . S
C211 C213 1.400 . S
C211 N214 1.351 . S
C211 C216 1.501 . S
C212 C213 1.387 . S
C212 N215 1.341 . S
C213 C211 1.400 . S
C213 C212 1.387 . S
N214 Co205 2.022 . S
N214 C211 1.351 . S
N214 N215 1.365 . S
N215 C212 1.341 . S
N215 N214 1.365 . S
N215 H235 0.862 . S
C216 C211 1.501 . S
C216 H217 0.961 . S
C216 H218 0.961 . S
C216 H219 0.960 . S
H217 C216 0.961 . S
H218 C216 0.961 . S
H219 C216 0.960 . S
C220 N221 1.342 . S
C220 C224 1.401 . S
C220 C225 1.499 . S
N221 Co204 1.989 . S
N221 C220 1.342 . S
N221 N222 1.388 . S
N222 Co205 1.993 . S
N222 N221 1.388 . S
N222 C223 1.346 . S
C223 N222 1.346 . S
C223 C224 1.396 . S
C223 C233 1.510 . S
C224 C220 1.401 . S
C224 C223 1.396 . S
C225 C220 1.499 . S
C225 H226 0.959 . S
C225 H227 0.960 . S
C225 H228 0.961 . S
H226 C225 0.959 . S
H227 C225 0.960 . S
H228 C225 0.961 . S
O229 Co204 1.967 . S
O229 C237 1.258 . S
O230 Co205 1.941 . S
O230 C237 1.266 . S
H231 C233 0.959 . S
H232 C233 0.961 . S
C233 C223 1.510 . S
C233 H231 0.959 . S
C233 H232 0.961 . S
C233 H234 0.960 . S
H234 C233 0.960 . S
H235 N215 0.862 . S
O236 Co204 1.920 . S
O236 C209 1.289 . S
C237 O229 1.258 . S
C237 O230 1.266 . S
Co238 O241 1.970 . S
Co238 N255 1.989 . S
Co238 O263 1.967 . S
Co238 O270 1.920 . S
Co239 O242 1.966 . S
Co239 N248 2.022 . S
Co239 N256 1.993 . S
Co239 O264 1.941 . S
C240 O241 1.258 . S
C240 O242 1.263 . S
O241 Co238 1.970 . S
O241 C240 1.258 . S
O242 Co239 1.966 . S
O242 C240 1.263 . S
C243 O244 1.235 . S
C243 O270 1.289 . S
O244 C243 1.235 . S
C245 C247 1.400 . S
C245 N248 1.351 . S
C245 C250 1.501 . S
C246 C247 1.387 . S
C246 N249 1.341 . S
C247 C245 1.400 . S
C247 C246 1.387 . S
N248 Co239 2.022 . S
N248 C245 1.351 . S
N248 N249 1.365 . S
N249 C246 1.341 . S
N249 N248 1.365 . S
N249 H269 0.862 . S
C250 C245 1.501 . S
C250 H251 0.961 . S
C250 H252 0.961 . S
C250 H253 0.960 . S
H251 C250 0.961 . S
H252 C250 0.961 . S
H253 C250 0.960 . S
C254 N255 1.342 . S
C254 C258 1.401 . S
C254 C259 1.499 . S
N255 Co238 1.989 . S
N255 C254 1.342 . S
N255 N256 1.388 . S
N256 Co239 1.993 . S
N256 N255 1.388 . S
N256 C257 1.346 . S
C257 N256 1.346 . S
C257 C258 1.396 . S
C257 C267 1.510 . S
C258 C254 1.401 . S
C258 C257 1.396 . S
C259 C254 1.499 . S
C259 H260 0.959 . S
C259 H261 0.960 . S
C259 H262 0.961 . S
H260 C259 0.959 . S
H261 C259 0.960 . S
H262 C259 0.961 . S
O263 Co238 1.967 . S
O263 C271 1.258 . S
O264 Co239 1.941 . S
O264 C271 1.266 . S
H265 C267 0.959 . S
H266 C267 0.961 . S
C267 C257 1.510 . S
C267 H265 0.959 . S
C267 H266 0.961 . S
C267 H268 0.960 . S
H268 C267 0.960 . S
H269 N249 0.862 . S
O270 Co238 1.920 . S
O270 C243 1.289 . S
C271 O263 1.258 . S
C271 O264 1.266 . S
Co272 O275 1.970 . S
Co272 N289 1.989 . S
Co272 O297 1.967 . S
Co272 O304 1.920 . S
Co273 O276 1.966 . S
Co273 N282 2.022 . S
Co273 N290 1.993 . S
Co273 O298 1.941 . S
C274 O275 1.258 . S
C274 O276 1.263 . S
O275 Co272 1.970 . S
O275 C274 1.258 . S
O276 Co273 1.966 . S
O276 C274 1.263 . S
C277 O278 1.235 . S
C277 O304 1.289 . S
O278 C277 1.235 . S
C279 C281 1.400 . S
C279 N282 1.351 . S
C279 C284 1.501 . S
C280 C281 1.387 . S
C280 N283 1.341 . S
C281 C279 1.400 . S
C281 C280 1.387 . S
N282 Co273 2.022 . S
N282 C279 1.351 . S
N282 N283 1.365 . S
N283 C280 1.341 . S
N283 N282 1.365 . S
N283 H303 0.862 . S
C284 C279 1.501 . S
C284 H285 0.961 . S
C284 H286 0.961 . S
C284 H287 0.960 . S
H285 C284 0.961 . S
H286 C284 0.961 . S
H287 C284 0.960 . S
C288 N289 1.342 1_565 S
C288 C292 1.401 . S
C288 C293 1.499 . S
N289 Co272 1.989 . S
N289 C288 1.342 1_545 S
N289 N290 1.388 . S
N290 Co273 1.993 . S
N290 N289 1.388 . S
N290 C291 1.346 1_545 S
C291 N290 1.346 1_565 S
C291 C292 1.396 . S
C291 C301 1.510 . S
C292 C288 1.401 . S
C292 C291 1.396 . S
C293 C288 1.499 . S
C293 H294 0.959 . S
C293 H295 0.960 . S
C293 H296 0.961 . S
H294 C293 0.959 . S
H295 C293 0.960 . S
H296 C293 0.961 . S
O297 Co272 1.967 . S
O297 C305 1.258 . S
O298 Co273 1.941 . S
O298 C305 1.266 . S
H299 C301 0.959 . S
H300 C301 0.961 . S
C301 C291 1.510 . S
C301 H299 0.959 . S
C301 H300 0.961 . S
C301 H302 0.960 . S
H302 C301 0.960 . S
H303 N283 0.862 . S
O304 Co272 1.920 . S
O304 C277 1.289 . S
C305 O297 1.258 . S
C305 O298 1.266 . S
Co306 O309 1.970 1_545 S
Co306 N323 1.989 . S
Co306 O331 1.967 . S
Co306 O338 1.920 . S
Co307 O310 1.966 1_545 S
Co307 N316 2.022 . S
Co307 N324 1.993 . S
Co307 O332 1.941 . S
C308 O309 1.258 . S
C308 O310 1.263 . S
O309 Co306 1.970 1_565 S
O309 C308 1.258 . S
O310 Co307 1.966 1_565 S
O310 C308 1.263 . S
C311 O312 1.235 . S
C311 O338 1.289 . S
O312 C311 1.235 . S
C313 C315 1.400 . S
C313 N316 1.351 . S
C313 C318 1.501 . S
C314 C315 1.387 . S
C314 N317 1.341 . S
C315 C313 1.400 . S
C315 C314 1.387 . S
N316 Co307 2.022 . S
N316 C313 1.351 . S
N316 N317 1.365 . S
N317 C314 1.341 . S
N317 N316 1.365 . S
N317 H337 0.862 . S
C318 C313 1.501 . S
C318 H319 0.961 1_545 S
C318 H320 0.961 . S
C318 H321 0.960 1_545 S
H319 C318 0.961 1_565 S
H320 C318 0.961 . S
H321 C318 0.960 1_565 S
C322 N323 1.342 . S
C322 C326 1.401 . S
C322 C327 1.499 . S
N323 Co306 1.989 . S
N323 C322 1.342 . S
N323 N324 1.388 . S
N324 Co307 1.993 . S
N324 N323 1.388 . S
N324 C325 1.346 . S
C325 N324 1.346 . S
C325 C326 1.396 . S
C325 C335 1.510 . S
C326 C322 1.401 . S
C326 C325 1.396 . S
C327 C322 1.499 . S
C327 H328 0.959 . S
C327 H329 0.960 . S
C327 H330 0.961 . S
H328 C327 0.959 . S
H329 C327 0.960 . S
H330 C327 0.961 . S
O331 Co306 1.967 . S
O331 C339 1.258 . S
O332 Co307 1.941 . S
O332 C339 1.266 . S
H333 C335 0.959 . S
H334 C335 0.961 . S
C335 C325 1.510 . S
C335 H333 0.959 . S
C335 H334 0.961 . S
C335 H336 0.960 . S
H336 C335 0.960 . S
H337 N317 0.862 . S
O338 Co306 1.920 . S
O338 C311 1.289 . S
C339 O331 1.258 . S
C339 O332 1.266 . S
Co340 O343 1.970 1_545 S
Co340 N357 1.989 . S
Co340 O365 1.967 . S
Co340 O372 1.920 . S
Co341 O344 1.966 1_545 S
Co341 N350 2.022 . S
Co341 N358 1.993 . S
Co341 O366 1.941 . S
C342 O343 1.258 . S
C342 O344 1.263 . S
O343 Co340 1.970 1_565 S
O343 C342 1.258 . S
O344 Co341 1.966 1_565 S
O344 C342 1.263 . S
C345 O346 1.235 . S
C345 O372 1.289 . S
O346 C345 1.235 . S
C347 C349 1.400 . S
C347 N350 1.351 . S
C347 C352 1.501 . S
C348 C349 1.387 . S
C348 N351 1.341 . S
C349 C347 1.400 . S
C349 C348 1.387 . S
N350 Co341 2.022 . S
N350 C347 1.351 . S
N350 N351 1.365 . S
N351 C348 1.341 . S
N351 N350 1.365 . S
N351 H371 0.862 . S
C352 C347 1.501 . S
C352 H353 0.961 1_545 S
C352 H354 0.961 . S
C352 H355 0.960 1_545 S
H353 C352 0.961 1_565 S
H354 C352 0.961 . S
H355 C352 0.960 1_565 S
C356 N357 1.342 . S
C356 C360 1.401 . S
C356 C361 1.499 . S
N357 Co340 1.989 . S
N357 C356 1.342 . S
N357 N358 1.388 . S
N358 Co341 1.993 . S
N358 N357 1.388 . S
N358 C359 1.346 . S
C359 N358 1.346 . S
C359 C360 1.396 . S
C359 C369 1.510 . S
C360 C356 1.401 . S
C360 C359 1.396 . S
C361 C356 1.499 . S
C361 H362 0.959 . S
C361 H363 0.960 . S
C361 H364 0.961 . S
H362 C361 0.959 . S
H363 C361 0.960 . S
H364 C361 0.961 . S
O365 Co340 1.967 . S
O365 C373 1.258 . S
O366 Co341 1.941 . S
O366 C373 1.266 . S
H367 C369 0.959 . S
H368 C369 0.961 . S
C369 C359 1.510 . S
C369 H367 0.959 . S
C369 H368 0.961 . S
C369 H370 0.960 . S
H370 C369 0.960 . S
H371 N351 0.862 . S
O372 Co340 1.920 . S
O372 C345 1.289 . S
C373 O365 1.258 . S
C373 O366 1.266 . S
Co374 O377 1.970 . S
Co374 N391 1.989 . S
Co374 O399 1.967 . S
Co374 O406 1.920 . S
Co375 O378 1.966 . S
Co375 N384 2.022 . S
Co375 N392 1.993 . S
Co375 O400 1.941 . S
C376 O377 1.258 . S
C376 O378 1.263 . S
O377 Co374 1.970 . S
O377 C376 1.258 . S
O378 Co375 1.966 . S
O378 C376 1.263 . S
C379 O380 1.235 . S
C379 O406 1.289 . S
O380 C379 1.235 . S
C381 C383 1.400 . S
C381 N384 1.351 . S
C381 C386 1.501 . S
C382 C383 1.387 . S
C382 N385 1.341 . S
C383 C381 1.400 . S
C383 C382 1.387 . S
N384 Co375 2.022 . S
N384 C381 1.351 . S
N384 N385 1.365 . S
N385 C382 1.341 . S
N385 N384 1.365 . S
N385 H405 0.862 . S
C386 C381 1.501 . S
C386 H387 0.961 . S
C386 H388 0.961 . S
C386 H389 0.960 . S
H387 C386 0.961 . S
H388 C386 0.961 . S
H389 C386 0.960 . S
C390 N391 1.342 1_565 S
C390 C394 1.401 . S
C390 C395 1.499 . S
N391 Co374 1.989 . S
N391 C390 1.342 1_545 S
N391 N392 1.388 . S
N392 Co375 1.993 . S
N392 N391 1.388 . S
N392 C393 1.346 1_545 S
C393 N392 1.346 1_565 S
C393 C394 1.396 . S
C393 C403 1.510 . S
C394 C390 1.401 . S
C394 C393 1.396 . S
C395 C390 1.499 . S
C395 H396 0.959 . S
C395 H397 0.960 . S
C395 H398 0.961 . S
H396 C395 0.959 . S
H397 C395 0.960 . S
H398 C395 0.961 . S
O399 Co374 1.967 . S
O399 C407 1.258 . S
O400 Co375 1.941 . S
O400 C407 1.266 . S
H401 C403 0.959 . S
H402 C403 0.961 . S
C403 C393 1.510 . S
C403 H401 0.959 . S
C403 H402 0.961 . S
C403 H404 0.960 . S
H404 C403 0.960 . S
H405 N385 0.862 . S
O406 Co374 1.920 . S
O406 C379 1.289 . S
C407 O399 1.258 . S
C407 O400 1.266 . S
Co408 O411 1.970 . S
Co408 N425 1.989 . S
Co408 O433 1.967 . S
Co408 O440 1.920 . S
Co409 O412 1.966 . S
Co409 N418 2.022 . S
Co409 N426 1.993 . S
Co409 O434 1.941 . S
C410 O411 1.258 . S
C410 O412 1.263 . S
O411 Co408 1.970 . S
O411 C410 1.258 . S
O412 Co409 1.966 . S
O412 C410 1.263 . S
C413 O414 1.235 . S
C413 O440 1.289 . S
O414 C413 1.235 . S
C415 C417 1.400 . S
C415 N418 1.351 . S
C415 C420 1.501 . S
C416 C417 1.387 . S
C416 N419 1.341 . S
C417 C415 1.400 . S
C417 C416 1.387 . S
N418 Co409 2.022 . S
N418 C415 1.351 . S
N418 N419 1.365 . S
N419 C416 1.341 . S
N419 N418 1.365 . S
N419 H439 0.862 . S
C420 C415 1.501 . S
C420 H421 0.961 . S
C420 H422 0.961 . S
C420 H423 0.960 . S
H421 C420 0.961 . S
H422 C420 0.961 . S
H423 C420 0.960 . S
C424 N425 1.342 . S
C424 C428 1.401 . S
C424 C429 1.499 . S
N425 Co408 1.989 . S
N425 C424 1.342 . S
N425 N426 1.388 . S
N426 Co409 1.993 . S
N426 N425 1.388 . S
N426 C427 1.346 . S
C427 N426 1.346 . S
C427 C428 1.396 . S
C427 C437 1.510 . S
C428 C424 1.401 . S
C428 C427 1.396 . S
C429 C424 1.499 . S
C429 H430 0.959 . S
C429 H431 0.960 . S
C429 H432 0.961 . S
H430 C429 0.959 . S
H431 C429 0.960 . S
H432 C429 0.961 . S
O433 Co408 1.967 . S
O433 C441 1.258 . S
O434 Co409 1.941 . S
O434 C441 1.266 . S
H435 C437 0.959 . S
H436 C437 0.961 . S
C437 C427 1.510 . S
C437 H435 0.959 . S
C437 H436 0.961 . S
C437 H438 0.960 . S
H438 C437 0.960 . S
H439 N419 0.862 . S
O440 Co408 1.920 . S
O440 C413 1.289 . S
C441 O433 1.258 . S
C441 O434 1.266 . S
Co442 O445 1.970 . S
Co442 N459 1.989 . S
Co442 O467 1.967 . S
Co442 O474 1.920 . S
Co443 O446 1.966 . S
Co443 N452 2.022 . S
Co443 N460 1.993 . S
Co443 O468 1.941 . S
C444 O445 1.258 . S
C444 O446 1.263 . S
O445 Co442 1.970 . S
O445 C444 1.258 . S
O446 Co443 1.966 . S
O446 C444 1.263 . S
C447 O448 1.235 . S
C447 O474 1.289 . S
O448 C447 1.235 . S
C449 C451 1.400 . S
C449 N452 1.351 . S
C449 C454 1.501 . S
C450 C451 1.387 . S
C450 N453 1.341 . S
C451 C449 1.400 . S
C451 C450 1.387 . S
N452 Co443 2.022 . S
N452 C449 1.351 . S
N452 N453 1.365 . S
N453 C450 1.341 . S
N453 N452 1.365 . S
N453 H473 0.862 . S
C454 C449 1.501 . S
C454 H455 0.961 . S
C454 H456 0.961 . S
C454 H457 0.960 . S
H455 C454 0.961 . S
H456 C454 0.961 . S
H457 C454 0.960 . S
C458 N459 1.342 . S
C458 C462 1.401 . S
C458 C463 1.499 . S
N459 Co442 1.989 . S
N459 C458 1.342 . S
N459 N460 1.388 . S
N460 Co443 1.993 . S
N460 N459 1.388 . S
N460 C461 1.346 . S
C461 N460 1.346 . S
C461 C462 1.396 . S
C461 C471 1.510 . S
C462 C458 1.401 . S
C462 C461 1.396 . S
C463 C458 1.499 . S
C463 H464 0.959 . S
C463 H465 0.960 . S
C463 H466 0.961 . S
H464 C463 0.959 . S
H465 C463 0.960 . S
H466 C463 0.961 . S
O467 Co442 1.967 . S
O467 C475 1.258 . S
O468 Co443 1.941 . S
O468 C475 1.266 . S
H469 C471 0.959 . S
H470 C471 0.961 . S
C471 C461 1.510 . S
C471 H469 0.959 . S
C471 H470 0.961 . S
C471 H472 0.960 . S
H472 C471 0.960 . S
H473 N453 0.862 . S
O474 Co442 1.920 . S
O474 C447 1.289 . S
C475 O467 1.258 . S
C475 O468 1.266 . S
Co476 O479 1.970 . S
Co476 N493 1.989 . S
Co476 O501 1.967 . S
Co476 O508 1.920 . S
Co477 O480 1.966 . S
Co477 N486 2.022 . S
Co477 N494 1.993 . S
Co477 O502 1.941 . S
C478 O479 1.258 . S
C478 O480 1.263 . S
O479 Co476 1.970 . S
O479 C478 1.258 . S
O480 Co477 1.966 . S
O480 C478 1.263 . S
C481 O482 1.235 . S
C481 O508 1.289 . S
O482 C481 1.235 . S
C483 C485 1.400 . S
C483 N486 1.351 . S
C483 C488 1.501 . S
C484 C485 1.387 . S
C484 N487 1.341 . S
C485 C483 1.400 . S
C485 C484 1.387 . S
N486 Co477 2.022 . S
N486 C483 1.351 . S
N486 N487 1.365 . S
N487 C484 1.341 . S
N487 N486 1.365 . S
N487 H507 0.862 . S
C488 C483 1.501 . S
C488 H489 0.961 . S
C488 H490 0.961 . S
C488 H491 0.960 . S
H489 C488 0.961 . S
H490 C488 0.961 . S
H491 C488 0.960 . S
C492 N493 1.342 . S
C492 C496 1.401 . S
C492 C497 1.499 . S
N493 Co476 1.989 . S
N493 C492 1.342 . S
N493 N494 1.388 . S
N494 Co477 1.993 . S
N494 N493 1.388 . S
N494 C495 1.346 . S
C495 N494 1.346 . S
C495 C496 1.396 . S
C495 C505 1.510 . S
C496 C492 1.401 . S
C496 C495 1.396 . S
C497 C492 1.499 . S
C497 H498 0.959 . S
C497 H499 0.960 . S
C497 H500 0.961 . S
H498 C497 0.959 . S
H499 C497 0.960 . S
H500 C497 0.961 . S
O501 Co476 1.967 . S
O501 C509 1.258 . S
O502 Co477 1.941 . S
O502 C509 1.266 . S
H503 C505 0.959 . S
H504 C505 0.961 . S
C505 C495 1.510 . S
C505 H503 0.959 . S
C505 H504 0.961 . S
C505 H506 0.960 . S
H506 C505 0.960 . S
H507 N487 0.862 . S
O508 Co476 1.920 . S
O508 C481 1.289 . S
C509 O501 1.258 . S
C509 O502 1.266 . S
Co510 O513 1.970 . S
Co510 N527 1.989 . S
Co510 O535 1.967 . S
Co510 O542 1.920 . S
Co511 O514 1.966 . S
Co511 N520 2.022 . S
Co511 N528 1.993 . S
Co511 O536 1.941 . S
C512 O513 1.258 . S
C512 O514 1.263 . S
O513 Co510 1.970 . S
O513 C512 1.258 . S
O514 Co511 1.966 . S
O514 C512 1.263 . S
C515 O516 1.235 . S
C515 O542 1.289 . S
O516 C515 1.235 . S
C517 C519 1.400 . S
C517 N520 1.351 . S
C517 C522 1.501 . S
C518 C519 1.387 . S
C518 N521 1.341 . S
C519 C517 1.400 . S
C519 C518 1.387 . S
N520 Co511 2.022 . S
N520 C517 1.351 . S
N520 N521 1.365 . S
N521 C518 1.341 . S
N521 N520 1.365 . S
N521 H541 0.862 . S
C522 C517 1.501 . S
C522 H523 0.961 . S
C522 H524 0.961 . S
C522 H525 0.960 . S
H523 C522 0.961 . S
H524 C522 0.961 . S
H525 C522 0.960 . S
C526 N527 1.342 . S
C526 C530 1.401 . S
C526 C531 1.499 . S
N527 Co510 1.989 . S
N527 C526 1.342 . S
N527 N528 1.388 . S
N528 Co511 1.993 . S
N528 N527 1.388 . S
N528 C529 1.346 . S
C529 N528 1.346 . S
C529 C530 1.396 . S
C529 C539 1.510 . S
C530 C526 1.401 . S
C530 C529 1.396 . S
C531 C526 1.499 . S
C531 H532 0.959 . S
C531 H533 0.960 . S
C531 H534 0.961 . S
H532 C531 0.959 . S
H533 C531 0.960 . S
H534 C531 0.961 . S
O535 Co510 1.967 . S
O535 C543 1.258 . S
O536 Co511 1.941 . S
O536 C543 1.266 . S
H537 C539 0.959 . S
H538 C539 0.961 . S
C539 C529 1.510 . S
C539 H537 0.959 . S
C539 H538 0.961 . S
C539 H540 0.960 . S
H540 C539 0.960 . S
H541 N521 0.862 . S
O542 Co510 1.920 . S
O542 C515 1.289 . S
C543 O535 1.258 . S
C543 O536 1.266 . S
H544 C552 0.929 . S
H545 C554 0.930 . S
H546 C556 0.930 . S
H547 C559 0.929 . S
H548 C562 0.930 . S
H549 C564 0.960 . S
H550 C564 0.960 1_565 S
H551 C564 0.960 . S
C552 H544 0.929 . S
C552 C553 1.377 . S
C552 C554 1.384 . S
C553 C552 1.377 . S
C553 C559 1.390 . S
C554 H545 0.930 . S
C554 C552 1.384 . S
C554 C555 1.372 . S
C555 C554 1.372 . S
C555 C556 1.400 . S
C555 C560 1.490 . S
C556 H546 0.930 . S
C556 C555 1.400 . S
C556 C559 1.386 . S
H557 C573 0.930 . S
H558 C574 0.931 . S
C559 H547 0.929 . S
C559 C553 1.390 . S
C559 C556 1.386 . S
C560 C555 1.490 . S
C560 C562 1.395 . S
C560 C563 1.403 . S
H561 C567 0.930 . S
C562 H548 0.930 . S
C562 C560 1.395 . S
C562 C565 1.403 . S
C563 C560 1.403 . S
C563 C564 1.524 . S
C563 C567 1.400 . S
C564 H549 0.960 . S
C564 H550 0.960 1_545 S
C564 H551 0.960 . S
C564 C563 1.524 . S
C565 C562 1.403 . S
C565 C566 1.392 . S
C565 C569 1.495 . S
C566 C565 1.392 . S
C566 C567 1.385 . S
C566 C568 1.478 . S
C567 H561 0.930 . S
C567 C563 1.400 . S
C567 C566 1.385 . S
C568 C566 1.478 . S
C568 C570 1.381 . S
C568 C574 1.383 . S
C569 C565 1.495 . S
C569 H575 0.959 . S
C569 H576 0.961 . S
C569 H577 0.960 . S
C570 C568 1.381 . S
C570 C571 1.394 . S
C570 H578 0.930 . S
C571 C570 1.394 . S
C571 C572 1.383 . S
C571 H579 0.929 . S
C572 C571 1.383 . S
C572 C573 1.377 . S
C573 H557 0.930 . S
C573 C572 1.377 . S
C573 C574 1.379 . S
C574 H558 0.931 . S
C574 C568 1.383 . S
C574 C573 1.379 . S
H575 C569 0.959 . S
H576 C569 0.961 . S
H577 C569 0.960 . S
H578 C570 0.930 . S
H579 C571 0.929 . S
H580 C588 0.929 . S
H581 C590 0.930 . S
H582 C592 0.930 . S
H583 C595 0.929 . S
H584 C598 0.930 1_565 S
H585 C600 0.960 . S
H586 C600 0.960 . S
H587 C600 0.960 . S
C588 H580 0.929 . S
C588 C589 1.377 . S
C588 C590 1.384 . S
C589 C588 1.377 . S
C589 C595 1.390 . S
C590 H581 0.930 . S
C590 C588 1.384 . S
C590 C591 1.372 . S
C591 C590 1.372 . S
C591 C592 1.400 . S
C591 C596 1.490 . S
C592 H582 0.930 . S
C592 C591 1.400 . S
C592 C595 1.386 . S
H593 C609 0.930 . S
H594 C610 0.931 . S
C595 H583 0.929 . S
C595 C589 1.390 . S
C595 C592 1.386 . S
C596 C591 1.490 . S
C596 C598 1.395 . S
C596 C599 1.403 . S
H597 C603 0.930 . S
C598 H584 0.930 1_545 S
C598 C596 1.395 . S
C598 C601 1.403 . S
C599 C596 1.403 . S
C599 C600 1.524 . S
C599 C603 1.400 . S
C600 H585 0.960 . S
C600 H586 0.960 . S
C600 H587 0.960 . S
C600 C599 1.524 . S
C601 C598 1.403 . S
C601 C602 1.392 . S
C601 C605 1.495 1_545 S
C602 C601 1.392 . S
C602 C603 1.385 . S
C602 C604 1.478 . S
C603 H597 0.930 . S
C603 C599 1.400 . S
C603 C602 1.385 . S
C604 C602 1.478 . S
C604 C606 1.381 . S
C604 C610 1.383 . S
C605 C601 1.495 1_565 S
C605 H611 0.959 . S
C605 H612 0.961 . S
C605 H613 0.960 . S
C606 C604 1.381 . S
C606 C607 1.394 . S
C606 H614 0.930 . S
C607 C606 1.394 . S
C607 C608 1.383 . S
C607 H615 0.929 . S
C608 C607 1.383 . S
C608 C609 1.377 . S
C609 H593 0.930 . S
C609 C608 1.377 . S
C609 C610 1.379 . S
C610 H594 0.931 . S
C610 C604 1.383 . S
C610 C609 1.379 . S
H611 C605 0.959 . S
H612 C605 0.961 . S
H613 C605 0.960 . S
H614 C606 0.930 . S
H615 C607 0.929 . S
H616 C624 0.929 . S
H617 C626 0.930 . S
H618 C628 0.930 1_565 S
H619 C631 0.929 1_565 S
H620 C634 0.930 . S
H621 C636 0.960 . S
H622 C636 0.960 . S
H623 C636 0.960 1_565 S
C624 H616 0.929 . S
C624 C625 1.377 . S
C624 C626 1.384 . S
C625 C624 1.377 . S
C625 C631 1.390 . S
C626 H617 0.930 . S
C626 C624 1.384 . S
C626 C627 1.372 . S
C627 C626 1.372 . S
C627 C628 1.400 . S
C627 C632 1.490 . S
C628 H618 0.930 1_545 S
C628 C627 1.400 . S
C628 C631 1.386 . S
H629 C645 0.917 1_565 S
H630 C646 0.931 . S
C631 H619 0.929 1_545 S
C631 C625 1.390 . S
C631 C628 1.386 . S
C632 C627 1.490 . S
C632 C634 1.395 . S
C632 C635 1.403 . S
H633 C639 0.930 . S
C634 H620 0.930 . S
C634 C632 1.395 . S
C634 C637 1.403 . S
C635 C632 1.403 . S
C635 C636 1.524 . S
C635 C639 1.400 . S
C636 H621 0.960 . S
C636 H622 0.960 . S
C636 H623 0.960 1_545 S
C636 C635 1.524 . S
C637 C634 1.403 . S
C637 C638 1.392 . S
C637 C641 1.495 . S
C638 C637 1.392 . S
C638 C639 1.385 . S
C638 C640 1.478 . S
C639 H633 0.930 . S
C639 C635 1.400 . S
C639 C638 1.385 . S
C640 C638 1.478 . S
C640 C642 1.381 . S
C640 C646 1.383 . S
C641 C637 1.495 . S
C641 H647 0.959 . S
C641 H648 0.961 . S
C641 H649 0.960 . S
C642 C640 1.381 . S
C642 C643 1.394 . S
C642 H650 0.930 . S
C643 C642 1.394 . S
C643 C644 1.383 . S
C643 H651 0.929 . S
C644 C643 1.383 . S
C644 C645 1.377 . S
C645 H629 0.917 1_545 S
C645 C644 1.377 . S
C645 C646 1.379 . S
C646 H630 0.931 . S
C646 C640 1.383 . S
C646 C645 1.379 . S
H647 C641 0.959 . S
H648 C641 0.961 . S
H649 C641 0.960 . S
H650 C642 0.930 . S
H651 C643 0.929 . S
H652 C660 0.929 . S
H653 C662 0.930 . S
H654 C664 0.930 . S
H655 C667 0.929 . S
H656 C670 0.930 . S
H657 C672 0.960 . S
H658 C672 0.960 1_565 S
H659 C672 0.960 . S
C660 H652 0.929 . S
C660 C661 1.377 . S
C660 C662 1.384 . S
C661 C660 1.377 . S
C661 C667 1.390 . S
C662 H653 0.930 . S
C662 C660 1.384 . S
C662 C663 1.372 . S
C663 C662 1.372 . S
C663 C664 1.400 . S
C663 C668 1.490 . S
C664 H654 0.930 . S
C664 C663 1.400 . S
C664 C667 1.386 . S
H665 C681 0.930 . S
H666 C682 0.931 . S
C667 H655 0.929 . S
C667 C661 1.390 . S
C667 C664 1.386 . S
C668 C663 1.490 . S
C668 C670 1.395 . S
C668 C671 1.403 . S
H669 C675 0.930 . S
C670 H656 0.930 . S
C670 C668 1.395 . S
C670 C673 1.403 . S
C671 C668 1.403 . S
C671 C672 1.524 . S
C671 C675 1.400 . S
C672 H657 0.960 . S
C672 H658 0.960 1_545 S
C672 H659 0.960 . S
C672 C671 1.524 . S
C673 C670 1.403 . S
C673 C674 1.392 . S
C673 C677 1.495 . S
C674 C673 1.392 . S
C674 C675 1.385 . S
C674 C676 1.478 . S
C675 H669 0.930 . S
C675 C671 1.400 . S
C675 C674 1.385 . S
C676 C674 1.478 . S
C676 C678 1.381 . S
C676 C682 1.383 . S
C677 C673 1.495 . S
C677 H683 0.959 . S
C677 H684 0.961 . S
C677 H685 0.960 . S
C678 C676 1.381 . S
C678 C679 1.394 . S
C678 H686 0.930 . S
C679 C678 1.394 . S
C679 C680 1.383 . S
C679 H687 0.929 . S
C680 C679 1.383 . S
C680 C681 1.377 . S
C681 H665 0.930 . S
C681 C680 1.377 . S
C681 C682 1.379 . S
C682 H666 0.931 . S
C682 C676 1.383 . S
C682 C681 1.379 . S
H683 C677 0.959 . S
H684 C677 0.961 . S
H685 C677 0.960 . S
H686 C678 0.930 . S
H687 C679 0.929 . S
H688 C696 0.929 . S
H689 C698 0.930 . S
H690 C700 0.930 . S
H691 C703 0.929 . S
H692 C706 0.930 . S
H693 C708 0.960 . S
H694 C708 0.960 . S
H695 C708 0.960 . S
C696 H688 0.929 . S
C696 C697 1.377 . S
C696 C698 1.384 . S
C697 C696 1.377 . S
C697 C703 1.390 . S
C698 H689 0.930 . S
C698 C696 1.384 . S
C698 C699 1.372 . S
C699 C698 1.372 . S
C699 C700 1.400 . S
C699 C704 1.490 . S
C700 H690 0.930 . S
C700 C699 1.400 . S
C700 C703 1.386 . S
H701 C717 0.930 . S
H702 C718 0.931 . S
C703 H691 0.929 . S
C703 C697 1.390 . S
C703 C700 1.386 . S
C704 C699 1.490 . S
C704 C706 1.395 . S
C704 C707 1.403 . S
H705 C711 0.930 . S
C706 H692 0.930 . S
C706 C704 1.395 . S
C706 C709 1.403 . S
C707 C704 1.403 . S
C707 C708 1.524 . S
C707 C711 1.400 . S
C708 H693 0.960 . S
C708 H694 0.960 . S
C708 H695 0.960 . S
C708 C707 1.524 . S
C709 C706 1.403 . S
C709 C710 1.392 . S
C709 C713 1.495 . S
C710 C709 1.392 . S
C710 C711 1.385 . S
C710 C712 1.478 . S
C711 H705 0.930 . S
C711 C707 1.400 . S
C711 C710 1.385 . S
C712 C710 1.478 . S
C712 C714 1.381 . S
C712 C718 1.383 . S
C713 C709 1.495 . S
C713 H719 0.959 . S
C713 H720 0.961 . S
C713 H721 0.960 . S
C714 C712 1.381 . S
C714 C715 1.394 . S
C714 H722 0.930 . S
C715 C714 1.394 . S
C715 C716 1.383 . S
C715 H723 0.929 . S
C716 C715 1.383 . S
C716 C717 1.377 . S
C717 H701 0.930 . S
C717 C716 1.377 . S
C717 C718 1.379 . S
C718 H702 0.931 . S
C718 C712 1.383 . S
C718 C717 1.379 . S
H719 C713 0.959 . S
H720 C713 0.961 . S
H721 C713 0.960 . S
H722 C714 0.930 . S
H723 C715 0.929 . S
H724 C732 0.929 . S
H725 C734 0.930 . S
H726 C736 0.930 . S
H727 C739 0.929 . S
H728 C742 0.930 . S
H729 C744 0.960 . S
H730 C744 0.960 . S
H731 C744 0.960 . S
C732 H724 0.929 . S
C732 C733 1.377 . S
C732 C734 1.384 . S
C733 C732 1.377 . S
C733 C739 1.390 . S
C734 H725 0.930 . S
C734 C732 1.384 . S
C734 C735 1.372 . S
C735 C734 1.372 . S
C735 C736 1.400 . S
C735 C740 1.490 . S
C736 H726 0.930 . S
C736 C735 1.400 . S
C736 C739 1.386 . S
H737 C753 0.930 . S
H738 C754 0.931 . S
C739 H727 0.929 . S
C739 C733 1.390 . S
C739 C736 1.386 . S
C740 C735 1.490 . S
C740 C742 1.395 . S
C740 C743 1.403 . S
H741 C747 0.930 . S
C742 H728 0.930 . S
C742 C740 1.395 . S
C742 C745 1.403 . S
C743 C740 1.403 . S
C743 C744 1.524 . S
C743 C747 1.400 . S
C744 H729 0.960 . S
C744 H730 0.960 . S
C744 H731 0.960 . S
C744 C743 1.524 . S
C745 C742 1.403 . S
C745 C746 1.392 . S
C745 C749 1.495 . S
C746 C745 1.392 . S
C746 C747 1.385 . S
C746 C748 1.478 . S
C747 H741 0.930 . S
C747 C743 1.400 . S
C747 C746 1.385 . S
C748 C746 1.478 . S
C748 C750 1.381 . S
C748 C754 1.383 . S
C749 C745 1.495 . S
C749 H755 0.959 . S
C749 H756 0.961 . S
C749 H757 0.960 . S
C750 C748 1.381 . S
C750 C751 1.394 . S
C750 H758 0.930 . S
C751 C750 1.394 . S
C751 C752 1.383 . S
C751 H759 0.929 . S
C752 C751 1.383 . S
C752 C753 1.377 . S
C753 H737 0.930 . S
C753 C752 1.377 . S
C753 C754 1.379 . S
C754 H738 0.931 . S
C754 C748 1.383 . S
C754 C753 1.379 . S
H755 C749 0.959 . S
H756 C749 0.961 . S
H757 C749 0.960 . S
H758 C750 0.930 . S
H759 C751 0.929 . S
H760 C768 0.929 . S
H761 C770 0.930 . S
H762 C772 0.930 . S
H763 C775 0.929 . S
H764 C778 0.930 . S
H765 C780 0.960 . S
H766 C780 0.960 . S
H767 C780 0.960 . S
C768 H760 0.929 . S
C768 C769 1.377 . S
C768 C770 1.384 . S
C769 C768 1.377 . S
C769 C775 1.390 . S
C770 H761 0.930 . S
C770 C768 1.384 . S
C770 C771 1.372 . S
C771 C770 1.372 . S
C771 C772 1.400 . S
C771 C776 1.490 . S
C772 H762 0.930 . S
C772 C771 1.400 . S
C772 C775 1.386 . S
H773 C789 0.930 . S
H774 C790 0.931 . S
C775 H763 0.929 . S
C775 C769 1.390 . S
C775 C772 1.386 . S
C776 C771 1.490 . S
C776 C778 1.395 . S
C776 C779 1.403 . S
H777 C783 0.930 . S
C778 H764 0.930 . S
C778 C776 1.395 . S
C778 C781 1.403 . S
C779 C776 1.403 . S
C779 C780 1.524 . S
C779 C783 1.400 . S
C780 H765 0.960 . S
C780 H766 0.960 . S
C780 H767 0.960 . S
C780 C779 1.524 . S
C781 C778 1.403 . S
C781 C782 1.392 . S
C781 C785 1.495 . S
C782 C781 1.392 . S
C782 C783 1.385 . S
C782 C784 1.478 . S
C783 H777 0.930 . S
C783 C779 1.400 . S
C783 C782 1.385 . S
C784 C782 1.478 . S
C784 C786 1.381 . S
C784 C790 1.383 . S
C785 C781 1.495 . S
C785 H791 0.959 . S
C785 H792 0.961 . S
C785 H793 0.960 . S
C786 C784 1.381 . S
C786 C787 1.394 . S
C786 H794 0.930 . S
C787 C786 1.394 . S
C787 C788 1.383 . S
C787 H795 0.929 . S
C788 C787 1.383 . S
C788 C789 1.377 . S
C789 H773 0.930 . S
C789 C788 1.377 . S
C789 C790 1.379 . S
C790 H774 0.931 . S
C790 C784 1.383 . S
C790 C789 1.379 . S
H791 C785 0.959 . S
H792 C785 0.961 . S
H793 C785 0.960 . S
H794 C786 0.930 . S
H795 C787 0.929 . S
H796 C804 0.929 . S
H797 C806 0.930 . S
H798 C808 0.930 . S
H799 C811 0.929 . S
H800 C814 0.930 . S
H801 C816 0.960 . S
H802 C816 0.960 . S
H803 C816 0.960 . S
C804 H796 0.929 . S
C804 C805 1.377 . S
C804 C806 1.384 . S
C805 C804 1.377 . S
C805 C811 1.390 . S
C806 H797 0.930 . S
C806 C804 1.384 . S
C806 C807 1.372 . S
C807 C806 1.372 . S
C807 C808 1.400 . S
C807 C812 1.490 . S
C808 H798 0.930 . S
C808 C807 1.400 . S
C808 C811 1.386 . S
H809 C825 0.930 . S
H810 C826 0.931 . S
C811 H799 0.929 . S
C811 C805 1.390 . S
C811 C808 1.386 . S
C812 C807 1.490 . S
C812 C814 1.395 . S
C812 C815 1.403 . S
H813 C819 0.930 . S
C814 H800 0.930 . S
C814 C812 1.395 . S
C814 C817 1.403 . S
C815 C812 1.403 . S
C815 C816 1.524 . S
C815 C819 1.400 . S
C816 H801 0.960 . S
C816 H802 0.960 . S
C816 H803 0.960 . S
C816 C815 1.524 . S
C817 C814 1.403 . S
C817 C818 1.392 . S
C817 C821 1.495 . S
C818 C817 1.392 . S
C818 C819 1.385 . S
C818 C820 1.478 . S
C819 H813 0.930 . S
C819 C815 1.400 . S
C819 C818 1.385 . S
C820 C818 1.478 . S
C820 C822 1.381 . S
C820 C826 1.383 . S
C821 C817 1.495 . S
C821 H827 0.959 . S
C821 H828 0.961 . S
C821 H829 0.960 . S
C822 C820 1.381 . S
C822 C823 1.394 . S
C822 H830 0.930 . S
C823 C822 1.394 . S
C823 C824 1.383 . S
C823 H831 0.929 . S
C824 C823 1.383 . S
C824 C825 1.377 . S
C825 H809 0.930 . S
C825 C824 1.377 . S
C825 C826 1.379 . S
C826 H810 0.931 . S
C826 C820 1.383 . S
C826 C825 1.379 . S
H827 C821 0.959 . S
H828 C821 0.961 . S
H829 C821 0.960 . S
H830 C822 0.930 . S
H831 C823 0.929 . S
H832 C840 0.929 . S
H833 C842 0.930 . S
H834 C844 0.930 . S
H835 C847 0.929 . S
H836 C850 0.930 . S
H837 C852 0.960 . S
H838 C852 0.960 . S
H839 C852 0.960 . S
C840 H832 0.929 . S
C840 C841 1.377 . S
C840 C842 1.384 . S
C841 C840 1.377 . S
C841 C847 1.390 . S
C842 H833 0.930 . S
C842 C840 1.384 . S
C842 C843 1.372 . S
C843 C842 1.372 . S
C843 C844 1.400 . S
C843 C848 1.490 . S
C844 H834 0.930 . S
C844 C843 1.400 . S
C844 C847 1.386 . S
H845 C861 0.930 . S
H846 C862 0.931 . S
C847 H835 0.929 . S
C847 C841 1.390 . S
C847 C844 1.386 . S
C848 C843 1.490 . S
C848 C850 1.395 . S
C848 C851 1.403 . S
H849 C855 0.930 . S
C850 H836 0.930 . S
C850 C848 1.395 . S
C850 C853 1.403 . S
C851 C848 1.403 . S
C851 C852 1.524 . S
C851 C855 1.400 . S
C852 H837 0.960 . S
C852 H838 0.960 . S
C852 H839 0.960 . S
C852 C851 1.524 . S
C853 C850 1.403 . S
C853 C854 1.392 . S
C853 C857 1.495 . S
C854 C853 1.392 . S
C854 C855 1.385 . S
C854 C856 1.478 . S
C855 H849 0.930 . S
C855 C851 1.400 . S
C855 C854 1.385 . S
C856 C854 1.478 . S
C856 C858 1.381 . S
C856 C862 1.383 . S
C857 C853 1.495 . S
C857 H863 0.959 . S
C857 H864 0.961 . S
C857 H865 0.960 . S
C858 C856 1.381 . S
C858 C859 1.394 . S
C858 H866 0.930 . S
C859 C858 1.394 . S
C859 C860 1.383 . S
C859 H867 0.929 . S
C860 C859 1.383 . S
C860 C861 1.377 . S
C861 H845 0.930 . S
C861 C860 1.377 . S
C861 C862 1.379 . S
C862 H846 0.931 . S
C862 C856 1.383 . S
C862 C861 1.379 . S
H863 C857 0.959 . S
H864 C857 0.961 . S
H865 C857 0.960 . S
H866 C858 0.930 . S
H867 C859 0.929 . S
H868 C876 0.929 . S
H869 C878 0.930 . S
H870 C880 0.930 . S
H871 C883 0.929 . S
H872 C886 0.930 . S
H873 C888 0.960 . S
H874 C888 0.960 . S
H875 C888 0.960 . S
C876 H868 0.929 . S
C876 C877 1.377 . S
C876 C878 1.384 . S
C877 C876 1.377 . S
C877 C883 1.390 . S
C878 H869 0.930 . S
C878 C876 1.384 . S
C878 C879 1.372 . S
C879 C878 1.372 . S
C879 C880 1.400 . S
C879 C884 1.490 . S
C880 H870 0.930 . S
C880 C879 1.400 . S
C880 C883 1.386 . S
H881 C897 0.930 . S
H882 C898 0.931 . S
C883 H871 0.929 . S
C883 C877 1.390 . S
C883 C880 1.386 . S
C884 C879 1.490 . S
C884 C886 1.395 . S
C884 C887 1.403 . S
H885 C891 0.930 . S
C886 H872 0.930 . S
C886 C884 1.395 . S
C886 C889 1.403 . S
C887 C884 1.403 . S
C887 C888 1.524 . S
C887 C891 1.400 . S
C888 H873 0.960 . S
C888 H874 0.960 . S
C888 H875 0.960 . S
C888 C887 1.524 . S
C889 C886 1.403 . S
C889 C890 1.392 . S
C889 C893 1.495 . S
C890 C889 1.392 . S
C890 C891 1.385 . S
C890 C892 1.478 . S
C891 H885 0.930 . S
C891 C887 1.400 . S
C891 C890 1.385 . S
C892 C890 1.478 . S
C892 C894 1.381 . S
C892 C898 1.383 . S
C893 C889 1.495 . S
C893 H899 0.959 . S
C893 H900 0.961 . S
C893 H901 0.960 . S
C894 C892 1.381 . S
C894 C895 1.394 . S
C894 H902 0.930 . S
C895 C894 1.394 . S
C895 C896 1.383 . S
C895 H903 0.929 . S
C896 C895 1.383 . S
C896 C897 1.377 . S
C897 H881 0.930 . S
C897 C896 1.377 . S
C897 C898 1.379 . S
C898 H882 0.931 . S
C898 C892 1.383 . S
C898 C897 1.379 . S
H899 C893 0.959 . S
H900 C893 0.961 . S
H901 C893 0.960 . S
H902 C894 0.930 . S
H903 C895 0.929 . S
H904 C912 0.929 . S
H905 C914 0.930 . S
H906 C916 0.930 . S
H907 C919 0.929 . S
H908 C922 0.930 . S
H909 C924 0.960 . S
H910 C924 0.960 . S
H911 C924 0.960 . S
C912 H904 0.929 . S
C912 C913 1.377 . S
C912 C914 1.384 . S
C913 C912 1.377 . S
C913 C919 1.390 . S
C914 H905 0.930 . S
C914 C912 1.384 . S
C914 C915 1.372 . S
C915 C914 1.372 . S
C915 C916 1.400 . S
C915 C920 1.490 . S
C916 H906 0.930 . S
C916 C915 1.400 . S
C916 C919 1.386 . S
H917 C933 0.930 . S
H918 C934 0.931 . S
C919 H907 0.929 . S
C919 C913 1.390 . S
C919 C916 1.386 . S
C920 C915 1.490 . S
C920 C922 1.395 . S
C920 C923 1.403 . S
H921 C927 0.930 . S
C922 H908 0.930 . S
C922 C920 1.395 . S
C922 C925 1.403 . S
C923 C920 1.403 . S
C923 C924 1.524 . S
C923 C927 1.400 . S
C924 H909 0.960 . S
C924 H910 0.960 . S
C924 H911 0.960 . S
C924 C923 1.524 . S
C925 C922 1.403 . S
C925 C926 1.392 . S
C925 C929 1.495 . S
C926 C925 1.392 . S
C926 C927 1.385 . S
C926 C928 1.478 . S
C927 H921 0.930 . S
C927 C923 1.400 . S
C927 C926 1.385 . S
C928 C926 1.478 . S
C928 C930 1.381 . S
C928 C934 1.383 . S
C929 C925 1.495 . S
C929 H935 0.959 . S
C929 H936 0.961 . S
C929 H937 0.960 . S
C930 C928 1.381 . S
C930 C931 1.394 . S
C930 H938 0.930 . S
C931 C930 1.394 . S
C931 C932 1.383 . S
C931 H939 0.929 . S
C932 C931 1.383 . S
C932 C933 1.377 . S
C933 H917 0.930 . S
C933 C932 1.377 . S
C933 C934 1.379 . S
C934 H918 0.931 . S
C934 C928 1.383 . S
C934 C933 1.379 . S
H935 C929 0.959 . S
H936 C929 0.961 . S
H937 C929 0.960 . S
H938 C930 0.930 . S
H939 C931 0.929 . S
H940 C948 0.929 . S
H941 C950 0.930 . S
H942 C952 0.930 . S
H943 C955 0.929 . S
H944 C958 0.930 . S
H945 C960 0.960 . S
H946 C960 0.960 . S
H947 C960 0.960 . S
C948 H940 0.929 . S
C948 C949 1.377 . S
C948 C950 1.384 . S
C949 C948 1.377 . S
C949 C955 1.390 . S
C950 H941 0.930 . S
C950 C948 1.384 . S
C950 C951 1.372 . S
C951 C950 1.372 . S
C951 C952 1.400 . S
C951 C956 1.490 . S
C952 H942 0.930 . S
C952 C951 1.400 . S
C952 C955 1.386 . S
H953 C969 0.930 . S
H954 C970 0.931 . S
C955 H943 0.929 . S
C955 C949 1.390 . S
C955 C952 1.386 . S
C956 C951 1.490 . S
C956 C958 1.395 . S
C956 C959 1.403 . S
H957 C963 0.930 . S
C958 H944 0.930 . S
C958 C956 1.395 . S
C958 C961 1.403 . S
C959 C956 1.403 . S
C959 C960 1.524 . S
C959 C963 1.400 . S
C960 H945 0.960 . S
C960 H946 0.960 . S
C960 H947 0.960 . S
C960 C959 1.524 . S
C961 C958 1.403 . S
C961 C962 1.392 . S
C961 C965 1.495 . S
C962 C961 1.392 . S
C962 C963 1.385 . S
C962 C964 1.478 . S
C963 H957 0.930 . S
C963 C959 1.400 . S
C963 C962 1.385 . S
C964 C962 1.478 . S
C964 C966 1.381 . S
C964 C970 1.383 . S
C965 C961 1.495 . S
C965 H971 0.959 . S
C965 H972 0.961 . S
C965 H973 0.960 . S
C966 C964 1.381 . S
C966 C967 1.394 . S
C966 H974 0.930 . S
C967 C966 1.394 . S
C967 C968 1.383 . S
C967 H975 0.929 . S
C968 C967 1.383 . S
C968 C969 1.377 . S
C969 H953 0.930 . S
C969 C968 1.377 . S
C969 C970 1.379 . S
C970 H954 0.931 . S
C970 C964 1.383 . S
C970 C969 1.379 . S
H971 C965 0.959 . S
H972 C965 0.961 . S
H973 C965 0.960 . S
H974 C966 0.930 . S
H975 C967 0.929 . S
H976 C984 0.929 . S
H977 C986 0.930 . S
H978 C988 0.930 . S
H979 C991 0.929 . S
H980 C994 0.930 . S
H981 C996 0.960 . S
H982 C996 0.960 . S
H983 C996 0.960 . S
C984 H976 0.929 . S
C984 C985 1.377 . S
C984 C986 1.384 . S
C985 C984 1.377 . S
C985 C991 1.390 . S
C986 H977 0.930 . S
C986 C984 1.384 . S
C986 C987 1.372 . S
C987 C986 1.372 . S
C987 C988 1.400 . S
C987 C992 1.490 . S
C988 H978 0.930 . S
C988 C987 1.400 . S
C988 C991 1.386 . S
H989 C1005 0.930 . S
H990 C1006 0.931 . S
C991 H979 0.929 . S
C991 C985 1.390 . S
C991 C988 1.386 . S
C992 C987 1.490 . S
C992 C994 1.395 . S
C992 C995 1.403 . S
H993 C999 0.930 . S
C994 H980 0.930 . S
C994 C992 1.395 . S
C994 C997 1.403 . S
C995 C992 1.403 . S
C995 C996 1.524 . S
C995 C999 1.400 . S
C996 H981 0.960 . S
C996 H982 0.960 . S
C996 H983 0.960 . S
C996 C995 1.524 . S
C997 C994 1.403 . S
C997 C998 1.392 . S
C997 C1001 1.495 . S
C998 C997 1.392 . S
C998 C999 1.385 . S
C998 C1000 1.478 . S
C999 H993 0.930 . S
C999 C995 1.400 . S
C999 C998 1.385 . S
C1000 C998 1.478 . S
C1000 C1002 1.381 . S
C1000 C1006 1.383 . S
C1001 C997 1.495 . S
C1001 H1007 0.959 . S
C1001 H1008 0.961 . S
C1001 H1009 0.960 . S
C1002 C1000 1.381 . S
C1002 C1003 1.394 . S
C1002 H1010 0.930 . S
C1003 C1002 1.394 . S
C1003 C1004 1.383 . S
C1003 H1011 0.929 . S
C1004 C1003 1.383 . S
C1004 C1005 1.377 . S
C1005 H989 0.930 . S
C1005 C1004 1.377 . S
C1005 C1006 1.379 . S
C1006 H990 0.931 . S
C1006 C1000 1.383 . S
C1006 C1005 1.379 . S
H1007 C1001 0.959 . S
H1008 C1001 0.961 . S
H1009 C1001 0.960 . S
H1010 C1002 0.930 . S
H1011 C1003 0.929 . S
H1012 C1020 0.929 . S
H1013 C1022 0.930 . S
H1014 C1024 0.930 . S
H1015 C1027 0.929 . S
H1016 C1030 0.930 . S
H1017 C1032 0.960 . S
H1018 C1032 0.960 . S
H1019 C1032 0.960 . S
C1020 H1012 0.929 . S
C1020 C1021 1.377 . S
C1020 C1022 1.384 . S
C1021 C1020 1.377 . S
C1021 C1027 1.390 . S
C1022 H1013 0.930 . S
C1022 C1020 1.384 . S
C1022 C1023 1.372 . S
C1023 C1022 1.372 . S
C1023 C1024 1.400 . S
C1023 C1028 1.490 . S
C1024 H1014 0.930 . S
C1024 C1023 1.400 . S
C1024 C1027 1.386 . S
H1025 C1041 0.930 . S
H1026 C1042 0.931 . S
C1027 H1015 0.929 . S
C1027 C1021 1.390 . S
C1027 C1024 1.386 . S
C1028 C1023 1.490 . S
C1028 C1030 1.395 . S
C1028 C1031 1.403 . S
H1029 C1035 0.930 . S
C1030 H1016 0.930 . S
C1030 C1028 1.395 . S
C1030 C1033 1.403 . S
C1031 C1028 1.403 . S
C1031 C1032 1.524 . S
C1031 C1035 1.400 . S
C1032 H1017 0.960 . S
C1032 H1018 0.960 . S
C1032 H1019 0.960 . S
C1032 C1031 1.524 . S
C1033 C1030 1.403 . S
C1033 C1034 1.392 . S
C1033 C1037 1.495 . S
C1034 C1033 1.392 . S
C1034 C1035 1.385 . S
C1034 C1036 1.478 . S
C1035 H1029 0.930 . S
C1035 C1031 1.400 . S
C1035 C1034 1.385 . S
C1036 C1034 1.478 . S
C1036 C1038 1.381 . S
C1036 C1042 1.383 . S
C1037 C1033 1.495 . S
C1037 H1043 0.959 . S
C1037 H1044 0.961 . S
C1037 H1045 0.960 . S
C1038 C1036 1.381 . S
C1038 C1039 1.394 . S
C1038 H1046 0.930 . S
C1039 C1038 1.394 . S
C1039 C1040 1.383 . S
C1039 H1047 0.929 . S
C1040 C1039 1.383 . S
C1040 C1041 1.377 . S
C1041 H1025 0.930 . S
C1041 C1040 1.377 . S
C1041 C1042 1.379 . S
C1042 H1026 0.931 . S
C1042 C1036 1.383 . S
C1042 C1041 1.379 . S
H1043 C1037 0.959 . S
H1044 C1037 0.961 . S
H1045 C1037 0.960 . S
H1046 C1038 0.930 . S
H1047 C1039 0.929 . S
H1048 C1056 0.929 . S
H1049 C1058 0.930 . S
H1050 C1060 0.930 . S
H1051 C1063 0.929 . S
H1052 C1066 0.930 . S
H1053 C1068 0.960 . S
H1054 C1068 0.960 . S
H1055 C1068 0.960 . S
C1056 H1048 0.929 . S
C1056 C1057 1.377 . S
C1056 C1058 1.384 . S
C1057 C1056 1.377 . S
C1057 C1063 1.390 . S
C1058 H1049 0.930 . S
C1058 C1056 1.384 . S
C1058 C1059 1.372 . S
C1059 C1058 1.372 . S
C1059 C1060 1.400 . S
C1059 C1064 1.490 . S
C1060 H1050 0.930 . S
C1060 C1059 1.400 . S
C1060 C1063 1.386 . S
H1061 C1077 0.930 . S
H1062 C1078 0.931 . S
C1063 H1051 0.929 . S
C1063 C1057 1.390 . S
C1063 C1060 1.386 . S
C1064 C1059 1.490 . S
C1064 C1066 1.395 . S
C1064 C1067 1.403 . S
H1065 C1071 0.930 . S
C1066 H1052 0.930 . S
C1066 C1064 1.395 . S
C1066 C1069 1.403 . S
C1067 C1064 1.403 . S
C1067 C1068 1.524 . S
C1067 C1071 1.400 . S
C1068 H1053 0.960 . S
C1068 H1054 0.960 . S
C1068 H1055 0.960 . S
C1068 C1067 1.524 . S
C1069 C1066 1.403 . S
C1069 C1070 1.392 . S
C1069 C1073 1.495 . S
C1070 C1069 1.392 . S
C1070 C1071 1.385 . S
C1070 C1072 1.478 . S
C1071 H1065 0.930 . S
C1071 C1067 1.400 . S
C1071 C1070 1.385 . S
C1072 C1070 1.478 . S
C1072 C1074 1.381 . S
C1072 C1078 1.383 . S
C1073 C1069 1.495 . S
C1073 H1079 0.959 . S
C1073 H1080 0.961 . S
C1073 H1081 0.960 . S
C1074 C1072 1.381 . S
C1074 C1075 1.394 . S
C1074 H1082 0.930 . S
C1075 C1074 1.394 . S
C1075 C1076 1.383 . S
C1075 H1083 0.929 . S
C1076 C1075 1.383 . S
C1076 C1077 1.377 . S
C1077 H1061 0.930 . S
C1077 C1076 1.377 . S
C1077 C1078 1.379 . S
C1078 H1062 0.931 . S
C1078 C1072 1.383 . S
C1078 C1077 1.379 . S
H1079 C1073 0.959 . S
H1080 C1073 0.961 . S
H1081 C1073 0.960 . S
H1082 C1074 0.930 . S
H1083 C1075 0.929 . S
H1084 C1092 0.929 . S
H1085 C1094 0.930 . S
H1086 C1096 0.930 . S
H1087 C1099 0.929 . S
H1088 C1102 0.930 . S
H1089 C1104 0.960 . S
H1090 C1104 0.960 . S
H1091 C1104 0.960 . S
C1092 H1084 0.929 . S
C1092 C1093 1.377 . S
C1092 C1094 1.384 . S
C1093 C1092 1.377 . S
C1093 C1099 1.390 . S
C1094 H1085 0.930 . S
C1094 C1092 1.384 . S
C1094 C1095 1.372 . S
C1095 C1094 1.372 . S
C1095 C1096 1.400 . S
C1095 C1100 1.490 . S
C1096 H1086 0.930 . S
C1096 C1095 1.400 . S
C1096 C1099 1.386 . S
H1097 C1113 0.930 . S
H1098 C1114 0.931 . S
C1099 H1087 0.929 . S
C1099 C1093 1.390 . S
C1099 C1096 1.386 . S
C1100 C1095 1.490 . S
C1100 C1102 1.395 . S
C1100 C1103 1.403 . S
H1101 C1107 0.930 . S
C1102 H1088 0.930 . S
C1102 C1100 1.395 . S
C1102 C1105 1.403 . S
C1103 C1100 1.403 . S
C1103 C1104 1.524 . S
C1103 C1107 1.400 . S
C1104 H1089 0.960 . S
C1104 H1090 0.960 . S
C1104 H1091 0.960 . S
C1104 C1103 1.524 . S
C1105 C1102 1.403 . S
C1105 C1106 1.392 . S
C1105 C1109 1.495 . S
C1106 C1105 1.392 . S
C1106 C1107 1.385 . S
C1106 C1108 1.478 . S
C1107 H1101 0.930 . S
C1107 C1103 1.400 . S
C1107 C1106 1.385 . S
C1108 C1106 1.478 . S
C1108 C1110 1.381 . S
C1108 C1114 1.383 . S
C1109 C1105 1.495 . S
C1109 H1115 0.959 . S
C1109 H1116 0.961 . S
C1109 H1117 0.960 . S
C1110 C1108 1.381 . S
C1110 C1111 1.394 . S
C1110 H1118 0.930 . S
C1111 C1110 1.394 . S
C1111 C1112 1.383 . S
C1111 H1119 0.929 . S
C1112 C1111 1.383 . S
C1112 C1113 1.377 . S
C1113 H1097 0.930 . S
C1113 C1112 1.377 . S
C1113 C1114 1.379 . S
C1114 H1098 0.931 . S
C1114 C1108 1.383 . S
C1114 C1113 1.379 . S
H1115 C1109 0.959 . S
H1116 C1109 0.961 . S
H1117 C1109 0.960 . S
H1118 C1110 0.930 . S
H1119 C1111 0.929 . S
H1120 C1128 0.929 . S
H1121 C1130 0.930 . S
H1122 C1132 0.930 . S
H1123 C1135 0.929 . S
H1124 C1138 0.930 . S
H1125 C1140 0.960 . S
H1126 C1140 0.960 . S
H1127 C1140 0.960 . S
C1128 H1120 0.929 . S
C1128 C1129 1.377 . S
C1128 C1130 1.384 . S
C1129 C1128 1.377 . S
C1129 C1135 1.390 . S
C1130 H1121 0.930 . S
C1130 C1128 1.384 . S
C1130 C1131 1.372 . S
C1131 C1130 1.372 . S
C1131 C1132 1.400 . S
C1131 C1136 1.490 . S
C1132 H1122 0.930 . S
C1132 C1131 1.400 . S
C1132 C1135 1.386 . S
H1133 C1149 0.930 . S
H1134 C1150 0.931 . S
C1135 H1123 0.929 . S
C1135 C1129 1.390 . S
C1135 C1132 1.386 . S
C1136 C1131 1.490 . S
C1136 C1138 1.395 . S
C1136 C1139 1.403 . S
H1137 C1143 0.930 . S
C1138 H1124 0.930 . S
C1138 C1136 1.395 . S
C1138 C1141 1.403 . S
C1139 C1136 1.403 . S
C1139 C1140 1.524 . S
C1139 C1143 1.400 . S
C1140 H1125 0.960 . S
C1140 H1126 0.960 . S
C1140 H1127 0.960 . S
C1140 C1139 1.524 . S
C1141 C1138 1.403 . S
C1141 C1142 1.392 . S
C1141 C1145 1.495 . S
C1142 C1141 1.392 . S
C1142 C1143 1.385 . S
C1142 C1144 1.478 . S
C1143 H1137 0.930 . S
C1143 C1139 1.400 . S
C1143 C1142 1.385 . S
C1144 C1142 1.478 . S
C1144 C1146 1.381 . S
C1144 C1150 1.383 . S
C1145 C1141 1.495 . S
C1145 H1151 0.959 . S
C1145 H1152 0.961 . S
C1145 H1153 0.960 . S
C1146 C1144 1.381 . S
C1146 C1147 1.394 . S
C1146 H1154 0.930 . S
C1147 C1146 1.394 . S
C1147 C1148 1.383 . S
C1147 H1155 0.929 . S
C1148 C1147 1.383 . S
C1148 C1149 1.377 . S
C1149 H1133 0.930 . S
C1149 C1148 1.377 . S
C1149 C1150 1.379 . S
C1150 H1134 0.931 . S
C1150 C1144 1.383 . S
C1150 C1149 1.379 . S
H1151 C1145 0.959 . S
H1152 C1145 0.961 . S
H1153 C1145 0.960 . S
H1154 C1146 0.930 . S
H1155 C1147 0.929 . S
H1156 C1164 0.929 . S
H1157 C1166 0.930 . S
H1158 C1168 0.930 . S
H1159 C1171 0.929 . S
H1160 C1174 0.930 . S
H1161 C1176 0.960 . S
H1162 C1176 0.960 . S
H1163 C1176 0.960 . S
C1164 H1156 0.929 . S
C1164 C1165 1.377 . S
C1164 C1166 1.384 . S
C1165 C1164 1.377 . S
C1165 C1171 1.390 . S
C1166 H1157 0.930 . S
C1166 C1164 1.384 . S
C1166 C1167 1.372 . S
C1167 C1166 1.372 . S
C1167 C1168 1.400 . S
C1167 C1172 1.490 . S
C1168 H1158 0.930 . S
C1168 C1167 1.400 . S
C1168 C1171 1.386 . S
H1169 C1185 0.930 . S
H1170 C1186 0.931 . S
C1171 H1159 0.929 . S
C1171 C1165 1.390 . S
C1171 C1168 1.386 . S
C1172 C1167 1.490 . S
C1172 C1174 1.395 . S
C1172 C1175 1.403 . S
H1173 C1179 0.930 . S
C1174 H1160 0.930 . S
C1174 C1172 1.395 . S
C1174 C1177 1.403 . S
C1175 C1172 1.403 . S
C1175 C1176 1.524 . S
C1175 C1179 1.400 . S
C1176 H1161 0.960 . S
C1176 H1162 0.960 . S
C1176 H1163 0.960 . S
C1176 C1175 1.524 . S
C1177 C1174 1.403 . S
C1177 C1178 1.392 . S
C1177 C1181 1.495 . S
C1178 C1177 1.392 . S
C1178 C1179 1.385 . S
C1178 C1180 1.478 . S
C1179 H1173 0.930 . S
C1179 C1175 1.400 . S
C1179 C1178 1.385 . S
C1180 C1178 1.478 . S
C1180 C1182 1.381 . S
C1180 C1186 1.383 . S
C1181 C1177 1.495 . S
C1181 H1187 0.959 . S
C1181 H1188 0.961 . S
C1181 H1189 0.960 . S
C1182 C1180 1.381 . S
C1182 C1183 1.394 . S
C1182 H1190 0.930 . S
C1183 C1182 1.394 . S
C1183 C1184 1.383 . S
C1183 H1191 0.929 . S
C1184 C1183 1.383 . S
C1184 C1185 1.377 . S
C1185 H1169 0.930 . S
C1185 C1184 1.377 . S
C1185 C1186 1.379 . S
C1186 H1170 0.931 . S
C1186 C1180 1.383 . S
C1186 C1185 1.379 . S
H1187 C1181 0.959 . S
H1188 C1181 0.961 . S
H1189 C1181 0.960 . S
H1190 C1182 0.930 . S
H1191 C1183 0.929 . S
H1192 C1200 0.929 . S
H1193 C1202 0.930 . S
H1194 C1204 0.930 . S
H1195 C1207 0.929 . S
H1196 C1210 0.930 . S
H1197 C1212 0.960 . S
H1198 C1212 0.960 . S
H1199 C1212 0.960 . S
C1200 H1192 0.929 . S
C1200 C1201 1.377 . S
C1200 C1202 1.384 . S
C1201 C1200 1.377 . S
C1201 C1207 1.390 . S
C1202 H1193 0.930 . S
C1202 C1200 1.384 . S
C1202 C1203 1.372 . S
C1203 C1202 1.372 . S
C1203 C1204 1.400 . S
C1203 C1208 1.490 . S
C1204 H1194 0.930 . S
C1204 C1203 1.400 . S
C1204 C1207 1.386 . S
H1205 C1221 0.930 . S
H1206 C1222 0.931 . S
C1207 H1195 0.929 . S
C1207 C1201 1.390 . S
C1207 C1204 1.386 . S
C1208 C1203 1.490 . S
C1208 C1210 1.395 . S
C1208 C1211 1.403 . S
H1209 C1215 0.930 . S
C1210 H1196 0.930 . S
C1210 C1208 1.395 . S
C1210 C1213 1.403 . S
C1211 C1208 1.403 . S
C1211 C1212 1.524 . S
C1211 C1215 1.400 . S
C1212 H1197 0.960 . S
C1212 H1198 0.960 . S
C1212 H1199 0.960 . S
C1212 C1211 1.524 . S
C1213 C1210 1.403 . S
C1213 C1214 1.392 . S
C1213 C1217 1.495 . S
C1214 C1213 1.392 . S
C1214 C1215 1.385 . S
C1214 C1216 1.478 . S
C1215 H1209 0.930 . S
C1215 C1211 1.400 . S
C1215 C1214 1.385 . S
C1216 C1214 1.478 . S
C1216 C1218 1.381 . S
C1216 C1222 1.383 . S
C1217 C1213 1.495 . S
C1217 H1223 0.959 . S
C1217 H1224 0.961 . S
C1217 H1225 0.960 . S
C1218 C1216 1.381 . S
C1218 C1219 1.394 . S
C1218 H1226 0.930 . S
C1219 C1218 1.394 . S
C1219 C1220 1.383 . S
C1219 H1227 0.929 . S
C1220 C1219 1.383 . S
C1220 C1221 1.377 . S
C1221 H1205 0.930 . S
C1221 C1220 1.377 . S
C1221 C1222 1.379 . S
C1222 H1206 0.931 . S
C1222 C1216 1.383 . S
C1222 C1221 1.379 . S
H1223 C1217 0.959 . S
H1224 C1217 0.961 . S
H1225 C1217 0.960 . S
H1226 C1218 0.930 . S
H1227 C1219 0.929 . S
H1228 C1236 0.929 . S
H1229 C1238 0.930 . S
H1230 C1240 0.930 . S
H1231 C1243 0.929 . S
H1232 C1246 0.930 . S
H1233 C1248 0.960 . S
H1234 C1248 0.960 . S
H1235 C1248 0.960 . S
C1236 H1228 0.929 . S
C1236 C1237 1.377 . S
C1236 C1238 1.384 . S
C1237 C1236 1.377 . S
C1237 C1243 1.390 . S
C1238 H1229 0.930 . S
C1238 C1236 1.384 . S
C1238 C1239 1.372 . S
C1239 C1238 1.372 . S
C1239 C1240 1.400 . S
C1239 C1244 1.490 . S
C1240 H1230 0.930 . S
C1240 C1239 1.400 . S
C1240 C1243 1.386 . S
H1241 C1257 0.930 . S
H1242 C1258 0.931 . S
C1243 H1231 0.929 . S
C1243 C1237 1.390 . S
C1243 C1240 1.386 . S
C1244 C1239 1.490 . S
C1244 C1246 1.395 . S
C1244 C1247 1.403 . S
H1245 C1251 0.930 . S
C1246 H1232 0.930 . S
C1246 C1244 1.395 . S
C1246 C1249 1.403 . S
C1247 C1244 1.403 . S
C1247 C1248 1.524 . S
C1247 C1251 1.400 . S
C1248 H1233 0.960 . S
C1248 H1234 0.960 . S
C1248 H1235 0.960 . S
C1248 C1247 1.524 . S
C1249 C1246 1.403 . S
C1249 C1250 1.392 . S
C1249 C1253 1.495 . S
C1250 C1249 1.392 . S
C1250 C1251 1.385 . S
C1250 C1252 1.478 . S
C1251 H1245 0.930 . S
C1251 C1247 1.400 . S
C1251 C1250 1.385 . S
C1252 C1250 1.478 . S
C1252 C1254 1.381 . S
C1252 C1258 1.383 . S
C1253 C1249 1.495 . S
C1253 H1259 0.959 . S
C1253 H1260 0.961 . S
C1253 H1261 0.960 . S
C1254 C1252 1.381 . S
C1254 C1255 1.394 . S
C1254 H1262 0.930 . S
C1255 C1254 1.394 . S
C1255 C1256 1.383 . S
C1255 H1263 0.929 . S
C1256 C1255 1.383 . S
C1256 C1257 1.377 . S
C1257 H1241 0.930 . S
C1257 C1256 1.377 . S
C1257 C1258 1.379 . S
C1258 H1242 0.931 . S
C1258 C1252 1.383 . S
C1258 C1257 1.379 . S
H1259 C1253 0.959 . S
H1260 C1253 0.961 . S
H1261 C1253 0.960 . S
H1262 C1254 0.930 . S
H1263 C1255 0.929 . S
H1264 C1272 0.929 . S
H1265 C1274 0.930 . S
H1266 C1276 0.930 . S
H1267 C1279 0.929 . S
H1268 C1282 0.930 . S
H1269 C1284 0.960 . S
H1270 C1284 0.960 . S
H1271 C1284 0.960 . S
C1272 H1264 0.929 . S
C1272 C1273 1.377 . S
C1272 C1274 1.384 . S
C1273 C1272 1.377 . S
C1273 C1279 1.390 . S
C1274 H1265 0.930 . S
C1274 C1272 1.384 . S
C1274 C1275 1.372 . S
C1275 C1274 1.372 . S
C1275 C1276 1.400 . S
C1275 C1280 1.490 . S
C1276 H1266 0.930 . S
C1276 C1275 1.400 . S
C1276 C1279 1.386 . S
H1277 C1293 0.930 . S
H1278 C1294 0.931 . S
C1279 H1267 0.929 . S
C1279 C1273 1.390 . S
C1279 C1276 1.386 . S
C1280 C1275 1.490 . S
C1280 C1282 1.395 . S
C1280 C1283 1.403 . S
H1281 C1287 0.930 . S
C1282 H1268 0.930 . S
C1282 C1280 1.395 . S
C1282 C1285 1.403 . S
C1283 C1280 1.403 . S
C1283 C1284 1.524 . S
C1283 C1287 1.400 . S
C1284 H1269 0.960 . S
C1284 H1270 0.960 . S
C1284 H1271 0.960 . S
C1284 C1283 1.524 . S
C1285 C1282 1.403 . S
C1285 C1286 1.392 . S
C1285 C1289 1.495 . S
C1286 C1285 1.392 . S
C1286 C1287 1.385 . S
C1286 C1288 1.478 . S
C1287 H1281 0.930 . S
C1287 C1283 1.400 . S
C1287 C1286 1.385 . S
C1288 C1286 1.478 . S
C1288 C1290 1.381 . S
C1288 C1294 1.383 . S
C1289 C1285 1.495 . S
C1289 H1295 0.959 . S
C1289 H1296 0.961 . S
C1289 H1297 0.960 . S
C1290 C1288 1.381 . S
C1290 C1291 1.394 . S
C1290 H1298 0.930 . S
C1291 C1290 1.394 . S
C1291 C1292 1.383 . S
C1291 H1299 0.929 . S
C1292 C1291 1.383 . S
C1292 C1293 1.377 . S
C1293 H1277 0.930 . S
C1293 C1292 1.377 . S
C1293 C1294 1.379 . S
C1294 H1278 0.931 . S
C1294 C1288 1.383 . S
C1294 C1293 1.379 . S
H1295 C1289 0.959 . S
H1296 C1289 0.961 . S
H1297 C1289 0.960 . S
H1298 C1290 0.930 . S
H1299 C1291 0.929 . S
H1300 C1308 0.929 . S
H1301 C1310 0.930 . S
H1302 C1312 0.930 . S
H1303 C1315 0.929 . S
H1304 C1318 0.930 . S
H1305 C1320 0.960 . S
H1306 C1320 0.960 . S
H1307 C1320 0.960 . S
C1308 H1300 0.929 . S
C1308 C1309 1.377 . S
C1308 C1310 1.384 . S
C1309 C1308 1.377 . S
C1309 C1315 1.390 . S
C1310 H1301 0.930 . S
C1310 C1308 1.384 . S
C1310 C1311 1.372 . S
C1311 C1310 1.372 . S
C1311 C1312 1.400 . S
C1311 C1316 1.490 . S
C1312 H1302 0.930 . S
C1312 C1311 1.400 . S
C1312 C1315 1.386 . S
H1313 C1329 0.930 . S
H1314 C1330 0.931 . S
C1315 H1303 0.929 . S
C1315 C1309 1.390 . S
C1315 C1312 1.386 . S
C1316 C1311 1.490 . S
C1316 C1318 1.395 . S
C1316 C1319 1.403 . S
H1317 C1323 0.930 . S
C1318 H1304 0.930 . S
C1318 C1316 1.395 . S
C1318 C1321 1.403 . S
C1319 C1316 1.403 . S
C1319 C1320 1.524 . S
C1319 C1323 1.400 . S
C1320 H1305 0.960 . S
C1320 H1306 0.960 . S
C1320 H1307 0.960 . S
C1320 C1319 1.524 . S
C1321 C1318 1.403 . S
C1321 C1322 1.392 . S
C1321 C1325 1.495 . S
C1322 C1321 1.392 . S
C1322 C1323 1.385 . S
C1322 C1324 1.478 . S
C1323 H1317 0.930 . S
C1323 C1319 1.400 . S
C1323 C1322 1.385 . S
C1324 C1322 1.478 . S
C1324 C1326 1.381 . S
C1324 C1330 1.383 . S
C1325 C1321 1.495 . S
C1325 H1331 0.959 . S
C1325 H1332 0.961 . S
C1325 H1333 0.960 . S
C1326 C1324 1.381 . S
C1326 C1327 1.394 . S
C1326 H1334 0.930 . S
C1327 C1326 1.394 . S
C1327 C1328 1.383 . S
C1327 H1335 0.929 . S
C1328 C1327 1.383 . S
C1328 C1329 1.377 . S
C1329 H1313 0.930 . S
C1329 C1328 1.377 . S
C1329 C1330 1.379 . S
C1330 H1314 0.931 . S
C1330 C1324 1.383 . S
C1330 C1329 1.379 . S
H1331 C1325 0.959 . S
H1332 C1325 0.961 . S
H1333 C1325 0.960 . S
H1334 C1326 0.930 . S
H1335 C1327 0.929 . S
H1336 C1344 0.929 . S
H1337 C1346 0.930 . S
H1338 C1348 0.930 . S
H1339 C1351 0.929 . S
H1340 C1354 0.930 . S
H1341 C1356 0.960 . S
H1342 C1356 0.960 . S
H1343 C1356 0.960 . S
C1344 H1336 0.929 . S
C1344 C1345 1.377 . S
C1344 C1346 1.384 . S
C1345 C1344 1.377 . S
C1345 C1351 1.390 . S
C1346 H1337 0.930 . S
C1346 C1344 1.384 . S
C1346 C1347 1.372 . S
C1347 C1346 1.372 . S
C1347 C1348 1.400 . S
C1347 C1352 1.490 . S
C1348 H1338 0.930 . S
C1348 C1347 1.400 . S
C1348 C1351 1.386 . S
H1349 C1365 0.930 . S
H1350 C1366 0.931 . S
C1351 H1339 0.929 . S
C1351 C1345 1.390 . S
C1351 C1348 1.386 . S
C1352 C1347 1.490 . S
C1352 C1354 1.395 . S
C1352 C1355 1.403 . S
H1353 C1359 0.930 . S
C1354 H1340 0.930 . S
C1354 C1352 1.395 . S
C1354 C1357 1.403 . S
C1355 C1352 1.403 . S
C1355 C1356 1.524 . S
C1355 C1359 1.400 . S
C1356 H1341 0.960 . S
C1356 H1342 0.960 . S
C1356 H1343 0.960 . S
C1356 C1355 1.524 . S
C1357 C1354 1.403 . S
C1357 C1358 1.392 . S
C1357 C1361 1.495 . S
C1358 C1357 1.392 . S
C1358 C1359 1.385 . S
C1358 C1360 1.478 . S
C1359 H1353 0.930 . S
C1359 C1355 1.400 . S
C1359 C1358 1.385 . S
C1360 C1358 1.478 . S
C1360 C1362 1.381 . S
C1360 C1366 1.383 . S
C1361 C1357 1.495 . S
C1361 H1367 0.959 . S
C1361 H1368 0.961 . S
C1361 H1369 0.960 . S
C1362 C1360 1.381 . S
C1362 C1363 1.394 . S
C1362 H1370 0.930 . S
C1363 C1362 1.394 . S
C1363 C1364 1.383 . S
C1363 H1371 0.929 . S
C1364 C1363 1.383 . S
C1364 C1365 1.377 . S
C1365 H1349 0.930 . S
C1365 C1364 1.377 . S
C1365 C1366 1.379 . S
C1366 H1350 0.931 . S
C1366 C1360 1.383 . S
C1366 C1365 1.379 . S
H1367 C1361 0.959 . S
H1368 C1361 0.961 . S
H1369 C1361 0.960 . S
H1370 C1362 0.930 . S
H1371 C1363 0.929 . S
H1372 C1380 0.929 . S
H1373 C1382 0.930 . S
H1374 C1384 0.930 . S
H1375 C1387 0.929 . S
H1376 C1390 0.930 . S
H1377 C1392 0.960 . S
H1378 C1392 0.960 . S
H1379 C1392 0.960 . S
C1380 H1372 0.929 . S
C1380 C1381 1.377 . S
C1380 C1382 1.384 . S
C1381 C1380 1.377 . S
C1381 C1387 1.390 . S
C1382 H1373 0.930 . S
C1382 C1380 1.384 . S
C1382 C1383 1.372 . S
C1383 C1382 1.372 . S
C1383 C1384 1.400 . S
C1383 C1388 1.490 . S
C1384 H1374 0.930 . S
C1384 C1383 1.400 . S
C1384 C1387 1.386 . S
H1385 C1401 0.930 . S
H1386 C1402 0.931 . S
C1387 H1375 0.929 . S
C1387 C1381 1.390 . S
C1387 C1384 1.386 . S
C1388 C1383 1.490 . S
C1388 C1390 1.395 . S
C1388 C1391 1.403 . S
H1389 C1395 0.930 . S
C1390 H1376 0.930 . S
C1390 C1388 1.395 . S
C1390 C1393 1.403 . S
C1391 C1388 1.403 . S
C1391 C1392 1.524 . S
C1391 C1395 1.400 . S
C1392 H1377 0.960 . S
C1392 H1378 0.960 . S
C1392 H1379 0.960 . S
C1392 C1391 1.524 . S
C1393 C1390 1.403 . S
C1393 C1394 1.392 . S
C1393 C1397 1.495 . S
C1394 C1393 1.392 . S
C1394 C1395 1.385 . S
C1394 C1396 1.478 . S
C1395 H1389 0.930 . S
C1395 C1391 1.400 . S
C1395 C1394 1.385 . S
C1396 C1394 1.478 . S
C1396 C1398 1.381 . S
C1396 C1402 1.383 . S
C1397 C1393 1.495 . S
C1397 H1403 0.959 . S
C1397 H1404 0.961 . S
C1397 H1405 0.960 . S
C1398 C1396 1.381 . S
C1398 C1399 1.394 . S
C1398 H1406 0.930 . S
C1399 C1398 1.394 . S
C1399 C1400 1.383 . S
C1399 H1407 0.929 . S
C1400 C1399 1.383 . S
C1400 C1401 1.377 . S
C1401 H1385 0.930 . S
C1401 C1400 1.377 . S
C1401 C1402 1.379 . S
C1402 H1386 0.931 . S
C1402 C1396 1.383 . S
C1402 C1401 1.379 . S
H1403 C1397 0.959 . S
H1404 C1397 0.961 . S
H1405 C1397 0.960 . S
H1406 C1398 0.930 . S
H1407 C1399 0.929 . S
H1408 C1416 0.929 . S
H1409 C1418 0.930 . S
H1410 C1420 0.930 . S
H1411 C1423 0.929 . S
H1412 C1426 0.930 . S
H1413 C1428 0.960 . S
H1414 C1428 0.960 . S
H1415 C1428 0.960 . S
C1416 H1408 0.929 . S
C1416 C1417 1.377 . S
C1416 C1418 1.384 . S
C1417 C1416 1.377 . S
C1417 C1423 1.390 . S
C1418 H1409 0.930 . S
C1418 C1416 1.384 . S
C1418 C1419 1.372 . S
C1419 C1418 1.372 . S
C1419 C1420 1.400 . S
C1419 C1424 1.490 . S
C1420 H1410 0.930 . S
C1420 C1419 1.400 . S
C1420 C1423 1.386 . S
H1421 C1437 0.930 . S
H1422 C1438 0.931 . S
C1423 H1411 0.929 . S
C1423 C1417 1.390 . S
C1423 C1420 1.386 . S
C1424 C1419 1.490 . S
C1424 C1426 1.395 . S
C1424 C1427 1.403 . S
H1425 C1431 0.930 . S
C1426 H1412 0.930 . S
C1426 C1424 1.395 . S
C1426 C1429 1.403 1_655 S
C1427 C1424 1.403 . S
C1427 C1428 1.524 1_545 S
C1427 C1431 1.400 1_655 S
C1428 H1413 0.960 . S
C1428 H1414 0.960 . S
C1428 H1415 0.960 . S
C1428 C1427 1.524 1_565 S
C1429 C1426 1.403 1_455 S
C1429 C1430 1.392 . S
C1429 C1433 1.495 . S
C1430 C1429 1.392 . S
C1430 C1431 1.385 . S
C1430 C1432 1.478 . S
C1431 H1425 0.930 . S
C1431 C1427 1.400 1_455 S
C1431 C1430 1.385 . S
C1432 C1430 1.478 . S
C1432 C1434 1.381 . S
C1432 C1438 1.383 . S
C1433 C1429 1.495 . S
C1433 H1439 0.959 . S
C1433 H1440 0.961 . S
C1433 H1441 0.960 . S
C1434 C1432 1.381 . S
C1434 C1435 1.394 . S
C1434 H1442 0.930 . S
C1435 C1434 1.394 . S
C1435 C1436 1.383 . S
C1435 H1443 0.929 . S
C1436 C1435 1.383 . S
C1436 C1437 1.377 . S
C1437 H1421 0.930 . S
C1437 C1436 1.377 . S
C1437 C1438 1.379 . S
C1438 H1422 0.931 . S
C1438 C1432 1.383 . S
C1438 C1437 1.379 . S
H1439 C1433 0.959 . S
H1440 C1433 0.961 . S
H1441 C1433 0.960 . S
H1442 C1434 0.930 . S
H1443 C1435 0.929 . S
H1444 C1452 0.929 . S
H1445 C1454 0.930 . S
H1446 C1456 0.930 1_565 S
H1447 C1459 0.929 1_565 S
H1448 C1462 0.930 . S
H1449 C1464 0.960 . S
H1450 C1464 0.960 . S
H1451 C1464 0.960 . S
C1452 H1444 0.929 . S
C1452 C1453 1.377 . S
C1452 C1454 1.384 . S
C1453 C1452 1.377 . S
C1453 C1459 1.390 . S
C1454 H1445 0.930 . S
C1454 C1452 1.384 . S
C1454 C1455 1.372 . S
C1455 C1454 1.372 . S
C1455 C1456 1.400 . S
C1455 C1460 1.490 . S
C1456 H1446 0.930 1_545 S
C1456 C1455 1.400 . S
C1456 C1459 1.386 . S
H1457 C1473 0.930 . S
H1458 C1474 0.946 . S
C1459 H1447 0.929 1_545 S
C1459 C1453 1.390 . S
C1459 C1456 1.386 . S
C1460 C1455 1.490 . S
C1460 C1462 1.395 . S
C1460 C1463 1.403 . S
H1461 C1467 0.930 . S
C1462 H1448 0.930 . S
C1462 C1460 1.395 . S
C1462 C1465 1.403 1_455 S
C1463 C1460 1.403 . S
C1463 C1464 1.524 . S
C1463 C1467 1.400 1_455 S
C1464 H1449 0.960 . S
C1464 H1450 0.960 . S
C1464 H1451 0.960 . S
C1464 C1463 1.524 . S
C1465 C1462 1.403 1_655 S
C1465 C1466 1.392 . S
C1465 C1469 1.495 . S
C1466 C1465 1.392 . S
C1466 C1467 1.385 . S
C1466 C1468 1.478 . S
C1467 H1461 0.930 . S
C1467 C1463 1.400 1_655 S
C1467 C1466 1.385 . S
C1468 C1466 1.478 . S
C1468 C1470 1.381 . S
C1468 C1474 1.383 . S
C1469 C1465 1.495 . S
C1469 H1475 0.959 . S
C1469 H1476 0.961 . S
C1469 H1477 0.960 . S
C1470 C1468 1.381 . S
C1470 C1471 1.394 . S
C1470 H1478 0.930 . S
C1471 C1470 1.394 . S
C1471 C1472 1.383 . S
C1471 H1479 0.929 . S
C1472 C1471 1.383 . S
C1472 C1473 1.377 . S
C1473 H1457 0.930 . S
C1473 C1472 1.377 . S
C1473 C1474 1.379 . S
C1474 H1458 0.946 . S
C1474 C1468 1.383 . S
C1474 C1473 1.379 . S
H1475 C1469 0.959 . S
H1476 C1469 0.961 . S
H1477 C1469 0.960 . S
H1478 C1470 0.930 . S
H1479 C1471 0.929 . S
H1480 C1488 0.929 . S
H1481 C1490 0.930 . S
H1482 C1492 0.930 . S
H1483 C1495 0.929 . S
H1484 C1498 0.930 . S
H1485 C1500 0.960 . S
H1486 C1500 0.960 . S
H1487 C1500 0.960 . S
C1488 H1480 0.929 . S
C1488 C1489 1.377 . S
C1488 C1490 1.384 . S
C1489 C1488 1.377 . S
C1489 C1495 1.390 . S
C1490 H1481 0.930 . S
C1490 C1488 1.384 . S
C1490 C1491 1.372 . S
C1491 C1490 1.372 . S
C1491 C1492 1.400 . S
C1491 C1496 1.490 . S
C1492 H1482 0.930 . S
C1492 C1491 1.400 . S
C1492 C1495 1.386 . S
H1493 C1509 0.930 . S
H1494 C1510 0.931 . S
C1495 H1483 0.929 . S
C1495 C1489 1.390 . S
C1495 C1492 1.386 . S
C1496 C1491 1.490 . S
C1496 C1498 1.395 . S
C1496 C1499 1.403 . S
H1497 C1503 0.930 . S
C1498 H1484 0.930 . S
C1498 C1496 1.395 . S
C1498 C1501 1.403 1_655 S
C1499 C1496 1.403 . S
C1499 C1500 1.524 . S
C1499 C1503 1.400 1_655 S
C1500 H1485 0.960 . S
C1500 H1486 0.960 . S
C1500 H1487 0.960 . S
C1500 C1499 1.524 . S
C1501 C1498 1.403 1_455 S
C1501 C1502 1.392 . S
C1501 C1505 1.495 . S
C1502 C1501 1.392 . S
C1502 C1503 1.385 . S
C1502 C1504 1.478 . S
C1503 H1497 0.930 . S
C1503 C1499 1.400 1_455 S
C1503 C1502 1.385 . S
C1504 C1502 1.478 . S
C1504 C1506 1.381 . S
C1504 C1510 1.383 . S
C1505 C1501 1.495 . S
C1505 H1511 0.959 . S
C1505 H1512 0.961 . S
C1505 H1513 0.960 . S
C1506 C1504 1.381 . S
C1506 C1507 1.394 . S
C1506 H1514 0.930 . S
C1507 C1506 1.394 . S
C1507 C1508 1.383 . S
C1507 H1515 0.929 . S
C1508 C1507 1.383 . S
C1508 C1509 1.377 . S
C1509 H1493 0.930 . S
C1509 C1508 1.377 . S
C1509 C1510 1.379 . S
C1510 H1494 0.931 . S
C1510 C1504 1.383 . S
C1510 C1509 1.379 . S
H1511 C1505 0.959 . S
H1512 C1505 0.961 . S
H1513 C1505 0.960 . S
H1514 C1506 0.930 . S
H1515 C1507 0.929 . S
H1516 C1524 0.929 . S
H1517 C1526 0.930 . S
H1518 C1528 0.930 . S
H1519 C1531 0.929 . S
H1520 C1534 0.930 . S
H1521 C1536 0.960 . S
H1522 C1536 0.960 . S
H1523 C1536 0.960 . S
C1524 H1516 0.929 . S
C1524 C1525 1.377 . S
C1524 C1526 1.384 . S
C1525 C1524 1.377 . S
C1525 C1531 1.390 . S
C1526 H1517 0.930 . S
C1526 C1524 1.384 . S
C1526 C1527 1.372 . S
C1527 C1526 1.372 . S
C1527 C1528 1.400 . S
C1527 C1532 1.490 . S
C1528 H1518 0.930 . S
C1528 C1527 1.400 . S
C1528 C1531 1.386 . S
H1529 C1545 0.930 . S
H1530 C1546 0.931 . S
C1531 H1519 0.929 . S
C1531 C1525 1.390 . S
C1531 C1528 1.386 . S
C1532 C1527 1.490 . S
C1532 C1534 1.395 . S
C1532 C1535 1.403 . S
H1533 C1539 0.930 . S
C1534 H1520 0.930 . S
C1534 C1532 1.395 . S
C1534 C1537 1.403 1_655 S
C1535 C1532 1.403 . S
C1535 C1536 1.524 . S
C1535 C1539 1.400 1_655 S
C1536 H1521 0.960 . S
C1536 H1522 0.960 . S
C1536 H1523 0.960 . S
C1536 C1535 1.524 . S
C1537 C1534 1.403 1_455 S
C1537 C1538 1.392 . S
C1537 C1541 1.495 . S
C1538 C1537 1.392 . S
C1538 C1539 1.385 . S
C1538 C1540 1.478 . S
C1539 H1533 0.930 . S
C1539 C1535 1.400 1_455 S
C1539 C1538 1.385 . S
C1540 C1538 1.478 . S
C1540 C1542 1.381 . S
C1540 C1546 1.383 . S
C1541 C1537 1.495 . S
C1541 H1547 0.959 . S
C1541 H1548 0.961 . S
C1541 H1549 0.960 . S
C1542 C1540 1.381 . S
C1542 C1543 1.394 . S
C1542 H1550 0.930 . S
C1543 C1542 1.394 . S
C1543 C1544 1.383 . S
C1543 H1551 0.929 . S
C1544 C1543 1.383 . S
C1544 C1545 1.377 . S
C1545 H1529 0.930 . S
C1545 C1544 1.377 . S
C1545 C1546 1.379 . S
C1546 H1530 0.931 . S
C1546 C1540 1.383 . S
C1546 C1545 1.379 . S
H1547 C1541 0.959 . S
H1548 C1541 0.961 . S
H1549 C1541 0.960 . S
H1550 C1542 0.930 . S
H1551 C1543 0.929 . S
H1552 C1560 0.929 . S
H1553 C1562 0.930 . S
H1554 C1564 0.930 . S
H1555 C1567 0.929 . S
H1556 C1570 0.930 1_565 S
H1557 C1572 0.960 . S
H1558 C1572 0.960 . S
H1559 C1572 0.960 . S
C1560 H1552 0.929 . S
C1560 C1561 1.377 . S
C1560 C1562 1.384 . S
C1561 C1560 1.377 . S
C1561 C1567 1.390 . S
C1562 H1553 0.930 . S
C1562 C1560 1.384 . S
C1562 C1563 1.372 . S
C1563 C1562 1.372 . S
C1563 C1564 1.400 . S
C1563 C1568 1.490 . S
C1564 H1554 0.930 . S
C1564 C1563 1.400 . S
C1564 C1567 1.386 . S
H1565 C1581 0.930 . S
H1566 C1582 0.931 . S
C1567 H1555 0.929 . S
C1567 C1561 1.390 . S
C1567 C1564 1.386 . S
C1568 C1563 1.490 . S
C1568 C1570 1.395 . S
C1568 C1571 1.403 . S
H1569 C1575 0.930 . S
C1570 H1556 0.930 1_545 S
C1570 C1568 1.395 . S
C1570 C1573 1.403 . S
C1571 C1568 1.403 . S
C1571 C1572 1.524 . S
C1571 C1575 1.400 . S
C1572 H1557 0.960 . S
C1572 H1558 0.960 . S
C1572 H1559 0.960 . S
C1572 C1571 1.524 . S
C1573 C1570 1.403 . S
C1573 C1574 1.392 . S
C1573 C1577 1.495 1_545 S
C1574 C1573 1.392 . S
C1574 C1575 1.385 . S
C1574 C1576 1.478 . S
C1575 H1569 0.930 . S
C1575 C1571 1.400 . S
C1575 C1574 1.385 . S
C1576 C1574 1.478 . S
C1576 C1578 1.381 . S
C1576 C1582 1.383 . S
C1577 C1573 1.495 1_565 S
C1577 H1583 0.959 . S
C1577 H1584 0.961 . S
C1577 H1585 0.960 . S
C1578 C1576 1.381 . S
C1578 C1579 1.394 . S
C1578 H1586 0.930 . S
C1579 C1578 1.394 . S
C1579 C1580 1.383 . S
C1579 H1587 0.929 . S
C1580 C1579 1.383 . S
C1580 C1581 1.377 . S
C1581 H1565 0.930 . S
C1581 C1580 1.377 . S
C1581 C1582 1.379 . S
C1582 H1566 0.931 . S
C1582 C1576 1.383 . S
C1582 C1581 1.379 . S
H1583 C1577 0.959 . S
H1584 C1577 0.961 . S
H1585 C1577 0.960 . S
H1586 C1578 0.930 . S
H1587 C1579 0.929 . S
H1588 C1596 0.929 . S
H1589 C1598 0.930 . S
H1590 C1600 0.930 . S
H1591 C1603 0.929 . S
H1592 C1606 0.930 1_565 S
H1593 C1608 0.960 . S
H1594 C1608 0.960 . S
H1595 C1608 0.960 . S
C1596 H1588 0.929 . S
C1596 C1597 1.377 . S
C1596 C1598 1.384 . S
C1597 C1596 1.377 . S
C1597 C1603 1.390 . S
C1598 H1589 0.930 . S
C1598 C1596 1.384 . S
C1598 C1599 1.372 . S
C1599 C1598 1.372 . S
C1599 C1600 1.400 . S
C1599 C1604 1.490 . S
C1600 H1590 0.930 . S
C1600 C1599 1.400 . S
C1600 C1603 1.386 . S
H1601 C1617 0.930 . S
H1602 C1618 0.931 . S
C1603 H1591 0.929 . S
C1603 C1597 1.390 . S
C1603 C1600 1.386 . S
C1604 C1599 1.490 . S
C1604 C1606 1.395 . S
C1604 C1607 1.403 . S
H1605 C1611 0.930 . S
C1606 H1592 0.930 1_545 S
C1606 C1604 1.395 . S
C1606 C1609 1.403 . S
C1607 C1604 1.403 . S
C1607 C1608 1.524 . S
C1607 C1611 1.400 . S
C1608 H1593 0.960 . S
C1608 H1594 0.960 . S
C1608 H1595 0.960 . S
C1608 C1607 1.524 . S
C1609 C1606 1.403 . S
C1609 C1610 1.392 . S
C1609 C1613 1.495 1_545 S
C1610 C1609 1.392 . S
C1610 C1611 1.385 . S
C1610 C1612 1.478 . S
C1611 H1605 0.930 . S
C1611 C1607 1.400 . S
C1611 C1610 1.385 . S
C1612 C1610 1.478 . S
C1612 C1614 1.381 . S
C1612 C1618 1.383 . S
C1613 C1609 1.495 1_565 S
C1613 H1619 0.959 . S
C1613 H1620 0.961 . S
C1613 H1621 0.960 . S
C1614 C1612 1.381 . S
C1614 C1615 1.394 . S
C1614 H1622 0.930 . S
C1615 C1614 1.394 . S
C1615 C1616 1.383 . S
C1615 H1623 0.929 . S
C1616 C1615 1.383 . S
C1616 C1617 1.377 . S
C1617 H1601 0.930 . S
C1617 C1616 1.377 . S
C1617 C1618 1.379 . S
C1618 H1602 0.931 . S
C1618 C1612 1.383 . S
C1618 C1617 1.379 . S
H1619 C1613 0.959 . S
H1620 C1613 0.961 . S
H1621 C1613 0.960 . S
H1622 C1614 0.930 . S
H1623 C1615 0.929 . S
H1624 C1632 0.929 . S
H1625 C1634 0.930 . S
H1626 C1636 0.930 . S
H1627 C1639 0.929 . S
H1628 C1642 0.930 . S
H1629 C1644 0.960 . S
H1630 C1644 0.960 . S
H1631 C1644 0.960 . S
C1632 H1624 0.929 . S
C1632 C1633 1.377 . S
C1632 C1634 1.384 . S
C1633 C1632 1.377 . S
C1633 C1639 1.390 . S
C1634 H1625 0.930 . S
C1634 C1632 1.384 . S
C1634 C1635 1.372 . S
C1635 C1634 1.372 . S
C1635 C1636 1.400 . S
C1635 C1640 1.490 . S
C1636 H1626 0.930 . S
C1636 C1635 1.400 . S
C1636 C1639 1.386 . S
H1637 C1653 0.930 . S
H1638 C1654 0.931 . S
C1639 H1627 0.929 . S
C1639 C1633 1.390 . S
C1639 C1636 1.386 . S
C1640 C1635 1.490 . S
C1640 C1642 1.395 . S
C1640 C1643 1.403 . S
H1641 C1647 0.930 . S
C1642 H1628 0.930 . S
C1642 C1640 1.395 . S
C1642 C1645 1.403 . S
C1643 C1640 1.403 . S
C1643 C1644 1.524 . S
C1643 C1647 1.400 . S
C1644 H1629 0.960 . S
C1644 H1630 0.960 . S
C1644 H1631 0.960 . S
C1644 C1643 1.524 . S
C1645 C1642 1.403 . S
C1645 C1646 1.392 . S
C1645 C1649 1.495 . S
C1646 C1645 1.392 . S
C1646 C1647 1.385 . S
C1646 C1648 1.478 . S
C1647 H1641 0.930 . S
C1647 C1643 1.400 . S
C1647 C1646 1.385 . S
C1648 C1646 1.478 . S
C1648 C1650 1.381 . S
C1648 C1654 1.383 . S
C1649 C1645 1.495 . S
C1649 H1655 0.959 . S
C1649 H1656 0.961 . S
C1649 H1657 0.960 . S
C1650 C1648 1.381 . S
C1650 C1651 1.394 . S
C1650 H1658 0.930 . S
C1651 C1650 1.394 . S
C1651 C1652 1.383 . S
C1651 H1659 0.929 . S
C1652 C1651 1.383 . S
C1652 C1653 1.377 . S
C1653 H1637 0.930 . S
C1653 C1652 1.377 . S
C1653 C1654 1.379 . S
C1654 H1638 0.931 . S
C1654 C1648 1.383 . S
C1654 C1653 1.379 . S
H1655 C1649 0.959 . S
H1656 C1649 0.961 . S
H1657 C1649 0.960 . S
H1658 C1650 0.930 . S
H1659 C1651 0.929 . S
H1660 C1668 0.929 . S
H1661 C1670 0.930 . S
H1662 C1672 0.930 . S
H1663 C1675 0.929 . S
H1664 C1678 0.930 . S
H1665 C1680 0.960 . S
H1666 C1680 0.960 . S
H1667 C1680 0.960 . S
C1668 H1660 0.929 . S
C1668 C1669 1.377 . S
C1668 C1670 1.384 . S
C1669 C1668 1.377 . S
C1669 C1675 1.390 . S
C1670 H1661 0.930 . S
C1670 C1668 1.384 . S
C1670 C1671 1.372 . S
C1671 C1670 1.372 . S
C1671 C1672 1.400 . S
C1671 C1676 1.490 . S
C1672 H1662 0.930 . S
C1672 C1671 1.400 . S
C1672 C1675 1.386 . S
H1673 C1689 0.930 . S
H1674 C1690 0.931 . S
C1675 H1663 0.929 . S
C1675 C1669 1.390 . S
C1675 C1672 1.386 . S
C1676 C1671 1.490 . S
C1676 C1678 1.395 . S
C1676 C1679 1.403 . S
H1677 C1683 0.930 . S
C1678 H1664 0.930 . S
C1678 C1676 1.395 . S
C1678 C1681 1.403 . S
C1679 C1676 1.403 . S
C1679 C1680 1.524 . S
C1679 C1683 1.400 . S
C1680 H1665 0.960 . S
C1680 H1666 0.960 . S
C1680 H1667 0.960 . S
C1680 C1679 1.524 . S
C1681 C1678 1.403 . S
C1681 C1682 1.392 . S
C1681 C1685 1.495 . S
C1682 C1681 1.392 . S
C1682 C1683 1.385 . S
C1682 C1684 1.478 . S
C1683 H1677 0.930 . S
C1683 C1679 1.400 . S
C1683 C1682 1.385 . S
C1684 C1682 1.478 . S
C1684 C1686 1.381 . S
C1684 C1690 1.383 . S
C1685 C1681 1.495 . S
C1685 H1691 0.959 . S
C1685 H1692 0.961 . S
C1685 H1693 0.960 . S
C1686 C1684 1.381 . S
C1686 C1687 1.394 . S
C1686 H1694 0.930 . S
C1687 C1686 1.394 . S
C1687 C1688 1.383 . S
C1687 H1695 0.929 . S
C1688 C1687 1.383 . S
C1688 C1689 1.377 . S
C1689 H1673 0.930 . S
C1689 C1688 1.377 . S
C1689 C1690 1.379 . S
C1690 H1674 0.931 . S
C1690 C1684 1.383 . S
C1690 C1689 1.379 . S
H1691 C1685 0.959 . S
H1692 C1685 0.961 . S
H1693 C1685 0.960 . S
H1694 C1686 0.930 . S
H1695 C1687 0.929 . S
H1696 C1704 0.929 . S
H1697 C1706 0.930 . S
H1698 C1708 0.930 . S
H1699 C1711 0.929 . S
H1700 C1714 0.930 . S
H1701 C1716 0.971 . S
H1702 C1716 0.960 1_565 S
H1703 C1716 0.960 . S
C1704 H1696 0.929 . S
C1704 C1705 1.377 . S
C1704 C1706 1.384 . S
C1705 C1704 1.377 . S
C1705 C1711 1.390 . S
C1706 H1697 0.930 . S
C1706 C1704 1.384 . S
C1706 C1707 1.372 . S
C1707 C1706 1.372 . S
C1707 C1708 1.400 . S
C1707 C1712 1.490 . S
C1708 H1698 0.930 . S
C1708 C1707 1.400 . S
C1708 C1711 1.386 . S
H1709 C1725 0.930 . S
H1710 C1726 0.931 . S
C1711 H1699 0.929 . S
C1711 C1705 1.390 . S
C1711 C1708 1.386 . S
C1712 C1707 1.490 . S
C1712 C1714 1.395 . S
C1712 C1715 1.403 . S
H1713 C1719 0.930 . S
C1714 H1700 0.930 . S
C1714 C1712 1.395 . S
C1714 C1717 1.403 1_556 S
C1715 C1712 1.403 . S
C1715 C1716 1.524 . S
C1715 C1719 1.400 1_556 S
C1716 H1701 0.971 . S
C1716 H1702 0.960 1_545 S
C1716 H1703 0.960 . S
C1716 C1715 1.524 . S
C1717 C1714 1.403 1_554 S
C1717 C1718 1.392 . S
C1717 C1721 1.495 . S
C1718 C1717 1.392 . S
C1718 C1719 1.385 . S
C1718 C1720 1.478 . S
C1719 H1713 0.930 . S
C1719 C1715 1.400 1_554 S
C1719 C1718 1.385 . S
C1720 C1718 1.478 . S
C1720 C1722 1.381 . S
C1720 C1726 1.383 . S
C1721 C1717 1.495 . S
C1721 H1727 0.959 . S
C1721 H1728 0.961 . S
C1721 H1729 0.960 . S
C1722 C1720 1.381 . S
C1722 C1723 1.394 . S
C1722 H1730 0.930 . S
C1723 C1722 1.394 . S
C1723 C1724 1.383 . S
C1723 H1731 0.929 . S
C1724 C1723 1.383 . S
C1724 C1725 1.377 . S
C1725 H1709 0.930 . S
C1725 C1724 1.377 . S
C1725 C1726 1.379 . S
C1726 H1710 0.931 . S
C1726 C1720 1.383 . S
C1726 C1725 1.379 . S
H1727 C1721 0.959 . S
H1728 C1721 0.961 . S
H1729 C1721 0.960 . S
H1730 C1722 0.930 . S
H1731 C1723 0.929 . S
H1732 C1740 0.929 . S
H1733 C1742 0.930 . S
H1734 C1744 0.930 1_565 S
H1735 C1747 0.929 1_565 S
H1736 C1750 0.930 . S
H1737 C1752 0.960 . S
H1738 C1752 0.960 1_545 S
H1739 C1752 0.960 . S
C1740 H1732 0.929 . S
C1740 C1741 1.377 . S
C1740 C1742 1.384 . S
C1741 C1740 1.377 . S
C1741 C1747 1.390 . S
C1742 H1733 0.930 . S
C1742 C1740 1.384 . S
C1742 C1743 1.372 . S
C1743 C1742 1.372 . S
C1743 C1744 1.400 . S
C1743 C1748 1.490 . S
C1744 H1734 0.930 1_545 S
C1744 C1743 1.400 . S
C1744 C1747 1.386 . S
H1745 C1761 0.930 . S
H1746 C1762 0.931 . S
C1747 H1735 0.929 1_545 S
C1747 C1741 1.390 . S
C1747 C1744 1.386 . S
C1748 C1743 1.490 . S
C1748 C1750 1.395 . S
C1748 C1751 1.403 . S
H1749 C1755 0.930 . S
C1750 H1736 0.930 . S
C1750 C1748 1.395 . S
C1750 C1753 1.403 1_556 S
C1751 C1748 1.403 . S
C1751 C1752 1.524 1_545 S
C1751 C1755 1.400 1_556 S
C1752 H1737 0.960 . S
C1752 H1738 0.960 1_565 S
C1752 H1739 0.960 . S
C1752 C1751 1.524 1_565 S
C1753 C1750 1.403 1_554 S
C1753 C1754 1.392 . S
C1753 C1757 1.495 . S
C1754 C1753 1.392 . S
C1754 C1755 1.385 . S
C1754 C1756 1.478 . S
C1755 H1749 0.930 . S
C1755 C1751 1.400 1_554 S
C1755 C1754 1.385 . S
C1756 C1754 1.478 . S
C1756 C1758 1.381 . S
C1756 C1762 1.383 . S
C1757 C1753 1.495 . S
C1757 H1763 0.959 . S
C1757 H1764 0.961 . S
C1757 H1765 0.960 . S
C1758 C1756 1.381 . S
C1758 C1759 1.394 . S
C1758 H1766 0.930 . S
C1759 C1758 1.394 . S
C1759 C1760 1.383 . S
C1759 H1767 0.929 . S
C1760 C1759 1.383 . S
C1760 C1761 1.377 . S
C1761 H1745 0.930 . S
C1761 C1760 1.377 . S
C1761 C1762 1.379 . S
C1762 H1746 0.931 . S
C1762 C1756 1.383 . S
C1762 C1761 1.379 . S
H1763 C1757 0.959 . S
H1764 C1757 0.961 . S
H1765 C1757 0.960 . S
H1766 C1758 0.930 . S
H1767 C1759 0.929 . S
H1768 C1776 0.929 . S
H1769 C1778 0.930 . S
H1770 C1780 0.930 . S
H1771 C1783 0.929 . S
H1772 C1786 0.930 . S
H1773 C1788 0.960 . S
H1774 C1788 0.960 . S
H1775 C1788 0.960 . S
C1776 H1768 0.929 . S
C1776 C1777 1.377 . S
C1776 C1778 1.384 . S
C1777 C1776 1.377 . S
C1777 C1783 1.390 . S
C1778 H1769 0.930 . S
C1778 C1776 1.384 . S
C1778 C1779 1.372 . S
C1779 C1778 1.372 . S
C1779 C1780 1.400 . S
C1779 C1784 1.490 . S
C1780 H1770 0.930 . S
C1780 C1779 1.400 . S
C1780 C1783 1.386 . S
H1781 C1797 0.930 . S
H1782 C1798 0.931 . S
C1783 H1771 0.929 . S
C1783 C1777 1.390 . S
C1783 C1780 1.386 . S
C1784 C1779 1.490 . S
C1784 C1786 1.395 . S
C1784 C1787 1.403 . S
H1785 C1791 0.930 . S
C1786 H1772 0.930 . S
C1786 C1784 1.395 . S
C1786 C1789 1.403 . S
C1787 C1784 1.403 . S
C1787 C1788 1.524 . S
C1787 C1791 1.400 . S
C1788 H1773 0.960 . S
C1788 H1774 0.960 . S
C1788 H1775 0.960 . S
C1788 C1787 1.524 . S
C1789 C1786 1.403 . S
C1789 C1790 1.392 . S
C1789 C1793 1.495 . S
C1790 C1789 1.392 . S
C1790 C1791 1.385 . S
C1790 C1792 1.478 . S
C1791 H1785 0.930 . S
C1791 C1787 1.400 . S
C1791 C1790 1.385 . S
C1792 C1790 1.478 . S
C1792 C1794 1.381 . S
C1792 C1798 1.383 . S
C1793 C1789 1.495 . S
C1793 H1799 0.959 . S
C1793 H1800 0.961 . S
C1793 H1801 0.960 . S
C1794 C1792 1.381 . S
C1794 C1795 1.394 . S
C1794 H1802 0.930 . S
C1795 C1794 1.394 . S
C1795 C1796 1.383 . S
C1795 H1803 0.929 . S
C1796 C1795 1.383 . S
C1796 C1797 1.377 . S
C1797 H1781 0.930 . S
C1797 C1796 1.377 . S
C1797 C1798 1.379 . S
C1798 H1782 0.931 . S
C1798 C1792 1.383 . S
C1798 C1797 1.379 . S
H1799 C1793 0.959 . S
H1800 C1793 0.961 . S
H1801 C1793 0.960 . S
H1802 C1794 0.930 . S
H1803 C1795 0.929 . S
H1804 C1812 0.929 . S
H1805 C1814 0.930 . S
H1806 C1816 0.930 . S
H1807 C1819 0.929 . S
H1808 C1822 0.930 . S
H1809 C1824 0.960 . S
H1810 C1824 0.960 . S
H1811 C1824 0.960 . S
C1812 H1804 0.929 . S
C1812 C1813 1.377 . S
C1812 C1814 1.384 . S
C1813 C1812 1.377 . S
C1813 C1819 1.390 . S
C1814 H1805 0.930 . S
C1814 C1812 1.384 . S
C1814 C1815 1.372 . S
C1815 C1814 1.372 . S
C1815 C1816 1.400 . S
C1815 C1820 1.490 . S
C1816 H1806 0.930 . S
C1816 C1815 1.400 . S
C1816 C1819 1.386 . S
H1817 C1833 0.930 . S
H1818 C1834 0.931 . S
C1819 H1807 0.929 . S
C1819 C1813 1.390 . S
C1819 C1816 1.386 . S
C1820 C1815 1.490 . S
C1820 C1822 1.395 . S
C1820 C1823 1.403 . S
H1821 C1827 0.930 . S
C1822 H1808 0.930 . S
C1822 C1820 1.395 . S
C1822 C1825 1.403 . S
C1823 C1820 1.403 . S
C1823 C1824 1.524 . S
C1823 C1827 1.400 . S
C1824 H1809 0.960 . S
C1824 H1810 0.960 . S
C1824 H1811 0.960 . S
C1824 C1823 1.524 . S
C1825 C1822 1.403 . S
C1825 C1826 1.392 . S
C1825 C1829 1.495 . S
C1826 C1825 1.392 . S
C1826 C1827 1.385 . S
C1826 C1828 1.478 . S
C1827 H1821 0.930 . S
C1827 C1823 1.400 . S
C1827 C1826 1.385 . S
C1828 C1826 1.478 . S
C1828 C1830 1.381 . S
C1828 C1834 1.383 . S
C1829 C1825 1.495 . S
C1829 H1835 0.959 . S
C1829 H1836 0.961 . S
C1829 H1837 0.960 . S
C1830 C1828 1.381 . S
C1830 C1831 1.394 . S
C1830 H1838 0.930 . S
C1831 C1830 1.394 . S
C1831 C1832 1.383 . S
C1831 H1839 0.929 . S
C1832 C1831 1.383 . S
C1832 C1833 1.377 . S
C1833 H1817 0.930 . S
C1833 C1832 1.377 . S
C1833 C1834 1.379 . S
C1834 H1818 0.931 . S
C1834 C1828 1.383 . S
C1834 C1833 1.379 . S
H1835 C1829 0.959 . S
H1836 C1829 0.961 . S
H1837 C1829 0.960 . S
H1838 C1830 0.930 . S
H1839 C1831 0.929 . S
H1840 C1848 0.929 . S
H1841 C1850 0.930 . S
H1842 C1852 0.930 . S
H1843 C1855 0.929 . S
H1844 C1858 0.930 . S
H1845 C1860 0.960 . S
H1846 C1860 0.960 . S
H1847 C1860 0.960 . S
C1848 H1840 0.929 . S
C1848 C1849 1.377 . S
C1848 C1850 1.384 . S
C1849 C1848 1.377 . S
C1849 C1855 1.390 . S
C1850 H1841 0.930 . S
C1850 C1848 1.384 . S
C1850 C1851 1.372 . S
C1851 C1850 1.372 . S
C1851 C1852 1.400 . S
C1851 C1856 1.490 . S
C1852 H1842 0.930 . S
C1852 C1851 1.400 . S
C1852 C1855 1.386 . S
H1853 C1869 0.930 . S
H1854 C1870 0.931 . S
C1855 H1843 0.929 . S
C1855 C1849 1.390 . S
C1855 C1852 1.386 . S
C1856 C1851 1.490 . S
C1856 C1858 1.395 . S
C1856 C1859 1.403 . S
H1857 C1863 0.936 . S
C1858 H1844 0.930 . S
C1858 C1856 1.395 . S
C1858 C1861 1.403 . S
C1859 C1856 1.403 . S
C1859 C1860 1.524 1_545 S
C1859 C1863 1.400 . S
C1860 H1845 0.960 . S
C1860 H1846 0.960 . S
C1860 H1847 0.960 . S
C1860 C1859 1.524 1_565 S
C1861 C1858 1.403 . S
C1861 C1862 1.392 . S
C1861 C1865 1.495 . S
C1862 C1861 1.392 . S
C1862 C1863 1.385 . S
C1862 C1864 1.478 . S
C1863 H1857 0.936 . S
C1863 C1859 1.400 . S
C1863 C1862 1.385 . S
C1864 C1862 1.478 . S
C1864 C1866 1.381 . S
C1864 C1870 1.383 . S
C1865 C1861 1.495 . S
C1865 H1871 0.959 . S
C1865 H1872 0.961 . S
C1865 H1873 0.960 . S
C1866 C1864 1.381 . S
C1866 C1867 1.394 . S
C1866 H1874 0.930 . S
C1867 C1866 1.394 . S
C1867 C1868 1.383 . S
C1867 H1875 0.929 . S
C1868 C1867 1.383 . S
C1868 C1869 1.377 . S
C1869 H1853 0.930 . S
C1869 C1868 1.377 . S
C1869 C1870 1.379 . S
C1870 H1854 0.931 . S
C1870 C1864 1.383 . S
C1870 C1869 1.379 . S
H1871 C1865 0.959 . S
H1872 C1865 0.961 . S
H1873 C1865 0.960 . S
H1874 C1866 0.930 . S
H1875 C1867 0.929 . S
H1876 C1884 0.929 . S
H1877 C1886 0.930 . S
H1878 C1888 0.930 . S
H1879 C1891 0.929 . S
H1880 C1894 0.930 . S
H1881 C1896 0.960 . S
H1882 C1896 0.960 . S
H1883 C1896 0.960 . S
C1884 H1876 0.929 . S
C1884 C1885 1.377 . S
C1884 C1886 1.384 . S
C1885 C1884 1.377 . S
C1885 C1891 1.390 . S
C1886 H1877 0.930 . S
C1886 C1884 1.384 . S
C1886 C1887 1.372 . S
C1887 C1886 1.372 . S
C1887 C1888 1.400 . S
C1887 C1892 1.490 . S
C1888 H1878 0.930 . S
C1888 C1887 1.400 . S
C1888 C1891 1.386 . S
H1889 C1905 0.930 . S
H1890 C1906 0.931 . S
C1891 H1879 0.929 . S
C1891 C1885 1.390 . S
C1891 C1888 1.386 . S
C1892 C1887 1.490 . S
C1892 C1894 1.395 . S
C1892 C1895 1.403 . S
H1893 C1899 0.930 . S
C1894 H1880 0.930 . S
C1894 C1892 1.395 . S
C1894 C1897 1.403 . S
C1895 C1892 1.403 . S
C1895 C1896 1.524 1_545 S
C1895 C1899 1.400 . S
C1896 H1881 0.960 . S
C1896 H1882 0.960 . S
C1896 H1883 0.960 . S
C1896 C1895 1.524 1_565 S
C1897 C1894 1.403 . S
C1897 C1898 1.392 . S
C1897 C1901 1.495 . S
C1898 C1897 1.392 . S
C1898 C1899 1.385 . S
C1898 C1900 1.478 . S
C1899 H1893 0.930 . S
C1899 C1895 1.400 . S
C1899 C1898 1.385 . S
C1900 C1898 1.478 . S
C1900 C1902 1.381 . S
C1900 C1906 1.383 . S
C1901 C1897 1.495 . S
C1901 H1907 0.959 . S
C1901 H1908 0.961 . S
C1901 H1909 0.960 . S
C1902 C1900 1.381 . S
C1902 C1903 1.394 . S
C1902 H1910 0.930 . S
C1903 C1902 1.394 . S
C1903 C1904 1.383 . S
C1903 H1911 0.929 . S
C1904 C1903 1.383 . S
C1904 C1905 1.377 . S
C1905 H1889 0.930 . S
C1905 C1904 1.377 . S
C1905 C1906 1.379 . S
C1906 H1890 0.931 . S
C1906 C1900 1.383 . S
C1906 C1905 1.379 . S
H1907 C1901 0.959 . S
H1908 C1901 0.961 . S
H1909 C1901 0.960 . S
H1910 C1902 0.930 . S
H1911 C1903 0.929 . S
H1912 C1920 0.929 . S
H1913 C1922 0.930 . S
H1914 C1924 0.930 . S
H1915 C1927 0.929 . S
H1916 C1930 0.930 . S
H1917 C1932 0.960 . S
H1918 C1932 0.960 . S
H1919 C1932 0.960 . S
C1920 H1912 0.929 . S
C1920 C1921 1.377 . S
C1920 C1922 1.384 . S
C1921 C1920 1.377 . S
C1921 C1927 1.390 . S
C1922 H1913 0.930 . S
C1922 C1920 1.384 . S
C1922 C1923 1.372 . S
C1923 C1922 1.372 . S
C1923 C1924 1.400 . S
C1923 C1928 1.490 . S
C1924 H1914 0.930 . S
C1924 C1923 1.400 . S
C1924 C1927 1.386 . S
H1925 C1941 0.930 . S
H1926 C1942 0.931 . S
C1927 H1915 0.929 . S
C1927 C1921 1.390 . S
C1927 C1924 1.386 . S
C1928 C1923 1.490 . S
C1928 C1930 1.395 . S
C1928 C1931 1.403 . S
H1929 C1935 0.930 . S
C1930 H1916 0.930 . S
C1930 C1928 1.395 . S
C1930 C1933 1.403 1_554 S
C1931 C1928 1.403 . S
C1931 C1932 1.524 . S
C1931 C1935 1.400 1_554 S
C1932 H1917 0.960 . S
C1932 H1918 0.960 . S
C1932 H1919 0.960 . S
C1932 C1931 1.524 . S
C1933 C1930 1.403 1_556 S
C1933 C1934 1.392 . S
C1933 C1937 1.495 . S
C1934 C1933 1.392 . S
C1934 C1935 1.385 . S
C1934 C1936 1.478 . S
C1935 H1929 0.930 . S
C1935 C1931 1.400 1_556 S
C1935 C1934 1.385 . S
C1936 C1934 1.478 . S
C1936 C1938 1.381 . S
C1936 C1942 1.383 . S
C1937 C1933 1.495 . S
C1937 H1943 0.959 . S
C1937 H1944 0.961 . S
C1937 H1945 0.960 . S
C1938 C1936 1.381 . S
C1938 C1939 1.394 . S
C1938 H1946 0.930 . S
C1939 C1938 1.394 . S
C1939 C1940 1.383 . S
C1939 H1947 0.929 . S
C1940 C1939 1.383 . S
C1940 C1941 1.377 . S
C1941 H1925 0.930 . S
C1941 C1940 1.377 . S
C1941 C1942 1.379 . S
C1942 H1926 0.931 . S
C1942 C1936 1.383 . S
C1942 C1941 1.379 . S
H1943 C1937 0.959 . S
H1944 C1937 0.961 . S
H1945 C1937 0.960 . S
H1946 C1938 0.930 . S
H1947 C1939 0.929 . S
H1948 C1956 0.929 . S
H1949 C1958 0.930 . S
H1950 C1960 0.930 . S
H1951 C1963 0.929 . S
H1952 C1966 0.930 . S
H1953 C1968 0.960 . S
H1954 C1968 0.960 . S
H1955 C1968 0.960 . S
C1956 H1948 0.929 . S
C1956 C1957 1.377 . S
C1956 C1958 1.384 . S
C1957 C1956 1.377 . S
C1957 C1963 1.390 . S
C1958 H1949 0.930 . S
C1958 C1956 1.384 . S
C1958 C1959 1.372 . S
C1959 C1958 1.372 . S
C1959 C1960 1.400 . S
C1959 C1964 1.490 . S
C1960 H1950 0.930 . S
C1960 C1959 1.400 . S
C1960 C1963 1.386 . S
H1961 C1977 0.930 . S
H1962 C1978 0.931 . S
C1963 H1951 0.929 . S
C1963 C1957 1.390 . S
C1963 C1960 1.386 . S
C1964 C1959 1.490 . S
C1964 C1966 1.395 . S
C1964 C1967 1.403 . S
H1965 C1971 0.930 . S
C1966 H1952 0.930 . S
C1966 C1964 1.395 . S
C1966 C1969 1.403 1_556 S
C1967 C1964 1.403 . S
C1967 C1968 1.524 . S
C1967 C1971 1.400 1_556 S
C1968 H1953 0.960 . S
C1968 H1954 0.960 . S
C1968 H1955 0.960 . S
C1968 C1967 1.524 . S
C1969 C1966 1.403 1_554 S
C1969 C1970 1.392 . S
C1969 C1973 1.495 . S
C1970 C1969 1.392 . S
C1970 C1971 1.385 . S
C1970 C1972 1.478 . S
C1971 H1965 0.930 . S
C1971 C1967 1.400 1_554 S
C1971 C1970 1.385 . S
C1972 C1970 1.478 . S
C1972 C1974 1.381 . S
C1972 C1978 1.383 . S
C1973 C1969 1.495 . S
C1973 H1979 0.959 . S
C1973 H1980 0.961 . S
C1973 H1981 0.960 . S
C1974 C1972 1.381 . S
C1974 C1975 1.394 . S
C1974 H1982 0.930 . S
C1975 C1974 1.394 . S
C1975 C1976 1.383 . S
C1975 H1983 0.929 . S
C1976 C1975 1.383 . S
C1976 C1977 1.377 . S
C1977 H1961 0.930 . S
C1977 C1976 1.377 . S
C1977 C1978 1.379 . S
C1978 H1962 0.931 . S
C1978 C1972 1.383 . S
C1978 C1977 1.379 . S
H1979 C1973 0.959 . S
H1980 C1973 0.961 . S
H1981 C1973 0.960 . S
H1982 C1974 0.930 . S
H1983 C1975 0.929 . S
C553 C9 1.422 . S
C572 C383 1.400 . S
C589 C43 1.428 . S
C608 C349 1.432 . S
C625 C315 1.418 . S
C644 C77 1.393 . S
C661 C281 1.422 . S
C680 C111 1.403 . S
C697 C145 1.418 . S
C716 C519 1.395 . S
C733 C179 1.419 . S
C752 C485 1.393 . S
C769 C451 1.423 . S
C788 C213 1.426 . S
C805 C417 1.418 . S
C824 C247 1.397 . S
C841 C2 2.096 . S
C860 C444 2.093 . S
C877 C410 2.096 . S
C896 C36 2.093 . S
C913 C70 2.096 . S
C932 C512 2.092 . S
C949 C478 2.096 . S
C968 C104 2.093 . S
C985 C122 0.915 . S
C1004 C496 0.920 . S
C1021 C530 0.915 . S
C1040 C88 0.918 . S
C1057 C428 0.913 . S
C1076 C54 0.910 . S
C1093 C20 0.915 . S
C1112 C462 0.915 . S
C1129 C138 2.096 . S
C1148 C308 2.092 . S
C1165 C172 2.096 . S
C1184 C274 2.092 . S
C1201 C206 2.096 . S
C1220 C376 2.093 . S
C1237 C240 2.096 . S
C1256 C342 2.090 . S
C1273 C258 0.913 . S
C1292 C360 0.913 . S
C1309 C224 0.914 . S
C1328 C394 0.908 . S
C1345 C190 0.914 . S
C1364 C292 0.915 . S
C1381 C156 0.914 . S
C1400 C326 0.917 . S
C1417 C67 1.598 . S
C1436 C33 1.600 . S
C1453 C101 1.596 . S
C1472 C135 1.591 . S
C1489 C203 1.595 . S
C1508 C169 1.586 . S
C1525 C271 1.598 . S
C1544 C237 1.599 . S
C1561 C339 1.596 . S
C1580 C305 1.587 . S
C1597 C407 1.598 . S
C1616 C373 1.600 . S
C1633 C441 1.595 . S
C1652 C475 1.586 . S
C1669 C543 1.598 . S
C1688 C509 1.601 . S
C1705 C73 1.471 . S
C1724 C5 1.457 . S
C1741 C107 1.474 . S
C1760 C39 1.463 . S
C1777 C141 1.470 . S
C1796 C209 1.470 . S
C1813 C243 1.475 . S
C1832 C175 1.471 . S
C1849 C277 1.475 . S
C1868 C345 1.469 . S
C1885 C379 1.474 . S
C1904 C311 1.474 . S
C1921 C413 1.471 . S
C1940 C481 1.481 . S
C1957 C515 1.471 . S
C1976 C447 1.458 . S
