# Generated by pormake.
# Topology qtz-e, (6)-cn, num edge types: 1
# Building blocks:
#     Node 0, Type 0, BuildingBlock: INOVEN_clean_sbu_0, # of connection points: 6
#     Node 1, Type 0, BuildingBlock: INOVEN_clean_sbu_0, # of connection points: 6
#     Node 2, Type 0, BuildingBlock: INOVEN_clean_sbu_0, # of connection points: 6
#     Node 3, Type 0, BuildingBlock: INOVEN_clean_sbu_0, # of connection points: 6
#     Node 4, Type 0, BuildingBlock: INOVEN_clean_sbu_0, # of connection points: 6
#     Node 5, Type 0, BuildingBlock: INOVEN_clean_sbu_0, # of connection points: 6
#     Edge 6, Type (0, 0), BuildingBlock: AJUNOK_clean_linker_0, # of connection points: 2
#     Edge 7, Type (0, 0), BuildingBlock: AJUNOK_clean_linker_0, # of connection points: 2
#     Edge 8, Type (0, 0), BuildingBlock: AJUNOK_clean_linker_0, # of connection points: 2
#     Edge 9, Type (0, 0), BuildingBlock: AJUNOK_clean_linker_0, # of connection points: 2
#     Edge 10, Type (0, 0), BuildingBlock: AJUNOK_clean_linker_0, # of connection points: 2
#     Edge 11, Type (0, 0), BuildingBlock: AJUNOK_clean_linker_0, # of connection points: 2
#     Edge 12, Type (0, 0), BuildingBlock: AJUNOK_clean_linker_0, # of connection points: 2
#     Edge 13, Type (0, 0), BuildingBlock: AJUNOK_clean_linker_0, # of connection points: 2
#     Edge 14, Type (0, 0), BuildingBlock: AJUNOK_clean_linker_0, # of connection points: 2
#     Edge 15, Type (0, 0), BuildingBlock: AJUNOK_clean_linker_0, # of connection points: 2
#     Edge 16, Type (0, 0), BuildingBlock: AJUNOK_clean_linker_0, # of connection points: 2
#     Edge 17, Type (0, 0), BuildingBlock: AJUNOK_clean_linker_0, # of connection points: 2
#     Edge 18, Type (0, 0), BuildingBlock: AJUNOK_clean_linker_0, # of connection points: 2
#     Edge 19, Type (0, 0), BuildingBlock: AJUNOK_clean_linker_0, # of connection points: 2
#     Edge 20, Type (0, 0), BuildingBlock: AJUNOK_clean_linker_0, # of connection points: 2
#     Edge 21, Type (0, 0), BuildingBlock: AJUNOK_clean_linker_0, # of connection points: 2
#     Edge 22, Type (0, 0), BuildingBlock: AJUNOK_clean_linker_0, # of connection points: 2
#     Edge 23, Type (0, 0), BuildingBlock: AJUNOK_clean_linker_0, # of connection points: 2
# Relax obj value: 0.082
# Max RMSD: 0.178
# Mean RMSD: 0.178
data_MOF--net-qtz-e--node1-INOVEN_clean_sbu_0--edge1-AJUNOK_clean_linker_0
_symmetry_space_group_name_H-M    P1
_symmetry_Int_Tables_number       1
_symmetry_cell_setting            triclinic
loop_
_symmetry_equiv_pos_as_xyz
'x, y, z'
_cell_length_a     19.494416
_cell_length_b     19.687159
_cell_length_c     41.636492
_cell_angle_alpha  90.331174
_cell_angle_beta   89.240687
_cell_angle_gamma 119.04536
loop_
_atom_site_label
_atom_site_type_symbol
_atom_site_fract_x
_atom_site_fract_y
_atom_site_fract_z
_atom_type_partial_charge
Gd0 Gd 0.2017 0.47667 0.09454 0.0
Gd1 Gd 0.16077 0.32453 0.06367 0.0
C2 C 0.12224 0.32773 0.14052 0.0
C3 C 0.22423 0.60849 0.11605 0.0
C4 C 0.23912 0.63765 0.1491 0.0
C5 C 0.29213 0.62693 0.16816 0.0
C6 C 0.19109 0.66442 0.16327 0.0
C7 C 0.24336 0.66202 0.21556 0.0
C8 C 0.19322 0.67661 0.19635 0.0
C9 C 0.29449 0.63948 0.20115 0.0
C10 C 0.31593 0.437 0.0998 0.0
C11 C 0.23361 0.47232 1.01985 0.0
C12 C 0.15019 0.20525 1.03281 0.0
C13 C 0.17507 0.19882 0.99931 0.0
C14 C 0.12338 0.13953 0.97874 0.0
C15 C 0.24816 0.25488 0.98677 0.0
C16 C 0.21618 0.19408 0.93356 0.0
C17 C 0.26854 0.25227 0.95449 0.0
C18 C 0.14375 0.13697 0.94634 0.0
C19 C 0.05308 0.37468 0.05864 0.0
O20 O 0.13762 0.40024 0.1362 0.0
O21 O 0.13365 0.28777 0.11693 0.0
O22 O 0.27968 0.59942 0.10202 0.0
O23 O 0.15429 0.54959 0.11161 0.0
O24 O 0.29192 0.46487 0.12292 0.0
O25 O 0.27539 0.4279 0.07506 0.0
O26 O 0.23695 0.40899 1.02662 0.0
O27 O 0.20782 0.50382 0.0415 0.0
O28 O 0.09209 0.22048 0.03527 0.0
O29 O 0.2057 0.24467 0.05357 0.0
O30 O 0.0722 0.34406 0.03496 0.0
O31 O 0.09092 0.37583 0.08279 0.0
H32 H 0.32915 0.60528 0.15792 0.0
H33 H 0.14933 0.67223 0.149 0.0
H34 H 0.15426 0.69541 0.20705 0.0
H35 H 0.33363 0.62807 0.21559 0.0
H36 H 0.06645 0.09584 0.9876 0.0
H37 H 0.28946 0.3016 1.00179 0.0
H38 H 0.32572 0.29609 0.94594 0.0
H39 H 0.10195 0.09127 0.93107 0.0
Gd40 Gd 0.71366 0.2417 0.43457 0.0
Gd41 Gd 0.81374 0.18146 0.40127 0.0
C42 C 0.77507 0.14778 0.47803 0.0
C43 C 0.61062 0.27403 0.45827 0.0
C44 C 0.59916 0.29049 0.49161 0.0
C45 C 0.6643 0.33681 0.51085 0.0
C46 C 0.52533 0.24551 0.50603 0.0
C47 C 0.58427 0.28272 0.55854 0.0
C48 C 0.51797 0.24136 0.53936 0.0
C49 C 0.65662 0.33346 0.54421 0.0
C50 C 0.86886 0.33671 0.44108 0.0
C51 C 0.76276 0.28231 0.36045 0.0
C52 C 0.91512 0.15656 0.36984 0.0
C53 C 0.94934 0.17862 0.33662 0.0
C54 C 0.93956 0.12094 0.31415 0.0
C55 C -0.01138 0.25664 0.32643 0.0
C56 C 0.00634 0.21859 0.272 0.0
C57 C 0.0168 0.27623 0.29473 0.0
C58 C 0.96733 0.14052 0.2823 0.0
C59 C 0.65634 0.10008 0.39144 0.0
O60 O 0.7251 0.17468 0.47536 0.0
O61 O 0.81868 0.14695 0.45327 0.0
O62 O 0.67427 0.32593 0.44353 0.0
O63 O 0.59738 0.20284 0.45387 0.0
O64 O 0.81723 0.32256 0.46363 0.0
O65 O 0.83526 0.29838 0.4163 0.0
O66 O 0.82219 0.27103 0.36696 0.0
O67 O 0.70582 0.26485 0.38175 0.0
O68 O 0.8405 0.10539 0.37178 0.0
O69 O 0.93518 0.21244 0.39103 0.0
O70 O 0.70805 0.10824 0.36984 0.0
O71 O 0.68972 0.1284 0.41748 0.0
H72 H 0.72216 0.37135 0.5003 0.0
H73 H 0.4747 0.20891 0.49159 0.0
H74 H 0.46133 0.2029 0.55019 0.0
H75 H 0.70813 0.3662 0.55876 0.0
H76 H 0.90896 0.06027 0.32108 0.0
H77 H -0.00309 0.30284 0.34283 0.0
H78 H 0.04678 0.33702 0.28798 0.0
H79 H 0.95614 0.09413 0.26555 0.0
Gd80 Gd 0.47891 0.70355 0.76128 0.0
Gd81 Gd 0.63343 0.81036 0.72919 0.0
C82 C 0.63243 0.77112 0.80523 0.0
C83 C 0.34918 0.59763 0.78559 0.0
C84 C 0.33076 0.57944 0.81979 0.0
C85 C 0.25599 0.55871 0.83225 0.0
C86 C 0.39124 0.5914 0.84081 0.0
C87 C 0.30298 0.56188 0.88641 0.0
C88 C 0.37779 0.58356 0.87374 0.0
C89 C 0.24193 0.5493 0.86543 0.0
C90 C 0.52312 0.85536 0.76857 0.0
C91 C 0.48217 0.74932 0.68742 0.0
C92 C 0.75502 0.91708 0.69921 0.0
C93 C 0.76225 0.95412 0.66731 0.0
C94 C 0.82604 0.97023 0.64665 0.0
C95 C 0.7031 0.96935 0.65636 0.0
C96 C 0.77242 0.01815 0.60513 0.0
C97 C 0.70795 0.00058 0.6257 0.0
C98 C 0.83106 0.00181 0.6159 0.0
C99 C 0.57791 0.65575 0.72076 0.0
O100 O 0.55889 0.71643 0.80159 0.0
O101 O 0.67324 0.81868 0.78126 0.0
O102 O 0.35941 0.66578 0.77711 0.0
O103 O 0.40289 0.58271 0.77355 0.0
O104 O 0.4946 0.80436 0.7914 0.0
O105 O 0.53049 0.82397 0.74321 0.0
O106 O 0.54909 0.81086 0.69426 0.0
O107 O 0.44683 0.69243 0.70848 0.0
O108 O 0.73616 0.84365 0.69856 0.0
O109 O 0.71734 0.93248 0.72195 0.0
O110 O 0.61206 0.70629 0.69815 0.0
O111 O 0.57792 0.68911 0.74642 0.0
H112 H 0.20886 0.55022 0.81639 0.0
H113 H 0.44933 0.60716 0.83187 0.0
H114 H 0.42587 0.59356 0.88934 0.0
H115 H 0.18327 0.53097 0.8746 0.0
H116 H 0.87195 0.95816 0.65428 0.0
H117 H 0.65262 0.95667 0.67145 0.0
H118 H 0.66066 0.01049 0.618 0.0
H119 H 0.8814 0.01447 0.6007 0.0
Gd120 Gd 0.75767 0.47876 0.09752 0.0
Gd121 Gd 0.80342 0.62646 0.06185 0.0
C122 C 0.84861 0.63426 0.13785 0.0
C123 C 0.73211 0.35117 0.12433 0.0
C124 C 0.74303 0.33926 0.15811 0.0
C125 C 0.6865 0.2733 0.17436 0.0
C126 C 0.80342 0.39966 0.17541 0.0
C127 C 0.7477 0.33068 0.22517 0.0
C128 C 0.80558 0.39553 0.20866 0.0
C129 C 0.68915 0.26871 0.20773 0.0
C130 C 0.64757 0.52495 0.09997 0.0
C131 C 0.72639 0.47042 1.02241 0.0
C132 C 0.81724 0.74636 1.03076 0.0
C133 C 0.79287 0.75463 0.99795 0.0
C134 C 0.83535 0.82412 0.98057 0.0
C135 C 0.72895 0.69196 0.98314 0.0
C136 C 0.74982 0.76817 0.9342 0.0
C137 C 0.70779 0.69859 0.95174 0.0
C138 C 0.81395 0.83097 0.94909 0.0
C139 C 0.90644 0.57078 0.05792 0.0
O140 O 0.83234 0.56129 0.13502 0.0
O141 O 0.83436 0.67059 0.11401 0.0
O142 O 0.67654 0.36873 0.11947 0.0
O143 O 0.79607 0.39489 0.10785 0.0
O144 O 0.67133 0.50227 0.12453 0.0
O145 O 0.68745 0.52723 0.07543 0.0
O146 O 0.72978 0.53849 1.02558 0.0
O147 O 0.74465 0.43885 0.04624 0.0
O148 O 0.8732 0.72798 1.03205 0.0
O149 O 0.7609 0.70766 0.05176 0.0
O150 O 0.88972 0.601 1.03373 0.0
O151 O 0.87022 0.57444 0.08238 0.0
H152 H 0.63913 0.22657 0.16137 0.0
H153 H 0.84757 0.45137 0.1634 0.0
H154 H 0.85155 0.4439 0.22152 0.0
H155 H 0.64525 0.21702 0.21988 0.0
H156 H 0.88509 0.87322 0.99138 0.0
H157 H 0.69524 0.63756 0.99581 0.0
H158 H 0.65846 0.64878 0.9411 0.0
H159 H 0.8468 0.88588 0.93666 0.0
Gd160 Gd 0.28299 0.75728 0.42223 0.0
Gd161 Gd 0.16449 0.79992 0.39722 0.0
C162 C 0.20442 0.83693 0.47064 0.0
C163 C 0.39948 0.75916 0.45115 0.0
C164 C 0.41345 0.76054 0.48578 0.0
C165 C 0.4295 0.70487 0.49939 0.0
C166 C 0.40122 0.81121 0.50594 0.0
C167 C 0.41727 0.7483 0.55289 0.0
C168 C 0.40256 0.80476 0.53912 0.0
C169 C 0.43199 0.69912 0.53275 0.0
C170 C 0.1389 0.63767 0.42202 0.0
C171 C 0.23211 0.71237 0.35104 0.0
C172 C 0.0545 0.80416 0.36405 0.0
C173 C 0.02463 0.78383 0.33056 0.0
C174 C 0.03475 0.84265 0.30883 0.0
C175 C 0.98614 0.70635 0.31983 0.0
C176 C 0.97038 0.74724 0.26626 0.0
C177 C 0.95935 0.68841 0.2882 0.0
C178 C 0.0083 0.82469 0.27706 0.0
C179 C 0.31844 0.90886 0.3911 0.0
O180 O 0.25914 0.81664 0.46485 0.0
O181 O 0.15368 0.83014 0.4484 0.0
O182 O 0.33988 0.69501 0.44085 0.0
O183 O 0.40213 0.82183 0.43919 0.0
O184 O 0.2016 0.63275 0.41594 0.0
O185 O 0.15437 0.70604 0.43022 0.0
O186 O 0.17081 0.72022 0.35944 0.0
O187 O 0.29376 0.7375 0.36983 0.0
O188 O 0.12456 0.86371 0.36728 0.0
O189 O 0.04192 0.74724 0.38359 0.0
O190 O 0.2644 0.92603 0.39967 0.0
O191 O 0.28795 0.83781 0.38626 0.0
H192 H 0.43876 0.66504 0.48423 0.0
H193 H 0.38875 0.85485 0.4962 0.0
H194 H 0.39139 0.8437 0.55405 0.0
H195 H 0.4461 0.65677 0.54272 0.0
H196 H 0.06401 0.90291 0.31634 0.0
H197 H 0.97689 0.65932 0.33578 0.0
H198 H 0.92965 0.62804 0.28087 0.0
H199 H 0.01911 0.87166 0.2608 0.0
Gd200 Gd 0.49661 0.2522 0.76608 0.0
Gd201 Gd 0.35057 0.16175 0.72765 0.0
C202 C 0.33511 0.19762 0.80356 0.0
C203 C 0.62791 0.34116 0.79343 0.0
C204 C 0.64859 0.34302 0.82698 0.0
C205 C 0.7225 0.39825 0.8379 0.0
C206 C 0.59078 0.29321 0.84882 0.0
C207 C 0.67757 0.35931 0.89266 0.0
C208 C 0.60512 0.30155 0.88159 0.0
C209 C 0.73703 0.40637 0.87082 0.0
C210 C 0.43522 0.09678 0.77106 0.0
C211 C 0.51086 0.21965 0.69166 0.0
C212 C 0.23074 0.06259 0.69487 0.0
C213 C 0.22343 0.02721 0.66248 0.0
C214 C 0.15434 0.00162 0.64477 0.0
C215 C 0.28597 0.02045 0.64856 0.0
C216 C 0.2108 0.96382 0.59969 0.0
C217 C 0.27969 -0.01087 0.61768 0.0
C218 C 0.14793 0.97005 0.61382 0.0
C219 C 0.42223 0.31939 0.7207 0.0
O220 O 0.41056 0.24869 0.80276 0.0
O221 O 0.29949 0.15174 0.77862 0.0
O222 O 0.61455 0.27808 0.77796 0.0
O223 O 0.57435 0.36169 0.78857 0.0
O224 O 0.45984 0.1445 0.79505 0.0
O225 O 0.44027 0.13381 0.74571 0.0
O226 O 0.4404 0.15961 0.69469 0.0
O227 O 0.5409 0.27109 0.71482 0.0
O228 O 0.25412 0.13707 0.69544 0.0
O229 O 0.26428 0.04223 0.71705 0.0
O230 O 0.38668 0.271 0.69765 0.0
O231 O 0.41249 0.2826 0.74639 0.0
H232 H 0.76732 0.43717 0.8212 0.0
H233 H 0.53319 0.25065 0.84065 0.0
H234 H 0.55842 0.26596 0.89832 0.0
H235 H 0.79278 0.45216 0.87932 0.0
H236 H 0.10515 0.00598 0.6549 0.0
H237 H 0.33998 0.03964 0.6615 0.0
H238 H 0.32933 0.98552 0.60767 0.0
H239 H 0.09325 0.94961 0.60116 0.0
C240 C 0.30741 0.72355 0.30099 0.0
C241 C 0.23571 0.68825 0.31798 0.0
C242 C 0.30975 0.71343 0.26779 0.0
C243 C 0.2405 0.66764 0.25075 0.0
H244 H 0.3614 0.76255 0.31304 0.0
H245 H 0.36558 0.74394 0.2552 0.0
S246 S 0.0403 0.55148 0.28521 0.0
N247 N 0.09546 0.59822 0.31619 0.0
N248 N 0.10013 0.57851 0.25372 0.0
C249 C 0.16926 0.628 0.26781 0.0
C250 C 0.16683 0.63842 0.30151 0.0
C251 C 0.58095 0.3136 0.64787 0.0
C252 C 0.54723 0.2371 0.65963 0.0
C253 C 0.59645 0.32891 0.61503 0.0
C254 C 0.57848 0.26808 0.59325 0.0
H255 H 0.59006 0.36107 0.66367 0.0
H256 H 0.61836 0.38779 0.60643 0.0
S257 S 0.50706 0.061 0.61304 0.0
N258 N 0.50863 0.10232 0.64787 0.0
N259 N 0.53782 0.13111 0.586 0.0
C260 C 0.55139 0.19258 0.60508 0.0
C261 C 0.5358 0.17708 0.6384 0.0
C262 C 0.29926 0.47833 0.96796 0.0
C263 C 0.25653 0.50412 0.98713 0.0
C264 C 0.31498 0.49886 0.93575 0.0
C265 C 0.28821 0.54558 0.92115 0.0
H266 H 0.31985 0.4406 0.97768 0.0
H267 H 0.34705 0.47634 0.92202 0.0
S268 S 0.18172 0.63595 0.96142 0.0
N269 N 0.19304 0.58426 0.98992 0.0
N270 N 0.22284 0.62297 0.9287 0.0
C271 C 0.24807 0.57455 0.94017 0.0
C272 C 0.23244 0.55403 0.97336 0.0
C273 C 0.82621 0.33554 0.30783 0.0
C274 C 0.75869 0.30722 0.32759 0.0
C275 C 0.82227 0.34486 0.2749 0.0
C276 C 0.7508 0.3268 0.26045 0.0
H277 H 0.88229 0.34759 0.31757 0.0
H278 H 0.87509 0.3633 0.2605 0.0
S279 S 0.55949 0.26207 0.30198 0.0
N280 N 0.61981 0.26867 0.3308 0.0
N281 N 0.61281 0.28813 0.2686 0.0
C282 C 0.68383 0.30347 0.2801 0.0
C283 C 0.68777 0.29363 0.3138 0.0
C284 C 0.48038 0.81567 0.63757 0.0
C285 C 0.45141 0.74589 0.65501 0.0
C286 C 0.46697 0.81553 0.60485 0.0
C287 C 0.42332 0.74559 0.58817 0.0
H288 H 0.51679 0.87122 0.64893 0.0
H289 H 0.49406 0.87074 0.59232 0.0
S290 S 0.32528 0.54749 0.62343 0.0
N291 N 0.37122 0.60524 0.6539 0.0
N292 N 0.34377 0.60493 0.592 0.0
C293 C 0.38958 0.67544 0.60559 0.0
C294 C 0.40373 0.67562 0.63917 0.0
C295 C 0.66718 0.45537 0.96892 0.0
C296 C 0.70653 0.43271 0.99085 0.0
C297 C 0.65662 0.42937 0.93728 0.0
C298 C 0.68538 0.38031 0.92657 0.0
H299 H 0.64584 0.4949 0.97599 0.0
H300 H 0.62748 0.44927 0.92082 0.0
S301 S 0.78695 0.29919 0.97449 0.0
N302 N 0.77029 0.35436 0.99997 0.0
N303 N 0.75037 0.30601 0.93983 0.0
C304 C 0.72215 0.35467 0.94821 0.0
C305 C 0.73254 0.38063 0.98065 0.0
C306 C 0.44127 0.47131 0.12736 0.0
C307 C 0.39929 0.45521 0.09854 0.0
C308 C 0.52197 0.49656 0.12735 0.0
C309 C 0.56445 0.50722 0.09851 0.0
H310 H 0.41158 0.46482 0.15024 0.0
H311 H 0.55122 0.50716 0.15025 0.0
S312 S 0.48274 0.47415 1.01626 0.0
N313 N 0.40656 0.45213 0.04019 0.0
N314 N 0.55842 0.50028 0.04015 0.0
C315 C 0.52348 0.49196 0.06941 0.0
C316 C 0.44086 0.46546 0.06943 0.0
C317 C 0.04732 0.5055 0.40449 0.0
C318 C 0.0642 0.56628 0.42623 0.0
C319 C 0.98555 0.43087 0.41018 0.0
C320 C 0.9387 0.41403 0.43803 0.0
H321 H 0.08335 0.51545 0.38311 0.0
H322 H 0.97441 0.38607 0.39256 0.0
S323 S 0.96049 0.55352 0.50289 0.0
N324 N 0.03075 0.6058 0.47669 0.0
N325 N 0.91384 0.46478 0.48787 0.0
C326 C 0.95502 0.47461 0.46009 0.0
C327 C 0.01779 0.55115 0.45399 0.0
C328 C 0.48011 0.0126 0.79788 0.0
C329 C 0.44909 0.02946 0.7706 0.0
C330 C 0.50609 0.95769 0.79662 0.0
C331 C 0.50249 0.91805 0.76804 0.0
H332 H 0.48626 0.04332 0.82025 0.0
H333 H 0.5294 0.9463 0.81818 0.0
S334 S 0.4169 0.93363 0.69107 0.0
N335 N 0.40969 -0.00299 0.71502 0.0
N336 N 0.45906 0.89423 0.71254 0.0
C337 C 0.4693 0.93245 0.74084 0.0
C338 C 0.44214 -0.01216 0.74221 0.0
C339 C 0.45925 0.52627 0.71186 0.0
C340 C 0.54041 0.57091 0.7171 0.0
C341 C 0.42179 0.44461 0.712 0.0
C342 C 0.46418 0.40523 0.71786 0.0
H343 H 0.42404 0.55424 0.70836 0.0
H344 H 0.35893 0.41215 0.70854 0.0
S345 S 0.67961 0.49716 0.73002 0.0
N346 N 0.66268 0.57106 0.72615 0.0
N347 N 0.59332 0.41845 0.72661 0.0
C348 C 0.5459 0.44984 0.72207 0.0
C349 C 0.58381 0.53262 0.72163 0.0
C350 C -0.00679 0.44639 0.08532 0.0
C351 C 0.0123 0.4213 0.05656 0.0
C352 C 0.96158 0.49662 0.08519 0.0
C353 C 0.94542 0.52232 0.05632 0.0
H354 H 0.0038 0.42791 0.10828 0.0
H355 H 0.94902 0.51495 0.10813 0.0
S356 S 0.9824 0.47213 0.97421 0.0
N357 N 0.01257 0.4256 0.9982 0.0
N358 N 0.95014 0.5184 0.99795 0.0
C359 C 0.96325 0.49715 1.02722 0.0
C360 C -0.00325 0.44646 1.02736 0.0
C361 C 0.45373 0.92896 0.38246 0.0
C362 C 0.40404 0.96119 0.38851 0.0
C363 C 0.53549 0.97491 0.38241 0.0
C364 C 0.57055 0.05505 0.38759 0.0
H365 H 0.42957 0.86718 0.3786 0.0
H366 H 0.57143 0.94719 0.37922 0.0
S367 S 0.46693 0.17061 0.39545 0.0
N368 N 0.39578 0.07954 0.39466 0.0
N369 N 0.54957 0.16681 0.39234 0.0
C370 C 0.52173 0.08906 0.39068 0.0
C371 C 0.43831 0.0419 0.39157 0.0
C372 C 0.25241 0.12421 0.85172 0.0
C373 C 0.29194 0.19356 0.83393 0.0
C374 C 0.22576 0.12412 0.88351 0.0
C375 C 0.23757 0.19337 0.89868 0.0
H376 H 0.24575 0.07047 0.84169 0.0
H377 H 0.19872 0.06992 0.89674 0.0
S378 S 0.32676 0.38781 0.86005 0.0
N379 N 0.3347 0.33141 0.83249 0.0
N380 N 0.2828 0.3312 0.89128 0.0
C381 C 0.27274 0.26198 0.88017 0.0
C382 C 0.30036 0.26206 0.84812 0.0
C383 C 0.02172 0.29827 0.22249 0.0
C384 C 0.03305 0.24067 0.23758 0.0
C385 C 0.0489 0.3236 0.19108 0.0
C386 C 0.08849 0.29244 0.17272 0.0
H387 H -0.0085 0.32452 0.2351 0.0
H388 H 0.03893 0.36879 0.18116 0.0
S389 S 0.13311 0.13946 0.2003 0.0
N390 N 0.08695 0.15265 0.23126 0.0
N391 N 0.13642 0.19939 0.17194 0.0
C392 C 0.09849 0.23323 0.18698 0.0
C393 C 0.07124 0.20763 0.21933 0.0
C394 C 0.7961 0.02535 0.54472 0.0
C395 C 0.7785 0.05459 0.57287 0.0
C396 C 0.79751 0.05685 0.5141 0.0
C397 C 0.78115 0.11867 0.51045 0.0
H398 H 0.80678 0.97638 0.54625 0.0
H399 H 0.80908 0.03104 0.49312 0.0
S400 S 0.74406 0.22399 0.57696 0.0
N401 N 0.75321 0.15464 0.59513 0.0
N402 N 0.75496 0.21294 0.53824 0.0
C403 C 0.76689 0.15039 0.5386 0.0
C404 C 0.76575 0.11865 0.56956 0.0
C405 C 0.61585 0.74731 0.86453 0.0
C406 C 0.66694 0.77746 0.83776 0.0
C407 C 0.64349 0.74605 0.89531 0.0
C408 C 0.72386 0.77492 0.90111 0.0
H409 H 0.55327 0.72404 0.86178 0.0
H410 H 0.60111 0.72197 0.91483 0.0
S411 S 0.88328 0.86131 0.83961 0.0
N412 N 0.80265 0.83851 0.81933 0.0
N413 N 0.85489 0.83558 0.87723 0.0
C414 C 0.77623 0.80703 0.87477 0.0
C415 C 0.74781 0.80848 0.84318 0.0
C416 C 0.96052 0.67304 0.21575 0.0
C417 C 0.94477 0.72682 0.23208 0.0
C418 C 0.93222 0.64712 0.1848 0.0
C419 C 0.88691 0.67377 0.1684 0.0
H420 H -0.00574 0.64971 0.22719 0.0
H421 H 0.94487 0.60428 0.17387 0.0
S422 S 0.83172 0.8176 0.19955 0.0
N423 N 0.88286 0.80822 0.22887 0.0
N424 N 0.83043 0.75975 0.17036 0.0
C425 C 0.87349 0.73016 0.1837 0.0
C426 C 0.90216 0.75654 0.21555 0.0
C427 C 0.23289 0.87711 0.56077 0.0
C428 C 0.20502 0.93014 0.56663 0.0
C429 C 0.23088 0.84654 0.52995 0.0
C430 C 0.20105 0.8674 0.50336 0.0
H431 H 0.2563 0.85862 0.58026 0.0
H432 H 0.25258 0.80564 0.52701 0.0
S433 S 0.12283 0.00578 0.50512 0.0
N434 N 0.14791 0.00335 0.54266 0.0
N435 N 0.14342 0.94523 0.485 0.0
C436 C 0.17209 0.91961 0.50883 0.0
C437 C 0.17433 0.95108 0.54029 0.0
loop_
_geom_bond_atom_site_label_1
_geom_bond_atom_site_label_2
_geom_bond_distance
_geom_bond_site_symmetry_2
_ccdc_geom_bond_type
Gd0 C3 2.818 . S
Gd0 O20 2.377 . S
Gd0 O22 2.448 . S
Gd0 O23 2.506 . S
Gd0 O24 2.435 . S
Gd0 O25 2.717 . S
Gd0 O27 2.395 . S
Gd0 O31 2.327 . S
Gd1 C12 2.818 1_554 S
Gd1 O21 2.395 . S
Gd1 O25 2.327 . S
Gd1 O26 2.377 1_554 S
Gd1 O28 2.448 1_554 S
Gd1 O29 2.506 1_554 S
Gd1 O30 2.435 . S
Gd1 O31 2.717 . S
C2 O20 1.240 . S
C2 O21 1.240 . S
C3 Gd0 2.818 . S
C3 C4 1.510 . S
C3 O22 1.249 . S
C3 O23 1.252 . S
C4 C3 1.510 . S
C4 C5 1.404 . S
C4 C6 1.352 . S
C5 C4 1.404 . S
C5 C9 1.389 . S
C5 H32 0.930 . S
C6 C4 1.352 . S
C6 C8 1.374 . S
C6 H33 0.931 . S
C7 C8 1.359 . S
C7 C9 1.364 . S
C8 C6 1.374 . S
C8 C7 1.359 . S
C8 H34 0.931 . S
C9 C5 1.389 . S
C9 C7 1.364 . S
C9 H35 0.931 . S
C10 O24 1.256 . S
C10 O25 1.257 . S
C11 O26 1.240 . S
C11 O27 1.240 1_556 S
C12 Gd1 2.818 1_556 S
C12 C13 1.510 . S
C12 O28 1.249 . S
C12 O29 1.252 . S
C13 C12 1.510 . S
C13 C14 1.404 . S
C13 C15 1.352 . S
C14 C13 1.404 . S
C14 C18 1.389 . S
C14 H36 0.930 . S
C15 C13 1.352 . S
C15 C17 1.374 . S
C15 H37 0.931 . S
C16 C17 1.359 . S
C16 C18 1.364 . S
C17 C15 1.374 . S
C17 C16 1.359 . S
C17 H38 0.931 . S
C18 C14 1.389 . S
C18 C16 1.364 . S
C18 H39 0.931 . S
C19 O30 1.256 . S
C19 O31 1.257 . S
O20 Gd0 2.377 . S
O20 C2 1.240 . S
O21 Gd1 2.395 . S
O21 C2 1.240 . S
O22 Gd0 2.448 . S
O22 C3 1.249 . S
O23 Gd0 2.506 . S
O23 C3 1.252 . S
O24 Gd0 2.435 . S
O24 C10 1.256 . S
O25 Gd0 2.717 . S
O25 Gd1 2.327 . S
O25 C10 1.257 . S
O26 Gd1 2.377 1_556 S
O26 C11 1.240 . S
O27 Gd0 2.395 . S
O27 C11 1.240 1_554 S
O28 Gd1 2.448 1_556 S
O28 C12 1.249 . S
O29 Gd1 2.506 1_556 S
O29 C12 1.252 . S
O30 Gd1 2.435 . S
O30 C19 1.256 . S
O31 Gd0 2.327 . S
O31 Gd1 2.717 . S
O31 C19 1.257 . S
H32 C5 0.930 . S
H33 C6 0.931 . S
H34 C8 0.931 . S
H35 C9 0.931 . S
H36 C14 0.930 . S
H37 C15 0.931 . S
H38 C17 0.931 . S
H39 C18 0.931 . S
Gd40 C43 2.818 . S
Gd40 O60 2.377 . S
Gd40 O62 2.448 . S
Gd40 O63 2.506 . S
Gd40 O64 2.435 . S
Gd40 O65 2.717 . S
Gd40 O67 2.395 . S
Gd40 O71 2.327 . S
Gd41 C52 2.818 . S
Gd41 O61 2.395 . S
Gd41 O65 2.327 . S
Gd41 O66 2.377 . S
Gd41 O68 2.448 . S
Gd41 O69 2.506 . S
Gd41 O70 2.435 . S
Gd41 O71 2.717 . S
C42 O60 1.240 . S
C42 O61 1.240 . S
C43 Gd40 2.818 . S
C43 C44 1.510 . S
C43 O62 1.249 . S
C43 O63 1.252 . S
C44 C43 1.510 . S
C44 C45 1.404 . S
C44 C46 1.352 . S
C45 C44 1.404 . S
C45 C49 1.389 . S
C45 H72 0.930 . S
C46 C44 1.352 . S
C46 C48 1.374 . S
C46 H73 0.931 . S
C47 C48 1.359 . S
C47 C49 1.364 . S
C48 C46 1.374 . S
C48 C47 1.359 . S
C48 H74 0.931 . S
C49 C45 1.389 . S
C49 C47 1.364 . S
C49 H75 0.931 . S
C50 O64 1.256 . S
C50 O65 1.257 . S
C51 O66 1.240 . S
C51 O67 1.240 . S
C52 Gd41 2.818 . S
C52 C53 1.510 . S
C52 O68 1.249 . S
C52 O69 1.252 . S
C53 C52 1.510 . S
C53 C54 1.404 . S
C53 C55 1.352 1_655 S
C54 C53 1.404 . S
C54 C58 1.389 . S
C54 H76 0.930 . S
C55 C53 1.352 1_455 S
C55 C57 1.374 . S
C55 H77 0.931 . S
C56 C57 1.359 . S
C56 C58 1.364 1_455 S
C57 C55 1.374 . S
C57 C56 1.359 . S
C57 H78 0.931 . S
C58 C54 1.389 . S
C58 C56 1.364 1_655 S
C58 H79 0.931 . S
C59 O70 1.256 . S
C59 O71 1.257 . S
O60 Gd40 2.377 . S
O60 C42 1.240 . S
O61 Gd41 2.395 . S
O61 C42 1.240 . S
O62 Gd40 2.448 . S
O62 C43 1.249 . S
O63 Gd40 2.506 . S
O63 C43 1.252 . S
O64 Gd40 2.435 . S
O64 C50 1.256 . S
O65 Gd40 2.717 . S
O65 Gd41 2.327 . S
O65 C50 1.257 . S
O66 Gd41 2.377 . S
O66 C51 1.240 . S
O67 Gd40 2.395 . S
O67 C51 1.240 . S
O68 Gd41 2.448 . S
O68 C52 1.249 . S
O69 Gd41 2.506 . S
O69 C52 1.252 . S
O70 Gd41 2.435 . S
O70 C59 1.256 . S
O71 Gd40 2.327 . S
O71 Gd41 2.717 . S
O71 C59 1.257 . S
H72 C45 0.930 . S
H73 C46 0.931 . S
H74 C48 0.931 . S
H75 C49 0.931 . S
H76 C54 0.930 . S
H77 C55 0.931 . S
H78 C57 0.931 . S
H79 C58 0.931 . S
Gd80 C83 2.818 . S
Gd80 O100 2.377 . S
Gd80 O102 2.448 . S
Gd80 O103 2.506 . S
Gd80 O104 2.435 . S
Gd80 O105 2.717 . S
Gd80 O107 2.395 . S
Gd80 O111 2.327 . S
Gd81 C92 2.818 . S
Gd81 O101 2.395 . S
Gd81 O105 2.327 . S
Gd81 O106 2.377 . S
Gd81 O108 2.448 . S
Gd81 O109 2.506 . S
Gd81 O110 2.435 . S
Gd81 O111 2.717 . S
C82 O100 1.240 . S
C82 O101 1.240 . S
C83 Gd80 2.818 . S
C83 C84 1.510 . S
C83 O102 1.249 . S
C83 O103 1.252 . S
C84 C83 1.510 . S
C84 C85 1.404 . S
C84 C86 1.352 . S
C85 C84 1.404 . S
C85 C89 1.389 . S
C85 H112 0.930 . S
C86 C84 1.352 . S
C86 C88 1.374 . S
C86 H113 0.931 . S
C87 C88 1.359 . S
C87 C89 1.364 . S
C88 C86 1.374 . S
C88 C87 1.359 . S
C88 H114 0.931 . S
C89 C85 1.389 . S
C89 C87 1.364 . S
C89 H115 0.931 . S
C90 O104 1.256 . S
C90 O105 1.257 . S
C91 O106 1.240 . S
C91 O107 1.240 . S
C92 Gd81 2.818 . S
C92 C93 1.510 . S
C92 O108 1.249 . S
C92 O109 1.252 . S
C93 C92 1.510 . S
C93 C94 1.404 . S
C93 C95 1.352 1_565 S
C94 C93 1.404 . S
C94 C98 1.389 . S
C94 H116 0.930 . S
C95 C93 1.352 1_545 S
C95 C97 1.374 . S
C95 H117 0.931 . S
C96 C97 1.359 . S
C96 C98 1.364 1_545 S
C97 C95 1.374 . S
C97 C96 1.359 . S
C97 H118 0.931 . S
C98 C94 1.389 . S
C98 C96 1.364 1_565 S
C98 H119 0.931 . S
C99 O110 1.256 . S
C99 O111 1.257 . S
O100 Gd80 2.377 . S
O100 C82 1.240 . S
O101 Gd81 2.395 . S
O101 C82 1.240 . S
O102 Gd80 2.448 . S
O102 C83 1.249 . S
O103 Gd80 2.506 . S
O103 C83 1.252 . S
O104 Gd80 2.435 . S
O104 C90 1.256 . S
O105 Gd80 2.717 . S
O105 Gd81 2.327 . S
O105 C90 1.257 . S
O106 Gd81 2.377 . S
O106 C91 1.240 . S
O107 Gd80 2.395 . S
O107 C91 1.240 . S
O108 Gd81 2.448 . S
O108 C92 1.249 . S
O109 Gd81 2.506 . S
O109 C92 1.252 . S
O110 Gd81 2.435 . S
O110 C99 1.256 . S
O111 Gd80 2.327 . S
O111 Gd81 2.717 . S
O111 C99 1.257 . S
H112 C85 0.930 . S
H113 C86 0.931 . S
H114 C88 0.931 . S
H115 C89 0.931 . S
H116 C94 0.930 . S
H117 C95 0.931 . S
H118 C97 0.931 . S
H119 C98 0.931 . S
Gd120 C123 2.818 . S
Gd120 O140 2.377 . S
Gd120 O142 2.448 . S
Gd120 O143 2.506 . S
Gd120 O144 2.435 . S
Gd120 O145 2.717 . S
Gd120 O147 2.395 . S
Gd120 O151 2.327 . S
Gd121 C132 2.818 1_554 S
Gd121 O141 2.395 . S
Gd121 O145 2.327 . S
Gd121 O146 2.377 1_554 S
Gd121 O148 2.448 1_554 S
Gd121 O149 2.506 1_554 S
Gd121 O150 2.435 . S
Gd121 O151 2.717 . S
C122 O140 1.240 . S
C122 O141 1.240 . S
C123 Gd120 2.818 . S
C123 C124 1.510 . S
C123 O142 1.249 . S
C123 O143 1.252 . S
C124 C123 1.510 . S
C124 C125 1.404 . S
C124 C126 1.352 . S
C125 C124 1.404 . S
C125 C129 1.389 . S
C125 H152 0.930 . S
C126 C124 1.352 . S
C126 C128 1.374 . S
C126 H153 0.931 . S
C127 C128 1.359 . S
C127 C129 1.364 . S
C128 C126 1.374 . S
C128 C127 1.359 . S
C128 H154 0.931 . S
C129 C125 1.389 . S
C129 C127 1.364 . S
C129 H155 0.931 . S
C130 O144 1.256 . S
C130 O145 1.257 . S
C131 O146 1.240 . S
C131 O147 1.240 1_556 S
C132 Gd121 2.818 1_556 S
C132 C133 1.510 . S
C132 O148 1.249 . S
C132 O149 1.252 . S
C133 C132 1.510 . S
C133 C134 1.404 . S
C133 C135 1.352 . S
C134 C133 1.404 . S
C134 C138 1.389 . S
C134 H156 0.930 . S
C135 C133 1.352 . S
C135 C137 1.374 . S
C135 H157 0.931 . S
C136 C137 1.359 . S
C136 C138 1.364 . S
C137 C135 1.374 . S
C137 C136 1.359 . S
C137 H158 0.931 . S
C138 C134 1.389 . S
C138 C136 1.364 . S
C138 H159 0.931 . S
C139 O150 1.256 . S
C139 O151 1.257 . S
O140 Gd120 2.377 . S
O140 C122 1.240 . S
O141 Gd121 2.395 . S
O141 C122 1.240 . S
O142 Gd120 2.448 . S
O142 C123 1.249 . S
O143 Gd120 2.506 . S
O143 C123 1.252 . S
O144 Gd120 2.435 . S
O144 C130 1.256 . S
O145 Gd120 2.717 . S
O145 Gd121 2.327 . S
O145 C130 1.257 . S
O146 Gd121 2.377 1_556 S
O146 C131 1.240 . S
O147 Gd120 2.395 . S
O147 C131 1.240 1_554 S
O148 Gd121 2.448 1_556 S
O148 C132 1.249 . S
O149 Gd121 2.506 1_556 S
O149 C132 1.252 . S
O150 Gd121 2.435 . S
O150 C139 1.256 . S
O151 Gd120 2.327 . S
O151 Gd121 2.717 . S
O151 C139 1.257 . S
H152 C125 0.930 . S
H153 C126 0.931 . S
H154 C128 0.931 . S
H155 C129 0.931 . S
H156 C134 0.930 . S
H157 C135 0.931 . S
H158 C137 0.931 . S
H159 C138 0.931 . S
Gd160 C163 2.818 . S
Gd160 O180 2.377 . S
Gd160 O182 2.448 . S
Gd160 O183 2.506 . S
Gd160 O184 2.435 . S
Gd160 O185 2.717 . S
Gd160 O187 2.395 . S
Gd160 O191 2.327 . S
Gd161 C172 2.818 . S
Gd161 O181 2.395 . S
Gd161 O185 2.327 . S
Gd161 O186 2.377 . S
Gd161 O188 2.448 . S
Gd161 O189 2.506 . S
Gd161 O190 2.435 . S
Gd161 O191 2.717 . S
C162 O180 1.240 . S
C162 O181 1.240 . S
C163 Gd160 2.818 . S
C163 C164 1.510 . S
C163 O182 1.249 . S
C163 O183 1.252 . S
C164 C163 1.510 . S
C164 C165 1.404 . S
C164 C166 1.352 . S
C165 C164 1.404 . S
C165 C169 1.389 . S
C165 H192 0.930 . S
C166 C164 1.352 . S
C166 C168 1.374 . S
C166 H193 0.931 . S
C167 C168 1.359 . S
C167 C169 1.364 . S
C168 C166 1.374 . S
C168 C167 1.359 . S
C168 H194 0.931 . S
C169 C165 1.389 . S
C169 C167 1.364 . S
C169 H195 0.931 . S
C170 O184 1.256 . S
C170 O185 1.257 . S
C171 O186 1.240 . S
C171 O187 1.240 . S
C172 Gd161 2.818 . S
C172 C173 1.510 . S
C172 O188 1.249 . S
C172 O189 1.252 . S
C173 C172 1.510 . S
C173 C174 1.404 . S
C173 C175 1.352 1_455 S
C174 C173 1.404 . S
C174 C178 1.389 . S
C174 H196 0.930 . S
C175 C173 1.352 1_655 S
C175 C177 1.374 . S
C175 H197 0.931 . S
C176 C177 1.359 . S
C176 C178 1.364 1_655 S
C177 C175 1.374 . S
C177 C176 1.359 . S
C177 H198 0.931 . S
C178 C174 1.389 . S
C178 C176 1.364 1_455 S
C178 H199 0.931 . S
C179 O190 1.256 . S
C179 O191 1.257 . S
O180 Gd160 2.377 . S
O180 C162 1.240 . S
O181 Gd161 2.395 . S
O181 C162 1.240 . S
O182 Gd160 2.448 . S
O182 C163 1.249 . S
O183 Gd160 2.506 . S
O183 C163 1.252 . S
O184 Gd160 2.435 . S
O184 C170 1.256 . S
O185 Gd160 2.717 . S
O185 Gd161 2.327 . S
O185 C170 1.257 . S
O186 Gd161 2.377 . S
O186 C171 1.240 . S
O187 Gd160 2.395 . S
O187 C171 1.240 . S
O188 Gd161 2.448 . S
O188 C172 1.249 . S
O189 Gd161 2.506 . S
O189 C172 1.252 . S
O190 Gd161 2.435 . S
O190 C179 1.256 . S
O191 Gd160 2.327 . S
O191 Gd161 2.717 . S
O191 C179 1.257 . S
H192 C165 0.930 . S
H193 C166 0.931 . S
H194 C168 0.931 . S
H195 C169 0.931 . S
H196 C174 0.930 . S
H197 C175 0.931 . S
H198 C177 0.931 . S
H199 C178 0.931 . S
Gd200 C203 2.818 . S
Gd200 O220 2.377 . S
Gd200 O222 2.448 . S
Gd200 O223 2.506 . S
Gd200 O224 2.435 . S
Gd200 O225 2.717 . S
Gd200 O227 2.395 . S
Gd200 O231 2.327 . S
Gd201 C212 2.818 . S
Gd201 O221 2.395 . S
Gd201 O225 2.327 . S
Gd201 O226 2.377 . S
Gd201 O228 2.448 . S
Gd201 O229 2.506 . S
Gd201 O230 2.435 . S
Gd201 O231 2.717 . S
C202 O220 1.240 . S
C202 O221 1.240 . S
C203 Gd200 2.818 . S
C203 C204 1.510 . S
C203 O222 1.249 . S
C203 O223 1.252 . S
C204 C203 1.510 . S
C204 C205 1.404 . S
C204 C206 1.352 . S
C205 C204 1.404 . S
C205 C209 1.389 . S
C205 H232 0.930 . S
C206 C204 1.352 . S
C206 C208 1.374 . S
C206 H233 0.931 . S
C207 C208 1.359 . S
C207 C209 1.364 . S
C208 C206 1.374 . S
C208 C207 1.359 . S
C208 H234 0.931 . S
C209 C205 1.389 . S
C209 C207 1.364 . S
C209 H235 0.931 . S
C210 O224 1.256 . S
C210 O225 1.257 . S
C211 O226 1.240 . S
C211 O227 1.240 . S
C212 Gd201 2.818 . S
C212 C213 1.510 . S
C212 O228 1.249 . S
C212 O229 1.252 . S
C213 C212 1.510 . S
C213 C214 1.404 . S
C213 C215 1.352 1_545 S
C214 C213 1.404 . S
C214 C218 1.389 . S
C214 H236 0.930 . S
C215 C213 1.352 1_565 S
C215 C217 1.374 . S
C215 H237 0.931 . S
C216 C217 1.359 . S
C216 C218 1.364 1_565 S
C217 C215 1.374 . S
C217 C216 1.359 . S
C217 H238 0.931 . S
C218 C214 1.389 . S
C218 C216 1.364 1_545 S
C218 H239 0.931 . S
C219 O230 1.256 . S
C219 O231 1.257 . S
O220 Gd200 2.377 . S
O220 C202 1.240 . S
O221 Gd201 2.395 . S
O221 C202 1.240 . S
O222 Gd200 2.448 . S
O222 C203 1.249 . S
O223 Gd200 2.506 . S
O223 C203 1.252 . S
O224 Gd200 2.435 . S
O224 C210 1.256 . S
O225 Gd200 2.717 . S
O225 Gd201 2.327 . S
O225 C210 1.257 . S
O226 Gd201 2.377 . S
O226 C211 1.240 . S
O227 Gd200 2.395 . S
O227 C211 1.240 . S
O228 Gd201 2.448 . S
O228 C212 1.249 . S
O229 Gd201 2.506 . S
O229 C212 1.252 . S
O230 Gd201 2.435 . S
O230 C219 1.256 . S
O231 Gd200 2.327 . S
O231 Gd201 2.717 . S
O231 C219 1.257 . S
H232 C205 0.930 . S
H233 C206 0.931 . S
H234 C208 0.931 . S
H235 C209 0.931 . S
H236 C214 0.930 . S
H237 C215 0.931 . S
H238 C217 0.931 . S
H239 C218 0.931 . S
C240 C241 1.369 . S
C240 C242 1.419 . S
C240 H244 0.930 . S
C241 C240 1.369 . S
C241 C250 1.429 . S
C242 C240 1.419 . S
C242 C243 1.363 . S
C242 H245 0.929 . S
C243 C242 1.363 . S
C243 C249 1.428 . S
H244 C240 0.930 . S
H245 C242 0.929 . S
S246 N247 1.613 . S
S246 N248 1.610 . S
N247 S246 1.613 . S
N247 C250 1.350 . S
N248 S246 1.610 . S
N248 C249 1.351 . S
C249 C243 1.428 . S
C249 N248 1.351 . S
C249 C250 1.434 . S
C250 C241 1.429 . S
C250 N247 1.350 . S
C250 C249 1.434 . S
C251 C252 1.369 . S
C251 C253 1.419 . S
C251 H255 0.930 . S
C252 C251 1.369 . S
C252 C261 1.429 . S
C253 C251 1.419 . S
C253 C254 1.363 . S
C253 H256 0.929 . S
C254 C253 1.363 . S
C254 C260 1.428 . S
H255 C251 0.930 . S
H256 C253 0.929 . S
S257 N258 1.613 . S
S257 N259 1.610 . S
N258 S257 1.613 . S
N258 C261 1.350 . S
N259 S257 1.610 . S
N259 C260 1.351 . S
C260 C254 1.428 . S
C260 N259 1.351 . S
C260 C261 1.434 . S
C261 C252 1.429 . S
C261 N258 1.350 . S
C261 C260 1.434 . S
C262 C263 1.369 . S
C262 C264 1.419 . S
C262 H266 0.930 . S
C263 C262 1.369 . S
C263 C272 1.429 . S
C264 C262 1.419 . S
C264 C265 1.363 . S
C264 H267 0.929 . S
C265 C264 1.363 . S
C265 C271 1.428 . S
H266 C262 0.930 . S
H267 C264 0.929 . S
S268 N269 1.613 . S
S268 N270 1.610 . S
N269 S268 1.613 . S
N269 C272 1.350 . S
N270 S268 1.610 . S
N270 C271 1.351 . S
C271 C265 1.428 . S
C271 N270 1.351 . S
C271 C272 1.434 . S
C272 C263 1.429 . S
C272 N269 1.350 . S
C272 C271 1.434 . S
C273 C274 1.369 . S
C273 C275 1.419 . S
C273 H277 0.930 . S
C274 C273 1.369 . S
C274 C283 1.429 . S
C275 C273 1.419 . S
C275 C276 1.363 . S
C275 H278 0.929 . S
C276 C275 1.363 . S
C276 C282 1.428 . S
H277 C273 0.930 . S
H278 C275 0.929 . S
S279 N280 1.613 . S
S279 N281 1.610 . S
N280 S279 1.613 . S
N280 C283 1.350 . S
N281 S279 1.610 . S
N281 C282 1.351 . S
C282 C276 1.428 . S
C282 N281 1.351 . S
C282 C283 1.434 . S
C283 C274 1.429 . S
C283 N280 1.350 . S
C283 C282 1.434 . S
C284 C285 1.369 . S
C284 C286 1.419 . S
C284 H288 0.930 . S
C285 C284 1.369 . S
C285 C294 1.429 . S
C286 C284 1.419 . S
C286 C287 1.363 . S
C286 H289 0.929 . S
C287 C286 1.363 . S
C287 C293 1.428 . S
H288 C284 0.930 . S
H289 C286 0.929 . S
S290 N291 1.613 . S
S290 N292 1.610 . S
N291 S290 1.613 . S
N291 C294 1.350 . S
N292 S290 1.610 . S
N292 C293 1.351 . S
C293 C287 1.428 . S
C293 N292 1.351 . S
C293 C294 1.434 . S
C294 C285 1.429 . S
C294 N291 1.350 . S
C294 C293 1.434 . S
C295 C296 1.369 . S
C295 C297 1.419 . S
C295 H299 0.930 . S
C296 C295 1.369 . S
C296 C305 1.429 . S
C297 C295 1.419 . S
C297 C298 1.363 . S
C297 H300 0.929 . S
C298 C297 1.363 . S
C298 C304 1.428 . S
H299 C295 0.930 . S
H300 C297 0.929 . S
S301 N302 1.613 . S
S301 N303 1.610 . S
N302 S301 1.613 . S
N302 C305 1.350 . S
N303 S301 1.610 . S
N303 C304 1.351 . S
C304 C298 1.428 . S
C304 N303 1.351 . S
C304 C305 1.434 . S
C305 C296 1.429 . S
C305 N302 1.350 . S
C305 C304 1.434 . S
C306 C307 1.369 . S
C306 C308 1.419 . S
C306 H310 0.930 . S
C307 C306 1.369 . S
C307 C316 1.429 . S
C308 C306 1.419 . S
C308 C309 1.363 . S
C308 H311 0.929 . S
C309 C308 1.363 . S
C309 C315 1.428 . S
H310 C306 0.930 . S
H311 C308 0.929 . S
S312 N313 1.613 . S
S312 N314 1.610 . S
N313 S312 1.613 . S
N313 C316 1.350 . S
N314 S312 1.610 . S
N314 C315 1.351 . S
C315 C309 1.428 . S
C315 N314 1.351 . S
C315 C316 1.434 . S
C316 C307 1.429 . S
C316 N313 1.350 . S
C316 C315 1.434 . S
C317 C318 1.369 1_655 S
C317 C319 1.419 . S
C317 H321 0.930 . S
C318 C317 1.369 1_455 S
C318 C327 1.429 . S
C319 C317 1.419 . S
C319 C320 1.363 . S
C319 H322 0.929 . S
C320 C319 1.363 . S
C320 C326 1.428 1_655 S
H321 C317 0.930 . S
H322 C319 0.929 . S
S323 N324 1.613 . S
S323 N325 1.610 . S
N324 S323 1.613 . S
N324 C327 1.350 . S
N325 S323 1.610 . S
N325 C326 1.351 . S
C326 C320 1.428 1_455 S
C326 N325 1.351 . S
C326 C327 1.434 . S
C327 C318 1.429 . S
C327 N324 1.350 . S
C327 C326 1.434 . S
C328 C329 1.369 . S
C328 C330 1.419 . S
C328 H332 0.930 . S
C329 C328 1.369 . S
C329 C338 1.429 1_545 S
C330 C328 1.419 . S
C330 C331 1.363 1_545 S
C330 H333 0.929 . S
C331 C330 1.363 1_565 S
C331 C337 1.428 . S
H332 C328 0.930 . S
H333 C330 0.929 . S
S334 N335 1.613 . S
S334 N336 1.610 . S
N335 S334 1.613 . S
N335 C338 1.350 . S
N336 S334 1.610 . S
N336 C337 1.351 . S
C337 C331 1.428 . S
C337 N336 1.351 . S
C337 C338 1.434 . S
C338 C329 1.429 1_565 S
C338 N335 1.350 . S
C338 C337 1.434 . S
C339 C340 1.369 . S
C339 C341 1.419 . S
C339 H343 0.930 . S
C340 C339 1.369 . S
C340 C349 1.429 . S
C341 C339 1.419 . S
C341 C342 1.363 . S
C341 H344 0.929 . S
C342 C341 1.363 . S
C342 C348 1.428 . S
H343 C339 0.930 . S
H344 C341 0.929 . S
S345 N346 1.613 . S
S345 N347 1.610 . S
N346 S345 1.613 . S
N346 C349 1.350 . S
N347 S345 1.610 . S
N347 C348 1.351 . S
C348 C342 1.428 . S
C348 N347 1.351 . S
C348 C349 1.434 . S
C349 C340 1.429 . S
C349 N346 1.350 . S
C349 C348 1.434 . S
C350 C351 1.369 . S
C350 C352 1.419 . S
C350 H354 0.930 . S
C351 C350 1.369 . S
C351 C360 1.429 1_455 S
C352 C350 1.419 . S
C352 C353 1.363 1_455 S
C352 H355 0.929 . S
C353 C352 1.363 1_655 S
C353 C359 1.428 . S
H354 C350 0.930 . S
H355 C352 0.929 . S
S356 N357 1.613 . S
S356 N358 1.610 . S
N357 S356 1.613 . S
N357 C360 1.350 1_556 S
N358 S356 1.610 . S
N358 C359 1.351 1_556 S
C359 C353 1.428 . S
C359 N358 1.351 1_554 S
C359 C360 1.434 . S
C360 C351 1.429 1_655 S
C360 N357 1.350 1_554 S
C360 C359 1.434 . S
C361 C362 1.369 . S
C361 C363 1.419 . S
C361 H365 0.930 . S
C362 C361 1.369 . S
C362 C371 1.429 1_565 S
C363 C361 1.419 . S
C363 C364 1.363 1_565 S
C363 H366 0.929 . S
C364 C363 1.363 1_545 S
C364 C370 1.428 . S
H365 C361 0.930 . S
H366 C363 0.929 . S
S367 N368 1.613 . S
S367 N369 1.610 . S
N368 S367 1.613 . S
N368 C371 1.350 . S
N369 S367 1.610 . S
N369 C370 1.351 . S
C370 C364 1.428 . S
C370 N369 1.351 . S
C370 C371 1.434 . S
C371 C362 1.429 1_545 S
C371 N368 1.350 . S
C371 C370 1.434 . S
C372 C373 1.369 . S
C372 C374 1.419 . S
C372 H376 0.930 . S
C373 C372 1.369 . S
C373 C382 1.429 . S
C374 C372 1.419 . S
C374 C375 1.363 . S
C374 H377 0.929 . S
C375 C374 1.363 . S
C375 C381 1.428 . S
H376 C372 0.930 . S
H377 C374 0.929 . S
S378 N379 1.613 . S
S378 N380 1.610 . S
N379 S378 1.613 . S
N379 C382 1.350 . S
N380 S378 1.610 . S
N380 C381 1.351 . S
C381 C375 1.428 . S
C381 N380 1.351 . S
C381 C382 1.434 . S
C382 C373 1.429 . S
C382 N379 1.350 . S
C382 C381 1.434 . S
C383 C384 1.369 . S
C383 C385 1.419 . S
C383 H387 0.930 . S
C384 C383 1.369 . S
C384 C393 1.429 . S
C385 C383 1.419 . S
C385 C386 1.363 . S
C385 H388 0.929 . S
C386 C385 1.363 . S
C386 C392 1.428 . S
H387 C383 0.930 . S
H388 C385 0.929 . S
S389 N390 1.613 . S
S389 N391 1.610 . S
N390 S389 1.613 . S
N390 C393 1.350 . S
N391 S389 1.610 . S
N391 C392 1.351 . S
C392 C386 1.428 . S
C392 N391 1.351 . S
C392 C393 1.434 . S
C393 C384 1.429 . S
C393 N390 1.350 . S
C393 C392 1.434 . S
C394 C395 1.369 . S
C394 C396 1.419 . S
C394 H398 0.930 1_545 S
C395 C394 1.369 . S
C395 C404 1.429 . S
C396 C394 1.419 . S
C396 C397 1.363 . S
C396 H399 0.929 1_545 S
C397 C396 1.363 . S
C397 C403 1.428 . S
H398 C394 0.930 1_565 S
H399 C396 0.929 1_565 S
S400 N401 1.613 . S
S400 N402 1.610 . S
N401 S400 1.613 . S
N401 C404 1.350 . S
N402 S400 1.610 . S
N402 C403 1.351 . S
C403 C397 1.428 . S
C403 N402 1.351 . S
C403 C404 1.434 . S
C404 C395 1.429 . S
C404 N401 1.350 . S
C404 C403 1.434 . S
C405 C406 1.369 . S
C405 C407 1.419 . S
C405 H409 0.930 . S
C406 C405 1.369 . S
C406 C415 1.429 . S
C407 C405 1.419 . S
C407 C408 1.363 . S
C407 H410 0.929 . S
C408 C407 1.363 . S
C408 C414 1.428 . S
H409 C405 0.930 . S
H410 C407 0.929 . S
S411 N412 1.613 . S
S411 N413 1.610 . S
N412 S411 1.613 . S
N412 C415 1.350 . S
N413 S411 1.610 . S
N413 C414 1.351 . S
C414 C408 1.428 . S
C414 N413 1.351 . S
C414 C415 1.434 . S
C415 C406 1.429 . S
C415 N412 1.350 . S
C415 C414 1.434 . S
C416 C417 1.369 . S
C416 C418 1.419 . S
C416 H420 0.930 . S
C417 C416 1.369 . S
C417 C426 1.429 . S
C418 C416 1.419 . S
C418 C419 1.363 . S
C418 H421 0.929 . S
C419 C418 1.363 . S
C419 C425 1.428 . S
H420 C416 0.930 . S
H421 C418 0.929 . S
S422 N423 1.613 . S
S422 N424 1.610 . S
N423 S422 1.613 . S
N423 C426 1.350 . S
N424 S422 1.610 . S
N424 C425 1.351 . S
C425 C419 1.428 . S
C425 N424 1.351 . S
C425 C426 1.434 . S
C426 C417 1.429 . S
C426 N423 1.350 . S
C426 C425 1.434 . S
C427 C428 1.369 . S
C427 C429 1.419 . S
C427 H431 0.930 . S
C428 C427 1.369 . S
C428 C437 1.429 . S
C429 C427 1.419 . S
C429 C430 1.363 . S
C429 H432 0.929 . S
C430 C429 1.363 . S
C430 C436 1.428 . S
H431 C427 0.930 . S
H432 C429 0.929 . S
S433 N434 1.613 . S
S433 N435 1.610 . S
N434 S433 1.613 . S
N434 C437 1.350 1_545 S
N435 S433 1.610 . S
N435 C436 1.351 1_545 S
C436 C430 1.428 . S
C436 N435 1.351 1_565 S
C436 C437 1.434 . S
C437 C428 1.429 . S
C437 N434 1.350 1_565 S
C437 C436 1.434 . S
C241 C171 1.237 . S
C243 C7 1.241 . S
C252 C211 1.238 . S
C254 C47 1.241 . S
C263 C11 1.235 . S
C265 C87 1.241 . S
C274 C51 1.236 . S
C276 C127 1.241 . S
C285 C91 1.234 . S
C287 C167 1.242 . S
C296 C131 1.234 . S
C298 C207 1.242 . S
C307 C10 1.296 . S
C309 C130 1.312 . S
C318 C170 1.299 . S
C320 C50 1.309 . S
C329 C210 1.315 . S
C331 C90 1.299 . S
C340 C99 1.543 . S
C342 C219 1.538 . S
C351 C19 1.538 . S
C353 C139 1.537 . S
C362 C179 1.540 . S
C364 C59 1.538 . S
C373 C202 1.425 . S
C375 C16 1.365 . S
C384 C56 1.374 . S
C386 C2 1.422 . S
C395 C96 1.368 . S
C397 C42 1.422 . S
C406 C82 1.425 . S
C408 C136 1.368 . S
C417 C176 1.373 . S
C419 C122 1.422 . S
C428 C216 1.367 . S
C430 C162 1.425 . S
