# Generated by pormake.
# Topology snk, (6)-cn, num edge types: 1
# Building blocks:
#     Node 0, Type 0, BuildingBlock: JUFBIX_clean_sbu_0, # of connection points: 6
#     Node 1, Type 0, BuildingBlock: JUFBIX_clean_sbu_0, # of connection points: 6
#     Node 2, Type 0, BuildingBlock: JUFBIX_clean_sbu_0, # of connection points: 6
#     Node 3, Type 0, BuildingBlock: JUFBIX_clean_sbu_0, # of connection points: 6
#     Node 4, Type 0, BuildingBlock: JUFBIX_clean_sbu_0, # of connection points: 6
#     Node 5, Type 0, BuildingBlock: JUFBIX_clean_sbu_0, # of connection points: 6
#     Node 6, Type 0, BuildingBlock: JUFBIX_clean_sbu_0, # of connection points: 6
#     Node 7, Type 0, BuildingBlock: JUFBIX_clean_sbu_0, # of connection points: 6
#     Edge 8, Type (0, 0), BuildingBlock: CIFDUS_clean_linker_0, # of connection points: 2
#     Edge 9, Type (0, 0), BuildingBlock: CIFDUS_clean_linker_0, # of connection points: 2
#     Edge 10, Type (0, 0), BuildingBlock: CIFDUS_clean_linker_0, # of connection points: 2
#     Edge 11, Type (0, 0), BuildingBlock: CIFDUS_clean_linker_0, # of connection points: 2
#     Edge 12, Type (0, 0), BuildingBlock: CIFDUS_clean_linker_0, # of connection points: 2
#     Edge 13, Type (0, 0), BuildingBlock: CIFDUS_clean_linker_0, # of connection points: 2
#     Edge 14, Type (0, 0), BuildingBlock: CIFDUS_clean_linker_0, # of connection points: 2
#     Edge 15, Type (0, 0), BuildingBlock: CIFDUS_clean_linker_0, # of connection points: 2
#     Edge 16, Type (0, 0), BuildingBlock: CIFDUS_clean_linker_0, # of connection points: 2
#     Edge 17, Type (0, 0), BuildingBlock: CIFDUS_clean_linker_0, # of connection points: 2
#     Edge 18, Type (0, 0), BuildingBlock: CIFDUS_clean_linker_0, # of connection points: 2
#     Edge 19, Type (0, 0), BuildingBlock: CIFDUS_clean_linker_0, # of connection points: 2
#     Edge 20, Type (0, 0), BuildingBlock: CIFDUS_clean_linker_0, # of connection points: 2
#     Edge 21, Type (0, 0), BuildingBlock: CIFDUS_clean_linker_0, # of connection points: 2
#     Edge 22, Type (0, 0), BuildingBlock: CIFDUS_clean_linker_0, # of connection points: 2
#     Edge 23, Type (0, 0), BuildingBlock: CIFDUS_clean_linker_0, # of connection points: 2
#     Edge 24, Type (0, 0), BuildingBlock: CIFDUS_clean_linker_0, # of connection points: 2
#     Edge 25, Type (0, 0), BuildingBlock: CIFDUS_clean_linker_0, # of connection points: 2
#     Edge 26, Type (0, 0), BuildingBlock: CIFDUS_clean_linker_0, # of connection points: 2
#     Edge 27, Type (0, 0), BuildingBlock: CIFDUS_clean_linker_0, # of connection points: 2
#     Edge 28, Type (0, 0), BuildingBlock: CIFDUS_clean_linker_0, # of connection points: 2
#     Edge 29, Type (0, 0), BuildingBlock: CIFDUS_clean_linker_0, # of connection points: 2
#     Edge 30, Type (0, 0), BuildingBlock: CIFDUS_clean_linker_0, # of connection points: 2
#     Edge 31, Type (0, 0), BuildingBlock: CIFDUS_clean_linker_0, # of connection points: 2
# Relax obj value: 0.155
# Max RMSD: 0.111
# Mean RMSD: 0.073
data_MOF--net-snk--node1-JUFBIX_clean_sbu_0--edge1-CIFDUS_clean_linker_0
_symmetry_space_group_name_H-M    P1
_symmetry_Int_Tables_number       1
_symmetry_cell_setting            triclinic
loop_
_symmetry_equiv_pos_as_xyz
'x, y, z'
_cell_length_a     41.026184
_cell_length_b     41.341866
_cell_length_c     13.071434
_cell_angle_alpha  102.64453
_cell_angle_beta   102.86962
_cell_angle_gamma 93.590906
loop_
_atom_site_label
_atom_site_type_symbol
_atom_site_fract_x
_atom_site_fract_y
_atom_site_fract_z
_atom_type_partial_charge
Co0 Co 1.03403 1.02401 0.45484 0.0
C1 C 1.01752 0.08711 0.46494 0.0
Co2 Co 0.07963 0.0591 0.50077 0.0
C3 C 0.99361 0.96958 0.47702 0.0
C4 C 0.97022 0.9871 0.33914 0.0
N5 N 0.99818 0.99216 0.42045 0.0
N6 N 0.96356 0.951 0.43615 0.0
C7 C 0.94873 0.96164 0.3487 0.0
H8 H 1.01159 0.96757 0.54913 0.0
H9 H 0.96526 1.00182 0.27957 0.0
C10 C 0.09592 0.99596 0.4909 0.0
N11 N 0.11471 0.0919 0.53085 0.0
C12 C 0.11259 0.11539 0.47436 0.0
C13 C 0.14563 0.09899 0.59878 0.0
N14 N 0.14077 0.13654 0.50102 0.0
C15 C 0.16191 0.12679 0.58035 0.0
C16 C 0.05953 0.04907 0.67905 0.0
O17 O 0.06392 0.99039 0.46499 0.0
O18 O 0.10964 1.02577 0.5093 0.0
O19 O 0.08192 0.06499 0.64994 0.0
O20 O 1.03577 1.0303 0.60665 0.0
O21 O 1.04938 0.09255 0.49318 0.0
H22 H 0.15589 0.08447 0.65527 0.0
H23 H 0.09071 0.1165 0.41182 0.0
O24 O 1.0039 0.0573 0.44427 0.0
O25 O 1.03228 1.01781 0.30556 0.0
O26 O 0.07762 0.05313 0.34892 0.0
C27 C 0.05428 1.0341 0.27643 0.0
H28 H 0.92344 0.95311 0.29952 0.0
H29 H 0.18757 0.13788 0.61827 0.0
Co30 Co 0.32737 0.76994 0.76484 0.0
C31 C 0.26009 0.73888 0.70333 0.0
Co32 Co 0.2904 0.80637 0.7477 0.0
C33 C 0.38395 0.73718 0.85718 0.0
C34 C 0.356 0.70996 0.69974 0.0
N35 N 0.35807 0.73879 0.77427 0.0
N36 N 0.39758 0.70819 0.83753 0.0
C37 C 0.3801 0.69111 0.73844 0.0
H38 H 0.39156 0.7561 0.93241 0.0
H39 H 0.3373 0.70255 0.62358 0.0
C40 C 0.35854 0.83639 0.80829 0.0
N41 N 0.25793 0.83622 0.73884 0.0
C42 C 0.25166 0.85999 0.68229 0.0
C43 C 0.2319 0.83467 0.7858 0.0
N44 N 0.2225 0.87272 0.69172 0.0
C45 C 0.21025 0.85685 0.7571 0.0
C46 C 0.30877 0.79404 0.95457 0.0
O47 O 0.36362 0.80603 0.80505 0.0
O48 O 0.32794 0.84301 0.78707 0.0
O49 O 0.29137 0.81089 0.897 0.0
O50 O 0.32717 0.77414 0.91252 0.0
O51 O 0.25353 0.7689 0.70783 0.0
H52 H 0.22823 0.81757 0.83526 0.0
H53 H 0.26725 0.86673 0.63166 0.0
O54 O 0.29095 0.73399 0.72439 0.0
O55 O 0.3272 0.76605 0.61652 0.0
O56 O 0.29001 0.80165 0.59944 0.0
C57 C 0.30913 0.78236 0.55827 0.0
H58 H 0.38414 0.66647 0.69761 0.0
H59 H 0.18691 0.86072 0.78119 0.0
Co60 Co 0.56635 1.03071 0.98215 0.0
C61 C 0.59277 0.10102 0.04762 0.0
Co62 Co 0.52827 0.0661 0.99567 0.0
C63 C 0.60773 0.97849 0.9089 0.0
C64 C 0.62847 1.00878 0.06886 0.0
N65 N 0.60122 1.00366 0.9849 0.0
N66 N 0.63808 0.96817 0.94285 0.0
C67 C 0.65107 0.98722 0.0432 0.0
H68 H 0.59147 0.96917 0.82871 0.0
H69 H 0.63231 1.02799 0.1428 0.0
C70 C 0.50115 0.99673 0.93186 0.0
N71 N 0.49249 0.09216 0.9891 0.0
C72 C 0.48355 0.1169 0.0608 0.0
C73 C 0.46631 0.08552 0.90118 0.0
N74 N 0.45269 0.12535 0.02032 0.0
C75 C 0.44213 0.10573 0.91983 0.0
C76 C 0.54381 0.04847 0.79216 0.0
O77 O 0.53183 0.99108 0.93916 0.0
O78 O 0.49528 1.02705 0.95159 0.0
O79 O 0.52674 0.06563 0.849 0.0
O80 O 0.56369 1.03 0.83443 0.0
O81 O 0.56174 0.1051 0.04047 0.0
H82 H 0.46436 0.06632 0.82836 0.0
H83 H 0.49869 0.12759 0.14189 0.0
O84 O 0.60022 0.07103 0.02597 0.0
O85 O 0.56858 1.03171 0.12951 0.0
O86 O 0.53045 0.06631 0.14272 0.0
C87 C 0.55095 0.04839 0.18565 0.0
H88 H 0.67575 0.98629 0.09302 0.0
H89 H 0.41842 0.10589 0.86351 0.0
Co90 Co 0.31169 0.31806 0.21092 0.0
C91 C 0.25671 0.35245 0.20255 0.0
Co92 Co 0.26515 0.28484 0.1336 0.0
C93 C 0.37799 0.33755 0.21665 0.0
C94 C 0.36384 0.37067 0.34552 0.0
N95 N 0.35247 0.34327 0.26441 0.0
N96 N 0.40471 0.36064 0.26145 0.0
C97 C 0.39614 0.38158 0.34357 0.0
H98 H 0.37626 0.31752 0.14616 0.0
H99 H 0.34909 0.38276 0.39857 0.0
C100 C 0.32008 0.25014 0.14543 0.0
N101 N 0.22472 0.25895 0.07649 0.0
C102 C 0.19922 0.26024 0.12532 0.0
C103 C 0.21648 0.23122 0.9956 0.0
N104 N 0.1765 0.23288 0.08523 0.0
C105 C 0.18681 0.21504 1.00093 0.0
C106 C 0.29076 0.30751 0.98368 0.0
O107 O 0.33472 0.27936 0.18945 0.0
O108 O 0.28822 0.24609 0.11353 0.0
O109 O 0.26656 0.28889 0.99378 0.0
O110 O 0.31263 0.32312 0.06816 0.0
O111 O 0.24196 0.32346 0.15367 0.0
H112 H 0.23272 0.22156 0.94415 0.0
H113 H 0.19954 0.27918 0.1973 0.0
O114 O 0.28861 0.35662 0.23514 0.0
O115 O 0.31096 0.31347 0.35045 0.0
O116 O 0.2639 0.28036 0.27723 0.0
C117 C 0.2865 0.29528 0.36117 0.0
H118 H 0.41104 0.40445 0.39328 0.0
H119 H 0.17642 0.18992 0.95591 0.0
Co120 Co 0.8216 0.27895 0.25826 0.0
C121 C 0.75479 0.24471 0.20798 0.0
Co122 Co 0.78209 0.31273 0.26836 0.0
C123 C 0.86206 0.22464 0.29534 0.0
C124 C 0.87969 0.2541 0.19833 0.0
N125 N 0.85473 0.25027 0.24813 0.0
N126 N 0.8909 0.21285 0.278 0.0
C127 C 0.90191 0.2313 0.21675 0.0
H128 H 0.84749 0.21589 0.3456 0.0
H129 H 0.88224 0.2731 0.15449 0.0
C130 C 0.84836 0.34715 0.31715 0.0
N131 N 0.75051 0.34299 0.2805 0.0
C132 C 0.74639 0.36878 0.23233 0.0
C133 C 0.73027 0.34705 0.34975 0.0
N134 N 0.72491 0.38892 0.27006 0.0
C135 C 0.71465 0.3754 0.34391 0.0
C136 C 0.80854 0.29478 0.46141 0.0
O137 O 0.85663 0.31754 0.30025 0.0
O138 O 0.81723 0.35042 0.30858 0.0
O139 O 0.78767 0.31205 0.41696 0.0
O140 O 0.82656 0.27837 0.40612 0.0
O141 O 0.74691 0.27454 0.22734 0.0
H142 H 0.72771 0.33099 0.40334 0.0
H143 H 0.75987 0.3735 0.17369 0.0
O144 O 0.786 0.24094 0.21616 0.0
O145 O 0.81635 0.27979 0.10993 0.0
O146 O 0.77698 0.31294 0.12003 0.0
C147 C 0.79527 0.2968 0.06514 0.0
H148 H 0.92477 0.22882 0.18873 0.0
H149 H 0.69705 0.38527 0.3899 0.0
Co150 Co 0.79796 0.79985 0.74555 0.0
C151 C 0.73446 0.81918 0.71986 0.0
Co152 Co 0.75963 0.75712 0.66823 0.0
C153 C 0.85789 0.83836 0.76017 0.0
C154 C 0.83341 0.86284 0.87879 0.0
N155 N 0.83129 0.83459 0.80177 0.0
N156 N 0.87589 0.86841 0.80375 0.0
C157 C 0.86096 0.8839 0.87984 0.0
H158 H 0.8625 0.8202 0.6931 0.0
H159 H 0.8149 0.86862 0.92539 0.0
C160 C 0.82435 0.73919 0.69443 0.0
N161 N 0.72601 0.72187 0.61519 0.0
C162 C 0.70125 0.71988 0.66602 0.0
C163 C 0.72673 0.69041 0.56033 0.0
N164 N 0.68844 0.68823 0.65521 0.0
C165 C 0.70364 0.66957 0.58529 0.0
C166 C 0.77887 0.78432 0.51671 0.0
O167 O 0.83093 0.7701 0.73896 0.0
O168 O 0.79367 0.72692 0.65703 0.0
O169 O 0.75855 0.76145 0.52688 0.0
O170 O 0.79782 0.80371 0.60131 0.0
O171 O 0.72592 0.78806 0.67949 0.0
H172 H 0.74586 0.68249 0.51834 0.0
H173 H 0.69772 0.74059 0.72778 0.0
O174 O 0.7655 0.82984 0.75243 0.0
O175 O 0.79802 0.79625 0.88704 0.0
O176 O 0.76094 0.75251 0.81274 0.0
C177 C 0.77879 0.77262 0.89736 0.0
H178 H 0.86757 0.90959 0.92554 0.0
H179 H 0.70173 0.64258 0.56543 0.0
Co180 Co 0.57094 0.55386 0.11748 0.0
C181 C 0.53285 0.60641 0.11993 0.0
Co182 Co 0.60152 0.60178 0.19464 0.0
C183 C 0.55163 0.48752 0.11292 0.0
C184 C 0.51978 0.5018 0.9807 0.0
N185 N 0.54671 0.51289 0.06451 0.0
N186 N 0.52809 0.46123 0.0663 0.0
C187 C 0.50812 0.46998 0.98188 0.0
H188 H 0.5711 0.48929 0.18557 0.0
H189 H 0.50823 0.5166 0.92687 0.0
C190 C 0.63864 0.54775 0.18712 0.0
N191 N 0.62704 0.6428 0.24787 0.0
C192 C 0.62363 0.66676 0.19293 0.0
C193 C 0.65811 0.6504 0.31417 0.0
N194 N 0.65234 0.68713 0.21296 0.0
C195 C 0.67386 0.67756 0.29201 0.0
C196 C 0.58047 0.57568 0.34487 0.0
O197 O 0.6101 0.53264 0.13496 0.0
O198 O 0.64151 0.57918 0.22437 0.0
O199 O 0.59604 0.60174 0.33413 0.0
O200 O 0.56787 0.55229 0.26134 0.0
O201 O 0.56135 0.6235 0.16468 0.0
H202 H 0.67036 0.63425 0.36167 0.0
H203 H 0.60318 0.66479 0.12236 0.0
O204 O 0.5312 0.57479 0.09734 0.0
O205 O 0.57379 0.55532 0.97694 0.0
O206 O 0.60705 0.60188 0.05143 0.0
C207 C 0.59174 0.57993 0.96691 0.0
H208 H 0.48491 0.45581 0.93075 0.0
H209 H 0.70067 0.68556 0.3174 0.0
Co210 Co 0.07149 0.52957 0.51368 0.0
C211 C 0.09773 0.59712 0.55653 0.0
Co212 Co 1.03086 0.56226 0.49449 0.0
C213 C 0.12706 0.49253 0.46808 0.0
C214 C 0.11288 0.48453 0.60932 0.0
N215 N 0.10501 0.50095 0.53003 0.0
N216 N 0.14838 0.47199 0.50656 0.0
C217 C 0.13962 0.46699 0.59555 0.0
H218 H 0.12791 0.50155 0.3969 0.0
H219 H 0.09998 0.48497 0.67315 0.0
C220 C 1.00507 0.49444 0.45216 0.0
N221 N 0.99807 0.59126 0.47837 0.0
C222 C 0.97094 0.59508 0.52116 0.0
C223 C 0.9993 0.61627 0.42761 0.0
N224 N 0.95567 0.62174 0.49987 0.0
C225 C 0.97349 0.63511 0.4413 0.0
C226 C 1.05237 0.53939 0.30615 0.0
O227 O 1.03659 0.4916 0.47421 0.0
O228 O 0.99617 0.52367 0.45468 0.0
O229 O 1.03186 0.55699 0.34614 0.0
O230 O 0.07181 0.52452 0.36567 0.0
O231 O 0.0663 0.60036 0.53521 0.0
H232 H 1.01861 0.6213 0.38685 0.0
H233 H 0.96362 0.57977 0.5716 0.0
O234 O 0.10613 0.56775 0.55285 0.0
O235 O 0.07035 0.53528 0.66225 0.0
O236 O 1.03007 0.56737 0.64198 0.0
C237 C 1.04967 0.55272 0.70187 0.0
H238 H 0.15128 0.45117 0.64563 0.0
H239 H 0.96869 0.65752 0.41314 0.0
H240 H 0.11666 0.13075 0.28956 0.0
H241 H 0.17823 0.19675 0.58081 0.0
H242 H 0.18787 0.23779 0.477 0.0
H243 H 0.18562 0.24987 0.30321 0.0
H244 H 0.12487 0.18307 0.01109 0.0
H245 H 0.10655 0.14746 0.11907 0.0
C246 C 0.13179 0.15434 0.33118 0.0
C247 C 0.14699 0.16079 0.44249 0.0
C248 C 0.13742 0.17725 0.27156 0.0
C249 C 0.16701 0.19111 0.49476 0.0
C250 C 0.17237 0.21444 0.43578 0.0
C251 C 0.16769 0.22813 0.26201 0.0
C252 C 0.15754 0.21858 0.14807 0.0
C253 C 0.15857 0.20718 0.32374 0.0
C254 C 0.13378 0.19044 0.09821 0.0
C255 C 0.12361 0.16996 0.15971 0.0
H256 H 0.16502 0.99752 0.54834 0.0
H257 H 0.07252 0.93155 0.4732 0.0
H258 H 0.10404 0.88691 0.52035 0.0
H259 H 0.15709 0.86759 0.59681 0.0
H260 H 0.25021 0.93166 0.67176 0.0
H261 H 0.21951 0.97578 0.60916 0.0
C262 C 0.15182 0.97326 0.54103 0.0
C263 C 0.1163 0.96818 0.5081 0.0
C264 C 0.17023 0.94733 0.56853 0.0
C265 C 0.09972 0.93642 0.49865 0.0
C266 C 0.11774 0.91077 0.52583 0.0
C267 C 0.17065 0.89113 0.5983 0.0
C268 C 0.20574 0.8966 0.63972 0.0
C269 C 0.15284 0.91613 0.56295 0.0
C270 C 0.2232 0.92693 0.63982 0.0
C271 C 0.20558 0.95217 0.60485 0.0
H272 H 0.35997 0.90451 0.81644 0.0
H273 H 0.42567 0.82847 0.85772 0.0
H274 H 0.47483 0.86951 0.89566 0.0
H275 H 0.50044 0.92793 0.91907 0.0
H276 H 0.43427 1.00376 0.87938 0.0
H277 H 0.38537 0.96256 0.83948 0.0
C278 C 0.38499 0.89683 0.83395 0.0
C279 C 0.38849 0.86295 0.83394 0.0
C280 C 0.41373 0.92087 0.85613 0.0
C281 C 0.42158 0.85404 0.85685 0.0
C282 C 0.45003 0.87767 0.87865 0.0
C283 C 0.47537 0.93547 0.90112 0.0
C284 C 0.4717 0.96944 0.90263 0.0
C285 C 0.44662 0.91129 0.87857 0.0
C286 C 0.43854 0.97817 0.8795 0.0
C287 C 0.41021 0.95445 0.85647 0.0
H288 H 0.38573 0.11988 0.99399 0.0
H289 H 0.47685 0.18561 0.15775 0.0
H290 H 0.44344 0.23 0.21825 0.0
H291 H 0.38824 0.25134 0.20924 0.0
H292 H 0.29737 0.18522 0.04017 0.0
H293 H 0.33085 0.13971 0.99612 0.0
C294 C 0.39829 0.14391 0.04329 0.0
C295 C 0.4337 0.14969 0.07006 0.0
C296 C 0.37895 0.16925 0.07568 0.0
C297 C 0.44966 0.1806 0.13634 0.0
C298 C 0.43054 0.206 0.17 0.0
C299 C 0.3757 0.2269 0.16351 0.0
C300 C 0.34027 0.22182 0.12714 0.0
C301 C 0.39515 0.20083 0.1378 0.0
C302 C 0.32452 0.18991 0.06871 0.0
C303 C 0.34366 0.16387 0.0434 0.0
H304 H 0.97368 0.95744 0.64964 0.0
H305 H 0.91812 0.89706 0.3392 0.0
H306 H 0.88742 0.86383 0.42868 0.0
H307 H 0.87371 0.85564 0.59259 0.0
H308 H 0.92785 0.9165 0.90391 0.0
H309 H 0.96263 0.94622 0.81558 0.0
C310 C 0.95547 0.93649 0.60158 0.0
C311 C 0.94807 0.92949 0.4881 0.0
C312 C 0.93779 0.91802 0.65339 0.0
C313 C 0.92386 0.90288 0.42663 0.0
C314 C 0.90647 0.88396 0.47764 0.0
C315 C 0.89369 0.87476 0.64181 0.0
C316 C 0.89853 0.88378 0.75472 0.0
C317 C 0.91286 0.89181 0.59073 0.0
C318 C 0.92378 0.90936 0.81684 0.0
C319 C 0.94353 0.92623 0.76646 0.0
H320 H 0.94854 0.08629 0.41023 0.0
H321 H 1.04152 0.15097 0.47775 0.0
H322 H 1.01036 0.19575 0.42996 0.0
H323 H 0.95722 0.21593 0.35865 0.0
H324 H 0.86361 0.15343 0.29515 0.0
H325 H 0.89426 0.10867 0.35277 0.0
C326 C 0.96192 0.11029 0.41559 0.0
C327 C 0.99744 0.11499 0.44687 0.0
C328 C 0.94372 0.13635 0.38822 0.0
C329 C 1.01429 0.14641 0.45381 0.0
C330 C 0.99648 0.17215 0.42615 0.0
C331 C 0.94357 0.19251 0.35778 0.0
C332 C 0.9083 0.18773 0.32143 0.0
C333 C 0.96131 0.16723 0.3915 0.0
C334 C 0.89078 0.1576 0.32285 0.0
C335 C 0.90833 0.13202 0.35527 0.0
H336 H 0.68538 0.24232 0.1851 0.0
H337 H 0.76355 0.17812 0.15959 0.0
H338 H 0.72177 0.12898 0.10927 0.0
H339 H 0.66234 0.10317 0.07122 0.0
H340 H 0.58432 0.16755 0.09732 0.0
H341 H 0.62613 0.21659 0.14776 0.0
C342 C 0.69342 0.21763 0.16856 0.0
C343 C 0.72815 0.21454 0.17662 0.0
C344 C 0.66893 0.18897 0.1393 0.0
C345 C 0.73741 0.18188 0.15451 0.0
C346 C 0.71332 0.15349 0.12548 0.0
C347 C 0.65436 0.12789 0.08794 0.0
C348 C 0.61963 0.13105 0.0798 0.0
C349 C 0.6789 0.15655 0.11743 0.0
C350 C 0.61044 0.16373 0.10233 0.0
C351 C 0.63454 0.19207 0.13143 0.0
H352 H 0.74538 0.88654 0.77118 0.0
H353 H 0.66701 0.80515 0.70884 0.0
H354 H 0.62821 0.84488 0.76139 0.0
H355 H 0.61862 0.90299 0.84361 0.0
H356 H 0.69872 0.98273 0.91093 0.0
H357 H 0.73466 0.94367 0.83702 0.0
C358 C 0.71969 0.8774 0.76781 0.0
C359 C 0.70925 0.84286 0.73697 0.0
C360 C 0.69783 0.90025 0.79951 0.0
C361 C 0.67575 0.8316 0.73226 0.0
C362 C 0.65359 0.85433 0.76281 0.0
C363 C 0.64367 0.91167 0.83945 0.0
C364 C 0.65617 0.9456 0.88243 0.0
C365 C 0.66458 0.88873 0.79903 0.0
C366 C 0.68878 0.9567 0.87832 0.0
C367 C 0.70931 0.93437 0.8365 0.0
H368 H 0.68717 0.65226 0.09013 0.0
H369 H 0.63416 0.73888 0.12901 0.0
H370 H 0.63543 0.74352 0.94559 0.0
H371 H 0.64983 0.7211 0.77345 0.0
H372 H 0.70389 0.63462 0.73812 0.0
H373 H 0.70151 0.62988 0.91854 0.0
C374 C 0.67715 0.67289 0.05949 0.0
C375 C 0.66178 0.69607 0.12328 0.0
C376 C 0.67662 0.67424 0.95341 0.0
C377 C 0.64719 0.7217 0.08188 0.0
C378 C 0.64725 0.72377 0.97673 0.0
C379 C 0.66084 0.70104 0.80504 0.0
C380 C 0.67749 0.67866 0.74265 0.0
C381 C 0.6613 0.69972 0.91126 0.0
C382 C 0.6908 0.6522 0.78339 0.0
C383 C 0.69021 0.64994 0.8878 0.0
H384 H 0.72457 0.44939 0.398 0.0
H385 H 0.70137 0.39381 0.06618 0.0
H386 H 0.67654 0.44116 0.00769 0.0
H387 H 0.65544 0.49554 0.05416 0.0
H388 H 0.6805 0.55256 0.38482 0.0
H389 H 0.71157 0.50806 0.44113 0.0
C390 C 0.71442 0.44803 0.31297 0.0
C391 C 0.71418 0.41818 0.23622 0.0
C392 C 0.70081 0.47561 0.28014 0.0
C393 C 0.70159 0.41659 0.1261 0.0
C394 C 0.68741 0.44358 0.09294 0.0
C395 C 0.66872 0.49865 0.138 0.0
C396 C 0.66583 0.5272 0.21535 0.0
C397 C 0.68614 0.47288 0.16949 0.0
C398 C 0.68286 0.531 0.32379 0.0
C399 C 0.70015 0.50532 0.35609 0.0
H400 H 0.93538 0.49017 0.42167 0.0
H401 H 1.0166 0.42877 0.42274 0.0
H402 H 0.97664 0.37871 0.3823 0.0
H403 H 0.91806 0.3513 0.34614 0.0
H404 H 0.83697 0.41283 0.34774 0.0
H405 H 0.8769 0.46282 0.38706 0.0
C406 C 0.94443 0.46588 0.41285 0.0
C407 C 0.97943 0.4638 0.4254 0.0
C408 C 0.92104 0.43669 0.38998 0.0
C409 C 0.99014 0.4317 0.41385 0.0
C410 C 0.96714 0.40279 0.39057 0.0
C411 C 0.90903 0.37561 0.35527 0.0
C412 C 0.87407 0.37773 0.34371 0.0
C413 C 0.93244 0.40481 0.37849 0.0
C414 C 0.8634 0.40986 0.35606 0.0
C415 C 0.88638 0.43874 0.37859 0.0
H416 H 0.82251 0.67159 0.60664 0.0
H417 H 0.89048 0.76272 0.74421 0.0
H418 H 0.93705 0.73394 0.70059 0.0
H419 H 0.95843 0.68419 0.61216 0.0
H420 H 0.89322 0.59192 0.48073 0.0
H421 H 0.84587 0.61944 0.53364 0.0
C422 C 0.84758 0.68498 0.6282 0.0
C423 C 0.85267 0.71945 0.67785 0.0
C424 C 0.87483 0.66809 0.60347 0.0
C425 C 0.8855 0.7363 0.70569 0.0
C426 C 0.91234 0.71989 0.68054 0.0
C427 C 0.93387 0.67015 0.59635 0.0
C428 C 0.92902 0.63633 0.54216 0.0
C429 C 0.90721 0.68604 0.62775 0.0
C430 C 0.89734 0.61804 0.52273 0.0
C431 C 0.87035 0.63384 0.55246 0.0
H432 H 0.46577 0.39385 0.36158 0.0
H433 H 0.40475 0.34015 0.04902 0.0
H434 H 0.44487 0.36022 0.96095 0.0
H435 H 0.48949 0.4031 0.96931 0.0
H436 H 0.54721 0.4612 0.28052 0.0
H437 H 0.51742 0.42871 0.37089 0.0
C438 C 0.46165 0.38615 0.27447 0.0
C439 C 0.43191 0.36635 0.21262 0.0
C440 C 0.48423 0.39886 0.22313 0.0
C441 C 0.42729 0.35555 0.09969 0.0
C442 C 0.45018 0.36722 0.04846 0.0
C443 C 0.49595 0.40819 0.05681 0.0
C444 C 0.51928 0.43559 0.11722 0.0
C445 C 0.47757 0.39047 0.10894 0.0
C446 C 0.52871 0.44089 0.23076 0.0
C447 C 0.51143 0.42243 0.28328 0.0
H448 H 0.5284 0.67271 0.12448 0.0
H449 H 0.46923 0.57601 0.02526 0.0
H450 H 0.42156 0.59962 0.93391 0.0
H451 H 0.39801 0.64637 0.86837 0.0
H452 H 0.45552 0.7434 0.96693 0.0
H453 H 0.50234 0.72125 0.07315 0.0
C454 C 0.50489 0.65694 0.08456 0.0
C455 C 0.50264 0.62251 0.08118 0.0
C456 C 0.47735 0.67068 0.03104 0.0
C457 C 0.47189 0.60251 0.02893 0.0
C458 C 0.44454 0.61595 0.97612 0.0
C459 C 0.42078 0.66264 0.9136 0.0
C460 C 0.42364 0.69628 0.90878 0.0
C461 C 0.44728 0.64974 0.97427 0.0
C462 C 0.45288 0.71739 0.96952 0.0
C463 C 0.47962 0.70467 0.02973 0.0
H464 H 0.1899 0.73761 0.66003 0.0
H465 H 0.26845 0.67296 0.68413 0.0
H466 H 0.22654 0.62462 0.64286 0.0
H467 H 0.16725 0.59949 0.59956 0.0
H468 H 0.08811 0.66329 0.57422 0.0
H469 H 0.12997 0.71212 0.61571 0.0
C470 C 0.19792 0.71298 0.6561 0.0
C471 C 0.23284 0.70953 0.67563 0.0
C472 C 0.17328 0.68462 0.63196 0.0
C473 C 0.24215 0.677 0.66991 0.0
C474 C 0.21802 0.64903 0.64615 0.0
C475 C 0.15901 0.62403 0.60319 0.0
C476 C 0.12409 0.62719 0.58358 0.0
C477 C 0.18346 0.65238 0.62708 0.0
C478 C 0.11449 0.65959 0.58878 0.0
C479 C 0.13859 0.68776 0.6126 0.0
H480 H 0.26912 0.39832 0.39317 0.0
H481 H 0.19739 0.36511 0.08498 0.0
H482 H 0.15858 0.40288 0.14869 0.0
H483 H 0.14256 0.44084 0.29913 0.0
H484 H 0.21164 0.46854 0.61277 0.0
H485 H 0.25403 0.43778 0.54091 0.0
C486 C 0.24535 0.40006 0.33926 0.0
C487 C 0.23624 0.37936 0.23417 0.0
C488 C 0.22251 0.42056 0.37832 0.0
C489 C 0.20499 0.38106 0.16595 0.0
C490 C 0.18274 0.4025 0.20257 0.0
C491 C 0.16716 0.44054 0.3507 0.0
C492 C 0.17419 0.45691 0.46075 0.0
C493 C 0.19084 0.4217 0.30955 0.0
C494 C 0.20584 0.45597 0.52787 0.0
C495 C 0.22999 0.43841 0.48678 0.0
H496 H 1.01896 1.0148 0.76875 0.0
H497 H 0.10698 0.08715 0.8519 0.0
H498 H 0.11384 0.08807 0.04282 0.0
H499 H 0.09482 0.0686 0.18708 0.0
H500 H 1.00678 0.99625 0.10362 0.0
H501 H 1.0 0.99544 0.91286 0.0
C502 C 1.0395 1.03099 0.82861 0.0
C503 C 0.06232 0.05094 0.79557 0.0
C504 C 1.0434 1.03142 0.93867 0.0
C505 C 0.08892 0.07159 0.87463 0.0
C506 C 0.09291 0.07214 0.9841 0.0
C507 C 0.07426 0.05247 0.12716 0.0
C508 C 1.05147 1.03242 0.16005 0.0
C509 C 0.07036 0.05211 0.01713 0.0
C510 C 1.02485 1.01184 0.08098 0.0
C511 C 1.02087 1.01136 0.97163 0.0
H512 H 0.27998 0.81875 0.41943 0.0
H513 H 0.34437 0.74066 0.44351 0.0
H514 H 0.35058 0.73792 0.26056 0.0
H515 H 0.33797 0.75773 0.09354 0.0
H516 H 0.2735 0.83574 0.06927 0.0
H517 H 0.26734 0.83854 0.25232 0.0
C518 C 0.29524 0.80101 0.38454 0.0
C519 C 0.3116 0.77991 0.44534 0.0
C520 C 0.2989 0.79965 0.27926 0.0
C521 C 0.33144 0.75721 0.39878 0.0
C522 C 0.33508 0.75564 0.29406 0.0
C523 C 0.32268 0.77545 0.12838 0.0
C524 C 0.30631 0.79653 0.06754 0.0
C525 C 0.31903 0.77681 0.23365 0.0
C526 C 0.28647 0.81924 0.11408 0.0
C527 C 0.28285 0.82082 0.21883 0.0
H528 H 0.58048 1.02068 0.65231 0.0
H529 H 0.50017 0.08236 0.67826 0.0
H530 H 0.49556 0.08827 0.49441 0.0
H531 H 0.51428 0.07615 0.32556 0.0
H532 H 0.59467 1.01457 0.29969 0.0
H533 H 0.59927 1.00863 0.48352 0.0
C534 C 0.56191 1.03531 0.61762 0.0
C535 C 0.54074 0.05099 0.67918 0.0
C536 C 0.55942 1.0388 0.51164 0.0
C537 C 0.51686 0.06999 0.63293 0.0
C538 C 0.51418 0.07345 0.52763 0.0
C539 C 0.53287 0.06152 0.36024 0.0
C540 C 0.55405 1.04588 0.29868 0.0
C541 C 0.53538 0.05805 0.46624 0.0
C542 C 0.57797 1.02692 0.345 0.0
C543 C 0.58064 1.02344 0.45028 0.0
H544 H 0.25669 0.26764 0.79018 0.0
H545 H 0.33294 0.35208 0.93249 0.0
H546 H 0.33865 0.35539 0.75261 0.0
H547 H 0.32155 0.33459 0.5548 0.0
H548 H 0.24611 0.24942 0.41335 0.0
H549 H 0.24147 0.24555 0.59402 0.0
C550 C 0.27447 0.28689 0.78197 0.0
C551 C 0.29408 0.30982 0.87475 0.0
C552 C 0.27792 0.28841 0.67849 0.0
C553 C 0.31735 0.33426 0.8625 0.0
C554 C 0.32067 0.33614 0.75963 0.0
C555 C 0.304 0.31518 0.56325 0.0
C556 C 0.28401 0.29247 0.47045 0.0
C557 C 0.30101 0.31338 0.66703 0.0
C558 C 0.26146 0.26748 0.48313 0.0
C559 C 0.25866 0.26531 0.58621 0.0
H560 H 0.83369 0.2692 0.93104 0.0
H561 H 0.752 0.32971 0.94471 0.0
H562 H 0.74935 0.33494 0.76069 0.0
H563 H 0.77023 0.32252 0.59571 0.0
H564 H 0.85187 0.26195 0.58192 0.0
H565 H 0.85458 0.25679 0.76605 0.0
C566 C 0.81519 0.28342 0.89371 0.0
C567 C 0.79301 0.29893 0.95185 0.0
C568 C 0.81389 0.2865 0.78783 0.0
C569 C 0.76934 0.31741 0.90206 0.0
C570 C 0.76784 0.32049 0.79673 0.0
C571 C 0.78872 0.30829 0.63301 0.0
C572 C 0.81086 0.29273 0.57479 0.0
C573 C 0.79004 0.30522 0.73892 0.0
C574 C 0.83454 0.27427 0.62461 0.0
C575 C 0.83608 0.27123 0.73 0.0
H576 H 0.74794 0.7425 0.32217 0.0
H577 H 0.81651 0.8328 0.46663 0.0
H578 H 0.82312 0.83669 0.28853 0.0
H579 H 0.80957 0.81445 0.09173 0.0
H580 H 0.74111 0.72406 0.94731 0.0
H581 H 0.73484 0.72013 0.12585 0.0
C582 C 0.76422 0.76314 0.3148 0.0
C583 C 0.78165 0.78736 0.4079 0.0
C584 C 0.7681 0.76514 0.21209 0.0
C585 C 0.80278 0.8138 0.39655 0.0
C586 C 0.80662 0.81604 0.29463 0.0
C587 C 0.79331 0.7938 0.09914 0.0
C588 C 0.77593 0.76955 0.00605 0.0
C589 C 0.78948 0.7918 0.20188 0.0
C590 C 0.75485 0.74306 0.01739 0.0
C591 C 0.75108 0.74084 0.1194 0.0
H592 H 0.57121 0.53353 0.77519 0.0
H593 H 0.61242 0.63645 0.91305 0.0
H594 H 0.61152 0.6445 0.73276 0.0
H595 H 0.60066 0.62215 0.53679 0.0
H596 H 0.55708 0.51981 0.39797 0.0
H597 H 0.55769 0.51173 0.57783 0.0
C598 C 0.58037 0.55765 0.76596 0.0
C599 C 0.59272 0.58415 0.85788 0.0
C600 C 0.5796 0.56221 0.66196 0.0
C601 C 0.60392 0.61537 0.84415 0.0
C602 C 0.60324 0.62006 0.74105 0.0
C603 C 0.59113 0.59811 0.5457 0.0
C604 C 0.5789 0.57162 0.45374 0.0
C605 C 0.59141 0.59363 0.64947 0.0
C606 C 0.56659 0.54067 0.46712 0.0
C607 C 0.56704 0.53597 0.57011 0.0
H608 H 0.08275 0.51925 0.84401 0.0
H609 H 1.01055 0.5903 0.81324 0.0
H610 H 1.00448 0.59192 0.99582 0.0
H611 H 1.01939 0.57304 0.16434 0.0
H612 H 0.09142 0.50179 0.19459 0.0
H613 H 0.09757 0.50028 0.01224 0.0
C614 C 0.06579 0.53522 0.87729 0.0
C615 C 1.04722 0.55468 0.81472 0.0
C616 C 0.06218 0.53586 0.98225 0.0
C617 C 1.02523 0.57508 0.85935 0.0
C618 C 1.02167 0.57598 0.96384 0.0
C619 C 1.03631 0.55703 0.13093 0.0
C620 C 0.05483 0.5375 0.19335 0.0
C621 C 1.0399 0.55638 0.02592 0.0
C622 C 0.07678 0.51707 0.14864 0.0
C623 C 0.0804 0.51623 0.04425 0.0
loop_
_geom_bond_atom_site_label_1
_geom_bond_atom_site_label_2
_geom_bond_distance
_geom_bond_site_symmetry_2
_ccdc_geom_bond_type
Co0 N5 2.057 . S
Co0 O17 2.021 1_655 S
Co0 O20 2.062 . S
Co0 O24 2.117 1_565 S
Co0 O25 2.020 . S
C1 O21 1.259 . S
C1 O24 1.258 . S
Co2 N11 2.057 . S
Co2 O18 2.117 1_545 S
Co2 O19 2.020 . S
Co2 O21 2.021 1_455 S
Co2 O26 2.062 . S
C3 N5 1.316 . S
C3 N6 1.347 . S
C3 H8 0.931 . S
C4 N5 1.375 . S
C4 C7 1.350 . S
C4 H9 0.930 . S
N5 Co0 2.057 . S
N5 C3 1.316 . S
N5 C4 1.375 . S
N6 C3 1.347 . S
N6 C7 1.373 . S
C7 C4 1.350 . S
C7 N6 1.373 . S
C7 H28 0.931 . S
H8 C3 0.931 . S
H9 C4 0.930 . S
C10 O17 1.259 . S
C10 O18 1.258 . S
N11 Co2 2.057 . S
N11 C12 1.316 . S
N11 C13 1.375 . S
C12 N11 1.316 . S
C12 N14 1.347 . S
C12 H23 0.931 . S
C13 N11 1.375 . S
C13 C15 1.350 . S
C13 H22 0.930 . S
N14 C12 1.347 . S
N14 C15 1.373 . S
C15 C13 1.350 . S
C15 N14 1.373 . S
C15 H29 0.931 . S
C16 O19 1.256 . S
C16 O20 1.255 1_445 S
O17 Co0 2.021 1_455 S
O17 C10 1.259 . S
O18 Co2 2.117 1_565 S
O18 C10 1.258 . S
O19 Co2 2.020 . S
O19 C16 1.256 . S
O20 Co0 2.062 . S
O20 C16 1.255 1_665 S
O21 C1 1.259 . S
O21 Co2 2.021 1_655 S
H22 C13 0.930 . S
H23 C12 0.931 . S
O24 Co0 2.117 1_545 S
O24 C1 1.258 . S
O25 Co0 2.020 . S
O25 C27 1.256 . S
O26 Co2 2.062 . S
O26 C27 1.255 1_445 S
C27 O25 1.256 . S
C27 O26 1.255 1_665 S
H28 C7 0.931 . S
H29 C15 0.931 . S
Co30 N35 2.057 . S
Co30 O47 2.021 . S
Co30 O50 2.062 . S
Co30 O54 2.117 . S
Co30 O55 2.020 . S
C31 O51 1.259 . S
C31 O54 1.258 . S
Co32 N41 2.057 . S
Co32 O48 2.117 . S
Co32 O49 2.020 . S
Co32 O51 2.021 . S
Co32 O56 2.062 . S
C33 N35 1.316 . S
C33 N36 1.347 . S
C33 H38 0.931 . S
C34 N35 1.375 . S
C34 C37 1.350 . S
C34 H39 0.930 . S
N35 Co30 2.057 . S
N35 C33 1.316 . S
N35 C34 1.375 . S
N36 C33 1.347 . S
N36 C37 1.373 . S
C37 C34 1.350 . S
C37 N36 1.373 . S
C37 H58 0.931 . S
H38 C33 0.931 . S
H39 C34 0.930 . S
C40 O47 1.259 . S
C40 O48 1.258 . S
N41 Co32 2.057 . S
N41 C42 1.316 . S
N41 C43 1.375 . S
C42 N41 1.316 . S
C42 N44 1.347 . S
C42 H53 0.931 . S
C43 N41 1.375 . S
C43 C45 1.350 . S
C43 H52 0.930 . S
N44 C42 1.347 . S
N44 C45 1.373 . S
C45 C43 1.350 . S
C45 N44 1.373 . S
C45 H59 0.931 . S
C46 O49 1.256 . S
C46 O50 1.255 . S
O47 Co30 2.021 . S
O47 C40 1.259 . S
O48 Co32 2.117 . S
O48 C40 1.258 . S
O49 Co32 2.020 . S
O49 C46 1.256 . S
O50 Co30 2.062 . S
O50 C46 1.255 . S
O51 C31 1.259 . S
O51 Co32 2.021 . S
H52 C43 0.930 . S
H53 C42 0.931 . S
O54 Co30 2.117 . S
O54 C31 1.258 . S
O55 Co30 2.020 . S
O55 C57 1.256 . S
O56 Co32 2.062 . S
O56 C57 1.255 . S
C57 O55 1.256 . S
C57 O56 1.255 . S
H58 C37 0.931 . S
H59 C45 0.931 . S
Co60 N65 2.057 . S
Co60 O77 2.021 . S
Co60 O80 2.062 . S
Co60 O84 2.117 1_566 S
Co60 O85 2.020 1_556 S
C61 O81 1.259 . S
C61 O84 1.258 . S
Co62 N71 2.057 . S
Co62 O78 2.117 1_544 S
Co62 O79 2.020 1_554 S
Co62 O81 2.021 . S
Co62 O86 2.062 . S
C63 N65 1.316 . S
C63 N66 1.347 . S
C63 H68 0.931 . S
C64 N65 1.375 1_554 S
C64 C67 1.350 1_554 S
C64 H69 0.930 . S
N65 Co60 2.057 . S
N65 C63 1.316 . S
N65 C64 1.375 1_556 S
N66 C63 1.347 . S
N66 C67 1.373 . S
C67 C64 1.350 1_556 S
C67 N66 1.373 . S
C67 H88 0.931 . S
H68 C63 0.931 . S
H69 C64 0.930 . S
C70 O77 1.259 . S
C70 O78 1.258 . S
N71 Co62 2.057 . S
N71 C72 1.316 . S
N71 C73 1.375 1_554 S
C72 N71 1.316 . S
C72 N74 1.347 . S
C72 H83 0.931 . S
C73 N71 1.375 1_556 S
C73 C75 1.350 1_556 S
C73 H82 0.930 . S
N74 C72 1.347 . S
N74 C75 1.373 . S
C75 C73 1.350 1_554 S
C75 N74 1.373 . S
C75 H89 0.931 . S
C76 O79 1.255 1_565 S
C76 O80 1.255 . S
O77 Co60 2.021 . S
O77 C70 1.259 . S
O78 Co62 2.117 1_566 S
O78 C70 1.258 . S
O79 Co62 2.020 1_556 S
O79 C76 1.255 1_545 S
O80 Co60 2.062 . S
O80 C76 1.255 . S
O81 C61 1.259 . S
O81 Co62 2.021 . S
H82 C73 0.930 . S
H83 C72 0.931 . S
O84 Co60 2.117 1_544 S
O84 C61 1.258 . S
O85 Co60 2.020 1_554 S
O85 C87 1.250 1_565 S
O86 Co62 2.062 . S
O86 C87 1.262 . S
C87 O85 1.250 1_545 S
C87 O86 1.262 . S
H88 C67 0.931 . S
H89 C75 0.931 . S
Co90 N95 2.057 . S
Co90 O107 2.021 . S
Co90 O110 2.062 . S
Co90 O114 2.117 . S
Co90 O115 2.020 . S
C91 O111 1.259 . S
C91 O114 1.258 . S
Co92 N101 2.057 . S
Co92 O108 2.117 . S
Co92 O109 2.020 . S
Co92 O111 2.021 . S
Co92 O116 2.062 . S
C93 N95 1.316 . S
C93 N96 1.347 . S
C93 H98 0.931 . S
C94 N95 1.375 . S
C94 C97 1.350 . S
C94 H99 0.930 . S
N95 Co90 2.057 . S
N95 C93 1.316 . S
N95 C94 1.375 . S
N96 C93 1.347 . S
N96 C97 1.373 . S
C97 C94 1.350 . S
C97 N96 1.373 . S
C97 H118 0.931 . S
H98 C93 0.931 . S
H99 C94 0.930 . S
C100 O107 1.259 . S
C100 O108 1.258 . S
N101 Co92 2.057 . S
N101 C102 1.316 . S
N101 C103 1.375 . S
C102 N101 1.316 . S
C102 N104 1.347 . S
C102 H113 0.931 . S
C103 N101 1.375 . S
C103 C105 1.350 . S
C103 H112 0.930 . S
N104 C102 1.347 . S
N104 C105 1.373 . S
C105 C103 1.350 . S
C105 N104 1.373 . S
C105 H119 0.931 . S
C106 O109 1.256 . S
C106 O110 1.255 . S
O107 Co90 2.021 . S
O107 C100 1.259 . S
O108 Co92 2.117 . S
O108 C100 1.258 . S
O109 Co92 2.020 . S
O109 C106 1.256 . S
O110 Co90 2.062 . S
O110 C106 1.255 . S
O111 C91 1.259 . S
O111 Co92 2.021 . S
H112 C103 0.930 . S
H113 C102 0.931 . S
O114 Co90 2.117 . S
O114 C91 1.258 . S
O115 Co90 2.020 . S
O115 C117 1.256 . S
O116 Co92 2.062 . S
O116 C117 1.255 . S
C117 O115 1.256 . S
C117 O116 1.255 . S
H118 C97 0.931 . S
H119 C105 0.931 . S
Co120 N125 2.057 . S
Co120 O137 2.021 . S
Co120 O140 2.062 . S
Co120 O144 2.117 . S
Co120 O145 2.020 . S
C121 O141 1.259 . S
C121 O144 1.258 . S
Co122 N131 2.057 . S
Co122 O138 2.117 . S
Co122 O139 2.020 . S
Co122 O141 2.021 . S
Co122 O146 2.062 . S
C123 N125 1.316 . S
C123 N126 1.347 . S
C123 H128 0.931 . S
C124 N125 1.375 . S
C124 C127 1.350 . S
C124 H129 0.930 . S
N125 Co120 2.057 . S
N125 C123 1.316 . S
N125 C124 1.375 . S
N126 C123 1.347 . S
N126 C127 1.373 . S
C127 C124 1.350 . S
C127 N126 1.373 . S
C127 H148 0.931 . S
H128 C123 0.931 . S
H129 C124 0.930 . S
C130 O137 1.259 . S
C130 O138 1.258 . S
N131 Co122 2.057 . S
N131 C132 1.316 . S
N131 C133 1.375 . S
C132 N131 1.316 . S
C132 N134 1.347 . S
C132 H143 0.931 . S
C133 N131 1.375 . S
C133 C135 1.350 . S
C133 H142 0.930 . S
N134 C132 1.347 . S
N134 C135 1.373 . S
C135 C133 1.350 . S
C135 N134 1.373 . S
C135 H149 0.931 . S
C136 O139 1.256 . S
C136 O140 1.255 . S
O137 Co120 2.021 . S
O137 C130 1.259 . S
O138 Co122 2.117 . S
O138 C130 1.258 . S
O139 Co122 2.020 . S
O139 C136 1.256 . S
O140 Co120 2.062 . S
O140 C136 1.255 . S
O141 C121 1.259 . S
O141 Co122 2.021 . S
H142 C133 0.930 . S
H143 C132 0.931 . S
O144 Co120 2.117 . S
O144 C121 1.258 . S
O145 Co120 2.020 . S
O145 C147 1.256 . S
O146 Co122 2.062 . S
O146 C147 1.255 . S
C147 O145 1.256 . S
C147 O146 1.255 . S
H148 C127 0.931 . S
H149 C135 0.931 . S
Co150 N155 2.057 . S
Co150 O167 2.021 . S
Co150 O170 2.062 . S
Co150 O174 2.117 . S
Co150 O175 2.020 . S
C151 O171 1.259 . S
C151 O174 1.258 . S
Co152 N161 2.057 . S
Co152 O168 2.117 . S
Co152 O169 2.020 . S
Co152 O171 2.021 . S
Co152 O176 2.062 . S
C153 N155 1.316 . S
C153 N156 1.347 . S
C153 H158 0.931 . S
C154 N155 1.375 . S
C154 C157 1.350 . S
C154 H159 0.930 . S
N155 Co150 2.057 . S
N155 C153 1.316 . S
N155 C154 1.375 . S
N156 C153 1.347 . S
N156 C157 1.373 . S
C157 C154 1.350 . S
C157 N156 1.373 . S
C157 H178 0.931 . S
H158 C153 0.931 . S
H159 C154 0.930 . S
C160 O167 1.259 . S
C160 O168 1.258 . S
N161 Co152 2.057 . S
N161 C162 1.316 . S
N161 C163 1.375 . S
C162 N161 1.316 . S
C162 N164 1.347 . S
C162 H173 0.931 . S
C163 N161 1.375 . S
C163 C165 1.350 . S
C163 H172 0.930 . S
N164 C162 1.347 . S
N164 C165 1.373 . S
C165 C163 1.350 . S
C165 N164 1.373 . S
C165 H179 0.931 . S
C166 O169 1.256 . S
C166 O170 1.255 . S
O167 Co150 2.021 . S
O167 C160 1.259 . S
O168 Co152 2.117 . S
O168 C160 1.258 . S
O169 Co152 2.020 . S
O169 C166 1.256 . S
O170 Co150 2.062 . S
O170 C166 1.255 . S
O171 C151 1.259 . S
O171 Co152 2.021 . S
H172 C163 0.930 . S
H173 C162 0.931 . S
O174 Co150 2.117 . S
O174 C151 1.258 . S
O175 Co150 2.020 . S
O175 C177 1.256 . S
O176 Co152 2.062 . S
O176 C177 1.255 . S
C177 O175 1.256 . S
C177 O176 1.255 . S
H178 C157 0.931 . S
H179 C165 0.931 . S
Co180 N185 2.057 . S
Co180 O197 2.021 1_556 S
Co180 O200 2.062 1_556 S
Co180 O204 2.117 . S
Co180 O205 2.020 . S
C181 O201 1.259 . S
C181 O204 1.258 . S
Co182 N191 2.057 . S
Co182 O198 2.117 . S
Co182 O199 2.020 . S
Co182 O201 2.021 1_554 S
Co182 O206 2.062 1_554 S
C183 N185 1.316 1_554 S
C183 N186 1.347 . S
C183 H188 0.931 . S
C184 N185 1.375 . S
C184 C187 1.350 . S
C184 H189 0.930 . S
N185 Co180 2.057 . S
N185 C183 1.316 1_556 S
N185 C184 1.375 . S
N186 C183 1.347 . S
N186 C187 1.373 1_554 S
C187 C184 1.350 . S
C187 N186 1.373 1_556 S
C187 H208 0.931 . S
H188 C183 0.931 . S
H189 C184 0.930 . S
C190 O197 1.259 . S
C190 O198 1.258 . S
N191 Co182 2.057 . S
N191 C192 1.316 1_554 S
N191 C193 1.375 . S
C192 N191 1.316 1_556 S
C192 N194 1.347 . S
C192 H203 0.931 . S
C193 N191 1.375 . S
C193 C195 1.350 . S
C193 H202 0.930 . S
N194 C192 1.347 . S
N194 C195 1.373 1_556 S
C195 C193 1.350 . S
C195 N194 1.373 1_554 S
C195 H209 0.931 . S
C196 O199 1.256 . S
C196 O200 1.255 . S
O197 Co180 2.021 1_554 S
O197 C190 1.259 . S
O198 Co182 2.117 . S
O198 C190 1.258 . S
O199 Co182 2.020 . S
O199 C196 1.256 . S
O200 Co180 2.062 1_554 S
O200 C196 1.255 . S
O201 C181 1.259 . S
O201 Co182 2.021 1_556 S
H202 C193 0.930 . S
H203 C192 0.931 . S
O204 Co180 2.117 . S
O204 C181 1.258 . S
O205 Co180 2.020 . S
O205 C207 1.256 . S
O206 Co182 2.062 1_556 S
O206 C207 1.255 . S
C207 O205 1.256 . S
C207 O206 1.255 . S
H208 C187 0.931 . S
H209 C195 0.931 . S
Co210 N215 2.057 . S
Co210 O227 2.021 1_455 S
Co210 O230 2.062 . S
Co210 O234 2.117 . S
Co210 O235 2.020 . S
C211 O231 1.259 . S
C211 O234 1.258 . S
Co212 N221 2.057 . S
Co212 O228 2.117 . S
Co212 O229 2.020 . S
Co212 O231 2.021 1_655 S
Co212 O236 2.062 . S
C213 N215 1.316 . S
C213 N216 1.347 . S
C213 H218 0.931 . S
C214 N215 1.375 . S
C214 C217 1.350 . S
C214 H219 0.930 . S
N215 Co210 2.057 . S
N215 C213 1.316 . S
N215 C214 1.375 . S
N216 C213 1.347 . S
N216 C217 1.373 . S
C217 C214 1.350 . S
C217 N216 1.373 . S
C217 H238 0.931 . S
H218 C213 0.931 . S
H219 C214 0.930 . S
C220 O227 1.259 . S
C220 O228 1.258 . S
N221 Co212 2.057 . S
N221 C222 1.316 . S
N221 C223 1.375 . S
C222 N221 1.316 . S
C222 N224 1.347 . S
C222 H233 0.931 . S
C223 N221 1.375 . S
C223 C225 1.350 . S
C223 H232 0.930 . S
N224 C222 1.347 . S
N224 C225 1.373 . S
C225 C223 1.350 . S
C225 N224 1.373 . S
C225 H239 0.931 . S
C226 O229 1.256 . S
C226 O230 1.255 1_655 S
O227 Co210 2.021 1_655 S
O227 C220 1.259 . S
O228 Co212 2.117 . S
O228 C220 1.258 . S
O229 Co212 2.020 . S
O229 C226 1.256 . S
O230 Co210 2.062 . S
O230 C226 1.255 1_455 S
O231 C211 1.259 . S
O231 Co212 2.021 1_455 S
H232 C223 0.930 . S
H233 C222 0.931 . S
O234 Co210 2.117 . S
O234 C211 1.258 . S
O235 Co210 2.020 . S
O235 C237 1.256 . S
O236 Co212 2.062 . S
O236 C237 1.255 1_655 S
C237 O235 1.256 . S
C237 O236 1.255 1_455 S
H238 C217 0.931 . S
H239 C225 0.931 . S
H240 C246 0.930 . S
H241 C249 0.930 . S
H242 C250 0.930 . S
H243 C251 0.930 . S
H244 C254 0.930 . S
H245 C255 0.930 . S
C246 H240 0.930 . S
C246 C247 1.355 . S
C246 C248 1.415 . S
C247 C246 1.355 . S
C247 C249 1.419 . S
C248 C246 1.415 . S
C248 C253 1.425 . S
C248 C255 1.409 . S
C249 H241 0.930 . S
C249 C247 1.419 . S
C249 C250 1.362 . S
C250 H242 0.930 . S
C250 C249 1.362 . S
C250 C253 1.409 . S
C251 H243 0.930 . S
C251 C252 1.355 . S
C251 C253 1.415 . S
C252 C251 1.355 . S
C252 C254 1.419 . S
C253 C248 1.425 . S
C253 C250 1.409 . S
C253 C251 1.415 . S
C254 H244 0.930 . S
C254 C252 1.419 . S
C254 C255 1.362 . S
C255 H245 0.930 . S
C255 C248 1.409 . S
C255 C254 1.362 . S
H256 C262 0.930 . S
H257 C265 0.930 . S
H258 C266 0.930 . S
H259 C267 0.930 . S
H260 C270 0.930 . S
H261 C271 0.930 . S
C262 H256 0.930 . S
C262 C263 1.355 . S
C262 C264 1.415 . S
C263 C262 1.355 . S
C263 C265 1.419 . S
C264 C262 1.415 . S
C264 C269 1.425 . S
C264 C271 1.409 . S
C265 H257 0.930 . S
C265 C263 1.419 . S
C265 C266 1.362 . S
C266 H258 0.930 . S
C266 C265 1.362 . S
C266 C269 1.409 . S
C267 H259 0.930 . S
C267 C268 1.355 . S
C267 C269 1.415 . S
C268 C267 1.355 . S
C268 C270 1.419 . S
C269 C264 1.425 . S
C269 C266 1.409 . S
C269 C267 1.415 . S
C270 H260 0.930 . S
C270 C268 1.419 . S
C270 C271 1.362 . S
C271 H261 0.930 . S
C271 C264 1.409 . S
C271 C270 1.362 . S
H272 C278 0.930 . S
H273 C281 0.930 . S
H274 C282 0.930 . S
H275 C283 0.930 . S
H276 C286 0.930 . S
H277 C287 0.930 . S
C278 H272 0.930 . S
C278 C279 1.355 . S
C278 C280 1.415 . S
C279 C278 1.355 . S
C279 C281 1.419 . S
C280 C278 1.415 . S
C280 C285 1.425 . S
C280 C287 1.409 . S
C281 H273 0.930 . S
C281 C279 1.419 . S
C281 C282 1.362 . S
C282 H274 0.930 . S
C282 C281 1.362 . S
C282 C285 1.409 . S
C283 H275 0.930 . S
C283 C284 1.355 . S
C283 C285 1.415 . S
C284 C283 1.355 . S
C284 C286 1.419 . S
C285 C280 1.425 . S
C285 C282 1.409 . S
C285 C283 1.415 . S
C286 H276 0.930 . S
C286 C284 1.419 . S
C286 C287 1.362 . S
C287 H277 0.930 . S
C287 C280 1.409 . S
C287 C286 1.362 . S
H288 C294 0.930 1_556 S
H289 C297 0.930 . S
H290 C298 0.930 . S
H291 C299 0.930 . S
H292 C302 0.930 . S
H293 C303 0.930 1_556 S
C294 H288 0.930 1_554 S
C294 C295 1.355 . S
C294 C296 1.415 . S
C295 C294 1.355 . S
C295 C297 1.419 . S
C296 C294 1.415 . S
C296 C301 1.425 . S
C296 C303 1.409 . S
C297 H289 0.930 . S
C297 C295 1.419 . S
C297 C298 1.362 . S
C298 H290 0.930 . S
C298 C297 1.362 . S
C298 C301 1.409 . S
C299 H291 0.930 . S
C299 C300 1.355 . S
C299 C301 1.415 . S
C300 C299 1.355 . S
C300 C302 1.419 . S
C301 C296 1.425 . S
C301 C298 1.409 . S
C301 C299 1.415 . S
C302 H292 0.930 . S
C302 C300 1.419 . S
C302 C303 1.362 . S
C303 H293 0.930 1_554 S
C303 C296 1.409 . S
C303 C302 1.362 . S
H304 C310 0.930 . S
H305 C313 0.930 . S
H306 C314 0.930 . S
H307 C315 0.930 . S
H308 C318 0.930 . S
H309 C319 0.930 . S
C310 H304 0.930 . S
C310 C311 1.355 . S
C310 C312 1.415 . S
C311 C310 1.355 . S
C311 C313 1.419 . S
C312 C310 1.415 . S
C312 C317 1.425 . S
C312 C319 1.409 . S
C313 H305 0.930 . S
C313 C311 1.419 . S
C313 C314 1.362 . S
C314 H306 0.930 . S
C314 C313 1.362 . S
C314 C317 1.409 . S
C315 H307 0.930 . S
C315 C316 1.355 . S
C315 C317 1.415 . S
C316 C315 1.355 . S
C316 C318 1.419 . S
C317 C312 1.425 . S
C317 C314 1.409 . S
C317 C315 1.415 . S
C318 H308 0.930 . S
C318 C316 1.419 . S
C318 C319 1.362 . S
C319 H309 0.930 . S
C319 C312 1.409 . S
C319 C318 1.362 . S
H320 C326 0.930 . S
H321 C329 0.930 . S
H322 C330 0.930 . S
H323 C331 0.930 . S
H324 C334 0.930 . S
H325 C335 0.930 . S
C326 H320 0.930 . S
C326 C327 1.355 . S
C326 C328 1.415 . S
C327 C326 1.355 . S
C327 C329 1.419 . S
C328 C326 1.415 . S
C328 C333 1.425 . S
C328 C335 1.409 . S
C329 H321 0.930 . S
C329 C327 1.419 . S
C329 C330 1.362 . S
C330 H322 0.930 . S
C330 C329 1.362 . S
C330 C333 1.409 . S
C331 H323 0.930 . S
C331 C332 1.355 . S
C331 C333 1.415 . S
C332 C331 1.355 . S
C332 C334 1.419 . S
C333 C328 1.425 . S
C333 C330 1.409 . S
C333 C331 1.415 . S
C334 H324 0.930 . S
C334 C332 1.419 . S
C334 C335 1.362 . S
C335 H325 0.930 . S
C335 C328 1.409 . S
C335 C334 1.362 . S
H336 C342 0.930 . S
H337 C345 0.930 . S
H338 C346 0.930 . S
H339 C347 0.930 . S
H340 C350 0.930 . S
H341 C351 0.930 . S
C342 H336 0.930 . S
C342 C343 1.355 . S
C342 C344 1.415 . S
C343 C342 1.355 . S
C343 C345 1.419 . S
C344 C342 1.415 . S
C344 C349 1.425 . S
C344 C351 1.409 . S
C345 H337 0.930 . S
C345 C343 1.419 . S
C345 C346 1.362 . S
C346 H338 0.930 . S
C346 C345 1.362 . S
C346 C349 1.409 . S
C347 H339 0.930 . S
C347 C348 1.355 . S
C347 C349 1.415 . S
C348 C347 1.355 . S
C348 C350 1.419 . S
C349 C344 1.425 . S
C349 C346 1.409 . S
C349 C347 1.415 . S
C350 H340 0.930 . S
C350 C348 1.419 . S
C350 C351 1.362 . S
C351 H341 0.930 . S
C351 C344 1.409 . S
C351 C350 1.362 . S
H352 C358 0.930 . S
H353 C361 0.930 . S
H354 C362 0.930 . S
H355 C363 0.930 . S
H356 C366 0.930 . S
H357 C367 0.930 . S
C358 H352 0.930 . S
C358 C359 1.355 . S
C358 C360 1.415 . S
C359 C358 1.355 . S
C359 C361 1.419 . S
C360 C358 1.415 . S
C360 C365 1.425 . S
C360 C367 1.409 . S
C361 H353 0.930 . S
C361 C359 1.419 . S
C361 C362 1.362 . S
C362 H354 0.930 . S
C362 C361 1.362 . S
C362 C365 1.409 . S
C363 H355 0.930 . S
C363 C364 1.355 . S
C363 C365 1.415 . S
C364 C363 1.355 . S
C364 C366 1.419 . S
C365 C360 1.425 . S
C365 C362 1.409 . S
C365 C363 1.415 . S
C366 H356 0.930 . S
C366 C364 1.419 . S
C366 C367 1.362 . S
C367 H357 0.930 . S
C367 C360 1.409 . S
C367 C366 1.362 . S
H368 C374 0.930 1_554 S
H369 C377 0.930 . S
H370 C378 0.930 . S
H371 C379 0.930 . S
H372 C382 0.930 . S
H373 C383 0.930 . S
C374 H368 0.930 1_556 S
C374 C375 1.355 . S
C374 C376 1.415 . S
C375 C374 1.355 . S
C375 C377 1.419 . S
C376 C374 1.415 . S
C376 C381 1.425 . S
C376 C383 1.409 . S
C377 H369 0.930 . S
C377 C375 1.419 . S
C377 C378 1.362 . S
C378 H370 0.930 . S
C378 C377 1.362 . S
C378 C381 1.409 . S
C379 H371 0.930 . S
C379 C380 1.355 . S
C379 C381 1.415 . S
C380 C379 1.355 . S
C380 C382 1.419 . S
C381 C376 1.425 . S
C381 C378 1.409 . S
C381 C379 1.415 . S
C382 H372 0.930 . S
C382 C380 1.419 . S
C382 C383 1.362 . S
C383 H373 0.930 . S
C383 C376 1.409 . S
C383 C382 1.362 . S
H384 C390 0.930 . S
H385 C393 0.930 . S
H386 C394 0.930 . S
H387 C395 0.930 . S
H388 C398 0.930 . S
H389 C399 0.933 . S
C390 H384 0.930 . S
C390 C391 1.355 . S
C390 C392 1.415 . S
C391 C390 1.355 . S
C391 C393 1.419 . S
C392 C390 1.415 . S
C392 C397 1.425 . S
C392 C399 1.405 1_554 S
C393 H385 0.930 . S
C393 C391 1.419 . S
C393 C394 1.362 . S
C394 H386 0.930 . S
C394 C393 1.362 . S
C394 C397 1.409 . S
C395 H387 0.930 . S
C395 C396 1.355 . S
C395 C397 1.415 . S
C396 C395 1.355 . S
C396 C398 1.419 1_554 S
C397 C392 1.425 . S
C397 C394 1.409 . S
C397 C395 1.415 . S
C398 H388 0.930 . S
C398 C396 1.419 1_556 S
C398 C399 1.363 . S
C399 H389 0.933 . S
C399 C392 1.405 1_556 S
C399 C398 1.363 . S
H400 C406 0.930 . S
H401 C409 0.930 . S
H402 C410 0.930 . S
H403 C411 0.930 . S
H404 C414 0.930 . S
H405 C415 0.930 . S
C406 H400 0.930 . S
C406 C407 1.355 . S
C406 C408 1.415 . S
C407 C406 1.355 . S
C407 C409 1.419 . S
C408 C406 1.415 . S
C408 C413 1.425 . S
C408 C415 1.409 . S
C409 H401 0.930 . S
C409 C407 1.419 . S
C409 C410 1.362 . S
C410 H402 0.930 . S
C410 C409 1.362 . S
C410 C413 1.409 . S
C411 H403 0.930 . S
C411 C412 1.355 . S
C411 C413 1.415 . S
C412 C411 1.355 . S
C412 C414 1.419 . S
C413 C408 1.425 . S
C413 C410 1.409 . S
C413 C411 1.415 . S
C414 H404 0.930 . S
C414 C412 1.419 . S
C414 C415 1.362 . S
C415 H405 0.930 . S
C415 C408 1.409 . S
C415 C414 1.362 . S
H416 C422 0.930 . S
H417 C425 0.930 . S
H418 C426 0.930 . S
H419 C427 0.930 . S
H420 C430 0.930 . S
H421 C431 0.930 . S
C422 H416 0.930 . S
C422 C423 1.355 . S
C422 C424 1.415 . S
C423 C422 1.355 . S
C423 C425 1.419 . S
C424 C422 1.415 . S
C424 C429 1.425 . S
C424 C431 1.409 . S
C425 H417 0.930 . S
C425 C423 1.419 . S
C425 C426 1.362 . S
C426 H418 0.930 . S
C426 C425 1.362 . S
C426 C429 1.409 . S
C427 H419 0.930 . S
C427 C428 1.355 . S
C427 C429 1.415 . S
C428 C427 1.355 . S
C428 C430 1.419 . S
C429 C424 1.425 . S
C429 C426 1.409 . S
C429 C427 1.415 . S
C430 H420 0.930 . S
C430 C428 1.419 . S
C430 C431 1.362 . S
C431 H421 0.930 . S
C431 C424 1.409 . S
C431 C430 1.362 . S
H432 C438 0.930 . S
H433 C441 0.930 . S
H434 C442 0.930 1_556 S
H435 C443 0.930 1_556 S
H436 C446 0.930 . S
H437 C447 0.930 . S
C438 H432 0.930 . S
C438 C439 1.355 . S
C438 C440 1.415 . S
C439 C438 1.355 . S
C439 C441 1.419 . S
C440 C438 1.415 . S
C440 C445 1.425 . S
C440 C447 1.409 . S
C441 H433 0.930 . S
C441 C439 1.419 . S
C441 C442 1.362 . S
C442 H434 0.930 1_554 S
C442 C441 1.362 . S
C442 C445 1.409 . S
C443 H435 0.930 1_554 S
C443 C444 1.355 . S
C443 C445 1.415 . S
C444 C443 1.355 . S
C444 C446 1.419 . S
C445 C440 1.425 . S
C445 C442 1.409 . S
C445 C443 1.415 . S
C446 H436 0.930 . S
C446 C444 1.419 . S
C446 C447 1.362 . S
C447 H437 0.930 . S
C447 C440 1.409 . S
C447 C446 1.362 . S
H448 C454 0.930 . S
H449 C457 0.930 . S
H450 C458 0.930 . S
H451 C459 0.930 . S
H452 C462 0.930 . S
H453 C463 0.930 . S
C454 H448 0.930 . S
C454 C455 1.355 . S
C454 C456 1.415 . S
C455 C454 1.355 . S
C455 C457 1.419 1_556 S
C456 C454 1.415 . S
C456 C461 1.425 . S
C456 C463 1.409 . S
C457 H449 0.930 . S
C457 C455 1.419 1_554 S
C457 C458 1.362 . S
C458 H450 0.930 . S
C458 C457 1.362 . S
C458 C461 1.409 1_554 S
C459 H451 0.930 . S
C459 C460 1.355 . S
C459 C461 1.415 . S
C460 C459 1.355 . S
C460 C462 1.419 . S
C461 C456 1.425 . S
C461 C458 1.409 1_556 S
C461 C459 1.415 . S
C462 H452 0.930 . S
C462 C460 1.419 . S
C462 C463 1.362 . S
C463 H453 0.930 . S
C463 C456 1.409 . S
C463 C462 1.362 . S
H464 C470 0.930 . S
H465 C473 0.930 . S
H466 C474 0.930 . S
H467 C475 0.930 . S
H468 C478 0.930 . S
H469 C479 0.930 . S
C470 H464 0.930 . S
C470 C471 1.355 . S
C470 C472 1.415 . S
C471 C470 1.355 . S
C471 C473 1.419 . S
C472 C470 1.415 . S
C472 C477 1.425 . S
C472 C479 1.409 . S
C473 H465 0.930 . S
C473 C471 1.419 . S
C473 C474 1.362 . S
C474 H466 0.930 . S
C474 C473 1.362 . S
C474 C477 1.409 . S
C475 H467 0.930 . S
C475 C476 1.355 . S
C475 C477 1.415 . S
C476 C475 1.355 . S
C476 C478 1.419 . S
C477 C472 1.425 . S
C477 C474 1.409 . S
C477 C475 1.415 . S
C478 H468 0.930 . S
C478 C476 1.419 . S
C478 C479 1.362 . S
C479 H469 0.930 . S
C479 C472 1.409 . S
C479 C478 1.362 . S
H480 C486 0.930 . S
H481 C489 0.930 . S
H482 C490 0.930 . S
H483 C491 0.930 . S
H484 C494 0.930 . S
H485 C495 0.930 . S
C486 H480 0.930 . S
C486 C487 1.355 . S
C486 C488 1.415 . S
C487 C486 1.355 . S
C487 C489 1.419 . S
C488 C486 1.415 . S
C488 C493 1.425 . S
C488 C495 1.409 . S
C489 H481 0.930 . S
C489 C487 1.419 . S
C489 C490 1.362 . S
C490 H482 0.930 . S
C490 C489 1.362 . S
C490 C493 1.409 . S
C491 H483 0.930 . S
C491 C492 1.355 . S
C491 C493 1.415 . S
C492 C491 1.355 . S
C492 C494 1.419 . S
C493 C488 1.425 . S
C493 C490 1.409 . S
C493 C491 1.415 . S
C494 H484 0.930 . S
C494 C492 1.419 . S
C494 C495 1.362 . S
C495 H485 0.930 . S
C495 C488 1.409 . S
C495 C494 1.362 . S
H496 C502 0.930 . S
H497 C505 0.930 . S
H498 C506 0.930 1_554 S
H499 C507 0.930 . S
H500 C510 0.930 . S
H501 C511 0.930 1_556 S
C502 H496 0.930 . S
C502 C503 1.355 1_665 S
C502 C504 1.415 . S
C503 C502 1.355 1_445 S
C503 C505 1.419 . S
C504 C502 1.415 . S
C504 C509 1.425 1_666 S
C504 C511 1.409 1_556 S
C505 H497 0.930 . S
C505 C503 1.419 . S
C505 C506 1.362 . S
C506 H498 0.930 1_556 S
C506 C505 1.362 . S
C506 C509 1.409 1_556 S
C507 H499 0.930 . S
C507 C508 1.355 1_445 S
C507 C509 1.415 . S
C508 C507 1.355 1_665 S
C508 C510 1.419 . S
C509 C504 1.425 1_444 S
C509 C506 1.409 1_554 S
C509 C507 1.415 . S
C510 H500 0.930 . S
C510 C508 1.419 . S
C510 C511 1.362 . S
C511 H501 0.930 1_554 S
C511 C504 1.409 1_554 S
C511 C510 1.362 . S
H512 C518 0.930 . S
H513 C521 0.930 . S
H514 C522 0.930 . S
H515 C523 0.930 . S
H516 C526 0.930 . S
H517 C527 0.930 . S
C518 H512 0.930 . S
C518 C519 1.355 . S
C518 C520 1.415 . S
C519 C518 1.355 . S
C519 C521 1.419 . S
C520 C518 1.415 . S
C520 C525 1.425 . S
C520 C527 1.409 . S
C521 H513 0.930 . S
C521 C519 1.419 . S
C521 C522 1.362 . S
C522 H514 0.930 . S
C522 C521 1.362 . S
C522 C525 1.409 . S
C523 H515 0.930 . S
C523 C524 1.355 . S
C523 C525 1.415 . S
C524 C523 1.355 . S
C524 C526 1.419 . S
C525 C520 1.425 . S
C525 C522 1.409 . S
C525 C523 1.415 . S
C526 H516 0.930 . S
C526 C524 1.419 . S
C526 C527 1.362 . S
C527 H517 0.930 . S
C527 C520 1.409 . S
C527 C526 1.362 . S
H528 C534 0.930 . S
H529 C537 0.930 . S
H530 C538 0.930 . S
H531 C539 0.930 . S
H532 C542 0.930 . S
H533 C543 0.930 . S
C534 H528 0.930 . S
C534 C535 1.355 1_565 S
C534 C536 1.415 . S
C535 C534 1.355 1_545 S
C535 C537 1.419 . S
C536 C534 1.415 . S
C536 C541 1.425 1_565 S
C536 C543 1.409 . S
C537 H529 0.930 . S
C537 C535 1.419 . S
C537 C538 1.362 . S
C538 H530 0.930 . S
C538 C537 1.362 . S
C538 C541 1.409 . S
C539 H531 0.930 . S
C539 C540 1.355 1_545 S
C539 C541 1.415 . S
C540 C539 1.355 1_565 S
C540 C542 1.419 . S
C541 C536 1.425 1_545 S
C541 C538 1.409 . S
C541 C539 1.415 . S
C542 H532 0.930 . S
C542 C540 1.419 . S
C542 C543 1.362 . S
C543 H533 0.930 . S
C543 C536 1.409 . S
C543 C542 1.362 . S
H544 C550 0.930 . S
H545 C553 0.930 . S
H546 C554 0.930 . S
H547 C555 0.930 . S
H548 C558 0.930 . S
H549 C559 0.930 . S
C550 H544 0.930 . S
C550 C551 1.355 . S
C550 C552 1.415 . S
C551 C550 1.355 . S
C551 C553 1.419 . S
C552 C550 1.415 . S
C552 C557 1.425 . S
C552 C559 1.409 . S
C553 H545 0.930 . S
C553 C551 1.419 . S
C553 C554 1.362 . S
C554 H546 0.930 . S
C554 C553 1.362 . S
C554 C557 1.409 . S
C555 H547 0.930 . S
C555 C556 1.355 . S
C555 C557 1.415 . S
C556 C555 1.355 . S
C556 C558 1.419 . S
C557 C552 1.425 . S
C557 C554 1.409 . S
C557 C555 1.415 . S
C558 H548 0.930 . S
C558 C556 1.419 . S
C558 C559 1.362 . S
C559 H549 0.930 . S
C559 C552 1.409 . S
C559 C558 1.362 . S
H560 C566 0.930 . S
H561 C569 0.930 . S
H562 C570 0.930 . S
H563 C571 0.930 . S
H564 C574 0.930 . S
H565 C575 0.930 . S
C566 H560 0.930 . S
C566 C567 1.355 . S
C566 C568 1.415 . S
C567 C566 1.355 . S
C567 C569 1.419 . S
C568 C566 1.415 . S
C568 C573 1.425 . S
C568 C575 1.409 . S
C569 H561 0.930 . S
C569 C567 1.419 . S
C569 C570 1.362 . S
C570 H562 0.930 . S
C570 C569 1.362 . S
C570 C573 1.409 . S
C571 H563 0.930 . S
C571 C572 1.355 . S
C571 C573 1.415 . S
C572 C571 1.355 . S
C572 C574 1.419 . S
C573 C568 1.425 . S
C573 C570 1.409 . S
C573 C571 1.415 . S
C574 H564 0.930 . S
C574 C572 1.419 . S
C574 C575 1.362 . S
C575 H565 0.930 . S
C575 C568 1.409 . S
C575 C574 1.362 . S
H576 C582 0.930 . S
H577 C585 0.930 . S
H578 C586 0.930 . S
H579 C587 0.930 . S
H580 C590 0.930 1_556 S
H581 C591 0.930 . S
C582 H576 0.930 . S
C582 C583 1.355 . S
C582 C584 1.415 . S
C583 C582 1.355 . S
C583 C585 1.419 . S
C584 C582 1.415 . S
C584 C589 1.425 . S
C584 C591 1.409 . S
C585 H577 0.930 . S
C585 C583 1.419 . S
C585 C586 1.362 . S
C586 H578 0.930 . S
C586 C585 1.362 . S
C586 C589 1.409 . S
C587 H579 0.930 . S
C587 C588 1.355 . S
C587 C589 1.415 . S
C588 C587 1.355 . S
C588 C590 1.419 . S
C589 C584 1.425 . S
C589 C586 1.409 . S
C589 C587 1.415 . S
C590 H580 0.930 1_554 S
C590 C588 1.419 . S
C590 C591 1.362 . S
C591 H581 0.930 . S
C591 C584 1.409 . S
C591 C590 1.362 . S
H592 C598 0.930 . S
H593 C601 0.930 . S
H594 C602 0.930 . S
H595 C603 0.930 . S
H596 C606 0.930 . S
H597 C607 0.930 . S
C598 H592 0.930 . S
C598 C599 1.355 . S
C598 C600 1.415 . S
C599 C598 1.355 . S
C599 C601 1.419 . S
C600 C598 1.415 . S
C600 C605 1.425 . S
C600 C607 1.409 . S
C601 H593 0.930 . S
C601 C599 1.419 . S
C601 C602 1.362 . S
C602 H594 0.930 . S
C602 C601 1.362 . S
C602 C605 1.409 . S
C603 H595 0.930 . S
C603 C604 1.355 . S
C603 C605 1.415 . S
C604 C603 1.355 . S
C604 C606 1.419 . S
C605 C600 1.425 . S
C605 C602 1.409 . S
C605 C603 1.415 . S
C606 H596 0.930 . S
C606 C604 1.419 . S
C606 C607 1.362 . S
C607 H597 0.930 . S
C607 C600 1.409 . S
C607 C606 1.362 . S
H608 C614 0.930 . S
H609 C617 0.930 . S
H610 C618 0.930 . S
H611 C619 0.930 . S
H612 C622 0.930 . S
H613 C623 0.930 . S
C614 H608 0.930 . S
C614 C615 1.357 . S
C614 C616 1.415 . S
C615 C614 1.357 . S
C615 C617 1.415 1_455 S
C616 C614 1.415 . S
C616 C621 1.425 1_456 S
C616 C623 1.409 1_556 S
C617 H609 0.930 . S
C617 C615 1.415 1_655 S
C617 C618 1.362 . S
C618 H610 0.930 . S
C618 C617 1.362 . S
C618 C621 1.409 1_556 S
C619 H611 0.930 . S
C619 C620 1.352 . S
C619 C621 1.415 . S
C620 C619 1.352 . S
C620 C622 1.423 1_655 S
C621 C616 1.425 1_654 S
C621 C618 1.409 1_554 S
C621 C619 1.415 . S
C622 H612 0.930 . S
C622 C620 1.423 1_455 S
C622 C623 1.362 . S
C623 H613 0.930 . S
C623 C616 1.409 1_554 S
C623 C622 1.362 . S
C247 N14 0.579 . S
C252 N104 0.684 . S
C263 C10 1.489 . S
C268 N44 1.464 . S
C279 C40 2.767 . S
C284 C70 2.776 . S
C295 N74 1.499 . S
C300 C100 1.502 . S
C311 N6 0.653 . S
C316 N156 0.586 . S
C327 C1 1.487 . S
C332 N126 1.455 . S
C343 C121 2.778 . S
C348 C61 2.766 . S
C359 C151 1.489 . S
C364 N66 1.448 . S
C375 N194 0.678 . S
C380 N164 0.573 . S
C391 N134 1.472 . S
C396 C190 1.509 . S
C407 C220 2.769 . S
C412 C130 2.780 . S
C423 C160 1.488 . S
C428 N224 1.450 . S
C439 N96 0.617 . S
C444 N186 0.607 . S
C455 C181 1.495 . S
C460 N36 1.443 . S
C471 C31 2.773 . S
C476 C211 2.763 . S
C487 C91 1.488 . S
C492 N216 1.458 . S
C503 C16 1.336 . S
C508 C27 1.336 . S
C519 C57 1.272 . S
C524 C46 1.272 1_554 S
C535 C76 1.271 1_545 S
C540 C87 1.268 1_565 S
C551 C106 1.307 1_556 S
C556 C117 1.307 . S
C567 C147 1.269 1_556 S
C572 C136 1.269 . S
C583 C166 1.297 . S
C588 C177 1.297 1_554 S
C599 C207 1.312 . S
C604 C196 1.312 . S
C615 C237 1.271 . S
C620 C226 1.269 . S
