# Generated by pormake.
# Topology snp, (6)-cn, num edge types: 1
# Building blocks:
#     Node 0, Type 0, BuildingBlock: KUMBUR_clean_sbu_1, # of connection points: 6
#     Node 1, Type 0, BuildingBlock: KUMBUR_clean_sbu_1, # of connection points: 6
#     Node 2, Type 0, BuildingBlock: KUMBUR_clean_sbu_1, # of connection points: 6
#     Node 3, Type 0, BuildingBlock: KUMBUR_clean_sbu_1, # of connection points: 6
#     Edge 4, Type (0, 0), BuildingBlock: UVAHIK_clean_linker_0, # of connection points: 2
#     Edge 5, Type (0, 0), BuildingBlock: UVAHIK_clean_linker_0, # of connection points: 2
#     Edge 6, Type (0, 0), BuildingBlock: UVAHIK_clean_linker_0, # of connection points: 2
#     Edge 7, Type (0, 0), BuildingBlock: UVAHIK_clean_linker_0, # of connection points: 2
#     Edge 8, Type (0, 0), BuildingBlock: UVAHIK_clean_linker_0, # of connection points: 2
#     Edge 9, Type (0, 0), BuildingBlock: UVAHIK_clean_linker_0, # of connection points: 2
#     Edge 10, Type (0, 0), BuildingBlock: UVAHIK_clean_linker_0, # of connection points: 2
#     Edge 11, Type (0, 0), BuildingBlock: UVAHIK_clean_linker_0, # of connection points: 2
#     Edge 12, Type (0, 0), BuildingBlock: UVAHIK_clean_linker_0, # of connection points: 2
#     Edge 13, Type (0, 0), BuildingBlock: UVAHIK_clean_linker_0, # of connection points: 2
#     Edge 14, Type (0, 0), BuildingBlock: UVAHIK_clean_linker_0, # of connection points: 2
#     Edge 15, Type (0, 0), BuildingBlock: UVAHIK_clean_linker_0, # of connection points: 2
# Relax obj value: 0.339
# Max RMSD: 0.293
# Mean RMSD: 0.251
data_MOF--net-snp--node1-KUMBUR_clean_sbu_1--edge1-UVAHIK_clean_linker_0
_symmetry_space_group_name_H-M    P1
_symmetry_Int_Tables_number       1
_symmetry_cell_setting            triclinic
loop_
_symmetry_equiv_pos_as_xyz
'x, y, z'
_cell_length_a     31.502353
_cell_length_b     31.601375
_cell_length_c     39.988014
_cell_angle_alpha  96.515679
_cell_angle_beta   78.770646
_cell_angle_gamma 154.99943
loop_
_atom_site_label
_atom_site_type_symbol
_atom_site_fract_x
_atom_site_fract_y
_atom_site_fract_z
_atom_type_partial_charge
Tb0 Tb 0.82908 0.63558 0.03708 0.0
C1 C 0.48779 0.22111 0.12915 0.0
N2 N 0.50318 0.27745 0.12878 0.0
C3 C 0.32341 0.12687 0.13088 0.0
C4 C 0.39068 0.11605 0.12821 0.0
C5 C 0.421 0.23061 0.13213 0.0
C6 C 0.30863 0.06962 0.12816 0.0
C7 C 0.55363 0.21124 0.1356 0.0
C8 C 0.56841 0.26825 0.13249 0.0
C9 C 0.45901 0.10778 0.13257 0.0
C10 C 0.37775 0.06032 0.12876 0.0
Tb11 Tb 0.66745 0.44713 0.13 0.0
N12 N 0.65861 0.36821 0.13544 0.0
C13 C 0.63249 0.25875 0.14339 0.0
C14 C 0.73377 0.41368 0.1447 0.0
C15 C 0.72191 0.35971 0.14877 0.0
H16 H 0.43201 0.27425 0.13448 0.0
H17 H 0.78175 0.39602 0.15602 0.0
H18 H 0.97804 0.68309 0.99909 0.0
H19 H 0.95082 0.90595 0.06343 0.0
H20 H 0.80234 0.49138 0.1494 0.0
H21 H 0.62345 0.21713 0.14664 0.0
H22 H 0.82671 0.73773 0.05306 0.0
H23 H 0.25968 0.09116 0.13219 0.0
H24 H 0.44676 0.06307 0.13435 0.0
H25 H 0.30416 0.9798 0.12758 0.0
H26 H 0.14986 0.81093 1.00021 0.0
H27 H 0.23284 -0.01087 0.12737 0.0
H28 H 0.12934 0.04643 0.06442 0.0
N29 N -0.00604 0.75707 1.02846 0.0
C30 C 0.0624 0.84601 0.03943 0.0
C31 C 0.12598 0.82146 1.01161 0.0
C32 C 0.16415 0.92455 0.03824 0.0
C33 C 0.02739 0.74785 1.0118 0.0
C34 C 0.19356 0.90891 1.02589 0.0
N35 N 0.93389 0.78371 0.05013 0.0
C36 C 0.90432 0.79905 0.05419 0.0
C37 C 0.10458 0.95677 0.05622 0.0
C38 C 0.03263 0.86133 0.04931 0.0
C39 C 0.07437 0.9725 0.06124 0.0
C40 C 0.97402 0.8936 0.06012 0.0
H41 H 0.26959 0.96594 1.02607 0.0
H42 H 0.31246 0.07819 0.04772 0.0
H43 H 0.26134 0.10754 0.06233 0.0
O44 O 0.76636 0.61916 1.00725 0.0
O45 O 0.84307 0.67725 0.08858 0.0
O46 O 0.83156 0.60911 0.11826 0.0
O47 O 0.89361 0.69293 0.98361 0.0
O48 O 0.67708 0.52691 0.06145 0.0
O49 O 0.65804 0.50474 0.11991 0.0
O50 O 0.64486 0.41111 0.18136 0.0
O51 O 0.59254 0.3738 0.08555 0.0
O52 O 0.71589 0.48383 0.03314 0.0
O53 O 0.63397 0.46574 0.17157 0.0
O54 O 0.81477 0.55109 0.10026 0.0
O55 O 0.82695 0.56366 0.04166 0.0
C56 C 0.86206 0.6756 0.1144 0.0
C57 C 0.88745 0.75456 0.96131 0.0
C58 C 0.89519 0.81905 0.92291 0.0
C59 C -0.01123 0.91575 0.93169 0.0
C60 C -0.01645 0.85387 0.96739 0.0
C61 C 0.03253 0.93285 0.95322 0.0
C62 C 0.84326 0.73727 0.93864 0.0
C63 C 0.62914 0.49322 0.09398 0.0
C64 C 0.83528 0.6712 0.97913 0.0
C65 C 0.23428 0.01741 0.04803 0.0
C66 C 0.20505 0.0341 0.05641 0.0
C67 C 0.62524 0.39296 0.05197 0.0
C68 C 0.5195 0.34233 0.22164 0.0
C69 C 0.41377 0.2392 0.27949 0.0
C70 C 0.33192 0.18631 0.27061 0.0
C71 C 0.43619 0.28892 0.21441 0.0
C72 C 0.50762 0.31655 0.25445 0.0
C73 C 0.34317 0.21099 0.23847 0.0
C74 C 0.83068 0.54612 0.06845 0.0
C75 C 0.61832 0.4257 0.19517 0.0
H76 H 0.0291 0.97963 0.92244 0.0
H77 H 0.02111 0.87086 0.98345 0.0
H78 H 0.10532 0.0084 0.95909 0.0
H79 H 0.77011 0.66137 0.93314 0.0
H80 H 0.25849 0.1254 0.28874 0.0
H81 H 0.44293 0.3079 0.19018 0.0
H82 H 0.57148 0.35794 0.26073 0.0
H83 H 0.27953 0.17004 0.23235 0.0
Tb84 Tb 0.31966 0.50627 0.6132 0.0
C85 C 0.78983 0.97955 0.56002 0.0
N86 N 0.6953 0.91279 0.56401 0.0
C87 C 0.77041 0.04942 0.56163 0.0
C88 C 0.87912 0.08443 0.55382 0.0
C89 C 0.68377 0.94568 0.5662 0.0
C90 C 0.86848 0.11892 0.55412 0.0
C91 C 0.89444 0.00915 0.55159 0.0
C92 C 0.79739 0.94217 0.55886 0.0
C93 C -0.01617 0.11407 0.54531 0.0
C94 C 0.97596 0.15134 0.54657 0.0
Tb95 Tb 0.58097 0.76144 0.54978 0.0
N96 N 0.70987 0.8403 0.56176 0.0
C97 C 0.89841 0.96822 0.54869 0.0
C98 C 0.71299 0.79981 0.56035 0.0
C99 C 0.80753 0.86338 0.55437 0.0
H100 H 0.60954 0.89364 0.56866 0.0
H101 H 0.81059 0.8317 0.55216 0.0
H102 H 0.29664 0.38133 0.61959 0.0
H103 H 0.05922 0.39164 0.59571 0.0
H104 H 0.64391 0.71942 0.56171 0.0
H105 H 0.97091 0.01651 0.54064 0.0
H106 H 0.23079 0.5127 0.58694 0.0
H107 H 0.76167 0.07567 0.56216 0.0
H108 H 0.05941 0.16712 0.53897 0.0
H109 H 0.04492 0.23201 0.54208 0.0
H110 H 0.15227 0.20239 0.63341 0.0
H111 H 0.93552 0.19905 0.54857 0.0
H112 H 0.90377 0.21103 0.61769 0.0
N113 N 0.2012 0.34711 0.61473 0.0
C114 C 0.10371 0.27363 0.61738 0.0
C115 C 0.1376 0.22139 0.62873 0.0
C116 C 0.01846 0.17106 0.62771 0.0
C117 C 0.21963 0.32276 0.61997 0.0
C118 C 0.03647 0.14514 0.63277 0.0
N119 N 0.17419 0.40244 0.60203 0.0
C120 C 0.16413 0.43439 0.59552 0.0
C121 C -0.01019 0.23083 0.61836 0.0
C122 C 0.08958 0.3027 0.61196 0.0
C123 C 0.97914 0.2638 0.61299 0.0
C124 C 0.06664 0.3656 0.60056 0.0
H125 H 0.97302 0.06702 0.64054 0.0
H126 H 0.85216 0.02024 0.64321 0.0
H127 H 0.82705 0.0727 0.63578 0.0
O128 O 0.27945 0.51708 0.65567 0.0
O129 O 0.30036 0.48892 0.55885 0.0
O130 O 0.44282 0.65258 0.53073 0.0
O131 O 0.25679 0.42997 0.66159 0.0
O132 O 0.40806 0.64439 0.61673 0.0
O133 O 0.47881 0.72498 0.56355 0.0
O134 O 0.65799 0.79497 0.50357 0.0
O135 O 0.59023 0.76309 0.6054 0.0
O136 O 0.4543 0.59756 0.62446 0.0
O137 O 0.66218 0.86816 0.5099 0.0
O138 O 0.50405 0.63341 0.53736 0.0
O139 O 0.42142 0.54356 0.59095 0.0
C140 C 0.35252 0.55304 0.53142 0.0
C141 C 0.12708 0.36132 0.69413 0.0
C142 C -0.00784 0.29125 0.72533 0.0
C143 C 0.92465 0.19599 0.73125 0.0
C144 C 0.05867 0.26629 0.70155 0.0
C145 C 0.95748 0.1838 0.71905 0.0
C146 C 0.09242 0.37237 0.70515 0.0
C147 C 0.42245 0.68502 0.59435 0.0
C148 C 0.23513 0.44942 0.67575 0.0
C149 C 0.91866 0.09897 0.63436 0.0
C150 C 0.90443 0.12905 0.63032 0.0
C151 C 0.54 0.69345 0.62872 0.0
C152 C 0.7618 0.92211 0.45591 0.0
C153 C 0.86212 0.97261 0.40332 0.0
C154 C 0.88651 0.03342 0.38964 0.0
C155 C 0.7888 -0.0153 0.44183 0.0
C156 C 0.80123 0.91884 0.43703 0.0
C157 C 0.8515 0.04057 0.40895 0.0
C158 C 0.45423 0.56239 0.55781 0.0
C159 C 0.69501 0.8626 0.49058 0.0
H160 H 0.84764 0.13091 0.74694 0.0
H161 H 0.08301 0.25528 0.69382 0.0
H162 H 0.90518 0.1107 0.72439 0.0
H163 H 0.14552 0.44553 0.69868 0.0
H164 H 0.92958 0.07273 0.36352 0.0
H165 H 0.76103 -0.00992 0.45613 0.0
H166 H 0.78327 0.87337 0.44854 0.0
H167 H 0.87111 0.08781 0.39802 0.0
Tb168 Tb 0.01407 0.23505 0.12475 0.0
C169 C 0.5411 0.83139 0.22369 0.0
N170 N 0.64428 0.92445 0.22121 0.0
C171 C 0.62526 0.96695 0.26503 0.0
C172 C 0.47498 0.80078 0.24784 0.0
C173 C 0.68733 -0.0076 0.24153 0.0
C174 C 0.51851 0.87046 0.2684 0.0
C175 C 0.39462 0.66518 0.20631 0.0
C176 C 0.50175 0.76604 0.20227 0.0
C177 C 0.32776 0.63313 0.23075 0.0
C178 C 0.36794 0.70137 0.25108 0.0
Tb179 Tb 0.73291 0.94871 0.18613 0.0
N180 N 0.56862 0.80006 0.17859 0.0
C181 C 0.3583 0.59884 0.18662 0.0
C182 C 0.53337 0.73768 0.15724 0.0
C183 C 0.42791 0.63546 0.16177 0.0
H184 H 0.76938 0.06643 0.23963 0.0
H185 H 0.40063 0.58427 0.14689 0.0
H186 H 0.11022 0.23415 0.07415 0.0
H187 H 0.18825 0.53477 0.16967 0.0
H188 H 0.58572 0.76267 0.13938 0.0
H189 H 0.27694 0.51944 0.19021 0.0
H190 H 0.05111 0.35795 0.17161 0.0
H191 H 0.65961 0.0212 0.28092 0.0
H192 H 0.24508 0.5559 0.23414 0.0
H193 H 0.31563 0.67594 0.26971 0.0
H194 H 0.2794 0.36073 0.03903 0.0
H195 H 0.47049 0.85028 0.2871 0.0
H196 H 0.35751 0.6722 0.12955 0.0
N197 N 0.16919 0.34404 0.09622 0.0
C198 C 0.2523 0.44426 0.09543 0.0
C199 C 0.27298 0.38528 0.05498 0.0
C200 C 0.34854 0.51911 0.07362 0.0
C201 C 0.17754 0.31368 0.07546 0.0
C202 C 0.35896 0.48854 0.05402 0.0
N203 N 0.14333 0.39561 0.13464 0.0
C204 C 0.12587 0.4177 0.1553 0.0
C205 C 0.31729 0.57226 0.11132 0.0
C206 C 0.23791 0.47082 0.11454 0.0
C207 C 0.29832 0.59505 0.131 0.0
C208 C 0.20305 0.51774 0.15382 0.0
H209 H 0.4319 0.54371 0.0372 0.0
H210 H 0.50367 0.67971 0.05405 0.0
H211 H 0.4755 0.72597 0.08647 0.0
O212 O 0.91221 0.17114 0.09882 0.0
O213 O 0.01349 0.24333 0.18231 0.0
O214 O 0.8574 0.07743 0.21526 0.0
O215 O 0.07615 0.3204 0.08074 0.0
O216 O 0.90221 0.17469 0.16476 0.0
O217 O 0.7307 0.00898 0.16693 0.0
O218 O 0.68045 0.83894 0.1907 0.0
O219 O 0.75668 0.94413 0.1293 0.0
O220 O 0.92417 0.10811 0.09627 0.0
O221 O 0.72244 0.91444 0.23349 0.0
O222 O 0.88186 0.07422 0.15972 0.0
O223 O 0.03027 0.18363 0.13586 0.0
C224 C 0.95372 0.17897 0.21209 0.0
C225 C -0.01663 0.29561 0.07158 0.0
C226 C 0.93361 0.30431 0.0384 0.0
C227 C 0.00153 0.39413 0.05105 0.0
C228 C 0.05044 0.38539 0.0837 0.0
C229 C 0.05865 0.4336 0.07379 0.0
C230 C 0.92363 0.25429 0.04938 0.0
C231 C 0.81147 0.10654 0.16167 0.0
C232 C -0.01223 0.2544 0.0773 0.0
C233 C 0.42928 0.62106 0.07084 0.0
C234 C 0.41305 0.64733 0.08912 0.0
C235 C 0.82929 0.00679 0.09956 0.0
C236 C 0.58396 0.74316 0.24705 0.0
C237 C 0.49358 0.6432 0.30348 0.0
C238 C 0.39983 0.56074 0.2929 0.0
C239 C 0.49031 0.65624 0.23642 0.0
C240 C 0.58547 0.73576 0.28063 0.0
C241 C 0.39861 0.56694 0.2594 0.0
C242 C 0.9443 0.09852 0.15581 0.0
C243 C 0.67985 0.84113 0.22349 0.0
H244 H 0.01441 0.43685 0.04219 0.0
H245 H 0.10091 0.42175 0.09927 0.0
H246 H 0.11265 0.50413 0.0827 0.0
H247 H 0.87358 0.18628 0.03934 0.0
H248 H 0.32769 0.48981 0.31004 0.0
H249 H 0.48776 0.65629 0.21026 0.0
H250 H 0.65863 0.80072 0.28825 0.0
H251 H 0.32677 0.50147 0.25088 0.0
Tb252 Tb 0.09824 0.86643 0.70108 0.0
C253 C 0.59384 0.41089 0.73796 0.0
N254 N 0.66067 0.44791 0.71157 0.0
C255 C 0.55406 0.29053 0.7199 0.0
C256 C 0.5077 0.31419 0.75745 0.0
C257 C 0.63773 0.38619 0.70106 0.0
C258 C 0.48999 0.25518 0.74863 0.0
C259 C 0.53408 0.42632 0.76899 0.0
C260 C 0.6059 0.46568 0.74359 0.0
C261 C 0.4519 0.33283 0.78963 0.0
C262 C 0.43869 0.27691 0.78386 0.0
Tb263 Tb 0.78826 0.60255 0.68234 0.0
N264 N 0.6856 0.55568 0.72312 0.0
C265 C 0.54536 0.48081 0.77217 0.0
C266 C 0.69327 0.6059 0.72448 0.0
C267 C 0.62455 0.57027 0.74952 0.0
H268 H 0.68099 0.40794 0.67752 0.0
H269 H 0.6324 0.61151 0.75115 0.0
H270 H 0.16968 0.01838 0.74337 0.0
H271 H 0.3275 0.9571 0.60477 0.0
H272 H 0.75456 0.67501 0.70686 0.0
H273 H 0.49189 0.45318 0.79142 0.0
H274 H 0.18004 0.84865 0.65201 0.0
H275 H 0.53745 0.24294 0.71169 0.0
H276 H 0.39626 0.30161 0.80942 0.0
H277 H 0.37262 0.20311 0.79915 0.0
H278 H 0.31128 0.19742 0.73327 0.0
H279 H 0.42412 0.18018 0.76273 0.0
H280 H 0.46784 0.1332 0.58608 0.0
N281 N 0.23076 0.03226 0.69786 0.0
C282 C 0.31172 0.09578 0.67092 0.0
C283 C 0.3118 0.1695 0.71533 0.0
C284 C 0.39378 0.19795 0.66394 0.0
C285 C 0.23179 0.06836 0.72103 0.0
C286 C 0.39225 0.23419 0.68626 0.0
N287 N 0.23456 0.96067 0.6595 0.0
C288 C 0.24076 0.92511 0.64417 0.0
C289 C 0.39973 0.12374 0.62426 0.0
C290 C 0.31413 0.05895 0.65122 0.0
C291 C 0.4034 0.08585 0.60695 0.0
C292 C 0.32437 -0.01345 0.6174 0.0
H293 H 0.45405 0.31241 0.68187 0.0
H294 H 0.53571 0.33725 0.62835 0.0
H295 H 0.54405 0.27451 0.5945 0.0
O296 O 0.13226 0.83832 0.71585 0.0
O297 O 0.08025 0.83358 0.64719 0.0
O298 O 0.91284 0.69288 0.63611 0.0
O299 O 0.15012 0.91278 0.74712 0.0
O300 O 0.94616 0.70113 0.7081 0.0
O301 O 0.83942 0.58218 0.67508 0.0
O302 O 0.7735 0.63586 0.6496 0.0
O303 O 0.81814 0.65755 0.73387 0.0
O304 O -0.00896 0.81132 0.74142 0.0
O305 O 0.66801 0.48951 0.65664 0.0
O306 O 0.93539 0.75928 0.6837 0.0
O307 O 0.08701 0.91917 0.68294 0.0
C308 C 0.01458 0.77578 0.62637 0.0
C309 C 0.09186 0.80083 0.77561 0.0
C310 C 0.09261 0.76149 0.82416 0.0
C311 C -0.01576 0.66553 0.8323 0.0
C312 C -0.01592 0.70686 0.78503 0.0
C313 C 0.93057 0.63887 0.8129 0.0
C314 C 0.14558 0.82813 0.79532 0.0
C315 C 0.91504 0.64115 0.68913 0.0
C316 C 0.14949 0.87084 0.74514 0.0
C317 C 0.47505 0.26051 0.63534 0.0
C318 C 0.47893 0.22411 0.61578 0.0
C319 C 0.89181 0.73362 0.75154 0.0
C320 C 0.70803 0.54772 0.60157 0.0
C321 C 0.69024 0.55448 0.54703 0.0
C322 C 0.70949 0.5297 0.53133 0.0
C323 C 0.72592 0.5218 0.58549 0.0
C324 C 0.69107 0.56489 0.58215 0.0
C325 C 0.72752 0.51379 0.5505 0.0
C326 C -0.00087 0.84672 0.67518 0.0
C327 C 0.69849 0.54847 0.639 0.0
H328 H 0.94099 0.61185 0.85402 0.0
H329 H 0.94125 0.68528 0.77055 0.0
H330 H 0.84731 0.56567 0.81968 0.0
H331 H 0.22898 0.90313 0.78871 0.0
H332 H 0.70991 0.52204 0.50423 0.0
H333 H 0.73838 0.50733 0.60001 0.0
H334 H 0.67444 0.58218 0.59461 0.0
H335 H 0.74175 0.49419 0.53831 0.0
C336 C 0.85876 0.95156 0.15633 0.0
C337 C 0.91896 0.03612 0.17082 0.0
C338 C 0.8535 0.90573 0.16608 0.0
C339 C 0.05956 0.02709 0.18784 0.0
H340 H 0.17731 0.15122 0.0932 0.0
C341 C 0.49123 0.41097 0.13546 0.0
C342 C 0.52932 0.42521 0.10194 0.0
C343 C 0.38614 0.32395 0.14736 0.0
C344 C 0.14469 0.11427 0.11904 0.0
H345 H 0.00381 0.12716 0.21092 0.0
H346 H 0.00508 0.05541 0.22463 0.0
H347 H 0.00054 0.00909 0.11659 0.0
H348 H 0.49112 0.36792 0.05314 0.0
H349 H 0.30827 0.21872 0.07334 0.0
H350 H 0.20664 0.13377 0.1891 0.0
C351 C 0.95865 0.02114 0.20689 0.0
C352 C 0.04204 0.0318 0.13286 0.0
C353 C 0.96116 0.06497 0.19832 0.0
C354 C 0.46331 0.35828 0.07913 0.0
C355 C 0.35828 0.27165 0.09098 0.0
C356 C 0.16124 0.10587 0.17317 0.0
C357 C 0.92266 0.95625 0.18555 0.0
C358 C 0.00116 -0.00598 0.16839 0.0
C359 C 0.31825 0.2509 0.12574 0.0
C360 C 0.20629 0.15441 0.13928 0.0
H361 H 0.82243 0.92575 0.13581 0.0
H362 H 0.81812 0.84956 0.15131 0.0
H363 H 0.03076 0.00043 0.21523 0.0
H364 H 0.54155 0.46293 0.1533 0.0
H365 H 0.35791 0.31234 0.17379 0.0
C366 C 0.01765 0.93768 0.6623 0.0
C367 C -0.01331 0.86843 0.65338 0.0
C368 C 0.04177 -0.01266 0.63726 0.0
C369 C 0.17833 0.10031 0.55144 0.0
H370 H 0.13881 0.18694 0.56168 0.0
C371 C 0.44504 0.47632 0.55865 0.0
C372 C 0.42819 0.49717 0.54318 0.0
C373 C 0.39547 0.39406 0.55124 0.0
C374 C 0.14859 0.16148 0.55763 0.0
H375 H 0.94988 0.79209 0.61168 0.0
H376 H -0.00683 0.87908 0.56839 0.0
H377 H 0.01287 0.03054 0.59596 0.0
H378 H 0.35916 0.4596 0.50496 0.0
H379 H 0.26643 0.31074 0.49357 0.0
H380 H 0.32251 0.24003 0.517 0.0
C381 C -0.00282 0.89371 0.59474 0.0
C382 C 0.07713 0.07273 0.57738 0.0
C383 C 0.97206 0.84353 0.61984 0.0
C384 C 0.37148 0.44307 0.51735 0.0
C385 C 0.32027 0.35952 0.51037 0.0
C386 C 0.25188 0.19131 0.53244 0.0
C387 C 0.03724 0.96956 0.60293 0.0
C388 C 0.09359 0.04373 0.5754 0.0
C389 C 0.32688 0.331 0.52902 0.0
C390 C 0.23879 0.22385 0.53656 0.0
H391 H 0.03126 0.95943 0.68782 0.0
H392 H 0.07359 0.04664 0.644 0.0
H393 H 0.19317 0.07977 0.55006 0.0
H394 H 0.48963 0.51843 0.57842 0.0
H395 H 0.40042 0.37237 0.5662 0.0
C396 C 0.85497 0.22279 0.16789 0.0
C397 C 0.801 0.14124 0.1535 0.0
C398 C 0.85748 0.26559 0.15693 0.0
C399 C 0.74196 0.23071 0.10401 0.0
H400 H 0.00687 0.52338 0.09521 0.0
C401 C 0.80559 0.44775 0.04609 0.0
C402 C 0.85966 0.52652 0.06348 0.0
C403 C 0.80813 0.40693 0.05148 0.0
C404 C 0.9315 0.44158 0.09787 0.0
H405 H 0.70231 0.03647 0.11771 0.0
H406 H 0.70841 0.11248 0.09768 0.0
H407 H 0.97852 0.43297 0.12185 0.0
H408 H 0.9704 0.63455 0.09585 0.0
H409 H 0.97578 0.56548 0.10536 0.0
H410 H 0.69309 0.23925 0.08183 0.0
C411 C 0.74782 0.14293 0.11792 0.0
C412 C 0.91516 0.38912 0.11323 0.0
C413 C 0.7444 0.0993 0.12929 0.0
C414 C 0.92691 0.57277 0.08247 0.0
C415 C 0.93005 0.53277 0.08777 0.0
C416 C 0.75731 0.28314 0.0895 0.0
C417 C 0.80679 0.22861 0.13093 0.0
C418 C 0.82067 0.28294 0.11622 0.0
C419 C 0.86603 0.4453 0.07406 0.0
C420 C 0.85243 0.38967 0.08628 0.0
H421 H 0.89582 0.25395 0.18762 0.0
H422 H 0.90057 0.32879 0.16863 0.0
H423 H 0.66738 0.14891 0.10635 0.0
H424 H 0.75575 0.41304 0.03039 0.0
H425 H 0.76114 0.34256 0.03914 0.0
C426 C 0.3747 0.71257 0.57848 0.0
C427 C 0.38066 0.69168 0.60417 0.0
C428 C 0.3268 0.70969 0.58717 0.0
C429 C 0.25164 0.72817 0.6583 0.0
H430 H 0.05151 0.57892 0.60752 0.0
C431 C -0.00591 0.64716 0.70369 0.0
C432 C 0.97007 0.64911 0.67877 0.0
C433 C 0.0449 0.65334 0.69414 0.0
C434 C 0.10832 0.62241 0.62167 0.0
H435 H 0.34365 0.65464 0.65932 0.0
H436 H 0.26117 0.65082 0.67447 0.0
H437 H 0.14208 0.5919 0.59164 0.0
H438 H 0.97046 0.64801 0.62445 0.0
H439 H 0.06235 0.66252 0.60734 0.0
H440 H 0.22018 0.76086 0.68788 0.0
C441 C 0.2932 0.66893 0.64757 0.0
C442 C 0.16001 0.62945 0.6126 0.0
C443 C 0.34005 0.67062 0.63885 0.0
C444 C -0.00848 0.65026 0.64416 0.0
C445 C 0.04327 0.6574 0.63444 0.0
C446 C 0.201 0.72228 0.66711 0.0
C447 C 0.28497 0.68731 0.62179 0.0
C448 C 0.23177 0.68183 0.63096 0.0
C449 C 0.07172 0.66007 0.65928 0.0
C450 C 0.12784 0.66857 0.64914 0.0
H451 H 0.40454 0.7284 0.55149 0.0
H452 H 0.32254 0.72509 0.56674 0.0
H453 H 0.30754 0.77026 0.67264 0.0
H454 H 0.97212 0.63919 0.73071 0.0
H455 H 0.0614 0.65097 0.71428 0.0
C456 C 0.82227 0.86124 0.38415 0.0
C457 C 0.89022 0.95673 0.38097 0.0
C458 C 0.83462 0.83762 0.35885 0.0
C459 C 0.0001 0.92897 0.28254 0.0
H460 H 0.7528 0.70319 0.24583 0.0
C461 C 0.86026 0.74435 0.14963 0.0
C462 C 0.88359 0.72156 0.1446 0.0
C463 C 0.87041 0.77783 0.17995 0.0
C464 C 0.82217 0.76605 0.25586 0.0
H465 H 0.03456 0.10773 0.35095 0.0
H466 H 0.05484 0.06531 0.30621 0.0
H467 H 0.75753 0.75363 0.29847 0.0
H468 H 0.94088 0.72079 0.16624 0.0
H469 H 0.96148 0.78254 0.21917 0.0
H470 H 0.06467 0.9413 0.23938 0.0
C471 C -0.00921 0.00838 0.32828 0.0
C472 C 0.82462 0.79436 0.28607 0.0
C473 C 0.97807 0.03196 0.35367 0.0
C474 C 0.92192 0.73744 0.16967 0.0
C475 C 0.93411 0.77304 0.19978 0.0
C476 C -0.00306 0.89918 0.25248 0.0
C477 C 0.91623 0.90951 0.32992 0.0
C478 C 0.91381 0.87665 0.29946 0.0
C479 C 0.90619 0.79127 0.20545 0.0
C480 C 0.90852 0.81878 0.23857 0.0
H481 H 0.75522 0.80192 0.40482 0.0
H482 H 0.77687 0.76113 0.36088 0.0
H483 H 0.06976 -0.00705 0.29242 0.0
H484 H 0.83008 0.73241 0.13087 0.0
H485 H 0.8485 0.79152 0.18374 0.0
C486 C 0.86081 0.2265 0.76189 0.0
C487 C 0.96363 0.30885 0.74495 0.0
C488 C 0.83912 0.23663 0.7913 0.0
C489 C -0.00821 0.40252 0.85617 0.0
H490 H 0.71882 0.17715 0.91436 0.0
C491 C 0.89239 0.24763 0.9808 0.0
C492 C 0.88845 0.27447 1.00958 0.0
C493 C 0.8783 0.24743 0.94986 0.0
C494 C 0.79563 0.24158 0.89833 0.0
H495 H 0.12012 0.47382 0.73972 0.0
H496 H 0.07997 0.49193 0.78762 0.0
H497 H 0.74581 0.20571 0.85218 0.0
H498 H 0.85392 0.30968 1.02958 0.0
H499 H 0.83166 0.31151 0.97473 0.0
H500 H 0.04032 0.43576 0.90207 0.0
C501 C 0.01739 0.41679 0.78092 0.0
C502 C 0.81133 0.25777 0.86271 0.0
C503 C 0.0402 0.40602 0.7527 0.0
C504 C 0.85908 0.29033 1.00769 0.0
C505 C 0.84556 0.29071 0.97649 0.0
C506 C 0.97619 0.38688 0.89147 0.0
C507 C 0.91947 0.33072 0.80317 0.0
C508 C 0.90841 0.33451 0.84083 0.0
C509 C 0.86014 0.27405 0.94708 0.0
C510 C 0.87725 0.30312 0.9124 0.0
H511 H 0.79725 0.15162 0.75484 0.0
H512 H 0.76106 0.16825 0.80649 0.0
H513 H 0.06784 0.46229 0.84091 0.0
H514 H 0.91573 0.23595 0.98103 0.0
H515 H 0.88992 0.2345 0.92727 0.0
C516 C 0.58752 0.4868 0.50789 0.0
C517 C 0.66366 0.56351 0.52694 0.0
C518 C 0.56556 0.49651 0.48707 0.0
C519 C 0.59825 0.6385 0.46943 0.0
H520 H 0.53551 0.53502 0.38271 0.0
C521 C 0.56806 0.70707 0.35607 0.0
C522 C 0.496 0.62821 0.33639 0.0
C523 C 0.57935 0.69607 0.38396 0.0
C524 C 0.55009 0.5618 0.40726 0.0
H525 H 0.77439 0.70899 0.54033 0.0
H526 H 0.73746 0.72742 0.50307 0.0
H527 H 0.58087 0.52836 0.42063 0.0
H528 H 0.37501 0.47353 0.33221 0.0
H529 H 0.39295 0.45419 0.38099 0.0
H530 H 0.56572 0.67064 0.45567 0.0
C531 C 0.69397 0.65921 0.50455 0.0
C532 C 0.5768 0.55858 0.42896 0.0
C533 C 0.71533 0.64892 0.52576 0.0
C534 C 0.43089 0.53596 0.34674 0.0
C535 C 0.44186 0.525 0.37455 0.0
C536 C 0.56892 0.63951 0.44797 0.0
C537 C 0.61989 0.5837 0.48454 0.0
C538 C 0.5991 0.59485 0.46066 0.0
C539 C 0.51914 0.6063 0.39246 0.0
C540 C 0.54435 0.60085 0.41671 0.0
H541 H 0.54484 0.41905 0.50909 0.0
H542 H 0.50527 0.43504 0.47309 0.0
H543 H 0.61689 0.66879 0.49337 0.0
H544 H 0.61796 0.77834 0.34929 0.0
H545 H 0.63889 0.75969 0.39756 0.0
C546 C 0.11608 0.77517 0.88359 0.0
C547 C 0.15132 0.79789 0.84769 0.0
C548 C 0.18234 0.83043 0.90558 0.0
C549 C 0.43589 0.08727 0.90215 0.0
H550 H 0.37848 0.00986 0.99683 0.0
C551 C 0.5313 0.29382 1.00532 0.0
C552 C 0.56199 0.30806 0.03374 0.0
C553 C 0.49421 0.23103 0.98246 0.0
C554 C 0.39603 0.03317 0.97048 0.0
H555 H 0.2787 0.8857 0.8073 0.0
H556 H 0.39638 -0.01341 0.84581 0.0
H557 H 0.2896 0.89139 0.95575 0.0
H558 H 0.57721 0.2679 0.06121 0.0
H559 H 0.51393 0.15916 1.02111 0.0
H560 H 0.53674 0.22582 0.91696 0.0
C561 C 0.31732 0.92557 0.85671 0.0
C562 C 0.34592 0.96559 0.94694 0.0
C563 C 0.2503 0.86873 0.83473 0.0
C564 C 0.55104 0.25548 0.03994 0.0
C565 C 0.51599 0.1942 1.01668 0.0
C566 C 0.48422 0.15376 0.92578 0.0
C567 C 0.28523 0.91022 0.89205 0.0
C568 C 0.36137 -0.00983 0.91314 0.0
C569 C 0.49034 0.18392 0.98701 0.0
C570 C 0.45894 0.1243 0.96077 0.0
H571 H 0.0408 0.72171 0.89461 0.0
H572 H 0.15613 0.81796 0.93274 0.0
H573 H 0.4496 0.10831 0.87611 0.0
H574 H 0.5397 0.33429 1.00011 0.0
H575 H 0.47085 0.22143 0.96074 0.0
C576 C 0.7401 0.86848 0.06545 0.0
C577 C 0.80698 0.96356 0.06647 0.0
C578 C 0.72914 0.83608 0.0335 0.0
C579 C 0.86281 0.9423 0.93822 0.0
H580 H 0.62602 0.66481 0.92902 0.0
C581 C 0.94062 0.84016 0.78749 0.0
C582 C 0.86715 0.7447 0.78223 0.0
C583 C 0.92297 0.85692 0.81473 0.0
C584 C 0.70026 0.74632 0.92796 0.0
H585 H 0.90893 0.0948 0.03363 0.0
H586 H 0.88684 0.03821 0.97954 0.0
H587 H 0.62748 0.7072 0.97992 0.0
H588 H 0.7128 0.5881 0.80253 0.0
H589 H 0.67631 0.60745 0.84793 0.0
H590 H 0.93733 -0.00899 0.88944 0.0
C591 C 0.84616 -0.01054 1.00287 0.0
C592 C 0.6975 0.76936 0.96004 0.0
C593 C 0.85834 0.02219 0.03444 0.0
C594 C 0.7731 0.66478 0.80551 0.0
C595 C 0.75426 0.68087 0.83343 0.0
C596 C 0.86529 0.9195 0.90651 0.0
C597 C 0.7837 0.89695 1.00133 0.0
C598 C 0.78094 0.86858 0.96651 0.0
C599 C 0.82656 0.7806 0.84242 0.0
C600 C 0.79157 0.81895 0.89798 0.0
H601 H 0.69894 0.82054 0.0893 0.0
H602 H 0.68001 0.76438 0.03417 0.0
H603 H 0.92977 0.02147 0.94031 0.0
H604 H 0.01422 0.90522 0.76945 0.0
H605 H -0.00631 0.93836 0.81219 0.0
C606 C 0.41559 0.18606 0.32131 0.0
C607 C 0.39755 0.21182 0.31526 0.0
C608 C 0.3823 0.14316 0.35454 0.0
C609 C 0.1866 -0.00313 0.4358 0.0
H610 H 0.33789 0.05547 0.47586 0.0
C611 C 0.00385 0.76251 0.56341 0.0
C612 C 0.06344 0.81862 0.58856 0.0
C613 C 0.0468 0.80907 0.52933 0.0
C614 C 0.29455 0.03815 0.46504 0.0
H615 H 0.3372 0.21943 0.34004 0.0
H616 H 0.28083 0.14652 0.39744 0.0
H617 H 0.41306 0.14478 0.41887 0.0
H618 H 0.21812 0.96957 0.59612 0.0
H619 H 0.29357 0.04887 0.53708 0.0
H620 H 0.06853 0.89099 0.48194 0.0
C621 C 0.31786 0.15643 0.37657 0.0
C622 C 0.33746 0.08899 0.43221 0.0
C623 C 0.35099 0.19908 0.34361 0.0
C624 C 0.16922 0.92211 0.57783 0.0
C625 C 0.21279 0.9684 0.54371 0.0
C626 C 0.1433 0.94535 0.46836 0.0
C627 C 0.33013 0.12496 0.38245 0.0
C628 C 0.28449 0.06975 0.41719 0.0
C629 C 0.1518 0.91326 0.51911 0.0
C630 C 0.1967 0.96542 0.48358 0.0
H631 H 0.45055 0.19419 0.30007 0.0
H632 H 0.39329 0.12005 0.358 0.0
H633 H 0.14263 0.97883 0.42506 0.0
H634 H 0.92335 0.68308 0.57031 0.0
H635 H -0.0026 0.76352 0.51103 0.0
C636 C 0.50711 0.6467 0.69071 0.0
C637 C 0.57912 0.71882 0.66034 0.0
C638 C 0.53729 0.66113 0.7199 0.0
C639 C 0.76832 0.85578 0.76091 0.0
H640 H 0.57761 0.61596 0.81909 0.0
C641 C 0.94269 0.91893 0.87127 0.0
C642 C 0.85541 0.80812 0.89799 0.0
C643 C 0.89505 0.90965 0.84322 0.0
C644 C 0.63229 0.68475 0.80393 0.0
H645 H 0.74213 0.86341 0.63772 0.0
H646 H 0.79586 0.88977 0.68849 0.0
H647 H 0.53092 0.59921 0.76962 0.0
H648 H 0.66839 0.62181 0.91327 0.0
H649 H 0.59426 0.60732 0.86865 0.0
H650 H 0.87004 0.94122 0.79503 0.0
C651 C 0.71461 0.82175 0.6901 0.0
C652 C 0.6049 0.67498 0.77485 0.0
C653 C 0.68393 0.80722 0.66068 0.0
C654 C 0.72219 0.68913 0.897 0.0
C655 C 0.67508 0.68064 0.86917 0.0
C656 C 0.79549 0.86553 0.79019 0.0
C657 C 0.64171 0.74828 0.72048 0.0
C658 C 0.67227 0.76011 0.75227 0.0
C659 C 0.7621 0.79066 0.84199 0.0
C660 C 0.72863 0.78026 0.81243 0.0
H661 H 0.42565 0.57744 0.69201 0.0
H662 H 0.47728 0.60289 0.74227 0.0
H663 H 0.82311 0.92425 0.74523 0.0
H664 H 0.02416 -0.00808 0.8708 0.0
H665 H 0.95007 0.97691 0.82639 0.0
C666 C 0.95444 0.15915 0.27184 0.0
C667 C -0.00265 0.22151 0.24444 0.0
C668 C -0.00505 0.19692 0.30175 0.0
C669 C 0.15959 0.40934 0.35386 0.0
H670 H 0.16396 0.31019 0.39761 0.0
C671 C 0.34812 0.57549 0.47365 0.0
C672 C 0.30899 0.51331 0.49916 0.0
C673 C 0.31276 0.5419 0.44263 0.0
C674 C 0.16216 0.33805 0.38635 0.0
H675 H 0.11691 0.37395 0.22853 0.0
H676 H 0.18777 0.44017 0.28059 0.0
H677 H 0.10146 0.25218 0.34452 0.0
H678 H 0.2054 0.36803 0.50986 0.0
H679 H 0.13951 0.30687 0.45713 0.0
H680 H 0.22079 0.49576 0.39542 0.0
C681 C 0.12226 0.36123 0.27882 0.0
C682 C 0.12553 0.30404 0.35557 0.0
C683 C 0.08217 0.32347 0.24856 0.0
C684 C 0.2341 0.41655 0.49193 0.0
C685 C 0.19812 0.38247 0.46092 0.0
C686 C 0.196 0.4432 0.3847 0.0
C687 C 0.07994 0.2988 0.30604 0.0
C688 C 0.12247 0.33814 0.33873 0.0
C689 C 0.23643 0.44431 0.43547 0.0
C690 C 0.19779 0.4081 0.40188 0.0
H691 H 0.88948 0.08035 0.27012 0.0
H692 H 0.95796 0.14503 0.32188 0.0
H693 H 0.15849 0.43763 0.34228 0.0
H694 H 0.40728 0.65134 0.47748 0.0
H695 H 0.3473 0.59404 0.42394 0.0
loop_
_geom_bond_atom_site_label_1
_geom_bond_atom_site_label_2
_geom_bond_distance
_geom_bond_site_symmetry_2
_ccdc_geom_bond_type
Tb0 N29 2.617 1_655 S
Tb0 N35 2.572 . S
Tb0 O44 2.465 1_554 S
Tb0 O45 2.387 . S
Tb0 O47 2.428 1_554 S
Tb0 O48 2.308 . S
Tb0 O52 2.349 . S
Tb0 O55 2.393 . S
Tb0 C64 2.802 1_554 S
C1 N2 1.379 . S
C1 C4 1.416 . S
C1 C8 1.424 . S
N2 C1 1.379 . S
N2 C5 1.334 . S
N2 Tb11 2.617 . S
C3 C5 1.390 . S
C3 C6 1.339 1_545 S
C3 H23 0.930 . S
C4 C1 1.416 . S
C4 C6 1.416 1_545 S
C4 C10 1.448 1_545 S
C5 N2 1.334 . S
C5 C3 1.390 . S
C5 H16 0.930 . S
C6 C3 1.339 1_565 S
C6 C4 1.416 1_565 S
C6 H27 0.930 . S
C7 C8 1.413 . S
C7 C9 1.427 1_545 S
C7 C13 1.416 . S
C8 C1 1.424 . S
C8 C7 1.413 . S
C8 N12 1.361 . S
C9 C7 1.427 1_565 S
C9 C10 1.328 . S
C9 H24 0.929 . S
C10 C4 1.448 1_565 S
C10 C9 1.328 . S
C10 H25 0.930 . S
Tb11 N2 2.617 . S
Tb11 N12 2.572 . S
Tb11 O46 2.349 . S
Tb11 O49 2.393 . S
Tb11 O50 2.465 . S
Tb11 O51 2.387 . S
Tb11 O53 2.428 . S
Tb11 O54 2.308 . S
Tb11 C75 2.802 . S
N12 C8 1.361 . S
N12 Tb11 2.572 . S
N12 C14 1.340 . S
C13 C7 1.416 . S
C13 C15 1.332 . S
C13 H21 0.931 1_545 S
C14 N12 1.340 . S
C14 C15 1.407 . S
C14 H20 0.930 . S
C15 C13 1.332 . S
C15 C14 1.407 . S
C15 H17 0.929 . S
H16 C5 0.930 . S
H17 C15 0.929 . S
H18 C33 0.930 . S
H19 C40 0.929 . S
H20 C14 0.930 . S
H21 C13 0.931 1_565 S
H22 C36 0.930 . S
H23 C3 0.930 . S
H24 C9 0.929 . S
H25 C10 0.930 . S
H26 C31 0.930 . S
H27 C6 0.930 . S
H28 C39 0.931 . S
N29 Tb0 2.617 1_455 S
N29 C30 1.379 . S
N29 C33 1.334 . S
C30 N29 1.379 . S
C30 C32 1.416 . S
C30 C38 1.424 . S
C31 H26 0.930 . S
C31 C33 1.390 . S
C31 C34 1.339 . S
C32 C30 1.416 . S
C32 C34 1.416 . S
C32 C65 1.448 1_565 S
C33 H18 0.930 . S
C33 N29 1.334 . S
C33 C31 1.390 . S
C34 C31 1.339 . S
C34 C32 1.416 . S
C34 H41 0.930 1_565 S
N35 Tb0 2.572 . S
N35 C36 1.340 . S
N35 C38 1.361 1_655 S
C36 H22 0.930 . S
C36 N35 1.340 . S
C36 C40 1.407 . S
C37 C38 1.413 . S
C37 C39 1.416 . S
C37 C66 1.427 1_565 S
C38 C30 1.424 . S
C38 N35 1.361 1_455 S
C38 C37 1.413 . S
C39 H28 0.931 . S
C39 C37 1.416 . S
C39 C40 1.332 1_455 S
C40 H19 0.929 . S
C40 C36 1.407 . S
C40 C39 1.332 1_655 S
H41 C34 0.930 1_545 S
H42 C65 0.930 . S
H43 C66 0.929 . S
O44 Tb0 2.465 1_556 S
O44 C64 1.264 . S
O45 Tb0 2.387 . S
O45 C56 1.264 . S
O46 Tb11 2.349 . S
O46 C56 1.243 . S
O47 Tb0 2.428 1_556 S
O47 C64 1.256 . S
O48 Tb0 2.308 . S
O48 C63 1.266 . S
O49 Tb11 2.393 . S
O49 C63 1.248 . S
O50 Tb11 2.465 . S
O50 C75 1.264 . S
O51 Tb11 2.387 . S
O51 C67 1.264 . S
O52 Tb0 2.349 . S
O52 C67 1.243 . S
O53 Tb11 2.428 . S
O53 C75 1.256 . S
O54 Tb11 2.308 . S
O54 C74 1.266 . S
O55 Tb0 2.393 . S
O55 C74 1.248 . S
C56 O45 1.264 . S
C56 O46 1.243 . S
C57 C60 1.399 1_655 S
C57 C62 1.383 . S
C57 C64 1.496 . S
C58 C59 1.399 1_655 S
C58 C62 1.389 . S
C59 C58 1.399 1_455 S
C59 C61 1.380 . S
C59 H76 0.929 . S
C60 C57 1.399 1_455 S
C60 C61 1.392 . S
C60 H77 0.929 . S
C61 C59 1.380 . S
C61 C60 1.392 . S
C61 H78 0.929 . S
C62 C57 1.383 . S
C62 C58 1.389 . S
C62 H79 0.931 . S
C63 O48 1.266 . S
C63 O49 1.248 . S
C64 Tb0 2.802 1_556 S
C64 O44 1.264 . S
C64 O47 1.256 . S
C64 C57 1.496 . S
C65 C32 1.448 1_545 S
C65 H42 0.930 . S
C65 C66 1.328 . S
C66 C37 1.427 1_545 S
C66 H43 0.929 . S
C66 C65 1.328 . S
C67 O51 1.264 . S
C67 O52 1.243 . S
C68 C71 1.399 . S
C68 C72 1.383 . S
C68 C75 1.496 . S
C69 C70 1.399 . S
C69 C72 1.389 . S
C70 C69 1.399 . S
C70 C73 1.380 . S
C70 H80 0.929 . S
C71 C68 1.399 . S
C71 C73 1.392 . S
C71 H81 0.929 . S
C72 C68 1.383 . S
C72 C69 1.389 . S
C72 H82 0.931 . S
C73 C70 1.380 . S
C73 C71 1.392 . S
C73 H83 0.929 . S
C74 O54 1.266 . S
C74 O55 1.248 . S
C75 Tb11 2.802 . S
C75 O50 1.264 . S
C75 O53 1.256 . S
C75 C68 1.496 . S
H76 C59 0.929 . S
H77 C60 0.929 . S
H78 C61 0.929 . S
H79 C62 0.931 . S
H80 C70 0.929 . S
H81 C71 0.929 . S
H82 C72 0.931 . S
H83 C73 0.929 . S
Tb84 N113 2.617 . S
Tb84 N119 2.572 . S
Tb84 O128 2.465 . S
Tb84 O129 2.387 . S
Tb84 O131 2.428 . S
Tb84 O132 2.308 . S
Tb84 O136 2.349 . S
Tb84 O139 2.393 . S
Tb84 C148 2.802 . S
C85 N86 1.379 . S
C85 C88 1.416 . S
C85 C92 1.424 . S
N86 C85 1.379 . S
N86 C89 1.334 . S
N86 Tb95 2.617 1_545 S
C87 C89 1.390 . S
C87 C90 1.339 1_655 S
C87 H107 0.930 . S
C88 C85 1.416 . S
C88 C90 1.416 1_655 S
C88 C94 1.448 1_655 S
C89 N86 1.334 . S
C89 C87 1.390 . S
C89 H100 0.930 . S
C90 C87 1.339 1_455 S
C90 C88 1.416 1_455 S
C90 H111 0.930 . S
C91 C92 1.413 . S
C91 C93 1.427 1_655 S
C91 C97 1.416 . S
C92 C85 1.424 . S
C92 C91 1.413 . S
C92 N96 1.361 1_545 S
C93 C91 1.427 1_455 S
C93 C94 1.328 . S
C93 H108 0.929 . S
C94 C88 1.448 1_455 S
C94 C93 1.328 . S
C94 H109 0.930 . S
Tb95 N86 2.617 1_565 S
Tb95 N96 2.572 . S
Tb95 O130 2.349 . S
Tb95 O133 2.393 . S
Tb95 O134 2.465 . S
Tb95 O135 2.387 . S
Tb95 O137 2.428 . S
Tb95 O138 2.308 . S
Tb95 C159 2.802 . S
N96 C92 1.361 1_565 S
N96 Tb95 2.572 . S
N96 C98 1.340 . S
C97 C91 1.416 . S
C97 C99 1.332 1_545 S
C97 H105 0.931 1_655 S
C98 N96 1.340 . S
C98 C99 1.407 . S
C98 H104 0.930 . S
C99 C97 1.332 1_565 S
C99 C98 1.407 . S
C99 H101 0.929 . S
H100 C89 0.930 . S
H101 C99 0.929 . S
H102 C117 0.930 . S
H103 C124 0.929 . S
H104 C98 0.930 . S
H105 C97 0.931 1_455 S
H106 C120 0.930 . S
H107 C87 0.930 . S
H108 C93 0.929 . S
H109 C94 0.930 . S
H110 C115 0.930 . S
H111 C90 0.930 . S
H112 C123 0.931 . S
N113 Tb84 2.617 . S
N113 C114 1.379 . S
N113 C117 1.334 . S
C114 N113 1.379 . S
C114 C116 1.416 . S
C114 C122 1.424 . S
C115 H110 0.930 . S
C115 C117 1.390 . S
C115 C118 1.339 . S
C116 C114 1.416 . S
C116 C118 1.416 . S
C116 C149 1.448 1_455 S
C117 H102 0.930 . S
C117 N113 1.334 . S
C117 C115 1.390 . S
C118 C115 1.339 . S
C118 C116 1.416 . S
C118 H125 0.930 1_455 S
N119 Tb84 2.572 . S
N119 C120 1.340 . S
N119 C122 1.361 . S
C120 H106 0.930 . S
C120 N119 1.340 . S
C120 C124 1.407 . S
C121 C122 1.413 . S
C121 C123 1.416 . S
C121 C150 1.427 1_455 S
C122 C114 1.424 . S
C122 N119 1.361 . S
C122 C121 1.413 . S
C123 H112 0.931 . S
C123 C121 1.416 . S
C123 C124 1.332 . S
C124 H103 0.929 . S
C124 C120 1.407 . S
C124 C123 1.332 . S
H125 C118 0.930 1_655 S
H126 C149 0.930 . S
H127 C150 0.929 . S
O128 Tb84 2.465 . S
O128 C148 1.264 . S
O129 Tb84 2.387 . S
O129 C140 1.264 . S
O130 Tb95 2.349 . S
O130 C140 1.243 . S
O131 Tb84 2.428 . S
O131 C148 1.256 . S
O132 Tb84 2.308 . S
O132 C147 1.266 . S
O133 Tb95 2.393 . S
O133 C147 1.248 . S
O134 Tb95 2.465 . S
O134 C159 1.264 . S
O135 Tb95 2.387 . S
O135 C151 1.264 . S
O136 Tb84 2.349 . S
O136 C151 1.243 . S
O137 Tb95 2.428 . S
O137 C159 1.256 . S
O138 Tb95 2.308 . S
O138 C158 1.266 . S
O139 Tb84 2.393 . S
O139 C158 1.248 . S
C140 O129 1.264 . S
C140 O130 1.243 . S
C141 C144 1.399 . S
C141 C146 1.383 . S
C141 C148 1.496 . S
C142 C143 1.399 . S
C142 C146 1.389 . S
C143 C142 1.399 . S
C143 C145 1.380 . S
C143 H160 0.929 . S
C144 C141 1.399 . S
C144 C145 1.392 . S
C144 H161 0.929 . S
C145 C143 1.380 . S
C145 C144 1.392 . S
C145 H162 0.929 . S
C146 C141 1.383 . S
C146 C142 1.389 . S
C146 H163 0.931 . S
C147 O132 1.266 . S
C147 O133 1.248 . S
C148 Tb84 2.802 . S
C148 O128 1.264 . S
C148 O131 1.256 . S
C148 C141 1.496 . S
C149 C116 1.448 1_655 S
C149 H126 0.930 . S
C149 C150 1.328 . S
C150 C121 1.427 1_655 S
C150 H127 0.929 . S
C150 C149 1.328 . S
C151 O135 1.264 . S
C151 O136 1.243 . S
C152 C155 1.399 . S
C152 C156 1.383 . S
C152 C159 1.496 . S
C153 C154 1.399 . S
C153 C156 1.389 . S
C154 C153 1.399 . S
C154 C157 1.380 1_565 S
C154 H164 0.929 . S
C155 C152 1.399 . S
C155 C157 1.392 1_565 S
C155 H165 0.929 1_565 S
C156 C152 1.383 . S
C156 C153 1.389 . S
C156 H166 0.931 . S
C157 C154 1.380 1_545 S
C157 C155 1.392 1_545 S
C157 H167 0.929 . S
C158 O138 1.266 . S
C158 O139 1.248 . S
C159 Tb95 2.802 . S
C159 O134 1.264 . S
C159 O137 1.256 . S
C159 C152 1.496 . S
H160 C143 0.929 . S
H161 C144 0.929 . S
H162 C145 0.929 . S
H163 C146 0.931 . S
H164 C154 0.929 . S
H165 C155 0.929 1_545 S
H166 C156 0.931 . S
H167 C157 0.929 . S
Tb168 N197 2.617 1_655 S
Tb168 N203 2.572 1_655 S
Tb168 O212 2.465 . S
Tb168 O213 2.387 . S
Tb168 O215 2.428 1_655 S
Tb168 O216 2.308 . S
Tb168 O220 2.346 1_545 S
Tb168 O223 2.393 . S
Tb168 C232 2.802 . S
C169 N170 1.379 . S
C169 C172 1.416 . S
C169 C176 1.424 . S
N170 C169 1.379 . S
N170 C173 1.334 . S
N170 Tb179 2.617 . S
C171 C173 1.390 . S
C171 C174 1.339 . S
C171 H191 0.930 . S
C172 C169 1.416 . S
C172 C174 1.416 . S
C172 C178 1.448 . S
C173 N170 1.334 . S
C173 C171 1.390 . S
C173 H184 0.930 . S
C174 C171 1.339 . S
C174 C172 1.416 . S
C174 H195 0.930 . S
C175 C176 1.413 . S
C175 C177 1.427 . S
C175 C181 1.416 . S
C176 C169 1.424 . S
C176 C175 1.413 . S
C176 N180 1.361 . S
C177 C175 1.427 . S
C177 C178 1.328 . S
C177 H192 0.929 . S
C178 C172 1.448 . S
C178 C177 1.328 . S
C178 H193 0.930 . S
Tb179 N170 2.617 . S
Tb179 N180 2.572 . S
Tb179 O214 2.349 1_565 S
Tb179 O217 2.393 . S
Tb179 O218 2.465 . S
Tb179 O219 2.387 . S
Tb179 O221 2.428 . S
Tb179 O222 2.308 . S
Tb179 C243 2.802 . S
N180 C176 1.361 . S
N180 Tb179 2.572 . S
N180 C182 1.340 . S
C181 C175 1.416 . S
C181 C183 1.332 . S
C181 H189 0.931 . S
C182 N180 1.340 . S
C182 C183 1.407 . S
C182 H188 0.930 . S
C183 C181 1.332 . S
C183 C182 1.407 . S
C183 H185 0.929 . S
H184 C173 0.930 . S
H185 C183 0.929 . S
H186 C201 0.930 . S
H187 C208 0.929 . S
H188 C182 0.930 . S
H189 C181 0.931 . S
H190 C204 0.930 . S
H191 C171 0.930 . S
H192 C177 0.929 . S
H193 C178 0.930 . S
H194 C199 0.930 . S
H195 C174 0.930 . S
H196 C207 0.931 . S
N197 Tb168 2.617 1_455 S
N197 C198 1.379 . S
N197 C201 1.334 . S
C198 N197 1.379 . S
C198 C200 1.416 . S
C198 C206 1.424 . S
C199 H194 0.930 . S
C199 C201 1.390 . S
C199 C202 1.339 . S
C200 C198 1.416 . S
C200 C202 1.416 . S
C200 C233 1.448 . S
C201 H186 0.930 . S
C201 N197 1.334 . S
C201 C199 1.390 . S
C202 C199 1.339 . S
C202 C200 1.416 . S
C202 H209 0.930 . S
N203 Tb168 2.572 1_455 S
N203 C204 1.340 1_455 S
N203 C206 1.361 . S
C204 H190 0.930 . S
C204 N203 1.340 1_655 S
C204 C208 1.407 . S
C205 C206 1.413 . S
C205 C207 1.416 . S
C205 C234 1.427 . S
C206 C198 1.424 . S
C206 N203 1.361 . S
C206 C205 1.413 . S
C207 H196 0.931 . S
C207 C205 1.416 . S
C207 C208 1.332 1_455 S
C208 H187 0.929 . S
C208 C204 1.407 . S
C208 C207 1.332 1_655 S
H209 C202 0.930 . S
H210 C233 0.930 . S
H211 C234 0.929 . S
O212 Tb168 2.465 . S
O212 C232 1.264 . S
O213 Tb168 2.387 . S
O213 C224 1.264 . S
O214 Tb179 2.349 1_545 S
O214 C224 1.243 . S
O215 Tb168 2.428 1_455 S
O215 C232 1.256 1_455 S
O216 Tb168 2.308 . S
O216 C231 1.266 1_545 S
O217 Tb179 2.393 . S
O217 C231 1.248 . S
O218 Tb179 2.465 . S
O218 C243 1.264 . S
O219 Tb179 2.387 . S
O219 C235 1.264 . S
O220 Tb168 2.346 1_565 S
O220 C235 1.247 . S
O221 Tb179 2.428 . S
O221 C243 1.256 . S
O222 Tb179 2.308 . S
O222 C242 1.266 1_565 S
O223 Tb168 2.393 . S
O223 C242 1.248 . S
C224 O213 1.264 . S
C224 O214 1.243 . S
C225 C228 1.399 1_554 S
C225 C230 1.383 1_454 S
C225 C232 1.496 1_455 S
C226 C227 1.407 . S
C226 C230 1.393 1_455 S
C227 C226 1.407 . S
C227 C229 1.380 . S
C227 H244 0.929 . S
C228 C225 1.399 1_556 S
C228 C229 1.392 . S
C228 H245 0.929 . S
C229 C227 1.380 . S
C229 C228 1.392 . S
C229 H246 0.929 . S
C230 C225 1.383 1_656 S
C230 C226 1.393 1_655 S
C230 H247 0.931 1_556 S
C231 O216 1.266 1_565 S
C231 O217 1.248 . S
C232 Tb168 2.802 . S
C232 O212 1.264 . S
C232 O215 1.256 1_655 S
C232 C225 1.496 1_655 S
C233 C200 1.448 . S
C233 H210 0.930 . S
C233 C234 1.328 . S
C234 C205 1.427 . S
C234 H211 0.929 . S
C234 C233 1.328 . S
C235 O219 1.264 . S
C235 O220 1.247 . S
C236 C239 1.399 . S
C236 C240 1.383 . S
C236 C243 1.496 . S
C237 C238 1.399 . S
C237 C240 1.389 . S
C238 C237 1.399 . S
C238 C241 1.380 . S
C238 H248 0.929 . S
C239 C236 1.399 . S
C239 C241 1.392 . S
C239 H249 0.929 . S
C240 C236 1.383 . S
C240 C237 1.389 . S
C240 H250 0.931 . S
C241 C238 1.380 . S
C241 C239 1.392 . S
C241 H251 0.929 . S
C242 O222 1.266 1_545 S
C242 O223 1.248 . S
C243 Tb179 2.802 . S
C243 O218 1.264 . S
C243 O221 1.256 . S
C243 C236 1.496 . S
H244 C227 0.929 . S
H245 C228 0.929 . S
H246 C229 0.929 . S
H247 C230 0.931 1_554 S
H248 C238 0.929 . S
H249 C239 0.929 . S
H250 C240 0.931 . S
H251 C241 0.929 . S
Tb252 N281 2.617 1_565 S
Tb252 N287 2.572 1_565 S
Tb252 O296 2.465 . S
Tb252 O297 2.387 . S
Tb252 O299 2.428 1_565 S
Tb252 O300 2.308 . S
Tb252 O304 2.349 . S
Tb252 O307 2.393 . S
Tb252 C316 2.802 . S
C253 N254 1.379 . S
C253 C256 1.416 . S
C253 C260 1.424 . S
N254 C253 1.379 . S
N254 C257 1.334 . S
N254 Tb263 2.617 . S
C255 C257 1.390 . S
C255 C258 1.339 . S
C255 H275 0.930 . S
C256 C253 1.416 . S
C256 C258 1.416 . S
C256 C262 1.448 . S
C257 N254 1.334 . S
C257 C255 1.390 . S
C257 H268 0.930 . S
C258 C255 1.339 . S
C258 C256 1.416 . S
C258 H279 0.930 . S
C259 C260 1.413 . S
C259 C261 1.427 . S
C259 C265 1.416 . S
C260 C253 1.424 . S
C260 C259 1.413 . S
C260 N264 1.361 . S
C261 C259 1.427 . S
C261 C262 1.328 . S
C261 H276 0.929 . S
C262 C256 1.448 . S
C262 C261 1.328 . S
C262 H277 0.930 . S
Tb263 N254 2.617 . S
Tb263 N264 2.572 . S
Tb263 O298 2.349 1_655 S
Tb263 O301 2.393 . S
Tb263 O302 2.465 . S
Tb263 O303 2.387 . S
Tb263 O305 2.428 . S
Tb263 O306 2.308 . S
Tb263 C327 2.802 . S
N264 C260 1.361 . S
N264 Tb263 2.572 . S
N264 C266 1.340 . S
C265 C259 1.416 . S
C265 C267 1.332 . S
C265 H273 0.931 . S
C266 N264 1.340 . S
C266 C267 1.407 . S
C266 H272 0.930 . S
C267 C265 1.332 . S
C267 C266 1.407 . S
C267 H269 0.929 . S
H268 C257 0.930 . S
H269 C267 0.929 . S
H270 C285 0.930 . S
H271 C292 0.929 1_565 S
H272 C266 0.930 . S
H273 C265 0.931 . S
H274 C288 0.930 . S
H275 C255 0.930 . S
H276 C261 0.929 . S
H277 C262 0.930 . S
H278 C283 0.930 . S
H279 C258 0.930 . S
H280 C291 0.931 . S
N281 Tb252 2.617 1_545 S
N281 C282 1.379 . S
N281 C285 1.334 . S
C282 N281 1.379 . S
C282 C284 1.416 . S
C282 C290 1.424 . S
C283 H278 0.930 . S
C283 C285 1.390 . S
C283 C286 1.339 . S
C284 C282 1.416 . S
C284 C286 1.416 . S
C284 C317 1.448 . S
C285 H270 0.930 . S
C285 N281 1.334 . S
C285 C283 1.390 . S
C286 C283 1.339 . S
C286 C284 1.416 . S
C286 H293 0.930 . S
N287 Tb252 2.572 1_545 S
N287 C288 1.340 1_545 S
N287 C290 1.361 . S
C288 H274 0.930 . S
C288 N287 1.340 1_565 S
C288 C292 1.407 1_565 S
C289 C290 1.413 . S
C289 C291 1.416 . S
C289 C318 1.427 . S
C290 C282 1.424 . S
C290 N287 1.361 . S
C290 C289 1.413 . S
C291 H280 0.931 . S
C291 C289 1.416 . S
C291 C292 1.332 . S
C292 H271 0.929 1_545 S
C292 C288 1.407 1_545 S
C292 C291 1.332 . S
H293 C286 0.930 . S
H294 C317 0.930 . S
H295 C318 0.929 . S
O296 Tb252 2.465 . S
O296 C316 1.264 . S
O297 Tb252 2.387 . S
O297 C308 1.264 . S
O298 Tb263 2.349 1_455 S
O298 C308 1.243 . S
O299 Tb252 2.428 1_545 S
O299 C316 1.256 1_545 S
O300 Tb252 2.308 . S
O300 C315 1.266 1_455 S
O301 Tb263 2.393 . S
O301 C315 1.248 . S
O302 Tb263 2.465 . S
O302 C327 1.264 . S
O303 Tb263 2.387 . S
O303 C319 1.264 . S
O304 Tb252 2.349 . S
O304 C319 1.243 1_455 S
O305 Tb263 2.428 . S
O305 C327 1.256 . S
O306 Tb263 2.308 . S
O306 C326 1.266 1_655 S
O307 Tb252 2.393 . S
O307 C326 1.248 . S
C308 O297 1.264 . S
C308 O298 1.243 . S
C309 C312 1.399 . S
C309 C314 1.383 1_545 S
C309 C316 1.496 1_545 S
C310 C311 1.399 . S
C310 C314 1.389 1_545 S
C311 C310 1.399 . S
C311 C313 1.380 . S
C311 H328 0.929 . S
C312 C309 1.399 . S
C312 C313 1.392 . S
C312 H329 0.929 . S
C313 C311 1.380 . S
C313 C312 1.392 . S
C313 H330 0.929 . S
C314 C309 1.383 1_565 S
C314 C310 1.389 1_565 S
C314 H331 0.931 . S
C315 O300 1.266 1_655 S
C315 O301 1.248 . S
C316 Tb252 2.802 . S
C316 O296 1.264 . S
C316 O299 1.256 1_565 S
C316 C309 1.496 1_565 S
C317 C284 1.448 . S
C317 H294 0.930 . S
C317 C318 1.328 . S
C318 C289 1.427 . S
C318 H295 0.929 . S
C318 C317 1.328 . S
C319 O303 1.264 . S
C319 O304 1.243 1_655 S
C320 C323 1.399 . S
C320 C324 1.383 . S
C320 C327 1.496 . S
C321 C322 1.399 . S
C321 C324 1.389 . S
C322 C321 1.399 . S
C322 C325 1.380 . S
C322 H332 0.929 . S
C323 C320 1.399 . S
C323 C325 1.392 . S
C323 H333 0.929 . S
C324 C320 1.383 . S
C324 C321 1.389 . S
C324 H334 0.931 . S
C325 C322 1.380 . S
C325 C323 1.392 . S
C325 H335 0.929 . S
C326 O306 1.266 1_455 S
C326 O307 1.248 . S
C327 Tb263 2.802 . S
C327 O302 1.264 . S
C327 O305 1.256 . S
C327 C320 1.496 . S
H328 C311 0.929 . S
H329 C312 0.929 . S
H330 C313 0.929 . S
H331 C314 0.931 . S
H332 C322 0.929 . S
H333 C323 0.929 . S
H334 C324 0.931 . S
H335 C325 0.929 . S
C336 C337 1.349 . S
C336 C338 1.327 1_565 S
C336 H361 0.950 . S
C337 C336 1.349 . S
C337 C353 1.349 1_565 S
C338 C336 1.327 1_545 S
C338 C357 1.429 1_655 S
C338 H362 0.972 . S
C339 C356 1.574 . S
C339 C358 1.368 . S
C339 H363 0.949 . S
H340 C344 0.949 . S
C341 C342 1.349 . S
C341 C343 1.327 . S
C341 H364 0.950 . S
C342 C341 1.349 . S
C342 C354 1.349 . S
C343 C341 1.327 . S
C343 C359 1.429 . S
C343 H365 0.950 . S
C344 H340 0.949 . S
C344 C352 1.574 . S
C344 C360 1.368 . S
H345 C353 0.950 . S
H346 C351 0.950 . S
H347 C352 0.949 . S
H348 C354 0.950 . S
H349 C355 0.950 . S
H350 C356 0.949 . S
C351 H346 0.950 . S
C351 C353 1.327 1_455 S
C351 C357 1.429 . S
C352 C344 1.574 . S
C352 H347 0.949 . S
C352 C358 1.368 . S
C353 C337 1.349 1_545 S
C353 H345 0.950 . S
C353 C351 1.327 1_655 S
C354 C342 1.349 . S
C354 H348 0.950 . S
C354 C355 1.327 . S
C355 H349 0.950 . S
C355 C354 1.327 . S
C355 C359 1.429 . S
C356 C339 1.574 . S
C356 H350 0.949 . S
C356 C360 1.368 . S
C357 C338 1.429 1_455 S
C357 C351 1.429 . S
C357 C358 1.523 . S
C358 C339 1.368 . S
C358 C352 1.368 . S
C358 C357 1.523 . S
C359 C343 1.429 . S
C359 C355 1.429 . S
C359 C360 1.523 . S
C360 C344 1.368 . S
C360 C356 1.368 . S
C360 C359 1.523 . S
H361 C336 0.950 . S
H362 C338 0.972 . S
H363 C339 0.949 . S
H364 C341 0.950 . S
H365 C343 0.950 . S
C366 C367 1.349 1_655 S
C366 C368 1.327 1_655 S
C366 H391 0.950 . S
C367 C366 1.349 1_455 S
C367 C383 1.349 . S
C368 C366 1.327 1_455 S
C368 C387 1.429 1_565 S
C368 H392 0.950 1_455 S
C369 C386 1.574 . S
C369 C388 1.368 . S
C369 H393 0.949 . S
H370 C374 0.949 . S
C371 C372 1.349 . S
C371 C373 1.327 . S
C371 H394 0.950 . S
C372 C371 1.349 . S
C372 C384 1.349 . S
C373 C371 1.327 . S
C373 C389 1.429 . S
C373 H395 0.950 . S
C374 H370 0.949 . S
C374 C382 1.574 . S
C374 C390 1.368 . S
H375 C383 0.950 . S
H376 C381 0.950 . S
H377 C382 0.949 . S
H378 C384 0.950 . S
H379 C385 0.950 . S
H380 C386 0.949 . S
C381 H376 0.950 . S
C381 C383 1.327 1_545 S
C381 C387 1.429 . S
C382 C374 1.574 . S
C382 H377 0.949 . S
C382 C388 1.368 . S
C383 C367 1.349 . S
C383 H375 0.950 . S
C383 C381 1.327 1_565 S
C384 C372 1.349 . S
C384 H378 0.950 . S
C384 C385 1.327 . S
C385 H379 0.950 . S
C385 C384 1.327 . S
C385 C389 1.429 . S
C386 C369 1.574 . S
C386 H380 0.949 . S
C386 C390 1.368 . S
C387 C368 1.429 1_545 S
C387 C381 1.429 . S
C387 C388 1.523 . S
C388 C369 1.368 . S
C388 C382 1.368 . S
C388 C387 1.523 . S
C389 C373 1.429 . S
C389 C385 1.429 . S
C389 C390 1.523 . S
C390 C374 1.368 . S
C390 C386 1.368 . S
C390 C389 1.523 . S
H391 C366 0.950 . S
H392 C368 0.950 1_655 S
H393 C369 0.949 . S
H394 C371 0.950 . S
H395 C373 0.950 . S
C396 C397 1.349 . S
C396 C398 1.327 . S
C396 H421 0.950 . S
C397 C396 1.349 . S
C397 C413 1.349 1_545 S
C398 C396 1.327 . S
C398 C417 1.429 . S
C398 H422 0.950 . S
C399 C416 1.574 . S
C399 C418 1.368 . S
C399 H423 0.949 . S
H400 C404 0.949 . S
C401 C402 1.349 . S
C401 C403 1.327 . S
C401 H424 0.950 . S
C402 C401 1.349 . S
C402 C414 1.349 . S
C403 C401 1.327 . S
C403 C419 1.429 . S
C403 H425 0.950 . S
C404 H400 0.949 . S
C404 C412 1.574 . S
C404 C420 1.368 . S
H405 C413 0.950 . S
H406 C411 0.950 . S
H407 C412 0.949 . S
H408 C414 0.950 . S
H409 C415 0.950 . S
H410 C416 0.949 . S
C411 H406 0.950 . S
C411 C413 1.327 1_545 S
C411 C417 1.429 . S
C412 C404 1.574 . S
C412 H407 0.949 . S
C412 C418 1.368 . S
C413 C397 1.349 1_565 S
C413 H405 0.950 . S
C413 C411 1.327 1_565 S
C414 C402 1.349 . S
C414 H408 0.950 . S
C414 C415 1.327 . S
C415 H409 0.950 . S
C415 C414 1.327 . S
C415 C419 1.429 . S
C416 C399 1.574 . S
C416 H410 0.949 . S
C416 C420 1.368 . S
C417 C398 1.429 . S
C417 C411 1.429 . S
C417 C418 1.523 . S
C418 C399 1.368 . S
C418 C412 1.368 . S
C418 C417 1.523 . S
C419 C403 1.429 . S
C419 C415 1.429 . S
C419 C420 1.523 . S
C420 C404 1.368 . S
C420 C416 1.368 . S
C420 C419 1.523 . S
H421 C396 0.950 . S
H422 C398 0.950 . S
H423 C399 0.949 . S
H424 C401 0.950 . S
H425 C403 0.950 . S
C426 C427 1.349 . S
C426 C428 1.327 . S
C426 H451 0.950 . S
C427 C426 1.349 . S
C427 C443 1.349 . S
C428 C426 1.327 . S
C428 C447 1.429 . S
C428 H452 0.950 . S
C429 C446 1.574 . S
C429 C448 1.368 . S
C429 H453 0.949 . S
H430 C434 0.949 . S
C431 C432 1.349 . S
C431 C433 1.327 . S
C431 H454 0.950 . S
C432 C431 1.349 . S
C432 C444 1.349 . S
C433 C431 1.327 . S
C433 C449 1.429 . S
C433 H455 0.950 . S
C434 H430 0.949 . S
C434 C442 1.574 . S
C434 C450 1.368 . S
H435 C443 0.950 . S
H436 C441 0.950 . S
H437 C442 0.949 . S
H438 C444 0.950 1_655 S
H439 C445 0.950 . S
H440 C446 0.949 . S
C441 H436 0.950 . S
C441 C443 1.327 . S
C441 C447 1.429 . S
C442 C434 1.574 . S
C442 H437 0.949 . S
C442 C448 1.368 . S
C443 C427 1.349 . S
C443 H435 0.950 . S
C443 C441 1.327 . S
C444 C432 1.349 . S
C444 H438 0.950 1_455 S
C444 C445 1.327 . S
C445 H439 0.950 . S
C445 C444 1.327 . S
C445 C449 1.429 . S
C446 C429 1.574 . S
C446 H440 0.949 . S
C446 C450 1.368 . S
C447 C428 1.429 . S
C447 C441 1.429 . S
C447 C448 1.523 . S
C448 C429 1.368 . S
C448 C442 1.368 . S
C448 C447 1.523 . S
C449 C433 1.429 . S
C449 C445 1.429 . S
C449 C450 1.523 . S
C450 C434 1.368 . S
C450 C446 1.368 . S
C450 C449 1.523 . S
H451 C426 0.950 . S
H452 C428 0.950 . S
H453 C429 0.949 . S
H454 C431 0.950 . S
H455 C433 0.950 . S
C456 C457 1.349 . S
C456 C458 1.327 . S
C456 H481 0.950 . S
C457 C456 1.349 . S
C457 C473 1.349 . S
C458 C456 1.327 . S
C458 C477 1.429 . S
C458 H482 0.950 . S
C459 C476 1.574 . S
C459 C478 1.368 . S
C459 H483 0.949 . S
H460 C464 0.949 . S
C461 C462 1.349 . S
C461 C463 1.327 . S
C461 H484 0.950 . S
C462 C461 1.349 . S
C462 C474 1.349 . S
C463 C461 1.327 . S
C463 C479 1.429 . S
C463 H485 0.950 . S
C464 H460 0.949 . S
C464 C472 1.574 . S
C464 C480 1.368 . S
H465 C473 0.950 . S
H466 C471 0.950 . S
H467 C472 0.949 . S
H468 C474 0.950 . S
H469 C475 0.950 . S
H470 C476 0.949 . S
C471 H466 0.950 . S
C471 C473 1.327 . S
C471 C477 1.429 . S
C472 C464 1.574 . S
C472 H467 0.949 . S
C472 C478 1.368 . S
C473 C457 1.349 . S
C473 H465 0.950 . S
C473 C471 1.327 . S
C474 C462 1.349 . S
C474 H468 0.950 . S
C474 C475 1.327 . S
C475 H469 0.950 . S
C475 C474 1.327 . S
C475 C479 1.429 . S
C476 C459 1.574 . S
C476 H470 0.949 . S
C476 C480 1.368 . S
C477 C458 1.429 . S
C477 C471 1.429 . S
C477 C478 1.523 . S
C478 C459 1.368 . S
C478 C472 1.368 . S
C478 C477 1.523 . S
C479 C463 1.429 . S
C479 C475 1.429 . S
C479 C480 1.523 . S
C480 C464 1.368 . S
C480 C476 1.368 . S
C480 C479 1.523 . S
H481 C456 0.950 . S
H482 C458 0.950 . S
H483 C459 0.949 . S
H484 C461 0.950 . S
H485 C463 0.950 . S
C486 C487 1.349 . S
C486 C488 1.327 . S
C486 H511 0.950 . S
C487 C486 1.349 . S
C487 C503 1.349 . S
C488 C486 1.327 . S
C488 C507 1.429 . S
C488 H512 0.950 . S
C489 C506 1.574 . S
C489 C508 1.368 . S
C489 H513 0.949 . S
H490 C494 0.949 . S
C491 C492 1.349 . S
C491 C493 1.327 1_655 S
C491 H514 0.950 . S
C492 C491 1.349 . S
C492 C504 1.349 . S
C493 C491 1.327 1_455 S
C493 C509 1.429 . S
C493 H515 0.950 . S
C494 H490 0.949 . S
C494 C502 1.574 . S
C494 C510 1.368 . S
H495 C503 0.950 . S
H496 C501 0.950 . S
H497 C502 0.949 . S
H498 C504 0.950 . S
H499 C505 0.950 . S
H500 C506 0.949 . S
C501 H496 0.950 . S
C501 C503 1.327 . S
C501 C507 1.429 . S
C502 C494 1.574 . S
C502 H497 0.949 . S
C502 C508 1.368 . S
C503 C487 1.349 . S
C503 H495 0.950 . S
C503 C501 1.327 . S
C504 C492 1.349 . S
C504 H498 0.950 . S
C504 C505 1.327 . S
C505 H499 0.950 . S
C505 C504 1.327 . S
C505 C509 1.429 1_655 S
C506 C489 1.574 . S
C506 H500 0.949 . S
C506 C510 1.368 . S
C507 C488 1.429 . S
C507 C501 1.429 . S
C507 C508 1.523 . S
C508 C489 1.368 . S
C508 C502 1.368 . S
C508 C507 1.523 . S
C509 C493 1.429 . S
C509 C505 1.429 1_455 S
C509 C510 1.523 . S
C510 C494 1.368 . S
C510 C506 1.368 . S
C510 C509 1.523 . S
H511 C486 0.950 . S
H512 C488 0.950 . S
H513 C489 0.949 . S
H514 C491 0.950 . S
H515 C493 0.950 . S
C516 C517 1.349 . S
C516 C518 1.327 . S
C516 H541 0.950 . S
C517 C516 1.349 . S
C517 C533 1.349 . S
C518 C516 1.327 . S
C518 C537 1.429 . S
C518 H542 0.950 . S
C519 C536 1.574 . S
C519 C538 1.368 . S
C519 H543 0.949 . S
H520 C524 0.949 . S
C521 C522 1.349 . S
C521 C523 1.327 . S
C521 H544 0.950 . S
C522 C521 1.349 . S
C522 C534 1.349 . S
C523 C521 1.327 . S
C523 C539 1.429 . S
C523 H545 0.950 . S
C524 H520 0.949 . S
C524 C532 1.574 . S
C524 C540 1.368 . S
H525 C533 0.950 . S
H526 C531 0.950 . S
H527 C532 0.949 . S
H528 C534 0.950 . S
H529 C535 0.950 . S
H530 C536 0.949 . S
C531 H526 0.950 . S
C531 C533 1.327 . S
C531 C537 1.429 . S
C532 C524 1.574 . S
C532 H527 0.949 . S
C532 C538 1.368 . S
C533 C517 1.349 . S
C533 H525 0.950 . S
C533 C531 1.327 . S
C534 C522 1.349 . S
C534 H528 0.950 . S
C534 C535 1.327 . S
C535 H529 0.950 . S
C535 C534 1.327 . S
C535 C539 1.429 . S
C536 C519 1.574 . S
C536 H530 0.949 . S
C536 C540 1.368 . S
C537 C518 1.429 . S
C537 C531 1.429 . S
C537 C538 1.523 . S
C538 C519 1.368 . S
C538 C532 1.368 . S
C538 C537 1.523 . S
C539 C523 1.429 . S
C539 C535 1.429 . S
C539 C540 1.523 . S
C540 C524 1.368 . S
C540 C536 1.368 . S
C540 C539 1.523 . S
H541 C516 0.950 . S
H542 C518 0.950 . S
H543 C519 0.949 . S
H544 C521 0.950 . S
H545 C523 0.950 . S
C546 C547 1.349 . S
C546 C548 1.327 . S
C546 H571 0.950 . S
C547 C546 1.349 . S
C547 C563 1.349 1_565 S
C548 C546 1.327 . S
C548 C567 1.429 1_565 S
C548 H572 0.950 . S
C549 C566 1.574 . S
C549 C568 1.368 . S
C549 H573 0.949 . S
H550 C554 0.949 . S
C551 C552 1.349 1_556 S
C551 C553 1.327 . S
C551 H574 0.950 . S
C552 C551 1.349 1_554 S
C552 C564 1.349 . S
C553 C551 1.327 . S
C553 C569 1.429 . S
C553 H575 0.950 . S
C554 H550 0.949 . S
C554 C562 1.574 . S
C554 C570 1.368 . S
H555 C563 0.950 . S
H556 C561 0.950 . S
H557 C562 0.949 1_565 S
H558 C564 0.950 . S
H559 C565 0.950 . S
H560 C566 0.949 . S
C561 H556 0.950 . S
C561 C563 1.327 . S
C561 C567 1.429 . S
C562 C554 1.574 . S
C562 H557 0.949 1_545 S
C562 C568 1.368 . S
C563 C547 1.349 1_545 S
C563 H555 0.950 . S
C563 C561 1.327 . S
C564 C552 1.349 . S
C564 H558 0.950 . S
C564 C565 1.327 1_554 S
C565 H559 0.950 . S
C565 C564 1.327 1_556 S
C565 C569 1.429 . S
C566 C549 1.574 . S
C566 H560 0.949 . S
C566 C570 1.368 . S
C567 C548 1.429 1_545 S
C567 C561 1.429 . S
C567 C568 1.523 . S
C568 C549 1.368 . S
C568 C562 1.368 . S
C568 C567 1.523 . S
C569 C553 1.429 . S
C569 C565 1.429 . S
C569 C570 1.523 . S
C570 C554 1.368 . S
C570 C566 1.368 . S
C570 C569 1.523 . S
H571 C546 0.950 . S
H572 C548 0.950 . S
H573 C549 0.949 . S
H574 C551 0.950 . S
H575 C553 0.950 . S
C576 C577 1.349 . S
C576 C578 1.327 1_554 S
C576 H601 0.950 . S
C577 C576 1.349 . S
C577 C593 1.349 1_554 S
C578 C576 1.327 1_556 S
C578 C597 1.429 . S
C578 H602 0.950 . S
C579 C596 1.574 . S
C579 C598 1.368 . S
C579 H603 0.949 . S
H580 C584 0.949 . S
C581 C582 1.349 . S
C581 C583 1.327 . S
C581 H604 0.950 . S
C582 C581 1.349 . S
C582 C594 1.349 . S
C583 C581 1.327 . S
C583 C599 1.429 . S
C583 H605 0.950 . S
C584 H580 0.949 . S
C584 C592 1.574 . S
C584 C600 1.368 . S
H585 C593 0.950 1_545 S
H586 C591 0.950 . S
H587 C592 0.949 . S
H588 C594 0.950 . S
H589 C595 0.950 . S
H590 C596 0.949 . S
C591 H586 0.950 . S
C591 C593 1.327 . S
C591 C597 1.429 . S
C592 C584 1.574 . S
C592 H587 0.949 . S
C592 C598 1.368 . S
C593 C577 1.349 1_556 S
C593 H585 0.950 1_565 S
C593 C591 1.327 . S
C594 C582 1.349 . S
C594 H588 0.950 . S
C594 C595 1.327 . S
C595 H589 0.950 . S
C595 C594 1.327 . S
C595 C599 1.429 . S
C596 C579 1.574 . S
C596 H590 0.949 . S
C596 C600 1.368 . S
C597 C578 1.429 . S
C597 C591 1.429 . S
C597 C598 1.523 . S
C598 C579 1.368 . S
C598 C592 1.368 . S
C598 C597 1.523 . S
C599 C583 1.429 . S
C599 C595 1.429 . S
C599 C600 1.523 . S
C600 C584 1.368 . S
C600 C596 1.368 . S
C600 C599 1.523 . S
H601 C576 0.950 . S
H602 C578 0.950 . S
H603 C579 0.949 . S
H604 C581 0.950 . S
H605 C583 0.950 . S
C606 C607 1.349 . S
C606 C608 1.327 . S
C606 H631 0.950 . S
C607 C606 1.349 . S
C607 C623 1.349 . S
C608 C606 1.327 . S
C608 C627 1.429 . S
C608 H632 0.950 . S
C609 C626 1.574 . S
C609 C628 1.368 . S
C609 H633 0.949 . S
H610 C614 0.949 1_565 S
C611 C612 1.349 . S
C611 C613 1.327 . S
C611 H634 0.950 . S
C612 C611 1.349 . S
C612 C624 1.349 . S
C613 C611 1.327 . S
C613 C629 1.429 . S
C613 H635 0.950 . S
C614 H610 0.949 1_545 S
C614 C622 1.574 . S
C614 C630 1.368 . S
H615 C623 0.950 . S
H616 C621 0.950 . S
H617 C622 0.949 . S
H618 C624 0.950 . S
H619 C625 0.950 . S
H620 C626 0.949 . S
C621 H616 0.950 . S
C621 C623 1.327 . S
C621 C627 1.429 . S
C622 C614 1.574 . S
C622 H617 0.949 . S
C622 C628 1.368 . S
C623 C607 1.349 . S
C623 H615 0.950 . S
C623 C621 1.327 . S
C624 C612 1.349 . S
C624 H618 0.950 . S
C624 C625 1.327 . S
C625 H619 0.950 . S
C625 C624 1.327 . S
C625 C629 1.429 . S
C626 C609 1.574 . S
C626 H620 0.949 . S
C626 C630 1.368 . S
C627 C608 1.429 . S
C627 C621 1.429 . S
C627 C628 1.523 . S
C628 C609 1.368 . S
C628 C622 1.368 . S
C628 C627 1.523 . S
C629 C613 1.429 . S
C629 C625 1.429 . S
C629 C630 1.523 1_565 S
C630 C614 1.368 . S
C630 C626 1.368 . S
C630 C629 1.523 1_545 S
H631 C606 0.950 . S
H632 C608 0.950 . S
H633 C609 0.949 . S
H634 C611 0.950 . S
H635 C613 0.950 . S
C636 C637 1.349 . S
C636 C638 1.327 . S
C636 H661 0.950 . S
C637 C636 1.349 . S
C637 C653 1.349 . S
C638 C636 1.327 . S
C638 C657 1.429 . S
C638 H662 0.950 . S
C639 C656 1.574 . S
C639 C658 1.368 . S
C639 H663 0.949 . S
H640 C644 0.949 . S
C641 C642 1.349 . S
C641 C643 1.327 . S
C641 H664 0.950 . S
C642 C641 1.349 . S
C642 C654 1.349 . S
C643 C641 1.327 . S
C643 C659 1.429 . S
C643 H665 0.950 . S
C644 H640 0.949 . S
C644 C652 1.574 . S
C644 C660 1.368 . S
H645 C653 0.950 . S
H646 C651 0.950 . S
H647 C652 0.949 . S
H648 C654 0.950 . S
H649 C655 0.950 . S
H650 C656 0.949 . S
C651 H646 0.950 . S
C651 C653 1.327 . S
C651 C657 1.429 . S
C652 C644 1.574 . S
C652 H647 0.949 . S
C652 C658 1.368 . S
C653 C637 1.349 . S
C653 H645 0.950 . S
C653 C651 1.327 . S
C654 C642 1.349 . S
C654 H648 0.950 . S
C654 C655 1.327 . S
C655 H649 0.950 . S
C655 C654 1.327 . S
C655 C659 1.429 . S
C656 C639 1.574 . S
C656 H650 0.949 . S
C656 C660 1.368 . S
C657 C638 1.429 . S
C657 C651 1.429 . S
C657 C658 1.523 . S
C658 C639 1.368 . S
C658 C652 1.368 . S
C658 C657 1.523 . S
C659 C643 1.429 . S
C659 C655 1.429 . S
C659 C660 1.523 . S
C660 C644 1.368 . S
C660 C656 1.368 . S
C660 C659 1.523 . S
H661 C636 0.950 . S
H662 C638 0.950 . S
H663 C639 0.949 . S
H664 C641 0.950 . S
H665 C643 0.950 . S
C666 C667 1.349 . S
C666 C668 1.327 . S
C666 H691 0.950 . S
C667 C666 1.349 . S
C667 C683 1.349 . S
C668 C666 1.327 . S
C668 C687 1.429 1_655 S
C668 H692 0.950 . S
C669 C686 1.574 . S
C669 C688 1.368 . S
C669 H693 0.949 . S
H670 C674 0.949 . S
C671 C672 1.349 . S
C671 C673 1.327 . S
C671 H694 0.950 . S
C672 C671 1.349 . S
C672 C684 1.349 . S
C673 C671 1.327 . S
C673 C689 1.429 . S
C673 H695 0.950 . S
C674 H670 0.949 . S
C674 C682 1.574 . S
C674 C690 1.368 . S
H675 C683 0.950 1_455 S
H676 C681 0.950 . S
H677 C682 0.949 . S
H678 C684 0.950 . S
H679 C685 0.950 . S
H680 C686 0.949 . S
C681 H676 0.950 . S
C681 C683 1.327 1_455 S
C681 C687 1.429 . S
C682 C674 1.574 . S
C682 H677 0.949 . S
C682 C688 1.368 . S
C683 C667 1.349 . S
C683 H675 0.950 1_655 S
C683 C681 1.327 1_655 S
C684 C672 1.349 . S
C684 H678 0.950 . S
C684 C685 1.327 . S
C685 H679 0.950 . S
C685 C684 1.327 . S
C685 C689 1.429 . S
C686 C669 1.574 . S
C686 H680 0.949 . S
C686 C690 1.368 . S
C687 C668 1.429 1_455 S
C687 C681 1.429 . S
C687 C688 1.523 . S
C688 C669 1.368 . S
C688 C682 1.368 . S
C688 C687 1.523 . S
C689 C673 1.429 . S
C689 C685 1.429 . S
C689 C690 1.523 . S
C690 C674 1.368 . S
C690 C686 1.368 . S
C690 C689 1.523 . S
H691 C666 0.950 . S
H692 C668 0.950 . S
H693 C669 0.949 . S
H694 C671 0.950 . S
H695 C673 0.950 . S
C337 C242 0.606 1_565 S
C342 C63 0.607 . S
C367 C326 0.411 . S
C372 C158 0.661 . S
C397 C231 1.581 1_545 S
C402 C74 1.581 . S
C427 C147 1.661 . S
C432 C315 1.624 1_455 S
C457 C153 0.791 . S
C462 C56 0.795 . S
C487 C142 1.201 . S
C492 C226 1.016 1_655 S
C517 C321 0.808 . S
C522 C237 0.809 . S
C547 C310 0.742 1_565 S
C552 C67 0.686 . S
C577 C235 3.335 . S
C582 C319 3.338 . S
C607 C69 1.472 . S
C612 C308 1.798 . S
C637 C151 3.184 . S
C642 C58 3.148 . S
C667 C224 2.839 . S
C672 C140 2.899 . S
