# Generated by pormake.
# Topology umu, (4)-cn, num edge types: 1
# Building blocks:
#     Node 0, Type 0, BuildingBlock: GALJAG_clean_sbu_0, # of connection points: 4
#     Node 1, Type 0, BuildingBlock: GALJAG_clean_sbu_0, # of connection points: 4
#     Node 2, Type 0, BuildingBlock: GALJAG_clean_sbu_0, # of connection points: 4
#     Node 3, Type 0, BuildingBlock: GALJAG_clean_sbu_0, # of connection points: 4
#     Node 4, Type 0, BuildingBlock: GALJAG_clean_sbu_0, # of connection points: 4
#     Node 5, Type 0, BuildingBlock: GALJAG_clean_sbu_0, # of connection points: 4
#     Node 6, Type 0, BuildingBlock: GALJAG_clean_sbu_0, # of connection points: 4
#     Node 7, Type 0, BuildingBlock: GALJAG_clean_sbu_0, # of connection points: 4
#     Node 8, Type 0, BuildingBlock: GALJAG_clean_sbu_0, # of connection points: 4
#     Node 9, Type 0, BuildingBlock: GALJAG_clean_sbu_0, # of connection points: 4
#     Node 10, Type 0, BuildingBlock: GALJAG_clean_sbu_0, # of connection points: 4
#     Node 11, Type 0, BuildingBlock: GALJAG_clean_sbu_0, # of connection points: 4
#     Node 12, Type 0, BuildingBlock: GALJAG_clean_sbu_0, # of connection points: 4
#     Node 13, Type 0, BuildingBlock: GALJAG_clean_sbu_0, # of connection points: 4
#     Node 14, Type 0, BuildingBlock: GALJAG_clean_sbu_0, # of connection points: 4
#     Node 15, Type 0, BuildingBlock: GALJAG_clean_sbu_0, # of connection points: 4
#     Node 16, Type 0, BuildingBlock: GALJAG_clean_sbu_0, # of connection points: 4
#     Node 17, Type 0, BuildingBlock: GALJAG_clean_sbu_0, # of connection points: 4
#     Node 18, Type 0, BuildingBlock: GALJAG_clean_sbu_0, # of connection points: 4
#     Node 19, Type 0, BuildingBlock: GALJAG_clean_sbu_0, # of connection points: 4
#     Node 20, Type 0, BuildingBlock: GALJAG_clean_sbu_0, # of connection points: 4
#     Node 21, Type 0, BuildingBlock: GALJAG_clean_sbu_0, # of connection points: 4
#     Node 22, Type 0, BuildingBlock: GALJAG_clean_sbu_0, # of connection points: 4
#     Node 23, Type 0, BuildingBlock: GALJAG_clean_sbu_0, # of connection points: 4
#     Node 24, Type 0, BuildingBlock: GALJAG_clean_sbu_0, # of connection points: 4
#     Node 25, Type 0, BuildingBlock: GALJAG_clean_sbu_0, # of connection points: 4
#     Node 26, Type 0, BuildingBlock: GALJAG_clean_sbu_0, # of connection points: 4
#     Node 27, Type 0, BuildingBlock: GALJAG_clean_sbu_0, # of connection points: 4
#     Node 28, Type 0, BuildingBlock: GALJAG_clean_sbu_0, # of connection points: 4
#     Node 29, Type 0, BuildingBlock: GALJAG_clean_sbu_0, # of connection points: 4
#     Node 30, Type 0, BuildingBlock: GALJAG_clean_sbu_0, # of connection points: 4
#     Node 31, Type 0, BuildingBlock: GALJAG_clean_sbu_0, # of connection points: 4
#     Edge 32, Type (0, 0), BuildingBlock: XIVTED_clean_linker_0, # of connection points: 2
#     Edge 33, Type (0, 0), BuildingBlock: XIVTED_clean_linker_0, # of connection points: 2
#     Edge 34, Type (0, 0), BuildingBlock: XIVTED_clean_linker_0, # of connection points: 2
#     Edge 35, Type (0, 0), BuildingBlock: XIVTED_clean_linker_0, # of connection points: 2
#     Edge 36, Type (0, 0), BuildingBlock: XIVTED_clean_linker_0, # of connection points: 2
#     Edge 37, Type (0, 0), BuildingBlock: XIVTED_clean_linker_0, # of connection points: 2
#     Edge 38, Type (0, 0), BuildingBlock: XIVTED_clean_linker_0, # of connection points: 2
#     Edge 39, Type (0, 0), BuildingBlock: XIVTED_clean_linker_0, # of connection points: 2
#     Edge 40, Type (0, 0), BuildingBlock: XIVTED_clean_linker_0, # of connection points: 2
#     Edge 41, Type (0, 0), BuildingBlock: XIVTED_clean_linker_0, # of connection points: 2
#     Edge 42, Type (0, 0), BuildingBlock: XIVTED_clean_linker_0, # of connection points: 2
#     Edge 43, Type (0, 0), BuildingBlock: XIVTED_clean_linker_0, # of connection points: 2
#     Edge 44, Type (0, 0), BuildingBlock: XIVTED_clean_linker_0, # of connection points: 2
#     Edge 45, Type (0, 0), BuildingBlock: XIVTED_clean_linker_0, # of connection points: 2
#     Edge 46, Type (0, 0), BuildingBlock: XIVTED_clean_linker_0, # of connection points: 2
#     Edge 47, Type (0, 0), BuildingBlock: XIVTED_clean_linker_0, # of connection points: 2
#     Edge 48, Type (0, 0), BuildingBlock: XIVTED_clean_linker_0, # of connection points: 2
#     Edge 49, Type (0, 0), BuildingBlock: XIVTED_clean_linker_0, # of connection points: 2
#     Edge 50, Type (0, 0), BuildingBlock: XIVTED_clean_linker_0, # of connection points: 2
#     Edge 51, Type (0, 0), BuildingBlock: XIVTED_clean_linker_0, # of connection points: 2
#     Edge 52, Type (0, 0), BuildingBlock: XIVTED_clean_linker_0, # of connection points: 2
#     Edge 53, Type (0, 0), BuildingBlock: XIVTED_clean_linker_0, # of connection points: 2
#     Edge 54, Type (0, 0), BuildingBlock: XIVTED_clean_linker_0, # of connection points: 2
#     Edge 55, Type (0, 0), BuildingBlock: XIVTED_clean_linker_0, # of connection points: 2
#     Edge 56, Type (0, 0), BuildingBlock: XIVTED_clean_linker_0, # of connection points: 2
#     Edge 57, Type (0, 0), BuildingBlock: XIVTED_clean_linker_0, # of connection points: 2
#     Edge 58, Type (0, 0), BuildingBlock: XIVTED_clean_linker_0, # of connection points: 2
#     Edge 59, Type (0, 0), BuildingBlock: XIVTED_clean_linker_0, # of connection points: 2
#     Edge 60, Type (0, 0), BuildingBlock: XIVTED_clean_linker_0, # of connection points: 2
#     Edge 61, Type (0, 0), BuildingBlock: XIVTED_clean_linker_0, # of connection points: 2
#     Edge 62, Type (0, 0), BuildingBlock: XIVTED_clean_linker_0, # of connection points: 2
#     Edge 63, Type (0, 0), BuildingBlock: XIVTED_clean_linker_0, # of connection points: 2
#     Edge 64, Type (0, 0), BuildingBlock: XIVTED_clean_linker_0, # of connection points: 2
#     Edge 65, Type (0, 0), BuildingBlock: XIVTED_clean_linker_0, # of connection points: 2
#     Edge 66, Type (0, 0), BuildingBlock: XIVTED_clean_linker_0, # of connection points: 2
#     Edge 67, Type (0, 0), BuildingBlock: XIVTED_clean_linker_0, # of connection points: 2
#     Edge 68, Type (0, 0), BuildingBlock: XIVTED_clean_linker_0, # of connection points: 2
#     Edge 69, Type (0, 0), BuildingBlock: XIVTED_clean_linker_0, # of connection points: 2
#     Edge 70, Type (0, 0), BuildingBlock: XIVTED_clean_linker_0, # of connection points: 2
#     Edge 71, Type (0, 0), BuildingBlock: XIVTED_clean_linker_0, # of connection points: 2
#     Edge 72, Type (0, 0), BuildingBlock: XIVTED_clean_linker_0, # of connection points: 2
#     Edge 73, Type (0, 0), BuildingBlock: XIVTED_clean_linker_0, # of connection points: 2
#     Edge 74, Type (0, 0), BuildingBlock: XIVTED_clean_linker_0, # of connection points: 2
#     Edge 75, Type (0, 0), BuildingBlock: XIVTED_clean_linker_0, # of connection points: 2
#     Edge 76, Type (0, 0), BuildingBlock: XIVTED_clean_linker_0, # of connection points: 2
#     Edge 77, Type (0, 0), BuildingBlock: XIVTED_clean_linker_0, # of connection points: 2
#     Edge 78, Type (0, 0), BuildingBlock: XIVTED_clean_linker_0, # of connection points: 2
#     Edge 79, Type (0, 0), BuildingBlock: XIVTED_clean_linker_0, # of connection points: 2
#     Edge 80, Type (0, 0), BuildingBlock: XIVTED_clean_linker_0, # of connection points: 2
#     Edge 81, Type (0, 0), BuildingBlock: XIVTED_clean_linker_0, # of connection points: 2
#     Edge 82, Type (0, 0), BuildingBlock: XIVTED_clean_linker_0, # of connection points: 2
#     Edge 83, Type (0, 0), BuildingBlock: XIVTED_clean_linker_0, # of connection points: 2
#     Edge 84, Type (0, 0), BuildingBlock: XIVTED_clean_linker_0, # of connection points: 2
#     Edge 85, Type (0, 0), BuildingBlock: XIVTED_clean_linker_0, # of connection points: 2
#     Edge 86, Type (0, 0), BuildingBlock: XIVTED_clean_linker_0, # of connection points: 2
#     Edge 87, Type (0, 0), BuildingBlock: XIVTED_clean_linker_0, # of connection points: 2
#     Edge 88, Type (0, 0), BuildingBlock: XIVTED_clean_linker_0, # of connection points: 2
#     Edge 89, Type (0, 0), BuildingBlock: XIVTED_clean_linker_0, # of connection points: 2
#     Edge 90, Type (0, 0), BuildingBlock: XIVTED_clean_linker_0, # of connection points: 2
#     Edge 91, Type (0, 0), BuildingBlock: XIVTED_clean_linker_0, # of connection points: 2
#     Edge 92, Type (0, 0), BuildingBlock: XIVTED_clean_linker_0, # of connection points: 2
#     Edge 93, Type (0, 0), BuildingBlock: XIVTED_clean_linker_0, # of connection points: 2
#     Edge 94, Type (0, 0), BuildingBlock: XIVTED_clean_linker_0, # of connection points: 2
#     Edge 95, Type (0, 0), BuildingBlock: XIVTED_clean_linker_0, # of connection points: 2
# Relax obj value: 0.103
# Max RMSD: 0.078
# Mean RMSD: 0.078
data_MOF--net-umu--node1-GALJAG_clean_sbu_0--edge1-XIVTED_clean_linker_0
_symmetry_space_group_name_H-M    P1
_symmetry_Int_Tables_number       1
_symmetry_cell_setting            triclinic
loop_
_symmetry_equiv_pos_as_xyz
'x, y, z'
_cell_length_a     80.261759
_cell_length_b     80.120628
_cell_length_c     27.469155
_cell_angle_alpha  90.011286
_cell_angle_beta   89.997163
_cell_angle_gamma 89.984771
loop_
_atom_site_label
_atom_site_type_symbol
_atom_site_fract_x
_atom_site_fract_y
_atom_site_fract_z
_atom_type_partial_charge
In0 In 0.21353 0.14939 0.07692 0.0
O1 O 0.21838 0.16105 0.00302 0.0
O2 O 0.23286 0.13985 0.02193 0.0
C3 C 0.22614 0.13745 0.16088 0.0
C4 C 0.18869 0.12954 0.04592 0.0
C5 C 0.20992 0.18143 0.10373 0.0
O6 O 0.23506 0.14041 0.12401 0.0
O7 O 0.21078 0.14021 0.15507 0.0
O8 O 0.19755 0.17186 0.09804 0.0
O9 O 0.22394 0.17473 0.09652 0.0
C10 C 0.22934 0.1507 0.99023 0.0
O11 O 0.18677 0.14505 0.05164 0.0
O12 O 0.20277 0.12404 0.0584 0.0
In13 In 0.08977 0.95995 0.31801 0.0
O14 O 0.09215 0.98222 0.26618 0.0
O15 O 0.08181 0.95962 0.23896 0.0
C16 C 0.10284 0.97235 0.40065 0.0
C17 C 0.11205 0.93715 0.28847 0.0
C18 C 0.05771 0.95641 0.34474 0.0
O19 O 0.10095 0.98107 0.36275 0.0
O20 O 0.09848 0.95727 0.39646 0.0
O21 O 0.06709 0.94396 0.33787 0.0
O22 O 0.06458 0.97039 0.33856 0.0
C23 C 0.08619 0.97441 0.23018 0.0
O24 O 0.09735 0.93322 0.30026 0.0
O25 O 0.11565 0.95236 0.29418 0.0
In26 In 0.28472 0.84057 0.56773 0.0
O27 O 0.31131 0.84836 0.54925 0.0
O28 O 0.29203 0.86653 0.54379 0.0
C29 C 0.28878 0.8087 0.59622 0.0
C30 C 0.27005 0.83649 0.48041 0.0
C31 C 0.27198 0.85388 0.64959 0.0
O32 O 0.30105 0.81824 0.5888 0.0
O33 O 0.27472 0.8153 0.58948 0.0
O34 O 0.26348 0.85193 0.61134 0.0
O35 O 0.28705 0.84946 0.64615 0.0
C36 C 0.30722 0.86306 0.53768 0.0
O37 O 0.26229 0.84233 0.51662 0.0
O38 O 0.28494 0.83243 0.4887 0.0
In39 In 0.40448 0.03883 0.82293 0.0
O40 O 0.41449 0.02149 0.76444 0.0
O41 O 0.38859 0.02701 0.76298 0.0
C42 C 0.389 0.02756 0.90367 0.0
C43 C 0.39311 0.06766 0.78553 0.0
C44 C 0.43645 0.04099 0.85227 0.0
O45 O 0.39052 0.01879 0.86577 0.0
O46 O 0.39475 0.04215 0.90014 0.0
O47 O 0.42805 0.05368 0.84065 0.0
O48 O 0.42869 0.02736 0.84942 0.0
C49 C 0.40074 0.01975 0.74285 0.0
O50 O 0.4056 0.0601 0.76859 0.0
O51 O 0.38657 0.06095 0.82249 0.0
In52 In 0.20796 0.84139 0.05666 0.0
O53 O 0.23035 0.84351 0.10785 0.0
O54 O 0.2079 0.83307 0.13546 0.0
C55 C 0.22041 0.85473 0.97445 0.0
C56 C 0.18505 0.86347 0.08697 0.0
C57 C 0.20444 0.80936 0.02914 0.0
O58 O 0.22895 0.85308 0.01274 0.0
O59 O 0.20543 0.85004 0.97806 0.0
O60 O 0.19201 0.81867 0.03676 0.0
O61 O 0.2184 0.81628 0.03499 0.0
C62 C 0.22271 0.83738 0.14386 0.0
O63 O 0.18119 0.84884 0.07401 0.0
O64 O 0.20024 0.86713 0.08204 0.0
In65 In 0.39989 0.96311 0.31164 0.0
O66 O 0.39455 0.93584 0.33012 0.0
O67 O 0.3745 0.95319 0.33222 0.0
C68 C 0.43203 0.96036 0.28537 0.0
C69 C 0.40154 0.97744 0.40035 0.0
C70 C 0.38771 0.97616 0.22861 0.0
O71 O 0.42283 0.94771 0.29115 0.0
O72 O 0.42493 0.97422 0.29226 0.0
O73 O 0.3907 0.98492 0.26582 0.0
O74 O 0.39059 0.96076 0.23363 0.0
C75 C 0.37937 0.93844 0.3395 0.0
O76 O 0.39157 0.98253 0.36801 0.0
O77 O 0.4109 0.96566 0.38725 0.0
In78 In 0.29009 0.15412 0.56558 0.0
O79 O 0.31223 0.15517 0.61677 0.0
O80 O 0.31134 0.13523 0.56564 0.0
C81 C 0.29259 0.18592 0.53444 0.0
C82 C 0.27176 0.15142 0.64753 0.0
C83 C 0.27785 0.13877 0.4858 0.0
O84 O 0.3052 0.17736 0.54566 0.0
O85 O 0.27888 0.1784 0.53856 0.0
O86 O 0.26932 0.14078 0.52396 0.0
O87 O 0.29266 0.14395 0.48866 0.0
C88 C 0.31894 0.14206 0.60062 0.0
O89 O 0.27815 0.13887 0.62691 0.0
O90 O 0.27399 0.16505 0.6256 0.0
In91 In 0.09175 0.03733 0.80735 0.0
O92 O 0.09977 0.06403 0.82417 0.0
O93 O 0.11744 0.04444 0.83353 0.0
C94 C 0.05989 0.04099 0.77911 0.0
C95 C 0.08742 0.02292 0.89492 0.0
C96 C 0.1049 0.02484 0.72495 0.0
O97 O 0.0691 0.05343 0.78783 0.0
O98 O 0.06681 0.02699 0.78439 0.0
O99 O 0.10281 0.01612 0.76276 0.0
O100 O 0.10079 0.03999 0.72922 0.0
C101 C 0.11419 0.05978 0.83795 0.0
O102 O 0.09377 0.01513 0.85945 0.0
O103 O 0.08302 0.03767 0.88572 0.0
In104 In 0.78399 0.84046 0.05843 0.0
O105 O 0.76152 0.84174 0.10964 0.0
O106 O 0.78415 0.83152 0.13668 0.0
C107 C 0.77144 0.85396 0.97658 0.0
C108 C 0.80625 0.86306 0.08959 0.0
C109 C 0.78832 0.80877 0.02857 0.0
O110 O 0.76283 0.8519 0.01458 0.0
O111 O 0.78652 0.84963 0.98035 0.0
O112 O 0.80051 0.81815 0.0385 0.0
O113 O 0.7742 0.81544 0.0335 0.0
C114 C 0.76926 0.83549 0.14531 0.0
O115 O 0.81052 0.84858 0.07623 0.0
O116 O 0.79095 0.8663 0.08476 0.0
In117 In 0.90461 0.03811 0.80437 0.0
O118 O 0.90199 0.01564 0.85519 0.0
O119 O 0.91234 0.03801 0.88376 0.0
C120 C 0.89143 0.02574 0.72178 0.0
C121 C 0.88265 0.06122 0.83401 0.0
C122 C 0.93669 0.0417 0.77793 0.0
O123 O 0.89331 0.01705 0.75971 0.0
O124 O 0.89584 0.0408 0.72587 0.0
O125 O 0.92732 0.05412 0.78513 0.0
O126 O 0.92982 0.0277 0.78374 0.0
C127 C 0.90786 0.0232 0.89172 0.0
O128 O 0.89733 0.06498 0.82159 0.0
O129 O 0.87891 0.04603 0.8289 0.0
In130 In 0.70679 0.155 0.55873 0.0
O131 O 0.72294 0.14225 0.61637 0.0
O132 O 0.71876 0.16826 0.62328 0.0
C133 C 0.71979 0.14239 0.47632 0.0
C134 C 0.6812 0.13671 0.59254 0.0
C135 C 0.70107 0.18634 0.52809 0.0
O136 O 0.72852 0.14532 0.51361 0.0
O137 O 0.70445 0.14552 0.481 0.0
O138 O 0.68935 0.17686 0.54149 0.0
O139 O 0.7154 0.17992 0.52985 0.0
C140 C 0.72518 0.1553 0.64109 0.0
O141 O 0.68231 0.15219 0.60025 0.0
O142 O 0.69246 0.13076 0.56564 0.0
In143 In 0.58784 0.96006 0.31901 0.0
O144 O 0.59096 0.98218 0.37096 0.0
O145 O 0.58056 0.95968 0.39867 0.0
C146 C 0.60114 0.9722 0.23638 0.0
C147 C 0.60963 0.93652 0.34685 0.0
C148 C 0.55558 0.95769 0.2929 0.0
O149 O 0.59963 0.9809 0.27449 0.0
O150 O 0.59623 0.95729 0.2403 0.0
O151 O 0.56462 0.94492 0.29853 0.0
O152 O 0.56287 0.9714 0.30016 0.0
C153 C 0.58522 0.9744 0.4073 0.0
O154 O 0.59469 0.93306 0.33626 0.0
O155 O 0.61363 0.95162 0.34101 0.0
In156 In 0.78439 0.15377 0.06834 0.0
O157 O 0.81114 0.14878 0.04363 0.0
O158 O 0.7944 0.12829 0.04848 0.0
C159 C 0.78787 0.18544 0.09848 0.0
C160 C 0.76858 0.15628 0.98205 0.0
C161 C 0.77174 0.14128 0.15132 0.0
O162 O 0.80033 0.17628 0.0894 0.0
O163 O 0.77388 0.17853 0.09266 0.0
O164 O 0.76285 0.14437 0.11447 0.0
O165 O 0.7871 0.14415 0.1459 0.0
C166 C 0.80871 0.13338 0.03691 0.0
O167 O 0.76498 0.14513 0.01273 0.0
O168 O 0.77967 0.16637 0.99559 0.0
In169 In 0.59176 0.03731 0.83055 0.0
O170 O 0.59888 0.06445 0.81702 0.0
O171 O 0.61686 0.04558 0.80203 0.0
C172 C 0.55969 0.04044 0.8574 0.0
C173 C 0.58798 0.02299 0.7426 0.0
C174 C 0.6051 0.02468 0.91262 0.0
O175 O 0.56891 0.05297 0.85038 0.0
O176 O 0.56671 0.02652 0.8513 0.0
O177 O 0.60304 0.01605 0.87465 0.0
O178 O 0.60092 0.03981 0.90864 0.0
C179 C 0.61314 0.06088 0.80058 0.0
O180 O 0.5946 0.01535 0.77789 0.0
O181 O 0.58307 0.03757 0.7521 0.0
In182 In 0.70769 0.83986 0.56934 0.0
O183 O 0.7301 0.84136 0.51798 0.0
O184 O 0.7075 0.83108 0.4909 0.0
C185 C 0.72032 0.85344 0.65103 0.0
C186 C 0.68514 0.86225 0.53861 0.0
C187 C 0.70357 0.80811 0.59887 0.0
O188 O 0.72889 0.85137 0.61295 0.0
O189 O 0.70525 0.84906 0.64744 0.0
O190 O 0.69132 0.81751 0.58984 0.0
O191 O 0.71765 0.81478 0.59323 0.0
C192 C 0.72237 0.83515 0.48225 0.0
O193 O 0.68104 0.84773 0.55198 0.0
O194 O 0.70041 0.86563 0.54316 0.0
In195 In 0.90234 0.96047 0.31519 0.0
O196 O 0.89503 0.9336 0.29832 0.0
O197 O 0.87658 0.95254 0.29091 0.0
C198 C 0.93439 0.95714 0.34236 0.0
C199 C 0.90593 0.97526 0.2278 0.0
C200 C 0.88934 0.97287 0.39796 0.0
O201 O 0.92523 0.94463 0.33427 0.0
O202 O 0.92734 0.97107 0.33695 0.0
O203 O 0.89104 0.98153 0.35988 0.0
O204 O 0.89377 0.9578 0.39381 0.0
C205 C 0.88032 0.93733 0.28602 0.0
O206 O 0.89973 0.98282 0.26387 0.0
O207 O 0.91051 0.9605 0.23621 0.0
In208 In 0.70905 0.6537 0.57027 0.0
O209 O 0.683 0.64974 0.53841 0.0
O210 O 0.69749 0.62842 0.55633 0.0
C211 C 0.70462 0.6851 0.60176 0.0
C212 C 0.72611 0.65548 0.48575 0.0
C213 C 0.72194 0.64123 0.65286 0.0
O214 O 0.69244 0.67585 0.59052 0.0
O215 O 0.71878 0.67841 0.59743 0.0
O216 O 0.73075 0.64445 0.61595 0.0
O217 O 0.70655 0.64403 0.64775 0.0
C218 C 0.68422 0.63404 0.53818 0.0
O219 O 0.72733 0.6432 0.51419 0.0
O220 O 0.71677 0.66702 0.50065 0.0
In221 In 0.59066 0.45864 0.8225 0.0
O222 O 0.59302 0.48073 0.77008 0.0
O223 O 0.58224 0.45823 0.74372 0.0
C224 C 0.60424 0.47137 0.90417 0.0
C225 C 0.61228 0.43515 0.79322 0.0
C226 C 0.55862 0.45533 0.84964 0.0
O227 O 0.60236 0.47986 0.86585 0.0
O228 O 0.59969 0.45634 0.90082 0.0
O229 O 0.56781 0.44284 0.84152 0.0
O230 O 0.56565 0.46927 0.84444 0.0
C231 C 0.58676 0.47295 0.73449 0.0
O232 O 0.59805 0.4315 0.80977 0.0
O233 O 0.61582 0.45049 0.79407 0.0
In234 In 0.78541 0.34041 0.06794 0.0
O235 O 0.76573 0.34883 0.01289 0.0
O236 O 0.78104 0.32814 0.99453 0.0
C237 C 0.7728 0.35277 0.15113 0.0
C238 C 0.80943 0.36115 0.03669 0.0
C239 C 0.78894 0.30868 0.09748 0.0
O240 O 0.76389 0.34974 0.11428 0.0
O241 O 0.78815 0.34986 0.14565 0.0
O242 O 0.80139 0.31795 0.08931 0.0
O243 O 0.77494 0.31552 0.09105 0.0
C244 C 0.76965 0.33798 0.98159 0.0
O245 O 0.81207 0.34576 0.04297 0.0
O246 O 0.79508 0.36603 0.0486 0.0
In247 In 0.90563 0.5368 0.32122 0.0
O248 O 0.90243 0.51435 0.27049 0.0
O249 O 0.91317 0.53651 0.24172 0.0
C250 C 0.89251 0.52508 0.40464 0.0
C251 C 0.88386 0.56019 0.29245 0.0
C252 C 0.9378 0.53978 0.34735 0.0
O253 O 0.89408 0.51613 0.36706 0.0
O254 O 0.89724 0.54001 0.39974 0.0
O255 O 0.92865 0.55238 0.34018 0.0
O256 O 0.93067 0.52591 0.34153 0.0
C257 C 0.90837 0.52179 0.23385 0.0
O258 O 0.89874 0.56372 0.30331 0.0
O259 O 0.87988 0.54509 0.29841 0.0
In260 In 0.70774 0.3404 0.55841 0.0
O261 O 0.68315 0.34334 0.59934 0.0
O262 O 0.69345 0.3647 0.56474 0.0
C263 C 0.70194 0.30913 0.52729 0.0
C264 C 0.72611 0.33993 0.64085 0.0
C265 C 0.72083 0.35301 0.47616 0.0
O266 O 0.69031 0.31845 0.54224 0.0
O267 O 0.71623 0.31567 0.52783 0.0
O268 O 0.72952 0.35009 0.51354 0.0
O269 O 0.70549 0.3499 0.48072 0.0
C270 C 0.68209 0.35881 0.59137 0.0
O271 O 0.72371 0.35306 0.61665 0.0
O272 O 0.71984 0.32699 0.6225 0.0
In273 In 0.90373 0.45924 0.80962 0.0
O274 O 0.897 0.43211 0.8252 0.0
O275 O 0.87807 0.45056 0.83223 0.0
C276 C 0.93592 0.45643 0.78366 0.0
C277 C 0.90691 0.47381 0.89754 0.0
C278 C 0.89058 0.4719 0.72739 0.0
O279 O 0.92677 0.4438 0.78998 0.0
O280 O 0.92879 0.47027 0.79023 0.0
O281 O 0.89076 0.47986 0.76704 0.0
O282 O 0.89662 0.45736 0.7296 0.0
C283 C 0.88215 0.43543 0.8369 0.0
O284 O 0.90158 0.48167 0.86086 0.0
O285 O 0.91085 0.45884 0.88951 0.0
In286 In 0.78633 0.65426 0.06023 0.0
O287 O 0.8129 0.64997 0.08773 0.0
O288 O 0.79692 0.62901 0.07984 0.0
C289 C 0.79025 0.68575 0.02906 0.0
C290 C 0.76972 0.65665 0.14529 0.0
C291 C 0.77373 0.64146 0.97761 0.0
O292 O 0.80258 0.67654 0.03911 0.0
O293 O 0.77617 0.67897 0.03439 0.0
O294 O 0.76481 0.64483 0.01417 0.0
O295 O 0.7891 0.64425 0.98308 0.0
C296 C 0.81089 0.63446 0.09331 0.0
O297 O 0.76741 0.64477 0.11595 0.0
O298 O 0.77994 0.66751 0.13105 0.0
In299 In 0.5901 0.53565 0.31073 0.0
O300 O 0.59726 0.56275 0.32518 0.0
O301 O 0.61553 0.54386 0.33663 0.0
C302 C 0.55814 0.53874 0.28257 0.0
C303 C 0.58634 0.52136 0.39886 0.0
C304 C 0.60373 0.52303 0.22905 0.0
O305 O 0.56719 0.5513 0.29098 0.0
O306 O 0.56524 0.52485 0.28819 0.0
O307 O 0.60195 0.51452 0.26738 0.0
O308 O 0.59902 0.53803 0.23237 0.0
C309 C 0.61179 0.55913 0.33938 0.0
O310 O 0.59249 0.51355 0.36315 0.0
O311 O 0.58185 0.53609 0.38968 0.0
In312 In 0.28547 0.34101 0.55709 0.0
O313 O 0.26326 0.34351 0.609 0.0
O314 O 0.28543 0.33202 0.63512 0.0
C315 C 0.27359 0.3542 0.47403 0.0
C316 C 0.30825 0.36303 0.58813 0.0
C317 C 0.28914 0.30909 0.52888 0.0
O318 O 0.26459 0.35212 0.51125 0.0
O319 O 0.28867 0.35007 0.4793 0.0
O320 O 0.30151 0.3184 0.53732 0.0
O321 O 0.27513 0.31595 0.53438 0.0
C322 C 0.27082 0.3368 0.64433 0.0
O323 O 0.31216 0.34845 0.57484 0.0
O324 O 0.29304 0.36667 0.58324 0.0
In325 In 0.4031 0.53579 0.30683 0.0
O326 O 0.40123 0.51335 0.35805 0.0
O327 O 0.41144 0.53597 0.38553 0.0
C328 C 0.38961 0.52334 0.22494 0.0
C329 C 0.38095 0.55852 0.33761 0.0
C330 C 0.43498 0.53938 0.27864 0.0
O331 O 0.3914 0.51475 0.26312 0.0
O332 O 0.39428 0.53834 0.22847 0.0
O333 O 0.42563 0.55182 0.28593 0.0
O334 O 0.42817 0.52539 0.2851 0.0
C335 C 0.40728 0.52109 0.39401 0.0
O336 O 0.39561 0.56247 0.3255 0.0
O337 O 0.37731 0.54334 0.33158 0.0
In338 In 0.20965 0.65421 0.06268 0.0
O339 O 0.18296 0.64646 0.07998 0.0
O340 O 0.20227 0.62843 0.08825 0.0
C341 C 0.20597 0.68602 0.03334 0.0
C342 C 0.22392 0.65867 0.15038 0.0
C343 C 0.22228 0.6406 0.98111 0.0
O344 O 0.19358 0.67675 0.04178 0.0
O345 O 0.21996 0.67919 0.03944 0.0
O346 O 0.23084 0.64265 0.01923 0.0
O347 O 0.20723 0.64504 0.98461 0.0
C348 C 0.18703 0.63189 0.0931 0.0
O349 O 0.2318 0.65244 0.11492 0.0
O350 O 0.20915 0.66291 0.14111 0.0
In351 In 0.09118 0.45759 0.81311 0.0
O352 O 0.0938 0.47969 0.86533 0.0
O353 O 0.08268 0.45735 0.89172 0.0
C354 C 0.10491 0.47005 0.73144 0.0
C355 C 0.1126 0.43409 0.84354 0.0
C356 C 0.05921 0.45481 0.78496 0.0
O357 O 0.10316 0.47859 0.76973 0.0
O358 O 0.10012 0.45508 0.73479 0.0
O359 O 0.06835 0.44216 0.79138 0.0
O360 O 0.06627 0.46862 0.79234 0.0
C361 C 0.0874 0.47201 0.9009 0.0
O362 O 0.09795 0.43057 0.83018 0.0
O363 O 0.11661 0.44924 0.83885 0.0
In364 In 0.28593 0.65355 0.57404 0.0
O365 O 0.26381 0.65165 0.52168 0.0
O366 O 0.2864 0.66229 0.4957 0.0
C367 C 0.27345 0.63999 0.65584 0.0
C368 C 0.30874 0.63141 0.54369 0.0
C369 C 0.28932 0.68546 0.60268 0.0
O370 O 0.26487 0.64184 0.61767 0.0
O371 O 0.28846 0.64458 0.65226 0.0
O372 O 0.30179 0.67632 0.59397 0.0
O373 O 0.27539 0.67843 0.59733 0.0
C374 C 0.27166 0.65798 0.48632 0.0
O375 O 0.3127 0.64593 0.55746 0.0
O376 O 0.29349 0.62788 0.54793 0.0
In377 In 0.09303 0.53438 0.32446 0.0
O378 O 0.10064 0.56118 0.30793 0.0
O379 O 0.11882 0.542 0.29978 0.0
C380 C 0.06108 0.5379 0.35207 0.0
C381 C 0.08891 0.52018 0.23648 0.0
C382 C 0.10621 0.52165 0.40649 0.0
O383 O 0.07037 0.55036 0.34455 0.0
O384 O 0.06797 0.52392 0.3461 0.0
O385 O 0.10451 0.51315 0.36807 0.0
O386 O 0.10167 0.5367 0.40306 0.0
C387 C 0.11526 0.55726 0.29513 0.0
O388 O 0.09497 0.51224 0.27206 0.0
O389 O 0.08473 0.535 0.24573 0.0
In390 In 0.20873 0.33731 0.0687 0.0
O391 O 0.18176 0.34415 0.05128 0.0
O392 O 0.20015 0.3633 0.04932 0.0
C393 C 0.20691 0.30506 0.09548 0.0
C394 C 0.22268 0.33445 0.97997 0.0
C395 C 0.22125 0.35075 0.15054 0.0
O396 O 0.19399 0.31388 0.08982 0.0
O397 O 0.22046 0.31255 0.08776 0.0
O398 O 0.22923 0.35053 0.1109 0.0
O399 O 0.20682 0.34449 0.14857 0.0
C400 C 0.18515 0.35925 0.04239 0.0
O401 O 0.23078 0.33968 0.01633 0.0
O402 O 0.20781 0.33042 0.98877 0.0
In403 In 0.40358 0.45965 0.81844 0.0
O404 O 0.39613 0.4329 0.80043 0.0
O405 O 0.37778 0.452 0.79421 0.0
C406 C 0.43543 0.45628 0.84725 0.0
C407 C 0.40767 0.47424 0.73106 0.0
C408 C 0.38997 0.4721 0.90013 0.0
O409 O 0.42626 0.44377 0.83905 0.0
O410 O 0.42847 0.47022 0.84121 0.0
O411 O 0.39174 0.48068 0.86191 0.0
O412 O 0.39471 0.45711 0.89673 0.0
C413 C 0.38142 0.4368 0.78855 0.0
O414 O 0.40163 0.48201 0.767 0.0
O415 O 0.41187 0.45939 0.73963 0.0
H416 H 0.10908 0.09264 0.86165 0.0
H417 H 0.19061 0.09615 0.0289 0.0
H418 H 0.14481 0.05263 0.87476 0.0
H419 H 0.15936 0.1391 0.00315 0.0
H420 H 0.17255 0.0796 0.97652 0.0
H421 H 0.12657 0.10988 0.91482 0.0
C422 C 0.1207 0.08758 0.87515 0.0
C423 C 0.12552 0.0712 0.86386 0.0
C424 C 0.16956 0.09262 0.98243 0.0
C425 C 0.14534 0.09063 0.92522 0.0
C426 C 0.17981 0.10205 0.01265 0.0
C427 C 0.17648 0.11902 0.02024 0.0
C428 C 0.15588 0.10021 0.95951 0.0
C429 C 0.16233 0.12603 -0.00175 0.0
C430 C 0.13061 0.09737 0.90572 0.0
C431 C 0.14063 0.06519 0.88254 0.0
N432 N 0.15257 0.1166 0.96859 0.0
N433 N 0.14993 0.07487 0.91251 0.0
H434 H 0.14411 0.94292 0.26084 0.0
H435 H 0.1528 0.8571 0.11368 0.0
H436 H 0.1057 0.90525 0.25792 0.0
H437 H 0.19089 0.89507 0.11918 0.0
H438 H 0.13502 0.87461 0.16512 0.0
H439 H 0.16156 0.92516 0.20992 0.0
C440 C 0.13943 0.9308 0.24994 0.0
C441 C 0.12345 0.92554 0.26356 0.0
C442 C 0.14723 0.87914 0.15481 0.0
C443 C 0.14323 0.90523 0.20455 0.0
C444 C 0.15732 0.86922 0.12517 0.0
C445 C 0.17332 0.87466 0.11221 0.0
C446 C 0.15324 0.89458 0.17155 0.0
C447 C 0.17863 0.89039 0.12833 0.0
C448 C 0.14936 0.9207 0.2206 0.0
C449 C 0.11798 0.90975 0.24831 0.0
N450 N 0.16864 0.89976 0.15732 0.0
N451 N 0.12784 0.90017 0.21933 0.0
H452 H 0.38774 0.90707 0.37105 0.0
H453 H 0.30081 0.89492 0.50917 0.0
H454 H 0.34675 0.94188 0.36424 0.0
H455 H 0.33934 0.85732 0.5081 0.0
H456 H 0.31829 0.9127 0.45863 0.0
H457 H 0.3706 0.88853 0.42134 0.0
C458 C 0.37507 0.91069 0.37955 0.0
C459 C 0.36864 0.92603 0.36359 0.0
C460 C 0.32299 0.9006 0.46956 0.0
C461 C 0.34915 0.90511 0.42159 0.0
C462 C 0.31305 0.89048 0.49873 0.0
C463 C 0.31864 0.87463 0.51277 0.0
C464 C 0.33866 0.89483 0.4542 0.0
C465 C 0.33459 0.8695 0.49811 0.0
C466 C 0.36534 0.90017 0.4085 0.0
C467 C 0.3522 0.93017 0.37585 0.0
N468 N 0.34404 0.87956 0.46937 0.0
N469 N 0.34307 0.91983 0.40434 0.0
H470 H 0.37047 0.08994 0.82156 0.0
H471 H 0.3394 0.11769 0.56496 0.0
H472 H 0.39831 0.07761 0.69206 0.0
H473 H 0.33087 0.14848 0.69146 0.0
H474 H 0.36068 0.10227 0.61043 0.0
H475 H 0.35523 0.11115 0.77517 0.0
C476 C 0.37352 0.09188 0.78357 0.0
C477 C 0.38555 0.082 0.76044 0.0
C478 C 0.35434 0.1126 0.62788 0.0
C479 C 0.36805 0.10586 0.70722 0.0
C480 C 0.34219 0.12134 0.60205 0.0
C481 C 0.33335 0.13427 0.62468 0.0
C482 C 0.3573 0.11658 0.67691 0.0
C483 C 0.33743 0.13856 0.67275 0.0
C484 C 0.36488 0.10398 0.7572 0.0
C485 C 0.3891 0.08499 0.71119 0.0
N486 N 0.34891 0.12952 0.69765 0.0
N487 N 0.38015 0.09646 0.6859 0.0
H488 H 0.79973 0.8947 0.12041 0.0
H489 H 0.88681 0.90505 0.25931 0.0
H490 H 0.83854 0.85742 0.11725 0.0
H491 H 0.84841 0.94276 0.2562 0.0
H492 H 0.86906 0.88691 0.20976 0.0
H493 H 0.81752 0.9124 0.17049 0.0
C494 C 0.81209 0.89032 0.12983 0.0
C495 C 0.81769 0.87459 0.11466 0.0
C496 C 0.86449 0.89912 0.22017 0.0
C497 C 0.83805 0.89468 0.17265 0.0
C498 C 0.87456 0.90942 0.24873 0.0
C499 C 0.86906 0.92542 0.26179 0.0
C500 C 0.84884 0.9049 0.20465 0.0
C501 C 0.85314 0.93051 0.2469 0.0
C502 C 0.82221 0.9004 0.15867 0.0
C503 C 0.83378 0.8695 0.12807 0.0
N504 N 0.84363 0.92031 0.21896 0.0
N505 N 0.84338 0.8795 0.15656 0.0
H506 H 0.88876 0.09379 0.8589 0.0
H507 H 0.80552 0.10025 0.01789 0.0
H508 H 0.85134 0.05522 0.86758 0.0
H509 H 0.83882 0.14192 0.99678 0.0
H510 H 0.8234 0.08316 0.96653 0.0
H511 H 0.87131 0.11164 0.91048 0.0
C512 C 0.87678 0.08918 0.8711 0.0
C513 C 0.87147 0.07301 0.85905 0.0
C514 C 0.82688 0.09602 0.97321 0.0
C515 C 0.85168 0.09315 0.91855 0.0
C516 C 0.81673 0.10575 0.00286 0.0
C517 C 0.8207 0.12253 0.01149 0.0
C518 C 0.84113 0.10309 0.95195 0.0
C519 C 0.83535 0.12901 0.99104 0.0
C520 C 0.86689 0.09931 0.90075 0.0
C521 C 0.85592 0.06759 0.87601 0.0
N522 N 0.84503 0.11928 0.96195 0.0
N523 N 0.84663 0.0776 0.90512 0.0
H524 H 0.67892 0.10287 0.5883 0.0
H525 H 0.60804 0.09455 0.79044 0.0
H526 H 0.65692 0.14597 0.65737 0.0
H527 H 0.64173 0.05483 0.75053 0.0
H528 H 0.62369 0.11361 0.73754 0.0
H529 H 0.66232 0.08484 0.64071 0.0
C530 C 0.67042 0.10855 0.61407 0.0
C531 C 0.66934 0.12593 0.61869 0.0
C532 C 0.6277 0.10075 0.74078 0.0
C533 C 0.65047 0.10536 0.67927 0.0
C534 C 0.61885 0.08991 0.77108 0.0
C535 C 0.62362 0.07311 0.77482 0.0
C536 C 0.64123 0.09463 0.71371 0.0
C537 C 0.63764 0.0677 0.74879 0.0
C538 C 0.66106 0.09824 0.6443 0.0
C539 C 0.65812 0.13261 0.65274 0.0
N540 N 0.64586 0.07839 0.71904 0.0
N541 N 0.64913 0.12229 0.68198 0.0
H542 H 0.60289 0.90452 0.37596 0.0
H543 H 0.6914 0.89381 0.50677 0.0
H544 H 0.64202 0.94143 0.37237 0.0
H545 H 0.65266 0.85652 0.51298 0.0
H546 H 0.67321 0.91142 0.4577 0.0
H547 H 0.621 0.8863 0.42421 0.0
C548 C 0.61536 0.90868 0.38478 0.0
C549 C 0.62098 0.92449 0.37025 0.0
C550 C 0.66862 0.89943 0.46994 0.0
C551 C 0.64162 0.9039 0.42589 0.0
C552 C 0.67898 0.88941 0.49821 0.0
C553 C 0.67351 0.8737 0.51397 0.0
C554 C 0.65268 0.89369 0.45715 0.0
C555 C 0.65733 0.86858 0.50167 0.0
C556 C 0.62565 0.89834 0.41259 0.0
C557 C 0.6372 0.92934 0.38288 0.0
N558 N 0.64748 0.87854 0.47376 0.0
N559 N 0.64691 0.91911 0.41015 0.0
H560 H 0.68544 0.60025 0.53051 0.0
H561 H 0.60602 0.59236 0.35671 0.0
H562 H 0.65613 0.64295 0.48747 0.0
H563 H 0.64232 0.55333 0.37874 0.0
H564 H 0.62302 0.61106 0.40703 0.0
H565 H 0.6679 0.58251 0.48011 0.0
C566 C 0.67517 0.60587 0.51083 0.0
C567 C 0.67225 0.6231 0.51302 0.0
C568 C 0.62729 0.59844 0.40046 0.0
C569 C 0.65222 0.60286 0.45462 0.0
C570 C 0.61766 0.58781 0.37159 0.0
C571 C 0.62278 0.57128 0.36366 0.0
C572 C 0.64202 0.5924 0.42173 0.0
C573 C 0.6379 0.56597 0.38394 0.0
C574 C 0.66523 0.59574 0.48174 0.0
C575 C 0.65878 0.6297 0.48675 0.0
N576 N 0.64692 0.57646 0.4123 0.0
N577 N 0.64926 0.61956 0.45839 0.0
H578 H 0.60761 0.40136 0.78444 0.0
H579 H 0.67972 0.39262 0.58605 0.0
H580 H 0.64095 0.44125 0.74368 0.0
H581 H 0.65754 0.34971 0.65553 0.0
H582 H 0.6627 0.41079 0.63691 0.0
H583 H 0.62375 0.38217 0.73316 0.0
C584 C 0.61843 0.40602 0.76521 0.0
C585 C 0.62297 0.4229 0.76824 0.0
C586 C 0.66149 0.3974 0.64093 0.0
C587 C 0.64115 0.40122 0.70901 0.0
C588 C 0.6711 0.38702 0.61161 0.0
C589 C 0.67008 0.36965 0.61677 0.0
C590 C 0.65071 0.39038 0.67557 0.0
C591 C 0.6587 0.36306 0.65049 0.0
C592 C 0.62757 0.3951 0.73585 0.0
C593 C 0.63703 0.42833 0.74245 0.0
N594 N 0.64947 0.37346 0.67885 0.0
N595 N 0.64553 0.41755 0.71362 0.0
H596 H 0.88893 0.4029 0.86074 0.0
H597 H 0.80575 0.39429 0.01883 0.0
H598 H 0.85054 0.44052 0.86929 0.0
H599 H 0.8396 0.35317 0.99578 0.0
H600 H 0.8233 0.41183 0.96785 0.0
H601 H 0.87176 0.38447 0.91127 0.0
C602 C 0.8768 0.40718 0.87266 0.0
C603 C 0.87114 0.42326 0.86094 0.0
C604 C 0.82696 0.39899 0.974 0.0
C605 C 0.85165 0.40245 0.91927 0.0
C606 C 0.817 0.389 0.00344 0.0
C607 C 0.82123 0.37225 0.01143 0.0
C608 C 0.84129 0.39221 0.95232 0.0
C609 C 0.83593 0.36605 0.99054 0.0
C610 C 0.86706 0.39671 0.90171 0.0
C611 C 0.85539 0.42823 0.8775 0.0
N612 N 0.84543 0.37603 0.96169 0.0
N613 N 0.84626 0.41791 0.90608 0.0
H614 H 0.84095 0.64334 0.1333 0.0
H615 H 0.85185 0.55484 0.26408 0.0
H616 H 0.80782 0.60144 0.11374 0.0
H617 H 0.89033 0.59246 0.26514 0.0
H618 H 0.83452 0.57316 0.21474 0.0
H619 H 0.85878 0.62586 0.18497 0.0
C620 C 0.83755 0.63042 0.13939 0.0
C621 C 0.82291 0.6238 0.11927 0.0
C622 C 0.84672 0.57747 0.22587 0.0
C623 C 0.84297 0.60395 0.17877 0.0
C624 C 0.85658 0.56706 0.25437 0.0
C625 C 0.87256 0.57213 0.26852 0.0
C626 C 0.85288 0.5931 0.21137 0.0
C627 C 0.87806 0.58809 0.25492 0.0
C628 C 0.84766 0.6205 0.16905 0.0
C629 C 0.819 0.60705 0.1285 0.0
N630 N 0.86824 0.59802 0.22682 0.0
N631 N 0.82891 0.59774 0.15779 0.0
H632 H 0.34054 0.3567 0.61438 0.0
H633 H 0.34929 0.44247 0.76158 0.0
H634 H 0.30233 0.39455 0.62094 0.0
H635 H 0.38784 0.40493 0.75778 0.0
H636 H 0.33178 0.42466 0.7111 0.0
H637 H 0.35837 0.3742 0.66563 0.0
C638 C 0.336 0.36878 0.62609 0.0
C639 C 0.31996 0.37421 0.61346 0.0
C640 C 0.34402 0.42024 0.72148 0.0
C641 C 0.34011 0.39412 0.67254 0.0
C642 C 0.35399 0.43037 0.75056 0.0
C643 C 0.37003 0.42516 0.76381 0.0
C644 C 0.35016 0.40479 0.70531 0.0
C645 C 0.37552 0.40939 0.74845 0.0
C646 C 0.34612 0.3787 0.65561 0.0
C647 C 0.31462 0.38989 0.62983 0.0
N648 N 0.36562 0.39977 0.71971 0.0
N649 N 0.32465 0.39926 0.65868 0.0
H650 H 0.34102 0.63772 0.5172 0.0
H651 H 0.34895 0.55271 0.36576 0.0
H652 H 0.30273 0.59998 0.51046 0.0
H653 H 0.38751 0.59024 0.36938 0.0
H654 H 0.33175 0.57024 0.41802 0.0
H655 H 0.35863 0.6204 0.46472 0.0
C656 C 0.33642 0.62569 0.50524 0.0
C657 C 0.32041 0.62026 0.51811 0.0
C658 C 0.34392 0.57472 0.40721 0.0
C659 C 0.34029 0.60057 0.45759 0.0
C660 C 0.35371 0.56476 0.3771 0.0
C661 C 0.36967 0.57005 0.36329 0.0
C662 C 0.35016 0.59008 0.42383 0.0
C663 C 0.37524 0.58573 0.37912 0.0
C664 C 0.34641 0.61588 0.475 0.0
C665 C 0.315 0.60464 0.50138 0.0
N666 N 0.36552 0.59517 0.40885 0.0
N667 N 0.32489 0.59538 0.47182 0.0
H668 H 0.14713 0.55156 0.26548 0.0
H669 H 0.15481 0.63796 0.12086 0.0
H670 H 0.10878 0.58934 0.26652 0.0
H671 H 0.19322 0.60026 0.12444 0.0
H672 H 0.13736 0.62021 0.17249 0.0
H673 H 0.16427 0.56956 0.21441 0.0
C674 C 0.1424 0.56375 0.25543 0.0
C675 C 0.12652 0.56898 0.2702 0.0
C676 C 0.14957 0.61579 0.16172 0.0
C677 C 0.14595 0.58956 0.21102 0.0
C678 C 0.15947 0.62586 0.13197 0.0
C679 C 0.17547 0.62056 0.11842 0.0
C680 C 0.15575 0.60036 0.17795 0.0
C681 C 0.18096 0.60483 0.13406 0.0
C682 C 0.15215 0.57399 0.22601 0.0
C683 C 0.12099 0.58487 0.256 0.0
N684 N 0.17114 0.59532 0.16314 0.0
N685 N 0.13067 0.59458 0.22691 0.0
H686 H 0.10573 0.40168 0.8683 0.0
H687 H 0.18975 0.39218 0.02275 0.0
H688 H 0.14389 0.43947 0.87825 0.0
H689 H 0.15392 0.35237 0.0072 0.0
H690 H 0.17206 0.4101 0.97324 0.0
H691 H 0.12268 0.3834 0.91993 0.0
C692 C 0.11776 0.40603 0.88082 0.0
C693 C 0.12344 0.42209 0.869 0.0
C694 C 0.16797 0.39748 0.98082 0.0
C695 C 0.14269 0.40145 0.92858 0.0
C696 C 0.17803 0.38728 0.00939 0.0
C697 C 0.1733 0.37076 0.01895 0.0
C698 C 0.15308 0.39113 0.96145 0.0
C699 C 0.158 0.36506 0.00072 0.0
C700 C 0.12737 0.39566 0.91054 0.0
C701 C 0.13905 0.42718 0.88644 0.0
N702 N 0.14845 0.37521 0.9725 0.0
N703 N 0.14808 0.41692 0.91551 0.0
H704 H 0.24874 0.12672 0.94697 0.0
H705 H 0.25512 0.17623 0.69467 0.0
H706 H 0.22566 0.17451 0.92046 0.0
H707 H 0.27114 0.12514 0.71139 0.0
H708 H 0.24499 0.176 0.77837 0.0
H709 H 0.25839 0.12627 0.86222 0.0
C710 C 0.24584 0.13717 0.92343 0.0
C711 C 0.23642 0.15068 0.94067 0.0
C712 C 0.2506 0.16478 0.76372 0.0
C713 C 0.24725 0.1502 0.84395 0.0
C714 C 0.25634 0.16489 0.71586 0.0
C715 C 0.26395 0.15067 0.69609 0.0
C716 C 0.25261 0.15038 0.79229 0.0
C717 C 0.26527 0.13634 0.72522 0.0
C718 C 0.25124 0.13685 0.87505 0.0
C719 C 0.23289 0.16384 0.90864 0.0
N720 N 0.25975 0.13659 0.77205 0.0
N721 N 0.23831 0.16327 0.86188 0.0
H722 H 0.08029 0.95792 0.14531 0.0
H723 H 0.08072 0.03942 0.97931 0.0
H724 H 0.08986 0.0071 0.20294 0.0
H725 H 0.09105 0.99027 0.92252 0.0
H726 H 0.07958 0.02773 0.06147 0.0
H727 H 0.07974 0.96963 0.06316 0.0
C728 C 0.08217 0.97121 0.14067 0.0
C729 C 0.08515 0.98158 0.18089 0.0
C730 C 0.08206 0.01952 0.031 0.0
C731 C 0.08446 0.99501 0.08718 0.0
C732 C 0.08264 0.02614 0.98413 0.0
C733 C 0.086 0.01577 0.94416 0.0
C734 C 0.08464 0.00237 0.03784 0.0
C735 C 0.08846 -0.00132 0.95243 0.0
C736 C 0.08193 0.97785 0.0938 0.0
C737 C 0.08757 -0.00131 0.17284 0.0
N738 N 0.08768 0.99248 -0.00157 0.0
N739 N 0.08712 0.0049 0.12681 0.0
H740 H 0.25544 0.84107 0.1698 0.0
H741 H 0.23727 0.83972 0.45463 0.0
H742 H 0.2067 0.83087 0.22912 0.0
H743 H 0.2862 0.83082 0.3948 0.0
H744 H 0.22571 0.83898 0.37206 0.0
H745 H 0.26705 0.83984 0.2523 0.0
C746 C 0.24722 0.83851 0.20017 0.0
C747 C 0.23012 0.83605 0.19277 0.0
C748 C 0.23896 0.83709 0.37712 0.0
C749 C 0.2432 0.83482 0.28684 0.0
C750 C 0.24555 0.83754 0.42413 0.0
C751 C 0.26268 0.83531 0.43142 0.0
C752 C 0.24965 0.83465 0.33724 0.0
C753 C 0.27289 0.83254 0.39072 0.0
C754 C 0.25383 0.83777 0.24712 0.0
C755 C 0.21998 0.83278 0.23328 0.0
N756 N 0.26624 0.83242 0.34528 0.0
N757 N 0.22665 0.83239 0.27867 0.0
H758 H 0.3746 0.02052 0.67886 0.0
H759 H 0.42381 0.9703 0.47208 0.0
H760 H 0.42433 0.001 0.69701 0.0
H761 H 0.37916 -0.00132 0.44347 0.0
H762 H 0.42287 0.97936 0.55683 0.0
H763 H 0.37443 0.00998 0.59508 0.0
C764 C 0.38538 0.0138 0.66543 0.0
C765 C 0.39951 0.01164 0.6948 0.0
C766 C 0.4133 0.98366 0.53204 0.0
C767 C 0.39947 -0.00026 0.59917 0.0
C768 C 0.41385 0.97853 0.48362 0.0
C769 C 0.40158 0.98382 0.45072 0.0
C770 C 0.40031 0.99407 0.54787 0.0
C771 C 0.38892 0.99441 0.46766 0.0
C772 C 0.38533 0.00792 0.61755 0.0
C773 C 0.41319 0.00297 0.67554 0.0
N774 N 0.38857 -0.00084 0.5152 0.0
N775 N 0.41284 0.99737 0.62891 0.0
H776 H 0.73649 0.83854 0.1716 0.0
H777 H 0.75511 0.83835 0.45595 0.0
H778 H 0.78543 0.82888 0.23026 0.0
H779 H 0.70619 0.82864 0.39722 0.0
H780 H 0.76657 0.83711 0.37329 0.0
H781 H 0.72502 0.83713 0.25423 0.0
C782 C 0.74479 0.83605 0.20185 0.0
C783 C 0.76191 0.83383 0.19423 0.0
C784 C 0.75335 0.83514 0.37862 0.0
C785 C 0.74898 0.83242 0.28848 0.0
C786 C 0.74682 0.83588 0.42568 0.0
C787 C 0.72971 0.8336 0.43329 0.0
C788 C 0.74263 0.83237 0.339 0.0
C789 C 0.71948 0.83043 0.39288 0.0
C790 C 0.73825 0.83521 0.24889 0.0
C791 C 0.77214 0.83063 0.2346 0.0
N792 N 0.72608 0.83006 0.34738 0.0
N793 N 0.76554 0.83016 0.28008 0.0
H794 H 0.90396 0.99038 0.91692 0.0
H795 H 0.90207 0.00805 0.20212 0.0
H796 H 0.91329 0.03915 0.97781 0.0
H797 H 0.91235 0.95931 0.14231 0.0
H798 H 0.90333 0.01978 0.11974 0.0
H799 H 0.90422 0.97864 -0.00064 0.0
C800 C 0.90612 -0.00142 0.94763 0.0
C801 C 0.90863 0.01572 0.94067 0.0
C802 C 0.90539 0.00653 0.12478 0.0
C803 C 0.90874 0.0025 0.03468 0.0
C804 C 0.90463 -0.00015 0.17166 0.0
C805 C 0.90714 0.98271 0.1789 0.0
C806 C 0.9084 0.99594 0.08497 0.0
C807 C 0.91041 0.97261 0.13827 0.0
C808 C 0.9063 0.9919 0.99455 0.0
C809 C 0.91137 0.02584 0.98163 0.0
N810 N 0.91083 0.97935 0.09296 0.0
N811 N 0.91122 0.01909 0.02696 0.0
H812 H 0.77045 0.18165 0.91625 0.0
H813 H 0.73265 0.12828 0.69758 0.0
H814 H 0.75104 0.13185 0.93517 0.0
H815 H 0.73525 0.18207 0.69497 0.0
H816 H 0.74303 0.12858 0.78141 0.0
H817 H 0.76064 0.18141 0.83194 0.0
C818 C 0.76401 0.17071 0.9027 0.0
C819 C 0.76148 0.15676 0.93263 0.0
C820 C 0.74139 0.1403 0.76236 0.0
C821 C 0.75053 0.15629 0.83623 0.0
C822 C 0.73561 0.14013 0.71447 0.0
C823 C 0.7331 0.15518 0.68946 0.0
C824 C 0.74486 0.15561 0.78506 0.0
C825 C 0.737 0.1702 0.71308 0.0
C826 C 0.75845 0.17057 0.85464 0.0
C827 C 0.75313 0.14289 0.91331 0.0
N828 N 0.74271 0.17004 0.75961 0.0
N829 N 0.74805 0.14295 0.86611 0.0
H830 H 0.5809 0.03941 0.65834 0.0
H831 H 0.58012 0.95788 0.49258 0.0
H832 H 0.59216 0.99043 0.7148 0.0
H833 H 0.58917 0.00707 0.43431 0.0
H834 H 0.58021 0.96961 0.57478 0.0
H835 H 0.57961 0.02768 0.57622 0.0
C836 C 0.58301 0.02616 0.65345 0.0
C837 C 0.58666 0.01585 0.69332 0.0
C838 C 0.58216 0.97783 0.54398 0.0
C839 C 0.58511 0.0024 0.5997 0.0
C840 C 0.58203 0.97118 0.4971 0.0
C841 C 0.58466 0.98155 0.45669 0.0
C842 C 0.58469 0.995 0.55041 0.0
C843 C 0.58714 -0.00134 0.46457 0.0
C844 C 0.58235 0.01952 0.6066 0.0
C845 C 0.58936 -0.0012 0.68496 0.0
N846 N 0.58703 0.00488 0.51061 0.0
N847 N 0.58846 0.99257 0.639 0.0
H848 H 0.73893 0.62925 0.4346 0.0
H849 H 0.76759 0.6833 0.20671 0.0
H850 H 0.73021 0.68231 0.42592 0.0
H851 H 0.75543 0.63098 0.19543 0.0
H852 H 0.75739 0.68323 0.29075 0.0
H853 H 0.74916 0.62965 0.35055 0.0
C854 C 0.73936 0.641 0.41516 0.0
C855 C 0.73374 0.65577 0.43704 0.0
C856 C 0.75686 0.67181 0.26971 0.0
C857 C 0.74533 0.65631 0.34134 0.0
C858 C 0.76266 0.67184 0.22187 0.0
C859 C 0.76228 0.65713 0.19422 0.0
C860 C 0.75098 0.6569 0.29022 0.0
C861 C 0.75582 0.6426 0.21551 0.0
C862 C 0.74504 0.6412 0.36718 0.0
C863 C 0.73441 0.67065 0.41023 0.0
N864 N 0.75055 0.64281 0.2625 0.0
N865 N 0.74016 0.67056 0.36373 0.0
H866 H 0.58022 0.53791 0.4836 0.0
H867 H 0.58033 0.45644 0.64989 0.0
H868 H 0.59004 0.48872 0.42641 0.0
H869 H 0.59049 0.50559 0.70688 0.0
H870 H 0.57942 0.46813 0.56769 0.0
H871 H 0.57952 0.52624 0.56584 0.0
C872 C 0.58212 0.52463 0.48835 0.0
C873 C 0.58521 0.51424 0.44823 0.0
C874 C 0.58182 0.47634 0.59821 0.0
C875 C 0.58435 0.50085 0.54202 0.0
C876 C 0.58226 0.46972 0.64511 0.0
C877 C 0.58552 0.48009 0.68516 0.0
C878 C 0.58441 0.4935 0.5914 0.0
C879 C 0.588 0.49717 0.67691 0.0
C880 C 0.5818 0.51801 0.53527 0.0
C881 C 0.58766 0.49714 0.45643 0.0
N882 N 0.58734 0.50338 0.63088 0.0
N883 N 0.58712 0.49095 0.50248 0.0
H884 H 0.73315 0.36678 0.69851 0.0
H885 H 0.77211 0.31304 0.91455 0.0
H886 H 0.7366 0.31305 0.69354 0.0
H887 H 0.75149 0.36224 0.93599 0.0
H888 H 0.76224 0.31352 0.83029 0.0
H889 H 0.74357 0.36621 0.7823 0.0
C890 C 0.7363 0.35489 0.71488 0.0
C891 C 0.73402 0.33993 0.68922 0.0
C892 C 0.7598 0.32416 0.85354 0.0
C893 C 0.74582 0.3392 0.78476 0.0
C894 C 0.7654 0.32389 0.90156 0.0
C895 C 0.76254 0.3376 0.93218 0.0
C896 C 0.75153 0.33835 0.83586 0.0
C897 C 0.75384 0.35137 0.91358 0.0
C898 C 0.7421 0.35457 0.76275 0.0
C899 C 0.73817 0.32486 0.71217 0.0
N900 N 0.74874 0.35146 0.86641 0.0
N901 N 0.74389 0.32487 0.75869 0.0
H902 H 0.90352 0.48908 0.20857 0.0
H903 H 0.90412 0.50673 0.92301 0.0
H904 H 0.91444 0.53753 0.14783 0.0
H905 H 0.91176 0.45762 0.98355 0.0
H906 H 0.90509 0.51843 0.00544 0.0
H907 H 0.90374 0.4773 0.12616 0.0
C908 C 0.90601 0.49721 0.17791 0.0
C909 C 0.909 0.51427 0.18491 0.0
C910 C 0.90663 0.5051 0.00057 0.0
C911 C 0.90907 0.50099 0.09092 0.0
C912 C 0.90603 0.49844 0.95364 0.0
C913 C 0.9079 0.48121 0.94657 0.0
C914 C 0.90884 0.49441 0.04061 0.0
C915 C 0.91034 0.47099 0.98745 0.0
C916 C 0.90617 0.49049 0.13099 0.0
C917 C 0.91214 0.52428 0.144 0.0
N918 N 0.91063 0.47773 0.03279 0.0
N919 N 0.91198 0.51751 0.09869 0.0
H920 H 0.287 0.32892 0.72824 0.0
H921 H 0.2058 0.33023 0.89487 0.0
H922 H 0.23836 0.3415 0.67222 0.0
H923 H 0.25534 0.3372 0.95244 0.0
H924 H 0.21733 0.33008 0.81245 0.0
H925 H 0.27531 0.32761 0.81027 0.0
C926 C 0.27383 0.33131 0.73319 0.0
C927 C 0.26361 0.33535 0.69347 0.0
C928 C 0.22566 0.33162 0.84314 0.0
C929 C 0.25019 0.33381 0.78709 0.0
C930 C 0.21912 0.33163 0.89014 0.0
C931 C 0.22966 0.33375 0.93043 0.0
C932 C 0.24288 0.33351 0.83647 0.0
C933 C 0.2468 0.33558 0.92229 0.0
C934 C 0.2672 0.33063 0.78002 0.0
C935 C 0.24665 0.33839 0.70195 0.0
N936 N 0.25291 0.33536 0.87615 0.0
N937 N 0.24044 0.3375 0.74792 0.0
H938 H 0.40388 0.4883 0.42026 0.0
H939 H 0.40421 0.507 0.70474 0.0
H940 H 0.41356 0.5373 0.4791 0.0
H941 H 0.41379 0.45798 0.6459 0.0
H942 H 0.40515 0.51844 0.62203 0.0
H943 H 0.40503 0.47682 0.50293 0.0
C944 C 0.40631 0.49661 0.45056 0.0
C945 C 0.40864 0.51375 0.44299 0.0
C946 C 0.40715 0.5052 0.62735 0.0
C947 C 0.40977 0.50081 0.53723 0.0
C948 C 0.40657 0.49868 0.67442 0.0
C949 C 0.40893 0.48155 0.68202 0.0
C950 C 0.40983 0.49444 0.58771 0.0
C951 C 0.41195 0.47128 0.64157 0.0
C952 C 0.407 0.49007 0.49761 0.0
C953 C 0.41175 0.52399 0.48341 0.0
N954 N 0.41219 0.47787 0.59605 0.0
N955 N 0.41209 0.51739 0.52889 0.0
H956 H 0.28828 0.66473 0.40226 0.0
H957 H 0.20727 0.66511 0.23467 0.0
H958 H 0.23909 0.65452 0.45824 0.0
H959 H 0.2565 0.65523 0.17833 0.0
H960 H 0.21878 0.66596 0.31705 0.0
H961 H 0.27676 0.66597 0.31995 0.0
C962 C 0.27503 0.66286 0.39724 0.0
C963 C 0.26459 0.65948 0.43702 0.0
C964 C 0.22705 0.66365 0.28663 0.0
C965 C 0.25139 0.66096 0.34315 0.0
C966 C 0.22053 0.66324 0.23963 0.0
C967 C 0.23098 0.66006 0.19973 0.0
C968 C 0.24417 0.66109 0.29367 0.0
C969 C 0.24803 0.65767 0.20819 0.0
C970 C 0.2685 0.66349 0.35028 0.0
C971 C 0.24754 0.6571 0.42848 0.0
N972 N 0.25413 0.65827 0.25432 0.0
N973 N 0.24144 0.65793 0.38238 0.0
H974 H 0.08278 0.5369 0.15214 0.0
H975 H 0.08061 0.4556 0.98536 0.0
H976 H 0.09183 0.48747 0.2087 0.0
H977 H 0.09177 0.50455 0.92856 0.0
H978 H 0.08008 0.46725 0.06764 0.0
H979 H 0.08147 0.5253 0.0699 0.0
C980 C 0.08439 0.52358 0.14724 0.0
C981 C 0.08746 0.5131 0.18717 0.0
C982 C 0.08261 0.47543 0.03714 0.0
C983 C 0.08588 0.4998 0.0934 0.0
C984 C 0.08284 0.46883 0.99021 0.0
C985 C 0.08628 0.47915 0.9502 0.0
C986 C 0.08561 0.4925 0.04401 0.0
C987 C 0.08913 0.49618 0.9585 0.0
C988 C 0.08371 0.51701 0.10033 0.0
C989 C 0.0895 0.49597 0.17882 0.0
N990 N 0.08868 0.50235 0.00457 0.0
N991 N 0.08862 0.48982 0.13276 0.0
H992 H 0.18143 0.20037 0.10569 0.0
H993 H 0.23301 0.28543 0.12132 0.0
H994 H 0.2347 0.20341 0.12477 0.0
H995 H 0.1799 0.28399 0.09732 0.0
H996 H 0.23297 0.25537 0.1336 0.0
H997 H 0.17973 0.23083 0.11324 0.0
C998 C 0.19272 0.20743 0.11211 0.0
C999 C 0.20825 0.19941 0.11408 0.0
C1000 C 0.22127 0.26158 0.12601 0.0
C1001 C 0.20642 0.23412 0.12254 0.0
C1002 C 0.2213 0.27877 0.11897 0.0
C1003 C 0.20647 0.28716 0.10773 0.0
C1004 C 0.20633 0.25262 0.12133 0.0
C1005 C 0.19162 0.27794 0.10565 0.0
C1006 C 0.19175 0.22479 0.1163 0.0
C1007 C 0.22249 0.2091 0.12253 0.0
N1008 N 0.19195 0.26109 0.11184 0.0
N1009 N 0.22125 0.22594 0.12607 0.0
H1010 H 0.03808 0.92833 0.34336 0.0
H1011 H 0.95482 0.98204 0.37282 0.0
H1012 H 0.03662 0.98134 0.37094 0.0
H1013 H 0.95455 0.92946 0.33873 0.0
H1014 H 0.98487 0.98081 0.38384 0.0
H1015 H 0.00768 0.92731 0.35269 0.0
C1016 C 0.03139 0.93969 0.35201 0.0
C1017 C 0.03981 0.95498 0.35583 0.0
C1018 C 0.97828 0.96947 0.37432 0.0
C1019 C 0.00521 0.95392 0.36639 0.0
C1020 C 0.96111 0.97018 0.36802 0.0
C1021 C 0.95225 0.95587 0.35427 0.0
C1022 C 0.98675 0.95438 0.36633 0.0
C1023 C 0.96098 0.9408 0.34906 0.0
C1024 C 0.01406 0.93911 0.35722 0.0
C1025 C 0.03059 0.96932 0.36715 0.0
N1026 N 0.97782 0.94048 0.35454 0.0
N1027 N 0.0138 0.96846 0.37167 0.0
H1028 H 0.31708 0.78942 0.59599 0.0
H1029 H 0.26465 0.70579 0.63513 0.0
H1030 H 0.26427 0.78757 0.62505 0.0
H1031 H 0.31679 0.70577 0.59683 0.0
H1032 H 0.26569 0.73597 0.64459 0.0
H1033 H 0.31856 0.7591 0.60841 0.0
C1034 C 0.30586 0.78266 0.6056 0.0
C1035 C 0.29049 0.79092 0.60892 0.0
C1036 C 0.27698 0.7294 0.63454 0.0
C1037 C 0.29208 0.75645 0.62309 0.0
C1038 C 0.27638 0.71216 0.62916 0.0
C1039 C 0.2906 0.70334 0.61456 0.0
C1040 C 0.29187 0.73797 0.62472 0.0
C1041 C 0.30552 0.71217 0.60784 0.0
C1042 C 0.3067 0.76539 0.61259 0.0
C1043 C 0.27634 0.78165 0.62156 0.0
N1044 N 0.30572 0.72908 0.61235 0.0
N1045 N 0.27746 0.76491 0.62782 0.0
H1046 H 0.45635 0.01546 0.88219 0.0
H1047 H 0.54021 0.06855 0.85876 0.0
H1048 H 0.45708 0.06821 0.8504 0.0
H1049 H 0.53843 0.01523 0.88046 0.0
H1050 H 0.50984 0.06964 0.86772 0.0
H1051 H 0.48643 0.01615 0.89406 0.0
C1052 C 0.46284 0.02723 0.87815 0.0
C1053 C 0.45428 0.04176 0.86474 0.0
C1054 C 0.51614 0.05774 0.87103 0.0
C1055 C 0.48874 0.04263 0.87786 0.0
C1056 C 0.53345 0.05712 0.86602 0.0
C1057 C 0.54177 0.04175 0.86832 0.0
C1058 C 0.50718 0.04288 0.87841 0.0
C1059 C 0.53247 0.02732 0.87792 0.0
C1060 C 0.48003 0.02762 0.8849 0.0
C1061 C 0.46327 0.0567 0.86038 0.0
N1062 N 0.51566 0.02823 0.88223 0.0
N1063 N 0.48008 0.05672 0.86642 0.0
H1064 H 0.17652 0.78956 0.03134 0.0
H1065 H 0.23053 0.70652 0.00112 0.0
H1066 H 0.22929 0.78841 0.00137 0.0
H1067 H 0.17816 0.70597 0.03658 0.0
H1068 H 0.22903 0.73656 0.98908 0.0
H1069 H 0.17562 0.75911 0.02186 0.0
C1070 C 0.18785 0.78293 0.02211 0.0
C1071 C 0.20304 0.79144 0.01772 0.0
C1072 C 0.2178 0.72991 -0.00091 0.0
C1073 C 0.20212 0.75679 0.00698 0.0
C1074 C 0.21866 0.71274 0.00597 0.0
C1075 C 0.2045 0.70381 0.02046 0.0
C1076 C 0.20269 0.73831 0.00727 0.0
C1077 C 0.1894 0.71245 0.02569 0.0
C1078 C 0.18734 0.76557 0.01681 0.0
C1079 C 0.21734 0.7823 0.00564 0.0
N1080 N 0.18892 0.7293 0.0197 0.0
N1081 N 0.21655 0.76548 0.00108 0.0
H1082 H 0.45315 0.98574 0.26284 0.0
H1083 H 0.53535 0.93008 0.28862 0.0
H1084 H 0.45184 0.93244 0.28504 0.0
H1085 H 0.53505 0.98361 0.27129 0.0
H1086 H 0.50501 0.92986 0.27726 0.0
H1087 H 0.48334 0.98437 0.25514 0.0
C1088 C 0.45923 0.9737 0.26566 0.0
C1089 C 0.45002 0.9592 0.2751 0.0
C1090 C 0.51163 0.94162 0.27549 0.0
C1091 C 0.48467 0.95754 0.26686 0.0
C1092 C 0.52892 0.94174 0.2819 0.0
C1093 C 0.53766 0.9569 0.2814 0.0
C1094 C 0.50312 0.95677 0.2685 0.0
C1095 C 0.52877 0.97165 0.27245 0.0
C1096 C 0.47649 0.97292 0.2613 0.0
C1097 C 0.45852 0.94393 0.27801 0.0
N1098 N 0.512 0.97122 0.26668 0.0
N1099 N 0.47543 0.9435 0.27445 0.0
H1100 H 0.32001 0.20629 0.53436 0.0
H1101 H 0.26454 0.28804 0.49968 0.0
H1102 H 0.26719 0.20601 0.50503 0.0
H1103 H 0.31717 0.28956 0.53145 0.0
H1104 H 0.26636 0.2579 0.4897 0.0
H1105 H 0.3203 0.23658 0.52196 0.0
C1106 C 0.30853 0.21258 0.52469 0.0
C1107 C 0.29351 0.20371 0.52131 0.0
C1108 C 0.27757 0.26479 0.4984 0.0
C1109 C 0.29373 0.23822 0.50732 0.0
C1110 C 0.27653 0.28202 0.5041 0.0
C1111 C 0.29069 0.29124 0.51702 0.0
C1112 C 0.29285 0.25668 0.50616 0.0
C1113 C 0.30594 0.28285 0.52181 0.0
C1114 C 0.30869 0.22985 0.51769 0.0
C1115 C 0.27901 0.21241 0.50852 0.0
N1116 N 0.30659 0.26597 0.51698 0.0
N1117 N 0.27945 0.2292 0.50243 0.0
H1118 H 0.95626 0.06979 0.77974 0.0
H1119 H 0.03952 0.01637 0.74664 0.0
H1120 H 0.95778 0.01686 0.75092 0.0
H1121 H 0.03977 0.06867 0.78409 0.0
H1122 H 0.00947 0.01766 0.73576 0.0
H1123 H 0.98664 0.07092 0.76978 0.0
C1124 C 0.96297 0.05847 0.7707 0.0
C1125 C 0.95457 0.04318 0.7667 0.0
C1126 C 0.01605 0.02893 0.74596 0.0
C1127 C 0.98913 0.04435 0.75536 0.0
C1128 C 0.03323 0.02819 0.75216 0.0
C1129 C 0.04208 0.04239 0.76687 0.0
C1130 C 0.00758 0.04394 0.75502 0.0
C1131 C 0.03335 0.05742 0.773 0.0
C1132 C 0.98027 0.05911 0.76512 0.0
C1133 C 0.96379 0.02889 0.75486 0.0
N1134 N 0.0165 0.05777 0.76763 0.0
N1135 N 0.98057 0.02981 0.74997 0.0
H1136 H 0.81813 0.70554 0.03298 0.0
H1137 H 0.76445 0.7882 0.99248 0.0
H1138 H 0.7659 0.70636 0.99581 0.0
H1139 H 0.81617 0.78901 0.03524 0.0
H1140 H 0.7663 0.75815 0.98065 0.0
H1141 H 0.81918 0.73589 0.02152 0.0
C1142 C 0.80696 0.71207 0.0217 0.0
C1143 C 0.79185 0.70351 0.01597 0.0
C1144 C 0.77733 0.76487 0.99219 0.0
C1145 C 0.79293 0.73806 0.00301 0.0
C1146 C 0.77626 0.78204 -0.00105 0.0
C1147 C 0.79012 0.79103 0.0155 0.0
C1148 C 0.79231 0.75655 0.00261 0.0
C1149 C 0.80517 0.78248 0.02276 0.0
C1150 C 0.80755 0.72938 0.01528 0.0
C1151 C 0.77776 0.71252 0.00123 0.0
N1152 N 0.80582 0.76562 0.01691 0.0
N1153 N 0.77861 0.7293 0.99569 0.0
H1154 H 0.67322 0.20576 0.54119 0.0
H1155 H 0.72385 0.28888 0.48057 0.0
H1156 H 0.72353 0.20714 0.48592 0.0
H1157 H 0.67468 0.28925 0.54404 0.0
H1158 H 0.72162 0.25886 0.46882 0.0
H1159 H 0.67129 0.23608 0.52962 0.0
C1160 C 0.68374 0.21241 0.5259 0.0
C1161 C 0.69864 0.20402 0.51511 0.0
C1162 C 0.71121 0.26547 0.48489 0.0
C1163 C 0.69655 0.23852 0.50195 0.0
C1164 C 0.71249 0.28263 0.49158 0.0
C1165 C 0.69952 0.29148 0.51394 0.0
C1166 C 0.69694 0.25702 0.50124 0.0
C1167 C 0.685 0.28282 0.52695 0.0
C1168 C 0.68266 0.22969 0.51943 0.0
C1169 C 0.71189 0.21316 0.49533 0.0
N1170 N 0.68419 0.26597 0.52106 0.0
N1171 N 0.71058 0.22992 0.4898 0.0
H1172 H 0.81694 0.28898 0.09695 0.0
H1173 H 0.76326 0.20592 0.13075 0.0
H1174 H 0.76413 0.28784 0.12618 0.0
H1175 H 0.81559 0.20546 0.09486 0.0
H1176 H 0.76464 0.23602 0.1419 0.0
H1177 H 0.81796 0.25861 0.10821 0.0
C1178 C 0.80562 0.28237 0.10639 0.0
C1179 C 0.79039 0.29086 0.11003 0.0
C1180 C 0.77589 0.22937 0.13202 0.0
C1181 C 0.79143 0.25629 0.1228 0.0
C1182 C 0.7751 0.21216 0.12567 0.0
C1183 C 0.78928 0.20325 0.11125 0.0
C1184 C 0.79095 0.2378 0.12338 0.0
C1185 C 0.80434 0.21193 0.10568 0.0
C1186 C 0.8062 0.26506 0.11272 0.0
C1187 C 0.7761 0.28175 0.12245 0.0
N1188 N 0.80474 0.2288 0.11115 0.0
N1189 N 0.77695 0.26496 0.12799 0.0
H1190 H 0.7283 0.70549 0.63977 0.0
H1191 H 0.6755 0.78856 0.59549 0.0
H1192 H 0.67694 0.70504 0.59341 0.0
H1193 H 0.72781 0.78728 0.63145 0.0
H1194 H 0.67415 0.75824 0.60774 0.0
H1195 H 0.72662 0.73558 0.65085 0.0
C1196 C 0.71659 0.71174 0.6324 0.0
C1197 C 0.70281 0.70283 0.61499 0.0
C1198 C 0.68586 0.76465 0.61351 0.0
C1199 C 0.70083 0.73737 0.62696 0.0
C1200 C 0.68662 0.78193 0.60662 0.0
C1201 C 0.70184 0.79035 0.61184 0.0
C1202 C 0.70042 0.75585 0.62582 0.0
C1203 C 0.71588 0.78123 0.62642 0.0
C1204 C 0.71564 0.72894 0.6387 0.0
C1205 C 0.68789 0.7115 0.60658 0.0
N1206 N 0.71485 0.76447 0.63251 0.0
N1207 N 0.68735 0.72837 0.61199 0.0
H1208 H 0.53891 0.42734 0.84823 0.0
H1209 H 0.45581 0.48115 0.87811 0.0
H1210 H 0.53764 0.48032 0.87643 0.0
H1211 H 0.45551 0.42855 0.84442 0.0
H1212 H 0.48585 0.47989 0.88943 0.0
H1213 H 0.50855 0.42637 0.85803 0.0
C1214 C 0.53226 0.43871 0.8571 0.0
C1215 C 0.54073 0.45397 0.86096 0.0
C1216 C 0.47925 0.46856 0.87998 0.0
C1217 C 0.50616 0.45297 0.87206 0.0
C1218 C 0.46208 0.46928 0.87351 0.0
C1219 C 0.45323 0.45497 0.85973 0.0
C1220 C 0.48771 0.45345 0.87211 0.0
C1221 C 0.46193 0.43989 0.85477 0.0
C1222 C 0.51496 0.43816 0.8626 0.0
C1223 C 0.53157 0.46832 0.87261 0.0
N1224 N 0.47877 0.43955 0.86037 0.0
N1225 N 0.51478 0.46749 0.87736 0.0
H1226 H 0.95774 0.56762 0.34764 0.0
H1227 H 0.04028 0.51311 0.3811 0.0
H1228 H 0.95851 0.51449 0.37319 0.0
H1229 H 0.04122 0.56578 0.34845 0.0
H1230 H 0.01016 0.51455 0.39018 0.0
H1231 H 0.98806 0.56833 0.35896 0.0
C1232 C 0.96427 0.55616 0.35618 0.0
C1233 C 0.95568 0.54094 0.35894 0.0
C1234 C 0.01691 0.52586 0.38143 0.0
C1235 C 0.99019 0.54164 0.37184 0.0
C1236 C 0.03413 0.52503 0.37627 0.0
C1237 C 0.0432 0.53931 0.36343 0.0
C1238 C 0.00863 0.54104 0.3732 0.0
C1239 C 0.03463 0.55447 0.35811 0.0
C1240 C 0.98154 0.55656 0.36257 0.0
C1241 C 0.96468 0.52646 0.37022 0.0
N1242 N 0.01775 0.55491 0.36244 0.0
N1243 N 0.98143 0.52715 0.37591 0.0
H1244 H 0.95662 0.48178 0.75814 0.0
H1245 H 0.03931 0.42696 0.78226 0.0
H1246 H 0.9559 0.42864 0.78363 0.0
H1247 H 0.03848 0.48033 0.76116 0.0
H1248 H 0.00895 0.42638 0.77186 0.0
H1249 H 0.98671 0.48055 0.74785 0.0
C1250 C 0.96281 0.46981 0.7612 0.0
C1251 C 0.95382 0.45532 0.77233 0.0
C1252 C 0.01546 0.43818 0.76899 0.0
C1253 C 0.98834 0.45381 0.76106 0.0
C1254 C 0.03276 0.43851 0.77481 0.0
C1255 C 0.04134 0.45374 0.77314 0.0
C1256 C 0.00679 0.4532 0.76141 0.0
C1257 C 0.03232 0.46833 0.76329 0.0
C1258 C 0.98001 0.4691 0.75531 0.0
C1259 C 0.96243 0.44012 0.77537 0.0
N1260 N 0.01553 0.46771 0.75818 0.0
N1261 N 0.97929 0.43978 0.77033 0.0
H1262 H 0.45457 0.56748 0.27963 0.0
H1263 H 0.53782 0.51374 0.25202 0.0
H1264 H 0.45602 0.51449 0.2518 0.0
H1265 H 0.53798 0.5664 0.28496 0.0
H1266 H 0.50781 0.51495 0.24003 0.0
H1267 H 0.48496 0.5685 0.27022 0.0
C1268 C 0.46126 0.55612 0.27087 0.0
C1269 C 0.45285 0.54084 0.26707 0.0
C1270 C 0.51437 0.52631 0.24949 0.0
C1271 C 0.48743 0.54189 0.25647 0.0
C1272 C 0.53153 0.52561 0.25635 0.0
C1273 C 0.54033 0.53995 0.27009 0.0
C1274 C 0.50588 0.54143 0.25691 0.0
C1275 C 0.53159 0.55504 0.27468 0.0
C1276 C 0.47858 0.5567 0.26562 0.0
C1277 C 0.46205 0.5265 0.25559 0.0
N1278 N 0.51477 0.55535 0.26868 0.0
N1279 N 0.47884 0.52736 0.2511 0.0
H1280 H 0.20977 0.13215 0.24688 0.0
H1281 H 0.29402 0.13248 0.40037 0.0
H1282 H 0.25888 0.13205 0.18296 0.0
H1283 H 0.2451 0.1323 0.46548 0.0
H1284 H 0.28133 0.12776 0.3208 0.0
H1285 H 0.22232 0.12786 0.32705 0.0
C1286 C 0.22318 0.131 0.24965 0.0
C1287 C 0.23333 0.13266 0.20834 0.0
C1288 C 0.27336 0.12852 0.35252 0.0
C1289 C 0.24778 0.12787 0.29989 0.0
C1290 C 0.28061 0.13118 0.398 0.0
C1291 C 0.27057 0.13299 0.43944 0.0
C1292 C 0.25592 0.12784 0.34838 0.0
C1293 C 0.25328 0.13109 0.43435 0.0
C1294 C 0.23035 0.12856 0.29542 0.0
C1295 C 0.25061 0.13099 0.21394 0.0
N1296 N 0.24647 0.12886 0.3895 0.0
N1297 N 0.2573 0.12887 0.25894 0.0
H1298 H 0.10787 0.95619 0.48702 0.0
H1299 H 0.10992 0.04091 0.63841 0.0
H1300 H 0.10964 0.00503 0.4211 0.0
H1301 H 0.11081 0.99201 0.70419 0.0
H1302 H 0.11377 0.02802 0.55857 0.0
H1303 H 0.11282 0.96895 0.56651 0.0
C1304 C 0.10952 0.96958 0.48921 0.0
C1305 C 0.10814 0.9796 0.44755 0.0
C1306 C 0.11335 0.0201 0.59051 0.0
C1307 C 0.11364 0.99431 0.53839 0.0
C1308 C 0.11117 0.02747 0.63611 0.0
C1309 C 0.10983 0.01749 0.67785 0.0
C1310 C 0.11404 0.00263 0.58663 0.0
C1311 C 0.11164 0.00016 0.67284 0.0
C1312 C 0.11234 0.97687 0.53461 0.0
C1313 C 0.11048 0.99687 0.4524 0.0
N1314 N 0.11343 0.99326 0.62797 0.0
N1315 N 0.11291 0.0037 0.4971 0.0
H1316 H 0.25292 0.86255 0.95581 0.0
H1317 H 0.23935 0.86134 0.66781 0.0
H1318 H 0.20482 0.85844 0.88663 0.0
H1319 H 0.28749 0.85833 0.73724 0.0
H1320 H 0.22655 0.8661 0.74735 0.0
H1321 H 0.26567 0.86686 0.87597 0.0
C1322 C 0.24501 0.86281 0.92387 0.0
C1323 C 0.22783 0.85991 0.9277 0.0
C1324 C 0.23994 0.8646 0.74513 0.0
C1325 C 0.24232 0.86471 0.83632 0.0
C1326 C 0.24726 0.86192 0.69973 0.0
C1327 C 0.26448 0.85921 0.69608 0.0
C1328 C 0.24991 0.86455 0.78714 0.0
C1329 C 0.27414 0.8602 0.73853 0.0
C1330 C 0.2523 0.86523 0.8783 0.0
C1331 C 0.21815 0.86046 0.88521 0.0
N1332 N 0.2667 0.86261 0.78239 0.0
N1333 N 0.22556 0.86262 0.8412 0.0
H1334 H 0.3842 0.04417 0.98931 0.0
H1335 H 0.38123 0.96 0.14299 0.0
H1336 H 0.38082 0.9952 0.92463 0.0
H1337 H 0.38314 0.00914 0.20707 0.0
H1338 H 0.37679 0.97273 0.06318 0.0
H1339 H 0.37936 0.03178 0.06927 0.0
C1340 C 0.38216 0.03083 0.99187 0.0
C1341 C 0.38313 0.02066 0.95042 0.0
C1342 C 0.37796 0.98074 0.09476 0.0
C1343 C 0.37782 0.00635 0.04187 0.0
C1344 C 0.38049 0.97347 0.14034 0.0
C1345 C 0.38277 0.98354 0.18156 0.0
C1346 C 0.37782 -0.00179 0.09037 0.0
C1347 C 0.3816 0.00091 0.17613 0.0
C1348 C 0.37943 0.02375 0.03756 0.0
C1349 C 0.3803 0.00348 0.95576 0.0
N1350 N 0.37941 0.0077 0.13127 0.0
N1351 N 0.37801 0.99682 0.00077 0.0
H1352 H 0.73884 0.86136 0.95757 0.0
H1353 H 0.75295 0.86081 0.6698 0.0
H1354 H 0.78714 0.85822 0.88913 0.0
H1355 H 0.70466 0.85799 0.7384 0.0
H1356 H 0.76561 0.86548 0.74958 0.0
H1357 H 0.7262 0.86576 0.87764 0.0
C1358 C 0.74681 0.86185 0.92578 0.0
C1359 C 0.76403 0.8592 0.92985 0.0
C1360 C 0.75222 0.86405 0.74713 0.0
C1361 C 0.74965 0.8641 0.83832 0.0
C1362 C 0.74498 0.86142 0.70158 0.0
C1363 C 0.72776 0.85879 0.69762 0.0
C1364 C 0.74216 0.86401 0.78898 0.0
C1365 C 0.71802 0.8598 0.73992 0.0
C1366 C 0.73958 0.86432 0.88015 0.0
C1367 C 0.77378 0.86005 0.88754 0.0
N1368 N 0.72538 0.86215 0.78392 0.0
N1369 N 0.76643 0.86224 0.84345 0.0
H1370 H 0.88646 0.04179 0.63517 0.0
H1371 H 0.88485 0.95688 0.48488 0.0
H1372 H 0.88456 0.99305 0.70175 0.0
H1373 H 0.88302 0.00564 0.4184 0.0
H1374 H 0.88102 0.96985 0.56461 0.0
H1375 H 0.88154 0.0289 0.55582 0.0
C1376 C 0.88478 0.02839 0.63315 0.0
C1377 C 0.88612 0.01845 0.67495 0.0
C1378 C 0.88123 0.97771 0.53255 0.0
C1379 C 0.88066 0.00358 0.5843 0.0
C1380 C 0.8834 0.9703 0.48702 0.0
C1381 C 0.88446 0.98023 0.44509 0.0
C1382 C 0.88028 0.99518 0.53619 0.0
C1383 C 0.8824 0.99754 0.44989 0.0
C1384 C 0.88198 0.02103 0.58784 0.0
C1385 C 0.88375 0.00117 0.67034 0.0
N1386 N 0.88063 0.00449 0.4947 0.0
N1387 N 0.88134 0.99426 0.62573 0.0
H1388 H 0.78802 0.13569 0.23719 0.0
H1389 H 0.70367 0.13602 0.39073 0.0
H1390 H 0.73895 0.13603 0.17302 0.0
H1391 H 0.75269 0.13733 0.4552 0.0
H1392 H 0.7164 0.13137 0.31109 0.0
H1393 H 0.77539 0.13164 0.31729 0.0
C1394 C 0.7746 0.13468 0.2399 0.0
C1395 C 0.76449 0.13641 0.19856 0.0
C1396 C 0.72437 0.13248 0.34271 0.0
C1397 C 0.74995 0.13192 0.29001 0.0
C1398 C 0.71711 0.13511 0.38819 0.0
C1399 C 0.72716 0.13728 0.42946 0.0
C1400 C 0.74182 0.13211 0.33846 0.0
C1401 C 0.74449 0.13588 0.42419 0.0
C1402 C 0.76739 0.13239 0.28563 0.0
C1403 C 0.74718 0.13491 0.20406 0.0
N1404 N 0.75128 0.13358 0.3794 0.0
N1405 N 0.74045 0.13294 0.24904 0.0
H1406 H 0.60584 0.95597 0.14997 0.0
H1407 H 0.61028 0.04063 -0.00074 0.0
H1408 H 0.60893 0.00469 0.21631 0.0
H1409 H 0.61064 0.99177 0.93314 0.0
H1410 H 0.61372 0.02763 0.07908 0.0
H1411 H 0.61139 0.96862 0.07069 0.0
C1412 C 0.6079 0.96931 0.14791 0.0
C1413 C 0.60672 0.97933 0.18962 0.0
C1414 C 0.61329 0.01975 0.04708 0.0
C1415 C 0.61292 0.99393 0.09903 0.0
C1416 C 0.61135 0.02717 0.00149 0.0
C1417 C 0.60996 0.01724 0.95965 0.0
C1418 C 0.61367 0.00226 0.05086 0.0
C1419 C 0.61151 -0.00012 0.96456 0.0
C1420 C 0.61107 0.97654 0.10264 0.0
C1421 C 0.6096 0.99653 0.18496 0.0
N1422 N 0.61306 0.99293 0.00944 0.0
N1423 N 0.61236 0.00331 0.14036 0.0
H1424 H 0.79005 0.63532 0.89212 0.0
H1425 H 0.70576 0.63485 0.73838 0.0
H1426 H 0.74095 0.63609 0.9561 0.0
H1427 H 0.75482 0.63634 0.67422 0.0
H1428 H 0.71845 0.63041 0.81818 0.0
H1429 H 0.77745 0.63079 0.8122 0.0
C1430 C 0.77663 0.6343 0.88942 0.0
C1431 C 0.7665 0.63631 0.93061 0.0
C1432 C 0.72645 0.6315 0.78658 0.0
C1433 C 0.752 0.63128 0.83939 0.0
C1434 C 0.7192 0.63402 0.74102 0.0
C1435 C 0.72928 0.63619 0.69981 0.0
C1436 C 0.74389 0.63126 0.79093 0.0
C1437 C 0.7466 0.63489 0.70519 0.0
C1438 C 0.76943 0.63175 0.84379 0.0
C1439 C 0.7492 0.63478 0.92515 0.0
N1440 N 0.75338 0.63271 0.75004 0.0
N1441 N 0.74247 0.63255 0.88026 0.0
H1442 H 0.61154 0.49042 0.21065 0.0
H1443 H 0.61165 0.50407 0.92262 0.0
H1444 H 0.60791 0.53862 0.1414 0.0
H1445 H 0.60856 0.45582 0.99182 0.0
H1446 H 0.61608 0.51689 0.00236 0.0
H1447 H 0.61625 0.47766 0.13096 0.0
C1448 C 0.61198 0.49835 0.17874 0.0
C1449 C 0.60911 0.51557 0.1825 0.0
C1450 C 0.61465 0.50347 4e-05 0.0
C1451 C 0.61436 0.50106 0.09126 0.0
C1452 C 0.61216 0.49615 0.95453 0.0
C1453 C 0.60951 0.47889 0.95074 0.0
C1454 C 0.61445 0.49347 0.04203 0.0
C1455 C 0.61038 0.4692 0.99319 0.0
C1456 C 0.61463 0.49105 0.13326 0.0
C1457 C 0.6099 0.52527 0.14005 0.0
N1458 N 0.6126 0.47665 0.03716 0.0
N1459 N 0.61228 0.51785 0.09611 0.0
H1460 H 0.70479 0.35937 0.39048 0.0
H1461 H 0.78913 0.35833 0.23695 0.0
H1462 H 0.75378 0.35775 0.45504 0.0
H1463 H 0.74005 0.35829 0.17282 0.0
H1464 H 0.77654 0.36273 0.31697 0.0
H1465 H 0.71756 0.36364 0.31074 0.0
C1466 C 0.71823 0.36014 0.38794 0.0
C1467 C 0.72826 0.35799 0.42926 0.0
C1468 C 0.76853 0.36196 0.28533 0.0
C1469 C 0.74297 0.36271 0.33815 0.0
C1470 C 0.77571 0.35947 0.23965 0.0
C1471 C 0.76559 0.35773 0.19835 0.0
C1472 C 0.7511 0.36263 0.28971 0.0
C1473 C 0.7483 0.35941 0.20383 0.0
C1474 C 0.72552 0.36255 0.3424 0.0
C1475 C 0.7456 0.3592 0.42399 0.0
N1476 N 0.74158 0.36158 0.24876 0.0
N1477 N 0.75242 0.36128 0.37914 0.0
H1478 H 0.87747 0.50302 0.713 0.0
H1479 H 0.88853 0.54178 0.49046 0.0
H1480 H 0.89228 0.45845 0.63613 0.0
H1481 H 0.88477 0.49272 0.42669 0.0
H1482 H 0.88382 0.52969 0.5704 0.0
H1483 H 0.87303 0.51698 0.63519 0.0
C1484 C 0.87972 0.49616 0.67966 0.0
C1485 C 0.88555 0.47966 0.68097 0.0
C1486 C 0.88349 0.52154 0.53906 0.0
C1487 C 0.88115 0.49574 0.59163 0.0
C1488 C 0.88633 0.52848 0.49325 0.0
C1489 C 0.88717 0.51822 0.45197 0.0
C1490 C 0.88147 0.50416 0.54362 0.0
C1491 C 0.88429 0.50107 0.45765 0.0
C1492 C 0.87738 0.50421 0.63512 0.0
C1493 C 0.88799 0.47126 0.63676 0.0
N1494 N 0.88181 0.49455 0.50273 0.0
N1495 N 0.88595 0.47946 0.59389 0.0
H1496 H 0.25186 0.365 0.16417 0.0
H1497 H 0.29038 0.35867 0.38865 0.0
H1498 H 0.20781 0.34938 0.24179 0.0
H1499 H 0.24104 0.36041 0.4508 0.0
H1500 H 0.27837 0.36205 0.3081 0.0
H1501 H 0.26542 0.37096 0.24166 0.0
C1502 C 0.24504 0.36286 0.19762 0.0
C1503 C 0.22881 0.35639 0.19664 0.0
C1504 C 0.27011 0.36224 0.33916 0.0
C1505 C 0.24444 0.36257 0.28574 0.0
C1506 C 0.27701 0.36018 0.38535 0.0
C1507 C 0.26668 0.35912 0.42639 0.0
C1508 C 0.2527 0.36325 0.33396 0.0
C1509 C 0.24946 0.36108 0.42005 0.0
C1510 C 0.25286 0.36609 0.24202 0.0
C1511 C 0.22042 0.35415 0.24094 0.0
N1512 N 0.24299 0.3628 0.37462 0.0
N1513 N 0.2284 0.35707 0.28369 0.0
H1514 H 0.38203 0.50466 0.91857 0.0
H1515 H 0.38179 0.49077 0.20635 0.0
H1516 H 0.38572 0.45642 0.98758 0.0
H1517 H 0.38548 0.53903 0.13743 0.0
H1518 H 0.37716 0.47807 0.12658 0.0
H1519 H 0.37723 0.51736 -0.00173 0.0
C1520 C 0.38158 0.49671 0.95043 0.0
C1521 C 0.38451 0.4795 0.94664 0.0
C1522 C 0.37877 0.49146 0.12896 0.0
C1523 C 0.37915 0.49394 0.03784 0.0
C1524 C 0.38137 0.49872 0.17449 0.0
C1525 C 0.38425 0.51594 0.17834 0.0
C1526 C 0.37909 0.5015 0.08705 0.0
C1527 C 0.38348 0.52567 0.13598 0.0
C1528 C 0.37888 0.50397 0.99591 0.0
C1529 C 0.38369 0.46977 0.989 0.0
N1530 N 0.38116 0.51829 0.09199 0.0
N1531 N 0.38127 0.47715 0.03294 0.0
H1532 H 0.2549 0.63313 0.9625 0.0
H1533 H 0.24089 0.63235 0.6747 0.0
H1534 H 0.20664 0.63604 0.89373 0.0
H1535 H 0.28913 0.63588 0.74334 0.0
H1536 H 0.22824 0.62792 0.75461 0.0
H1537 H 0.26758 0.62837 0.88279 0.0
C1538 C 0.24694 0.63252 0.9307 0.0
C1539 C 0.22972 0.63521 0.93458 0.0
C1540 C 0.24162 0.62945 0.75214 0.0
C1541 C 0.24415 0.62989 0.84331 0.0
C1542 C 0.24885 0.63193 0.70653 0.0
C1543 C 0.26605 0.63471 0.70253 0.0
C1544 C 0.25166 0.62977 0.79402 0.0
C1545 C 0.27579 0.63396 0.74488 0.0
C1546 C 0.25419 0.62984 0.88519 0.0
C1547 C 0.22 0.63419 0.89227 0.0
N1548 N 0.26843 0.63175 0.78895 0.0
N1549 N 0.22737 0.6318 0.8483 0.0
H1550 H 0.11349 0.48893 0.42507 0.0
H1551 H 0.11292 0.5026 0.71312 0.0
H1552 H 0.11027 0.53719 0.49428 0.0
H1553 H 0.10904 0.45442 0.6438 0.0
H1554 H 0.11777 0.51533 0.63349 0.0
H1555 H 0.1177 0.47611 0.50489 0.0
C1556 C 0.11393 0.49686 0.457 0.0
C1557 C 0.11131 0.51412 0.45319 0.0
C1558 C 0.11607 0.50195 0.63576 0.0
C1559 C 0.11599 0.49953 0.54455 0.0
C1560 C 0.11334 0.49467 0.68121 0.0
C1561 C 0.11036 0.47747 0.68492 0.0
C1562 C 0.11579 0.49194 0.59376 0.0
C1563 C 0.11112 0.46776 0.64247 0.0
C1564 C 0.11628 0.48952 0.50256 0.0
C1565 C 0.11207 0.5238 0.49567 0.0
N1566 N 0.11359 0.47516 0.59856 0.0
N1567 N 0.11416 0.51635 0.53967 0.0
loop_
_geom_bond_atom_site_label_1
_geom_bond_atom_site_label_2
_geom_bond_distance
_geom_bond_site_symmetry_2
_ccdc_geom_bond_type
In0 O1 2.294 . S
In0 O2 2.326 1_554 S
In0 O6 2.266 . S
In0 O7 2.326 . S
In0 O8 2.266 . S
In0 O9 2.326 . S
In0 O11 2.294 . S
In0 O12 2.326 . S
O1 In0 2.294 . S
O1 C10 1.240 1_554 S
O2 In0 2.326 1_556 S
O2 C10 1.252 . S
C3 O6 1.252 . S
C3 O7 1.260 . S
C4 O11 1.240 . S
C4 O12 1.252 . S
C5 O8 1.252 . S
C5 O9 1.260 . S
O6 In0 2.266 . S
O6 C3 1.252 . S
O7 In0 2.326 . S
O7 C3 1.260 . S
O8 In0 2.266 . S
O8 C5 1.252 . S
O9 In0 2.326 . S
O9 C5 1.260 . S
C10 O1 1.240 1_556 S
C10 O2 1.252 . S
O11 In0 2.294 . S
O11 C4 1.240 . S
O12 In0 2.326 . S
O12 C4 1.252 . S
In13 O14 2.294 . S
In13 O15 2.326 . S
In13 O19 2.266 . S
In13 O20 2.326 . S
In13 O21 2.266 . S
In13 O22 2.326 . S
In13 O24 2.294 . S
In13 O25 2.326 . S
O14 In13 2.294 . S
O14 C23 1.240 . S
O15 In13 2.326 . S
O15 C23 1.252 . S
C16 O19 1.252 . S
C16 O20 1.260 . S
C17 O24 1.240 . S
C17 O25 1.252 . S
C18 O21 1.252 . S
C18 O22 1.260 . S
O19 In13 2.266 . S
O19 C16 1.252 . S
O20 In13 2.326 . S
O20 C16 1.260 . S
O21 In13 2.266 . S
O21 C18 1.252 . S
O22 In13 2.326 . S
O22 C18 1.260 . S
C23 O14 1.240 . S
C23 O15 1.252 . S
O24 In13 2.294 . S
O24 C17 1.240 . S
O25 In13 2.326 . S
O25 C17 1.252 . S
In26 O27 2.294 . S
In26 O28 2.326 . S
In26 O32 2.266 . S
In26 O33 2.326 . S
In26 O34 2.266 . S
In26 O35 2.326 . S
In26 O37 2.294 . S
In26 O38 2.326 . S
O27 In26 2.294 . S
O27 C36 1.240 . S
O28 In26 2.326 . S
O28 C36 1.252 . S
C29 O32 1.252 . S
C29 O33 1.260 . S
C30 O37 1.240 . S
C30 O38 1.252 . S
C31 O34 1.252 . S
C31 O35 1.260 . S
O32 In26 2.266 . S
O32 C29 1.252 . S
O33 In26 2.326 . S
O33 C29 1.260 . S
O34 In26 2.266 . S
O34 C31 1.252 . S
O35 In26 2.326 . S
O35 C31 1.260 . S
C36 O27 1.240 . S
C36 O28 1.252 . S
O37 In26 2.294 . S
O37 C30 1.240 . S
O38 In26 2.326 . S
O38 C30 1.252 . S
In39 O40 2.294 . S
In39 O41 2.326 . S
In39 O45 2.266 . S
In39 O46 2.326 . S
In39 O47 2.266 . S
In39 O48 2.326 . S
In39 O50 2.294 . S
In39 O51 2.326 . S
O40 In39 2.294 . S
O40 C49 1.240 . S
O41 In39 2.326 . S
O41 C49 1.252 . S
C42 O45 1.252 . S
C42 O46 1.260 . S
C43 O50 1.240 . S
C43 O51 1.252 . S
C44 O47 1.252 . S
C44 O48 1.260 . S
O45 In39 2.266 . S
O45 C42 1.252 . S
O46 In39 2.326 . S
O46 C42 1.260 . S
O47 In39 2.266 . S
O47 C44 1.252 . S
O48 In39 2.326 . S
O48 C44 1.260 . S
C49 O40 1.240 . S
C49 O41 1.252 . S
O50 In39 2.294 . S
O50 C43 1.240 . S
O51 In39 2.326 . S
O51 C43 1.252 . S
In52 O53 2.294 . S
In52 O54 2.326 . S
In52 O58 2.266 . S
In52 O59 2.326 1_554 S
In52 O60 2.266 . S
In52 O61 2.326 . S
In52 O63 2.294 . S
In52 O64 2.326 . S
O53 In52 2.294 . S
O53 C62 1.240 . S
O54 In52 2.326 . S
O54 C62 1.252 . S
C55 O58 1.252 1_556 S
C55 O59 1.260 . S
C56 O63 1.240 . S
C56 O64 1.252 . S
C57 O60 1.252 . S
C57 O61 1.260 . S
O58 In52 2.266 . S
O58 C55 1.252 1_554 S
O59 In52 2.326 1_556 S
O59 C55 1.260 . S
O60 In52 2.266 . S
O60 C57 1.252 . S
O61 In52 2.326 . S
O61 C57 1.260 . S
C62 O53 1.240 . S
C62 O54 1.252 . S
O63 In52 2.294 . S
O63 C56 1.240 . S
O64 In52 2.326 . S
O64 C56 1.252 . S
In65 O66 2.294 . S
In65 O67 2.326 . S
In65 O71 2.266 . S
In65 O72 2.326 . S
In65 O73 2.266 . S
In65 O74 2.326 . S
In65 O76 2.294 . S
In65 O77 2.326 . S
O66 In65 2.294 . S
O66 C75 1.240 . S
O67 In65 2.326 . S
O67 C75 1.252 . S
C68 O71 1.252 . S
C68 O72 1.260 . S
C69 O76 1.240 . S
C69 O77 1.252 . S
C70 O73 1.252 . S
C70 O74 1.260 . S
O71 In65 2.266 . S
O71 C68 1.252 . S
O72 In65 2.326 . S
O72 C68 1.260 . S
O73 In65 2.266 . S
O73 C70 1.252 . S
O74 In65 2.326 . S
O74 C70 1.260 . S
C75 O66 1.240 . S
C75 O67 1.252 . S
O76 In65 2.294 . S
O76 C69 1.240 . S
O77 In65 2.326 . S
O77 C69 1.252 . S
In78 O79 2.294 . S
In78 O80 2.326 . S
In78 O84 2.266 . S
In78 O85 2.326 . S
In78 O86 2.266 . S
In78 O87 2.326 . S
In78 O89 2.294 . S
In78 O90 2.326 . S
O79 In78 2.294 . S
O79 C88 1.240 . S
O80 In78 2.326 . S
O80 C88 1.252 . S
C81 O84 1.252 . S
C81 O85 1.260 . S
C82 O89 1.240 . S
C82 O90 1.252 . S
C83 O86 1.252 . S
C83 O87 1.260 . S
O84 In78 2.266 . S
O84 C81 1.252 . S
O85 In78 2.326 . S
O85 C81 1.260 . S
O86 In78 2.266 . S
O86 C83 1.252 . S
O87 In78 2.326 . S
O87 C83 1.260 . S
C88 O79 1.240 . S
C88 O80 1.252 . S
O89 In78 2.294 . S
O89 C82 1.240 . S
O90 In78 2.326 . S
O90 C82 1.252 . S
In91 O92 2.294 . S
In91 O93 2.326 . S
In91 O97 2.266 . S
In91 O98 2.326 . S
In91 O99 2.266 . S
In91 O100 2.326 . S
In91 O102 2.294 . S
In91 O103 2.326 . S
O92 In91 2.294 . S
O92 C101 1.240 . S
O93 In91 2.326 . S
O93 C101 1.252 . S
C94 O97 1.252 . S
C94 O98 1.260 . S
C95 O102 1.240 . S
C95 O103 1.252 . S
C96 O99 1.252 . S
C96 O100 1.260 . S
O97 In91 2.266 . S
O97 C94 1.252 . S
O98 In91 2.326 . S
O98 C94 1.260 . S
O99 In91 2.266 . S
O99 C96 1.252 . S
O100 In91 2.326 . S
O100 C96 1.260 . S
C101 O92 1.240 . S
C101 O93 1.252 . S
O102 In91 2.294 . S
O102 C95 1.240 . S
O103 In91 2.326 . S
O103 C95 1.252 . S
In104 O105 2.294 . S
In104 O106 2.326 . S
In104 O110 2.266 . S
In104 O111 2.326 1_554 S
In104 O112 2.266 . S
In104 O113 2.326 . S
In104 O115 2.294 . S
In104 O116 2.326 . S
O105 In104 2.294 . S
O105 C114 1.240 . S
O106 In104 2.326 . S
O106 C114 1.252 . S
C107 O110 1.252 1_556 S
C107 O111 1.260 . S
C108 O115 1.240 . S
C108 O116 1.252 . S
C109 O112 1.252 . S
C109 O113 1.260 . S
O110 In104 2.266 . S
O110 C107 1.252 1_554 S
O111 In104 2.326 1_556 S
O111 C107 1.260 . S
O112 In104 2.266 . S
O112 C109 1.252 . S
O113 In104 2.326 . S
O113 C109 1.260 . S
C114 O105 1.240 . S
C114 O106 1.252 . S
O115 In104 2.294 . S
O115 C108 1.240 . S
O116 In104 2.326 . S
O116 C108 1.252 . S
In117 O118 2.294 . S
In117 O119 2.326 . S
In117 O123 2.266 . S
In117 O124 2.326 . S
In117 O125 2.266 . S
In117 O126 2.326 . S
In117 O128 2.294 . S
In117 O129 2.326 . S
O118 In117 2.294 . S
O118 C127 1.240 . S
O119 In117 2.326 . S
O119 C127 1.252 . S
C120 O123 1.252 . S
C120 O124 1.260 . S
C121 O128 1.240 . S
C121 O129 1.252 . S
C122 O125 1.252 . S
C122 O126 1.260 . S
O123 In117 2.266 . S
O123 C120 1.252 . S
O124 In117 2.326 . S
O124 C120 1.260 . S
O125 In117 2.266 . S
O125 C122 1.252 . S
O126 In117 2.326 . S
O126 C122 1.260 . S
C127 O118 1.240 . S
C127 O119 1.252 . S
O128 In117 2.294 . S
O128 C121 1.240 . S
O129 In117 2.326 . S
O129 C121 1.252 . S
In130 O131 2.294 . S
In130 O132 2.326 . S
In130 O136 2.266 . S
In130 O137 2.326 . S
In130 O138 2.266 . S
In130 O139 2.326 . S
In130 O141 2.294 . S
In130 O142 2.326 . S
O131 In130 2.294 . S
O131 C140 1.240 . S
O132 In130 2.326 . S
O132 C140 1.252 . S
C133 O136 1.252 . S
C133 O137 1.260 . S
C134 O141 1.240 . S
C134 O142 1.252 . S
C135 O138 1.252 . S
C135 O139 1.260 . S
O136 In130 2.266 . S
O136 C133 1.252 . S
O137 In130 2.326 . S
O137 C133 1.260 . S
O138 In130 2.266 . S
O138 C135 1.252 . S
O139 In130 2.326 . S
O139 C135 1.260 . S
C140 O131 1.240 . S
C140 O132 1.252 . S
O141 In130 2.294 . S
O141 C134 1.240 . S
O142 In130 2.326 . S
O142 C134 1.252 . S
In143 O144 2.294 . S
In143 O145 2.326 . S
In143 O149 2.266 . S
In143 O150 2.326 . S
In143 O151 2.266 . S
In143 O152 2.326 . S
In143 O154 2.294 . S
In143 O155 2.326 . S
O144 In143 2.294 . S
O144 C153 1.240 . S
O145 In143 2.326 . S
O145 C153 1.252 . S
C146 O149 1.252 . S
C146 O150 1.260 . S
C147 O154 1.240 . S
C147 O155 1.252 . S
C148 O151 1.252 . S
C148 O152 1.260 . S
O149 In143 2.266 . S
O149 C146 1.252 . S
O150 In143 2.326 . S
O150 C146 1.260 . S
O151 In143 2.266 . S
O151 C148 1.252 . S
O152 In143 2.326 . S
O152 C148 1.260 . S
C153 O144 1.240 . S
C153 O145 1.252 . S
O154 In143 2.294 . S
O154 C147 1.240 . S
O155 In143 2.326 . S
O155 C147 1.252 . S
In156 O157 2.294 . S
In156 O158 2.326 . S
In156 O162 2.266 . S
In156 O163 2.326 . S
In156 O164 2.266 . S
In156 O165 2.326 . S
In156 O167 2.294 . S
In156 O168 2.326 1_554 S
O157 In156 2.294 . S
O157 C166 1.240 . S
O158 In156 2.326 . S
O158 C166 1.252 . S
C159 O162 1.252 . S
C159 O163 1.260 . S
C160 O167 1.240 1_556 S
C160 O168 1.252 . S
C161 O164 1.252 . S
C161 O165 1.260 . S
O162 In156 2.266 . S
O162 C159 1.252 . S
O163 In156 2.326 . S
O163 C159 1.260 . S
O164 In156 2.266 . S
O164 C161 1.252 . S
O165 In156 2.326 . S
O165 C161 1.260 . S
C166 O157 1.240 . S
C166 O158 1.252 . S
O167 In156 2.294 . S
O167 C160 1.240 1_554 S
O168 In156 2.326 1_556 S
O168 C160 1.252 . S
In169 O170 2.294 . S
In169 O171 2.326 . S
In169 O175 2.266 . S
In169 O176 2.326 . S
In169 O177 2.266 . S
In169 O178 2.326 . S
In169 O180 2.294 . S
In169 O181 2.326 . S
O170 In169 2.294 . S
O170 C179 1.240 . S
O171 In169 2.326 . S
O171 C179 1.252 . S
C172 O175 1.252 . S
C172 O176 1.260 . S
C173 O180 1.240 . S
C173 O181 1.252 . S
C174 O177 1.252 . S
C174 O178 1.260 . S
O175 In169 2.266 . S
O175 C172 1.252 . S
O176 In169 2.326 . S
O176 C172 1.260 . S
O177 In169 2.266 . S
O177 C174 1.252 . S
O178 In169 2.326 . S
O178 C174 1.260 . S
C179 O170 1.240 . S
C179 O171 1.252 . S
O180 In169 2.294 . S
O180 C173 1.240 . S
O181 In169 2.326 . S
O181 C173 1.252 . S
In182 O183 2.294 . S
In182 O184 2.326 . S
In182 O188 2.266 . S
In182 O189 2.326 . S
In182 O190 2.266 . S
In182 O191 2.326 . S
In182 O193 2.294 . S
In182 O194 2.326 . S
O183 In182 2.294 . S
O183 C192 1.240 . S
O184 In182 2.326 . S
O184 C192 1.252 . S
C185 O188 1.252 . S
C185 O189 1.260 . S
C186 O193 1.240 . S
C186 O194 1.252 . S
C187 O190 1.252 . S
C187 O191 1.260 . S
O188 In182 2.266 . S
O188 C185 1.252 . S
O189 In182 2.326 . S
O189 C185 1.260 . S
O190 In182 2.266 . S
O190 C187 1.252 . S
O191 In182 2.326 . S
O191 C187 1.260 . S
C192 O183 1.240 . S
C192 O184 1.252 . S
O193 In182 2.294 . S
O193 C186 1.240 . S
O194 In182 2.326 . S
O194 C186 1.252 . S
In195 O196 2.294 . S
In195 O197 2.326 . S
In195 O201 2.266 . S
In195 O202 2.326 . S
In195 O203 2.266 . S
In195 O204 2.326 . S
In195 O206 2.294 . S
In195 O207 2.326 . S
O196 In195 2.294 . S
O196 C205 1.240 . S
O197 In195 2.326 . S
O197 C205 1.252 . S
C198 O201 1.252 . S
C198 O202 1.260 . S
C199 O206 1.240 . S
C199 O207 1.252 . S
C200 O203 1.252 . S
C200 O204 1.260 . S
O201 In195 2.266 . S
O201 C198 1.252 . S
O202 In195 2.326 . S
O202 C198 1.260 . S
O203 In195 2.266 . S
O203 C200 1.252 . S
O204 In195 2.326 . S
O204 C200 1.260 . S
C205 O196 1.240 . S
C205 O197 1.252 . S
O206 In195 2.294 . S
O206 C199 1.240 . S
O207 In195 2.326 . S
O207 C199 1.252 . S
In208 O209 2.294 . S
In208 O210 2.326 . S
In208 O214 2.266 . S
In208 O215 2.326 . S
In208 O216 2.266 . S
In208 O217 2.326 . S
In208 O219 2.294 . S
In208 O220 2.326 . S
O209 In208 2.294 . S
O209 C218 1.240 . S
O210 In208 2.326 . S
O210 C218 1.252 . S
C211 O214 1.252 . S
C211 O215 1.260 . S
C212 O219 1.240 . S
C212 O220 1.252 . S
C213 O216 1.252 . S
C213 O217 1.260 . S
O214 In208 2.266 . S
O214 C211 1.252 . S
O215 In208 2.326 . S
O215 C211 1.260 . S
O216 In208 2.266 . S
O216 C213 1.252 . S
O217 In208 2.326 . S
O217 C213 1.260 . S
C218 O209 1.240 . S
C218 O210 1.252 . S
O219 In208 2.294 . S
O219 C212 1.240 . S
O220 In208 2.326 . S
O220 C212 1.252 . S
In221 O222 2.294 . S
In221 O223 2.326 . S
In221 O227 2.266 . S
In221 O228 2.326 . S
In221 O229 2.266 . S
In221 O230 2.326 . S
In221 O232 2.294 . S
In221 O233 2.326 . S
O222 In221 2.294 . S
O222 C231 1.240 . S
O223 In221 2.326 . S
O223 C231 1.252 . S
C224 O227 1.252 . S
C224 O228 1.260 . S
C225 O232 1.240 . S
C225 O233 1.252 . S
C226 O229 1.252 . S
C226 O230 1.260 . S
O227 In221 2.266 . S
O227 C224 1.252 . S
O228 In221 2.326 . S
O228 C224 1.260 . S
O229 In221 2.266 . S
O229 C226 1.252 . S
O230 In221 2.326 . S
O230 C226 1.260 . S
C231 O222 1.240 . S
C231 O223 1.252 . S
O232 In221 2.294 . S
O232 C225 1.240 . S
O233 In221 2.326 . S
O233 C225 1.252 . S
In234 O235 2.294 . S
In234 O236 2.326 1_554 S
In234 O240 2.266 . S
In234 O241 2.326 . S
In234 O242 2.266 . S
In234 O243 2.326 . S
In234 O245 2.294 . S
In234 O246 2.326 . S
O235 In234 2.294 . S
O235 C244 1.240 1_554 S
O236 In234 2.326 1_556 S
O236 C244 1.252 . S
C237 O240 1.252 . S
C237 O241 1.260 . S
C238 O245 1.240 . S
C238 O246 1.252 . S
C239 O242 1.252 . S
C239 O243 1.260 . S
O240 In234 2.266 . S
O240 C237 1.252 . S
O241 In234 2.326 . S
O241 C237 1.260 . S
O242 In234 2.266 . S
O242 C239 1.252 . S
O243 In234 2.326 . S
O243 C239 1.260 . S
C244 O235 1.240 1_556 S
C244 O236 1.252 . S
O245 In234 2.294 . S
O245 C238 1.240 . S
O246 In234 2.326 . S
O246 C238 1.252 . S
In247 O248 2.294 . S
In247 O249 2.326 . S
In247 O253 2.266 . S
In247 O254 2.326 . S
In247 O255 2.266 . S
In247 O256 2.326 . S
In247 O258 2.294 . S
In247 O259 2.326 . S
O248 In247 2.294 . S
O248 C257 1.240 . S
O249 In247 2.326 . S
O249 C257 1.252 . S
C250 O253 1.252 . S
C250 O254 1.260 . S
C251 O258 1.240 . S
C251 O259 1.252 . S
C252 O255 1.252 . S
C252 O256 1.260 . S
O253 In247 2.266 . S
O253 C250 1.252 . S
O254 In247 2.326 . S
O254 C250 1.260 . S
O255 In247 2.266 . S
O255 C252 1.252 . S
O256 In247 2.326 . S
O256 C252 1.260 . S
C257 O248 1.240 . S
C257 O249 1.252 . S
O258 In247 2.294 . S
O258 C251 1.240 . S
O259 In247 2.326 . S
O259 C251 1.252 . S
In260 O261 2.294 . S
In260 O262 2.326 . S
In260 O266 2.266 . S
In260 O267 2.326 . S
In260 O268 2.266 . S
In260 O269 2.326 . S
In260 O271 2.294 . S
In260 O272 2.326 . S
O261 In260 2.294 . S
O261 C270 1.240 . S
O262 In260 2.326 . S
O262 C270 1.252 . S
C263 O266 1.252 . S
C263 O267 1.260 . S
C264 O271 1.240 . S
C264 O272 1.252 . S
C265 O268 1.252 . S
C265 O269 1.260 . S
O266 In260 2.266 . S
O266 C263 1.252 . S
O267 In260 2.326 . S
O267 C263 1.260 . S
O268 In260 2.266 . S
O268 C265 1.252 . S
O269 In260 2.326 . S
O269 C265 1.260 . S
C270 O261 1.240 . S
C270 O262 1.252 . S
O271 In260 2.294 . S
O271 C264 1.240 . S
O272 In260 2.326 . S
O272 C264 1.252 . S
In273 O274 2.294 . S
In273 O275 2.326 . S
In273 O279 2.266 . S
In273 O280 2.326 . S
In273 O281 2.266 . S
In273 O282 2.326 . S
In273 O284 2.294 . S
In273 O285 2.326 . S
O274 In273 2.294 . S
O274 C283 1.240 . S
O275 In273 2.326 . S
O275 C283 1.252 . S
C276 O279 1.252 . S
C276 O280 1.260 . S
C277 O284 1.240 . S
C277 O285 1.252 . S
C278 O281 1.252 . S
C278 O282 1.260 . S
O279 In273 2.266 . S
O279 C276 1.252 . S
O280 In273 2.326 . S
O280 C276 1.260 . S
O281 In273 2.266 . S
O281 C278 1.252 . S
O282 In273 2.326 . S
O282 C278 1.260 . S
C283 O274 1.240 . S
C283 O275 1.252 . S
O284 In273 2.294 . S
O284 C277 1.240 . S
O285 In273 2.326 . S
O285 C277 1.252 . S
In286 O287 2.294 . S
In286 O288 2.326 . S
In286 O292 2.266 . S
In286 O293 2.326 . S
In286 O294 2.266 . S
In286 O295 2.326 1_554 S
In286 O297 2.294 . S
In286 O298 2.326 . S
O287 In286 2.294 . S
O287 C296 1.240 . S
O288 In286 2.326 . S
O288 C296 1.252 . S
C289 O292 1.252 . S
C289 O293 1.260 . S
C290 O297 1.240 . S
C290 O298 1.252 . S
C291 O294 1.252 1_556 S
C291 O295 1.260 . S
O292 In286 2.266 . S
O292 C289 1.252 . S
O293 In286 2.326 . S
O293 C289 1.260 . S
O294 In286 2.266 . S
O294 C291 1.252 1_554 S
O295 In286 2.326 1_556 S
O295 C291 1.260 . S
C296 O287 1.240 . S
C296 O288 1.252 . S
O297 In286 2.294 . S
O297 C290 1.240 . S
O298 In286 2.326 . S
O298 C290 1.252 . S
In299 O300 2.294 . S
In299 O301 2.326 . S
In299 O305 2.266 . S
In299 O306 2.326 . S
In299 O307 2.266 . S
In299 O308 2.326 . S
In299 O310 2.294 . S
In299 O311 2.326 . S
O300 In299 2.294 . S
O300 C309 1.240 . S
O301 In299 2.326 . S
O301 C309 1.252 . S
C302 O305 1.252 . S
C302 O306 1.260 . S
C303 O310 1.240 . S
C303 O311 1.252 . S
C304 O307 1.252 . S
C304 O308 1.260 . S
O305 In299 2.266 . S
O305 C302 1.252 . S
O306 In299 2.326 . S
O306 C302 1.260 . S
O307 In299 2.266 . S
O307 C304 1.252 . S
O308 In299 2.326 . S
O308 C304 1.260 . S
C309 O300 1.240 . S
C309 O301 1.252 . S
O310 In299 2.294 . S
O310 C303 1.240 . S
O311 In299 2.326 . S
O311 C303 1.252 . S
In312 O313 2.294 . S
In312 O314 2.326 . S
In312 O318 2.266 . S
In312 O319 2.326 . S
In312 O320 2.266 . S
In312 O321 2.326 . S
In312 O323 2.294 . S
In312 O324 2.326 . S
O313 In312 2.294 . S
O313 C322 1.240 . S
O314 In312 2.326 . S
O314 C322 1.252 . S
C315 O318 1.252 . S
C315 O319 1.260 . S
C316 O323 1.240 . S
C316 O324 1.252 . S
C317 O320 1.252 . S
C317 O321 1.260 . S
O318 In312 2.266 . S
O318 C315 1.252 . S
O319 In312 2.326 . S
O319 C315 1.260 . S
O320 In312 2.266 . S
O320 C317 1.252 . S
O321 In312 2.326 . S
O321 C317 1.260 . S
C322 O313 1.240 . S
C322 O314 1.252 . S
O323 In312 2.294 . S
O323 C316 1.240 . S
O324 In312 2.326 . S
O324 C316 1.252 . S
In325 O326 2.294 . S
In325 O327 2.326 . S
In325 O331 2.266 . S
In325 O332 2.326 . S
In325 O333 2.266 . S
In325 O334 2.326 . S
In325 O336 2.294 . S
In325 O337 2.326 . S
O326 In325 2.294 . S
O326 C335 1.240 . S
O327 In325 2.326 . S
O327 C335 1.252 . S
C328 O331 1.252 . S
C328 O332 1.260 . S
C329 O336 1.240 . S
C329 O337 1.252 . S
C330 O333 1.252 . S
C330 O334 1.260 . S
O331 In325 2.266 . S
O331 C328 1.252 . S
O332 In325 2.326 . S
O332 C328 1.260 . S
O333 In325 2.266 . S
O333 C330 1.252 . S
O334 In325 2.326 . S
O334 C330 1.260 . S
C335 O326 1.240 . S
C335 O327 1.252 . S
O336 In325 2.294 . S
O336 C329 1.240 . S
O337 In325 2.326 . S
O337 C329 1.252 . S
In338 O339 2.294 . S
In338 O340 2.326 . S
In338 O344 2.266 . S
In338 O345 2.326 . S
In338 O346 2.266 . S
In338 O347 2.326 1_554 S
In338 O349 2.294 . S
In338 O350 2.326 . S
O339 In338 2.294 . S
O339 C348 1.240 . S
O340 In338 2.326 . S
O340 C348 1.252 . S
C341 O344 1.252 . S
C341 O345 1.260 . S
C342 O349 1.240 . S
C342 O350 1.252 . S
C343 O346 1.252 1_556 S
C343 O347 1.260 . S
O344 In338 2.266 . S
O344 C341 1.252 . S
O345 In338 2.326 . S
O345 C341 1.260 . S
O346 In338 2.266 . S
O346 C343 1.252 1_554 S
O347 In338 2.326 1_556 S
O347 C343 1.260 . S
C348 O339 1.240 . S
C348 O340 1.252 . S
O349 In338 2.294 . S
O349 C342 1.240 . S
O350 In338 2.326 . S
O350 C342 1.252 . S
In351 O352 2.294 . S
In351 O353 2.326 . S
In351 O357 2.266 . S
In351 O358 2.326 . S
In351 O359 2.266 . S
In351 O360 2.326 . S
In351 O362 2.294 . S
In351 O363 2.326 . S
O352 In351 2.294 . S
O352 C361 1.240 . S
O353 In351 2.326 . S
O353 C361 1.252 . S
C354 O357 1.252 . S
C354 O358 1.260 . S
C355 O362 1.240 . S
C355 O363 1.252 . S
C356 O359 1.252 . S
C356 O360 1.260 . S
O357 In351 2.266 . S
O357 C354 1.252 . S
O358 In351 2.326 . S
O358 C354 1.260 . S
O359 In351 2.266 . S
O359 C356 1.252 . S
O360 In351 2.326 . S
O360 C356 1.260 . S
C361 O352 1.240 . S
C361 O353 1.252 . S
O362 In351 2.294 . S
O362 C355 1.240 . S
O363 In351 2.326 . S
O363 C355 1.252 . S
In364 O365 2.294 . S
In364 O366 2.326 . S
In364 O370 2.266 . S
In364 O371 2.326 . S
In364 O372 2.266 . S
In364 O373 2.326 . S
In364 O375 2.294 . S
In364 O376 2.326 . S
O365 In364 2.294 . S
O365 C374 1.240 . S
O366 In364 2.326 . S
O366 C374 1.252 . S
C367 O370 1.252 . S
C367 O371 1.260 . S
C368 O375 1.240 . S
C368 O376 1.252 . S
C369 O372 1.252 . S
C369 O373 1.260 . S
O370 In364 2.266 . S
O370 C367 1.252 . S
O371 In364 2.326 . S
O371 C367 1.260 . S
O372 In364 2.266 . S
O372 C369 1.252 . S
O373 In364 2.326 . S
O373 C369 1.260 . S
C374 O365 1.240 . S
C374 O366 1.252 . S
O375 In364 2.294 . S
O375 C368 1.240 . S
O376 In364 2.326 . S
O376 C368 1.252 . S
In377 O378 2.294 . S
In377 O379 2.326 . S
In377 O383 2.266 . S
In377 O384 2.326 . S
In377 O385 2.266 . S
In377 O386 2.326 . S
In377 O388 2.294 . S
In377 O389 2.326 . S
O378 In377 2.294 . S
O378 C387 1.240 . S
O379 In377 2.326 . S
O379 C387 1.252 . S
C380 O383 1.252 . S
C380 O384 1.260 . S
C381 O388 1.240 . S
C381 O389 1.252 . S
C382 O385 1.252 . S
C382 O386 1.260 . S
O383 In377 2.266 . S
O383 C380 1.252 . S
O384 In377 2.326 . S
O384 C380 1.260 . S
O385 In377 2.266 . S
O385 C382 1.252 . S
O386 In377 2.326 . S
O386 C382 1.260 . S
C387 O378 1.240 . S
C387 O379 1.252 . S
O388 In377 2.294 . S
O388 C381 1.240 . S
O389 In377 2.326 . S
O389 C381 1.252 . S
In390 O391 2.294 . S
In390 O392 2.326 . S
In390 O396 2.266 . S
In390 O397 2.326 . S
In390 O398 2.266 . S
In390 O399 2.326 . S
In390 O401 2.294 . S
In390 O402 2.326 1_554 S
O391 In390 2.294 . S
O391 C400 1.240 . S
O392 In390 2.326 . S
O392 C400 1.252 . S
C393 O396 1.252 . S
C393 O397 1.260 . S
C394 O401 1.240 1_556 S
C394 O402 1.252 . S
C395 O398 1.252 . S
C395 O399 1.260 . S
O396 In390 2.266 . S
O396 C393 1.252 . S
O397 In390 2.326 . S
O397 C393 1.260 . S
O398 In390 2.266 . S
O398 C395 1.252 . S
O399 In390 2.326 . S
O399 C395 1.260 . S
C400 O391 1.240 . S
C400 O392 1.252 . S
O401 In390 2.294 . S
O401 C394 1.240 1_554 S
O402 In390 2.326 1_556 S
O402 C394 1.252 . S
In403 O404 2.294 . S
In403 O405 2.326 . S
In403 O409 2.266 . S
In403 O410 2.326 . S
In403 O411 2.266 . S
In403 O412 2.326 . S
In403 O414 2.294 . S
In403 O415 2.326 . S
O404 In403 2.294 . S
O404 C413 1.240 . S
O405 In403 2.326 . S
O405 C413 1.252 . S
C406 O409 1.252 . S
C406 O410 1.260 . S
C407 O414 1.240 . S
C407 O415 1.252 . S
C408 O411 1.252 . S
C408 O412 1.260 . S
O409 In403 2.266 . S
O409 C406 1.252 . S
O410 In403 2.326 . S
O410 C406 1.260 . S
O411 In403 2.266 . S
O411 C408 1.252 . S
O412 In403 2.326 . S
O412 C408 1.260 . S
C413 O404 1.240 . S
C413 O405 1.252 . S
O414 In403 2.294 . S
O414 C407 1.240 . S
O415 In403 2.326 . S
O415 C407 1.252 . S
H416 C422 0.930 . S
H417 C426 0.930 . S
H418 C431 0.929 . S
H419 C429 0.929 . S
H420 C424 0.925 1_554 S
H421 C430 0.929 . S
C422 H416 0.930 . S
C422 C423 1.367 . S
C422 C430 1.378 . S
C423 C422 1.367 . S
C423 C431 1.433 . S
C424 H420 0.925 1_556 S
C424 C426 1.378 1_556 S
C424 C428 1.350 . S
C425 C428 1.463 . S
C425 C430 1.350 . S
C425 N433 1.427 . S
C426 H417 0.930 . S
C426 C424 1.378 1_554 S
C426 C427 1.367 . S
C427 C426 1.367 . S
C427 C429 1.433 1_554 S
C428 C424 1.350 . S
C428 C425 1.463 . S
C428 N432 1.427 . S
C429 H419 0.929 . S
C429 C427 1.433 1_556 S
C429 N432 1.384 . S
C430 H421 0.929 . S
C430 C422 1.378 . S
C430 C425 1.350 . S
C431 H418 0.929 . S
C431 C423 1.433 . S
C431 N433 1.384 . S
N432 C428 1.427 . S
N432 C429 1.384 . S
N433 C425 1.427 . S
N433 C431 1.384 . S
H434 C440 0.930 . S
H435 C444 0.930 . S
H436 C449 0.929 . S
H437 C447 0.929 . S
H438 C442 0.929 . S
H439 C448 0.929 . S
C440 H434 0.930 . S
C440 C441 1.367 . S
C440 C448 1.378 . S
C441 C440 1.367 . S
C441 C449 1.433 . S
C442 H438 0.929 . S
C442 C444 1.378 . S
C442 C446 1.350 . S
C443 C446 1.463 . S
C443 C448 1.350 . S
C443 N451 1.427 . S
C444 H435 0.930 . S
C444 C442 1.378 . S
C444 C445 1.367 . S
C445 C444 1.367 . S
C445 C447 1.433 . S
C446 C442 1.350 . S
C446 C443 1.463 . S
C446 N450 1.427 . S
C447 H437 0.929 . S
C447 C445 1.433 . S
C447 N450 1.384 . S
C448 H439 0.929 . S
C448 C440 1.378 . S
C448 C443 1.350 . S
C449 H436 0.929 . S
C449 C441 1.433 . S
C449 N451 1.384 . S
N450 C446 1.427 . S
N450 C447 1.384 . S
N451 C443 1.427 . S
N451 C449 1.384 . S
H452 C458 0.930 . S
H453 C462 0.930 . S
H454 C467 0.929 . S
H455 C465 0.929 . S
H456 C460 0.929 . S
H457 C466 0.929 . S
C458 H452 0.930 . S
C458 C459 1.367 . S
C458 C466 1.378 . S
C459 C458 1.367 . S
C459 C467 1.433 . S
C460 H456 0.929 . S
C460 C462 1.378 . S
C460 C464 1.350 . S
C461 C464 1.463 . S
C461 C466 1.350 . S
C461 N469 1.427 . S
C462 H453 0.930 . S
C462 C460 1.378 . S
C462 C463 1.367 . S
C463 C462 1.367 . S
C463 C465 1.433 . S
C464 C460 1.350 . S
C464 C461 1.463 . S
C464 N468 1.427 . S
C465 H455 0.929 . S
C465 C463 1.433 . S
C465 N468 1.384 . S
C466 H457 0.929 . S
C466 C458 1.378 . S
C466 C461 1.350 . S
C467 H454 0.929 . S
C467 C459 1.433 . S
C467 N469 1.384 . S
N468 C464 1.427 . S
N468 C465 1.384 . S
N469 C461 1.427 . S
N469 C467 1.384 . S
H470 C476 0.930 . S
H471 C480 0.930 . S
H472 C485 0.929 . S
H473 C483 0.929 . S
H474 C478 0.929 . S
H475 C484 0.929 . S
C476 H470 0.930 . S
C476 C477 1.367 . S
C476 C484 1.378 . S
C477 C476 1.367 . S
C477 C485 1.433 . S
C478 H474 0.929 . S
C478 C480 1.378 . S
C478 C482 1.350 . S
C479 C482 1.463 . S
C479 C484 1.350 . S
C479 N487 1.427 . S
C480 H471 0.930 . S
C480 C478 1.378 . S
C480 C481 1.367 . S
C481 C480 1.367 . S
C481 C483 1.433 . S
C482 C478 1.350 . S
C482 C479 1.463 . S
C482 N486 1.427 . S
C483 H473 0.929 . S
C483 C481 1.433 . S
C483 N486 1.384 . S
C484 H475 0.929 . S
C484 C476 1.378 . S
C484 C479 1.350 . S
C485 H472 0.929 . S
C485 C477 1.433 . S
C485 N487 1.384 . S
N486 C482 1.427 . S
N486 C483 1.384 . S
N487 C479 1.427 . S
N487 C485 1.384 . S
H488 C494 0.930 . S
H489 C498 0.930 . S
H490 C503 0.929 . S
H491 C501 0.929 . S
H492 C496 0.929 . S
H493 C502 0.929 . S
C494 H488 0.930 . S
C494 C495 1.367 . S
C494 C502 1.378 . S
C495 C494 1.367 . S
C495 C503 1.433 . S
C496 H492 0.929 . S
C496 C498 1.378 . S
C496 C500 1.350 . S
C497 C500 1.463 . S
C497 C502 1.350 . S
C497 N505 1.427 . S
C498 H489 0.930 . S
C498 C496 1.378 . S
C498 C499 1.367 . S
C499 C498 1.367 . S
C499 C501 1.433 . S
C500 C496 1.350 . S
C500 C497 1.463 . S
C500 N504 1.427 . S
C501 H491 0.929 . S
C501 C499 1.433 . S
C501 N504 1.384 . S
C502 H493 0.929 . S
C502 C494 1.378 . S
C502 C497 1.350 . S
C503 H490 0.929 . S
C503 C495 1.433 . S
C503 N505 1.384 . S
N504 C500 1.427 . S
N504 C501 1.384 . S
N505 C497 1.427 . S
N505 C503 1.384 . S
H506 C512 0.930 . S
H507 C516 0.930 . S
H508 C521 0.929 . S
H509 C519 0.929 . S
H510 C514 0.929 . S
H511 C520 0.929 . S
C512 H506 0.930 . S
C512 C513 1.367 . S
C512 C520 1.378 . S
C513 C512 1.367 . S
C513 C521 1.433 . S
C514 H510 0.929 . S
C514 C516 1.378 . S
C514 C518 1.350 . S
C515 C518 1.463 . S
C515 C520 1.350 . S
C515 N523 1.427 . S
C516 H507 0.930 . S
C516 C514 1.378 . S
C516 C517 1.367 1_556 S
C517 C516 1.367 1_554 S
C517 C519 1.433 . S
C518 C514 1.350 . S
C518 C515 1.463 . S
C518 N522 1.427 1_556 S
C519 H509 0.929 . S
C519 C517 1.433 . S
C519 N522 1.384 . S
C520 H511 0.929 . S
C520 C512 1.378 . S
C520 C515 1.350 . S
C521 H508 0.929 . S
C521 C513 1.433 . S
C521 N523 1.384 . S
N522 C518 1.427 1_554 S
N522 C519 1.384 . S
N523 C515 1.427 . S
N523 C521 1.384 . S
H524 C530 0.930 . S
H525 C534 0.930 . S
H526 C539 0.929 . S
H527 C537 0.929 . S
H528 C532 0.929 . S
H529 C538 0.929 . S
C530 H524 0.930 . S
C530 C531 1.367 . S
C530 C538 1.378 . S
C531 C530 1.367 . S
C531 C539 1.433 . S
C532 H528 0.929 . S
C532 C534 1.378 . S
C532 C536 1.350 . S
C533 C536 1.463 . S
C533 C538 1.350 . S
C533 N541 1.427 . S
C534 H525 0.930 . S
C534 C532 1.378 . S
C534 C535 1.367 . S
C535 C534 1.367 . S
C535 C537 1.433 . S
C536 C532 1.350 . S
C536 C533 1.463 . S
C536 N540 1.427 . S
C537 H527 0.929 . S
C537 C535 1.433 . S
C537 N540 1.384 . S
C538 H529 0.929 . S
C538 C530 1.378 . S
C538 C533 1.350 . S
C539 H526 0.929 . S
C539 C531 1.433 . S
C539 N541 1.384 . S
N540 C536 1.427 . S
N540 C537 1.384 . S
N541 C533 1.427 . S
N541 C539 1.384 . S
H542 C548 0.930 . S
H543 C552 0.930 . S
H544 C557 0.929 . S
H545 C555 0.929 . S
H546 C550 0.929 . S
H547 C556 0.929 . S
C548 H542 0.930 . S
C548 C549 1.367 . S
C548 C556 1.378 . S
C549 C548 1.367 . S
C549 C557 1.433 . S
C550 H546 0.929 . S
C550 C552 1.378 . S
C550 C554 1.350 . S
C551 C554 1.463 . S
C551 C556 1.350 . S
C551 N559 1.427 . S
C552 H543 0.930 . S
C552 C550 1.378 . S
C552 C553 1.367 . S
C553 C552 1.367 . S
C553 C555 1.433 . S
C554 C550 1.350 . S
C554 C551 1.463 . S
C554 N558 1.427 . S
C555 H545 0.929 . S
C555 C553 1.433 . S
C555 N558 1.384 . S
C556 H547 0.929 . S
C556 C548 1.378 . S
C556 C551 1.350 . S
C557 H544 0.929 . S
C557 C549 1.433 . S
C557 N559 1.384 . S
N558 C554 1.427 . S
N558 C555 1.384 . S
N559 C551 1.427 . S
N559 C557 1.384 . S
H560 C566 0.930 . S
H561 C570 0.930 . S
H562 C575 0.929 . S
H563 C573 0.929 . S
H564 C568 0.929 . S
H565 C574 0.929 . S
C566 H560 0.930 . S
C566 C567 1.367 . S
C566 C574 1.378 . S
C567 C566 1.367 . S
C567 C575 1.433 . S
C568 H564 0.929 . S
C568 C570 1.378 . S
C568 C572 1.350 . S
C569 C572 1.463 . S
C569 C574 1.350 . S
C569 N577 1.427 . S
C570 H561 0.930 . S
C570 C568 1.378 . S
C570 C571 1.367 . S
C571 C570 1.367 . S
C571 C573 1.433 . S
C572 C568 1.350 . S
C572 C569 1.463 . S
C572 N576 1.427 . S
C573 H563 0.929 . S
C573 C571 1.433 . S
C573 N576 1.384 . S
C574 H565 0.929 . S
C574 C566 1.378 . S
C574 C569 1.350 . S
C575 H562 0.929 . S
C575 C567 1.433 . S
C575 N577 1.384 . S
N576 C572 1.427 . S
N576 C573 1.384 . S
N577 C569 1.427 . S
N577 C575 1.384 . S
H578 C584 0.930 . S
H579 C588 0.930 . S
H580 C593 0.929 . S
H581 C591 0.929 . S
H582 C586 0.929 . S
H583 C592 0.929 . S
C584 H578 0.930 . S
C584 C585 1.367 . S
C584 C592 1.378 . S
C585 C584 1.367 . S
C585 C593 1.433 . S
C586 H582 0.929 . S
C586 C588 1.378 . S
C586 C590 1.350 . S
C587 C590 1.463 . S
C587 C592 1.350 . S
C587 N595 1.427 . S
C588 H579 0.930 . S
C588 C586 1.378 . S
C588 C589 1.367 . S
C589 C588 1.367 . S
C589 C591 1.433 . S
C590 C586 1.350 . S
C590 C587 1.463 . S
C590 N594 1.427 . S
C591 H581 0.929 . S
C591 C589 1.433 . S
C591 N594 1.384 . S
C592 H583 0.929 . S
C592 C584 1.378 . S
C592 C587 1.350 . S
C593 H580 0.929 . S
C593 C585 1.433 . S
C593 N595 1.384 . S
N594 C590 1.427 . S
N594 C591 1.384 . S
N595 C587 1.427 . S
N595 C593 1.384 . S
H596 C602 0.930 . S
H597 C606 0.930 . S
H598 C611 0.929 . S
H599 C609 0.929 . S
H600 C604 0.929 . S
H601 C610 0.929 . S
C602 H596 0.930 . S
C602 C603 1.367 . S
C602 C610 1.378 . S
C603 C602 1.367 . S
C603 C611 1.433 . S
C604 H600 0.929 . S
C604 C606 1.378 . S
C604 C608 1.350 1_554 S
C605 C608 1.463 . S
C605 C610 1.350 . S
C605 N613 1.427 . S
C606 H597 0.930 . S
C606 C604 1.378 . S
C606 C607 1.367 . S
C607 C606 1.367 . S
C607 C609 1.433 1_554 S
C608 C604 1.350 1_556 S
C608 C605 1.463 . S
C608 N612 1.427 . S
C609 H599 0.929 . S
C609 C607 1.433 1_556 S
C609 N612 1.384 . S
C610 H601 0.929 . S
C610 C602 1.378 . S
C610 C605 1.350 . S
C611 H598 0.929 . S
C611 C603 1.433 . S
C611 N613 1.384 . S
N612 C608 1.427 . S
N612 C609 1.384 . S
N613 C605 1.427 . S
N613 C611 1.384 . S
H614 C620 0.930 . S
H615 C624 0.930 . S
H616 C629 0.929 . S
H617 C627 0.929 . S
H618 C622 0.929 . S
H619 C628 0.929 . S
C620 H614 0.930 . S
C620 C621 1.367 . S
C620 C628 1.378 . S
C621 C620 1.367 . S
C621 C629 1.433 . S
C622 H618 0.929 . S
C622 C624 1.378 . S
C622 C626 1.350 . S
C623 C626 1.463 . S
C623 C628 1.350 . S
C623 N631 1.427 . S
C624 H615 0.930 . S
C624 C622 1.378 . S
C624 C625 1.367 . S
C625 C624 1.367 . S
C625 C627 1.433 . S
C626 C622 1.350 . S
C626 C623 1.463 . S
C626 N630 1.427 . S
C627 H617 0.929 . S
C627 C625 1.433 . S
C627 N630 1.384 . S
C628 H619 0.929 . S
C628 C620 1.378 . S
C628 C623 1.350 . S
C629 H616 0.929 . S
C629 C621 1.433 . S
C629 N631 1.384 . S
N630 C626 1.427 . S
N630 C627 1.384 . S
N631 C623 1.427 . S
N631 C629 1.384 . S
H632 C638 0.930 . S
H633 C642 0.930 . S
H634 C647 0.929 . S
H635 C645 0.929 . S
H636 C640 0.929 . S
H637 C646 0.929 . S
C638 H632 0.930 . S
C638 C639 1.367 . S
C638 C646 1.378 . S
C639 C638 1.367 . S
C639 C647 1.433 . S
C640 H636 0.929 . S
C640 C642 1.378 . S
C640 C644 1.350 . S
C641 C644 1.463 . S
C641 C646 1.350 . S
C641 N649 1.427 . S
C642 H633 0.930 . S
C642 C640 1.378 . S
C642 C643 1.367 . S
C643 C642 1.367 . S
C643 C645 1.433 . S
C644 C640 1.350 . S
C644 C641 1.463 . S
C644 N648 1.427 . S
C645 H635 0.929 . S
C645 C643 1.433 . S
C645 N648 1.384 . S
C646 H637 0.929 . S
C646 C638 1.378 . S
C646 C641 1.350 . S
C647 H634 0.929 . S
C647 C639 1.433 . S
C647 N649 1.384 . S
N648 C644 1.427 . S
N648 C645 1.384 . S
N649 C641 1.427 . S
N649 C647 1.384 . S
H650 C656 0.930 . S
H651 C660 0.930 . S
H652 C665 0.929 . S
H653 C663 0.929 . S
H654 C658 0.929 . S
H655 C664 0.929 . S
C656 H650 0.930 . S
C656 C657 1.367 . S
C656 C664 1.378 . S
C657 C656 1.367 . S
C657 C665 1.433 . S
C658 H654 0.929 . S
C658 C660 1.378 . S
C658 C662 1.350 . S
C659 C662 1.463 . S
C659 C664 1.350 . S
C659 N667 1.427 . S
C660 H651 0.930 . S
C660 C658 1.378 . S
C660 C661 1.367 . S
C661 C660 1.367 . S
C661 C663 1.433 . S
C662 C658 1.350 . S
C662 C659 1.463 . S
C662 N666 1.427 . S
C663 H653 0.929 . S
C663 C661 1.433 . S
C663 N666 1.384 . S
C664 H655 0.929 . S
C664 C656 1.378 . S
C664 C659 1.350 . S
C665 H652 0.929 . S
C665 C657 1.433 . S
C665 N667 1.384 . S
N666 C662 1.427 . S
N666 C663 1.384 . S
N667 C659 1.427 . S
N667 C665 1.384 . S
H668 C674 0.930 . S
H669 C678 0.930 . S
H670 C683 0.929 . S
H671 C681 0.929 . S
H672 C676 0.929 . S
H673 C682 0.929 . S
C674 H668 0.930 . S
C674 C675 1.367 . S
C674 C682 1.378 . S
C675 C674 1.367 . S
C675 C683 1.433 . S
C676 H672 0.929 . S
C676 C678 1.378 . S
C676 C680 1.350 . S
C677 C680 1.463 . S
C677 C682 1.350 . S
C677 N685 1.427 . S
C678 H669 0.930 . S
C678 C676 1.378 . S
C678 C679 1.367 . S
C679 C678 1.367 . S
C679 C681 1.433 . S
C680 C676 1.350 . S
C680 C677 1.463 . S
C680 N684 1.427 . S
C681 H671 0.929 . S
C681 C679 1.433 . S
C681 N684 1.384 . S
C682 H673 0.929 . S
C682 C674 1.378 . S
C682 C677 1.350 . S
C683 H670 0.929 . S
C683 C675 1.433 . S
C683 N685 1.384 . S
N684 C680 1.427 . S
N684 C681 1.384 . S
N685 C677 1.427 . S
N685 C683 1.384 . S
H686 C692 0.930 . S
H687 C696 0.930 . S
H688 C701 0.929 . S
H689 C699 0.936 . S
H690 C694 0.929 . S
H691 C700 0.929 . S
C692 H686 0.930 . S
C692 C693 1.367 . S
C692 C700 1.378 . S
C693 C692 1.367 . S
C693 C701 1.433 . S
C694 H690 0.929 . S
C694 C696 1.378 . S
C694 C698 1.350 . S
C695 C698 1.463 . S
C695 C700 1.350 . S
C695 N703 1.427 . S
C696 H687 0.930 . S
C696 C694 1.378 . S
C696 C697 1.367 1_556 S
C697 C696 1.367 1_554 S
C697 C699 1.437 . S
C698 C694 1.350 . S
C698 C695 1.463 . S
C698 N702 1.427 . S
C699 H689 0.936 . S
C699 C697 1.437 . S
C699 N702 1.374 1_554 S
C700 H691 0.929 . S
C700 C692 1.378 . S
C700 C695 1.350 . S
C701 H688 0.929 . S
C701 C693 1.433 . S
C701 N703 1.384 . S
N702 C698 1.427 . S
N702 C699 1.374 1_556 S
N703 C695 1.427 . S
N703 C701 1.384 . S
H704 C710 0.930 . S
H705 C714 0.930 . S
H706 C719 0.929 . S
H707 C717 0.929 . S
H708 C712 0.929 . S
H709 C718 0.929 . S
C710 H704 0.930 . S
C710 C711 1.367 . S
C710 C718 1.378 . S
C711 C710 1.367 . S
C711 C719 1.433 . S
C712 H708 0.929 . S
C712 C714 1.378 . S
C712 C716 1.350 . S
C713 C716 1.463 . S
C713 C718 1.350 . S
C713 N721 1.427 . S
C714 H705 0.930 . S
C714 C712 1.378 . S
C714 C715 1.367 . S
C715 C714 1.367 . S
C715 C717 1.433 . S
C716 C712 1.350 . S
C716 C713 1.463 . S
C716 N720 1.427 . S
C717 H707 0.929 . S
C717 C715 1.433 . S
C717 N720 1.384 . S
C718 H709 0.929 . S
C718 C710 1.378 . S
C718 C713 1.350 . S
C719 H706 0.929 . S
C719 C711 1.433 . S
C719 N721 1.384 . S
N720 C716 1.427 . S
N720 C717 1.384 . S
N721 C713 1.427 . S
N721 C719 1.384 . S
H722 C728 0.930 . S
H723 C732 0.930 . S
H724 C737 0.929 . S
H725 C735 0.929 . S
H726 C730 0.929 . S
H727 C736 0.929 . S
C728 H722 0.930 . S
C728 C729 1.367 . S
C728 C736 1.378 . S
C729 C728 1.367 . S
C729 C737 1.433 1_565 S
C730 H726 0.929 . S
C730 C732 1.378 1_554 S
C730 C734 1.350 . S
C731 C734 1.463 1_565 S
C731 C736 1.350 . S
C731 N739 1.427 1_565 S
C732 H723 0.930 . S
C732 C730 1.378 1_556 S
C732 C733 1.367 . S
C733 C732 1.367 . S
C733 C735 1.433 1_545 S
C734 C730 1.350 . S
C734 C731 1.463 1_545 S
C734 N738 1.427 1_545 S
C735 H725 0.929 . S
C735 C733 1.433 1_565 S
C735 N738 1.384 1_556 S
C736 H727 0.929 . S
C736 C728 1.378 . S
C736 C731 1.350 . S
C737 H724 0.929 . S
C737 C729 1.433 1_545 S
C737 N739 1.384 . S
N738 C734 1.427 1_565 S
N738 C735 1.384 1_554 S
N739 C731 1.427 1_545 S
N739 C737 1.384 . S
H740 C746 0.930 . S
H741 C750 0.930 . S
H742 C755 0.929 . S
H743 C753 0.929 . S
H744 C748 0.929 . S
H745 C754 0.929 . S
C746 H740 0.930 . S
C746 C747 1.367 . S
C746 C754 1.378 . S
C747 C746 1.367 . S
C747 C755 1.433 . S
C748 H744 0.929 . S
C748 C750 1.378 . S
C748 C752 1.350 . S
C749 C752 1.463 . S
C749 C754 1.350 . S
C749 N757 1.427 . S
C750 H741 0.930 . S
C750 C748 1.378 . S
C750 C751 1.367 . S
C751 C750 1.367 . S
C751 C753 1.433 . S
C752 C748 1.350 . S
C752 C749 1.463 . S
C752 N756 1.427 . S
C753 H743 0.929 . S
C753 C751 1.433 . S
C753 N756 1.384 . S
C754 H745 0.929 . S
C754 C746 1.378 . S
C754 C749 1.350 . S
C755 H742 0.929 . S
C755 C747 1.433 . S
C755 N757 1.384 . S
N756 C752 1.427 . S
N756 C753 1.384 . S
N757 C749 1.427 . S
N757 C755 1.384 . S
H758 C764 0.930 . S
H759 C768 0.930 . S
H760 C773 0.929 . S
H761 C771 0.955 . S
H762 C766 0.929 . S
H763 C772 0.929 . S
C764 H758 0.930 . S
C764 C765 1.367 . S
C764 C772 1.378 . S
C765 C764 1.367 . S
C765 C773 1.433 1_545 S
C766 H762 0.929 . S
C766 C768 1.378 . S
C766 C770 1.350 . S
C767 C770 1.463 1_545 S
C767 C772 1.350 . S
C767 N775 1.427 1_545 S
C768 H759 0.930 . S
C768 C766 1.378 . S
C768 C769 1.367 . S
C769 C768 1.367 . S
C769 C771 1.393 1_565 S
C770 C766 1.350 . S
C770 C767 1.463 1_565 S
C770 N774 1.427 1_565 S
C771 H761 0.955 . S
C771 C769 1.393 1_545 S
C771 N774 1.399 . S
C772 H763 0.929 . S
C772 C764 1.378 . S
C772 C767 1.350 . S
C773 H760 0.929 . S
C773 C765 1.433 1_565 S
C773 N775 1.384 . S
N774 C770 1.427 1_545 S
N774 C771 1.399 . S
N775 C767 1.427 1_565 S
N775 C773 1.384 . S
H776 C782 0.930 . S
H777 C786 0.930 . S
H778 C791 0.929 . S
H779 C789 0.929 . S
H780 C784 0.929 . S
H781 C790 0.929 . S
C782 H776 0.930 . S
C782 C783 1.367 . S
C782 C790 1.378 . S
C783 C782 1.367 . S
C783 C791 1.433 . S
C784 H780 0.929 . S
C784 C786 1.378 . S
C784 C788 1.350 . S
C785 C788 1.463 . S
C785 C790 1.350 . S
C785 N793 1.427 . S
C786 H777 0.930 . S
C786 C784 1.378 . S
C786 C787 1.367 . S
C787 C786 1.367 . S
C787 C789 1.433 . S
C788 C784 1.350 . S
C788 C785 1.463 . S
C788 N792 1.427 . S
C789 H779 0.929 . S
C789 C787 1.433 . S
C789 N792 1.384 . S
C790 H781 0.929 . S
C790 C782 1.378 . S
C790 C785 1.350 . S
C791 H778 0.929 . S
C791 C783 1.433 . S
C791 N793 1.384 . S
N792 C788 1.427 . S
N792 C789 1.384 . S
N793 C785 1.427 . S
N793 C791 1.384 . S
H794 C800 0.930 . S
H795 C804 0.930 . S
H796 C809 0.929 . S
H797 C807 0.929 . S
H798 C802 0.929 . S
H799 C808 0.929 . S
C800 H794 0.930 . S
C800 C801 1.367 1_565 S
C800 C808 1.378 1_556 S
C801 C800 1.367 1_545 S
C801 C809 1.433 . S
C802 H798 0.929 . S
C802 C804 1.378 . S
C802 C806 1.350 1_545 S
C803 C806 1.463 1_545 S
C803 C808 1.350 1_545 S
C803 N811 1.427 . S
C804 H795 0.930 . S
C804 C802 1.378 . S
C804 C805 1.367 1_545 S
C805 C804 1.367 1_565 S
C805 C807 1.433 . S
C806 C802 1.350 1_565 S
C806 C803 1.463 1_565 S
C806 N810 1.427 . S
C807 H797 0.929 . S
C807 C805 1.433 . S
C807 N810 1.384 . S
C808 H799 0.929 . S
C808 C800 1.378 1_554 S
C808 C803 1.350 1_565 S
C809 H796 0.929 . S
C809 C801 1.433 . S
C809 N811 1.384 1_556 S
N810 C806 1.427 . S
N810 C807 1.384 . S
N811 C803 1.427 . S
N811 C809 1.384 1_554 S
H812 C818 0.930 . S
H813 C822 0.930 . S
H814 C827 0.929 . S
H815 C825 0.929 . S
H816 C820 0.929 . S
H817 C826 0.929 . S
C818 H812 0.930 . S
C818 C819 1.367 . S
C818 C826 1.378 . S
C819 C818 1.367 . S
C819 C827 1.433 . S
C820 H816 0.929 . S
C820 C822 1.378 . S
C820 C824 1.350 . S
C821 C824 1.463 . S
C821 C826 1.350 . S
C821 N829 1.427 . S
C822 H813 0.930 . S
C822 C820 1.378 . S
C822 C823 1.367 . S
C823 C822 1.367 . S
C823 C825 1.433 . S
C824 C820 1.350 . S
C824 C821 1.463 . S
C824 N828 1.427 . S
C825 H815 0.929 . S
C825 C823 1.433 . S
C825 N828 1.384 . S
C826 H817 0.929 . S
C826 C818 1.378 . S
C826 C821 1.350 . S
C827 H814 0.929 . S
C827 C819 1.433 . S
C827 N829 1.384 . S
N828 C824 1.427 . S
N828 C825 1.384 . S
N829 C821 1.427 . S
N829 C827 1.384 . S
H830 C836 0.930 . S
H831 C840 0.930 . S
H832 C845 0.929 . S
H833 C843 0.929 . S
H834 C838 0.929 . S
H835 C844 0.929 . S
C836 H830 0.930 . S
C836 C837 1.367 . S
C836 C844 1.378 . S
C837 C836 1.367 . S
C837 C845 1.433 1_545 S
C838 H834 0.929 . S
C838 C840 1.378 . S
C838 C842 1.350 . S
C839 C842 1.463 1_545 S
C839 C844 1.350 . S
C839 N847 1.427 1_545 S
C840 H831 0.930 . S
C840 C838 1.378 . S
C840 C841 1.367 . S
C841 C840 1.367 . S
C841 C843 1.433 1_565 S
C842 C838 1.350 . S
C842 C839 1.463 1_565 S
C842 N846 1.427 1_565 S
C843 H833 0.929 . S
C843 C841 1.433 1_545 S
C843 N846 1.384 . S
C844 H835 0.929 . S
C844 C836 1.378 . S
C844 C839 1.350 . S
C845 H832 0.929 . S
C845 C837 1.433 1_565 S
C845 N847 1.384 . S
N846 C842 1.427 1_545 S
N846 C843 1.384 . S
N847 C839 1.427 1_565 S
N847 C845 1.384 . S
H848 C854 0.930 . S
H849 C858 0.930 . S
H850 C863 0.929 . S
H851 C861 0.929 . S
H852 C856 0.929 . S
H853 C862 0.929 . S
C854 H848 0.930 . S
C854 C855 1.367 . S
C854 C862 1.378 . S
C855 C854 1.367 . S
C855 C863 1.433 . S
C856 H852 0.929 . S
C856 C858 1.378 . S
C856 C860 1.350 . S
C857 C860 1.463 . S
C857 C862 1.350 . S
C857 N865 1.427 . S
C858 H849 0.930 . S
C858 C856 1.378 . S
C858 C859 1.367 . S
C859 C858 1.367 . S
C859 C861 1.433 . S
C860 C856 1.350 . S
C860 C857 1.463 . S
C860 N864 1.427 . S
C861 H851 0.929 . S
C861 C859 1.433 . S
C861 N864 1.384 . S
C862 H853 0.929 . S
C862 C854 1.378 . S
C862 C857 1.350 . S
C863 H850 0.929 . S
C863 C855 1.433 . S
C863 N865 1.384 . S
N864 C860 1.427 . S
N864 C861 1.384 . S
N865 C857 1.427 . S
N865 C863 1.384 . S
H866 C872 0.930 . S
H867 C876 0.930 . S
H868 C881 0.929 . S
H869 C879 0.929 . S
H870 C874 0.929 . S
H871 C880 0.929 . S
C872 H866 0.930 . S
C872 C873 1.367 . S
C872 C880 1.378 . S
C873 C872 1.367 . S
C873 C881 1.433 . S
C874 H870 0.929 . S
C874 C876 1.378 . S
C874 C878 1.350 . S
C875 C878 1.463 . S
C875 C880 1.350 . S
C875 N883 1.427 . S
C876 H867 0.930 . S
C876 C874 1.378 . S
C876 C877 1.367 . S
C877 C876 1.367 . S
C877 C879 1.433 . S
C878 C874 1.350 . S
C878 C875 1.463 . S
C878 N882 1.427 . S
C879 H869 0.929 . S
C879 C877 1.433 . S
C879 N882 1.384 . S
C880 H871 0.929 . S
C880 C872 1.378 . S
C880 C875 1.350 . S
C881 H868 0.929 . S
C881 C873 1.433 . S
C881 N883 1.384 . S
N882 C878 1.427 . S
N882 C879 1.384 . S
N883 C875 1.427 . S
N883 C881 1.384 . S
H884 C890 0.930 . S
H885 C894 0.930 . S
H886 C899 0.929 . S
H887 C897 0.929 . S
H888 C892 0.929 . S
H889 C898 0.929 . S
C890 H884 0.930 . S
C890 C891 1.367 . S
C890 C898 1.378 . S
C891 C890 1.367 . S
C891 C899 1.433 . S
C892 H888 0.929 . S
C892 C894 1.378 . S
C892 C896 1.350 . S
C893 C896 1.463 . S
C893 C898 1.350 . S
C893 N901 1.427 . S
C894 H885 0.930 . S
C894 C892 1.378 . S
C894 C895 1.367 . S
C895 C894 1.367 . S
C895 C897 1.433 . S
C896 C892 1.350 . S
C896 C893 1.463 . S
C896 N900 1.427 . S
C897 H887 0.929 . S
C897 C895 1.433 . S
C897 N900 1.384 . S
C898 H889 0.929 . S
C898 C890 1.378 . S
C898 C893 1.350 . S
C899 H886 0.929 . S
C899 C891 1.433 . S
C899 N901 1.384 . S
N900 C896 1.427 . S
N900 C897 1.384 . S
N901 C893 1.427 . S
N901 C899 1.384 . S
H902 C908 0.930 . S
H903 C912 0.930 . S
H904 C917 0.929 . S
H905 C915 0.929 . S
H906 C910 0.929 . S
H907 C916 0.929 . S
C908 H902 0.930 . S
C908 C909 1.367 . S
C908 C916 1.378 . S
C909 C908 1.367 . S
C909 C917 1.433 . S
C910 H906 0.929 . S
C910 C912 1.378 1_554 S
C910 C914 1.350 . S
C911 C914 1.463 . S
C911 C916 1.350 . S
C911 N919 1.427 . S
C912 H903 0.930 . S
C912 C910 1.378 1_556 S
C912 C913 1.367 . S
C913 C912 1.367 . S
C913 C915 1.433 . S
C914 C910 1.350 . S
C914 C911 1.463 . S
C914 N918 1.427 . S
C915 H905 0.929 . S
C915 C913 1.433 . S
C915 N918 1.384 1_556 S
C916 H907 0.929 . S
C916 C908 1.378 . S
C916 C911 1.350 . S
C917 H904 0.929 . S
C917 C909 1.433 . S
C917 N919 1.384 . S
N918 C914 1.427 . S
N918 C915 1.384 1_554 S
N919 C911 1.427 . S
N919 C917 1.384 . S
H920 C926 0.930 . S
H921 C930 0.930 . S
H922 C935 0.929 . S
H923 C933 0.929 . S
H924 C928 0.929 . S
H925 C934 0.929 . S
C926 H920 0.930 . S
C926 C927 1.367 . S
C926 C934 1.378 . S
C927 C926 1.367 . S
C927 C935 1.433 . S
C928 H924 0.929 . S
C928 C930 1.378 . S
C928 C932 1.350 . S
C929 C932 1.463 . S
C929 C934 1.350 . S
C929 N937 1.427 . S
C930 H921 0.930 . S
C930 C928 1.378 . S
C930 C931 1.367 . S
C931 C930 1.367 . S
C931 C933 1.433 . S
C932 C928 1.350 . S
C932 C929 1.463 . S
C932 N936 1.427 . S
C933 H923 0.929 . S
C933 C931 1.433 . S
C933 N936 1.384 . S
C934 H925 0.929 . S
C934 C926 1.378 . S
C934 C929 1.350 . S
C935 H922 0.929 . S
C935 C927 1.433 . S
C935 N937 1.384 . S
N936 C932 1.427 . S
N936 C933 1.384 . S
N937 C929 1.427 . S
N937 C935 1.384 . S
H938 C944 0.930 . S
H939 C948 0.930 . S
H940 C953 0.929 . S
H941 C951 0.929 . S
H942 C946 0.929 . S
H943 C952 0.929 . S
C944 H938 0.930 . S
C944 C945 1.367 . S
C944 C952 1.378 . S
C945 C944 1.367 . S
C945 C953 1.433 . S
C946 H942 0.929 . S
C946 C948 1.378 . S
C946 C950 1.350 . S
C947 C950 1.463 . S
C947 C952 1.350 . S
C947 N955 1.427 . S
C948 H939 0.930 . S
C948 C946 1.378 . S
C948 C949 1.367 . S
C949 C948 1.367 . S
C949 C951 1.433 . S
C950 C946 1.350 . S
C950 C947 1.463 . S
C950 N954 1.427 . S
C951 H941 0.929 . S
C951 C949 1.433 . S
C951 N954 1.384 . S
C952 H943 0.929 . S
C952 C944 1.378 . S
C952 C947 1.350 . S
C953 H940 0.929 . S
C953 C945 1.433 . S
C953 N955 1.384 . S
N954 C950 1.427 . S
N954 C951 1.384 . S
N955 C947 1.427 . S
N955 C953 1.384 . S
H956 C962 0.930 . S
H957 C966 0.930 . S
H958 C971 0.929 . S
H959 C969 0.929 . S
H960 C964 0.929 . S
H961 C970 0.929 . S
C962 H956 0.930 . S
C962 C963 1.367 . S
C962 C970 1.378 . S
C963 C962 1.367 . S
C963 C971 1.433 . S
C964 H960 0.929 . S
C964 C966 1.378 . S
C964 C968 1.350 . S
C965 C968 1.463 . S
C965 C970 1.350 . S
C965 N973 1.427 . S
C966 H957 0.930 . S
C966 C964 1.378 . S
C966 C967 1.367 . S
C967 C966 1.367 . S
C967 C969 1.433 . S
C968 C964 1.350 . S
C968 C965 1.463 . S
C968 N972 1.427 . S
C969 H959 0.929 . S
C969 C967 1.433 . S
C969 N972 1.384 . S
C970 H961 0.929 . S
C970 C962 1.378 . S
C970 C965 1.350 . S
C971 H958 0.929 . S
C971 C963 1.433 . S
C971 N973 1.384 . S
N972 C968 1.427 . S
N972 C969 1.384 . S
N973 C965 1.427 . S
N973 C971 1.384 . S
H974 C980 0.930 . S
H975 C984 0.930 . S
H976 C989 0.929 . S
H977 C987 0.929 . S
H978 C982 0.929 . S
H979 C988 0.929 . S
C980 H974 0.930 . S
C980 C981 1.367 . S
C980 C988 1.378 . S
C981 C980 1.367 . S
C981 C989 1.433 . S
C982 H978 0.929 . S
C982 C984 1.378 1_554 S
C982 C986 1.350 . S
C983 C986 1.463 . S
C983 C988 1.350 . S
C983 N991 1.427 . S
C984 H975 0.930 . S
C984 C982 1.378 1_556 S
C984 C985 1.367 . S
C985 C984 1.367 . S
C985 C987 1.433 . S
C986 C982 1.350 . S
C986 C983 1.463 . S
C986 N990 1.427 . S
C987 H977 0.929 . S
C987 C985 1.433 . S
C987 N990 1.384 1_556 S
C988 H979 0.929 . S
C988 C980 1.378 . S
C988 C983 1.350 . S
C989 H976 0.929 . S
C989 C981 1.433 . S
C989 N991 1.384 . S
N990 C986 1.427 . S
N990 C987 1.384 1_554 S
N991 C983 1.427 . S
N991 C989 1.384 . S
H992 C998 0.930 . S
H993 C1002 0.930 . S
H994 C1007 0.929 . S
H995 C1005 0.929 . S
H996 C1000 0.929 . S
H997 C1006 0.929 . S
C998 H992 0.930 . S
C998 C999 1.367 . S
C998 C1006 1.378 . S
C999 C998 1.367 . S
C999 C1007 1.433 . S
C1000 H996 0.929 . S
C1000 C1002 1.378 . S
C1000 C1004 1.350 . S
C1001 C1004 1.463 . S
C1001 C1006 1.350 . S
C1001 N1009 1.427 . S
C1002 H993 0.930 . S
C1002 C1000 1.378 . S
C1002 C1003 1.367 . S
C1003 C1002 1.367 . S
C1003 C1005 1.433 . S
C1004 C1000 1.350 . S
C1004 C1001 1.463 . S
C1004 N1008 1.427 . S
C1005 H995 0.929 . S
C1005 C1003 1.433 . S
C1005 N1008 1.384 . S
C1006 H997 0.929 . S
C1006 C998 1.378 . S
C1006 C1001 1.350 . S
C1007 H994 0.929 . S
C1007 C999 1.433 . S
C1007 N1009 1.384 . S
N1008 C1004 1.427 . S
N1008 C1005 1.384 . S
N1009 C1001 1.427 . S
N1009 C1007 1.384 . S
H1010 C1016 0.930 . S
H1011 C1020 0.930 . S
H1012 C1025 0.929 . S
H1013 C1023 0.929 . S
H1014 C1018 0.929 . S
H1015 C1024 0.929 . S
C1016 H1010 0.930 . S
C1016 C1017 1.367 . S
C1016 C1024 1.378 . S
C1017 C1016 1.367 . S
C1017 C1025 1.433 . S
C1018 H1014 0.929 . S
C1018 C1020 1.378 . S
C1018 C1022 1.350 . S
C1019 C1022 1.463 1_455 S
C1019 C1024 1.350 . S
C1019 N1027 1.427 . S
C1020 H1011 0.930 . S
C1020 C1018 1.378 . S
C1020 C1021 1.367 . S
C1021 C1020 1.367 . S
C1021 C1023 1.433 . S
C1022 C1018 1.350 . S
C1022 C1019 1.463 1_655 S
C1022 N1026 1.427 . S
C1023 H1013 0.929 . S
C1023 C1021 1.433 . S
C1023 N1026 1.384 . S
C1024 H1015 0.929 . S
C1024 C1016 1.378 . S
C1024 C1019 1.350 . S
C1025 H1012 0.929 . S
C1025 C1017 1.433 . S
C1025 N1027 1.384 . S
N1026 C1022 1.427 . S
N1026 C1023 1.384 . S
N1027 C1019 1.427 . S
N1027 C1025 1.384 . S
H1028 C1034 0.930 . S
H1029 C1038 0.930 . S
H1030 C1043 0.929 . S
H1031 C1041 0.929 . S
H1032 C1036 0.929 . S
H1033 C1042 0.929 . S
C1034 H1028 0.930 . S
C1034 C1035 1.367 . S
C1034 C1042 1.378 . S
C1035 C1034 1.367 . S
C1035 C1043 1.433 . S
C1036 H1032 0.929 . S
C1036 C1038 1.378 . S
C1036 C1040 1.350 . S
C1037 C1040 1.463 . S
C1037 C1042 1.350 . S
C1037 N1045 1.427 . S
C1038 H1029 0.930 . S
C1038 C1036 1.378 . S
C1038 C1039 1.367 . S
C1039 C1038 1.367 . S
C1039 C1041 1.433 . S
C1040 C1036 1.350 . S
C1040 C1037 1.463 . S
C1040 N1044 1.427 . S
C1041 H1031 0.929 . S
C1041 C1039 1.433 . S
C1041 N1044 1.384 . S
C1042 H1033 0.929 . S
C1042 C1034 1.378 . S
C1042 C1037 1.350 . S
C1043 H1030 0.929 . S
C1043 C1035 1.433 . S
C1043 N1045 1.384 . S
N1044 C1040 1.427 . S
N1044 C1041 1.384 . S
N1045 C1037 1.427 . S
N1045 C1043 1.384 . S
H1046 C1052 0.930 . S
H1047 C1056 0.930 . S
H1048 C1061 0.929 . S
H1049 C1059 0.929 . S
H1050 C1054 0.929 . S
H1051 C1060 0.929 . S
C1052 H1046 0.930 . S
C1052 C1053 1.367 . S
C1052 C1060 1.378 . S
C1053 C1052 1.367 . S
C1053 C1061 1.433 . S
C1054 H1050 0.929 . S
C1054 C1056 1.378 . S
C1054 C1058 1.350 . S
C1055 C1058 1.463 . S
C1055 C1060 1.350 . S
C1055 N1063 1.427 . S
C1056 H1047 0.930 . S
C1056 C1054 1.378 . S
C1056 C1057 1.367 . S
C1057 C1056 1.367 . S
C1057 C1059 1.433 . S
C1058 C1054 1.350 . S
C1058 C1055 1.463 . S
C1058 N1062 1.427 . S
C1059 H1049 0.929 . S
C1059 C1057 1.433 . S
C1059 N1062 1.384 . S
C1060 H1051 0.929 . S
C1060 C1052 1.378 . S
C1060 C1055 1.350 . S
C1061 H1048 0.929 . S
C1061 C1053 1.433 . S
C1061 N1063 1.384 . S
N1062 C1058 1.427 . S
N1062 C1059 1.384 . S
N1063 C1055 1.427 . S
N1063 C1061 1.384 . S
H1064 C1070 0.930 . S
H1065 C1074 0.930 1_556 S
H1066 C1079 0.929 1_556 S
H1067 C1077 0.929 . S
H1068 C1072 0.929 1_556 S
H1069 C1078 0.929 . S
C1070 H1064 0.930 . S
C1070 C1071 1.367 . S
C1070 C1078 1.378 . S
C1071 C1070 1.367 . S
C1071 C1079 1.433 . S
C1072 H1068 0.929 1_554 S
C1072 C1074 1.378 . S
C1072 C1076 1.350 . S
C1073 C1076 1.463 . S
C1073 C1078 1.350 . S
C1073 N1081 1.427 . S
C1074 H1065 0.930 1_554 S
C1074 C1072 1.378 . S
C1074 C1075 1.367 . S
C1075 C1074 1.367 . S
C1075 C1077 1.433 . S
C1076 C1072 1.350 . S
C1076 C1073 1.463 . S
C1076 N1080 1.427 . S
C1077 H1067 0.929 . S
C1077 C1075 1.433 . S
C1077 N1080 1.384 . S
C1078 H1069 0.929 . S
C1078 C1070 1.378 . S
C1078 C1073 1.350 . S
C1079 H1066 0.929 1_554 S
C1079 C1071 1.433 . S
C1079 N1081 1.384 . S
N1080 C1076 1.427 . S
N1080 C1077 1.384 . S
N1081 C1073 1.427 . S
N1081 C1079 1.384 . S
H1082 C1088 0.930 . S
H1083 C1092 0.930 . S
H1084 C1097 0.929 . S
H1085 C1095 0.929 . S
H1086 C1090 0.929 . S
H1087 C1096 0.929 . S
C1088 H1082 0.930 . S
C1088 C1089 1.367 . S
C1088 C1096 1.378 . S
C1089 C1088 1.367 . S
C1089 C1097 1.433 . S
C1090 H1086 0.929 . S
C1090 C1092 1.378 . S
C1090 C1094 1.350 . S
C1091 C1094 1.463 . S
C1091 C1096 1.350 . S
C1091 N1099 1.427 . S
C1092 H1083 0.930 . S
C1092 C1090 1.378 . S
C1092 C1093 1.367 . S
C1093 C1092 1.367 . S
C1093 C1095 1.433 . S
C1094 C1090 1.350 . S
C1094 C1091 1.463 . S
C1094 N1098 1.427 . S
C1095 H1085 0.929 . S
C1095 C1093 1.433 . S
C1095 N1098 1.384 . S
C1096 H1087 0.929 . S
C1096 C1088 1.378 . S
C1096 C1091 1.350 . S
C1097 H1084 0.929 . S
C1097 C1089 1.433 . S
C1097 N1099 1.384 . S
N1098 C1094 1.427 . S
N1098 C1095 1.384 . S
N1099 C1091 1.427 . S
N1099 C1097 1.384 . S
H1100 C1106 0.930 . S
H1101 C1110 0.930 . S
H1102 C1115 0.929 . S
H1103 C1113 0.929 . S
H1104 C1108 0.929 . S
H1105 C1114 0.929 . S
C1106 H1100 0.930 . S
C1106 C1107 1.367 . S
C1106 C1114 1.378 . S
C1107 C1106 1.367 . S
C1107 C1115 1.433 . S
C1108 H1104 0.929 . S
C1108 C1110 1.378 . S
C1108 C1112 1.350 . S
C1109 C1112 1.463 . S
C1109 C1114 1.350 . S
C1109 N1117 1.427 . S
C1110 H1101 0.930 . S
C1110 C1108 1.378 . S
C1110 C1111 1.367 . S
C1111 C1110 1.367 . S
C1111 C1113 1.433 . S
C1112 C1108 1.350 . S
C1112 C1109 1.463 . S
C1112 N1116 1.427 . S
C1113 H1103 0.929 . S
C1113 C1111 1.433 . S
C1113 N1116 1.384 . S
C1114 H1105 0.929 . S
C1114 C1106 1.378 . S
C1114 C1109 1.350 . S
C1115 H1102 0.929 . S
C1115 C1107 1.433 . S
C1115 N1117 1.384 . S
N1116 C1112 1.427 . S
N1116 C1113 1.384 . S
N1117 C1109 1.427 . S
N1117 C1115 1.384 . S
H1118 C1124 0.930 . S
H1119 C1128 0.930 . S
H1120 C1133 0.929 . S
H1121 C1131 0.929 . S
H1122 C1126 0.929 . S
H1123 C1132 0.929 . S
C1124 H1118 0.930 . S
C1124 C1125 1.367 . S
C1124 C1132 1.378 . S
C1125 C1124 1.367 . S
C1125 C1133 1.433 . S
C1126 H1122 0.929 . S
C1126 C1128 1.378 . S
C1126 C1130 1.350 . S
C1127 C1130 1.463 1_655 S
C1127 C1132 1.350 . S
C1127 N1135 1.427 . S
C1128 H1119 0.930 . S
C1128 C1126 1.378 . S
C1128 C1129 1.367 . S
C1129 C1128 1.367 . S
C1129 C1131 1.433 . S
C1130 C1126 1.350 . S
C1130 C1127 1.463 1_455 S
C1130 N1134 1.427 . S
C1131 H1121 0.929 . S
C1131 C1129 1.433 . S
C1131 N1134 1.384 . S
C1132 H1123 0.929 . S
C1132 C1124 1.378 . S
C1132 C1127 1.350 . S
C1133 H1120 0.929 . S
C1133 C1125 1.433 . S
C1133 N1135 1.384 . S
N1134 C1130 1.427 . S
N1134 C1131 1.384 . S
N1135 C1127 1.427 . S
N1135 C1133 1.384 . S
H1136 C1142 0.930 . S
H1137 C1146 0.930 . S
H1138 C1151 0.929 . S
H1139 C1149 0.929 . S
H1140 C1144 0.929 . S
H1141 C1150 0.929 . S
C1142 H1136 0.930 . S
C1142 C1143 1.367 . S
C1142 C1150 1.378 . S
C1143 C1142 1.367 . S
C1143 C1151 1.433 . S
C1144 H1140 0.929 . S
C1144 C1146 1.378 . S
C1144 C1148 1.350 . S
C1145 C1148 1.463 . S
C1145 C1150 1.350 . S
C1145 N1153 1.427 . S
C1146 H1137 0.930 . S
C1146 C1144 1.378 . S
C1146 C1147 1.367 . S
C1147 C1146 1.367 . S
C1147 C1149 1.433 . S
C1148 C1144 1.350 . S
C1148 C1145 1.463 . S
C1148 N1152 1.427 . S
C1149 H1139 0.929 . S
C1149 C1147 1.433 . S
C1149 N1152 1.384 . S
C1150 H1141 0.929 . S
C1150 C1142 1.378 . S
C1150 C1145 1.350 . S
C1151 H1138 0.929 . S
C1151 C1143 1.433 . S
C1151 N1153 1.384 . S
N1152 C1148 1.427 . S
N1152 C1149 1.384 . S
N1153 C1145 1.427 . S
N1153 C1151 1.384 . S
H1154 C1160 0.930 . S
H1155 C1164 0.930 . S
H1156 C1169 0.929 . S
H1157 C1167 0.929 . S
H1158 C1162 0.929 . S
H1159 C1168 0.929 . S
C1160 H1154 0.930 . S
C1160 C1161 1.367 . S
C1160 C1168 1.378 . S
C1161 C1160 1.367 . S
C1161 C1169 1.433 . S
C1162 H1158 0.929 . S
C1162 C1164 1.378 . S
C1162 C1166 1.350 . S
C1163 C1166 1.463 . S
C1163 C1168 1.350 . S
C1163 N1171 1.427 . S
C1164 H1155 0.930 . S
C1164 C1162 1.378 . S
C1164 C1165 1.367 . S
C1165 C1164 1.367 . S
C1165 C1167 1.433 . S
C1166 C1162 1.350 . S
C1166 C1163 1.463 . S
C1166 N1170 1.427 . S
C1167 H1157 0.929 . S
C1167 C1165 1.433 . S
C1167 N1170 1.384 . S
C1168 H1159 0.929 . S
C1168 C1160 1.378 . S
C1168 C1163 1.350 . S
C1169 H1156 0.929 . S
C1169 C1161 1.433 . S
C1169 N1171 1.384 . S
N1170 C1166 1.427 . S
N1170 C1167 1.384 . S
N1171 C1163 1.427 . S
N1171 C1169 1.384 . S
H1172 C1178 0.930 . S
H1173 C1182 0.930 . S
H1174 C1187 0.929 . S
H1175 C1185 0.929 . S
H1176 C1180 0.929 . S
H1177 C1186 0.929 . S
C1178 H1172 0.930 . S
C1178 C1179 1.367 . S
C1178 C1186 1.378 . S
C1179 C1178 1.367 . S
C1179 C1187 1.433 . S
C1180 H1176 0.929 . S
C1180 C1182 1.378 . S
C1180 C1184 1.350 . S
C1181 C1184 1.463 . S
C1181 C1186 1.350 . S
C1181 N1189 1.427 . S
C1182 H1173 0.930 . S
C1182 C1180 1.378 . S
C1182 C1183 1.367 . S
C1183 C1182 1.367 . S
C1183 C1185 1.433 . S
C1184 C1180 1.350 . S
C1184 C1181 1.463 . S
C1184 N1188 1.427 . S
C1185 H1175 0.929 . S
C1185 C1183 1.433 . S
C1185 N1188 1.384 . S
C1186 H1177 0.929 . S
C1186 C1178 1.378 . S
C1186 C1181 1.350 . S
C1187 H1174 0.929 . S
C1187 C1179 1.433 . S
C1187 N1189 1.384 . S
N1188 C1184 1.427 . S
N1188 C1185 1.384 . S
N1189 C1181 1.427 . S
N1189 C1187 1.384 . S
H1190 C1196 0.930 . S
H1191 C1200 0.930 . S
H1192 C1205 0.929 . S
H1193 C1203 0.929 . S
H1194 C1198 0.929 . S
H1195 C1204 0.929 . S
C1196 H1190 0.930 . S
C1196 C1197 1.367 . S
C1196 C1204 1.378 . S
C1197 C1196 1.367 . S
C1197 C1205 1.433 . S
C1198 H1194 0.929 . S
C1198 C1200 1.378 . S
C1198 C1202 1.350 . S
C1199 C1202 1.463 . S
C1199 C1204 1.350 . S
C1199 N1207 1.427 . S
C1200 H1191 0.930 . S
C1200 C1198 1.378 . S
C1200 C1201 1.367 . S
C1201 C1200 1.367 . S
C1201 C1203 1.433 . S
C1202 C1198 1.350 . S
C1202 C1199 1.463 . S
C1202 N1206 1.427 . S
C1203 H1193 0.929 . S
C1203 C1201 1.433 . S
C1203 N1206 1.384 . S
C1204 H1195 0.929 . S
C1204 C1196 1.378 . S
C1204 C1199 1.350 . S
C1205 H1192 0.929 . S
C1205 C1197 1.433 . S
C1205 N1207 1.384 . S
N1206 C1202 1.427 . S
N1206 C1203 1.384 . S
N1207 C1199 1.427 . S
N1207 C1205 1.384 . S
H1208 C1214 0.930 . S
H1209 C1218 0.930 . S
H1210 C1223 0.929 . S
H1211 C1221 0.929 . S
H1212 C1216 0.929 . S
H1213 C1222 0.929 . S
C1214 H1208 0.930 . S
C1214 C1215 1.367 . S
C1214 C1222 1.378 . S
C1215 C1214 1.367 . S
C1215 C1223 1.433 . S
C1216 H1212 0.929 . S
C1216 C1218 1.378 . S
C1216 C1220 1.350 . S
C1217 C1220 1.463 . S
C1217 C1222 1.350 . S
C1217 N1225 1.427 . S
C1218 H1209 0.930 . S
C1218 C1216 1.378 . S
C1218 C1219 1.367 . S
C1219 C1218 1.367 . S
C1219 C1221 1.433 . S
C1220 C1216 1.350 . S
C1220 C1217 1.463 . S
C1220 N1224 1.427 . S
C1221 H1211 0.929 . S
C1221 C1219 1.433 . S
C1221 N1224 1.384 . S
C1222 H1213 0.929 . S
C1222 C1214 1.378 . S
C1222 C1217 1.350 . S
C1223 H1210 0.929 . S
C1223 C1215 1.433 . S
C1223 N1225 1.384 . S
N1224 C1220 1.427 . S
N1224 C1221 1.384 . S
N1225 C1217 1.427 . S
N1225 C1223 1.384 . S
H1226 C1232 0.930 . S
H1227 C1236 0.930 . S
H1228 C1241 0.929 . S
H1229 C1239 0.929 . S
H1230 C1234 0.929 . S
H1231 C1240 0.929 . S
C1232 H1226 0.930 . S
C1232 C1233 1.367 . S
C1232 C1240 1.378 . S
C1233 C1232 1.367 . S
C1233 C1241 1.433 . S
C1234 H1230 0.929 . S
C1234 C1236 1.378 . S
C1234 C1238 1.350 . S
C1235 C1238 1.463 1_655 S
C1235 C1240 1.350 . S
C1235 N1243 1.427 . S
C1236 H1227 0.930 . S
C1236 C1234 1.378 . S
C1236 C1237 1.367 . S
C1237 C1236 1.367 . S
C1237 C1239 1.433 . S
C1238 C1234 1.350 . S
C1238 C1235 1.463 1_455 S
C1238 N1242 1.427 . S
C1239 H1229 0.929 . S
C1239 C1237 1.433 . S
C1239 N1242 1.384 . S
C1240 H1231 0.929 . S
C1240 C1232 1.378 . S
C1240 C1235 1.350 . S
C1241 H1228 0.929 . S
C1241 C1233 1.433 . S
C1241 N1243 1.384 . S
N1242 C1238 1.427 . S
N1242 C1239 1.384 . S
N1243 C1235 1.427 . S
N1243 C1241 1.384 . S
H1244 C1250 0.930 . S
H1245 C1254 0.930 . S
H1246 C1259 0.929 . S
H1247 C1257 0.929 . S
H1248 C1252 0.929 . S
H1249 C1258 0.929 . S
C1250 H1244 0.930 . S
C1250 C1251 1.367 . S
C1250 C1258 1.378 . S
C1251 C1250 1.367 . S
C1251 C1259 1.433 . S
C1252 H1248 0.929 . S
C1252 C1254 1.378 . S
C1252 C1256 1.350 . S
C1253 C1256 1.463 1_655 S
C1253 C1258 1.350 . S
C1253 N1261 1.427 . S
C1254 H1245 0.930 . S
C1254 C1252 1.378 . S
C1254 C1255 1.367 . S
C1255 C1254 1.367 . S
C1255 C1257 1.433 . S
C1256 C1252 1.350 . S
C1256 C1253 1.463 1_455 S
C1256 N1260 1.427 . S
C1257 H1247 0.929 . S
C1257 C1255 1.433 . S
C1257 N1260 1.384 . S
C1258 H1249 0.929 . S
C1258 C1250 1.378 . S
C1258 C1253 1.350 . S
C1259 H1246 0.929 . S
C1259 C1251 1.433 . S
C1259 N1261 1.384 . S
N1260 C1256 1.427 . S
N1260 C1257 1.384 . S
N1261 C1253 1.427 . S
N1261 C1259 1.384 . S
H1262 C1268 0.930 . S
H1263 C1272 0.930 . S
H1264 C1277 0.929 . S
H1265 C1275 0.929 . S
H1266 C1270 0.929 . S
H1267 C1276 0.929 . S
C1268 H1262 0.930 . S
C1268 C1269 1.367 . S
C1268 C1276 1.378 . S
C1269 C1268 1.367 . S
C1269 C1277 1.433 . S
C1270 H1266 0.929 . S
C1270 C1272 1.378 . S
C1270 C1274 1.350 . S
C1271 C1274 1.463 . S
C1271 C1276 1.350 . S
C1271 N1279 1.427 . S
C1272 H1263 0.930 . S
C1272 C1270 1.378 . S
C1272 C1273 1.367 . S
C1273 C1272 1.367 . S
C1273 C1275 1.433 . S
C1274 C1270 1.350 . S
C1274 C1271 1.463 . S
C1274 N1278 1.427 . S
C1275 H1265 0.929 . S
C1275 C1273 1.433 . S
C1275 N1278 1.384 . S
C1276 H1267 0.929 . S
C1276 C1268 1.378 . S
C1276 C1271 1.350 . S
C1277 H1264 0.929 . S
C1277 C1269 1.433 . S
C1277 N1279 1.384 . S
N1278 C1274 1.427 . S
N1278 C1275 1.384 . S
N1279 C1271 1.427 . S
N1279 C1277 1.384 . S
H1280 C1286 0.930 . S
H1281 C1290 0.930 . S
H1282 C1295 0.929 . S
H1283 C1293 0.929 . S
H1284 C1288 0.929 . S
H1285 C1294 0.929 . S
C1286 H1280 0.930 . S
C1286 C1287 1.367 . S
C1286 C1294 1.378 . S
C1287 C1286 1.367 . S
C1287 C1295 1.433 . S
C1288 H1284 0.929 . S
C1288 C1290 1.378 . S
C1288 C1292 1.350 . S
C1289 C1292 1.463 . S
C1289 C1294 1.350 . S
C1289 N1297 1.427 . S
C1290 H1281 0.930 . S
C1290 C1288 1.378 . S
C1290 C1291 1.367 . S
C1291 C1290 1.367 . S
C1291 C1293 1.433 . S
C1292 C1288 1.350 . S
C1292 C1289 1.463 . S
C1292 N1296 1.427 . S
C1293 H1283 0.929 . S
C1293 C1291 1.433 . S
C1293 N1296 1.384 . S
C1294 H1285 0.929 . S
C1294 C1286 1.378 . S
C1294 C1289 1.350 . S
C1295 H1282 0.929 . S
C1295 C1287 1.433 . S
C1295 N1297 1.384 . S
N1296 C1292 1.427 . S
N1296 C1293 1.384 . S
N1297 C1289 1.427 . S
N1297 C1295 1.384 . S
H1298 C1304 0.930 . S
H1299 C1308 0.930 . S
H1300 C1313 0.930 . S
H1301 C1311 0.945 . S
H1302 C1306 0.929 . S
H1303 C1312 0.929 . S
C1304 H1298 0.930 . S
C1304 C1305 1.367 . S
C1304 C1312 1.378 . S
C1305 C1304 1.367 . S
C1305 C1313 1.431 1_565 S
C1306 H1302 0.929 . S
C1306 C1308 1.378 . S
C1306 C1310 1.350 . S
C1307 C1310 1.463 1_565 S
C1307 C1312 1.350 . S
C1307 N1315 1.427 1_565 S
C1308 H1299 0.930 . S
C1308 C1306 1.378 . S
C1308 C1309 1.367 . S
C1309 C1308 1.367 . S
C1309 C1311 1.408 1_545 S
C1310 C1306 1.350 . S
C1310 C1307 1.463 1_545 S
C1310 N1314 1.427 1_545 S
C1311 H1301 0.945 . S
C1311 C1309 1.408 1_565 S
C1311 N1314 1.394 . S
C1312 H1303 0.929 . S
C1312 C1304 1.378 . S
C1312 C1307 1.350 . S
C1313 H1300 0.930 . S
C1313 C1305 1.431 1_545 S
C1313 N1315 1.384 . S
N1314 C1310 1.427 1_565 S
N1314 C1311 1.394 . S
N1315 C1307 1.427 1_545 S
N1315 C1313 1.384 . S
H1316 C1322 0.930 . S
H1317 C1326 0.930 . S
H1318 C1331 0.929 . S
H1319 C1329 0.929 . S
H1320 C1324 0.929 . S
H1321 C1330 0.929 . S
C1322 H1316 0.930 . S
C1322 C1323 1.367 . S
C1322 C1330 1.378 . S
C1323 C1322 1.367 . S
C1323 C1331 1.433 . S
C1324 H1320 0.929 . S
C1324 C1326 1.378 . S
C1324 C1328 1.350 . S
C1325 C1328 1.463 . S
C1325 C1330 1.350 . S
C1325 N1333 1.427 . S
C1326 H1317 0.930 . S
C1326 C1324 1.378 . S
C1326 C1327 1.367 . S
C1327 C1326 1.367 . S
C1327 C1329 1.433 . S
C1328 C1324 1.350 . S
C1328 C1325 1.463 . S
C1328 N1332 1.427 . S
C1329 H1319 0.929 . S
C1329 C1327 1.433 . S
C1329 N1332 1.384 . S
C1330 H1321 0.929 . S
C1330 C1322 1.378 . S
C1330 C1325 1.350 . S
C1331 H1318 0.929 . S
C1331 C1323 1.433 . S
C1331 N1333 1.384 . S
N1332 C1328 1.427 . S
N1332 C1329 1.384 . S
N1333 C1325 1.427 . S
N1333 C1331 1.384 . S
H1334 C1340 0.930 . S
H1335 C1344 0.930 . S
H1336 C1349 0.922 1_565 S
H1337 C1347 0.909 1_545 S
H1338 C1342 0.929 . S
H1339 C1348 0.929 . S
C1340 H1334 0.930 . S
C1340 C1341 1.367 . S
C1340 C1348 1.378 1_556 S
C1341 C1340 1.367 . S
C1341 C1349 1.446 . S
C1342 H1338 0.929 . S
C1342 C1344 1.378 . S
C1342 C1346 1.350 . S
C1343 C1346 1.463 1_545 S
C1343 C1348 1.350 . S
C1343 N1351 1.427 1_545 S
C1344 H1335 0.930 . S
C1344 C1342 1.378 . S
C1344 C1345 1.367 . S
C1345 C1344 1.367 . S
C1345 C1347 1.471 . S
C1346 C1342 1.350 . S
C1346 C1343 1.463 1_565 S
C1346 N1350 1.427 1_565 S
C1347 H1337 0.909 1_565 S
C1347 C1345 1.471 . S
C1347 N1350 1.369 1_565 S
C1348 H1339 0.929 . S
C1348 C1340 1.378 1_554 S
C1348 C1343 1.350 . S
C1349 H1336 0.922 1_545 S
C1349 C1341 1.446 . S
C1349 N1351 1.378 1_546 S
N1350 C1346 1.427 1_545 S
N1350 C1347 1.369 1_545 S
N1351 C1343 1.427 1_565 S
N1351 C1349 1.378 1_564 S
H1352 C1358 0.930 . S
H1353 C1362 0.930 . S
H1354 C1367 0.929 . S
H1355 C1365 0.929 . S
H1356 C1360 0.929 . S
H1357 C1366 0.929 . S
C1358 H1352 0.930 . S
C1358 C1359 1.367 . S
C1358 C1366 1.378 . S
C1359 C1358 1.367 . S
C1359 C1367 1.433 . S
C1360 H1356 0.929 . S
C1360 C1362 1.378 . S
C1360 C1364 1.350 . S
C1361 C1364 1.463 . S
C1361 C1366 1.350 . S
C1361 N1369 1.427 . S
C1362 H1353 0.930 . S
C1362 C1360 1.378 . S
C1362 C1363 1.367 . S
C1363 C1362 1.367 . S
C1363 C1365 1.433 . S
C1364 C1360 1.350 . S
C1364 C1361 1.463 . S
C1364 N1368 1.427 . S
C1365 H1355 0.929 . S
C1365 C1363 1.433 . S
C1365 N1368 1.384 . S
C1366 H1357 0.929 . S
C1366 C1358 1.378 . S
C1366 C1361 1.350 . S
C1367 H1354 0.929 . S
C1367 C1359 1.433 . S
C1367 N1369 1.384 . S
N1368 C1364 1.427 . S
N1368 C1365 1.384 . S
N1369 C1361 1.427 . S
N1369 C1367 1.384 . S
H1370 C1376 0.930 . S
H1371 C1380 0.930 . S
H1372 C1385 0.929 . S
H1373 C1383 0.929 . S
H1374 C1378 0.929 . S
H1375 C1384 0.929 . S
C1376 H1370 0.930 . S
C1376 C1377 1.367 . S
C1376 C1384 1.378 . S
C1377 C1376 1.367 . S
C1377 C1385 1.433 1_545 S
C1378 H1374 0.929 . S
C1378 C1380 1.378 . S
C1378 C1382 1.350 . S
C1379 C1382 1.463 1_545 S
C1379 C1384 1.350 . S
C1379 N1387 1.427 1_545 S
C1380 H1371 0.930 . S
C1380 C1378 1.378 . S
C1380 C1381 1.367 . S
C1381 C1380 1.367 . S
C1381 C1383 1.433 1_565 S
C1382 C1378 1.350 . S
C1382 C1379 1.463 1_565 S
C1382 N1386 1.427 1_565 S
C1383 H1373 0.929 . S
C1383 C1381 1.433 1_545 S
C1383 N1386 1.384 . S
C1384 H1375 0.929 . S
C1384 C1376 1.378 . S
C1384 C1379 1.350 . S
C1385 H1372 0.929 . S
C1385 C1377 1.433 1_565 S
C1385 N1387 1.384 . S
N1386 C1382 1.427 1_545 S
N1386 C1383 1.384 . S
N1387 C1379 1.427 1_565 S
N1387 C1385 1.384 . S
H1388 C1394 0.930 . S
H1389 C1398 0.930 . S
H1390 C1403 0.929 . S
H1391 C1401 0.929 . S
H1392 C1396 0.929 . S
H1393 C1402 0.929 . S
C1394 H1388 0.930 . S
C1394 C1395 1.367 . S
C1394 C1402 1.378 . S
C1395 C1394 1.367 . S
C1395 C1403 1.433 . S
C1396 H1392 0.929 . S
C1396 C1398 1.378 . S
C1396 C1400 1.350 . S
C1397 C1400 1.463 . S
C1397 C1402 1.350 . S
C1397 N1405 1.427 . S
C1398 H1389 0.930 . S
C1398 C1396 1.378 . S
C1398 C1399 1.367 . S
C1399 C1398 1.367 . S
C1399 C1401 1.433 . S
C1400 C1396 1.350 . S
C1400 C1397 1.463 . S
C1400 N1404 1.427 . S
C1401 H1391 0.929 . S
C1401 C1399 1.433 . S
C1401 N1404 1.384 . S
C1402 H1393 0.929 . S
C1402 C1394 1.378 . S
C1402 C1397 1.350 . S
C1403 H1390 0.929 . S
C1403 C1395 1.433 . S
C1403 N1405 1.384 . S
N1404 C1400 1.427 . S
N1404 C1401 1.384 . S
N1405 C1397 1.427 . S
N1405 C1403 1.384 . S
H1406 C1412 0.930 . S
H1407 C1416 0.930 . S
H1408 C1421 0.947 . S
H1409 C1419 0.964 . S
H1410 C1414 0.929 . S
H1411 C1420 0.929 . S
C1412 H1406 0.930 . S
C1412 C1413 1.367 . S
C1412 C1420 1.378 . S
C1413 C1412 1.367 . S
C1413 C1421 1.404 1_565 S
C1414 H1410 0.929 . S
C1414 C1416 1.378 1_554 S
C1414 C1418 1.350 . S
C1415 C1418 1.463 1_565 S
C1415 C1420 1.350 . S
C1415 N1423 1.427 1_565 S
C1416 H1407 0.930 . S
C1416 C1414 1.378 1_556 S
C1416 C1417 1.367 . S
C1417 C1416 1.367 . S
C1417 C1419 1.378 1_545 S
C1418 C1414 1.350 . S
C1418 C1415 1.463 1_545 S
C1418 N1422 1.427 1_545 S
C1419 H1409 0.964 . S
C1419 C1417 1.378 1_565 S
C1419 N1422 1.406 1_556 S
C1420 H1411 0.929 . S
C1420 C1412 1.378 . S
C1420 C1415 1.350 . S
C1421 H1408 0.947 . S
C1421 C1413 1.404 1_545 S
C1421 N1423 1.395 . S
N1422 C1418 1.427 1_565 S
N1422 C1419 1.406 1_554 S
N1423 C1415 1.427 1_545 S
N1423 C1421 1.395 . S
H1424 C1430 0.930 . S
H1425 C1434 0.930 . S
H1426 C1439 0.929 . S
H1427 C1437 0.929 . S
H1428 C1432 0.929 . S
H1429 C1438 0.929 . S
C1430 H1424 0.930 . S
C1430 C1431 1.367 . S
C1430 C1438 1.378 . S
C1431 C1430 1.367 . S
C1431 C1439 1.433 . S
C1432 H1428 0.929 . S
C1432 C1434 1.378 . S
C1432 C1436 1.350 . S
C1433 C1436 1.463 . S
C1433 C1438 1.350 . S
C1433 N1441 1.427 . S
C1434 H1425 0.930 . S
C1434 C1432 1.378 . S
C1434 C1435 1.367 . S
C1435 C1434 1.367 . S
C1435 C1437 1.433 . S
C1436 C1432 1.350 . S
C1436 C1433 1.463 . S
C1436 N1440 1.427 . S
C1437 H1427 0.929 . S
C1437 C1435 1.433 . S
C1437 N1440 1.384 . S
C1438 H1429 0.929 . S
C1438 C1430 1.378 . S
C1438 C1433 1.350 . S
C1439 H1426 0.929 . S
C1439 C1431 1.433 . S
C1439 N1441 1.384 . S
N1440 C1436 1.427 . S
N1440 C1437 1.384 . S
N1441 C1433 1.427 . S
N1441 C1439 1.384 . S
H1442 C1448 0.930 . S
H1443 C1452 0.930 . S
H1444 C1457 0.929 . S
H1445 C1455 0.929 . S
H1446 C1450 0.929 . S
H1447 C1456 0.929 . S
C1448 H1442 0.930 . S
C1448 C1449 1.367 . S
C1448 C1456 1.378 . S
C1449 C1448 1.367 . S
C1449 C1457 1.433 . S
C1450 H1446 0.929 . S
C1450 C1452 1.378 1_554 S
C1450 C1454 1.350 . S
C1451 C1454 1.463 . S
C1451 C1456 1.350 . S
C1451 N1459 1.427 . S
C1452 H1443 0.930 . S
C1452 C1450 1.378 1_556 S
C1452 C1453 1.367 . S
C1453 C1452 1.367 . S
C1453 C1455 1.433 . S
C1454 C1450 1.350 . S
C1454 C1451 1.463 . S
C1454 N1458 1.427 . S
C1455 H1445 0.929 . S
C1455 C1453 1.433 . S
C1455 N1458 1.384 1_556 S
C1456 H1447 0.929 . S
C1456 C1448 1.378 . S
C1456 C1451 1.350 . S
C1457 H1444 0.929 . S
C1457 C1449 1.433 . S
C1457 N1459 1.384 . S
N1458 C1454 1.427 . S
N1458 C1455 1.384 1_554 S
N1459 C1451 1.427 . S
N1459 C1457 1.384 . S
H1460 C1466 0.930 . S
H1461 C1470 0.930 . S
H1462 C1475 0.929 . S
H1463 C1473 0.929 . S
H1464 C1468 0.929 . S
H1465 C1474 0.929 . S
C1466 H1460 0.930 . S
C1466 C1467 1.367 . S
C1466 C1474 1.378 . S
C1467 C1466 1.367 . S
C1467 C1475 1.433 . S
C1468 H1464 0.929 . S
C1468 C1470 1.378 . S
C1468 C1472 1.350 . S
C1469 C1472 1.463 . S
C1469 C1474 1.350 . S
C1469 N1477 1.427 . S
C1470 H1461 0.930 . S
C1470 C1468 1.378 . S
C1470 C1471 1.367 . S
C1471 C1470 1.367 . S
C1471 C1473 1.433 . S
C1472 C1468 1.350 . S
C1472 C1469 1.463 . S
C1472 N1476 1.427 . S
C1473 H1463 0.929 . S
C1473 C1471 1.433 . S
C1473 N1476 1.384 . S
C1474 H1465 0.929 . S
C1474 C1466 1.378 . S
C1474 C1469 1.350 . S
C1475 H1462 0.929 . S
C1475 C1467 1.433 . S
C1475 N1477 1.384 . S
N1476 C1472 1.427 . S
N1476 C1473 1.384 . S
N1477 C1469 1.427 . S
N1477 C1475 1.384 . S
H1478 C1484 0.930 . S
H1479 C1488 0.930 . S
H1480 C1493 0.929 . S
H1481 C1491 0.929 . S
H1482 C1486 0.929 . S
H1483 C1492 0.929 . S
C1484 H1478 0.930 . S
C1484 C1485 1.367 . S
C1484 C1492 1.378 . S
C1485 C1484 1.367 . S
C1485 C1493 1.433 . S
C1486 H1482 0.929 . S
C1486 C1488 1.378 . S
C1486 C1490 1.350 . S
C1487 C1490 1.463 . S
C1487 C1492 1.350 . S
C1487 N1495 1.427 . S
C1488 H1479 0.930 . S
C1488 C1486 1.378 . S
C1488 C1489 1.367 . S
C1489 C1488 1.367 . S
C1489 C1491 1.433 . S
C1490 C1486 1.350 . S
C1490 C1487 1.463 . S
C1490 N1494 1.427 . S
C1491 H1481 0.929 . S
C1491 C1489 1.433 . S
C1491 N1494 1.384 . S
C1492 H1483 0.929 . S
C1492 C1484 1.378 . S
C1492 C1487 1.350 . S
C1493 H1480 0.929 . S
C1493 C1485 1.433 . S
C1493 N1495 1.384 . S
N1494 C1490 1.427 . S
N1494 C1491 1.384 . S
N1495 C1487 1.427 . S
N1495 C1493 1.384 . S
H1496 C1502 0.930 . S
H1497 C1506 0.930 . S
H1498 C1511 0.929 . S
H1499 C1509 0.929 . S
H1500 C1504 0.929 . S
H1501 C1510 0.929 . S
C1502 H1496 0.930 . S
C1502 C1503 1.367 . S
C1502 C1510 1.378 . S
C1503 C1502 1.367 . S
C1503 C1511 1.433 . S
C1504 H1500 0.929 . S
C1504 C1506 1.378 . S
C1504 C1508 1.350 . S
C1505 C1508 1.463 . S
C1505 C1510 1.350 . S
C1505 N1513 1.427 . S
C1506 H1497 0.930 . S
C1506 C1504 1.378 . S
C1506 C1507 1.367 . S
C1507 C1506 1.367 . S
C1507 C1509 1.433 . S
C1508 C1504 1.350 . S
C1508 C1505 1.463 . S
C1508 N1512 1.427 . S
C1509 H1499 0.929 . S
C1509 C1507 1.433 . S
C1509 N1512 1.384 . S
C1510 H1501 0.929 . S
C1510 C1502 1.378 . S
C1510 C1505 1.350 . S
C1511 H1498 0.929 . S
C1511 C1503 1.433 . S
C1511 N1513 1.384 . S
N1512 C1508 1.427 . S
N1512 C1509 1.384 . S
N1513 C1505 1.427 . S
N1513 C1511 1.384 . S
H1514 C1520 0.930 . S
H1515 C1524 0.930 . S
H1516 C1529 0.929 . S
H1517 C1527 0.929 . S
H1518 C1522 0.929 . S
H1519 C1528 0.929 . S
C1520 H1514 0.930 . S
C1520 C1521 1.367 . S
C1520 C1528 1.378 1_556 S
C1521 C1520 1.367 . S
C1521 C1529 1.433 . S
C1522 H1518 0.929 . S
C1522 C1524 1.378 . S
C1522 C1526 1.350 . S
C1523 C1526 1.463 . S
C1523 C1528 1.350 . S
C1523 N1531 1.427 . S
C1524 H1515 0.930 . S
C1524 C1522 1.378 . S
C1524 C1525 1.367 . S
C1525 C1524 1.367 . S
C1525 C1527 1.433 . S
C1526 C1522 1.350 . S
C1526 C1523 1.463 . S
C1526 N1530 1.427 . S
C1527 H1517 0.929 . S
C1527 C1525 1.433 . S
C1527 N1530 1.384 . S
C1528 H1519 0.929 . S
C1528 C1520 1.378 1_554 S
C1528 C1523 1.350 . S
C1529 H1516 0.929 . S
C1529 C1521 1.433 . S
C1529 N1531 1.384 1_556 S
N1530 C1526 1.427 . S
N1530 C1527 1.384 . S
N1531 C1523 1.427 . S
N1531 C1529 1.384 1_554 S
H1532 C1538 0.930 . S
H1533 C1542 0.930 . S
H1534 C1547 0.929 . S
H1535 C1545 0.929 . S
H1536 C1540 0.929 . S
H1537 C1546 0.929 . S
C1538 H1532 0.930 . S
C1538 C1539 1.367 . S
C1538 C1546 1.378 . S
C1539 C1538 1.367 . S
C1539 C1547 1.433 . S
C1540 H1536 0.929 . S
C1540 C1542 1.378 . S
C1540 C1544 1.350 . S
C1541 C1544 1.463 . S
C1541 C1546 1.350 . S
C1541 N1549 1.427 . S
C1542 H1533 0.930 . S
C1542 C1540 1.378 . S
C1542 C1543 1.367 . S
C1543 C1542 1.367 . S
C1543 C1545 1.433 . S
C1544 C1540 1.350 . S
C1544 C1541 1.463 . S
C1544 N1548 1.427 . S
C1545 H1535 0.929 . S
C1545 C1543 1.433 . S
C1545 N1548 1.384 . S
C1546 H1537 0.929 . S
C1546 C1538 1.378 . S
C1546 C1541 1.350 . S
C1547 H1534 0.929 . S
C1547 C1539 1.433 . S
C1547 N1549 1.384 . S
N1548 C1544 1.427 . S
N1548 C1545 1.384 . S
N1549 C1541 1.427 . S
N1549 C1547 1.384 . S
H1550 C1556 0.930 . S
H1551 C1560 0.930 . S
H1552 C1565 0.929 . S
H1553 C1563 0.929 . S
H1554 C1558 0.929 . S
H1555 C1564 0.929 . S
C1556 H1550 0.930 . S
C1556 C1557 1.367 . S
C1556 C1564 1.378 . S
C1557 C1556 1.367 . S
C1557 C1565 1.433 . S
C1558 H1554 0.929 . S
C1558 C1560 1.378 . S
C1558 C1562 1.350 . S
C1559 C1562 1.463 . S
C1559 C1564 1.350 . S
C1559 N1567 1.427 . S
C1560 H1551 0.930 . S
C1560 C1558 1.378 . S
C1560 C1561 1.367 . S
C1561 C1560 1.367 . S
C1561 C1563 1.433 . S
C1562 C1558 1.350 . S
C1562 C1559 1.463 . S
C1562 N1566 1.427 . S
C1563 H1553 0.929 . S
C1563 C1561 1.433 . S
C1563 N1566 1.384 . S
C1564 H1555 0.929 . S
C1564 C1556 1.378 . S
C1564 C1559 1.350 . S
C1565 H1552 0.929 . S
C1565 C1557 1.433 . S
C1565 N1567 1.384 . S
N1566 C1562 1.427 . S
N1566 C1563 1.384 . S
N1567 C1559 1.427 . S
N1567 C1565 1.384 . S
C423 C101 1.605 . S
C427 C4 1.606 . S
C441 C17 1.603 . S
C445 C56 1.602 . S
C459 C75 1.602 . S
C463 C36 1.603 . S
C477 C43 1.607 . S
C481 C88 1.607 . S
C495 C108 1.605 . S
C499 C205 1.604 . S
C513 C121 1.597 . S
C517 C166 1.597 . S
C531 C134 1.607 . S
C535 C179 1.607 . S
C549 C147 1.597 . S
C553 C186 1.598 . S
C567 C218 1.599 . S
C571 C309 1.598 . S
C585 C225 1.607 . S
C589 C270 1.607 . S
C603 C283 1.607 . S
C607 C238 1.607 . S
C621 C296 1.607 . S
C625 C251 1.607 . S
C639 C316 1.597 . S
C643 C413 1.597 . S
C657 C368 1.607 . S
C661 C329 1.607 . S
C675 C387 1.601 . S
C679 C348 1.600 . S
C693 C355 1.602 . S
C697 C400 1.602 . S
C711 C10 0.866 . S
C715 C82 0.862 . S
C729 C23 0.860 . S
C733 C95 0.862 . S
C747 C62 0.870 . S
C751 C30 0.872 . S
C765 C49 0.864 . S
C769 C69 0.861 . S
C783 C114 0.869 . S
C787 C192 0.872 . S
C801 C127 0.868 . S
C805 C199 0.871 . S
C819 C160 0.862 . S
C823 C140 0.867 . S
C837 C173 0.864 . S
C841 C153 0.860 . S
C855 C212 0.867 . S
C859 C290 0.862 . S
C873 C303 0.861 . S
C877 C231 0.865 . S
C891 C264 0.866 . S
C895 C244 0.861 . S
C909 C257 0.871 . S
C913 C277 0.869 . S
C927 C322 0.861 . S
C931 C394 0.864 . S
C945 C335 0.869 . S
C949 C407 0.871 . S
C963 C374 0.864 . S
C967 C342 0.861 . S
C981 C381 0.862 . S
C985 C361 0.860 . S
C999 C5 1.625 . S
C1003 C393 1.624 . S
C1017 C18 1.626 . S
C1021 C198 1.624 . S
C1035 C29 1.627 . S
C1039 C369 1.622 . S
C1053 C44 1.623 . S
C1057 C172 1.627 . S
C1071 C57 1.624 . S
C1075 C341 1.626 . S
C1089 C68 1.626 . S
C1093 C148 1.623 . S
C1107 C81 1.624 . S
C1111 C317 1.626 . S
C1125 C122 1.627 . S
C1129 C94 1.623 . S
C1143 C289 1.625 . S
C1147 C109 1.625 . S
C1161 C135 1.627 . S
C1165 C263 1.623 . S
C1179 C239 1.627 . S
C1183 C159 1.623 . S
C1197 C211 1.624 . S
C1201 C187 1.625 . S
C1215 C226 1.624 . S
C1219 C406 1.625 . S
C1233 C252 1.623 . S
C1237 C380 1.626 . S
C1251 C276 1.626 . S
C1255 C356 1.624 . S
C1269 C330 1.627 . S
C1273 C302 1.623 . S
C1287 C3 1.500 . S
C1291 C83 1.503 . S
C1305 C16 1.501 . S
C1309 C96 1.503 . S
C1323 C55 1.503 . S
C1327 C31 1.499 . S
C1341 C42 1.503 . S
C1345 C70 1.500 . S
C1359 C107 1.499 . S
C1363 C185 1.503 . S
C1377 C120 1.501 . S
C1381 C200 1.502 . S
C1395 C161 1.500 . S
C1399 C133 1.503 . S
C1413 C146 1.501 . S
C1417 C174 1.503 . S
C1431 C291 1.501 . S
C1435 C213 1.503 . S
C1449 C304 1.500 . S
C1453 C224 1.501 . S
C1467 C265 1.504 . S
C1471 C237 1.500 . S
C1485 C278 1.503 . S
C1489 C250 1.500 . S
C1503 C395 1.504 . S
C1507 C315 1.500 . S
C1521 C408 1.503 . S
C1525 C328 1.499 . S
C1539 C343 1.500 . S
C1543 C367 1.502 . S
C1557 C382 1.501 . S
C1561 C354 1.501 . S
