# Generated by pormake.
# Topology vbp, (6)-cn, num edge types: 1
# Building blocks:
#     Node 0, Type 0, BuildingBlock: OJICUG_clean_sbu_0, # of connection points: 6
#     Node 1, Type 0, BuildingBlock: OJICUG_clean_sbu_0, # of connection points: 6
#     Node 2, Type 0, BuildingBlock: OJICUG_clean_sbu_0, # of connection points: 6
#     Node 3, Type 0, BuildingBlock: OJICUG_clean_sbu_0, # of connection points: 6
#     Node 4, Type 0, BuildingBlock: OJICUG_clean_sbu_0, # of connection points: 6
#     Node 5, Type 0, BuildingBlock: OJICUG_clean_sbu_0, # of connection points: 6
#     Node 6, Type 0, BuildingBlock: OJICUG_clean_sbu_0, # of connection points: 6
#     Node 7, Type 0, BuildingBlock: OJICUG_clean_sbu_0, # of connection points: 6
#     Node 8, Type 0, BuildingBlock: OJICUG_clean_sbu_0, # of connection points: 6
#     Node 9, Type 0, BuildingBlock: OJICUG_clean_sbu_0, # of connection points: 6
#     Node 10, Type 0, BuildingBlock: OJICUG_clean_sbu_0, # of connection points: 6
#     Node 11, Type 0, BuildingBlock: OJICUG_clean_sbu_0, # of connection points: 6
#     Node 12, Type 0, BuildingBlock: OJICUG_clean_sbu_0, # of connection points: 6
#     Node 13, Type 0, BuildingBlock: OJICUG_clean_sbu_0, # of connection points: 6
#     Node 14, Type 0, BuildingBlock: OJICUG_clean_sbu_0, # of connection points: 6
#     Node 15, Type 0, BuildingBlock: OJICUG_clean_sbu_0, # of connection points: 6
#     Edge 16, Type (0, 0), BuildingBlock: TEMPAE_clean_linker_10, # of connection points: 2
#     Edge 17, Type (0, 0), BuildingBlock: TEMPAE_clean_linker_10, # of connection points: 2
#     Edge 18, Type (0, 0), BuildingBlock: TEMPAE_clean_linker_10, # of connection points: 2
#     Edge 19, Type (0, 0), BuildingBlock: TEMPAE_clean_linker_10, # of connection points: 2
#     Edge 20, Type (0, 0), BuildingBlock: TEMPAE_clean_linker_10, # of connection points: 2
#     Edge 21, Type (0, 0), BuildingBlock: TEMPAE_clean_linker_10, # of connection points: 2
#     Edge 22, Type (0, 0), BuildingBlock: TEMPAE_clean_linker_10, # of connection points: 2
#     Edge 23, Type (0, 0), BuildingBlock: TEMPAE_clean_linker_10, # of connection points: 2
#     Edge 24, Type (0, 0), BuildingBlock: TEMPAE_clean_linker_10, # of connection points: 2
#     Edge 25, Type (0, 0), BuildingBlock: TEMPAE_clean_linker_10, # of connection points: 2
#     Edge 26, Type (0, 0), BuildingBlock: TEMPAE_clean_linker_10, # of connection points: 2
#     Edge 27, Type (0, 0), BuildingBlock: TEMPAE_clean_linker_10, # of connection points: 2
#     Edge 28, Type (0, 0), BuildingBlock: TEMPAE_clean_linker_10, # of connection points: 2
#     Edge 29, Type (0, 0), BuildingBlock: TEMPAE_clean_linker_10, # of connection points: 2
#     Edge 30, Type (0, 0), BuildingBlock: TEMPAE_clean_linker_10, # of connection points: 2
#     Edge 31, Type (0, 0), BuildingBlock: TEMPAE_clean_linker_10, # of connection points: 2
#     Edge 32, Type (0, 0), BuildingBlock: TEMPAE_clean_linker_10, # of connection points: 2
#     Edge 33, Type (0, 0), BuildingBlock: TEMPAE_clean_linker_10, # of connection points: 2
#     Edge 34, Type (0, 0), BuildingBlock: TEMPAE_clean_linker_10, # of connection points: 2
#     Edge 35, Type (0, 0), BuildingBlock: TEMPAE_clean_linker_10, # of connection points: 2
#     Edge 36, Type (0, 0), BuildingBlock: TEMPAE_clean_linker_10, # of connection points: 2
#     Edge 37, Type (0, 0), BuildingBlock: TEMPAE_clean_linker_10, # of connection points: 2
#     Edge 38, Type (0, 0), BuildingBlock: TEMPAE_clean_linker_10, # of connection points: 2
#     Edge 39, Type (0, 0), BuildingBlock: TEMPAE_clean_linker_10, # of connection points: 2
#     Edge 40, Type (0, 0), BuildingBlock: TEMPAE_clean_linker_10, # of connection points: 2
#     Edge 41, Type (0, 0), BuildingBlock: TEMPAE_clean_linker_10, # of connection points: 2
#     Edge 42, Type (0, 0), BuildingBlock: TEMPAE_clean_linker_10, # of connection points: 2
#     Edge 43, Type (0, 0), BuildingBlock: TEMPAE_clean_linker_10, # of connection points: 2
#     Edge 44, Type (0, 0), BuildingBlock: TEMPAE_clean_linker_10, # of connection points: 2
#     Edge 45, Type (0, 0), BuildingBlock: TEMPAE_clean_linker_10, # of connection points: 2
#     Edge 46, Type (0, 0), BuildingBlock: TEMPAE_clean_linker_10, # of connection points: 2
#     Edge 47, Type (0, 0), BuildingBlock: TEMPAE_clean_linker_10, # of connection points: 2
#     Edge 48, Type (0, 0), BuildingBlock: TEMPAE_clean_linker_10, # of connection points: 2
#     Edge 49, Type (0, 0), BuildingBlock: TEMPAE_clean_linker_10, # of connection points: 2
#     Edge 50, Type (0, 0), BuildingBlock: TEMPAE_clean_linker_10, # of connection points: 2
#     Edge 51, Type (0, 0), BuildingBlock: TEMPAE_clean_linker_10, # of connection points: 2
#     Edge 52, Type (0, 0), BuildingBlock: TEMPAE_clean_linker_10, # of connection points: 2
#     Edge 53, Type (0, 0), BuildingBlock: TEMPAE_clean_linker_10, # of connection points: 2
#     Edge 54, Type (0, 0), BuildingBlock: TEMPAE_clean_linker_10, # of connection points: 2
#     Edge 55, Type (0, 0), BuildingBlock: TEMPAE_clean_linker_10, # of connection points: 2
#     Edge 56, Type (0, 0), BuildingBlock: TEMPAE_clean_linker_10, # of connection points: 2
#     Edge 57, Type (0, 0), BuildingBlock: TEMPAE_clean_linker_10, # of connection points: 2
#     Edge 58, Type (0, 0), BuildingBlock: TEMPAE_clean_linker_10, # of connection points: 2
#     Edge 59, Type (0, 0), BuildingBlock: TEMPAE_clean_linker_10, # of connection points: 2
#     Edge 60, Type (0, 0), BuildingBlock: TEMPAE_clean_linker_10, # of connection points: 2
#     Edge 61, Type (0, 0), BuildingBlock: TEMPAE_clean_linker_10, # of connection points: 2
#     Edge 62, Type (0, 0), BuildingBlock: TEMPAE_clean_linker_10, # of connection points: 2
#     Edge 63, Type (0, 0), BuildingBlock: TEMPAE_clean_linker_10, # of connection points: 2
# Relax obj value: 0.262
# Max RMSD: 0.268
# Mean RMSD: 0.268
data_MOF--net-vbp--node1-OJICUG_clean_sbu_0--edge1-TEMPAE_clean_linker_10
_symmetry_space_group_name_H-M    P1
_symmetry_Int_Tables_number       1
_symmetry_cell_setting            triclinic
loop_
_symmetry_equiv_pos_as_xyz
'x, y, z'
_cell_length_a     29.656923
_cell_length_b     43.022816
_cell_length_c     56.448639
_cell_angle_alpha  89.982329
_cell_angle_beta   90.014766
_cell_angle_gamma 90.001998
loop_
_atom_site_label
_atom_site_type_symbol
_atom_site_fract_x
_atom_site_fract_y
_atom_site_fract_z
_atom_type_partial_charge
Sc0 Sc 0.33023 0.1044 0.14206 0.0
Sc1 Sc 0.38719 0.03941 0.12063 0.0
Sc2 Sc 0.41681 0.11303 0.10044 0.0
O3 O 0.37879 0.08558 0.12153 0.0
C4 C 0.31884 0.1375 0.09199 0.0
C5 C 0.2829 0.04198 0.12383 0.0
C6 C 0.40066 0.05766 0.06625 0.0
C7 C 0.36724 0.05217 0.17602 0.0
C8 C 0.41226 0.15358 0.14606 0.0
C9 C 0.48707 0.06141 0.11798 0.0
O10 O 0.30144 0.12395 0.10987 0.0
O11 O 0.31776 0.03107 0.11392 0.0
O12 O 0.40144 0.08678 0.0695 0.0
O13 O 0.35469 0.08064 0.17412 0.0
O14 O 0.43534 0.14096 0.12985 0.0
O15 O 0.45754 0.04365 0.12699 0.0
O16 O 0.37143 0.14585 0.15051 0.0
O17 O 0.37644 0.03548 0.15806 0.0
O18 O 0.47744 0.08609 0.10661 0.0
O19 O 0.28332 0.06651 0.13642 0.0
O20 O 0.36092 0.14301 0.09083 0.0
O21 O 0.39924 0.03817 0.08315 0.0
Sc22 Sc 0.66197 0.39701 0.13555 0.0
Sc23 Sc 0.59324 0.46285 0.12958 0.0
Sc24 Sc 0.56713 0.39512 0.09872 0.0
O25 O 0.60763 0.41835 0.12141 0.0
C26 C 0.66317 0.37669 0.07992 0.0
C27 C 0.70126 0.4642 0.12747 0.0
C28 C 0.56358 0.464 0.07766 0.0
C29 C 0.62416 0.43857 0.1793 0.0
C30 C 0.59209 0.34139 0.13509 0.0
C31 C 0.49516 0.43071 0.12754 0.0
O32 O 0.68052 0.37659 0.10077 0.0
O33 O 0.66308 0.47729 0.12998 0.0
O34 O 0.55188 0.4357 0.07855 0.0
O35 O 0.65161 0.4184 0.1708 0.0
O36 O 0.57452 0.35126 0.11607 0.0
O37 O 0.5215 0.45383 0.13028 0.0
O38 O 0.62167 0.3568 0.14653 0.0
O39 O 0.59609 0.45326 0.16654 0.0
O40 O 0.50829 0.40455 0.11961 0.0
O41 O 0.70604 0.43486 0.12653 0.0
O42 O 0.62279 0.38504 0.07591 0.0
O43 O 0.58848 0.47668 0.09314 0.0
Sc44 Sc 0.3347 0.89281 0.37311 0.0
Sc45 Sc 0.39826 0.96025 0.38501 0.0
Sc46 Sc 0.4208 0.89146 0.41646 0.0
O47 O 0.38481 0.91476 0.3913 0.0
C48 C 0.32141 0.86758 0.42677 0.0
C49 C 0.2912 0.95942 0.38286 0.0
C50 C 0.40808 0.95711 0.44094 0.0
C51 C 0.37696 0.93698 0.33264 0.0
C52 C 0.41222 0.84047 0.37584 0.0
C53 C 0.49684 0.93291 0.39229 0.0
O54 O 0.30641 0.87348 0.40602 0.0
O55 O 0.32864 0.9732 0.38568 0.0
O56 O 0.41485 0.92805 0.44167 0.0
O57 O 0.35408 0.91299 0.33866 0.0
O58 O 0.43034 0.85208 0.39416 0.0
O59 O 0.46956 0.95251 0.38351 0.0
O60 O 0.37766 0.8523 0.36572 0.0
O61 O 0.39567 0.9547 0.34763 0.0
O62 O 0.48445 0.90968 0.40456 0.0
O63 O 0.28787 0.93052 0.37844 0.0
O64 O 0.36226 0.87162 0.43249 0.0
O65 O 0.40206 0.97193 0.42178 0.0
Sc66 Sc 0.58095 0.61252 0.41121 0.0
Sc67 Sc 0.60703 0.53853 0.39062 0.0
Sc68 Sc 0.67188 0.60223 0.37271 0.0
O69 O 0.61963 0.58436 0.39109 0.0
C70 C 0.59344 0.65374 0.36641 0.0
C71 C 0.50865 0.56466 0.39 0.0
C72 C 0.63701 0.55179 0.33653 0.0
C73 C 0.58968 0.55604 0.44489 0.0
C74 C 0.67924 0.63512 0.42322 0.0
C75 C 0.71184 0.53679 0.39038 0.0
O76 O 0.56772 0.64149 0.38167 0.0
O77 O 0.53788 0.54625 0.38146 0.0
O78 O 0.65066 0.57989 0.33935 0.0
O79 O 0.59165 0.58514 0.44187 0.0
O80 O 0.69806 0.62084 0.40605 0.0
O81 O 0.6752 0.52648 0.39895 0.0
O82 O 0.63713 0.64076 0.42322 0.0
O83 O 0.59032 0.53667 0.42785 0.0
O84 O 0.71476 0.56243 0.37924 0.0
O85 O 0.51914 0.58778 0.40296 0.0
O86 O 0.63434 0.64505 0.36331 0.0
O87 O 0.62287 0.53532 0.3537 0.0
Sc88 Sc 0.56245 0.89992 0.9106 0.0
Sc89 Sc 0.5871 0.96548 0.87695 0.0
Sc90 Sc 0.66206 0.90317 0.87799 0.0
O91 O 0.60409 0.92299 0.8886 0.0
C92 C 0.65592 0.88527 0.93383 0.0
C93 C 0.55001 0.97036 0.9273 0.0
C94 C 0.69396 0.97165 0.88494 0.0
C95 C 0.49198 0.92955 0.87703 0.0
C96 C 0.59599 0.84597 0.87678 0.0
C97 C 0.62987 0.94035 0.83102 0.0
O98 O 0.6153 0.89423 0.93619 0.0
O99 O 0.57612 0.98256 0.91213 0.0
O100 O 0.70063 0.94291 0.88902 0.0
O101 O 0.50618 0.90475 0.88684 0.0
O102 O 0.62506 0.86223 0.86562 0.0
O103 O 0.59533 0.95172 0.84096 0.0
O104 O 0.57725 0.85524 0.89571 0.0
O105 O 0.51661 0.95352 0.87421 0.0
O106 O 0.65876 0.92384 0.84223 0.0
O107 O 0.54059 0.9416 0.9277 0.0
O108 O 0.67526 0.88339 0.91354 0.0
O109 O 0.6559 0.98239 0.87836 0.0
Sc110 Sc 0.32676 0.61404 0.87048 0.0
Sc111 Sc 0.38662 0.54762 0.88624 0.0
Sc112 Sc 0.41785 0.61857 0.90952 0.0
O113 O 0.37737 0.59354 0.88824 0.0
C114 C 0.4103 0.66192 0.86543 0.0
C115 C 0.3527 0.5631 0.83338 0.0
C116 C 0.48506 0.56916 0.88589 0.0
C117 C 0.28255 0.55069 0.88963 0.0
C118 C 0.32251 0.64556 0.92152 0.0
C119 C 0.40968 0.56093 0.94057 0.0
O120 O 0.36882 0.65503 0.8617 0.0
O121 O 0.36497 0.54533 0.85015 0.0
O122 O 0.47623 0.59037 0.90095 0.0
O123 O 0.28097 0.57583 0.87765 0.0
O124 O 0.36501 0.64927 0.92192 0.0
O125 O 0.40954 0.54352 0.92238 0.0
O126 O 0.30278 0.63286 0.90397 0.0
O127 O 0.31903 0.5389 0.89734 0.0
O128 O 0.40337 0.58998 0.93931 0.0
O129 O 0.34468 0.59207 0.83655 0.0
O130 O 0.43444 0.64825 0.88077 0.0
O131 O 0.45461 0.5544 0.87476 0.0
Sc132 Sc 0.57518 0.11035 0.60108 0.0
Sc133 Sc 0.60125 0.04022 0.62781 0.0
Sc134 Sc 0.66956 0.10524 0.63805 0.0
O135 O 0.61532 0.08542 0.62268 0.0
C136 C 0.67233 0.13399 0.58571 0.0
C137 C 0.5722 0.04925 0.57395 0.0
C138 C 0.7053 0.03767 0.62189 0.0
C139 C 0.50484 0.06695 0.62939 0.0
C140 C 0.59142 0.15724 0.64275 0.0
C141 C 0.64318 0.05849 0.67839 0.0
O142 O 0.62962 0.13612 0.58469 0.0
O143 O 0.57318 0.03368 0.59301 0.0
O144 O 0.71066 0.06438 0.63135 0.0
O145 O 0.51483 0.08691 0.61353 0.0
O146 O 0.63197 0.14823 0.64664 0.0
O147 O 0.62647 0.04009 0.6632 0.0
O148 O 0.56551 0.14422 0.6279 0.0
O149 O 0.53476 0.05127 0.6403 0.0
O150 O 0.65402 0.08652 0.67338 0.0
O151 O 0.58238 0.07774 0.57302 0.0
O152 O 0.69238 0.12224 0.60358 0.0
O153 O 0.66702 0.02669 0.61601 0.0
Sc154 Sc 0.43947 0.40009 0.60312 0.0
Sc155 Sc 0.41477 0.46379 0.63802 0.0
Sc156 Sc 0.34224 0.40038 0.63656 0.0
O157 O 0.39867 0.42165 0.62593 0.0
C158 C 0.34642 0.38686 0.58043 0.0
C159 C 0.45126 0.47103 0.58811 0.0
C160 C 0.30771 0.46808 0.62995 0.0
C161 C 0.51028 0.42801 0.63625 0.0
C162 C 0.40936 0.34483 0.63596 0.0
C163 C 0.37358 0.43783 0.68358 0.0
O164 O 0.38567 0.39827 0.5781 0.0
O165 O 0.42364 0.48214 0.60301 0.0
O166 O 0.30252 0.43931 0.62539 0.0
O167 O 0.4952 0.40297 0.62718 0.0
O168 O 0.38225 0.36075 0.64864 0.0
O169 O 0.40871 0.44838 0.67371 0.0
O170 O 0.42317 0.3543 0.61593 0.0
O171 O 0.48588 0.45213 0.63931 0.0
O172 O 0.34449 0.42156 0.67228 0.0
O173 O 0.46237 0.44258 0.58765 0.0
O174 O 0.33004 0.38001 0.60086 0.0
O175 O 0.34488 0.47949 0.63741 0.0
Sc176 Sc 0.83914 0.60144 0.63523 0.0
Sc177 Sc 0.90793 0.53848 0.61865 0.0
Sc178 Sc 0.9323 0.61334 0.59772 0.0
O179 O 0.89333 0.58438 0.61748 0.0
C180 C 0.83249 0.63416 0.58406 0.0
C181 C 0.80208 0.53513 0.61786 0.0
C182 C 0.92736 0.55494 0.56453 0.0
C183 C 0.87737 0.55216 0.67238 0.0
C184 C 0.91374 0.65531 0.64227 0.0
C185 C 0.00583 0.56796 0.62067 0.0
O186 O 0.81388 0.62158 0.60209 0.0
O187 O 0.84004 0.52423 0.61169 0.0
O188 O 0.92952 0.58399 0.56767 0.0
O189 O 0.85856 0.57858 0.66866 0.0
O190 O 0.9392 0.64538 0.62599 0.0
O191 O 0.97747 0.54721 0.62648 0.0
O192 O 0.87475 0.64395 0.6465 0.0
O193 O 0.89484 0.53618 0.65582 0.0
O194 O 0.99489 0.59241 0.60936 0.0
O195 O 0.7972 0.56183 0.62716 0.0
O196 O 0.87504 0.63716 0.58236 0.0
O197 O 0.9221 0.53556 0.5813 0.0
Sc198 Sc 0.16563 0.89521 0.63868 0.0
Sc199 Sc 0.09595 0.9607 0.63669 0.0
Sc200 Sc 0.06627 0.89394 0.60557 0.0
O201 O 0.10945 0.91665 0.62705 0.0
C202 C 0.15918 0.87552 0.5832 0.0
C203 C 0.20342 0.96224 0.63 0.0
C204 C 0.06031 0.96339 0.58582 0.0
C205 C 0.13513 0.93632 0.68416 0.0
C206 C 0.09594 0.83993 0.64058 0.0
C207 C -0.00226 0.9287 0.63692 0.0
O208 O 0.17862 0.87434 0.60349 0.0
O209 O 0.16595 0.97498 0.63523 0.0
O210 O 0.04844 0.9351 0.58669 0.0
O211 O 0.16201 0.91719 0.674 0.0
O212 O 0.07664 0.84971 0.62198 0.0
O213 O 0.02433 0.95179 0.63915 0.0
O214 O 0.12637 0.85541 0.65137 0.0
O215 O 0.10294 0.94954 0.67334 0.0
O216 O 0.01031 0.90256 0.62872 0.0
O217 O 0.20787 0.93303 0.62741 0.0
O218 O 0.1188 0.88475 0.58056 0.0
O219 O 0.08704 0.97565 0.60068 0.0
Sc220 Sc 0.82899 0.3937 0.86921 0.0
Sc221 Sc 0.88702 0.46154 0.88417 0.0
Sc222 Sc 0.91476 0.39195 0.91132 0.0
O223 O 0.87727 0.41578 0.88772 0.0
C224 C 0.81926 0.36511 0.92078 0.0
C225 C 0.78182 0.45862 0.88173 0.0
C226 C 0.89642 0.45114 0.94015 0.0
C227 C 0.86647 0.44055 0.8306 0.0
C228 C 0.91425 0.34671 0.86857 0.0
C229 C 0.98568 0.44107 0.89122 0.0
O230 O 0.80078 0.37775 0.90284 0.0
O231 O 0.8173 0.4717 0.88939 0.0
O232 O 0.89407 0.42169 0.9394 0.0
O233 O 0.8519 0.4131 0.83517 0.0
O234 O 0.93684 0.36189 0.88377 0.0
O235 O 0.95757 0.45511 0.87812 0.0
O236 O 0.8727 0.35248 0.86395 0.0
O237 O 0.87717 0.45981 0.84671 0.0
O238 O 0.97412 0.42022 0.90596 0.0
O239 O 0.78153 0.43167 0.87241 0.0
O240 O 0.86142 0.36026 0.92135 0.0
O241 O 0.89849 0.46797 0.92161 0.0
Sc242 Sc 0.06448 0.10436 0.91229 0.0
Sc243 Sc 0.08797 0.03861 0.87845 0.0
Sc244 Sc 0.16253 0.10143 0.87811 0.0
O245 O 0.10516 0.08139 0.88967 0.0
C246 C 0.09602 0.15864 0.87786 0.0
C247 C 0.99223 0.07362 0.88012 0.0
C248 C 0.1283 0.06373 0.83172 0.0
C249 C 0.05458 0.03403 0.9299 0.0
C250 C 0.15938 0.12007 0.93384 0.0
C251 C 0.19538 0.03297 0.88437 0.0
O252 O 0.07677 0.14874 0.89646 0.0
O253 O 0.01729 0.05004 0.87663 0.0
O254 O 0.15719 0.08076 0.84246 0.0
O255 O 0.04546 0.06283 0.93043 0.0
O256 O 0.17796 0.12115 0.91336 0.0
O257 O 0.15688 0.02201 0.87885 0.0
O258 O 0.11878 0.11146 0.93685 0.0
O259 O 0.07869 0.02158 0.91392 0.0
O260 O 0.20206 0.06174 0.88828 0.0
O261 O 0.00638 0.09842 0.88991 0.0
O262 O 0.1253 0.14275 0.86653 0.0
O263 O 0.09449 0.052 0.84216 0.0
Sc264 Sc 0.07101 0.39775 0.40471 0.0
Sc265 Sc 0.09896 0.46173 0.37076 0.0
Sc266 Sc 0.16922 0.39685 0.37184 0.0
O267 O 0.11322 0.41893 0.3823 0.0
C268 C 0.16358 0.38356 0.42806 0.0
C269 C 0.06147 0.46844 0.42049 0.0
C270 C 0.20597 0.4642 0.37912 0.0
C271 C 0.00215 0.42749 0.37137 0.0
C272 C 0.10082 0.34185 0.37225 0.0
C273 C 0.13905 0.43482 0.32479 0.0
O274 O 0.12407 0.39466 0.43007 0.0
O275 O 0.08992 0.47937 0.40595 0.0
O276 O 0.21028 0.43517 0.38284 0.0
O277 O 0.01602 0.40201 0.38029 0.0
O278 O 0.12882 0.35737 0.35983 0.0
O279 O 0.10554 0.44736 0.33487 0.0
O280 O 0.0857 0.35185 0.39184 0.0
O281 O 0.02752 0.45123 0.36877 0.0
O282 O 0.16714 0.41752 0.33593 0.0
O283 O 0.04919 0.44024 0.42044 0.0
O284 O 0.18079 0.37699 0.40776 0.0
O285 O 0.16913 0.47649 0.37209 0.0
Sc286 Sc 0.83256 0.10758 0.37453 0.0
Sc287 Sc 0.89727 0.04291 0.39046 0.0
Sc288 Sc 0.92343 0.11547 0.41376 0.0
O289 O 0.88457 0.08867 0.39258 0.0
C290 C 0.91243 0.15823 0.3693 0.0
C291 C 0.86802 0.05863 0.33692 0.0
C292 C 0.99507 0.06866 0.3909 0.0
C293 C 0.79208 0.04224 0.39201 0.0
C294 C 0.82553 0.13957 0.42553 0.0
C295 C 0.91586 0.05704 0.44529 0.0
O296 O 0.87181 0.14958 0.36525 0.0
O297 O 0.88196 0.04112 0.35349 0.0
O298 O 0.98478 0.09064 0.40498 0.0
O299 O 0.78874 0.06838 0.38154 0.0
O300 O 0.86795 0.14347 0.42664 0.0
O301 O 0.91497 0.03903 0.42742 0.0
O302 O 0.80688 0.1264 0.40781 0.0
O303 O 0.82932 0.03086 0.39893 0.0
O304 O 0.91254 0.08629 0.44358 0.0
O305 O 0.85252 0.08598 0.34077 0.0
O306 O 0.93701 0.14608 0.38516 0.0
O307 O 0.96587 0.05134 0.38117 0.0
Sc308 Sc 0.07229 0.60967 0.09694 0.0
Sc309 Sc 0.09555 0.54064 0.12619 0.0
Sc310 Sc 0.16709 0.60465 0.13416 0.0
O311 O 0.11174 0.58525 0.11941 0.0
C312 C 0.16999 0.63247 0.08118 0.0
C313 C 0.06403 0.54665 0.07254 0.0
C314 C 0.19947 0.53626 0.11799 0.0
C315 C 0.00092 0.57016 0.12796 0.0
C316 C 0.09158 0.65866 0.13743 0.0
C317 C 0.14176 0.55884 0.17558 0.0
O318 O 0.12741 0.6322 0.07892 0.0
O319 O 0.06522 0.53264 0.09225 0.0
O320 O 0.20655 0.5634 0.12644 0.0
O321 O 0.01134 0.58896 0.11133 0.0
O322 O 0.13011 0.6475 0.14324 0.0
O323 O 0.12246 0.54077 0.16111 0.0
O324 O 0.06632 0.64672 0.12173 0.0
O325 O 0.03033 0.55423 0.13907 0.0
O326 O 0.15407 0.5863 0.1699 0.0
O327 O 0.07578 0.57471 0.07013 0.0
O328 O 0.1896 0.62243 0.09979 0.0
O329 O 0.16031 0.52521 0.11396 0.0
Sc330 Sc 0.91224 0.88585 0.10158 0.0
Sc331 Sc 0.89249 0.95828 0.12538 0.0
Sc332 Sc 0.82782 0.8959 0.14384 0.0
O333 O 0.87816 0.91317 0.12419 0.0
C334 C 0.81283 0.86609 0.09302 0.0
C335 C 0.90604 0.94332 0.07037 0.0
C336 C 0.78914 0.96169 0.1271 0.0
C337 C 0.98773 0.93148 0.12211 0.0
C338 C 0.90526 0.84306 0.1456 0.0
C339 C 0.86722 0.94375 0.17983 0.0
O340 O 0.85399 0.85791 0.09232 0.0
O341 O 0.9106 0.96081 0.08838 0.0
O342 O 0.78714 0.93747 0.14007 0.0
O343 O 0.97472 0.91111 0.10721 0.0
O344 O 0.86487 0.8519 0.15014 0.0
O345 O 0.87723 0.96145 0.16254 0.0
O346 O 0.92981 0.85588 0.13002 0.0
O347 O 0.96059 0.94764 0.13437 0.0
O348 O 0.85445 0.91555 0.17682 0.0
O349 O 0.89631 0.91477 0.07214 0.0
O350 O 0.79679 0.8805 0.11085 0.0
O351 O 0.82469 0.97026 0.11643 0.0
C352 C 0.40522 0.06563 0.02256 0.0
C353 C 0.4102 0.04613 0.04232 0.0
C354 C 0.42343 0.05719 1.00059 0.0
C355 C 0.44728 0.02887 0.99869 0.0
C356 C 0.45001 0.00834 0.01823 0.0
C357 C 0.4309 0.01709 0.03975 0.0
C358 C 0.41836 0.07883 0.97971 0.0
C359 C 0.47504 0.97776 0.01677 0.0
C360 C 0.47652 0.98493 0.94379 0.0
C361 C 0.52305 0.99035 0.94258 0.0
C362 C 0.45008 0.99986 0.96071 0.0
C363 C 0.47103 0.0205 0.97672 0.0
C364 C 0.51732 0.02812 0.97418 0.0
C365 C 0.54299 0.01295 0.95685 0.0
C366 C 0.40064 0.99173 0.96268 0.0
C367 C 0.54059 0.04998 0.99115 0.0
H368 H 0.38855 0.08792 0.02449 0.0
H369 H 0.43484 1.00194 0.05496 0.0
H370 H 0.45171 0.08377 0.97165 0.0
H371 H 0.39734 0.06753 0.96593 0.0
H372 H 0.40232 0.10121 0.98473 0.0
H373 H 0.47368 0.96449 0.03364 0.0
H374 H 0.46054 0.96309 1.00252 0.0
H375 H 0.51094 0.98203 0.01228 0.0
H376 H 0.46115 0.96798 0.93206 0.0
H377 H 0.57894 0.01719 0.95553 0.0
H378 H 0.37997 0.01299 0.96028 0.0
H379 H 0.39301 0.98236 0.98055 0.0
H380 H 0.39015 0.97417 0.94938 0.0
H381 H 0.52025 0.07134 0.99376 0.0
H382 H 0.57472 0.05668 0.98484 0.0
H383 H 0.54408 0.03849 0.00867 0.0
C384 C 0.56076 0.50672 0.04772 0.0
C385 C 0.53922 0.4835 0.06078 0.0
C386 C 0.53704 0.52289 0.03009 0.0
C387 C 0.49102 0.5157 0.02602 0.0
C388 C 0.46852 0.49392 0.04049 0.0
C389 C 0.49302 0.47798 0.05767 0.0
C390 C 0.56183 0.54608 0.01483 0.0
C391 C 0.41935 0.48597 0.03687 0.0
C392 C 0.42172 0.5651 0.98422 0.0
C393 C 0.4255 0.54794 0.96317 0.0
C394 C 0.44266 0.55486 1.00505 0.0
C395 C 0.46818 0.52713 1.00455 0.0
C396 C 0.47101 0.5093 0.98355 0.0
C397 C 0.44931 0.51982 0.96316 0.0
C398 C 0.43839 0.57402 0.02734 0.0
C399 C 0.49767 0.47937 0.98249 0.0
H400 H 0.59636 0.51114 0.05051 0.0
H401 H 0.47616 0.46061 0.06843 0.0
H402 H 0.56633 0.53633 0.99678 0.0
H403 H 0.54197 0.5678 0.01304 0.0
H404 H 0.5956 0.55186 0.02213 0.0
H405 H 0.40649 0.46978 0.05063 0.0
H406 H 0.39854 0.50739 0.03714 0.0
H407 H 0.41467 0.47493 0.01928 0.0
H408 H 0.40319 0.58682 0.98429 0.0
H409 H 0.45262 0.50655 0.94693 0.0
H410 H 0.472 0.58312 0.03249 0.0
H411 H 0.42618 0.5594 0.0422 0.0
H412 H 0.41496 0.59396 0.02508 0.0
H413 H 0.53338 0.48386 0.98727 0.0
H414 H 0.49677 0.46851 0.96464 0.0
H415 H 0.48411 0.46247 0.99551 0.0
C416 C 0.42758 0.00613 0.46169 0.0
C417 C 0.41503 0.97476 0.46289 0.0
C418 C 0.4473 0.02073 0.48121 0.0
C419 C 0.454 0.00349 0.50222 0.0
C420 C 0.4363 0.97315 0.50444 0.0
C421 C 0.41691 0.95905 0.48463 0.0
C422 C 0.46469 0.05355 0.47862 0.0
C423 C 0.44164 0.95454 0.52695 0.0
C424 C 0.56053 0.02033 0.53651 0.0
C425 C 0.54328 0.03764 0.55525 0.0
C426 C 0.53148 0.00908 0.51894 0.0
C427 C 0.48462 0.01554 0.52054 0.0
C428 C 0.4674 0.03327 0.53951 0.0
C429 C 0.49715 0.04404 0.55678 0.0
C430 C 0.55081 0.99025 0.49876 0.0
C431 C 0.41775 0.04049 0.54187 0.0
H432 H 0.42558 0.01854 0.44501 0.0
H433 H 0.40612 0.93501 0.48574 0.0
H434 H 0.45555 0.0677 0.49433 0.0
H435 H 0.50204 0.05313 0.47743 0.0
H436 H 0.45125 0.06511 0.46249 0.0
H437 H 0.42048 0.93322 0.52687 0.0
H438 H 0.47745 0.94752 0.52898 0.0
H439 H 0.43254 0.96875 0.54263 0.0
H440 H 0.5964 0.01558 0.53568 0.0
H441 H 0.48436 0.05743 0.57159 0.0
H442 H 0.543 1.00167 0.48162 0.0
H443 H 0.53507 0.96685 0.49843 0.0
H444 H 0.58795 0.98742 0.50019 0.0
H445 H 0.40298 0.04726 0.52456 0.0
H446 H 0.41152 0.05947 0.55479 0.0
H447 H 0.39967 0.01944 0.54808 0.0
C448 C 0.58651 0.56465 0.48842 0.0
C449 C 0.57972 0.54497 0.46891 0.0
C450 C 0.56927 0.55694 0.51072 0.0
C451 C 0.54495 0.52895 0.51334 0.0
C452 C 0.54017 0.50822 0.49402 0.0
C453 C 0.55792 0.51643 0.47201 0.0
C454 C 0.5759 0.57907 0.53119 0.0
C455 C 0.51476 0.4779 0.49635 0.0
C456 C 0.52279 0.48669 0.56993 0.0
C457 C 0.47635 0.49169 0.57246 0.0
C458 C 0.5469 0.50117 0.55186 0.0
C459 C 0.5237 0.52095 0.53609 0.0
C460 C 0.47772 0.52841 0.54 0.0
C461 C 0.45437 0.51363 0.5584 0.0
C462 C 0.59602 0.49308 0.54833 0.0
C463 C 0.45224 0.54966 0.52345 0.0
H464 H 0.604 0.58658 0.48609 0.0
H465 H 0.55258 0.50121 0.45697 0.0
H466 H 0.54295 0.58496 0.53934 0.0
H467 H 0.59668 0.5678 0.54509 0.0
H468 H 0.59283 0.60095 0.52569 0.0
H469 H 0.5149 0.46423 0.47966 0.0
H470 H 0.52984 0.46348 0.51059 0.0
H471 H 0.47922 0.48258 0.50136 0.0
H472 H 0.53977 0.47014 0.58138 0.0
H473 H 0.4185 0.51749 0.56066 0.0
H474 H 0.61663 0.51455 0.5475 0.0
H475 H 0.60049 0.48066 0.53126 0.0
H476 H 0.60926 0.47806 0.56271 0.0
H477 H 0.47223 0.57084 0.51956 0.0
H478 H 0.41911 0.5567 0.5309 0.0
H479 H 0.44626 0.53748 0.50641 0.0
C480 C 0.95763 0.5146 0.53765 0.0
C481 C 0.93689 0.54351 0.54062 0.0
C482 C 0.97497 0.50596 0.51564 0.0
C483 C 0.9707 0.52661 0.49623 0.0
C484 C 0.94721 0.55495 0.49874 0.0
C485 C 0.9307 0.56318 0.52105 0.0
C486 C -0.00063 0.47524 0.51339 0.0
C487 C 0.94125 0.57708 0.4782 0.0
C488 C 0.06016 0.51046 0.45068 0.0
C489 C 0.03728 0.48907 0.43652 0.0
C490 C 0.03761 0.52518 0.46937 0.0
C491 C 0.99154 0.51821 0.47348 0.0
C492 C 0.96751 0.49891 0.45772 0.0
C493 C 0.99081 0.48454 0.43932 0.0
C494 C 0.06399 0.54587 0.48593 0.0
C495 C 0.91824 0.49139 0.46145 0.0
H496 H 0.96254 0.49946 0.55279 0.0
H497 H 0.91415 0.58546 0.52335 0.0
H498 H 0.98373 0.46098 0.49923 0.0
H499 H 0.03502 0.47934 0.5083 0.0
H500 H -0.00113 0.46168 0.53014 0.0
H501 H 0.91854 0.59677 0.48266 0.0
H502 H 0.97454 0.58662 0.47295 0.0
H503 H 0.92734 0.5647 0.46259 0.0
H504 H 0.09607 0.51393 0.44823 0.0
H505 H 0.97313 0.46845 0.42779 0.0
H506 H 0.06969 0.53347 0.50292 0.0
H507 H 0.04477 0.56734 0.48997 0.0
H508 H 0.09728 0.55244 0.47843 0.0
H509 H 0.91342 0.47991 0.47888 0.0
H510 H 0.90477 0.47576 0.44752 0.0
H511 H 0.89807 0.51309 0.46159 0.0
C512 C 0.98963 0.9777 0.56603 0.0
C513 C 0.0359 0.98302 0.56906 0.0
C514 C 0.96556 0.99284 0.54826 0.0
C515 C 0.98856 0.01368 0.53321 0.0
C516 C 0.03457 0.02089 0.5373 0.0
C517 C 0.05787 0.00548 0.55545 0.0
C518 C 0.91637 0.98498 0.54462 0.0
C519 C 0.05988 0.04313 0.52146 0.0
C520 C 0.95031 0.01542 0.46964 0.0
C521 C 0.92816 0.04411 0.4685 0.0
C522 C 0.96981 0.00524 0.49076 0.0
C523 C 0.96638 0.02404 0.51124 0.0
C524 C 0.94185 0.05217 0.51061 0.0
C525 C 0.92315 0.06202 0.48911 0.0
C526 C 0.99533 0.97481 0.49093 0.0
C527 C 0.93678 0.07235 0.53233 0.0
H528 H 0.97249 0.96088 0.57718 0.0
H529 H 0.09356 0.00967 0.55813 0.0
H530 H 0.89573 0.00647 0.54494 0.0
H531 H 0.91156 0.97401 0.52701 0.0
H532 H 0.90345 0.96879 0.55835 0.0
H533 H 0.09361 0.04909 0.52872 0.0
H534 H 0.06452 0.03241 0.50374 0.0
H535 H 0.04033 0.06486 0.51893 0.0
H536 H 0.95442 1.00155 0.45376 0.0
H537 H 0.90572 0.08415 0.4883 0.0
H538 H 0.9809 0.95896 0.50446 0.0
H539 H 0.03109 0.979 0.49577 0.0
H540 H 0.9944 0.96289 0.47348 0.0
H541 H 0.92476 0.05838 0.54759 0.0
H542 H 0.91291 0.09188 0.52939 0.0
H543 H 0.97009 0.08213 0.53727 0.0
C544 C 0.92431 0.44758 0.98147 0.0
C545 C 0.90677 0.46578 0.96303 0.0
C546 C 0.94647 0.46142 1.00057 0.0
C547 C 0.94999 0.49415 1.0014 0.0
C548 C 0.92813 0.51271 0.98423 0.0
C549 C 0.90693 0.49825 0.96505 0.0
C550 C 0.96911 0.44099 0.01881 0.0
C551 C 0.92943 0.54776 0.98539 0.0
C552 C 0.99071 0.52729 0.05925 0.0
C553 C 0.03607 0.53311 0.05408 0.0
C554 C 0.96169 0.51576 0.04192 0.0
C555 C 0.97921 0.50875 0.0193 0.0
C556 C 0.0252 0.51459 0.014 0.0
C557 C 0.05311 0.52738 0.03148 0.0
C558 C 0.91265 0.51079 0.04802 0.0
C559 C 0.04497 0.50685 0.99005 0.0
H560 H 0.92398 0.42244 0.98013 0.0
H561 H 0.89265 0.51239 0.95103 0.0
H562 H 0.00622 0.44401 0.01769 0.0
H563 H 0.95864 0.44788 0.03691 0.0
H564 H 0.96109 0.41599 0.01626 0.0
H565 H 0.90624 0.55865 0.97234 0.0
H566 H 0.9202 0.55587 1.00341 0.0
H567 H 0.96418 0.55601 0.98173 0.0
H568 H 0.97774 0.53238 0.0768 0.0
H569 H 0.08825 0.53229 0.02771 0.0
H570 H 0.90705 0.48597 0.05246 0.0
H571 H 0.89031 0.51677 0.03293 0.0
H572 H 0.90254 0.52499 0.06353 0.0
H573 H 0.04048 0.48171 0.98629 0.0
H574 H 0.08147 0.5125 0.98894 0.0
H575 H 0.02694 0.51987 0.97597 0.0
C576 C 0.98404 0.0213 0.95042 0.0
C577 C 0.02955 0.01434 0.9464 0.0
C578 C 0.95971 0.006 0.96801 0.0
C579 C 0.98171 0.98334 0.98193 0.0
C580 C 0.02668 0.97446 0.97671 0.0
C581 C 0.05023 0.99007 0.95873 0.0
C582 C 0.91169 0.01588 0.9729 0.0
C583 C 0.05093 0.95024 0.99127 0.0
C584 C 0.947 0.98206 0.04604 0.0
C585 C 0.92051 0.95514 0.04712 0.0
C586 C 0.9673 0.99121 0.02488 0.0
C587 C 0.96039 0.97323 1.00422 0.0
C588 C 0.9324 0.94665 1.00489 0.0
C589 C 0.91275 0.93783 0.02645 0.0
C590 C 0.99686 0.01987 0.02478 0.0
C591 C 0.92388 0.92733 0.98302 0.0
H592 H 0.9678 0.03955 0.94024 0.0
H593 H 0.08529 0.98457 0.95526 0.0
H594 H 0.88922 0.9953 0.9736 0.0
H595 H 0.90985 0.02751 0.99042 0.0
H596 H 0.89865 0.03222 0.95929 0.0
H597 H 0.0829 0.94268 0.98278 0.0
H598 H 0.05896 0.95999 0.00898 0.0
H599 H 0.02914 0.9296 0.99405 0.0
H600 H 0.95345 0.99542 0.06197 0.0
H601 H 0.89213 0.91704 0.02721 0.0
H602 H 0.98359 0.03711 0.01193 0.0
H603 H 0.0315 0.01364 0.01906 0.0
H604 H -0.0011 0.03108 0.04247 0.0
H605 H 0.90259 0.90666 0.98679 0.0
H606 H 0.95636 0.91939 0.97538 0.0
H607 H 0.90684 0.94163 0.96933 0.0
C608 C 0.35168 0.04854 0.2203 0.0
C609 C 0.37019 0.03606 0.19949 0.0
C610 C 0.35181 0.03136 0.24168 0.0
C611 C 0.37071 1.001 0.24226 0.0
C612 C 0.38973 0.98853 0.2214 0.0
C613 C 0.38948 0.00613 0.2005 0.0
C614 C 0.33163 0.04562 0.26366 0.0
C615 C 0.41043 0.95642 0.22108 0.0
C616 C 0.41353 0.96796 0.30064 0.0
C617 C 0.37817 0.94823 0.30769 0.0
C618 C 0.41134 0.98521 0.27957 0.0
C619 C 0.37295 0.98266 0.26482 0.0
C620 C 0.33798 0.9617 0.27119 0.0
C621 C 0.34098 0.94472 0.29257 0.0
C622 C 0.44972 0.00687 0.27344 0.0
C623 C 0.29679 0.95793 0.25577 0.0
H624 H 0.33649 0.07144 0.2198 0.0
H625 H 0.40428 0.99603 0.18473 0.0
H626 H 0.30416 0.03057 0.27049 0.0
H627 H 0.35761 0.04719 0.27776 0.0
H628 H 0.31783 0.06923 0.26033 0.0
H629 H 0.42256 0.94966 0.20319 0.0
H630 H 0.43931 0.95543 0.23355 0.0
H631 H 0.38538 0.93897 0.2271 0.0
H632 H 0.44246 0.97087 0.31219 0.0
H633 H 0.31319 0.92999 0.298 0.0
H634 H 0.43706 0.03108 0.27215 0.0
H635 H 0.464 1.00067 0.25591 0.0
H636 H 0.47724 0.00615 0.28678 0.0
H637 H 0.27865 0.98042 0.25447 0.0
H638 H 0.2732 0.9401 0.26277 0.0
H639 H 0.30692 0.95124 0.23755 0.0
C640 C 0.59023 0.46289 0.21523 0.0
C641 C 0.62811 0.44964 0.2042 0.0
C642 C 0.59411 0.48006 0.2363 0.0
C643 C 0.63703 0.48433 0.2468 0.0
C644 C 0.6753 0.47013 0.23625 0.0
C645 C 0.67038 0.45288 0.21511 0.0
C646 C 0.55221 0.49415 0.24707 0.0
C647 C 0.72162 0.47393 0.24692 0.0
C648 C 0.6462 0.55129 0.29156 0.0
C649 C 0.63927 0.5356 0.31306 0.0
C650 C 0.64694 0.53488 0.26981 0.0
C651 C 0.64091 0.50208 0.26958 0.0
C652 C 0.63529 0.48619 0.29126 0.0
C653 C 0.63454 0.50299 0.31252 0.0
C654 C 0.65317 0.55267 0.24703 0.0
C655 C 0.62883 0.45134 0.29205 0.0
H656 H 0.55745 0.46068 0.20688 0.0
H657 H 0.69995 0.44335 0.20648 0.0
H658 H 0.54744 0.48528 0.26536 0.0
H659 H 0.55599 0.51976 0.24827 0.0
H660 H 0.52139 0.48887 0.23664 0.0
H661 H 0.74782 0.46102 0.23688 0.0
H662 H 0.73086 0.49892 0.24725 0.0
H663 H 0.72167 0.46562 0.26552 0.0
H664 H 0.65026 0.57632 0.29168 0.0
H665 H 0.63002 0.4902 0.32889 0.0
H666 H 0.62222 0.55077 0.23608 0.0
H667 H 0.68125 0.5425 0.23662 0.0
H668 H 0.66036 0.57767 0.25019 0.0
H669 H 0.59695 0.44503 0.28294 0.0
H670 H 0.62748 0.44223 0.31045 0.0
H671 H 0.65667 0.43951 0.28253 0.0
C672 C 0.68201 0.96567 0.80205 0.0
C673 C 0.63982 0.9524 0.80697 0.0
C674 C 0.68844 0.9846 0.78192 0.0
C675 C 0.65201 0.98994 0.76615 0.0
C676 C 0.60998 0.97533 0.77053 0.0
C677 C 0.6043 0.95709 0.79097 0.0
C678 C 0.7336 0.99999 0.77812 0.0
C679 C 0.57049 0.97964 0.75395 0.0
C680 C 0.6432 0.05872 0.72332 0.0
C681 C 0.65339 0.04423 0.70177 0.0
C682 C 0.6452 0.04183 0.7448 0.0
C683 C 0.65763 0.00988 0.74458 0.0
C684 C 0.67094 0.99601 0.723 0.0
C685 C 0.66875 0.01331 0.702 0.0
C686 C 0.63157 0.05764 0.76753 0.0
C687 C 0.68453 0.9622 0.72172 0.0
H688 H 0.70918 0.96293 0.81474 0.0
H689 H 0.57146 0.94729 0.79491 0.0
H690 H 0.74657 0.99466 0.76014 0.0
H691 H 0.7297 0.02559 0.77928 0.0
H692 H 0.75902 0.99248 0.7914 0.0
H693 H 0.5405 0.966 0.75953 0.0
H694 H 0.561 0.00456 0.75319 0.0
H695 H 0.58 0.97245 0.73575 0.0
H696 H 0.63134 0.08255 0.72325 0.0
H697 H 0.67739 1.00208 0.6854 0.0
H698 H 0.65643 0.05265 0.78172 0.0
H699 H 0.59852 0.04842 0.77348 0.0
H700 H 0.6286 0.08323 0.76536 0.0
H701 H 0.71004 0.95674 0.73546 0.0
H702 H 0.69851 0.95588 0.70411 0.0
H703 H 0.65464 0.94736 0.72521 0.0
C704 C 0.33118 0.51618 0.81041 0.0
C705 C 0.34542 0.54738 0.81016 0.0
C706 C 0.33051 0.49804 0.7898 0.0
C707 C 0.34417 0.51128 0.76805 0.0
C708 C 0.35585 0.54335 0.76728 0.0
C709 C 0.35631 0.56112 0.78839 0.0
C710 C 0.31772 0.46413 0.79166 0.0
C711 C 0.36997 0.55848 0.74435 0.0
C712 C 0.39844 0.45659 0.72324 0.0
C713 C 0.36316 0.45102 0.70724 0.0
C714 C 0.39249 0.47589 0.74308 0.0
C715 C 0.35037 0.49063 0.7469 0.0
C716 C 0.31417 0.48445 0.73115 0.0
C717 C 0.3209 0.46453 0.7116 0.0
C718 C 0.43176 0.48111 0.75965 0.0
C719 C 0.26888 0.49986 0.73438 0.0
H720 H 0.32184 0.50545 0.82709 0.0
H721 H 0.36727 0.58514 0.78802 0.0
H722 H 0.29202 0.45811 0.77814 0.0
H723 H 0.34781 0.44949 0.78818 0.0
H724 H 0.30424 0.45806 0.80943 0.0
H725 H 0.37278 0.58413 0.74604 0.0
H726 H 0.40318 0.54913 0.73879 0.0
H727 H 0.34546 0.55296 0.7301 0.0
H728 H 0.43136 0.44662 0.71974 0.0
H729 H 0.2939 0.46114 0.69891 0.0
H730 H 0.42219 0.4745 0.77798 0.0
H731 H 0.44083 0.50613 0.75991 0.0
H732 H 0.46202 0.46752 0.75444 0.0
H733 H 0.25545 0.49491 0.75233 0.0
H734 H 0.24383 0.49201 0.72103 0.0
H735 H 0.27272 0.52545 0.73291 0.0
C736 C 0.9022 0.47599 0.80127 0.0
C737 C 0.87034 0.45256 0.80593 0.0
C738 C 0.90228 0.49251 0.77986 0.0
C739 C 0.86987 0.48547 0.7623 0.0
C740 C 0.83854 0.46105 0.76643 0.0
C741 C 0.83912 0.44483 0.78823 0.0
C742 C 0.93672 0.51798 0.77626 0.0
C743 C 0.80381 0.45255 0.74801 0.0
C744 C 0.84933 0.54768 0.7148 0.0
C745 C 0.87693 0.53711 0.69629 0.0
C746 C 0.84603 0.53091 0.73629 0.0
C747 C 0.87065 0.50284 0.73929 0.0
C748 C 0.89875 0.4923 0.72075 0.0
C749 C 0.90179 0.50955 0.69974 0.0
C750 C 0.81616 0.54316 0.75579 0.0
C751 C 0.92579 0.46267 0.72309 0.0
H752 H 0.92666 0.48207 0.81479 0.0
H753 H 0.81405 0.4271 0.79177 0.0
H754 H 0.95771 0.51283 0.76048 0.0
H755 H 0.91939 0.54041 0.77291 0.0
H756 H 0.95934 0.52082 0.7918 0.0
H757 H 0.78239 0.43271 0.75366 0.0
H758 H 0.78178 0.47286 0.7444 0.0
H759 H 0.8207 0.4464 0.73111 0.0
H760 H 0.82971 0.56869 0.71237 0.0
H761 H 0.92349 0.50096 0.68575 0.0
H762 H 0.8366 0.54775 0.77188 0.0
H763 H 0.79055 0.52545 0.76059 0.0
H764 H 0.79858 0.56494 0.75063 0.0
H765 H 0.95037 0.46491 0.73781 0.0
H766 H 0.94456 0.4569 0.70663 0.0
H767 H 0.90317 0.44295 0.72746 0.0
C768 C 0.10361 0.04783 0.79124 0.0
C769 C 0.13834 0.05101 0.8079 0.0
C770 C 0.10886 0.02896 0.77107 0.0
C771 C 0.14929 0.01184 0.76784 0.0
C772 C 0.185 0.01563 0.78432 0.0
C773 C 0.17928 0.03547 0.80398 0.0
C774 C 0.07035 0.02642 0.75368 0.0
C775 C 0.2282 0.99735 0.78198 0.0
C776 C 0.13278 0.94026 0.72861 0.0
C777 C 0.14819 0.95124 0.70673 0.0
C778 C 0.13583 0.95899 0.74911 0.0
C779 C 0.1534 0.98967 0.74744 0.0
C780 C 0.17085 1.00012 0.72549 0.0
C781 C 0.16824 0.98073 0.70552 0.0
C782 C 0.11796 0.94657 0.77226 0.0
C783 C 0.18915 0.03266 0.72259 0.0
H784 H 0.07165 0.05932 0.79445 0.0
H785 H 0.20568 0.03702 0.81723 0.0
H786 H 0.08256 0.03086 0.7354 0.0
H787 H 0.05637 0.00251 0.75405 0.0
H788 H 0.04272 0.04303 0.7577 0.0
H789 H 0.25373 0.00429 0.79538 0.0
H790 H 0.22091 0.97222 0.78419 0.0
H791 H 0.24284 1.00046 0.76406 0.0
H792 H 0.1165 0.91773 0.72948 0.0
H793 H 0.17936 0.98945 0.68846 0.0
H794 H 0.08601 0.9586 0.77678 0.0
H795 H 0.14224 0.95122 0.7868 0.0
H796 H 0.1113 0.92118 0.77145 0.0
H797 H 0.16111 0.04961 0.72423 0.0
H798 H 0.20564 0.03609 0.70511 0.0
H799 H 0.21388 0.03803 0.73674 0.0
C800 C 0.19027 0.46155 0.29622 0.0
C801 C 0.14907 0.44664 0.3007 0.0
C802 C 0.19557 0.48131 0.27645 0.0
C803 C 0.159 0.48587 0.26062 0.0
C804 C 0.11823 0.46939 0.26442 0.0
C805 C 0.11362 0.45035 0.28451 0.0
C806 C 0.23941 0.4986 0.27326 0.0
C807 C 0.07871 0.47279 0.24774 0.0
C808 C 0.14342 0.55677 0.22041 0.0
C809 C 0.15501 0.54422 0.19836 0.0
C810 C 0.14732 0.53866 0.24124 0.0
C811 C 0.16293 0.50743 0.23984 0.0
C812 C 0.17761 0.49568 0.21777 0.0
C813 C 0.17357 0.51418 0.19744 0.0
C814 C 0.13217 0.5523 0.26452 0.0
C815 C 0.19443 0.4627 0.21521 0.0
H816 H 0.21726 0.4596 0.3091 0.0
H817 H 0.08146 0.43935 0.28817 0.0
H818 H 0.25246 0.49539 0.25502 0.0
H819 H 0.23355 0.52386 0.27579 0.0
H820 H 0.26561 0.49089 0.28605 0.0
H821 H 0.05018 0.45731 0.25258 0.0
H822 H 0.06657 0.49718 0.24791 0.0
H823 H 0.08928 0.46737 0.22935 0.0
H824 H 0.12887 0.57985 0.2212 0.0
H825 H 0.18292 0.50446 0.1804 0.0
H826 H 0.15742 0.54748 0.27856 0.0
H827 H 0.10004 0.54123 0.27002 0.0
H828 H 0.1268 0.5778 0.26333 0.0
H829 H 0.22007 0.45738 0.22892 0.0
H830 H 0.2094 0.45833 0.19747 0.0
H831 H 0.16593 0.44634 0.21781 0.0
C832 C 0.89986 0.02037 0.30826 0.0
C833 C 0.86942 0.04478 0.31269 0.0
C834 C 0.89862 0.00323 0.28715 0.0
C835 C 0.86623 0.01056 0.26964 0.0
C836 C 0.83607 0.03572 0.27359 0.0
C837 C 0.83804 0.05259 0.29507 0.0
C838 C 0.93188 0.977 0.2837 0.0
C839 C 0.80131 0.04446 0.25525 0.0
C840 C 0.8951 0.9855 0.20684 0.0
C841 C 0.86912 0.95841 0.20379 0.0
C842 C 0.89381 0.00276 0.22791 0.0
C843 C 0.86598 0.99282 0.24677 0.0
C844 C 0.84033 0.96512 0.24415 0.0
C845 C 0.84222 0.94819 0.22269 0.0
C846 C 0.92223 0.0318 0.22989 0.0
C847 C 0.81053 0.95359 0.26394 0.0
H848 H 0.92455 0.01419 0.32164 0.0
H849 H 0.8141 0.07112 0.29839 0.0
H850 H 0.91358 0.95488 0.28061 0.0
H851 H 0.95293 0.98149 0.26782 0.0
H852 H 0.95453 0.97394 0.29921 0.0
H853 H 0.78027 0.06448 0.26093 0.0
H854 H 0.81819 0.05049 0.23832 0.0
H855 H 0.77893 0.02433 0.25169 0.0
H856 H 0.91633 0.99362 0.19248 0.0
H857 H 0.82169 0.92756 0.22048 0.0
H858 H 0.94665 0.02934 0.24466 0.0
H859 H 0.90051 0.05209 0.234 0.0
H860 H 0.94127 0.03681 0.21338 0.0
H861 H 0.83111 0.94906 0.27999 0.0
H862 H 0.7923 0.93194 0.25912 0.0
H863 H 0.78546 0.97171 0.26865 0.0
C864 C 0.30438 0.16192 0.05196 0.0
C865 C 0.29147 0.14105 0.06987 0.0
C866 C 0.28351 0.16156 0.02946 0.0
C867 C 0.2499 0.13906 0.02432 0.0
C868 C 0.2363 0.11826 0.04247 0.0
C869 C 0.25666 0.11982 0.065 0.0
C870 C 0.29816 0.18484 0.01101 0.0
C871 C 0.20153 0.09335 0.0378 0.0
C872 C 0.16616 0.14688 0.97309 0.0
C873 C 0.1857 0.1282 0.95549 0.0
C874 C 0.18776 0.15189 0.99501 0.0
C875 C 0.22924 0.13685 0.99998 0.0
C876 C 0.24953 0.11832 0.98207 0.0
C877 C 0.22788 0.11462 0.95994 0.0
C878 C 0.16551 0.17268 0.01309 0.0
C879 C 0.29302 0.10111 0.9867 0.0
H880 H 0.33146 0.17823 0.0554 0.0
H881 H 0.247 0.10308 0.07844 0.0
H882 H 0.31548 0.17267 0.99628 0.0
H883 H 0.26832 0.19679 1.00339 0.0
H884 H 0.32146 0.2026 0.01837 0.0
H885 H 0.19472 0.07887 0.0537 0.0
H886 H 0.16941 0.10402 0.0319 0.0
H887 H 0.21334 0.07795 0.02329 0.0
H888 H 0.13354 0.1574 0.96977 0.0
H889 H 0.24278 0.09974 0.94657 0.0
H890 H 0.19006 0.18996 0.01993 0.0
H891 H 0.15394 0.15859 0.02838 0.0
H892 H 0.13601 0.18526 1.00565 0.0
H893 H 0.31934 0.11738 0.99307 0.0
H894 H 0.30575 0.08901 0.97066 0.0
H895 H 0.28765 0.08362 1.00088 0.0
C896 C 0.75711 0.38085 0.94862 0.0
C897 C 0.7931 0.36083 0.94322 0.0
C898 C 0.73753 0.3814 0.9714 0.0
C899 C 0.75335 0.36087 0.98926 0.0
C900 C 0.78827 0.33961 0.98358 0.0
C901 C 0.80812 0.34018 0.96085 0.0
C902 C 0.70106 0.4049 0.97662 0.0
C903 C 0.80536 0.31665 1.00169 0.0
C904 C 0.73155 0.38369 0.05404 0.0
C905 C 0.69074 0.36842 0.05876 0.0
C906 C 0.75281 0.381 0.03171 0.0
C907 C 0.73348 0.36191 0.01383 0.0
C908 C 0.69362 0.34509 0.01911 0.0
C909 C 0.67241 0.34898 0.04125 0.0
C910 C 0.79463 0.39994 0.02682 0.0
C911 C 0.6724 0.32375 1.00105 0.0
H912 H 0.74577 0.39736 0.93538 0.0
H913 H 0.83605 0.32474 0.95697 0.0
H914 H 0.67007 0.39294 0.98276 0.0
H915 H 0.71219 0.42053 0.99113 0.0
H916 H 0.6925 0.41928 0.9609 0.0
H917 H 0.83014 0.30009 0.99404 0.0
H918 H 0.8217 0.32924 0.01653 0.0
H919 H 0.77679 0.30325 0.00925 0.0
H920 H 0.74536 0.39927 0.06728 0.0
H921 H 0.64069 0.3373 0.04472 0.0
H922 H 0.7875 0.4171 0.01262 0.0
H923 H 0.82221 0.38473 0.02038 0.0
H924 H 0.80658 0.41263 0.04277 0.0
H925 H 0.65884 0.33765 0.9861 0.0
H926 H 0.64445 0.30979 0.0087 0.0
H927 H 0.69807 0.30769 0.99366 0.0
C928 C 0.30166 0.83895 0.46397 0.0
C929 C 0.28998 0.86102 0.4467 0.0
C930 C 0.27927 0.83774 0.48598 0.0
C931 C 0.24551 0.85997 0.49137 0.0
C932 C 0.23252 0.88165 0.47364 0.0
C933 C 0.25445 0.88161 0.45145 0.0
C934 C 0.29319 0.81347 0.50385 0.0
C935 C 0.19754 0.90627 0.47864 0.0
C936 C 0.16389 0.85011 0.54334 0.0
C937 C 0.18456 0.86779 0.56121 0.0
C938 C 0.18416 0.8463 0.52095 0.0
C939 C 0.22538 0.86156 0.51582 0.0
C940 C 0.24675 0.87911 0.53397 0.0
C941 C 0.22644 0.8816 0.55652 0.0
C942 C 0.16089 0.82647 0.50259 0.0
C943 C 0.29008 0.89645 0.52925 0.0
H944 H 0.32955 0.82329 0.46055 0.0
H945 H 0.24613 0.8993 0.43847 0.0
H946 H 0.31132 0.82474 0.51873 0.0
H947 H 0.26303 0.8018 0.51136 0.0
H948 H 0.31563 0.79557 0.49597 0.0
H949 H 0.18975 0.92053 0.46274 0.0
H950 H 0.16589 0.89545 0.48506 0.0
H951 H 0.2099 0.92189 0.49288 0.0
H952 H 0.13137 0.83954 0.54682 0.0
H953 H 0.2421 0.89582 0.57008 0.0
H954 H 0.1849 0.80929 0.4951 0.0
H955 H 0.14905 0.84127 0.48775 0.0
H956 H 0.13145 0.81381 0.51 0.0
H957 H 0.31665 0.88009 0.5233 0.0
H958 H 0.30248 0.90905 0.54514 0.0
H959 H 0.28481 0.9135 0.51474 0.0
C960 C 0.68807 0.66157 0.46296 0.0
C961 C 0.70513 0.64123 0.44562 0.0
C962 C 0.70765 0.66363 0.48573 0.0
C963 C 0.7448 0.64441 0.49176 0.0
C964 C 0.76295 0.62443 0.47415 0.0
C965 C 0.74326 0.62329 0.45136 0.0
C966 C 0.68769 0.68581 0.50358 0.0
C967 C 0.8021 0.60318 0.47969 0.0
C968 C 0.8216 0.6615 0.5449 0.0
C969 C 0.80513 0.641 0.56229 0.0
C970 C 0.80127 0.66376 0.52234 0.0
C971 C 0.76398 0.64456 0.51655 0.0
C972 C 0.7462 0.62458 0.53429 0.0
C973 C 0.76665 0.62326 0.55691 0.0
C974 C 0.8208 0.686 0.50438 0.0
C975 C 0.70696 0.60332 0.529 0.0
H976 H 0.65858 0.67547 0.45891 0.0
H977 H 0.75643 0.60708 0.43839 0.0
H978 H 0.67216 0.6725 0.5183 0.0
H979 H 0.71453 0.7006 0.51135 0.0
H980 H 0.66153 0.70107 0.49563 0.0
H981 H 0.81332 0.58971 0.46397 0.0
H982 H 0.83108 0.61684 0.48646 0.0
H983 H 0.79226 0.58661 0.49385 0.0
H984 H 0.85136 0.67524 0.54871 0.0
H985 H 0.754 0.60691 0.56992 0.0
H986 H 0.79372 0.70056 0.49657 0.0
H987 H 0.83651 0.67271 0.48971 0.0
H988 H 0.84675 0.70149 0.51225 0.0
H989 H 0.67833 0.61677 0.5216 0.0
H990 H 0.69514 0.59065 0.54498 0.0
H991 H 0.71708 0.58605 0.5154 0.0
C992 C 0.72508 0.88871 0.95978 0.0
C993 C 0.68122 0.87753 0.95593 0.0
C994 C 0.74642 0.88527 0.98204 0.0
C995 C 0.72398 0.86942 1.00073 0.0
C996 C 0.68053 0.85686 0.99647 0.0
C997 C 0.65948 0.86155 0.97437 0.0
C998 C 0.79219 0.89979 0.98587 0.0
C999 C 0.65576 0.83898 0.01545 0.0
C1000 C 0.79548 0.84169 0.05334 0.0
C1001 C 0.78579 0.86412 0.0707 0.0
C1002 C 0.77482 0.84261 0.0308 0.0
C1003 C 0.74484 0.86719 0.02502 0.0
C1004 C 0.73471 0.88975 0.04256 0.0
C1005 C 0.75469 0.88768 0.06518 0.0
C1006 C 0.78563 0.8175 0.01303 0.0
C1007 C 0.70397 0.91684 0.03718 0.0
H1008 H 0.74181 0.9015 0.94576 0.0
H1009 H 0.62559 0.85283 0.97153 0.0
H1010 H 0.78992 0.91782 0.99988 0.0
H1011 H 0.81657 0.88204 0.9921 0.0
H1012 H 0.80568 0.91072 0.9695 0.0
H1013 H 0.62422 0.82824 0.00869 0.0
H1014 H 0.6777 0.8204 0.02274 0.0
H1015 H 0.64702 0.85476 0.03029 0.0
H1016 H 0.81973 0.82356 0.05731 0.0
H1017 H 0.74769 0.90558 0.07819 0.0
H1018 H 0.8037 0.8277 0.99769 0.0
H1019 H 0.75402 0.80701 1.00619 0.0
H1020 H 0.80689 0.79881 0.02075 0.0
H1021 H 0.71754 0.93028 0.02199 0.0
H1022 H 0.70013 0.93276 0.05254 0.0
H1023 H 0.67012 0.90828 0.03198 0.0
C1024 C 0.31409 0.67012 0.96192 0.0
C1025 C 0.29691 0.65074 0.94401 0.0
C1026 C 0.29465 0.6708 0.98474 0.0
C1027 C 0.25786 0.65096 0.99016 0.0
C1028 C 0.23969 0.63194 0.97198 0.0
C1029 C 0.25897 0.63236 0.94916 0.0
C1030 C 0.31434 0.69214 1.00326 0.0
C1031 C 0.20111 0.60995 0.97691 0.0
C1032 C 0.23644 0.62472 0.05407 0.0
C1033 C 0.19704 0.64115 0.05986 0.0
C1034 C 0.25726 0.62825 0.03173 0.0
C1035 C 0.239 0.64931 0.01489 0.0
C1036 C 0.20085 0.66733 0.02125 0.0
C1037 C 0.18002 0.6627 0.04342 0.0
C1038 C 0.29734 0.6081 0.02568 0.0
C1039 C 0.18096 0.69073 1.00429 0.0
H1040 H 0.34349 0.68429 0.95824 0.0
H1041 H 0.24582 0.61685 0.9357 0.0
H1042 H 0.28723 0.70596 0.01178 0.0
H1043 H 0.33078 0.67817 0.01734 0.0
H1044 H 0.33973 0.70832 0.99569 0.0
H1045 H 0.19049 0.59691 0.96086 0.0
H1046 H 0.21122 0.593 0.99076 0.0
H1047 H 0.17166 0.62298 0.98382 0.0
H1048 H 0.24946 0.60766 0.06645 0.0
H1049 H 0.1496 0.6755 0.0477 0.0
H1050 H 0.32585 0.62263 0.01944 0.0
H1051 H 0.2883 0.59213 0.01099 0.0
H1052 H 0.3089 0.594 0.04101 0.0
H1053 H 0.20779 0.70609 0.99715 0.0
H1054 H 0.15474 0.70538 0.01282 0.0
H1055 H 0.16546 0.67846 0.98905 0.0
C1056 C 0.81474 0.16627 0.46494 0.0
C1057 C 0.79868 0.14571 0.44751 0.0
C1058 C 0.79463 0.16794 0.48757 0.0
C1059 C 0.75818 0.14798 0.49334 0.0
C1060 C 0.74094 0.12786 0.47559 0.0
C1061 C 0.76097 0.12723 0.45291 0.0
C1062 C 0.81344 0.19038 0.50558 0.0
C1063 C 0.7027 0.10576 0.48089 0.0
C1064 C 0.73783 0.12486 0.5581 0.0
C1065 C 0.69845 0.14148 0.56371 0.0
C1066 C 0.75804 0.1272 0.53551 0.0
C1067 C 0.73916 0.14718 0.5181 0.0
C1068 C 0.70088 0.16527 0.52413 0.0
C1069 C 0.68073 0.16191 0.54664 0.0
C1070 C 0.79837 0.10706 0.5299 0.0
C1071 C 0.68026 0.18752 0.50652 0.0
H1072 H 0.84393 0.18057 0.46108 0.0
H1073 H 0.74868 0.11084 0.43983 0.0
H1074 H 0.78584 0.20424 0.51362 0.0
H1075 H 0.83002 0.17728 0.5201 0.0
H1076 H 0.83852 0.20652 0.49769 0.0
H1077 H 0.69229 0.09219 0.46506 0.0
H1078 H 0.71312 0.08928 0.495 0.0
H1079 H 0.67306 0.11875 0.48761 0.0
H1080 H 0.7515 0.10864 0.57092 0.0
H1081 H 0.65034 0.17485 0.5507 0.0
H1082 H 0.82671 0.12156 0.52341 0.0
H1083 H 0.78961 0.09054 0.51553 0.0
H1084 H 0.81007 0.09357 0.54553 0.0
H1085 H 0.70661 0.20295 0.499 0.0
H1086 H 0.65351 0.20214 0.51462 0.0
H1087 H 0.66529 0.1743 0.4916 0.0
C1088 C 0.28409 0.36104 0.55652 0.0
C1089 C 0.3193 0.38273 0.55828 0.0
C1090 C 0.25937 0.35759 0.53522 0.0
C1091 C 0.26922 0.37682 0.5154 0.0
C1092 C 0.30464 0.39875 0.5172 0.0
C1093 C 0.32933 0.40118 0.53838 0.0
C1094 C 0.22246 0.33353 0.53396 0.0
C1095 C 0.31569 0.42047 0.49697 0.0
C1096 C 0.22856 0.3608 0.45193 0.0
C1097 C 0.19023 0.37986 0.45045 0.0
C1098 C 0.2535 0.3584 0.47324 0.0
C1099 C 0.24056 0.37605 0.49341 0.0
C1100 C 0.20181 0.39516 0.49197 0.0
C1101 C 0.17711 0.39658 0.47075 0.0
C1102 C 0.2941 0.33733 0.47409 0.0
C1103 C 0.18723 0.41512 0.51262 0.0
H1104 H 0.27618 0.34655 0.57167 0.0
H1105 H 0.3561 0.41828 0.5395 0.0
H1106 H 0.18931 0.34516 0.53193 0.0
H1107 H 0.22737 0.3185 0.51819 0.0
H1108 H 0.22139 0.31865 0.55003 0.0
H1109 H 0.34491 0.43576 0.50097 0.0
H1110 H 0.32337 0.40697 0.48073 0.0
H1111 H 0.28607 0.43534 0.49298 0.0
H1112 H 0.23899 0.34769 0.43648 0.0
H1113 H 0.1479 0.41168 0.46993 0.0
H1114 H 0.29198 0.32171 0.4897 0.0
H1115 H 0.32517 0.35143 0.4761 0.0
H1116 H 0.29732 0.32294 0.45784 0.0
H1117 H 0.1821 0.40057 0.52862 0.0
H1118 H 0.15553 0.42801 0.50894 0.0
H1119 H 0.21408 0.43221 0.51685 0.0
C1120 C 0.54262 0.01881 0.11653 0.0
C1121 C 0.53401 0.05069 0.11862 0.0
C1122 C 0.58665 0.00742 0.11672 0.0
C1123 C 0.6229 0.02841 0.11968 0.0
C1124 C 0.61456 0.06072 0.12162 0.0
C1125 C 0.56994 0.07161 0.12072 0.0
C1126 C 0.59426 0.97284 0.11406 0.0
C1127 C 0.65254 0.08357 0.12524 0.0
C1128 C 0.7232 0.98706 0.14564 0.0
C1129 C 0.74899 0.98134 0.12537 0.0
C1130 C 0.68365 0.00464 0.1443 0.0
C1131 C 0.66905 0.01581 0.122 0.0
C1132 C 0.69585 0.01096 0.10158 0.0
C1133 C 0.73605 0.99405 0.10359 0.0
C1134 C 0.65638 0.0099 0.16654 0.0
C1135 C 0.68069 0.02183 0.07742 0.0
H1136 H 0.51477 0.0027 0.11441 0.0
H1137 H 0.56306 0.09627 0.12226 0.0
H1138 H 0.61864 0.96826 0.09957 0.0
H1139 H 0.60894 0.96331 0.13061 0.0
H1140 H 0.56256 0.96006 0.11018 0.0
H1141 H 0.64051 0.10803 0.12541 0.0
H1142 H 0.66967 0.07865 0.14232 0.0
H1143 H 0.6781 0.08096 0.11105 0.0
H1144 H 0.73389 0.9776 0.16255 0.0
H1145 H 0.75628 0.98952 0.08796 0.0
H1146 H 0.62527 0.99561 0.16588 0.0
H1147 H 0.64591 0.0346 0.16787 0.0
H1148 H 0.67546 0.00357 0.18278 0.0
H1149 H 0.65137 0.00773 0.0716 0.0
H1150 H 0.70778 0.01957 0.06394 0.0
H1151 H 0.66955 0.04642 0.07809 0.0
C1152 C 0.418 0.42659 0.11089 0.0
C1153 C 0.44647 0.43687 0.12911 0.0
C1154 C 0.37456 0.43902 0.10823 0.0
C1155 C 0.35904 0.4615 0.1246 0.0
C1156 C 0.38632 0.4699 0.14418 0.0
C1157 C 0.43008 0.45784 0.14599 0.0
C1158 C 0.34662 0.42981 0.087 0.0
C1159 C 0.37043 0.49316 0.16239 0.0
C1160 C 0.27901 0.52583 0.10657 0.0
C1161 C 0.23832 0.51525 0.11611 0.0
C1162 C 0.31807 0.50756 0.10796 0.0
C1163 C 0.31653 0.47868 0.12004 0.0
C1164 C 0.2751 0.46755 0.12913 0.0
C1165 C 0.23624 0.48585 0.12674 0.0
C1166 C 0.36137 0.51985 0.09742 0.0
C1167 C 0.27233 0.4374 0.14275 0.0
H1168 H 0.43096 0.41074 0.0976 0.0
H1169 H 0.45221 0.46582 0.16002 0.0
H1170 H 0.3134 0.42078 0.09283 0.0
H1171 H 0.34007 0.45052 0.07579 0.0
H1172 H 0.36346 0.41182 0.076 0.0
H1173 H 0.39303 0.49399 0.17808 0.0
H1174 H 0.36931 0.51667 0.15432 0.0
H1175 H 0.33579 0.48743 0.16841 0.0
H1176 H 0.28043 0.54865 0.09842 0.0
H1177 H 0.2048 0.47802 0.13453 0.0
H1178 H 0.37871 0.50146 0.08709 0.0
H1179 H 0.38448 0.52706 0.11187 0.0
H1180 H 0.35547 0.54017 0.08567 0.0
H1181 H 0.28969 0.41845 0.13306 0.0
H1182 H 0.23691 0.43029 0.14617 0.0
H1183 H 0.2897 0.44017 0.16004 0.0
C1184 C 0.56311 0.95442 0.37098 0.0
C1185 C 0.54501 0.9406 0.39129 0.0
C1186 C 0.60621 0.96771 0.37141 0.0
C1187 C 0.63083 0.96805 0.39291 0.0
C1188 C 0.61347 0.95287 0.41319 0.0
C1189 C 0.57087 0.93887 0.41202 0.0
C1190 C 0.62429 0.98287 0.34923 0.0
C1191 C 0.6382 0.95345 0.43658 0.0
C1192 C 0.75405 0.99087 0.39059 0.0
C1193 C 0.7514 0.02301 0.39439 0.0
C1194 C 0.71506 0.97249 0.39032 0.0
C1195 C 0.67278 0.98658 0.39461 0.0
C1196 C 0.67021 0.01883 0.39951 0.0
C1197 C 0.7096 0.0368 0.39895 0.0
C1198 C 0.71891 0.93833 0.3845 0.0
C1199 C 0.62577 0.03447 0.40487 0.0
H1200 H 0.5429 0.95573 0.35499 0.0
H1201 H 0.55642 0.92864 0.42785 0.0
H1202 H 0.6246 0.00848 0.35152 0.0
H1203 H 0.65954 0.97539 0.34593 0.0
H1204 H 0.6036 0.97722 0.33339 0.0
H1205 H 0.62245 0.93784 0.4499 0.0
H1206 H 0.67393 0.94654 0.43421 0.0
H1207 H 0.63804 0.97749 0.44371 0.0
H1208 H 0.78645 0.9803 0.3868 0.0
H1209 H 0.70775 0.06165 0.40204 0.0
H1210 H 0.70097 0.93345 0.36765 0.0
H1211 H 0.70257 0.92414 0.39847 0.0
H1212 H 0.75452 0.93072 0.38264 0.0
H1213 H 0.6038 0.03373 0.38897 0.0
H1214 H 0.63013 0.05913 0.41025 0.0
H1215 H 0.60796 0.02191 0.41926 0.0
C1216 C 0.42752 0.56795 0.40209 0.0
C1217 C 0.46047 0.55705 0.38632 0.0
C1218 C 0.38298 0.55695 0.40094 0.0
C1219 C 0.3712 0.53479 0.38346 0.0
C1220 C 0.40359 0.52534 0.36652 0.0
C1221 C 0.44787 0.53647 0.36822 0.0
C1222 C 0.34936 0.56755 0.41931 0.0
C1223 C 0.39219 0.50206 0.34741 0.0
C1224 C 0.28266 0.47358 0.39578 0.0
C1225 C 0.24629 0.48408 0.38206 0.0
C1226 C 0.32277 0.49065 0.39718 0.0
C1227 C 0.32684 0.5188 0.38435 0.0
C1228 C 0.28973 0.53015 0.37116 0.0
C1229 C 0.24973 0.51269 0.37025 0.0
C1230 C 0.3614 0.47792 0.4117 0.0
C1231 C 0.29291 0.56001 0.35721 0.0
H1232 H 0.43698 0.58386 0.41613 0.0
H1233 H 0.473 0.52826 0.35576 0.0
H1234 H 0.31691 0.57397 0.41084 0.0
H1235 H 0.3424 0.54819 0.43178 0.0
H1236 H 0.36193 0.58774 0.42965 0.0
H1237 H 0.41969 0.49966 0.33417 0.0
H1238 H 0.38605 0.47897 0.35556 0.0
H1239 H 0.36085 0.50897 0.33806 0.0
H1240 H 0.28004 0.45169 0.40519 0.0
H1241 H 0.22178 0.5209 0.35956 0.0
H1242 H 0.37392 0.49585 0.42419 0.0
H1243 H 0.3898 0.47166 0.39983 0.0
H1244 H 0.35163 0.45696 0.42199 0.0
H1245 H 0.30625 0.579 0.3685 0.0
H1246 H 0.25976 0.56725 0.34989 0.0
H1247 H 0.31683 0.55691 0.34229 0.0
C1248 C 0.27565 0.02103 0.89434 0.0
C1249 C 0.23474 0.01181 0.8841 0.0
C1250 C 0.31449 0.00274 0.89203 0.0
C1251 C 0.31252 0.97468 0.8789 0.0
C1252 C 0.27111 0.96482 0.86902 0.0
C1253 C 0.23262 0.98343 0.87184 0.0
C1254 C 0.35806 0.01447 0.90266 0.0
C1255 C 0.26791 0.93546 0.85446 0.0
C1256 C 0.42799 0.95415 0.85568 0.0
C1257 C 0.44319 0.93356 0.87317 0.0
C1258 C 0.38376 0.96561 0.85606 0.0
C1259 C 0.35456 0.95676 0.87471 0.0
C1260 C 0.36857 0.93398 0.89126 0.0
C1261 C 0.41272 0.92234 0.89012 0.0
C1262 C 0.36968 0.98922 0.8377 0.0
C1263 C 0.33853 0.92426 0.91153 0.0
H1264 H 0.27761 0.04291 0.90382 0.0
H1265 H 0.20127 0.9763 0.8636 0.0
H1266 H 0.37848 0.99519 0.91003 0.0
H1267 H 0.37836 0.02583 0.88861 0.0
H1268 H 0.35193 0.0318 0.91689 0.0
H1269 H 0.23243 0.92922 0.8503 0.0
H1270 H 0.28637 0.93874 0.83755 0.0
H1271 H 0.28395 0.91571 0.86387 0.0
H1272 H 0.45154 0.96276 0.84252 0.0
H1273 H 0.42454 0.90669 0.90384 0.0
H1274 H 0.36934 0.0127 0.84581 0.0
H1275 H 0.33511 0.98429 0.8312 0.0
H1276 H 0.39309 0.98961 0.82234 0.0
H1277 H 0.33382 0.94419 0.92376 0.0
H1278 H 0.35289 0.90449 0.92171 0.0
H1279 H 0.30471 0.91756 0.90489 0.0
C1280 C 0.74012 0.5085 0.87881 0.0
C1281 C 0.73949 0.47631 0.88259 0.0
C1282 C 0.70004 0.52568 0.87855 0.0
C1283 C 0.65868 0.51034 0.88284 0.0
C1284 C 0.65797 0.4779 0.88713 0.0
C1285 C 0.69847 0.46114 0.88659 0.0
C1286 C 0.70188 0.56011 0.87338 0.0
C1287 C 0.61451 0.46096 0.8924 0.0
C1288 C 0.55888 0.55718 0.90437 0.0
C1289 C 0.53168 0.55784 0.88407 0.0
C1290 C 0.60071 0.54212 0.90414 0.0
C1291 C 0.61602 0.5282 0.88292 0.0
C1292 C 0.5897 0.5302 0.86205 0.0
C1293 C 0.54737 0.54463 0.86297 0.0
C1294 C 0.62741 0.5398 0.92687 0.0
C1295 C 0.60562 0.5163 0.83896 0.0
H1296 H 0.77192 0.52013 0.87544 0.0
H1297 H 0.69818 0.43626 0.88966 0.0
H1298 H 0.68078 0.56551 0.85767 0.0
H1299 H 0.68785 0.57339 0.88851 0.0
H1300 H 0.73678 0.56835 0.86996 0.0
H1301 H 0.62006 0.43591 0.89622 0.0
H1302 H 0.59751 0.47172 0.90787 0.0
H1303 H 0.59122 0.46297 0.8771 0.0
H1304 H 0.5464 0.56698 0.92081 0.0
H1305 H 0.52625 0.54522 0.84729 0.0
H1306 H 0.66199 0.54899 0.92424 0.0
H1307 H 0.6307 0.51504 0.93212 0.0
H1308 H 0.61133 0.55273 0.94167 0.0
H1309 H 0.64015 0.52459 0.83477 0.0
H1310 H 0.58297 0.52225 0.82395 0.0
H1311 H 0.60723 0.49063 0.84057 0.0
C1312 C 0.28225 0.97184 0.61615 0.0
C1313 C 0.24427 0.98189 0.62878 0.0
C1314 C 0.32255 0.98889 0.61661 0.0
C1315 C 0.32518 0.01632 0.63043 0.0
C1316 C 0.28666 0.02698 0.64279 0.0
C1317 C 0.24651 0.00976 0.64164 0.0
C1318 C 0.36267 0.97712 0.60277 0.0
C1319 C 0.28828 0.05594 0.65787 0.0
C1320 C 0.44414 0.03638 0.64969 0.0
C1321 C 0.45676 0.05827 0.6325 0.0
C1322 C 0.40054 0.02371 0.64998 0.0
C1323 C 0.3689 0.033 0.63257 0.0
C1324 C 0.3805 0.05641 0.61608 0.0
C1325 C 0.4242 0.0689 0.61631 0.0
C1326 C 0.38914 0.99912 0.66812 0.0
C1327 C 0.34764 0.06696 0.59728 0.0
H1328 H 0.28057 0.95043 0.60604 0.0
H1329 H 0.21737 0.01753 0.6516 0.0
H1330 H 0.3759 0.9957 0.59104 0.0
H1331 H 0.39014 0.97062 0.61516 0.0
H1332 H 0.35423 0.95655 0.59173 0.0
H1333 H 0.25471 0.06208 0.66524 0.0
H1334 H 0.31206 0.0524 0.6728 0.0
H1335 H 0.301 0.07588 0.64735 0.0
H1336 H 0.46885 0.02818 0.66239 0.0
H1337 H 0.43341 0.08586 0.60297 0.0
H1338 H 0.38502 0.97635 0.65916 0.0
H1339 H 0.35671 0.00465 0.67695 0.0
H1340 H 0.41574 0.99679 0.68187 0.0
H1341 H 0.34172 0.04774 0.58455 0.0
H1342 H 0.36021 0.08748 0.58731 0.0
H1343 H 0.31463 0.07289 0.60532 0.0
C1344 C 0.57796 0.45231 0.65436 0.0
C1345 C 0.55935 0.43264 0.63722 0.0
C1346 C 0.62141 0.46454 0.6515 0.0
C1347 C 0.64578 0.45798 0.63051 0.0
C1348 C 0.62829 0.43645 0.61391 0.0
C1349 C 0.58558 0.42345 0.61779 0.0
C1350 C 0.6399 0.48614 0.6702 0.0
C1351 C 0.65309 0.42835 0.59135 0.0
C1352 C 0.72005 0.52542 0.61199 0.0
C1353 C 0.76293 0.51416 0.61766 0.0
C1354 C 0.6818 0.50667 0.61492 0.0
C1355 C 0.68657 0.4765 0.62479 0.0
C1356 C 0.72999 0.46486 0.63012 0.0
C1357 C 0.76781 0.48367 0.62605 0.0
C1358 C 0.63629 0.51997 0.60842 0.0
C1359 C 0.73632 0.43324 0.64123 0.0
H1360 H 0.55761 0.45938 0.66938 0.0
H1361 H 0.57104 0.40838 0.60442 0.0
H1362 H 0.676 0.48104 0.67368 0.0
H1363 H 0.63757 0.5105 0.66386 0.0
H1364 H 0.62092 0.48428 0.68711 0.0
H1365 H 0.62968 0.41975 0.57745 0.0
H1366 H 0.67193 0.44852 0.58414 0.0
H1367 H 0.67769 0.40958 0.5951 0.0
H1368 H 0.71638 0.54906 0.60558 0.0
H1369 H 0.80104 0.47519 0.6308 0.0
H1370 H 0.6214 0.53134 0.62422 0.0
H1371 H 0.61255 0.50172 0.60236 0.0
H1372 H 0.63935 0.53781 0.59427 0.0
H1373 H 0.716 0.43149 0.6577 0.0
H1374 H 0.77216 0.42841 0.64562 0.0
H1375 H 0.72418 0.41496 0.62897 0.0
C1376 C 0.23196 0.47993 0.61307 0.0
C1377 C 0.26795 0.48862 0.62774 0.0
C1378 C 0.19215 0.4974 0.61237 0.0
C1379 C 0.18797 0.52407 0.62691 0.0
C1380 C 0.22477 0.53366 0.64112 0.0
C1381 C 0.2645 0.51587 0.64128 0.0
C1382 C 0.15389 0.48658 0.59673 0.0
C1383 C 0.22145 0.56184 0.65695 0.0
C1384 C 0.08767 0.57456 0.61096 0.0
C1385 C 0.05404 0.5615 0.62533 0.0
C1386 C 0.13243 0.56399 0.61226 0.0
C1387 C 0.14368 0.54008 0.62846 0.0
C1388 C 0.1106 0.52868 0.64431 0.0
C1389 C 0.06615 0.53942 0.64247 0.0
C1390 C 0.16681 0.57678 0.59513 0.0
C1391 C 0.12138 0.50354 0.66212 0.0
H1392 H 0.23463 0.45908 0.60237 0.0
H1393 H 0.29215 0.52263 0.65274 0.0
H1394 H 0.12502 0.47918 0.60789 0.0
H1395 H 0.142 0.50592 0.58533 0.0
H1396 H 0.16378 0.46679 0.58521 0.0
H1397 H 0.25459 0.56831 0.66469 0.0
H1398 H 0.20794 0.58201 0.64697 0.0
H1399 H 0.19764 0.55696 0.67165 0.0
H1400 H 0.07858 0.59165 0.59768 0.0
H1401 H 0.04044 0.52957 0.65388 0.0
H1402 H 0.17404 0.55912 0.58133 0.0
H1403 H 0.199 0.58192 0.60434 0.0
H1404 H 0.15473 0.59828 0.58625 0.0
H1405 H 0.12752 0.4813 0.65271 0.0
H1406 H 0.09351 0.49995 0.67499 0.0
H1407 H 0.15253 0.50937 0.67206 0.0
C1408 C 0.74079 0.98771 0.6329 0.0
C1409 C 0.7442 0.0166 0.62158 0.0
C1410 C 0.77904 0.96918 0.63654 0.0
C1411 C 0.82128 0.97948 0.62795 0.0
C1412 C 0.82434 0.00794 0.61534 0.0
C1413 C 0.78581 0.02655 0.61279 0.0
C1414 C 0.77467 0.93964 0.6508 0.0
C1415 C 0.86858 0.01933 0.60531 0.0
C1416 C 0.93329 0.95702 0.65501 0.0
C1417 C 0.94913 0.93525 0.63857 0.0
C1418 C 0.89008 0.9699 0.65276 0.0
C1419 C 0.86289 0.96154 0.63314 0.0
C1420 C 0.87771 0.93822 0.61728 0.0
C1421 C 0.92048 0.92494 0.62043 0.0
C1422 C 0.87481 0.99397 0.67049 0.0
C1423 C 0.84982 0.92895 0.59603 0.0
H1424 H 0.70859 0.98046 0.64015 0.0
H1425 H 0.78825 0.04903 0.60417 0.0
H1426 H 0.79081 0.91992 0.64144 0.0
H1427 H 0.79242 0.9425 0.66797 0.0
H1428 H 0.73891 0.9336 0.65446 0.0
H1429 H 0.89062 0.02734 0.61997 0.0
H1430 H 0.88649 1.00025 0.59603 0.0
H1431 H 0.86382 0.03892 0.59273 0.0
H1432 H 0.95554 0.96505 0.66898 0.0
H1433 H 0.93297 0.90845 0.60748 0.0
H1434 H 0.8396 0.98936 0.67615 0.0
H1435 H 0.87549 0.01731 0.66214 0.0
H1436 H 0.89677 0.99448 0.68643 0.0
H1437 H 0.81727 0.91893 0.60195 0.0
H1438 H 0.86727 0.91162 0.58468 0.0
H1439 H 0.84189 0.94972 0.58515 0.0
C1440 C 0.1995 0.5485 0.89562 0.0
C1441 C 0.24066 0.53301 0.89293 0.0
C1442 C 0.15901 0.53181 0.89688 0.0
C1443 C 0.15989 0.49902 0.89467 0.0
C1444 C 0.2015 0.48326 0.8924 0.0
C1445 C 0.24154 0.50047 0.89185 0.0
C1446 C 0.11525 0.54929 0.89997 0.0
C1447 C 0.20358 0.44838 0.88957 0.0
C1448 C 0.05561 0.45445 0.91309 0.0
C1449 C 0.03241 0.45234 0.89152 0.0
C1450 C 0.09759 0.46925 0.91439 0.0
C1451 C 0.11706 0.48146 0.89349 0.0
C1452 C 0.09469 0.47804 0.87147 0.0
C1453 C 0.05219 0.46389 0.87081 0.0
C1454 C 0.11996 0.47317 0.93824 0.0
C1455 C 0.11504 0.49013 0.84874 0.0
H1456 H 0.199 0.57367 0.89664 0.0
H1457 H 0.27345 0.48854 0.88952 0.0
H1458 H 0.09439 0.5469 0.88376 0.0
H1459 H 0.09566 0.53931 0.91489 0.0
H1460 H 0.12078 0.57443 0.90342 0.0
H1461 H 0.23879 0.43959 0.889 0.0
H1462 H 0.18564 0.43679 0.90437 0.0
H1463 H 0.18631 0.44152 0.87293 0.0
H1464 H 0.03988 0.44594 0.92918 0.0
H1465 H 0.03413 0.46218 0.85416 0.0
H1466 H 0.12082 0.4982 0.94298 0.0
H1467 H 0.15536 0.46492 0.93759 0.0
H1468 H 0.10195 0.46038 0.95249 0.0
H1469 H 0.11716 0.51586 0.8494 0.0
H1470 H 0.09495 0.48342 0.83293 0.0
H1471 H 0.14987 0.48115 0.84659 0.0
C1472 C 0.92808 0.04762 0.85989 0.0
C1473 C 0.94334 0.06927 0.87661 0.0
C1474 C 0.88374 0.03645 0.86056 0.0
C1475 C 0.85424 0.04691 0.87859 0.0
C1476 C 0.86832 0.07066 0.89428 0.0
C1477 C 0.91278 0.08176 0.893 0.0
C1478 C 0.86972 0.01157 0.84318 0.0
C1479 C 0.83791 0.08236 0.91377 0.0
C1480 C 0.73251 0.02087 0.87283 0.0
C1481 C 0.73301 0.99303 0.88584 0.0
C1482 C 0.77125 0.03945 0.87104 0.0
C1483 C 0.8112 0.0301 0.88272 0.0
C1484 C 0.81118 0.00294 0.89693 0.0
C1485 C 0.77216 0.98462 0.89818 0.0
C1486 C 0.77005 0.06818 0.85569 0.0
C1487 C 0.853 0.9924 0.90996 0.0
H1488 H 0.95162 0.03806 0.84713 0.0
H1489 H 0.92456 0.09827 0.90612 0.0
H1490 H 0.86681 0.98898 0.85255 0.0
H1491 H 0.83621 0.01698 0.83549 0.0
H1492 H 0.89441 0.00889 0.82852 0.0
H1493 H 0.8507 0.1043 0.92168 0.0
H1494 H 0.80322 0.08632 0.90706 0.0
H1495 H 0.83586 0.06457 0.92797 0.0
H1496 H 0.70243 0.02748 0.86315 0.0
H1497 H 0.77265 0.96331 0.90844 0.0
H1498 H 0.79056 0.06421 0.83953 0.0
H1499 H 0.78499 0.08827 0.86518 0.0
H1500 H 0.7352 0.07429 0.85016 0.0
H1501 H 0.87862 0.98445 0.89698 0.0
H1502 H 0.84593 0.97302 0.92244 0.0
H1503 H 0.86796 0.01196 0.92004 0.0
C1504 C 0.93601 0.4535 0.35303 0.0
C1505 C 0.95328 0.433 0.37001 0.0
C1506 C 0.89288 0.46637 0.35565 0.0
C1507 C 0.8674 0.45944 0.3762 0.0
C1508 C 0.88354 0.43719 0.39262 0.0
C1509 C 0.92603 0.4237 0.38902 0.0
C1510 C 0.87601 0.48904 0.33725 0.0
C1511 C 0.85751 0.42918 0.4148 0.0
C1512 C 0.79361 0.52642 0.3962 0.0
C1513 C 0.75082 0.51585 0.38972 0.0
C1514 C 0.83166 0.50757 0.3929 0.0
C1515 C 0.82675 0.47815 0.38181 0.0
C1516 C 0.7834 0.46736 0.3754 0.0
C1517 C 0.74576 0.48618 0.37984 0.0
C1518 C 0.87718 0.51975 0.40053 0.0
C1519 C 0.77701 0.43681 0.36268 0.0
H1520 H 0.9572 0.46072 0.33837 0.0
H1521 H 0.93961 0.4081 0.40233 0.0
H1522 H 0.84 0.48461 0.33311 0.0
H1523 H 0.87864 0.51306 0.34426 0.0
H1524 H 0.89585 0.48768 0.32059 0.0
H1525 H 0.87827 0.41589 0.4277 0.0
H1526 H 0.84488 0.45051 0.42363 0.0
H1527 H 0.82779 0.41485 0.41008 0.0
H1528 H 0.7973 0.54951 0.40366 0.0
H1529 H 0.71254 0.47843 0.37437 0.0
H1530 H 0.89509 0.52929 0.38489 0.0
H1531 H 0.89839 0.50097 0.40808 0.0
H1532 H 0.87397 0.5386 0.41388 0.0
H1533 H 0.79503 0.43744 0.34546 0.0
H1534 H 0.7409 0.43155 0.3593 0.0
H1535 H 0.79176 0.41754 0.37316 0.0
C1536 C 0.25087 0.00973 0.37782 0.0
C1537 C 0.24981 0.97822 0.38421 0.0
C1538 C 0.21163 0.02782 0.37832 0.0
C1539 C 0.17072 0.01417 0.38584 0.0
C1540 C 0.16967 0.98254 0.39283 0.0
C1541 C 0.20923 0.96481 0.39166 0.0
C1542 C 0.21373 0.0613 0.37034 0.0
C1543 C 0.12672 0.96739 0.40139 0.0
C1544 C 0.0727 0.06312 0.40701 0.0
C1545 C 0.04272 0.06002 0.38798 0.0
C1546 C 0.11544 0.04926 0.40626 0.0
C1547 C 0.12852 0.03254 0.38579 0.0
C1548 C 0.09959 0.03132 0.36588 0.0
C1549 C 0.05675 0.04482 0.36731 0.0
C1550 C 0.14525 0.05071 0.42793 0.0
C1551 C 0.11289 0.01433 0.34354 0.0
H1552 H 0.28223 0.02007 0.37188 0.0
H1553 H 0.20853 0.94054 0.39683 0.0
H1554 H 0.19141 0.06472 0.35478 0.0
H1555 H 0.20127 0.07684 0.38458 0.0
H1556 H 0.24846 0.06855 0.36545 0.0
H1557 H 0.13221 0.94306 0.40736 0.0
H1558 H 0.11227 0.98088 0.41632 0.0
H1559 H 0.10134 0.96728 0.38695 0.0
H1560 H 0.06169 0.07463 0.42309 0.0
H1561 H 0.03361 0.04262 0.35253 0.0
H1562 H 0.17987 0.05801 0.42302 0.0
H1563 H 0.14776 0.02722 0.43596 0.0
H1564 H 0.13199 0.06702 0.4415 0.0
H1565 H 0.14704 0.02158 0.33773 0.0
H1566 H 0.08876 0.01854 0.32882 0.0
H1567 H 0.11414 0.98897 0.34707 0.0
C1568 C 0.92091 0.5706 0.11405 0.0
C1569 C 0.95263 0.56247 0.13148 0.0
C1570 C 0.87742 0.55781 0.11414 0.0
C1571 C 0.86501 0.53693 0.13237 0.0
C1572 C 0.89551 0.53068 0.15107 0.0
C1573 C 0.93911 0.54335 0.15032 0.0
C1574 C 0.8457 0.56518 0.09395 0.0
C1575 C 0.88306 0.50916 0.17116 0.0
C1576 C 0.74198 0.51324 0.13799 0.0
C1577 C 0.74227 0.48379 0.12728 0.0
C1578 C 0.78168 0.53087 0.13986 0.0
C1579 C 0.82234 0.51898 0.13042 0.0
C1580 C 0.82254 0.48962 0.11903 0.0
C1581 C 0.78261 0.47227 0.11781 0.0
C1582 C 0.7804 0.56168 0.15265 0.0
C1583 C 0.86515 0.47606 0.10863 0.0
H1584 H 0.93087 0.58541 0.09943 0.0
H1585 H 0.96318 0.53719 0.164 0.0
H1586 H 0.83441 0.54341 0.08523 0.0
H1587 H 0.81517 0.57697 0.10085 0.0
H1588 H 0.86152 0.5804 0.08039 0.0
H1589 H 0.90763 0.51044 0.18599 0.0
H1590 H 0.849 0.5148 0.17805 0.0
H1591 H 0.88211 0.48487 0.1646 0.0
H1592 H 0.71102 0.5221 0.14564 0.0
H1593 H 0.78305 0.44955 0.10951 0.0
H1594 H 0.7938 0.58039 0.14112 0.0
H1595 H 0.80233 0.5606 0.16855 0.0
H1596 H 0.74576 0.5681 0.15832 0.0
H1597 H 0.88381 0.49381 0.09833 0.0
H1598 H 0.85812 0.45589 0.09691 0.0
H1599 H 0.88755 0.46818 0.12317 0.0
C1600 C 0.24307 0.99145 0.1211 0.0
C1601 C 0.24102 0.02398 0.12199 0.0
C1602 C 0.20367 0.9736 0.12076 0.0
C1603 C 0.16142 0.98878 0.1207 0.0
C1604 C 0.15917 0.02167 0.12087 0.0
C1605 C 0.19916 0.03894 0.12186 0.0
C1606 C 0.20721 0.93857 0.12113 0.0
C1607 C 0.11455 0.03857 0.12022 0.0
C1608 C 0.05723 0.94565 0.10053 0.0
C1609 C 0.03511 0.94094 0.12214 0.0
C1610 C 0.09904 0.9607 0.09977 0.0
C1611 C 0.11943 0.97031 0.12122 0.0
C1612 C 0.09844 0.96377 0.14318 0.0
C1613 C 0.05597 0.94959 0.14335 0.0
C1614 C 0.11996 0.968 0.07601 0.0
C1615 C 0.11991 0.97292 0.16642 0.0
H1616 H 0.27556 0.9799 0.12145 0.0
H1617 H 0.19775 0.06412 0.12236 0.0
H1618 H 0.19087 0.92937 0.13737 0.0
H1619 H 0.18913 0.92849 0.10575 0.0
H1620 H 0.24276 0.93044 0.12073 0.0
H1621 H 0.11882 0.06417 0.1189 0.0
H1622 H 0.09424 0.03049 0.1049 0.0
H1623 H 0.09504 0.03329 0.13649 0.0
H1624 H 0.04047 0.93943 0.08412 0.0
H1625 H 0.03853 0.94593 0.16001 0.0
H1626 H 0.15528 0.95957 0.07538 0.0
H1627 H 0.12087 0.99356 0.07339 0.0
H1628 H 0.10093 0.95742 0.06109 0.0
H1629 H 0.15534 0.96468 0.16713 0.0
H1630 H 0.1014 0.96332 0.18189 0.0
H1631 H 0.12057 0.99862 0.16799 0.0
C1632 C 0.41529 0.21012 0.15577 0.0
C1633 C 0.43403 0.18039 0.15784 0.0
C1634 C 0.44251 0.2368 0.1582 0.0
C1635 C 0.48932 0.2335 0.16291 0.0
C1636 C 0.50682 0.20362 0.16795 0.0
C1637 C 0.47907 0.17742 0.16514 0.0
C1638 C 0.42224 0.26821 0.15295 0.0
C1639 C 0.55609 0.19887 0.17355 0.0
C1640 C 0.56311 0.28838 0.12738 0.0
C1641 C 0.57434 0.31134 0.14397 0.0
C1642 C 0.53683 0.26261 0.13364 0.0
C1643 C 0.52099 0.25954 0.1572 0.0
C1644 C 0.53434 0.28171 0.17446 0.0
C1645 C 0.56097 0.30745 0.16763 0.0
C1646 C 0.52429 0.23941 0.11463 0.0
C1647 C 0.51859 0.27919 0.19978 0.0
H1648 H 0.38066 0.2125 0.14986 0.0
H1649 H 0.49367 0.1544 0.1667 0.0
H1650 H 0.43487 0.2859 0.16561 0.0
H1651 H 0.43238 0.27563 0.13489 0.0
H1652 H 0.38482 0.26769 0.15378 0.0
H1653 H 0.5623 0.17585 0.18185 0.0
H1654 H 0.57594 0.20013 0.15691 0.0
H1655 H 0.56872 0.21732 0.18557 0.0
H1656 H 0.57344 0.2913 0.10908 0.0
H1657 H 0.56897 0.32538 0.18044 0.0
H1658 H 0.48719 0.23939 0.11203 0.0
H1659 H 0.53428 0.21563 0.12011 0.0
H1660 H 0.54059 0.24467 0.09737 0.0
H1661 H 0.4825 0.28584 0.2008 0.0
H1662 H 0.53807 0.2947 0.21173 0.0
H1663 H 0.5215 0.25493 0.20626 0.0
C1664 C 0.59348 0.71048 0.35723 0.0
C1665 C 0.5743 0.68104 0.35407 0.0
C1666 C 0.56716 0.73754 0.35447 0.0
C1667 C 0.52079 0.7349 0.34847 0.0
C1668 C 0.50323 0.70541 0.3423 0.0
C1669 C 0.53014 0.67885 0.34528 0.0
C1670 C 0.58758 0.76857 0.36075 0.0
C1671 C 0.45437 0.70133 0.3355 0.0
C1672 C 0.44414 0.7884 0.38355 0.0
C1673 C 0.43298 0.81142 0.36701 0.0
C1674 C 0.47155 0.76315 0.37742 0.0
C1675 C 0.48901 0.76088 0.35412 0.0
C1676 C 0.47645 0.78344 0.33698 0.0
C1677 C 0.44835 0.8085 0.34363 0.0
C1678 C 0.48307 0.73945 0.39626 0.0
C1679 C 0.49436 0.78197 0.31201 0.0
H1680 H 0.62742 0.71227 0.36425 0.0
H1681 H 0.51521 0.65605 0.34287 0.0
H1682 H 0.5759 0.78687 0.34833 0.0
H1683 H 0.57661 0.77531 0.37883 0.0
H1684 H 0.62502 0.76776 0.36046 0.0
H1685 H 0.44841 0.67864 0.32663 0.0
H1686 H 0.43321 0.70225 0.3517 0.0
H1687 H 0.44308 0.72027 0.32356 0.0
H1688 H 0.43239 0.79071 0.40167 0.0
H1689 H 0.44046 0.82661 0.33093 0.0
H1690 H 0.51993 0.7396 0.39963 0.0
H1691 H 0.47387 0.71578 0.39014 0.0
H1692 H 0.4654 0.74403 0.41326 0.0
H1693 H 0.53055 0.7885 0.31203 0.0
H1694 H 0.47605 0.79805 0.29997 0.0
H1695 H 0.49191 0.75801 0.30487 0.0
C1696 C 0.56998 0.79205 0.88343 0.0
C1697 C 0.57924 0.81602 0.86735 0.0
C1698 C 0.54261 0.76682 0.87715 0.0
C1699 C 0.52362 0.76544 0.85413 0.0
C1700 C 0.53533 0.78849 0.83724 0.0
C1701 C 0.5631 0.81362 0.84406 0.0
C1702 C 0.53186 0.74261 0.89572 0.0
C1703 C 0.51631 0.78777 0.81247 0.0
C1704 C 0.47579 0.6851 0.84477 0.0
C1705 C 0.432 0.6888 0.85376 0.0
C1706 C 0.50475 0.71067 0.84198 0.0
C1707 C 0.4898 0.7406 0.84878 0.0
C1708 C 0.44396 0.74486 0.8553 0.0
C1709 C 0.41546 0.71883 0.85765 0.0
C1710 C 0.55285 0.70501 0.83441 0.0
C1711 C 0.42639 0.77639 0.86245 0.0
H1712 H 0.58228 0.79395 0.90148 0.0
H1713 H 0.56948 0.8324 0.8317 0.0
H1714 H 0.49531 0.74325 0.89992 0.0
H1715 H 0.53969 0.71903 0.88894 0.0
H1716 H 0.55105 0.74631 0.91239 0.0
H1717 H 0.53519 0.80338 0.80033 0.0
H1718 H 0.51688 0.76383 0.80518 0.0
H1719 H 0.48062 0.79549 0.81291 0.0
H1720 H 0.48871 0.66183 0.84183 0.0
H1721 H 0.38186 0.72172 0.86489 0.0
H1722 H 0.57488 0.70459 0.8503 0.0
H1723 H 0.56499 0.72392 0.82267 0.0
H1724 H 0.55653 0.68245 0.82504 0.0
H1725 H 0.43963 0.78239 0.88027 0.0
H1726 H 0.38896 0.77688 0.86318 0.0
H1727 H 0.43812 0.79453 0.84993 0.0
C1728 C 0.44698 0.31224 0.66719 0.0
C1729 C 0.42855 0.31502 0.6444 0.0
C1730 C 0.47525 0.28695 0.67305 0.0
C1731 C 0.48495 0.26402 0.65573 0.0
C1732 C 0.46403 0.26593 0.6332 0.0
C1733 C 0.4364 0.29139 0.62783 0.0
C1734 C 0.49666 0.28578 0.69727 0.0
C1735 C 0.47249 0.2418 0.61426 0.0
C1736 C 0.59008 0.21447 0.64985 0.0
C1737 C 0.57229 0.18496 0.65449 0.0
C1738 C 0.56327 0.24128 0.65269 0.0
C1739 C 0.51782 0.23831 0.66031 0.0
C1740 C 0.50179 0.20886 0.66765 0.0
C1741 C 0.52913 0.18255 0.6645 0.0
C1742 C 0.58199 0.27227 0.64499 0.0
C1743 C 0.454 0.2045 0.67619 0.0
H1744 H 0.44169 0.33076 0.67991 0.0
H1745 H 0.4223 0.29353 0.61017 0.0
H1746 H 0.49497 0.26195 0.70473 0.0
H1747 H 0.53282 0.29211 0.69578 0.0
H1748 H 0.48028 0.30215 0.70982 0.0
H1749 H 0.45212 0.24599 0.59805 0.0
H1750 H 0.50868 0.24189 0.60926 0.0
H1751 H 0.46441 0.21826 0.62108 0.0
H1752 H 0.62317 0.21637 0.64181 0.0
H1753 H 0.51524 0.15967 0.66797 0.0
H1754 H 0.57203 0.29083 0.65759 0.0
H1755 H 0.56792 0.27842 0.62738 0.0
H1756 H 0.61935 0.2718 0.64359 0.0
H1757 H 0.44387 0.22364 0.68823 0.0
H1758 H 0.44965 0.18199 0.68558 0.0
H1759 H 0.4308 0.20483 0.66076 0.0
C1760 C 0.05804 0.8079 0.67183 0.0
C1761 C 0.07925 0.80986 0.64969 0.0
C1762 C 0.02971 0.78252 0.67737 0.0
C1763 C 0.02256 0.75882 0.6603 0.0
C1764 C 0.04672 0.75978 0.63864 0.0
C1765 C 0.07452 0.78529 0.63362 0.0
C1766 C 0.00514 0.78227 0.70075 0.0
C1767 C 0.04088 0.73493 0.61997 0.0
C1768 C 0.9727 0.67863 0.66752 0.0
C1769 C 0.93151 0.68213 0.6556 0.0
C1770 C 0.00081 0.70429 0.67191 0.0
C1771 C 0.98773 0.73405 0.66373 0.0
C1772 C 0.94388 0.73814 0.6541 0.0
C1773 C 0.91622 0.71204 0.65013 0.0
C1774 C 0.04665 0.69883 0.68272 0.0
C1775 C 0.92826 0.76948 0.64535 0.0
H1776 H 0.06086 0.82721 0.68408 0.0
H1777 H 0.09055 0.78699 0.6164 0.0
H1778 H 0.96977 0.78981 0.69793 0.0
H1779 H 0.00421 0.75851 0.70838 0.0
H1780 H 0.02099 0.79827 0.71376 0.0
H1781 H 0.06408 0.7382 0.60472 0.0
H1782 H 0.04704 0.71161 0.62769 0.0
H1783 H 0.00571 0.73527 0.61326 0.0
H1784 H 0.98481 0.65541 0.67149 0.0
H1785 H 0.8848 0.71472 0.64051 0.0
H1786 H 0.05604 0.71812 0.69479 0.0
H1787 H 0.0723 0.6978 0.66844 0.0
H1788 H 0.04785 0.67659 0.69272 0.0
H1789 H 0.9368 0.78793 0.65832 0.0
H1790 H 0.89132 0.76991 0.64206 0.0
H1791 H 0.94579 0.77509 0.62852 0.0
C1792 C 0.91992 0.2897 0.86069 0.0
C1793 C 0.93758 0.31967 0.85803 0.0
C1794 C 0.94783 0.2634 0.85817 0.0
C1795 C 0.9942 0.2673 0.85259 0.0
C1796 C 0.01057 0.29737 0.84718 0.0
C1797 C 0.98223 0.3232 0.85026 0.0
C1798 C 0.92884 0.23178 0.86399 0.0
C1799 C 0.05926 0.30267 0.84056 0.0
C1800 C 0.07119 0.21238 0.88609 0.0
C1801 C 0.0802 0.18926 0.86927 0.0
C1802 C 0.04483 0.23837 0.8805 0.0
C1803 C 0.0268 0.24152 0.85737 0.0
C1804 C 0.03836 0.21935 0.83977 0.0
C1805 C 0.06497 0.19334 0.84595 0.0
C1806 C 0.0341 0.26151 0.89984 0.0
C1807 C 0.02046 0.22204 0.81485 0.0
H1808 H 0.88556 0.28692 0.86692 0.0
H1809 H 0.99593 0.34642 0.84816 0.0
H1810 H 0.94036 0.21426 0.85092 0.0
H1811 H 0.94125 0.22439 0.88167 0.0
H1812 H 0.89138 0.23189 0.86436 0.0
H1813 H 0.06433 0.3258 0.83222 0.0
H1814 H 0.08046 0.30147 0.85673 0.0
H1815 H 0.07127 0.28442 0.82819 0.0
H1816 H 0.08285 0.20922 0.90415 0.0
H1817 H 0.07121 0.17525 0.83299 0.0
H1818 H -0.00268 0.26139 0.90347 0.0
H1819 H 0.04333 0.28534 0.89411 0.0
H1820 H 0.05218 0.25628 0.91662 0.0
H1821 H 0.98441 0.21516 0.81461 0.0
H1822 H 0.03911 0.20676 0.80238 0.0
H1823 H 0.02253 0.24639 0.80845 0.0
C1824 C 0.97581 0.18074 0.34664 0.0
C1825 C 0.93292 0.18474 0.35666 0.0
C1826 C 0.00445 0.2062 0.34264 0.0
C1827 C 0.99013 0.23634 0.34926 0.0
C1828 C 0.94496 0.24082 0.3569 0.0
C1829 C 0.91677 0.21488 0.36049 0.0
C1830 C 0.0518 0.20027 0.33397 0.0
C1831 C 0.92805 0.27258 0.36391 0.0
C1832 C 0.07377 0.28861 0.3808 0.0
C1833 C 0.08193 0.31191 0.36399 0.0
C1834 C 0.04551 0.26338 0.37576 0.0
C1835 C 0.0244 0.26131 0.35328 0.0
C1836 C 0.03474 0.28372 0.33565 0.0
C1837 C 0.06351 0.30885 0.34122 0.0
C1838 C 0.0363 0.23985 0.39506 0.0
C1839 C 0.01336 0.28227 0.31144 0.0
H1840 H 0.98845 0.15737 0.34381 0.0
H1841 H 0.88389 0.21799 0.36856 0.0
H1842 H 0.06283 0.21877 0.32156 0.0
H1843 H 0.07527 0.20037 0.34928 0.0
H1844 H 0.05464 0.1774 0.32495 0.0
H1845 H 0.89072 0.27312 0.36553 0.0
H1846 H 0.94283 0.2791 0.38128 0.0
H1847 H 0.93869 0.29033 0.3508 0.0
H1848 H 0.08788 0.29099 0.39844 0.0
H1849 H 0.06908 0.32711 0.32831 0.0
H1850 H 0.0434 0.21602 0.38856 0.0
H1851 H 0.00017 0.24074 0.40013 0.0
H1852 H 0.05697 0.24405 0.41116 0.0
H1853 H 0.01335 0.25813 0.30454 0.0
H1854 H 0.03097 0.29756 0.29855 0.0
H1855 H 0.97772 0.28993 0.3127 0.0
C1856 C 0.96505 0.81761 0.16931 0.0
C1857 C 0.92466 0.81494 0.15655 0.0
C1858 C 0.99372 0.79189 0.17245 0.0
C1859 C 0.98234 0.76307 0.16192 0.0
C1860 C 0.93965 0.75968 0.15082 0.0
C1861 C 0.91119 0.78568 0.14837 0.0
C1862 C 0.03813 0.79644 0.18502 0.0
C1863 C 0.92605 0.72948 0.13926 0.0
C1864 C 0.07357 0.71422 0.13296 0.0
C1865 C 0.07498 0.68803 0.14764 0.0
C1866 C 0.04535 0.73949 0.13818 0.0
C1867 C 0.01762 0.73856 0.15864 0.0
C1868 C 0.02133 0.71305 0.17445 0.0
C1869 C 0.04971 0.68786 0.16862 0.0
C1870 C 0.04275 0.76611 0.12077 0.0
C1871 C 0.99315 0.71133 0.19664 0.0
H1872 H 0.97583 0.84037 0.17532 0.0
H1873 H 0.88049 0.78376 0.13803 0.0
H1874 H 0.04626 0.77602 0.19626 0.0
H1875 H 0.06544 0.7989 0.17173 0.0
H1876 H 0.03788 0.81762 0.19627 0.0
H1877 H 0.88989 0.72935 0.13412 0.0
H1878 H 0.94666 0.72582 0.12308 0.0
H1879 H 0.93247 0.70961 0.15131 0.0
H1880 H 0.09229 0.71396 0.11645 0.0
H1881 H 0.04984 0.66722 0.17965 0.0
H1882 H 0.04775 0.78858 0.13003 0.0
H1883 H 0.00879 0.76667 0.11252 0.0
H1884 H 0.06834 0.76414 0.10648 0.0
H1885 H 0.99232 0.73415 0.20578 0.0
H1886 H 0.00604 0.69347 0.20914 0.0
H1887 H 0.95796 0.70522 0.19187 0.0
loop_
_geom_bond_atom_site_label_1
_geom_bond_atom_site_label_2
_geom_bond_distance
_geom_bond_site_symmetry_2
_ccdc_geom_bond_type
Sc0 O3 2.025 . S
Sc0 O10 2.105 . S
Sc0 O13 2.105 . S
Sc0 O16 2.105 . S
Sc0 O19 2.105 . S
Sc1 O3 2.025 . S
Sc1 O11 2.105 . S
Sc1 O15 2.105 . S
Sc1 O17 2.105 . S
Sc1 O21 2.105 . S
Sc2 O3 2.025 . S
Sc2 O12 2.105 . S
Sc2 O14 2.105 . S
Sc2 O18 2.105 . S
Sc2 O20 2.105 . S
O3 Sc0 2.025 . S
O3 Sc1 2.025 . S
O3 Sc2 2.025 . S
C4 O10 1.268 . S
C4 O20 1.268 . S
C5 O11 1.268 . S
C5 O19 1.268 . S
C6 O12 1.268 . S
C6 O21 1.268 . S
C7 O13 1.268 . S
C7 O17 1.268 . S
C8 O14 1.268 . S
C8 O16 1.268 . S
C9 O15 1.268 . S
C9 O18 1.268 . S
O10 Sc0 2.105 . S
O10 C4 1.268 . S
O11 Sc1 2.105 . S
O11 C5 1.268 . S
O12 Sc2 2.105 . S
O12 C6 1.268 . S
O13 Sc0 2.105 . S
O13 C7 1.268 . S
O14 Sc2 2.105 . S
O14 C8 1.268 . S
O15 Sc1 2.105 . S
O15 C9 1.268 . S
O16 Sc0 2.105 . S
O16 C8 1.268 . S
O17 Sc1 2.105 . S
O17 C7 1.268 . S
O18 Sc2 2.105 . S
O18 C9 1.268 . S
O19 Sc0 2.105 . S
O19 C5 1.268 . S
O20 Sc2 2.105 . S
O20 C4 1.268 . S
O21 Sc1 2.105 . S
O21 C6 1.268 . S
Sc22 O25 2.025 . S
Sc22 O32 2.105 . S
Sc22 O35 2.105 . S
Sc22 O38 2.105 . S
Sc22 O41 2.105 . S
Sc23 O25 2.025 . S
Sc23 O33 2.105 . S
Sc23 O37 2.105 . S
Sc23 O39 2.105 . S
Sc23 O43 2.105 . S
Sc24 O25 2.025 . S
Sc24 O34 2.105 . S
Sc24 O36 2.105 . S
Sc24 O40 2.105 . S
Sc24 O42 2.105 . S
O25 Sc22 2.025 . S
O25 Sc23 2.025 . S
O25 Sc24 2.025 . S
C26 O32 1.268 . S
C26 O42 1.268 . S
C27 O33 1.268 . S
C27 O41 1.268 . S
C28 O34 1.268 . S
C28 O43 1.268 . S
C29 O35 1.268 . S
C29 O39 1.268 . S
C30 O36 1.268 . S
C30 O38 1.268 . S
C31 O37 1.268 . S
C31 O40 1.268 . S
O32 Sc22 2.105 . S
O32 C26 1.268 . S
O33 Sc23 2.105 . S
O33 C27 1.268 . S
O34 Sc24 2.105 . S
O34 C28 1.268 . S
O35 Sc22 2.105 . S
O35 C29 1.268 . S
O36 Sc24 2.105 . S
O36 C30 1.268 . S
O37 Sc23 2.105 . S
O37 C31 1.268 . S
O38 Sc22 2.105 . S
O38 C30 1.268 . S
O39 Sc23 2.105 . S
O39 C29 1.268 . S
O40 Sc24 2.105 . S
O40 C31 1.268 . S
O41 Sc22 2.105 . S
O41 C27 1.268 . S
O42 Sc24 2.105 . S
O42 C26 1.268 . S
O43 Sc23 2.105 . S
O43 C28 1.268 . S
Sc44 O47 2.025 . S
Sc44 O54 2.105 . S
Sc44 O57 2.105 . S
Sc44 O60 2.105 . S
Sc44 O63 2.105 . S
Sc45 O47 2.025 . S
Sc45 O55 2.105 . S
Sc45 O59 2.105 . S
Sc45 O61 2.105 . S
Sc45 O65 2.105 . S
Sc46 O47 2.025 . S
Sc46 O56 2.105 . S
Sc46 O58 2.105 . S
Sc46 O62 2.105 . S
Sc46 O64 2.105 . S
O47 Sc44 2.025 . S
O47 Sc45 2.025 . S
O47 Sc46 2.025 . S
C48 O54 1.268 . S
C48 O64 1.268 . S
C49 O55 1.268 . S
C49 O63 1.268 . S
C50 O56 1.268 . S
C50 O65 1.268 . S
C51 O57 1.268 . S
C51 O61 1.268 . S
C52 O58 1.268 . S
C52 O60 1.268 . S
C53 O59 1.268 . S
C53 O62 1.268 . S
O54 Sc44 2.105 . S
O54 C48 1.268 . S
O55 Sc45 2.105 . S
O55 C49 1.268 . S
O56 Sc46 2.105 . S
O56 C50 1.268 . S
O57 Sc44 2.105 . S
O57 C51 1.268 . S
O58 Sc46 2.105 . S
O58 C52 1.268 . S
O59 Sc45 2.105 . S
O59 C53 1.268 . S
O60 Sc44 2.105 . S
O60 C52 1.268 . S
O61 Sc45 2.105 . S
O61 C51 1.268 . S
O62 Sc46 2.105 . S
O62 C53 1.268 . S
O63 Sc44 2.105 . S
O63 C49 1.268 . S
O64 Sc46 2.105 . S
O64 C48 1.268 . S
O65 Sc45 2.105 . S
O65 C50 1.268 . S
Sc66 O69 2.025 . S
Sc66 O76 2.105 . S
Sc66 O79 2.105 . S
Sc66 O82 2.105 . S
Sc66 O85 2.105 . S
Sc67 O69 2.025 . S
Sc67 O77 2.105 . S
Sc67 O81 2.105 . S
Sc67 O83 2.105 . S
Sc67 O87 2.105 . S
Sc68 O69 2.025 . S
Sc68 O78 2.105 . S
Sc68 O80 2.105 . S
Sc68 O84 2.105 . S
Sc68 O86 2.105 . S
O69 Sc66 2.025 . S
O69 Sc67 2.025 . S
O69 Sc68 2.025 . S
C70 O76 1.268 . S
C70 O86 1.268 . S
C71 O77 1.268 . S
C71 O85 1.268 . S
C72 O78 1.268 . S
C72 O87 1.268 . S
C73 O79 1.268 . S
C73 O83 1.268 . S
C74 O80 1.268 . S
C74 O82 1.268 . S
C75 O81 1.268 . S
C75 O84 1.268 . S
O76 Sc66 2.105 . S
O76 C70 1.268 . S
O77 Sc67 2.105 . S
O77 C71 1.268 . S
O78 Sc68 2.105 . S
O78 C72 1.268 . S
O79 Sc66 2.105 . S
O79 C73 1.268 . S
O80 Sc68 2.105 . S
O80 C74 1.268 . S
O81 Sc67 2.105 . S
O81 C75 1.268 . S
O82 Sc66 2.105 . S
O82 C74 1.268 . S
O83 Sc67 2.105 . S
O83 C73 1.268 . S
O84 Sc68 2.105 . S
O84 C75 1.268 . S
O85 Sc66 2.105 . S
O85 C71 1.268 . S
O86 Sc68 2.105 . S
O86 C70 1.268 . S
O87 Sc67 2.105 . S
O87 C72 1.268 . S
Sc88 O91 2.025 . S
Sc88 O98 2.105 . S
Sc88 O101 2.105 . S
Sc88 O104 2.105 . S
Sc88 O107 2.105 . S
Sc89 O91 2.025 . S
Sc89 O99 2.105 . S
Sc89 O103 2.105 . S
Sc89 O105 2.105 . S
Sc89 O109 2.105 . S
Sc90 O91 2.025 . S
Sc90 O100 2.105 . S
Sc90 O102 2.105 . S
Sc90 O106 2.105 . S
Sc90 O108 2.105 . S
O91 Sc88 2.025 . S
O91 Sc89 2.025 . S
O91 Sc90 2.025 . S
C92 O98 1.268 . S
C92 O108 1.268 . S
C93 O99 1.268 . S
C93 O107 1.268 . S
C94 O100 1.268 . S
C94 O109 1.268 . S
C95 O101 1.268 . S
C95 O105 1.268 . S
C96 O102 1.268 . S
C96 O104 1.268 . S
C97 O103 1.268 . S
C97 O106 1.268 . S
O98 Sc88 2.105 . S
O98 C92 1.268 . S
O99 Sc89 2.105 . S
O99 C93 1.268 . S
O100 Sc90 2.105 . S
O100 C94 1.268 . S
O101 Sc88 2.105 . S
O101 C95 1.268 . S
O102 Sc90 2.105 . S
O102 C96 1.268 . S
O103 Sc89 2.105 . S
O103 C97 1.268 . S
O104 Sc88 2.105 . S
O104 C96 1.268 . S
O105 Sc89 2.105 . S
O105 C95 1.268 . S
O106 Sc90 2.105 . S
O106 C97 1.268 . S
O107 Sc88 2.105 . S
O107 C93 1.268 . S
O108 Sc90 2.105 . S
O108 C92 1.268 . S
O109 Sc89 2.105 . S
O109 C94 1.268 . S
Sc110 O113 2.025 . S
Sc110 O120 2.105 . S
Sc110 O123 2.105 . S
Sc110 O126 2.105 . S
Sc110 O129 2.105 . S
Sc111 O113 2.025 . S
Sc111 O121 2.105 . S
Sc111 O125 2.105 . S
Sc111 O127 2.105 . S
Sc111 O131 2.105 . S
Sc112 O113 2.025 . S
Sc112 O122 2.105 . S
Sc112 O124 2.105 . S
Sc112 O128 2.105 . S
Sc112 O130 2.105 . S
O113 Sc110 2.025 . S
O113 Sc111 2.025 . S
O113 Sc112 2.025 . S
C114 O120 1.268 . S
C114 O130 1.268 . S
C115 O121 1.268 . S
C115 O129 1.268 . S
C116 O122 1.268 . S
C116 O131 1.268 . S
C117 O123 1.268 . S
C117 O127 1.268 . S
C118 O124 1.268 . S
C118 O126 1.268 . S
C119 O125 1.268 . S
C119 O128 1.268 . S
O120 Sc110 2.105 . S
O120 C114 1.268 . S
O121 Sc111 2.105 . S
O121 C115 1.268 . S
O122 Sc112 2.105 . S
O122 C116 1.268 . S
O123 Sc110 2.105 . S
O123 C117 1.268 . S
O124 Sc112 2.105 . S
O124 C118 1.268 . S
O125 Sc111 2.105 . S
O125 C119 1.268 . S
O126 Sc110 2.105 . S
O126 C118 1.268 . S
O127 Sc111 2.105 . S
O127 C117 1.268 . S
O128 Sc112 2.105 . S
O128 C119 1.268 . S
O129 Sc110 2.105 . S
O129 C115 1.268 . S
O130 Sc112 2.105 . S
O130 C114 1.268 . S
O131 Sc111 2.105 . S
O131 C116 1.268 . S
Sc132 O135 2.025 . S
Sc132 O142 2.105 . S
Sc132 O145 2.105 . S
Sc132 O148 2.105 . S
Sc132 O151 2.105 . S
Sc133 O135 2.025 . S
Sc133 O143 2.105 . S
Sc133 O147 2.105 . S
Sc133 O149 2.105 . S
Sc133 O153 2.105 . S
Sc134 O135 2.025 . S
Sc134 O144 2.105 . S
Sc134 O146 2.105 . S
Sc134 O150 2.105 . S
Sc134 O152 2.105 . S
O135 Sc132 2.025 . S
O135 Sc133 2.025 . S
O135 Sc134 2.025 . S
C136 O142 1.268 . S
C136 O152 1.268 . S
C137 O143 1.268 . S
C137 O151 1.268 . S
C138 O144 1.268 . S
C138 O153 1.268 . S
C139 O145 1.268 . S
C139 O149 1.268 . S
C140 O146 1.268 . S
C140 O148 1.268 . S
C141 O147 1.268 . S
C141 O150 1.268 . S
O142 Sc132 2.105 . S
O142 C136 1.268 . S
O143 Sc133 2.105 . S
O143 C137 1.268 . S
O144 Sc134 2.105 . S
O144 C138 1.268 . S
O145 Sc132 2.105 . S
O145 C139 1.268 . S
O146 Sc134 2.105 . S
O146 C140 1.268 . S
O147 Sc133 2.105 . S
O147 C141 1.268 . S
O148 Sc132 2.105 . S
O148 C140 1.268 . S
O149 Sc133 2.105 . S
O149 C139 1.268 . S
O150 Sc134 2.105 . S
O150 C141 1.268 . S
O151 Sc132 2.105 . S
O151 C137 1.268 . S
O152 Sc134 2.105 . S
O152 C136 1.268 . S
O153 Sc133 2.105 . S
O153 C138 1.268 . S
Sc154 O157 2.025 . S
Sc154 O164 2.105 . S
Sc154 O167 2.105 . S
Sc154 O170 2.105 . S
Sc154 O173 2.105 . S
Sc155 O157 2.025 . S
Sc155 O165 2.105 . S
Sc155 O169 2.105 . S
Sc155 O171 2.105 . S
Sc155 O175 2.105 . S
Sc156 O157 2.025 . S
Sc156 O166 2.105 . S
Sc156 O168 2.105 . S
Sc156 O172 2.105 . S
Sc156 O174 2.105 . S
O157 Sc154 2.025 . S
O157 Sc155 2.025 . S
O157 Sc156 2.025 . S
C158 O164 1.268 . S
C158 O174 1.268 . S
C159 O165 1.268 . S
C159 O173 1.268 . S
C160 O166 1.268 . S
C160 O175 1.268 . S
C161 O167 1.268 . S
C161 O171 1.268 . S
C162 O168 1.268 . S
C162 O170 1.268 . S
C163 O169 1.268 . S
C163 O172 1.268 . S
O164 Sc154 2.105 . S
O164 C158 1.268 . S
O165 Sc155 2.105 . S
O165 C159 1.268 . S
O166 Sc156 2.105 . S
O166 C160 1.268 . S
O167 Sc154 2.105 . S
O167 C161 1.268 . S
O168 Sc156 2.105 . S
O168 C162 1.268 . S
O169 Sc155 2.105 . S
O169 C163 1.268 . S
O170 Sc154 2.105 . S
O170 C162 1.268 . S
O171 Sc155 2.105 . S
O171 C161 1.268 . S
O172 Sc156 2.105 . S
O172 C163 1.268 . S
O173 Sc154 2.105 . S
O173 C159 1.268 . S
O174 Sc156 2.105 . S
O174 C158 1.268 . S
O175 Sc155 2.105 . S
O175 C160 1.268 . S
Sc176 O179 2.025 . S
Sc176 O186 2.105 . S
Sc176 O189 2.105 . S
Sc176 O192 2.105 . S
Sc176 O195 2.105 . S
Sc177 O179 2.025 . S
Sc177 O187 2.105 . S
Sc177 O191 2.105 1_655 S
Sc177 O193 2.105 . S
Sc177 O197 2.105 . S
Sc178 O179 2.025 . S
Sc178 O188 2.105 . S
Sc178 O190 2.105 . S
Sc178 O194 2.105 1_655 S
Sc178 O196 2.105 . S
O179 Sc176 2.025 . S
O179 Sc177 2.025 . S
O179 Sc178 2.025 . S
C180 O186 1.268 . S
C180 O196 1.268 . S
C181 O187 1.268 . S
C181 O195 1.268 . S
C182 O188 1.268 . S
C182 O197 1.268 . S
C183 O189 1.268 . S
C183 O193 1.268 . S
C184 O190 1.268 . S
C184 O192 1.268 . S
C185 O191 1.268 . S
C185 O194 1.268 . S
O186 Sc176 2.105 . S
O186 C180 1.268 . S
O187 Sc177 2.105 . S
O187 C181 1.268 . S
O188 Sc178 2.105 . S
O188 C182 1.268 . S
O189 Sc176 2.105 . S
O189 C183 1.268 . S
O190 Sc178 2.105 . S
O190 C184 1.268 . S
O191 Sc177 2.105 1_455 S
O191 C185 1.268 . S
O192 Sc176 2.105 . S
O192 C184 1.268 . S
O193 Sc177 2.105 . S
O193 C183 1.268 . S
O194 Sc178 2.105 1_455 S
O194 C185 1.268 . S
O195 Sc176 2.105 . S
O195 C181 1.268 . S
O196 Sc178 2.105 . S
O196 C180 1.268 . S
O197 Sc177 2.105 . S
O197 C182 1.268 . S
Sc198 O201 2.025 . S
Sc198 O208 2.105 . S
Sc198 O211 2.105 . S
Sc198 O214 2.105 . S
Sc198 O217 2.105 . S
Sc199 O201 2.025 . S
Sc199 O209 2.105 . S
Sc199 O213 2.105 1_455 S
Sc199 O215 2.105 . S
Sc199 O219 2.105 . S
Sc200 O201 2.025 . S
Sc200 O210 2.105 . S
Sc200 O212 2.105 . S
Sc200 O216 2.105 1_455 S
Sc200 O218 2.105 . S
O201 Sc198 2.025 . S
O201 Sc199 2.025 . S
O201 Sc200 2.025 . S
C202 O208 1.268 . S
C202 O218 1.268 . S
C203 O209 1.268 . S
C203 O217 1.268 . S
C204 O210 1.268 . S
C204 O219 1.268 . S
C205 O211 1.268 . S
C205 O215 1.268 . S
C206 O212 1.268 . S
C206 O214 1.268 . S
C207 O213 1.268 . S
C207 O216 1.268 . S
O208 Sc198 2.105 . S
O208 C202 1.268 . S
O209 Sc199 2.105 . S
O209 C203 1.268 . S
O210 Sc200 2.105 . S
O210 C204 1.268 . S
O211 Sc198 2.105 . S
O211 C205 1.268 . S
O212 Sc200 2.105 . S
O212 C206 1.268 . S
O213 Sc199 2.105 1_655 S
O213 C207 1.268 . S
O214 Sc198 2.105 . S
O214 C206 1.268 . S
O215 Sc199 2.105 . S
O215 C205 1.268 . S
O216 Sc200 2.105 1_655 S
O216 C207 1.268 . S
O217 Sc198 2.105 . S
O217 C203 1.268 . S
O218 Sc200 2.105 . S
O218 C202 1.268 . S
O219 Sc199 2.105 . S
O219 C204 1.268 . S
Sc220 O223 2.025 . S
Sc220 O230 2.105 . S
Sc220 O233 2.105 . S
Sc220 O236 2.105 . S
Sc220 O239 2.105 . S
Sc221 O223 2.025 . S
Sc221 O231 2.105 . S
Sc221 O235 2.105 1_655 S
Sc221 O237 2.105 . S
Sc221 O241 2.105 . S
Sc222 O223 2.025 . S
Sc222 O232 2.105 . S
Sc222 O234 2.105 . S
Sc222 O238 2.105 1_655 S
Sc222 O240 2.105 . S
O223 Sc220 2.025 . S
O223 Sc221 2.025 . S
O223 Sc222 2.025 . S
C224 O230 1.268 . S
C224 O240 1.268 . S
C225 O231 1.268 . S
C225 O239 1.268 . S
C226 O232 1.268 . S
C226 O241 1.268 . S
C227 O233 1.268 . S
C227 O237 1.268 . S
C228 O234 1.268 . S
C228 O236 1.268 . S
C229 O235 1.268 . S
C229 O238 1.268 . S
O230 Sc220 2.105 . S
O230 C224 1.268 . S
O231 Sc221 2.105 . S
O231 C225 1.268 . S
O232 Sc222 2.105 . S
O232 C226 1.268 . S
O233 Sc220 2.105 . S
O233 C227 1.268 . S
O234 Sc222 2.105 . S
O234 C228 1.268 . S
O235 Sc221 2.105 1_455 S
O235 C229 1.268 . S
O236 Sc220 2.105 . S
O236 C228 1.268 . S
O237 Sc221 2.105 . S
O237 C227 1.268 . S
O238 Sc222 2.105 1_455 S
O238 C229 1.268 . S
O239 Sc220 2.105 . S
O239 C225 1.268 . S
O240 Sc222 2.105 . S
O240 C224 1.268 . S
O241 Sc221 2.105 . S
O241 C226 1.268 . S
Sc242 O245 2.025 . S
Sc242 O252 2.105 . S
Sc242 O255 2.105 . S
Sc242 O258 2.105 . S
Sc242 O261 2.105 1_455 S
Sc243 O245 2.025 . S
Sc243 O253 2.105 1_455 S
Sc243 O257 2.105 . S
Sc243 O259 2.105 . S
Sc243 O263 2.105 . S
Sc244 O245 2.025 . S
Sc244 O254 2.105 . S
Sc244 O256 2.105 . S
Sc244 O260 2.105 . S
Sc244 O262 2.105 . S
O245 Sc242 2.025 . S
O245 Sc243 2.025 . S
O245 Sc244 2.025 . S
C246 O252 1.268 . S
C246 O262 1.268 . S
C247 O253 1.268 . S
C247 O261 1.268 . S
C248 O254 1.268 . S
C248 O263 1.268 . S
C249 O255 1.268 . S
C249 O259 1.268 . S
C250 O256 1.268 . S
C250 O258 1.268 . S
C251 O257 1.268 . S
C251 O260 1.268 . S
O252 Sc242 2.105 . S
O252 C246 1.268 . S
O253 Sc243 2.105 1_655 S
O253 C247 1.268 . S
O254 Sc244 2.105 . S
O254 C248 1.268 . S
O255 Sc242 2.105 . S
O255 C249 1.268 . S
O256 Sc244 2.105 . S
O256 C250 1.268 . S
O257 Sc243 2.105 . S
O257 C251 1.268 . S
O258 Sc242 2.105 . S
O258 C250 1.268 . S
O259 Sc243 2.105 . S
O259 C249 1.268 . S
O260 Sc244 2.105 . S
O260 C251 1.268 . S
O261 Sc242 2.105 1_655 S
O261 C247 1.268 . S
O262 Sc244 2.105 . S
O262 C246 1.268 . S
O263 Sc243 2.105 . S
O263 C248 1.268 . S
Sc264 O267 2.025 . S
Sc264 O274 2.105 . S
Sc264 O277 2.105 1_455 S
Sc264 O280 2.105 . S
Sc264 O283 2.105 . S
Sc265 O267 2.025 . S
Sc265 O275 2.105 . S
Sc265 O279 2.105 . S
Sc265 O281 2.105 1_455 S
Sc265 O285 2.105 . S
Sc266 O267 2.025 . S
Sc266 O276 2.105 . S
Sc266 O278 2.105 . S
Sc266 O282 2.105 . S
Sc266 O284 2.105 . S
O267 Sc264 2.025 . S
O267 Sc265 2.025 . S
O267 Sc266 2.025 . S
C268 O274 1.268 . S
C268 O284 1.268 . S
C269 O275 1.268 . S
C269 O283 1.268 . S
C270 O276 1.268 . S
C270 O285 1.268 . S
C271 O277 1.268 . S
C271 O281 1.268 . S
C272 O278 1.268 . S
C272 O280 1.268 . S
C273 O279 1.268 . S
C273 O282 1.268 . S
O274 Sc264 2.105 . S
O274 C268 1.268 . S
O275 Sc265 2.105 . S
O275 C269 1.268 . S
O276 Sc266 2.105 . S
O276 C270 1.268 . S
O277 Sc264 2.105 1_655 S
O277 C271 1.268 . S
O278 Sc266 2.105 . S
O278 C272 1.268 . S
O279 Sc265 2.105 . S
O279 C273 1.268 . S
O280 Sc264 2.105 . S
O280 C272 1.268 . S
O281 Sc265 2.105 1_655 S
O281 C271 1.268 . S
O282 Sc266 2.105 . S
O282 C273 1.268 . S
O283 Sc264 2.105 . S
O283 C269 1.268 . S
O284 Sc266 2.105 . S
O284 C268 1.268 . S
O285 Sc265 2.105 . S
O285 C270 1.268 . S
Sc286 O289 2.025 . S
Sc286 O296 2.105 . S
Sc286 O299 2.105 . S
Sc286 O302 2.105 . S
Sc286 O305 2.105 . S
Sc287 O289 2.025 . S
Sc287 O297 2.105 . S
Sc287 O301 2.105 . S
Sc287 O303 2.105 . S
Sc287 O307 2.105 1_655 S
Sc288 O289 2.025 . S
Sc288 O298 2.105 1_655 S
Sc288 O300 2.105 . S
Sc288 O304 2.105 . S
Sc288 O306 2.105 . S
O289 Sc286 2.025 . S
O289 Sc287 2.025 . S
O289 Sc288 2.025 . S
C290 O296 1.268 . S
C290 O306 1.268 . S
C291 O297 1.268 . S
C291 O305 1.268 . S
C292 O298 1.268 . S
C292 O307 1.268 . S
C293 O299 1.268 . S
C293 O303 1.268 . S
C294 O300 1.268 . S
C294 O302 1.268 . S
C295 O301 1.268 . S
C295 O304 1.268 . S
O296 Sc286 2.105 . S
O296 C290 1.268 . S
O297 Sc287 2.105 . S
O297 C291 1.268 . S
O298 Sc288 2.105 1_455 S
O298 C292 1.268 . S
O299 Sc286 2.105 . S
O299 C293 1.268 . S
O300 Sc288 2.105 . S
O300 C294 1.268 . S
O301 Sc287 2.105 . S
O301 C295 1.268 . S
O302 Sc286 2.105 . S
O302 C294 1.268 . S
O303 Sc287 2.105 . S
O303 C293 1.268 . S
O304 Sc288 2.105 . S
O304 C295 1.268 . S
O305 Sc286 2.105 . S
O305 C291 1.268 . S
O306 Sc288 2.105 . S
O306 C290 1.268 . S
O307 Sc287 2.105 1_455 S
O307 C292 1.268 . S
Sc308 O311 2.025 . S
Sc308 O318 2.105 . S
Sc308 O321 2.105 1_455 S
Sc308 O324 2.105 . S
Sc308 O327 2.105 . S
Sc309 O311 2.025 . S
Sc309 O319 2.105 . S
Sc309 O323 2.105 . S
Sc309 O325 2.105 1_455 S
Sc309 O329 2.105 . S
Sc310 O311 2.025 . S
Sc310 O320 2.105 . S
Sc310 O322 2.105 . S
Sc310 O326 2.105 . S
Sc310 O328 2.105 . S
O311 Sc308 2.025 . S
O311 Sc309 2.025 . S
O311 Sc310 2.025 . S
C312 O318 1.268 . S
C312 O328 1.268 . S
C313 O319 1.268 . S
C313 O327 1.268 . S
C314 O320 1.268 . S
C314 O329 1.268 . S
C315 O321 1.268 . S
C315 O325 1.268 . S
C316 O322 1.268 . S
C316 O324 1.268 . S
C317 O323 1.268 . S
C317 O326 1.268 . S
O318 Sc308 2.105 . S
O318 C312 1.268 . S
O319 Sc309 2.105 . S
O319 C313 1.268 . S
O320 Sc310 2.105 . S
O320 C314 1.268 . S
O321 Sc308 2.105 1_655 S
O321 C315 1.268 . S
O322 Sc310 2.105 . S
O322 C316 1.268 . S
O323 Sc309 2.105 . S
O323 C317 1.268 . S
O324 Sc308 2.105 . S
O324 C316 1.268 . S
O325 Sc309 2.105 1_655 S
O325 C315 1.268 . S
O326 Sc310 2.105 . S
O326 C317 1.268 . S
O327 Sc308 2.105 . S
O327 C313 1.268 . S
O328 Sc310 2.105 . S
O328 C312 1.268 . S
O329 Sc309 2.105 . S
O329 C314 1.268 . S
Sc330 O333 2.025 . S
Sc330 O340 2.105 . S
Sc330 O343 2.105 1_655 S
Sc330 O346 2.105 . S
Sc330 O349 2.105 . S
Sc331 O333 2.025 . S
Sc331 O341 2.105 . S
Sc331 O345 2.105 . S
Sc331 O347 2.105 1_655 S
Sc331 O351 2.105 . S
Sc332 O333 2.025 . S
Sc332 O342 2.105 . S
Sc332 O344 2.105 . S
Sc332 O348 2.105 . S
Sc332 O350 2.105 . S
O333 Sc330 2.025 . S
O333 Sc331 2.025 . S
O333 Sc332 2.025 . S
C334 O340 1.268 . S
C334 O350 1.268 . S
C335 O341 1.268 . S
C335 O349 1.268 . S
C336 O342 1.268 . S
C336 O351 1.268 . S
C337 O343 1.268 . S
C337 O347 1.268 . S
C338 O344 1.268 . S
C338 O346 1.268 . S
C339 O345 1.268 . S
C339 O348 1.268 . S
O340 Sc330 2.105 . S
O340 C334 1.268 . S
O341 Sc331 2.105 . S
O341 C335 1.268 . S
O342 Sc332 2.105 . S
O342 C336 1.268 . S
O343 Sc330 2.105 1_455 S
O343 C337 1.268 . S
O344 Sc332 2.105 . S
O344 C338 1.268 . S
O345 Sc331 2.105 . S
O345 C339 1.268 . S
O346 Sc330 2.105 . S
O346 C338 1.268 . S
O347 Sc331 2.105 1_455 S
O347 C337 1.268 . S
O348 Sc332 2.105 . S
O348 C339 1.268 . S
O349 Sc330 2.105 . S
O349 C335 1.268 . S
O350 Sc332 2.105 . S
O350 C334 1.268 . S
O351 Sc331 2.105 . S
O351 C336 1.268 . S
C352 C353 1.391 . S
C352 C354 1.394 . S
C352 H368 0.931 . S
C353 C352 1.391 . S
C353 C357 1.376 1_545 S
C354 C352 1.394 . S
C354 C355 1.369 . S
C354 C358 1.531 1_554 S
C355 C354 1.369 . S
C355 C356 1.410 1_545 S
C355 C363 1.503 1_554 S
C356 C355 1.410 1_565 S
C356 C357 1.392 . S
C356 C359 1.511 . S
C357 C353 1.376 1_565 S
C357 C356 1.392 . S
C357 H369 0.929 . S
C358 C354 1.531 1_556 S
C358 H370 0.960 . S
C358 H371 0.962 . S
C358 H372 0.960 . S
C359 C356 1.511 . S
C359 H373 0.961 . S
C359 H374 0.961 . S
C359 H375 0.961 . S
C360 C361 1.370 . S
C360 C362 1.363 . S
C360 H376 0.931 . S
C361 C360 1.370 . S
C361 C365 1.408 1_565 S
C362 C360 1.363 . S
C362 C363 1.370 1_565 S
C362 C366 1.524 . S
C363 C355 1.503 1_556 S
C363 C362 1.370 1_545 S
C363 C364 1.403 . S
C364 C363 1.403 . S
C364 C365 1.404 . S
C364 C367 1.539 . S
C365 C361 1.408 1_545 S
C365 C364 1.404 . S
C365 H377 0.930 . S
C366 C362 1.524 . S
C366 H378 0.956 . S
C366 H379 0.925 1_556 S
C366 H380 0.961 . S
C367 C364 1.539 . S
C367 H381 0.958 . S
C367 H382 0.961 . S
C367 H383 0.960 1_556 S
H368 C352 0.931 . S
H369 C357 0.929 . S
H370 C358 0.960 . S
H371 C358 0.962 . S
H372 C358 0.960 . S
H373 C359 0.961 . S
H374 C359 0.961 . S
H375 C359 0.961 . S
H376 C360 0.931 . S
H377 C365 0.930 . S
H378 C366 0.956 . S
H379 C366 0.925 1_554 S
H380 C366 0.961 . S
H381 C367 0.958 . S
H382 C367 0.961 . S
H383 C367 0.960 1_554 S
C384 C385 1.391 . S
C384 C386 1.394 . S
C384 H400 0.931 . S
C385 C384 1.391 . S
C385 C389 1.376 . S
C386 C384 1.394 . S
C386 C387 1.369 . S
C386 C390 1.531 1_554 S
C387 C386 1.369 . S
C387 C388 1.410 . S
C387 C395 1.503 1_554 S
C388 C387 1.410 . S
C388 C389 1.392 . S
C388 C391 1.511 . S
C389 C385 1.376 . S
C389 C388 1.392 . S
C389 H401 0.929 . S
C390 C386 1.531 1_556 S
C390 H402 0.960 . S
C390 H403 0.962 . S
C390 H404 0.960 . S
C391 C388 1.511 . S
C391 H405 0.961 . S
C391 H406 0.961 . S
C391 H407 0.961 . S
C392 C393 1.370 . S
C392 C394 1.363 . S
C392 H408 0.931 . S
C393 C392 1.370 . S
C393 C397 1.408 . S
C394 C392 1.363 . S
C394 C395 1.370 . S
C394 C398 1.524 1_556 S
C395 C387 1.503 1_556 S
C395 C394 1.370 . S
C395 C396 1.403 . S
C396 C395 1.403 . S
C396 C397 1.404 . S
C396 C399 1.539 . S
C397 C393 1.408 . S
C397 C396 1.404 . S
C397 H409 0.930 . S
C398 C394 1.524 1_554 S
C398 H410 0.956 . S
C398 H411 0.961 . S
C398 H412 0.961 1_554 S
C399 C396 1.539 . S
C399 H413 0.958 . S
C399 H414 0.961 . S
C399 H415 0.960 . S
H400 C384 0.931 . S
H401 C389 0.929 . S
H402 C390 0.960 . S
H403 C390 0.962 . S
H404 C390 0.960 . S
H405 C391 0.961 . S
H406 C391 0.961 . S
H407 C391 0.961 . S
H408 C392 0.931 . S
H409 C397 0.930 . S
H410 C398 0.956 . S
H411 C398 0.961 . S
H412 C398 0.961 1_556 S
H413 C399 0.958 . S
H414 C399 0.961 . S
H415 C399 0.960 . S
C416 C417 1.391 1_545 S
C416 C418 1.394 . S
C416 H432 0.931 . S
C417 C416 1.391 1_565 S
C417 C421 1.376 . S
C418 C416 1.394 . S
C418 C419 1.369 . S
C418 C422 1.531 . S
C419 C418 1.369 . S
C419 C420 1.410 1_545 S
C419 C427 1.503 . S
C420 C419 1.410 1_565 S
C420 C421 1.392 . S
C420 C423 1.511 . S
C421 C417 1.376 . S
C421 C420 1.392 . S
C421 H433 0.929 . S
C422 C418 1.531 . S
C422 H434 0.960 . S
C422 H435 0.962 . S
C422 H436 0.960 . S
C423 C420 1.511 . S
C423 H437 0.961 . S
C423 H438 0.961 . S
C423 H439 0.961 . S
C424 C425 1.370 1_565 S
C424 C426 1.363 . S
C424 H440 0.931 . S
C425 C424 1.370 1_545 S
C425 C429 1.408 . S
C426 C424 1.363 . S
C426 C427 1.370 1_565 S
C426 C430 1.524 . S
C427 C419 1.503 . S
C427 C426 1.370 1_545 S
C427 C428 1.403 . S
C428 C427 1.403 . S
C428 C429 1.404 . S
C428 C431 1.539 . S
C429 C425 1.408 . S
C429 C428 1.404 . S
C429 H441 0.930 . S
C430 C426 1.524 . S
C430 H442 0.956 . S
C430 H443 0.961 . S
C430 H444 0.961 . S
C431 C428 1.539 . S
C431 H445 0.958 . S
C431 H446 0.961 . S
C431 H447 0.960 . S
H432 C416 0.931 . S
H433 C421 0.929 . S
H434 C422 0.960 . S
H435 C422 0.962 . S
H436 C422 0.960 . S
H437 C423 0.961 . S
H438 C423 0.961 . S
H439 C423 0.961 . S
H440 C424 0.931 . S
H441 C429 0.930 . S
H442 C430 0.956 . S
H443 C430 0.961 . S
H444 C430 0.961 . S
H445 C431 0.958 . S
H446 C431 0.961 . S
H447 C431 0.960 . S
C448 C449 1.391 . S
C448 C450 1.394 . S
C448 H464 0.931 . S
C449 C448 1.391 . S
C449 C453 1.376 . S
C450 C448 1.394 . S
C450 C451 1.369 . S
C450 C454 1.531 . S
C451 C450 1.369 . S
C451 C452 1.410 . S
C451 C459 1.503 . S
C452 C451 1.410 . S
C452 C453 1.392 . S
C452 C455 1.511 . S
C453 C449 1.376 . S
C453 C452 1.392 . S
C453 H465 0.929 . S
C454 C450 1.531 . S
C454 H466 0.960 . S
C454 H467 0.962 . S
C454 H468 0.960 . S
C455 C452 1.511 . S
C455 H469 0.961 . S
C455 H470 0.961 . S
C455 H471 0.961 . S
C456 C457 1.370 . S
C456 C458 1.363 . S
C456 H472 0.931 . S
C457 C456 1.370 . S
C457 C461 1.408 . S
C458 C456 1.363 . S
C458 C459 1.370 . S
C458 C462 1.524 . S
C459 C451 1.503 . S
C459 C458 1.370 . S
C459 C460 1.403 . S
C460 C459 1.403 . S
C460 C461 1.404 . S
C460 C463 1.539 . S
C461 C457 1.408 . S
C461 C460 1.404 . S
C461 H473 0.930 . S
C462 C458 1.524 . S
C462 H474 0.956 . S
C462 H475 0.961 . S
C462 H476 0.961 . S
C463 C460 1.539 . S
C463 H477 0.958 . S
C463 H478 0.961 . S
C463 H479 0.960 . S
H464 C448 0.931 . S
H465 C453 0.929 . S
H466 C454 0.960 . S
H467 C454 0.962 . S
H468 C454 0.960 . S
H469 C455 0.961 . S
H470 C455 0.961 . S
H471 C455 0.961 . S
H472 C456 0.931 . S
H473 C461 0.930 . S
H474 C462 0.956 . S
H475 C462 0.961 . S
H476 C462 0.961 . S
H477 C463 0.958 . S
H478 C463 0.961 . S
H479 C463 0.960 . S
C480 C481 1.391 . S
C480 C482 1.394 . S
C480 H496 0.931 . S
C481 C480 1.391 . S
C481 C485 1.376 . S
C482 C480 1.394 . S
C482 C483 1.369 . S
C482 C486 1.531 . S
C483 C482 1.369 . S
C483 C484 1.410 . S
C483 C491 1.503 1_655 S
C484 C483 1.410 . S
C484 C485 1.392 . S
C484 C487 1.511 . S
C485 C481 1.376 . S
C485 C484 1.392 . S
C485 H497 0.929 . S
C486 C482 1.531 . S
C486 H498 0.960 . S
C486 H499 0.962 1_655 S
C486 H500 0.960 . S
C487 C484 1.511 . S
C487 H501 0.961 . S
C487 H502 0.961 1_655 S
C487 H503 0.961 . S
C488 C489 1.370 . S
C488 C490 1.363 . S
C488 H504 0.931 . S
C489 C488 1.370 . S
C489 C493 1.408 . S
C490 C488 1.363 . S
C490 C491 1.370 . S
C490 C494 1.524 . S
C491 C483 1.503 1_455 S
C491 C490 1.370 . S
C491 C492 1.403 1_455 S
C492 C491 1.403 1_655 S
C492 C493 1.404 1_655 S
C492 C495 1.539 . S
C493 C489 1.408 . S
C493 C492 1.404 1_455 S
C493 H505 0.930 1_455 S
C494 C490 1.524 . S
C494 H506 0.956 . S
C494 H507 0.961 . S
C494 H508 0.961 . S
C495 C492 1.539 . S
C495 H509 0.958 . S
C495 H510 0.961 . S
C495 H511 0.960 . S
H496 C480 0.931 . S
H497 C485 0.929 . S
H498 C486 0.960 . S
H499 C486 0.962 1_455 S
H500 C486 0.960 . S
H501 C487 0.961 . S
H502 C487 0.961 1_455 S
H503 C487 0.961 . S
H504 C488 0.931 . S
H505 C493 0.930 1_655 S
H506 C494 0.956 . S
H507 C494 0.961 . S
H508 C494 0.961 . S
H509 C495 0.958 . S
H510 C495 0.961 . S
H511 C495 0.960 . S
C512 C513 1.391 . S
C512 C514 1.392 1_465 S
C512 H528 0.931 1_455 S
C513 C512 1.391 . S
C513 C517 1.376 . S
C514 C512 1.392 1_645 S
C514 C515 1.370 1_655 S
C514 C518 1.531 . S
C515 C514 1.370 1_455 S
C515 C516 1.410 . S
C515 C523 1.503 1_455 S
C516 C515 1.410 . S
C516 C517 1.392 1_545 S
C516 C519 1.511 . S
C517 C513 1.376 . S
C517 C516 1.392 1_565 S
C517 H529 0.929 . S
C518 C514 1.531 . S
C518 H530 0.960 . S
C518 H531 0.962 1_545 S
C518 H532 0.960 . S
C519 C516 1.511 . S
C519 H533 0.946 1_545 S
C519 H534 0.961 . S
C519 H535 0.961 . S
C520 C521 1.370 1_565 S
C520 C522 1.363 . S
C520 H536 0.931 . S
C521 C520 1.370 1_545 S
C521 C525 1.408 . S
C522 C520 1.363 . S
C522 C523 1.370 1_565 S
C522 C526 1.524 . S
C523 C515 1.503 1_655 S
C523 C522 1.370 1_545 S
C523 C524 1.403 . S
C524 C523 1.403 . S
C524 C525 1.404 . S
C524 C527 1.539 . S
C525 C521 1.408 . S
C525 C524 1.404 . S
C525 H537 0.930 . S
C526 C522 1.524 . S
C526 H538 0.956 . S
C526 H539 0.961 1_655 S
C526 H540 0.961 . S
C527 C524 1.539 . S
C527 H541 0.958 . S
C527 H542 0.961 . S
C527 H543 0.960 1_655 S
H528 C512 0.931 1_655 S
H529 C517 0.929 . S
H530 C518 0.960 . S
H531 C518 0.962 1_565 S
H532 C518 0.960 . S
H533 C519 0.946 1_565 S
H534 C519 0.961 . S
H535 C519 0.961 . S
H536 C520 0.931 . S
H537 C525 0.930 . S
H538 C526 0.956 . S
H539 C526 0.961 1_455 S
H540 C526 0.961 . S
H541 C527 0.958 . S
H542 C527 0.961 . S
H543 C527 0.960 1_455 S
C544 C545 1.391 . S
C544 C546 1.394 . S
C544 H560 0.931 . S
C545 C544 1.391 . S
C545 C549 1.376 . S
C546 C544 1.394 . S
C546 C547 1.369 . S
C546 C550 1.531 1_655 S
C547 C546 1.369 . S
C547 C548 1.410 . S
C547 C555 1.503 1_656 S
C548 C547 1.410 . S
C548 C549 1.392 . S
C548 C551 1.511 . S
C549 C545 1.376 . S
C549 C548 1.392 . S
C549 H561 0.929 . S
C550 C546 1.531 1_455 S
C550 H562 0.960 . S
C550 H563 0.962 1_455 S
C550 H564 0.960 . S
C551 C548 1.511 . S
C551 H565 0.961 . S
C551 H566 0.961 1_556 S
C551 H567 0.961 1_655 S
C552 C553 1.370 . S
C552 C554 1.363 1_455 S
C552 H568 0.931 1_455 S
C553 C552 1.370 . S
C553 C557 1.408 . S
C554 C552 1.363 1_655 S
C554 C555 1.370 1_655 S
C554 C558 1.524 . S
C555 C547 1.503 1_454 S
C555 C554 1.370 1_455 S
C555 C556 1.403 . S
C556 C555 1.403 . S
C556 C557 1.404 . S
C556 C559 1.539 1_554 S
C557 C553 1.408 . S
C557 C556 1.404 . S
C557 H569 0.930 . S
C558 C554 1.524 . S
C558 H570 0.956 . S
C558 H571 0.961 . S
C558 H572 0.961 . S
C559 C556 1.539 1_556 S
C559 H573 0.958 . S
C559 H574 0.961 . S
C559 H575 0.960 . S
H560 C544 0.931 . S
H561 C549 0.929 . S
H562 C550 0.960 . S
H563 C550 0.962 1_655 S
H564 C550 0.960 . S
H565 C551 0.961 . S
H566 C551 0.961 1_554 S
H567 C551 0.961 1_455 S
H568 C552 0.931 1_655 S
H569 C557 0.930 . S
H570 C558 0.956 . S
H571 C558 0.961 . S
H572 C558 0.961 . S
H573 C559 0.958 . S
H574 C559 0.961 . S
H575 C559 0.960 . S
C576 C577 1.391 . S
C576 C578 1.390 1_455 S
C576 H592 0.931 . S
C577 C576 1.391 . S
C577 C581 1.376 1_545 S
C578 C576 1.390 1_655 S
C578 C579 1.384 1_655 S
C578 C582 1.535 . S
C579 C578 1.384 1_455 S
C579 C580 1.396 1_545 S
C579 C587 1.501 1_446 S
C580 C579 1.396 1_565 S
C580 C581 1.392 . S
C580 C583 1.511 . S
C581 C577 1.376 1_565 S
C581 C580 1.392 . S
C581 H593 0.929 . S
C582 C578 1.535 . S
C582 H594 0.960 . S
C582 H595 0.962 . S
C582 H596 0.960 . S
C583 C580 1.511 . S
C583 H597 0.961 . S
C583 H598 0.961 1_556 S
C583 H599 0.961 . S
C584 C585 1.373 . S
C584 C586 1.362 1_665 S
C584 H600 0.929 1_665 S
C585 C584 1.373 . S
C585 C589 1.408 . S
C586 C584 1.362 1_445 S
C586 C587 1.370 1_445 S
C586 C590 1.524 . S
C587 C579 1.501 1_664 S
C587 C586 1.370 1_665 S
C587 C588 1.403 . S
C588 C587 1.403 . S
C588 C589 1.404 . S
C588 C591 1.539 1_554 S
C589 C585 1.408 . S
C589 C588 1.404 . S
C589 H601 0.930 . S
C590 C586 1.524 . S
C590 H602 0.956 . S
C590 H603 0.955 1_545 S
C590 H604 0.961 . S
C591 C588 1.539 1_556 S
C591 H605 0.958 . S
C591 H606 0.961 . S
C591 H607 0.960 . S
H592 C576 0.931 . S
H593 C581 0.929 . S
H594 C582 0.960 . S
H595 C582 0.962 . S
H596 C582 0.960 . S
H597 C583 0.961 . S
H598 C583 0.961 1_554 S
H599 C583 0.961 . S
H600 C584 0.929 1_445 S
H601 C589 0.930 . S
H602 C590 0.956 . S
H603 C590 0.955 1_565 S
H604 C590 0.961 . S
H605 C591 0.958 . S
H606 C591 0.961 . S
H607 C591 0.960 . S
C608 C609 1.391 . S
C608 C610 1.394 . S
C608 H624 0.931 . S
C609 C608 1.391 . S
C609 C613 1.376 . S
C610 C608 1.394 . S
C610 C611 1.369 . S
C610 C614 1.531 . S
C611 C610 1.369 . S
C611 C612 1.410 . S
C611 C619 1.503 1_545 S
C612 C611 1.410 . S
C612 C613 1.392 . S
C612 C615 1.511 1_545 S
C613 C609 1.376 . S
C613 C612 1.392 . S
C613 H625 0.929 . S
C614 C610 1.531 . S
C614 H626 0.960 1_545 S
C614 H627 0.962 . S
C614 H628 0.960 . S
C615 C612 1.511 1_565 S
C615 H629 0.961 1_565 S
C615 H630 0.961 . S
C615 H631 0.961 . S
C616 C617 1.370 . S
C616 C618 1.363 1_565 S
C616 H632 0.931 . S
C617 C616 1.370 . S
C617 C621 1.408 . S
C618 C616 1.363 1_545 S
C618 C619 1.370 1_545 S
C618 C622 1.524 . S
C619 C611 1.503 1_565 S
C619 C618 1.370 1_565 S
C619 C620 1.403 . S
C620 C619 1.403 . S
C620 C621 1.404 . S
C620 C623 1.539 . S
C621 C617 1.408 . S
C621 C620 1.404 . S
C621 H633 0.930 . S
C622 C618 1.524 . S
C622 H634 0.956 . S
C622 H635 0.961 . S
C622 H636 0.961 . S
C623 C620 1.539 . S
C623 H637 0.958 . S
C623 H638 0.961 . S
C623 H639 0.960 . S
H624 C608 0.931 . S
H625 C613 0.929 . S
H626 C614 0.960 1_565 S
H627 C614 0.962 . S
H628 C614 0.960 . S
H629 C615 0.961 1_545 S
H630 C615 0.961 . S
H631 C615 0.961 . S
H632 C616 0.931 . S
H633 C621 0.930 . S
H634 C622 0.956 . S
H635 C622 0.961 . S
H636 C622 0.961 . S
H637 C623 0.958 . S
H638 C623 0.961 . S
H639 C623 0.960 . S
C640 C641 1.391 . S
C640 C642 1.394 . S
C640 H656 0.931 . S
C641 C640 1.391 . S
C641 C645 1.376 . S
C642 C640 1.394 . S
C642 C643 1.369 . S
C642 C646 1.531 . S
C643 C642 1.369 . S
C643 C644 1.410 . S
C643 C651 1.503 . S
C644 C643 1.410 . S
C644 C645 1.392 . S
C644 C647 1.511 . S
C645 C641 1.376 . S
C645 C644 1.392 . S
C645 H657 0.929 . S
C646 C642 1.531 . S
C646 H658 0.960 . S
C646 H659 0.962 . S
C646 H660 0.960 . S
C647 C644 1.511 . S
C647 H661 0.961 . S
C647 H662 0.961 . S
C647 H663 0.961 . S
C648 C649 1.370 . S
C648 C650 1.363 . S
C648 H664 0.931 . S
C649 C648 1.370 . S
C649 C653 1.408 . S
C650 C648 1.363 . S
C650 C651 1.370 . S
C650 C654 1.524 . S
C651 C643 1.503 . S
C651 C650 1.370 . S
C651 C652 1.403 . S
C652 C651 1.403 . S
C652 C653 1.404 . S
C652 C655 1.539 . S
C653 C649 1.408 . S
C653 C652 1.404 . S
C653 H665 0.930 . S
C654 C650 1.524 . S
C654 H666 0.956 . S
C654 H667 0.961 . S
C654 H668 0.961 . S
C655 C652 1.539 . S
C655 H669 0.958 . S
C655 H670 0.961 . S
C655 H671 0.960 . S
H656 C640 0.931 . S
H657 C645 0.929 . S
H658 C646 0.960 . S
H659 C646 0.962 . S
H660 C646 0.960 . S
H661 C647 0.961 . S
H662 C647 0.961 . S
H663 C647 0.961 . S
H664 C648 0.931 . S
H665 C653 0.930 . S
H666 C654 0.956 . S
H667 C654 0.961 . S
H668 C654 0.961 . S
H669 C655 0.958 . S
H670 C655 0.961 . S
H671 C655 0.960 . S
C672 C673 1.391 . S
C672 C674 1.394 . S
C672 H688 0.931 . S
C673 C672 1.391 . S
C673 C677 1.376 . S
C674 C672 1.394 . S
C674 C675 1.369 . S
C674 C678 1.531 1_565 S
C675 C674 1.369 . S
C675 C676 1.410 . S
C675 C683 1.503 1_565 S
C676 C675 1.410 . S
C676 C677 1.392 . S
C676 C679 1.511 . S
C677 C673 1.376 . S
C677 C676 1.392 . S
C677 H689 0.929 . S
C678 C674 1.531 1_545 S
C678 H690 0.960 . S
C678 H691 0.962 . S
C678 H692 0.960 . S
C679 C676 1.511 . S
C679 H693 0.961 . S
C679 H694 0.961 . S
C679 H695 0.961 . S
C680 C681 1.370 . S
C680 C682 1.363 . S
C680 H696 0.931 . S
C681 C680 1.370 . S
C681 C685 1.408 . S
C682 C680 1.363 . S
C682 C683 1.370 . S
C682 C686 1.524 . S
C683 C675 1.503 1_545 S
C683 C682 1.370 . S
C683 C684 1.403 1_545 S
C684 C683 1.403 1_565 S
C684 C685 1.404 1_565 S
C684 C687 1.539 . S
C685 C681 1.408 . S
C685 C684 1.404 1_545 S
C685 H697 0.930 . S
C686 C682 1.524 . S
C686 H698 0.956 . S
C686 H699 0.961 . S
C686 H700 0.961 . S
C687 C684 1.539 . S
C687 H701 0.958 . S
C687 H702 0.961 . S
C687 H703 0.960 . S
H688 C672 0.931 . S
H689 C677 0.929 . S
H690 C678 0.960 . S
H691 C678 0.962 . S
H692 C678 0.960 . S
H693 C679 0.961 . S
H694 C679 0.961 . S
H695 C679 0.961 . S
H696 C680 0.931 . S
H697 C685 0.930 . S
H698 C686 0.956 . S
H699 C686 0.961 . S
H700 C686 0.961 . S
H701 C687 0.958 . S
H702 C687 0.961 . S
H703 C687 0.960 . S
C704 C705 1.391 . S
C704 C706 1.394 . S
C704 H720 0.931 . S
C705 C704 1.391 . S
C705 C709 1.376 . S
C706 C704 1.394 . S
C706 C707 1.369 . S
C706 C710 1.531 . S
C707 C706 1.369 . S
C707 C708 1.410 . S
C707 C715 1.503 . S
C708 C707 1.410 . S
C708 C709 1.392 . S
C708 C711 1.511 . S
C709 C705 1.376 . S
C709 C708 1.392 . S
C709 H721 0.929 . S
C710 C706 1.531 . S
C710 H722 0.960 . S
C710 H723 0.962 . S
C710 H724 0.960 . S
C711 C708 1.511 . S
C711 H725 0.961 . S
C711 H726 0.961 . S
C711 H727 0.961 . S
C712 C713 1.370 . S
C712 C714 1.363 . S
C712 H728 0.931 . S
C713 C712 1.370 . S
C713 C717 1.408 . S
C714 C712 1.363 . S
C714 C715 1.370 . S
C714 C718 1.524 . S
C715 C707 1.503 . S
C715 C714 1.370 . S
C715 C716 1.403 . S
C716 C715 1.403 . S
C716 C717 1.404 . S
C716 C719 1.539 . S
C717 C713 1.408 . S
C717 C716 1.404 . S
C717 H729 0.930 . S
C718 C714 1.524 . S
C718 H730 0.956 . S
C718 H731 0.961 . S
C718 H732 0.961 . S
C719 C716 1.539 . S
C719 H733 0.958 . S
C719 H734 0.961 . S
C719 H735 0.960 . S
H720 C704 0.931 . S
H721 C709 0.929 . S
H722 C710 0.960 . S
H723 C710 0.962 . S
H724 C710 0.960 . S
H725 C711 0.961 . S
H726 C711 0.961 . S
H727 C711 0.961 . S
H728 C712 0.931 . S
H729 C717 0.930 . S
H730 C718 0.956 . S
H731 C718 0.961 . S
H732 C718 0.961 . S
H733 C719 0.958 . S
H734 C719 0.961 . S
H735 C719 0.960 . S
C736 C737 1.391 . S
C736 C738 1.394 . S
C736 H752 0.931 . S
C737 C736 1.391 . S
C737 C741 1.376 . S
C738 C736 1.394 . S
C738 C739 1.369 . S
C738 C742 1.531 . S
C739 C738 1.369 . S
C739 C740 1.410 . S
C739 C747 1.503 . S
C740 C739 1.410 . S
C740 C741 1.392 . S
C740 C743 1.511 . S
C741 C737 1.376 . S
C741 C740 1.392 . S
C741 H753 0.929 . S
C742 C738 1.531 . S
C742 H754 0.960 . S
C742 H755 0.962 1_655 S
C742 H756 0.960 1_655 S
C743 C740 1.511 . S
C743 H757 0.961 . S
C743 H758 0.961 . S
C743 H759 0.961 . S
C744 C745 1.370 . S
C744 C746 1.363 . S
C744 H760 0.931 . S
C745 C744 1.370 . S
C745 C749 1.408 . S
C746 C744 1.363 . S
C746 C747 1.370 . S
C746 C750 1.524 . S
C747 C739 1.503 . S
C747 C746 1.370 . S
C747 C748 1.403 . S
C748 C747 1.403 . S
C748 C749 1.404 . S
C748 C751 1.539 . S
C749 C745 1.408 . S
C749 C748 1.404 . S
C749 H761 0.930 . S
C750 C746 1.524 . S
C750 H762 0.956 . S
C750 H763 0.961 . S
C750 H764 0.961 . S
C751 C748 1.539 . S
C751 H765 0.958 . S
C751 H766 0.961 . S
C751 H767 0.960 . S
H752 C736 0.931 . S
H753 C741 0.929 . S
H754 C742 0.960 . S
H755 C742 0.962 1_455 S
H756 C742 0.960 1_455 S
H757 C743 0.961 . S
H758 C743 0.961 . S
H759 C743 0.961 . S
H760 C744 0.931 . S
H761 C749 0.930 . S
H762 C750 0.956 . S
H763 C750 0.961 . S
H764 C750 0.961 . S
H765 C751 0.958 . S
H766 C751 0.961 . S
H767 C751 0.960 . S
C768 C769 1.391 . S
C768 C770 1.394 . S
C768 H784 0.931 . S
C769 C768 1.391 . S
C769 C773 1.376 . S
C770 C768 1.394 . S
C770 C771 1.369 . S
C770 C774 1.531 1_455 S
C771 C770 1.369 . S
C771 C772 1.410 . S
C771 C779 1.503 1_545 S
C772 C771 1.410 . S
C772 C773 1.392 . S
C772 C775 1.511 . S
C773 C769 1.376 . S
C773 C772 1.392 . S
C773 H785 0.929 . S
C774 C770 1.531 1_655 S
C774 H786 0.960 1_655 S
C774 H787 0.962 . S
C774 H788 0.960 . S
C775 C772 1.511 . S
C775 H789 0.961 1_545 S
C775 H790 0.961 1_545 S
C775 H791 0.961 . S
C776 C777 1.370 . S
C776 C778 1.363 . S
C776 H792 0.931 . S
C777 C776 1.370 . S
C777 C781 1.408 . S
C778 C776 1.363 . S
C778 C779 1.370 . S
C778 C782 1.524 . S
C779 C771 1.503 1_565 S
C779 C778 1.370 . S
C779 C780 1.403 1_565 S
C780 C779 1.403 1_545 S
C780 C781 1.404 1_545 S
C780 C783 1.539 . S
C781 C777 1.408 . S
C781 C780 1.404 1_565 S
C781 H793 0.930 . S
C782 C778 1.524 . S
C782 H794 0.956 . S
C782 H795 0.961 . S
C782 H796 0.961 . S
C783 C780 1.539 . S
C783 H797 0.958 . S
C783 H798 0.961 . S
C783 H799 0.960 . S
H784 C768 0.931 . S
H785 C773 0.929 . S
H786 C774 0.960 1_455 S
H787 C774 0.962 . S
H788 C774 0.960 . S
H789 C775 0.961 1_565 S
H790 C775 0.961 1_565 S
H791 C775 0.961 . S
H792 C776 0.931 . S
H793 C781 0.930 . S
H794 C782 0.956 . S
H795 C782 0.961 . S
H796 C782 0.961 . S
H797 C783 0.958 . S
H798 C783 0.961 . S
H799 C783 0.960 . S
C800 C801 1.391 . S
C800 C802 1.394 . S
C800 H816 0.931 . S
C801 C800 1.391 . S
C801 C805 1.376 . S
C802 C800 1.394 . S
C802 C803 1.369 . S
C802 C806 1.531 . S
C803 C802 1.369 . S
C803 C804 1.410 . S
C803 C811 1.503 . S
C804 C803 1.410 . S
C804 C805 1.392 . S
C804 C807 1.511 . S
C805 C801 1.376 . S
C805 C804 1.392 . S
C805 H817 0.929 . S
C806 C802 1.531 . S
C806 H818 0.960 . S
C806 H819 0.962 . S
C806 H820 0.960 . S
C807 C804 1.511 . S
C807 H821 0.963 . S
C807 H822 0.961 . S
C807 H823 0.961 1_455 S
C808 C809 1.370 . S
C808 C810 1.363 . S
C808 H824 0.931 . S
C809 C808 1.370 . S
C809 C813 1.408 . S
C810 C808 1.363 . S
C810 C811 1.370 . S
C810 C814 1.524 . S
C811 C803 1.503 . S
C811 C810 1.370 . S
C811 C812 1.403 . S
C812 C811 1.403 . S
C812 C813 1.404 . S
C812 C815 1.539 . S
C813 C809 1.408 . S
C813 C812 1.404 . S
C813 H825 0.930 . S
C814 C810 1.524 . S
C814 H826 0.956 . S
C814 H827 0.961 . S
C814 H828 0.961 . S
C815 C812 1.539 . S
C815 H829 0.958 . S
C815 H830 0.961 1_455 S
C815 H831 0.960 1_455 S
H816 C800 0.931 . S
H817 C805 0.929 . S
H818 C806 0.960 . S
H819 C806 0.962 . S
H820 C806 0.960 . S
H821 C807 0.963 . S
H822 C807 0.961 . S
H823 C807 0.961 1_655 S
H824 C808 0.931 . S
H825 C813 0.930 . S
H826 C814 0.956 . S
H827 C814 0.961 . S
H828 C814 0.961 . S
H829 C815 0.958 . S
H830 C815 0.961 1_655 S
H831 C815 0.960 1_655 S
C832 C833 1.391 . S
C832 C834 1.394 1_545 S
C832 H848 0.931 . S
C833 C832 1.391 . S
C833 C837 1.376 . S
C834 C832 1.394 1_565 S
C834 C835 1.369 1_565 S
C834 C838 1.531 . S
C835 C834 1.369 1_545 S
C835 C836 1.410 . S
C835 C843 1.503 1_545 S
C836 C835 1.410 . S
C836 C837 1.392 . S
C836 C839 1.511 . S
C837 C833 1.376 . S
C837 C836 1.392 . S
C837 H849 0.929 . S
C838 C834 1.531 . S
C838 H850 0.960 . S
C838 H851 0.962 1_655 S
C838 H852 0.960 . S
C839 C836 1.511 . S
C839 H853 0.961 . S
C839 H854 0.961 . S
C839 H855 0.961 . S
C840 C841 1.370 . S
C840 C842 1.363 . S
C840 H856 0.931 . S
C841 C840 1.370 . S
C841 C845 1.408 . S
C842 C840 1.363 . S
C842 C843 1.370 . S
C842 C846 1.524 1_565 S
C843 C835 1.503 1_565 S
C843 C842 1.370 . S
C843 C844 1.403 . S
C844 C843 1.403 . S
C844 C845 1.404 . S
C844 C847 1.539 . S
C845 C841 1.408 . S
C845 C844 1.404 . S
C845 H857 0.930 . S
C846 C842 1.524 1_545 S
C846 H858 0.956 1_655 S
C846 H859 0.961 . S
C846 H860 0.961 . S
C847 C844 1.539 . S
C847 H861 0.958 . S
C847 H862 0.961 . S
C847 H863 0.960 . S
H848 C832 0.931 . S
H849 C837 0.929 . S
H850 C838 0.960 . S
H851 C838 0.962 1_455 S
H852 C838 0.960 . S
H853 C839 0.961 . S
H854 C839 0.961 . S
H855 C839 0.961 . S
H856 C840 0.931 . S
H857 C845 0.930 . S
H858 C846 0.956 1_455 S
H859 C846 0.961 . S
H860 C846 0.961 . S
H861 C847 0.958 . S
H862 C847 0.961 . S
H863 C847 0.960 . S
C864 C865 1.391 . S
C864 C866 1.394 . S
C864 H880 0.931 . S
C865 C864 1.391 . S
C865 C869 1.376 . S
C866 C864 1.394 . S
C866 C867 1.369 . S
C866 C870 1.531 1_554 S
C867 C866 1.369 . S
C867 C868 1.410 . S
C867 C875 1.503 1_554 S
C868 C867 1.410 . S
C868 C869 1.392 . S
C868 C871 1.511 . S
C869 C865 1.376 . S
C869 C868 1.392 . S
C869 H881 0.929 . S
C870 C866 1.531 1_556 S
C870 H882 0.960 . S
C870 H883 0.962 . S
C870 H884 0.960 . S
C871 C868 1.511 . S
C871 H885 0.961 . S
C871 H886 0.961 . S
C871 H887 0.961 . S
C872 C873 1.370 . S
C872 C874 1.363 . S
C872 H888 0.931 . S
C873 C872 1.370 . S
C873 C877 1.408 . S
C874 C872 1.363 . S
C874 C875 1.370 . S
C874 C878 1.524 1_556 S
C875 C867 1.503 1_556 S
C875 C874 1.370 . S
C875 C876 1.403 . S
C876 C875 1.403 . S
C876 C877 1.404 . S
C876 C879 1.539 . S
C877 C873 1.408 . S
C877 C876 1.404 . S
C877 H889 0.930 . S
C878 C874 1.524 1_554 S
C878 H890 0.956 . S
C878 H891 0.961 . S
C878 H892 0.961 . S
C879 C876 1.539 . S
C879 H893 0.958 . S
C879 H894 0.961 . S
C879 H895 0.960 . S
H880 C864 0.931 . S
H881 C869 0.929 . S
H882 C870 0.960 . S
H883 C870 0.962 . S
H884 C870 0.960 . S
H885 C871 0.961 . S
H886 C871 0.961 . S
H887 C871 0.961 . S
H888 C872 0.931 . S
H889 C877 0.930 . S
H890 C878 0.956 . S
H891 C878 0.961 . S
H892 C878 0.961 . S
H893 C879 0.958 . S
H894 C879 0.961 . S
H895 C879 0.960 . S
C896 C897 1.391 . S
C896 C898 1.394 . S
C896 H912 0.931 . S
C897 C896 1.391 . S
C897 C901 1.376 . S
C898 C896 1.394 . S
C898 C899 1.369 . S
C898 C902 1.531 . S
C899 C898 1.369 . S
C899 C900 1.410 . S
C899 C907 1.503 1_556 S
C900 C899 1.410 . S
C900 C901 1.392 . S
C900 C903 1.511 1_556 S
C901 C897 1.376 . S
C901 C900 1.392 . S
C901 H913 0.929 . S
C902 C898 1.531 . S
C902 H914 0.960 . S
C902 H915 0.962 . S
C902 H916 0.960 . S
C903 C900 1.511 1_554 S
C903 H917 0.961 . S
C903 H918 0.961 . S
C903 H919 0.961 . S
C904 C905 1.370 . S
C904 C906 1.363 . S
C904 H920 0.931 . S
C905 C904 1.370 . S
C905 C909 1.408 . S
C906 C904 1.363 . S
C906 C907 1.370 . S
C906 C910 1.509 1_554 S
C907 C899 1.503 1_554 S
C907 C906 1.370 . S
C907 C908 1.403 . S
C908 C907 1.403 . S
C908 C909 1.404 . S
C908 C911 1.539 . S
C909 C905 1.408 . S
C909 C908 1.404 . S
C909 H921 0.930 . S
C910 C906 1.509 1_556 S
C910 H922 0.981 . S
C910 H923 0.962 . S
C910 H924 0.951 1_556 S
C911 C908 1.539 . S
C911 H925 0.958 . S
C911 H926 0.961 . S
C911 H927 0.960 . S
H912 C896 0.931 . S
H913 C901 0.929 . S
H914 C902 0.960 . S
H915 C902 0.962 . S
H916 C902 0.960 . S
H917 C903 0.961 . S
H918 C903 0.961 . S
H919 C903 0.961 . S
H920 C904 0.931 . S
H921 C909 0.930 . S
H922 C910 0.981 . S
H923 C910 0.962 . S
H924 C910 0.951 1_554 S
H925 C911 0.958 . S
H926 C911 0.961 . S
H927 C911 0.960 . S
C928 C929 1.391 . S
C928 C930 1.394 . S
C928 H944 0.931 . S
C929 C928 1.391 . S
C929 C933 1.376 . S
C930 C928 1.394 . S
C930 C931 1.369 . S
C930 C934 1.531 . S
C931 C930 1.369 . S
C931 C932 1.410 . S
C931 C939 1.503 . S
C932 C931 1.410 . S
C932 C933 1.392 . S
C932 C935 1.511 . S
C933 C929 1.376 . S
C933 C932 1.392 . S
C933 H945 0.929 . S
C934 C930 1.531 . S
C934 H946 0.960 . S
C934 H947 0.962 . S
C934 H948 0.960 . S
C935 C932 1.511 . S
C935 H949 0.961 . S
C935 H950 0.961 . S
C935 H951 0.961 . S
C936 C937 1.370 . S
C936 C938 1.363 . S
C936 H952 0.931 . S
C937 C936 1.370 . S
C937 C941 1.408 . S
C938 C936 1.363 . S
C938 C939 1.370 . S
C938 C942 1.524 . S
C939 C931 1.503 . S
C939 C938 1.370 . S
C939 C940 1.403 . S
C940 C939 1.403 . S
C940 C941 1.404 . S
C940 C943 1.539 . S
C941 C937 1.408 . S
C941 C940 1.404 . S
C941 H953 0.930 . S
C942 C938 1.524 . S
C942 H954 0.956 . S
C942 H955 0.961 . S
C942 H956 0.961 . S
C943 C940 1.539 . S
C943 H957 0.958 . S
C943 H958 0.961 . S
C943 H959 0.960 . S
H944 C928 0.931 . S
H945 C933 0.929 . S
H946 C934 0.960 . S
H947 C934 0.962 . S
H948 C934 0.960 . S
H949 C935 0.961 . S
H950 C935 0.961 . S
H951 C935 0.961 . S
H952 C936 0.931 . S
H953 C941 0.930 . S
H954 C942 0.956 . S
H955 C942 0.961 . S
H956 C942 0.961 . S
H957 C943 0.958 . S
H958 C943 0.961 . S
H959 C943 0.960 . S
C960 C961 1.391 . S
C960 C962 1.394 . S
C960 H976 0.931 . S
C961 C960 1.391 . S
C961 C965 1.376 . S
C962 C960 1.394 . S
C962 C963 1.369 . S
C962 C966 1.531 . S
C963 C962 1.369 . S
C963 C964 1.410 . S
C963 C971 1.503 . S
C964 C963 1.410 . S
C964 C965 1.392 . S
C964 C967 1.511 . S
C965 C961 1.376 . S
C965 C964 1.392 . S
C965 H977 0.929 . S
C966 C962 1.531 . S
C966 H978 0.960 . S
C966 H979 0.962 . S
C966 H980 0.960 . S
C967 C964 1.511 . S
C967 H981 0.961 . S
C967 H982 0.961 . S
C967 H983 0.961 . S
C968 C969 1.370 . S
C968 C970 1.363 . S
C968 H984 0.931 . S
C969 C968 1.370 . S
C969 C973 1.408 . S
C970 C968 1.363 . S
C970 C971 1.370 . S
C970 C974 1.524 . S
C971 C963 1.503 . S
C971 C970 1.370 . S
C971 C972 1.403 . S
C972 C971 1.403 . S
C972 C973 1.404 . S
C972 C975 1.539 . S
C973 C969 1.408 . S
C973 C972 1.404 . S
C973 H985 0.930 . S
C974 C970 1.524 . S
C974 H986 0.956 . S
C974 H987 0.961 . S
C974 H988 0.961 . S
C975 C972 1.539 . S
C975 H989 0.958 . S
C975 H990 0.961 . S
C975 H991 0.960 . S
H976 C960 0.931 . S
H977 C965 0.929 . S
H978 C966 0.960 . S
H979 C966 0.962 . S
H980 C966 0.960 . S
H981 C967 0.961 . S
H982 C967 0.961 . S
H983 C967 0.961 . S
H984 C968 0.931 . S
H985 C973 0.930 . S
H986 C974 0.956 . S
H987 C974 0.961 . S
H988 C974 0.961 . S
H989 C975 0.958 . S
H990 C975 0.961 . S
H991 C975 0.960 . S
C992 C993 1.391 . S
C992 C994 1.394 . S
C992 H1008 0.931 . S
C993 C992 1.391 . S
C993 C997 1.376 . S
C994 C992 1.394 . S
C994 C995 1.369 . S
C994 C998 1.531 . S
C995 C994 1.369 . S
C995 C996 1.410 . S
C995 C1003 1.503 1_556 S
C996 C995 1.410 . S
C996 C997 1.392 . S
C996 C999 1.511 1_556 S
C997 C993 1.376 . S
C997 C996 1.392 . S
C997 H1009 0.929 . S
C998 C994 1.531 . S
C998 H1010 0.960 . S
C998 H1011 0.962 . S
C998 H1012 0.960 . S
C999 C996 1.511 1_554 S
C999 H1013 0.961 . S
C999 H1014 0.961 . S
C999 H1015 0.961 . S
C1000 C1001 1.370 . S
C1000 C1002 1.363 . S
C1000 H1016 0.931 . S
C1001 C1000 1.370 . S
C1001 C1005 1.408 . S
C1002 C1000 1.363 . S
C1002 C1003 1.370 . S
C1002 C1006 1.524 . S
C1003 C995 1.503 1_554 S
C1003 C1002 1.370 . S
C1003 C1004 1.403 . S
C1004 C1003 1.403 . S
C1004 C1005 1.404 . S
C1004 C1007 1.536 . S
C1005 C1001 1.408 . S
C1005 C1004 1.404 . S
C1005 H1017 0.930 . S
C1006 C1002 1.524 . S
C1006 H1018 0.956 . S
C1006 H1019 0.961 . S
C1006 H1020 0.961 . S
C1007 C1004 1.536 . S
C1007 H1021 0.962 1_554 S
C1007 H1022 0.958 . S
C1007 H1023 0.962 1_554 S
H1008 C992 0.931 . S
H1009 C997 0.929 . S
H1010 C998 0.960 . S
H1011 C998 0.962 . S
H1012 C998 0.960 . S
H1013 C999 0.961 . S
H1014 C999 0.961 . S
H1015 C999 0.961 . S
H1016 C1000 0.931 . S
H1017 C1005 0.930 . S
H1018 C1006 0.956 . S
H1019 C1006 0.961 . S
H1020 C1006 0.961 . S
H1021 C1007 0.962 1_556 S
H1022 C1007 0.958 . S
H1023 C1007 0.962 1_556 S
C1024 C1025 1.391 . S
C1024 C1026 1.394 . S
C1024 H1040 0.931 . S
C1025 C1024 1.391 . S
C1025 C1029 1.376 . S
C1026 C1024 1.394 . S
C1026 C1027 1.369 . S
C1026 C1030 1.531 1_556 S
C1027 C1026 1.369 . S
C1027 C1028 1.410 . S
C1027 C1035 1.503 1_556 S
C1028 C1027 1.410 . S
C1028 C1029 1.392 . S
C1028 C1031 1.511 . S
C1029 C1025 1.376 . S
C1029 C1028 1.392 . S
C1029 H1041 0.929 . S
C1030 C1026 1.531 1_554 S
C1030 H1042 0.960 . S
C1030 H1043 0.962 . S
C1030 H1044 0.960 . S
C1031 C1028 1.511 . S
C1031 H1045 0.961 . S
C1031 H1046 0.961 . S
C1031 H1047 0.961 . S
C1032 C1033 1.370 . S
C1032 C1034 1.363 . S
C1032 H1048 0.931 . S
C1033 C1032 1.370 . S
C1033 C1037 1.408 . S
C1034 C1032 1.363 . S
C1034 C1035 1.370 . S
C1034 C1038 1.524 . S
C1035 C1027 1.503 1_554 S
C1035 C1034 1.370 . S
C1035 C1036 1.403 . S
C1036 C1035 1.403 . S
C1036 C1037 1.404 . S
C1036 C1039 1.551 . S
C1037 C1033 1.408 . S
C1037 C1036 1.404 . S
C1037 H1049 0.930 . S
C1038 C1034 1.524 . S
C1038 H1050 0.956 . S
C1038 H1051 0.960 . S
C1038 H1052 0.961 . S
C1039 C1036 1.551 . S
C1039 H1053 0.966 . S
C1039 H1054 0.961 . S
C1039 H1055 0.939 1_554 S
H1040 C1024 0.931 . S
H1041 C1029 0.929 . S
H1042 C1030 0.960 . S
H1043 C1030 0.962 . S
H1044 C1030 0.960 . S
H1045 C1031 0.961 . S
H1046 C1031 0.961 . S
H1047 C1031 0.961 . S
H1048 C1032 0.931 . S
H1049 C1037 0.930 . S
H1050 C1038 0.956 . S
H1051 C1038 0.960 . S
H1052 C1038 0.961 . S
H1053 C1039 0.966 . S
H1054 C1039 0.961 . S
H1055 C1039 0.939 1_556 S
C1056 C1057 1.391 . S
C1056 C1058 1.394 . S
C1056 H1072 0.931 . S
C1057 C1056 1.391 . S
C1057 C1061 1.376 . S
C1058 C1056 1.394 . S
C1058 C1059 1.369 . S
C1058 C1062 1.531 . S
C1059 C1058 1.369 . S
C1059 C1060 1.410 . S
C1059 C1067 1.503 . S
C1060 C1059 1.410 . S
C1060 C1061 1.392 . S
C1060 C1063 1.511 . S
C1061 C1057 1.376 . S
C1061 C1060 1.392 . S
C1061 H1073 0.929 . S
C1062 C1058 1.531 . S
C1062 H1074 0.960 . S
C1062 H1075 0.962 . S
C1062 H1076 0.960 . S
C1063 C1060 1.511 . S
C1063 H1077 0.961 . S
C1063 H1078 0.961 . S
C1063 H1079 0.961 . S
C1064 C1065 1.370 . S
C1064 C1066 1.363 . S
C1064 H1080 0.931 . S
C1065 C1064 1.370 . S
C1065 C1069 1.408 . S
C1066 C1064 1.363 . S
C1066 C1067 1.370 . S
C1066 C1070 1.524 . S
C1067 C1059 1.503 . S
C1067 C1066 1.370 . S
C1067 C1068 1.403 . S
C1068 C1067 1.403 . S
C1068 C1069 1.404 . S
C1068 C1071 1.539 . S
C1069 C1065 1.408 . S
C1069 C1068 1.404 . S
C1069 H1081 0.930 . S
C1070 C1066 1.524 . S
C1070 H1082 0.956 . S
C1070 H1083 0.961 . S
C1070 H1084 0.961 . S
C1071 C1068 1.539 . S
C1071 H1085 0.958 . S
C1071 H1086 0.961 . S
C1071 H1087 0.960 . S
H1072 C1056 0.931 . S
H1073 C1061 0.929 . S
H1074 C1062 0.960 . S
H1075 C1062 0.962 . S
H1076 C1062 0.960 . S
H1077 C1063 0.961 . S
H1078 C1063 0.961 . S
H1079 C1063 0.961 . S
H1080 C1064 0.931 . S
H1081 C1069 0.930 . S
H1082 C1070 0.956 . S
H1083 C1070 0.961 . S
H1084 C1070 0.961 . S
H1085 C1071 0.958 . S
H1086 C1071 0.961 . S
H1087 C1071 0.960 . S
C1088 C1089 1.391 . S
C1088 C1090 1.394 . S
C1088 H1104 0.931 . S
C1089 C1088 1.391 . S
C1089 C1093 1.376 . S
C1090 C1088 1.394 . S
C1090 C1091 1.369 . S
C1090 C1094 1.531 . S
C1091 C1090 1.369 . S
C1091 C1092 1.410 . S
C1091 C1099 1.503 . S
C1092 C1091 1.410 . S
C1092 C1093 1.392 . S
C1092 C1095 1.511 . S
C1093 C1089 1.376 . S
C1093 C1092 1.392 . S
C1093 H1105 0.929 . S
C1094 C1090 1.531 . S
C1094 H1106 0.960 . S
C1094 H1107 0.962 . S
C1094 H1108 0.960 . S
C1095 C1092 1.511 . S
C1095 H1109 0.961 . S
C1095 H1110 0.961 . S
C1095 H1111 0.961 . S
C1096 C1097 1.370 . S
C1096 C1098 1.363 . S
C1096 H1112 0.931 . S
C1097 C1096 1.370 . S
C1097 C1101 1.408 . S
C1098 C1096 1.363 . S
C1098 C1099 1.370 . S
C1098 C1102 1.524 . S
C1099 C1091 1.503 . S
C1099 C1098 1.370 . S
C1099 C1100 1.403 . S
C1100 C1099 1.403 . S
C1100 C1101 1.404 . S
C1100 C1103 1.539 . S
C1101 C1097 1.408 . S
C1101 C1100 1.404 . S
C1101 H1113 0.930 . S
C1102 C1098 1.524 . S
C1102 H1114 0.956 . S
C1102 H1115 0.961 . S
C1102 H1116 0.961 . S
C1103 C1100 1.539 . S
C1103 H1117 0.958 . S
C1103 H1118 0.961 . S
C1103 H1119 0.960 . S
H1104 C1088 0.931 . S
H1105 C1093 0.929 . S
H1106 C1094 0.960 . S
H1107 C1094 0.962 . S
H1108 C1094 0.960 . S
H1109 C1095 0.961 . S
H1110 C1095 0.961 . S
H1111 C1095 0.961 . S
H1112 C1096 0.931 . S
H1113 C1101 0.930 . S
H1114 C1102 0.956 . S
H1115 C1102 0.961 . S
H1116 C1102 0.961 . S
H1117 C1103 0.958 . S
H1118 C1103 0.961 . S
H1119 C1103 0.960 . S
C1120 C1121 1.391 . S
C1120 C1122 1.394 . S
C1120 H1136 0.931 . S
C1121 C1120 1.391 . S
C1121 C1125 1.376 . S
C1122 C1120 1.394 . S
C1122 C1123 1.369 . S
C1122 C1126 1.531 1_545 S
C1123 C1122 1.369 . S
C1123 C1124 1.410 . S
C1123 C1131 1.503 . S
C1124 C1123 1.410 . S
C1124 C1125 1.392 . S
C1124 C1127 1.511 . S
C1125 C1121 1.376 . S
C1125 C1124 1.392 . S
C1125 H1137 0.929 . S
C1126 C1122 1.531 1_565 S
C1126 H1138 0.960 . S
C1126 H1139 0.962 . S
C1126 H1140 0.960 . S
C1127 C1124 1.511 . S
C1127 H1141 0.961 . S
C1127 H1142 0.961 . S
C1127 H1143 0.961 . S
C1128 C1129 1.370 . S
C1128 C1130 1.363 . S
C1128 H1144 0.931 . S
C1129 C1128 1.370 . S
C1129 C1133 1.408 1_565 S
C1130 C1128 1.363 . S
C1130 C1131 1.370 1_565 S
C1130 C1134 1.524 . S
C1131 C1123 1.503 . S
C1131 C1130 1.370 1_545 S
C1131 C1132 1.403 . S
C1132 C1131 1.403 . S
C1132 C1133 1.404 . S
C1132 C1135 1.539 . S
C1133 C1129 1.408 1_545 S
C1133 C1132 1.404 . S
C1133 H1145 0.930 . S
C1134 C1130 1.524 . S
C1134 H1146 0.956 . S
C1134 H1147 0.961 1_565 S
C1134 H1148 0.961 . S
C1135 C1132 1.539 . S
C1135 H1149 0.958 . S
C1135 H1150 0.961 . S
C1135 H1151 0.960 . S
H1136 C1120 0.931 . S
H1137 C1125 0.929 . S
H1138 C1126 0.960 . S
H1139 C1126 0.962 . S
H1140 C1126 0.960 . S
H1141 C1127 0.961 . S
H1142 C1127 0.961 . S
H1143 C1127 0.961 . S
H1144 C1128 0.931 . S
H1145 C1133 0.930 . S
H1146 C1134 0.956 . S
H1147 C1134 0.961 1_545 S
H1148 C1134 0.961 . S
H1149 C1135 0.958 . S
H1150 C1135 0.961 . S
H1151 C1135 0.960 . S
C1152 C1153 1.391 . S
C1152 C1154 1.394 . S
C1152 H1168 0.931 . S
C1153 C1152 1.391 . S
C1153 C1157 1.376 . S
C1154 C1152 1.394 . S
C1154 C1155 1.369 . S
C1154 C1158 1.531 . S
C1155 C1154 1.369 . S
C1155 C1156 1.410 . S
C1155 C1163 1.503 . S
C1156 C1155 1.410 . S
C1156 C1157 1.392 . S
C1156 C1159 1.511 . S
C1157 C1153 1.376 . S
C1157 C1156 1.392 . S
C1157 H1169 0.929 . S
C1158 C1154 1.531 . S
C1158 H1170 0.960 . S
C1158 H1171 0.962 . S
C1158 H1172 0.960 . S
C1159 C1156 1.511 . S
C1159 H1173 0.961 . S
C1159 H1174 0.961 . S
C1159 H1175 0.961 . S
C1160 C1161 1.370 . S
C1160 C1162 1.363 . S
C1160 H1176 0.931 . S
C1161 C1160 1.370 . S
C1161 C1165 1.408 . S
C1162 C1160 1.363 . S
C1162 C1163 1.370 . S
C1162 C1166 1.524 . S
C1163 C1155 1.503 . S
C1163 C1162 1.370 . S
C1163 C1164 1.403 . S
C1164 C1163 1.403 . S
C1164 C1165 1.404 . S
C1164 C1167 1.539 . S
C1165 C1161 1.408 . S
C1165 C1164 1.404 . S
C1165 H1177 0.930 . S
C1166 C1162 1.524 . S
C1166 H1178 0.956 . S
C1166 H1179 0.961 . S
C1166 H1180 0.961 . S
C1167 C1164 1.539 . S
C1167 H1181 0.958 . S
C1167 H1182 0.961 . S
C1167 H1183 0.960 . S
H1168 C1152 0.931 . S
H1169 C1157 0.929 . S
H1170 C1158 0.960 . S
H1171 C1158 0.962 . S
H1172 C1158 0.960 . S
H1173 C1159 0.961 . S
H1174 C1159 0.961 . S
H1175 C1159 0.961 . S
H1176 C1160 0.931 . S
H1177 C1165 0.930 . S
H1178 C1166 0.956 . S
H1179 C1166 0.961 . S
H1180 C1166 0.961 . S
H1181 C1167 0.958 . S
H1182 C1167 0.961 . S
H1183 C1167 0.960 . S
C1184 C1185 1.391 . S
C1184 C1186 1.394 . S
C1184 H1200 0.931 . S
C1185 C1184 1.391 . S
C1185 C1189 1.376 . S
C1186 C1184 1.394 . S
C1186 C1187 1.369 . S
C1186 C1190 1.531 1_565 S
C1187 C1186 1.369 . S
C1187 C1188 1.410 . S
C1187 C1195 1.503 . S
C1188 C1187 1.410 . S
C1188 C1189 1.392 . S
C1188 C1191 1.511 . S
C1189 C1185 1.376 . S
C1189 C1188 1.392 . S
C1189 H1201 0.929 . S
C1190 C1186 1.531 1_545 S
C1190 H1202 0.960 . S
C1190 H1203 0.962 . S
C1190 H1204 0.960 . S
C1191 C1188 1.511 . S
C1191 H1205 0.961 . S
C1191 H1206 0.961 . S
C1191 H1207 0.961 . S
C1192 C1193 1.370 . S
C1192 C1194 1.363 1_545 S
C1192 H1208 0.931 . S
C1193 C1192 1.370 . S
C1193 C1197 1.408 . S
C1194 C1192 1.363 1_565 S
C1194 C1195 1.370 . S
C1194 C1198 1.524 . S
C1195 C1187 1.503 . S
C1195 C1194 1.370 . S
C1195 C1196 1.403 1_565 S
C1196 C1195 1.403 1_545 S
C1196 C1197 1.404 . S
C1196 C1199 1.539 . S
C1197 C1193 1.408 . S
C1197 C1196 1.404 . S
C1197 H1209 0.930 . S
C1198 C1194 1.524 . S
C1198 H1210 0.956 . S
C1198 H1211 0.961 . S
C1198 H1212 0.961 . S
C1199 C1196 1.539 . S
C1199 H1213 0.963 . S
C1199 H1214 0.961 1_545 S
C1199 H1215 0.955 1_545 S
H1200 C1184 0.931 . S
H1201 C1189 0.929 . S
H1202 C1190 0.960 . S
H1203 C1190 0.962 . S
H1204 C1190 0.960 . S
H1205 C1191 0.961 . S
H1206 C1191 0.961 . S
H1207 C1191 0.961 . S
H1208 C1192 0.931 . S
H1209 C1197 0.930 . S
H1210 C1198 0.956 . S
H1211 C1198 0.961 . S
H1212 C1198 0.961 . S
H1213 C1199 0.963 . S
H1214 C1199 0.961 1_565 S
H1215 C1199 0.955 1_565 S
C1216 C1217 1.391 . S
C1216 C1218 1.394 . S
C1216 H1232 0.931 . S
C1217 C1216 1.391 . S
C1217 C1221 1.376 . S
C1218 C1216 1.394 . S
C1218 C1219 1.369 . S
C1218 C1222 1.531 . S
C1219 C1218 1.369 . S
C1219 C1220 1.410 . S
C1219 C1227 1.503 . S
C1220 C1219 1.410 . S
C1220 C1221 1.392 . S
C1220 C1223 1.511 . S
C1221 C1217 1.376 . S
C1221 C1220 1.392 . S
C1221 H1233 0.929 . S
C1222 C1218 1.531 . S
C1222 H1234 0.960 . S
C1222 H1235 0.962 . S
C1222 H1236 0.960 . S
C1223 C1220 1.511 . S
C1223 H1237 0.961 . S
C1223 H1238 0.961 . S
C1223 H1239 0.961 . S
C1224 C1225 1.370 . S
C1224 C1226 1.363 . S
C1224 H1240 0.931 . S
C1225 C1224 1.370 . S
C1225 C1229 1.408 . S
C1226 C1224 1.363 . S
C1226 C1227 1.370 . S
C1226 C1230 1.524 . S
C1227 C1219 1.503 . S
C1227 C1226 1.370 . S
C1227 C1228 1.403 . S
C1228 C1227 1.403 . S
C1228 C1229 1.404 . S
C1228 C1231 1.539 . S
C1229 C1225 1.408 . S
C1229 C1228 1.404 . S
C1229 H1241 0.930 . S
C1230 C1226 1.524 . S
C1230 H1242 0.956 . S
C1230 H1243 0.961 . S
C1230 H1244 0.961 . S
C1231 C1228 1.539 . S
C1231 H1245 0.958 . S
C1231 H1246 0.961 . S
C1231 H1247 0.960 . S
H1232 C1216 0.931 . S
H1233 C1221 0.929 . S
H1234 C1222 0.960 . S
H1235 C1222 0.962 . S
H1236 C1222 0.960 . S
H1237 C1223 0.961 . S
H1238 C1223 0.961 . S
H1239 C1223 0.961 . S
H1240 C1224 0.931 . S
H1241 C1229 0.930 . S
H1242 C1230 0.956 . S
H1243 C1230 0.961 . S
H1244 C1230 0.961 . S
H1245 C1231 0.958 . S
H1246 C1231 0.961 . S
H1247 C1231 0.960 . S
C1248 C1249 1.391 . S
C1248 C1250 1.394 . S
C1248 H1264 0.931 . S
C1249 C1248 1.391 . S
C1249 C1253 1.376 1_545 S
C1250 C1248 1.394 . S
C1250 C1251 1.369 1_545 S
C1250 C1254 1.531 . S
C1251 C1250 1.369 1_565 S
C1251 C1252 1.410 . S
C1251 C1259 1.503 . S
C1252 C1251 1.410 . S
C1252 C1253 1.392 . S
C1252 C1255 1.511 . S
C1253 C1249 1.376 1_565 S
C1253 C1252 1.392 . S
C1253 H1265 0.929 . S
C1254 C1250 1.531 . S
C1254 H1266 0.960 . S
C1254 H1267 0.962 . S
C1254 H1268 0.960 . S
C1255 C1252 1.511 . S
C1255 H1269 0.961 . S
C1255 H1270 0.961 . S
C1255 H1271 0.961 . S
C1256 C1257 1.370 . S
C1256 C1258 1.363 . S
C1256 H1272 0.931 . S
C1257 C1256 1.370 . S
C1257 C1261 1.408 . S
C1258 C1256 1.363 . S
C1258 C1259 1.370 . S
C1258 C1262 1.524 . S
C1259 C1251 1.503 . S
C1259 C1258 1.370 . S
C1259 C1260 1.403 . S
C1260 C1259 1.403 . S
C1260 C1261 1.404 . S
C1260 C1263 1.539 1_565 S
C1261 C1257 1.408 . S
C1261 C1260 1.404 . S
C1261 H1273 0.930 . S
C1262 C1258 1.524 . S
C1262 H1274 0.956 . S
C1262 H1275 0.961 . S
C1262 H1276 0.961 . S
C1263 C1260 1.539 1_545 S
C1263 H1277 0.958 . S
C1263 H1278 0.961 . S
C1263 H1279 0.960 . S
H1264 C1248 0.931 . S
H1265 C1253 0.929 . S
H1266 C1254 0.960 . S
H1267 C1254 0.962 . S
H1268 C1254 0.960 . S
H1269 C1255 0.961 . S
H1270 C1255 0.961 . S
H1271 C1255 0.961 . S
H1272 C1256 0.931 . S
H1273 C1261 0.930 . S
H1274 C1262 0.956 . S
H1275 C1262 0.961 . S
H1276 C1262 0.961 . S
H1277 C1263 0.958 . S
H1278 C1263 0.961 . S
H1279 C1263 0.960 . S
C1280 C1281 1.391 . S
C1280 C1282 1.394 . S
C1280 H1296 0.931 . S
C1281 C1280 1.391 . S
C1281 C1285 1.376 . S
C1282 C1280 1.394 . S
C1282 C1283 1.369 . S
C1282 C1286 1.531 . S
C1283 C1282 1.369 . S
C1283 C1284 1.410 . S
C1283 C1291 1.503 . S
C1284 C1283 1.410 . S
C1284 C1285 1.392 . S
C1284 C1287 1.511 . S
C1285 C1281 1.376 . S
C1285 C1284 1.392 . S
C1285 H1297 0.929 . S
C1286 C1282 1.531 . S
C1286 H1298 0.960 . S
C1286 H1299 0.962 . S
C1286 H1300 0.960 . S
C1287 C1284 1.511 . S
C1287 H1301 0.961 . S
C1287 H1302 0.961 . S
C1287 H1303 0.961 . S
C1288 C1289 1.370 . S
C1288 C1290 1.363 . S
C1288 H1304 0.931 . S
C1289 C1288 1.370 . S
C1289 C1293 1.408 . S
C1290 C1288 1.363 . S
C1290 C1291 1.370 . S
C1290 C1294 1.524 . S
C1291 C1283 1.503 . S
C1291 C1290 1.370 . S
C1291 C1292 1.403 . S
C1292 C1291 1.403 . S
C1292 C1293 1.404 . S
C1292 C1295 1.539 . S
C1293 C1289 1.408 . S
C1293 C1292 1.404 . S
C1293 H1305 0.930 . S
C1294 C1290 1.524 . S
C1294 H1306 0.956 . S
C1294 H1307 0.961 . S
C1294 H1308 0.961 . S
C1295 C1292 1.539 . S
C1295 H1309 0.958 . S
C1295 H1310 0.961 . S
C1295 H1311 0.960 . S
H1296 C1280 0.931 . S
H1297 C1285 0.929 . S
H1298 C1286 0.960 . S
H1299 C1286 0.962 . S
H1300 C1286 0.960 . S
H1301 C1287 0.961 . S
H1302 C1287 0.961 . S
H1303 C1287 0.961 . S
H1304 C1288 0.931 . S
H1305 C1293 0.930 . S
H1306 C1294 0.956 . S
H1307 C1294 0.961 . S
H1308 C1294 0.961 . S
H1309 C1295 0.958 . S
H1310 C1295 0.961 . S
H1311 C1295 0.960 . S
C1312 C1313 1.391 . S
C1312 C1314 1.394 . S
C1312 H1328 0.931 . S
C1313 C1312 1.391 . S
C1313 C1317 1.376 1_565 S
C1314 C1312 1.394 . S
C1314 C1315 1.369 1_565 S
C1314 C1318 1.531 . S
C1315 C1314 1.369 1_545 S
C1315 C1316 1.410 . S
C1315 C1323 1.503 . S
C1316 C1315 1.410 . S
C1316 C1317 1.392 . S
C1316 C1319 1.511 . S
C1317 C1313 1.376 1_545 S
C1317 C1316 1.392 . S
C1317 H1329 0.929 . S
C1318 C1314 1.531 . S
C1318 H1330 0.960 . S
C1318 H1331 0.962 . S
C1318 H1332 0.960 . S
C1319 C1316 1.511 . S
C1319 H1333 0.961 . S
C1319 H1334 0.961 . S
C1319 H1335 0.961 . S
C1320 C1321 1.370 . S
C1320 C1322 1.363 . S
C1320 H1336 0.931 . S
C1321 C1320 1.370 . S
C1321 C1325 1.408 . S
C1322 C1320 1.363 . S
C1322 C1323 1.370 . S
C1322 C1326 1.524 . S
C1323 C1315 1.503 . S
C1323 C1322 1.370 . S
C1323 C1324 1.403 . S
C1324 C1323 1.403 . S
C1324 C1325 1.404 . S
C1324 C1327 1.539 1_545 S
C1325 C1321 1.408 . S
C1325 C1324 1.404 . S
C1325 H1337 0.930 . S
C1326 C1322 1.524 . S
C1326 H1338 0.956 . S
C1326 H1339 0.961 . S
C1326 H1340 0.961 . S
C1327 C1324 1.539 1_565 S
C1327 H1341 0.958 . S
C1327 H1342 0.961 1_565 S
C1327 H1343 0.960 . S
H1328 C1312 0.931 . S
H1329 C1317 0.929 . S
H1330 C1318 0.960 . S
H1331 C1318 0.962 . S
H1332 C1318 0.960 . S
H1333 C1319 0.961 . S
H1334 C1319 0.961 . S
H1335 C1319 0.961 . S
H1336 C1320 0.931 . S
H1337 C1325 0.930 . S
H1338 C1326 0.956 . S
H1339 C1326 0.961 . S
H1340 C1326 0.961 . S
H1341 C1327 0.958 . S
H1342 C1327 0.961 1_545 S
H1343 C1327 0.960 . S
C1344 C1345 1.391 . S
C1344 C1346 1.394 . S
C1344 H1360 0.931 . S
C1345 C1344 1.391 . S
C1345 C1349 1.376 . S
C1346 C1344 1.394 . S
C1346 C1347 1.369 . S
C1346 C1350 1.531 . S
C1347 C1346 1.369 . S
C1347 C1348 1.410 . S
C1347 C1355 1.503 . S
C1348 C1347 1.410 . S
C1348 C1349 1.392 . S
C1348 C1351 1.511 . S
C1349 C1345 1.376 . S
C1349 C1348 1.392 . S
C1349 H1361 0.929 . S
C1350 C1346 1.531 . S
C1350 H1362 0.960 . S
C1350 H1363 0.962 . S
C1350 H1364 0.960 . S
C1351 C1348 1.511 . S
C1351 H1365 0.961 . S
C1351 H1366 0.961 . S
C1351 H1367 0.961 . S
C1352 C1353 1.370 . S
C1352 C1354 1.363 . S
C1352 H1368 0.931 . S
C1353 C1352 1.370 . S
C1353 C1357 1.408 . S
C1354 C1352 1.363 . S
C1354 C1355 1.370 . S
C1354 C1358 1.524 . S
C1355 C1347 1.503 . S
C1355 C1354 1.370 . S
C1355 C1356 1.403 . S
C1356 C1355 1.403 . S
C1356 C1357 1.404 . S
C1356 C1359 1.539 . S
C1357 C1353 1.408 . S
C1357 C1356 1.404 . S
C1357 H1369 0.930 . S
C1358 C1354 1.524 . S
C1358 H1370 0.956 . S
C1358 H1371 0.961 . S
C1358 H1372 0.961 . S
C1359 C1356 1.539 . S
C1359 H1373 0.958 . S
C1359 H1374 0.961 . S
C1359 H1375 0.960 . S
H1360 C1344 0.931 . S
H1361 C1349 0.929 . S
H1362 C1350 0.960 . S
H1363 C1350 0.962 . S
H1364 C1350 0.960 . S
H1365 C1351 0.961 . S
H1366 C1351 0.961 . S
H1367 C1351 0.961 . S
H1368 C1352 0.931 . S
H1369 C1357 0.930 . S
H1370 C1358 0.956 . S
H1371 C1358 0.961 . S
H1372 C1358 0.961 . S
H1373 C1359 0.958 . S
H1374 C1359 0.961 . S
H1375 C1359 0.960 . S
C1376 C1377 1.391 . S
C1376 C1378 1.394 . S
C1376 H1392 0.931 . S
C1377 C1376 1.391 . S
C1377 C1381 1.376 . S
C1378 C1376 1.394 . S
C1378 C1379 1.369 . S
C1378 C1382 1.531 . S
C1379 C1378 1.369 . S
C1379 C1380 1.410 . S
C1379 C1387 1.503 . S
C1380 C1379 1.410 . S
C1380 C1381 1.392 . S
C1380 C1383 1.511 . S
C1381 C1377 1.376 . S
C1381 C1380 1.392 . S
C1381 H1393 0.929 . S
C1382 C1378 1.531 . S
C1382 H1394 0.960 . S
C1382 H1395 0.962 . S
C1382 H1396 0.960 . S
C1383 C1380 1.511 . S
C1383 H1397 0.961 . S
C1383 H1398 0.961 . S
C1383 H1399 0.961 . S
C1384 C1385 1.370 . S
C1384 C1386 1.363 . S
C1384 H1400 0.931 . S
C1385 C1384 1.370 . S
C1385 C1389 1.408 . S
C1386 C1384 1.363 . S
C1386 C1387 1.370 . S
C1386 C1390 1.524 . S
C1387 C1379 1.503 . S
C1387 C1386 1.370 . S
C1387 C1388 1.403 . S
C1388 C1387 1.403 . S
C1388 C1389 1.404 . S
C1388 C1391 1.539 . S
C1389 C1385 1.408 . S
C1389 C1388 1.404 . S
C1389 H1401 0.930 . S
C1390 C1386 1.524 . S
C1390 H1402 0.956 . S
C1390 H1403 0.961 . S
C1390 H1404 0.961 . S
C1391 C1388 1.539 . S
C1391 H1405 0.958 . S
C1391 H1406 0.961 . S
C1391 H1407 0.960 . S
H1392 C1376 0.931 . S
H1393 C1381 0.929 . S
H1394 C1382 0.960 . S
H1395 C1382 0.962 . S
H1396 C1382 0.960 . S
H1397 C1383 0.961 . S
H1398 C1383 0.961 . S
H1399 C1383 0.961 . S
H1400 C1384 0.931 . S
H1401 C1389 0.930 . S
H1402 C1390 0.956 . S
H1403 C1390 0.961 . S
H1404 C1390 0.961 . S
H1405 C1391 0.958 . S
H1406 C1391 0.961 . S
H1407 C1391 0.960 . S
C1408 C1409 1.391 1_565 S
C1408 C1410 1.394 . S
C1408 H1424 0.931 . S
C1409 C1408 1.391 1_545 S
C1409 C1413 1.376 . S
C1410 C1408 1.394 . S
C1410 C1411 1.369 . S
C1410 C1414 1.531 . S
C1411 C1410 1.369 . S
C1411 C1412 1.410 1_565 S
C1411 C1419 1.503 . S
C1412 C1411 1.410 1_545 S
C1412 C1413 1.392 . S
C1412 C1415 1.511 . S
C1413 C1409 1.376 . S
C1413 C1412 1.392 . S
C1413 H1425 0.929 . S
C1414 C1410 1.531 . S
C1414 H1426 0.960 . S
C1414 H1427 0.962 . S
C1414 H1428 0.960 . S
C1415 C1412 1.511 . S
C1415 H1429 0.961 . S
C1415 H1430 0.961 . S
C1415 H1431 0.961 . S
C1416 C1417 1.370 . S
C1416 C1418 1.363 . S
C1416 H1432 0.931 . S
C1417 C1416 1.370 . S
C1417 C1421 1.408 . S
C1418 C1416 1.363 . S
C1418 C1419 1.370 . S
C1418 C1422 1.524 . S
C1419 C1411 1.503 . S
C1419 C1418 1.370 . S
C1419 C1420 1.403 . S
C1420 C1419 1.403 . S
C1420 C1421 1.404 . S
C1420 C1423 1.539 . S
C1421 C1417 1.408 . S
C1421 C1420 1.404 . S
C1421 H1433 0.930 . S
C1422 C1418 1.524 . S
C1422 H1434 0.956 . S
C1422 H1435 0.961 1_565 S
C1422 H1436 0.961 . S
C1423 C1420 1.539 . S
C1423 H1437 0.958 . S
C1423 H1438 0.961 . S
C1423 H1439 0.960 . S
H1424 C1408 0.931 . S
H1425 C1413 0.929 . S
H1426 C1414 0.960 . S
H1427 C1414 0.962 . S
H1428 C1414 0.960 . S
H1429 C1415 0.961 . S
H1430 C1415 0.961 . S
H1431 C1415 0.961 . S
H1432 C1416 0.931 . S
H1433 C1421 0.930 . S
H1434 C1422 0.956 . S
H1435 C1422 0.961 1_545 S
H1436 C1422 0.961 . S
H1437 C1423 0.958 . S
H1438 C1423 0.961 . S
H1439 C1423 0.960 . S
C1440 C1441 1.391 . S
C1440 C1442 1.394 . S
C1440 H1456 0.931 . S
C1441 C1440 1.391 . S
C1441 C1445 1.376 . S
C1442 C1440 1.394 . S
C1442 C1443 1.369 . S
C1442 C1446 1.531 . S
C1443 C1442 1.369 . S
C1443 C1444 1.410 . S
C1443 C1451 1.503 . S
C1444 C1443 1.410 . S
C1444 C1445 1.392 . S
C1444 C1447 1.511 . S
C1445 C1441 1.376 . S
C1445 C1444 1.392 . S
C1445 H1457 0.929 . S
C1446 C1442 1.531 . S
C1446 H1458 0.960 . S
C1446 H1459 0.962 . S
C1446 H1460 0.960 . S
C1447 C1444 1.511 . S
C1447 H1461 0.961 . S
C1447 H1462 0.961 . S
C1447 H1463 0.961 . S
C1448 C1449 1.370 . S
C1448 C1450 1.363 . S
C1448 H1464 0.931 . S
C1449 C1448 1.370 . S
C1449 C1453 1.408 . S
C1450 C1448 1.363 . S
C1450 C1451 1.370 . S
C1450 C1454 1.524 . S
C1451 C1443 1.503 . S
C1451 C1450 1.370 . S
C1451 C1452 1.403 . S
C1452 C1451 1.403 . S
C1452 C1453 1.404 . S
C1452 C1455 1.539 . S
C1453 C1449 1.408 . S
C1453 C1452 1.404 . S
C1453 H1465 0.930 . S
C1454 C1450 1.524 . S
C1454 H1466 0.956 . S
C1454 H1467 0.961 . S
C1454 H1468 0.961 . S
C1455 C1452 1.539 . S
C1455 H1469 0.958 . S
C1455 H1470 0.961 . S
C1455 H1471 0.960 . S
H1456 C1440 0.931 . S
H1457 C1445 0.929 . S
H1458 C1446 0.960 . S
H1459 C1446 0.962 . S
H1460 C1446 0.960 . S
H1461 C1447 0.961 . S
H1462 C1447 0.961 . S
H1463 C1447 0.961 . S
H1464 C1448 0.931 . S
H1465 C1453 0.930 . S
H1466 C1454 0.956 . S
H1467 C1454 0.961 . S
H1468 C1454 0.961 . S
H1469 C1455 0.958 . S
H1470 C1455 0.961 . S
H1471 C1455 0.960 . S
C1472 C1473 1.391 . S
C1472 C1474 1.394 . S
C1472 H1488 0.931 . S
C1473 C1472 1.391 . S
C1473 C1477 1.376 . S
C1474 C1472 1.394 . S
C1474 C1475 1.369 . S
C1474 C1478 1.531 . S
C1475 C1474 1.369 . S
C1475 C1476 1.410 . S
C1475 C1483 1.503 . S
C1476 C1475 1.410 . S
C1476 C1477 1.392 . S
C1476 C1479 1.511 1_545 S
C1477 C1473 1.376 . S
C1477 C1476 1.392 . S
C1477 H1489 0.929 . S
C1478 C1474 1.531 . S
C1478 H1490 0.960 . S
C1478 H1491 0.962 . S
C1478 H1492 0.960 . S
C1479 C1476 1.511 1_565 S
C1479 H1493 0.961 . S
C1479 H1494 0.961 . S
C1479 H1495 0.961 . S
C1480 C1481 1.370 1_545 S
C1480 C1482 1.363 . S
C1480 H1496 0.931 . S
C1481 C1480 1.370 1_565 S
C1481 C1485 1.408 . S
C1482 C1480 1.363 . S
C1482 C1483 1.370 . S
C1482 C1486 1.524 . S
C1483 C1475 1.503 . S
C1483 C1482 1.370 . S
C1483 C1484 1.403 1_545 S
C1484 C1483 1.403 1_565 S
C1484 C1485 1.404 . S
C1484 C1487 1.539 . S
C1485 C1481 1.408 . S
C1485 C1484 1.404 . S
C1485 H1497 0.930 . S
C1486 C1482 1.524 . S
C1486 H1498 0.956 . S
C1486 H1499 0.961 . S
C1486 H1500 0.961 . S
C1487 C1484 1.539 . S
C1487 H1501 0.958 . S
C1487 H1502 0.961 . S
C1487 H1503 0.960 . S
H1488 C1472 0.931 . S
H1489 C1477 0.929 . S
H1490 C1478 0.960 . S
H1491 C1478 0.962 . S
H1492 C1478 0.960 . S
H1493 C1479 0.961 . S
H1494 C1479 0.961 . S
H1495 C1479 0.961 . S
H1496 C1480 0.931 . S
H1497 C1485 0.930 . S
H1498 C1486 0.956 . S
H1499 C1486 0.961 . S
H1500 C1486 0.961 . S
H1501 C1487 0.958 . S
H1502 C1487 0.961 . S
H1503 C1487 0.960 . S
C1504 C1505 1.391 . S
C1504 C1506 1.394 . S
C1504 H1520 0.931 . S
C1505 C1504 1.391 . S
C1505 C1509 1.376 . S
C1506 C1504 1.394 . S
C1506 C1507 1.369 . S
C1506 C1510 1.531 . S
C1507 C1506 1.369 . S
C1507 C1508 1.410 . S
C1507 C1515 1.503 . S
C1508 C1507 1.410 . S
C1508 C1509 1.392 . S
C1508 C1511 1.511 . S
C1509 C1505 1.376 . S
C1509 C1508 1.392 . S
C1509 H1521 0.929 . S
C1510 C1506 1.531 . S
C1510 H1522 0.960 . S
C1510 H1523 0.962 . S
C1510 H1524 0.960 . S
C1511 C1508 1.511 . S
C1511 H1525 0.961 . S
C1511 H1526 0.961 . S
C1511 H1527 0.961 . S
C1512 C1513 1.370 . S
C1512 C1514 1.363 . S
C1512 H1528 0.931 . S
C1513 C1512 1.370 . S
C1513 C1517 1.408 . S
C1514 C1512 1.363 . S
C1514 C1515 1.370 . S
C1514 C1518 1.524 . S
C1515 C1507 1.503 . S
C1515 C1514 1.370 . S
C1515 C1516 1.403 . S
C1516 C1515 1.403 . S
C1516 C1517 1.404 . S
C1516 C1519 1.539 . S
C1517 C1513 1.408 . S
C1517 C1516 1.404 . S
C1517 H1529 0.930 . S
C1518 C1514 1.524 . S
C1518 H1530 0.956 . S
C1518 H1531 0.961 . S
C1518 H1532 0.961 . S
C1519 C1516 1.539 . S
C1519 H1533 0.958 . S
C1519 H1534 0.961 . S
C1519 H1535 0.960 . S
H1520 C1504 0.931 . S
H1521 C1509 0.929 . S
H1522 C1510 0.960 . S
H1523 C1510 0.962 . S
H1524 C1510 0.960 . S
H1525 C1511 0.961 . S
H1526 C1511 0.961 . S
H1527 C1511 0.961 . S
H1528 C1512 0.931 . S
H1529 C1517 0.930 . S
H1530 C1518 0.956 . S
H1531 C1518 0.961 . S
H1532 C1518 0.961 . S
H1533 C1519 0.958 . S
H1534 C1519 0.961 . S
H1535 C1519 0.960 . S
C1536 C1537 1.391 1_545 S
C1536 C1538 1.394 . S
C1536 H1552 0.931 . S
C1537 C1536 1.391 1_565 S
C1537 C1541 1.376 . S
C1538 C1536 1.394 . S
C1538 C1539 1.369 . S
C1538 C1542 1.531 . S
C1539 C1538 1.369 . S
C1539 C1540 1.410 1_545 S
C1539 C1547 1.503 . S
C1540 C1539 1.410 1_565 S
C1540 C1541 1.392 . S
C1540 C1543 1.511 . S
C1541 C1537 1.376 . S
C1541 C1540 1.392 . S
C1541 H1553 0.929 . S
C1542 C1538 1.531 . S
C1542 H1554 0.960 . S
C1542 H1555 0.962 . S
C1542 H1556 0.960 . S
C1543 C1540 1.511 . S
C1543 H1557 0.961 . S
C1543 H1558 0.961 . S
C1543 H1559 0.961 . S
C1544 C1545 1.370 . S
C1544 C1546 1.363 . S
C1544 H1560 0.931 . S
C1545 C1544 1.370 . S
C1545 C1549 1.408 . S
C1546 C1544 1.363 . S
C1546 C1547 1.370 . S
C1546 C1550 1.524 . S
C1547 C1539 1.503 . S
C1547 C1546 1.370 . S
C1547 C1548 1.403 . S
C1548 C1547 1.403 . S
C1548 C1549 1.404 . S
C1548 C1551 1.539 . S
C1549 C1545 1.408 . S
C1549 C1548 1.404 . S
C1549 H1561 0.930 . S
C1550 C1546 1.524 . S
C1550 H1562 0.956 . S
C1550 H1563 0.961 . S
C1550 H1564 0.961 . S
C1551 C1548 1.539 . S
C1551 H1565 0.958 . S
C1551 H1566 0.961 1_545 S
C1551 H1567 0.960 1_545 S
H1552 C1536 0.931 . S
H1553 C1541 0.929 . S
H1554 C1542 0.960 . S
H1555 C1542 0.962 . S
H1556 C1542 0.960 . S
H1557 C1543 0.961 . S
H1558 C1543 0.961 . S
H1559 C1543 0.961 . S
H1560 C1544 0.931 . S
H1561 C1549 0.930 . S
H1562 C1550 0.956 . S
H1563 C1550 0.961 . S
H1564 C1550 0.961 . S
H1565 C1551 0.958 . S
H1566 C1551 0.961 1_565 S
H1567 C1551 0.960 1_565 S
C1568 C1569 1.391 . S
C1568 C1570 1.394 . S
C1568 H1584 0.931 . S
C1569 C1568 1.391 . S
C1569 C1573 1.376 . S
C1570 C1568 1.394 . S
C1570 C1571 1.369 . S
C1570 C1574 1.531 . S
C1571 C1570 1.369 . S
C1571 C1572 1.410 . S
C1571 C1579 1.503 . S
C1572 C1571 1.410 . S
C1572 C1573 1.392 . S
C1572 C1575 1.511 . S
C1573 C1569 1.376 . S
C1573 C1572 1.392 . S
C1573 H1585 0.929 . S
C1574 C1570 1.531 . S
C1574 H1586 0.960 . S
C1574 H1587 0.962 . S
C1574 H1588 0.960 . S
C1575 C1572 1.511 . S
C1575 H1589 0.961 . S
C1575 H1590 0.961 . S
C1575 H1591 0.961 . S
C1576 C1577 1.370 . S
C1576 C1578 1.363 . S
C1576 H1592 0.931 . S
C1577 C1576 1.370 . S
C1577 C1581 1.408 . S
C1578 C1576 1.363 . S
C1578 C1579 1.370 . S
C1578 C1582 1.524 . S
C1579 C1571 1.503 . S
C1579 C1578 1.370 . S
C1579 C1580 1.403 . S
C1580 C1579 1.403 . S
C1580 C1581 1.404 . S
C1580 C1583 1.539 . S
C1581 C1577 1.408 . S
C1581 C1580 1.404 . S
C1581 H1593 0.930 . S
C1582 C1578 1.524 . S
C1582 H1594 0.956 . S
C1582 H1595 0.961 . S
C1582 H1596 0.961 . S
C1583 C1580 1.539 . S
C1583 H1597 0.958 . S
C1583 H1598 0.961 . S
C1583 H1599 0.960 . S
H1584 C1568 0.931 . S
H1585 C1573 0.929 . S
H1586 C1574 0.960 . S
H1587 C1574 0.962 . S
H1588 C1574 0.960 . S
H1589 C1575 0.961 . S
H1590 C1575 0.961 . S
H1591 C1575 0.961 . S
H1592 C1576 0.931 . S
H1593 C1581 0.930 . S
H1594 C1582 0.956 . S
H1595 C1582 0.961 . S
H1596 C1582 0.961 . S
H1597 C1583 0.958 . S
H1598 C1583 0.961 . S
H1599 C1583 0.960 . S
C1600 C1601 1.391 1_565 S
C1600 C1602 1.394 . S
C1600 H1616 0.931 . S
C1601 C1600 1.391 1_545 S
C1601 C1605 1.376 . S
C1602 C1600 1.394 . S
C1602 C1603 1.369 . S
C1602 C1606 1.531 . S
C1603 C1602 1.369 . S
C1603 C1604 1.410 1_565 S
C1603 C1611 1.503 . S
C1604 C1603 1.410 1_545 S
C1604 C1605 1.392 . S
C1604 C1607 1.511 . S
C1605 C1601 1.376 . S
C1605 C1604 1.392 . S
C1605 H1617 0.929 . S
C1606 C1602 1.531 . S
C1606 H1618 0.960 . S
C1606 H1619 0.962 . S
C1606 H1620 0.960 . S
C1607 C1604 1.511 . S
C1607 H1621 0.961 . S
C1607 H1622 0.961 . S
C1607 H1623 0.961 . S
C1608 C1609 1.370 . S
C1608 C1610 1.363 . S
C1608 H1624 0.931 . S
C1609 C1608 1.370 . S
C1609 C1613 1.408 . S
C1610 C1608 1.363 . S
C1610 C1611 1.370 . S
C1610 C1614 1.524 . S
C1611 C1603 1.503 . S
C1611 C1610 1.370 . S
C1611 C1612 1.403 . S
C1612 C1611 1.403 . S
C1612 C1613 1.404 . S
C1612 C1615 1.539 . S
C1613 C1609 1.408 . S
C1613 C1612 1.404 . S
C1613 H1625 0.930 . S
C1614 C1610 1.524 . S
C1614 H1626 0.956 . S
C1614 H1627 0.961 . S
C1614 H1628 0.961 . S
C1615 C1612 1.539 . S
C1615 H1629 0.958 . S
C1615 H1630 0.961 . S
C1615 H1631 0.960 . S
H1616 C1600 0.931 . S
H1617 C1605 0.929 . S
H1618 C1606 0.960 . S
H1619 C1606 0.962 . S
H1620 C1606 0.960 . S
H1621 C1607 0.961 . S
H1622 C1607 0.961 . S
H1623 C1607 0.961 . S
H1624 C1608 0.931 . S
H1625 C1613 0.930 . S
H1626 C1614 0.956 . S
H1627 C1614 0.961 . S
H1628 C1614 0.961 . S
H1629 C1615 0.958 . S
H1630 C1615 0.961 . S
H1631 C1615 0.960 . S
C1632 C1633 1.391 . S
C1632 C1634 1.394 . S
C1632 H1648 0.931 . S
C1633 C1632 1.391 . S
C1633 C1637 1.376 . S
C1634 C1632 1.394 . S
C1634 C1635 1.369 . S
C1634 C1638 1.531 . S
C1635 C1634 1.369 . S
C1635 C1636 1.410 . S
C1635 C1643 1.503 . S
C1636 C1635 1.410 . S
C1636 C1637 1.392 . S
C1636 C1639 1.511 . S
C1637 C1633 1.376 . S
C1637 C1636 1.392 . S
C1637 H1649 0.929 . S
C1638 C1634 1.531 . S
C1638 H1650 0.960 . S
C1638 H1651 0.962 . S
C1638 H1652 0.960 . S
C1639 C1636 1.511 . S
C1639 H1653 0.961 . S
C1639 H1654 0.961 . S
C1639 H1655 0.961 . S
C1640 C1641 1.370 . S
C1640 C1642 1.363 . S
C1640 H1656 0.931 . S
C1641 C1640 1.370 . S
C1641 C1645 1.408 . S
C1642 C1640 1.363 . S
C1642 C1643 1.370 . S
C1642 C1646 1.524 . S
C1643 C1635 1.503 . S
C1643 C1642 1.370 . S
C1643 C1644 1.403 . S
C1644 C1643 1.403 . S
C1644 C1645 1.404 . S
C1644 C1647 1.539 . S
C1645 C1641 1.408 . S
C1645 C1644 1.404 . S
C1645 H1657 0.930 . S
C1646 C1642 1.524 . S
C1646 H1658 0.956 . S
C1646 H1659 0.961 . S
C1646 H1660 0.961 . S
C1647 C1644 1.539 . S
C1647 H1661 0.958 . S
C1647 H1662 0.961 . S
C1647 H1663 0.960 . S
H1648 C1632 0.931 . S
H1649 C1637 0.929 . S
H1650 C1638 0.960 . S
H1651 C1638 0.962 . S
H1652 C1638 0.960 . S
H1653 C1639 0.961 . S
H1654 C1639 0.961 . S
H1655 C1639 0.961 . S
H1656 C1640 0.931 . S
H1657 C1645 0.930 . S
H1658 C1646 0.956 . S
H1659 C1646 0.961 . S
H1660 C1646 0.961 . S
H1661 C1647 0.958 . S
H1662 C1647 0.961 . S
H1663 C1647 0.960 . S
C1664 C1665 1.391 . S
C1664 C1666 1.394 . S
C1664 H1680 0.931 . S
C1665 C1664 1.391 . S
C1665 C1669 1.376 . S
C1666 C1664 1.394 . S
C1666 C1667 1.369 . S
C1666 C1670 1.531 . S
C1667 C1666 1.369 . S
C1667 C1668 1.410 . S
C1667 C1675 1.503 . S
C1668 C1667 1.410 . S
C1668 C1669 1.392 . S
C1668 C1671 1.511 . S
C1669 C1665 1.376 . S
C1669 C1668 1.392 . S
C1669 H1681 0.929 . S
C1670 C1666 1.531 . S
C1670 H1682 0.960 . S
C1670 H1683 0.962 . S
C1670 H1684 0.960 . S
C1671 C1668 1.511 . S
C1671 H1685 0.961 . S
C1671 H1686 0.961 . S
C1671 H1687 0.961 . S
C1672 C1673 1.370 . S
C1672 C1674 1.363 . S
C1672 H1688 0.931 . S
C1673 C1672 1.370 . S
C1673 C1677 1.408 . S
C1674 C1672 1.363 . S
C1674 C1675 1.370 . S
C1674 C1678 1.524 . S
C1675 C1667 1.503 . S
C1675 C1674 1.370 . S
C1675 C1676 1.403 . S
C1676 C1675 1.403 . S
C1676 C1677 1.404 . S
C1676 C1679 1.539 . S
C1677 C1673 1.408 . S
C1677 C1676 1.404 . S
C1677 H1689 0.930 . S
C1678 C1674 1.524 . S
C1678 H1690 0.956 . S
C1678 H1691 0.961 . S
C1678 H1692 0.961 . S
C1679 C1676 1.539 . S
C1679 H1693 0.958 . S
C1679 H1694 0.961 . S
C1679 H1695 0.960 . S
H1680 C1664 0.931 . S
H1681 C1669 0.929 . S
H1682 C1670 0.960 . S
H1683 C1670 0.962 . S
H1684 C1670 0.960 . S
H1685 C1671 0.961 . S
H1686 C1671 0.961 . S
H1687 C1671 0.961 . S
H1688 C1672 0.931 . S
H1689 C1677 0.930 . S
H1690 C1678 0.956 . S
H1691 C1678 0.961 . S
H1692 C1678 0.961 . S
H1693 C1679 0.958 . S
H1694 C1679 0.961 . S
H1695 C1679 0.960 . S
C1696 C1697 1.391 . S
C1696 C1698 1.394 . S
C1696 H1712 0.931 . S
C1697 C1696 1.391 . S
C1697 C1701 1.376 . S
C1698 C1696 1.394 . S
C1698 C1699 1.369 . S
C1698 C1702 1.531 . S
C1699 C1698 1.369 . S
C1699 C1700 1.410 . S
C1699 C1707 1.503 . S
C1700 C1699 1.410 . S
C1700 C1701 1.392 . S
C1700 C1703 1.511 . S
C1701 C1697 1.376 . S
C1701 C1700 1.392 . S
C1701 H1713 0.929 . S
C1702 C1698 1.531 . S
C1702 H1714 0.960 . S
C1702 H1715 0.962 . S
C1702 H1716 0.960 . S
C1703 C1700 1.511 . S
C1703 H1717 0.961 . S
C1703 H1718 0.961 . S
C1703 H1719 0.961 . S
C1704 C1705 1.370 . S
C1704 C1706 1.363 . S
C1704 H1720 0.931 . S
C1705 C1704 1.370 . S
C1705 C1709 1.408 . S
C1706 C1704 1.363 . S
C1706 C1707 1.370 . S
C1706 C1710 1.524 . S
C1707 C1699 1.503 . S
C1707 C1706 1.370 . S
C1707 C1708 1.403 . S
C1708 C1707 1.403 . S
C1708 C1709 1.404 . S
C1708 C1711 1.539 . S
C1709 C1705 1.408 . S
C1709 C1708 1.404 . S
C1709 H1721 0.930 . S
C1710 C1706 1.524 . S
C1710 H1722 0.956 . S
C1710 H1723 0.961 . S
C1710 H1724 0.961 . S
C1711 C1708 1.539 . S
C1711 H1725 0.958 . S
C1711 H1726 0.961 . S
C1711 H1727 0.960 . S
H1712 C1696 0.931 . S
H1713 C1701 0.929 . S
H1714 C1702 0.960 . S
H1715 C1702 0.962 . S
H1716 C1702 0.960 . S
H1717 C1703 0.961 . S
H1718 C1703 0.961 . S
H1719 C1703 0.961 . S
H1720 C1704 0.931 . S
H1721 C1709 0.930 . S
H1722 C1710 0.956 . S
H1723 C1710 0.961 . S
H1724 C1710 0.961 . S
H1725 C1711 0.958 . S
H1726 C1711 0.961 . S
H1727 C1711 0.960 . S
C1728 C1729 1.391 . S
C1728 C1730 1.394 . S
C1728 H1744 0.931 . S
C1729 C1728 1.391 . S
C1729 C1733 1.376 . S
C1730 C1728 1.394 . S
C1730 C1731 1.369 . S
C1730 C1734 1.531 . S
C1731 C1730 1.369 . S
C1731 C1732 1.410 . S
C1731 C1739 1.503 . S
C1732 C1731 1.410 . S
C1732 C1733 1.392 . S
C1732 C1735 1.511 . S
C1733 C1729 1.376 . S
C1733 C1732 1.392 . S
C1733 H1745 0.929 . S
C1734 C1730 1.531 . S
C1734 H1746 0.960 . S
C1734 H1747 0.962 . S
C1734 H1748 0.960 . S
C1735 C1732 1.511 . S
C1735 H1749 0.961 . S
C1735 H1750 0.961 . S
C1735 H1751 0.961 . S
C1736 C1737 1.370 . S
C1736 C1738 1.363 . S
C1736 H1752 0.931 . S
C1737 C1736 1.370 . S
C1737 C1741 1.408 . S
C1738 C1736 1.363 . S
C1738 C1739 1.370 . S
C1738 C1742 1.524 . S
C1739 C1731 1.503 . S
C1739 C1738 1.370 . S
C1739 C1740 1.403 . S
C1740 C1739 1.403 . S
C1740 C1741 1.404 . S
C1740 C1743 1.539 . S
C1741 C1737 1.408 . S
C1741 C1740 1.404 . S
C1741 H1753 0.930 . S
C1742 C1738 1.524 . S
C1742 H1754 0.956 . S
C1742 H1755 0.961 . S
C1742 H1756 0.961 . S
C1743 C1740 1.539 . S
C1743 H1757 0.958 . S
C1743 H1758 0.961 . S
C1743 H1759 0.960 . S
H1744 C1728 0.931 . S
H1745 C1733 0.929 . S
H1746 C1734 0.960 . S
H1747 C1734 0.962 . S
H1748 C1734 0.960 . S
H1749 C1735 0.961 . S
H1750 C1735 0.961 . S
H1751 C1735 0.961 . S
H1752 C1736 0.931 . S
H1753 C1741 0.930 . S
H1754 C1742 0.956 . S
H1755 C1742 0.961 . S
H1756 C1742 0.961 . S
H1757 C1743 0.958 . S
H1758 C1743 0.961 . S
H1759 C1743 0.960 . S
C1760 C1761 1.391 1_655 S
C1760 C1762 1.394 . S
C1760 H1776 0.931 . S
C1761 C1760 1.391 1_455 S
C1761 C1765 1.376 . S
C1762 C1760 1.394 . S
C1762 C1763 1.369 1_655 S
C1762 C1766 1.531 . S
C1763 C1762 1.369 1_455 S
C1763 C1764 1.410 . S
C1763 C1771 1.503 1_455 S
C1764 C1763 1.410 . S
C1764 C1765 1.392 . S
C1764 C1767 1.511 . S
C1765 C1761 1.376 . S
C1765 C1764 1.392 . S
C1765 H1777 0.929 . S
C1766 C1762 1.531 . S
C1766 H1778 0.960 . S
C1766 H1779 0.962 . S
C1766 H1780 0.960 . S
C1767 C1764 1.511 . S
C1767 H1781 0.961 . S
C1767 H1782 0.961 . S
C1767 H1783 0.961 . S
C1768 C1769 1.370 . S
C1768 C1770 1.363 . S
C1768 H1784 0.931 . S
C1769 C1768 1.370 . S
C1769 C1773 1.408 . S
C1770 C1768 1.363 . S
C1770 C1771 1.370 . S
C1770 C1774 1.524 . S
C1771 C1763 1.503 1_655 S
C1771 C1770 1.370 . S
C1771 C1772 1.403 . S
C1772 C1771 1.403 . S
C1772 C1773 1.404 . S
C1772 C1775 1.539 1_655 S
C1773 C1769 1.408 . S
C1773 C1772 1.404 . S
C1773 H1785 0.930 . S
C1774 C1770 1.524 . S
C1774 H1786 0.956 . S
C1774 H1787 0.961 1_655 S
C1774 H1788 0.961 . S
C1775 C1772 1.539 1_455 S
C1775 H1789 0.958 1_455 S
C1775 H1790 0.961 . S
C1775 H1791 0.960 . S
H1776 C1760 0.931 . S
H1777 C1765 0.929 . S
H1778 C1766 0.960 . S
H1779 C1766 0.962 . S
H1780 C1766 0.960 . S
H1781 C1767 0.961 . S
H1782 C1767 0.961 . S
H1783 C1767 0.961 . S
H1784 C1768 0.931 . S
H1785 C1773 0.930 . S
H1786 C1774 0.956 . S
H1787 C1774 0.961 1_455 S
H1788 C1774 0.961 . S
H1789 C1775 0.958 1_655 S
H1790 C1775 0.961 . S
H1791 C1775 0.960 . S
C1792 C1793 1.391 . S
C1792 C1794 1.394 . S
C1792 H1808 0.931 . S
C1793 C1792 1.391 . S
C1793 C1797 1.376 . S
C1794 C1792 1.394 . S
C1794 C1795 1.369 . S
C1794 C1798 1.531 . S
C1795 C1794 1.369 . S
C1795 C1796 1.410 1_655 S
C1795 C1803 1.496 1_655 S
C1796 C1795 1.410 1_455 S
C1796 C1797 1.392 1_455 S
C1796 C1799 1.511 . S
C1797 C1793 1.376 . S
C1797 C1796 1.392 1_655 S
C1797 H1809 0.929 1_655 S
C1798 C1794 1.531 . S
C1798 H1810 0.960 . S
C1798 H1811 0.962 . S
C1798 H1812 0.960 . S
C1799 C1796 1.511 . S
C1799 H1813 0.961 . S
C1799 H1814 0.961 . S
C1799 H1815 0.961 . S
C1800 C1801 1.370 . S
C1800 C1802 1.363 . S
C1800 H1816 0.931 . S
C1801 C1800 1.370 . S
C1801 C1805 1.408 1_455 S
C1802 C1800 1.363 . S
C1802 C1803 1.390 . S
C1802 C1806 1.524 . S
C1803 C1795 1.496 1_455 S
C1803 C1802 1.390 . S
C1803 C1804 1.391 1_455 S
C1804 C1803 1.391 1_655 S
C1804 C1805 1.404 . S
C1804 C1807 1.539 . S
C1805 C1801 1.408 1_655 S
C1805 C1804 1.404 . S
C1805 H1817 0.930 . S
C1806 C1802 1.524 . S
C1806 H1818 0.956 . S
C1806 H1819 0.961 . S
C1806 H1820 0.961 . S
C1807 C1804 1.539 . S
C1807 H1821 0.958 . S
C1807 H1822 0.961 . S
C1807 H1823 0.960 . S
H1808 C1792 0.931 . S
H1809 C1797 0.929 1_455 S
H1810 C1798 0.960 . S
H1811 C1798 0.962 . S
H1812 C1798 0.960 . S
H1813 C1799 0.961 . S
H1814 C1799 0.961 . S
H1815 C1799 0.961 . S
H1816 C1800 0.931 . S
H1817 C1805 0.930 . S
H1818 C1806 0.956 . S
H1819 C1806 0.961 . S
H1820 C1806 0.961 . S
H1821 C1807 0.958 . S
H1822 C1807 0.961 . S
H1823 C1807 0.960 . S
C1824 C1825 1.391 1_455 S
C1824 C1826 1.394 . S
C1824 H1840 0.931 . S
C1825 C1824 1.391 1_655 S
C1825 C1829 1.376 . S
C1826 C1824 1.394 . S
C1826 C1827 1.369 1_455 S
C1826 C1830 1.531 . S
C1827 C1826 1.369 1_655 S
C1827 C1828 1.410 . S
C1827 C1835 1.503 1_655 S
C1828 C1827 1.410 . S
C1828 C1829 1.392 . S
C1828 C1831 1.511 . S
C1829 C1825 1.376 . S
C1829 C1828 1.392 . S
C1829 H1841 0.929 . S
C1830 C1826 1.531 . S
C1830 H1842 0.960 . S
C1830 H1843 0.962 . S
C1830 H1844 0.960 . S
C1831 C1828 1.511 . S
C1831 H1845 0.961 . S
C1831 H1846 0.961 . S
C1831 H1847 0.961 . S
C1832 C1833 1.370 . S
C1832 C1834 1.363 . S
C1832 H1848 0.931 . S
C1833 C1832 1.370 . S
C1833 C1837 1.408 . S
C1834 C1832 1.363 . S
C1834 C1835 1.370 . S
C1834 C1838 1.524 . S
C1835 C1827 1.503 1_455 S
C1835 C1834 1.370 . S
C1835 C1836 1.403 . S
C1836 C1835 1.403 . S
C1836 C1837 1.404 . S
C1836 C1839 1.539 1_455 S
C1837 C1833 1.408 . S
C1837 C1836 1.404 . S
C1837 H1849 0.930 . S
C1838 C1834 1.524 . S
C1838 H1850 0.956 . S
C1838 H1851 0.961 1_455 S
C1838 H1852 0.961 . S
C1839 C1836 1.539 1_655 S
C1839 H1853 0.958 1_655 S
C1839 H1854 0.961 . S
C1839 H1855 0.960 . S
H1840 C1824 0.931 . S
H1841 C1829 0.929 . S
H1842 C1830 0.960 . S
H1843 C1830 0.962 . S
H1844 C1830 0.960 . S
H1845 C1831 0.961 . S
H1846 C1831 0.961 . S
H1847 C1831 0.961 . S
H1848 C1832 0.931 . S
H1849 C1837 0.930 . S
H1850 C1838 0.956 . S
H1851 C1838 0.961 1_655 S
H1852 C1838 0.961 . S
H1853 C1839 0.958 1_455 S
H1854 C1839 0.961 . S
H1855 C1839 0.960 . S
C1856 C1857 1.391 1_455 S
C1856 C1858 1.394 . S
C1856 H1872 0.931 . S
C1857 C1856 1.391 1_655 S
C1857 C1861 1.376 . S
C1858 C1856 1.394 . S
C1858 C1859 1.369 1_455 S
C1858 C1862 1.531 . S
C1859 C1858 1.369 1_655 S
C1859 C1860 1.410 . S
C1859 C1867 1.503 1_655 S
C1860 C1859 1.410 . S
C1860 C1861 1.392 . S
C1860 C1863 1.511 . S
C1861 C1857 1.376 . S
C1861 C1860 1.392 . S
C1861 H1873 0.929 . S
C1862 C1858 1.531 . S
C1862 H1874 0.960 . S
C1862 H1875 0.962 . S
C1862 H1876 0.960 . S
C1863 C1860 1.511 . S
C1863 H1877 0.961 . S
C1863 H1878 0.961 . S
C1863 H1879 0.961 . S
C1864 C1865 1.370 . S
C1864 C1866 1.363 . S
C1864 H1880 0.931 . S
C1865 C1864 1.370 . S
C1865 C1869 1.397 1_455 S
C1866 C1864 1.363 . S
C1866 C1867 1.370 . S
C1866 C1870 1.524 . S
C1867 C1859 1.503 1_455 S
C1867 C1866 1.370 . S
C1867 C1868 1.403 1_455 S
C1868 C1867 1.403 1_655 S
C1868 C1869 1.409 . S
C1868 C1871 1.539 . S
C1869 C1865 1.397 1_655 S
C1869 C1868 1.409 . S
C1869 H1881 0.936 . S
C1870 C1866 1.524 . S
C1870 H1882 0.956 . S
C1870 H1883 0.961 . S
C1870 H1884 0.961 . S
C1871 C1868 1.539 . S
C1871 H1885 0.958 . S
C1871 H1886 0.961 . S
C1871 H1887 0.960 . S
H1872 C1856 0.931 . S
H1873 C1861 0.929 . S
H1874 C1862 0.960 . S
H1875 C1862 0.962 . S
H1876 C1862 0.960 . S
H1877 C1863 0.961 . S
H1878 C1863 0.961 . S
H1879 C1863 0.961 . S
H1880 C1864 0.931 . S
H1881 C1869 0.936 . S
H1882 C1870 0.956 . S
H1883 C1870 0.961 . S
H1884 C1870 0.961 . S
H1885 C1871 0.958 . S
H1886 C1871 0.961 . S
H1887 C1871 0.960 . S
C353 C6 0.805 . S
C361 C93 0.904 . S
C385 C28 0.844 . S
C393 C119 0.893 . S
C417 C50 0.940 . S
C425 C137 0.846 . S
C449 C73 0.818 . S
C457 C159 0.901 . S
C481 C182 0.923 . S
C489 C269 0.859 . S
C513 C204 0.920 . S
C521 C295 0.853 . S
C545 C226 0.835 . S
C553 C313 0.888 . S
C577 C249 0.842 . S
C585 C335 0.885 . S
C609 C7 1.773 . S
C617 C51 1.822 . S
C641 C29 1.837 . S
C649 C72 1.798 . S
C673 C97 1.824 . S
C681 C141 1.795 . S
C705 C115 1.813 . S
C713 C163 1.796 . S
C737 C227 1.825 . S
C745 C183 1.795 . S
C769 C248 1.829 . S
C777 C205 1.795 . S
C801 C273 1.835 . S
C809 C317 1.806 . S
C833 C291 1.774 . S
C841 C339 1.811 . S
C865 C4 1.896 . S
C873 C250 1.905 . S
C897 C224 1.907 . S
C905 C26 1.909 . S
C929 C48 1.897 . S
C937 C202 1.905 . S
C961 C74 1.894 . S
C969 C180 1.903 . S
C993 C92 1.895 . S
C1001 C334 1.903 . S
C1025 C118 1.908 . S
C1033 C312 1.908 . S
C1057 C294 1.903 . S
C1065 C136 1.905 . S
C1089 C158 1.898 . S
C1097 C268 1.903 . S
C1121 C9 1.224 . S
C1129 C336 1.286 . S
C1153 C31 1.272 . S
C1161 C314 1.272 . S
C1185 C53 1.193 . S
C1193 C293 1.285 . S
C1217 C71 1.236 . S
C1225 C270 1.285 . S
C1249 C251 1.278 . S
C1257 C95 1.215 . S
C1281 C225 1.262 . S
C1289 C116 1.249 . S
C1313 C203 1.283 . S
C1321 C139 1.216 . S
C1345 C161 1.249 . S
C1353 C181 1.285 . S
C1377 C160 1.258 . S
C1385 C185 1.249 . S
C1409 C138 1.296 . S
C1417 C207 1.222 . S
C1441 C117 1.268 . S
C1449 C229 1.250 . S
C1473 C247 1.238 . S
C1481 C94 1.267 . S
C1505 C271 1.247 . S
C1513 C75 1.268 . S
C1537 C49 1.251 . S
C1545 C292 1.237 . S
C1569 C315 1.187 . S
C1577 C27 1.279 . S
C1601 C5 1.254 . S
C1609 C337 1.243 . S
C1633 C8 1.461 . S
C1641 C30 1.439 . S
C1665 C70 1.461 . S
C1673 C52 1.440 . S
C1697 C96 1.447 . S
C1705 C114 1.432 . S
C1729 C162 1.461 . S
C1737 C140 1.445 . S
C1761 C206 1.400 . S
C1769 C184 1.425 . S
C1793 C228 1.439 . S
C1801 C246 1.447 . S
C1825 C290 1.456 . S
C1833 C272 1.447 . S
C1857 C338 1.444 . S
C1865 C316 1.446 . S
