# Generated by pormake.
# Topology mok, (4)-cn, num edge types: 1
# Building blocks:
#     Node 0, Type 0, BuildingBlock: UXUYUI_clean_sbu_0, # of connection points: 4
#     Node 1, Type 0, BuildingBlock: UXUYUI_clean_sbu_0, # of connection points: 4
#     Node 2, Type 0, BuildingBlock: UXUYUI_clean_sbu_0, # of connection points: 4
#     Node 3, Type 0, BuildingBlock: UXUYUI_clean_sbu_0, # of connection points: 4
#     Node 4, Type 0, BuildingBlock: UXUYUI_clean_sbu_0, # of connection points: 4
#     Node 5, Type 0, BuildingBlock: UXUYUI_clean_sbu_0, # of connection points: 4
#     Node 6, Type 0, BuildingBlock: UXUYUI_clean_sbu_0, # of connection points: 4
#     Node 7, Type 0, BuildingBlock: UXUYUI_clean_sbu_0, # of connection points: 4
#     Edge 8, Type (0, 0), BuildingBlock: TEMPAE_clean_linker_10, # of connection points: 2
#     Edge 9, Type (0, 0), BuildingBlock: TEMPAE_clean_linker_10, # of connection points: 2
#     Edge 10, Type (0, 0), BuildingBlock: TEMPAE_clean_linker_10, # of connection points: 2
#     Edge 11, Type (0, 0), BuildingBlock: TEMPAE_clean_linker_10, # of connection points: 2
#     Edge 12, Type (0, 0), BuildingBlock: TEMPAE_clean_linker_10, # of connection points: 2
#     Edge 13, Type (0, 0), BuildingBlock: TEMPAE_clean_linker_10, # of connection points: 2
#     Edge 14, Type (0, 0), BuildingBlock: TEMPAE_clean_linker_10, # of connection points: 2
#     Edge 15, Type (0, 0), BuildingBlock: TEMPAE_clean_linker_10, # of connection points: 2
#     Edge 16, Type (0, 0), BuildingBlock: TEMPAE_clean_linker_10, # of connection points: 2
#     Edge 17, Type (0, 0), BuildingBlock: TEMPAE_clean_linker_10, # of connection points: 2
#     Edge 18, Type (0, 0), BuildingBlock: TEMPAE_clean_linker_10, # of connection points: 2
#     Edge 19, Type (0, 0), BuildingBlock: TEMPAE_clean_linker_10, # of connection points: 2
#     Edge 20, Type (0, 0), BuildingBlock: TEMPAE_clean_linker_10, # of connection points: 2
#     Edge 21, Type (0, 0), BuildingBlock: TEMPAE_clean_linker_10, # of connection points: 2
#     Edge 22, Type (0, 0), BuildingBlock: TEMPAE_clean_linker_10, # of connection points: 2
#     Edge 23, Type (0, 0), BuildingBlock: TEMPAE_clean_linker_10, # of connection points: 2
# Relax obj value: 0.076
# Max RMSD: 0.067
# Mean RMSD: 0.067
data_MOF--net-mok--node1-UXUYUI_clean_sbu_0--edge1-TEMPAE_clean_linker_10
_symmetry_space_group_name_H-M    P1
_symmetry_Int_Tables_number       1
_symmetry_cell_setting            triclinic
loop_
_symmetry_equiv_pos_as_xyz
'x, y, z'
_cell_length_a     67.765675
_cell_length_b     31.124985
_cell_length_c     37.993499
_cell_angle_alpha  89.976395
_cell_angle_beta   89.992668
_cell_angle_gamma 90.004868
loop_
_atom_site_label
_atom_site_type_symbol
_atom_site_fract_x
_atom_site_fract_y
_atom_site_fract_z
_atom_type_partial_charge
Li0 Li 0.58478 0.34097 0.03574 0.0
Li1 Li 0.61133 0.30173 0.00557 0.0
Li2 Li 0.5843 0.34068 0.97189 0.0
Li3 Li 0.57704 0.27293 0.00296 0.0
C4 C 0.61111 0.40093 0.01948 0.0
N5 N 0.62251 0.47484 0.05421 0.0
C6 C 0.62857 0.40154 0.03907 0.0
C7 C 0.5996 0.43806 0.01715 0.0
C8 C 0.63404 0.43919 0.05653 0.0
C9 C 0.60557 0.47506 0.03502 0.0
C10 C 0.60238 0.24769 0.06302 0.0
C11 C 0.61399 0.17447 0.0645 0.0
N12 N 0.61859 0.17916 0.09913 0.0
C13 C 0.60705 0.25168 0.0987 0.0
C14 C 0.60575 0.2087 0.04583 0.0
C15 C 0.6153 0.21672 0.11646 0.0
C16 C 0.56276 0.39472 0.08318 0.0
N17 N 0.58007 0.37374 0.07746 0.0
C18 C 0.59322 0.40013 0.13167 0.0
C19 C 0.59508 0.37564 0.10112 0.0
C20 C 0.57562 0.42261 0.13822 0.0
C21 C 0.56018 0.4194 0.11364 0.0
H22 H 0.551 0.39248 0.06406 0.0
H23 H 0.60862 0.35835 0.09604 0.0
C24 C 0.64871 0.2878 0.97496 0.0
N25 N 0.63884 0.28865 0.00611 0.0
C26 C 0.66904 0.28035 0.97423 0.0
C27 C 0.66873 0.27505 0.03768 0.0
C28 C 0.64842 0.2827 0.03717 0.0
C29 C 0.67937 0.274 0.00591 0.0
H30 H 0.64079 0.29348 0.95068 0.0
H31 H 0.64039 0.28468 0.06166 0.0
C32 C 0.54571 0.34487 0.98834 0.0
N33 N 0.51324 0.37912 0.9545 0.0
C34 C 0.53177 0.31777 0.97282 0.0
C35 C 0.54303 0.38936 0.98701 0.0
C36 C 0.51546 0.33571 0.95576 0.0
C37 C 0.52656 0.40606 0.96965 0.0
C38 C 0.59823 0.2512 0.9392 0.0
C39 C 0.58766 0.25283 0.90764 0.0
C40 C 0.61158 0.21767 0.94494 0.0
C41 C 0.59024 0.22029 0.88274 0.0
C42 C 0.61376 0.18577 0.91938 0.0
N43 N 0.60311 0.18769 0.88909 0.0
C44 C 0.59322 0.40496 0.9226 0.0
C45 C 0.56477 0.36486 0.90738 0.0
C46 C 0.59183 0.4287 0.89151 0.0
N47 N 0.57984 0.37365 0.92992 0.0
C48 C 0.56276 0.38799 0.87601 0.0
C49 C 0.57654 0.42011 0.86755 0.0
H50 H 0.60521 0.41104 0.94067 0.0
H51 H 0.55455 0.33924 0.91327 0.0
C52 C 0.55702 0.20293 0.03459 0.0
N53 N 0.56153 0.2212 0.00307 0.0
C54 C 0.54626 0.16465 0.03601 0.0
C55 C 0.54431 0.16535 0.97255 0.0
C56 C 0.55517 0.20353 0.97237 0.0
C57 C 0.53984 0.14518 0.00467 0.0
H58 H 0.56184 0.21805 0.05872 0.0
H59 H 0.55838 0.21914 0.94769 0.0
O60 O 0.60528 0.36411 1.00284 0.0
O61 O 0.59443 0.28176 0.04518 0.0
O62 O 0.56179 0.32787 0.00507 0.0
O63 O 0.59602 0.28309 0.96372 0.0
H64 H 0.63768 0.37313 0.04107 0.0
H65 H 0.58617 0.43825 1.00181 0.0
H66 H 0.64744 0.44004 0.07201 0.0
H67 H 0.59673 0.50395 0.03363 0.0
H68 H 0.61667 0.14411 0.05149 0.0
H69 H 0.60439 0.2815 0.11252 0.0
H70 H 0.60179 0.20475 0.01852 0.0
H71 H 0.61908 0.21943 0.14404 0.0
H72 H 0.60538 0.40115 0.15015 0.0
H73 H 0.54641 0.43636 0.11764 0.0
H74 H 0.67665 0.28058 0.94917 0.0
H75 H 0.676 0.27003 0.06272 0.0
H76 H 0.53353 0.28327 0.97383 0.0
H77 H 0.55361 0.41077 0.99907 0.0
H78 H 0.50459 0.31513 0.9435 0.0
H79 H 0.52436 0.44044 0.96823 0.0
H80 H 0.57741 0.27865 0.90256 0.0
H81 H 0.62035 0.21644 0.96867 0.0
H82 H 0.582 0.22099 0.85835 0.0
H83 H 0.62399 0.15959 0.92356 0.0
H84 H 0.60267 0.45345 0.88623 0.0
H85 H 0.55089 0.37992 0.85809 0.0
H86 H 0.54284 0.15069 0.0614 0.0
H87 H 0.5397 0.15149 0.94773 0.0
Li88 Li 0.39292 0.70697 0.00566 0.0
Li89 Li 0.41946 0.66892 0.0374 0.0
Li90 Li 0.42721 0.73635 0.00438 0.0
Li91 Li 0.42052 0.66823 0.97298 0.0
C92 C 0.40179 0.7653 0.05987 0.0
N93 N 0.38687 0.84046 0.08784 0.0
C94 C 0.39866 0.76883 0.0961 0.0
C95 C 0.39737 0.79995 0.03786 0.0
C96 C 0.39109 0.80711 0.10974 0.0
C97 C 0.38984 0.8377 0.05251 0.0
C98 C 0.39443 0.60518 0.01542 0.0
C99 C 0.4015 0.52969 0.0218 0.0
N100 N 0.38413 0.5244 0.03921 0.0
C101 C 0.37655 0.59898 0.03302 0.0
C102 C 0.40694 0.57028 0.00944 0.0
C103 C 0.37164 0.55789 0.04499 0.0
C104 C 0.35564 0.71395 0.97371 0.0
N105 N 0.36536 0.71885 0.00475 0.0
C106 C 0.33529 0.73719 0.03405 0.0
C107 C 0.35563 0.72987 0.03472 0.0
C108 C 0.32485 0.73224 1.0024 0.0
C109 C 0.33525 0.7204 0.97194 0.0
H110 H 0.36374 0.70463 0.95038 0.0
H111 H 0.36356 0.73236 0.05928 0.0
C112 C 0.44224 0.6231 0.08891 0.0
N113 N 0.42391 0.63654 0.07935 0.0
C114 C 0.44486 0.59894 0.11964 0.0
C115 C 0.40974 0.60329 0.13013 0.0
C116 C 0.40786 0.62784 0.09958 0.0
C117 C 0.42841 0.58838 0.14044 0.0
H118 H 0.45484 0.63119 0.07277 0.0
H119 H 0.39355 0.64003 0.09193 0.0
C120 C 0.40776 0.75162 0.93573 0.0
N121 N 0.40534 0.80307 0.8766 0.0
C122 C 0.42073 0.7453 0.9076 0.0
C123 C 0.39339 0.78373 0.9336 0.0
C124 C 0.41932 0.77175 0.87799 0.0
C125 C 0.39246 0.80951 0.90354 0.0
C126 C 0.45978 0.66495 0.99487 0.0
C127 C 0.4739 0.69168 0.97936 0.0
C128 C 0.46359 0.62102 0.99837 0.0
C129 C 0.49157 0.67387 0.96726 0.0
C130 C 0.48143 0.60444 0.9859 0.0
N131 N 0.49492 0.63098 0.97072 0.0
C132 C 0.44718 0.8066 0.03593 0.0
C133 C 0.44867 0.80624 0.97368 0.0
C134 C 0.45791 0.84495 0.0372 0.0
N135 N 0.44255 0.78835 0.00446 0.0
C136 C 0.45949 0.84445 0.97371 0.0
C137 C 0.46416 0.86451 0.00577 0.0
H138 H 0.4425 0.7914 0.06013 0.0
H139 H 0.44528 0.79083 0.94904 0.0
C140 C 0.40836 0.61517 0.91837 0.0
N141 N 0.42477 0.63476 0.93124 0.0
C142 C 0.40926 0.59118 0.88736 0.0
C143 C 0.44401 0.60754 0.88333 0.0
C144 C 0.44239 0.63162 0.91426 0.0
C145 C 0.42728 0.58699 0.86931 0.0
H146 H 0.39445 0.61876 0.93202 0.0
H147 H 0.45516 0.64829 0.9242 0.0
O148 O 0.40907 0.72792 0.04615 0.0
O149 O 0.39957 0.64521 0.00385 0.0
O150 O 0.40871 0.72562 0.96472 0.0
O151 O 0.44246 0.68188 0.00698 0.0
H152 H 0.402 0.7422 0.11345 0.0
H153 H 0.39985 0.79779 0.00984 0.0
H154 H 0.38855 0.8103 0.13773 0.0
H155 H 0.38638 0.86481 0.03579 0.0
H156 H 0.41108 0.50239 0.01751 0.0
H157 H 0.36666 0.62571 0.03764 0.0
H158 H 0.42067 0.5745 0.99536 0.0
H159 H 0.35792 0.55263 0.05889 0.0
H160 H 0.32774 0.74562 0.05821 0.0
H161 H 0.32772 0.7164 0.94701 0.0
H162 H 0.45951 0.58811 0.1268 0.0
H163 H 0.39675 0.59653 0.14582 0.0
H164 H 0.43194 0.72064 0.9088 0.0
H165 H 0.38299 0.78861 0.95484 0.0
H166 H 0.42936 0.76742 0.85614 0.0
H167 H 0.38145 0.83457 0.90158 0.0
H168 H 0.47122 0.72576 0.97659 0.0
H169 H 0.4529 0.59996 0.01056 0.0
H170 H 0.5026 0.69413 0.95509 0.0
H171 H 0.48455 0.57049 0.98832 0.0
H172 H 0.46146 0.85887 0.06254 0.0
H173 H 0.46391 0.85843 0.94882 0.0
H174 H 0.39584 0.57685 0.8773 0.0
H175 H 0.45827 0.60506 0.87062 0.0
Li176 Li 0.57684 0.7345 0.50489 0.0
Li177 Li 0.58439 0.66777 0.53562 0.0
Li178 Li 0.61024 0.70663 0.50275 0.0
Li179 Li 0.58473 0.6667 0.47038 0.0
C180 C 0.59322 0.76 0.56675 0.0
N181 N 0.58837 0.8299 0.61075 0.0
C182 C 0.58319 0.75543 0.59871 0.0
C183 C 0.60092 0.80004 0.55735 0.0
C184 C 0.58087 0.79117 0.62056 0.0
C185 C 0.59826 0.83502 0.57989 0.0
C186 C 0.54437 0.66924 0.51767 0.0
C187 C 0.51363 0.63022 0.51778 0.0
N188 N 0.50882 0.64875 0.54904 0.0
C189 C 0.53917 0.68775 0.54984 0.0
C190 C 0.53157 0.64009 0.50153 0.0
C191 C 0.52112 0.67704 0.56527 0.0
C192 C 0.55967 0.80753 0.47293 0.0
N193 N 0.56099 0.78596 0.50398 0.0
C194 C 0.54074 0.83873 0.53222 0.0
C195 C 0.55154 0.80054 0.53323 0.0
C196 C 0.53927 0.86205 0.50063 0.0
C197 C 0.54884 0.8457 0.47062 0.0
H198 H 0.56705 0.79509 0.44985 0.0
H199 H 0.55249 0.78295 0.55758 0.0
C200 C 0.59289 0.64097 0.60394 0.0
N201 N 0.58012 0.63375 0.57702 0.0
C202 C 0.59121 0.61804 0.63537 0.0
C203 C 0.56358 0.57945 0.61056 0.0
C204 C 0.56577 0.60329 0.57958 0.0
C205 C 0.57634 0.5869 0.6391 0.0
H206 H 0.60444 0.66469 0.60094 0.0
H207 H 0.55604 0.59729 0.5576 0.0
C208 C 0.60678 0.74797 0.44135 0.0
N209 N 0.63364 0.79044 0.39912 0.0
C210 C 0.61463 0.72765 0.41169 0.0
C211 C 0.61234 0.79011 0.44921 0.0
C212 C 0.62825 0.74961 0.39075 0.0
C213 C 0.62601 0.81098 0.42763 0.0
C214 C 0.6046 0.59989 0.50538 0.0
C215 C 0.62194 0.57724 0.51248 0.0
C216 C 0.58689 0.57755 0.50075 0.0
C217 C 0.62129 0.53246 0.5148 0.0
C218 C 0.58684 0.53279 0.50329 0.0
N219 N 0.6039 0.51135 0.5102 0.0
C220 C 0.64624 0.74285 0.5279 0.0
C221 C 0.64879 0.70303 0.475 0.0
C222 C 0.66655 0.75078 0.5277 0.0
N223 N 0.63779 0.71957 0.50167 0.0
C224 C 0.66909 0.71053 0.47354 0.0
C225 C 0.67831 0.73454 0.50024 0.0
H226 H 0.63731 0.75457 0.54939 0.0
H227 H 0.64179 0.68363 0.45497 0.0
C228 C 0.56259 0.63737 0.41104 0.0
N229 N 0.58004 0.6343 0.42853 0.0
C230 C 0.55959 0.61425 0.37988 0.0
C231 C 0.59253 0.58533 0.38551 0.0
C232 C 0.59493 0.60913 0.41632 0.0
C233 C 0.57469 0.5877 0.36679 0.0
H234 H 0.55107 0.658 0.42115 0.0
H235 H 0.60881 0.60795 0.43034 0.0
O236 O 0.59561 0.72538 0.54495 0.0
O237 O 0.56211 0.67873 0.50239 0.0
O238 O 0.59361 0.7268 0.46242 0.0
O239 O 0.60501 0.64375 0.50329 0.0
H240 H 0.57704 0.72479 0.60642 0.0
H241 H 0.60886 0.80409 0.53292 0.0
H242 H 0.57304 0.78814 0.64525 0.0
H243 H 0.60408 0.86622 0.57285 0.0
H244 H 0.50357 0.60773 0.50559 0.0
H245 H 0.54917 0.70933 0.56312 0.0
H246 H 0.53548 0.6251 0.4768 0.0
H247 H 0.51695 0.691 0.59026 0.0
H248 H 0.53389 0.85015 0.5562 0.0
H249 H 0.54786 0.86197 0.4455 0.0
H250 H 0.60164 0.62421 0.65636 0.0
H251 H 0.55191 0.55577 0.61229 0.0
H252 H 0.61039 0.69515 0.40509 0.0
H253 H 0.60614 0.80656 0.47168 0.0
H254 H 0.63456 0.73416 0.36787 0.0
H255 H 0.63053 0.84353 0.43352 0.0
H256 H 0.63576 0.59413 0.51618 0.0
H257 H 0.57332 0.59456 0.4953 0.0
H258 H 0.6346 0.51448 0.52028 0.0
H259 H 0.57324 0.5151 0.49979 0.0
H260 H 0.673 0.76861 0.54929 0.0
H261 H 0.67744 0.69766 0.45165 0.0
H262 H 0.54559 0.6169 0.36632 0.0
H263 H 0.6047 0.56595 0.37603 0.0
Li264 Li 0.42072 0.34077 0.53575 0.0
Li265 Li 0.42733 0.27217 0.50495 0.0
Li266 Li 0.41967 0.34014 0.47072 0.0
Li267 Li 0.39351 0.30188 0.50305 0.0
C268 C 0.46034 0.34291 0.51254 0.0
N269 N 0.49642 0.37484 0.53401 0.0
C270 C 0.47369 0.31635 0.53023 0.0
C271 C 0.4654 0.38559 0.50548 0.0
C272 C 0.49185 0.33312 0.54093 0.0
C273 C 0.48369 0.40116 0.51665 0.0
C274 C 0.4096 0.25348 0.57097 0.0
C275 C 0.40013 0.18473 0.5949 0.0
N276 N 0.41109 0.19298 0.62413 0.0
C277 C 0.42064 0.26145 0.60137 0.0
C278 C 0.39914 0.21499 0.56779 0.0
C279 C 0.42125 0.23039 0.6279 0.0
C280 C 0.40814 0.39027 0.59207 0.0
N281 N 0.42493 0.37465 0.57728 0.0
C282 C 0.44436 0.40608 0.62317 0.0
C283 C 0.44286 0.38189 0.59228 0.0
C284 C 0.42723 0.42256 0.63915 0.0
C285 C 0.40893 0.41427 0.62308 0.0
H286 H 0.39404 0.38356 0.5799 0.0
H287 H 0.45602 0.36864 0.58072 0.0
C288 C 0.44648 0.20191 0.4727 0.0
N289 N 0.44257 0.22009 0.50449 0.0
C290 C 0.45727 0.1637 0.47056 0.0
C291 C 0.46002 0.16368 0.53391 0.0
C292 C 0.44934 0.20206 0.53477 0.0
C293 C 0.46412 0.1438 0.50149 0.0
H294 H 0.44122 0.21719 0.4489 0.0
H295 H 0.4466 0.21746 0.55969 0.0
C296 C 0.3963 0.40594 0.4963 0.0
N297 N 0.38917 0.49092 0.47972 0.0
C298 C 0.37838 0.41787 0.48096 0.0
C299 C 0.4105 0.43721 0.5036 0.0
C300 C 0.37509 0.46101 0.47264 0.0
C301 C 0.40664 0.48001 0.49493 0.0
C302 C 0.39919 0.25087 0.44492 0.0
C303 C 0.39203 0.26052 0.41135 0.0
C304 C 0.3954 0.21063 0.45974 0.0
C305 C 0.38093 0.22978 0.39329 0.0
C306 C 0.38426 0.18075 0.44083 0.0
N307 N 0.3773 0.19088 0.40829 0.0
C308 C 0.44257 0.38102 0.41671 0.0
C309 C 0.40782 0.38528 0.41065 0.0
C310 C 0.4452 0.40494 0.38584 0.0
N311 N 0.42408 0.37213 0.4286 0.0
C312 C 0.40975 0.4096 0.37999 0.0
C313 C 0.42863 0.41989 0.36727 0.0
H314 H 0.45527 0.3695 0.43111 0.0
H315 H 0.39331 0.37668 0.42013 0.0
C316 C 0.35683 0.27775 0.53308 0.0
N317 N 0.36594 0.28988 0.5028 0.0
C318 C 0.33646 0.27074 0.53364 0.0
C319 C 0.33524 0.28882 0.47182 0.0
C320 C 0.35559 0.29586 0.47257 0.0
C321 C 0.32533 0.27629 0.5027 0.0
H322 H 0.36534 0.27428 0.55699 0.0
H323 H 0.3631 0.30665 0.44908 0.0
O324 O 0.44256 0.32694 0.5017 0.0
O325 O 0.40877 0.28361 0.54483 0.0
O326 O 0.39987 0.3638 0.50418 0.0
O327 O 0.40994 0.28069 0.4631 0.0
H328 H 0.47004 0.28322 0.5358 0.0
H329 H 0.45533 0.40647 0.49151 0.0
H330 H 0.50229 0.31299 0.55477 0.0
H331 H 0.48778 0.43417 0.51148 0.0
H332 H 0.39216 0.15474 0.59274 0.0
H333 H 0.42878 0.29111 0.60431 0.0
H334 H 0.39027 0.2086 0.54472 0.0
H335 H 0.42981 0.236 0.65148 0.0
H336 H 0.45882 0.41189 0.63431 0.0
H337 H 0.39527 0.42546 0.63468 0.0
H338 H 0.46037 0.15021 0.44489 0.0
H339 H 0.46479 0.14954 0.55852 0.0
H340 H 0.36721 0.39399 0.47527 0.0
H341 H 0.42433 0.42853 0.51586 0.0
H342 H 0.36134 0.4707 0.46055 0.0
H343 H 0.41753 0.50456 0.50032 0.0
H344 H 0.39491 0.29151 0.39948 0.0
H345 H 0.40105 0.20254 0.4855 0.0
H346 H 0.3752 0.23685 0.36735 0.0
H347 H 0.38117 0.1495 0.45202 0.0
H348 H 0.46001 0.41214 0.37684 0.0
H349 H 0.3966 0.41975 0.36608 0.0
H350 H 0.32947 0.26202 0.55825 0.0
H351 H 0.32739 0.29312 0.44725 0.0
Li352 Li 0.08316 0.84095 0.03518 0.0
Li353 Li 0.10896 0.80236 1.00223 0.0
Li354 Li 0.08266 0.84088 0.97005 0.0
Li355 Li 0.0756 0.77342 1.00026 0.0
C356 C 0.10234 0.90903 1.00112 0.0
N357 N 0.10061 0.99763 0.99819 0.0
C358 C 0.11948 0.93289 0.99515 0.0
C359 C 0.08432 0.93019 0.00558 0.0
C360 C 0.1183 0.97768 0.99377 0.0
C361 C 0.08375 0.975 0.00401 0.0
C362 C 0.10503 0.75865 0.06377 0.0
C363 C 0.12354 0.69446 0.07691 0.0
N364 N 0.13041 0.71322 0.10682 0.0
C365 C 0.11207 0.77712 0.09486 0.0
C366 C 0.11062 0.71684 0.05489 0.0
C367 C 0.12497 0.7537 0.11619 0.0
C368 C 0.06066 0.87042 0.09408 0.0
N369 N 0.07835 0.87269 0.07729 0.0
C370 C 0.09088 0.92058 0.12107 0.0
C371 C 0.09338 0.89692 0.09021 0.0
C372 C 0.07276 0.91914 0.13904 0.0
C373 C 0.05753 0.89351 0.12521 0.0
H374 H 0.04903 0.85054 0.08339 0.0
H375 H 0.10741 0.89754 0.07666 0.0
C376 C 0.14504 0.77246 0.97318 0.0
N377 N 0.13655 0.78976 1.00235 0.0
C378 C 0.16535 0.76474 0.97226 0.0
C379 C 0.16784 0.79279 0.03139 0.0
C380 C 0.14754 0.80056 0.03096 0.0
C381 C 0.17699 0.77483 1.00169 0.0
H382 H 0.1361 0.76525 0.95039 0.0
H383 H 0.1406 0.81586 0.05327 0.0
C384 C 0.04259 0.83623 0.98784 0.0
N385 N 0.00674 0.85282 0.95604 0.0
C386 C 0.03789 0.81697 0.95574 0.0
C387 C 0.02913 0.86421 0.00369 0.0
C388 C 0.01968 0.82568 0.94009 0.0
C389 C 0.01106 0.8721 0.98723 0.0
C390 C 0.09281 0.7495 0.93783 0.0
C391 C 0.08271 0.75351 0.9059 0.0
C392 C 0.10174 0.71045 0.9465 0.0
C393 C 0.08148 0.71811 0.88341 0.0
C394 C 0.10016 0.67579 0.92333 0.0
N395 N 0.09014 0.68029 0.89254 0.0
C396 C 0.09094 0.86864 0.90201 0.0
C397 C 0.06315 0.90413 0.92618 0.0
C398 C 0.08896 0.89146 0.87058 0.0
N399 N 0.078 0.87486 0.92884 0.0
C400 C 0.06064 0.92778 0.89517 0.0
C401 C 0.07358 0.92136 0.86673 0.0
H402 H 0.10285 0.8458 0.90507 0.0
H403 H 0.05326 0.90929 0.94808 0.0
C404 C 0.05865 0.70032 0.03225 0.0
N405 N 0.06025 0.72128 1.00096 0.0
C406 C 0.04822 0.66164 0.03457 0.0
C407 C 0.041 0.66694 0.97251 0.0
C408 C 0.05147 0.70556 0.97144 0.0
C409 C 0.03928 0.64426 0.00436 0.0
H410 H 0.06551 0.71363 0.0555 0.0
H411 H 0.05266 0.72263 0.94688 0.0
O412 O 0.10328 0.86516 1.00235 0.0
O413 O 0.09252 0.78122 0.04242 0.0
O414 O 0.06049 0.82878 0.00328 0.0
O415 O 0.09414 0.7838 0.96023 0.0
H416 H 0.13353 0.91693 0.99161 0.0
H417 H 0.0709 0.91226 0.0102 0.0
H418 H 0.13145 0.99658 0.98918 0.0
H419 H 0.06991 0.99179 0.0074 0.0
H420 H 0.12807 0.66214 0.07026 0.0
H421 H 0.10776 0.80932 0.10227 0.0
H422 H 0.10498 0.70176 0.03134 0.0
H423 H 0.13066 0.7677 0.14019 0.0
H424 H 0.10315 0.93921 0.13111 0.0
H425 H 0.04331 0.8916 0.13814 0.0
H426 H 0.17188 0.75092 0.94883 0.0
H427 H 0.17638 0.80177 0.05433 0.0
H428 H 0.04838 0.79632 0.94268 0.0
H429 H 0.03266 0.87984 0.02834 0.0
H430 H 0.01588 0.8111 0.91515 0.0
H431 H 1.00049 0.89366 0.9992 0.0
H432 H 0.07569 0.78344 0.8987 0.0
H433 H 0.10986 0.70697 0.9708 0.0
H434 H 0.0736 0.72068 0.85874 0.0
H435 H 0.10695 0.64533 0.92979 0.0
H436 H 0.09955 0.88613 0.84969 0.0
H437 H 0.04856 0.95046 0.89336 0.0
H438 H 0.04703 0.64576 0.05984 0.0
H439 H 0.03458 0.65467 0.94843 0.0
Li440 Li 0.8957 0.2031 0.00505 0.0
Li441 Li 0.92224 0.16519 0.03645 0.0
Li442 Li 0.92915 0.2322 1.00266 0.0
Li443 Li 0.92202 0.1654 0.97177 0.0
C444 C 0.90198 0.24865 0.0678 0.0
N445 N 0.881 0.29845 0.11496 0.0
C446 C 0.89464 0.2305 0.09881 0.0
C447 C 0.899 0.29233 0.06114 0.0
C448 C 0.88396 0.25614 0.12221 0.0
C449 C 0.88827 0.31692 0.08521 0.0
C450 C 0.90296 0.09676 0.00342 0.0
C451 C 0.92202 0.03134 0.00467 0.0
N452 N 0.90513 0.00819 1.00082 0.0
C453 C 0.8858 0.07236 0.99947 0.0
C454 C 0.92124 0.07615 0.00605 0.0
C455 C 0.88721 0.0276 0.99822 0.0
C456 C 0.85888 0.22798 0.97581 0.0
N457 N 0.86801 0.21503 0.00587 0.0
C458 C 0.83724 0.21493 0.03673 0.0
C459 C 0.85759 0.20783 0.03587 0.0
C460 C 0.8274 0.22879 0.00619 0.0
C461 C 0.83853 0.23527 0.97542 0.0
H462 H 0.86731 0.23188 0.95189 0.0
H463 H 0.86501 0.1959 0.05903 0.0
C464 C 0.94568 0.13182 0.09274 0.0
N465 N 0.92741 0.1328 0.07802 0.0
C466 C 0.94903 0.10823 0.12355 0.0
C467 C 0.91469 0.08718 0.12326 0.0
C468 C 0.91203 0.11114 0.09258 0.0
C469 C 0.93339 0.08545 0.13923 0.0
H470 H 0.95764 0.14947 0.08062 0.0
H471 H 0.8976 0.11286 0.08048 0.0
C472 C 0.90788 0.25804 0.94249 0.0
N473 N 0.90303 0.33015 0.90095 0.0
C474 C 0.91469 0.2582 0.90776 0.0
C475 C 0.89837 0.29433 0.95593 0.0
C476 C 0.91217 0.29504 0.88722 0.0
C477 C 0.89612 0.33053 0.93456 0.0
C478 C 0.96217 0.18283 0.98582 0.0
C479 C 0.96201 0.20005 0.95186 0.0
C480 C 0.98012 0.17157 1.00141 0.0
C481 C 0.97984 0.20585 0.93403 0.0
C482 C 0.99765 0.17784 0.98273 0.0
N483 N 0.99715 0.19472 0.94971 0.0
C484 C 0.94932 0.30134 0.0345 0.0
C485 C 0.9502 0.30332 0.97223 0.0
C486 C 0.96008 0.33962 0.03639 0.0
N487 N 0.94443 0.28422 1.00275 0.0
C488 C 0.96089 0.34167 0.97287 0.0
C489 C 0.96594 0.36051 0.00527 0.0
H490 H 0.94481 0.28525 0.05842 0.0
H491 H 0.94651 0.28898 0.94725 0.0
C492 C 0.91223 0.13567 0.90491 0.0
N493 N 0.92626 0.13212 0.93027 0.0
C494 C 0.91391 0.11255 0.8736 0.0
C495 C 0.94443 0.08211 0.89511 0.0
C496 C 0.94212 0.10583 0.92612 0.0
C497 C 0.93022 0.08538 0.86824 0.0
H498 H 0.89966 0.15646 0.90914 0.0
H499 H 0.953 0.10328 0.94684 0.0
O500 O 0.91255 0.22402 0.04468 0.0
O501 O 0.90179 0.1406 0.00456 0.0
O502 O 0.91037 0.22234 0.96304 0.0
O503 O 0.94491 0.17697 0.00387 0.0
H504 H 0.89702 0.19688 0.1046 0.0
H505 H 0.90508 0.30725 0.03786 0.0
H506 H 0.87805 0.24241 0.14615 0.0
H507 H 0.88579 0.35073 0.08031 0.0
H508 H 0.93606 0.01497 0.00666 0.0
H509 H 0.87155 0.08789 0.99739 0.0
H510 H 0.93468 0.0945 0.00912 0.0
H511 H 0.87404 0.00829 0.99517 0.0
H512 H 0.82932 0.20961 0.06111 0.0
H513 H 0.83155 0.2449 0.95103 0.0
H514 H 0.9637 0.10756 0.13481 0.0
H515 H 0.90213 0.07082 0.13471 0.0
H516 H 0.92196 0.23027 0.89682 0.0
H517 H 0.89262 0.29436 0.98243 0.0
H518 H 0.91747 0.29571 0.86037 0.0
H519 H 0.88882 0.35886 0.94466 0.0
H520 H 0.94828 0.20876 0.93936 0.0
H521 H 0.9805 0.15812 0.02768 0.0
H522 H 0.97991 0.21918 0.90773 0.0
H523 H 0.01165 0.16929 0.99448 0.0
H524 H 0.9639 0.35246 0.06198 0.0
H525 H 0.9649 0.3567 0.94818 0.0
H526 H 0.90239 0.11547 0.854 0.0
H527 H 0.95729 0.06181 0.89207 0.0
Li528 Li 0.07496 0.23462 0.5026 0.0
Li529 Li 0.0817 0.16674 0.53386 0.0
Li530 Li 0.10906 0.20508 0.50049 0.0
Li531 Li 0.08252 0.1662 0.46982 0.0
C532 C 0.0951 0.25634 0.56653 0.0
N533 N 0.09826 0.32088 0.61618 0.0
C534 C 0.08413 0.25433 0.59764 0.0
C535 C 0.10799 0.29078 0.56103 0.0
C536 C 0.08583 0.28739 0.62231 0.0
C537 C 0.10929 0.32319 0.58634 0.0
C538 C 0.04312 0.1626 0.51588 0.0
C539 C 0.02363 0.10101 0.53252 0.0
N540 N 0.01007 0.1276 0.5474 0.0
C541 C 0.02891 0.18935 0.53107 0.0
C542 C 0.0404 0.1181 0.51634 0.0
C543 C 0.01233 0.17103 0.54696 0.0
C544 C 0.0565 0.30701 0.47125 0.0
N545 N 0.05975 0.28678 0.50247 0.0
C546 C 0.04174 0.34135 0.53312 0.0
C547 C 0.05234 0.30283 0.53303 0.0
C548 C 0.0386 0.36355 0.5014 0.0
C549 C 0.04605 0.3457 0.47013 0.0
H550 H 0.06207 0.29313 0.44714 0.0
H551 H 0.0545 0.28563 0.55736 0.0
C552 C 0.09067 0.10365 0.58394 0.0
N553 N 0.07694 0.13388 0.57576 0.0
C554 C 0.08914 0.08004 0.61507 0.0
C555 C 0.05921 0.11866 0.62886 0.0
C556 C 0.06137 0.14172 0.59748 0.0
C557 C 0.07334 0.08765 0.63819 0.0
H558 H 0.10305 0.09838 0.56655 0.0
H559 H 0.05089 0.1666 0.59098 0.0
C560 C 0.10136 0.25769 0.44216 0.0
N561 N 0.11971 0.3227 0.40496 0.0
C562 C 0.1066 0.25149 0.40695 0.0
C563 C 0.10523 0.29711 0.4583 0.0
C564 C 0.11594 0.2847 0.38863 0.0
C565 C 0.11457 0.32955 0.4391 0.0
C566 C 0.10846 0.10519 0.48775 0.0
C567 C 0.12606 0.10328 0.46864 0.0
C568 C 0.09679 0.06841 0.49107 0.0
C569 C 0.13151 0.0647 0.45256 0.0
C570 C 0.10273 0.03044 0.4746 0.0
N571 N 0.11981 0.0294 0.4558 0.0
C572 C 0.14612 0.2213 0.53174 0.0
C573 C 0.1466 0.2209 0.4694 0.0
C574 C 0.16646 0.22866 0.53281 0.0
N575 N 0.13663 0.21776 0.50036 0.0
C576 C 0.16692 0.22838 0.46922 0.0
C577 C 0.17718 0.23217 0.50124 0.0
H578 H 0.13791 0.21779 0.55599 0.0
H579 H 0.13885 0.21679 0.4448 0.0
C580 C 0.06008 0.11441 0.42161 0.0
N581 N 0.07781 0.13326 0.42817 0.0
C582 C 0.05739 0.08966 0.39121 0.0
C583 C 0.09117 0.10454 0.37493 0.0
C584 C 0.09315 0.12916 0.40539 0.0
C585 C 0.07314 0.08419 0.36754 0.0
H586 H 0.04804 0.11847 0.43997 0.0
H587 H 0.10702 0.14489 0.41104 0.0
O588 O 0.0937 0.22406 0.54219 0.0
O589 O 0.05947 0.17998 0.50028 0.0
O590 O 0.09242 0.22531 0.46061 0.0
O591 O 0.10271 0.14288 0.50316 0.0
H592 H 0.07423 0.22779 0.60252 0.0
H593 H 0.11707 0.29232 0.53768 0.0
H594 H 0.07728 0.2864 0.64634 0.0
H595 H 0.11915 0.35009 0.58234 0.0
H596 H 0.0214 0.06661 0.53323 0.0
H597 H 0.03069 0.22386 0.53069 0.0
H598 H 0.05114 0.09697 0.50441 0.0
H599 H 1.00126 0.19133 0.55896 0.0
H600 H 0.03629 0.35388 0.55787 0.0
H601 H 0.04365 0.36124 0.44498 0.0
H602 H 0.10027 0.05616 0.62104 0.0
H603 H 0.04695 0.12597 0.64614 0.0
H604 H 0.10357 0.22133 0.39391 0.0
H605 H 0.10087 0.30277 0.48522 0.0
H606 H 0.12018 0.28027 0.36142 0.0
H607 H 0.11766 0.36021 0.45131 0.0
H608 H 0.13532 0.13139 0.46595 0.0
H609 H 0.08329 0.06918 0.50619 0.0
H610 H 0.14501 0.06284 0.43746 0.0
H611 H 0.09378 1.00179 0.47678 0.0
H612 H 0.17377 0.23058 0.55811 0.0
H613 H 0.17449 0.23116 0.44423 0.0
H614 H 0.04326 0.07443 0.38656 0.0
H615 H 0.1036 0.10182 0.35714 0.0
Li616 Li 0.92041 0.84119 0.53506 0.0
Li617 Li 0.92827 0.77518 0.50203 0.0
Li618 Li 0.92222 0.84298 0.471 0.0
Li619 Li 0.89473 0.80544 0.49849 0.0
C620 C 0.95702 0.863 0.50594 0.0
N621 N 0.98328 0.93088 0.50786 0.0
C622 C 0.9772 0.85567 0.50148 0.0
C623 C 0.95018 0.90485 0.51138 0.0
C624 C 0.99025 0.89041 0.50253 0.0
C625 C 0.96369 0.93873 0.51226 0.0
C626 C 0.90541 0.75588 0.56715 0.0
C627 C 0.88731 0.69701 0.59294 0.0
N628 N 0.89852 0.70025 0.62252 0.0
C629 C 0.91661 0.7589 0.59794 0.0
C630 C 0.89052 0.72494 0.56472 0.0
C631 C 0.91296 0.73036 0.62558 0.0
C632 C 0.90879 0.89482 0.59045 0.0
N633 N 0.92423 0.87143 0.57814 0.0
C634 C 0.94384 0.89123 0.62791 0.0
C635 C 0.94159 0.86934 0.59601 0.0
C636 C 0.92808 0.91556 0.64146 0.0
C637 C 0.91041 0.91733 0.62209 0.0
H638 H 0.89516 0.89586 0.57565 0.0
H639 H 0.95361 0.85027 0.58566 0.0
C640 C 0.94921 0.70608 0.47099 0.0
N641 N 0.94354 0.72318 0.50234 0.0
C642 C 0.9598 0.66756 0.46992 0.0
C643 C 0.95913 0.66557 0.53345 0.0
C644 C 0.94852 0.70408 0.53328 0.0
C645 C 0.96481 0.64659 0.50145 0.0
H646 H 0.94544 0.72229 0.44673 0.0
H647 H 0.94427 0.71863 0.55788 0.0
C648 C 0.88788 0.89073 0.48227 0.0
N649 N 0.86081 0.9368 0.44312 0.0
C650 C 0.88207 0.87604 0.44907 0.0
C651 C 0.87994 0.92886 0.49552 0.0
C652 C 0.86836 0.89978 0.4297 0.0
C653 C 0.86627 0.95169 0.47533 0.0
C654 C 0.9046 0.74871 0.44369 0.0
C655 C 0.90149 0.74739 0.40735 0.0
C656 C 0.90015 0.71274 0.46422 0.0
C657 C 0.89389 0.71002 0.39214 0.0
C658 C 0.89261 0.67596 0.44804 0.0
N659 N 0.88965 0.67538 0.41263 0.0
C660 C 0.93504 0.85641 0.40108 0.0
C661 C 0.92715 0.92035 0.43186 0.0
C662 C 0.93841 0.87969 0.37017 0.0
N663 N 0.92926 0.87691 0.43094 0.0
C664 C 0.93034 0.94485 0.40159 0.0
C665 C 0.93574 0.92449 0.37001 0.0
H666 H 0.93651 0.82181 0.40106 0.0
H667 H 0.92248 0.93594 0.45587 0.0
C668 C 0.85679 0.80124 0.52738 0.0
N669 N 0.86702 0.79382 0.49721 0.0
C670 C 0.83638 0.79502 0.52848 0.0
C671 C 0.83735 0.77369 0.46738 0.0
C672 C 0.85772 0.78059 0.46741 0.0
C673 C 0.82634 0.78103 0.49818 0.0
H674 H 0.86453 0.81241 0.55054 0.0
H675 H 0.866 0.77583 0.44347 0.0
O676 O 0.94411 0.82922 0.5049 0.0
O677 O 0.90858 0.784 0.54001 0.0
O678 O 0.9013 0.86813 0.5018 0.0
O679 O 0.91187 0.78525 0.45891 0.0
H680 H 0.98272 0.82344 0.49723 0.0
H681 H 0.93462 0.91119 0.5149 0.0
H682 H 0.00592 0.88521 0.49911 0.0
H683 H 0.9586 0.97127 0.51644 0.0
H684 H 0.87587 0.67284 0.59137 0.0
H685 H 0.92815 0.78269 0.60034 0.0
H686 H 0.88142 0.7226 0.54141 0.0
H687 H 0.92162 0.73215 0.64946 0.0
H688 H 0.95765 0.88851 0.64208 0.0
H689 H 0.89798 0.9362 0.63111 0.0
H690 H 0.96417 0.65455 0.44466 0.0
H691 H 0.96258 0.65051 0.5584 0.0
H692 H 0.8881 0.84674 0.43826 0.0
H693 H 0.88433 0.94072 0.52113 0.0
H694 H 0.86374 0.88879 0.40398 0.0
H695 H 0.86 0.98126 0.48526 0.0
H696 H 0.90479 0.77506 0.39111 0.0
H697 H 0.90265 0.71311 0.49227 0.0
H698 H 0.89135 0.70857 0.36406 0.0
H699 H 0.88914 0.64786 0.46362 0.0
H700 H 0.94234 0.8626 0.34636 0.0
H701 H 0.92834 0.97934 0.40279 0.0
H702 H 0.82853 0.80187 0.55265 0.0
H703 H 0.83033 0.76253 0.44347 0.0
C704 C 0.79313 0.20733 0.02452 0.0
C705 C 0.80562 0.23558 0.00621 0.0
C706 C 0.77259 0.21324 0.02467 0.0
C707 C 0.76426 0.24806 0.00585 0.0
C708 C 0.77673 0.27661 0.98721 0.0
C709 C 0.79724 0.27011 0.98771 0.0
C710 C 0.75979 0.18215 0.04493 0.0
C711 C 0.76841 0.31408 0.96678 0.0
C712 C 0.71009 0.2414 0.98016 0.0
C713 C 0.70113 0.26719 0.00591 0.0
C714 C 0.73061 0.23501 0.97974 0.0
C715 C 0.74249 0.25472 0.00581 0.0
C716 C 0.73356 0.28071 0.0319 0.0
C717 C 0.71303 0.28673 0.03157 0.0
C718 C 0.73958 0.20711 0.95145 0.0
C719 C 0.74572 0.30225 0.06015 0.0
H720 H 0.7994 0.18015 0.0384 0.0
H721 H 0.80675 0.29245 0.97388 0.0
H722 H 0.75099 0.19975 0.0649 0.0
H723 H 0.74921 0.16628 0.02685 0.0
H724 H 0.76857 0.15697 0.05849 0.0
H725 H 0.78008 0.333 0.9533 0.0
H726 H 0.75779 0.30236 0.94675 0.0
H727 H 0.76018 0.33572 0.98475 0.0
H728 H 0.70101 0.22573 0.96049 0.0
H729 H 0.70631 0.30729 0.05122 0.0
H730 H 0.7474 0.17955 0.96362 0.0
H731 H 0.75067 0.22574 0.93631 0.0
H732 H 0.72833 0.19449 0.93286 0.0
H733 H 0.75403 0.27774 0.07532 0.0
H734 H 0.7365 0.32114 0.07873 0.0
H735 H 0.75671 0.32406 0.04794 0.0
C736 C 0.20998 0.78204 0.97257 0.0
C737 C 0.19864 0.76772 1.00114 0.0
C738 C 0.23055 0.77659 0.97212 0.0
C739 C 0.23996 0.75572 1.00068 0.0
C740 C 0.22854 0.74069 0.02939 0.0
C741 C 0.20803 0.7472 0.0294 0.0
C742 C 0.24224 0.79365 0.9413 0.0
C743 C 0.23798 0.71769 0.06007 0.0
C744 C 0.29092 0.70801 0.98537 0.0
C745 C 0.30315 0.73863 1.0014 0.0
C746 C 0.27032 0.71306 0.98506 0.0
C747 C 0.26179 0.74994 1.0007 0.0
C748 C 0.2741 0.78123 0.01653 0.0
C749 C 0.29462 0.77502 0.01693 0.0
C750 C 0.25769 0.67869 0.96838 0.0
C751 C 0.26559 0.8213 0.03299 0.0
H752 H 0.20277 0.79834 0.95087 0.0
H753 H 0.19926 0.73578 0.05137 0.0
H754 H 0.25325 0.81744 0.95065 0.0
H755 H 0.25051 0.76715 0.92854 0.0
H756 H 0.2327 0.80924 0.92124 0.0
H757 H 0.22696 0.70701 0.07988 0.0
H758 H 0.24623 0.68918 0.05055 0.0
H759 H 0.24877 0.73917 0.07318 0.0
H760 H 0.29746 0.67961 0.97369 0.0
H761 H 0.30407 0.79892 0.02905 0.0
H762 H 0.24872 0.6927 0.94682 0.0
H763 H 0.24726 0.66549 0.98815 0.0
H764 H 0.26661 0.65186 0.95752 0.0
H765 H 0.25676 0.83921 0.01325 0.0
H766 H 0.27721 0.84297 0.04349 0.0
H767 H 0.25549 0.81248 0.05481 0.0
C768 C 0.79516 0.75685 0.52821 0.0
C769 C 0.80453 0.77457 0.4986 0.0
C770 C 0.77463 0.75074 0.52898 0.0
C771 C 0.76315 0.76218 0.49929 0.0
C772 C 0.77248 0.77996 0.46929 0.0
C773 C 0.79301 0.78615 0.46938 0.0
C774 C 0.76522 0.73188 0.56154 0.0
C775 C 0.76076 0.79238 0.43704 0.0
C776 C 0.71294 0.70925 0.48848 0.0
C777 C 0.70008 0.7418 0.49983 0.0
C778 C 0.73346 0.71556 0.48795 0.0
C779 C 0.7414 0.7552 0.49948 0.0
C780 C 0.72856 0.78811 0.51117 0.0
C781 C 0.70807 0.78112 0.51101 0.0
C782 C 0.74665 0.67975 0.47509 0.0
C783 C 0.73646 0.83073 0.52387 0.0
H784 H 0.80392 0.7472 0.55073 0.0
H785 H 0.8 0.80054 0.4466 0.0
H786 H 0.75378 0.75409 0.57182 0.0
H787 H 0.75774 0.70124 0.5549 0.0
H788 H 0.77615 0.72562 0.58273 0.0
H789 H 0.77026 0.80545 0.41573 0.0
H790 H 0.75272 0.76398 0.42675 0.0
H791 H 0.74956 0.8169 0.44403 0.0
H792 H 0.70701 0.67847 0.4804 0.0
H793 H 0.6983 0.80673 0.51934 0.0
H794 H 0.7569 0.66981 0.49635 0.0
H795 H 0.7558 0.69121 0.45276 0.0
H796 H 0.73814 0.65117 0.46637 0.0
H797 H 0.7468 0.82558 0.54612 0.0
H798 H 0.72454 0.85275 0.53266 0.0
H799 H 0.7449 0.84665 0.50251 0.0
C800 C 0.21111 0.21722 0.47753 0.0
C801 C 0.19896 0.23884 0.50167 0.0
C802 C 0.23165 0.22314 0.47759 0.0
C803 C 0.24033 0.25111 0.50255 0.0
C804 C 0.2282 0.27288 0.52709 0.0
C805 C 0.20767 0.26659 0.52629 0.0
C806 C 0.24407 0.19942 0.45092 0.0
C807 C 0.2369 0.3029 0.55417 0.0
C808 C 0.29492 0.23675 0.52271 0.0
C809 C 0.30351 0.26984 0.50276 0.0
C810 C 0.27439 0.23054 0.52314 0.0
C811 C 0.26211 0.25773 0.50283 0.0
C812 C 0.27064 0.29107 0.48256 0.0
C813 C 0.29119 0.29689 0.48295 0.0
C814 C 0.26584 0.19477 0.54525 0.0
C815 C 0.25805 0.32061 0.46041 0.0
H816 H 0.20459 0.19516 0.4588 0.0
H817 H 0.19841 0.28386 0.54474 0.0
H818 H 0.25258 0.22269 0.43479 0.0
H819 H 0.25491 0.17857 0.46459 0.0
H820 H 0.23504 0.17916 0.43305 0.0
H821 H 0.22549 0.31687 0.57176 0.0
H822 H 0.24786 0.28549 0.57054 0.0
H823 H 0.24483 0.32952 0.54085 0.0
H824 H 0.30428 0.21526 0.53772 0.0
H825 H 0.29757 0.32305 0.46796 0.0
H826 H 0.25785 0.17166 0.5282 0.0
H827 H 0.25497 0.20802 0.56421 0.0
H828 H 0.27735 0.17705 0.56018 0.0
H829 H 0.24942 0.30156 0.44112 0.0
H830 H 0.26698 0.3447 0.44584 0.0
H831 H 0.24733 0.33785 0.47734 0.0
C832 C 0.58911 0.47577 0.18144 0.0
C833 C 0.57357 0.44913 0.17058 0.0
C834 C 0.58794 0.49931 0.21286 0.0
C835 C 0.57084 0.49606 0.23412 0.0
C836 C 0.55489 0.47001 0.22292 0.0
C837 C 0.55642 0.44694 0.1912 0.0
C838 C 0.6052 0.52706 0.22363 0.0
C839 C 0.53644 0.46557 0.2449 0.0
C840 C 0.57882 0.52065 0.33101 0.0
C841 C 0.57218 0.56324 0.33344 0.0
C842 C 0.57786 0.498 0.29911 0.0
C843 C 0.57015 0.51845 0.26878 0.0
C844 C 0.5629 0.56102 0.27127 0.0
C845 C 0.56395 0.58288 0.30361 0.0
C846 C 0.58558 0.45252 0.29768 0.0
C847 C 0.55465 0.58399 0.23952 0.0
H848 H 0.60227 0.47814 0.16532 0.0
H849 H 0.54442 0.42618 0.18306 0.0
H850 H 0.60019 0.56047 0.22849 0.0
H851 H 0.61158 0.51486 0.2486 0.0
H852 H 0.61702 0.52769 0.20337 0.0
H853 H 0.52495 0.44594 0.23162 0.0
H854 H 0.54013 0.45025 0.27044 0.0
H855 H 0.53019 0.49771 0.25082 0.0
H856 H 0.5849 0.50506 0.3541 0.0
H857 H 0.55895 0.61589 0.30522 0.0
H858 H 0.59857 0.451 0.27995 0.0
H859 H 0.57418 0.43075 0.28667 0.0
H860 H 0.59001 0.44038 0.32402 0.0
H861 H 0.56648 0.58852 0.21967 0.0
H862 H 0.54843 0.61596 0.24631 0.0
H863 H 0.54292 0.56437 0.22702 0.0
C864 C 0.44486 0.57263 0.19818 0.0
C865 C 0.43057 0.56221 0.1729 0.0
C866 C 0.44613 0.54971 0.23001 0.0
C867 C 0.43296 0.51521 0.2364 0.0
C868 C 0.41895 0.50371 0.2104 0.0
C869 C 0.41783 0.52755 0.1791 0.0
C870 C 0.46111 0.56326 0.25722 0.0
C871 C 0.40485 0.46672 0.21591 0.0
C872 C 0.44382 0.43278 0.30791 0.0
C873 C 0.43083 0.44575 0.33462 0.0
C874 C 0.445 0.45555 0.276 0.0
C875 C 0.43306 0.49241 0.27091 0.0
C876 C 0.42042 0.5064 0.29828 0.0
C877 C 0.41938 0.48278 0.32969 0.0
C878 C 0.45853 0.43939 0.24735 0.0
C879 C 0.40767 0.54588 0.29412 0.0
H880 H 0.45464 0.59961 0.19354 0.0
H881 H 0.40694 0.5191 0.15938 0.0
H882 H 0.4534 0.57456 0.28126 0.0
H883 H 0.47041 0.53551 0.26498 0.0
H884 H 0.47086 0.58943 0.24757 0.0
H885 H 0.39568 0.46027 0.19226 0.0
H886 H 0.41316 0.43713 0.22266 0.0
H887 H 0.3949 0.47387 0.23834 0.0
H888 H 0.45259 0.404 0.31153 0.0
H889 H 0.40953 0.49325 0.35048 0.0
H890 H 0.46862 0.46537 0.23865 0.0
H891 H 0.44966 0.42963 0.22413 0.0
H892 H 0.46752 0.41149 0.25605 0.0
H893 H 0.41688 0.57385 0.28648 0.0
H894 H 0.39955 0.55395 0.31865 0.0
H895 H 0.39677 0.54067 0.27276 0.0
C896 C 0.4172 0.52463 0.83119 0.0
C897 C 0.42844 0.56213 0.83576 0.0
C898 C 0.4175 0.50187 0.79928 0.0
C899 C 0.42957 0.51649 0.77132 0.0
C900 C 0.4413 0.5537 0.77593 0.0
C901 C 0.44048 0.57623 0.80795 0.0
C902 C 0.40469 0.46245 0.79535 0.0
C903 C 0.45452 0.57006 0.74687 0.0
C904 C 0.44183 0.43612 0.69909 0.0
C905 C 0.42835 0.44757 0.67261 0.0
C906 C 0.44266 0.45875 0.73106 0.0
C907 C 0.42952 0.49336 0.73697 0.0
C908 C 0.41599 0.50532 0.71033 0.0
C909 C 0.41566 0.48252 0.67845 0.0
C910 C 0.45744 0.44528 0.75868 0.0
C911 C 0.40167 0.54193 0.71566 0.0
H912 H 0.40814 0.51289 0.85263 0.0
H913 H 0.44902 0.60544 0.81087 0.0
H914 H 0.39413 0.46712 0.77336 0.0
H915 H 0.41393 0.43418 0.78872 0.0
H916 H 0.3962 0.45518 0.81965 0.0
H917 H 0.4634 0.59828 0.75519 0.0
H918 H 0.46471 0.54426 0.73818 0.0
H919 H 0.44548 0.57934 0.72375 0.0
H920 H 0.45152 0.40885 0.69517 0.0
H921 H 0.40544 0.49223 0.658 0.0
H922 H 0.4496 0.43433 0.78269 0.0
H923 H 0.46676 0.47307 0.76632 0.0
H924 H 0.4672 0.41892 0.74943 0.0
H925 H 0.39209 0.53518 0.73869 0.0
H926 H 0.39215 0.54736 0.69228 0.0
H927 H 0.40984 0.57201 0.7214 0.0
C928 C 0.59257 0.45113 0.81379 0.0
C929 C 0.5754 0.44369 0.83352 0.0
C930 C 0.59189 0.47367 0.78182 0.0
C931 C 0.57359 0.48934 0.76921 0.0
C932 C 0.55616 0.48163 0.78879 0.0
C933 C 0.55726 0.45879 0.82068 0.0
C934 C 0.6108 0.48092 0.76163 0.0
C935 C 0.53639 0.49798 0.77629 0.0
C936 C 0.57653 0.58283 0.70505 0.0
C937 C 0.57444 0.56212 0.67245 0.0
C938 C 0.57578 0.55968 0.73674 0.0
C939 C 0.5729 0.51464 0.7359 0.0
C940 C 0.57031 0.49364 0.70316 0.0
C941 C 0.57109 0.51763 0.67183 0.0
C942 C 0.57849 0.58333 0.7711 0.0
C943 C 0.56725 0.44565 0.70116 0.0
H944 H 0.60658 0.43891 0.82323 0.0
H945 H 0.54396 0.45344 0.83592 0.0
H946 H 0.60943 0.46756 0.73467 0.0
H947 H 0.61362 0.51588 0.75892 0.0
H948 H 0.62374 0.46588 0.77466 0.0
H949 H 0.52415 0.48835 0.79409 0.0
H950 H 0.5367 0.53356 0.77454 0.0
H951 H 0.53322 0.48559 0.7495 0.0
H952 H 0.57879 0.6173 0.70578 0.0
H953 H 0.56965 0.50132 0.64677 0.0
H954 H 0.59206 0.57182 0.78442 0.0
H955 H 0.56591 0.57662 0.78897 0.0
H956 H 0.57967 0.61864 0.76733 0.0
H957 H 0.58053 0.42888 0.71133 0.0
H958 H 0.56443 0.43453 0.67384 0.0
H959 H 0.55463 0.43597 0.71798 0.0
C960 C 0.07741 0.98572 0.17525 0.0
C961 C 0.07006 0.94372 0.17231 0.0
C962 C 0.07627 0.00835 0.20713 0.0
C963 C 0.0676 0.98854 0.23692 0.0
C964 C 0.05959 0.94668 0.23387 0.0
C965 C 0.06089 0.92478 0.20158 0.0
C966 C 0.08484 0.05307 0.20916 0.0
C967 C 0.05026 0.92444 0.26502 0.0
C968 C 0.08602 0.02927 0.32521 0.0
C969 C 0.07094 0.05762 0.33523 0.0
C970 C 0.08482 0.00573 0.2938 0.0
C971 C 0.06815 0.01071 0.27169 0.0
C972 C 0.05261 0.03837 0.28208 0.0
C973 C 0.05417 0.06145 0.31379 0.0
C974 C 0.10162 0.97623 0.28391 0.0
C975 C 0.03461 0.04457 0.25922 0.0
H976 H 0.0842 1.00084 0.15258 0.0
H977 H 0.05531 0.89223 0.1996 0.0
H978 H 0.07368 0.07584 0.21957 0.0
H979 H 0.09752 0.05332 0.22764 0.0
H980 H 0.09 0.06488 0.18314 0.0
H981 H 0.04351 0.89315 0.25774 0.0
H982 H 0.06159 0.91868 0.28556 0.0
H983 H 0.03871 0.94517 0.27686 0.0
H984 H 0.09885 0.02559 0.34198 0.0
H985 H 0.04253 0.0835 0.32127 0.0
H986 H 0.1087 0.98781 0.25933 0.0
H987 H 0.09596 0.9434 0.27868 0.0
H988 H 0.11305 0.97431 0.30481 0.0
H989 H 0.03899 0.05967 0.23394 0.0
H990 H 0.0233 0.06518 0.27201 0.0
H991 H 0.02784 0.01307 0.25286 0.0
C992 C 0.92344 0.98106 0.3285 0.0
C993 C 0.93749 0.94949 0.33672 0.0
C994 C 0.92419 0.00354 0.29651 0.0
C995 C 0.93935 0.9943 0.272 0.0
C996 C 0.95383 0.96312 0.28039 0.0
C997 C 0.9527 0.941 0.31262 0.0
C998 C 0.90843 0.03648 0.28857 0.0
C999 C 0.97031 0.95261 0.25507 0.0
C1000 C 0.92719 0.02051 0.17679 0.0
C1001 C 0.9363 0.06064 0.17237 0.0
C1002 C 0.92858 0.99802 0.20873 0.0
C1003 C 0.93939 0.01599 0.23701 0.0
C1004 C 0.94919 0.05578 0.23238 0.0
C1005 C 0.94752 0.07765 0.20012 0.0
C1006 C 0.91801 0.95554 0.21249 0.0
C1007 C 0.9609 0.07594 0.26187 0.0
H1008 H 0.91148 0.98739 0.3467 0.0
H1009 H 0.96373 0.91702 0.31896 0.0
H1010 H 0.91531 0.06779 0.28192 0.0
H1011 H 0.89972 0.02613 0.26534 0.0
H1012 H 0.89818 0.04128 0.31104 0.0
H1013 H 0.98084 0.92881 0.26611 0.0
H1014 H 0.96407 0.93948 0.23032 0.0
H1015 H 0.97855 0.98222 0.24811 0.0
H1016 H 0.91881 0.00674 0.15528 0.0
H1017 H 0.95448 0.10878 0.19706 0.0
H1018 H 0.90633 0.95825 0.23284 0.0
H1019 H 0.92847 0.93035 0.22138 0.0
H1020 H 0.91108 0.94492 0.18746 0.0
H1021 H 0.95087 0.08434 0.2839 0.0
H1022 H 0.96874 0.1055 0.25332 0.0
H1023 H 0.9719 0.05277 0.27224 0.0
C1024 C 0.94743 0.96023 0.68465 0.0
C1025 C 0.92991 0.9388 0.67562 0.0
C1026 C 0.94902 0.98333 0.71632 0.0
C1027 C 0.93265 0.98531 0.73944 0.0
C1028 C 0.91505 0.9632 0.73077 0.0
C1029 C 0.91393 0.94012 0.69912 0.0
C1030 C 0.96808 0.00626 0.72474 0.0
C1031 C 0.89725 0.96446 0.75471 0.0
C1032 C 0.93857 0.01751 0.83549 0.0
C1033 C 0.93213 0.06039 0.83497 0.0
C1034 C 0.93939 0.99302 0.80444 0.0
C1035 C 0.93354 0.01174 0.77211 0.0
C1036 C 0.9275 0.05527 0.77127 0.0
C1037 C 0.92694 0.07906 0.80263 0.0
C1038 C 0.946 0.94676 0.8064 0.0
C1039 C 0.92116 0.07647 0.73734 0.0
H1040 H 0.9598 0.95977 0.66657 0.0
H1041 H 0.90047 0.92296 0.69279 0.0
H1042 H 0.96548 0.04143 0.72574 0.0
H1043 H 0.97354 0.99634 0.75104 0.0
H1044 H 0.97977 0.99967 0.70496 0.0
H1045 H 0.88483 0.94476 0.74453 0.0
H1046 H 0.90127 0.95259 0.78129 0.0
H1047 H 0.89209 0.99809 0.75772 0.0
H1048 H 0.94244 1.00266 0.86035 0.0
H1049 H 0.92232 0.11238 0.80183 0.0
H1050 H 0.95796 0.94073 0.78709 0.0
H1051 H 0.93353 0.92529 0.79942 0.0
H1052 H 0.95137 0.93789 0.83305 0.0
H1053 H 0.93298 0.07352 0.71729 0.0
H1054 H 0.91762 0.11104 0.7409 0.0
H1055 H 0.90791 0.05997 0.72676 0.0
C1056 C 0.06709 0.99006 0.83387 0.0
C1057 C 0.07134 0.94594 0.83333 0.0
C1058 C 0.06606 0.01398 0.80252 0.0
C1059 C 0.06936 0.99329 0.76985 0.0
C1060 C 0.07312 0.94855 0.76908 0.0
C1061 C 0.07405 0.92546 0.80078 0.0
C1062 C 0.06205 0.06163 0.80445 0.0
C1063 C 0.07663 0.92523 0.7348 0.0
C1064 C 0.05399 0.04777 0.68433 0.0
C1065 C 0.07205 0.06428 0.6723 0.0
C1066 C 0.0528 0.02496 0.71622 0.0
C1067 C 0.07007 0.01872 0.73663 0.0
C1068 C 0.08826 0.03589 0.72485 0.0
C1069 C 0.08903 0.05838 0.69287 0.0
C1070 C 0.03315 0.00702 0.72783 0.0
C1071 C 0.10698 0.03024 0.74593 0.0
H1072 H 0.06515 0.00622 0.85889 0.0
H1073 H 0.07699 0.89124 0.80009 0.0
H1074 H 0.07516 0.07964 0.79503 0.0
H1075 H 0.04954 0.07024 0.78699 0.0
H1076 H 0.05856 0.07235 0.83164 0.0
H1077 H 0.07835 0.89003 0.73856 0.0
H1078 H 0.06418 0.93101 0.71644 0.0
H1079 H 0.09018 0.93784 0.72204 0.0
H1080 H 0.04085 0.05196 0.66844 0.0
H1081 H 0.10296 0.0717 0.68406 0.0
H1082 H 0.02943 0.01894 0.75453 0.0
H1083 H 0.03401 0.97147 0.72944 0.0
H1084 H 0.021 0.01582 0.70956 0.0
H1085 H 0.10497 0.0434 0.77282 0.0
H1086 H 0.11983 0.04644 0.73352 0.0
H1087 H 0.1104 0.99554 0.74872 0.0
C1088 C 0.46998 0.9389 0.02921 0.0
C1089 C 0.47545 0.90557 0.00634 0.0
C1090 C 0.48029 0.97807 0.02961 0.0
C1091 C 0.49652 0.98408 0.00663 0.0
C1092 C 0.5022 0.95048 0.98364 0.0
C1093 C 0.4916 0.91169 0.98375 0.0
C1094 C 0.47373 0.01315 0.05441 0.0
C1095 C 0.51947 0.95552 0.95886 0.0
C1096 C 0.51226 0.09794 0.98329 0.0
C1097 C 0.52858 0.10408 0.00547 0.0
C1098 C 0.50165 0.05917 0.98352 0.0
C1099 C 0.50749 0.02561 0.00645 0.0
C1100 C 0.52389 0.03163 0.029 0.0
C1101 C 0.53422 0.07077 0.02826 0.0
C1102 C 0.48418 0.0541 0.9592 0.0
C1103 C 0.53064 0.99658 0.05371 0.0
H1104 H 0.45737 0.93465 0.04643 0.0
H1105 H 0.4961 0.8859 0.96635 0.0
H1106 H 0.48607 0.02235 0.07205 0.0
H1107 H 0.46956 0.04221 0.03921 0.0
H1108 H 0.46095 0.00326 0.07085 0.0
H1109 H 0.52208 0.92625 0.94281 0.0
H1110 H 0.51685 0.983 0.94085 0.0
H1111 H 0.53306 0.96275 0.97402 0.0
H1112 H 0.50764 0.12371 0.96595 0.0
H1113 H 0.54696 0.07503 0.04516 0.0
H1114 H 0.47071 0.04691 0.97471 0.0
H1115 H 0.48665 0.02658 0.94118 0.0
H1116 H 0.48146 0.08335 0.94315 0.0
H1117 H 0.51843 0.98742 0.07166 0.0
H1118 H 0.54354 0.0065 0.06981 0.0
H1119 H 0.5347 0.9675 0.03846 0.0
C1120 C 0.53476 0.93784 0.47878 0.0
C1121 C 0.52797 0.9032 0.49917 0.0
C1122 C 0.52448 0.97703 0.4778 0.0
C1123 C 0.50709 0.98204 0.49805 0.0
C1124 C 0.50008 0.94725 0.51855 0.0
C1125 C 0.51051 0.90824 0.51867 0.0
C1126 C 0.53233 0.01325 0.45536 0.0
C1127 C 0.48167 0.95135 0.54068 0.0
C1128 C 0.49105 0.09497 0.52351 0.0
C1129 C 0.47544 0.10265 0.50003 0.0
C1130 C 0.50146 0.05595 0.52312 0.0
C1131 C 0.49637 0.0239 0.4983 0.0
C1132 C 0.48087 0.03161 0.47413 0.0
C1133 C 0.47052 0.0707 0.47543 0.0
C1134 C 0.51782 0.04888 0.5495 0.0
C1135 C 0.47511 0.99839 0.44706 0.0
H1136 H 0.54836 0.93466 0.46401 0.0
H1137 H 0.50488 0.88156 0.53399 0.0
H1138 H 0.52079 0.02427 0.43672 0.0
H1139 H 0.53624 0.04104 0.47225 0.0
H1140 H 0.5456 0.00368 0.44008 0.0
H1141 H 0.47818 0.92131 0.55521 0.0
H1142 H 0.48348 0.97779 0.56 0.0
H1143 H 0.46889 0.9597 0.52376 0.0
H1144 H 0.49527 0.11961 0.54218 0.0
H1145 H 0.45832 0.07588 0.45749 0.0
H1146 H 0.53191 0.04248 0.5356 0.0
H1147 H 0.51449 0.02024 0.56585 0.0
H1148 H 0.51991 0.07694 0.56717 0.0
H1149 H 0.48812 0.98952 0.43089 0.0
H1150 H 0.46323 0.00995 0.42928 0.0
H1151 H 0.46995 0.96874 0.46041 0.0
C1152 C 0.01091 0.59695 0.98653 0.0
C1153 C 0.02836 0.60269 0.00591 0.0
C1154 C 1.00075 0.55762 0.98695 0.0
C1155 C 0.00809 0.52316 0.00746 0.0
C1156 C 0.02553 0.52883 0.02744 0.0
C1157 C 0.03548 0.56843 0.02633 0.0
C1158 C 0.98221 0.55286 0.96524 0.0
C1159 C 0.03379 0.49291 0.04973 0.0
C1160 C 0.97233 0.43347 0.03138 0.0
C1161 C 0.9771 0.40178 0.00649 0.0
C1162 C 0.98244 0.47287 0.03229 0.0
C1163 C 0.99763 0.481 0.00758 0.0
C1164 C 0.00263 0.44911 0.98256 0.0
C1165 C 0.99237 0.40989 0.9824 0.0
C1166 C 0.97672 0.506 0.05946 0.0
C1167 C 0.01872 0.45655 0.95573 0.0
H1168 H 0.00508 0.62338 0.97114 0.0
H1169 H 0.04907 0.57226 0.04102 0.0
H1170 H 0.98409 0.5265 0.94588 0.0
H1171 H 0.96962 0.54407 0.98245 0.0
H1172 H 0.97841 0.58278 0.95079 0.0
H1173 H 0.04718 0.50285 0.0645 0.0
H1174 H 0.02251 0.48175 0.06881 0.0
H1175 H 0.03763 0.46511 0.0328 0.0
H1176 H 0.96039 0.42782 0.04979 0.0
H1177 H 0.99642 0.38542 0.96345 0.0
H1178 H 0.97133 0.5355 0.04619 0.0
H1179 H 0.9898 0.51518 0.07532 0.0
H1180 H 0.96501 0.4942 0.07752 0.0
H1181 H 0.01504 0.48489 0.93927 0.0
H1182 H 0.02091 0.4284 0.93819 0.0
H1183 H 0.03286 0.46365 0.96924 0.0
C1184 C 0.03434 0.43943 0.4802 0.0
C1185 C 0.02766 0.40505 0.50094 0.0
C1186 C 0.02429 0.47892 0.47979 0.0
C1187 C 0.00712 0.48421 0.50057 0.0
C1188 C 1.00025 0.4496 0.52145 0.0
C1189 C 0.0106 0.41049 0.52141 0.0
C1190 C 0.03214 0.51508 0.45728 0.0
C1191 C 0.98194 0.45388 0.54385 0.0
C1192 C 0.99101 0.59737 0.52526 0.0
C1193 C 0.9758 0.60515 0.50099 0.0
C1194 C 1.00134 0.55825 0.52535 0.0
C1195 C 0.99637 0.52602 0.50059 0.0
C1196 C 0.98109 0.53368 0.47596 0.0
C1197 C 0.97101 0.57311 0.47645 0.0
C1198 C 0.0176 0.5514 0.55196 0.0
C1199 C 0.97531 0.50008 0.44922 0.0
H1200 H 0.04764 0.43569 0.46467 0.0
H1201 H 0.00519 0.38393 0.53714 0.0
H1202 H 0.0207 0.52553 0.43824 0.0
H1203 H 0.03572 0.5432 0.47404 0.0
H1204 H 0.04559 0.5057 0.44244 0.0
H1205 H 0.97851 0.42391 0.5585 0.0
H1206 H 0.98385 0.48039 0.56306 0.0
H1207 H 0.96911 0.4622 0.52706 0.0
H1208 H 0.99499 0.62214 0.544 0.0
H1209 H 0.95911 0.57859 0.45792 0.0
H1210 H 0.03171 0.54468 0.53823 0.0
H1211 H 0.01418 0.52302 0.56855 0.0
H1212 H 0.01969 0.5797 0.56937 0.0
H1213 H 0.98824 0.49147 0.43276 0.0
H1214 H 0.96322 0.51117 0.43168 0.0
H1215 H 0.97044 0.47039 0.46285 0.0
loop_
_geom_bond_atom_site_label_1
_geom_bond_atom_site_label_2
_geom_bond_distance
_geom_bond_site_symmetry_2
_ccdc_geom_bond_type
Li0 N17 1.990 . S
Li0 O60 1.935 1_554 S
Li0 O61 1.970 . S
Li0 O62 1.961 . S
Li1 N25 1.990 . S
Li1 O60 1.969 1_554 S
Li1 O61 1.956 . S
Li1 O63 1.961 1_554 S
Li2 N47 1.990 . S
Li2 O60 1.981 . S
Li2 O62 1.956 1_556 S
Li2 O63 1.970 . S
Li3 N53 1.991 . S
Li3 O61 1.938 1_556 S
Li3 O62 1.969 1_556 S
Li3 O63 1.978 . S
C4 C6 1.349 1_556 S
C4 C7 1.355 . S
C4 O60 1.324 . S
N5 C8 1.314 . S
N5 C9 1.279 1_554 S
C6 C4 1.349 1_554 S
C6 C8 1.353 . S
C6 H64 0.929 . S
C7 C4 1.355 . S
C7 C9 1.358 . S
C7 H65 0.930 . S
C8 N5 1.314 . S
C8 C6 1.353 . S
C8 H66 0.930 . S
C9 N5 1.279 1_556 S
C9 C7 1.358 . S
C9 H67 0.930 . S
C10 C13 1.348 . S
C10 C14 1.356 . S
C10 O61 1.325 . S
C11 N12 1.279 . S
C11 C14 1.358 . S
C11 H68 0.930 . S
N12 C11 1.279 . S
N12 C15 1.314 . S
C13 C10 1.348 . S
C13 C15 1.353 . S
C13 H69 0.929 . S
C14 C10 1.356 . S
C14 C11 1.358 . S
C14 H70 0.930 . S
C15 N12 1.314 . S
C15 C13 1.353 . S
C15 H71 0.930 . S
C16 N17 1.314 . S
C16 C21 1.353 . S
C16 H22 0.930 . S
N17 Li0 1.990 . S
N17 C16 1.314 . S
N17 C19 1.279 . S
C18 C19 1.358 . S
C18 C20 1.356 . S
C18 H72 0.930 . S
C19 N17 1.279 . S
C19 C18 1.358 . S
C19 H23 0.930 . S
C20 C18 1.356 . S
C20 C21 1.348 . S
C21 C16 1.353 . S
C21 C20 1.348 . S
C21 H73 0.929 . S
H22 C16 0.930 . S
H23 C19 0.930 . S
C24 N25 1.314 1_556 S
C24 C26 1.353 . S
C24 H30 0.930 . S
N25 Li1 1.990 . S
N25 C24 1.314 1_554 S
N25 C28 1.279 . S
C26 C24 1.353 . S
C26 C29 1.345 1_556 S
C26 H74 0.929 . S
C27 C28 1.358 . S
C27 C29 1.359 . S
C27 H75 0.930 . S
C28 N25 1.279 . S
C28 C27 1.358 . S
C28 H31 0.930 . S
C29 C26 1.345 1_554 S
C29 C27 1.359 . S
H30 C24 0.930 . S
H31 C28 0.930 . S
C32 C34 1.346 1_554 S
C32 C35 1.357 . S
C32 O62 1.325 . S
N33 C36 1.314 . S
N33 C37 1.279 1_556 S
C34 C32 1.346 1_556 S
C34 C36 1.353 . S
C34 H76 0.929 . S
C35 C32 1.357 . S
C35 C37 1.358 . S
C35 H77 0.930 . S
C36 N33 1.314 . S
C36 C34 1.353 . S
C36 H78 0.930 . S
C37 N33 1.279 1_554 S
C37 C35 1.358 . S
C37 H79 0.930 . S
C38 C39 1.348 . S
C38 C40 1.356 . S
C38 O63 1.325 . S
C39 C38 1.348 . S
C39 C41 1.353 . S
C39 H80 0.929 . S
C40 C38 1.356 . S
C40 C42 1.358 . S
C40 H81 0.930 . S
C41 C39 1.353 . S
C41 N43 1.314 . S
C41 H82 0.930 . S
C42 C40 1.358 . S
C42 N43 1.279 . S
C42 H83 0.930 . S
N43 C41 1.314 . S
N43 C42 1.279 . S
C44 C46 1.353 . S
C44 N47 1.314 . S
C44 H50 0.930 . S
C45 N47 1.279 . S
C45 C48 1.358 . S
C45 H51 0.930 . S
C46 C44 1.353 . S
C46 C49 1.348 . S
C46 H84 0.929 . S
N47 Li2 1.990 . S
N47 C44 1.314 . S
N47 C45 1.279 . S
C48 C45 1.358 . S
C48 C49 1.356 . S
C48 H85 0.930 . S
C49 C46 1.348 . S
C49 C48 1.356 . S
H50 C44 0.930 . S
H51 C45 0.930 . S
C52 N53 1.314 1_554 S
C52 C54 1.353 . S
C52 H58 0.930 . S
N53 Li3 1.991 . S
N53 C52 1.314 1_556 S
N53 C56 1.279 . S
C54 C52 1.353 . S
C54 C57 1.345 . S
C54 H86 0.929 . S
C55 C56 1.358 . S
C55 C57 1.359 1_556 S
C55 H87 0.930 . S
C56 N53 1.279 . S
C56 C55 1.358 . S
C56 H59 0.930 . S
C57 C54 1.345 . S
C57 C55 1.359 1_554 S
H58 C52 0.930 . S
H59 C56 0.930 . S
O60 Li0 1.935 1_556 S
O60 Li1 1.969 1_556 S
O60 Li2 1.981 . S
O60 C4 1.324 . S
O61 Li0 1.970 . S
O61 Li1 1.956 . S
O61 Li3 1.938 1_554 S
O61 C10 1.325 . S
O62 Li0 1.961 . S
O62 Li2 1.956 1_554 S
O62 Li3 1.969 1_554 S
O62 C32 1.325 . S
O63 Li1 1.961 1_556 S
O63 Li2 1.970 . S
O63 Li3 1.978 . S
O63 C38 1.325 . S
H64 C6 0.929 . S
H65 C7 0.930 . S
H66 C8 0.930 . S
H67 C9 0.930 . S
H68 C11 0.930 . S
H69 C13 0.929 . S
H70 C14 0.930 . S
H71 C15 0.930 . S
H72 C18 0.930 . S
H73 C21 0.929 . S
H74 C26 0.929 . S
H75 C27 0.930 . S
H76 C34 0.929 . S
H77 C35 0.930 . S
H78 C36 0.930 . S
H79 C37 0.930 . S
H80 C39 0.929 . S
H81 C40 0.930 . S
H82 C41 0.930 . S
H83 C42 0.930 . S
H84 C46 0.929 . S
H85 C48 0.930 . S
H86 C54 0.929 . S
H87 C55 0.930 . S
Li88 N105 1.990 . S
Li88 O148 1.956 . S
Li88 O149 1.969 1_554 S
Li88 O150 1.961 1_554 S
Li89 N113 1.990 . S
Li89 O148 1.970 . S
Li89 O149 1.935 1_554 S
Li89 O151 1.961 . S
Li90 N135 1.991 . S
Li90 O148 1.938 1_556 S
Li90 O150 1.978 . S
Li90 O151 1.969 1_556 S
Li91 N141 1.990 . S
Li91 O149 1.981 . S
Li91 O150 1.970 . S
Li91 O151 1.956 1_556 S
C92 C94 1.348 . S
C92 C95 1.356 . S
C92 O148 1.325 . S
N93 C96 1.314 . S
N93 C97 1.279 . S
C94 C92 1.348 . S
C94 C96 1.353 . S
C94 H152 0.929 . S
C95 C92 1.356 . S
C95 C97 1.358 . S
C95 H153 0.930 . S
C96 N93 1.314 . S
C96 C94 1.353 . S
C96 H154 0.930 . S
C97 N93 1.279 . S
C97 C95 1.358 . S
C97 H155 0.930 . S
C98 C101 1.349 1_556 S
C98 C102 1.355 . S
C98 O149 1.324 . S
C99 N100 1.279 1_556 S
C99 C102 1.358 . S
C99 H156 0.930 . S
N100 C99 1.279 1_554 S
N100 C103 1.314 . S
C101 C98 1.349 1_554 S
C101 C103 1.353 . S
C101 H157 0.929 . S
C102 C98 1.355 . S
C102 C99 1.358 . S
C102 H158 0.930 . S
C103 N100 1.314 . S
C103 C101 1.353 . S
C103 H159 0.930 . S
C104 N105 1.314 1_556 S
C104 C109 1.353 . S
C104 H110 0.930 . S
N105 Li88 1.990 . S
N105 C104 1.314 1_554 S
N105 C107 1.279 . S
C106 C107 1.358 . S
C106 C108 1.359 . S
C106 H160 0.930 . S
C107 N105 1.279 . S
C107 C106 1.358 . S
C107 H111 0.930 . S
C108 C106 1.359 . S
C108 C109 1.345 1_554 S
C109 C104 1.353 . S
C109 C108 1.345 1_556 S
C109 H161 0.929 . S
H110 C104 0.930 . S
H111 C107 0.930 . S
C112 N113 1.314 . S
C112 C114 1.353 . S
C112 H118 0.930 . S
N113 Li89 1.990 . S
N113 C112 1.314 . S
N113 C116 1.279 . S
C114 C112 1.353 . S
C114 C117 1.348 . S
C114 H162 0.929 . S
C115 C116 1.358 . S
C115 C117 1.356 . S
C115 H163 0.930 . S
C116 N113 1.279 . S
C116 C115 1.358 . S
C116 H119 0.930 . S
C117 C114 1.348 . S
C117 C115 1.356 . S
H118 C112 0.930 . S
H119 C116 0.930 . S
C120 C122 1.348 . S
C120 C123 1.356 . S
C120 O150 1.325 . S
N121 C124 1.314 . S
N121 C125 1.279 . S
C122 C120 1.348 . S
C122 C124 1.353 . S
C122 H164 0.929 . S
C123 C120 1.356 . S
C123 C125 1.358 . S
C123 H165 0.930 . S
C124 N121 1.314 . S
C124 C122 1.353 . S
C124 H166 0.930 . S
C125 N121 1.279 . S
C125 C123 1.358 . S
C125 H167 0.930 . S
C126 C127 1.346 1_554 S
C126 C128 1.357 . S
C126 O151 1.325 . S
C127 C126 1.346 1_556 S
C127 C129 1.353 . S
C127 H168 0.929 . S
C128 C126 1.357 . S
C128 C130 1.358 . S
C128 H169 0.930 . S
C129 C127 1.353 . S
C129 N131 1.314 . S
C129 H170 0.930 . S
C130 C128 1.358 . S
C130 N131 1.279 1_554 S
C130 H171 0.930 . S
N131 C129 1.314 . S
N131 C130 1.279 1_556 S
C132 C134 1.353 . S
C132 N135 1.314 1_554 S
C132 H138 0.930 . S
C133 N135 1.279 . S
C133 C136 1.358 . S
C133 H139 0.930 . S
C134 C132 1.353 . S
C134 C137 1.345 . S
C134 H172 0.929 . S
N135 Li90 1.991 . S
N135 C132 1.314 1_556 S
N135 C133 1.279 . S
C136 C133 1.358 . S
C136 C137 1.359 1_556 S
C136 H173 0.930 . S
C137 C134 1.345 . S
C137 C136 1.359 1_554 S
H138 C132 0.930 . S
H139 C133 0.930 . S
C140 N141 1.314 . S
C140 C142 1.353 . S
C140 H146 0.930 . S
N141 Li91 1.990 . S
N141 C140 1.314 . S
N141 C144 1.279 . S
C142 C140 1.353 . S
C142 C145 1.348 . S
C142 H174 0.929 . S
C143 C144 1.358 . S
C143 C145 1.356 . S
C143 H175 0.930 . S
C144 N141 1.279 . S
C144 C143 1.358 . S
C144 H147 0.930 . S
C145 C142 1.348 . S
C145 C143 1.356 . S
H146 C140 0.930 . S
H147 C144 0.930 . S
O148 Li88 1.956 . S
O148 Li89 1.970 . S
O148 Li90 1.938 1_554 S
O148 C92 1.325 . S
O149 Li88 1.969 1_556 S
O149 Li89 1.935 1_556 S
O149 Li91 1.981 . S
O149 C98 1.324 . S
O150 Li88 1.961 1_556 S
O150 Li90 1.978 . S
O150 Li91 1.970 . S
O150 C120 1.325 . S
O151 Li89 1.961 . S
O151 Li90 1.969 1_554 S
O151 Li91 1.956 1_554 S
O151 C126 1.325 . S
H152 C94 0.929 . S
H153 C95 0.930 . S
H154 C96 0.930 . S
H155 C97 0.930 . S
H156 C99 0.930 . S
H157 C101 0.929 . S
H158 C102 0.930 . S
H159 C103 0.930 . S
H160 C106 0.930 . S
H161 C109 0.929 . S
H162 C114 0.929 . S
H163 C115 0.930 . S
H164 C122 0.929 . S
H165 C123 0.930 . S
H166 C124 0.930 . S
H167 C125 0.930 . S
H168 C127 0.929 . S
H169 C128 0.930 . S
H170 C129 0.930 . S
H171 C130 0.930 . S
H172 C134 0.929 . S
H173 C136 0.930 . S
H174 C142 0.929 . S
H175 C143 0.930 . S
Li176 N193 1.990 . S
Li176 O236 1.956 . S
Li176 O237 1.970 . S
Li176 O238 1.961 . S
Li177 N201 1.990 . S
Li177 O236 1.970 . S
Li177 O237 1.956 . S
Li177 O239 1.961 . S
Li178 N223 1.990 . S
Li178 O236 1.961 . S
Li178 O238 1.956 . S
Li178 O239 1.970 . S
Li179 N229 1.990 . S
Li179 O237 1.961 . S
Li179 O238 1.970 . S
Li179 O239 1.956 . S
C180 C182 1.348 . S
C180 C183 1.356 . S
C180 O236 1.325 . S
N181 C184 1.314 . S
N181 C185 1.279 . S
C182 C180 1.348 . S
C182 C184 1.353 . S
C182 H240 0.929 . S
C183 C180 1.356 . S
C183 C185 1.358 . S
C183 H241 0.930 . S
C184 N181 1.314 . S
C184 C182 1.353 . S
C184 H242 0.930 . S
C185 N181 1.279 . S
C185 C183 1.358 . S
C185 H243 0.930 . S
C186 C189 1.348 . S
C186 C190 1.356 . S
C186 O237 1.325 . S
C187 N188 1.279 . S
C187 C190 1.358 . S
C187 H244 0.930 . S
N188 C187 1.279 . S
N188 C191 1.314 . S
C189 C186 1.348 . S
C189 C191 1.353 . S
C189 H245 0.929 . S
C190 C186 1.356 . S
C190 C187 1.358 . S
C190 H246 0.930 . S
C191 N188 1.314 . S
C191 C189 1.353 . S
C191 H247 0.930 . S
C192 N193 1.314 . S
C192 C197 1.353 . S
C192 H198 0.930 . S
N193 Li176 1.990 . S
N193 C192 1.314 . S
N193 C195 1.279 . S
C194 C195 1.358 . S
C194 C196 1.356 . S
C194 H248 0.930 . S
C195 N193 1.279 . S
C195 C194 1.358 . S
C195 H199 0.930 . S
C196 C194 1.356 . S
C196 C197 1.348 . S
C197 C192 1.353 . S
C197 C196 1.348 . S
C197 H249 0.929 . S
H198 C192 0.930 . S
H199 C195 0.930 . S
C200 N201 1.314 . S
C200 C202 1.353 . S
C200 H206 0.930 . S
N201 Li177 1.990 . S
N201 C200 1.314 . S
N201 C204 1.279 . S
C202 C200 1.353 . S
C202 C205 1.348 . S
C202 H250 0.929 . S
C203 C204 1.358 . S
C203 C205 1.356 . S
C203 H251 0.930 . S
C204 N201 1.279 . S
C204 C203 1.358 . S
C204 H207 0.930 . S
C205 C202 1.348 . S
C205 C203 1.356 . S
H206 C200 0.930 . S
H207 C204 0.930 . S
C208 C210 1.348 . S
C208 C211 1.356 . S
C208 O238 1.325 . S
N209 C212 1.314 . S
N209 C213 1.279 . S
C210 C208 1.348 . S
C210 C212 1.353 . S
C210 H252 0.929 . S
C211 C208 1.356 . S
C211 C213 1.358 . S
C211 H253 0.930 . S
C212 N209 1.314 . S
C212 C210 1.353 . S
C212 H254 0.930 . S
C213 N209 1.279 . S
C213 C211 1.358 . S
C213 H255 0.930 . S
C214 C215 1.348 . S
C214 C216 1.356 . S
C214 O239 1.325 . S
C215 C214 1.348 . S
C215 C217 1.353 . S
C215 H256 0.929 . S
C216 C214 1.356 . S
C216 C218 1.358 . S
C216 H257 0.930 . S
C217 C215 1.353 . S
C217 N219 1.314 . S
C217 H258 0.930 . S
C218 C216 1.358 . S
C218 N219 1.279 . S
C218 H259 0.930 . S
N219 C217 1.314 . S
N219 C218 1.279 . S
C220 C222 1.353 . S
C220 N223 1.314 . S
C220 H226 0.930 . S
C221 N223 1.279 . S
C221 C224 1.358 . S
C221 H227 0.930 . S
C222 C220 1.353 . S
C222 C225 1.348 . S
C222 H260 0.929 . S
N223 Li178 1.990 . S
N223 C220 1.314 . S
N223 C221 1.279 . S
C224 C221 1.358 . S
C224 C225 1.356 . S
C224 H261 0.930 . S
C225 C222 1.348 . S
C225 C224 1.356 . S
H226 C220 0.930 . S
H227 C221 0.930 . S
C228 N229 1.314 . S
C228 C230 1.353 . S
C228 H234 0.930 . S
N229 Li179 1.990 . S
N229 C228 1.314 . S
N229 C232 1.279 . S
C230 C228 1.353 . S
C230 C233 1.348 . S
C230 H262 0.929 . S
C231 C232 1.358 . S
C231 C233 1.356 . S
C231 H263 0.930 . S
C232 N229 1.279 . S
C232 C231 1.358 . S
C232 H235 0.930 . S
C233 C230 1.348 . S
C233 C231 1.356 . S
H234 C228 0.930 . S
H235 C232 0.930 . S
O236 Li176 1.956 . S
O236 Li177 1.970 . S
O236 Li178 1.961 . S
O236 C180 1.325 . S
O237 Li176 1.970 . S
O237 Li177 1.956 . S
O237 Li179 1.961 . S
O237 C186 1.325 . S
O238 Li176 1.961 . S
O238 Li178 1.956 . S
O238 Li179 1.970 . S
O238 C208 1.325 . S
O239 Li177 1.961 . S
O239 Li178 1.970 . S
O239 Li179 1.956 . S
O239 C214 1.325 . S
H240 C182 0.929 . S
H241 C183 0.930 . S
H242 C184 0.930 . S
H243 C185 0.930 . S
H244 C187 0.930 . S
H245 C189 0.929 . S
H246 C190 0.930 . S
H247 C191 0.930 . S
H248 C194 0.930 . S
H249 C197 0.929 . S
H250 C202 0.929 . S
H251 C203 0.930 . S
H252 C210 0.929 . S
H253 C211 0.930 . S
H254 C212 0.930 . S
H255 C213 0.930 . S
H256 C215 0.929 . S
H257 C216 0.930 . S
H258 C217 0.930 . S
H259 C218 0.930 . S
H260 C222 0.929 . S
H261 C224 0.930 . S
H262 C230 0.929 . S
H263 C231 0.930 . S
Li264 N281 1.990 . S
Li264 O324 1.956 . S
Li264 O325 1.970 . S
Li264 O326 1.961 . S
Li265 N289 1.990 . S
Li265 O324 1.970 . S
Li265 O325 1.956 . S
Li265 O327 1.961 . S
Li266 N311 1.990 . S
Li266 O324 1.961 . S
Li266 O326 1.956 . S
Li266 O327 1.970 . S
Li267 N317 1.990 . S
Li267 O325 1.961 . S
Li267 O326 1.970 . S
Li267 O327 1.956 . S
C268 C270 1.348 . S
C268 C271 1.356 . S
C268 O324 1.325 . S
N269 C272 1.314 . S
N269 C273 1.279 . S
C270 C268 1.348 . S
C270 C272 1.353 . S
C270 H328 0.929 . S
C271 C268 1.356 . S
C271 C273 1.358 . S
C271 H329 0.930 . S
C272 N269 1.314 . S
C272 C270 1.353 . S
C272 H330 0.930 . S
C273 N269 1.279 . S
C273 C271 1.358 . S
C273 H331 0.930 . S
C274 C277 1.348 . S
C274 C278 1.356 . S
C274 O325 1.325 . S
C275 N276 1.279 . S
C275 C278 1.358 . S
C275 H332 0.930 . S
N276 C275 1.279 . S
N276 C279 1.314 . S
C277 C274 1.348 . S
C277 C279 1.353 . S
C277 H333 0.929 . S
C278 C274 1.356 . S
C278 C275 1.358 . S
C278 H334 0.930 . S
C279 N276 1.314 . S
C279 C277 1.353 . S
C279 H335 0.930 . S
C280 N281 1.314 . S
C280 C285 1.353 . S
C280 H286 0.930 . S
N281 Li264 1.990 . S
N281 C280 1.314 . S
N281 C283 1.279 . S
C282 C283 1.358 . S
C282 C284 1.356 . S
C282 H336 0.930 . S
C283 N281 1.279 . S
C283 C282 1.358 . S
C283 H287 0.930 . S
C284 C282 1.356 . S
C284 C285 1.348 . S
C285 C280 1.353 . S
C285 C284 1.348 . S
C285 H337 0.929 . S
H286 C280 0.930 . S
H287 C283 0.930 . S
C288 N289 1.314 . S
C288 C290 1.353 . S
C288 H294 0.930 . S
N289 Li265 1.990 . S
N289 C288 1.314 . S
N289 C292 1.279 . S
C290 C288 1.353 . S
C290 C293 1.348 . S
C290 H338 0.929 . S
C291 C292 1.358 . S
C291 C293 1.356 . S
C291 H339 0.930 . S
C292 N289 1.279 . S
C292 C291 1.358 . S
C292 H295 0.930 . S
C293 C290 1.348 . S
C293 C291 1.356 . S
H294 C288 0.930 . S
H295 C292 0.930 . S
C296 C298 1.348 . S
C296 C299 1.356 . S
C296 O326 1.325 . S
N297 C300 1.314 . S
N297 C301 1.279 . S
C298 C296 1.348 . S
C298 C300 1.353 . S
C298 H340 0.929 . S
C299 C296 1.356 . S
C299 C301 1.358 . S
C299 H341 0.930 . S
C300 N297 1.314 . S
C300 C298 1.353 . S
C300 H342 0.930 . S
C301 N297 1.279 . S
C301 C299 1.358 . S
C301 H343 0.930 . S
C302 C303 1.348 . S
C302 C304 1.356 . S
C302 O327 1.325 . S
C303 C302 1.348 . S
C303 C305 1.353 . S
C303 H344 0.929 . S
C304 C302 1.356 . S
C304 C306 1.358 . S
C304 H345 0.930 . S
C305 C303 1.353 . S
C305 N307 1.314 . S
C305 H346 0.930 . S
C306 C304 1.358 . S
C306 N307 1.279 . S
C306 H347 0.930 . S
N307 C305 1.314 . S
N307 C306 1.279 . S
C308 C310 1.353 . S
C308 N311 1.314 . S
C308 H314 0.930 . S
C309 N311 1.279 . S
C309 C312 1.358 . S
C309 H315 0.930 . S
C310 C308 1.353 . S
C310 C313 1.348 . S
C310 H348 0.929 . S
N311 Li266 1.990 . S
N311 C308 1.314 . S
N311 C309 1.279 . S
C312 C309 1.358 . S
C312 C313 1.356 . S
C312 H349 0.930 . S
C313 C310 1.348 . S
C313 C312 1.356 . S
H314 C308 0.930 . S
H315 C309 0.930 . S
C316 N317 1.314 . S
C316 C318 1.353 . S
C316 H322 0.930 . S
N317 Li267 1.990 . S
N317 C316 1.314 . S
N317 C320 1.279 . S
C318 C316 1.353 . S
C318 C321 1.348 . S
C318 H350 0.929 . S
C319 C320 1.358 . S
C319 C321 1.356 . S
C319 H351 0.930 . S
C320 N317 1.279 . S
C320 C319 1.358 . S
C320 H323 0.930 . S
C321 C318 1.348 . S
C321 C319 1.356 . S
H322 C316 0.930 . S
H323 C320 0.930 . S
O324 Li264 1.956 . S
O324 Li265 1.970 . S
O324 Li266 1.961 . S
O324 C268 1.325 . S
O325 Li264 1.970 . S
O325 Li265 1.956 . S
O325 Li267 1.961 . S
O325 C274 1.325 . S
O326 Li264 1.961 . S
O326 Li266 1.956 . S
O326 Li267 1.970 . S
O326 C296 1.325 . S
O327 Li265 1.961 . S
O327 Li266 1.970 . S
O327 Li267 1.956 . S
O327 C302 1.325 . S
H328 C270 0.929 . S
H329 C271 0.930 . S
H330 C272 0.930 . S
H331 C273 0.930 . S
H332 C275 0.930 . S
H333 C277 0.929 . S
H334 C278 0.930 . S
H335 C279 0.930 . S
H336 C282 0.930 . S
H337 C285 0.929 . S
H338 C290 0.929 . S
H339 C291 0.930 . S
H340 C298 0.929 . S
H341 C299 0.930 . S
H342 C300 0.930 . S
H343 C301 0.930 . S
H344 C303 0.929 . S
H345 C304 0.930 . S
H346 C305 0.930 . S
H347 C306 0.930 . S
H348 C310 0.929 . S
H349 C312 0.930 . S
H350 C318 0.929 . S
H351 C319 0.930 . S
Li352 N369 1.990 . S
Li352 O412 1.935 1_554 S
Li352 O413 1.970 . S
Li352 O414 1.961 . S
Li353 N377 1.990 . S
Li353 O412 1.969 1_554 S
Li353 O413 1.956 . S
Li353 O415 1.961 1_554 S
Li354 N399 1.990 . S
Li354 O412 1.981 . S
Li354 O414 1.956 1_556 S
Li354 O415 1.970 . S
Li355 N405 1.991 . S
Li355 O413 1.938 1_556 S
Li355 O414 1.969 1_556 S
Li355 O415 1.978 . S
C356 C358 1.349 1_556 S
C356 C359 1.355 . S
C356 O412 1.324 . S
N357 C360 1.314 . S
N357 C361 1.279 1_554 S
C358 C356 1.349 1_554 S
C358 C360 1.353 . S
C358 H416 0.929 . S
C359 C356 1.355 . S
C359 C361 1.358 . S
C359 H417 0.930 . S
C360 N357 1.314 . S
C360 C358 1.353 . S
C360 H418 0.930 . S
C361 N357 1.279 1_556 S
C361 C359 1.358 . S
C361 H419 0.930 . S
C362 C365 1.348 . S
C362 C366 1.356 . S
C362 O413 1.325 . S
C363 N364 1.279 . S
C363 C366 1.358 . S
C363 H420 0.930 . S
N364 C363 1.279 . S
N364 C367 1.314 . S
C365 C362 1.348 . S
C365 C367 1.353 . S
C365 H421 0.929 . S
C366 C362 1.356 . S
C366 C363 1.358 . S
C366 H422 0.930 . S
C367 N364 1.314 . S
C367 C365 1.353 . S
C367 H423 0.930 . S
C368 N369 1.314 . S
C368 C373 1.353 . S
C368 H374 0.930 . S
N369 Li352 1.990 . S
N369 C368 1.314 . S
N369 C371 1.279 . S
C370 C371 1.358 . S
C370 C372 1.356 . S
C370 H424 0.930 . S
C371 N369 1.279 . S
C371 C370 1.358 . S
C371 H375 0.930 . S
C372 C370 1.356 . S
C372 C373 1.348 . S
C373 C368 1.353 . S
C373 C372 1.348 . S
C373 H425 0.929 . S
H374 C368 0.930 . S
H375 C371 0.930 . S
C376 N377 1.314 1_556 S
C376 C378 1.353 . S
C376 H382 0.930 . S
N377 Li353 1.990 . S
N377 C376 1.314 1_554 S
N377 C380 1.279 . S
C378 C376 1.353 . S
C378 C381 1.345 1_556 S
C378 H426 0.929 . S
C379 C380 1.358 . S
C379 C381 1.359 . S
C379 H427 0.930 . S
C380 N377 1.279 . S
C380 C379 1.358 . S
C380 H383 0.930 . S
C381 C378 1.345 1_554 S
C381 C379 1.359 . S
H382 C376 0.930 . S
H383 C380 0.930 . S
C384 C386 1.346 1_554 S
C384 C387 1.357 . S
C384 O414 1.325 . S
N385 C388 1.314 . S
N385 C389 1.279 1_556 S
C386 C384 1.346 1_556 S
C386 C388 1.353 . S
C386 H428 0.929 . S
C387 C384 1.357 . S
C387 C389 1.358 . S
C387 H429 0.930 . S
C388 N385 1.314 . S
C388 C386 1.353 . S
C388 H430 0.930 1_455 S
C389 N385 1.279 1_554 S
C389 C387 1.358 . S
C389 H431 0.930 . S
C390 C391 1.348 . S
C390 C392 1.356 . S
C390 O415 1.325 . S
C391 C390 1.348 . S
C391 C393 1.353 . S
C391 H432 0.929 . S
C392 C390 1.356 . S
C392 C394 1.358 . S
C392 H433 0.930 . S
C393 C391 1.353 . S
C393 N395 1.314 . S
C393 H434 0.930 . S
C394 C392 1.358 . S
C394 N395 1.279 . S
C394 H435 0.930 . S
N395 C393 1.314 . S
N395 C394 1.279 . S
C396 C398 1.353 . S
C396 N399 1.314 . S
C396 H402 0.930 . S
C397 N399 1.279 . S
C397 C400 1.358 . S
C397 H403 0.930 . S
C398 C396 1.353 . S
C398 C401 1.348 . S
C398 H436 0.929 . S
N399 Li354 1.990 . S
N399 C396 1.314 . S
N399 C397 1.279 . S
C400 C397 1.358 . S
C400 C401 1.356 . S
C400 H437 0.930 . S
C401 C398 1.348 . S
C401 C400 1.356 . S
H402 C396 0.930 . S
H403 C397 0.930 . S
C404 N405 1.314 1_554 S
C404 C406 1.353 . S
C404 H410 0.930 . S
N405 Li355 1.991 . S
N405 C404 1.314 1_556 S
N405 C408 1.279 . S
C406 C404 1.353 . S
C406 C409 1.345 . S
C406 H438 0.929 . S
C407 C408 1.358 . S
C407 C409 1.359 1_556 S
C407 H439 0.930 . S
C408 N405 1.279 . S
C408 C407 1.358 . S
C408 H411 0.930 . S
C409 C406 1.345 . S
C409 C407 1.359 1_554 S
H410 C404 0.930 . S
H411 C408 0.930 . S
O412 Li352 1.935 1_556 S
O412 Li353 1.969 1_556 S
O412 Li354 1.981 . S
O412 C356 1.324 . S
O413 Li352 1.970 . S
O413 Li353 1.956 . S
O413 Li355 1.938 1_554 S
O413 C362 1.325 . S
O414 Li352 1.961 . S
O414 Li354 1.956 1_554 S
O414 Li355 1.969 1_554 S
O414 C384 1.325 . S
O415 Li353 1.961 1_556 S
O415 Li354 1.970 . S
O415 Li355 1.978 . S
O415 C390 1.325 . S
H416 C358 0.929 . S
H417 C359 0.930 . S
H418 C360 0.930 . S
H419 C361 0.930 . S
H420 C363 0.930 . S
H421 C365 0.929 . S
H422 C366 0.930 . S
H423 C367 0.930 . S
H424 C370 0.930 . S
H425 C373 0.929 . S
H426 C378 0.929 . S
H427 C379 0.930 . S
H428 C386 0.929 . S
H429 C387 0.930 . S
H430 C388 0.930 1_655 S
H431 C389 0.930 . S
H432 C391 0.929 . S
H433 C392 0.930 . S
H434 C393 0.930 . S
H435 C394 0.930 . S
H436 C398 0.929 . S
H437 C400 0.930 . S
H438 C406 0.929 . S
H439 C407 0.930 . S
Li440 N457 1.990 . S
Li440 O500 1.956 . S
Li440 O501 1.969 1_554 S
Li440 O502 1.961 1_554 S
Li441 N465 1.990 . S
Li441 O500 1.970 . S
Li441 O501 1.935 1_554 S
Li441 O503 1.961 . S
Li442 N487 1.991 . S
Li442 O500 1.938 1_556 S
Li442 O502 1.978 . S
Li442 O503 1.969 1_556 S
Li443 N493 1.990 . S
Li443 O501 1.981 . S
Li443 O502 1.970 . S
Li443 O503 1.956 1_556 S
C444 C446 1.348 . S
C444 C447 1.356 . S
C444 O500 1.325 . S
N445 C448 1.314 . S
N445 C449 1.279 . S
C446 C444 1.348 . S
C446 C448 1.353 . S
C446 H504 0.929 . S
C447 C444 1.356 . S
C447 C449 1.358 . S
C447 H505 0.930 . S
C448 N445 1.314 . S
C448 C446 1.353 . S
C448 H506 0.930 . S
C449 N445 1.279 . S
C449 C447 1.358 . S
C449 H507 0.930 . S
C450 C453 1.349 1_556 S
C450 C454 1.355 . S
C450 O501 1.324 . S
C451 N452 1.279 1_556 S
C451 C454 1.358 . S
C451 H508 0.930 . S
N452 C451 1.279 1_554 S
N452 C455 1.314 . S
C453 C450 1.349 1_554 S
C453 C455 1.353 . S
C453 H509 0.929 . S
C454 C450 1.355 . S
C454 C451 1.358 . S
C454 H510 0.930 . S
C455 N452 1.314 . S
C455 C453 1.353 . S
C455 H511 0.930 . S
C456 N457 1.314 1_556 S
C456 C461 1.353 . S
C456 H462 0.930 . S
N457 Li440 1.990 . S
N457 C456 1.314 1_554 S
N457 C459 1.279 . S
C458 C459 1.358 . S
C458 C460 1.359 . S
C458 H512 0.930 . S
C459 N457 1.279 . S
C459 C458 1.358 . S
C459 H463 0.930 . S
C460 C458 1.359 . S
C460 C461 1.345 1_554 S
C461 C456 1.353 . S
C461 C460 1.345 1_556 S
C461 H513 0.929 . S
H462 C456 0.930 . S
H463 C459 0.930 . S
C464 N465 1.314 . S
C464 C466 1.353 . S
C464 H470 0.930 . S
N465 Li441 1.990 . S
N465 C464 1.314 . S
N465 C468 1.279 . S
C466 C464 1.353 . S
C466 C469 1.348 . S
C466 H514 0.929 . S
C467 C468 1.358 . S
C467 C469 1.356 . S
C467 H515 0.930 . S
C468 N465 1.279 . S
C468 C467 1.358 . S
C468 H471 0.930 . S
C469 C466 1.348 . S
C469 C467 1.356 . S
H470 C464 0.930 . S
H471 C468 0.930 . S
C472 C474 1.348 . S
C472 C475 1.356 . S
C472 O502 1.325 . S
N473 C476 1.314 . S
N473 C477 1.279 . S
C474 C472 1.348 . S
C474 C476 1.353 . S
C474 H516 0.929 . S
C475 C472 1.356 . S
C475 C477 1.358 . S
C475 H517 0.930 . S
C476 N473 1.314 . S
C476 C474 1.353 . S
C476 H518 0.930 . S
C477 N473 1.279 . S
C477 C475 1.358 . S
C477 H519 0.930 . S
C478 C479 1.346 1_554 S
C478 C480 1.357 . S
C478 O503 1.325 . S
C479 C478 1.346 1_556 S
C479 C481 1.353 . S
C479 H520 0.929 . S
C480 C478 1.357 . S
C480 C482 1.358 . S
C480 H521 0.930 . S
C481 C479 1.353 . S
C481 N483 1.314 . S
C481 H522 0.930 1_655 S
C482 C480 1.358 . S
C482 N483 1.279 1_554 S
C482 H523 0.930 . S
N483 C481 1.314 . S
N483 C482 1.279 1_556 S
C484 C486 1.353 . S
C484 N487 1.314 1_554 S
C484 H490 0.930 . S
C485 N487 1.279 . S
C485 C488 1.358 . S
C485 H491 0.930 . S
C486 C484 1.353 . S
C486 C489 1.345 . S
C486 H524 0.929 . S
N487 Li442 1.991 . S
N487 C484 1.314 1_556 S
N487 C485 1.279 . S
C488 C485 1.358 . S
C488 C489 1.359 1_556 S
C488 H525 0.930 . S
C489 C486 1.345 . S
C489 C488 1.359 1_554 S
H490 C484 0.930 . S
H491 C485 0.930 . S
C492 N493 1.314 . S
C492 C494 1.353 . S
C492 H498 0.930 . S
N493 Li443 1.990 . S
N493 C492 1.314 . S
N493 C496 1.279 . S
C494 C492 1.353 . S
C494 C497 1.348 . S
C494 H526 0.929 . S
C495 C496 1.358 . S
C495 C497 1.356 . S
C495 H527 0.930 . S
C496 N493 1.279 . S
C496 C495 1.358 . S
C496 H499 0.930 . S
C497 C494 1.348 . S
C497 C495 1.356 . S
H498 C492 0.930 . S
H499 C496 0.930 . S
O500 Li440 1.956 . S
O500 Li441 1.970 . S
O500 Li442 1.938 1_554 S
O500 C444 1.325 . S
O501 Li440 1.969 1_556 S
O501 Li441 1.935 1_556 S
O501 Li443 1.981 . S
O501 C450 1.324 . S
O502 Li440 1.961 1_556 S
O502 Li442 1.978 . S
O502 Li443 1.970 . S
O502 C472 1.325 . S
O503 Li441 1.961 . S
O503 Li442 1.969 1_554 S
O503 Li443 1.956 1_554 S
O503 C478 1.325 . S
H504 C446 0.929 . S
H505 C447 0.930 . S
H506 C448 0.930 . S
H507 C449 0.930 . S
H508 C451 0.930 . S
H509 C453 0.929 . S
H510 C454 0.930 . S
H511 C455 0.930 . S
H512 C458 0.930 . S
H513 C461 0.929 . S
H514 C466 0.929 . S
H515 C467 0.930 . S
H516 C474 0.929 . S
H517 C475 0.930 . S
H518 C476 0.930 . S
H519 C477 0.930 . S
H520 C479 0.929 . S
H521 C480 0.930 . S
H522 C481 0.930 1_455 S
H523 C482 0.930 . S
H524 C486 0.929 . S
H525 C488 0.930 . S
H526 C494 0.929 . S
H527 C495 0.930 . S
Li528 N545 1.990 . S
Li528 O588 1.956 . S
Li528 O589 1.970 . S
Li528 O590 1.961 . S
Li529 N553 1.990 . S
Li529 O588 1.970 . S
Li529 O589 1.956 . S
Li529 O591 1.961 . S
Li530 N575 1.990 . S
Li530 O588 1.961 . S
Li530 O590 1.956 . S
Li530 O591 1.970 . S
Li531 N581 1.990 . S
Li531 O589 1.961 . S
Li531 O590 1.970 . S
Li531 O591 1.956 . S
C532 C534 1.348 . S
C532 C535 1.356 . S
C532 O588 1.325 . S
N533 C536 1.314 . S
N533 C537 1.279 . S
C534 C532 1.348 . S
C534 C536 1.353 . S
C534 H592 0.929 . S
C535 C532 1.356 . S
C535 C537 1.358 . S
C535 H593 0.930 . S
C536 N533 1.314 . S
C536 C534 1.353 . S
C536 H594 0.930 . S
C537 N533 1.279 . S
C537 C535 1.358 . S
C537 H595 0.930 . S
C538 C541 1.348 . S
C538 C542 1.356 . S
C538 O589 1.325 . S
C539 N540 1.279 . S
C539 C542 1.358 . S
C539 H596 0.930 . S
N540 C539 1.279 . S
N540 C543 1.314 . S
C541 C538 1.348 . S
C541 C543 1.353 . S
C541 H597 0.929 . S
C542 C538 1.356 . S
C542 C539 1.358 . S
C542 H598 0.930 . S
C543 N540 1.314 . S
C543 C541 1.353 . S
C543 H599 0.930 1_455 S
C544 N545 1.314 . S
C544 C549 1.353 . S
C544 H550 0.930 . S
N545 Li528 1.990 . S
N545 C544 1.314 . S
N545 C547 1.279 . S
C546 C547 1.358 . S
C546 C548 1.356 . S
C546 H600 0.930 . S
C547 N545 1.279 . S
C547 C546 1.358 . S
C547 H551 0.930 . S
C548 C546 1.356 . S
C548 C549 1.348 . S
C549 C544 1.353 . S
C549 C548 1.348 . S
C549 H601 0.929 . S
H550 C544 0.930 . S
H551 C547 0.930 . S
C552 N553 1.314 . S
C552 C554 1.353 . S
C552 H558 0.930 . S
N553 Li529 1.990 . S
N553 C552 1.314 . S
N553 C556 1.279 . S
C554 C552 1.353 . S
C554 C557 1.348 . S
C554 H602 0.929 . S
C555 C556 1.358 . S
C555 C557 1.356 . S
C555 H603 0.930 . S
C556 N553 1.279 . S
C556 C555 1.358 . S
C556 H559 0.930 . S
C557 C554 1.348 . S
C557 C555 1.356 . S
H558 C552 0.930 . S
H559 C556 0.930 . S
C560 C562 1.348 . S
C560 C563 1.356 . S
C560 O590 1.325 . S
N561 C564 1.314 . S
N561 C565 1.279 . S
C562 C560 1.348 . S
C562 C564 1.353 . S
C562 H604 0.929 . S
C563 C560 1.356 . S
C563 C565 1.358 . S
C563 H605 0.930 . S
C564 N561 1.314 . S
C564 C562 1.353 . S
C564 H606 0.930 . S
C565 N561 1.279 . S
C565 C563 1.358 . S
C565 H607 0.930 . S
C566 C567 1.348 . S
C566 C568 1.356 . S
C566 O591 1.325 . S
C567 C566 1.348 . S
C567 C569 1.353 . S
C567 H608 0.929 . S
C568 C566 1.356 . S
C568 C570 1.358 . S
C568 H609 0.930 . S
C569 C567 1.353 . S
C569 N571 1.314 . S
C569 H610 0.930 . S
C570 C568 1.358 . S
C570 N571 1.279 . S
C570 H611 0.930 . S
N571 C569 1.314 . S
N571 C570 1.279 . S
C572 C574 1.353 . S
C572 N575 1.314 . S
C572 H578 0.930 . S
C573 N575 1.279 . S
C573 C576 1.358 . S
C573 H579 0.930 . S
C574 C572 1.353 . S
C574 C577 1.348 . S
C574 H612 0.929 . S
N575 Li530 1.990 . S
N575 C572 1.314 . S
N575 C573 1.279 . S
C576 C573 1.358 . S
C576 C577 1.356 . S
C576 H613 0.930 . S
C577 C574 1.348 . S
C577 C576 1.356 . S
H578 C572 0.930 . S
H579 C573 0.930 . S
C580 N581 1.314 . S
C580 C582 1.353 . S
C580 H586 0.930 . S
N581 Li531 1.990 . S
N581 C580 1.314 . S
N581 C584 1.279 . S
C582 C580 1.353 . S
C582 C585 1.348 . S
C582 H614 0.929 . S
C583 C584 1.358 . S
C583 C585 1.356 . S
C583 H615 0.930 . S
C584 N581 1.279 . S
C584 C583 1.358 . S
C584 H587 0.930 . S
C585 C582 1.348 . S
C585 C583 1.356 . S
H586 C580 0.930 . S
H587 C584 0.930 . S
O588 Li528 1.956 . S
O588 Li529 1.970 . S
O588 Li530 1.961 . S
O588 C532 1.325 . S
O589 Li528 1.970 . S
O589 Li529 1.956 . S
O589 Li531 1.961 . S
O589 C538 1.325 . S
O590 Li528 1.961 . S
O590 Li530 1.956 . S
O590 Li531 1.970 . S
O590 C560 1.325 . S
O591 Li529 1.961 . S
O591 Li530 1.970 . S
O591 Li531 1.956 . S
O591 C566 1.325 . S
H592 C534 0.929 . S
H593 C535 0.930 . S
H594 C536 0.930 . S
H595 C537 0.930 . S
H596 C539 0.930 . S
H597 C541 0.929 . S
H598 C542 0.930 . S
H599 C543 0.930 1_655 S
H600 C546 0.930 . S
H601 C549 0.929 . S
H602 C554 0.929 . S
H603 C555 0.930 . S
H604 C562 0.929 . S
H605 C563 0.930 . S
H606 C564 0.930 . S
H607 C565 0.930 . S
H608 C567 0.929 . S
H609 C568 0.930 . S
H610 C569 0.930 . S
H611 C570 0.930 . S
H612 C574 0.929 . S
H613 C576 0.930 . S
H614 C582 0.929 . S
H615 C583 0.930 . S
Li616 N633 1.990 . S
Li616 O676 1.956 . S
Li616 O677 1.970 . S
Li616 O678 1.961 . S
Li617 N641 1.990 . S
Li617 O676 1.970 . S
Li617 O677 1.956 . S
Li617 O679 1.961 . S
Li618 N663 1.990 . S
Li618 O676 1.961 . S
Li618 O678 1.956 . S
Li618 O679 1.970 . S
Li619 N669 1.990 . S
Li619 O677 1.961 . S
Li619 O678 1.970 . S
Li619 O679 1.956 . S
C620 C622 1.348 . S
C620 C623 1.356 . S
C620 O676 1.325 . S
N621 C624 1.314 . S
N621 C625 1.279 . S
C622 C620 1.348 . S
C622 C624 1.353 . S
C622 H680 0.929 . S
C623 C620 1.356 . S
C623 C625 1.358 . S
C623 H681 0.930 . S
C624 N621 1.314 . S
C624 C622 1.353 . S
C624 H682 0.930 1_655 S
C625 N621 1.279 . S
C625 C623 1.358 . S
C625 H683 0.930 . S
C626 C629 1.348 . S
C626 C630 1.356 . S
C626 O677 1.325 . S
C627 N628 1.279 . S
C627 C630 1.358 . S
C627 H684 0.930 . S
N628 C627 1.279 . S
N628 C631 1.314 . S
C629 C626 1.348 . S
C629 C631 1.353 . S
C629 H685 0.929 . S
C630 C626 1.356 . S
C630 C627 1.358 . S
C630 H686 0.930 . S
C631 N628 1.314 . S
C631 C629 1.353 . S
C631 H687 0.930 . S
C632 N633 1.314 . S
C632 C637 1.353 . S
C632 H638 0.930 . S
N633 Li616 1.990 . S
N633 C632 1.314 . S
N633 C635 1.279 . S
C634 C635 1.358 . S
C634 C636 1.356 . S
C634 H688 0.930 . S
C635 N633 1.279 . S
C635 C634 1.358 . S
C635 H639 0.930 . S
C636 C634 1.356 . S
C636 C637 1.348 . S
C637 C632 1.353 . S
C637 C636 1.348 . S
C637 H689 0.929 . S
H638 C632 0.930 . S
H639 C635 0.930 . S
C640 N641 1.314 . S
C640 C642 1.353 . S
C640 H646 0.930 . S
N641 Li617 1.990 . S
N641 C640 1.314 . S
N641 C644 1.279 . S
C642 C640 1.353 . S
C642 C645 1.348 . S
C642 H690 0.929 . S
C643 C644 1.358 . S
C643 C645 1.356 . S
C643 H691 0.930 . S
C644 N641 1.279 . S
C644 C643 1.358 . S
C644 H647 0.930 . S
C645 C642 1.348 . S
C645 C643 1.356 . S
H646 C640 0.930 . S
H647 C644 0.930 . S
C648 C650 1.348 . S
C648 C651 1.356 . S
C648 O678 1.325 . S
N649 C652 1.314 . S
N649 C653 1.279 . S
C650 C648 1.348 . S
C650 C652 1.353 . S
C650 H692 0.929 . S
C651 C648 1.356 . S
C651 C653 1.358 . S
C651 H693 0.930 . S
C652 N649 1.314 . S
C652 C650 1.353 . S
C652 H694 0.930 . S
C653 N649 1.279 . S
C653 C651 1.358 . S
C653 H695 0.930 . S
C654 C655 1.348 . S
C654 C656 1.356 . S
C654 O679 1.325 . S
C655 C654 1.348 . S
C655 C657 1.353 . S
C655 H696 0.929 . S
C656 C654 1.356 . S
C656 C658 1.358 . S
C656 H697 0.930 . S
C657 C655 1.353 . S
C657 N659 1.314 . S
C657 H698 0.930 . S
C658 C656 1.358 . S
C658 N659 1.279 . S
C658 H699 0.930 . S
N659 C657 1.314 . S
N659 C658 1.279 . S
C660 C662 1.353 . S
C660 N663 1.314 . S
C660 H666 0.930 . S
C661 N663 1.279 . S
C661 C664 1.358 . S
C661 H667 0.930 . S
C662 C660 1.353 . S
C662 C665 1.348 . S
C662 H700 0.929 . S
N663 Li618 1.990 . S
N663 C660 1.314 . S
N663 C661 1.279 . S
C664 C661 1.358 . S
C664 C665 1.356 . S
C664 H701 0.930 . S
C665 C662 1.348 . S
C665 C664 1.356 . S
H666 C660 0.930 . S
H667 C661 0.930 . S
C668 N669 1.314 . S
C668 C670 1.353 . S
C668 H674 0.930 . S
N669 Li619 1.990 . S
N669 C668 1.314 . S
N669 C672 1.279 . S
C670 C668 1.353 . S
C670 C673 1.348 . S
C670 H702 0.929 . S
C671 C672 1.358 . S
C671 C673 1.356 . S
C671 H703 0.930 . S
C672 N669 1.279 . S
C672 C671 1.358 . S
C672 H675 0.930 . S
C673 C670 1.348 . S
C673 C671 1.356 . S
H674 C668 0.930 . S
H675 C672 0.930 . S
O676 Li616 1.956 . S
O676 Li617 1.970 . S
O676 Li618 1.961 . S
O676 C620 1.325 . S
O677 Li616 1.970 . S
O677 Li617 1.956 . S
O677 Li619 1.961 . S
O677 C626 1.325 . S
O678 Li616 1.961 . S
O678 Li618 1.956 . S
O678 Li619 1.970 . S
O678 C648 1.325 . S
O679 Li617 1.961 . S
O679 Li618 1.970 . S
O679 Li619 1.956 . S
O679 C654 1.325 . S
H680 C622 0.929 . S
H681 C623 0.930 . S
H682 C624 0.930 1_455 S
H683 C625 0.930 . S
H684 C627 0.930 . S
H685 C629 0.929 . S
H686 C630 0.930 . S
H687 C631 0.930 . S
H688 C634 0.930 . S
H689 C637 0.929 . S
H690 C642 0.929 . S
H691 C643 0.930 . S
H692 C650 0.929 . S
H693 C651 0.930 . S
H694 C652 0.930 . S
H695 C653 0.930 . S
H696 C655 0.929 . S
H697 C656 0.930 . S
H698 C657 0.930 . S
H699 C658 0.930 . S
H700 C662 0.929 . S
H701 C664 0.930 . S
H702 C670 0.929 . S
H703 C671 0.930 . S
C704 C705 1.391 . S
C704 C706 1.394 . S
C704 H720 0.931 . S
C705 C704 1.391 . S
C705 C709 1.376 1_554 S
C706 C704 1.394 . S
C706 C707 1.369 . S
C706 C710 1.531 . S
C707 C706 1.369 . S
C707 C708 1.410 1_554 S
C707 C715 1.503 . S
C708 C707 1.410 1_556 S
C708 C709 1.392 . S
C708 C711 1.511 . S
C709 C705 1.376 1_556 S
C709 C708 1.392 . S
C709 H721 0.929 . S
C710 C706 1.531 . S
C710 H722 0.960 . S
C710 H723 0.962 . S
C710 H724 0.960 . S
C711 C708 1.511 . S
C711 H725 0.961 . S
C711 H726 0.961 . S
C711 H727 0.961 1_556 S
C712 C713 1.370 1_556 S
C712 C714 1.363 . S
C712 H728 0.931 . S
C713 C712 1.370 1_554 S
C713 C717 1.408 . S
C714 C712 1.363 . S
C714 C715 1.370 1_556 S
C714 C718 1.524 . S
C715 C707 1.503 . S
C715 C714 1.370 1_554 S
C715 C716 1.403 . S
C716 C715 1.403 . S
C716 C717 1.404 . S
C716 C719 1.539 . S
C717 C713 1.408 . S
C717 C716 1.404 . S
C717 H729 0.930 . S
C718 C714 1.524 . S
C718 H730 0.956 . S
C718 H731 0.961 . S
C718 H732 0.961 . S
C719 C716 1.539 . S
C719 H733 0.958 . S
C719 H734 0.961 . S
C719 H735 0.960 . S
H720 C704 0.931 . S
H721 C709 0.929 . S
H722 C710 0.960 . S
H723 C710 0.962 . S
H724 C710 0.960 . S
H725 C711 0.961 . S
H726 C711 0.961 . S
H727 C711 0.961 1_554 S
H728 C712 0.931 . S
H729 C717 0.930 . S
H730 C718 0.956 . S
H731 C718 0.961 . S
H732 C718 0.961 . S
H733 C719 0.958 . S
H734 C719 0.961 . S
H735 C719 0.960 . S
C736 C737 1.364 1_556 S
C736 C738 1.394 . S
C736 H752 0.931 . S
C737 C736 1.364 1_554 S
C737 C741 1.404 . S
C738 C736 1.394 . S
C738 C739 1.369 1_556 S
C738 C742 1.531 . S
C739 C738 1.369 1_554 S
C739 C740 1.410 . S
C739 C747 1.503 . S
C740 C739 1.410 . S
C740 C741 1.392 . S
C740 C743 1.511 . S
C741 C737 1.404 . S
C741 C740 1.392 . S
C741 H753 0.929 . S
C742 C738 1.531 . S
C742 H754 0.960 . S
C742 H755 0.962 . S
C742 H756 0.960 . S
C743 C740 1.511 . S
C743 H757 0.961 . S
C743 H758 0.961 . S
C743 H759 0.961 . S
C744 C745 1.365 1_556 S
C744 C746 1.363 . S
C744 H760 0.931 . S
C745 C744 1.365 1_554 S
C745 C749 1.414 . S
C746 C744 1.363 . S
C746 C747 1.370 1_556 S
C746 C750 1.524 . S
C747 C739 1.503 . S
C747 C746 1.370 1_554 S
C747 C748 1.403 . S
C748 C747 1.403 . S
C748 C749 1.404 . S
C748 C751 1.539 . S
C749 C745 1.414 . S
C749 C748 1.404 . S
C749 H761 0.930 . S
C750 C746 1.524 . S
C750 H762 0.956 . S
C750 H763 0.961 . S
C750 H764 0.961 . S
C751 C748 1.539 . S
C751 H765 0.958 . S
C751 H766 0.961 . S
C751 H767 0.960 . S
H752 C736 0.931 . S
H753 C741 0.929 . S
H754 C742 0.960 . S
H755 C742 0.962 . S
H756 C742 0.960 . S
H757 C743 0.961 . S
H758 C743 0.961 . S
H759 C743 0.961 . S
H760 C744 0.931 . S
H761 C749 0.930 . S
H762 C750 0.956 . S
H763 C750 0.961 . S
H764 C750 0.961 . S
H765 C751 0.958 . S
H766 C751 0.961 . S
H767 C751 0.960 . S
C768 C769 1.391 . S
C768 C770 1.394 . S
C768 H784 0.931 . S
C769 C768 1.391 . S
C769 C773 1.376 . S
C770 C768 1.394 . S
C770 C771 1.369 . S
C770 C774 1.531 . S
C771 C770 1.369 . S
C771 C772 1.410 . S
C771 C779 1.503 . S
C772 C771 1.410 . S
C772 C773 1.392 . S
C772 C775 1.511 . S
C773 C769 1.376 . S
C773 C772 1.392 . S
C773 H785 0.929 . S
C774 C770 1.531 . S
C774 H786 0.960 . S
C774 H787 0.962 . S
C774 H788 0.960 . S
C775 C772 1.511 . S
C775 H789 0.961 . S
C775 H790 0.961 . S
C775 H791 0.961 . S
C776 C777 1.370 . S
C776 C778 1.363 . S
C776 H792 0.931 . S
C777 C776 1.370 . S
C777 C781 1.408 . S
C778 C776 1.363 . S
C778 C779 1.370 . S
C778 C782 1.524 . S
C779 C771 1.503 . S
C779 C778 1.370 . S
C779 C780 1.403 . S
C780 C779 1.403 . S
C780 C781 1.404 . S
C780 C783 1.539 . S
C781 C777 1.408 . S
C781 C780 1.404 . S
C781 H793 0.930 . S
C782 C778 1.524 . S
C782 H794 0.956 . S
C782 H795 0.961 . S
C782 H796 0.961 . S
C783 C780 1.539 . S
C783 H797 0.958 . S
C783 H798 0.961 . S
C783 H799 0.960 . S
H784 C768 0.931 . S
H785 C773 0.929 . S
H786 C774 0.960 . S
H787 C774 0.962 . S
H788 C774 0.960 . S
H789 C775 0.961 . S
H790 C775 0.961 . S
H791 C775 0.961 . S
H792 C776 0.931 . S
H793 C781 0.930 . S
H794 C782 0.956 . S
H795 C782 0.961 . S
H796 C782 0.961 . S
H797 C783 0.958 . S
H798 C783 0.961 . S
H799 C783 0.960 . S
C800 C801 1.391 . S
C800 C802 1.394 . S
C800 H816 0.931 . S
C801 C800 1.391 . S
C801 C805 1.376 . S
C802 C800 1.394 . S
C802 C803 1.369 . S
C802 C806 1.531 . S
C803 C802 1.369 . S
C803 C804 1.410 . S
C803 C811 1.503 . S
C804 C803 1.410 . S
C804 C805 1.392 . S
C804 C807 1.511 . S
C805 C801 1.376 . S
C805 C804 1.392 . S
C805 H817 0.929 . S
C806 C802 1.531 . S
C806 H818 0.960 . S
C806 H819 0.962 . S
C806 H820 0.960 . S
C807 C804 1.511 . S
C807 H821 0.961 . S
C807 H822 0.961 . S
C807 H823 0.961 . S
C808 C809 1.370 . S
C808 C810 1.363 . S
C808 H824 0.931 . S
C809 C808 1.370 . S
C809 C813 1.408 . S
C810 C808 1.363 . S
C810 C811 1.370 . S
C810 C814 1.524 . S
C811 C803 1.503 . S
C811 C810 1.370 . S
C811 C812 1.403 . S
C812 C811 1.403 . S
C812 C813 1.404 . S
C812 C815 1.539 . S
C813 C809 1.408 . S
C813 C812 1.404 . S
C813 H825 0.930 . S
C814 C810 1.524 . S
C814 H826 0.956 . S
C814 H827 0.961 . S
C814 H828 0.961 . S
C815 C812 1.539 . S
C815 H829 0.958 . S
C815 H830 0.961 . S
C815 H831 0.960 . S
H816 C800 0.931 . S
H817 C805 0.929 . S
H818 C806 0.960 . S
H819 C806 0.962 . S
H820 C806 0.960 . S
H821 C807 0.961 . S
H822 C807 0.961 . S
H823 C807 0.961 . S
H824 C808 0.931 . S
H825 C813 0.930 . S
H826 C814 0.956 . S
H827 C814 0.961 . S
H828 C814 0.961 . S
H829 C815 0.958 . S
H830 C815 0.961 . S
H831 C815 0.960 . S
C832 C833 1.391 . S
C832 C834 1.394 . S
C832 H848 0.931 . S
C833 C832 1.391 . S
C833 C837 1.376 . S
C834 C832 1.394 . S
C834 C835 1.369 . S
C834 C838 1.531 . S
C835 C834 1.369 . S
C835 C836 1.410 . S
C835 C843 1.503 . S
C836 C835 1.410 . S
C836 C837 1.392 . S
C836 C839 1.511 . S
C837 C833 1.376 . S
C837 C836 1.392 . S
C837 H849 0.929 . S
C838 C834 1.531 . S
C838 H850 0.960 . S
C838 H851 0.962 . S
C838 H852 0.960 . S
C839 C836 1.511 . S
C839 H853 0.961 . S
C839 H854 0.961 . S
C839 H855 0.961 . S
C840 C841 1.370 . S
C840 C842 1.363 . S
C840 H856 0.931 . S
C841 C840 1.370 . S
C841 C845 1.408 . S
C842 C840 1.363 . S
C842 C843 1.370 . S
C842 C846 1.524 . S
C843 C835 1.503 . S
C843 C842 1.370 . S
C843 C844 1.403 . S
C844 C843 1.403 . S
C844 C845 1.404 . S
C844 C847 1.539 . S
C845 C841 1.408 . S
C845 C844 1.404 . S
C845 H857 0.930 . S
C846 C842 1.524 . S
C846 H858 0.956 . S
C846 H859 0.961 . S
C846 H860 0.961 . S
C847 C844 1.539 . S
C847 H861 0.958 . S
C847 H862 0.961 . S
C847 H863 0.960 . S
H848 C832 0.931 . S
H849 C837 0.929 . S
H850 C838 0.960 . S
H851 C838 0.962 . S
H852 C838 0.960 . S
H853 C839 0.961 . S
H854 C839 0.961 . S
H855 C839 0.961 . S
H856 C840 0.931 . S
H857 C845 0.930 . S
H858 C846 0.956 . S
H859 C846 0.961 . S
H860 C846 0.961 . S
H861 C847 0.958 . S
H862 C847 0.961 . S
H863 C847 0.960 . S
C864 C865 1.391 . S
C864 C866 1.394 . S
C864 H880 0.931 . S
C865 C864 1.391 . S
C865 C869 1.376 . S
C866 C864 1.394 . S
C866 C867 1.369 . S
C866 C870 1.531 . S
C867 C866 1.369 . S
C867 C868 1.410 . S
C867 C875 1.503 . S
C868 C867 1.410 . S
C868 C869 1.392 . S
C868 C871 1.511 . S
C869 C865 1.376 . S
C869 C868 1.392 . S
C869 H881 0.929 . S
C870 C866 1.531 . S
C870 H882 0.960 . S
C870 H883 0.962 . S
C870 H884 0.960 . S
C871 C868 1.511 . S
C871 H885 0.961 . S
C871 H886 0.961 . S
C871 H887 0.961 . S
C872 C873 1.370 . S
C872 C874 1.363 . S
C872 H888 0.931 . S
C873 C872 1.370 . S
C873 C877 1.408 . S
C874 C872 1.363 . S
C874 C875 1.370 . S
C874 C878 1.524 . S
C875 C867 1.503 . S
C875 C874 1.370 . S
C875 C876 1.403 . S
C876 C875 1.403 . S
C876 C877 1.404 . S
C876 C879 1.539 . S
C877 C873 1.408 . S
C877 C876 1.404 . S
C877 H889 0.930 . S
C878 C874 1.524 . S
C878 H890 0.956 . S
C878 H891 0.961 . S
C878 H892 0.961 . S
C879 C876 1.539 . S
C879 H893 0.958 . S
C879 H894 0.961 . S
C879 H895 0.960 . S
H880 C864 0.931 . S
H881 C869 0.929 . S
H882 C870 0.960 . S
H883 C870 0.962 . S
H884 C870 0.960 . S
H885 C871 0.961 . S
H886 C871 0.961 . S
H887 C871 0.961 . S
H888 C872 0.931 . S
H889 C877 0.930 . S
H890 C878 0.956 . S
H891 C878 0.961 . S
H892 C878 0.961 . S
H893 C879 0.958 . S
H894 C879 0.961 . S
H895 C879 0.960 . S
C896 C897 1.391 . S
C896 C898 1.394 . S
C896 H912 0.931 . S
C897 C896 1.391 . S
C897 C901 1.376 . S
C898 C896 1.394 . S
C898 C899 1.369 . S
C898 C902 1.531 . S
C899 C898 1.369 . S
C899 C900 1.410 . S
C899 C907 1.503 . S
C900 C899 1.410 . S
C900 C901 1.392 . S
C900 C903 1.511 . S
C901 C897 1.376 . S
C901 C900 1.392 . S
C901 H913 0.929 . S
C902 C898 1.531 . S
C902 H914 0.960 . S
C902 H915 0.962 . S
C902 H916 0.960 . S
C903 C900 1.511 . S
C903 H917 0.961 . S
C903 H918 0.961 . S
C903 H919 0.961 . S
C904 C905 1.370 . S
C904 C906 1.363 . S
C904 H920 0.931 . S
C905 C904 1.370 . S
C905 C909 1.408 . S
C906 C904 1.363 . S
C906 C907 1.370 . S
C906 C910 1.524 . S
C907 C899 1.503 . S
C907 C906 1.370 . S
C907 C908 1.403 . S
C908 C907 1.403 . S
C908 C909 1.404 . S
C908 C911 1.539 . S
C909 C905 1.408 . S
C909 C908 1.404 . S
C909 H921 0.930 . S
C910 C906 1.524 . S
C910 H922 0.956 . S
C910 H923 0.961 . S
C910 H924 0.961 . S
C911 C908 1.539 . S
C911 H925 0.958 . S
C911 H926 0.961 . S
C911 H927 0.960 . S
H912 C896 0.931 . S
H913 C901 0.929 . S
H914 C902 0.960 . S
H915 C902 0.962 . S
H916 C902 0.960 . S
H917 C903 0.961 . S
H918 C903 0.961 . S
H919 C903 0.961 . S
H920 C904 0.931 . S
H921 C909 0.930 . S
H922 C910 0.956 . S
H923 C910 0.961 . S
H924 C910 0.961 . S
H925 C911 0.958 . S
H926 C911 0.961 . S
H927 C911 0.960 . S
C928 C929 1.391 . S
C928 C930 1.394 . S
C928 H944 0.931 . S
C929 C928 1.391 . S
C929 C933 1.376 . S
C930 C928 1.394 . S
C930 C931 1.369 . S
C930 C934 1.531 . S
C931 C930 1.369 . S
C931 C932 1.410 . S
C931 C939 1.503 . S
C932 C931 1.410 . S
C932 C933 1.392 . S
C932 C935 1.511 . S
C933 C929 1.376 . S
C933 C932 1.392 . S
C933 H945 0.929 . S
C934 C930 1.531 . S
C934 H946 0.960 . S
C934 H947 0.962 . S
C934 H948 0.960 . S
C935 C932 1.511 . S
C935 H949 0.961 . S
C935 H950 0.961 . S
C935 H951 0.961 . S
C936 C937 1.370 . S
C936 C938 1.363 . S
C936 H952 0.931 . S
C937 C936 1.370 . S
C937 C941 1.408 . S
C938 C936 1.363 . S
C938 C939 1.370 . S
C938 C942 1.524 . S
C939 C931 1.503 . S
C939 C938 1.370 . S
C939 C940 1.403 . S
C940 C939 1.403 . S
C940 C941 1.404 . S
C940 C943 1.539 . S
C941 C937 1.408 . S
C941 C940 1.404 . S
C941 H953 0.930 . S
C942 C938 1.524 . S
C942 H954 0.956 . S
C942 H955 0.961 . S
C942 H956 0.961 . S
C943 C940 1.539 . S
C943 H957 0.958 . S
C943 H958 0.961 . S
C943 H959 0.960 . S
H944 C928 0.931 . S
H945 C933 0.929 . S
H946 C934 0.960 . S
H947 C934 0.962 . S
H948 C934 0.960 . S
H949 C935 0.961 . S
H950 C935 0.961 . S
H951 C935 0.961 . S
H952 C936 0.931 . S
H953 C941 0.930 . S
H954 C942 0.956 . S
H955 C942 0.961 . S
H956 C942 0.961 . S
H957 C943 0.958 . S
H958 C943 0.961 . S
H959 C943 0.960 . S
C960 C961 1.391 . S
C960 C962 1.394 1_565 S
C960 H976 0.931 . S
C961 C960 1.391 . S
C961 C965 1.376 . S
C962 C960 1.394 1_545 S
C962 C963 1.369 1_545 S
C962 C966 1.531 . S
C963 C962 1.369 1_565 S
C963 C964 1.410 . S
C963 C971 1.503 1_565 S
C964 C963 1.410 . S
C964 C965 1.392 . S
C964 C967 1.511 . S
C965 C961 1.376 . S
C965 C964 1.392 . S
C965 H977 0.929 . S
C966 C962 1.531 . S
C966 H978 0.960 . S
C966 H979 0.962 . S
C966 H980 0.960 . S
C967 C964 1.511 . S
C967 H981 0.961 . S
C967 H982 0.961 . S
C967 H983 0.961 . S
C968 C969 1.370 . S
C968 C970 1.357 1_545 S
C968 H984 0.931 . S
C969 C968 1.370 . S
C969 C973 1.408 . S
C970 C968 1.357 1_565 S
C970 C971 1.365 1_565 S
C970 C974 1.535 . S
C971 C963 1.503 1_545 S
C971 C970 1.365 1_545 S
C971 C972 1.403 . S
C972 C971 1.403 . S
C972 C973 1.404 . S
C972 C975 1.539 . S
C973 C969 1.408 . S
C973 C972 1.404 . S
C973 H985 0.930 . S
C974 C970 1.535 . S
C974 H986 0.956 . S
C974 H987 0.961 . S
C974 H988 0.961 . S
C975 C972 1.539 . S
C975 H989 0.958 . S
C975 H990 0.961 . S
C975 H991 0.960 . S
H976 C960 0.931 . S
H977 C965 0.929 . S
H978 C966 0.960 . S
H979 C966 0.962 . S
H980 C966 0.960 . S
H981 C967 0.961 . S
H982 C967 0.961 . S
H983 C967 0.961 . S
H984 C968 0.931 . S
H985 C973 0.930 . S
H986 C974 0.956 . S
H987 C974 0.961 . S
H988 C974 0.961 . S
H989 C975 0.958 . S
H990 C975 0.961 . S
H991 C975 0.960 . S
C992 C993 1.391 . S
C992 C994 1.394 1_565 S
C992 H1008 0.931 . S
C993 C992 1.391 . S
C993 C997 1.376 . S
C994 C992 1.394 1_545 S
C994 C995 1.369 1_545 S
C994 C998 1.531 . S
C995 C994 1.369 1_565 S
C995 C996 1.410 . S
C995 C1003 1.503 1_565 S
C996 C995 1.410 . S
C996 C997 1.392 . S
C996 C999 1.511 . S
C997 C993 1.376 . S
C997 C996 1.392 . S
C997 H1009 0.929 . S
C998 C994 1.531 . S
C998 H1010 0.960 . S
C998 H1011 0.962 . S
C998 H1012 0.960 . S
C999 C996 1.511 . S
C999 H1013 0.961 . S
C999 H1014 0.961 . S
C999 H1015 0.961 . S
C1000 C1001 1.370 . S
C1000 C1002 1.363 1_545 S
C1000 H1016 0.931 1_545 S
C1001 C1000 1.370 . S
C1001 C1005 1.408 . S
C1002 C1000 1.363 1_565 S
C1002 C1003 1.370 1_565 S
C1002 C1006 1.524 . S
C1003 C995 1.503 1_545 S
C1003 C1002 1.370 1_545 S
C1003 C1004 1.403 . S
C1004 C1003 1.403 . S
C1004 C1005 1.404 . S
C1004 C1007 1.539 . S
C1005 C1001 1.408 . S
C1005 C1004 1.404 . S
C1005 H1017 0.930 . S
C1006 C1002 1.524 . S
C1006 H1018 0.956 . S
C1006 H1019 0.961 . S
C1006 H1020 0.961 . S
C1007 C1004 1.539 . S
C1007 H1021 0.958 . S
C1007 H1022 0.961 . S
C1007 H1023 0.960 . S
H1008 C992 0.931 . S
H1009 C997 0.929 . S
H1010 C998 0.960 . S
H1011 C998 0.962 . S
H1012 C998 0.960 . S
H1013 C999 0.961 . S
H1014 C999 0.961 . S
H1015 C999 0.961 . S
H1016 C1000 0.931 1_565 S
H1017 C1005 0.930 . S
H1018 C1006 0.956 . S
H1019 C1006 0.961 . S
H1020 C1006 0.961 . S
H1021 C1007 0.958 . S
H1022 C1007 0.961 . S
H1023 C1007 0.960 . S
C1024 C1025 1.391 . S
C1024 C1026 1.394 . S
C1024 H1040 0.931 . S
C1025 C1024 1.391 . S
C1025 C1029 1.376 . S
C1026 C1024 1.394 . S
C1026 C1027 1.369 . S
C1026 C1030 1.531 1_565 S
C1027 C1026 1.369 . S
C1027 C1028 1.410 . S
C1027 C1035 1.503 1_565 S
C1028 C1027 1.410 . S
C1028 C1029 1.392 . S
C1028 C1031 1.511 . S
C1029 C1025 1.376 . S
C1029 C1028 1.392 . S
C1029 H1041 0.929 . S
C1030 C1026 1.531 1_545 S
C1030 H1042 0.960 . S
C1030 H1043 0.962 1_545 S
C1030 H1044 0.960 . S
C1031 C1028 1.511 . S
C1031 H1045 0.961 . S
C1031 H1046 0.961 . S
C1031 H1047 0.961 1_565 S
C1032 C1033 1.370 . S
C1032 C1034 1.363 1_545 S
C1032 H1048 0.931 1_545 S
C1033 C1032 1.370 . S
C1033 C1037 1.408 . S
C1034 C1032 1.363 1_565 S
C1034 C1035 1.370 1_565 S
C1034 C1038 1.524 . S
C1035 C1027 1.503 1_545 S
C1035 C1034 1.370 1_545 S
C1035 C1036 1.403 . S
C1036 C1035 1.403 . S
C1036 C1037 1.404 . S
C1036 C1039 1.539 . S
C1037 C1033 1.408 . S
C1037 C1036 1.404 . S
C1037 H1049 0.930 . S
C1038 C1034 1.524 . S
C1038 H1050 0.956 . S
C1038 H1051 0.961 . S
C1038 H1052 0.961 . S
C1039 C1036 1.539 . S
C1039 H1053 0.958 . S
C1039 H1054 0.961 . S
C1039 H1055 0.960 . S
H1040 C1024 0.931 . S
H1041 C1029 0.929 . S
H1042 C1030 0.960 . S
H1043 C1030 0.962 1_565 S
H1044 C1030 0.960 . S
H1045 C1031 0.961 . S
H1046 C1031 0.961 . S
H1047 C1031 0.961 1_545 S
H1048 C1032 0.931 1_565 S
H1049 C1037 0.930 . S
H1050 C1038 0.956 . S
H1051 C1038 0.961 . S
H1052 C1038 0.961 . S
H1053 C1039 0.958 . S
H1054 C1039 0.961 . S
H1055 C1039 0.960 . S
C1056 C1057 1.391 . S
C1056 C1058 1.394 1_565 S
C1056 H1072 0.931 . S
C1057 C1056 1.391 . S
C1057 C1061 1.376 . S
C1058 C1056 1.394 1_545 S
C1058 C1059 1.369 1_545 S
C1058 C1062 1.531 . S
C1059 C1058 1.369 1_565 S
C1059 C1060 1.410 . S
C1059 C1067 1.503 1_565 S
C1060 C1059 1.410 . S
C1060 C1061 1.392 . S
C1060 C1063 1.511 . S
C1061 C1057 1.376 . S
C1061 C1060 1.392 . S
C1061 H1073 0.929 . S
C1062 C1058 1.531 . S
C1062 H1074 0.960 . S
C1062 H1075 0.962 . S
C1062 H1076 0.960 . S
C1063 C1060 1.511 . S
C1063 H1077 0.961 . S
C1063 H1078 0.961 . S
C1063 H1079 0.961 . S
C1064 C1065 1.370 . S
C1064 C1066 1.363 . S
C1064 H1080 0.931 . S
C1065 C1064 1.370 . S
C1065 C1069 1.408 . S
C1066 C1064 1.363 . S
C1066 C1067 1.371 . S
C1066 C1070 1.524 1_545 S
C1067 C1059 1.503 1_545 S
C1067 C1066 1.371 . S
C1067 C1068 1.403 . S
C1068 C1067 1.403 . S
C1068 C1069 1.404 . S
C1068 C1071 1.539 . S
C1069 C1065 1.408 . S
C1069 C1068 1.404 . S
C1069 H1081 0.930 . S
C1070 C1066 1.524 1_565 S
C1070 H1082 0.956 . S
C1070 H1083 0.961 . S
C1070 H1084 0.961 . S
C1071 C1068 1.539 . S
C1071 H1085 0.958 . S
C1071 H1086 0.961 . S
C1071 H1087 0.960 . S
H1072 C1056 0.931 . S
H1073 C1061 0.929 . S
H1074 C1062 0.960 . S
H1075 C1062 0.962 . S
H1076 C1062 0.960 . S
H1077 C1063 0.961 . S
H1078 C1063 0.961 . S
H1079 C1063 0.961 . S
H1080 C1064 0.931 . S
H1081 C1069 0.930 . S
H1082 C1070 0.956 . S
H1083 C1070 0.961 . S
H1084 C1070 0.961 . S
H1085 C1071 0.958 . S
H1086 C1071 0.961 . S
H1087 C1071 0.960 . S
C1088 C1089 1.391 . S
C1088 C1090 1.394 . S
C1088 H1104 0.931 . S
C1089 C1088 1.391 . S
C1089 C1093 1.376 1_554 S
C1090 C1088 1.394 . S
C1090 C1091 1.369 . S
C1090 C1094 1.531 . S
C1091 C1090 1.369 . S
C1091 C1092 1.410 1_554 S
C1091 C1099 1.503 1_565 S
C1092 C1091 1.410 1_556 S
C1092 C1093 1.392 . S
C1092 C1095 1.511 . S
C1093 C1089 1.376 1_556 S
C1093 C1092 1.392 . S
C1093 H1105 0.929 . S
C1094 C1090 1.531 . S
C1094 H1106 0.960 1_565 S
C1094 H1107 0.962 1_565 S
C1094 H1108 0.960 . S
C1095 C1092 1.511 . S
C1095 H1109 0.961 . S
C1095 H1110 0.961 . S
C1095 H1111 0.961 . S
C1096 C1097 1.360 1_556 S
C1096 C1098 1.363 . S
C1096 H1112 0.931 . S
C1097 C1096 1.360 1_554 S
C1097 C1101 1.421 . S
C1098 C1096 1.363 . S
C1098 C1099 1.370 1_556 S
C1098 C1102 1.524 . S
C1099 C1091 1.503 1_545 S
C1099 C1098 1.370 1_554 S
C1099 C1100 1.403 . S
C1100 C1099 1.403 . S
C1100 C1101 1.404 . S
C1100 C1103 1.539 1_545 S
C1101 C1097 1.421 . S
C1101 C1100 1.404 . S
C1101 H1113 0.930 . S
C1102 C1098 1.524 . S
C1102 H1114 0.956 . S
C1102 H1115 0.961 . S
C1102 H1116 0.961 . S
C1103 C1100 1.539 1_565 S
C1103 H1117 0.958 . S
C1103 H1118 0.961 1_565 S
C1103 H1119 0.960 . S
H1104 C1088 0.931 . S
H1105 C1093 0.929 . S
H1106 C1094 0.960 1_545 S
H1107 C1094 0.962 1_545 S
H1108 C1094 0.960 . S
H1109 C1095 0.961 . S
H1110 C1095 0.961 . S
H1111 C1095 0.961 . S
H1112 C1096 0.931 . S
H1113 C1101 0.930 . S
H1114 C1102 0.956 . S
H1115 C1102 0.961 . S
H1116 C1102 0.961 . S
H1117 C1103 0.958 . S
H1118 C1103 0.961 1_545 S
H1119 C1103 0.960 . S
C1120 C1121 1.391 . S
C1120 C1122 1.394 . S
C1120 H1136 0.931 . S
C1121 C1120 1.391 . S
C1121 C1125 1.376 . S
C1122 C1120 1.394 . S
C1122 C1123 1.369 . S
C1122 C1126 1.531 1_565 S
C1123 C1122 1.369 . S
C1123 C1124 1.410 . S
C1123 C1131 1.503 1_565 S
C1124 C1123 1.410 . S
C1124 C1125 1.392 . S
C1124 C1127 1.511 . S
C1125 C1121 1.376 . S
C1125 C1124 1.392 . S
C1125 H1137 0.929 . S
C1126 C1122 1.531 1_545 S
C1126 H1138 0.960 . S
C1126 H1139 0.962 . S
C1126 H1140 0.960 1_545 S
C1127 C1124 1.511 . S
C1127 H1141 0.961 . S
C1127 H1142 0.961 . S
C1127 H1143 0.961 . S
C1128 C1129 1.370 . S
C1128 C1130 1.363 . S
C1128 H1144 0.931 . S
C1129 C1128 1.370 . S
C1129 C1133 1.408 . S
C1130 C1128 1.363 . S
C1130 C1131 1.370 . S
C1130 C1134 1.524 . S
C1131 C1123 1.503 1_545 S
C1131 C1130 1.370 . S
C1131 C1132 1.403 . S
C1132 C1131 1.403 . S
C1132 C1133 1.404 . S
C1132 C1135 1.539 . S
C1133 C1129 1.408 . S
C1133 C1132 1.404 . S
C1133 H1145 0.930 . S
C1134 C1130 1.524 . S
C1134 H1146 0.956 . S
C1134 H1147 0.981 . S
C1134 H1148 0.961 . S
C1135 C1132 1.539 . S
C1135 H1149 0.958 . S
C1135 H1150 0.961 . S
C1135 H1151 0.960 1_545 S
H1136 C1120 0.931 . S
H1137 C1125 0.929 . S
H1138 C1126 0.960 . S
H1139 C1126 0.962 . S
H1140 C1126 0.960 1_565 S
H1141 C1127 0.961 . S
H1142 C1127 0.961 . S
H1143 C1127 0.961 . S
H1144 C1128 0.931 . S
H1145 C1133 0.930 . S
H1146 C1134 0.956 . S
H1147 C1134 0.981 . S
H1148 C1134 0.961 . S
H1149 C1135 0.958 . S
H1150 C1135 0.961 . S
H1151 C1135 0.960 1_565 S
C1152 C1153 1.391 . S
C1152 C1154 1.394 1_455 S
C1152 H1168 0.931 1_455 S
C1153 C1152 1.391 . S
C1153 C1157 1.376 1_556 S
C1154 C1152 1.394 1_655 S
C1154 C1155 1.369 1_655 S
C1154 C1158 1.531 . S
C1155 C1154 1.369 1_455 S
C1155 C1156 1.410 1_556 S
C1155 C1163 1.503 1_455 S
C1156 C1155 1.410 1_554 S
C1156 C1157 1.392 . S
C1156 C1159 1.511 . S
C1157 C1153 1.376 1_554 S
C1157 C1156 1.392 . S
C1157 H1169 0.929 . S
C1158 C1154 1.531 . S
C1158 H1170 0.960 . S
C1158 H1171 0.962 . S
C1158 H1172 0.960 . S
C1159 C1156 1.511 . S
C1159 H1173 0.961 . S
C1159 H1174 0.961 . S
C1159 H1175 0.961 . S
C1160 C1161 1.354 1_554 S
C1160 C1162 1.363 . S
C1160 H1176 0.931 . S
C1161 C1160 1.354 1_556 S
C1161 C1165 1.426 . S
C1162 C1160 1.363 . S
C1162 C1163 1.370 1_554 S
C1162 C1166 1.524 . S
C1163 C1155 1.503 1_655 S
C1163 C1162 1.370 1_556 S
C1163 C1164 1.403 1_655 S
C1164 C1163 1.403 1_455 S
C1164 C1165 1.404 1_455 S
C1164 C1167 1.539 . S
C1165 C1161 1.426 . S
C1165 C1164 1.404 1_655 S
C1165 H1177 0.930 . S
C1166 C1162 1.524 . S
C1166 H1178 0.956 . S
C1166 H1179 0.961 . S
C1166 H1180 0.961 . S
C1167 C1164 1.539 . S
C1167 H1181 0.958 . S
C1167 H1182 0.961 . S
C1167 H1183 0.960 . S
H1168 C1152 0.931 1_655 S
H1169 C1157 0.929 . S
H1170 C1158 0.960 . S
H1171 C1158 0.962 . S
H1172 C1158 0.960 . S
H1173 C1159 0.961 . S
H1174 C1159 0.961 . S
H1175 C1159 0.961 . S
H1176 C1160 0.931 . S
H1177 C1165 0.930 . S
H1178 C1166 0.956 . S
H1179 C1166 0.961 . S
H1180 C1166 0.961 . S
H1181 C1167 0.958 . S
H1182 C1167 0.961 . S
H1183 C1167 0.960 . S
C1184 C1185 1.391 . S
C1184 C1186 1.394 . S
C1184 H1200 0.931 . S
C1185 C1184 1.391 . S
C1185 C1189 1.382 . S
C1186 C1184 1.394 . S
C1186 C1187 1.369 . S
C1186 C1190 1.531 . S
C1187 C1186 1.369 . S
C1187 C1188 1.410 1_455 S
C1187 C1195 1.503 1_455 S
C1188 C1187 1.410 1_655 S
C1188 C1189 1.389 1_655 S
C1188 C1191 1.511 . S
C1189 C1185 1.382 . S
C1189 C1188 1.389 1_455 S
C1189 H1201 0.925 1_455 S
C1190 C1186 1.531 . S
C1190 H1202 0.960 . S
C1190 H1203 0.962 . S
C1190 H1204 0.960 . S
C1191 C1188 1.511 . S
C1191 H1205 0.961 . S
C1191 H1206 0.961 . S
C1191 H1207 0.961 . S
C1192 C1193 1.370 . S
C1192 C1194 1.349 1_655 S
C1192 H1208 0.949 . S
C1193 C1192 1.370 . S
C1193 C1197 1.408 . S
C1194 C1192 1.349 1_455 S
C1194 C1195 1.356 1_455 S
C1194 C1198 1.554 . S
C1195 C1187 1.503 1_655 S
C1195 C1194 1.356 1_655 S
C1195 C1196 1.403 . S
C1196 C1195 1.403 . S
C1196 C1197 1.404 . S
C1196 C1199 1.539 . S
C1197 C1193 1.408 . S
C1197 C1196 1.404 . S
C1197 H1209 0.930 . S
C1198 C1194 1.554 . S
C1198 H1210 0.956 . S
C1198 H1211 0.961 . S
C1198 H1212 0.961 . S
C1199 C1196 1.539 . S
C1199 H1213 0.958 . S
C1199 H1214 0.961 . S
C1199 H1215 0.960 . S
H1200 C1184 0.931 . S
H1201 C1189 0.925 1_655 S
H1202 C1190 0.960 . S
H1203 C1190 0.962 . S
H1204 C1190 0.960 . S
H1205 C1191 0.961 . S
H1206 C1191 0.961 . S
H1207 C1191 0.961 . S
H1208 C1192 0.949 . S
H1209 C1197 0.930 . S
H1210 C1198 0.956 . S
H1211 C1198 0.961 . S
H1212 C1198 0.961 . S
H1213 C1199 0.958 . S
H1214 C1199 0.961 . S
H1215 C1199 0.960 . S
C705 C460 1.571 . S
C713 C29 1.571 . S
C737 C381 1.558 . S
C745 C108 1.577 . S
C769 C673 1.560 . S
C777 C225 1.577 . S
C801 C577 1.578 . S
C809 C321 1.568 . S
C833 C20 1.348 . S
C841 C233 1.338 . S
C865 C117 1.321 . S
C873 C313 1.331 . S
C897 C145 1.322 . S
C905 C284 1.340 . S
C929 C49 1.336 . S
C937 C205 1.346 . S
C961 C372 1.348 . S
C969 C585 1.338 . S
C993 C665 1.346 . S
C1001 C469 1.337 . S
C1025 C636 1.339 . S
C1033 C497 1.337 . S
C1057 C401 1.330 . S
C1065 C557 1.336 . S
C1089 C137 1.611 . S
C1097 C57 1.595 . S
C1121 C196 1.605 . S
C1129 C293 1.598 . S
C1153 C409 1.589 1_556 S
C1161 C489 1.605 1_556 S
C1185 C548 1.607 . S
C1193 C645 1.597 . S
