# Generated by pormake.
# Topology wme, (6)-cn, num edge types: 1
# Building blocks:
#     Node 0, Type 0, BuildingBlock: BETDEL_clean_sbu_0, # of connection points: 6
#     Node 1, Type 0, BuildingBlock: BETDEL_clean_sbu_0, # of connection points: 6
#     Node 2, Type 0, BuildingBlock: BETDEL_clean_sbu_0, # of connection points: 6
#     Node 3, Type 0, BuildingBlock: BETDEL_clean_sbu_0, # of connection points: 6
#     Node 4, Type 0, BuildingBlock: BETDEL_clean_sbu_0, # of connection points: 6
#     Node 5, Type 0, BuildingBlock: BETDEL_clean_sbu_0, # of connection points: 6
#     Node 6, Type 0, BuildingBlock: BETDEL_clean_sbu_0, # of connection points: 6
#     Node 7, Type 0, BuildingBlock: BETDEL_clean_sbu_0, # of connection points: 6
#     Node 8, Type 0, BuildingBlock: BETDEL_clean_sbu_0, # of connection points: 6
#     Node 9, Type 0, BuildingBlock: BETDEL_clean_sbu_0, # of connection points: 6
#     Node 10, Type 0, BuildingBlock: BETDEL_clean_sbu_0, # of connection points: 6
#     Node 11, Type 0, BuildingBlock: BETDEL_clean_sbu_0, # of connection points: 6
#     Edge 12, Type (0, 0), BuildingBlock: XUDNAN_clean_linker_2, # of connection points: 2
#     Edge 13, Type (0, 0), BuildingBlock: XUDNAN_clean_linker_2, # of connection points: 2
#     Edge 14, Type (0, 0), BuildingBlock: XUDNAN_clean_linker_2, # of connection points: 2
#     Edge 15, Type (0, 0), BuildingBlock: XUDNAN_clean_linker_2, # of connection points: 2
#     Edge 16, Type (0, 0), BuildingBlock: XUDNAN_clean_linker_2, # of connection points: 2
#     Edge 17, Type (0, 0), BuildingBlock: XUDNAN_clean_linker_2, # of connection points: 2
#     Edge 18, Type (0, 0), BuildingBlock: XUDNAN_clean_linker_2, # of connection points: 2
#     Edge 19, Type (0, 0), BuildingBlock: XUDNAN_clean_linker_2, # of connection points: 2
#     Edge 20, Type (0, 0), BuildingBlock: XUDNAN_clean_linker_2, # of connection points: 2
#     Edge 21, Type (0, 0), BuildingBlock: XUDNAN_clean_linker_2, # of connection points: 2
#     Edge 22, Type (0, 0), BuildingBlock: XUDNAN_clean_linker_2, # of connection points: 2
#     Edge 23, Type (0, 0), BuildingBlock: XUDNAN_clean_linker_2, # of connection points: 2
#     Edge 24, Type (0, 0), BuildingBlock: XUDNAN_clean_linker_2, # of connection points: 2
#     Edge 25, Type (0, 0), BuildingBlock: XUDNAN_clean_linker_2, # of connection points: 2
#     Edge 26, Type (0, 0), BuildingBlock: XUDNAN_clean_linker_2, # of connection points: 2
#     Edge 27, Type (0, 0), BuildingBlock: XUDNAN_clean_linker_2, # of connection points: 2
#     Edge 28, Type (0, 0), BuildingBlock: XUDNAN_clean_linker_2, # of connection points: 2
#     Edge 29, Type (0, 0), BuildingBlock: XUDNAN_clean_linker_2, # of connection points: 2
#     Edge 30, Type (0, 0), BuildingBlock: XUDNAN_clean_linker_2, # of connection points: 2
#     Edge 31, Type (0, 0), BuildingBlock: XUDNAN_clean_linker_2, # of connection points: 2
#     Edge 32, Type (0, 0), BuildingBlock: XUDNAN_clean_linker_2, # of connection points: 2
#     Edge 33, Type (0, 0), BuildingBlock: XUDNAN_clean_linker_2, # of connection points: 2
#     Edge 34, Type (0, 0), BuildingBlock: XUDNAN_clean_linker_2, # of connection points: 2
#     Edge 35, Type (0, 0), BuildingBlock: XUDNAN_clean_linker_2, # of connection points: 2
#     Edge 36, Type (0, 0), BuildingBlock: XUDNAN_clean_linker_2, # of connection points: 2
#     Edge 37, Type (0, 0), BuildingBlock: XUDNAN_clean_linker_2, # of connection points: 2
#     Edge 38, Type (0, 0), BuildingBlock: XUDNAN_clean_linker_2, # of connection points: 2
#     Edge 39, Type (0, 0), BuildingBlock: XUDNAN_clean_linker_2, # of connection points: 2
#     Edge 40, Type (0, 0), BuildingBlock: XUDNAN_clean_linker_2, # of connection points: 2
#     Edge 41, Type (0, 0), BuildingBlock: XUDNAN_clean_linker_2, # of connection points: 2
#     Edge 42, Type (0, 0), BuildingBlock: XUDNAN_clean_linker_2, # of connection points: 2
#     Edge 43, Type (0, 0), BuildingBlock: XUDNAN_clean_linker_2, # of connection points: 2
#     Edge 44, Type (0, 0), BuildingBlock: XUDNAN_clean_linker_2, # of connection points: 2
#     Edge 45, Type (0, 0), BuildingBlock: XUDNAN_clean_linker_2, # of connection points: 2
#     Edge 46, Type (0, 0), BuildingBlock: XUDNAN_clean_linker_2, # of connection points: 2
#     Edge 47, Type (0, 0), BuildingBlock: XUDNAN_clean_linker_2, # of connection points: 2
# Relax obj value: 0.088
# Max RMSD: 0.169
# Mean RMSD: 0.169
data_MOF--net-wme--node1-BETDEL_clean_sbu_0--edge1-XUDNAN_clean_linker_2
_symmetry_space_group_name_H-M    P1
_symmetry_Int_Tables_number       1
_symmetry_cell_setting            triclinic
loop_
_symmetry_equiv_pos_as_xyz
'x, y, z'
_cell_length_a     32.659108
_cell_length_b     32.663664
_cell_length_c     52.546475
_cell_angle_alpha  89.982657
_cell_angle_beta   90.129564
_cell_angle_gamma 119.89566
loop_
_atom_site_label
_atom_site_type_symbol
_atom_site_fract_x
_atom_site_fract_y
_atom_site_fract_z
_atom_type_partial_charge
Dy0 Dy 0.19279 0.37318 0.13975 0.0
C1 C 0.2152 0.21013 0.13951 0.0
C2 C 0.16866 0.4395 0.15191 0.0
Dy3 Dy 0.21689 0.29425 0.14334 0.0
O4 O 0.158 0.4163 0.13049 0.0
O5 O 0.19257 0.42663 0.16632 0.0
O6 O 0.22897 0.39386 0.10141 0.0
O7 O 0.19511 0.32327 0.11283 0.0
C8 C 0.22059 0.35154 0.0958 0.0
C9 C 0.22427 0.33851 0.18737 0.0
O10 O 0.28817 0.35753 0.13354 0.0
O11 O 0.26916 0.41227 0.14921 0.0
O12 O 0.19693 0.22243 0.15775 0.0
O13 O 0.23604 0.24477 0.12341 0.0
O14 O 0.25186 0.32229 0.18083 0.0
O15 O 0.19242 0.32788 0.17072 0.0
O16 O 0.11922 0.3135 0.13943 0.0
O17 O 0.13705 0.25287 0.1399 0.0
C18 C 0.30064 0.40124 0.14098 0.0
C19 C 0.10624 0.2682 0.1391 0.0
Dy20 Dy 0.83789 0.20427 0.63271 0.0
C21 C 0.01664 0.22685 0.65562 0.0
C22 C 0.74721 0.18559 0.62555 0.0
Dy23 Dy 0.93281 0.22547 0.65184 0.0
O24 O 0.76815 0.16807 0.61222 0.0
O25 O 0.7763 0.21463 0.64242 0.0
O26 O 0.86054 0.20045 0.59174 0.0
O27 O 0.90965 0.24434 0.61807 0.0
C28 C 0.90517 0.22808 0.59617 0.0
C29 C 0.87376 0.21246 0.69001 0.0
O30 O 0.94583 0.29939 0.645 0.0
O31 O 0.86673 0.2778 0.64704 0.0
O32 O 1.00388 0.25066 0.67018 0.0
O33 O 0.98429 0.20352 0.63875 0.0
O34 O 0.91915 0.24022 0.69078 0.0
O35 O 0.8618 0.18877 0.66936 0.0
O36 O 0.82122 0.13092 0.63948 0.0
O37 O 0.89863 0.14814 0.6411 0.0
C38 C 0.91198 0.31046 0.64783 0.0
C39 C 0.85296 0.11743 0.63882 0.0
Dy40 Dy 0.63354 0.81673 0.1301 0.0
C41 C 0.77859 0.00591 0.14471 0.0
C42 C 0.5667 0.72294 0.12549 0.0
Dy43 Dy 0.70149 0.91702 0.14489 0.0
O44 O 0.56437 0.75262 0.14107 0.0
O45 O 0.60496 0.74481 0.11204 0.0
O46 O 0.66545 0.83453 0.08979 0.0
O47 O 0.66175 0.88478 0.11123 0.0
C48 C 0.6774 0.87882 0.09082 0.0
C49 C 0.65375 0.86554 0.18497 0.0
O50 O 0.63525 0.92255 0.14065 0.0
O51 O 0.58253 0.84179 0.13711 0.0
O52 O 0.76987 0.97382 0.16172 0.0
O53 O 0.74437 0.99006 0.12821 0.0
O54 O 0.66805 0.91025 0.18214 0.0
O55 O 0.66882 0.85056 0.16683 0.0
O56 O 0.69112 0.80796 0.14556 0.0
O57 O 0.7477 0.8842 0.13662 0.0
C58 C 0.59137 0.88586 0.13928 0.0
C59 C 0.73556 0.83997 0.14223 0.0
Dy60 Dy 0.82714 0.63755 0.63078 0.0
C61 C 0.78659 0.79031 0.64252 0.0
C62 C 0.86146 0.5769 0.63034 0.0
Dy63 Dy 0.79697 0.71299 0.64517 0.0
O64 O 0.87803 0.61503 0.61662 0.0
O65 O 0.82573 0.57159 0.64372 0.0
O66 O 0.8006 0.63722 0.59034 0.0
O67 O 0.8274 0.69752 0.61279 0.0
C68 C 0.80752 0.68 0.59199 0.0
C69 C 0.80138 0.66995 0.68783 0.0
O70 O 0.72664 0.64739 0.63533 0.0
O71 O 0.75101 0.59124 0.63745 0.0
O72 O 0.81706 0.78631 0.65658 0.0
O73 O 0.76012 0.7511 0.63019 0.0
O74 O 0.78811 0.70142 0.6874 0.0
O75 O 0.80931 0.6624 0.66525 0.0
O76 O 0.89395 0.69549 0.64649 0.0
O77 O 0.87672 0.75593 0.64159 0.0
C78 C 0.71755 0.60264 0.63553 0.0
C79 C 0.90715 0.74078 0.64581 0.0
Dy80 Dy 0.17728 0.81186 0.13678 0.0
C81 C 0.97745 0.74671 0.14022 0.0
C82 C 0.27228 0.84402 0.13778 0.0
Dy83 Dy 0.06846 0.76993 0.14899 0.0
O84 O 0.2411 0.80619 0.12593 0.0
O85 O 0.2515 0.86412 0.14902 0.0
O86 O 0.15771 0.81126 0.09476 0.0
O87 O 0.10995 0.76131 0.11988 0.0
C88 C 0.11485 0.77616 0.09754 0.0
C89 C 0.11952 0.80996 0.19126 0.0
O90 O 0.07465 0.70473 0.15219 0.0
O91 O 0.15686 0.74431 0.15761 0.0
O92 O 0.99121 0.72944 0.1586 0.0
O93 O 0.0131 0.77413 0.12592 0.0
O94 O 0.07378 0.78992 0.19025 0.0
O95 O 0.13464 0.80801 0.16943 0.0
O96 O 0.17425 0.87823 0.13639 0.0
O97 O 0.09255 0.84279 0.13382 0.0
C98 C 0.11456 0.70556 0.1585 0.0
C99 C 0.13536 0.88049 0.13294 0.0
Dy100 Dy 0.37572 0.18926 0.63491 0.0
C101 C 0.23743 0.99302 0.63417 0.0
C102 C 0.43944 0.28453 0.63371 0.0
Dy103 Dy 0.31044 0.08144 0.64363 0.0
O104 O 0.44778 0.2516 0.62591 0.0
O105 O 0.39649 0.26533 0.6421 0.0
O106 O 0.33682 0.17822 0.59695 0.0
O107 O 0.34761 0.12542 0.61154 0.0
C108 C 0.32866 0.13541 0.59381 0.0
C109 C 0.33719 0.12159 0.6896 0.0
O110 O 0.37989 0.08526 0.63541 0.0
O111 O 0.4276 0.1658 0.64377 0.0
O112 O 0.27508 1.00228 0.64725 0.0
O113 O 0.24108 0.03186 0.62546 0.0
O114 O 0.31021 0.07658 0.68587 0.0
O115 O 0.34941 0.14295 0.66837 0.0
O116 O 0.31639 0.18835 0.65525 0.0
O117 O 0.26176 0.11219 0.64348 0.0
C118 C 0.42202 0.12326 0.63953 0.0
C119 C 0.27242 0.15425 0.6525 0.0
Dy120 Dy 0.65427 0.82168 0.41261 0.0
C121 C 0.79313 0.76548 0.41603 0.0
C122 C 0.59016 0.85282 0.41128 0.0
Dy123 Dy 0.72023 0.78133 0.40559 0.0
O124 O 0.6302 0.87314 0.42326 0.0
O125 O 0.5848 0.81509 0.39994 0.0
O126 O 0.6763 0.83512 0.45423 0.0
O127 O 0.67357 0.77792 0.43564 0.0
C128 C 0.68524 0.8008 0.45604 0.0
C129 C 0.68725 0.79515 0.36175 0.0
O130 O 0.65194 0.71345 0.40886 0.0
O131 O 0.60397 0.7465 0.40188 0.0
O132 O 0.7799 0.7697 0.39329 0.0
O133 O 0.7652 0.76784 0.43267 0.0
O134 O 0.69959 0.7632 0.36485 0.0
O135 O 0.69838 0.82177 0.38118 0.0
O136 O 0.72069 0.88733 0.40261 0.0
O137 O 0.76765 0.85752 0.41634 0.0
C138 C 0.61008 0.70938 0.40405 0.0
C139 C 0.76165 0.89368 0.41079 0.0
Dy140 Dy 0.83309 0.63357 0.91221 0.0
C141 C 0.02064 0.78988 0.91339 0.0
C142 C 0.7388 0.57201 0.90603 0.0
Dy143 Dy 0.93456 0.71101 0.90679 0.0
O144 O 0.76069 0.58436 0.92773 0.0
O145 O 0.76841 0.59293 0.88762 0.0
O146 O 0.85201 0.61087 0.94879 0.0
O147 O 0.88723 0.68258 0.93896 0.0
C148 C 0.88538 0.65297 0.95504 0.0
C149 C 0.89497 0.66786 0.86283 0.0
O150 O 0.9416 0.64641 0.91425 0.0
O151 O 0.86697 0.59303 0.89927 0.0
O152 O 0.99441 0.78068 0.89325 0.0
O153 O 1.00036 0.75543 0.92952 0.0
O154 O 0.93903 0.68361 0.86862 0.0
O155 O 0.87481 0.67835 0.88019 0.0
O156 O 0.82084 0.69381 0.91739 0.0
O157 O 0.89784 0.7541 0.9105 0.0
C158 C 0.90991 0.60332 0.90632 0.0
C159 C 0.85256 0.73899 0.91532 0.0
Dy160 Dy 0.20217 0.82961 0.42276 0.0
C161 C 0.26125 0.02617 0.41726 0.0
C162 C 0.17539 0.7353 0.42337 0.0
Dy163 Dy 0.23859 0.93393 0.41306 0.0
O164 O 0.18395 0.7618 0.44332 0.0
O165 O 0.18201 0.76039 0.40303 0.0
O166 O 0.1788 0.84233 0.46149 0.0
O167 O 0.24098 0.8945 0.44527 0.0
C168 C 0.21454 0.88469 0.46423 0.0
C169 C 0.20063 0.87961 0.37136 0.0
O170 O 0.30866 0.93544 0.4138 0.0
O171 O 0.27885 0.8541 0.41809 0.0
O172 O 0.27719 0.00964 0.39963 0.0
O173 O 0.23561 0.99285 0.43324 0.0
O174 O 0.19864 0.91736 0.37643 0.0
O175 O 0.22522 0.87413 0.3882 0.0
O176 O 0.13567 0.82765 0.41174 0.0
O177 O 0.16302 0.90357 0.42593 0.0
C178 C 0.31451 0.89781 0.415 0.0
C179 C 0.1279 0.8616 0.4192 0.0
Dy180 Dy 0.37727 0.19473 0.92523 0.0
C181 C 0.23722 0.24857 0.90954 0.0
C182 C 0.44456 0.16749 0.92862 0.0
Dy183 Dy 0.30745 0.22659 0.90856 0.0
O184 O 0.40957 0.15518 0.94419 0.0
O185 O 0.44346 0.19563 0.91153 0.0
O186 O 0.35081 0.19007 0.96626 0.0
O187 O 0.35149 0.23898 0.94133 0.0
C188 C 0.33879 0.22212 0.96308 0.0
C189 C 0.32657 0.18125 0.87135 0.0
O190 O 0.37517 0.29646 0.90512 0.0
O191 O 0.42775 0.27148 0.91889 0.0
O192 O 0.26779 0.25994 0.89112 0.0
O193 O 0.24701 0.22784 0.92769 0.0
O194 O 0.2863 0.17954 0.87428 0.0
O195 O 0.35493 0.20866 0.88801 0.0
O196 O 0.31291 0.12674 0.91595 0.0
O197 O 0.26411 0.1556 0.9269 0.0
C198 C 0.41862 0.30452 0.91037 0.0
C199 C 0.27124 0.1198 0.92279 0.0
Dy200 Dy 0.19515 0.37851 0.41631 0.0
C201 C 0.01155 0.22375 0.41922 0.0
C202 C 0.28804 0.44596 0.41659 0.0
Dy203 Dy 0.0935 0.30407 0.40785 0.0
O204 O 0.26917 0.40817 0.43042 0.0
O205 O 0.2559 0.4479 0.40283 0.0
O206 O 0.1881 0.35624 0.45776 0.0
O207 O 0.13028 0.35136 0.43879 0.0
C208 C 0.14332 0.34154 0.45915 0.0
C209 C 0.13926 0.34162 0.36441 0.0
O210 O 0.08652 0.3692 0.41448 0.0
O211 O 0.16491 0.42427 0.4059 0.0
O212 O 0.01768 0.24919 0.39895 0.0
O213 O 0.04943 0.24295 0.43304 0.0
O214 O 0.09382 0.32369 0.36703 0.0
O215 O 0.15639 0.33314 0.38401 0.0
O216 O 0.20616 0.31979 0.40403 0.0
O217 O 0.13063 0.26074 0.41294 0.0
C218 C 0.12045 0.41335 0.40936 0.0
C219 C 0.17574 0.27493 0.40831 0.0
Dy220 Dy 0.82169 0.1877 0.91993 0.0
C221 C 0.77949 0.99613 0.91261 0.0
C222 C 0.85708 0.28333 0.9203 0.0
Dy223 Dy 0.79663 0.08702 0.91121 0.0
O224 O 0.82435 0.25368 0.90508 0.0
O225 O 0.87014 0.26069 0.93558 0.0
O226 O 0.78949 0.16677 0.95892 0.0
O227 O 0.82386 0.13311 0.94371 0.0
C228 C 0.79936 0.13322 0.9622 0.0
C229 C 0.81245 0.13638 0.86751 0.0
O230 O 0.72353 0.07928 0.91727 0.0
O231 O 0.74544 0.1586 0.91309 0.0
O232 O 0.80368 0.02725 0.89549 0.0
O233 O 0.76258 0.01393 0.92886 0.0
O234 O 0.82032 0.10166 0.87077 0.0
O235 O 0.79197 0.13985 0.88707 0.0
O236 O 0.88848 0.19558 0.9045 0.0
O237 O 0.87513 0.1238 0.91908 0.0
C238 C 0.71273 0.1137 0.91549 0.0
C239 C 0.90417 0.16663 0.91017 0.0
H240 H 0.21633 0.96759 0.13051 0.0
H241 H 0.06322 0.89923 0.12633 0.0
H242 H 0.06881 0.97691 0.12305 0.0
H243 H 0.23375 0.06079 0.16936 0.0
H244 H 0.28683 0.10516 0.1541 0.0
H245 H 0.27177 0.04418 0.153 0.0
H246 H 0.27544 0.04744 0.10374 0.0
H247 H 0.29073 0.10863 0.10468 0.0
H248 H 0.24037 0.06673 0.08643 0.0
H249 H 0.08934 0.06028 0.12565 0.0
H250 H 0.12433 0.14599 0.13245 0.0
H251 H 0.26452 0.16254 0.13329 0.0
C252 C 0.184 0.96888 0.12842 0.0
C253 C 0.13932 0.92715 0.12869 0.0
C254 C 0.09789 0.93052 0.12615 0.0
C255 C 0.10066 0.97455 0.12419 0.0
C256 C 0.14511 0.01492 0.12448 0.0
C257 C 0.18613 0.01265 0.12628 0.0
C258 C 0.22921 0.06172 0.12772 0.0
C259 C 0.257 0.06833 0.15252 0.0
C260 C 0.2608 0.07171 0.10424 0.0
C261 C 0.20578 0.09177 0.12752 0.0
C262 C 0.15722 0.06384 0.12538 0.0
C263 C 0.12731 0.08262 0.12679 0.0
C264 C 0.14744 0.13118 0.13074 0.0
C265 C 0.19691 0.16037 0.13307 0.0
C266 C 0.22664 0.14076 0.13103 0.0
H267 H 0.18434 0.11863 0.63111 0.0
H268 H 0.2777 0.21554 0.68875 0.0
H269 H 0.22081 0.24269 0.69693 0.0
H270 H 0.15055 0.19576 0.60499 0.0
H271 H 0.08996 0.15175 0.59884 0.0
H272 H 0.1349 0.13519 0.59946 0.0
H273 H 0.08862 0.07229 0.63402 0.0
H274 H 0.04311 0.08817 0.63325 0.0
H275 H 0.07162 0.08962 0.66291 0.0
H276 H 0.15742 0.26375 0.6968 0.0
H277 H 0.08898 0.27523 0.68917 0.0
H278 H 0.038 0.16685 0.63076 0.0
C279 C 0.19206 0.14462 0.64589 0.0
C280 C 0.23515 0.16493 0.65938 0.0
C281 C 0.24479 0.19967 0.67818 0.0
C282 C 0.21272 0.21525 0.68301 0.0
C283 C 0.17124 0.19579 0.66883 0.0
C284 C 0.16056 0.16101 0.65077 0.0
C285 C 0.11487 0.14829 0.6371 0.0
C286 C 0.1231 0.15837 0.6084 0.0
C287 C 0.07734 0.09653 0.64213 0.0
C288 C 0.10224 0.182 0.64997 0.0
C289 C 0.135 0.20876 0.66837 0.0
C290 C 0.13128 0.24283 0.68256 0.0
C291 C 0.09257 0.24929 0.67804 0.0
C292 C 0.05862 0.22209 0.65936 0.0
C293 C 0.0637 0.18828 0.64509 0.0
H294 H 0.8647 0.02658 0.16376 0.0
H295 H 0.79404 0.08525 0.11945 0.0
H296 H 0.87038 0.15906 0.11357 0.0
H297 H 0.95131 0.13419 0.19488 0.0
H298 H 0.99814 0.12037 0.19241 0.0
H299 H 0.93765 0.07347 0.1944 0.0
H300 H 0.94787 0.03764 0.15254 0.0
H301 H 1.0083 0.08461 0.15031 0.0
H302 H 0.96802 0.0737 0.12432 0.0
H303 H 0.95369 0.22659 0.11332 0.0
H304 H 0.03939 0.28206 0.11624 0.0
H305 H 0.05761 0.1772 0.15762 0.0
C306 C 0.86531 0.0553 0.15314 0.0
C307 C 0.82353 0.05081 0.1424 0.0
C308 C 0.82569 0.08841 0.12802 0.0
C309 C 0.86883 0.13032 0.12458 0.0
C310 C 0.90951 0.13356 0.13523 0.0
C311 C 0.90826 0.09692 0.149 0.0
C312 C 0.95748 0.10858 0.15729 0.0
C313 C 0.96136 0.10919 0.18648 0.0
C314 C 0.97121 0.07408 0.1454 0.0
C315 C 0.98655 0.15774 0.14627 0.0
C316 C 0.95805 0.17156 0.13384 0.0
C317 C 0.97639 0.21604 0.12285 0.0
C318 C 0.0251 0.24733 0.12466 0.0
C319 C 0.05514 0.23383 0.13704 0.0
C320 C 0.03556 0.18824 0.14779 0.0
H321 H 0.85561 0.87686 0.65736 0.0
H322 H 0.71962 0.80492 0.61926 0.0
H323 H 0.72268 0.88181 0.61332 0.0
H324 H 0.84 0.96316 0.69039 0.0
H325 H 0.90011 0.00978 0.68592 0.0
H326 H 0.88669 0.94926 0.68716 0.0
H327 H 0.92654 0.9589 0.64325 0.0
H328 H 0.94 0.01946 0.64186 0.0
H329 H 0.90703 0.97928 0.61646 0.0
H330 H 0.73949 0.96589 0.61354 0.0
H331 H 0.76994 0.05148 0.61766 0.0
H332 H 0.89755 0.06863 0.65338 0.0
C333 C 0.82632 0.87723 0.64787 0.0
C334 C 0.787 0.83514 0.63903 0.0
C335 C 0.74977 0.83694 0.62632 0.0
C336 C 0.75132 0.88034 0.62285 0.0
C337 C 0.79071 0.92129 0.63186 0.0
C338 C 0.82773 0.92011 0.64388 0.0
C339 C 0.8664 0.96906 0.65142 0.0
C340 C 0.87369 0.97303 0.68044 0.0
C341 C 0.91272 0.98245 0.6374 0.0
C342 C 0.84501 0.99812 0.64216 0.0
C343 C 0.80129 0.96986 0.63102 0.0
C344 C 0.77382 0.98838 0.62201 0.0
C345 C 0.79138 0.03699 0.62454 0.0
C346 C 0.83617 0.06661 0.63578 0.0
C347 C 0.86346 0.0469 0.64445 0.0
H348 H 0.95664 0.80503 0.11276 0.0
H349 H 0.90014 0.69427 0.16978 0.0
H350 H 0.83335 0.70834 0.17679 0.0
H351 H 0.93126 0.88345 0.14555 0.0
H352 H 0.91558 0.90516 0.11781 0.0
H353 H 0.95655 0.88364 0.11507 0.0
H354 H 0.9041 0.82377 0.08047 0.0
H355 H 0.86349 0.84585 0.08267 0.0
H356 H 0.84254 0.78376 0.08697 0.0
H357 H 0.77715 0.73794 0.18007 0.0
H358 H 0.728 0.77512 0.17628 0.0
H359 H 0.82074 0.86864 0.11752 0.0
C360 C 0.92944 0.78281 0.12618 0.0
C361 C 0.93309 0.74814 0.14059 0.0
C362 C 0.89757 0.72056 0.1584 0.0
C363 C 0.85979 0.72858 0.16262 0.0
C364 C 0.8583 0.76436 0.1489 0.0
C365 C 0.89171 0.79065 0.13078 0.0
C366 C 0.88258 0.82812 0.11937 0.0
C367 C 0.92396 0.87804 0.12478 0.0
C368 C 0.87256 0.81986 0.09067 0.0
C369 C 0.83876 0.81881 0.13397 0.0
C370 C 0.82573 0.78196 0.15096 0.0
C371 C 0.7867 0.7665 0.1667 0.0
C372 C 0.75912 0.78798 0.16442 0.0
C373 C 0.77052 0.82461 0.14653 0.0
C374 C 0.81154 0.84105 0.1315 0.0
H375 H 0.95704 0.83245 0.62799 0.0
H376 H 0.97339 0.72463 0.66748 0.0
H377 H 0.05977 0.7758 0.66668 0.0
H378 H 0.05612 0.86967 0.58662 0.0
H379 H 0.0739 0.93148 0.58776 0.0
H380 H 0.01276 0.88748 0.59213 0.0
H381 H 0.0116 0.92474 0.63547 0.0
H382 H 0.07244 0.96936 0.63099 0.0
H383 H 0.05502 0.93358 0.65934 0.0
H384 H 0.1443 0.83747 0.66117 0.0
H385 H 0.22181 0.90904 0.6539 0.0
H386 H 0.15153 0.97615 0.61698 0.0
C387 C 0.97881 0.82 0.63682 0.0
C388 C 0.95842 0.77453 0.6478 0.0
C389 C 0.98817 0.75925 0.65886 0.0
C390 C 0.03734 0.78799 0.65846 0.0
C391 C 0.05641 0.83198 0.64687 0.0
C392 C 0.02822 0.84822 0.63643 0.0
C393 C 0.05806 0.89695 0.62502 0.0
C394 C 0.0497 0.89633 0.59617 0.0
C395 C 0.04873 0.9333 0.63851 0.0
C396 C 0.10722 0.90542 0.63079 0.0
C397 C 0.10544 0.86742 0.64333 0.0
C398 C 0.14624 0.86745 0.65127 0.0
C399 C 0.19007 0.90805 0.64695 0.0
C400 C 0.19259 0.94779 0.63473 0.0
C401 C 0.15067 0.94596 0.62608 0.0
H402 H 0.05371 0.81613 0.3864 0.0
H403 H 0.09226 0.88136 0.46095 0.0
H404 H 1.00838 0.85535 0.46975 0.0
H405 H 0.96844 0.85343 0.37403 0.0
H406 H 0.92916 0.80094 0.35637 0.0
H407 H 0.99157 0.82157 0.35691 0.0
H408 H 0.97438 0.73975 0.37338 0.0
H409 H 0.9119 0.7191 0.37331 0.0
H410 H 0.94048 0.71613 0.40208 0.0
H411 H 0.9207 0.81952 0.47104 0.0
H412 H 0.83689 0.79172 0.46182 0.0
H413 H 0.85579 0.75726 0.38456 0.0
C414 C 0.04423 0.82481 0.40454 0.0
C415 C 0.07889 0.85015 0.4232 0.0
C416 C 0.06588 0.86186 0.44654 0.0
C417 C 0.01842 0.84689 0.45174 0.0
C418 C 0.9848 0.82124 0.43312 0.0
C419 C 0.99719 0.81147 0.40971 0.0
C420 C 0.95471 0.78729 0.3922 0.0
C421 C 0.96137 0.81763 0.36848 0.0
C422 C 0.9448 0.73761 0.38482 0.0
C423 C 0.91649 0.78492 0.40946 0.0
C424 C 0.93451 0.80359 0.43319 0.0
C425 C 0.9062 0.80509 0.4525 0.0
C426 C 0.85856 0.78886 0.44713 0.0
C427 C 0.84003 0.77236 0.42248 0.0
C428 C 0.86912 0.76948 0.40358 0.0
H429 H 0.09758 0.85072 0.88502 0.0
H430 H 0.02602 0.83645 0.95657 0.0
H431 H 0.08378 0.91914 0.96743 0.0
H432 H 0.21788 0.92632 0.91029 0.0
H433 H 0.23837 0.96107 0.88163 0.0
H434 H 0.19233 0.90013 0.87996 0.0
H435 H 0.13821 0.9252 0.85673 0.0
H436 H 0.18392 0.9862 0.85853 0.0
H437 H 0.12622 0.96804 0.87136 0.0
H438 H 0.14333 1.00513 0.96827 0.0
H439 H 0.20844 0.0871 0.96172 0.0
H440 H 0.24618 0.04443 0.89155 0.0
C441 C 0.09482 0.86503 0.90311 0.0
C442 C 0.05825 0.8374 0.92029 0.0
C443 C 0.05485 0.85698 0.94362 0.0
C444 C 0.08712 0.90394 0.9498 0.0
C445 C 0.12281 0.93055 0.93248 0.0
C446 C 0.12748 0.91169 0.90983 0.0
C447 C 0.16929 0.94808 0.8947 0.0
C448 C 0.20669 0.93299 0.89147 0.0
C449 C 0.15344 0.95742 0.8688 0.0
C450 C 0.18669 0.99043 0.91218 0.0
C451 C 0.15896 0.97969 0.9337 0.0
C452 C 0.16592 0.01383 0.95176 0.0
C453 C 0.20266 0.06017 0.94786 0.0
C454 C 0.23232 0.07142 0.92639 0.0
C455 C 0.22437 0.03618 0.90839 0.0
H456 H 0.14431 0.18935 0.433 0.0
H457 H 0.24781 0.28479 0.37864 0.0
H458 H 0.28324 0.23373 0.37658 0.0
H459 H 0.2242 0.16321 0.46727 0.0
H460 H 0.18139 0.10197 0.47263 0.0
H461 H 0.16229 0.14482 0.46935 0.0
H462 H 0.10605 0.09614 0.43256 0.0
H463 H 0.12448 0.05282 0.436 0.0
H464 H 0.12935 0.08038 0.40558 0.0
H465 H 0.30739 0.17227 0.37975 0.0
H466 H 0.31698 0.10272 0.38754 0.0
H467 H 0.20154 0.04907 0.44159 0.0
C468 C 0.17401 0.19903 0.42045 0.0
C469 C 0.19318 0.24099 0.40592 0.0
C470 C 0.23257 0.2529 0.39001 0.0
C471 C 0.25305 0.22415 0.3887 0.0
C472 C 0.23415 0.18365 0.40363 0.0
C473 C 0.1955 0.17092 0.41919 0.0
C474 C 0.1828 0.12579 0.43352 0.0
C475 C 0.18799 0.13449 0.46241 0.0
C476 C 0.1327 0.08645 0.42649 0.0
C477 C 0.22008 0.11516 0.42342 0.0
C478 C 0.24927 0.14896 0.40615 0.0
C479 C 0.28504 0.14574 0.39342 0.0
C480 C 0.29043 0.10632 0.39802 0.0
C481 C 0.26058 0.07101 0.41541 0.0
C482 C 0.22557 0.07606 0.42858 0.0
H483 H 0.15848 0.19584 0.93791 0.0
H484 H 0.21246 0.29691 0.876 0.0
H485 H 0.13282 0.28731 0.8699 0.0
H486 H 0.04987 0.11731 0.90809 0.0
H487 H 0.01561 0.10113 0.93695 0.0
H488 H 0.07748 0.11928 0.93817 0.0
H489 H 0.09205 0.18469 0.97077 0.0
H490 H 0.0301 0.16636 0.96993 0.0
H491 H 0.07352 0.22686 0.96323 0.0
H492 H 0.04722 0.26505 0.87001 0.0
H493 H 0.96156 0.23181 0.87576 0.0
H494 H 0.96181 0.14076 0.93585 0.0
C495 C 0.15379 0.21676 0.92343 0.0
C496 C 0.19171 0.24778 0.90764 0.0
C497 C 0.18395 0.27349 0.88845 0.0
C498 C 0.13886 0.26809 0.88483 0.0
C499 C 0.10196 0.23637 0.90036 0.0
C500 C 0.10891 0.21107 0.91926 0.0
C501 C 0.06286 0.17726 0.93237 0.0
C502 C 0.05076 0.1257 0.92866 0.0
C503 C 0.06476 0.18955 0.96076 0.0
C504 C 0.02875 0.1875 0.91793 0.0
C505 C 0.05219 0.22198 0.89969 0.0
C506 C 0.02856 0.23806 0.88421 0.0
C507 C 0.97987 0.21893 0.88764 0.0
C508 C 0.95501 0.1836 0.90621 0.0
C509 C 0.97979 0.16732 0.92134 0.0
H510 H 0.9311 0.17124 0.39036 0.0
H511 H 1.00401 0.16805 0.45888 0.0
H512 H 0.94567 0.0842 0.46485 0.0
H513 H 0.80956 0.08748 0.41434 0.0
H514 H 0.78945 0.06033 0.38356 0.0
H515 H 0.83437 0.12166 0.38583 0.0
H516 H 0.88951 0.10511 0.35765 0.0
H517 H 0.84511 0.04367 0.35559 0.0
H518 H 0.90334 0.06035 0.36723 0.0
H519 H 0.88784 0.99975 0.46045 0.0
H520 H 0.82503 0.91942 0.44914 0.0
H521 H 0.78459 0.97576 0.38514 0.0
C522 C 0.93392 0.15304 0.40691 0.0
C523 C 0.97194 0.176 0.42417 0.0
C524 C 0.97504 0.1511 0.44546 0.0
C525 C 0.94213 0.10343 0.44903 0.0
C526 C 0.90597 0.08128 0.4313 0.0
C527 C 0.90086 0.10524 0.41095 0.0
C528 C 0.85929 0.07211 0.39438 0.0
C529 C 0.82089 0.08624 0.39455 0.0
C530 C 0.8753 0.07021 0.3671 0.0
C531 C 0.84302 0.02577 0.40822 0.0
C532 C 0.87075 0.03206 0.42938 0.0
C533 C 0.8652 0.99436 0.44423 0.0
C534 C 0.8298 0.9489 0.43753 0.0
C535 C 0.80008 0.94169 0.41638 0.0
C536 C 0.80661 0.9806 0.40159 0.0
H537 H 0.88965 0.82845 0.8953 0.0
H538 H 0.77696 0.72612 0.94322 0.0
H539 H 0.7454 0.78033 0.94789 0.0
H540 H 0.90703 0.93385 0.92818 0.0
H541 H 0.91704 0.96712 0.89924 0.0
H542 H 0.93217 0.92117 0.90087 0.0
H543 H 0.87955 0.88086 0.86138 0.0
H544 H 0.86393 0.92646 0.85979 0.0
H545 H 0.8183 0.8654 0.86186 0.0
H546 H 0.7258 0.84606 0.9474 0.0
H547 H 0.71948 0.918 0.94064 0.0
H548 H 0.84214 0.97485 0.89149 0.0
C549 C 0.85871 0.81778 0.90701 0.0
C550 C 0.83589 0.7732 0.91897 0.0
C551 C 0.79497 0.76011 0.93381 0.0
C552 C 0.77678 0.79067 0.93663 0.0
C553 C 0.79958 0.83408 0.92429 0.0
C554 C 0.83957 0.8476 0.9097 0.0
C555 C 0.85625 0.8954 0.89765 0.0
C556 C 0.90607 0.93151 0.90706 0.0
C557 C 0.85437 0.89179 0.86844 0.0
C558 C 0.81949 0.90656 0.90775 0.0
C559 C 0.78728 0.87099 0.92326 0.0
C560 C 0.75074 0.8741 0.93521 0.0
C561 C 0.74737 0.91492 0.93133 0.0
C562 C 0.78012 0.9516 0.91553 0.0
C563 C 0.81621 0.94699 0.90345 0.0
H564 H 0.08367 0.62714 0.12901 0.0
H565 H 0.14775 0.6877 0.20176 0.0
H566 H 0.16026 0.62012 0.20995 0.0
H567 H 0.02906 0.49911 0.14703 0.0
H568 H 0.04386 0.48392 0.11679 0.0
H569 H 0.03146 0.53178 0.11887 0.0
H570 H 0.11238 0.58791 0.0982 0.0
H571 H 0.12533 0.54054 0.09633 0.0
H572 H 0.16551 0.59451 0.11259 0.0
H573 H 0.17407 0.55205 0.20815 0.0
H574 H 0.18987 0.48817 0.19636 0.0
H575 H 0.12091 0.47321 0.12351 0.0
C576 C 0.09847 0.62487 0.14707 0.0
C577 C 0.11353 0.66147 0.16518 0.0
C578 C 0.13508 0.65915 0.18805 0.0
C579 C 0.14232 0.62102 0.1928 0.0
C580 C 0.12836 0.58598 0.17428 0.0
C581 C 0.10686 0.58745 0.15185 0.0
C582 C 0.10074 0.54853 0.1338 0.0
C583 C 0.04815 0.51377 0.12884 0.0
C584 C 0.1276 0.56913 0.10876 0.0
C585 C 0.12318 0.52573 0.14933 0.0
C586 C 0.13817 0.54748 0.17277 0.0
C587 C 0.16199 0.53435 0.19 0.0
C588 C 0.17096 0.49817 0.18308 0.0
C589 C 0.15656 0.47584 0.15906 0.0
C590 C 0.13198 0.48953 0.14207 0.0
H591 H 0.69944 0.22417 0.64894 0.0
H592 H 0.68023 0.10977 0.59933 0.0
H593 H 0.5939 0.07805 0.59957 0.0
H594 H 0.5958 0.15822 0.68695 0.0
H595 H 0.58241 0.20538 0.68916 0.0
H596 H 0.64267 0.21885 0.68538 0.0
H597 H 0.65105 0.26839 0.64515 0.0
H598 H 0.59105 0.25559 0.64901 0.0
H599 H 0.60933 0.24184 0.61942 0.0
H600 H 0.50913 0.05768 0.6062 0.0
H601 H 0.4336 0.05572 0.61466 0.0
H602 H 0.50909 0.18481 0.65876 0.0
C603 C 0.677 0.1926 0.63804 0.0
C604 C 0.69629 0.16931 0.62415 0.0
C605 C 0.66602 0.1282 0.61002 0.0
C606 C 0.61697 0.10976 0.61017 0.0
C607 C 0.59887 0.13313 0.62437 0.0
C608 C 0.62802 0.17405 0.63773 0.0
C609 C 0.59983 0.19333 0.65069 0.0
C610 C 0.60553 0.19396 0.67977 0.0
C611 C 0.61363 0.2427 0.64045 0.0
C612 C 0.55034 0.15686 0.64255 0.0
C613 C 0.55038 0.12209 0.62763 0.0
C614 C 0.50866 0.08478 0.61784 0.0
C615 C 0.46591 0.08374 0.62288 0.0
C616 C 0.46546 0.12008 0.63732 0.0
C617 C 0.50824 0.15653 0.64759 0.0
H618 H 0.48955 0.67225 0.15571 0.0
H619 H 0.56813 0.65739 0.09351 0.0
H620 H 0.51283 0.57098 0.09292 0.0
H621 H 0.46218 0.56361 0.18832 0.0
H622 H 0.40403 0.5514 0.19754 0.0
H623 H 0.4507 0.61155 0.19343 0.0
H624 H 0.39943 0.62601 0.16088 0.0
H625 H 0.35248 0.56618 0.16518 0.0
H626 H 0.37521 0.58736 0.13376 0.0
H627 H 0.44518 0.48516 0.0983 0.0
H628 H 0.37055 0.41089 0.10773 0.0
H629 H 0.33997 0.48355 0.16729 0.0
C630 C 0.49517 0.65081 0.14199 0.0
C631 C 0.53301 0.67146 0.12462 0.0
C632 C 0.53922 0.64222 0.10697 0.0
C633 C 0.50812 0.59309 0.10657 0.0
C634 C 0.47119 0.57369 0.1241 0.0
C635 C 0.46469 0.60183 0.14145 0.0
C636 C 0.42166 0.57294 0.15778 0.0
C637 C 0.43549 0.57501 0.18594 0.0
C638 C 0.38504 0.58907 0.15417 0.0
C639 C 0.40441 0.52426 0.1467 0.0
C640 C 0.43339 0.52501 0.1274 0.0
C641 C 0.42258 0.48416 0.1136 0.0
C642 C 0.38037 0.44199 0.11921 0.0
C643 C 0.34959 0.44126 0.13834 0.0
C644 C 0.36282 0.48275 0.15262 0.0
H645 H 0.82661 0.49574 0.65732 0.0
H646 H 0.94106 0.58687 0.60694 0.0
H647 H 0.97391 0.533 0.61043 0.0
H648 H 0.89396 0.46081 0.69861 0.0
H649 H 0.84556 0.40121 0.70172 0.0
H650 H 0.83393 0.44909 0.69685 0.0
H651 H 0.78293 0.40663 0.65714 0.0
H652 H 0.79386 0.35847 0.66213 0.0
H653 H 0.80803 0.38868 0.63196 0.0
H654 H 0.99081 0.46529 0.61769 0.0
H655 H 0.9857 0.38771 0.62481 0.0
H656 H 0.86021 0.34339 0.67049 0.0
C657 C 0.85884 0.50462 0.6472 0.0
C658 C 0.88145 0.54534 0.63191 0.0
C659 C 0.92328 0.55567 0.61875 0.0
C660 C 0.94231 0.52549 0.62077 0.0
C661 C 0.91908 0.48546 0.63612 0.0
C662 C 0.87809 0.47503 0.64898 0.0
C663 C 0.85769 0.42841 0.66275 0.0
C664 C 0.85782 0.43532 0.6917 0.0
C665 C 0.80771 0.39351 0.65289 0.0
C666 C 0.89291 0.4135 0.65519 0.0
C667 C 0.92858 0.44699 0.64016 0.0
C668 C 0.96337 0.43912 0.6297 0.0
C669 C 0.96047 0.3952 0.63398 0.0
C670 C 0.92271 0.3599 0.64827 0.0
C671 C 0.88966 0.36997 0.65963 0.0
H672 H 0.50331 0.82385 0.12205 0.0
H673 H 0.5847 0.96257 0.15639 0.0
H674 H 0.51192 0.96872 0.15863 0.0
H675 H 0.42614 0.8493 0.08395 0.0
H676 H 0.37599 0.79117 0.0886 0.0
H677 H 0.43482 0.79951 0.08884 0.0
H678 H 0.41962 0.76064 0.13341 0.0
H679 H 0.36087 0.75237 0.1334 0.0
H680 H 0.40095 0.78415 0.15907 0.0
H681 H 0.42759 0.95597 0.15955 0.0
H682 H 0.34183 0.92797 0.15707 0.0
H683 H 0.31826 0.79851 0.12116 0.0
C684 C 0.50618 0.85579 0.12997 0.0
C685 C 0.54975 0.89271 0.13921 0.0
C686 C 0.55176 0.93394 0.14914 0.0
C687 C 0.51057 0.93761 0.15054 0.0
C688 C 0.46799 0.89996 0.14164 0.0
C689 C 0.46585 0.86008 0.13132 0.0
C690 C 0.41611 0.82403 0.12338 0.0
C691 C 0.41311 0.81553 0.09448 0.0
C692 C 0.39836 0.77757 0.1382 0.0
C693 C 0.39005 0.84938 0.13114 0.0
C694 C 0.42041 0.89312 0.14168 0.0
C695 C 0.40375 0.92202 0.15109 0.0
C696 C 0.35501 0.9058 0.14966 0.0
C697 C 0.32358 0.86123 0.13879 0.0
C698 C 0.34153 0.83292 0.12934 0.0
H699 H 0.6923 0.51363 0.62052 0.0
H700 H 0.63215 0.59861 0.64618 0.0
H701 H 0.55266 0.52645 0.64677 0.0
H702 H 0.59465 0.43277 0.58028 0.0
H703 H 0.60187 0.38327 0.5888 0.0
H704 H 0.65224 0.44206 0.58865 0.0
H705 H 0.67017 0.43152 0.63549 0.0
H706 H 0.61972 0.3729 0.63588 0.0
H707 H 0.62499 0.41565 0.65926 0.0
H708 H 0.48046 0.44206 0.64758 0.0
H709 H 0.42307 0.35619 0.64682 0.0
H710 H 0.53296 0.3289 0.62062 0.0
C711 C 0.66252 0.51753 0.62611 0.0
C712 C 0.6686 0.56196 0.63346 0.0
C713 C 0.62839 0.5651 0.64036 0.0
C714 C 0.5832 0.52423 0.64083 0.0
C715 C 0.57895 0.48077 0.63412 0.0
C716 C 0.61771 0.47752 0.62665 0.0
C717 C 0.60488 0.42699 0.62113 0.0
C718 C 0.61394 0.42094 0.59304 0.0
C719 C 0.63152 0.41084 0.63901 0.0
C720 C 0.55267 0.4017 0.62697 0.0
C721 C 0.53816 0.43315 0.63439 0.0
C722 C 0.49155 0.41741 0.64156 0.0
C723 C 0.45922 0.36855 0.64112 0.0
C724 C 0.47356 0.33596 0.63354 0.0
C725 C 0.52088 0.35297 0.62629 0.0
H726 H 0.33663 0.83108 0.40044 0.0
H727 H 0.40046 0.97667 0.42567 0.0
H728 H 0.47904 0.98218 0.4258 0.0
H729 H 0.40558 0.79843 0.43741 0.0
H730 H 0.40975 0.76138 0.41333 0.0
H731 H 0.35947 0.77001 0.41393 0.0
H732 H 0.37575 0.79939 0.36727 0.0
H733 H 0.426 0.79063 0.36648 0.0
H734 H 0.4331 0.84758 0.35876 0.0
H735 H 0.54945 0.96881 0.42666 0.0
H736 H 0.60658 0.94 0.42531 0.0
H737 H 0.49656 0.80423 0.3976 0.0
C738 C 0.36714 0.86433 0.40584 0.0
C739 C 0.3624 0.90346 0.41319 0.0
C740 C 0.40329 0.94636 0.41988 0.0
C741 C 0.44798 0.9497 0.42007 0.0
C742 C 0.45117 0.91006 0.41314 0.0
C743 C 0.41182 0.8684 0.40582 0.0
C744 C 0.42433 0.83066 0.39949 0.0
C745 C 0.39824 0.78759 0.4171 0.0
C746 C 0.4142 0.81624 0.37132 0.0
C747 C 0.47685 0.85719 0.4049 0.0
C748 C 0.49168 0.90291 0.41281 0.0
C749 C 0.53829 0.93333 0.42015 0.0
C750 C 0.57044 0.91662 0.41939 0.0
C751 C 0.55601 0.87008 0.41115 0.0
C752 C 0.50868 0.84019 0.40363 0.0
H753 H 0.68121 0.50409 0.93927 0.0
H754 H 0.68258 0.56427 0.86556 0.0
H755 H 0.597 0.50728 0.86053 0.0
H756 H 0.60776 0.38588 0.92014 0.0
H757 H 0.57787 0.36686 0.95028 0.0
H758 H 0.63729 0.41583 0.94906 0.0
H759 H 0.61033 0.46842 0.97228 0.0
H760 H 0.55066 0.4196 0.97338 0.0
H761 H 0.56271 0.4747 0.95914 0.0
H762 H 0.51096 0.44167 0.86354 0.0
H763 H 0.43573 0.36731 0.87165 0.0
H764 H 0.49408 0.34802 0.94179 0.0
C765 C 0.66326 0.50566 0.92225 0.0
C766 C 0.68798 0.53871 0.90292 0.0
C767 C 0.66389 0.53916 0.88061 0.0
C768 C 0.61535 0.50719 0.87769 0.0
C769 C 0.59184 0.47478 0.89713 0.0
C770 C 0.61528 0.47344 0.91881 0.0
C771 C 0.58348 0.43243 0.93577 0.0
C772 C 0.60274 0.39824 0.93898 0.0
C773 C 0.57638 0.44985 0.96167 0.0
C774 C 0.53856 0.41055 0.92019 0.0
C775 C 0.54356 0.43591 0.89822 0.0
C776 C 0.50665 0.42164 0.88072 0.0
C777 C 0.46405 0.37964 0.8855 0.0
C778 C 0.45944 0.35226 0.90729 0.0
C779 C 0.49684 0.36845 0.92498 0.0
H780 H 0.19418 0.68299 0.38948 0.0
H781 H 0.11753 0.67196 0.45869 0.0
H782 H 0.08638 0.58556 0.45947 0.0
H783 H 0.11044 0.56972 0.3609 0.0
H784 H 0.15586 0.5583 0.34957 0.0
H785 H 0.1679 0.61823 0.35284 0.0
H786 H 0.23945 0.63783 0.38206 0.0
H787 H 0.22796 0.57822 0.37859 0.0
H788 H 0.23096 0.60216 0.40988 0.0
H789 H 0.06401 0.49969 0.45269 0.0
H790 H 0.06351 0.42503 0.44331 0.0
H791 H 0.16056 0.49374 0.38093 0.0
C792 C 0.17038 0.66217 0.40459 0.0
C793 C 0.15764 0.68384 0.42385 0.0
C794 C 0.12749 0.65585 0.44372 0.0
C795 C 0.10938 0.60675 0.4442 0.0
C796 C 0.1225 0.58626 0.42491 0.0
C797 C 0.15313 0.6133 0.40577 0.0
C798 C 0.16578 0.58359 0.38891 0.0
C799 C 0.14898 0.5824 0.36142 0.0
C800 C 0.21919 0.60151 0.38994 0.0
C801 C 0.13768 0.53573 0.40158 0.0
C802 C 0.11201 0.53766 0.42194 0.0
C803 C 0.08391 0.4978 0.43675 0.0
C804 C 0.08343 0.4554 0.43116 0.0
C805 C 0.11166 0.45356 0.41131 0.0
C806 C 0.13826 0.49405 0.39608 0.0
H807 H 0.67661 0.16047 0.88995 0.0
H808 H 0.63894 0.0483 0.94484 0.0
H809 H 0.56326 0.04686 0.95307 0.0
H810 H 0.63674 0.22358 0.92423 0.0
H811 H 0.61523 0.24153 0.89728 0.0
H812 H 0.66264 0.22909 0.89326 0.0
H813 H 0.61507 0.16722 0.85841 0.0
H814 H 0.56776 0.18008 0.86193 0.0
H815 H 0.55607 0.12027 0.86524 0.0
H816 H 0.49621 0.06588 0.95888 0.0
H817 H 0.44118 0.09748 0.9588 0.0
H818 H 0.52395 0.19674 0.89962 0.0
C819 C 0.65184 0.13461 0.9032 0.0
C820 C 0.66336 0.10412 0.91661 0.0
C821 C 0.63035 0.07125 0.93401 0.0
C822 C 0.58755 0.07059 0.93894 0.0
C823 C 0.57824 0.10265 0.92608 0.0
C824 C 0.60926 0.13343 0.9082 0.0
C825 C 0.59279 0.16611 0.89781 0.0
C826 C 0.629 0.21814 0.9035 0.0
C827 C 0.58228 0.15791 0.86915 0.0
C828 C 0.54799 0.1498 0.91298 0.0
C829 C 0.54005 0.11318 0.92921 0.0
C830 C 0.50189 0.09405 0.94597 0.0
C831 C 0.47096 0.11241 0.9459 0.0
C832 C 0.47823 0.14945 0.92915 0.0
C833 C 0.51729 0.16821 0.91252 0.0
H834 H 0.33357 0.53372 0.39471 0.0
H835 H 0.35724 0.43184 0.43553 0.0
H836 H 0.44335 0.4854 0.43287 0.0
H837 H 0.43565 0.57806 0.35257 0.0
H838 H 0.44826 0.63835 0.35449 0.0
H839 H 0.38841 0.59054 0.35778 0.0
H840 H 0.38169 0.62394 0.40136 0.0
H841 H 0.44127 0.67199 0.39807 0.0
H842 H 0.42471 0.63474 0.42584 0.0
H843 H 0.52644 0.55052 0.42698 0.0
H844 H 0.60074 0.62635 0.42197 0.0
H845 H 0.5228 0.68654 0.38608 0.0
C846 C 0.35701 0.52271 0.40289 0.0
C847 C 0.33909 0.47879 0.41521 0.0
C848 C 0.37051 0.46553 0.42602 0.0
C849 C 0.4194 0.49549 0.42446 0.0
C850 C 0.43614 0.53862 0.41214 0.0
C851 C 0.40597 0.55248 0.40178 0.0
C852 C 0.43308 0.60206 0.39121 0.0
C853 C 0.42592 0.60223 0.36229 0.0
C854 C 0.41938 0.63512 0.40495 0.0
C855 C 0.48303 0.61403 0.39763 0.0
C856 C 0.48412 0.57672 0.40931 0.0
C857 C 0.52617 0.57998 0.41772 0.0
C858 C 0.56818 0.62307 0.4147 0.0
C859 C 0.5675 0.66226 0.40367 0.0
C860 C 0.52446 0.65718 0.39457 0.0
H861 H 0.86313 0.52032 0.88074 0.0
H862 H 0.9756 0.5951 0.9357 0.0
H863 H 0.97879 0.52174 0.94331 0.0
H864 H 0.80204 0.41801 0.91537 0.0
H865 H 0.7835 0.37852 0.88846 0.0
H866 H 0.79525 0.4381 0.88452 0.0
H867 H 0.8561 0.45249 0.84911 0.0
H868 H 0.84402 0.3926 0.85262 0.0
H869 H 0.90372 0.441 0.85548 0.0
H870 H 0.96183 0.43673 0.94855 0.0
H871 H 0.93 0.35014 0.94902 0.0
H872 H 0.82821 0.33288 0.89088 0.0
C873 C 0.88933 0.52174 0.89395 0.0
C874 C 0.9193 0.56347 0.90757 0.0
C875 C 0.95279 0.56368 0.92479 0.0
C876 C 0.95459 0.5221 0.92933 0.0
C877 C 0.92299 0.48096 0.91629 0.0
C878 C 0.89145 0.48083 0.89868 0.0
C879 C 0.85881 0.43177 0.88845 0.0
C880 C 0.80685 0.41568 0.89458 0.0
C881 C 0.86613 0.42934 0.85971 0.0
C882 C 0.87609 0.40383 0.9034 0.0
C883 C 0.91326 0.43266 0.9193 0.0
C884 C 0.93321 0.41404 0.9359 0.0
C885 C 0.9148 0.36487 0.93613 0.0
C886 C 0.87681 0.33501 0.91993 0.0
C887 C 0.85752 0.35492 0.90333 0.0
H888 H 0.09927 0.33516 0.31761 0.0
H889 H 0.23275 0.37497 0.35475 0.0
H890 H 0.27121 0.38849 0.31269 0.0
H891 H 0.11068 0.26972 0.26906 0.0
H892 H 0.08342 0.28686 0.2446 0.0
H893 H 0.06792 0.28703 0.2774 0.0
H894 H 0.09062 0.37495 0.27356 0.0
H895 H 0.10624 0.37504 0.24066 0.0
H896 H 0.14871 0.41769 0.26249 0.0
H897 H 0.2929 0.38874 0.26712 0.0
H898 H 0.29631 0.37439 0.22127 0.0
H899 H 0.14892 0.33461 0.21313 0.0
C900 C 0.13683 0.34778 0.31688 0.0
C901 C 0.16317 0.35424 0.33942 0.0
C902 C 0.21202 0.36995 0.33771 0.0
C903 C 0.23416 0.37788 0.31391 0.0
C904 C 0.20699 0.37017 0.29201 0.0
C905 C 0.15941 0.35566 0.29326 0.0
C906 C 0.13741 0.346 0.26688 0.0
C907 C 0.09752 0.29434 0.26435 0.0
C908 C 0.1197 0.38048 0.26053 0.0
C909 C 0.17964 0.35571 0.25066 0.0
C910 C 0.21956 0.37028 0.26555 0.0
C911 C 0.2621 0.37808 0.25524 0.0
C912 C 0.26366 0.36976 0.22919 0.0
C913 C 0.22299 0.35373 0.2137 0.0
C914 C 0.18075 0.34773 0.22447 0.0
H915 H 0.90228 0.25879 0.73476 0.0
H916 H 0.786 0.13462 0.70019 0.0
H917 H 0.74996 0.1078 0.74294 0.0
H918 H 0.91697 0.20144 0.78507 0.0
H919 H 0.93316 0.24831 0.80786 0.0
H920 H 0.94399 0.26195 0.77459 0.0
H921 H 0.89573 0.30526 0.77616 0.0
H922 H 0.88478 0.29182 0.80958 0.0
H923 H 0.83599 0.27469 0.78794 0.0
H924 H 0.73349 0.08958 0.79018 0.0
H925 H 0.73929 0.08007 0.8366 0.0
H926 H 0.86836 0.21508 0.8397 0.0
C927 C 0.86851 0.22652 0.73602 0.0
C928 C 0.84674 0.19881 0.71414 0.0
C929 C 0.80298 0.15657 0.71666 0.0
C930 C 0.78237 0.14118 0.74088 0.0
C931 C 0.8059 0.16864 0.76222 0.0
C932 C 0.848 0.21061 0.75989 0.0
C933 C 0.86956 0.23102 0.78563 0.0
C934 C 0.9188 0.23593 0.78844 0.0
C935 C 0.87161 0.27852 0.79008 0.0
C936 C 0.83396 0.19322 0.80302 0.0
C937 C 0.79693 0.15795 0.78924 0.0
C938 C 0.76175 0.11747 0.8011 0.0
C939 C 0.76521 0.11241 0.82745 0.0
C940 C 0.80362 0.14746 0.84162 0.0
C941 C 0.83787 0.18866 0.82935 0.0
H942 H 0.68002 0.8069 0.20973 0.0
H943 H 0.60312 0.88228 0.21928 0.0
H944 H 0.59858 0.86795 0.26549 0.0
H945 H 0.61683 0.71779 0.26225 0.0
H946 H 0.67017 0.7182 0.2716 0.0
H947 H 0.66122 0.72815 0.23882 0.0
H948 H 0.7407 0.80683 0.23949 0.0
H949 H 0.74957 0.79769 0.27235 0.0
H950 H 0.75023 0.85107 0.26291 0.0
H951 H 0.61425 0.85807 0.31103 0.0
H952 H 0.63964 0.84284 0.35275 0.0
H953 H 0.70241 0.76992 0.31453 0.0
C954 C 0.66049 0.8185 0.22146 0.0
C955 C 0.64145 0.8453 0.21091 0.0
C956 C 0.61756 0.86133 0.22698 0.0
C957 C 0.61495 0.85354 0.25328 0.0
C958 C 0.63601 0.82911 0.26336 0.0
C959 C 0.65737 0.81079 0.24796 0.0
C960 C 0.67962 0.78829 0.26401 0.0
C961 C 0.65551 0.73493 0.25886 0.0
C962 C 0.7332 0.81243 0.25941 0.0
C963 C 0.66877 0.79831 0.29067 0.0
C964 C 0.64366 0.822 0.28985 0.0
C965 C 0.63293 0.83851 0.31195 0.0
C966 C 0.64771 0.83003 0.33555 0.0
C967 C 0.6724 0.8048 0.33687 0.0
C968 C 0.6828 0.78861 0.3141 0.0
H969 H 0.77109 0.67632 0.73469 0.0
H970 H 0.85377 0.62567 0.69536 0.0
H971 H 0.87909 0.60978 0.73707 0.0
H972 H 0.85164 0.73844 0.78123 0.0
H973 H 0.80969 0.72508 0.80655 0.0
H974 H 0.79213 0.72479 0.77408 0.0
H975 H 0.72348 0.63883 0.77923 0.0
H976 H 0.74063 0.6389 0.81188 0.0
H977 H 0.73582 0.59382 0.79029 0.0
H978 H 0.90468 0.61159 0.78295 0.0
H979 H 0.92602 0.62765 0.82847 0.0
H980 H 0.82475 0.67543 0.83784 0.0
C981 C 0.79343 0.66054 0.73483 0.0
C982 C 0.81025 0.65184 0.71183 0.0
C983 C 0.83999 0.63193 0.71276 0.0
C984 C 0.85459 0.62297 0.73637 0.0
C985 C 0.83852 0.63351 0.75876 0.0
C986 C 0.80797 0.65123 0.75811 0.0
C987 C 0.79871 0.66327 0.7846 0.0
C988 C 0.81397 0.71601 0.78672 0.0
C989 C 0.74656 0.63182 0.79193 0.0
C990 C 0.83028 0.65141 0.80033 0.0
C991 C 0.85262 0.63386 0.78512 0.0
C992 C 0.88662 0.62434 0.79503 0.0
C993 C 0.8986 0.6337 0.8209 0.0
C994 C 0.87666 0.65228 0.83669 0.0
C995 C 0.84129 0.66021 0.82635 0.0
H996 H 0.09673 0.84498 0.23154 0.0
H997 H 0.19888 0.8061 0.20628 0.0
H998 H 0.23032 0.81681 0.25051 0.0
H999 H 0.17378 0.9351 0.27738 0.0
H1000 H 0.12564 0.92028 0.29903 0.0
H1001 H 0.11457 0.91199 0.26532 0.0
H1002 H 0.05233 0.82424 0.27341 0.0
H1003 H 0.06409 0.83194 0.30707 0.0
H1004 H 0.0695 0.78691 0.29012 0.0
H1005 H 0.24488 0.82555 0.29956 0.0
H1006 H 0.24912 0.84289 0.34588 0.0
H1007 H 0.13815 0.8778 0.337 0.0
C1008 C 0.12646 0.83973 0.2352 0.0
C1009 C 0.14572 0.82511 0.21558 0.0
C1010 C 0.18425 0.81813 0.22104 0.0
C1011 C 0.20186 0.82362 0.24614 0.0
C1012 C 0.1808 0.83658 0.26532 0.0
C1013 C 0.14456 0.84552 0.25985 0.0
C1014 C 0.12753 0.85904 0.28343 0.0
C1015 C 0.1359 0.90961 0.28115 0.0
C1016 C 0.07527 0.8234 0.28881 0.0
C1017 C 0.15937 0.85592 0.30328 0.0
C1018 C 0.18965 0.84248 0.29271 0.0
C1019 C 0.22154 0.83647 0.30786 0.0
C1020 C 0.22343 0.84593 0.33418 0.0
C1021 C 0.19392 0.86164 0.34494 0.0
C1022 C 0.16113 0.86585 0.32926 0.0
H1023 H 0.27262 0.11729 0.83535 0.0
H1024 H 0.41323 0.23519 0.84872 0.0
H1025 H 0.43217 0.23539 0.80301 0.0
H1026 H 0.30774 0.05735 0.78848 0.0
H1027 H 0.25431 0.03745 0.77023 0.0
H1028 H 0.25397 0.04608 0.80406 0.0
H1029 H 0.22094 0.10258 0.79623 0.0
H1030 H 0.22219 0.09498 0.76237 0.0
H1031 H 0.25299 0.15337 0.776 0.0
H1032 H 0.43198 0.22658 0.75382 0.0
H1033 H 0.41657 0.20114 0.70837 0.0
H1034 H 0.27787 0.08738 0.7292 0.0
C1035 C 0.30774 0.14248 0.82874 0.0
C1036 C 0.34148 0.17605 0.84553 0.0
C1037 C 0.38699 0.20875 0.8362 0.0
C1038 C 0.3979 0.20941 0.81021 0.0
C1039 C 0.36313 0.17672 0.79392 0.0
C1040 C 0.31934 0.14317 0.80305 0.0
C1041 C 0.28802 0.11164 0.78194 0.0
C1042 C 0.27529 0.06009 0.78645 0.0
C1043 C 0.24341 0.11593 0.77897 0.0
C1044 C 0.32063 0.13286 0.75941 0.0
C1045 C 0.36368 0.17075 0.76641 0.0
C1046 C 0.39854 0.19657 0.74825 0.0
C1047 C 0.38946 0.18227 0.7225 0.0
C1048 C 0.34622 0.14226 0.71542 0.0
C1049 C 0.31146 0.11793 0.73413 0.0
H1050 H 0.27828 0.18699 1.00491 0.0
H1051 H 0.37674 0.31637 0.96615 0.0
H1052 H 0.35848 0.36253 0.99631 0.0
H1053 H 0.19122 0.22127 1.01593 0.0
H1054 H 0.17372 0.19421 0.04687 0.0
H1055 H 0.19689 0.17053 1.02367 0.0
H1056 H 0.26215 0.17988 0.05542 0.0
H1057 H 0.2374 0.20176 0.07866 0.0
H1058 H 0.29897 0.23639 0.07035 0.0
H1059 H 0.32881 0.39542 0.02926 0.0
H1060 H 0.28821 0.41305 0.06345 0.0
H1061 H 0.20505 0.2636 0.08074 0.0
C1062 C 0.29657 0.22508 1.00321 0.0
C1063 C 0.32946 0.24814 0.98335 0.0
C1064 C 0.35167 0.29794 0.98126 0.0
C1065 C 0.34157 0.32457 0.99834 0.0
C1066 C 0.30862 0.30106 1.01742 0.0
C1067 C 0.28624 0.25248 1.02004 0.0
C1068 C 0.25026 0.23638 0.04153 0.0
C1069 C 0.20005 0.20367 0.03139 0.0
C1070 C 0.263 0.21221 0.06275 0.0
C1071 C 0.2562 0.28349 0.05044 0.0
C1072 C 0.29028 0.32022 0.03626 0.0
C1073 C 0.30208 0.36698 0.04055 0.0
C1074 C 0.27868 0.37667 0.05996 0.0
C1075 C 0.24364 0.33986 0.07486 0.0
C1076 C 0.23211 0.29257 0.06987 0.0
H1077 H 0.04695 0.3035 0.46355 0.0
H1078 H 0.17358 0.34198 0.50761 0.0
H1079 H 0.12577 0.31625 0.5469 0.0
H1080 H 0.98648 0.33507 0.50876 0.0
H1081 H 0.92887 0.28507 0.50251 0.0
H1082 H 0.97289 0.30751 0.47782 0.0
H1083 H 0.96357 0.22496 0.47246 0.0
H1084 H 0.92001 0.20175 0.49735 0.0
H1085 H 0.97184 0.19571 0.49947 0.0
H1086 H 0.06621 0.29517 0.58138 0.0
H1087 H 0.99705 0.26834 0.60902 0.0
H1088 H 0.90533 0.22861 0.54299 0.0
C1089 C 0.06449 0.30568 0.4814 0.0
C1090 C 0.11408 0.32451 0.48251 0.0
C1091 C 0.13575 0.32762 0.50631 0.0
C1092 C 0.10886 0.31312 0.52871 0.0
C1093 C 0.06011 0.29448 0.52694 0.0
C1094 C 0.03787 0.28972 0.50388 0.0
C1095 C 0.98466 0.26707 0.50736 0.0
C1096 C 0.96721 0.30069 0.4986 0.0
C1097 C 0.95849 0.21952 0.49333 0.0
C1098 C 0.98057 0.26032 0.53606 0.0
C1099 C 0.02482 0.27743 0.54688 0.0
C1100 C 0.03127 0.27999 0.5731 0.0
C1101 C 0.99156 0.26412 0.5887 0.0
C1102 C 0.94547 0.24386 0.5783 0.0
C1103 C 0.93991 0.2421 0.55151 0.0
H1104 H 0.74873 0.91315 0.05392 0.0
H1105 H 0.625 0.9185 0.07899 0.0
H1106 H 0.64168 0.98101 0.04787 0.0
H1107 H 0.82239 0.03666 0.04541 0.0
H1108 H 0.85159 0.0333 1.01706 0.0
H1109 H 0.82839 0.98549 0.03964 0.0
H1110 H 0.77956 0.92727 1.00399 0.0
H1111 H 0.8012 0.97446 0.98099 0.0
H1112 H 0.73853 0.9372 0.9858 0.0
H1113 H 0.67431 0.04738 1.01771 0.0
H1114 H 0.71884 0.11165 0.98726 0.0
H1115 H 0.82193 0.06561 0.97895 0.0
C1116 C 0.72454 0.92661 0.05222 0.0
C1117 C 0.68506 0.91033 0.06869 0.0
C1118 C 0.65509 0.92996 0.06647 0.0
C1119 C 0.66434 0.96566 0.04886 0.0
C1120 C 0.70391 0.98187 0.03338 0.0
C1121 C 0.73344 0.9629 0.03456 0.0
C1122 C 0.7746 0.98878 1.01613 0.0
C1123 C 0.82205 0.01246 0.03042 0.0
C1124 C 0.77345 0.95493 0.99549 0.0
C1125 C 0.76379 0.02552 1.00491 0.0
C1126 C 0.72277 0.0206 1.0153 0.0
C1127 C 0.7062 0.05129 1.0092 0.0
C1128 C 0.73198 0.08797 0.99194 0.0
C1129 C 0.77387 0.09382 0.98065 0.0
C1130 C 0.78984 0.06186 0.98714 0.0
H1131 H 0.75757 0.64711 0.54641 0.0
H1132 H 0.82792 0.77106 0.59472 0.0
H1133 H 0.80345 0.81433 0.56586 0.0
H1134 H 0.79079 0.71296 0.48664 0.0
H1135 H 0.73591 0.67435 0.47069 0.0
H1136 H 0.75759 0.65146 0.49525 0.0
H1137 H 0.67958 0.62041 0.52019 0.0
H1138 H 0.65701 0.64243 0.49566 0.0
H1139 H 0.65861 0.66043 0.52825 0.0
H1140 H 0.76945 0.84404 0.53265 0.0
H1141 H 0.73209 0.85952 0.4957 0.0
H1142 H 0.6865 0.71873 0.46701 0.0
C1143 C 0.76789 0.68338 0.5508 0.0
C1144 C 0.79396 0.70536 0.57318 0.0
C1145 C 0.80717 0.75306 0.57805 0.0
C1146 C 0.79362 0.77812 0.56166 0.0
C1147 C 0.76746 0.75545 0.54001 0.0
C1148 C 0.75515 0.70936 0.5343 0.0
C1149 C 0.7276 0.69397 0.5094 0.0
C1150 C 0.75458 0.68251 0.4893 0.0
C1151 C 0.67774 0.65181 0.51364 0.0
C1152 C 0.72587 0.73828 0.50233 0.0
C1153 C 0.74903 0.77324 0.52033 0.0
C1154 C 0.75148 0.81702 0.51834 0.0
C1155 C 0.72999 0.82547 0.49734 0.0
C1156 C 0.70661 0.79053 0.47843 0.0
C1157 C 0.70448 0.7463 0.48107 0.0
H1158 H 0.95952 0.73951 0.97108 0.0
H1159 H 0.8793 0.59146 0.99169 0.0
H1160 H 0.92895 0.60758 0.02997 0.0
H1161 H 0.07534 0.75214 0.99111 0.0
H1162 H 0.09734 0.81267 1.00049 0.0
H1163 H 0.05434 0.7869 0.97531 0.0
H1164 H 1.00111 0.81209 1.00112 0.0
H1165 H 0.04444 0.83489 1.02625 0.0
H1166 H 0.98436 0.79051 0.03313 0.0
H1167 H 0.98501 0.63963 0.0666 0.0
H1168 H 0.0477 0.68417 0.09803 0.0
H1169 H 0.09935 0.81077 0.05209 0.0
C1170 C 0.95311 0.71034 0.98332 0.0
C1171 C 0.91576 0.664 0.97811 0.0
C1172 C 0.9076 0.62717 0.99518 0.0
C1173 C 0.93573 0.63599 1.01699 0.0
C1174 C 0.97268 0.68176 1.02132 0.0
C1175 C 0.98205 0.71827 1.00481 0.0
C1176 C 0.02546 0.76373 1.01353 0.0
C1177 C 0.0655 0.77987 0.99396 0.0
C1178 C 0.0131 0.8026 1.01881 0.0
C1179 C 0.03802 0.74738 0.03793 0.0
C1180 C 1.00683 0.69991 0.04198 0.0
C1181 C 0.0099 0.67666 0.06346 0.0
C1182 C 0.0457 0.70238 0.08124 0.0
C1183 C 0.07877 0.75086 0.07744 0.0
C1184 C 0.07502 0.77362 0.05534 0.0
H1185 H 0.29736 0.96117 0.47944 0.0
H1186 H 0.14722 0.88623 0.49503 0.0
H1187 H 0.15897 0.94698 0.52714 0.0
H1188 H 0.33291 0.99002 0.54473 0.0
H1189 H 0.38361 0.04641 0.5373 0.0
H1190 H 0.36212 0.99905 0.51447 0.0
H1191 H 0.3546 0.05302 0.48087 0.0
H1192 H 0.37541 0.10042 0.50371 0.0
H1193 H 0.31949 0.08012 0.48791 0.0
H1194 H 0.18827 0.01881 0.55715 0.0
H1195 H 0.23301 0.08612 0.58673 0.0
H1196 H 0.36441 0.10797 0.55474 0.0
C1197 C 0.26692 0.95763 0.48958 0.0
C1198 C 0.22122 0.91929 0.48452 0.0
C1199 C 0.18243 0.91546 0.49848 0.0
C1200 C 0.18882 0.94997 0.51666 0.0
C1201 C 0.23441 0.98765 0.52105 0.0
C1202 C 0.27289 0.99097 0.50824 0.0
C1203 C 0.31863 0.03265 0.51772 0.0
C1204 C 0.35123 0.01603 0.52924 0.0
C1205 C 0.34349 0.06868 0.49628 0.0
C1206 C 0.30014 0.05233 0.53799 0.0
C1207 C 0.25136 0.02665 0.53924 0.0
C1208 C 0.22644 0.0389 0.55631 0.0
C1209 C 0.25205 0.07735 0.57293 0.0
C1210 C 0.30201 0.1023 0.57284 0.0
C1211 C 0.32617 0.08978 0.55497 0.0
loop_
_geom_bond_atom_site_label_1
_geom_bond_atom_site_label_2
_geom_bond_distance
_geom_bond_site_symmetry_2
_ccdc_geom_bond_type
Dy0 O4 2.398 . S
Dy0 O5 2.491 . S
Dy0 O6 2.403 . S
Dy0 O7 2.664 . S
Dy0 O11 2.326 . S
Dy0 O15 2.310 . S
Dy0 O16 2.351 . S
C1 O12 1.185 . S
C1 O13 1.355 . S
C2 O4 1.185 . S
C2 O5 1.355 . S
Dy3 O7 2.310 . S
Dy3 O10 2.351 . S
Dy3 O12 2.398 . S
Dy3 O13 2.491 . S
Dy3 O14 2.403 . S
Dy3 O15 2.664 . S
Dy3 O17 2.326 . S
O4 Dy0 2.398 . S
O4 C2 1.185 . S
O5 Dy0 2.491 . S
O5 C2 1.355 . S
O6 Dy0 2.403 . S
O6 C8 1.254 . S
O7 Dy0 2.664 . S
O7 Dy3 2.310 . S
O7 C8 1.268 . S
C8 O6 1.254 . S
C8 O7 1.268 . S
C9 O14 1.254 . S
C9 O15 1.268 . S
O10 Dy3 2.351 . S
O10 C18 1.249 . S
O11 Dy0 2.326 . S
O11 C18 1.267 . S
O12 C1 1.185 . S
O12 Dy3 2.398 . S
O13 C1 1.355 . S
O13 Dy3 2.491 . S
O14 Dy3 2.403 . S
O14 C9 1.254 . S
O15 Dy0 2.310 . S
O15 Dy3 2.664 . S
O15 C9 1.268 . S
O16 Dy0 2.351 . S
O16 C19 1.249 . S
O17 Dy3 2.326 . S
O17 C19 1.267 . S
C18 O10 1.249 . S
C18 O11 1.267 . S
C19 O16 1.249 . S
C19 O17 1.267 . S
Dy20 O24 2.398 . S
Dy20 O25 2.491 . S
Dy20 O26 2.403 . S
Dy20 O27 2.664 . S
Dy20 O31 2.326 . S
Dy20 O35 2.310 . S
Dy20 O36 2.351 . S
C21 O32 1.185 . S
C21 O33 1.355 . S
C22 O24 1.185 . S
C22 O25 1.355 . S
Dy23 O27 2.310 . S
Dy23 O30 2.351 . S
Dy23 O32 2.398 . S
Dy23 O33 2.491 . S
Dy23 O34 2.403 . S
Dy23 O35 2.664 . S
Dy23 O37 2.326 . S
O24 Dy20 2.398 . S
O24 C22 1.185 . S
O25 Dy20 2.491 . S
O25 C22 1.355 . S
O26 Dy20 2.403 . S
O26 C28 1.254 . S
O27 Dy20 2.664 . S
O27 Dy23 2.310 . S
O27 C28 1.268 . S
C28 O26 1.254 . S
C28 O27 1.268 . S
C29 O34 1.254 . S
C29 O35 1.268 . S
O30 Dy23 2.351 . S
O30 C38 1.249 . S
O31 Dy20 2.326 . S
O31 C38 1.267 . S
O32 C21 1.185 . S
O32 Dy23 2.398 . S
O33 C21 1.355 . S
O33 Dy23 2.491 . S
O34 Dy23 2.403 . S
O34 C29 1.254 . S
O35 Dy20 2.310 . S
O35 Dy23 2.664 . S
O35 C29 1.268 . S
O36 Dy20 2.351 . S
O36 C39 1.249 . S
O37 Dy23 2.326 . S
O37 C39 1.267 . S
C38 O30 1.249 . S
C38 O31 1.267 . S
C39 O36 1.249 . S
C39 O37 1.267 . S
Dy40 O44 2.398 . S
Dy40 O45 2.491 . S
Dy40 O46 2.403 . S
Dy40 O47 2.664 . S
Dy40 O51 2.326 . S
Dy40 O55 2.310 . S
Dy40 O56 2.351 . S
C41 O52 1.185 . S
C41 O53 1.355 . S
C42 O44 1.185 . S
C42 O45 1.355 . S
Dy43 O47 2.310 . S
Dy43 O50 2.351 . S
Dy43 O52 2.398 . S
Dy43 O53 2.491 . S
Dy43 O54 2.403 . S
Dy43 O55 2.664 . S
Dy43 O57 2.326 . S
O44 Dy40 2.398 . S
O44 C42 1.185 . S
O45 Dy40 2.491 . S
O45 C42 1.355 . S
O46 Dy40 2.403 . S
O46 C48 1.254 . S
O47 Dy40 2.664 . S
O47 Dy43 2.310 . S
O47 C48 1.268 . S
C48 O46 1.254 . S
C48 O47 1.268 . S
C49 O54 1.254 . S
C49 O55 1.268 . S
O50 Dy43 2.351 . S
O50 C58 1.249 . S
O51 Dy40 2.326 . S
O51 C58 1.267 . S
O52 C41 1.185 . S
O52 Dy43 2.398 . S
O53 C41 1.355 . S
O53 Dy43 2.491 . S
O54 Dy43 2.403 . S
O54 C49 1.254 . S
O55 Dy40 2.310 . S
O55 Dy43 2.664 . S
O55 C49 1.268 . S
O56 Dy40 2.351 . S
O56 C59 1.249 . S
O57 Dy43 2.326 . S
O57 C59 1.267 . S
C58 O50 1.249 . S
C58 O51 1.267 . S
C59 O56 1.249 . S
C59 O57 1.267 . S
Dy60 O64 2.398 . S
Dy60 O65 2.491 . S
Dy60 O66 2.403 . S
Dy60 O67 2.664 . S
Dy60 O71 2.326 . S
Dy60 O75 2.310 . S
Dy60 O76 2.351 . S
C61 O72 1.185 . S
C61 O73 1.355 . S
C62 O64 1.185 . S
C62 O65 1.355 . S
Dy63 O67 2.310 . S
Dy63 O70 2.351 . S
Dy63 O72 2.398 . S
Dy63 O73 2.491 . S
Dy63 O74 2.403 . S
Dy63 O75 2.664 . S
Dy63 O77 2.326 . S
O64 Dy60 2.398 . S
O64 C62 1.185 . S
O65 Dy60 2.491 . S
O65 C62 1.355 . S
O66 Dy60 2.403 . S
O66 C68 1.254 . S
O67 Dy60 2.664 . S
O67 Dy63 2.310 . S
O67 C68 1.268 . S
C68 O66 1.254 . S
C68 O67 1.268 . S
C69 O74 1.254 . S
C69 O75 1.268 . S
O70 Dy63 2.351 . S
O70 C78 1.249 . S
O71 Dy60 2.326 . S
O71 C78 1.267 . S
O72 C61 1.185 . S
O72 Dy63 2.398 . S
O73 C61 1.355 . S
O73 Dy63 2.491 . S
O74 Dy63 2.403 . S
O74 C69 1.254 . S
O75 Dy60 2.310 . S
O75 Dy63 2.664 . S
O75 C69 1.268 . S
O76 Dy60 2.351 . S
O76 C79 1.249 . S
O77 Dy63 2.326 . S
O77 C79 1.267 . S
C78 O70 1.249 . S
C78 O71 1.267 . S
C79 O76 1.249 . S
C79 O77 1.267 . S
Dy80 O84 2.398 . S
Dy80 O85 2.491 . S
Dy80 O86 2.403 . S
Dy80 O87 2.664 . S
Dy80 O91 2.326 . S
Dy80 O95 2.310 . S
Dy80 O96 2.351 . S
C81 O92 1.185 . S
C81 O93 1.355 . S
C82 O84 1.185 . S
C82 O85 1.355 . S
Dy83 O87 2.310 . S
Dy83 O90 2.351 . S
Dy83 O92 2.398 . S
Dy83 O93 2.491 . S
Dy83 O94 2.403 . S
Dy83 O95 2.664 . S
Dy83 O97 2.326 . S
O84 Dy80 2.398 . S
O84 C82 1.185 . S
O85 Dy80 2.491 . S
O85 C82 1.355 . S
O86 Dy80 2.403 . S
O86 C88 1.254 . S
O87 Dy80 2.664 . S
O87 Dy83 2.310 . S
O87 C88 1.268 . S
C88 O86 1.254 . S
C88 O87 1.268 . S
C89 O94 1.254 . S
C89 O95 1.268 . S
O90 Dy83 2.351 . S
O90 C98 1.249 . S
O91 Dy80 2.326 . S
O91 C98 1.267 . S
O92 C81 1.185 . S
O92 Dy83 2.398 . S
O93 C81 1.355 . S
O93 Dy83 2.491 . S
O94 Dy83 2.403 . S
O94 C89 1.254 . S
O95 Dy80 2.310 . S
O95 Dy83 2.664 . S
O95 C89 1.268 . S
O96 Dy80 2.351 . S
O96 C99 1.249 . S
O97 Dy83 2.326 . S
O97 C99 1.267 . S
C98 O90 1.249 . S
C98 O91 1.267 . S
C99 O96 1.249 . S
C99 O97 1.267 . S
Dy100 O104 2.398 . S
Dy100 O105 2.491 . S
Dy100 O106 2.403 . S
Dy100 O107 2.664 . S
Dy100 O111 2.326 . S
Dy100 O115 2.310 . S
Dy100 O116 2.351 . S
C101 O112 1.185 . S
C101 O113 1.355 . S
C102 O104 1.185 . S
C102 O105 1.355 . S
Dy103 O107 2.310 . S
Dy103 O110 2.351 . S
Dy103 O112 2.398 . S
Dy103 O113 2.491 . S
Dy103 O114 2.403 . S
Dy103 O115 2.664 . S
Dy103 O117 2.326 . S
O104 Dy100 2.398 . S
O104 C102 1.185 . S
O105 Dy100 2.491 . S
O105 C102 1.355 . S
O106 Dy100 2.403 . S
O106 C108 1.254 . S
O107 Dy100 2.664 . S
O107 Dy103 2.310 . S
O107 C108 1.268 . S
C108 O106 1.254 . S
C108 O107 1.268 . S
C109 O114 1.254 . S
C109 O115 1.268 . S
O110 Dy103 2.351 . S
O110 C118 1.249 . S
O111 Dy100 2.326 . S
O111 C118 1.267 . S
O112 C101 1.185 . S
O112 Dy103 2.398 . S
O113 C101 1.355 . S
O113 Dy103 2.491 . S
O114 Dy103 2.403 . S
O114 C109 1.254 . S
O115 Dy100 2.310 . S
O115 Dy103 2.664 . S
O115 C109 1.268 . S
O116 Dy100 2.351 . S
O116 C119 1.249 . S
O117 Dy103 2.326 . S
O117 C119 1.267 . S
C118 O110 1.249 . S
C118 O111 1.267 . S
C119 O116 1.249 . S
C119 O117 1.267 . S
Dy120 O124 2.398 . S
Dy120 O125 2.491 . S
Dy120 O126 2.403 . S
Dy120 O127 2.664 . S
Dy120 O131 2.326 . S
Dy120 O135 2.310 . S
Dy120 O136 2.351 . S
C121 O132 1.185 . S
C121 O133 1.355 . S
C122 O124 1.185 . S
C122 O125 1.355 . S
Dy123 O127 2.310 . S
Dy123 O130 2.351 . S
Dy123 O132 2.398 . S
Dy123 O133 2.491 . S
Dy123 O134 2.403 . S
Dy123 O135 2.664 . S
Dy123 O137 2.326 . S
O124 Dy120 2.398 . S
O124 C122 1.185 . S
O125 Dy120 2.491 . S
O125 C122 1.355 . S
O126 Dy120 2.403 . S
O126 C128 1.254 . S
O127 Dy120 2.664 . S
O127 Dy123 2.310 . S
O127 C128 1.268 . S
C128 O126 1.254 . S
C128 O127 1.268 . S
C129 O134 1.254 . S
C129 O135 1.268 . S
O130 Dy123 2.351 . S
O130 C138 1.249 . S
O131 Dy120 2.326 . S
O131 C138 1.267 . S
O132 C121 1.185 . S
O132 Dy123 2.398 . S
O133 C121 1.355 . S
O133 Dy123 2.491 . S
O134 Dy123 2.403 . S
O134 C129 1.254 . S
O135 Dy120 2.310 . S
O135 Dy123 2.664 . S
O135 C129 1.268 . S
O136 Dy120 2.351 . S
O136 C139 1.249 . S
O137 Dy123 2.326 . S
O137 C139 1.267 . S
C138 O130 1.249 . S
C138 O131 1.267 . S
C139 O136 1.249 . S
C139 O137 1.267 . S
Dy140 O144 2.398 . S
Dy140 O145 2.491 . S
Dy140 O146 2.403 . S
Dy140 O147 2.664 . S
Dy140 O151 2.326 . S
Dy140 O155 2.310 . S
Dy140 O156 2.351 . S
C141 O152 1.185 . S
C141 O153 1.355 . S
C142 O144 1.185 . S
C142 O145 1.355 . S
Dy143 O147 2.310 . S
Dy143 O150 2.351 . S
Dy143 O152 2.398 . S
Dy143 O153 2.491 . S
Dy143 O154 2.403 . S
Dy143 O155 2.664 . S
Dy143 O157 2.326 . S
O144 Dy140 2.398 . S
O144 C142 1.185 . S
O145 Dy140 2.491 . S
O145 C142 1.355 . S
O146 Dy140 2.403 . S
O146 C148 1.254 . S
O147 Dy140 2.664 . S
O147 Dy143 2.310 . S
O147 C148 1.268 . S
C148 O146 1.254 . S
C148 O147 1.268 . S
C149 O154 1.254 . S
C149 O155 1.268 . S
O150 Dy143 2.351 . S
O150 C158 1.249 . S
O151 Dy140 2.326 . S
O151 C158 1.267 . S
O152 C141 1.185 . S
O152 Dy143 2.398 . S
O153 C141 1.355 . S
O153 Dy143 2.491 . S
O154 Dy143 2.403 . S
O154 C149 1.254 . S
O155 Dy140 2.310 . S
O155 Dy143 2.664 . S
O155 C149 1.268 . S
O156 Dy140 2.351 . S
O156 C159 1.249 . S
O157 Dy143 2.326 . S
O157 C159 1.267 . S
C158 O150 1.249 . S
C158 O151 1.267 . S
C159 O156 1.249 . S
C159 O157 1.267 . S
Dy160 O164 2.398 . S
Dy160 O165 2.491 . S
Dy160 O166 2.403 . S
Dy160 O167 2.664 . S
Dy160 O171 2.326 . S
Dy160 O175 2.310 . S
Dy160 O176 2.351 . S
C161 O172 1.185 . S
C161 O173 1.355 . S
C162 O164 1.185 . S
C162 O165 1.355 . S
Dy163 O167 2.310 . S
Dy163 O170 2.351 . S
Dy163 O172 2.398 . S
Dy163 O173 2.491 . S
Dy163 O174 2.403 . S
Dy163 O175 2.664 . S
Dy163 O177 2.326 . S
O164 Dy160 2.398 . S
O164 C162 1.185 . S
O165 Dy160 2.491 . S
O165 C162 1.355 . S
O166 Dy160 2.403 . S
O166 C168 1.254 . S
O167 Dy160 2.664 . S
O167 Dy163 2.310 . S
O167 C168 1.268 . S
C168 O166 1.254 . S
C168 O167 1.268 . S
C169 O174 1.254 . S
C169 O175 1.268 . S
O170 Dy163 2.351 . S
O170 C178 1.249 . S
O171 Dy160 2.326 . S
O171 C178 1.267 . S
O172 C161 1.185 . S
O172 Dy163 2.398 . S
O173 C161 1.355 . S
O173 Dy163 2.491 . S
O174 Dy163 2.403 . S
O174 C169 1.254 . S
O175 Dy160 2.310 . S
O175 Dy163 2.664 . S
O175 C169 1.268 . S
O176 Dy160 2.351 . S
O176 C179 1.249 . S
O177 Dy163 2.326 . S
O177 C179 1.267 . S
C178 O170 1.249 . S
C178 O171 1.267 . S
C179 O176 1.249 . S
C179 O177 1.267 . S
Dy180 O184 2.398 . S
Dy180 O185 2.491 . S
Dy180 O186 2.403 . S
Dy180 O187 2.664 . S
Dy180 O191 2.326 . S
Dy180 O195 2.310 . S
Dy180 O196 2.351 . S
C181 O192 1.185 . S
C181 O193 1.355 . S
C182 O184 1.185 . S
C182 O185 1.355 . S
Dy183 O187 2.310 . S
Dy183 O190 2.351 . S
Dy183 O192 2.398 . S
Dy183 O193 2.491 . S
Dy183 O194 2.403 . S
Dy183 O195 2.664 . S
Dy183 O197 2.326 . S
O184 Dy180 2.398 . S
O184 C182 1.185 . S
O185 Dy180 2.491 . S
O185 C182 1.355 . S
O186 Dy180 2.403 . S
O186 C188 1.254 . S
O187 Dy180 2.664 . S
O187 Dy183 2.310 . S
O187 C188 1.268 . S
C188 O186 1.254 . S
C188 O187 1.268 . S
C189 O194 1.254 . S
C189 O195 1.268 . S
O190 Dy183 2.351 . S
O190 C198 1.249 . S
O191 Dy180 2.326 . S
O191 C198 1.267 . S
O192 C181 1.185 . S
O192 Dy183 2.398 . S
O193 C181 1.355 . S
O193 Dy183 2.491 . S
O194 Dy183 2.403 . S
O194 C189 1.254 . S
O195 Dy180 2.310 . S
O195 Dy183 2.664 . S
O195 C189 1.268 . S
O196 Dy180 2.351 . S
O196 C199 1.249 . S
O197 Dy183 2.326 . S
O197 C199 1.267 . S
C198 O190 1.249 . S
C198 O191 1.267 . S
C199 O196 1.249 . S
C199 O197 1.267 . S
Dy200 O204 2.398 . S
Dy200 O205 2.491 . S
Dy200 O206 2.403 . S
Dy200 O207 2.664 . S
Dy200 O211 2.326 . S
Dy200 O215 2.310 . S
Dy200 O216 2.351 . S
C201 O212 1.185 . S
C201 O213 1.355 . S
C202 O204 1.185 . S
C202 O205 1.355 . S
Dy203 O207 2.310 . S
Dy203 O210 2.351 . S
Dy203 O212 2.398 . S
Dy203 O213 2.491 . S
Dy203 O214 2.403 . S
Dy203 O215 2.664 . S
Dy203 O217 2.326 . S
O204 Dy200 2.398 . S
O204 C202 1.185 . S
O205 Dy200 2.491 . S
O205 C202 1.355 . S
O206 Dy200 2.403 . S
O206 C208 1.254 . S
O207 Dy200 2.664 . S
O207 Dy203 2.310 . S
O207 C208 1.268 . S
C208 O206 1.254 . S
C208 O207 1.268 . S
C209 O214 1.254 . S
C209 O215 1.268 . S
O210 Dy203 2.351 . S
O210 C218 1.249 . S
O211 Dy200 2.326 . S
O211 C218 1.267 . S
O212 C201 1.185 . S
O212 Dy203 2.398 . S
O213 C201 1.355 . S
O213 Dy203 2.491 . S
O214 Dy203 2.403 . S
O214 C209 1.254 . S
O215 Dy200 2.310 . S
O215 Dy203 2.664 . S
O215 C209 1.268 . S
O216 Dy200 2.351 . S
O216 C219 1.249 . S
O217 Dy203 2.326 . S
O217 C219 1.267 . S
C218 O210 1.249 . S
C218 O211 1.267 . S
C219 O216 1.249 . S
C219 O217 1.267 . S
Dy220 O224 2.398 . S
Dy220 O225 2.491 . S
Dy220 O226 2.403 . S
Dy220 O227 2.664 . S
Dy220 O231 2.326 . S
Dy220 O235 2.310 . S
Dy220 O236 2.351 . S
C221 O232 1.185 . S
C221 O233 1.355 . S
C222 O224 1.185 . S
C222 O225 1.355 . S
Dy223 O227 2.310 . S
Dy223 O230 2.351 . S
Dy223 O232 2.398 . S
Dy223 O233 2.491 . S
Dy223 O234 2.403 . S
Dy223 O235 2.664 . S
Dy223 O237 2.326 . S
O224 Dy220 2.398 . S
O224 C222 1.185 . S
O225 Dy220 2.491 . S
O225 C222 1.355 . S
O226 Dy220 2.403 . S
O226 C228 1.254 . S
O227 Dy220 2.664 . S
O227 Dy223 2.310 . S
O227 C228 1.268 . S
C228 O226 1.254 . S
C228 O227 1.268 . S
C229 O234 1.254 . S
C229 O235 1.268 . S
O230 Dy223 2.351 . S
O230 C238 1.249 . S
O231 Dy220 2.326 . S
O231 C238 1.267 . S
O232 C221 1.185 . S
O232 Dy223 2.398 . S
O233 C221 1.355 . S
O233 Dy223 2.491 . S
O234 Dy223 2.403 . S
O234 C229 1.254 . S
O235 Dy220 2.310 . S
O235 Dy223 2.664 . S
O235 C229 1.268 . S
O236 Dy220 2.351 . S
O236 C239 1.249 . S
O237 Dy223 2.326 . S
O237 C239 1.267 . S
C238 O230 1.249 . S
C238 O231 1.267 . S
C239 O236 1.249 . S
C239 O237 1.267 . S
H240 C252 0.930 . S
H241 C254 0.930 . S
H242 C255 0.930 . S
H243 C259 0.959 . S
H244 C259 0.959 . S
H245 C259 0.961 . S
H246 C260 0.960 . S
H247 C260 0.961 . S
H248 C260 0.959 . S
H249 C263 0.929 . S
H250 C264 0.931 . S
H251 C266 0.930 . S
C252 H240 0.930 . S
C252 C253 1.399 . S
C252 C257 1.399 1_565 S
C253 C252 1.399 . S
C253 C254 1.376 . S
C254 H241 0.930 . S
C254 C253 1.376 . S
C254 C255 1.388 . S
C255 H242 0.930 . S
C255 C254 1.388 . S
C255 C256 1.390 1_565 S
C256 C255 1.390 1_545 S
C256 C257 1.394 . S
C256 C262 1.465 . S
C257 C252 1.399 1_545 S
C257 C256 1.394 . S
C257 C258 1.516 . S
C258 C257 1.516 . S
C258 C259 1.502 . S
C258 C260 1.561 . S
C258 C261 1.526 . S
C259 H243 0.959 . S
C259 H244 0.959 . S
C259 H245 0.961 . S
C259 C258 1.502 . S
C260 H246 0.960 . S
C260 H247 0.961 . S
C260 H248 0.959 . S
C260 C258 1.561 . S
C261 C258 1.526 . S
C261 C262 1.396 . S
C261 C266 1.390 . S
C262 C256 1.465 . S
C262 C261 1.396 . S
C262 C263 1.399 . S
C263 H249 0.929 . S
C263 C262 1.399 . S
C263 C264 1.385 . S
C264 H250 0.931 . S
C264 C263 1.385 . S
C264 C265 1.389 . S
C265 C264 1.389 . S
C265 C266 1.387 . S
C266 H251 0.930 . S
C266 C261 1.390 . S
C266 C265 1.387 . S
H267 C279 0.930 . S
H268 C281 0.930 . S
H269 C282 0.930 . S
H270 C286 0.959 . S
H271 C286 0.959 . S
H272 C286 0.961 . S
H273 C287 0.960 . S
H274 C287 0.961 . S
H275 C287 0.959 . S
H276 C290 0.929 . S
H277 C291 0.933 . S
H278 C293 0.930 . S
C279 H267 0.930 . S
C279 C280 1.399 . S
C279 C284 1.399 . S
C280 C279 1.399 . S
C280 C281 1.376 . S
C281 H268 0.930 . S
C281 C280 1.376 . S
C281 C282 1.388 . S
C282 H269 0.930 . S
C282 C281 1.388 . S
C282 C283 1.390 . S
C283 C282 1.390 . S
C283 C284 1.394 . S
C283 C289 1.465 . S
C284 C279 1.399 . S
C284 C283 1.394 . S
C284 C285 1.516 . S
C285 C284 1.516 . S
C285 C286 1.502 . S
C285 C287 1.561 . S
C285 C288 1.526 . S
C286 H270 0.959 . S
C286 H271 0.959 . S
C286 H272 0.961 . S
C286 C285 1.502 . S
C287 H273 0.960 . S
C287 H274 0.961 . S
C287 H275 0.959 . S
C287 C285 1.561 . S
C288 C285 1.526 . S
C288 C289 1.396 . S
C288 C293 1.390 . S
C289 C283 1.465 . S
C289 C288 1.396 . S
C289 C290 1.399 . S
C290 H276 0.929 . S
C290 C289 1.399 . S
C290 C291 1.385 . S
C291 H277 0.933 . S
C291 C290 1.385 . S
C291 C292 1.389 . S
C292 C291 1.389 . S
C292 C293 1.387 . S
C293 H278 0.930 . S
C293 C288 1.390 . S
C293 C292 1.387 . S
H294 C306 0.930 . S
H295 C308 0.930 . S
H296 C309 0.930 . S
H297 C313 0.959 . S
H298 C313 0.959 1_455 S
H299 C313 0.961 . S
H300 C314 0.960 . S
H301 C314 0.961 1_455 S
H302 C314 0.959 . S
H303 C317 0.929 . S
H304 C318 0.931 . S
H305 C320 0.930 . S
C306 H294 0.930 . S
C306 C307 1.399 . S
C306 C311 1.399 . S
C307 C306 1.399 . S
C307 C308 1.376 . S
C308 H295 0.930 . S
C308 C307 1.376 . S
C308 C309 1.388 . S
C309 H296 0.930 . S
C309 C308 1.388 . S
C309 C310 1.390 . S
C310 C309 1.390 . S
C310 C311 1.394 . S
C310 C316 1.465 . S
C311 C306 1.399 . S
C311 C310 1.394 . S
C311 C312 1.516 . S
C312 C311 1.516 . S
C312 C313 1.502 . S
C312 C314 1.561 . S
C312 C315 1.526 1_655 S
C313 H297 0.959 . S
C313 H298 0.959 1_655 S
C313 H299 0.961 . S
C313 C312 1.502 . S
C314 H300 0.960 . S
C314 H301 0.961 1_655 S
C314 H302 0.959 . S
C314 C312 1.561 . S
C315 C312 1.526 1_455 S
C315 C316 1.396 1_455 S
C315 C320 1.390 . S
C316 C310 1.465 . S
C316 C315 1.396 1_655 S
C316 C317 1.399 . S
C317 H303 0.929 . S
C317 C316 1.399 . S
C317 C318 1.385 1_655 S
C318 H304 0.931 . S
C318 C317 1.385 1_455 S
C318 C319 1.389 . S
C319 C318 1.389 . S
C319 C320 1.387 . S
C320 H305 0.930 . S
C320 C315 1.390 . S
C320 C319 1.387 . S
H321 C333 0.930 . S
H322 C335 0.930 . S
H323 C336 0.930 . S
H324 C340 0.959 . S
H325 C340 0.959 . S
H326 C340 0.961 . S
H327 C341 0.960 . S
H328 C341 0.961 1_545 S
H329 C341 0.959 . S
H330 C344 0.929 . S
H331 C345 0.931 . S
H332 C347 0.930 . S
C333 H321 0.930 . S
C333 C334 1.399 . S
C333 C338 1.399 . S
C334 C333 1.399 . S
C334 C335 1.376 . S
C335 H322 0.930 . S
C335 C334 1.376 . S
C335 C336 1.388 . S
C336 H323 0.930 . S
C336 C335 1.388 . S
C336 C337 1.390 . S
C337 C336 1.390 . S
C337 C338 1.394 . S
C337 C343 1.465 . S
C338 C333 1.399 . S
C338 C337 1.394 . S
C338 C339 1.516 . S
C339 C338 1.516 . S
C339 C340 1.502 . S
C339 C341 1.561 . S
C339 C342 1.526 . S
C340 H324 0.959 . S
C340 H325 0.959 . S
C340 H326 0.961 . S
C340 C339 1.502 . S
C341 H327 0.960 . S
C341 H328 0.961 1_565 S
C341 H329 0.959 . S
C341 C339 1.561 . S
C342 C339 1.526 . S
C342 C343 1.396 . S
C342 C347 1.390 1_565 S
C343 C337 1.465 . S
C343 C342 1.396 . S
C343 C344 1.399 1_565 S
C344 H330 0.929 . S
C344 C343 1.399 1_545 S
C344 C345 1.385 . S
C345 H331 0.931 . S
C345 C344 1.385 . S
C345 C346 1.389 . S
C346 C345 1.389 . S
C346 C347 1.387 . S
C347 H332 0.930 . S
C347 C342 1.390 1_545 S
C347 C346 1.387 . S
H348 C360 0.930 . S
H349 C362 0.930 . S
H350 C363 0.930 . S
H351 C367 0.959 . S
H352 C367 0.959 . S
H353 C367 0.961 . S
H354 C368 0.960 . S
H355 C368 0.961 . S
H356 C368 0.959 . S
H357 C371 0.929 . S
H358 C372 0.931 . S
H359 C374 0.930 . S
C360 H348 0.930 . S
C360 C361 1.399 . S
C360 C365 1.399 . S
C361 C360 1.399 . S
C361 C362 1.376 . S
C362 H349 0.930 . S
C362 C361 1.376 . S
C362 C363 1.388 . S
C363 H350 0.930 . S
C363 C362 1.388 . S
C363 C364 1.390 . S
C364 C363 1.390 . S
C364 C365 1.394 . S
C364 C370 1.465 . S
C365 C360 1.399 . S
C365 C364 1.394 . S
C365 C366 1.516 . S
C366 C365 1.516 . S
C366 C367 1.502 . S
C366 C368 1.561 . S
C366 C369 1.526 . S
C367 H351 0.959 . S
C367 H352 0.959 . S
C367 H353 0.961 . S
C367 C366 1.502 . S
C368 H354 0.960 . S
C368 H355 0.961 . S
C368 H356 0.959 . S
C368 C366 1.561 . S
C369 C366 1.526 . S
C369 C370 1.396 . S
C369 C374 1.390 . S
C370 C364 1.465 . S
C370 C369 1.396 . S
C370 C371 1.399 . S
C371 H357 0.929 . S
C371 C370 1.399 . S
C371 C372 1.385 . S
C372 H358 0.931 . S
C372 C371 1.385 . S
C372 C373 1.389 . S
C373 C372 1.389 . S
C373 C374 1.387 . S
C374 H359 0.930 . S
C374 C369 1.390 . S
C374 C373 1.387 . S
H375 C387 0.930 . S
H376 C389 0.930 . S
H377 C390 0.930 . S
H378 C394 0.959 . S
H379 C394 0.959 . S
H380 C394 0.961 . S
H381 C395 0.960 . S
H382 C395 0.961 . S
H383 C395 0.959 . S
H384 C398 0.929 . S
H385 C399 0.931 . S
H386 C401 0.930 . S
C387 H375 0.930 . S
C387 C388 1.399 . S
C387 C392 1.399 1_655 S
C388 C387 1.399 . S
C388 C389 1.376 . S
C389 H376 0.930 . S
C389 C388 1.376 . S
C389 C390 1.388 . S
C390 H377 0.930 . S
C390 C389 1.388 . S
C390 C391 1.390 1_655 S
C391 C390 1.390 1_455 S
C391 C392 1.394 . S
C391 C397 1.465 . S
C392 C387 1.399 1_455 S
C392 C391 1.394 . S
C392 C393 1.516 . S
C393 C392 1.516 . S
C393 C394 1.502 . S
C393 C395 1.561 . S
C393 C396 1.526 . S
C394 H378 0.959 . S
C394 H379 0.959 . S
C394 H380 0.961 . S
C394 C393 1.502 . S
C395 H381 0.960 . S
C395 H382 0.961 . S
C395 H383 0.959 . S
C395 C393 1.561 . S
C396 C393 1.526 . S
C396 C397 1.396 . S
C396 C401 1.390 . S
C397 C391 1.465 . S
C397 C396 1.396 . S
C397 C398 1.399 . S
C398 H384 0.929 . S
C398 C397 1.399 . S
C398 C399 1.385 . S
C399 H385 0.931 . S
C399 C398 1.385 . S
C399 C400 1.389 . S
C400 C399 1.389 . S
C400 C401 1.387 . S
C401 H386 0.930 . S
C401 C396 1.390 . S
C401 C400 1.387 . S
H402 C414 0.930 . S
H403 C416 0.930 . S
H404 C417 0.930 . S
H405 C421 0.959 . S
H406 C421 0.959 . S
H407 C421 0.961 . S
H408 C422 0.960 . S
H409 C422 0.961 . S
H410 C422 0.959 . S
H411 C425 0.929 . S
H412 C426 0.931 . S
H413 C428 0.930 . S
C414 H402 0.930 . S
C414 C415 1.399 . S
C414 C419 1.399 1_455 S
C415 C414 1.399 . S
C415 C416 1.376 . S
C416 H403 0.930 . S
C416 C415 1.376 . S
C416 C417 1.388 . S
C417 H404 0.930 . S
C417 C416 1.388 . S
C417 C418 1.390 1_455 S
C418 C417 1.390 1_655 S
C418 C419 1.394 . S
C418 C424 1.465 . S
C419 C414 1.399 1_655 S
C419 C418 1.394 . S
C419 C420 1.516 . S
C420 C419 1.516 . S
C420 C421 1.502 . S
C420 C422 1.561 . S
C420 C423 1.526 . S
C421 H405 0.959 . S
C421 H406 0.959 . S
C421 H407 0.961 . S
C421 C420 1.502 . S
C422 H408 0.960 . S
C422 H409 0.961 . S
C422 H410 0.959 . S
C422 C420 1.561 . S
C423 C420 1.526 . S
C423 C424 1.396 . S
C423 C428 1.390 . S
C424 C418 1.465 . S
C424 C423 1.396 . S
C424 C425 1.399 . S
C425 H411 0.929 . S
C425 C424 1.399 . S
C425 C426 1.385 . S
C426 H412 0.931 . S
C426 C425 1.385 . S
C426 C427 1.389 . S
C427 C426 1.389 . S
C427 C428 1.387 . S
C428 H413 0.930 . S
C428 C423 1.390 . S
C428 C427 1.387 . S
H429 C441 0.930 . S
H430 C443 0.930 . S
H431 C444 0.930 . S
H432 C448 0.959 . S
H433 C448 0.959 . S
H434 C448 0.961 . S
H435 C449 0.960 . S
H436 C449 0.961 1_545 S
H437 C449 0.959 . S
H438 C452 0.929 1_565 S
H439 C453 0.931 . S
H440 C455 0.930 . S
C441 H429 0.930 . S
C441 C442 1.399 . S
C441 C446 1.399 . S
C442 C441 1.399 . S
C442 C443 1.376 . S
C443 H430 0.930 . S
C443 C442 1.376 . S
C443 C444 1.388 . S
C444 H431 0.930 . S
C444 C443 1.388 . S
C444 C445 1.390 . S
C445 C444 1.390 . S
C445 C446 1.394 . S
C445 C451 1.465 . S
C446 C441 1.399 . S
C446 C445 1.394 . S
C446 C447 1.516 . S
C447 C446 1.516 . S
C447 C448 1.502 . S
C447 C449 1.561 . S
C447 C450 1.533 . S
C448 H432 0.959 . S
C448 H433 0.959 . S
C448 H434 0.961 . S
C448 C447 1.502 . S
C449 H435 0.960 . S
C449 H436 0.961 1_565 S
C449 H437 0.959 . S
C449 C447 1.561 . S
C450 C447 1.533 . S
C450 C451 1.399 . S
C450 C455 1.381 1_565 S
C451 C445 1.465 . S
C451 C450 1.399 . S
C451 C452 1.399 1_565 S
C452 H438 0.929 1_545 S
C452 C451 1.399 1_545 S
C452 C453 1.385 . S
C453 H439 0.931 . S
C453 C452 1.385 . S
C453 C454 1.389 . S
C454 C453 1.389 . S
C454 C455 1.387 . S
C455 H440 0.930 . S
C455 C450 1.381 1_545 S
C455 C454 1.387 . S
H456 C468 0.930 . S
H457 C470 0.930 . S
H458 C471 0.930 . S
H459 C475 0.959 . S
H460 C475 0.959 . S
H461 C475 0.961 . S
H462 C476 0.960 . S
H463 C476 0.961 . S
H464 C476 0.959 . S
H465 C479 0.929 . S
H466 C480 0.931 1_565 S
H467 C482 0.930 . S
C468 H456 0.930 . S
C468 C469 1.399 . S
C468 C473 1.399 . S
C469 C468 1.399 . S
C469 C470 1.376 . S
C470 H457 0.930 . S
C470 C469 1.376 . S
C470 C471 1.388 . S
C471 H458 0.930 . S
C471 C470 1.388 . S
C471 C472 1.390 . S
C472 C471 1.390 . S
C472 C473 1.394 . S
C472 C478 1.465 . S
C473 C468 1.399 . S
C473 C472 1.394 . S
C473 C474 1.516 . S
C474 C473 1.516 . S
C474 C475 1.502 . S
C474 C476 1.561 . S
C474 C477 1.526 . S
C475 H459 0.959 . S
C475 H460 0.959 . S
C475 H461 0.961 . S
C475 C474 1.502 . S
C476 H462 0.960 . S
C476 H463 0.961 . S
C476 H464 0.959 . S
C476 C474 1.561 . S
C477 C474 1.526 . S
C477 C478 1.396 . S
C477 C482 1.390 . S
C478 C472 1.465 . S
C478 C477 1.396 . S
C478 C479 1.399 . S
C479 H465 0.929 . S
C479 C478 1.399 . S
C479 C480 1.385 . S
C480 H466 0.931 1_545 S
C480 C479 1.385 . S
C480 C481 1.389 . S
C481 C480 1.389 . S
C481 C482 1.387 . S
C482 H467 0.930 . S
C482 C477 1.390 . S
C482 C481 1.387 . S
H483 C495 0.930 . S
H484 C497 0.930 . S
H485 C498 0.930 . S
H486 C502 0.959 . S
H487 C502 0.959 1_655 S
H488 C502 0.961 . S
H489 C503 0.960 . S
H490 C503 0.961 1_655 S
H491 C503 0.959 . S
H492 C506 0.929 . S
H493 C507 0.931 . S
H494 C509 0.930 . S
C495 H483 0.930 . S
C495 C496 1.399 . S
C495 C500 1.399 . S
C496 C495 1.399 . S
C496 C497 1.376 . S
C497 H484 0.930 . S
C497 C496 1.376 . S
C497 C498 1.388 . S
C498 H485 0.930 . S
C498 C497 1.388 . S
C498 C499 1.390 . S
C499 C498 1.390 . S
C499 C500 1.394 . S
C499 C505 1.465 . S
C500 C495 1.399 . S
C500 C499 1.394 . S
C500 C501 1.516 . S
C501 C500 1.516 . S
C501 C502 1.502 . S
C501 C503 1.561 . S
C501 C504 1.526 1_455 S
C502 H486 0.959 . S
C502 H487 0.959 1_455 S
C502 H488 0.961 . S
C502 C501 1.502 . S
C503 H489 0.960 . S
C503 H490 0.961 1_455 S
C503 H491 0.959 . S
C503 C501 1.561 . S
C504 C501 1.526 1_655 S
C504 C505 1.396 1_655 S
C504 C509 1.390 . S
C505 C499 1.465 . S
C505 C504 1.396 1_455 S
C505 C506 1.399 . S
C506 H492 0.929 . S
C506 C505 1.399 . S
C506 C507 1.385 1_455 S
C507 H493 0.931 . S
C507 C506 1.385 1_655 S
C507 C508 1.389 . S
C508 C507 1.389 . S
C508 C509 1.387 . S
C509 H494 0.930 . S
C509 C504 1.390 . S
C509 C508 1.387 . S
H510 C522 0.930 . S
H511 C524 0.930 1_455 S
H512 C525 0.930 . S
H513 C529 0.959 . S
H514 C529 0.959 . S
H515 C529 0.961 . S
H516 C530 0.960 . S
H517 C530 0.961 . S
H518 C530 0.959 . S
H519 C533 0.929 . S
H520 C534 0.931 . S
H521 C536 0.930 . S
C522 H510 0.930 . S
C522 C523 1.399 . S
C522 C527 1.399 . S
C523 C522 1.399 . S
C523 C524 1.376 . S
C524 H511 0.930 1_655 S
C524 C523 1.376 . S
C524 C525 1.388 . S
C525 H512 0.930 . S
C525 C524 1.388 . S
C525 C526 1.390 . S
C526 C525 1.390 . S
C526 C527 1.394 . S
C526 C532 1.465 . S
C527 C522 1.399 . S
C527 C526 1.394 . S
C527 C528 1.516 . S
C528 C527 1.516 . S
C528 C529 1.502 . S
C528 C530 1.561 . S
C528 C531 1.526 . S
C529 H513 0.959 . S
C529 H514 0.959 . S
C529 H515 0.961 . S
C529 C528 1.502 . S
C530 H516 0.960 . S
C530 H517 0.961 . S
C530 H518 0.959 . S
C530 C528 1.561 . S
C531 C528 1.526 . S
C531 C532 1.396 . S
C531 C536 1.390 1_545 S
C532 C526 1.465 . S
C532 C531 1.396 . S
C532 C533 1.399 1_545 S
C533 H519 0.929 . S
C533 C532 1.399 1_565 S
C533 C534 1.385 . S
C534 H520 0.931 . S
C534 C533 1.385 . S
C534 C535 1.389 . S
C535 C534 1.389 . S
C535 C536 1.387 . S
C536 H521 0.930 . S
C536 C531 1.390 1_565 S
C536 C535 1.387 . S
H537 C549 0.930 . S
H538 C551 0.930 . S
H539 C552 0.930 . S
H540 C556 0.959 . S
H541 C556 0.959 . S
H542 C556 0.961 . S
H543 C557 0.960 . S
H544 C557 0.961 . S
H545 C557 0.959 . S
H546 C560 0.929 . S
H547 C561 0.931 . S
H548 C563 0.930 . S
C549 H537 0.930 . S
C549 C550 1.399 . S
C549 C554 1.399 . S
C550 C549 1.399 . S
C550 C551 1.376 . S
C551 H538 0.930 . S
C551 C550 1.376 . S
C551 C552 1.388 . S
C552 H539 0.930 . S
C552 C551 1.388 . S
C552 C553 1.390 . S
C553 C552 1.390 . S
C553 C554 1.394 . S
C553 C559 1.465 . S
C554 C549 1.399 . S
C554 C553 1.394 . S
C554 C555 1.516 . S
C555 C554 1.516 . S
C555 C556 1.502 . S
C555 C557 1.561 . S
C555 C558 1.526 . S
C556 H540 0.959 . S
C556 H541 0.959 . S
C556 H542 0.961 . S
C556 C555 1.502 . S
C557 H543 0.960 . S
C557 H544 0.961 . S
C557 H545 0.959 . S
C557 C555 1.561 . S
C558 C555 1.526 . S
C558 C559 1.396 . S
C558 C563 1.390 . S
C559 C553 1.465 . S
C559 C558 1.396 . S
C559 C560 1.399 . S
C560 H546 0.929 . S
C560 C559 1.399 . S
C560 C561 1.385 . S
C561 H547 0.931 . S
C561 C560 1.385 . S
C561 C562 1.389 . S
C562 C561 1.389 . S
C562 C563 1.387 . S
C563 H548 0.930 . S
C563 C558 1.390 . S
C563 C562 1.387 . S
H564 C576 0.930 . S
H565 C578 0.930 . S
H566 C579 0.930 . S
H567 C583 0.959 . S
H568 C583 0.959 . S
H569 C583 0.961 . S
H570 C584 0.960 . S
H571 C584 0.961 . S
H572 C584 0.959 . S
H573 C587 0.929 . S
H574 C588 0.931 . S
H575 C590 0.930 . S
C576 H564 0.930 . S
C576 C577 1.399 . S
C576 C581 1.399 . S
C577 C576 1.399 . S
C577 C578 1.376 . S
C578 H565 0.930 . S
C578 C577 1.376 . S
C578 C579 1.388 . S
C579 H566 0.930 . S
C579 C578 1.388 . S
C579 C580 1.390 . S
C580 C579 1.390 . S
C580 C581 1.394 . S
C580 C586 1.465 . S
C581 C576 1.399 . S
C581 C580 1.394 . S
C581 C582 1.516 . S
C582 C581 1.516 . S
C582 C583 1.502 . S
C582 C584 1.561 . S
C582 C585 1.526 . S
C583 H567 0.959 . S
C583 H568 0.959 . S
C583 H569 0.961 . S
C583 C582 1.502 . S
C584 H570 0.960 . S
C584 H571 0.961 . S
C584 H572 0.959 . S
C584 C582 1.561 . S
C585 C582 1.526 . S
C585 C586 1.396 . S
C585 C590 1.390 . S
C586 C580 1.465 . S
C586 C585 1.396 . S
C586 C587 1.399 . S
C587 H573 0.929 . S
C587 C586 1.399 . S
C587 C588 1.385 . S
C588 H574 0.931 . S
C588 C587 1.385 . S
C588 C589 1.389 . S
C589 C588 1.389 . S
C589 C590 1.387 . S
C590 H575 0.930 . S
C590 C585 1.390 . S
C590 C589 1.387 . S
H591 C603 0.930 . S
H592 C605 0.930 . S
H593 C606 0.930 . S
H594 C610 0.959 . S
H595 C610 0.959 . S
H596 C610 0.961 . S
H597 C611 0.960 . S
H598 C611 0.961 . S
H599 C611 0.959 . S
H600 C614 0.929 . S
H601 C615 0.931 . S
H602 C617 0.930 . S
C603 H591 0.930 . S
C603 C604 1.399 . S
C603 C608 1.399 . S
C604 C603 1.399 . S
C604 C605 1.376 . S
C605 H592 0.930 . S
C605 C604 1.376 . S
C605 C606 1.388 . S
C606 H593 0.930 . S
C606 C605 1.388 . S
C606 C607 1.390 . S
C607 C606 1.390 . S
C607 C608 1.394 . S
C607 C613 1.465 . S
C608 C603 1.399 . S
C608 C607 1.394 . S
C608 C609 1.516 . S
C609 C608 1.516 . S
C609 C610 1.502 . S
C609 C611 1.561 . S
C609 C612 1.526 . S
C610 H594 0.959 . S
C610 H595 0.959 . S
C610 H596 0.961 . S
C610 C609 1.502 . S
C611 H597 0.960 . S
C611 H598 0.961 . S
C611 H599 0.959 . S
C611 C609 1.561 . S
C612 C609 1.526 . S
C612 C613 1.396 . S
C612 C617 1.390 . S
C613 C607 1.465 . S
C613 C612 1.396 . S
C613 C614 1.399 . S
C614 H600 0.929 . S
C614 C613 1.399 . S
C614 C615 1.385 . S
C615 H601 0.931 . S
C615 C614 1.385 . S
C615 C616 1.389 . S
C616 C615 1.389 . S
C616 C617 1.387 . S
C617 H602 0.930 . S
C617 C612 1.390 . S
C617 C616 1.387 . S
H618 C630 0.930 . S
H619 C632 0.930 . S
H620 C633 0.930 . S
H621 C637 0.959 . S
H622 C637 0.959 . S
H623 C637 0.961 . S
H624 C638 0.960 . S
H625 C638 0.961 . S
H626 C638 0.959 . S
H627 C641 0.929 . S
H628 C642 0.931 . S
H629 C644 0.930 . S
C630 H618 0.930 . S
C630 C631 1.399 . S
C630 C635 1.399 . S
C631 C630 1.399 . S
C631 C632 1.376 . S
C632 H619 0.930 . S
C632 C631 1.376 . S
C632 C633 1.388 . S
C633 H620 0.930 . S
C633 C632 1.388 . S
C633 C634 1.390 . S
C634 C633 1.390 . S
C634 C635 1.394 . S
C634 C640 1.465 . S
C635 C630 1.399 . S
C635 C634 1.394 . S
C635 C636 1.516 . S
C636 C635 1.516 . S
C636 C637 1.502 . S
C636 C638 1.561 . S
C636 C639 1.526 . S
C637 H621 0.959 . S
C637 H622 0.959 . S
C637 H623 0.961 . S
C637 C636 1.502 . S
C638 H624 0.960 . S
C638 H625 0.961 . S
C638 H626 0.959 . S
C638 C636 1.561 . S
C639 C636 1.526 . S
C639 C640 1.396 . S
C639 C644 1.390 . S
C640 C634 1.465 . S
C640 C639 1.396 . S
C640 C641 1.399 . S
C641 H627 0.929 . S
C641 C640 1.399 . S
C641 C642 1.385 . S
C642 H628 0.931 . S
C642 C641 1.385 . S
C642 C643 1.389 . S
C643 C642 1.389 . S
C643 C644 1.387 . S
C644 H629 0.930 . S
C644 C639 1.390 . S
C644 C643 1.387 . S
H645 C657 0.930 . S
H646 C659 0.930 . S
H647 C660 0.930 . S
H648 C664 0.959 . S
H649 C664 0.959 . S
H650 C664 0.961 . S
H651 C665 0.960 . S
H652 C665 0.961 . S
H653 C665 0.959 . S
H654 C668 0.929 . S
H655 C669 0.931 . S
H656 C671 0.930 . S
C657 H645 0.930 . S
C657 C658 1.399 . S
C657 C662 1.399 . S
C658 C657 1.399 . S
C658 C659 1.376 . S
C659 H646 0.930 . S
C659 C658 1.376 . S
C659 C660 1.388 . S
C660 H647 0.930 . S
C660 C659 1.388 . S
C660 C661 1.390 . S
C661 C660 1.390 . S
C661 C662 1.394 . S
C661 C667 1.465 . S
C662 C657 1.399 . S
C662 C661 1.394 . S
C662 C663 1.516 . S
C663 C662 1.516 . S
C663 C664 1.502 . S
C663 C665 1.561 . S
C663 C666 1.526 . S
C664 H648 0.959 . S
C664 H649 0.959 . S
C664 H650 0.961 . S
C664 C663 1.502 . S
C665 H651 0.960 . S
C665 H652 0.961 . S
C665 H653 0.959 . S
C665 C663 1.561 . S
C666 C663 1.526 . S
C666 C667 1.396 . S
C666 C671 1.390 . S
C667 C661 1.465 . S
C667 C666 1.396 . S
C667 C668 1.399 . S
C668 H654 0.929 . S
C668 C667 1.399 . S
C668 C669 1.385 . S
C669 H655 0.931 . S
C669 C668 1.385 . S
C669 C670 1.389 . S
C670 C669 1.389 . S
C670 C671 1.387 . S
C671 H656 0.930 . S
C671 C666 1.390 . S
C671 C670 1.387 . S
H672 C684 0.930 . S
H673 C686 0.930 . S
H674 C687 0.930 . S
H675 C691 0.959 . S
H676 C691 0.959 . S
H677 C691 0.961 . S
H678 C692 0.960 . S
H679 C692 0.961 . S
H680 C692 0.959 . S
H681 C695 0.929 . S
H682 C696 0.931 . S
H683 C698 0.930 . S
C684 H672 0.930 . S
C684 C685 1.399 . S
C684 C689 1.399 . S
C685 C684 1.399 . S
C685 C686 1.376 . S
C686 H673 0.930 . S
C686 C685 1.376 . S
C686 C687 1.388 . S
C687 H674 0.930 . S
C687 C686 1.388 . S
C687 C688 1.390 . S
C688 C687 1.390 . S
C688 C689 1.394 . S
C688 C694 1.465 . S
C689 C684 1.399 . S
C689 C688 1.394 . S
C689 C690 1.516 . S
C690 C689 1.516 . S
C690 C691 1.502 . S
C690 C692 1.561 . S
C690 C693 1.526 . S
C691 H675 0.959 . S
C691 H676 0.959 . S
C691 H677 0.961 . S
C691 C690 1.502 . S
C692 H678 0.960 . S
C692 H679 0.961 . S
C692 H680 0.959 . S
C692 C690 1.561 . S
C693 C690 1.526 . S
C693 C694 1.396 . S
C693 C698 1.390 . S
C694 C688 1.465 . S
C694 C693 1.396 . S
C694 C695 1.399 . S
C695 H681 0.929 . S
C695 C694 1.399 . S
C695 C696 1.385 . S
C696 H682 0.931 . S
C696 C695 1.385 . S
C696 C697 1.389 . S
C697 C696 1.389 . S
C697 C698 1.387 . S
C698 H683 0.930 . S
C698 C693 1.390 . S
C698 C697 1.387 . S
H699 C711 0.930 . S
H700 C713 0.930 . S
H701 C714 0.930 . S
H702 C718 0.959 . S
H703 C718 0.959 . S
H704 C718 0.961 . S
H705 C719 0.960 . S
H706 C719 0.961 . S
H707 C719 0.959 . S
H708 C722 0.929 . S
H709 C723 0.931 . S
H710 C725 0.930 . S
C711 H699 0.930 . S
C711 C712 1.399 . S
C711 C716 1.399 . S
C712 C711 1.399 . S
C712 C713 1.376 . S
C713 H700 0.930 . S
C713 C712 1.376 . S
C713 C714 1.388 . S
C714 H701 0.930 . S
C714 C713 1.388 . S
C714 C715 1.390 . S
C715 C714 1.390 . S
C715 C716 1.394 . S
C715 C721 1.465 . S
C716 C711 1.399 . S
C716 C715 1.394 . S
C716 C717 1.516 . S
C717 C716 1.516 . S
C717 C718 1.502 . S
C717 C719 1.561 . S
C717 C720 1.526 . S
C718 H702 0.959 . S
C718 H703 0.959 . S
C718 H704 0.961 . S
C718 C717 1.502 . S
C719 H705 0.960 . S
C719 H706 0.961 . S
C719 H707 0.959 . S
C719 C717 1.561 . S
C720 C717 1.526 . S
C720 C721 1.396 . S
C720 C725 1.390 . S
C721 C715 1.465 . S
C721 C720 1.396 . S
C721 C722 1.399 . S
C722 H708 0.929 . S
C722 C721 1.399 . S
C722 C723 1.385 . S
C723 H709 0.931 . S
C723 C722 1.385 . S
C723 C724 1.389 . S
C724 C723 1.389 . S
C724 C725 1.387 . S
C725 H710 0.930 . S
C725 C720 1.390 . S
C725 C724 1.387 . S
H726 C738 0.930 . S
H727 C740 0.930 . S
H728 C741 0.930 . S
H729 C745 0.959 . S
H730 C745 0.959 . S
H731 C745 0.961 . S
H732 C746 0.960 . S
H733 C746 0.961 . S
H734 C746 0.959 . S
H735 C749 0.929 . S
H736 C750 0.931 . S
H737 C752 0.930 . S
C738 H726 0.930 . S
C738 C739 1.399 . S
C738 C743 1.399 . S
C739 C738 1.399 . S
C739 C740 1.376 . S
C740 H727 0.930 . S
C740 C739 1.376 . S
C740 C741 1.388 . S
C741 H728 0.930 . S
C741 C740 1.388 . S
C741 C742 1.390 . S
C742 C741 1.390 . S
C742 C743 1.394 . S
C742 C748 1.465 . S
C743 C738 1.399 . S
C743 C742 1.394 . S
C743 C744 1.516 . S
C744 C743 1.516 . S
C744 C745 1.502 . S
C744 C746 1.561 . S
C744 C747 1.526 . S
C745 H729 0.959 . S
C745 H730 0.959 . S
C745 H731 0.961 . S
C745 C744 1.502 . S
C746 H732 0.960 . S
C746 H733 0.961 . S
C746 H734 0.959 . S
C746 C744 1.561 . S
C747 C744 1.526 . S
C747 C748 1.396 . S
C747 C752 1.390 . S
C748 C742 1.465 . S
C748 C747 1.396 . S
C748 C749 1.399 . S
C749 H735 0.929 . S
C749 C748 1.399 . S
C749 C750 1.385 . S
C750 H736 0.931 . S
C750 C749 1.385 . S
C750 C751 1.389 . S
C751 C750 1.389 . S
C751 C752 1.387 . S
C752 H737 0.930 . S
C752 C747 1.390 . S
C752 C751 1.387 . S
H753 C765 0.930 . S
H754 C767 0.930 . S
H755 C768 0.930 . S
H756 C772 0.959 . S
H757 C772 0.959 . S
H758 C772 0.961 . S
H759 C773 0.960 . S
H760 C773 0.961 . S
H761 C773 0.959 . S
H762 C776 0.929 . S
H763 C777 0.931 . S
H764 C779 0.930 . S
C765 H753 0.930 . S
C765 C766 1.399 . S
C765 C770 1.399 . S
C766 C765 1.399 . S
C766 C767 1.376 . S
C767 H754 0.930 . S
C767 C766 1.376 . S
C767 C768 1.388 . S
C768 H755 0.930 . S
C768 C767 1.388 . S
C768 C769 1.390 . S
C769 C768 1.390 . S
C769 C770 1.394 . S
C769 C775 1.465 . S
C770 C765 1.399 . S
C770 C769 1.394 . S
C770 C771 1.516 . S
C771 C770 1.516 . S
C771 C772 1.502 . S
C771 C773 1.561 . S
C771 C774 1.526 . S
C772 H756 0.959 . S
C772 H757 0.959 . S
C772 H758 0.961 . S
C772 C771 1.502 . S
C773 H759 0.960 . S
C773 H760 0.961 . S
C773 H761 0.959 . S
C773 C771 1.561 . S
C774 C771 1.526 . S
C774 C775 1.396 . S
C774 C779 1.390 . S
C775 C769 1.465 . S
C775 C774 1.396 . S
C775 C776 1.399 . S
C776 H762 0.929 . S
C776 C775 1.399 . S
C776 C777 1.385 . S
C777 H763 0.931 . S
C777 C776 1.385 . S
C777 C778 1.389 . S
C778 C777 1.389 . S
C778 C779 1.387 . S
C779 H764 0.930 . S
C779 C774 1.390 . S
C779 C778 1.387 . S
H780 C792 0.930 . S
H781 C794 0.930 . S
H782 C795 0.930 . S
H783 C799 0.959 . S
H784 C799 0.959 . S
H785 C799 0.961 . S
H786 C800 0.960 . S
H787 C800 0.961 . S
H788 C800 0.959 . S
H789 C803 0.929 . S
H790 C804 0.931 . S
H791 C806 0.930 . S
C792 H780 0.930 . S
C792 C793 1.399 . S
C792 C797 1.399 . S
C793 C792 1.399 . S
C793 C794 1.376 . S
C794 H781 0.930 . S
C794 C793 1.376 . S
C794 C795 1.388 . S
C795 H782 0.930 . S
C795 C794 1.388 . S
C795 C796 1.390 . S
C796 C795 1.390 . S
C796 C797 1.394 . S
C796 C802 1.465 . S
C797 C792 1.399 . S
C797 C796 1.394 . S
C797 C798 1.516 . S
C798 C797 1.516 . S
C798 C799 1.502 . S
C798 C800 1.561 . S
C798 C801 1.526 . S
C799 H783 0.959 . S
C799 H784 0.959 . S
C799 H785 0.961 . S
C799 C798 1.502 . S
C800 H786 0.960 . S
C800 H787 0.961 . S
C800 H788 0.959 . S
C800 C798 1.561 . S
C801 C798 1.526 . S
C801 C802 1.396 . S
C801 C806 1.390 . S
C802 C796 1.465 . S
C802 C801 1.396 . S
C802 C803 1.399 . S
C803 H789 0.929 . S
C803 C802 1.399 . S
C803 C804 1.385 . S
C804 H790 0.931 . S
C804 C803 1.385 . S
C804 C805 1.389 . S
C805 C804 1.389 . S
C805 C806 1.387 . S
C806 H791 0.930 . S
C806 C801 1.390 . S
C806 C805 1.387 . S
H807 C819 0.930 . S
H808 C821 0.930 . S
H809 C822 0.930 . S
H810 C826 0.959 . S
H811 C826 0.959 . S
H812 C826 0.961 . S
H813 C827 0.960 . S
H814 C827 0.961 . S
H815 C827 0.959 . S
H816 C830 0.929 . S
H817 C831 0.931 . S
H818 C833 0.930 . S
C819 H807 0.930 . S
C819 C820 1.399 . S
C819 C824 1.399 . S
C820 C819 1.399 . S
C820 C821 1.376 . S
C821 H808 0.930 . S
C821 C820 1.376 . S
C821 C822 1.388 . S
C822 H809 0.930 . S
C822 C821 1.388 . S
C822 C823 1.390 . S
C823 C822 1.390 . S
C823 C824 1.394 . S
C823 C829 1.465 . S
C824 C819 1.399 . S
C824 C823 1.394 . S
C824 C825 1.516 . S
C825 C824 1.516 . S
C825 C826 1.502 . S
C825 C827 1.561 . S
C825 C828 1.526 . S
C826 H810 0.959 . S
C826 H811 0.959 . S
C826 H812 0.961 . S
C826 C825 1.502 . S
C827 H813 0.960 . S
C827 H814 0.961 . S
C827 H815 0.959 . S
C827 C825 1.561 . S
C828 C825 1.526 . S
C828 C829 1.396 . S
C828 C833 1.390 . S
C829 C823 1.465 . S
C829 C828 1.396 . S
C829 C830 1.399 . S
C830 H816 0.929 . S
C830 C829 1.399 . S
C830 C831 1.385 . S
C831 H817 0.931 . S
C831 C830 1.385 . S
C831 C832 1.389 . S
C832 C831 1.389 . S
C832 C833 1.387 . S
C833 H818 0.930 . S
C833 C828 1.390 . S
C833 C832 1.387 . S
H834 C846 0.930 . S
H835 C848 0.930 . S
H836 C849 0.930 . S
H837 C853 0.959 . S
H838 C853 0.959 . S
H839 C853 0.961 . S
H840 C854 0.960 . S
H841 C854 0.961 . S
H842 C854 0.959 . S
H843 C857 0.929 . S
H844 C858 0.931 . S
H845 C860 0.930 . S
C846 H834 0.930 . S
C846 C847 1.399 . S
C846 C851 1.399 . S
C847 C846 1.399 . S
C847 C848 1.376 . S
C848 H835 0.930 . S
C848 C847 1.376 . S
C848 C849 1.388 . S
C849 H836 0.930 . S
C849 C848 1.388 . S
C849 C850 1.390 . S
C850 C849 1.390 . S
C850 C851 1.394 . S
C850 C856 1.465 . S
C851 C846 1.399 . S
C851 C850 1.394 . S
C851 C852 1.516 . S
C852 C851 1.516 . S
C852 C853 1.502 . S
C852 C854 1.561 . S
C852 C855 1.526 . S
C853 H837 0.959 . S
C853 H838 0.959 . S
C853 H839 0.961 . S
C853 C852 1.502 . S
C854 H840 0.960 . S
C854 H841 0.961 . S
C854 H842 0.959 . S
C854 C852 1.561 . S
C855 C852 1.526 . S
C855 C856 1.396 . S
C855 C860 1.390 . S
C856 C850 1.465 . S
C856 C855 1.396 . S
C856 C857 1.399 . S
C857 H843 0.929 . S
C857 C856 1.399 . S
C857 C858 1.385 . S
C858 H844 0.931 . S
C858 C857 1.385 . S
C858 C859 1.389 . S
C859 C858 1.389 . S
C859 C860 1.387 . S
C860 H845 0.930 . S
C860 C855 1.390 . S
C860 C859 1.387 . S
H861 C873 0.930 . S
H862 C875 0.930 . S
H863 C876 0.930 . S
H864 C880 0.959 . S
H865 C880 0.959 . S
H866 C880 0.961 . S
H867 C881 0.960 . S
H868 C881 0.961 . S
H869 C881 0.959 . S
H870 C884 0.929 . S
H871 C885 0.931 . S
H872 C887 0.930 . S
C873 H861 0.930 . S
C873 C874 1.399 . S
C873 C878 1.399 . S
C874 C873 1.399 . S
C874 C875 1.376 . S
C875 H862 0.930 . S
C875 C874 1.376 . S
C875 C876 1.388 . S
C876 H863 0.930 . S
C876 C875 1.388 . S
C876 C877 1.390 . S
C877 C876 1.390 . S
C877 C878 1.394 . S
C877 C883 1.465 . S
C878 C873 1.399 . S
C878 C877 1.394 . S
C878 C879 1.516 . S
C879 C878 1.516 . S
C879 C880 1.502 . S
C879 C881 1.561 . S
C879 C882 1.526 . S
C880 H864 0.959 . S
C880 H865 0.959 . S
C880 H866 0.961 . S
C880 C879 1.502 . S
C881 H867 0.960 . S
C881 H868 0.961 . S
C881 H869 0.959 . S
C881 C879 1.561 . S
C882 C879 1.526 . S
C882 C883 1.396 . S
C882 C887 1.390 . S
C883 C877 1.465 . S
C883 C882 1.396 . S
C883 C884 1.399 . S
C884 H870 0.929 . S
C884 C883 1.399 . S
C884 C885 1.385 . S
C885 H871 0.931 . S
C885 C884 1.385 . S
C885 C886 1.389 . S
C886 C885 1.389 . S
C886 C887 1.387 . S
C887 H872 0.930 . S
C887 C882 1.390 . S
C887 C886 1.387 . S
H888 C900 0.930 . S
H889 C902 0.930 . S
H890 C903 0.930 . S
H891 C907 0.959 . S
H892 C907 0.959 . S
H893 C907 0.961 . S
H894 C908 0.960 . S
H895 C908 0.961 . S
H896 C908 0.959 . S
H897 C911 0.929 . S
H898 C912 0.931 . S
H899 C914 0.930 . S
C900 H888 0.930 . S
C900 C901 1.399 . S
C900 C905 1.399 . S
C901 C900 1.399 . S
C901 C902 1.376 . S
C902 H889 0.930 . S
C902 C901 1.376 . S
C902 C903 1.388 . S
C903 H890 0.930 . S
C903 C902 1.388 . S
C903 C904 1.390 . S
C904 C903 1.390 . S
C904 C905 1.394 . S
C904 C910 1.465 . S
C905 C900 1.399 . S
C905 C904 1.394 . S
C905 C906 1.516 . S
C906 C905 1.516 . S
C906 C907 1.502 . S
C906 C908 1.561 . S
C906 C909 1.526 . S
C907 H891 0.959 . S
C907 H892 0.959 . S
C907 H893 0.961 . S
C907 C906 1.502 . S
C908 H894 0.960 . S
C908 H895 0.961 . S
C908 H896 0.959 . S
C908 C906 1.561 . S
C909 C906 1.526 . S
C909 C910 1.396 . S
C909 C914 1.390 . S
C910 C904 1.465 . S
C910 C909 1.396 . S
C910 C911 1.399 . S
C911 H897 0.929 . S
C911 C910 1.399 . S
C911 C912 1.385 . S
C912 H898 0.931 . S
C912 C911 1.385 . S
C912 C913 1.389 . S
C913 C912 1.389 . S
C913 C914 1.387 . S
C914 H899 0.930 . S
C914 C909 1.390 . S
C914 C913 1.387 . S
H915 C927 0.930 . S
H916 C929 0.930 . S
H917 C930 0.930 . S
H918 C934 0.959 . S
H919 C934 0.959 . S
H920 C934 0.961 . S
H921 C935 0.960 . S
H922 C935 0.961 . S
H923 C935 0.959 . S
H924 C938 0.929 . S
H925 C939 0.931 . S
H926 C941 0.930 . S
C927 H915 0.930 . S
C927 C928 1.399 . S
C927 C932 1.399 . S
C928 C927 1.399 . S
C928 C929 1.376 . S
C929 H916 0.930 . S
C929 C928 1.376 . S
C929 C930 1.388 . S
C930 H917 0.930 . S
C930 C929 1.388 . S
C930 C931 1.390 . S
C931 C930 1.390 . S
C931 C932 1.394 . S
C931 C937 1.465 . S
C932 C927 1.399 . S
C932 C931 1.394 . S
C932 C933 1.516 . S
C933 C932 1.516 . S
C933 C934 1.502 . S
C933 C935 1.561 . S
C933 C936 1.526 . S
C934 H918 0.959 . S
C934 H919 0.959 . S
C934 H920 0.961 . S
C934 C933 1.502 . S
C935 H921 0.960 . S
C935 H922 0.961 . S
C935 H923 0.959 . S
C935 C933 1.561 . S
C936 C933 1.526 . S
C936 C937 1.396 . S
C936 C941 1.390 . S
C937 C931 1.465 . S
C937 C936 1.396 . S
C937 C938 1.399 . S
C938 H924 0.929 . S
C938 C937 1.399 . S
C938 C939 1.385 . S
C939 H925 0.931 . S
C939 C938 1.385 . S
C939 C940 1.389 . S
C940 C939 1.389 . S
C940 C941 1.387 . S
C941 H926 0.930 . S
C941 C936 1.390 . S
C941 C940 1.387 . S
H942 C954 0.930 . S
H943 C956 0.930 . S
H944 C957 0.930 . S
H945 C961 0.959 . S
H946 C961 0.959 . S
H947 C961 0.961 . S
H948 C962 0.960 . S
H949 C962 0.961 . S
H950 C962 0.959 . S
H951 C965 0.929 . S
H952 C966 0.931 . S
H953 C968 0.930 . S
C954 H942 0.930 . S
C954 C955 1.399 . S
C954 C959 1.399 . S
C955 C954 1.399 . S
C955 C956 1.376 . S
C956 H943 0.930 . S
C956 C955 1.376 . S
C956 C957 1.388 . S
C957 H944 0.930 . S
C957 C956 1.388 . S
C957 C958 1.390 . S
C958 C957 1.390 . S
C958 C959 1.394 . S
C958 C964 1.465 . S
C959 C954 1.399 . S
C959 C958 1.394 . S
C959 C960 1.516 . S
C960 C959 1.516 . S
C960 C961 1.502 . S
C960 C962 1.561 . S
C960 C963 1.526 . S
C961 H945 0.959 . S
C961 H946 0.959 . S
C961 H947 0.961 . S
C961 C960 1.502 . S
C962 H948 0.960 . S
C962 H949 0.961 . S
C962 H950 0.959 . S
C962 C960 1.561 . S
C963 C960 1.526 . S
C963 C964 1.396 . S
C963 C968 1.390 . S
C964 C958 1.465 . S
C964 C963 1.396 . S
C964 C965 1.399 . S
C965 H951 0.929 . S
C965 C964 1.399 . S
C965 C966 1.385 . S
C966 H952 0.931 . S
C966 C965 1.385 . S
C966 C967 1.389 . S
C967 C966 1.389 . S
C967 C968 1.387 . S
C968 H953 0.930 . S
C968 C963 1.390 . S
C968 C967 1.387 . S
H969 C981 0.930 . S
H970 C983 0.930 . S
H971 C984 0.930 . S
H972 C988 0.959 . S
H973 C988 0.959 . S
H974 C988 0.961 . S
H975 C989 0.960 . S
H976 C989 0.961 . S
H977 C989 0.959 . S
H978 C992 0.929 . S
H979 C993 0.931 . S
H980 C995 0.930 . S
C981 H969 0.930 . S
C981 C982 1.399 . S
C981 C986 1.399 . S
C982 C981 1.399 . S
C982 C983 1.376 . S
C983 H970 0.930 . S
C983 C982 1.376 . S
C983 C984 1.388 . S
C984 H971 0.930 . S
C984 C983 1.388 . S
C984 C985 1.390 . S
C985 C984 1.390 . S
C985 C986 1.394 . S
C985 C991 1.465 . S
C986 C981 1.399 . S
C986 C985 1.394 . S
C986 C987 1.516 . S
C987 C986 1.516 . S
C987 C988 1.502 . S
C987 C989 1.561 . S
C987 C990 1.526 . S
C988 H972 0.959 . S
C988 H973 0.959 . S
C988 H974 0.961 . S
C988 C987 1.502 . S
C989 H975 0.960 . S
C989 H976 0.961 . S
C989 H977 0.959 . S
C989 C987 1.561 . S
C990 C987 1.526 . S
C990 C991 1.396 . S
C990 C995 1.390 . S
C991 C985 1.465 . S
C991 C990 1.396 . S
C991 C992 1.399 . S
C992 H978 0.929 . S
C992 C991 1.399 . S
C992 C993 1.385 . S
C993 H979 0.931 . S
C993 C992 1.385 . S
C993 C994 1.389 . S
C994 C993 1.389 . S
C994 C995 1.387 . S
C995 H980 0.930 . S
C995 C990 1.390 . S
C995 C994 1.387 . S
H996 C1008 0.930 . S
H997 C1010 0.930 . S
H998 C1011 0.930 . S
H999 C1015 0.959 . S
H1000 C1015 0.959 . S
H1001 C1015 0.961 . S
H1002 C1016 0.960 . S
H1003 C1016 0.961 . S
H1004 C1016 0.959 . S
H1005 C1019 0.929 . S
H1006 C1020 0.931 . S
H1007 C1022 0.930 . S
C1008 H996 0.930 . S
C1008 C1009 1.399 . S
C1008 C1013 1.399 . S
C1009 C1008 1.399 . S
C1009 C1010 1.376 . S
C1010 H997 0.930 . S
C1010 C1009 1.376 . S
C1010 C1011 1.388 . S
C1011 H998 0.930 . S
C1011 C1010 1.388 . S
C1011 C1012 1.390 . S
C1012 C1011 1.390 . S
C1012 C1013 1.394 . S
C1012 C1018 1.465 . S
C1013 C1008 1.399 . S
C1013 C1012 1.394 . S
C1013 C1014 1.516 . S
C1014 C1013 1.516 . S
C1014 C1015 1.502 . S
C1014 C1016 1.561 . S
C1014 C1017 1.526 . S
C1015 H999 0.959 . S
C1015 H1000 0.959 . S
C1015 H1001 0.961 . S
C1015 C1014 1.502 . S
C1016 H1002 0.960 . S
C1016 H1003 0.961 . S
C1016 H1004 0.959 . S
C1016 C1014 1.561 . S
C1017 C1014 1.526 . S
C1017 C1018 1.396 . S
C1017 C1022 1.390 . S
C1018 C1012 1.465 . S
C1018 C1017 1.396 . S
C1018 C1019 1.399 . S
C1019 H1005 0.929 . S
C1019 C1018 1.399 . S
C1019 C1020 1.385 . S
C1020 H1006 0.931 . S
C1020 C1019 1.385 . S
C1020 C1021 1.389 . S
C1021 C1020 1.389 . S
C1021 C1022 1.387 . S
C1022 H1007 0.930 . S
C1022 C1017 1.390 . S
C1022 C1021 1.387 . S
H1023 C1035 0.930 . S
H1024 C1037 0.930 . S
H1025 C1038 0.930 . S
H1026 C1042 0.959 . S
H1027 C1042 0.959 . S
H1028 C1042 0.961 . S
H1029 C1043 0.960 . S
H1030 C1043 0.961 . S
H1031 C1043 0.959 . S
H1032 C1046 0.929 . S
H1033 C1047 0.931 . S
H1034 C1049 0.930 . S
C1035 H1023 0.930 . S
C1035 C1036 1.399 . S
C1035 C1040 1.399 . S
C1036 C1035 1.399 . S
C1036 C1037 1.376 . S
C1037 H1024 0.930 . S
C1037 C1036 1.376 . S
C1037 C1038 1.388 . S
C1038 H1025 0.930 . S
C1038 C1037 1.388 . S
C1038 C1039 1.390 . S
C1039 C1038 1.390 . S
C1039 C1040 1.394 . S
C1039 C1045 1.465 . S
C1040 C1035 1.399 . S
C1040 C1039 1.394 . S
C1040 C1041 1.516 . S
C1041 C1040 1.516 . S
C1041 C1042 1.502 . S
C1041 C1043 1.561 . S
C1041 C1044 1.526 . S
C1042 H1026 0.959 . S
C1042 H1027 0.959 . S
C1042 H1028 0.961 . S
C1042 C1041 1.502 . S
C1043 H1029 0.960 . S
C1043 H1030 0.961 . S
C1043 H1031 0.959 . S
C1043 C1041 1.561 . S
C1044 C1041 1.526 . S
C1044 C1045 1.396 . S
C1044 C1049 1.390 . S
C1045 C1039 1.465 . S
C1045 C1044 1.396 . S
C1045 C1046 1.399 . S
C1046 H1032 0.929 . S
C1046 C1045 1.399 . S
C1046 C1047 1.385 . S
C1047 H1033 0.931 . S
C1047 C1046 1.385 . S
C1047 C1048 1.389 . S
C1048 C1047 1.389 . S
C1048 C1049 1.387 . S
C1049 H1034 0.930 . S
C1049 C1044 1.390 . S
C1049 C1048 1.387 . S
H1050 C1062 0.930 . S
H1051 C1064 0.930 . S
H1052 C1065 0.930 . S
H1053 C1069 0.959 1_556 S
H1054 C1069 0.959 . S
H1055 C1069 0.961 1_556 S
H1056 C1070 0.960 . S
H1057 C1070 0.961 . S
H1058 C1070 0.959 . S
H1059 C1073 0.929 . S
H1060 C1074 0.931 . S
H1061 C1076 0.930 . S
C1062 H1050 0.930 . S
C1062 C1063 1.399 . S
C1062 C1067 1.399 . S
C1063 C1062 1.399 . S
C1063 C1064 1.376 . S
C1064 H1051 0.930 . S
C1064 C1063 1.376 . S
C1064 C1065 1.388 . S
C1065 H1052 0.930 . S
C1065 C1064 1.388 . S
C1065 C1066 1.390 . S
C1066 C1065 1.390 . S
C1066 C1067 1.394 . S
C1066 C1072 1.465 1_556 S
C1067 C1062 1.399 . S
C1067 C1066 1.394 . S
C1067 C1068 1.516 1_556 S
C1068 C1067 1.516 1_554 S
C1068 C1069 1.502 . S
C1068 C1070 1.561 . S
C1068 C1071 1.526 . S
C1069 H1053 0.959 1_554 S
C1069 H1054 0.959 . S
C1069 H1055 0.961 1_554 S
C1069 C1068 1.502 . S
C1070 H1056 0.960 . S
C1070 H1057 0.961 . S
C1070 H1058 0.959 . S
C1070 C1068 1.561 . S
C1071 C1068 1.526 . S
C1071 C1072 1.396 . S
C1071 C1076 1.390 . S
C1072 C1066 1.465 1_554 S
C1072 C1071 1.396 . S
C1072 C1073 1.399 . S
C1073 H1059 0.929 . S
C1073 C1072 1.399 . S
C1073 C1074 1.385 . S
C1074 H1060 0.931 . S
C1074 C1073 1.385 . S
C1074 C1075 1.389 . S
C1075 C1074 1.389 . S
C1075 C1076 1.387 . S
C1076 H1061 0.930 . S
C1076 C1071 1.390 . S
C1076 C1075 1.387 . S
H1077 C1089 0.930 . S
H1078 C1091 0.930 . S
H1079 C1092 0.930 . S
H1080 C1096 0.959 . S
H1081 C1096 0.959 . S
H1082 C1096 0.961 . S
H1083 C1097 0.960 . S
H1084 C1097 0.961 . S
H1085 C1097 0.959 . S
H1086 C1100 0.923 1_455 S
H1087 C1101 0.931 . S
H1088 C1103 0.930 . S
C1089 H1077 0.930 . S
C1089 C1090 1.399 . S
C1089 C1094 1.399 . S
C1090 C1089 1.399 . S
C1090 C1091 1.376 . S
C1091 H1078 0.930 . S
C1091 C1090 1.376 . S
C1091 C1092 1.388 . S
C1092 H1079 0.930 . S
C1092 C1091 1.388 . S
C1092 C1093 1.390 . S
C1093 C1092 1.390 . S
C1093 C1094 1.394 . S
C1093 C1099 1.465 1_455 S
C1094 C1089 1.399 . S
C1094 C1093 1.394 . S
C1094 C1095 1.516 1_455 S
C1095 C1094 1.516 1_655 S
C1095 C1096 1.502 . S
C1095 C1097 1.561 . S
C1095 C1098 1.526 . S
C1096 H1080 0.959 . S
C1096 H1081 0.959 . S
C1096 H1082 0.961 . S
C1096 C1095 1.502 . S
C1097 H1083 0.960 . S
C1097 H1084 0.961 . S
C1097 H1085 0.959 . S
C1097 C1095 1.561 . S
C1098 C1095 1.526 . S
C1098 C1099 1.396 . S
C1098 C1103 1.390 . S
C1099 C1093 1.465 1_655 S
C1099 C1098 1.396 . S
C1099 C1100 1.397 . S
C1100 H1086 0.923 1_655 S
C1100 C1099 1.397 . S
C1100 C1101 1.394 . S
C1101 H1087 0.931 . S
C1101 C1100 1.394 . S
C1101 C1102 1.389 . S
C1102 C1101 1.389 . S
C1102 C1103 1.387 . S
C1103 H1088 0.930 . S
C1103 C1098 1.390 . S
C1103 C1102 1.387 . S
H1104 C1116 0.930 . S
H1105 C1118 0.930 . S
H1106 C1119 0.938 . S
H1107 C1123 0.959 . S
H1108 C1123 0.959 . S
H1109 C1123 0.961 . S
H1110 C1124 0.960 . S
H1111 C1124 0.961 . S
H1112 C1124 0.959 . S
H1113 C1127 0.936 . S
H1114 C1128 0.931 . S
H1115 C1130 0.930 . S
C1116 H1104 0.930 . S
C1116 C1117 1.399 . S
C1116 C1121 1.399 . S
C1117 C1116 1.399 . S
C1117 C1118 1.376 . S
C1118 H1105 0.930 . S
C1118 C1117 1.376 . S
C1118 C1119 1.381 1_565 S
C1119 H1106 0.938 . S
C1119 C1118 1.381 1_545 S
C1119 C1120 1.389 1_545 S
C1120 C1119 1.389 1_565 S
C1120 C1121 1.394 . S
C1120 C1126 1.465 1_564 S
C1121 C1116 1.399 . S
C1121 C1120 1.394 . S
C1121 C1122 1.516 1_554 S
C1122 C1121 1.516 1_556 S
C1122 C1123 1.502 . S
C1122 C1124 1.561 . S
C1122 C1125 1.526 1_565 S
C1123 H1107 0.959 . S
C1123 H1108 0.959 . S
C1123 H1109 0.961 . S
C1123 C1122 1.502 . S
C1124 H1110 0.960 . S
C1124 H1111 0.961 . S
C1124 H1112 0.959 . S
C1124 C1122 1.561 . S
C1125 C1122 1.526 1_545 S
C1125 C1126 1.396 . S
C1125 C1130 1.390 . S
C1126 C1120 1.465 1_546 S
C1126 C1125 1.396 . S
C1126 C1127 1.398 1_556 S
C1127 H1113 0.936 . S
C1127 C1126 1.398 1_554 S
C1127 C1128 1.379 1_554 S
C1128 H1114 0.931 . S
C1128 C1127 1.379 1_556 S
C1128 C1129 1.389 . S
C1129 C1128 1.389 . S
C1129 C1130 1.387 . S
C1130 H1115 0.930 . S
C1130 C1125 1.390 . S
C1130 C1129 1.387 . S
H1131 C1143 0.930 . S
H1132 C1145 0.930 . S
H1133 C1146 0.930 . S
H1134 C1150 0.959 . S
H1135 C1150 0.959 . S
H1136 C1150 0.961 . S
H1137 C1151 0.960 . S
H1138 C1151 0.961 . S
H1139 C1151 0.959 . S
H1140 C1154 0.929 . S
H1141 C1155 0.931 . S
H1142 C1157 0.930 . S
C1143 H1131 0.930 . S
C1143 C1144 1.399 . S
C1143 C1148 1.399 . S
C1144 C1143 1.399 . S
C1144 C1145 1.376 . S
C1145 H1132 0.930 . S
C1145 C1144 1.376 . S
C1145 C1146 1.388 . S
C1146 H1133 0.930 . S
C1146 C1145 1.388 . S
C1146 C1147 1.390 . S
C1147 C1146 1.390 . S
C1147 C1148 1.394 . S
C1147 C1153 1.465 . S
C1148 C1143 1.399 . S
C1148 C1147 1.394 . S
C1148 C1149 1.516 . S
C1149 C1148 1.516 . S
C1149 C1150 1.502 . S
C1149 C1151 1.561 . S
C1149 C1152 1.526 . S
C1150 H1134 0.959 . S
C1150 H1135 0.959 . S
C1150 H1136 0.961 . S
C1150 C1149 1.502 . S
C1151 H1137 0.960 . S
C1151 H1138 0.961 . S
C1151 H1139 0.959 . S
C1151 C1149 1.561 . S
C1152 C1149 1.526 . S
C1152 C1153 1.396 . S
C1152 C1157 1.390 . S
C1153 C1147 1.465 . S
C1153 C1152 1.396 . S
C1153 C1154 1.399 . S
C1154 H1140 0.929 . S
C1154 C1153 1.399 . S
C1154 C1155 1.385 . S
C1155 H1141 0.931 . S
C1155 C1154 1.385 . S
C1155 C1156 1.389 . S
C1156 C1155 1.389 . S
C1156 C1157 1.387 . S
C1157 H1142 0.930 . S
C1157 C1152 1.390 . S
C1157 C1156 1.387 . S
H1158 C1170 0.930 . S
H1159 C1172 0.930 . S
H1160 C1173 0.930 1_554 S
H1161 C1177 0.959 . S
H1162 C1177 0.959 . S
H1163 C1177 0.961 . S
H1164 C1178 0.960 . S
H1165 C1178 0.961 . S
H1166 C1178 0.959 1_554 S
H1167 C1181 0.929 1_655 S
H1168 C1182 0.931 . S
H1169 C1184 0.930 . S
C1170 H1158 0.930 . S
C1170 C1171 1.399 . S
C1170 C1175 1.399 . S
C1171 C1170 1.399 . S
C1171 C1172 1.376 . S
C1172 H1159 0.930 . S
C1172 C1171 1.376 . S
C1172 C1173 1.388 . S
C1173 H1160 0.930 1_556 S
C1173 C1172 1.388 . S
C1173 C1174 1.390 . S
C1174 C1173 1.390 . S
C1174 C1175 1.394 . S
C1174 C1180 1.465 1_656 S
C1175 C1170 1.399 . S
C1175 C1174 1.394 . S
C1175 C1176 1.516 1_655 S
C1176 C1175 1.516 1_455 S
C1176 C1177 1.502 . S
C1176 C1178 1.561 . S
C1176 C1179 1.526 1_556 S
C1177 H1161 0.959 . S
C1177 H1162 0.959 . S
C1177 H1163 0.961 . S
C1177 C1176 1.502 . S
C1178 H1164 0.960 . S
C1178 H1165 0.961 . S
C1178 H1166 0.959 1_556 S
C1178 C1176 1.561 . S
C1179 C1176 1.526 1_554 S
C1179 C1180 1.396 . S
C1179 C1184 1.390 . S
C1180 C1174 1.465 1_454 S
C1180 C1179 1.396 . S
C1180 C1181 1.399 . S
C1181 H1167 0.929 1_455 S
C1181 C1180 1.399 . S
C1181 C1182 1.385 . S
C1182 H1168 0.931 . S
C1182 C1181 1.385 . S
C1182 C1183 1.389 . S
C1183 C1182 1.389 . S
C1183 C1184 1.387 . S
C1184 H1169 0.930 . S
C1184 C1179 1.390 . S
C1184 C1183 1.387 . S
H1185 C1197 0.930 . S
H1186 C1199 0.930 . S
H1187 C1200 0.930 . S
H1188 C1204 0.959 1_565 S
H1189 C1204 0.959 . S
H1190 C1204 0.961 1_565 S
H1191 C1205 0.960 . S
H1192 C1205 0.961 . S
H1193 C1205 0.959 . S
H1194 C1208 0.929 . S
H1195 C1209 0.931 . S
H1196 C1211 0.930 . S
C1197 H1185 0.930 . S
C1197 C1198 1.399 . S
C1197 C1202 1.399 . S
C1198 C1197 1.399 . S
C1198 C1199 1.376 . S
C1199 H1186 0.930 . S
C1199 C1198 1.376 . S
C1199 C1200 1.388 . S
C1200 H1187 0.930 . S
C1200 C1199 1.388 . S
C1200 C1201 1.390 . S
C1201 C1200 1.390 . S
C1201 C1202 1.394 . S
C1201 C1207 1.465 1_565 S
C1202 C1197 1.399 . S
C1202 C1201 1.394 . S
C1202 C1203 1.516 1_565 S
C1203 C1202 1.516 1_545 S
C1203 C1204 1.502 . S
C1203 C1205 1.561 . S
C1203 C1206 1.526 . S
C1204 H1188 0.959 1_545 S
C1204 H1189 0.959 . S
C1204 H1190 0.961 1_545 S
C1204 C1203 1.502 . S
C1205 H1191 0.960 . S
C1205 H1192 0.961 . S
C1205 H1193 0.959 . S
C1205 C1203 1.561 . S
C1206 C1203 1.526 . S
C1206 C1207 1.396 . S
C1206 C1211 1.390 . S
C1207 C1201 1.465 1_545 S
C1207 C1206 1.396 . S
C1207 C1208 1.399 . S
C1208 H1194 0.929 . S
C1208 C1207 1.399 . S
C1208 C1209 1.385 . S
C1209 H1195 0.931 . S
C1209 C1208 1.385 . S
C1209 C1210 1.389 . S
C1210 C1209 1.389 . S
C1210 C1211 1.387 . S
C1211 H1196 0.930 . S
C1211 C1206 1.390 . S
C1211 C1210 1.387 . S
C253 C99 1.208 . S
C265 C1 1.231 . S
C280 C119 1.198 . S
C292 C21 1.231 1_455 S
C307 C41 1.207 1_545 S
C319 C19 1.199 . S
C334 C61 1.218 . S
C346 C39 1.228 . S
C361 C81 1.225 1_655 S
C373 C59 1.166 . S
C388 C79 1.175 . S
C400 C101 1.228 1_565 S
C415 C179 1.228 . S
C427 C121 1.218 . S
C442 C141 1.217 1_455 S
C454 C199 1.226 . S
C469 C219 1.224 . S
C481 C161 1.229 1_545 S
C496 C181 1.205 . S
C508 C239 1.176 . S
C523 C201 1.225 1_655 S
C535 C139 1.230 . S
C550 C159 1.185 . S
C562 C221 1.206 1_565 S
C577 C98 1.529 . S
C589 C2 1.507 . S
C604 C22 1.504 . S
C616 C118 1.491 . S
C631 C42 1.463 . S
C643 C18 1.534 . S
C658 C62 1.523 . S
C670 C38 1.491 . S
C685 C58 1.538 . S
C697 C82 1.468 . S
C712 C78 1.530 . S
C724 C102 1.505 . S
C739 C178 1.491 . S
C751 C122 1.501 . S
C766 C142 1.468 . S
C778 C198 1.538 . S
C793 C162 1.525 . S
C805 C218 1.493 . S
C820 C238 1.509 . S
C832 C182 1.473 . S
C847 C202 1.526 . S
C859 C138 1.494 . S
C874 C158 1.527 . S
C886 C222 1.509 . S
C901 C209 1.567 . S
C913 C9 1.521 . S
C928 C29 1.597 . S
C940 C229 1.516 . S
C955 C49 1.524 . S
C967 C129 1.562 . S
C982 C69 1.572 . S
C994 C149 1.518 . S
C1009 C89 1.598 . S
C1021 C169 1.519 . S
C1036 C189 1.512 . S
C1048 C109 1.593 . S
C1063 C188 1.936 . S
C1075 C8 1.937 . S
C1090 C208 1.938 . S
C1102 C28 1.930 . S
C1117 C48 1.931 . S
C1129 C228 1.939 . S
C1144 C68 1.928 . S
C1156 C128 1.935 . S
C1171 C148 1.938 . S
C1183 C88 1.931 . S
C1198 C168 1.931 . S
C1210 C108 1.931 . S
