# Generated by pormake.
# Topology smm, (6)-cn, num edge types: 1
# Building blocks:
#     Node 0, Type 0, BuildingBlock: BETFAJ_clean_sbu_0, # of connection points: 6
#     Node 1, Type 0, BuildingBlock: BETFAJ_clean_sbu_0, # of connection points: 6
#     Node 2, Type 0, BuildingBlock: BETFAJ_clean_sbu_0, # of connection points: 6
#     Node 3, Type 0, BuildingBlock: BETFAJ_clean_sbu_0, # of connection points: 6
#     Node 4, Type 0, BuildingBlock: BETFAJ_clean_sbu_0, # of connection points: 6
#     Node 5, Type 0, BuildingBlock: BETFAJ_clean_sbu_0, # of connection points: 6
#     Node 6, Type 0, BuildingBlock: BETFAJ_clean_sbu_0, # of connection points: 6
#     Node 7, Type 0, BuildingBlock: BETFAJ_clean_sbu_0, # of connection points: 6
#     Node 8, Type 0, BuildingBlock: BETFAJ_clean_sbu_0, # of connection points: 6
#     Edge 9, Type (0, 0), BuildingBlock: OJICUG_clean_linker_0, # of connection points: 2
#     Edge 10, Type (0, 0), BuildingBlock: OJICUG_clean_linker_0, # of connection points: 2
#     Edge 11, Type (0, 0), BuildingBlock: OJICUG_clean_linker_0, # of connection points: 2
#     Edge 12, Type (0, 0), BuildingBlock: OJICUG_clean_linker_0, # of connection points: 2
#     Edge 13, Type (0, 0), BuildingBlock: OJICUG_clean_linker_0, # of connection points: 2
#     Edge 14, Type (0, 0), BuildingBlock: OJICUG_clean_linker_0, # of connection points: 2
#     Edge 15, Type (0, 0), BuildingBlock: OJICUG_clean_linker_0, # of connection points: 2
#     Edge 16, Type (0, 0), BuildingBlock: OJICUG_clean_linker_0, # of connection points: 2
#     Edge 17, Type (0, 0), BuildingBlock: OJICUG_clean_linker_0, # of connection points: 2
#     Edge 18, Type (0, 0), BuildingBlock: OJICUG_clean_linker_0, # of connection points: 2
#     Edge 19, Type (0, 0), BuildingBlock: OJICUG_clean_linker_0, # of connection points: 2
#     Edge 20, Type (0, 0), BuildingBlock: OJICUG_clean_linker_0, # of connection points: 2
#     Edge 21, Type (0, 0), BuildingBlock: OJICUG_clean_linker_0, # of connection points: 2
#     Edge 22, Type (0, 0), BuildingBlock: OJICUG_clean_linker_0, # of connection points: 2
#     Edge 23, Type (0, 0), BuildingBlock: OJICUG_clean_linker_0, # of connection points: 2
#     Edge 24, Type (0, 0), BuildingBlock: OJICUG_clean_linker_0, # of connection points: 2
#     Edge 25, Type (0, 0), BuildingBlock: OJICUG_clean_linker_0, # of connection points: 2
#     Edge 26, Type (0, 0), BuildingBlock: OJICUG_clean_linker_0, # of connection points: 2
#     Edge 27, Type (0, 0), BuildingBlock: OJICUG_clean_linker_0, # of connection points: 2
#     Edge 28, Type (0, 0), BuildingBlock: OJICUG_clean_linker_0, # of connection points: 2
#     Edge 29, Type (0, 0), BuildingBlock: OJICUG_clean_linker_0, # of connection points: 2
#     Edge 30, Type (0, 0), BuildingBlock: OJICUG_clean_linker_0, # of connection points: 2
#     Edge 31, Type (0, 0), BuildingBlock: OJICUG_clean_linker_0, # of connection points: 2
#     Edge 32, Type (0, 0), BuildingBlock: OJICUG_clean_linker_0, # of connection points: 2
#     Edge 33, Type (0, 0), BuildingBlock: OJICUG_clean_linker_0, # of connection points: 2
#     Edge 34, Type (0, 0), BuildingBlock: OJICUG_clean_linker_0, # of connection points: 2
#     Edge 35, Type (0, 0), BuildingBlock: OJICUG_clean_linker_0, # of connection points: 2
# Relax obj value: 0.035
# Max RMSD: 0.112
# Mean RMSD: 0.112
data_MOF--net-smm--node1-BETFAJ_clean_sbu_0--edge1-OJICUG_clean_linker_0
_symmetry_space_group_name_H-M    P1
_symmetry_Int_Tables_number       1
_symmetry_cell_setting            triclinic
loop_
_symmetry_equiv_pos_as_xyz
'x, y, z'
_cell_length_a     57.222042
_cell_length_b     57.340119
_cell_length_c     10.351946
_cell_angle_alpha  90.001788
_cell_angle_beta   89.90903
_cell_angle_gamma 120.02653
loop_
_atom_site_label
_atom_site_type_symbol
_atom_site_fract_x
_atom_site_fract_y
_atom_site_fract_z
_atom_type_partial_charge
Sm0 Sm 0.0623 0.22123 -0.01457 0.0
Sm1 Sm 1.01141 0.16586 0.03436 0.0
C2 C 0.09946 0.26721 0.88046 0.0
C3 C 0.10994 0.29626 0.86149 0.0
C4 C 0.09318 0.30765 0.86356 0.0
C5 C 0.10399 0.33527 0.83882 0.0
C6 C 0.13171 0.35189 0.81175 0.0
C7 C 0.14822 0.34015 0.80965 0.0
C8 C 0.13746 0.31273 0.83453 0.0
C9 C 0.05138 0.20706 0.24144 0.0
C10 C 1.00355 0.2182 0.03455 0.0
C11 C 0.97351 0.11779 0.11706 0.0
C12 C 0.96362 0.08883 0.09861 0.0
C13 C 0.98098 0.07918 0.06344 0.0
C14 C 0.97084 0.05146 0.04726 0.0
C15 C 0.94316 0.03295 0.06522 0.0
C16 C 0.92597 0.04286 0.10028 0.0
C17 C 0.93611 0.07047 0.11671 0.0
C18 C 1.02355 0.18004 0.77843 0.0
C19 C 0.07104 0.16985 0.01462 0.0
O20 O 0.07686 0.25033 0.82278 0.0
O21 O 0.10219 0.25902 -0.00541 0.0
O22 O 1.03421 0.20294 0.15562 0.0
O23 O 0.07578 0.22134 0.19631 0.0
O24 O 1.02784 0.23172 0.98098 0.0
O25 O 0.99423 0.19355 0.08015 0.0
O26 O 0.99683 0.1321 0.17466 0.0
O27 O 0.96997 0.13047 0.02082 0.0
O28 O 0.04018 0.18373 0.86616 0.0
O29 O 0.99906 0.16668 0.8223 0.0
O30 O 0.04607 0.15642 0.05991 0.0
O31 O 0.08085 0.19402 0.96244 0.0
H32 H 0.07181 0.29522 0.88379 0.0
H33 H 0.09072 0.34364 0.84236 0.0
H34 H 0.1695 0.35209 0.7868 0.0
H35 H 0.15067 0.30427 0.83107 0.0
H36 H 1.0023 0.09304 0.0483 0.0
H37 H 0.9846 0.04456 0.01904 0.0
H38 H 0.90466 0.02923 0.11695 0.0
H39 H 0.92241 0.07752 0.14414 0.0
Sm40 Sm 0.84552 0.85693 -0.00829 0.0
Sm41 Sm 0.90093 0.86144 0.03971 0.0
C42 C 0.79955 0.84829 0.88746 0.0
C43 C 0.77045 0.8298 0.86823 0.0
C44 C 0.75411 0.84092 0.84059 0.0
C45 C 0.72665 0.82433 0.81532 0.0
C46 C 0.71476 0.7961 0.81768 0.0
C47 C 0.73125 0.78493 0.84552 0.0
C48 C 0.7589 0.80166 0.87067 0.0
C49 C 0.85972 0.86021 0.2475 0.0
C50 C 0.84837 0.80126 0.04014 0.0
C51 C 0.94898 0.87135 0.12141 0.0
C52 C 0.97803 0.89018 0.10181 0.0
C53 C 0.98786 0.91701 0.06367 0.0
C54 C 1.01565 0.93439 0.04649 0.0
C55 C 1.03406 0.9252 0.06648 0.0
C56 C 1.02396 0.89825 0.10422 0.0
C57 C 0.99626 0.88097 0.12162 0.0
C58 C 0.88675 0.8594 0.78398 0.0
C59 C 0.89709 0.91704 0.02035 0.0
O60 O 0.81643 0.8426 0.82921 0.0
O61 O 0.80772 0.85902 0.00191 0.0
O62 O 0.86379 0.84714 0.16155 0.0
O63 O 0.84547 0.87033 0.20266 0.0
O64 O 0.83487 0.812 -0.01328 0.0
O65 O 0.87305 0.81661 0.08573 0.0
O66 O 0.9349 0.88065 0.17887 0.0
O67 O 0.93608 0.85503 0.02584 0.0
O68 O 0.88308 0.87233 0.87189 0.0
O69 O 0.90009 0.84829 0.82753 0.0
O70 O 0.91054 0.90556 0.06545 0.0
O71 O 0.87288 0.90264 0.96848 0.0
H72 H 0.76271 0.86258 0.83686 0.0
H73 H 0.71481 0.83371 0.79193 0.0
H74 H 0.72274 0.7633 0.8493 0.0
H75 H 0.77123 0.79268 0.89145 0.0
H76 H 0.97408 0.92449 0.04709 0.0
H77 H 1.02269 0.95493 0.01612 0.0
H78 H 0.03751 0.89056 0.12242 0.0
H79 H 0.98906 0.86034 0.15125 0.0
Sm80 Sm 0.21085 1.00478 -0.00826 0.0
Sm81 Sm 0.20538 0.05505 0.03946 0.0
C82 C 0.22134 0.96852 0.88941 0.0
C83 C 0.24174 0.96007 0.86921 0.0
C84 C 0.25551 0.96523 0.75061 0.0
C85 C 0.27203 0.95425 0.72365 0.0
C86 C 0.27498 0.93762 0.8142 0.0
C87 C 0.26183 0.93314 0.93432 0.0
C88 C 0.24536 0.94415 0.96137 0.0
C89 C 0.20698 1.01546 0.24718 0.0
C90 C 0.26598 0.06378 0.04182 0.0
C91 C 0.19466 0.09263 0.12028 0.0
C92 C 0.17577 0.1027 0.09919 0.0
C93 C 0.14881 0.08553 0.06278 0.0
C94 C 0.13139 0.09582 0.04465 0.0
C95 C 0.14067 0.12348 0.06192 0.0
C96 C 0.16775 0.14051 0.09788 0.0
C97 C 0.18506 0.13021 0.11624 0.0
C98 C 0.20783 0.04305 0.7839 0.0
C99 C 0.15022 0.99506 0.02133 0.0
O100 O 0.22442 0.98973 0.82661 0.0
O101 O 0.21109 0.96622 0.00518 0.0
O102 O 0.22005 0.0327 0.16147 0.0
O103 O 0.1971 0.99115 0.20223 0.0
O104 O 0.25567 0.03978 -0.01363 0.0
O105 O 0.25017 0.07248 0.08822 0.0
O106 O 0.18521 0.06916 0.17668 0.0
O107 O 0.21153 0.09646 0.02638 0.0
O108 O 0.19498 0.02639 0.8718 0.0
O109 O 0.21866 0.06747 0.8274 0.0
O110 O 0.16145 1.02006 0.06511 0.0
O111 O 0.16489 0.98541 0.97056 0.0
H112 H 0.25283 0.97704 0.67661 0.0
H113 H 0.28162 0.95792 0.62974 0.0
H114 H 0.26397 0.92077 0.00711 0.0
H115 H 0.2349 0.93953 0.05325 0.0
H116 H 0.14126 0.06422 0.04834 0.0
H117 H 0.11075 0.08219 0.01572 0.0
H118 H 0.1755 0.1618 0.11399 0.0
H119 H 0.20578 0.14378 0.14454 0.0
Sm120 Sm 0.72896 0.5551 0.322 0.0
Sm121 Sm 0.67842 0.4995 0.36985 0.0
C122 C 0.76514 0.60203 0.22045 0.0
C123 C 0.77326 0.63081 0.20241 0.0
C124 C 0.7678 0.63957 0.0852 0.0
C125 C 0.77844 0.66707 0.06021 0.0
C126 C 0.79503 0.68651 0.15137 0.0
C127 C 0.79977 0.67768 0.27022 0.0
C128 C 0.78909 0.65021 0.2953 0.0
C129 C 0.71813 0.5406 0.57744 0.0
C130 C 0.66979 0.55123 0.37127 0.0
C131 C 0.64142 0.45075 0.44922 0.0
C132 C 0.63227 0.42189 0.42611 0.0
C133 C 0.635 0.40647 0.5241 0.0
C134 C 0.62493 0.37883 0.50738 0.0
C135 C 0.61168 0.36588 0.39248 0.0
C136 C 0.60927 0.38141 0.29375 0.0
C137 C 0.61943 0.40907 0.31027 0.0
C138 C 0.69051 0.51387 0.11431 0.0
C139 C 0.7386 0.50439 0.3507 0.0
O140 O 0.74394 0.58389 0.15757 0.0
O141 O 0.76759 0.59393 0.33544 0.0
O142 O 0.70089 0.53649 0.49196 0.0
O143 O 0.74252 0.55491 0.53222 0.0
O144 O 0.69398 0.56482 0.31685 0.0
O145 O 0.66072 0.52666 0.41743 0.0
O146 O 0.66462 0.46522 0.50766 0.0
O147 O 0.63724 0.46398 0.35765 0.0
O148 O 0.70719 0.51767 0.20193 0.0
O149 O 0.66603 0.50034 0.15807 0.0
O150 O 0.71355 0.49072 0.39498 0.0
O151 O 0.74835 0.52864 0.29961 0.0
H152 H 0.75602 0.6252 0.0107 0.0
H153 H 0.77458 0.67312 0.96725 0.0
H154 H 0.81212 0.69207 0.34346 0.0
H155 H 0.79392 0.64425 0.38618 0.0
H156 H 0.64454 0.41573 0.61486 0.0
H157 H 0.62686 0.36747 0.58607 0.0
H158 H 0.59948 0.37217 0.20343 0.0
H159 H 0.61692 0.42028 0.23268 0.0
Sm160 Sm 0.5119 0.18975 0.31687 0.0
Sm161 Sm 0.56719 0.194 0.36486 0.0
C162 C 0.46596 0.1812 0.21262 0.0
C163 C 0.43684 0.16269 0.19361 0.0
C164 C 0.42538 0.13456 0.19372 0.0
C165 C 0.39771 0.11782 0.16899 0.0
C166 C 0.3811 0.12898 0.1439 0.0
C167 C 0.3929 0.1572 0.14386 0.0
C168 C 0.42038 0.17379 0.1687 0.0
C169 C 0.52602 0.19288 0.57266 0.0
C170 C 0.51455 0.13392 0.36503 0.0
C171 C 0.61523 0.20383 0.44649 0.0
C172 C 0.64428 0.22277 0.42765 0.0
C173 C 0.65407 0.24963 0.39022 0.0
C174 C 0.68187 0.26712 0.37393 0.0
C175 C 0.70033 0.258 0.39412 0.0
C176 C 0.69028 0.23102 0.43117 0.0
C177 C 0.66257 0.21363 0.44767 0.0
C178 C 0.55307 0.1921 0.10915 0.0
C179 C 0.56355 0.24973 0.34725 0.0
O180 O 0.48284 0.17554 0.1542 0.0
O181 O 0.47414 0.19192 0.32707 0.0
O182 O 0.53005 0.1798 0.48665 0.0
O183 O 0.51184 0.20308 0.52787 0.0
O184 O 0.5011 0.14475 0.31194 0.0
O185 O 0.53925 0.14919 0.41049 0.0
O186 O 0.60107 0.21296 0.50462 0.0
O187 O 0.60242 0.18771 0.35018 0.0
O188 O 0.54947 0.20507 0.1971 0.0
O189 O 0.56628 0.18085 0.15268 0.0
O190 O 0.57689 0.23807 0.39153 0.0
O191 O 0.53933 0.23551 0.29518 0.0
H192 H 0.4378 0.12558 0.21238 0.0
H193 H 0.38929 0.09619 0.17095 0.0
H194 H 0.38096 0.16659 0.1226 0.0
H195 H 0.42889 0.19545 0.16681 0.0
H196 H 0.64025 0.25706 0.37351 0.0
H197 H 0.68888 0.28768 0.34409 0.0
H198 H 0.70386 0.22338 0.4495 0.0
H199 H 0.65541 0.19298 0.47678 0.0
Sm200 Sm 0.87719 0.33788 0.32338 0.0
Sm201 Sm 0.87168 0.38815 0.37105 0.0
C202 C 0.88792 0.30179 0.22116 0.0
C203 C 0.90854 0.29359 0.2019 0.0
C204 C 0.92254 0.29893 0.08386 0.0
C205 C 0.93931 0.2882 0.05777 0.0
C206 C 0.94228 0.27164 0.14863 0.0
C207 C 0.92893 0.26701 0.26827 0.0
C208 C 0.91222 0.27777 0.29446 0.0
C209 C 0.87325 0.34854 0.57879 0.0
C210 C 0.93227 0.39682 0.37409 0.0
C211 C 0.86118 0.42587 0.45214 0.0
C212 C 0.84256 0.43626 0.43119 0.0
C213 C 0.81565 0.41938 0.39325 0.0
C214 C 0.79845 0.42996 0.3756 0.0
C215 C 0.80792 0.45761 0.39495 0.0
C216 C 0.83496 0.47434 0.43222 0.0
C217 C 0.85205 0.46376 0.45009 0.0
C218 C 0.87421 0.37617 0.11551 0.0
C219 C 0.81653 0.32814 0.35206 0.0
O220 O 0.89096 0.32298 0.15842 0.0
O221 O 0.87748 0.29934 0.33658 0.0
O222 O 0.88632 0.36577 0.4931 0.0
O223 O 0.8634 0.32423 0.53385 0.0
O224 O 0.92198 0.37287 0.31826 0.0
O225 O 0.91644 0.40549 0.42048 0.0
O226 O 0.85146 0.40228 0.50781 0.0
O227 O 0.87811 0.42966 0.35855 0.0
O228 O 0.86136 0.35952 0.20336 0.0
O229 O 0.885 0.40059 0.159 0.0
O230 O 0.8277 0.35314 0.39601 0.0
O231 O 0.83124 0.31852 0.30156 0.0
H232 H 0.91984 0.31068 0.0096 0.0
H233 H 0.94906 0.29198 0.96423 0.0
H234 H 0.93107 0.25468 0.34128 0.0
H235 H 0.9016 0.27304 0.38595 0.0
H236 H 0.80795 0.39809 0.37735 0.0
H237 H 0.77784 0.41656 0.34557 0.0
H238 H 0.84285 0.4956 0.44989 0.0
H239 H 0.87274 0.47709 0.47957 0.0
Sm240 Sm 0.39526 0.88794 0.64948 0.0
Sm241 Sm 0.34475 0.83237 0.69768 0.0
C242 C 0.43141 0.93481 0.54733 0.0
C243 C 0.43945 0.96357 0.52878 0.0
C244 C 0.43397 0.97223 0.41133 0.0
C245 C 0.44456 0.99971 0.38592 0.0
C246 C 0.46112 1.01921 0.47686 0.0
C247 C 0.46588 1.01048 0.59596 0.0
C248 C 0.45525 0.98303 0.62147 0.0
C249 C 0.38444 0.87355 0.90507 0.0
C250 C 0.33611 0.88411 0.69848 0.0
C251 C 0.30759 0.78375 0.77781 0.0
C252 C 0.29823 0.7548 0.75648 0.0
C253 C 0.30069 0.73952 0.85603 0.0
C254 C 0.2904 0.71181 0.84114 0.0
C255 C 0.2772 0.69864 0.72652 0.0
C256 C 0.27501 0.71401 0.62629 0.0
C257 C 0.2854 0.74175 0.641 0.0
C258 C 0.35684 0.84665 0.44198 0.0
C259 C 0.40494 0.83727 0.67936 0.0
O260 O 0.41024 0.91661 0.48455 0.0
O261 O 0.43386 0.92681 0.66254 0.0
O262 O 0.3672 0.8694 0.81953 0.0
O263 O 0.40883 0.88784 0.85981 0.0
O264 O 0.3603 0.89769 0.64404 0.0
O265 O 0.32706 0.85957 0.74481 0.0
O266 O 0.33077 0.79822 0.83636 0.0
O267 O 0.30356 0.79688 0.68516 0.0
O268 O 0.37352 0.85047 0.52965 0.0
O269 O 0.33236 0.83315 0.4858 0.0
O270 O 0.37987 0.82358 0.72334 0.0
O271 O 0.4147 0.8615 0.62802 0.0
H272 H 0.42221 0.9578 0.337 0.0
H273 H 0.44069 1.00569 0.2928 0.0
H274 H 0.47821 0.02493 0.66902 0.0
H275 H 0.46009 0.97715 0.71252 0.0
H276 H 0.31019 0.74895 0.94659 0.0
H277 H 0.29215 0.70057 0.92096 0.0
H278 H 0.26527 0.7046 0.53617 0.0
H279 H 0.28308 0.75287 0.56229 0.0
Sm280 Sm 0.17801 0.52212 0.65774 0.0
Sm281 Sm 0.23367 0.52719 0.7054 0.0
C282 C 0.13199 0.51313 0.55279 0.0
C283 C 0.10287 0.49475 0.53315 0.0
C284 C 0.09132 0.46661 0.53137 0.0
C285 C 0.06367 0.45005 0.50553 0.0
C286 C 0.0472 0.46139 0.48113 0.0
C287 C 0.05909 0.48961 0.48305 0.0
C288 C 0.08654 0.50603 0.50905 0.0
C289 C 0.19233 0.52571 0.91343 0.0
C290 C 0.18151 0.46681 0.70911 0.0
C291 C 0.28233 0.53858 0.78459 0.0
C292 C 0.31134 0.55825 0.76288 0.0
C293 C 0.32648 0.57653 0.86092 0.0
C294 C 0.35422 0.59409 0.84564 0.0
C295 C 0.36757 0.59365 0.73217 0.0
C296 C 0.35235 0.57554 0.63344 0.0
C297 C 0.32457 0.55804 0.64854 0.0
C298 C 0.21934 0.52496 0.44985 0.0
C299 C 0.22917 0.58242 0.68712 0.0
O300 O 0.14888 0.50733 0.4954 0.0
O301 O 0.14012 0.52406 0.66691 0.0
O302 O 0.19657 0.51274 0.82762 0.0
O303 O 0.17778 0.53549 0.86861 0.0
O304 O 0.16775 0.47721 0.65483 0.0
O305 O 0.2062 0.48247 0.75386 0.0
O306 O 0.26785 0.5472 0.84384 0.0
O307 O 0.26916 0.52148 0.69185 0.0
O308 O 0.21558 0.53782 0.53774 0.0
O309 O 0.2328 0.51397 0.49336 0.0
O310 O 0.2427 0.57103 0.73198 0.0
O311 O 0.20499 0.56795 0.63501 0.0
H312 H 0.10364 0.4575 0.54933 0.0
H313 H 0.05516 0.4284 0.506 0.0
H314 H 0.04727 0.49915 0.46236 0.0
H315 H 0.09515 0.52771 0.50855 0.0
H316 H 0.31692 0.57695 0.95065 0.0
H317 H 0.36535 0.60752 0.92434 0.0
H318 H 0.36191 0.57487 0.54421 0.0
H319 H 0.31358 0.54417 0.57103 0.0
Sm320 Sm 0.54456 0.67202 0.663 0.0
Sm321 Sm 0.53919 0.72238 0.71032 0.0
C322 C 0.55503 0.63573 0.56089 0.0
C323 C 0.57541 0.62723 0.54103 0.0
C324 C 0.58933 0.63249 0.42282 0.0
C325 C 0.60584 0.62149 0.39612 0.0
C326 C 0.60863 0.60474 0.48652 0.0
C327 C 0.59532 0.60015 0.60627 0.0
C328 C 0.57886 0.61118 0.63305 0.0
C329 C 0.54063 0.68272 0.91826 0.0
C330 C 0.59973 0.73098 0.71368 0.0
C331 C 0.52852 0.76006 0.79017 0.0
C332 C 0.50973 0.77023 0.76803 0.0
C333 C 0.48283 0.75313 0.73057 0.0
C334 C 0.46549 0.76349 0.71158 0.0
C335 C 0.47479 0.79115 0.72904 0.0
C336 C 0.50182 0.80812 0.76587 0.0
C337 C 0.51906 0.79775 0.78509 0.0
C338 C 0.54167 0.71032 0.45494 0.0
C339 C 0.48398 0.6624 0.69254 0.0
O340 O 0.55817 0.65695 0.49806 0.0
O341 O 0.54473 0.63342 0.67654 0.0
O342 O 0.55374 0.69995 0.8326 0.0
O343 O 0.53076 0.6584 0.8734 0.0
O344 O 0.58942 0.70697 0.65832 0.0
O345 O 0.58393 0.73972 0.75969 0.0
O346 O 0.51891 0.73656 0.84652 0.0
O347 O 0.54552 0.76385 0.69697 0.0
O348 O 0.52878 0.69368 0.54282 0.0
O349 O 0.55253 0.73475 0.49834 0.0
O350 O 0.49526 0.68742 0.73599 0.0
O351 O 0.49859 0.65267 0.64195 0.0
H352 H 0.58678 0.64441 0.34891 0.0
H353 H 0.61554 0.62525 0.30249 0.0
H354 H 0.59733 0.58768 0.67896 0.0
H355 H 0.56828 0.60648 0.72462 0.0
H356 H 0.47525 0.73181 0.71603 0.0
H357 H 0.44489 0.7499 0.68193 0.0
H358 H 0.50959 0.8294 0.78211 0.0
H359 H 0.53974 0.81126 0.81414 0.0
C360 C 0.1695 0.39962 0.83546 0.0
C361 C 0.14377 0.38137 0.78686 0.0
H362 H 0.20145 0.44038 0.84856 0.0
C363 C 0.13025 0.39154 0.71244 0.0
H364 H 0.18032 0.39271 0.89538 0.0
C365 C 0.14239 0.41924 0.6861 0.0
C366 C 0.16833 0.43734 0.73346 0.0
H367 H 0.1105 0.37806 0.67253 0.0
H368 H 0.13153 0.42642 0.62819 0.0
C369 C 0.18162 0.42711 0.80878 0.0
C370 C 0.67511 0.75509 0.71765 0.0
C371 C 0.68525 0.77874 0.79215 0.0
H372 H 0.64023 0.72152 0.63302 0.0
C373 C 0.66696 0.78623 0.84025 0.0
H374 H 0.68863 0.74883 0.67807 0.0
C375 C 0.63944 0.77087 0.8132 0.0
C376 C 0.62924 0.74736 0.73797 0.0
H377 H 0.67386 0.80397 0.90012 0.0
H378 H 0.62612 0.77741 0.85267 0.0
C379 C 0.64739 0.73955 0.69089 0.0
C380 C 0.28078 0.89698 0.8172 0.0
C381 C 0.29063 0.92398 0.7816 0.0
H382 H 0.28706 0.86325 0.81782 0.0
C383 C 0.31523 0.93755 0.7137 0.0
H384 H 0.26166 0.88571 0.86721 0.0
C385 C 0.32982 0.92455 0.68434 0.0
C386 C 0.32009 0.89764 0.72177 0.0
H387 H 0.32348 0.9584 0.68535 0.0
H388 H 0.34889 0.93573 0.63387 0.0
C389 C 0.29528 0.88399 0.78767 0.0
C390 C 0.34143 0.08816 0.0427 0.0
C391 C 0.35157 0.1116 0.11882 0.0
H392 H 0.30653 0.05474 0.95732 0.0
C393 C 0.33325 0.11885 0.16905 0.0
H394 H 0.35496 0.08209 0.00144 0.0
C395 C 0.3057 0.10347 0.14251 0.0
C396 C 0.29551 0.08018 0.06569 0.0
H397 H 0.34015 0.13641 0.23022 0.0
H398 H 0.29237 0.10982 0.18365 0.0
C399 C 0.31369 0.0726 0.0165 0.0
C400 C 0.94813 0.23106 0.15166 0.0
C401 C 0.95805 0.2581 0.11665 0.0
H402 H 0.95436 0.19732 0.15216 0.0
C403 C 0.98278 0.27175 0.04981 0.0
H404 H 0.92892 0.21974 0.20081 0.0
C405 C 0.99743 0.25878 0.0209 0.0
C406 C 0.9876 0.23181 0.05767 0.0
H407 H 0.99107 0.29263 0.02188 0.0
H408 H 1.01659 0.27 0.97121 0.0
C409 C 0.96267 0.21811 0.12254 0.0
C410 C 0.80772 0.75453 0.02646 0.0
C411 C 0.83474 0.77171 0.06284 0.0
H412 H 0.77385 0.71427 0.02699 0.0
C413 C 0.84853 0.76052 0.12672 0.0
H414 H 0.79644 0.76244 0.97755 0.0
C415 C 0.8356 0.73302 0.15511 0.0
C416 C 0.80851 0.71584 0.12039 0.0
H417 H 0.86936 0.77303 0.156 0.0
H418 H 0.847 0.72516 0.20339 0.0
C419 C 0.79477 0.72689 0.05465 0.0
C420 C 0.99938 0.45141 0.50501 0.0
C421 C 1.01772 0.44419 0.45462 0.0
H422 H 0.95852 0.4425 0.51856 0.0
C423 C 1.00764 0.42097 0.37696 0.0
H424 H 1.00623 0.46879 0.56732 0.0
C425 C 0.97994 0.40558 0.34952 0.0
C426 C 0.96176 0.41312 0.39895 0.0
H427 H 1.02119 0.41494 0.33551 0.0
H428 H 0.97283 0.38787 0.28926 0.0
C429 C 0.97188 0.4362 0.47719 0.0
C430 C 0.64896 0.6047 0.38686 0.0
C431 C 0.62429 0.5911 0.45416 0.0
H432 H 0.68268 0.60291 0.30758 0.0
C433 C 0.61438 0.56406 0.48933 0.0
H434 H 0.65726 0.62558 0.35888 0.0
C435 C 0.62889 0.55108 0.45993 0.0
C436 C 0.65376 0.56476 0.39457 0.0
H437 H 0.59521 0.55277 0.53887 0.0
H438 H 0.62063 0.53031 0.48971 0.0
C439 C 0.66356 0.5917 0.35761 0.0
C440 C 0.51467 0.09316 0.45126 0.0
C441 C 0.50088 0.10436 0.38759 0.0
H442 H 0.51313 0.05781 0.528 0.0
C443 C 0.47385 0.08721 0.35139 0.0
H444 H 0.53552 0.10564 0.48035 0.0
C445 C 0.46088 0.05957 0.37971 0.0
C446 C 0.47462 0.04852 0.44541 0.0
H447 H 0.46257 0.09514 0.30259 0.0
H448 H 0.43995 0.04695 0.35223 0.0
C449 C 0.50173 0.06567 0.4798 0.0
C450 C 0.09556 0.12073 0.09024 0.0
C451 C 0.12229 0.13467 0.04422 0.0
H452 H 0.05849 0.12081 0.11754 0.0
C453 C 0.13164 0.15986 -0.0155 0.0
H454 H 0.08777 0.10142 0.13785 0.0
C455 C 0.11492 0.17107 0.97346 0.0
C456 C 0.08838 0.15739 0.02174 0.0
H457 H 0.15195 0.17097 0.94601 0.0
H458 H 0.12295 0.19061 0.92783 0.0
C459 C 0.07882 0.13196 0.07924 0.0
C460 C 0.93496 0.96285 0.08455 0.0
C461 C 0.90952 0.94682 0.02711 0.0
H462 H 0.96543 1.00246 0.14251 0.0
C463 C 0.89577 0.9595 0.97834 0.0
H464 H 0.94616 0.9538 0.12318 0.0
C465 C 0.90689 0.98739 -0.01117 0.0
C466 C 0.93208 1.0034 0.04848 0.0
H467 H 0.87623 0.94788 0.9327 0.0
H468 H 0.89572 0.99644 0.94988 0.0
C469 C 0.94611 0.99081 0.095 0.0
C470 C 0.07627 0.97031 0.09411 0.0
C471 C 0.0637 0.94355 0.04977 0.0
H472 H 0.11328 1.00747 0.12047 0.0
C473 C 0.07979 0.93419 -0.00749 0.0
H474 H 0.06457 0.97812 0.13988 0.0
C475 C 0.10777 0.95096 0.98199 0.0
C476 C 0.12041 0.97756 0.02841 0.0
H477 H 0.07075 0.91385 0.95538 0.0
H478 H 0.11948 0.94295 0.93813 0.0
C479 C 0.10428 0.9871 0.08366 0.0
C480 C 0.78262 0.50578 0.31053 0.0
C481 C 0.75599 0.49199 0.35767 0.0
H482 H 0.81963 0.50562 0.28312 0.0
C483 C 0.7463 0.46638 0.41349 0.0
H484 H 0.79075 0.52545 0.26628 0.0
C485 C 0.76294 0.45505 0.42365 0.0
C486 C 0.78972 0.46904 0.37847 0.0
H487 H 0.72591 0.45515 0.45095 0.0
H488 H 0.75501 0.43558 0.46985 0.0
C489 C 0.79926 0.49445 0.32078 0.0
C490 C 0.61353 0.32318 0.42167 0.0
C491 C 0.59976 0.33619 0.37727 0.0
H492 H 0.61313 0.28591 0.44634 0.0
C493 C 0.57419 0.32052 0.32055 0.0
H494 H 0.63339 0.33465 0.4644 0.0
C495 C 0.56257 0.29256 0.30978 0.0
C496 C 0.57623 0.27952 0.35527 0.0
H497 H 0.56284 0.3298 0.28684 0.0
H498 H 0.54272 0.28116 0.26687 0.0
C499 C 0.60194 0.29521 0.41066 0.0
C500 C 0.74245 0.30316 0.42317 0.0
C501 C 0.72998 0.27645 0.37823 0.0
H502 H 0.77939 0.34035 0.45074 0.0
C503 C 0.74619 0.26721 0.32112 0.0
H504 H 0.73066 0.31088 0.46882 0.0
C505 C 0.77417 0.28405 0.31138 0.0
C506 C 0.78671 0.31059 0.35842 0.0
H507 H 0.73724 0.24691 0.2835 0.0
H508 H 0.78596 0.27612 0.2676 0.0
C509 C 0.77047 0.32002 0.41349 0.0
C510 C 0.42965 0.78835 0.75616 0.0
C511 C 0.45643 0.80237 0.71099 0.0
H512 H 0.39249 0.78828 0.7822 0.0
C513 C 0.46582 0.82762 0.6518 0.0
H514 H 0.42182 0.769 0.80348 0.0
C515 C 0.44906 0.83878 0.64018 0.0
C516 C 0.42243 0.82498 0.6874 0.0
H517 H 0.48619 0.8388 0.61405 0.0
H518 H 0.45709 0.85834 0.59485 0.0
C519 C 0.41287 0.79952 0.74461 0.0
C520 C 0.22808 0.62513 0.64666 0.0
C521 C 0.24171 0.6122 0.69407 0.0
H522 H 0.22841 0.66236 0.62061 0.0
C523 C 0.26735 0.62802 0.74993 0.0
H524 H 0.2083 0.61363 0.60328 0.0
C525 C 0.27893 0.656 0.75939 0.0
C526 C 0.26522 0.66892 0.71301 0.0
H527 H 0.27851 0.61881 0.78708 0.0
H528 H 0.29875 0.66755 0.80242 0.0
C529 C 0.2397 0.65314 0.65589 0.0
C530 C 0.43813 0.6549 0.75228 0.0
C531 C 0.45415 0.64501 0.69944 0.0
H532 H 0.39838 0.64668 0.80246 0.0
C533 C 0.44138 0.61826 0.65497 0.0
H534 H 0.44721 0.67543 0.78702 0.0
C535 C 0.41334 0.60175 0.66425 0.0
C536 C 0.39734 0.61154 0.71844 0.0
H537 H 0.45305 0.60992 0.61394 0.0
H538 H 0.40424 0.58109 0.63137 0.0
C539 C 0.41009 0.63837 0.76178 0.0
C540 C 0.05795 0.20025 0.6017 0.0
C541 C 1.03079 0.18698 0.64127 0.0
H542 H 0.08581 0.21703 0.4435 0.0
C543 C 1.01055 0.18022 0.54845 0.0
H544 H 0.07397 0.20563 0.67133 0.0
C545 C 1.01731 0.18662 0.41841 0.0
C546 C 0.04446 0.20001 0.37878 0.0
H547 H 0.98946 0.16995 0.57624 0.0
H548 H 1.00125 0.18115 0.34897 0.0
C549 C 0.06473 0.20674 0.47149 0.0
C550 C 0.88653 0.84623 0.55392 0.0
C551 C 0.87981 0.85971 0.64696 0.0
H552 H 0.88556 0.83599 0.35439 0.0
C553 C 0.86659 0.87361 0.60772 0.0
H554 H 0.89676 0.83541 0.58145 0.0
C555 C 0.8601 0.87389 0.47763 0.0
C556 C 0.86678 0.86034 0.38471 0.0
H557 H 0.86125 0.88425 0.67753 0.0
H558 H 0.84984 0.88468 0.4499 0.0
C559 C 0.88012 0.84658 0.42401 0.0
C560 C 0.22087 0.0561 0.55379 0.0
C561 C 0.2075 0.03586 0.64681 0.0
H562 H 0.23098 0.06546 0.35416 0.0
C563 C 0.19367 1.00876 0.60751 0.0
H564 H 0.23162 0.07714 0.5814 0.0
C565 C 0.19336 1.00204 0.47731 0.0
C566 C 0.2068 1.02231 0.38442 0.0
H567 H 0.1831 0.99276 0.67732 0.0
H568 H 0.18265 0.98101 0.44948 0.0
C569 C 0.22047 0.04939 0.42378 0.0
C570 C 0.68413 0.52016 0.75444 0.0
C571 C 0.71127 0.53358 0.7147 0.0
H572 H 0.65634 0.50355 0.91243 0.0
C573 C 0.73159 0.54041 0.80726 0.0
H574 H 0.66804 0.5146 0.68507 0.0
C575 C 0.72486 0.534 0.93751 0.0
C576 C 0.69771 0.52073 0.97719 0.0
H577 H 0.75265 0.55073 0.77912 0.0
H578 H 0.74089 0.53946 0.00707 0.0
C579 C 0.67742 0.51384 0.88451 0.0
C580 C 0.5265 0.20667 0.80269 0.0
C581 C 0.53308 0.19301 0.70986 0.0
H582 H 0.52774 0.21711 0.00251 0.0
C583 C 0.54634 0.17917 0.74925 0.0
H584 H 0.51632 0.21752 0.77488 0.0
C585 C 0.55275 0.17884 0.87917 0.0
C586 C 0.54613 0.19242 0.97211 0.0
H587 H 0.55169 0.1685 0.6797 0.0
H588 H 0.56291 0.16795 0.90676 0.0
C589 C 0.53301 0.2064 0.93278 0.0
C590 C 0.85971 0.33514 0.80902 0.0
C591 C 0.87309 0.3554 0.71603 0.0
H592 H 0.84953 0.32588 0.0091 0.0
C593 C 0.88675 0.38249 0.7553 0.0
H594 H 0.84902 0.3141 0.78126 0.0
C595 C 0.88717 0.38921 0.88532 0.0
C596 C 0.87387 0.36898 0.97842 0.0
H597 H 0.89721 0.39855 0.68562 0.0
H598 H 0.89791 0.41026 0.91285 0.0
C599 C 0.86006 0.34188 0.93921 0.0
C600 C 0.34374 0.84672 0.21222 0.0
C601 C 0.36403 0.85354 0.30484 0.0
H602 H 0.33435 0.84757 0.01286 0.0
C603 C 0.39117 0.86681 0.26508 0.0
H604 H 0.32266 0.83644 0.24019 0.0
C605 C 0.3979 0.87327 0.13485 0.0
C606 C 0.37758 0.8665 0.04235 0.0
H607 H 0.40722 0.87222 0.33457 0.0
H608 H 0.41896 0.88358 0.10666 0.0
C609 C 0.35045 0.85308 0.08216 0.0
C610 C 0.19249 0.53924 0.14362 0.0
C611 C 0.1994 0.52589 0.05061 0.0
H612 H 0.19345 0.54943 0.34363 0.0
C613 C 0.21297 0.51235 0.08979 0.0
H614 H 0.18206 0.54986 0.11595 0.0
C615 C 0.21936 0.51199 0.21971 0.0
C616 C 0.21241 0.52526 0.31284 0.0
H617 H 0.21859 0.50192 0.0201 0.0
H618 H 0.22977 0.50133 0.24715 0.0
C619 C 0.19898 0.53896 0.27372 0.0
C620 C 0.52744 0.67603 0.27861 0.0
C621 C 0.5413 0.70312 0.31788 0.0
H622 H 0.51634 0.64827 0.12058 0.0
C623 C 0.55464 0.72336 0.22484 0.0
H624 H 0.51689 0.66003 0.34847 0.0
C625 C 0.55419 0.71666 0.09481 0.0
C626 C 0.54049 0.68957 0.05548 0.0
H627 H 0.56542 0.74441 0.25243 0.0
H628 H 0.56468 0.73271 0.02516 0.0
C629 C 0.52707 0.6693 0.1484 0.0
loop_
_geom_bond_atom_site_label_1
_geom_bond_atom_site_label_2
_geom_bond_distance
_geom_bond_site_symmetry_2
_ccdc_geom_bond_type
Sm0 C2 2.846 1_554 S
Sm0 O20 2.543 1_554 S
Sm0 O21 2.450 . S
Sm0 O22 2.681 . S
Sm0 O23 2.464 . S
Sm0 O24 2.396 . S
Sm0 O28 2.386 1_554 S
Sm0 O31 2.408 . S
Sm1 C11 2.846 1_556 S
Sm1 O22 2.386 1_656 S
Sm1 O25 2.408 1_556 S
Sm1 O26 2.543 1_556 S
Sm1 O27 2.450 . S
Sm1 O28 2.681 1_655 S
Sm1 O29 2.464 . S
Sm1 O30 2.396 1_655 S
C2 Sm0 2.846 1_556 S
C2 C3 1.506 . S
C2 O20 1.261 . S
C2 O21 1.242 1_556 S
C3 C2 1.506 . S
C3 C4 1.358 . S
C3 C8 1.382 1_556 S
C4 C3 1.358 . S
C4 C5 1.385 . S
C4 H32 0.930 . S
C5 C4 1.385 . S
C5 C6 1.395 . S
C5 H33 0.929 . S
C6 C5 1.395 . S
C6 C7 1.335 1_556 S
C7 C6 1.335 1_554 S
C7 C8 1.398 . S
C7 H34 0.930 . S
C8 C3 1.382 1_554 S
C8 C7 1.398 . S
C8 H35 0.929 . S
C9 O22 1.271 . S
C9 O23 1.251 . S
C10 O24 1.252 1_655 S
C10 O25 1.272 . S
C11 Sm1 2.846 1_554 S
C11 C12 1.506 . S
C11 O26 1.261 . S
C11 O27 1.242 1_554 S
C12 C11 1.506 . S
C12 C13 1.358 . S
C12 C17 1.382 1_554 S
C13 C12 1.358 . S
C13 C14 1.385 . S
C13 H36 0.930 . S
C14 C13 1.385 . S
C14 C15 1.395 . S
C14 H37 0.929 . S
C15 C14 1.395 . S
C15 C16 1.335 1_554 S
C16 C15 1.335 1_556 S
C16 C17 1.398 . S
C16 H38 0.930 . S
C17 C12 1.382 1_556 S
C17 C16 1.398 . S
C17 H39 0.929 . S
C18 O28 1.271 1_655 S
C18 O29 1.251 . S
C19 O30 1.252 . S
C19 O31 1.272 1_556 S
O20 Sm0 2.543 1_556 S
O20 C2 1.261 . S
O21 Sm0 2.450 . S
O21 C2 1.242 1_554 S
O22 Sm0 2.681 . S
O22 Sm1 2.386 1_454 S
O22 C9 1.271 . S
O23 Sm0 2.464 . S
O23 C9 1.251 . S
O24 Sm0 2.396 . S
O24 C10 1.252 1_455 S
O25 Sm1 2.408 1_554 S
O25 C10 1.272 . S
O26 Sm1 2.543 1_554 S
O26 C11 1.261 . S
O27 Sm1 2.450 . S
O27 C11 1.242 1_556 S
O28 Sm0 2.386 1_556 S
O28 Sm1 2.681 1_455 S
O28 C18 1.271 1_455 S
O29 Sm1 2.464 . S
O29 C18 1.251 . S
O30 Sm1 2.396 1_455 S
O30 C19 1.252 . S
O31 Sm0 2.408 . S
O31 C19 1.272 1_554 S
H32 C4 0.930 . S
H33 C5 0.929 . S
H34 C7 0.930 . S
H35 C8 0.929 . S
H36 C13 0.930 . S
H37 C14 0.929 . S
H38 C16 0.930 . S
H39 C17 0.929 . S
Sm40 C42 2.846 1_554 S
Sm40 O60 2.543 1_554 S
Sm40 O61 2.450 . S
Sm40 O62 2.681 . S
Sm40 O63 2.464 . S
Sm40 O64 2.396 . S
Sm40 O68 2.386 1_554 S
Sm40 O71 2.408 . S
Sm41 C51 2.846 1_556 S
Sm41 O62 2.386 1_556 S
Sm41 O65 2.408 1_556 S
Sm41 O66 2.543 1_556 S
Sm41 O67 2.450 . S
Sm41 O68 2.681 . S
Sm41 O69 2.464 . S
Sm41 O70 2.396 . S
C42 Sm40 2.846 1_556 S
C42 C43 1.506 . S
C42 O60 1.261 . S
C42 O61 1.242 1_556 S
C43 C42 1.506 . S
C43 C44 1.358 . S
C43 C48 1.382 1_556 S
C44 C43 1.358 . S
C44 C45 1.385 . S
C44 H72 0.930 . S
C45 C44 1.385 . S
C45 C46 1.395 . S
C45 H73 0.929 . S
C46 C45 1.395 . S
C46 C47 1.335 1_556 S
C47 C46 1.335 1_554 S
C47 C48 1.398 . S
C47 H74 0.930 . S
C48 C43 1.382 1_554 S
C48 C47 1.398 . S
C48 H75 0.929 . S
C49 O62 1.271 . S
C49 O63 1.251 . S
C50 O64 1.252 . S
C50 O65 1.272 . S
C51 Sm41 2.846 1_554 S
C51 C52 1.506 . S
C51 O66 1.261 . S
C51 O67 1.242 1_554 S
C52 C51 1.506 . S
C52 C53 1.358 . S
C52 C57 1.382 1_554 S
C53 C52 1.358 . S
C53 C54 1.385 . S
C53 H76 0.930 . S
C54 C53 1.385 . S
C54 C55 1.395 1_655 S
C54 H77 0.929 . S
C55 C54 1.395 1_455 S
C55 C56 1.335 1_454 S
C56 C55 1.335 1_656 S
C56 C57 1.398 . S
C56 H78 0.930 1_655 S
C57 C52 1.382 1_556 S
C57 C56 1.398 . S
C57 H79 0.929 . S
C58 O68 1.271 . S
C58 O69 1.251 . S
C59 O70 1.252 . S
C59 O71 1.272 1_556 S
O60 Sm40 2.543 1_556 S
O60 C42 1.261 . S
O61 Sm40 2.450 . S
O61 C42 1.242 1_554 S
O62 Sm40 2.681 . S
O62 Sm41 2.386 1_554 S
O62 C49 1.271 . S
O63 Sm40 2.464 . S
O63 C49 1.251 . S
O64 Sm40 2.396 . S
O64 C50 1.252 . S
O65 Sm41 2.408 1_554 S
O65 C50 1.272 . S
O66 Sm41 2.543 1_554 S
O66 C51 1.261 . S
O67 Sm41 2.450 . S
O67 C51 1.242 1_556 S
O68 Sm40 2.386 1_556 S
O68 Sm41 2.681 . S
O68 C58 1.271 . S
O69 Sm41 2.464 . S
O69 C58 1.251 . S
O70 Sm41 2.396 . S
O70 C59 1.252 . S
O71 Sm40 2.408 . S
O71 C59 1.272 1_554 S
H72 C44 0.930 . S
H73 C45 0.929 . S
H74 C47 0.930 . S
H75 C48 0.929 . S
H76 C53 0.930 . S
H77 C54 0.929 . S
H78 C56 0.930 1_455 S
H79 C57 0.929 . S
Sm80 C82 2.846 1_554 S
Sm80 O100 2.543 1_554 S
Sm80 O101 2.450 . S
Sm80 O102 2.681 1_565 S
Sm80 O103 2.464 . S
Sm80 O104 2.396 1_565 S
Sm80 O108 2.386 1_564 S
Sm80 O111 2.408 . S
Sm81 C91 2.846 1_556 S
Sm81 O102 2.386 1_556 S
Sm81 O105 2.408 1_556 S
Sm81 O106 2.543 1_556 S
Sm81 O107 2.450 . S
Sm81 O108 2.681 . S
Sm81 O109 2.464 . S
Sm81 O110 2.396 . S
C82 Sm80 2.846 1_556 S
C82 C83 1.506 . S
C82 O100 1.261 . S
C82 O101 1.242 1_556 S
C83 C82 1.506 . S
C83 C84 1.358 . S
C83 C88 1.382 1_556 S
C84 C83 1.358 . S
C84 C85 1.385 . S
C84 H112 0.930 . S
C85 C84 1.385 . S
C85 C86 1.395 . S
C85 H113 0.929 . S
C86 C85 1.395 . S
C86 C87 1.335 1_556 S
C87 C86 1.335 1_554 S
C87 C88 1.398 . S
C87 H114 0.930 . S
C88 C83 1.382 1_554 S
C88 C87 1.398 . S
C88 H115 0.929 . S
C89 O102 1.271 1_565 S
C89 O103 1.251 . S
C90 O104 1.252 . S
C90 O105 1.272 . S
C91 Sm81 2.846 1_554 S
C91 C92 1.506 . S
C91 O106 1.261 . S
C91 O107 1.242 1_554 S
C92 C91 1.506 . S
C92 C93 1.358 . S
C92 C97 1.382 1_554 S
C93 C92 1.358 . S
C93 C94 1.385 . S
C93 H116 0.930 . S
C94 C93 1.385 . S
C94 C95 1.395 . S
C94 H117 0.929 . S
C95 C94 1.395 . S
C95 C96 1.335 1_554 S
C96 C95 1.335 1_556 S
C96 C97 1.398 . S
C96 H118 0.930 . S
C97 C92 1.382 1_556 S
C97 C96 1.398 . S
C97 H119 0.929 . S
C98 O108 1.271 . S
C98 O109 1.251 . S
C99 O110 1.252 1_565 S
C99 O111 1.272 1_556 S
O100 Sm80 2.543 1_556 S
O100 C82 1.261 . S
O101 Sm80 2.450 . S
O101 C82 1.242 1_554 S
O102 Sm80 2.681 1_545 S
O102 Sm81 2.386 1_554 S
O102 C89 1.271 1_545 S
O103 Sm80 2.464 . S
O103 C89 1.251 . S
O104 Sm80 2.396 1_545 S
O104 C90 1.252 . S
O105 Sm81 2.408 1_554 S
O105 C90 1.272 . S
O106 Sm81 2.543 1_554 S
O106 C91 1.261 . S
O107 Sm81 2.450 . S
O107 C91 1.242 1_556 S
O108 Sm80 2.386 1_546 S
O108 Sm81 2.681 . S
O108 C98 1.271 . S
O109 Sm81 2.464 . S
O109 C98 1.251 . S
O110 Sm81 2.396 . S
O110 C99 1.252 1_545 S
O111 Sm80 2.408 . S
O111 C99 1.272 1_554 S
H112 C84 0.930 . S
H113 C85 0.929 . S
H114 C87 0.930 . S
H115 C88 0.929 . S
H116 C93 0.930 . S
H117 C94 0.929 . S
H118 C96 0.930 . S
H119 C97 0.929 . S
Sm120 C122 2.846 . S
Sm120 O140 2.543 . S
Sm120 O141 2.450 . S
Sm120 O142 2.681 . S
Sm120 O143 2.464 . S
Sm120 O144 2.396 . S
Sm120 O148 2.386 . S
Sm120 O151 2.408 . S
Sm121 C131 2.846 . S
Sm121 O142 2.386 . S
Sm121 O145 2.408 . S
Sm121 O146 2.543 . S
Sm121 O147 2.450 . S
Sm121 O148 2.681 . S
Sm121 O149 2.464 . S
Sm121 O150 2.396 . S
C122 Sm120 2.846 . S
C122 C123 1.506 . S
C122 O140 1.261 . S
C122 O141 1.242 . S
C123 C122 1.506 . S
C123 C124 1.358 . S
C123 C128 1.382 . S
C124 C123 1.358 . S
C124 C125 1.385 . S
C124 H152 0.930 . S
C125 C124 1.385 . S
C125 C126 1.395 . S
C125 H153 0.929 . S
C126 C125 1.395 . S
C126 C127 1.335 . S
C127 C126 1.335 . S
C127 C128 1.398 . S
C127 H154 0.930 . S
C128 C123 1.382 . S
C128 C127 1.398 . S
C128 H155 0.929 . S
C129 O142 1.271 . S
C129 O143 1.251 . S
C130 O144 1.252 . S
C130 O145 1.272 . S
C131 Sm121 2.846 . S
C131 C132 1.506 . S
C131 O146 1.261 . S
C131 O147 1.242 . S
C132 C131 1.506 . S
C132 C133 1.358 . S
C132 C137 1.382 . S
C133 C132 1.358 . S
C133 C134 1.385 . S
C133 H156 0.930 . S
C134 C133 1.385 . S
C134 C135 1.395 . S
C134 H157 0.929 . S
C135 C134 1.395 . S
C135 C136 1.335 . S
C136 C135 1.335 . S
C136 C137 1.398 . S
C136 H158 0.930 . S
C137 C132 1.382 . S
C137 C136 1.398 . S
C137 H159 0.929 . S
C138 O148 1.271 . S
C138 O149 1.251 . S
C139 O150 1.252 . S
C139 O151 1.272 . S
O140 Sm120 2.543 . S
O140 C122 1.261 . S
O141 Sm120 2.450 . S
O141 C122 1.242 . S
O142 Sm120 2.681 . S
O142 Sm121 2.386 . S
O142 C129 1.271 . S
O143 Sm120 2.464 . S
O143 C129 1.251 . S
O144 Sm120 2.396 . S
O144 C130 1.252 . S
O145 Sm121 2.408 . S
O145 C130 1.272 . S
O146 Sm121 2.543 . S
O146 C131 1.261 . S
O147 Sm121 2.450 . S
O147 C131 1.242 . S
O148 Sm120 2.386 . S
O148 Sm121 2.681 . S
O148 C138 1.271 . S
O149 Sm121 2.464 . S
O149 C138 1.251 . S
O150 Sm121 2.396 . S
O150 C139 1.252 . S
O151 Sm120 2.408 . S
O151 C139 1.272 . S
H152 C124 0.930 . S
H153 C125 0.929 . S
H154 C127 0.930 . S
H155 C128 0.929 . S
H156 C133 0.930 . S
H157 C134 0.929 . S
H158 C136 0.930 . S
H159 C137 0.929 . S
Sm160 C162 2.846 . S
Sm160 O180 2.543 . S
Sm160 O181 2.450 . S
Sm160 O182 2.681 . S
Sm160 O183 2.464 . S
Sm160 O184 2.396 . S
Sm160 O188 2.386 . S
Sm160 O191 2.408 . S
Sm161 C171 2.846 . S
Sm161 O182 2.386 . S
Sm161 O185 2.408 . S
Sm161 O186 2.543 . S
Sm161 O187 2.450 . S
Sm161 O188 2.681 . S
Sm161 O189 2.464 . S
Sm161 O190 2.396 . S
C162 Sm160 2.846 . S
C162 C163 1.506 . S
C162 O180 1.261 . S
C162 O181 1.242 . S
C163 C162 1.506 . S
C163 C164 1.358 . S
C163 C168 1.382 . S
C164 C163 1.358 . S
C164 C165 1.385 . S
C164 H192 0.930 . S
C165 C164 1.385 . S
C165 C166 1.395 . S
C165 H193 0.929 . S
C166 C165 1.395 . S
C166 C167 1.335 . S
C167 C166 1.335 . S
C167 C168 1.398 . S
C167 H194 0.930 . S
C168 C163 1.382 . S
C168 C167 1.398 . S
C168 H195 0.929 . S
C169 O182 1.271 . S
C169 O183 1.251 . S
C170 O184 1.252 . S
C170 O185 1.272 . S
C171 Sm161 2.846 . S
C171 C172 1.506 . S
C171 O186 1.261 . S
C171 O187 1.242 . S
C172 C171 1.506 . S
C172 C173 1.358 . S
C172 C177 1.382 . S
C173 C172 1.358 . S
C173 C174 1.385 . S
C173 H196 0.930 . S
C174 C173 1.385 . S
C174 C175 1.395 . S
C174 H197 0.929 . S
C175 C174 1.395 . S
C175 C176 1.335 . S
C176 C175 1.335 . S
C176 C177 1.398 . S
C176 H198 0.930 . S
C177 C172 1.382 . S
C177 C176 1.398 . S
C177 H199 0.929 . S
C178 O188 1.271 . S
C178 O189 1.251 . S
C179 O190 1.252 . S
C179 O191 1.272 . S
O180 Sm160 2.543 . S
O180 C162 1.261 . S
O181 Sm160 2.450 . S
O181 C162 1.242 . S
O182 Sm160 2.681 . S
O182 Sm161 2.386 . S
O182 C169 1.271 . S
O183 Sm160 2.464 . S
O183 C169 1.251 . S
O184 Sm160 2.396 . S
O184 C170 1.252 . S
O185 Sm161 2.408 . S
O185 C170 1.272 . S
O186 Sm161 2.543 . S
O186 C171 1.261 . S
O187 Sm161 2.450 . S
O187 C171 1.242 . S
O188 Sm160 2.386 . S
O188 Sm161 2.681 . S
O188 C178 1.271 . S
O189 Sm161 2.464 . S
O189 C178 1.251 . S
O190 Sm161 2.396 . S
O190 C179 1.252 . S
O191 Sm160 2.408 . S
O191 C179 1.272 . S
H192 C164 0.930 . S
H193 C165 0.929 . S
H194 C167 0.930 . S
H195 C168 0.929 . S
H196 C173 0.930 . S
H197 C174 0.929 . S
H198 C176 0.930 . S
H199 C177 0.929 . S
Sm200 C202 2.846 . S
Sm200 O220 2.543 . S
Sm200 O221 2.450 . S
Sm200 O222 2.681 . S
Sm200 O223 2.464 . S
Sm200 O224 2.396 . S
Sm200 O228 2.386 . S
Sm200 O231 2.408 . S
Sm201 C211 2.846 . S
Sm201 O222 2.386 . S
Sm201 O225 2.408 . S
Sm201 O226 2.543 . S
Sm201 O227 2.450 . S
Sm201 O228 2.681 . S
Sm201 O229 2.464 . S
Sm201 O230 2.396 . S
C202 Sm200 2.846 . S
C202 C203 1.506 . S
C202 O220 1.261 . S
C202 O221 1.242 . S
C203 C202 1.506 . S
C203 C204 1.358 . S
C203 C208 1.382 . S
C204 C203 1.358 . S
C204 C205 1.385 . S
C204 H232 0.930 . S
C205 C204 1.385 . S
C205 C206 1.395 . S
C205 H233 0.929 . S
C206 C205 1.395 . S
C206 C207 1.335 . S
C207 C206 1.335 . S
C207 C208 1.398 . S
C207 H234 0.930 . S
C208 C203 1.382 . S
C208 C207 1.398 . S
C208 H235 0.929 . S
C209 O222 1.271 . S
C209 O223 1.251 . S
C210 O224 1.252 . S
C210 O225 1.272 . S
C211 Sm201 2.846 . S
C211 C212 1.506 . S
C211 O226 1.261 . S
C211 O227 1.242 . S
C212 C211 1.506 . S
C212 C213 1.358 . S
C212 C217 1.382 . S
C213 C212 1.358 . S
C213 C214 1.385 . S
C213 H236 0.930 . S
C214 C213 1.385 . S
C214 C215 1.395 . S
C214 H237 0.929 . S
C215 C214 1.395 . S
C215 C216 1.335 . S
C216 C215 1.335 . S
C216 C217 1.398 . S
C216 H238 0.930 . S
C217 C212 1.382 . S
C217 C216 1.398 . S
C217 H239 0.929 . S
C218 O228 1.271 . S
C218 O229 1.251 . S
C219 O230 1.252 . S
C219 O231 1.272 . S
O220 Sm200 2.543 . S
O220 C202 1.261 . S
O221 Sm200 2.450 . S
O221 C202 1.242 . S
O222 Sm200 2.681 . S
O222 Sm201 2.386 . S
O222 C209 1.271 . S
O223 Sm200 2.464 . S
O223 C209 1.251 . S
O224 Sm200 2.396 . S
O224 C210 1.252 . S
O225 Sm201 2.408 . S
O225 C210 1.272 . S
O226 Sm201 2.543 . S
O226 C211 1.261 . S
O227 Sm201 2.450 . S
O227 C211 1.242 . S
O228 Sm200 2.386 . S
O228 Sm201 2.681 . S
O228 C218 1.271 . S
O229 Sm201 2.464 . S
O229 C218 1.251 . S
O230 Sm201 2.396 . S
O230 C219 1.252 . S
O231 Sm200 2.408 . S
O231 C219 1.272 . S
H232 C204 0.930 . S
H233 C205 0.929 . S
H234 C207 0.930 . S
H235 C208 0.929 . S
H236 C213 0.930 . S
H237 C214 0.929 . S
H238 C216 0.930 . S
H239 C217 0.929 . S
Sm240 C242 2.846 . S
Sm240 O260 2.543 . S
Sm240 O261 2.450 . S
Sm240 O262 2.681 . S
Sm240 O263 2.464 . S
Sm240 O264 2.396 . S
Sm240 O268 2.386 . S
Sm240 O271 2.408 . S
Sm241 C251 2.846 . S
Sm241 O262 2.386 . S
Sm241 O265 2.408 . S
Sm241 O266 2.543 . S
Sm241 O267 2.450 . S
Sm241 O268 2.681 . S
Sm241 O269 2.464 . S
Sm241 O270 2.396 . S
C242 Sm240 2.846 . S
C242 C243 1.506 . S
C242 O260 1.261 . S
C242 O261 1.242 . S
C243 C242 1.506 . S
C243 C244 1.358 . S
C243 C248 1.382 . S
C244 C243 1.358 . S
C244 C245 1.385 . S
C244 H272 0.930 . S
C245 C244 1.385 . S
C245 C246 1.395 1_565 S
C245 H273 0.929 . S
C246 C245 1.395 1_545 S
C246 C247 1.335 1_545 S
C247 C246 1.335 1_565 S
C247 C248 1.398 . S
C247 H274 0.930 1_565 S
C248 C243 1.382 . S
C248 C247 1.398 . S
C248 H275 0.929 . S
C249 O262 1.271 . S
C249 O263 1.251 . S
C250 O264 1.252 . S
C250 O265 1.272 . S
C251 Sm241 2.846 . S
C251 C252 1.506 . S
C251 O266 1.261 . S
C251 O267 1.242 . S
C252 C251 1.506 . S
C252 C253 1.358 . S
C252 C257 1.382 . S
C253 C252 1.358 . S
C253 C254 1.385 . S
C253 H276 0.930 . S
C254 C253 1.385 . S
C254 C255 1.395 . S
C254 H277 0.929 . S
C255 C254 1.395 . S
C255 C256 1.335 . S
C256 C255 1.335 . S
C256 C257 1.398 . S
C256 H278 0.930 . S
C257 C252 1.382 . S
C257 C256 1.398 . S
C257 H279 0.929 . S
C258 O268 1.271 . S
C258 O269 1.251 . S
C259 O270 1.252 . S
C259 O271 1.272 . S
O260 Sm240 2.543 . S
O260 C242 1.261 . S
O261 Sm240 2.450 . S
O261 C242 1.242 . S
O262 Sm240 2.681 . S
O262 Sm241 2.386 . S
O262 C249 1.271 . S
O263 Sm240 2.464 . S
O263 C249 1.251 . S
O264 Sm240 2.396 . S
O264 C250 1.252 . S
O265 Sm241 2.408 . S
O265 C250 1.272 . S
O266 Sm241 2.543 . S
O266 C251 1.261 . S
O267 Sm241 2.450 . S
O267 C251 1.242 . S
O268 Sm240 2.386 . S
O268 Sm241 2.681 . S
O268 C258 1.271 . S
O269 Sm241 2.464 . S
O269 C258 1.251 . S
O270 Sm241 2.396 . S
O270 C259 1.252 . S
O271 Sm240 2.408 . S
O271 C259 1.272 . S
H272 C244 0.930 . S
H273 C245 0.929 . S
H274 C247 0.930 1_545 S
H275 C248 0.929 . S
H276 C253 0.930 . S
H277 C254 0.929 . S
H278 C256 0.930 . S
H279 C257 0.929 . S
Sm280 C282 2.846 . S
Sm280 O300 2.543 . S
Sm280 O301 2.450 . S
Sm280 O302 2.681 . S
Sm280 O303 2.464 . S
Sm280 O304 2.396 . S
Sm280 O308 2.386 . S
Sm280 O311 2.408 . S
Sm281 C291 2.846 . S
Sm281 O302 2.386 . S
Sm281 O305 2.408 . S
Sm281 O306 2.543 . S
Sm281 O307 2.450 . S
Sm281 O308 2.681 . S
Sm281 O309 2.464 . S
Sm281 O310 2.396 . S
C282 Sm280 2.846 . S
C282 C283 1.506 . S
C282 O300 1.261 . S
C282 O301 1.242 . S
C283 C282 1.506 . S
C283 C284 1.358 . S
C283 C288 1.382 . S
C284 C283 1.358 . S
C284 C285 1.385 . S
C284 H312 0.930 . S
C285 C284 1.385 . S
C285 C286 1.395 . S
C285 H313 0.929 . S
C286 C285 1.395 . S
C286 C287 1.335 . S
C287 C286 1.335 . S
C287 C288 1.398 . S
C287 H314 0.966 . S
C288 C283 1.382 . S
C288 C287 1.398 . S
C288 H315 0.929 . S
C289 O302 1.271 . S
C289 O303 1.251 . S
C290 O304 1.252 . S
C290 O305 1.272 . S
C291 Sm281 2.846 . S
C291 C292 1.506 . S
C291 O306 1.261 . S
C291 O307 1.242 . S
C292 C291 1.506 . S
C292 C293 1.358 . S
C292 C297 1.382 . S
C293 C292 1.358 . S
C293 C294 1.385 . S
C293 H316 0.930 . S
C294 C293 1.385 . S
C294 C295 1.395 . S
C294 H317 0.929 . S
C295 C294 1.395 . S
C295 C296 1.335 . S
C296 C295 1.335 . S
C296 C297 1.398 . S
C296 H318 0.930 . S
C297 C292 1.382 . S
C297 C296 1.398 . S
C297 H319 0.929 . S
C298 O308 1.271 . S
C298 O309 1.251 . S
C299 O310 1.252 . S
C299 O311 1.272 . S
O300 Sm280 2.543 . S
O300 C282 1.261 . S
O301 Sm280 2.450 . S
O301 C282 1.242 . S
O302 Sm280 2.681 . S
O302 Sm281 2.386 . S
O302 C289 1.271 . S
O303 Sm280 2.464 . S
O303 C289 1.251 . S
O304 Sm280 2.396 . S
O304 C290 1.252 . S
O305 Sm281 2.408 . S
O305 C290 1.272 . S
O306 Sm281 2.543 . S
O306 C291 1.261 . S
O307 Sm281 2.450 . S
O307 C291 1.242 . S
O308 Sm280 2.386 . S
O308 Sm281 2.681 . S
O308 C298 1.271 . S
O309 Sm281 2.464 . S
O309 C298 1.251 . S
O310 Sm281 2.396 . S
O310 C299 1.252 . S
O311 Sm280 2.408 . S
O311 C299 1.272 . S
H312 C284 0.930 . S
H313 C285 0.929 . S
H314 C287 0.966 . S
H315 C288 0.929 . S
H316 C293 0.930 . S
H317 C294 0.929 . S
H318 C296 0.930 . S
H319 C297 0.929 . S
Sm320 C322 2.846 . S
Sm320 O340 2.543 . S
Sm320 O341 2.450 . S
Sm320 O342 2.681 . S
Sm320 O343 2.464 . S
Sm320 O344 2.396 . S
Sm320 O348 2.386 . S
Sm320 O351 2.408 . S
Sm321 C331 2.846 . S
Sm321 O342 2.386 . S
Sm321 O345 2.408 . S
Sm321 O346 2.543 . S
Sm321 O347 2.450 . S
Sm321 O348 2.681 . S
Sm321 O349 2.464 . S
Sm321 O350 2.396 . S
C322 Sm320 2.846 . S
C322 C323 1.506 . S
C322 O340 1.261 . S
C322 O341 1.242 . S
C323 C322 1.506 . S
C323 C324 1.358 . S
C323 C328 1.382 . S
C324 C323 1.358 . S
C324 C325 1.385 . S
C324 H352 0.930 . S
C325 C324 1.385 . S
C325 C326 1.395 . S
C325 H353 0.929 . S
C326 C325 1.395 . S
C326 C327 1.335 . S
C327 C326 1.335 . S
C327 C328 1.398 . S
C327 H354 0.930 . S
C328 C323 1.382 . S
C328 C327 1.398 . S
C328 H355 0.929 . S
C329 O342 1.271 . S
C329 O343 1.251 . S
C330 O344 1.252 . S
C330 O345 1.272 . S
C331 Sm321 2.846 . S
C331 C332 1.506 . S
C331 O346 1.261 . S
C331 O347 1.242 . S
C332 C331 1.506 . S
C332 C333 1.358 . S
C332 C337 1.382 . S
C333 C332 1.358 . S
C333 C334 1.385 . S
C333 H356 0.930 . S
C334 C333 1.385 . S
C334 C335 1.395 . S
C334 H357 0.929 . S
C335 C334 1.395 . S
C335 C336 1.335 . S
C336 C335 1.335 . S
C336 C337 1.398 . S
C336 H358 0.930 . S
C337 C332 1.382 . S
C337 C336 1.398 . S
C337 H359 0.929 . S
C338 O348 1.271 . S
C338 O349 1.251 . S
C339 O350 1.252 . S
C339 O351 1.272 . S
O340 Sm320 2.543 . S
O340 C322 1.261 . S
O341 Sm320 2.450 . S
O341 C322 1.242 . S
O342 Sm320 2.681 . S
O342 Sm321 2.386 . S
O342 C329 1.271 . S
O343 Sm320 2.464 . S
O343 C329 1.251 . S
O344 Sm320 2.396 . S
O344 C330 1.252 . S
O345 Sm321 2.408 . S
O345 C330 1.272 . S
O346 Sm321 2.543 . S
O346 C331 1.261 . S
O347 Sm321 2.450 . S
O347 C331 1.242 . S
O348 Sm320 2.386 . S
O348 Sm321 2.681 . S
O348 C338 1.271 . S
O349 Sm321 2.464 . S
O349 C338 1.251 . S
O350 Sm321 2.396 . S
O350 C339 1.252 . S
O351 Sm320 2.408 . S
O351 C339 1.272 . S
H352 C324 0.930 . S
H353 C325 0.929 . S
H354 C327 0.930 . S
H355 C328 0.929 . S
H356 C333 0.930 . S
H357 C334 0.929 . S
H358 C336 0.930 . S
H359 C337 0.929 . S
C360 C361 1.387 . S
C360 H364 0.950 1_556 S
C360 C369 1.390 . S
C361 C360 1.387 . S
C361 C363 1.387 . S
H362 C369 0.950 . S
C363 C361 1.387 . S
C363 C365 1.390 . S
C363 H367 0.950 . S
H364 C360 0.950 1_554 S
C365 C363 1.390 . S
C365 C366 1.387 . S
C365 H368 0.950 . S
C366 C365 1.387 . S
C366 C369 1.387 . S
H367 C363 0.950 . S
H368 C365 0.950 . S
C369 C360 1.390 . S
C369 H362 0.950 . S
C369 C366 1.387 . S
C370 C371 1.387 . S
C370 H374 0.950 . S
C370 C379 1.390 . S
C371 C370 1.387 . S
C371 C373 1.387 . S
H372 C379 0.950 . S
C373 C371 1.387 . S
C373 C375 1.390 . S
C373 H377 0.950 . S
H374 C370 0.950 . S
C375 C373 1.390 . S
C375 C376 1.387 . S
C375 H378 0.950 . S
C376 C375 1.387 . S
C376 C379 1.387 . S
H377 C373 0.950 . S
H378 C375 0.950 . S
C379 C370 1.390 . S
C379 H372 0.950 . S
C379 C376 1.387 . S
C380 C381 1.387 . S
C380 H384 0.950 . S
C380 C389 1.390 . S
C381 C380 1.387 . S
C381 C383 1.387 . S
H382 C389 0.950 . S
C383 C381 1.387 . S
C383 C385 1.390 . S
C383 H387 0.950 . S
H384 C380 0.950 . S
C385 C383 1.390 . S
C385 C386 1.387 . S
C385 H388 0.950 . S
C386 C385 1.387 . S
C386 C389 1.387 . S
H387 C383 0.950 . S
H388 C385 0.950 . S
C389 C380 1.390 . S
C389 H382 0.950 . S
C389 C386 1.387 . S
C390 C391 1.387 . S
C390 H394 0.950 . S
C390 C399 1.390 . S
C391 C390 1.387 . S
C391 C393 1.387 . S
H392 C399 0.950 1_556 S
C393 C391 1.387 . S
C393 C395 1.390 . S
C393 H397 0.950 . S
H394 C390 0.950 . S
C395 C393 1.390 . S
C395 C396 1.387 . S
C395 H398 0.950 . S
C396 C395 1.387 . S
C396 C399 1.387 . S
H397 C393 0.950 . S
H398 C395 0.950 . S
C399 C390 1.390 . S
C399 H392 0.950 1_554 S
C399 C396 1.387 . S
C400 C401 1.387 . S
C400 H404 0.950 . S
C400 C409 1.390 . S
C401 C400 1.387 . S
C401 C403 1.387 . S
H402 C409 0.950 . S
C403 C401 1.387 . S
C403 C405 1.390 . S
C403 H407 0.950 . S
H404 C400 0.950 . S
C405 C403 1.390 . S
C405 C406 1.387 . S
C405 H408 0.950 1_554 S
C406 C405 1.387 . S
C406 C409 1.387 . S
H407 C403 0.950 . S
H408 C405 0.950 1_556 S
C409 C400 1.390 . S
C409 H402 0.950 . S
C409 C406 1.387 . S
C410 C411 1.387 . S
C410 H414 0.950 . S
C410 C419 1.390 . S
C411 C410 1.387 . S
C411 C413 1.387 . S
H412 C419 0.950 . S
C413 C411 1.387 . S
C413 C415 1.390 . S
C413 H417 0.950 . S
H414 C410 0.950 . S
C415 C413 1.390 . S
C415 C416 1.387 . S
C415 H418 0.950 . S
C416 C415 1.387 . S
C416 C419 1.387 . S
H417 C413 0.950 . S
H418 C415 0.950 . S
C419 C410 1.390 . S
C419 H412 0.950 . S
C419 C416 1.387 . S
C420 C421 1.387 . S
C420 H424 0.950 . S
C420 C429 1.390 . S
C421 C420 1.387 . S
C421 C423 1.387 . S
H422 C429 0.950 . S
C423 C421 1.387 . S
C423 C425 1.390 . S
C423 H427 0.950 . S
H424 C420 0.950 . S
C425 C423 1.390 . S
C425 C426 1.387 . S
C425 H428 0.950 . S
C426 C425 1.387 . S
C426 C429 1.387 . S
H427 C423 0.950 . S
H428 C425 0.950 . S
C429 C420 1.390 . S
C429 H422 0.950 . S
C429 C426 1.387 . S
C430 C431 1.387 . S
C430 H434 0.950 . S
C430 C439 1.390 . S
C431 C430 1.387 . S
C431 C433 1.387 . S
H432 C439 0.950 . S
C433 C431 1.387 . S
C433 C435 1.390 . S
C433 H437 0.950 . S
H434 C430 0.950 . S
C435 C433 1.390 . S
C435 C436 1.387 . S
C435 H438 0.950 . S
C436 C435 1.387 . S
C436 C439 1.387 . S
H437 C433 0.950 . S
H438 C435 0.950 . S
C439 C430 1.390 . S
C439 H432 0.950 . S
C439 C436 1.387 . S
C440 C441 1.387 . S
C440 H444 0.950 . S
C440 C449 1.390 . S
C441 C440 1.387 . S
C441 C443 1.387 . S
H442 C449 0.950 . S
C443 C441 1.387 . S
C443 C445 1.390 . S
C443 H447 0.950 . S
H444 C440 0.950 . S
C445 C443 1.390 . S
C445 C446 1.387 . S
C445 H448 0.950 . S
C446 C445 1.387 . S
C446 C449 1.387 . S
H447 C443 0.950 . S
H448 C445 0.950 . S
C449 C440 1.390 . S
C449 H442 0.950 . S
C449 C446 1.387 . S
C450 C451 1.387 . S
C450 H454 0.950 . S
C450 C459 1.390 . S
C451 C450 1.387 . S
C451 C453 1.387 1_554 S
H452 C459 0.950 . S
C453 C451 1.387 1_556 S
C453 C455 1.390 . S
C453 H457 0.950 . S
H454 C450 0.950 . S
C455 C453 1.390 . S
C455 C456 1.387 1_556 S
C455 H458 0.950 . S
C456 C455 1.387 1_554 S
C456 C459 1.387 . S
H457 C453 0.950 . S
H458 C455 0.950 . S
C459 C450 1.390 . S
C459 H452 0.950 . S
C459 C456 1.387 . S
C460 C461 1.387 . S
C460 H464 0.950 . S
C460 C469 1.390 . S
C461 C460 1.387 . S
C461 C463 1.387 1_554 S
H462 C469 0.950 . S
C463 C461 1.387 1_556 S
C463 C465 1.390 . S
C463 H467 0.950 . S
H464 C460 0.950 . S
C465 C463 1.390 . S
C465 C466 1.387 1_556 S
C465 H468 0.950 . S
C466 C465 1.387 1_554 S
C466 C469 1.387 . S
H467 C463 0.950 . S
H468 C465 0.950 . S
C469 C460 1.390 . S
C469 H462 0.950 . S
C469 C466 1.387 . S
C470 C471 1.387 . S
C470 H474 0.950 . S
C470 C479 1.390 . S
C471 C470 1.387 . S
C471 C473 1.387 1_554 S
H472 C479 0.950 . S
C473 C471 1.387 1_556 S
C473 C475 1.390 . S
C473 H477 0.950 . S
H474 C470 0.950 . S
C475 C473 1.390 . S
C475 C476 1.387 1_556 S
C475 H478 0.950 . S
C476 C475 1.387 1_554 S
C476 C479 1.387 . S
H477 C473 0.950 . S
H478 C475 0.950 . S
C479 C470 1.390 . S
C479 H472 0.950 . S
C479 C476 1.387 . S
C480 C481 1.387 . S
C480 H484 0.950 . S
C480 C489 1.390 . S
C481 C480 1.387 . S
C481 C483 1.387 . S
H482 C489 0.950 . S
C483 C481 1.387 . S
C483 C485 1.390 . S
C483 H487 0.950 . S
H484 C480 0.950 . S
C485 C483 1.390 . S
C485 C486 1.387 . S
C485 H488 0.950 . S
C486 C485 1.387 . S
C486 C489 1.387 . S
H487 C483 0.950 . S
H488 C485 0.950 . S
C489 C480 1.390 . S
C489 H482 0.950 . S
C489 C486 1.387 . S
C490 C491 1.387 . S
C490 H494 0.950 . S
C490 C499 1.390 . S
C491 C490 1.387 . S
C491 C493 1.387 . S
H492 C499 0.950 . S
C493 C491 1.387 . S
C493 C495 1.390 . S
C493 H497 0.950 . S
H494 C490 0.950 . S
C495 C493 1.390 . S
C495 C496 1.387 . S
C495 H498 0.950 . S
C496 C495 1.387 . S
C496 C499 1.387 . S
H497 C493 0.950 . S
H498 C495 0.950 . S
C499 C490 1.390 . S
C499 H492 0.950 . S
C499 C496 1.387 . S
C500 C501 1.387 . S
C500 H504 0.950 . S
C500 C509 1.390 . S
C501 C500 1.387 . S
C501 C503 1.387 . S
H502 C509 0.950 . S
C503 C501 1.387 . S
C503 C505 1.390 . S
C503 H507 0.950 . S
H504 C500 0.950 . S
C505 C503 1.390 . S
C505 C506 1.387 . S
C505 H508 0.950 . S
C506 C505 1.387 . S
C506 C509 1.387 . S
H507 C503 0.950 . S
H508 C505 0.950 . S
C509 C500 1.390 . S
C509 H502 0.950 . S
C509 C506 1.387 . S
C510 C511 1.387 . S
C510 H514 0.950 . S
C510 C519 1.390 . S
C511 C510 1.387 . S
C511 C513 1.387 . S
H512 C519 0.950 . S
C513 C511 1.387 . S
C513 C515 1.390 . S
C513 H517 0.950 . S
H514 C510 0.950 . S
C515 C513 1.390 . S
C515 C516 1.387 . S
C515 H518 0.950 . S
C516 C515 1.387 . S
C516 C519 1.387 . S
H517 C513 0.950 . S
H518 C515 0.950 . S
C519 C510 1.390 . S
C519 H512 0.950 . S
C519 C516 1.387 . S
C520 C521 1.387 . S
C520 H524 0.950 . S
C520 C529 1.390 . S
C521 C520 1.387 . S
C521 C523 1.387 . S
H522 C529 0.950 . S
C523 C521 1.387 . S
C523 C525 1.390 . S
C523 H527 0.950 . S
H524 C520 0.950 . S
C525 C523 1.390 . S
C525 C526 1.387 . S
C525 H528 0.950 . S
C526 C525 1.387 . S
C526 C529 1.387 . S
H527 C523 0.950 . S
H528 C525 0.950 . S
C529 C520 1.390 . S
C529 H522 0.950 . S
C529 C526 1.387 . S
C530 C531 1.387 . S
C530 H534 0.950 . S
C530 C539 1.390 . S
C531 C530 1.387 . S
C531 C533 1.387 . S
H532 C539 0.950 . S
C533 C531 1.387 . S
C533 C535 1.390 . S
C533 H537 0.950 . S
H534 C530 0.950 . S
C535 C533 1.390 . S
C535 C536 1.387 . S
C535 H538 0.950 . S
C536 C535 1.387 . S
C536 C539 1.387 . S
H537 C533 0.950 . S
H538 C535 0.950 . S
C539 C530 1.390 . S
C539 H532 0.950 . S
C539 C536 1.387 . S
C540 C541 1.387 . S
C540 H544 0.950 . S
C540 C549 1.390 . S
C541 C540 1.387 . S
C541 C543 1.395 1_455 S
H542 C549 0.950 . S
C543 C541 1.395 1_655 S
C543 C545 1.388 1_655 S
C543 H547 0.945 . S
H544 C540 0.950 . S
C545 C543 1.388 1_455 S
C545 C546 1.387 . S
C545 H548 0.950 . S
C546 C545 1.387 . S
C546 C549 1.387 . S
H547 C543 0.945 . S
H548 C545 0.950 . S
C549 C540 1.390 . S
C549 H542 0.950 . S
C549 C546 1.387 . S
C550 C551 1.387 . S
C550 H554 0.950 . S
C550 C559 1.390 . S
C551 C550 1.387 . S
C551 C553 1.387 . S
H552 C559 0.950 . S
C553 C551 1.387 . S
C553 C555 1.390 . S
C553 H557 0.950 . S
H554 C550 0.950 . S
C555 C553 1.390 . S
C555 C556 1.387 . S
C555 H558 0.950 . S
C556 C555 1.387 . S
C556 C559 1.387 . S
H557 C553 0.950 . S
H558 C555 0.950 . S
C559 C550 1.390 . S
C559 H552 0.950 . S
C559 C556 1.387 . S
C560 C561 1.387 . S
C560 H564 0.950 . S
C560 C569 1.390 . S
C561 C560 1.387 . S
C561 C563 1.387 1_545 S
H562 C569 0.950 . S
C563 C561 1.387 1_565 S
C563 C565 1.390 . S
C563 H567 0.950 . S
H564 C560 0.950 . S
C565 C563 1.390 . S
C565 C566 1.387 1_565 S
C565 H568 0.950 . S
C566 C565 1.387 1_545 S
C566 C569 1.387 . S
H567 C563 0.950 . S
H568 C565 0.950 . S
C569 C560 1.390 . S
C569 H562 0.950 . S
C569 C566 1.387 . S
C570 C571 1.387 . S
C570 H574 0.950 . S
C570 C579 1.390 . S
C571 C570 1.387 . S
C571 C573 1.387 . S
H572 C579 0.950 . S
C573 C571 1.387 . S
C573 C575 1.390 . S
C573 H577 0.950 . S
H574 C570 0.950 . S
C575 C573 1.390 . S
C575 C576 1.387 . S
C575 H578 0.950 . S
C576 C575 1.387 . S
C576 C579 1.387 . S
H577 C573 0.950 . S
H578 C575 0.950 . S
C579 C570 1.390 . S
C579 H572 0.950 . S
C579 C576 1.387 . S
C580 C581 1.387 . S
C580 H584 0.950 . S
C580 C589 1.390 . S
C581 C580 1.387 . S
C581 C583 1.387 . S
H582 C589 0.950 . S
C583 C581 1.387 . S
C583 C585 1.390 . S
C583 H587 0.950 . S
H584 C580 0.950 . S
C585 C583 1.390 . S
C585 C586 1.387 . S
C585 H588 0.950 . S
C586 C585 1.387 . S
C586 C589 1.387 . S
H587 C583 0.950 . S
H588 C585 0.950 . S
C589 C580 1.390 . S
C589 H582 0.950 . S
C589 C586 1.387 . S
C590 C591 1.387 . S
C590 H594 0.950 . S
C590 C599 1.390 . S
C591 C590 1.387 . S
C591 C593 1.387 . S
H592 C599 0.950 . S
C593 C591 1.387 . S
C593 C595 1.390 . S
C593 H597 0.950 . S
H594 C590 0.950 . S
C595 C593 1.390 . S
C595 C596 1.387 . S
C595 H598 0.950 . S
C596 C595 1.387 . S
C596 C599 1.387 . S
H597 C593 0.950 . S
H598 C595 0.950 . S
C599 C590 1.390 . S
C599 H592 0.950 . S
C599 C596 1.387 . S
C600 C601 1.387 . S
C600 H604 0.950 . S
C600 C609 1.390 . S
C601 C600 1.387 . S
C601 C603 1.387 . S
H602 C609 0.950 . S
C603 C601 1.387 . S
C603 C605 1.390 . S
C603 H607 0.950 . S
H604 C600 0.950 . S
C605 C603 1.390 . S
C605 C606 1.387 . S
C605 H608 0.950 . S
C606 C605 1.387 . S
C606 C609 1.387 . S
H607 C603 0.950 . S
H608 C605 0.950 . S
C609 C600 1.390 . S
C609 H602 0.950 . S
C609 C606 1.387 . S
C610 C611 1.387 . S
C610 H614 0.950 . S
C610 C619 1.390 . S
C611 C610 1.387 . S
C611 C613 1.387 . S
H612 C619 0.950 . S
C613 C611 1.387 . S
C613 C615 1.390 . S
C613 H617 0.950 . S
H614 C610 0.950 . S
C615 C613 1.390 . S
C615 C616 1.387 . S
C615 H618 0.950 . S
C616 C615 1.387 . S
C616 C619 1.387 . S
H617 C613 0.950 . S
H618 C615 0.950 . S
C619 C610 1.390 . S
C619 H612 0.950 . S
C619 C616 1.387 . S
C620 C621 1.387 . S
C620 H624 0.950 . S
C620 C629 1.390 . S
C621 C620 1.387 . S
C621 C623 1.387 . S
H622 C629 0.950 . S
C623 C621 1.387 . S
C623 C625 1.390 . S
C623 H627 0.950 . S
H624 C620 0.950 . S
C625 C623 1.390 . S
C625 C626 1.387 . S
C625 H628 0.950 . S
C626 C625 1.387 . S
C626 C629 1.387 . S
H627 C623 0.950 . S
H628 C625 0.950 . S
C629 C620 1.390 . S
C629 H622 0.950 . S
C629 C626 1.387 . S
C361 C6 1.871 . S
C366 C290 1.792 . S
C371 C46 1.870 . S
C376 C330 1.791 . S
C381 C86 1.871 . S
C386 C250 1.794 . S
C391 C166 1.870 . S
C396 C90 1.793 . S
C401 C206 1.871 . S
C406 C10 1.793 . S
C411 C50 1.791 . S
C416 C126 1.869 . S
C421 C286 1.870 1_655 S
C426 C210 1.791 . S
C431 C326 1.869 . S
C436 C130 1.791 . S
C441 C170 1.794 . S
C446 C246 1.871 . S
C451 C95 1.659 . S
C456 C19 1.676 1_554 S
C461 C59 1.676 1_554 S
C466 C15 1.659 1_565 S
C471 C55 1.659 . S
C476 C99 1.676 1_554 S
C481 C139 1.676 . S
C486 C215 1.658 . S
C491 C135 1.658 . S
C496 C179 1.676 . S
C501 C175 1.659 . S
C506 C219 1.676 . S
C511 C335 1.659 . S
C516 C259 1.676 . S
C521 C299 1.676 . S
C526 C255 1.659 . S
C531 C339 1.676 . S
C536 C295 1.658 . S
C541 C18 1.110 1_455 S
C546 C9 1.110 . S
C551 C58 1.112 . S
C556 C49 1.112 . S
C561 C98 1.110 . S
C566 C89 1.110 1_545 S
C571 C129 1.113 . S
C576 C138 1.113 1_556 S
C581 C169 1.111 . S
C586 C178 1.111 1_556 S
C591 C209 1.113 . S
C596 C218 1.113 1_556 S
C601 C258 1.111 . S
C606 C249 1.111 1_554 S
C611 C289 1.111 1_554 S
C616 C298 1.111 . S
C621 C338 1.111 . S
C626 C329 1.111 1_554 S
