# Generated by pormake.
# Topology ecd, (8)-cn, num edge types: 1
# Building blocks:
#     Node 0, Type 0, BuildingBlock: TAGTUT_clean_sbu_1, # of connection points: 8
#     Node 1, Type 0, BuildingBlock: TAGTUT_clean_sbu_1, # of connection points: 8
#     Node 2, Type 0, BuildingBlock: TAGTUT_clean_sbu_1, # of connection points: 8
#     Node 3, Type 0, BuildingBlock: TAGTUT_clean_sbu_1, # of connection points: 8
#     Node 4, Type 0, BuildingBlock: TAGTUT_clean_sbu_1, # of connection points: 8
#     Node 5, Type 0, BuildingBlock: TAGTUT_clean_sbu_1, # of connection points: 8
#     Node 6, Type 0, BuildingBlock: TAGTUT_clean_sbu_1, # of connection points: 8
#     Node 7, Type 0, BuildingBlock: TAGTUT_clean_sbu_1, # of connection points: 8
#     Node 8, Type 0, BuildingBlock: TAGTUT_clean_sbu_1, # of connection points: 8
#     Node 9, Type 0, BuildingBlock: TAGTUT_clean_sbu_1, # of connection points: 8
#     Node 10, Type 0, BuildingBlock: TAGTUT_clean_sbu_1, # of connection points: 8
#     Node 11, Type 0, BuildingBlock: TAGTUT_clean_sbu_1, # of connection points: 8
#     Node 12, Type 0, BuildingBlock: TAGTUT_clean_sbu_1, # of connection points: 8
#     Node 13, Type 0, BuildingBlock: TAGTUT_clean_sbu_1, # of connection points: 8
#     Node 14, Type 0, BuildingBlock: TAGTUT_clean_sbu_1, # of connection points: 8
#     Node 15, Type 0, BuildingBlock: TAGTUT_clean_sbu_1, # of connection points: 8
#     Node 16, Type 0, BuildingBlock: TAGTUT_clean_sbu_1, # of connection points: 8
#     Node 17, Type 0, BuildingBlock: TAGTUT_clean_sbu_1, # of connection points: 8
#     Edge 18, Type (0, 0), BuildingBlock: MIFKUJ_clean_linker_0, # of connection points: 2
#     Edge 19, Type (0, 0), BuildingBlock: MIFKUJ_clean_linker_0, # of connection points: 2
#     Edge 20, Type (0, 0), BuildingBlock: MIFKUJ_clean_linker_0, # of connection points: 2
#     Edge 21, Type (0, 0), BuildingBlock: MIFKUJ_clean_linker_0, # of connection points: 2
#     Edge 22, Type (0, 0), BuildingBlock: MIFKUJ_clean_linker_0, # of connection points: 2
#     Edge 23, Type (0, 0), BuildingBlock: MIFKUJ_clean_linker_0, # of connection points: 2
#     Edge 24, Type (0, 0), BuildingBlock: MIFKUJ_clean_linker_0, # of connection points: 2
#     Edge 25, Type (0, 0), BuildingBlock: MIFKUJ_clean_linker_0, # of connection points: 2
#     Edge 26, Type (0, 0), BuildingBlock: MIFKUJ_clean_linker_0, # of connection points: 2
#     Edge 27, Type (0, 0), BuildingBlock: MIFKUJ_clean_linker_0, # of connection points: 2
#     Edge 28, Type (0, 0), BuildingBlock: MIFKUJ_clean_linker_0, # of connection points: 2
#     Edge 29, Type (0, 0), BuildingBlock: MIFKUJ_clean_linker_0, # of connection points: 2
#     Edge 30, Type (0, 0), BuildingBlock: MIFKUJ_clean_linker_0, # of connection points: 2
#     Edge 31, Type (0, 0), BuildingBlock: MIFKUJ_clean_linker_0, # of connection points: 2
#     Edge 32, Type (0, 0), BuildingBlock: MIFKUJ_clean_linker_0, # of connection points: 2
#     Edge 33, Type (0, 0), BuildingBlock: MIFKUJ_clean_linker_0, # of connection points: 2
#     Edge 34, Type (0, 0), BuildingBlock: MIFKUJ_clean_linker_0, # of connection points: 2
#     Edge 35, Type (0, 0), BuildingBlock: MIFKUJ_clean_linker_0, # of connection points: 2
#     Edge 36, Type (0, 0), BuildingBlock: MIFKUJ_clean_linker_0, # of connection points: 2
#     Edge 37, Type (0, 0), BuildingBlock: MIFKUJ_clean_linker_0, # of connection points: 2
#     Edge 38, Type (0, 0), BuildingBlock: MIFKUJ_clean_linker_0, # of connection points: 2
#     Edge 39, Type (0, 0), BuildingBlock: MIFKUJ_clean_linker_0, # of connection points: 2
#     Edge 40, Type (0, 0), BuildingBlock: MIFKUJ_clean_linker_0, # of connection points: 2
#     Edge 41, Type (0, 0), BuildingBlock: MIFKUJ_clean_linker_0, # of connection points: 2
#     Edge 42, Type (0, 0), BuildingBlock: MIFKUJ_clean_linker_0, # of connection points: 2
#     Edge 43, Type (0, 0), BuildingBlock: MIFKUJ_clean_linker_0, # of connection points: 2
#     Edge 44, Type (0, 0), BuildingBlock: MIFKUJ_clean_linker_0, # of connection points: 2
#     Edge 45, Type (0, 0), BuildingBlock: MIFKUJ_clean_linker_0, # of connection points: 2
#     Edge 46, Type (0, 0), BuildingBlock: MIFKUJ_clean_linker_0, # of connection points: 2
#     Edge 47, Type (0, 0), BuildingBlock: MIFKUJ_clean_linker_0, # of connection points: 2
#     Edge 48, Type (0, 0), BuildingBlock: MIFKUJ_clean_linker_0, # of connection points: 2
#     Edge 49, Type (0, 0), BuildingBlock: MIFKUJ_clean_linker_0, # of connection points: 2
#     Edge 50, Type (0, 0), BuildingBlock: MIFKUJ_clean_linker_0, # of connection points: 2
#     Edge 51, Type (0, 0), BuildingBlock: MIFKUJ_clean_linker_0, # of connection points: 2
#     Edge 52, Type (0, 0), BuildingBlock: MIFKUJ_clean_linker_0, # of connection points: 2
#     Edge 53, Type (0, 0), BuildingBlock: MIFKUJ_clean_linker_0, # of connection points: 2
#     Edge 54, Type (0, 0), BuildingBlock: MIFKUJ_clean_linker_0, # of connection points: 2
#     Edge 55, Type (0, 0), BuildingBlock: MIFKUJ_clean_linker_0, # of connection points: 2
#     Edge 56, Type (0, 0), BuildingBlock: MIFKUJ_clean_linker_0, # of connection points: 2
#     Edge 57, Type (0, 0), BuildingBlock: MIFKUJ_clean_linker_0, # of connection points: 2
#     Edge 58, Type (0, 0), BuildingBlock: MIFKUJ_clean_linker_0, # of connection points: 2
#     Edge 59, Type (0, 0), BuildingBlock: MIFKUJ_clean_linker_0, # of connection points: 2
#     Edge 60, Type (0, 0), BuildingBlock: MIFKUJ_clean_linker_0, # of connection points: 2
#     Edge 61, Type (0, 0), BuildingBlock: MIFKUJ_clean_linker_0, # of connection points: 2
#     Edge 62, Type (0, 0), BuildingBlock: MIFKUJ_clean_linker_0, # of connection points: 2
#     Edge 63, Type (0, 0), BuildingBlock: MIFKUJ_clean_linker_0, # of connection points: 2
#     Edge 64, Type (0, 0), BuildingBlock: MIFKUJ_clean_linker_0, # of connection points: 2
#     Edge 65, Type (0, 0), BuildingBlock: MIFKUJ_clean_linker_0, # of connection points: 2
#     Edge 66, Type (0, 0), BuildingBlock: MIFKUJ_clean_linker_0, # of connection points: 2
#     Edge 67, Type (0, 0), BuildingBlock: MIFKUJ_clean_linker_0, # of connection points: 2
#     Edge 68, Type (0, 0), BuildingBlock: MIFKUJ_clean_linker_0, # of connection points: 2
#     Edge 69, Type (0, 0), BuildingBlock: MIFKUJ_clean_linker_0, # of connection points: 2
#     Edge 70, Type (0, 0), BuildingBlock: MIFKUJ_clean_linker_0, # of connection points: 2
#     Edge 71, Type (0, 0), BuildingBlock: MIFKUJ_clean_linker_0, # of connection points: 2
#     Edge 72, Type (0, 0), BuildingBlock: MIFKUJ_clean_linker_0, # of connection points: 2
#     Edge 73, Type (0, 0), BuildingBlock: MIFKUJ_clean_linker_0, # of connection points: 2
#     Edge 74, Type (0, 0), BuildingBlock: MIFKUJ_clean_linker_0, # of connection points: 2
#     Edge 75, Type (0, 0), BuildingBlock: MIFKUJ_clean_linker_0, # of connection points: 2
#     Edge 76, Type (0, 0), BuildingBlock: MIFKUJ_clean_linker_0, # of connection points: 2
#     Edge 77, Type (0, 0), BuildingBlock: MIFKUJ_clean_linker_0, # of connection points: 2
#     Edge 78, Type (0, 0), BuildingBlock: MIFKUJ_clean_linker_0, # of connection points: 2
#     Edge 79, Type (0, 0), BuildingBlock: MIFKUJ_clean_linker_0, # of connection points: 2
#     Edge 80, Type (0, 0), BuildingBlock: MIFKUJ_clean_linker_0, # of connection points: 2
#     Edge 81, Type (0, 0), BuildingBlock: MIFKUJ_clean_linker_0, # of connection points: 2
#     Edge 82, Type (0, 0), BuildingBlock: MIFKUJ_clean_linker_0, # of connection points: 2
#     Edge 83, Type (0, 0), BuildingBlock: MIFKUJ_clean_linker_0, # of connection points: 2
#     Edge 84, Type (0, 0), BuildingBlock: MIFKUJ_clean_linker_0, # of connection points: 2
#     Edge 85, Type (0, 0), BuildingBlock: MIFKUJ_clean_linker_0, # of connection points: 2
#     Edge 86, Type (0, 0), BuildingBlock: MIFKUJ_clean_linker_0, # of connection points: 2
#     Edge 87, Type (0, 0), BuildingBlock: MIFKUJ_clean_linker_0, # of connection points: 2
#     Edge 88, Type (0, 0), BuildingBlock: MIFKUJ_clean_linker_0, # of connection points: 2
#     Edge 89, Type (0, 0), BuildingBlock: MIFKUJ_clean_linker_0, # of connection points: 2
# Relax obj value: 0.241
# Max RMSD: 0.281
# Mean RMSD: 0.279
data_MOF--net-ecd--node1-TAGTUT_clean_sbu_1--edge1-MIFKUJ_clean_linker_0
_symmetry_space_group_name_H-M    P1
_symmetry_Int_Tables_number       1
_symmetry_cell_setting            triclinic
loop_
_symmetry_equiv_pos_as_xyz
'x, y, z'
_cell_length_a     64.961608
_cell_length_b     65.361949
_cell_length_c     44.369626
_cell_angle_alpha  89.529461
_cell_angle_beta   91.17313
_cell_angle_gamma 120.75344
loop_
_atom_site_label
_atom_site_type_symbol
_atom_site_fract_x
_atom_site_fract_y
_atom_site_fract_z
_atom_type_partial_charge
C0 C 0.97476 0.52795 0.13383 0.0
C1 C 0.95634 0.5542 0.19629 0.0
C2 C 0.05766 0.59722 0.22534 0.0
Mg3 Mg 0.95683 0.51558 0.20072 0.0
O4 O 0.98813 0.54356 0.20962 0.0
Mg5 Mg 0.01321 0.57054 0.18182 0.0
Mg6 Mg 0.00622 0.55152 0.24893 0.0
O7 O 0.02458 0.56116 0.28771 0.0
Mg8 Mg 0.05944 0.57428 0.28776 0.0
Mg9 Mg -8e-05 0.53457 0.31525 0.0
C10 C 0.96281 0.49524 0.26309 0.0
C11 C 0.9747 0.5649 0.29424 0.0
O12 O 0.99097 0.54937 0.14077 0.0
O13 O 0.96239 0.51177 0.15332 0.0
O14 O 0.97649 0.5563 0.20473 0.0
O15 O 0.93777 0.53453 0.20311 0.0
O16 O 0.95286 0.49136 0.23684 0.0
O17 O 0.97961 0.51616 0.27104 0.0
C18 C 0.03141 0.53289 0.20319 0.0
O19 O 0.02602 0.53337 0.23063 0.0
O20 O 0.02765 0.54457 0.18276 0.0
O21 O 0.0307 0.57227 0.32668 0.0
O22 O 0.06728 0.6015 0.31921 0.0
O23 O 0.02624 0.52125 0.3105 0.0
C24 C 0.04773 0.59322 0.33313 0.0
O25 O 0.06416 0.54882 0.31562 0.0
O26 O 0.07016 0.59277 0.24424 0.0
C27 C 0.04566 0.53037 0.32602 0.0
O28 O 0.03468 0.58634 0.22621 0.0
O29 O 0.9844 0.56781 0.26836 0.0
O30 O 0.97696 0.55224 0.31484 0.0
C31 C 0.48411 0.47066 0.14261 0.0
C32 C 0.44356 0.41389 0.20607 0.0
C33 C 0.41659 0.47064 0.25262 0.0
Mg34 Mg 0.49425 0.45896 0.20698 0.0
O35 O 0.47935 0.47639 0.21622 0.0
Mg36 Mg 0.44716 0.46676 0.19777 0.0
Mg37 Mg 0.47065 0.47753 0.25839 0.0
O38 O 0.46229 0.47802 0.30041 0.0
Mg39 Mg 0.44459 0.49119 0.31514 0.0
Mg40 Mg 0.49147 0.48226 0.32237 0.0
C41 C 0.52543 0.4866 0.26599 0.0
C42 C 0.46728 0.43074 0.29127 0.0
O43 O 0.46497 0.46924 0.15246 0.0
O44 O 0.49918 0.46873 0.15977 0.0
O45 O 0.43488 0.42728 0.20102 0.0
O46 O 0.46601 0.42206 0.20985 0.0
O47 O 0.52359 0.47521 0.24152 0.0
O48 O 0.50872 0.49003 0.27463 0.0
C49 C 0.47498 0.52192 0.2194 0.0
O50 O 0.4801 0.51573 0.24485 0.0
O51 O 0.46227 0.5066 0.19894 0.0
O52 O 0.46664 0.46792 0.36521 0.0
O53 O 0.43251 0.4671 0.35164 0.0
O54 O 0.50094 0.52102 0.32778 0.0
C55 C 0.44434 0.46088 0.36896 0.0
O56 O 0.47044 0.52563 0.33477 0.0
O57 O 0.41854 0.48139 0.27765 0.0
C58 C 0.48974 0.52725 0.34514 0.0
O59 O 0.43255 0.46585 0.24448 0.0
O60 O 0.46096 0.43898 0.26896 0.0
O61 O 0.47987 0.4439 0.31331 0.0
C62 C 0.50402 0.97711 0.32736 0.0
C63 C 0.54848 0.96129 0.27747 0.0
C64 C 0.58015 0.04783 0.22558 0.0
Mg65 Mg 0.4996 0.95623 0.26368 0.0
O66 O 0.51557 0.98878 0.25458 0.0
Mg67 Mg 0.54566 0.0117 0.27701 0.0
Mg68 Mg 0.52715 -0.00016 0.21344 0.0
O69 O 0.5384 0.01099 0.17246 0.0
Mg70 Mg 0.55512 0.04358 0.16105 0.0
Mg71 Mg 0.5098 0.98713 0.14841 0.0
C72 C 0.47276 0.95375 0.20123 0.0
C73 C 0.53256 0.95794 0.1792 0.0
O74 O 0.52327 0.99588 0.31913 0.0
O75 O 0.49121 0.95938 0.30979 0.0
O76 O 0.55697 0.98359 0.28169 0.0
O77 O 0.52729 0.94759 0.26692 0.0
O78 O 0.4728 0.94371 0.22635 0.0
O79 O 0.49021 0.97432 0.19402 0.0
C80 C 0.52009 0.03961 0.24941 0.0
O81 O 0.51637 0.02816 0.22447 0.0
O82 O 0.53171 0.03719 0.27143 0.0
O83 O 0.53644 0.00068 0.10776 0.0
O84 O 0.56889 0.03519 0.12318 0.0
O85 O 0.5 0.01624 0.14507 0.0
C86 C 0.55842 0.01749 0.10499 0.0
O87 O 0.52955 0.05263 0.14229 0.0
O88 O 0.57907 0.05802 0.2011 0.0
C89 C 0.51162 0.03494 0.12935 0.0
O90 O 0.56457 0.02606 0.23174 0.0
O91 O 0.53723 0.97053 0.20333 0.0
O92 O 0.52164 0.96066 0.15666 0.0
C93 C 0.00631 0.444 0.61516 0.0
C94 C 0.97054 0.47897 0.62643 0.0
C95 C 0.0482 0.52806 0.71523 0.0
Mg96 Mg 0.97078 0.43715 0.66303 0.0
O97 O 0.9937 0.46407 0.68256 0.0
Mg98 Mg 0.02083 0.49035 0.65915 0.0
Mg99 Mg 0.00242 0.47289 0.72481 0.0
O100 O 0.01302 0.48329 0.76679 0.0
Mg101 Mg 0.04592 0.49936 0.7756 0.0
Mg102 Mg 0.99127 0.45205 0.7865 0.0
C103 C 0.95994 0.41479 0.72943 0.0
C104 C 0.96373 0.47934 0.7628 0.0
O105 O 0.01487 0.46648 0.61722 0.0
O106 O 0.99196 0.42937 0.63451 0.0
O107 O 0.99022 0.49487 0.63939 0.0
O108 O 0.9597 0.45676 0.63375 0.0
O109 O 0.95457 0.41227 0.70108 0.0
O110 O 0.97613 0.43496 0.74042 0.0
C111 C 0.04681 0.46805 0.69803 0.0
O112 O 0.03065 0.46187 0.71771 0.0
O113 O 0.04813 0.48091 0.67568 0.0
O114 O 0.00853 0.47173 0.83082 0.0
O115 O 0.04347 0.50579 0.82271 0.0
O116 O 0.01918 0.44067 0.78543 0.0
C117 C 0.02701 0.49103 0.84023 0.0
O118 O 0.05491 0.47203 0.7738 0.0
O119 O 0.05771 0.52721 0.74064 0.0
C120 C 0.04147 0.44993 0.77994 0.0
O121 O 0.02806 0.5105 0.70579 0.0
O122 O 0.97369 0.48287 0.73686 0.0
O123 O 0.96687 0.46748 0.78378 0.0
C124 C 0.55646 0.54962 0.60937 0.0
C125 C 0.50345 0.48267 0.64437 0.0
C126 C 0.47853 0.53499 0.71409 0.0
Mg127 Mg 0.55328 0.52078 0.66742 0.0
O128 O 0.54011 0.53865 0.68063 0.0
Mg129 Mg 0.51272 0.53785 0.65799 0.0
Mg130 Mg 0.53134 0.53953 0.72272 0.0
O131 O 0.52245 0.54116 0.76481 0.0
Mg132 Mg 0.51079 0.56147 0.77338 0.0
Mg133 Mg 0.5532 0.54711 0.78415 0.0
C134 C 0.58225 0.54022 0.72977 0.0
C135 C 0.52001 0.49197 0.76183 0.0
O136 O 0.5371 0.54922 0.61608 0.0
O137 O 0.56566 0.5401 0.62604 0.0
O138 O 0.49772 0.49869 0.64549 0.0
O139 O 0.52344 0.48625 0.65523 0.0
O140 O 0.57949 0.52914 0.70477 0.0
O141 O 0.56774 0.54697 0.73769 0.0
C142 C 0.54104 0.58951 0.69028 0.0
O143 O 0.54563 0.58033 0.71326 0.0
O144 O 0.52841 0.57653 0.66825 0.0
O145 O 0.53636 0.54735 0.82898 0.0
O146 O 0.50518 0.553 0.82111 0.0
O147 O 0.56972 0.58733 0.78267 0.0
C148 C 0.51894 0.54929 0.83858 0.0
O149 O 0.54217 0.59722 0.77153 0.0
O150 O 0.481 0.54623 0.73897 0.0
C151 C 0.56385 0.603 0.77772 0.0
O152 O 0.4947 0.53085 0.70517 0.0
O153 O 0.5171 0.49928 0.73579 0.0
O154 O 0.5332 0.50659 0.78268 0.0
C155 C 0.45938 0.0131 0.87013 0.0
C156 C 0.50408 0.9905 0.83403 0.0
C157 C 0.53212 0.06382 0.75417 0.0
Mg158 Mg 0.45404 0.98127 0.81502 0.0
O159 O 0.46962 0.01121 0.7968 0.0
Mg160 Mg 0.49951 0.03852 0.81499 0.0
Mg161 Mg 0.47738 0.01656 0.75351 0.0
O162 O 0.48531 0.02231 0.71013 0.0
Mg163 Mg 0.49965 0.05296 0.69379 0.0
Mg164 Mg 0.45422 0.99593 0.69337 0.0
C165 C 0.42345 0.96772 0.75312 0.0
C166 C 0.48547 0.97481 0.72424 0.0
O167 O 0.47885 0.0305 0.85978 0.0
O168 O 0.44669 0.99329 0.85613 0.0
O169 O 0.51196 0.0127 0.82981 0.0
O170 O 0.48253 0.97454 0.82688 0.0
O171 O 0.42504 0.962 0.78058 0.0
O172 O 0.43991 0.98707 0.74135 0.0
C173 C 0.47114 0.06057 0.77985 0.0
O174 O 0.46489 0.04488 0.75879 0.0
O175 O 0.48503 0.06206 0.80152 0.0
O176 O 0.47187 0.00637 0.64745 0.0
O177 O 0.50379 0.0437 0.64819 0.0
O178 O 0.44037 0.02177 0.68542 0.0
C179 C 0.48981 0.02388 0.63469 0.0
O180 O 0.47034 0.05959 0.69112 0.0
O181 O 0.52997 0.07 0.72711 0.0
C182 C 0.44826 0.04421 0.68557 0.0
O183 O 0.51503 0.04518 0.76653 0.0
O184 O 0.49002 0.98871 0.7471 0.0
O185 O 0.47146 0.97368 0.70269 0.0
C186 C 0.65857 0.86652 0.46538 0.0
C187 C 0.63919 0.90733 0.52344 0.0
C188 C 0.72894 0.93776 0.56854 0.0
Mg189 Mg 0.63539 0.85789 0.52826 0.0
O190 O 0.66742 0.87637 0.54098 0.0
Mg191 Mg 0.69036 0.90631 0.51999 0.0
Mg192 Mg 0.67984 0.88593 0.58279 0.0
O193 O 0.6933 0.89482 0.62427 0.0
Mg194 Mg 0.72914 0.91092 0.62856 0.0
Mg195 Mg 0.66899 0.86348 0.64585 0.0
C196 C 0.63539 0.83016 0.58847 0.0
C197 C 0.63849 0.88794 0.62474 0.0
O198 O 0.67524 0.88641 0.47598 0.0
O199 O 0.64131 0.85137 0.4817 0.0
O200 O 0.6618 0.91692 0.51979 0.0
O201 O 0.62559 0.88499 0.52854 0.0
O202 O 0.62512 0.82997 0.5632 0.0
O203 O 0.6545 0.84903 0.59794 0.0
C204 C 0.71835 0.87982 0.54275 0.0
O205 O 0.70752 0.87576 0.56792 0.0
O206 O 0.71568 0.89203 0.52201 0.0
O207 O 0.69334 0.90696 0.64751 0.0
O208 O 0.72934 0.93028 0.66685 0.0
O209 O 0.70011 0.85745 0.63741 0.0
C210 C 0.70685 0.92127 0.66899 0.0
O211 O 0.73707 0.88434 0.64715 0.0
O212 O 0.74129 0.93462 0.58914 0.0
C213 C 0.71849 0.86472 0.65436 0.0
O214 O 0.70613 0.92377 0.56586 0.0
O215 O 0.65048 0.89448 0.60001 0.0
O216 O 0.6412 0.87494 0.64451 0.0
C217 C 0.15455 0.81366 0.45453 0.0
C218 C 0.13867 0.76471 0.51752 0.0
C219 C 0.0925 0.80795 0.56997 0.0
Mg220 Mg 0.17793 0.80563 0.51386 0.0
O221 O 0.15068 0.80691 0.53114 0.0
Mg222 Mg 0.11763 0.80103 0.51279 0.0
Mg223 Mg 0.14621 0.81283 0.5741 0.0
O224 O 0.13997 0.81736 0.61588 0.0
Mg225 Mg 0.12666 0.83644 0.62505 0.0
Mg226 Mg 0.1711 0.82458 0.63474 0.0
C227 C 0.20546 0.83021 0.57576 0.0
C228 C 0.14194 0.76864 0.61435 0.0
O229 O 0.13411 0.80568 0.46686 0.0
O230 O 0.17363 0.81705 0.46856 0.0
O231 O 0.13904 0.78351 0.52681 0.0
O232 O 0.15912 0.76688 0.51415 0.0
O233 O 0.2067 0.82519 0.5481 0.0
O234 O 0.18538 0.82532 0.5871 0.0
C235 C 0.15406 0.85751 0.53403 0.0
O236 O 0.15838 0.85124 0.55961 0.0
O237 O 0.14024 0.84196 0.51464 0.0
O238 O 0.15096 0.81916 0.68029 0.0
O239 O 0.11966 0.82422 0.67045 0.0
O240 O 0.18458 0.86522 0.6294 0.0
C241 C 0.13137 0.81798 0.68799 0.0
O242 O 0.15572 0.87243 0.62144 0.0
O243 O 0.09675 0.82139 0.593 0.0
C244 C 0.17413 0.87639 0.63684 0.0
O245 O 0.10738 0.80184 0.56151 0.0
O246 O 0.13565 0.77482 0.58991 0.0
O247 O 0.15563 0.78414 0.6341 0.0
C248 C 0.19431 0.34055 0.4435 0.0
C249 C 0.23899 0.3744 0.51051 0.0
C250 C 0.20409 0.28414 0.5616 0.0
Mg251 Mg 0.19632 0.36723 0.50403 0.0
O252 O 0.1982 0.34015 0.52158 0.0
Mg253 Mg 0.20665 0.3156 0.50346 0.0
Mg254 Mg 0.19598 0.33098 0.56537 0.0
O255 O 0.19442 0.32144 0.60763 0.0
Mg256 Mg 0.17891 0.28921 0.62034 0.0
Mg257 Mg 0.18619 0.3439 0.62622 0.0
C258 C 0.17298 0.36766 0.56628 0.0
C259 C 0.2407 0.37493 0.60308 0.0
O260 O 0.20199 0.32809 0.45669 0.0
O261 O 0.18837 0.35401 0.45729 0.0
O262 O 0.22089 0.35416 0.51796 0.0
O263 O 0.23487 0.39133 0.50685 0.0
O264 O 0.17546 0.37278 0.53802 0.0
O265 O 0.18113 0.35515 0.5783 0.0
C266 C 0.15052 0.29235 0.52783 0.0
O267 O 0.15788 0.30182 0.55383 0.0
O268 O 0.16532 0.29595 0.50694 0.0
O269 O 0.19611 0.33246 0.67137 0.0
O270 O 0.19632 0.29852 0.66336 0.0
O271 O 0.14711 0.31314 0.62519 0.0
C272 C 0.20041 0.31619 0.68 0.0
O273 O 0.14222 0.27781 0.63267 0.0
O274 O 0.19248 0.27472 0.58597 0.0
C275 C 0.13829 0.2942 0.64085 0.0
O276 O 0.20834 0.30468 0.55251 0.0
O277 O 0.23469 0.36202 0.57909 0.0
O278 O 0.22523 0.3718 0.62273 0.0
C279 C 0.68324 0.78912 0.18433 0.0
C280 C 0.70623 0.85495 0.15475 0.0
C281 C 0.62532 0.81226 0.07791 0.0
Mg282 Mg 0.71214 0.81587 0.12878 0.0
O283 O 0.68022 0.80233 0.11414 0.0
Mg284 Mg 0.65713 0.80887 0.13451 0.0
Mg285 Mg 0.67055 0.80237 0.07227 0.0
O286 O 0.66036 0.80202 0.0299 0.0
Mg287 Mg 0.62751 0.78437 0.01968 0.0
Mg288 Mg 0.68305 0.79352 0.01186 0.0
C289 C 0.71793 0.79541 0.06647 0.0
C290 C 0.7113 0.84838 0.03606 0.0
O291 O 0.66871 0.79664 0.17861 0.0
O292 O 0.70038 0.79304 0.16692 0.0
O293 O 0.68856 0.8472 0.13635 0.0
O294 O 0.72271 0.85031 0.14949 0.0
O295 O 0.72776 0.80596 0.09163 0.0
O296 O 0.69684 0.79087 0.05849 0.0
C297 C 0.62608 0.75662 0.10565 0.0
O298 O 0.63994 0.7637 0.08285 0.0
O299 O 0.62864 0.77067 0.12714 0.0
O300 O 0.66705 0.79604 0.96698 0.0
O301 O 0.63124 0.79328 0.97198 0.0
O302 O 0.65488 0.75383 0.01208 0.0
C303 C 0.6486 0.79588 0.95587 0.0
O304 O 0.61842 0.74746 0.02204 0.0
O305 O 0.61534 0.80096 0.05315 0.0
C306 C 0.6325 0.73971 0.01639 0.0
O307 O 0.64554 0.81521 0.08723 0.0
O308 O 0.70005 0.84067 0.06093 0.0
O309 O 0.70861 0.83409 0.01459 0.0
C310 C 0.20455 0.89316 0.18196 0.0
C311 C 0.13758 0.85392 0.14499 0.0
C312 C 0.18074 0.82087 0.06868 0.0
Mg313 Mg 0.17973 0.90079 0.12641 0.0
O314 O 0.19301 0.88396 0.10949 0.0
Mg315 Mg 0.18547 0.85248 0.12651 0.0
Mg316 Mg 0.19072 0.87602 0.06663 0.0
O317 O 0.18866 0.86746 0.02372 0.0
Mg318 Mg 0.20597 0.85307 0.01141 0.0
Mg319 Mg 0.19678 0.89932 0.00731 0.0
C320 C 0.19958 0.93124 0.06635 0.0
C321 C 0.14344 0.87208 0.03535 0.0
O322 O 0.19858 0.87232 0.17246 0.0
O323 O 0.1999 0.90733 0.16734 0.0
O324 O 0.14649 0.84344 0.1308 0.0
O325 O 0.14343 0.87522 0.13818 0.0
O326 O 0.19119 0.92938 0.09291 0.0
O327 O 0.20195 0.9145 0.055 0.0
C328 C 0.23727 0.87627 0.09617 0.0
O329 O 0.22949 0.88374 0.0744 0.0
O330 O 0.22374 0.86369 0.1176 0.0
O331 O 0.19153 0.88136 0.96141 0.0
O332 O 0.19442 0.84843 0.96483 0.0
O333 O 0.23672 0.91206 0.00647 0.0
C334 C 0.19067 0.86304 0.94969 0.0
O335 O 0.24296 0.88167 0.01388 0.0
O336 O 0.19152 0.82304 0.04378 0.0
C337 C 0.25075 0.90388 0.01019 0.0
O338 O 0.17772 0.83752 0.07854 0.0
O339 O 0.15256 0.86786 0.05879 0.0
O340 O 0.15632 0.8839 0.01285 0.0
C341 C 0.1199 0.3469 0.19136 0.0
C342 C 0.168 0.32476 0.15114 0.0
C343 C 0.19842 0.3834 0.07963 0.0
Mg344 Mg 0.11775 0.31577 0.13721 0.0
O345 O 0.13253 0.34577 0.11945 0.0
Mg346 Mg 0.16204 0.37291 0.13797 0.0
Mg347 Mg 0.13973 0.35118 0.0762 0.0
O348 O 0.14547 0.35687 0.03189 0.0
Mg349 Mg 0.17687 0.37901 0.01397 0.0
Mg350 Mg 0.11334 0.32898 0.01441 0.0
C351 C 0.08616 0.30247 0.0767 0.0
C352 C 0.15014 0.31278 0.04567 0.0
O353 O 0.13954 0.36463 0.18169 0.0
O354 O 0.10919 0.32659 0.17819 0.0
O355 O 0.17514 0.34704 0.15108 0.0
O356 O 0.14644 0.30902 0.14403 0.0
O357 O 0.08892 0.29698 0.10375 0.0
O358 O 0.10185 0.32186 0.06406 0.0
C359 C 0.13318 0.3947 0.10264 0.0
O360 O 0.1271 0.3789 0.08192 0.0
O361 O 0.14741 0.39672 0.12423 0.0
O362 O 0.13011 0.33532 0.96809 0.0
O363 O 0.17053 0.35952 0.97091 0.0
O364 O 0.13908 0.37046 0.02109 0.0
C365 C 0.15103 0.34472 0.95662 0.0
O366 O 0.16698 0.40612 0.00919 0.0
O367 O 0.20156 0.38332 0.05115 0.0
C368 C 0.14456 0.39106 0.01003 0.0
O369 O 0.17828 0.37893 0.09005 0.0
O370 O 0.15316 0.32447 0.07008 0.0
O371 O 0.1367 0.31277 0.02429 0.0
C372 C 0.33226 0.19737 0.80309 0.0
C373 C 0.31689 0.24401 0.85414 0.0
C374 C 0.38619 0.26891 0.92128 0.0
Mg375 Mg 0.30333 0.19128 0.86075 0.0
O376 O 0.33427 0.20336 0.87726 0.0
Mg377 Mg 0.36194 0.23373 0.86142 0.0
Mg378 Mg 0.33895 0.2128 0.9202 0.0
O379 O 0.34233 0.22179 0.96281 0.0
Mg380 Mg 0.36895 0.24324 0.98543 0.0
Mg381 Mg 0.31346 0.19384 0.98055 0.0
C382 C 0.29042 0.15915 0.92085 0.0
C383 C 0.29328 0.2201 0.93832 0.0
O384 O 0.35068 0.21484 0.8159 0.0
O385 O 0.31204 0.18526 0.81614 0.0
O386 O 0.33873 0.24956 0.85288 0.0
O387 O 0.29988 0.22262 0.85882 0.0
O388 O 0.28464 0.16147 0.89356 0.0
O389 O 0.30946 0.17576 0.93386 0.0
C390 C 0.38077 0.20241 0.89626 0.0
O391 O 0.36642 0.19913 0.91799 0.0
O392 O 0.38283 0.21559 0.87362 0.0
O393 O 0.31736 0.21624 0.02292 0.0
O394 O 0.35019 0.25237 0.0166 0.0
O395 O 0.33968 0.1843 0.0022 0.0
C396 C 0.33062 0.23831 0.02993 0.0
O397 O 0.37584 0.21763 0.00843 0.0
O398 O 0.38924 0.27031 0.95013 0.0
C399 C 0.36128 0.19525 0.01265 0.0
O400 O 0.36995 0.24964 0.90859 0.0
O401 O 0.31075 0.22622 0.92022 0.0
O402 O 0.29006 0.20642 0.96054 0.0
C403 C 0.81809 0.13082 0.8013 0.0
C404 C 0.79023 0.08757 0.8692 0.0
C405 C 0.75663 0.14397 0.90972 0.0
Mg406 Mg 0.83391 0.1226 0.8665 0.0
O407 O 0.8119 0.13393 0.87643 0.0
Mg408 Mg 0.78181 0.13216 0.85433 0.0
Mg409 Mg 0.80624 0.14074 0.91862 0.0
O410 O 0.79939 0.14551 0.95998 0.0
Mg411 Mg 0.78637 0.16429 0.97194 0.0
Mg412 Mg 0.8272 0.14707 0.98244 0.0
C413 C 0.86232 0.14983 0.92596 0.0
C414 C 0.79627 0.09305 0.95704 0.0
O415 O 0.79904 0.13013 0.81044 0.0
O416 O 0.83409 0.13064 0.81874 0.0
O417 O 0.7948 0.10891 0.87306 0.0
O418 O 0.80809 0.08472 0.87282 0.0
O419 O 0.8628 0.14193 0.89974 0.0
O420 O 0.8433 0.14875 0.93561 0.0
C421 C 0.8237 0.18693 0.87671 0.0
O422 O 0.82354 0.18047 0.9041 0.0
O423 O 0.81079 0.17177 0.85638 0.0
O424 O 0.80371 0.13898 0.0252 0.0
O425 O 0.773 0.14434 0.01211 0.0
O426 O 0.84192 0.18752 0.98254 0.0
C427 C 0.78312 0.1366 0.03013 0.0
O428 O 0.81567 0.19846 0.98781 0.0
O429 O 0.76048 0.15589 0.9343 0.0
C430 C 0.83371 0.19776 -0.00152 0.0
O431 O 0.77011 0.13584 0.90205 0.0
O432 O 0.79043 0.10086 0.9337 0.0
O433 O 0.81044 0.10716 0.97751 0.0
C434 C 0.84355 0.64107 0.01153 0.0
C435 C 0.87281 0.62388 0.94649 0.0
C436 C 0.91403 0.71904 0.91353 0.0
Mg437 Mg 0.83073 0.61942 0.94481 0.0
O438 O 0.85618 0.65257 0.93739 0.0
Mg439 Mg 0.88587 0.67893 0.96297 0.0
Mg440 Mg 0.86591 0.66705 0.89623 0.0
O441 O 0.87713 0.68142 0.85653 0.0
Mg442 Mg 0.89049 0.71461 0.84836 0.0
Mg443 Mg 0.85073 0.65795 0.83004 0.0
C444 C 0.80871 0.62333 0.88176 0.0
C445 C 0.87502 0.62927 0.85754 0.0
O446 O 0.86412 0.65879 0.00437 0.0
O447 O 0.82793 0.62606 -0.00747 0.0
O448 O 0.87103 0.64242 0.94303 0.0
O449 O 0.85367 0.6042 0.94087 0.0
O450 O 0.8053 0.61359 0.90788 0.0
O451 O 0.82938 0.64052 0.87406 0.0
C452 C 0.85082 0.69863 0.93578 0.0
O453 O 0.85049 0.69081 0.90928 0.0
O454 O 0.86191 0.69539 0.95772 0.0
O455 O 0.88068 0.67751 0.79228 0.0
O456 O 0.90939 0.71279 0.81189 0.0
O457 O 0.83938 0.6854 0.83165 0.0
C458 C 0.90163 0.69665 0.79162 0.0
O459 O 0.86558 0.72224 0.82416 0.0
O460 O 0.91139 0.72912 0.88991 0.0
C461 C 0.848 0.70294 0.81387 0.0
O462 O 0.90183 0.69632 0.91738 0.0
O463 O 0.8795 0.64116 0.88222 0.0
O464 O 0.86403 0.63237 0.8354 0.0
C465 C 0.30898 0.10472 0.29493 0.0
C466 C 0.29921 0.16066 0.30381 0.0
C467 C 0.38113 0.19083 0.37706 0.0
Mg468 Mg 0.28485 0.11647 0.33172 0.0
O469 O 0.32006 0.1317 0.33942 0.0
Mg470 Mg 0.34671 0.16235 0.31881 0.0
Mg471 Mg 0.33245 0.13848 0.38145 0.0
O472 O 0.34471 0.14584 0.42354 0.0
Mg473 Mg 0.37711 0.15839 0.43363 0.0
Mg474 Mg 0.31961 0.11603 0.44294 0.0
C475 C 0.28102 0.08728 0.39144 0.0
C476 C 0.29642 0.14807 0.42246 0.0
O477 O 0.32197 0.11896 0.3167 0.0
O478 O 0.28715 0.09909 0.29334 0.0
O479 O 0.3166 0.17057 0.32258 0.0
O480 O 0.2793 0.1446 0.31447 0.0
O481 O 0.26997 0.09111 0.3697 0.0
O482 O 0.30365 0.10099 0.39612 0.0
C483 C 0.37438 0.13567 0.34236 0.0
O484 O 0.36 0.12758 0.3649 0.0
O485 O 0.37382 0.15019 0.32308 0.0
O486 O 0.33703 0.13434 0.48728 0.0
O487 O 0.37477 0.16462 0.48095 0.0
O488 O 0.34439 0.10054 0.44292 0.0
C489 C 0.35664 0.15195 0.49754 0.0
O490 O 0.38191 0.12809 0.43119 0.0
O491 O 0.3909 0.188 0.40108 0.0
C492 C 0.36621 0.10672 0.43831 0.0
O493 O 0.36016 0.17468 0.36773 0.0
O494 O 0.30729 0.15202 0.39728 0.0
O495 O 0.2974 0.1342 0.44225 0.0
C496 C 0.90266 0.23149 0.27359 0.0
C497 C 0.851 0.15995 0.29834 0.0
C498 C 0.80966 0.19324 0.36893 0.0
Mg499 Mg 0.89734 0.19932 0.3286 0.0
O500 O 0.87918 0.21189 0.34212 0.0
Mg501 Mg 0.85338 0.21156 0.31612 0.0
Mg502 Mg 0.86794 0.2107 0.38343 0.0
O503 O 0.85711 0.21162 0.4254 0.0
Mg504 Mg 0.82963 0.21594 0.43359 0.0
Mg505 Mg 0.88817 0.2176 0.45003 0.0
C506 C 0.92128 0.21569 0.39516 0.0
C507 C 0.85518 0.16312 0.41969 0.0
O508 O 0.88164 0.22822 0.2778 0.0
O509 O 0.91204 0.22247 0.29073 0.0
O510 O 0.84284 0.17407 0.30011 0.0
O511 O 0.87119 0.16501 0.31029 0.0
O512 O 0.92087 0.20753 0.36867 0.0
O513 O 0.90472 0.21958 0.40366 0.0
C514 C 0.87762 0.26088 0.35342 0.0
O515 O 0.88161 0.25057 0.37535 0.0
O516 O 0.8658 0.24929 0.33011 0.0
O517 O 0.8658 0.21256 0.4921 0.0
O518 O 0.8284 0.20603 0.48097 0.0
O519 O 0.86942 0.23613 0.43275 0.0
C520 C 0.84471 0.20776 0.49961 0.0
O521 O 0.8499 0.25474 0.43031 0.0
O522 O 0.80527 0.19652 0.39599 0.0
C523 C 0.86983 0.25587 0.43507 0.0
O524 O 0.83101 0.19966 0.36072 0.0
O525 O 0.8543 0.1709 0.3933 0.0
O526 O 0.86574 0.17733 0.44186 0.0
C527 C 0.77549 0.65362 0.52916 0.0
C528 C 0.82535 0.6438 0.4998 0.0
C529 C 0.86215 0.7236 0.43152 0.0
Mg530 Mg 0.78102 0.63284 0.4705 0.0
O531 O 0.79534 0.66607 0.46198 0.0
Mg532 Mg 0.82326 0.68979 0.48641 0.0
Mg533 Mg 0.80401 0.68064 0.42202 0.0
O534 O 0.81129 0.6952 0.38051 0.0
Mg535 Mg 0.83772 0.72761 0.37115 0.0
Mg536 Mg 0.78075 0.66846 0.35678 0.0
C537 C 0.75461 0.62897 0.40747 0.0
C538 C 0.81843 0.65042 0.37942 0.0
O539 O 0.79689 0.67167 0.52666 0.0
O540 O 0.76559 0.63692 0.50956 0.0
O541 O 0.83392 0.66163 0.48237 0.0
O542 O 0.80726 0.62481 0.48962 0.0
O543 O 0.75768 0.61853 0.43039 0.0
O544 O 0.76735 0.6516 0.40344 0.0
C545 C 0.79537 0.71651 0.46492 0.0
O546 O 0.79012 0.70521 0.43967 0.0
O547 O 0.80873 0.71444 0.48472 0.0
O548 O 0.79991 0.6876 0.31355 0.0
O549 O 0.83702 0.71981 0.323 0.0
O550 O 0.79784 0.70613 0.37509 0.0
C551 C 0.82033 0.70483 0.305 0.0
O552 O 0.81683 0.74436 0.3805 0.0
O553 O 0.86453 0.73249 0.40504 0.0
C554 C 0.79679 0.72519 0.37675 0.0
O555 O 0.84165 0.70731 0.44108 0.0
O556 O 0.81915 0.65773 0.40627 0.0
O557 O 0.80625 0.65331 0.35857 0.0
H558 H 0.09194 0.7469 0.53221 0.0
H559 H 0.05613 0.71454 0.50639 0.0
H560 H 0.10159 0.70779 0.44269 0.0
H561 H 0.13708 0.73926 0.46864 0.0
H562 H 0.05436 0.7099 0.42097 0.0
H563 H 0.08982 0.66886 0.48692 0.0
H564 H 0.09891 0.65911 0.53761 0.0
H565 H 0.02895 0.6409 0.56689 0.0
H566 H 0.01957 0.65066 0.51645 0.0
H567 H 0.07807 0.63966 0.34661 0.0
H568 H 0.07174 0.66378 0.38232 0.0
H569 H 0.00248 0.60364 0.40401 0.0
H570 H 0.00881 0.57906 0.36822 0.0
H571 H 0.03376 0.62911 0.45455 0.0
H572 H 0.99847 0.64401 0.3724 0.0
H573 H 0.99396 0.64718 0.31764 0.0
H574 H 0.06142 0.71294 0.31632 0.0
H575 H 0.06698 0.70935 0.37079 0.0
C576 C 0.09413 0.73845 0.51263 0.0
C577 C 0.11717 0.74534 0.50248 0.0
C578 C 0.07377 0.72017 0.49792 0.0
C579 C 0.07637 0.70915 0.47252 0.0
C580 C 0.09934 0.71635 0.46213 0.0
C581 C 0.11957 0.73412 0.47713 0.0
C582 C 0.0558 0.68872 0.45751 0.0
C583 C 0.04888 0.69204 0.42851 0.0
C584 C 0.04802 0.66546 0.46786 0.0
C585 C 0.05418 0.66084 0.49831 0.0
C586 C 0.07654 0.66305 0.50435 0.0
C587 C 0.08168 0.65741 0.53291 0.0
C588 C 0.06449 0.64944 0.55538 0.0
C589 C 0.04221 0.64712 0.54943 0.0
C590 C 0.03701 0.65275 0.52093 0.0
C591 C 0.06151 0.63154 0.35893 0.0
C592 C 0.04399 0.60757 0.35486 0.0
C593 C 0.05779 0.64534 0.37908 0.0
C594 C 0.03644 0.63546 0.39522 0.0
C595 C 0.0189 0.61148 0.39141 0.0
C596 C 0.0226 0.59758 0.3711 0.0
C597 C 0.03402 0.65058 0.41736 0.0
C598 C 0.03689 0.64644 0.44765 0.0
C599 C 0.03757 0.67287 0.40815 0.0
C600 C 0.0331 0.67664 0.37599 0.0
C601 C 0.01234 0.65925 0.36054 0.0
C602 C 0.00971 0.66092 0.32942 0.0
C603 C 0.02745 0.68022 0.31349 0.0
C604 C 0.04771 0.69798 0.32869 0.0
C605 C 0.05063 0.69613 0.35972 0.0
H606 H 0.0255 0.68143 0.28937 0.0
H607 H 0.06841 0.64518 0.57752 0.0
H608 H 0.45101 0.45987 0.43057 0.0
H609 H 0.42138 0.43295 0.46602 0.0
H610 H 0.37385 0.39381 0.39151 0.0
H611 H 0.4043 0.41968 0.35631 0.0
H612 H 0.38468 0.43729 0.4656 0.0
H613 H 0.32483 0.34445 0.41015 0.0
H614 H 0.32994 0.31478 0.38285 0.0
H615 H 0.39764 0.33925 0.42811 0.0
H616 H 0.39271 0.36877 0.45637 0.0
H617 H 0.26546 0.40062 0.46342 0.0
H618 H 0.3032 0.40527 0.44672 0.0
H619 H 0.29966 0.35713 0.5164 0.0
H620 H 0.26085 0.35118 0.5319 0.0
H621 H 0.31899 0.35286 0.46252 0.0
H622 H 0.3287 0.41691 0.52843 0.0
H623 H 0.31692 0.44656 0.53917 0.0
H624 H 0.34681 0.48179 0.45561 0.0
H625 H 0.3579 0.45199 0.4438 0.0
C626 C 0.43501 0.44478 0.42176 0.0
C627 C 0.43003 0.442 0.39073 0.0
C628 C 0.41789 0.4293 0.44209 0.0
C629 C 0.39528 0.41126 0.43156 0.0
C630 C 0.39123 0.40715 0.40043 0.0
C631 C 0.40854 0.42227 0.38024 0.0
C632 C 0.37437 0.40172 0.45149 0.0
C633 C 0.37065 0.41867 0.46562 0.0
C634 C 0.35577 0.3775 0.45097 0.0
C635 C 0.35839 0.3589 0.43545 0.0
C636 C 0.34066 0.34331 0.4147 0.0
C637 C 0.34355 0.32656 0.39896 0.0
C638 C 0.36412 0.3252 0.40366 0.0
C639 C 0.38172 0.34038 0.42445 0.0
C640 C 0.37888 0.35713 0.44037 0.0
C641 C 0.27266 0.3909 0.47496 0.0
C642 C 0.26082 0.37609 0.49939 0.0
C643 C 0.2941 0.39347 0.46539 0.0
C644 C 0.30451 0.38214 0.48104 0.0
C645 C 0.29199 0.36622 0.50435 0.0
C646 C 0.27004 0.363 0.51328 0.0
C647 C 0.3293 0.38869 0.47453 0.0
C648 C 0.33358 0.37122 0.46343 0.0
C649 C 0.3482 0.41267 0.47625 0.0
C650 C 0.34415 0.43218 0.4853 0.0
C651 C 0.33296 0.43113 0.51253 0.0
C652 C 0.32624 0.44784 0.51868 0.0
C653 C 0.33108 0.46596 0.49806 0.0
C654 C 0.34304 0.46771 0.47153 0.0
C655 C 0.34952 0.4509 0.46509 0.0
H656 H 0.32543 0.47858 0.50249 0.0
H657 H 0.3664 0.31244 0.39106 0.0
H658 H 0.66124 0.95172 0.49862 0.0
H659 H 0.64231 0.96442 0.46181 0.0
H660 H 0.57267 0.90828 0.48973 0.0
H661 H 0.59176 0.89436 0.52561 0.0
H662 H 0.57929 0.90035 0.43602 0.0
H663 H 0.59046 0.97059 0.48365 0.0
H664 H 0.61245 0.00865 0.51139 0.0
H665 H 0.6624 0.03938 0.43944 0.0
H666 H 0.64131 0.00135 0.41172 0.0
H667 H 0.52564 0.91913 0.3065 0.0
H668 H 0.53953 0.91138 0.35351 0.0
H669 H 0.61091 0.9702 0.33726 0.0
H670 H 0.59613 0.97978 0.29131 0.0
H671 H 0.59921 0.97679 0.38797 0.0
H672 H 0.59211 0.90453 0.34548 0.0
H673 H 0.57124 0.8658 0.31909 0.0
H674 H 0.51412 0.83927 0.3823 0.0
H675 H 0.53478 0.87768 0.40938 0.0
C676 C 0.64184 0.94256 0.49794 0.0
C677 C 0.62801 0.9212 0.51384 0.0
C678 C 0.63095 0.95009 0.47687 0.0
C679 C 0.60601 0.9369 0.47228 0.0
C680 C 0.592 0.91838 0.49238 0.0
C681 C 0.60294 0.91045 0.51298 0.0
C682 C 0.59575 0.93825 0.44264 0.0
C683 C 0.58318 0.91708 0.42585 0.0
C684 C 0.60156 0.96009 0.4288 0.0
C685 C 0.61421 0.98306 0.4455 0.0
C686 C 0.6062 0.98541 0.47378 0.0
C687 C 0.61851 0.00698 0.48952 0.0
C688 C 0.63869 0.02643 0.47712 0.0
C689 C 0.6467 0.02433 0.44898 0.0
C690 C 0.63457 0.00277 0.43323 0.0
C691 C 0.54457 0.92987 0.31212 0.0
C692 C 0.5597 0.95036 0.29541 0.0
C693 C 0.55259 0.92534 0.33931 0.0
C694 C 0.57633 0.94032 0.34941 0.0
C695 C 0.59236 0.9587 0.33038 0.0
C696 C 0.58405 0.9639 0.30377 0.0
C697 C 0.58344 0.93896 0.38118 0.0
C698 C 0.59527 0.9601 0.3983 0.0
C699 C 0.5771 0.91712 0.39543 0.0
C700 C 0.56485 0.89404 0.37921 0.0
C701 C 0.57504 0.89048 0.35363 0.0
C702 C 0.56325 0.86861 0.33857 0.0
C703 C 0.54123 0.85023 0.34873 0.0
C704 C 0.53111 0.85356 0.37432 0.0
C705 C 0.5429 0.87532 0.38964 0.0
H706 H 0.53214 0.83335 0.33693 0.0
H707 H 0.64816 0.04311 0.48935 0.0
H708 H 0.77235 0.09111 0.03242 0.0
H709 H 0.7319 0.05863 0.04258 0.0
H710 H 0.71613 0.10821 0.08471 0.0
H711 H 0.75615 0.14095 0.07279 0.0
H712 H 0.69683 0.03514 0.07972 0.0
H713 H 0.66987 0.10632 0.05276 0.0
H714 H 0.68625 0.14392 0.02431 0.0
H715 H 0.72686 0.12343 0.97021 0.0
H716 H 0.7107 0.08579 -0.00181 0.0
H717 H 0.58546 0.00227 0.12954 0.0
H718 H 0.62342 0.01028 0.11123 0.0
H719 H 0.60658 0.0288 0.02403 0.0
H720 H 0.56945 0.02373 0.04442 0.0
H721 H 0.64344 0.06166 0.03618 0.0
H722 H 0.6272 0.9834 0.04116 0.0
H723 H 0.61111 0.94235 0.05955 0.0
H724 H 0.65607 0.96887 0.13887 0.0
H725 H 0.67216 0.01003 0.12132 0.0
C726 C 0.76074 0.09486 0.0455 0.0
C727 C 0.76712 0.1185 0.05148 0.0
C728 C 0.73748 0.07627 0.05098 0.0
C729 C 0.72074 0.08122 0.06318 0.0
C730 C 0.72862 0.10419 0.07433 0.0
C731 C 0.75162 0.12285 0.06807 0.0
C732 C 0.69473 0.06397 0.05944 0.0
C733 C 0.68494 0.04071 0.0703 0.0
C734 C 0.67957 0.07066 0.0447 0.0
C735 C 0.68922 0.09333 0.02775 0.0
C736 C 0.68225 0.10984 0.03473 0.0
C737 C 0.69154 0.13119 0.01872 0.0
C738 C 0.70767 0.13613 -0.00448 0.0
C739 C 0.71449 0.1197 0.98825 0.0
C740 C 0.70531 0.09838 0.00423 0.0
C741 C 0.58949 0.0072 0.10606 0.0
C742 C 0.57478 0.01266 0.08845 0.0
C743 C 0.61129 0.0115 0.0953 0.0
C744 C 0.61847 0.02041 0.06606 0.0
C745 C 0.60193 0.02249 0.04693 0.0
C746 C 0.58047 0.01927 0.05832 0.0
C747 C 0.64452 0.0327 0.05872 0.0
C748 C 0.65476 0.05533 0.04533 0.0
C749 C 0.66002 0.0247 0.06947 0.0
C750 C 0.65079 -0.00012 0.07992 0.0
C751 C 0.63358 0.9805 0.06259 0.0
C752 C 0.62448 0.9572 0.07287 0.0
C753 C 0.63259 0.95306 0.10036 0.0
C754 C 0.64987 0.97214 0.11756 0.0
C755 C 0.65903 0.99546 0.10741 0.0
H756 H 0.62557 0.9351 0.1084 0.0
H757 H 0.71483 0.15265 0.98312 0.0
H758 H 0.88355 0.58889 0.95042 0.0
H759 H 0.90806 0.58456 -0.01051 0.0
H760 H 0.93017 0.6546 0.02339 0.0
H761 H 0.90609 0.65928 0.98389 0.0
H762 H 0.96579 0.63823 0.03257 0.0
H763 H 0.88332 0.61528 0.0513 0.0
H764 H 0.84031 0.59524 0.03748 0.0
H765 H 0.83705 0.52805 0.03351 0.0
H766 H 0.88011 0.54777 0.04683 0.0
H767 H 0.97771 0.60221 0.18551 0.0
H768 H 0.97164 0.62114 0.14057 0.0
H769 H 0.92727 0.55176 0.10002 0.0
H770 H 0.93183 0.53314 0.14517 0.0
H771 H 0.90499 0.57403 0.09674 0.0
H772 H 0.98705 0.59574 0.07693 0.0
H773 H 0.03 0.61481 0.09055 0.0
H774 H 0.03484 0.68269 0.0965 0.0
H775 H 0.9918 0.6639 0.0834 0.0
C776 C 0.89421 0.60368 0.96558 0.0
C777 C 0.89231 0.62412 0.96465 0.0
C778 C 0.90836 0.60125 0.98777 0.0
C779 C 0.92057 0.61909 0.00964 0.0
C780 C 0.92087 0.64063 0.00673 0.0
C781 C 0.90688 0.64317 0.98425 0.0
C782 C 0.92823 0.61304 0.03839 0.0
C783 C 0.95259 0.62434 0.04683 0.0
C784 C 0.91097 0.59501 0.057 0.0
C785 C 0.88492 0.58303 0.04987 0.0
C786 C 0.87342 0.59626 0.04736 0.0
C787 C 0.84906 0.58497 0.03961 0.0
C788 C 0.83598 0.56041 0.03458 0.0
C789 C 0.84721 0.54708 0.0374 0.0
C790 C 0.87158 0.55829 0.04507 0.0
C791 C 0.96674 0.5912 0.16684 0.0
C792 C 0.95489 0.56629 0.16887 0.0
C793 C 0.96344 0.60196 0.14111 0.0
C794 C 0.9489 0.58788 0.11682 0.0
C795 C 0.93825 0.56305 0.11852 0.0
C796 C 0.94086 0.55239 0.14436 0.0
C797 C 0.94279 0.59816 0.09049 0.0
C798 C 0.91843 0.5879 0.08267 0.0
C799 C 0.96015 0.61693 0.07259 0.0
C800 C 0.98616 0.62836 0.07951 0.0
C801 C 0.99726 0.6147 0.08132 0.0
C802 C 0.02161 0.62546 0.08894 0.0
C803 C 0.03513 0.64994 0.09449 0.0
C804 C 0.02434 0.66372 0.09225 0.0
C805 C -3e-05 0.65302 0.08471 0.0
H806 H 0.05397 0.65824 0.10047 0.0
H807 H 0.81713 0.55171 0.02855 0.0
H808 H 0.31066 0.21664 0.08285 0.0
H809 H 0.31056 0.23656 0.12908 0.0
H810 H 0.33644 0.30219 0.07981 0.0
H811 H 0.33601 0.28212 0.03366 0.0
H812 H 0.35618 0.2677 0.14104 0.0
H813 H 0.33508 0.34328 0.11801 0.0
H814 H 0.30097 0.34779 0.10232 0.0
H815 H 0.25185 0.27626 0.13066 0.0
H816 H 0.28557 0.2713 0.14644 0.0
H817 H 0.4491 0.38272 0.17312 0.0
H818 H 0.41763 0.34312 0.15799 0.0
H819 H 0.36909 0.34739 0.21928 0.0
H820 H 0.40011 0.3882 0.23193 0.0
H821 H 0.34961 0.33728 0.16889 0.0
H822 H 0.3832 0.29288 0.2237 0.0
H823 H 0.41472 0.28413 0.23875 0.0
H824 H 0.4373 0.29185 0.147 0.0
H825 H 0.40503 0.29925 0.13121 0.0
C826 C 0.31496 0.2349 0.08164 0.0
C827 C 0.32389 0.24802 0.05508 0.0
C828 C 0.3148 0.24628 0.10803 0.0
C829 C 0.3238 0.27093 0.108 0.0
C830 C 0.32932 0.28316 0.08045 0.0
C831 C 0.32954 0.27179 0.05416 0.0
C832 C 0.33554 0.28494 0.13553 0.0
C833 C 0.35417 0.28246 0.14798 0.0
C834 C 0.33317 0.3043 0.14432 0.0
C835 C 0.31288 0.30689 0.13335 0.0
C836 C 0.31699 0.32849 0.12082 0.0
C837 C 0.29771 0.33112 0.11185 0.0
C838 C 0.27422 0.31233 0.11546 0.0
C839 C 0.27 0.29079 0.12773 0.0
C840 C 0.2892 0.28801 0.13655 0.0
C841 C 0.43199 0.37477 0.1842 0.0
C842 C 0.42703 0.38818 0.20398 0.0
C843 C 0.41398 0.35193 0.17582 0.0
C844 C 0.39097 0.34181 0.18799 0.0
C845 C 0.38669 0.35466 0.2097 0.0
C846 C 0.40443 0.37789 0.2171 0.0
C847 C 0.37058 0.32032 0.17384 0.0
C848 C 0.35071 0.32174 0.16348 0.0
C849 C 0.37184 0.29998 0.16665 0.0
C850 C 0.39199 0.29691 0.17642 0.0
C851 C 0.39498 0.29281 0.20682 0.0
C852 C 0.41279 0.28782 0.21541 0.0
C853 C 0.42818 0.2877 0.19393 0.0
C854 C 0.42546 0.29205 0.16367 0.0
C855 C 0.40723 0.29631 0.15483 0.0
H856 H 0.44217 0.28418 0.20075 0.0
H857 H 0.25932 0.31449 0.10882 0.0
H858 H 0.00182 0.4547 0.55689 0.0
H859 H 0.99016 0.4265 0.51493 0.0
H860 H 0.0066 0.38184 0.57001 0.0
H861 H 0.01721 0.40938 0.61219 0.0
H862 H 0.00105 0.39303 0.48114 0.0
H863 H 0.95397 0.33564 0.58447 0.0
H864 H 0.94355 0.34119 0.63582 0.0
H865 H 0.93798 0.40073 0.60528 0.0
H866 H 0.94791 0.39523 0.55376 0.0
H867 H 0.90851 0.25951 0.46562 0.0
H868 H 0.94219 0.29535 0.48809 0.0
H869 H 0.91332 0.33721 0.45292 0.0
H870 H 0.87869 0.30127 0.43166 0.0
H871 H 0.92769 0.32812 0.52841 0.0
H872 H 0.97707 0.39049 0.4297 0.0
H873 H 0.98601 0.38831 0.37642 0.0
H874 H 0.982 0.32158 0.39313 0.0
H875 H 0.9733 0.32348 0.44643 0.0
C876 C 0.00409 0.43948 0.55944 0.0
C877 C 0.00974 0.43373 0.58778 0.0
C878 C 0.9976 0.42347 0.53539 0.0
C879 C 0.99708 0.40191 0.53969 0.0
C880 C 0.00674 0.39833 0.56641 0.0
C881 C 0.01269 0.41399 0.59054 0.0
C882 C 0.98028 0.38086 0.52151 0.0
C883 C 0.98499 0.37882 0.4913 0.0
C884 C 0.95914 0.36259 0.53478 0.0
C885 C 0.95192 0.36516 0.5654 0.0
C886 C 0.95033 0.34978 0.58871 0.0
C887 C 0.94454 0.35294 0.61784 0.0
C888 C 0.94017 0.37134 0.62383 0.0
C889 C 0.94139 0.3865 0.60065 0.0
C890 C 0.9471 0.38337 0.5715 0.0
C891 C 0.90937 0.27634 0.4624 0.0
C892 C 0.89093 0.2776 0.44699 0.0
C893 C 0.9287 0.29679 0.47509 0.0
C894 C 0.93028 0.31885 0.47154 0.0
C895 C 0.91234 0.32029 0.45541 0.0
C896 C 0.89258 0.29977 0.44358 0.0
C897 C 0.9487 0.33982 0.48822 0.0
C898 C 0.94396 0.34206 0.51824 0.0
C899 C 0.96922 0.35844 0.47428 0.0
C900 C 0.97439 0.35707 0.44213 0.0
C901 C 0.97822 0.3754 0.42205 0.0
C902 C 0.98326 0.37423 0.39181 0.0
C903 C 0.98462 0.35485 0.3814 0.0
C904 C 0.9809 0.33657 0.40118 0.0
C905 C 0.97584 0.33766 0.4314 0.0
H906 H 0.98852 0.35396 0.358 0.0
H907 H 0.93583 0.37383 0.64642 0.0
H908 H 0.5867 0.54477 0.57286 0.0
H909 H 0.62427 0.57821 0.55525 0.0
H910 H 0.60066 0.62669 0.57875 0.0
H911 H 0.5628 0.59319 0.59626 0.0
H912 H 0.64293 0.63283 0.52139 0.0
H913 H 0.62637 0.63873 0.62796 0.0
H914 H 0.60467 0.62005 0.67465 0.0
H915 H 0.63174 0.57233 0.6747 0.0
H916 H 0.65332 0.59053 0.62764 0.0
H917 H 0.76932 0.69105 0.53673 0.0
H918 H 0.73165 0.68771 0.55183 0.0
H919 H 0.70526 0.61505 0.57917 0.0
H920 H 0.74287 0.61845 0.56437 0.0
H921 H 0.68845 0.63777 0.6151 0.0
H922 H 0.69792 0.62822 0.50444 0.0
H923 H 0.71902 0.64568 0.45691 0.0
H924 H 0.70646 0.70375 0.46628 0.0
H925 H 0.68533 0.68659 0.51388 0.0
C926 C 0.5889 0.56236 0.57261 0.0
C927 C 0.5721 0.56647 0.58639 0.0
C928 C 0.61037 0.58148 0.56255 0.0
C929 C 0.6153 0.60485 0.56634 0.0
C930 C 0.59711 0.60873 0.57574 0.0
C931 C 0.57543 0.58951 0.5856 0.0
C932 C 0.64066 0.6239 0.56849 0.0
C933 C 0.65296 0.63487 0.54212 0.0
C934 C 0.65366 0.62651 0.59558 0.0
C935 C 0.64127 0.61586 0.62422 0.0
C936 C 0.62758 0.62417 0.63786 0.0
C937 C 0.61531 0.61368 0.66436 0.0
C938 C 0.61678 0.59499 0.67758 0.0
C939 C 0.6306 0.58679 0.66438 0.0
C940 C 0.64286 0.5972 0.6378 0.0
C941 C 0.75597 0.67484 0.54755 0.0
C942 C 0.75897 0.65503 0.54978 0.0
C943 C 0.73433 0.67284 0.55567 0.0
C944 C 0.71557 0.65102 0.5661 0.0
C945 C 0.71953 0.63204 0.57114 0.0
C946 C 0.74107 0.63403 0.56299 0.0
C947 C 0.69083 0.64631 0.56782 0.0
C948 C 0.67861 0.63744 0.59486 0.0
C949 C 0.67804 0.64631 0.54156 0.0
C950 C 0.69015 0.65619 0.51263 0.0
C951 C 0.69965 0.64468 0.49629 0.0
C952 C 0.71161 0.65452 0.46938 0.0
C953 C 0.71403 0.67578 0.45857 0.0
C954 C 0.70451 0.68725 0.47464 0.0
C955 C 0.69251 0.67746 0.50154 0.0
H956 H 0.72323 0.68332 0.4377 0.0
H957 H 0.60726 0.58692 0.69809 0.0
H958 H 0.4625 0.08792 0.6615 0.0
H959 H 0.44214 0.09511 0.62009 0.0
H960 H 0.37908 0.02622 0.63392 0.0
H961 H 0.3997 0.01868 0.67534 0.0
H962 H 0.39398 0.02823 0.57965 0.0
H963 H 0.3774 0.07917 0.63583 0.0
H964 H 0.38381 0.1114 0.67021 0.0
H965 H 0.43802 0.16304 0.61244 0.0
H966 H 0.43216 0.13111 0.57785 0.0
H967 H 0.33882 0.0602 0.45627 0.0
H968 H 0.34986 0.04387 0.49904 0.0
H969 H 0.42304 0.10152 0.49347 0.0
H970 H 0.4123 0.11801 0.45076 0.0
H971 H 0.39671 0.1018 0.54494 0.0
H972 H 0.41256 0.0486 0.48948 0.0
H973 H 0.40292 0.01573 0.45467 0.0
H974 H 0.34637 0.96688 0.51203 0.0
H975 H 0.35515 0.99971 0.54686 0.0
C976 C 0.44394 0.07467 0.65674 0.0
C977 C 0.43301 0.05236 0.67103 0.0
C978 C 0.43223 0.07883 0.63288 0.0
C979 C 0.4092 0.06099 0.62339 0.0
C980 C 0.39701 0.04008 0.64048 0.0
C981 C 0.40879 0.03584 0.66427 0.0
C982 C 0.39998 0.06258 0.59307 0.0
C983 C 0.39401 0.04411 0.57228 0.0
C984 C 0.40043 0.08342 0.58319 0.0
C985 C 0.40445 0.10267 0.60434 0.0
C986 C 0.39087 0.09737 0.6306 0.0
C987 C 0.39437 0.11561 0.6501 0.0
C988 C 0.41139 0.13925 0.64356 0.0
C989 C 0.42488 0.14471 0.61748 0.0
C990 C 0.42144 0.12655 0.5979 0.0
C991 C 0.35752 0.0688 0.46312 0.0
C992 C 0.37448 0.09105 0.45102 0.0
C993 C 0.36377 0.05942 0.48769 0.0
C994 C 0.38707 0.07198 0.49995 0.0
C995 C 0.40484 0.09184 0.48457 0.0
C996 C 0.39865 0.10117 0.45995 0.0
C997 C 0.39162 0.0679 0.53159 0.0
C998 C 0.39648 0.08586 0.55255 0.0
C999 C 0.38973 0.04647 0.54163 0.0
C1000 C 0.3843 0.02673 0.52058 0.0
C1001 C 0.39783 0.03094 0.4945 0.0
C1002 C 0.39258 0.01226 0.47479 0.0
C1003 C 0.37405 0.98919 0.48107 0.0
C1004 C 0.36069 0.98476 0.50713 0.0
C1005 C 0.36577 0.00342 0.52685 0.0
H1006 H 0.37009 0.97475 0.46579 0.0
H1007 H 0.41417 0.15338 0.65865 0.0
H1008 H 0.43671 0.03766 0.87113 0.0
H1009 H 0.40678 0.0324 0.90782 0.0
H1010 H 0.4266 0.99064 0.96371 0.0
H1011 H 0.45633 0.99561 0.92666 0.0
H1012 H 0.37266 0.98292 0.91197 0.0
H1013 H 0.40712 0.99507 0.03724 0.0
H1014 H 0.44078 0.02528 0.06835 0.0
H1015 H 0.4506 0.07977 0.00558 0.0
H1016 H 0.41702 0.04997 0.97416 0.0
H1017 H 0.28567 0.89419 -0.00335 0.0
H1018 H 0.32701 0.92323 0.98412 0.0
H1019 H 0.31619 0.98061 0.00871 0.0
H1020 H 0.27441 0.95177 0.02024 0.0
H1021 H 0.36513 0.9885 0.02231 0.0
H1022 H 0.30626 0.96838 0.94182 0.0
H1023 H 0.27116 0.93961 0.91142 0.0
H1024 H 0.30962 0.9061 0.88265 0.0
H1025 H 0.3448 0.93444 0.91334 0.0
C1026 C 0.4355 0.02845 0.89205 0.0
C1027 C 0.44868 0.01708 0.89639 0.0
C1028 C 0.41845 0.02547 0.91294 0.0
C1029 C 0.41453 0.01113 0.93838 0.0
C1030 C 0.42962 0.00201 0.94438 0.0
C1031 C 0.44649 0.00475 0.92324 0.0
C1032 C 0.39122 0.00021 0.95336 0.0
C1033 C 0.371 0.98448 0.93602 0.0
C1034 C 0.38913 0.00233 0.98465 0.0
C1035 C 0.40964 0.02021 0.00322 0.0
C1036 C 0.41645 0.0135 0.03009 0.0
C1037 C 0.43552 0.03056 0.04778 0.0
C1038 C 0.44779 0.05442 0.03897 0.0
C1039 C 0.44109 0.06127 0.01238 0.0
C1040 C 0.42214 0.04428 -0.00547 0.0
C1041 C 0.29222 0.91293 0.00017 0.0
C1042 C 0.27672 0.92078 0.00865 0.0
C1043 C 0.31593 0.92945 -0.00657 0.0
C1044 C 0.32457 0.95393 -0.00428 0.0
C1045 C 0.30981 0.96176 0.007 0.0
C1046 C 0.28592 0.94527 0.01319 0.0
C1047 C 0.34707 0.97089 0.98092 0.0
C1048 C 0.36693 0.98744 -0.00179 0.0
C1049 C 0.3489 0.96996 0.94936 0.0
C1050 C 0.3281 0.95344 0.93 0.0
C1051 C 0.30718 0.95482 0.92911 0.0
C1052 C 0.28728 0.93858 0.91184 0.0
C1053 C 0.28815 0.92101 0.89514 0.0
C1054 C 0.30897 0.91971 0.89559 0.0
C1055 C 0.32891 0.93587 0.9129 0.0
H1056 H 0.2727 0.90843 0.88183 0.0
H1057 H 0.46253 0.0676 0.0527 0.0
H1058 H 0.08877 0.46683 0.79062 0.0
H1059 H 0.10392 0.44877 0.82479 0.0
H1060 H 0.0357 0.38285 0.82137 0.0
H1061 H 0.01972 0.40179 0.78856 0.0
H1062 H 0.04431 0.39456 0.87479 0.0
H1063 H 0.09596 0.38527 0.80671 0.0
H1064 H 0.12401 0.39662 0.76457 0.0
H1065 H 0.17338 0.46193 0.80997 0.0
H1066 H 0.14557 0.45093 0.8523 0.0
H1067 H 0.10073 0.35665 0.98792 0.0
H1068 H 0.07916 0.36092 0.94471 0.0
H1069 H 0.13014 0.43641 0.94287 0.0
H1070 H 0.15181 0.4323 0.98578 0.0
H1071 H 0.12776 0.4128 0.89011 0.0
H1072 H 0.07497 0.41839 0.95939 0.0
H1073 H 0.04601 0.40568 0.00053 0.0
H1074 H 0.99713 0.34242 0.95107 0.0
H1075 H 0.02596 0.35457 0.90976 0.0
C1076 C 0.0772 0.44818 0.796 0.0
C1077 C 0.05282 0.43601 0.78785 0.0
C1078 C 0.08605 0.43763 0.8155 0.0
C1079 C 0.07099 0.41433 0.82599 0.0
C1080 C 0.04756 0.40099 0.8141 0.0
C1081 C 0.03851 0.41176 0.79509 0.0
C1082 C 0.07815 0.40613 0.85335 0.0
C1083 C 0.06228 0.39759 0.87766 0.0
C1084 C 0.10174 0.41067 0.85766 0.0
C1085 C 0.11858 0.4174 0.8324 0.0
C1086 C 0.11268 0.40217 0.80747 0.0
C1087 C 0.12857 0.40849 0.78365 0.0
C1088 C 0.15038 0.43006 0.78449 0.0
C1089 C 0.15643 0.44527 0.80928 0.0
C1090 C 0.14067 0.43896 0.83324 0.0
C1091 C 0.10695 0.37423 0.97878 0.0
C1092 C 0.12826 0.39407 -0.01043 0.0
C1093 C 0.09461 0.37663 0.95417 0.0
C1094 C 0.10338 0.39891 0.94047 0.0
C1095 C 0.12335 0.41904 0.95303 0.0
C1096 C 0.13566 0.41666 0.9775 0.0
C1097 C 0.09385 0.40092 0.91094 0.0
C1098 C 0.10944 0.40861 0.88656 0.0
C1099 C 0.06983 0.39486 0.90645 0.0
C1100 C 0.05276 0.38725 0.93162 0.0
C1101 C 0.05819 0.40161 0.95743 0.0
C1102 C 0.04176 0.39456 0.98074 0.0
C1103 C 0.01977 0.37327 0.9784 0.0
C1104 C 0.01418 0.35892 0.95282 0.0
C1105 C 0.03056 0.36588 0.92946 0.0
H1106 H 0.007 0.36797 -0.00365 0.0
H1107 H 0.16265 0.43493 0.76602 0.0
H1108 H 0.55559 0.63911 0.79071 0.0
H1109 H 0.57772 0.66834 0.83015 0.0
H1110 H 0.63378 0.65158 0.82754 0.0
H1111 H 0.61196 0.62252 0.78782 0.0
H1112 H 0.60648 0.63464 0.87787 0.0
H1113 H 0.65086 0.70743 0.82933 0.0
H1114 H 0.6639 0.74259 0.79695 0.0
H1115 H 0.61428 0.75757 0.83948 0.0
H1116 H 0.60058 0.72226 0.87181 0.0
H1117 H 0.65553 0.71476 0.01065 0.0
H1118 H 0.64679 0.68736 0.96882 0.0
H1119 H 0.57827 0.68174 0.95466 0.0
H1120 H 0.58673 0.70899 -0.00355 0.0
H1121 H 0.62068 0.71262 0.91297 0.0
H1122 H 0.5722 0.63227 0.95444 0.0
H1123 H 0.56425 0.59901 0.98845 0.0
H1124 H 0.62813 0.60168 0.95902 0.0
H1125 H 0.63652 0.63506 0.92504 0.0
C1126 C 0.57326 0.64259 0.79718 0.0
C1127 C 0.58144 0.62764 0.78734 0.0
C1128 C 0.58598 0.65942 0.81978 0.0
C1129 C 0.607 0.66154 0.83237 0.0
C1130 C 0.6174 0.64993 0.81841 0.0
C1131 C 0.60481 0.63326 0.79569 0.0
C1132 C 0.61333 0.66936 0.86411 0.0
C1133 C 0.61015 0.65196 0.88547 0.0
C1134 C 0.61785 0.69178 0.87404 0.0
C1135 C 0.6245 0.71194 0.85291 0.0
C1136 C 0.64238 0.71793 0.83147 0.0
C1137 C 0.65003 0.73802 0.81323 0.0
C1138 C 0.63995 0.75233 0.81618 0.0
C1139 C 0.62207 0.74647 0.83722 0.0
C1140 C 0.61437 0.72641 0.85553 0.0
C1141 C 0.63798 0.70659 -0.00018 0.0
C1142 C 0.6223 0.71493 0.0058 0.0
C1143 C 0.63303 0.6909 0.97587 0.0
C1144 C 0.61225 0.68323 0.9582 0.0
C1145 C 0.59457 0.68781 0.96793 0.0
C1146 C 0.59944 0.70338 -0.00802 0.0
C1147 C 0.6124 0.67748 0.92616 0.0
C1148 C 0.61711 0.69543 0.90502 0.0
C1149 C 0.6097 0.65578 0.91642 0.0
C1150 C 0.60519 0.6364 0.93767 0.0
C1151 C 0.58473 0.62599 0.95561 0.0
C1152 C 0.58009 0.60705 0.97476 0.0
C1153 C 0.59579 0.59838 0.97609 0.0
C1154 C 0.61607 0.60851 0.95812 0.0
C1155 C 0.62076 0.62742 0.93891 0.0
H1156 H 0.5922 0.58379 -0.00901 0.0
H1157 H 0.64597 0.76793 0.80215 0.0
H1158 H 0.68603 0.94695 0.65379 0.0
H1159 H 0.6819 0.97439 0.68726 0.0
H1160 H 0.70466 0.94846 0.76303 0.0
H1161 H 0.7092 0.92153 0.72959 0.0
H1162 H 0.67085 0.96388 0.77776 0.0
H1163 H 0.74643 0.98947 0.72269 0.0
H1164 H 0.76813 0.99671 0.67511 0.0
H1165 H 0.74292 0.04288 0.64525 0.0
H1166 H 0.72075 0.03556 0.69252 0.0
H1167 H 0.77488 0.04065 0.86232 0.0
H1168 H 0.74343 0.01252 0.82776 0.0
H1169 H 0.72523 0.06536 0.80391 0.0
H1170 H 0.75639 0.09351 0.83846 0.0
H1171 H 0.74332 0.04195 0.75642 0.0
H1172 H 0.68325 0.02933 0.82125 0.0
H1173 H 0.66072 0.02277 0.86776 0.0
H1174 H 0.65324 0.95395 0.878 0.0
H1175 H 0.67642 0.96034 0.83202 0.0
C1176 C 0.68921 0.94656 0.6778 0.0
C1177 C 0.69799 0.93238 0.68937 0.0
C1178 C 0.68678 0.96212 0.69685 0.0
C1179 C 0.69308 0.96348 0.72755 0.0
C1180 C 0.69952 0.94752 0.73946 0.0
C1181 C 0.70228 0.93229 0.7204 0.0
C1182 C 0.69842 0.98445 0.74589 0.0
C1183 C 0.68648 0.98109 0.77312 0.0
C1184 C 0.71819 0.00714 0.73903 0.0
C1185 C 0.73172 0.01173 0.71086 0.0
C1186 C 0.7454 0.00103 0.70586 0.0
C1187 C 0.75778 0.00515 0.67898 0.0
C1188 C 0.75684 0.02018 0.65712 0.0
C1189 C 0.74357 0.03118 0.66216 0.0
C1190 C 0.73107 0.02704 0.68896 0.0
C1191 C 0.76373 0.04607 0.85043 0.0
C1192 C 0.76837 0.06944 0.85298 0.0
C1193 C 0.74559 0.0299 0.83104 0.0
C1194 C 0.73172 0.03672 0.81393 0.0
C1195 C 0.73549 0.05966 0.81736 0.0
C1196 C 0.75345 0.07578 0.83711 0.0
C1197 C 0.71657 0.02103 0.78913 0.0
C1198 C 0.72691 0.02523 0.76068 0.0
C1199 C 0.6952 0.99934 0.79484 0.0
C1200 C 0.68198 0.99552 0.82328 0.0
C1201 C 0.67727 0.01298 0.8337 0.0
C1202 C 0.66429 0.00926 0.85995 0.0
C1203 C 0.6557 0.98802 0.87594 0.0
C1204 C 0.66004 0.97046 0.86567 0.0
C1205 C 0.67313 0.97414 0.83949 0.0
H1206 H 0.64556 0.98512 0.89621 0.0
H1207 H 0.76644 0.02336 0.63633 0.0
H1208 H 0.1083 0.77122 0.68119 0.0
H1209 H 0.06907 0.74499 0.70138 0.0
H1210 H 0.08154 0.79786 0.76841 0.0
H1211 H 0.11914 0.82581 0.74423 0.0
H1212 H 0.04254 0.7223 0.73992 0.0
H1213 H 0.03547 0.80158 0.78249 0.0
H1214 H 0.05599 0.84507 0.77472 0.0
H1215 H 0.07427 0.83656 0.68508 0.0
H1216 H 0.05365 0.79304 0.69223 0.0
H1217 H 0.92648 0.67468 0.79915 0.0
H1218 H 0.96792 0.69137 0.78437 0.0
H1219 H 0.96148 0.74099 0.72592 0.0
H1220 H 0.92085 0.72592 0.74355 0.0
H1221 H 0.99789 0.76449 0.75034 0.0
H1222 H 0.97002 0.68914 0.70659 0.0
H1223 H 0.95148 0.64599 0.69881 0.0
H1224 H 0.00133 0.64452 0.76252 0.0
H1225 H 0.01932 0.68746 0.77183 0.0
C1226 C 0.10308 0.77695 0.70102 0.0
C1227 C 0.11668 0.80064 0.71096 0.0
C1228 C 0.08045 0.76182 0.71264 0.0
C1229 C 0.07157 0.76966 0.73565 0.0
C1230 C 0.08729 0.79178 0.74951 0.0
C1231 C 0.10923 0.80764 0.73631 0.0
C1232 C 0.04525 0.75642 0.7415 0.0
C1233 C 0.03268 0.73143 0.74229 0.0
C1234 C 0.03206 0.76819 0.74309 0.0
C1235 C 0.04322 0.79415 0.73802 0.0
C1236 C 0.04368 0.809 0.76105 0.0
C1237 C 0.05537 0.83364 0.75677 0.0
C1238 C 0.06647 0.84356 0.72945 0.0
C1239 C 0.06569 0.82886 0.70623 0.0
C1240 C 0.05398 0.80422 0.71036 0.0
C1241 C 0.93355 0.68828 0.78186 0.0
C1242 C 0.92022 0.69849 0.77167 0.0
C1243 C 0.95739 0.6979 0.77342 0.0
C1244 C 0.96813 0.71723 0.75344 0.0
C1245 C 0.95402 0.72623 0.74157 0.0
C1246 C 0.93046 0.7172 0.75092 0.0
C1247 C 0.99455 0.72986 0.7479 0.0
C1248 C 0.00731 0.75494 0.74761 0.0
C1249 C 0.00754 0.71791 0.74433 0.0
C1250 C 0.99573 0.69164 0.7403 0.0
C1251 C 0.97665 0.67958 0.71949 0.0
C1252 C 0.96627 0.65511 0.71475 0.0
C1253 C 0.97518 0.64249 0.73022 0.0
C1254 C 0.99443 0.65432 0.75052 0.0
C1255 C 0.00459 0.67871 0.75572 0.0
H1256 H 0.96719 0.62356 0.72646 0.0
H1257 H 0.07564 0.86265 0.72627 0.0
H1258 H 0.34881 0.29065 0.84141 0.0
H1259 H 0.33946 0.3193 0.81918 0.0
H1260 H 0.26413 0.26932 0.82999 0.0
H1261 H 0.27307 0.24039 0.85217 0.0
H1262 H 0.29207 0.28706 0.7657 0.0
H1263 H 0.29134 0.31342 0.87058 0.0
H1264 H 0.31303 0.3383 0.91434 0.0
H1265 H 0.34075 0.40109 0.85972 0.0
H1266 H 0.31949 0.37655 0.81519 0.0
H1267 H 0.19512 0.2818 0.71798 0.0
H1268 H 0.22374 0.28498 0.75667 0.0
H1269 H 0.26673 0.36061 0.7411 0.0
H1270 H 0.2367 0.3577 0.70398 0.0
H1271 H 0.27303 0.34727 0.80101 0.0
H1272 H 0.28063 0.33028 0.70085 0.0
H1273 H 0.26774 0.31256 0.65014 0.0
H1274 H 0.24132 0.24282 0.68724 0.0
H1275 H 0.25355 0.26002 0.73827 0.0
C1276 C 0.33022 0.28592 0.83983 0.0
C1277 C 0.31153 0.26294 0.84765 0.0
C1278 C 0.32505 0.30245 0.82736 0.0
C1279 C 0.30121 0.29627 0.82313 0.0
C1280 C 0.28267 0.2743 0.83354 0.0
C1281 C 0.28778 0.25774 0.84591 0.0
C1282 C 0.29486 0.30973 0.80237 0.0
C1283 C 0.28816 0.30047 0.77317 0.0
C1284 C 0.29169 0.32854 0.81165 0.0
C1285 C 0.30379 0.34297 0.83916 0.0
C1286 C 0.30226 0.33244 0.8675 0.0
C1287 C 0.31443 0.34655 0.89264 0.0
C1288 C 0.32831 0.37126 0.88983 0.0
C1289 C 0.32995 0.38194 0.8619 0.0
C1290 C 0.31774 0.36792 0.83672 0.0
C1291 C 0.20999 0.29924 0.72401 0.0
C1292 C 0.21373 0.31943 0.70828 0.0
C1293 C 0.22638 0.30109 0.74592 0.0
C1294 C 0.2476 0.32293 0.75101 0.0
C1295 C 0.25045 0.34363 0.73739 0.0
C1296 C 0.23334 0.3419 0.71622 0.0
C1297 C 0.26791 0.3225 0.7657 0.0
C1298 C 0.27759 0.33444 0.79318 0.0
C1299 C 0.27518 0.30707 0.75429 0.0
C1300 C 0.26806 0.2965 0.72349 0.0
C1301 C 0.27198 0.31115 0.69825 0.0
C1302 C 0.26476 0.30119 0.66942 0.0
C1303 C 0.25373 0.27658 0.66547 0.0
C1304 C 0.2499 0.26189 0.69033 0.0
C1305 C 0.25701 0.27174 0.71923 0.0
H1306 H 0.24814 0.26891 0.64314 0.0
H1307 H 0.33777 0.38215 0.90931 0.0
H1308 H 0.90906 0.27565 0.26593 0.0
H1309 H 0.94543 0.31028 0.24663 0.0
H1310 H 0.97021 0.26404 0.21673 0.0
H1311 H 0.93426 0.22966 0.23639 0.0
H1312 H 0.98808 0.32175 0.27231 0.0
H1313 H 0.00841 0.28866 0.15973 0.0
H1314 H 0.98658 0.26826 0.11305 0.0
H1315 H 0.93568 0.29035 0.12758 0.0
H1316 H 0.95744 0.31136 0.17401 0.0
H1317 H 0.09315 0.31994 0.23831 0.0
H1318 H 0.05555 0.31683 0.25288 0.0
H1319 H 0.0724 0.3786 0.19934 0.0
H1320 H 0.11064 0.38259 0.18613 0.0
H1321 H 0.03229 0.32982 0.179 0.0
H1322 H 0.05698 0.38554 0.25626 0.0
H1323 H 0.07717 0.4084 0.30231 0.0
H1324 H 0.03718 0.34561 0.35591 0.0
H1325 H 0.017 0.32223 0.31014 0.0
C1326 C 0.92173 0.27281 0.25386 0.0
C1327 C 0.9189 0.25002 0.25252 0.0
C1328 C 0.9426 0.29263 0.24314 0.0
C1329 C 0.96056 0.28977 0.23031 0.0
C1330 C 0.9565 0.2667 0.2262 0.0
C1331 C 0.93593 0.24701 0.23739 0.0
C1332 C 0.98509 0.31042 0.22614 0.0
C1333 C 0.99772 0.32384 0.25176 0.0
C1334 C 0.99745 0.31379 0.19897 0.0
C1335 C 0.98455 0.30154 0.17059 0.0
C1336 C 0.9927 0.28939 0.1529 0.0
C1337 C 0.98029 0.27767 0.12646 0.0
C1338 C 0.9597 0.27792 0.11745 0.0
C1339 C 0.95157 0.29008 0.13468 0.0
C1340 C 0.96393 0.30189 0.16107 0.0
C1341 C 0.08963 0.33384 0.23147 0.0
C1342 C 0.10485 0.35155 0.21127 0.0
C1343 C 0.06805 0.33197 0.23958 0.0
C1344 C 0.06115 0.34738 0.22695 0.0
C1345 C 0.0775 0.36667 0.2095 0.0
C1346 C 0.09948 0.36902 0.20222 0.0
C1347 C 0.03536 0.33951 0.22583 0.0
C1348 C 0.02252 0.32833 0.19922 0.0
C1349 C 0.02282 0.33843 0.25195 0.0
C1350 C 0.03558 0.35205 0.27961 0.0
C1351 C 0.05272 0.37649 0.27779 0.0
C1352 C 0.06411 0.38958 0.30389 0.0
C1353 C 0.05852 0.37845 0.33202 0.0
C1354 C 0.04153 0.3542 0.3341 0.0
C1355 C 0.03008 0.34102 0.30806 0.0
H1356 H 0.06731 0.38863 0.3522 0.0
H1357 H 0.95001 0.26867 0.09714 0.0
H1358 H 0.69294 0.75371 0.18978 0.0
H1359 H 0.69456 0.73414 0.23586 0.0
H1360 H 0.66812 0.77196 0.286 0.0
H1361 H 0.66516 0.79081 0.23912 0.0
H1362 H 0.71823 0.78304 0.29612 0.0
H1363 H 0.63876 0.71777 0.29734 0.0
H1364 H 0.60176 0.68419 0.27579 0.0
H1365 H 0.63929 0.64788 0.25544 0.0
H1366 H 0.6767 0.68148 0.27634 0.0
H1367 H 0.78452 0.75677 0.39553 0.0
H1368 H 0.75027 0.75993 0.37883 0.0
H1369 H 0.72886 0.70102 0.31752 0.0
H1370 H 0.76086 0.69553 0.338 0.0
H1371 H 0.69204 0.70046 0.32742 0.0
H1372 H 0.76936 0.76612 0.30027 0.0
H1373 H 0.81026 0.80043 0.30804 0.0
H1374 H 0.78243 0.83604 0.35942 0.0
H1375 H 0.74137 0.80184 0.3521 0.0
C1376 C 0.68681 0.75738 0.21046 0.0
C1377 C 0.6798 0.77444 0.21124 0.0
C1378 C 0.68739 0.74589 0.23669 0.0
C1379 C 0.68145 0.75161 0.26427 0.0
C1380 C 0.67249 0.76713 0.26479 0.0
C1381 C 0.6711 0.77807 0.23815 0.0
C1382 C 0.69075 0.74628 0.29197 0.0
C1383 C 0.71216 0.76508 0.30382 0.0
C1384 C 0.68314 0.7227 0.30082 0.0
C1385 C 0.66061 0.70223 0.28847 0.0
C1386 C 0.6392 0.70271 0.28813 0.0
C1387 C 0.61811 0.68363 0.27603 0.0
C1388 C 0.61813 0.66387 0.26428 0.0
C1389 C 0.63927 0.66317 0.26461 0.0
C1390 C 0.66043 0.68223 0.27665 0.0
C1391 C 0.77196 0.74403 0.37922 0.0
C1392 C 0.77521 0.7259 0.36807 0.0
C1393 C 0.75256 0.74603 0.36933 0.0
C1394 C 0.73743 0.73142 0.34586 0.0
C1395 C 0.74018 0.71265 0.33555 0.0
C1396 C 0.75865 0.70963 0.34702 0.0
C1397 C 0.72063 0.73719 0.32982 0.0
C1398 C 0.69788 0.71854 0.32047 0.0
C1399 C 0.72774 0.76086 0.32127 0.0
C1400 C 0.7524 0.78127 0.32615 0.0
C1401 C 0.77202 0.7812 0.31345 0.0
C1402 C 0.7952 0.80063 0.31772 0.0
C1403 C 0.79895 0.82034 0.33437 0.0
C1404 C 0.77951 0.82069 0.34671 0.0
C1405 C 0.75628 0.8013 0.3425 0.0
H1406 H 0.81691 0.83539 0.3376 0.0
H1407 H 0.60179 0.64911 0.25494 0.0
H1408 H 0.31719 0.07559 0.33048 0.0
H1409 H 0.31167 0.03735 0.31517 0.0
H1410 H 0.3076 0.05496 0.22185 0.0
H1411 H 0.30842 0.09088 0.23816 0.0
H1412 H 0.27215 0.01877 0.22918 0.0
H1413 H 0.35178 0.0383 0.25776 0.0
H1414 H 0.38846 0.05191 0.28899 0.0
H1415 H 0.34766 0.00082 0.35696 0.0
H1416 H 0.31075 0.98676 0.32628 0.0
H1417 H 0.25135 0.90909 0.17685 0.0
H1418 H 0.28259 0.94332 0.2049 0.0
H1419 H 0.23025 0.93692 0.26814 0.0
H1420 H 0.19861 0.90367 0.23849 0.0
H1421 H 0.29869 0.96594 0.27346 0.0
H1422 H 0.21992 0.97068 0.24109 0.0
H1423 H 0.18687 0.95626 0.20336 0.0
H1424 H 0.23508 0.96377 0.13351 0.0
H1425 H 0.2682 0.97771 0.17106 0.0
C1426 C 0.31576 0.07142 0.30666 0.0
C1427 C 0.31357 0.08614 0.28524 0.0
C1428 C 0.31294 0.04964 0.2978 0.0
C1429 C 0.3091 0.04292 0.2672 0.0
C1430 C 0.31006 0.05933 0.24565 0.0
C1431 C 0.31103 0.08013 0.25475 0.0
C1432 C 0.29876 0.01753 0.25826 0.0
C1433 C 0.27871 0.00775 0.23856 0.0
C1434 C 0.30646 0.00236 0.27062 0.0
C1435 C 0.32847 0.0115 0.28971 0.0
C1436 C 0.35058 0.03008 0.27947 0.0
C1437 C 0.37142 0.0378 0.29698 0.0
C1438 C 0.37037 0.02724 0.32485 0.0
C1439 C 0.34846 0.00895 0.33533 0.0
C1440 C 0.32759 0.00102 0.31784 0.0
C1441 C 0.24679 0.91408 0.19784 0.0
C1442 C 0.22272 0.90397 0.20591 0.0
C1443 C 0.2647 0.93357 0.2139 0.0
C1444 C 0.25856 0.94269 0.23835 0.0
C1445 C 0.23515 0.93 0.24929 0.0
C1446 C 0.21713 0.91103 0.23261 0.0
C1447 C 0.27301 0.96839 0.24475 0.0
C1448 C 0.2932 0.97778 0.26394 0.0
C1449 C 0.26627 0.9837 0.2312 0.0
C1450 C 0.24636 0.97505 0.20878 0.0
C1451 C 0.22336 0.96914 0.21769 0.0
C1452 C 0.20464 0.96104 0.19637 0.0
C1453 C 0.2089 0.95922 0.16602 0.0
C1454 C 0.23182 0.96524 0.15699 0.0
C1455 C 0.25052 0.9731 0.1783 0.0
H1456 H 0.19442 0.95304 0.14954 0.0
H1457 H 0.38655 0.03326 0.33833 0.0
H1458 H 0.04056 0.5339 0.86591 0.0
H1459 H 0.03286 0.54027 0.9178 0.0
H1460 H 0.0083 0.46668 0.93837 0.0
H1461 H 0.0151 0.46012 0.88636 0.0
H1462 H 0.97548 0.47649 0.95123 0.0
H1463 H 0.05967 0.51329 0.97186 0.0
H1464 H 0.10282 0.54099 0.96448 0.0
H1465 H 0.09278 0.60055 0.97503 0.0
H1466 H 0.04951 0.5732 0.98212 0.0
H1467 H 0.96368 0.48506 0.11029 0.0
H1468 H 0.97152 0.47814 0.0588 0.0
H1469 H 0.9901 0.54958 0.03444 0.0
H1470 H 0.98253 0.55664 0.08588 0.0
H1471 H 0.02604 0.54077 0.02409 0.0
H1472 H 0.9412 0.50267 0.00392 0.0
H1473 H 0.89855 0.47413 0.01334 0.0
H1474 H 0.91072 0.41585 0.00374 0.0
H1475 H 0.95353 0.44406 -0.00533 0.0
C1476 C 0.03421 0.51935 0.88184 0.0
C1477 C 0.02815 0.4965 0.87234 0.0
C1478 C 0.02984 0.52297 0.91143 0.0
C1479 C 0.01987 0.50388 0.93184 0.0
C1480 C 0.01576 0.48156 0.92287 0.0
C1481 C 0.0197 0.47785 0.89327 0.0
C1482 C 0.01089 0.50625 0.96109 0.0
C1483 C 0.98667 0.49032 0.96739 0.0
C1484 C 0.0253 0.52468 0.98171 0.0
C1485 C 0.0513 0.54118 0.97719 0.0
C1486 C 0.06662 0.53229 0.97231 0.0
C1487 C 0.09112 0.54794 0.96826 0.0
C1488 C 0.10052 0.57252 0.96919 0.0
C1489 C 0.08547 0.58151 0.97426 0.0
C1490 C 0.06096 0.56594 0.97834 0.0
C1491 C 0.9686 0.49895 0.09365 0.0
C1492 C 0.97283 0.52146 0.10196 0.0
C1493 C 0.97316 0.49503 0.06433 0.0
C1494 C 0.98162 0.51347 0.04307 0.0
C1495 C 0.98381 0.53525 0.05071 0.0
C1496 C 0.97941 0.53922 0.07998 0.0
C1497 C 0.99074 0.51104 0.01406 0.0
C1498 C 0.01494 0.52696 0.00785 0.0
C1499 C 0.97639 0.49248 -0.00634 0.0
C1500 C 0.95061 0.47549 -0.00113 0.0
C1501 C 0.93482 0.48378 0.00404 0.0
C1502 C 0.9106 0.46766 0.00928 0.0
C1503 C 0.90194 0.4432 0.0092 0.0
C1504 C 0.91746 0.4348 0.00381 0.0
C1505 C 0.94169 0.45085 -0.00142 0.0
H1506 H 0.88319 0.43075 0.01327 0.0
H1507 H 0.11949 0.5846 0.96605 0.0
H1508 H 0.55232 0.57105 0.88275 0.0
H1509 H 0.54759 0.56186 0.93657 0.0
H1510 H 0.47233 0.51155 0.92108 0.0
H1511 H 0.47685 0.52173 0.8673 0.0
H1512 H 0.47957 0.53284 0.97459 0.0
H1513 H 0.51591 0.49493 0.92049 0.0
H1514 H 0.54695 0.49581 0.88841 0.0
H1515 H 0.60135 0.54003 0.95346 0.0
H1516 H 0.57062 0.53943 0.98585 0.0
H1517 H 0.45263 0.45546 0.09542 0.0
H1518 H 0.46029 0.47096 0.04404 0.0
H1519 H 0.53519 0.51683 0.06713 0.0
H1520 H 0.52771 0.50044 0.11832 0.0
H1521 H 0.53062 0.50131 0.01164 0.0
H1522 H 0.49536 0.53757 0.06749 0.0
H1523 H 0.4653 0.53788 0.10026 0.0
H1524 H 0.41036 0.49898 0.03327 0.0
H1525 H 0.44004 0.49817 0.00027 0.0
C1526 C 0.53467 0.55846 0.89106 0.0
C1527 C 0.51495 0.54684 0.87112 0.0
C1528 C 0.53201 0.55314 0.92171 0.0
C1529 C 0.50977 0.53549 0.93264 0.0
C1530 C 0.48969 0.5251 0.91304 0.0
C1531 C 0.49224 0.53089 0.88241 0.0
C1532 C 0.50785 0.5263 0.9637 0.0
C1533 C 0.49059 0.52577 0.98263 0.0
C1534 C 0.52272 0.51769 0.97446 0.0
C1535 C 0.54103 0.51734 0.95542 0.0
C1536 C 0.5345 0.50487 0.9279 0.0
C1537 C 0.55203 0.5053 0.90968 0.0
C1538 C 0.57611 0.51798 0.91888 0.0
C1539 C 0.5827 0.5302 0.94636 0.0
C1540 C 0.56524 0.5298 0.96467 0.0
C1541 C 0.4708 0.4685 0.0893 0.0
C1542 C 0.48958 0.47691 0.11072 0.0
C1543 C 0.47513 0.47749 0.06008 0.0
C1544 C 0.49817 0.49561 0.05207 0.0
C1545 C 0.51724 0.50301 0.07294 0.0
C1546 C 0.51299 0.4936 0.10208 0.0
C1547 C 0.50203 0.50743 0.02238 0.0
C1548 C 0.5197 0.50851 0.00373 0.0
C1549 C 0.48769 0.51675 0.01199 0.0
C1550 C 0.4699 0.51769 0.03149 0.0
C1551 C 0.47685 0.52901 0.0598 0.0
C1552 C 0.45988 0.52927 0.07842 0.0
C1553 C 0.43592 0.51842 0.06887 0.0
C1554 C 0.42891 0.50737 0.04064 0.0
C1555 C 0.44581 0.50704 0.02195 0.0
H1556 H 0.4228 0.51861 0.08333 0.0
H1557 H 0.58964 0.51828 0.90476 0.0
H1558 H 0.54669 0.0647 0.08993 0.0
H1559 H 0.55242 0.05522 0.03876 0.0
H1560 H 0.48665 0.9874 0.04372 0.0
H1561 H 0.48085 0.99658 0.09491 0.0
H1562 H 0.5221 0.98171 0.0242 0.0
H1563 H 0.49001 0.03184 -0.00206 0.0
H1564 H 0.48731 0.06813 -0.00183 0.0
H1565 H 0.55948 0.10932 0.96719 0.0
H1566 H 0.56266 0.07326 0.96678 0.0
H1567 H 0.48517 0.9524 0.87228 0.0
H1568 H 0.4965 0.95762 0.92523 0.0
H1569 H 0.56294 0.0217 0.90482 0.0
H1570 H 0.55133 0.01692 0.85165 0.0
H1571 H 0.53408 0.03161 0.9341 0.0
H1572 H 0.56109 0.97689 0.95073 0.0
H1573 H 0.56026 0.93881 0.94794 0.0
H1574 H 0.49398 0.90389 -0.00455 0.0
H1575 H 0.49421 0.94165 -0.00183 0.0
C1576 C 0.53325 0.04791 0.08002 0.0
C1577 C 0.51358 0.03118 0.09682 0.0
C1578 C 0.53655 0.04252 0.05071 0.0
C1579 C 0.52009 0.02048 0.03751 0.0
C1580 C 0.49977 0.00435 0.05361 0.0
C1581 C 0.49644 0.0097 0.08284 0.0
C1582 C 0.52436 0.01378 0.00737 0.0
C1583 C 0.52454 0.99248 0.00437 0.0
C1584 C 0.52834 0.02821 0.98175 0.0
C1585 C 0.52669 0.04996 0.98274 0.0
C1586 C 0.50539 0.04869 -0.0085 0.0
C1587 C 0.50374 0.06919 -0.00844 0.0
C1588 C 0.52323 0.09103 0.98288 0.0
C1589 C 0.54442 0.09241 0.974 0.0
C1590 C 0.54615 0.07195 0.97379 0.0
C1591 C 0.50288 0.96684 0.87862 0.0
C1592 C 0.51679 0.98494 0.85792 0.0
C1593 C 0.50935 0.96986 0.90922 0.0
C1594 C 0.5302 0.99055 0.91923 0.0
C1595 C 0.54648 0.00586 0.89771 0.0
C1596 C 0.5399 0.00295 0.86714 0.0
C1597 C 0.53149 0.99921 0.95052 0.0
C1598 C 0.53221 0.02095 0.95387 0.0
C1599 C 0.52791 0.98492 0.97626 0.0
C1600 C 0.52761 0.96211 0.97447 0.0
C1601 C 0.54623 0.96105 0.96035 0.0
C1602 C 0.54589 0.93952 0.95884 0.0
C1603 C 0.52706 0.91894 0.97147 0.0
C1604 C 0.50855 0.91984 0.98568 0.0
C1605 C 0.5088 0.94132 0.98725 0.0
H1606 H 0.52684 0.9023 0.97028 0.0
H1607 H 0.52188 0.10686 0.98292 0.0
H1608 H 0.48315 0.98334 0.60996 0.0
H1609 H 0.48563 0.9755 0.55683 0.0
H1610 H 0.50693 0.04801 0.53499 0.0
H1611 H 0.50518 0.05628 0.58868 0.0
H1612 H 0.46144 0.00188 0.50258 0.0
H1613 H 0.54593 0.04517 0.52386 0.0
H1614 H 0.58336 0.05591 0.55159 0.0
H1615 H 0.57141 0.98582 0.5365 0.0
H1616 H 0.53358 0.97447 0.50929 0.0
H1617 H 0.49817 0.01086 0.35216 0.0
H1618 H 0.49302 0.01557 0.40546 0.0
H1619 H 0.48911 0.9491 0.4254 0.0
H1620 H 0.49413 0.94408 0.37145 0.0
H1621 H 0.52529 0.99152 0.45879 0.0
H1622 H 0.43877 0.94741 0.44242 0.0
H1623 H 0.40314 0.93756 0.41082 0.0
H1624 H 0.42227 0.01089 0.41174 0.0
H1625 H 0.45747 0.02097 0.4444 0.0
C1626 C 0.48867 0.99771 0.59389 0.0
C1627 C 0.49403 0.02042 0.60326 0.0
C1628 C 0.49005 0.9932 0.56365 0.0
C1629 C 0.49647 0.01119 0.54227 0.0
C1630 C 0.50209 0.03401 0.55143 0.0
C1631 C 0.50124 0.03872 0.58195 0.0
C1632 C 0.49602 0.00539 0.51025 0.0
C1633 C 0.47553 -9e-05 0.49288 0.0
C1634 C 0.51413 0.00223 0.49806 0.0
C1635 C 0.53661 0.00881 0.51505 0.0
C1636 C 0.55101 0.03189 0.52694 0.0
C1637 C 0.5724 0.03814 0.54243 0.0
C1638 C 0.57974 0.02155 0.54588 0.0
C1639 C 0.56574 0.99868 0.53377 0.0
C1640 C 0.54428 0.99231 0.51838 0.0
C1641 C 0.49552 0.99694 0.36782 0.0
C1642 C 0.49631 0.97705 0.35802 0.0
C1643 C 0.49254 0.99963 0.3981 0.0
C1644 C 0.4905 0.98265 0.41909 0.0
C1645 C 0.49048 0.96227 0.4093 0.0
C1646 C 0.49314 0.95934 0.37868 0.0
C1647 C 0.4907 0.98783 0.45134 0.0
C1648 C 0.51113 0.99326 0.46871 0.0
C1649 C 0.47266 0.99107 0.46351 0.0
C1650 C 0.45064 0.9849 0.44586 0.0
C1651 C 0.43517 0.96136 0.43617 0.0
C1652 C 0.41501 0.95572 0.41821 0.0
C1653 C 0.41033 0.97356 0.4095 0.0
C1654 C 0.42571 0.99704 0.41892 0.0
C1655 C 0.44563 0.00269 0.43739 0.0
H1656 H 0.39485 0.96922 0.39534 0.0
H1657 H 0.59631 0.02641 0.55786 0.0
H1658 H 0.05704 0.56584 0.36705 0.0
H1659 H 0.0393 0.56068 0.41618 0.0
H1660 H 0.01404 0.48534 0.4117 0.0
H1661 H 0.02729 0.49019 0.3597 0.0
H1662 H 0.98103 0.48694 0.4302 0.0
H1663 H 0.0661 0.53845 0.4641 0.0
H1664 H 0.10536 0.57585 0.46512 0.0
H1665 H 0.07099 0.61539 0.48479 0.0
H1666 H 0.03161 0.57829 0.48382 0.0
H1667 H 0.95932 0.44963 0.57898 0.0
H1668 H 0.96984 0.46166 0.52788 0.0
H1669 H 0.98392 0.53213 0.54915 0.0
H1670 H 0.97653 0.52073 0.60243 0.0
H1671 H 0.01784 0.53809 0.52023 0.0
H1672 H 0.93352 0.4853 0.49322 0.0
H1673 H 0.89509 0.44717 0.49638 0.0
H1674 H 0.92935 0.40972 0.46655 0.0
H1675 H 0.96749 0.4474 0.46234 0.0
C1676 C 0.04737 0.54818 0.37643 0.0
C1677 C 0.04277 0.52835 0.3591 0.0
C1678 C 0.03774 0.54525 0.40517 0.0
C1679 C 0.0252 0.52254 0.41843 0.0
C1680 C 0.02304 0.50305 0.40212 0.0
C1681 C 0.03102 0.50581 0.3725 0.0
C1682 C 0.01249 0.5183 0.44777 0.0
C1683 C 0.98943 0.49806 0.44991 0.0
C1684 C 0.02226 0.53345 0.47339 0.0
C1685 C 0.04595 0.55566 0.47356 0.0
C1686 C 0.06695 0.55515 0.46847 0.0
C1687 C 0.08922 0.57629 0.46911 0.0
C1688 C 0.09067 0.59799 0.47494 0.0
C1689 C 0.06986 0.59861 0.48022 0.0
C1690 C 0.04759 0.57753 0.47968 0.0
C1691 C 0.9636 0.46745 0.57282 0.0
C1692 C 0.96685 0.48418 0.59494 0.0
C1693 C 0.9695 0.47435 0.54302 0.0
C1694 C 0.97716 0.49775 0.5338 0.0
C1695 C 0.97811 0.51394 0.55541 0.0
C1696 C 0.97346 0.50735 0.58583 0.0
C1697 C 0.98725 0.50587 0.50303 0.0
C1698 C 0.0095 0.52705 0.50044 0.0
C1699 C 0.97683 0.49159 0.47694 0.0
C1700 C 0.9533 0.46917 0.47735 0.0
C1701 C 0.93269 0.4689 0.48697 0.0
C1702 C 0.91092 0.44734 0.48886 0.0
C1703 C 0.90965 0.42597 0.48138 0.0
C1704 C 0.93009 0.42617 0.47177 0.0
C1705 C 0.95175 0.44765 0.46939 0.0
H1706 H 0.89287 0.40927 0.48317 0.0
H1707 H 0.10791 0.61431 0.47542 0.0
H1708 H 0.52673 0.52827 0.37657 0.0
H1709 H 0.52649 0.51484 0.42824 0.0
H1710 H 0.45438 0.50035 0.43802 0.0
H1711 H 0.45517 0.51542 0.38765 0.0
H1712 H 0.47325 0.51317 0.48649 0.0
H1713 H 0.48176 0.45737 0.41584 0.0
H1714 H 0.5047 0.44878 0.38022 0.0
H1715 H 0.56317 0.47458 0.44423 0.0
H1716 H 0.54064 0.48396 0.48004 0.0
H1717 H 0.45678 0.46025 0.62312 0.0
H1718 H 0.44809 0.45708 0.56896 0.0
H1719 H 0.51859 0.46877 0.55233 0.0
H1720 H 0.52595 0.46896 0.60577 0.0
H1721 H 0.49814 0.45409 0.50561 0.0
H1722 H 0.50293 0.51759 0.56739 0.0
H1723 H 0.49111 0.53719 0.60501 0.0
H1724 H 0.42178 0.50743 0.56229 0.0
H1725 H 0.43318 0.48773 0.52436 0.0
C1726 C 0.51095 0.52249 0.38998 0.0
C1727 C 0.49075 0.52237 0.37769 0.0
C1728 C 0.5107 0.51438 0.41932 0.0
C1729 C 0.49001 0.50515 0.43665 0.0
C1730 C 0.47055 0.50687 0.42516 0.0
C1731 C 0.47096 0.5155 0.39615 0.0
C1732 C 0.48831 0.49385 0.46671 0.0
C1733 C 0.4783 0.49988 0.4903 0.0
C1734 C 0.49611 0.47739 0.47266 0.0
C1735 C 0.5094 0.47161 0.45064 0.0
C1736 C 0.49945 0.46143 0.42237 0.0
C1737 C 0.51246 0.45641 0.40206 0.0
C1738 C 0.53542 0.46115 0.40992 0.0
C1739 C 0.54537 0.47089 0.43814 0.0
C1740 C 0.53249 0.47614 0.4584 0.0
C1741 C 0.46968 0.46037 0.60789 0.0
C1742 C 0.4925 0.46597 0.61871 0.0
C1743 C 0.46501 0.45931 0.57679 0.0
C1744 C 0.48342 0.4647 0.55636 0.0
C1745 C 0.50422 0.46536 0.56731 0.0
C1746 C 0.50839 0.46525 0.59828 0.0
C1747 C 0.48306 0.47346 0.52517 0.0
C1748 C 0.49262 0.46697 0.50144 0.0
C1749 C 0.4762 0.49057 0.51936 0.0
C1750 C 0.46881 0.50102 0.5433 0.0
C1751 C 0.4851 0.51507 0.56623 0.0
C1752 C 0.47853 0.52627 0.58749 0.0
C1753 C 0.4558 0.52364 0.58592 0.0
C1754 C 0.43943 0.50953 0.56337 0.0
C1755 C 0.44592 0.49835 0.542 0.0
H1756 H 0.45085 0.53253 0.60222 0.0
H1757 H 0.54548 0.45727 0.39416 0.0
H1758 H 0.73818 0.87981 0.20079 0.0
H1759 H 0.72917 0.87917 0.25428 0.0
H1760 H 0.6543 0.82959 0.23393 0.0
H1761 H 0.66266 0.83395 0.18105 0.0
H1762 H 0.65182 0.85011 0.27328 0.0
H1763 H 0.70319 0.81902 0.26577 0.0
H1764 H 0.73854 0.81596 0.25486 0.0
H1765 H 0.7806 0.87224 0.31803 0.0
H1766 H 0.74554 0.87597 0.32861 0.0
H1767 H 0.63002 0.82529 0.43236 0.0
H1768 H 0.6369 0.81697 0.38063 0.0
H1769 H 0.70066 0.88646 0.37671 0.0
H1770 H 0.69411 0.89497 0.42729 0.0
H1771 H 0.7059 0.84871 0.35253 0.0
H1772 H 0.64741 0.87762 0.35063 0.0
H1773 H 0.60778 0.869 0.36754 0.0
H1774 H 0.57437 0.80093 0.32333 0.0
H1775 H 0.61385 0.80899 0.30668 0.0
C1776 C 0.71978 0.86927 0.20794 0.0
C1777 C 0.70124 0.85658 0.18674 0.0
C1778 C 0.71463 0.86846 0.23862 0.0
C1779 C 0.69108 0.85355 0.24884 0.0
C1780 C 0.67264 0.84137 0.22729 0.0
C1781 C 0.67753 0.84363 0.19671 0.0
C1782 C 0.68521 0.8508 0.28162 0.0
C1783 C 0.66366 0.84926 0.29015 0.0
C1784 C 0.70022 0.84953 0.30449 0.0
C1785 C 0.72164 0.8478 0.29775 0.0
C1786 C 0.71997 0.83079 0.27713 0.0
C1787 C 0.74001 0.82903 0.27094 0.0
C1788 C 0.76184 0.84394 0.2857 0.0
C1789 C 0.76368 0.86073 0.30654 0.0
C1790 C 0.74371 0.86271 0.31257 0.0
C1791 C 0.64545 0.83875 0.42039 0.0
C1792 C 0.66133 0.86086 0.43398 0.0
C1793 C 0.64947 0.8339 0.39103 0.0
C1794 C 0.66942 0.8511 0.37505 0.0
C1795 C 0.68535 0.87287 0.38878 0.0
C1796 C 0.68134 0.87776 0.41773 0.0
C1797 C 0.67303 0.84802 0.34301 0.0
C1798 C 0.69418 0.84887 0.33488 0.0
C1799 C 0.65719 0.84728 0.32034 0.0
C1800 C 0.6335 0.84381 0.32766 0.0
C1801 C 0.63157 0.8609 0.34439 0.0
C1802 C 0.60917 0.85605 0.35404 0.0
C1803 C 0.58862 0.83433 0.34671 0.0
C1804 C 0.59033 0.81767 0.32912 0.0
C1805 C 0.61269 0.82237 0.31957 0.0
H1806 H 0.57136 0.83032 0.35476 0.0
H1807 H 0.77731 0.84243 0.28107 0.0
H1808 H 0.1092 0.8617 0.18253 0.0
H1809 H 0.10584 0.85532 0.23721 0.0
H1810 H 0.15481 0.82919 0.23413 0.0
H1811 H 0.15559 0.83235 0.17994 0.0
H1812 H 0.11648 0.80245 0.26863 0.0
H1813 H 0.18666 0.89921 0.2915 0.0
H1814 H 0.19722 0.94058 0.28074 0.0
H1815 H 0.12292 0.91756 0.26753 0.0
H1816 H 0.11191 0.87639 0.27997 0.0
H1817 H 0.17622 0.80744 0.40568 0.0
H1818 H 0.17116 0.81641 0.35287 0.0
H1819 H 0.1302 0.84753 0.38242 0.0
H1820 H 0.13571 0.83928 0.43442 0.0
H1821 H 0.15677 0.87181 0.33773 0.0
H1822 H 0.10434 0.78947 0.36191 0.0
H1823 H 0.09551 0.75 0.37919 0.0
H1824 H 0.13205 0.74405 0.30316 0.0
H1825 H 0.14218 0.78412 0.28625 0.0
C1826 C 0.11885 0.85422 0.19369 0.0
C1827 C 0.13272 0.84766 0.17701 0.0
C1828 C 0.11754 0.8513 0.22502 0.0
C1829 C 0.13115 0.84305 0.24004 0.0
C1830 C 0.14444 0.83596 0.22314 0.0
C1831 C 0.14477 0.8377 0.19201 0.0
C1832 C 0.13128 0.84027 0.27309 0.0
C1833 C 0.12508 0.8176 0.28385 0.0
C1834 C 0.1421 0.85997 0.29309 0.0
C1835 C 0.14856 0.88441 0.28425 0.0
C1836 C 0.17263 0.90292 0.28556 0.0
C1837 C 0.17871 0.92637 0.27954 0.0
C1838 C 0.16085 0.93157 0.27245 0.0
C1839 C 0.13681 0.91342 0.27218 0.0
C1840 C 0.13065 0.89 0.27862 0.0
C1841 C 0.16672 0.81672 0.4007 0.0
C1842 C 0.15597 0.82232 0.42373 0.0
C1843 C 0.16367 0.82166 0.37072 0.0
C1844 C 0.14983 0.83214 0.36386 0.0
C1845 C 0.14076 0.8393 0.3872 0.0
C1846 C 0.1438 0.83444 0.41684 0.0
C1847 C 0.14312 0.83428 0.33258 0.0
C1848 C 0.14794 0.85665 0.32254 0.0
C1849 C 0.13088 0.81431 0.3133 0.0
C1850 C 0.12426 0.78994 0.32302 0.0
C1851 C 0.11069 0.77985 0.34901 0.0
C1852 C 0.10547 0.75736 0.35875 0.0
C1853 C 0.11316 0.74445 0.34223 0.0
C1854 C 0.12613 0.75407 0.31596 0.0
C1855 C 0.13173 0.77674 0.30638 0.0
H1856 H 0.10904 0.72698 0.34975 0.0
H1857 H 0.16561 0.94974 0.26777 0.0
H1858 H 0.21527 0.35184 0.1686 0.0
H1859 H 0.22882 0.34631 0.21785 0.0
H1860 H 0.16756 0.27528 0.22203 0.0
H1861 H 0.15419 0.28028 0.17257 0.0
H1862 H 0.17123 0.32454 0.24769 0.0
H1863 H 0.19992 0.26954 0.25027 0.0
H1864 H 0.22725 0.25553 0.23664 0.0
H1865 H 0.28667 0.31858 0.27556 0.0
H1866 H 0.25972 0.33318 0.28894 0.0
H1867 H 0.15543 0.31682 0.40634 0.0
H1868 H 0.15606 0.30905 0.35241 0.0
H1869 H 0.23313 0.35422 0.35371 0.0
H1870 H 0.23243 0.36124 0.40772 0.0
H1871 H 0.22139 0.31482 0.32549 0.0
H1872 H 0.19571 0.37168 0.32001 0.0
H1873 H 0.17093 0.38936 0.33041 0.0
H1874 H 0.10888 0.32738 0.29386 0.0
H1875 H 0.13326 0.30924 0.28339 0.0
C1876 C 0.20551 0.33445 0.17904 0.0
C1877 C 0.1828 0.31708 0.16783 0.0
C1878 C 0.21342 0.33125 0.2072 0.0
C1879 C 0.19863 0.31074 0.22393 0.0
C1880 C 0.17905 0.29136 0.20953 0.0
C1881 C 0.17131 0.29439 0.1812 0.0
C1882 C 0.19706 0.31377 0.25646 0.0
C1883 C 0.18183 0.32198 0.2649 0.0
C1884 C 0.21159 0.31124 0.27833 0.0
C1885 C 0.22784 0.30258 0.27027 0.0
C1886 C 0.21885 0.28057 0.25558 0.0
C1887 C 0.23427 0.27248 0.24797 0.0
C1888 C 0.25871 0.28621 0.25509 0.0
C1889 C 0.26776 0.30801 0.26994 0.0
C1890 C 0.25241 0.31618 0.27758 0.0
C1891 C 0.17234 0.32553 0.39474 0.0
C1892 C 0.19383 0.33996 0.41062 0.0
C1893 C 0.17276 0.32102 0.36409 0.0
C1894 C 0.19467 0.33113 0.349 0.0
C1895 C 0.21606 0.34615 0.36489 0.0
C1896 C 0.21564 0.35042 0.39553 0.0
C1897 C 0.19542 0.3256 0.31687 0.0
C1898 C 0.21055 0.31713 0.30843 0.0
C1899 C 0.18106 0.32827 0.29467 0.0
C1900 C 0.16625 0.33897 0.30132 0.0
C1901 C 0.17673 0.36172 0.31446 0.0
C1902 C 0.16278 0.37186 0.32025 0.0
C1903 C 0.13834 0.35948 0.31283 0.0
C1904 C 0.12781 0.33695 0.29955 0.0
C1905 C 0.14169 0.32673 0.29367 0.0
H1906 H 0.12756 0.36737 0.31731 0.0
H1907 H 0.27062 0.27993 0.24919 0.0
H1908 H 0.1867 0.36714 0.91493 0.0
H1909 H 0.18539 0.35481 0.86237 0.0
H1910 H 0.11659 0.29184 0.87703 0.0
H1911 H 0.11779 0.30375 0.92909 0.0
H1912 H 0.14642 0.28416 0.83858 0.0
H1913 H 0.11657 0.33848 0.8518 0.0
H1914 H 0.12536 0.37588 0.87589 0.0
H1915 H 0.18727 0.41492 0.82082 0.0
H1916 H 0.17928 0.37741 0.79718 0.0
H1917 H 0.11421 0.25899 0.68267 0.0
H1918 H 0.11328 0.26378 0.73703 0.0
H1919 H 0.16044 0.33983 0.72718 0.0
H1920 H 0.15706 0.33533 0.67336 0.0
H1921 H 0.13853 0.33844 0.76693 0.0
H1922 H 0.17772 0.28739 0.76813 0.0
H1923 H 0.17843 0.25067 0.75637 0.0
H1924 H 0.10617 0.20806 0.7866 0.0
H1925 H 0.10535 0.24449 0.79863 0.0
C1926 C 0.17153 0.3505 0.90703 0.0
C1927 C 0.15212 0.33673 0.92592 0.0
C1928 C 0.17082 0.34344 0.87711 0.0
C1929 C 0.15074 0.32253 0.86585 0.0
C1930 C 0.13221 0.30801 0.88528 0.0
C1931 C 0.13282 0.31507 0.91495 0.0
C1932 C 0.14728 0.31724 0.83315 0.0
C1933 C 0.14487 0.29602 0.82266 0.0
C1934 C 0.14498 0.33258 0.81266 0.0
C1935 C 0.14743 0.35521 0.82294 0.0
C1936 C 0.1319 0.35509 0.84461 0.0
C1937 C 0.13688 0.37629 0.85837 0.0
C1938 C 0.15702 0.39779 0.8501 0.0
C1939 C 0.17181 0.39821 0.82738 0.0
C1940 C 0.16707 0.37698 0.8138 0.0
C1941 C 0.12396 0.27671 0.69234 0.0
C1942 C 0.13616 0.29669 0.67367 0.0
C1943 C 0.12405 0.27946 0.72369 0.0
C1944 C 0.13771 0.30213 0.73723 0.0
C1945 C 0.14949 0.32202 0.71814 0.0
C1946 C 0.14784 0.31941 0.68695 0.0
C1947 C 0.13961 0.30586 0.77079 0.0
C1948 C 0.14083 0.32662 0.78204 0.0
C1949 C 0.1414 0.29026 0.79186 0.0
C1950 C 0.14127 0.2685 0.78306 0.0
C1951 C 0.16193 0.27012 0.77145 0.0
C1952 C 0.16239 0.24944 0.76505 0.0
C1953 C 0.14224 0.22709 0.77028 0.0
C1954 C 0.12169 0.22537 0.78227 0.0
C1955 C 0.12125 0.24601 0.78897 0.0
H1956 H 0.14263 0.21111 0.76532 0.0
H1957 H 0.16121 0.41414 0.86129 0.0
H1958 H 0.66376 0.77705 0.91454 0.0
H1959 H 0.67322 0.78951 0.86236 0.0
H1960 H 0.64275 0.83432 0.87096 0.0
H1961 H 0.63328 0.82189 0.9239 0.0
H1962 H 0.63456 0.81184 0.81359 0.0
H1963 H 0.69844 0.86029 0.8804 0.0
H1964 H 0.72709 0.86996 0.92278 0.0
H1965 H 0.75844 0.83486 0.87768 0.0
H1966 H 0.72959 0.82449 0.83527 0.0
H1967 H 0.69635 0.88075 0.6893 0.0
H1968 H 0.68359 0.87015 0.74077 0.0
H1969 H 0.71414 0.82502 0.74323 0.0
H1970 H 0.7283 0.8371 0.69133 0.0
H1971 H 0.72198 0.85059 0.79618 0.0
H1972 H 0.6504 0.79794 0.73235 0.0
H1973 H 0.62077 0.79096 0.69201 0.0
H1974 H 0.60625 0.84144 0.73267 0.0
H1975 H 0.63518 0.84815 0.77389 0.0
C1976 C 0.65861 0.78919 0.90514 0.0
C1977 C 0.64826 0.79895 0.92318 0.0
C1978 C 0.66403 0.79627 0.87541 0.0
C1979 C 0.65918 0.81321 0.86325 0.0
C1980 C 0.64674 0.82133 0.88024 0.0
C1981 C 0.64128 0.81419 0.91028 0.0
C1982 C 0.66927 0.82381 0.83389 0.0
C1983 C 0.65368 0.82062 0.80982 0.0
C1984 C 0.69425 0.83529 0.82923 0.0
C1985 C 0.71167 0.8414 0.85473 0.0
C1986 C 0.71126 0.85439 0.87963 0.0
C1987 C 0.72756 0.86003 0.90366 0.0
C1988 C 0.74454 0.853 0.90295 0.0
C1989 C 0.74524 0.84028 0.87821 0.0
C1990 C 0.72892 0.83451 0.85416 0.0
C1991 C 0.70113 0.86935 0.70103 0.0
C1992 C 0.71376 0.86026 0.68663 0.0
C1993 C 0.69338 0.86284 0.73032 0.0
C1994 C 0.6974 0.84636 0.74552 0.0
C1995 C 0.71074 0.83769 0.73167 0.0
C1996 C 0.71888 0.84462 0.70224 0.0
C1997 C 0.68722 0.83799 0.77562 0.0
C1998 C 0.70286 0.84178 0.79994 0.0
C1999 C 0.66239 0.82771 0.78069 0.0
C2000 C 0.64502 0.82365 0.75599 0.0
C2001 C 0.64092 0.80758 0.73261 0.0
C2002 C 0.62425 0.80365 0.70962 0.0
C2003 C 0.61186 0.81593 0.70953 0.0
C2004 C 0.61588 0.83197 0.73271 0.0
C2005 C 0.63226 0.8357 0.75603 0.0
H2006 H 0.59906 0.81292 0.69158 0.0
H2007 H 0.7572 0.85747 0.92153 0.0
H2008 H 0.16371 0.82089 0.9191 0.0
H2009 H 0.15177 0.81649 0.86532 0.0
H2010 H 0.19489 0.89275 0.85462 0.0
H2011 H 0.2062 0.89717 0.9077 0.0
H2012 H 0.14975 0.87517 0.83226 0.0
H2013 H 0.21339 0.8539 0.83166 0.0
H2014 H 0.22911 0.82743 0.84379 0.0
H2015 H 0.16677 0.76857 0.80243 0.0
H2016 H 0.15063 0.7947 0.79028 0.0
H2017 H 0.20893 0.88511 0.67803 0.0
H2018 H 0.20414 0.87926 0.73215 0.0
H2019 H 0.13214 0.86664 0.7234 0.0
H2020 H 0.13755 0.87428 0.66965 0.0
H2021 H 0.17577 0.83898 0.75537 0.0
H2022 H 0.10999 0.86551 0.79056 0.0
H2023 H 0.09622 0.8934 0.77735 0.0
H2024 H 0.1671 0.94524 0.74921 0.0
H2025 H 0.18127 0.91768 0.76247 0.0
C2026 C 0.17071 0.83656 0.90498 0.0
C2027 C 0.18555 0.85938 0.91731 0.0
C2028 C 0.16384 0.83405 0.8745 0.0
C2029 C 0.17213 0.85436 0.85632 0.0
C2030 C 0.18788 0.87693 0.86851 0.0
C2031 C 0.19441 0.87944 0.89873 0.0
C2032 C 0.16484 0.85302 0.82447 0.0
C2033 C 0.15515 0.86701 0.81534 0.0
C2034 C 0.17117 0.84179 0.80259 0.0
C2035 C 0.18065 0.8261 0.81057 0.0
C2036 C 0.20294 0.83525 0.82547 0.0
C2037 C 0.21195 0.82034 0.83225 0.0
C2038 C 0.19889 0.79631 0.82401 0.0
C2039 C 0.17682 0.78716 0.8089 0.0
C2040 C 0.16773 0.80199 0.80208 0.0
C2041 C 0.19236 0.88182 0.68783 0.0
C2042 C 0.17329 0.87921 0.66955 0.0
C2043 C 0.18954 0.87826 0.71869 0.0
C2044 C 0.16754 0.87179 0.73176 0.0
C2045 C 0.14932 0.87163 0.71399 0.0
C2046 C 0.15241 0.8759 0.68311 0.0
C2047 C 0.16359 0.86363 0.76336 0.0
C2048 C 0.1701 0.84696 0.77219 0.0
C2049 C 0.15473 0.87273 0.78503 0.0
C2050 C 0.1466 0.88954 0.7773 0.0
C2051 C 0.12262 0.88291 0.78167 0.0
C2052 C 0.11475 0.89863 0.77414 0.0
C2053 C 0.13076 0.92106 0.76239 0.0
C2054 C 0.1547 0.92785 0.75823 0.0
C2055 C 0.16266 0.91219 0.76573 0.0
H2056 H 0.12463 0.93321 0.75655 0.0
H2057 H 0.20591 0.7848 0.82925 0.0
H2058 H 0.31836 0.14184 0.53089 0.0
H2059 H 0.31783 0.15154 0.58337 0.0
H2060 H 0.39491 0.18627 0.58895 0.0
H2061 H 0.39569 0.17658 0.53557 0.0
H2062 H 0.36879 0.1528 0.63686 0.0
H2063 H 0.37377 0.22076 0.58823 0.0
H2064 H 0.36318 0.24182 0.55032 0.0
H2065 H 0.29128 0.20704 0.58275 0.0
H2066 H 0.30131 0.18553 0.62064 0.0
H2067 H 0.37386 0.2136 0.77332 0.0
H2068 H 0.37905 0.20404 0.72227 0.0
H2069 H 0.30265 0.1578 0.71155 0.0
H2070 H 0.29709 0.16676 0.76338 0.0
H2071 H 0.33141 0.19933 0.66682 0.0
H2072 H 0.32286 0.12404 0.7025 0.0
H2073 H 0.33056 0.09856 0.73667 0.0
H2074 H 0.40637 0.14607 0.72864 0.0
H2075 H 0.39901 0.17177 0.69434 0.0
C2076 C 0.33527 0.15151 0.54317 0.0
C2077 C 0.3571 0.15841 0.52924 0.0
C2078 C 0.33491 0.15715 0.57309 0.0
C2079 C 0.35632 0.16978 0.5897 0.0
C2080 C 0.37825 0.17662 0.57616 0.0
C2081 C 0.37867 0.17117 0.54584 0.0
C2082 C 0.35513 0.17507 0.62146 0.0
C2083 C 0.36117 0.16345 0.6435 0.0
C2084 C 0.34437 0.18826 0.62976 0.0
C2085 C 0.33828 0.2014 0.6072 0.0
C2086 C 0.35565 0.21747 0.58717 0.0
C2087 C 0.34975 0.22953 0.56571 0.0
C2088 C 0.32655 0.22575 0.56412 0.0
C2089 C 0.30923 0.20997 0.58405 0.0
C2090 C 0.31503 0.19787 0.60556 0.0
C2091 C 0.35807 0.20127 0.7603 0.0
C2092 C 0.33502 0.19099 0.77235 0.0
C2093 C 0.36116 0.19572 0.73125 0.0
C2094 C 0.34125 0.18017 0.71357 0.0
C2095 C 0.31817 0.16971 0.72528 0.0
C2096 C 0.31506 0.17491 0.75471 0.0
C2097 C 0.34478 0.17683 0.68195 0.0
C2098 C 0.33928 0.18894 0.66007 0.0
C2099 C 0.35585 0.16401 0.67374 0.0
C2100 C 0.36042 0.14969 0.69587 0.0
C2101 C 0.34115 0.12908 0.7082 0.0
C2102 C 0.34544 0.11453 0.72738 0.0
C2103 C 0.36894 0.12058 0.73459 0.0
C2104 C 0.38819 0.14133 0.72287 0.0
C2105 C 0.38397 0.15584 0.7035 0.0
H2106 H 0.37224 0.10931 0.74946 0.0
H2107 H 0.32199 0.23507 0.54747 0.0
H2108 H 0.87323 0.23223 0.54704 0.0
H2109 H 0.86703 0.21993 0.59984 0.0
H2110 H 0.79773 0.15955 0.57624 0.0
H2111 H 0.80344 0.17251 0.52348 0.0
H2112 H 0.79869 0.1774 0.63256 0.0
H2113 H 0.84728 0.15464 0.57561 0.0
H2114 H 0.88146 0.16412 0.54323 0.0
H2115 H 0.93037 0.21071 0.61164 0.0
H2116 H 0.89644 0.20175 0.64424 0.0
H2117 H 0.78667 0.10665 0.75593 0.0
H2118 H 0.79125 0.11815 0.70276 0.0
H2119 H 0.86334 0.1756 0.72197 0.0
H2120 H 0.8592 0.16321 0.77478 0.0
H2121 H 0.86074 0.15922 0.66759 0.0
H2122 H 0.81479 0.18374 0.72444 0.0
H2123 H 0.78206 0.17721 0.75779 0.0
H2124 H 0.73009 0.13107 0.69161 0.0
H2125 H 0.76255 0.13706 0.65803 0.0
C2126 C 0.85644 0.21668 0.55335 0.0
C2127 C 0.83894 0.20299 0.53146 0.0
C2128 C 0.85293 0.20969 0.58338 0.0
C2129 C 0.83226 0.18849 0.59158 0.0
C2130 C 0.81388 0.17588 0.57016 0.0
C2131 C 0.81715 0.18322 0.54015 0.0
C2132 C 0.83111 0.17804 0.62143 0.0
C2133 C 0.81206 0.17316 0.64016 0.0
C2134 C 0.84893 0.17304 0.63138 0.0
C2135 C 0.86933 0.17761 0.61228 0.0
C2136 C 0.86533 0.16691 0.58372 0.0
C2137 C 0.88465 0.17222 0.56532 0.0
C2138 C 0.90807 0.18803 0.57536 0.0
C2139 C 0.91222 0.19847 0.60389 0.0
C2140 C 0.89296 0.19326 0.62235 0.0
C2141 C 0.80369 0.12126 0.74845 0.0
C2142 C 0.82255 0.13427 0.76909 0.0
C2143 C 0.80625 0.1279 0.71827 0.0
C2144 C 0.82734 0.14819 0.70878 0.0
C2145 C 0.84687 0.16 0.72897 0.0
C2146 C 0.84453 0.15294 0.75902 0.0
C2147 C 0.82825 0.15846 0.67882 0.0
C2148 C 0.84729 0.16335 0.66003 0.0
C2149 C 0.81062 0.16381 0.66903 0.0
C2150 C 0.79109 0.1607 0.68883 0.0
C2151 C 0.79638 0.17214 0.71705 0.0
C2152 C 0.77789 0.16852 0.736 0.0
C2153 C 0.75401 0.1537 0.72685 0.0
C2154 C 0.74859 0.14253 0.69868 0.0
C2155 C 0.76703 0.14605 0.67966 0.0
H2156 H 0.73971 0.15089 0.74157 0.0
H2157 H 0.92301 0.19217 0.56105 0.0
H2158 H 0.81789 0.6609 0.78623 0.0
H2159 H 0.817 0.65012 0.73385 0.0
H2160 H 0.87526 0.72094 0.71496 0.0
H2161 H 0.87686 0.73187 0.76814 0.0
H2162 H 0.80606 0.67128 0.69014 0.0
H2163 H 0.89845 0.72348 0.65882 0.0
H2164 H 0.94068 0.73416 0.66168 0.0
H2165 H 0.91995 0.66606 0.70053 0.0
H2166 H 0.8774 0.65502 0.69795 0.0
H2167 H 0.85754 0.68461 0.5284 0.0
H2168 H 0.85876 0.6953 0.58084 0.0
H2169 H 0.79738 0.62608 0.59852 0.0
H2170 H 0.7956 0.61525 0.54522 0.0
H2171 H 0.86813 0.67448 0.6242 0.0
H2172 H 0.76882 0.6302 0.65465 0.0
H2173 H 0.73213 0.6324 0.64835 0.0
H2174 H 0.77304 0.70143 0.60793 0.0
H2175 H 0.80973 0.69922 0.61307 0.0
C2176 C 0.83076 0.67422 0.77114 0.0
C2177 C 0.84742 0.69732 0.78145 0.0
C2178 C 0.83035 0.66791 0.7412 0.0
C2179 C 0.8463 0.68456 0.72058 0.0
C2180 C 0.86316 0.70762 0.73065 0.0
C2181 C 0.86374 0.71398 0.76091 0.0
C2182 C 0.84227 0.67857 0.68809 0.0
C2183 C 0.81952 0.6715 0.67581 0.0
C2184 C 0.86008 0.68016 0.66896 0.0
C2185 C 0.88494 0.68866 0.67875 0.0
C2186 C 0.90301 0.7111 0.66885 0.0
C2187 C 0.9269 0.71704 0.6699 0.0
C2188 C 0.93291 0.70059 0.68059 0.0
C2189 C 0.91517 0.67863 0.69183 0.0
C2190 C 0.89116 0.67261 0.69088 0.0
C2191 C 0.84412 0.67162 0.54322 0.0
C2192 C 0.82647 0.64906 0.53245 0.0
C2193 C 0.84472 0.67787 0.57323 0.0
C2194 C 0.82799 0.66163 0.59354 0.0
C2195 C 0.8102 0.63906 0.58308 0.0
C2196 C 0.8095 0.63274 0.55276 0.0
C2197 C 0.83188 0.66718 0.62616 0.0
C2198 C 0.85447 0.67384 0.63856 0.0
C2199 C 0.81428 0.66639 0.64504 0.0
C2200 C 0.79183 0.66429 0.6336 0.0
C2201 C 0.76975 0.6454 0.64334 0.0
C2202 C 0.74904 0.64679 0.64034 0.0
C2203 C 0.75034 0.66716 0.62807 0.0
C2204 C 0.7721 0.6857 0.61751 0.0
C2205 C 0.79276 0.68419 0.61994 0.0
H2206 H 0.73445 0.66855 0.62663 0.0
H2207 H 0.95139 0.70514 0.68047 0.0
H2208 H 0.80335 0.63785 0.03325 0.0
H2209 H 0.79871 0.6482 0.08477 0.0
H2210 H 0.86501 0.65254 0.11182 0.0
H2211 H 0.87034 0.64356 0.06013 0.0
H2212 H 0.82468 0.63114 0.15573 0.0
H2213 H 0.87187 0.69786 0.09173 0.0
H2214 H 0.88161 0.7239 0.04743 0.0
H2215 H 0.82503 0.73684 0.06842 0.0
H2216 H 0.81384 0.70953 0.11166 0.0
H2217 H 0.86074 0.70968 0.2816 0.0
H2218 H 0.86474 0.69853 0.23032 0.0
H2219 H 0.79544 0.68819 0.20587 0.0
H2220 H 0.79098 0.6985 0.25735 0.0
H2221 H 0.83806 0.71298 0.16102 0.0
H2222 H 0.78827 0.64224 0.22108 0.0
H2223 H 0.77896 0.61642 0.26569 0.0
H2224 H 0.84317 0.61414 0.25367 0.0
H2225 H 0.85305 0.64029 0.20917 0.0
C2226 C 0.81644 0.64022 0.05052 0.0
C2227 C 0.83715 0.63993 0.04308 0.0
C2228 C 0.81387 0.64624 0.07973 0.0
C2229 C 0.8317 0.65135 0.10169 0.0
C2230 C 0.85114 0.64863 0.095 0.0
C2231 C 0.8541 0.64342 0.06564 0.0
C2232 C 0.83169 0.66226 0.13045 0.0
C2233 C 0.82774 0.64906 0.15693 0.0
C2234 C 0.83571 0.68568 0.13172 0.0
C2235 C 0.84161 0.7011 0.10463 0.0
C2236 C 0.86097 0.7056 0.0864 0.0
C2237 C 0.8668 0.72066 0.06146 0.0
C2238 C 0.85381 0.73186 0.05494 0.0
C2239 C 0.83493 0.72796 0.0733 0.0
C2240 C 0.82868 0.71251 0.09786 0.0
C2241 C 0.84678 0.70582 0.26495 0.0
C2242 C 0.82558 0.7049 0.27313 0.0
C2243 C 0.849 0.69931 0.23589 0.0
C2244 C 0.83026 0.69239 0.21475 0.0
C2245 C 0.81 0.6935 0.22211 0.0
C2246 C 0.80752 0.69942 0.25133 0.0
C2247 C 0.83066 0.68171 0.18602 0.0
C2248 C 0.83487 0.69502 0.15964 0.0
C2249 C 0.82698 0.65849 0.18479 0.0
C2250 C 0.82153 0.64342 0.21204 0.0
C2251 C 0.80057 0.63651 0.2282 0.0
C2252 C 0.79514 0.62173 0.25337 0.0
C2253 C 0.81042 0.6136 0.26243 0.0
C2254 C 0.83132 0.62043 0.24655 0.0
C2255 C 0.83685 0.63522 0.22136 0.0
H2256 H 0.80597 0.60188 0.28164 0.0
H2257 H 0.8585 0.74369 0.0358 0.0
H2258 H 0.34168 0.14752 0.02179 0.0
H2259 H 0.33306 0.12934 0.07182 0.0
H2260 H 0.38015 0.19809 0.11194 0.0
H2261 H 0.38976 0.21614 0.06219 0.0
H2262 H 0.37553 0.15737 0.14576 0.0
H2263 H 0.30974 0.18283 0.11142 0.0
H2264 H 0.28058 0.17829 0.07114 0.0
H2265 H 0.26423 0.10695 0.0544 0.0
H2266 H 0.29274 0.11087 0.09474 0.0
H2267 H 0.34099 0.18887 0.27529 0.0
H2268 H 0.35269 0.18376 0.22561 0.0
H2269 H 0.28381 0.12002 0.21211 0.0
H2270 H 0.27147 0.12565 0.26175 0.0
H2271 H 0.29477 0.1451 0.16378 0.0
H2272 H 0.33973 0.1102 0.20562 0.0
H2273 H 0.36312 0.10458 0.24613 0.0
H2274 H 0.41488 0.17941 0.24518 0.0
H2275 H 0.39128 0.18544 0.20533 0.0
C2276 C 0.35126 0.1585 0.04116 0.0
C2277 C 0.36594 0.18334 0.03808 0.0
C2278 C 0.34589 0.14818 0.06978 0.0
C2279 C 0.35497 0.16262 0.09552 0.0
C2280 C 0.37259 0.1867 0.09229 0.0
C2281 C 0.37827 0.19698 0.06369 0.0
C2282 C 0.34369 0.15415 0.1252 0.0
C2283 C 0.35778 0.15444 0.14967 0.0
C2284 C 0.32016 0.14933 0.13033 0.0
C2285 C 0.30377 0.14737 0.10542 0.0
C2286 C 0.30009 0.16632 0.09883 0.0
C2287 C 0.28368 0.16385 0.07611 0.0
C2288 C 0.27097 0.14257 0.05989 0.0
C2289 C 0.27436 0.12357 0.06663 0.0
C2290 C 0.29056 0.12587 0.08945 0.0
C2291 C 0.32836 0.17355 0.26198 0.0
C2292 C 0.30551 0.1573 0.27296 0.0
C2293 C 0.33523 0.17047 0.23363 0.0
C2294 C 0.31955 0.15094 0.21548 0.0
C2295 C 0.29643 0.13498 0.22592 0.0
C2296 C 0.28938 0.13824 0.25429 0.0
C2297 C 0.32684 0.14888 0.18459 0.0
C2298 C 0.31218 0.14719 0.15994 0.0
C2299 C 0.3493 0.15115 0.17914 0.0
C2300 C 0.36336 0.14828 0.2035 0.0
C2301 C 0.35565 0.12548 0.21491 0.0
C2302 C 0.36893 0.12223 0.23756 0.0
C2303 C 0.39022 0.14168 0.24839 0.0
C2304 C 0.39821 0.16444 0.23689 0.0
C2305 C 0.38488 0.16777 0.21432 0.0
H2306 H 0.40092 0.13893 0.26487 0.0
H2307 H 0.25832 0.14073 0.04232 0.0
H2308 H 0.80036 0.19043 0.04118 0.0
H2309 H 0.79918 0.17659 0.09253 0.0
H2310 H 0.87003 0.18717 0.08295 0.0
H2311 H 0.87027 0.19889 0.03059 0.0
H2312 H 0.84565 0.14747 0.1054 0.0
H2313 H 0.85302 0.22239 0.13047 0.0
H2314 H 0.84271 0.25384 0.13029 0.0
H2315 H 0.7734 0.20457 0.16537 0.0
H2316 H 0.78314 0.17272 0.16528 0.0
H2317 H 0.87723 0.15115 0.2596 0.0
H2318 H 0.86945 0.14921 0.206 0.0
H2319 H 0.79649 0.13036 0.22203 0.0
H2320 H 0.80495 0.13424 0.27619 0.0
H2321 H 0.81774 0.17019 0.19518 0.0
H2322 H 0.81574 0.09647 0.17511 0.0
H2323 H 0.83096 0.06881 0.17845 0.0
H2324 H 0.8965 0.12085 0.13727 0.0
H2325 H 0.88182 0.1489 0.13402 0.0
C2326 C 0.81586 0.19019 0.05014 0.0
C2327 C 0.83516 0.19516 0.03155 0.0
C2328 C 0.81523 0.18236 0.07974 0.0
C2329 C 0.83447 0.18065 0.09189 0.0
C2330 C 0.85469 0.18779 0.07408 0.0
C2331 C 0.85494 0.19473 0.0442 0.0
C2332 C 0.83302 0.16992 0.12218 0.0
C2333 C 0.8398 0.1527 0.1251 0.0
C2334 C 0.82469 0.17602 0.14788 0.0
C2335 C 0.81871 0.19509 0.14749 0.0
C2336 C 0.83549 0.2182 0.13784 0.0
C2337 C 0.82976 0.23611 0.13783 0.0
C2338 C 0.80738 0.23118 0.14769 0.0
C2339 C 0.7907 0.20834 0.15763 0.0
C2340 C 0.79631 0.19036 0.15761 0.0
C2341 C 0.85906 0.14515 0.25194 0.0
C2342 C 0.84194 0.14368 0.27213 0.0
C2343 C 0.85461 0.14411 0.2209 0.0
C2344 C 0.83249 0.14019 0.20968 0.0
C2345 C 0.81388 0.13393 0.23008 0.0
C2346 C 0.81859 0.13573 0.26114 0.0
C2347 C 0.83063 0.14793 0.17853 0.0
C2348 C 0.82325 0.16468 0.17541 0.0
C2349 C 0.83907 0.1419 0.15289 0.0
C2350 C 0.84767 0.1248 0.15441 0.0
C2351 C 0.83342 0.10204 0.16687 0.0
C2352 C 0.84197 0.08629 0.16874 0.0
C2353 C 0.86469 0.09307 0.15811 0.0
C2354 C 0.87889 0.11559 0.14548 0.0
C2355 C 0.87045 0.1314 0.14355 0.0
H2356 H 0.87128 0.08087 0.15963 0.0
H2357 H 0.803 0.24508 0.14771 0.0
H2358 H 0.0132 0.48541 0.21344 0.0
H2359 H 0.02758 0.4602 0.19353 0.0
H2360 H 0.08766 0.52197 0.15423 0.0
H2361 H 0.07192 0.54663 0.17166 0.0
H2362 H 0.07569 0.49151 0.11674 0.0
H2363 H 0.08545 0.48529 0.22464 0.0
H2364 H 0.07371 0.47545 0.27773 0.0
H2365 H 0.02451 0.40268 0.25305 0.0
H2366 H 0.03562 0.41214 0.19979 0.0
H2367 H 0.15392 0.44121 0.11919 0.0
H2368 H 0.13377 0.46287 0.13266 0.0
H2369 H 0.06557 0.40173 0.10806 0.0
H2370 H 0.08581 0.38023 0.09336 0.0
H2371 H 0.07823 0.42789 0.17521 0.0
H2372 H 0.07029 0.435 0.06751 0.0
H2373 H 0.08567 0.44483 0.01584 0.0
H2374 H 0.13488 0.51701 0.04292 0.0
H2375 H 0.12016 0.50747 0.09496 0.0
C2376 C 0.0296 0.49356 0.20077 0.0
C2377 C 0.04157 0.51802 0.19428 0.0
C2378 C 0.03797 0.47912 0.18954 0.0
C2379 C 0.05911 0.48892 0.17269 0.0
C2380 C 0.07128 0.5136 0.16692 0.0
C2381 C 0.06241 0.52784 0.17712 0.0
C2382 C 0.06809 0.47363 0.15983 0.0
C2383 C 0.07643 0.47787 0.12997 0.0
C2384 C 0.06849 0.45496 0.17618 0.0
C2385 C 0.06121 0.44952 0.20813 0.0
C2386 C 0.07195 0.46725 0.23048 0.0
C2387 C 0.06544 0.46171 0.26063 0.0
C2388 C 0.04841 0.43845 0.26876 0.0
C2389 C 0.03775 0.42068 0.24675 0.0
C2390 C 0.0441 0.42613 0.21657 0.0
C2391 C 0.13471 0.43264 0.11576 0.0
C2392 C 0.12151 0.40916 0.10472 0.0
C2393 C 0.1232 0.44498 0.12366 0.0
C2394 C 0.09817 0.43394 0.12141 0.0
C2395 C 0.08492 0.41065 0.10981 0.0
C2396 C 0.09652 0.39848 0.10112 0.0
C2397 C 0.08607 0.44642 0.13299 0.0
C2398 C 0.07726 0.44159 0.16239 0.0
C2399 C 0.08545 0.46466 0.1165 0.0
C2400 C 0.09434 0.47043 0.08524 0.0
C2401 C 0.08461 0.45288 0.06257 0.0
C2402 C 0.09315 0.45842 0.03318 0.0
C2403 C 0.11128 0.48151 0.02613 0.0
C2404 C 0.12088 0.49912 0.04844 0.0
C2405 C 0.11244 0.49365 0.07788 0.0
H2406 H 0.11785 0.48577 0.00336 0.0
H2407 H 0.04343 0.43419 0.2921 0.0
H2408 H 0.62896 0.71715 0.09367 0.0
H2409 H 0.60139 0.67656 0.11144 0.0
H2410 H 0.55379 0.69911 0.14359 0.0
H2411 H 0.58174 0.73964 0.1272 0.0
H2412 H 0.56099 0.67664 0.18603 0.0
H2413 H 0.54094 0.6616 0.08035 0.0
H2414 H 0.55114 0.66297 0.02685 0.0
H2415 H 0.58035 0.6182 0.04565 0.0
H2416 H 0.57065 0.61685 0.09941 0.0
H2417 H 0.46239 0.54157 0.17349 0.0
H2418 H 0.48633 0.58142 0.15258 0.0
H2419 H 0.53954 0.59939 0.22323 0.0
H2420 H 0.51539 0.55957 0.24468 0.0
H2421 H 0.52905 0.60124 0.12873 0.0
H2422 H 0.56911 0.65838 0.23639 0.0
H2423 H 0.55806 0.65877 0.28925 0.0
H2424 H 0.48355 0.62059 0.26351 0.0
H2425 H 0.49416 0.62011 0.21057 0.0
C2426 C 0.6123 0.71319 0.10383 0.0
C2427 C 0.60742 0.73142 0.10915 0.0
C2428 C 0.59658 0.69004 0.11408 0.0
C2429 C 0.5755 0.68475 0.12905 0.0
C2430 C 0.57002 0.70275 0.13249 0.0
C2431 C 0.58588 0.72586 0.12286 0.0
C2432 C 0.55978 0.66103 0.14289 0.0
C2433 C 0.55399 0.66018 0.17342 0.0
C2434 C 0.55049 0.6395 0.12651 0.0
C2435 C 0.55525 0.63929 0.09397 0.0
C2436 C 0.54958 0.65207 0.0731 0.0
C2437 C 0.55529 0.65287 0.04274 0.0
C2438 C 0.56646 0.64076 0.03291 0.0
C2439 C 0.57173 0.62761 0.05334 0.0
C2440 C 0.5661 0.62679 0.08375 0.0
C2441 C 0.47893 0.55416 0.18503 0.0
C2442 C 0.48694 0.54738 0.21086 0.0
C2443 C 0.49271 0.57688 0.17284 0.0
C2444 C 0.51481 0.5934 0.18617 0.0
C2445 C 0.52243 0.58705 0.21267 0.0
C2446 C 0.50853 0.5643 0.22505 0.0
C2447 C 0.53009 0.61696 0.17175 0.0
C2448 C 0.53598 0.61775 0.14124 0.0
C2449 C 0.53904 0.63851 0.18791 0.0
C2450 C 0.53246 0.63902 0.21961 0.0
C2451 C 0.55039 0.65014 0.24205 0.0
C2452 C 0.5442 0.65036 0.272 0.0
C2453 C 0.52013 0.63967 0.27973 0.0
C2454 C 0.50219 0.62879 0.25752 0.0
C2455 C 0.50828 0.6285 0.22755 0.0
H2456 H 0.51538 0.63985 0.30293 0.0
H2457 H 0.57103 0.6416 0.00948 0.0
H2458 H 0.27607 0.91462 0.07054 0.0
H2459 H 0.31856 0.92777 0.07947 0.0
H2460 H 0.29803 0.86741 0.13764 0.0
H2461 H 0.25593 0.8537 0.12779 0.0
H2462 H 0.32954 0.91442 0.16372 0.0
H2463 H 0.31836 0.86659 0.07508 0.0
H2464 H 0.30984 0.8555 0.02141 0.0
H2465 H 0.36893 0.92373 -0.00355 0.0
H2466 H 0.37728 0.93559 0.04996 0.0
H2467 H 0.43035 0.91252 0.21136 0.0
H2468 H 0.39206 0.89936 0.18554 0.0
H2469 H 0.42674 0.9571 0.12225 0.0
H2470 H 0.46514 0.97028 0.14763 0.0
H2471 H 0.39012 0.91652 0.09539 0.0
H2472 H 0.40229 0.9656 0.18007 0.0
H2473 H 0.4126 0.97956 0.23269 0.0
H2474 H 0.35351 0.91349 0.26362 0.0
H2475 H 0.34306 0.89895 0.21118 0.0
C2476 C 0.28068 0.90372 0.0842 0.0
C2477 C 0.2627 0.88303 0.09815 0.0
C2478 C 0.30489 0.91137 0.08957 0.0
C2479 C 0.31129 0.89853 0.10927 0.0
C2480 C 0.29337 0.87753 0.1224 0.0
C2481 C 0.26934 0.86977 0.11676 0.0
C2482 C 0.33644 0.90773 0.11866 0.0
C2483 C 0.34275 0.91473 0.14884 0.0
C2484 C 0.35381 0.90902 0.09881 0.0
C2485 C 0.34824 0.90211 0.06658 0.0
C2486 C 0.32928 0.87942 0.05817 0.0
C2487 C 0.32452 0.87295 0.02775 0.0
C2488 C 0.33885 0.88888 0.00554 0.0
C2489 C 0.35789 0.91137 0.01369 0.0
C2490 C 0.36255 0.91802 0.04405 0.0
C2491 C 0.43001 0.92213 0.19153 0.0
C2492 C 0.45082 0.94275 0.18194 0.0
C2493 C 0.40807 0.91462 0.17687 0.0
C2494 C 0.40656 0.92761 0.15245 0.0
C2495 C 0.42754 0.94695 0.1412 0.0
C2496 C 0.4495 0.95448 0.15584 0.0
C2497 C 0.38287 0.92231 0.14069 0.0
C2498 C 0.37693 0.91634 0.11016 0.0
C2499 C 0.36588 0.92243 0.16001 0.0
C2500 C 0.37202 0.93109 0.19167 0.0
C2501 C 0.39161 0.95395 0.1981 0.0
C2502 C 0.39746 0.96199 0.22789 0.0
C2503 C 0.38375 0.9474 0.25149 0.0
C2504 C 0.36413 0.92476 0.24532 0.0
C2505 C 0.35822 0.91661 0.21555 0.0
H2506 H 0.3883 0.95366 0.27454 0.0
H2507 H 0.33517 0.88383 0.982 0.0
H2508 H 0.53322 0.07554 0.29017 0.0
H2509 H 0.50994 0.09318 0.30614 0.0
H2510 H 0.45491 0.05058 0.24017 0.0
H2511 H 0.47877 0.03374 0.22316 0.0
H2512 H 0.45841 0.09087 0.24167 0.0
H2513 H 0.45141 0.03713 0.32459 0.0
H2514 H 0.46546 0.02205 0.36662 0.0
H2515 H 0.50351 0.09195 0.40604 0.0
H2516 H 0.48952 0.10733 0.36444 0.0
H2517 H 0.36895 0.09188 0.35473 0.0
H2518 H 0.39491 0.07709 0.3385 0.0
H2519 H 0.44388 0.14566 0.30062 0.0
H2520 H 0.41844 0.16071 0.31741 0.0
H2521 H 0.44203 0.09161 0.3502 0.0
H2522 H 0.46157 0.14425 0.24981 0.0
H2523 H 0.44683 0.15704 0.20604 0.0
H2524 H 0.3839 0.08741 0.20015 0.0
H2525 H 0.3982 0.07442 0.24404 0.0
C2526 C 0.51634 0.07024 0.27868 0.0
C2527 C 0.50792 0.05325 0.25528 0.0
C2528 C 0.5028 0.08007 0.28821 0.0
C2529 C 0.48016 0.07273 0.27516 0.0
C2530 C 0.4722 0.05651 0.25088 0.0
C2531 C 0.48595 0.04697 0.24096 0.0
C2532 C 0.46487 0.08204 0.28643 0.0
C2533 C 0.45486 0.09089 0.26546 0.0
C2534 C 0.46015 0.08247 0.31746 0.0
C2535 C 0.46961 0.07338 0.34133 0.0
C2536 C 0.46299 0.04929 0.34207 0.0
C2537 C 0.47088 0.04069 0.36588 0.0
C2538 C 0.48545 0.05609 0.38892 0.0
C2539 C 0.49225 0.08008 0.38817 0.0
C2540 C 0.48429 0.08871 0.36457 0.0
C2541 C 0.38538 0.10385 0.34323 0.0
C2542 C 0.3914 0.12734 0.33683 0.0
C2543 C 0.40001 0.09526 0.33347 0.0
C2544 C 0.42069 0.10982 0.31673 0.0
C2545 C 0.42748 0.1337 0.31215 0.0
C2546 C 0.41305 0.14237 0.32217 0.0
C2547 C 0.43577 0.10039 0.30548 0.0
C2548 C 0.44565 0.09149 0.32645 0.0
C2549 C 0.44057 0.10011 0.27454 0.0
C2550 C 0.43059 0.10861 0.25069 0.0
C2551 C 0.44437 0.13186 0.2395 0.0
C2552 C 0.4362 0.13908 0.21452 0.0
C2553 C 0.41447 0.12303 0.20027 0.0
C2554 C 0.40072 0.09982 0.21121 0.0
C2555 C 0.40872 0.09261 0.23634 0.0
H2556 H 0.40819 0.12862 0.18089 0.0
H2557 H 0.49141 0.04952 0.40753 0.0
H2558 H 0.91415 0.29416 0.38951 0.0
H2559 H 0.93244 0.3376 0.3874 0.0
H2560 H 0.88457 0.32993 0.31396 0.0
H2561 H 0.8652 0.28672 0.3171 0.0
H2562 H 0.94103 0.36082 0.30786 0.0
H2563 H 0.86912 0.34787 0.36016 0.0
H2564 H 0.84104 0.33101 0.40233 0.0
H2565 H 0.89929 0.36828 0.4657 0.0
H2566 H 0.92784 0.38515 0.42371 0.0
H2567 H 0.92573 0.45018 0.25351 0.0
H2568 H 0.91628 0.41449 0.28149 0.0
H2569 H 0.97181 0.45642 0.34701 0.0
H2570 H 0.98148 0.49264 0.31906 0.0
H2571 H 0.92179 0.41245 0.36794 0.0
H2572 H 0.98948 0.43606 0.3024 0.0
H2573 H 0.00989 0.45031 0.25386 0.0
H2574 H 0.95332 0.38839 0.20927 0.0
H2575 H 0.93207 0.37424 0.25719 0.0
C2576 C 0.90703 0.30171 0.37357 0.0
C2577 C 0.88795 0.28697 0.35382 0.0
C2578 C 0.91771 0.32651 0.37217 0.0
C2579 C 0.90986 0.33681 0.35045 0.0
C2580 C 0.89077 0.32219 0.33092 0.0
C2581 C 0.87979 0.29752 0.33272 0.0
C2582 C 0.92239 0.36281 0.34614 0.0
C2583 C 0.93726 0.3723 0.32126 0.0
C2584 C 0.9174 0.37756 0.36377 0.0
C2585 C 0.90052 0.36772 0.38896 0.0
C2586 C 0.87592 0.3524 0.38312 0.0
C2587 C 0.85996 0.34288 0.40693 0.0
C2588 C 0.8684 0.34869 0.43667 0.0
C2589 C 0.89281 0.36406 0.44261 0.0
C2590 C 0.9089 0.37356 0.41884 0.0
C2591 C 0.93583 0.4521 0.27408 0.0
C2592 C 0.95488 0.47446 0.2835 0.0
C2593 C 0.93028 0.43158 0.29012 0.0
C2594 C 0.94356 0.43284 0.31601 0.0
C2595 C 0.96143 0.45515 0.32695 0.0
C2596 C 0.96705 0.47585 0.31077 0.0
C2597 C 0.94005 0.41041 0.32906 0.0
C2598 C 0.9267 0.40145 0.3554 0.0
C2599 C 0.94592 0.39585 0.31218 0.0
C2600 C 0.95912 0.40412 0.28347 0.0
C2601 C 0.98128 0.42558 0.28221 0.0
C2602 C 0.99298 0.43367 0.25477 0.0
C2603 C 0.98292 0.42022 0.22854 0.0
C2604 C 0.9611 0.39875 0.22963 0.0
C2605 C 0.9492 0.39072 0.25691 0.0
H2606 H 0.99197 0.42634 0.20733 0.0
H2607 H 0.85605 0.34126 0.45511 0.0
H2608 H 0.73318 0.58114 0.39696 0.0
H2609 H 0.69639 0.55622 0.3675 0.0
H2610 H 0.69441 0.6187 0.34048 0.0
H2611 H 0.73139 0.64383 0.36938 0.0
H2612 H 0.65389 0.58119 0.37534 0.0
H2613 H 0.70114 0.59258 0.28756 0.0
H2614 H 0.73309 0.59165 0.25969 0.0
H2615 H 0.69936 0.51635 0.27458 0.0
H2616 H 0.6673 0.51688 0.30282 0.0
H2617 H 0.54619 0.53005 0.29194 0.0
H2618 H 0.58642 0.55324 0.31322 0.0
H2619 H 0.5971 0.49388 0.3002 0.0
H2620 H 0.55725 0.47133 0.27615 0.0
H2621 H 0.63477 0.52926 0.28575 0.0
H2622 H 0.58968 0.51625 0.37548 0.0
H2623 H 0.56115 0.51608 0.41125 0.0
H2624 H 0.59181 0.59137 0.3996 0.0
H2625 H 0.6206 0.59202 0.36368 0.0
C2626 C 0.72522 0.58963 0.38416 0.0
C2627 C 0.73503 0.61441 0.38571 0.0
C2628 C 0.70432 0.57538 0.36722 0.0
C2629 C 0.6928 0.58569 0.35188 0.0
C2630 C 0.70321 0.61051 0.35207 0.0
C2631 C 0.72432 0.62481 0.36857 0.0
C2632 C 0.66821 0.57045 0.33971 0.0
C2633 C 0.64961 0.57007 0.35543 0.0
C2634 C 0.66282 0.55519 0.31474 0.0
C2635 C 0.68196 0.55482 0.29757 0.0
C2636 C 0.70065 0.57586 0.28513 0.0
C2637 C 0.71875 0.5754 0.26921 0.0
C2638 C 0.71832 0.55398 0.26548 0.0
C2639 C 0.6997 0.53294 0.27753 0.0
C2640 C 0.68153 0.53331 0.29345 0.0
C2641 C 0.55699 0.52181 0.29402 0.0
C2642 C 0.54858 0.49885 0.28258 0.0
C2643 C 0.58003 0.53505 0.30649 0.0
C2644 C 0.59488 0.52528 0.30915 0.0
C2645 C 0.58615 0.50196 0.29847 0.0
C2646 C 0.56332 0.48899 0.28492 0.0
C2647 C 0.61991 0.53996 0.32129 0.0
C2648 C 0.63875 0.54025 0.30569 0.0
C2649 C 0.62559 0.55483 0.34697 0.0
C2650 C 0.60715 0.55413 0.36674 0.0
C2651 C 0.59013 0.53271 0.38024 0.0
C2652 C 0.574 0.53256 0.40069 0.0
C2653 C 0.57468 0.55371 0.40777 0.0
C2654 C 0.59133 0.57502 0.39415 0.0
C2655 C 0.60759 0.5753 0.3738 0.0
H2656 H 0.56238 0.55366 0.42386 0.0
H2657 H 0.73238 0.55367 0.25318 0.0
H2658 H 0.90978 0.62456 0.8886 0.0
H2659 H 0.92342 0.59663 0.87709 0.0
H2660 H 0.86951 0.56497 0.80655 0.0
H2661 H 0.856 0.59256 0.81763 0.0
H2662 H 0.87539 0.53098 0.83879 0.0
H2663 H 0.92298 0.60601 0.78712 0.0
H2664 H 0.94659 0.64963 0.78902 0.0
H2665 H 0.998 0.64684 0.84872 0.0
H2666 H 0.97416 0.60287 0.84766 0.0
H2667 H 0.92604 0.48258 0.73763 0.0
H2668 H 0.9095 0.50645 0.75725 0.0
H2669 H 0.96318 0.53343 0.82844 0.0
H2670 H 0.97905 0.50932 0.80969 0.0
H2671 H 0.95773 0.56923 0.79879 0.0
H2672 H 0.91247 0.49454 0.8483 0.0
H2673 H 0.8869 0.45096 0.8524 0.0
H2674 H 0.83131 0.45294 0.80075 0.0
H2675 H 0.85677 0.49657 0.79591 0.0
C2676 C 0.90067 0.61144 0.87094 0.0
C2677 C 0.8821 0.61112 0.8537 0.0
C2678 C 0.90844 0.59547 0.86439 0.0
C2679 C 0.89757 0.57879 0.84076 0.0
C2680 C 0.87815 0.5776 0.82485 0.0
C2681 C 0.87061 0.59361 0.83109 0.0
C2682 C 0.90774 0.56424 0.83023 0.0
C2683 C 0.89332 0.53931 0.82986 0.0
C2684 C 0.93123 0.57505 0.81894 0.0
C2685 C 0.9467 0.60125 0.81757 0.0
C2686 C 0.9393 0.61471 0.80069 0.0
C2687 C 0.95263 0.63951 0.80183 0.0
C2688 C 0.97369 0.65111 0.81933 0.0
C2689 C 0.9816 0.63784 0.83536 0.0
C2690 C 0.96817 0.61296 0.83452 0.0
C2691 C 0.93423 0.49368 0.75737 0.0
C2692 C 0.95367 0.49403 0.77229 0.0
C2693 C 0.9248 0.50722 0.76861 0.0
C2694 C 0.93511 0.52168 0.79438 0.0
C2695 C 0.95494 0.52246 0.80859 0.0
C2696 C 0.96391 0.5086 0.7979 0.0
C2697 C 0.92528 0.53588 0.80703 0.0
C2698 C 0.9398 0.56081 0.80775 0.0
C2699 C 0.90193 0.525 0.81885 0.0
C2700 C 0.88666 0.49877 0.82134 0.0
C2701 C 0.89492 0.48566 0.83747 0.0
C2702 C 0.88042 0.46096 0.84002 0.0
C2703 C 0.85753 0.44917 0.82674 0.0
C2704 C 0.84908 0.46209 0.81094 0.0
C2705 C 0.86354 0.48681 0.80828 0.0
H2706 H 0.84631 0.43005 0.82878 0.0
H2707 H 0.98399 0.67036 0.82019 0.0
H2708 H 0.5161 0.45037 0.73959 0.0
H2709 H 0.49364 0.41041 0.76254 0.0
H2710 H 0.46588 0.43765 0.8287 0.0
H2711 H 0.48873 0.47717 0.80668 0.0
H2712 H 0.48245 0.41432 0.8563 0.0
H2713 H 0.43086 0.39749 0.7673 0.0
H2714 H 0.42241 0.39439 0.71247 0.0
H2715 H 0.44808 0.34589 0.7041 0.0
H2716 H 0.45672 0.34873 0.75883 0.0
H2717 H 0.39561 0.31361 0.93244 0.0
H2718 H 0.41693 0.34904 0.90125 0.0
H2719 H 0.43158 0.30902 0.83706 0.0
H2720 H 0.4081 0.27285 0.86721 0.0
H2721 H 0.42548 0.33769 0.8065 0.0
H2722 H 0.47502 0.35219 0.89499 0.0
H2723 H 0.48444 0.35518 0.94951 0.0
H2724 H 0.46556 0.40889 0.95857 0.0
H2725 H 0.45576 0.40603 0.9042 0.0
C2726 C 0.50484 0.44758 0.75868 0.0
C2727 C 0.50415 0.46686 0.77137 0.0
C2728 C 0.49196 0.42474 0.77184 0.0
C2729 C 0.47794 0.42079 0.79758 0.0
C2730 C 0.47662 0.44002 0.80917 0.0
C2731 C 0.48962 0.46266 0.79642 0.0
C2732 C 0.46574 0.39741 0.81407 0.0
C2733 C 0.4698 0.39762 0.84536 0.0
C2734 C 0.44995 0.37528 0.79991 0.0
C2735 C 0.44464 0.37351 0.76708 0.0
C2736 C 0.43482 0.38629 0.75371 0.0
C2737 C 0.42998 0.38456 0.72268 0.0
C2738 C 0.43482 0.37006 0.70481 0.0
C2739 C 0.44438 0.35715 0.71796 0.0
C2740 C 0.4492 0.35876 0.74898 0.0
C2741 C 0.40353 0.31241 0.91177 0.0
C2742 C 0.40059 0.29054 0.90262 0.0
C2743 C 0.41595 0.33281 0.89392 0.0
C2744 C 0.42693 0.33231 0.86708 0.0
C2745 C 0.42365 0.31024 0.85769 0.0
C2746 C 0.41035 0.28954 0.87505 0.0
C2747 C 0.4416 0.35472 0.84902 0.0
C2748 C 0.43819 0.35433 0.81747 0.0
C2749 C 0.45827 0.37679 0.86287 0.0
C2750 C 0.46453 0.37878 0.89553 0.0
C2751 C 0.47281 0.36458 0.90863 0.0
C2752 C 0.4782 0.36625 0.93951 0.0
C2753 C 0.47556 0.38218 0.95749 0.0
C2754 C 0.46759 0.39655 0.94462 0.0
C2755 C 0.46215 0.39494 0.91377 0.0
H2756 H 0.47972 0.38342 0.9814 0.0
H2757 H 0.43108 0.36877 0.68079 0.0
H2758 H 0.57467 0.10047 0.73304 0.0
H2759 H 0.61453 0.11678 0.75637 0.0
H2760 H 0.58308 0.07245 0.83428 0.0
H2761 H 0.54345 0.05607 0.81128 0.0
H2762 H 0.63633 0.1405 0.80875 0.0
H2763 H 0.61329 0.04888 0.85533 0.0
H2764 H 0.58856 0.00645 0.8411 0.0
H2765 H 0.59549 0.02559 0.74747 0.0
H2766 H 0.62022 0.0681 0.76119 0.0
H2767 H 0.72398 0.15785 0.91906 0.0
H2768 H 0.68754 0.14682 0.88999 0.0
H2769 H 0.70471 0.10768 0.82759 0.0
H2770 H 0.74033 0.1174 0.85755 0.0
H2771 H 0.66049 0.08236 0.83909 0.0
H2772 H 0.70998 0.16333 0.80963 0.0
H2773 H 0.73701 0.20656 0.81664 0.0
H2774 H 0.68214 0.21064 0.86383 0.0
H2775 H 0.65489 0.16737 0.85743 0.0
C2776 C 0.57616 0.09448 0.75537 0.0
C2777 C 0.55573 0.07677 0.77014 0.0
C2778 C 0.59899 0.10379 0.76862 0.0
C2779 C 0.6018 0.09549 0.79679 0.0
C2780 C 0.58138 0.07879 0.81226 0.0
C2781 C 0.55863 0.06953 0.79909 0.0
C2782 C 0.626 0.10354 0.80978 0.0
C2783 C 0.64169 0.12785 0.81538 0.0
C2784 C 0.63326 0.08712 0.81757 0.0
C2785 C 0.61849 0.0616 0.80929 0.0
C2786 C 0.6096 0.04399 0.83172 0.0
C2787 C 0.59554 0.01995 0.82375 0.0
C2788 C 0.59043 0.01333 0.7934 0.0
C2789 C 0.59938 0.03074 0.77096 0.0
C2790 C 0.61335 0.0548 0.77883 0.0
C2791 C 0.72022 0.14711 0.89897 0.0
C2792 C 0.73555 0.13896 0.8904 0.0
C2793 C 0.69934 0.1409 0.88223 0.0
C2794 C 0.69349 0.12675 0.85619 0.0
C2795 C 0.70883 0.11873 0.84746 0.0
C2796 C 0.7295 0.12462 0.86446 0.0
C2797 C 0.67087 0.11945 0.83886 0.0
C2798 C 0.65535 0.09517 0.83245 0.0
C2799 C 0.66417 0.13607 0.82944 0.0
C2800 C 0.68047 0.16209 0.83325 0.0
C2801 C 0.70374 0.17343 0.82168 0.0
C2802 C 0.71909 0.19794 0.82551 0.0
C2803 C 0.71131 0.21133 0.84072 0.0
C2804 C 0.68815 0.20025 0.85207 0.0
C2805 C 0.67273 0.17574 0.84831 0.0
H2806 H 0.72322 0.23031 0.84368 0.0
H2807 H 0.57956 0.99472 0.78728 0.0
H2808 H 0.64073 0.90934 0.67729 0.0
H2809 H 0.61639 0.92535 0.69404 0.0
H2810 H 0.57569 0.90292 0.61035 0.0
H2811 H 0.60238 0.88941 0.59209 0.0
H2812 H 0.57632 0.93974 0.62548 0.0
H2813 H 0.55732 0.87091 0.6854 0.0
H2814 H 0.56654 0.84596 0.7184 0.0
H2815 H 0.59667 0.90131 0.78535 0.0
H2816 H 0.58786 0.92669 0.75261 0.0
H2817 H 0.47621 0.94068 0.68227 0.0
H2818 H 0.50216 0.9261 0.66679 0.0
H2819 H 0.55246 0.96639 0.73822 0.0
H2820 H 0.52644 0.98138 0.75396 0.0
H2821 H 0.54627 0.92049 0.72993 0.0
H2822 H 0.56393 0.98856 0.66858 0.0
H2823 H 0.55334 0.01222 0.63505 0.0
H2824 H 0.52251 0.95519 0.57046 0.0
H2825 H 0.53284 0.93113 0.60365 0.0
C2826 C 0.62685 0.90817 0.66222 0.0
C2827 C 0.62345 0.89804 0.63341 0.0
C2828 C 0.61252 0.91696 0.67208 0.0
C2829 C 0.5932 0.91447 0.65427 0.0
C2830 C 0.59016 0.90489 0.62495 0.0
C2831 C 0.60536 0.89706 0.61446 0.0
C2832 C 0.57631 0.92173 0.66643 0.0
C2833 C 0.56953 0.93511 0.64817 0.0
C2834 C 0.56747 0.91628 0.69634 0.0
C2835 C 0.57206 0.90074 0.71647 0.0
C2836 C 0.56593 0.87776 0.70715 0.0
C2837 C 0.57111 0.86355 0.7258 0.0
C2838 C 0.58222 0.87206 0.75393 0.0
C2839 C 0.58806 0.89474 0.76355 0.0
C2840 C 0.58295 0.90903 0.74499 0.0
C2841 C 0.49259 0.94624 0.69515 0.0
C2842 C 0.49915 0.96237 0.71941 0.0
C2843 C 0.50754 0.93794 0.68606 0.0
C2844 C 0.52956 0.94545 0.70087 0.0
C2845 C 0.53562 0.96041 0.72626 0.0
C2846 C 0.52063 0.96887 0.73538 0.0
C2847 C 0.54643 0.9383 0.68895 0.0
C2848 C 0.55311 0.92496 0.70724 0.0
C2849 C 0.55482 0.94342 0.65898 0.0
C2850 C 0.549 0.95799 0.6387 0.0
C2851 C 0.5548 0.98103 0.64728 0.0
C2852 C 0.54887 0.99451 0.62834 0.0
C2853 C 0.53723 0.98518 0.60072 0.0
C2854 C 0.53152 0.96237 0.5919 0.0
C2855 C 0.53748 0.94883 0.61071 0.0
H2856 H 0.53284 0.99574 0.58604 0.0
H2857 H 0.58628 0.86106 0.76829 0.0
H2858 H 0.03285 0.53884 0.66224 0.0
H2859 H 0.04867 0.57826 0.63941 0.0
H2860 H 0.10489 0.60856 0.70726 0.0
H2861 H 0.08942 0.56948 0.73011 0.0
H2862 H 0.07704 0.63053 0.70276 0.0
H2863 H 0.12529 0.61217 0.63251 0.0
H2864 H 0.12736 0.58506 0.59582 0.0
H2865 H 0.06852 0.58135 0.54508 0.0
H2866 H 0.06604 0.6082 0.58161 0.0
H2867 H 0.15266 0.74916 0.66264 0.0
H2868 H 0.13604 0.70719 0.67441 0.0
H2869 H 0.09272 0.68765 0.59304 0.0
H2870 H 0.10973 0.72972 0.58056 0.0
H2871 H 0.1101 0.65847 0.60091 0.0
H2872 H 0.06461 0.68023 0.66135 0.0
H2873 H 0.0561 0.70371 0.69672 0.0
H2874 H 0.10033 0.69697 0.76462 0.0
H2875 H 0.10866 0.67293 0.72975 0.0
C2876 C 0.04889 0.55378 0.67194 0.0
C2877 C 0.05972 0.5509 0.6982 0.0
C2878 C 0.05794 0.57632 0.65879 0.0
C2879 C 0.07797 0.59638 0.67165 0.0
C2880 C 0.0894 0.59336 0.69698 0.0
C2881 C 0.08051 0.57091 0.71 0.0
C2882 C 0.0858 0.62084 0.66075 0.0
C2883 C 0.08448 0.63671 0.68059 0.0
C2884 C 0.09433 0.62857 0.63135 0.0
C2885 C 0.09574 0.61244 0.60946 0.0
C2886 C 0.11288 0.6056 0.61344 0.0
C2887 C 0.1141 0.59026 0.59271 0.0
C2888 C 0.09819 0.58162 0.568 0.0
C2889 C 0.08098 0.58824 0.56404 0.0
C2890 C 0.07974 0.6036 0.58467 0.0
C2891 C 0.13969 0.73599 0.64706 0.0
C2892 C 0.13251 0.74295 0.62066 0.0
C2893 C 0.13006 0.7119 0.65395 0.0
C2894 C 0.1128 0.69408 0.63484 0.0
C2895 C 0.10599 0.70093 0.60812 0.0
C2896 C 0.11571 0.72508 0.60109 0.0
C2897 C 0.10184 0.66845 0.64325 0.0
C2898 C 0.10254 0.65234 0.62302 0.0
C2899 C 0.09183 0.66014 0.672 0.0
C2900 C 0.08747 0.67505 0.69286 0.0
C2901 C 0.07267 0.68393 0.68375 0.0
C2902 C 0.06782 0.69727 0.70375 0.0
C2903 C 0.07789 0.70208 0.73283 0.0
C2904 C 0.09262 0.69331 0.74206 0.0
C2905 C 0.09729 0.6797 0.72225 0.0
H2906 H 0.07421 0.71249 0.74827 0.0
H2907 H 0.09913 0.56973 0.552 0.0
H2908 H 0.43508 0.5258 0.73441 0.0
H2909 H 0.39571 0.49993 0.71067 0.0
H2910 H 0.42944 0.49127 0.63325 0.0
H2911 H 0.46881 0.51694 0.65663 0.0
H2912 H 0.38479 0.50145 0.62802 0.0
H2913 H 0.4145 0.45029 0.66375 0.0
H2914 H 0.43338 0.43802 0.70299 0.0
H2915 H 0.37607 0.42223 0.76299 0.0
H2916 H 0.35723 0.43514 0.72434 0.0
H2917 H 0.27988 0.39508 0.56546 0.0
H2918 H 0.32183 0.42411 0.57986 0.0
H2919 H 0.30071 0.42377 0.67124 0.0
H2920 H 0.2594 0.39514 0.65761 0.0
H2921 H 0.34093 0.41843 0.66587 0.0
H2922 H 0.3087 0.46524 0.6296 0.0
H2923 H 0.29154 0.48253 0.59518 0.0
H2924 H 0.35386 0.51099 0.54023 0.0
H2925 H 0.37072 0.49244 0.57312 0.0
C2926 C 0.43422 0.51895 0.71198 0.0
C2927 C 0.4552 0.52349 0.69746 0.0
C2928 C 0.4117 0.50407 0.69855 0.0
C2929 C 0.40982 0.4938 0.67025 0.0
C2930 C 0.43065 0.4993 0.65496 0.0
C2931 C 0.45314 0.51392 0.66847 0.0
C2932 C 0.38609 0.476 0.6576 0.0
C2933 C 0.37525 0.48313 0.63567 0.0
C2934 C 0.37372 0.45238 0.66836 0.0
C2935 C 0.38465 0.44401 0.69132 0.0
C2936 C 0.40608 0.44449 0.68543 0.0
C2937 C 0.41676 0.43738 0.70755 0.0
C2938 C 0.40597 0.42942 0.7355 0.0
C2939 C 0.38444 0.42847 0.74135 0.0
C2940 C 0.37377 0.43571 0.71936 0.0
C2941 C 0.28419 0.40127 0.58855 0.0
C2942 C 0.26616 0.39285 0.61025 0.0
C2943 C 0.30808 0.41792 0.59664 0.0
C2944 C 0.31425 0.42626 0.62646 0.0
C2945 C 0.29635 0.41766 0.64809 0.0
C2946 C 0.27264 0.40133 0.64009 0.0
C2947 C 0.33933 0.44369 0.63576 0.0
C2948 C 0.35047 0.43654 0.65742 0.0
C2949 C 0.35186 0.46737 0.62475 0.0
C2950 C 0.34074 0.47684 0.60354 0.0
C2951 C 0.31843 0.47443 0.60964 0.0
C2952 C 0.30876 0.48455 0.5904 0.0
C2953 C 0.32149 0.49767 0.56537 0.0
C2954 C 0.3439 0.50064 0.55948 0.0
C2955 C 0.3534 0.49011 0.57824 0.0
H2956 H 0.31408 0.50568 0.55064 0.0
H2957 H 0.41427 0.42395 0.75262 0.0
H2958 H 0.73038 0.87261 0.48697 0.0
H2959 H 0.74436 0.84576 0.47324 0.0
H2960 H 0.74874 0.83062 0.56706 0.0
H2961 H 0.73392 0.85703 0.58124 0.0
H2962 H 0.79098 0.84194 0.51644 0.0
H2963 H 0.70562 0.79325 0.54437 0.0
H2964 H 0.66477 0.78635 0.53793 0.0
H2965 H 0.66629 0.77452 0.44316 0.0
H2966 H 0.70761 0.78242 0.44885 0.0
H2967 H 0.807 0.74549 0.51392 0.0
H2968 H 0.79366 0.77289 0.52585 0.0
H2969 H 0.74982 0.75213 0.4447 0.0
H2970 H 0.76173 0.72278 0.43401 0.0
H2971 H 0.72763 0.76072 0.48446 0.0
H2972 H 0.8064 0.80566 0.45013 0.0
H2973 H 0.84929 0.81942 0.44531 0.0
H2974 H 0.86222 0.84338 0.53731 0.0
H2975 H 0.81931 0.82943 0.54284 0.0
C2976 C 0.73474 0.864 0.50486 0.0
C2977 C 0.73099 0.867 0.5353 0.0
C2978 C 0.74265 0.84858 0.49687 0.0
C2979 C 0.74739 0.83615 0.51911 0.0
C2980 C 0.74511 0.8401 0.5496 0.0
C2981 C 0.73668 0.85519 0.55765 0.0
C2982 C 0.75318 0.81789 0.51025 0.0
C2983 C 0.77719 0.82403 0.51 0.0
C2984 C 0.7352 0.79511 0.49992 0.0
C2985 C 0.70982 0.78875 0.49698 0.0
C2986 C 0.69735 0.78944 0.52211 0.0
C2987 C 0.67414 0.78542 0.51858 0.0
C2988 C 0.66297 0.78008 0.49013 0.0
C2989 C 0.67498 0.7787 0.46517 0.0
C2990 C 0.69833 0.78303 0.46853 0.0
C2991 C 0.79446 0.74659 0.49849 0.0
C2992 C 0.78621 0.73259 0.47213 0.0
C2993 C 0.78697 0.76251 0.50529 0.0
C2994 C 0.77153 0.76548 0.48557 0.0
C2995 C 0.7622 0.75065 0.46001 0.0
C2996 C 0.7693 0.73416 0.45357 0.0
C2997 C 0.76563 0.7843 0.49189 0.0
C2998 C 0.74158 0.77847 0.49123 0.0
C2999 C 0.78372 0.8078 0.50012 0.0
C3000 C 0.80959 0.81631 0.49698 0.0
C3001 C 0.81836 0.81371 0.46941 0.0
C3002 C 0.84267 0.82156 0.46654 0.0
C3003 C 0.85846 0.83222 0.49101 0.0
C3004 C 0.84996 0.8351 0.51839 0.0
C3005 C 0.82564 0.82724 0.5214 0.0
H3006 H 0.87729 0.83829 0.48875 0.0
H3007 H 0.64498 0.77693 0.48746 0.0
H3008 H 0.29902 0.0705 0.43522 0.0
H3009 H 0.2779 0.03378 0.46393 0.0
H3010 H 0.21141 0.01766 0.42009 0.0
H3011 H 0.23246 0.0549 0.39163 0.0
H3012 H 0.20468 0.0058 0.47933 0.0
H3013 H 0.24284 0.99157 0.39668 0.0
H3014 H 0.27721 0.00037 0.36501 0.0
H3015 H 0.31375 0.99227 0.44178 0.0
H3016 H 0.27968 0.98364 0.47396 0.0
H3017 H 0.13916 0.87866 0.49279 0.0
H3018 H 0.16137 0.91962 0.47417 0.0
H3019 H 0.22015 0.93489 0.53494 0.0
H3020 H 0.19765 0.89398 0.55443 0.0
H3021 H 0.23226 0.94797 0.47046 0.0
H3022 H 0.19325 0.95974 0.55244 0.0
H3023 H 0.15939 0.95171 0.58451 0.0
H3024 H 0.12492 0.96494 0.5096 0.0
H3025 H 0.15841 0.97264 0.4769 0.0
C3026 C 0.27986 0.05949 0.43198 0.0
C3027 C 0.26755 0.0659 0.41102 0.0
C3028 C 0.26779 0.03825 0.44829 0.0
C3029 C 0.24307 0.02264 0.44391 0.0
C3030 C 0.2305 0.02932 0.42386 0.0
C3031 C 0.2426 0.05066 0.40752 0.0
C3032 C 0.23056 0.99902 0.45939 0.0
C3033 C 0.21057 0.99308 0.47709 0.0
C3034 C 0.23855 0.98254 0.45721 0.0
C3035 C 0.2588 0.98715 0.43777 0.0
C3036 C 0.25825 0.99175 0.40682 0.0
C3037 C 0.27766 0.99669 0.38878 0.0
C3038 C 0.29766 0.99692 0.4014 0.0
C3039 C 0.29824 0.99209 0.43204 0.0
C3040 C 0.27887 0.98713 0.45018 0.0
C3041 C 0.15666 0.89081 0.50256 0.0
C3042 C 0.16657 0.88306 0.52523 0.0
C3043 C 0.16936 0.91422 0.49184 0.0
C3044 C 0.19245 0.93032 0.50307 0.0
C3045 C 0.20236 0.92276 0.52592 0.0
C3046 C 0.18941 0.89944 0.5372 0.0
C3047 C 0.20631 0.95475 0.49015 0.0
C3048 C 0.22648 0.96077 0.47283 0.0
C3049 C 0.1985 0.97129 0.49266 0.0
C3050 C 0.17822 0.96649 0.51212 0.0
C3051 C 0.17832 0.96066 0.5427 0.0
C3052 C 0.15922 0.95623 0.56102 0.0
C3053 C 0.13998 0.95775 0.54908 0.0
C3054 C 0.13982 0.96373 0.5188 0.0
C3055 C 0.15886 0.96814 0.50036 0.0
H3056 H 0.12522 0.95435 0.56331 0.0
H3057 H 0.31269 0.00081 0.38743 0.0
H3058 H 0.92589 0.22099 0.4576 0.0
H3059 H 0.96107 0.23011 0.48895 0.0
H3060 H -0.00044 0.23342 0.40926 0.0
H3061 H 0.96463 0.22383 0.37812 0.0
H3062 H 0.00472 0.20722 0.45146 0.0
H3063 H 0.02265 0.29332 0.45183 0.0
H3064 H 0.00925 0.32194 0.46044 0.0
H3065 H 0.97844 0.28781 0.54439 0.0
H3066 H 0.99232 0.25942 0.53652 0.0
H3067 H 0.12868 0.2748 0.47309 0.0
H3068 H 0.08658 0.25788 0.45953 0.0
H3069 H 0.0707 0.26347 0.55198 0.0
H3070 H 0.11318 0.28108 0.56574 0.0
H3071 H 0.04923 0.27959 0.51506 0.0
H3072 H 0.05267 0.2085 0.51954 0.0
H3073 H 0.06902 0.18255 0.50945 0.0
H3074 H 0.05787 0.18648 0.41437 0.0
H3075 H 0.04178 0.21274 0.42383 0.0
C3076 C 0.94183 0.22377 0.44673 0.0
C3077 C 0.94222 0.22147 0.41524 0.0
C3078 C 0.96206 0.22914 0.46473 0.0
C3079 C 0.98312 0.23264 0.45149 0.0
C3080 C 0.98354 0.23065 0.4201 0.0
C3081 C 0.96342 0.22508 0.40228 0.0
C3082 C 0.00472 0.23763 0.46972 0.0
C3083 C 0.01444 0.22302 0.46544 0.0
C3084 C 0.01702 0.25768 0.48888 0.0
C3085 C 0.00828 0.27425 0.49348 0.0
C3086 C 0.01295 0.29194 0.47205 0.0
C3087 C 0.00534 0.30814 0.47684 0.0
C3088 C 0.99285 0.30662 0.50286 0.0
C3089 C 0.98809 0.28897 0.52424 0.0
C3090 C 0.99595 0.27292 0.51972 0.0
C3091 C 0.11626 0.27212 0.49074 0.0
C3092 C 0.1244 0.27923 0.52058 0.0
C3093 C 0.09208 0.26235 0.48293 0.0
C3094 C 0.0753 0.25906 0.50478 0.0
C3095 C 0.08325 0.26575 0.53472 0.0
C3096 C 0.10755 0.27569 0.54257 0.0
C3097 C 0.04978 0.2497 0.49571 0.0
C3098 C 0.03931 0.26343 0.50178 0.0
C3099 C 0.03672 0.22872 0.47819 0.0
C3100 C 0.04609 0.21266 0.47242 0.0
C3101 C 0.05381 0.20392 0.49647 0.0
C3102 C 0.06303 0.18915 0.49086 0.0
C3103 C 0.0645 0.18289 0.46129 0.0
C3104 C 0.05671 0.19134 0.43726 0.0
C3105 C 0.04749 0.20613 0.44275 0.0
H3106 H 0.07167 0.17147 0.45699 0.0
H3107 H 0.98694 0.31916 0.5065 0.0
H3108 H 0.03071 0.42207 0.68543 0.0
H3109 H 0.05456 0.4047 0.67104 0.0
H3110 H 0.11932 0.47069 0.69394 0.0
H3111 H 0.09518 0.48856 0.70597 0.0
H3112 H 0.12637 0.45897 0.64492 0.0
H3113 H 0.09664 0.41324 0.7341 0.0
H3114 H 0.06733 0.38705 0.77143 0.0
H3115 H 0.03179 0.33197 0.70496 0.0
H3116 H 0.06092 0.3578 0.66701 0.0
H3117 H 0.16965 0.3676 0.62848 0.0
H3118 H 0.15093 0.38447 0.6585 0.0
H3119 H 0.13043 0.40669 0.57721 0.0
H3120 H 0.14915 0.38992 0.547 0.0
H3121 H 0.10668 0.37598 0.66317 0.0
H3122 H 0.13416 0.45913 0.58745 0.0
H3123 H 0.16796 0.48647 0.55557 0.0
H3124 H 0.2147 0.46971 0.60564 0.0
H3125 H 0.18129 0.44256 0.63808 0.0
C3126 C 0.05003 0.43257 0.68823 0.0
C3127 C 0.06118 0.45649 0.6972 0.0
C3128 C 0.06374 0.42262 0.68008 0.0
C3129 C 0.08894 0.43616 0.68167 0.0
C3130 C 0.09998 0.45978 0.69233 0.0
C3131 C 0.08624 0.46996 0.69956 0.0
C3132 C 0.10361 0.42656 0.66921 0.0
C3133 C 0.12207 0.44087 0.64925 0.0
C3134 C 0.0986 0.40306 0.67501 0.0
C3135 C 0.08091 0.38753 0.69766 0.0
C3136 C 0.08249 0.3956 0.72735 0.0
C3137 C 0.0659 0.38081 0.74865 0.0
C3138 C 0.04763 0.35792 0.74062 0.0
C3139 C 0.04595 0.34971 0.71119 0.0
C3140 C 0.06254 0.36439 0.68978 0.0
C3141 C 0.16106 0.37583 0.61683 0.0
C3142 C 0.16105 0.37727 0.58514 0.0
C3143 C 0.15034 0.38557 0.63415 0.0
C3144 C 0.13951 0.39716 0.62021 0.0
C3145 C 0.13906 0.39825 0.58859 0.0
C3146 C 0.14975 0.38854 0.57131 0.0
C3147 C 0.12868 0.40819 0.63846 0.0
C3148 C 0.11101 0.39415 0.65932 0.0
C3149 C 0.13491 0.43216 0.6343 0.0
C3150 C 0.15515 0.44865 0.61502 0.0
C3151 C 0.15167 0.46136 0.59174 0.0
C3152 C 0.17076 0.47681 0.57356 0.0
C3153 C 0.19345 0.47977 0.57852 0.0
C3154 C 0.19711 0.46734 0.60174 0.0
C3155 C 0.17809 0.4519 0.62001 0.0
H3156 H 0.20819 0.49172 0.56441 0.0
H3157 H 0.03482 0.34654 0.75722 0.0
H3158 H 0.65868 0.81794 0.63098 0.0
H3159 H 0.64486 0.77862 0.65313 0.0
H3160 H 0.57687 0.75118 0.60673 0.0
H3161 H 0.59073 0.79017 0.58384 0.0
H3162 H 0.59858 0.74603 0.68898 0.0
H3163 H 0.56954 0.714 0.5756 0.0
H3164 H 0.58024 0.71964 0.52179 0.0
H3165 H 0.65213 0.7381 0.54578 0.0
H3166 H 0.64197 0.73334 0.59971 0.0
H3167 H 0.52444 0.61113 0.65302 0.0
H3168 H 0.54239 0.65318 0.64184 0.0
H3169 H 0.5979 0.66993 0.70871 0.0
H3170 H 0.58004 0.62719 0.71982 0.0
H3171 H 0.58683 0.68192 0.61901 0.0
H3172 H 0.61455 0.72314 0.73574 0.0
H3173 H 0.60097 0.71212 0.78812 0.0
H3174 H 0.52797 0.6715 0.75689 0.0
H3175 H 0.54106 0.68172 0.70428 0.0
C3176 C 0.64066 0.80369 0.62583 0.0
C3177 C 0.62585 0.80739 0.60561 0.0
C3178 C 0.63283 0.78113 0.6384 0.0
C3179 C 0.60987 0.76187 0.6315 0.0
C3180 C 0.59473 0.7657 0.61225 0.0
C3181 C 0.60266 0.7881 0.5993 0.0
C3182 C 0.60191 0.73748 0.64314 0.0
C3183 C 0.59638 0.73212 0.67378 0.0
C3184 C 0.59859 0.71909 0.6235 0.0
C3185 C 0.60511 0.72361 0.59147 0.0
C3186 C 0.5877 0.71961 0.56931 0.0
C3187 C 0.59368 0.72268 0.53885 0.0
C3188 C 0.61689 0.72936 0.53037 0.0
C3189 C 0.63423 0.73318 0.55237 0.0
C3190 C 0.62843 0.73048 0.58287 0.0
C3191 C 0.54038 0.62364 0.66568 0.0
C3192 C 0.55079 0.61563 0.68738 0.0
C3193 C 0.55065 0.64779 0.65914 0.0
C3194 C 0.57159 0.66481 0.6742 0.0
C3195 C 0.58165 0.65714 0.69685 0.0
C3196 C 0.57134 0.63271 0.70337 0.0
C3197 C 0.58309 0.69025 0.66473 0.0
C3198 C 0.58935 0.69586 0.63442 0.0
C3199 C 0.5867 0.70865 0.68465 0.0
C3200 C 0.57878 0.70328 0.7162 0.0
C3201 C 0.5956 0.71203 0.74011 0.0
C3202 C 0.58801 0.70588 0.7698 0.0
C3203 C 0.56366 0.69142 0.77586 0.0
C3204 C 0.54682 0.6828 0.75219 0.0
C3205 C 0.55431 0.68865 0.72244 0.0
H3206 H 0.55786 0.68679 0.79889 0.0
H3207 H 0.6214 0.73141 0.50676 0.0
H3208 H 0.42037 0.94764 0.69814 0.0
H3209 H 0.38408 0.92232 0.668 0.0
H3210 H 0.34149 0.92955 0.73598 0.0
H3211 H 0.37756 0.95293 0.7671 0.0
H3212 H 0.31769 0.88875 0.71894 0.0
H3213 H 0.35934 0.96076 0.66 0.0
H3214 H 0.39225 0.99249 0.63072 0.0
H3215 H 0.38989 0.94043 0.57031 0.0
H3216 H 0.35712 0.90831 0.59927 0.0
H3217 H 0.21259 0.85138 0.6313 0.0
H3218 H 0.24946 0.87378 0.66007 0.0
H3219 H 0.28654 0.85723 0.59384 0.0
H3220 H 0.2496 0.8363 0.56344 0.0
H3221 H 0.31323 0.90096 0.60918 0.0
H3222 H 0.26819 0.82928 0.66951 0.0
H3223 H 0.23258 0.80005 0.69741 0.0
H3224 H 0.23937 0.85554 0.75538 0.0
H3225 H 0.2749 0.88512 0.72768 0.0
C3226 C 0.40317 0.94359 0.7066 0.0
C3227 C 0.40167 0.95207 0.73495 0.0
C3228 C 0.38239 0.92936 0.68919 0.0
C3229 C 0.35977 0.92428 0.69912 0.0
C3230 C 0.35849 0.93295 0.72757 0.0
C3231 C 0.37913 0.94638 0.74542 0.0
C3232 C 0.33736 0.90956 0.68055 0.0
C3233 C 0.31679 0.89176 0.695 0.0
C3234 C 0.33589 0.91279 0.64903 0.0
C3235 C 0.35596 0.9321 0.63204 0.0
C3236 C 0.36598 0.95605 0.64064 0.0
C3237 C 0.38457 0.97412 0.62408 0.0
C3238 C 0.3932 0.9685 0.59879 0.0
C3239 C 0.38323 0.94477 0.58995 0.0
C3240 C 0.36464 0.92663 0.60641 0.0
C3241 C 0.22841 0.85251 0.62258 0.0
C3242 C 0.22785 0.84212 0.59473 0.0
C3243 C 0.24967 0.86514 0.63945 0.0
C3244 C 0.27093 0.86686 0.62969 0.0
C3245 C 0.27045 0.85618 0.60207 0.0
C3246 C 0.24922 0.84409 0.58471 0.0
C3247 C 0.29373 0.88051 0.6477 0.0
C3248 C 0.31431 0.89801 0.63311 0.0
C3249 C 0.29507 0.8774 0.67921 0.0
C3250 C 0.27415 0.85942 0.69642 0.0
C3251 C 0.26208 0.83524 0.68819 0.0
C3252 C 0.2419 0.81862 0.70396 0.0
C3253 C 0.23371 0.82594 0.72813 0.0
C3254 C 0.24575 0.84989 0.73668 0.0
C3255 C 0.26594 0.86658 0.721 0.0
H3256 H 0.21806 0.81306 0.74027 0.0
H3257 H 0.40757 0.98253 0.58601 0.0
H3258 H 0.58386 0.81185 0.06345 0.0
H3259 H 0.5687 0.8354 0.0859 0.0
H3260 H 0.62648 0.86352 0.15172 0.0
H3261 H 0.64181 0.83987 0.12943 0.0
H3262 H 0.58414 0.85524 0.17697 0.0
H3263 H 0.63094 0.89557 0.09137 0.0
H3264 H 0.64443 0.90164 0.03883 0.0
H3265 H 0.57529 0.88743 0.00778 0.0
H3266 H 0.56124 0.88089 0.06014 0.0
H3267 H 0.56811 0.95482 0.21101 0.0
H3268 H 0.58479 0.9296 0.1986 0.0
H3269 H 0.5328 0.8973 0.12605 0.0
H3270 H 0.51647 0.92234 0.13788 0.0
H3271 H 0.57589 0.9101 0.10654 0.0
H3272 H 0.528 0.86478 0.19158 0.0
H3273 H 0.51563 0.8644 0.24389 0.0
H3274 H 0.58815 0.89221 0.27526 0.0
H3275 H 0.60086 0.89252 0.22313 0.0
C3276 C 0.59323 0.82273 0.08298 0.0
C3277 C 0.61424 0.82399 0.09439 0.0
C3278 C 0.58454 0.83631 0.09576 0.0
C3279 C 0.59663 0.8516 0.12025 0.0
C3280 C 0.61685 0.85196 0.1328 0.0
C3281 C 0.62562 0.83839 0.11995 0.0
C3282 C 0.58892 0.86819 0.13126 0.0
C3283 C 0.58264 0.86743 0.16161 0.0
C3284 C 0.58674 0.8841 0.11135 0.0
C3285 C 0.59493 0.88742 0.0797 0.0
C3286 C 0.61849 0.89341 0.07332 0.0
C3287 C 0.62628 0.89703 0.04357 0.0
C3288 C 0.61071 0.89484 0.01997 0.0
C3289 C 0.58732 0.88906 0.02608 0.0
C3290 C 0.57944 0.8854 0.0558 0.0
C3291 C 0.56002 0.94206 0.19276 0.0
C3292 C 0.54098 0.94073 0.17543 0.0
C3293 C 0.56959 0.92765 0.18561 0.0
C3294 C 0.56012 0.91149 0.16123 0.0
C3295 C 0.54064 0.9097 0.14472 0.0
C3296 C 0.53122 0.92404 0.15169 0.0
C3297 C 0.57059 0.89678 0.15195 0.0
C3298 C 0.5774 0.8979 0.12187 0.0
C3299 C 0.57329 0.88134 0.17204 0.0
C3300 C 0.56537 0.87874 0.20356 0.0
C3301 C 0.54123 0.87055 0.20973 0.0
C3302 C 0.53417 0.87037 0.2393 0.0
C3303 C 0.55108 0.87831 0.26288 0.0
C3304 C 0.57503 0.88597 0.257 0.0
C3305 C 0.58216 0.88604 0.22746 0.0
H3306 H 0.5456 0.87864 0.28562 0.0
H3307 H 0.61678 0.8977 -0.00305 0.0
H3308 H 0.19534 0.78815 0.07004 0.0
H3309 H 0.17644 0.74981 0.09622 0.0
H3310 H 0.12276 0.76345 0.13022 0.0
H3311 H 0.14247 0.80223 0.10573 0.0
H3312 H 0.13142 0.74283 0.17136 0.0
H3313 H 0.11424 0.7247 0.06592 0.0
H3314 H 0.12344 0.72541 0.01211 0.0
H3315 H 0.16469 0.69245 0.03292 0.0
H3316 H 0.15595 0.69179 0.0869 0.0
H3317 H 0.03985 0.6218 0.19564 0.0
H3318 H 0.06236 0.65904 0.16776 0.0
H3319 H 0.12649 0.65537 0.17806 0.0
H3320 H 0.10426 0.61831 0.20677 0.0
H3321 H 0.11326 0.66988 0.11534 0.0
H3322 H 0.12768 0.68811 0.22278 0.0
H3323 H 0.11441 0.6859 0.275 0.0
H3324 H 0.07312 0.7175 0.2476 0.0
H3325 H 0.08585 0.71953 0.19504 0.0
C3326 C 0.17963 0.783 0.08334 0.0
C3327 C 0.1704 0.79821 0.08576 0.0
C3328 C 0.16866 0.76095 0.09811 0.0
C3329 C 0.14769 0.75325 0.11471 0.0
C3330 C 0.13884 0.76877 0.11763 0.0
C3331 C 0.15016 0.79102 0.10356 0.0
C3332 C 0.13474 0.72906 0.12881 0.0
C3333 C 0.12733 0.72696 0.15885 0.0
C3334 C 0.1294 0.70808 0.1129 0.0
C3335 C 0.13464 0.70842 0.08046 0.0
C3336 C 0.12539 0.71774 0.05903 0.0
C3337 C 0.13051 0.71811 0.0285 0.0
C3338 C 0.14469 0.70904 0.01911 0.0
C3339 C 0.15373 0.69951 0.04023 0.0
C3340 C 0.14869 0.69911 0.07078 0.0
C3341 C 0.05863 0.62859 0.19151 0.0
C3342 C 0.07027 0.61708 0.20362 0.0
C3343 C 0.07148 0.64997 0.17569 0.0
C3344 C 0.0961 0.66004 0.17117 0.0
C3345 C 0.10749 0.64788 0.18144 0.0
C3346 C 0.09475 0.6267 0.19782 0.0
C3347 C 0.11014 0.68399 0.15745 0.0
C3348 C 0.11758 0.68593 0.12762 0.0
C3349 C 0.11503 0.70474 0.17327 0.0
C3350 C 0.10748 0.70369 0.20489 0.0
C3351 C 0.11556 0.69434 0.2278 0.0
C3352 C 0.10818 0.69317 0.25747 0.0
C3353 C 0.09285 0.70146 0.26457 0.0
C3354 C 0.08495 0.71103 0.24204 0.0
C3355 C 0.09225 0.71221 0.2123 0.0
H3356 H 0.0872 0.70055 0.28756 0.0
H3357 H 0.14863 0.70934 -0.00453 0.0
H3358 H 0.20767 0.40445 0.13525 0.0
H3359 H 0.24327 0.41683 0.16749 0.0
H3360 H 0.2702 0.38733 0.10345 0.0
H3361 H 0.23483 0.37511 0.07103 0.0
H3362 H 0.27639 0.37866 0.16658 0.0
H3363 H 0.29036 0.44261 0.09803 0.0
H3364 H 0.28019 0.47079 0.07472 0.0
H3365 H 0.28316 0.50064 0.16169 0.0
H3366 H 0.29299 0.47236 0.18556 0.0
H3367 H 0.40088 0.43978 0.20445 0.0
H3368 H 0.36245 0.42291 0.17741 0.0
H3369 H 0.34321 0.46451 0.23235 0.0
H3370 H 0.38169 0.48177 0.25907 0.0
H3371 H 0.33145 0.46595 0.17592 0.0
H3372 H 0.32205 0.40567 0.24456 0.0
H3373 H 0.32936 0.37619 0.26977 0.0
H3374 H 0.31461 0.33749 0.18679 0.0
H3375 H 0.30837 0.36735 0.16063 0.0
C3376 C 0.22102 0.40031 0.12828 0.0
C3377 C 0.21867 0.38909 0.10049 0.0
C3378 C 0.24132 0.40741 0.14667 0.0
C3379 C 0.25939 0.40313 0.13767 0.0
C3380 C 0.25645 0.3908 0.11072 0.0
C3381 C 0.23636 0.38403 0.09214 0.0
C3382 C 0.28225 0.41319 0.15499 0.0
C3383 C 0.28866 0.39772 0.16844 0.0
C3384 C 0.29776 0.43805 0.15797 0.0
C3385 C 0.29216 0.45523 0.1436 0.0
C3386 C 0.28866 0.45506 0.1122 0.0
C3387 C 0.28298 0.47106 0.09889 0.0
C3388 C 0.28097 0.48745 0.11672 0.0
C3389 C 0.28469 0.48791 0.14791 0.0
C3390 C 0.29033 0.47191 0.16133 0.0
C3391 C 0.38867 0.44564 0.21049 0.0
C3392 C 0.39448 0.46222 0.23392 0.0
C3393 C 0.36654 0.43573 0.19524 0.0
C3394 C 0.34975 0.44213 0.20318 0.0
C3395 C 0.35581 0.4592 0.22592 0.0
C3396 C 0.37788 0.46908 0.24117 0.0
C3397 C 0.32602 0.43145 0.18754 0.0
C3398 C 0.31936 0.44685 0.17428 0.0
C3399 C 0.31024 0.40647 0.18504 0.0
C3400 C 0.31514 0.38906 0.20046 0.0
C3401 C 0.3209 0.3912 0.23147 0.0
C3402 C 0.32487 0.3744 0.24594 0.0
C3403 C 0.32278 0.35515 0.22978 0.0
C3404 C 0.31665 0.35263 0.19913 0.0
C3405 C 0.31296 0.36953 0.18445 0.0
H3406 H 0.32571 0.34208 0.24105 0.0
H3407 H 0.27658 0.49983 0.10638 0.0
H3408 H 0.13812 0.27556 0.00797 0.0
H3409 H 0.1641 0.26191 -0.01114 0.0
H3410 H 0.22167 0.31209 0.04682 0.0
H3411 H 0.19544 0.32549 0.06678 0.0
H3412 H 0.21369 0.2976 0.96158 0.0
H3413 H 0.22941 0.28381 0.07168 0.0
H3414 H 0.21061 0.26659 0.12046 0.0
H3415 H 0.16267 0.19994 0.0769 0.0
H3416 H 0.18057 0.21714 0.02773 0.0
H3417 H 0.30517 0.26677 0.92804 0.0
H3418 H 0.28146 0.2845 0.94383 0.0
H3419 H 0.22249 0.21454 0.96452 0.0
H3420 H 0.24585 0.19703 0.94888 0.0
H3421 H 0.23321 0.24162 0.01221 0.0
H3422 H 0.21951 0.24697 0.90881 0.0
H3423 H 0.22389 0.25729 0.85497 0.0
H3424 H 0.25509 0.33121 0.87733 0.0
H3425 H 0.252 0.32151 0.93146 0.0
C3426 C 0.15611 0.28328 0.01734 0.0
C3427 C 0.16454 0.30144 0.03925 0.0
C3428 C 0.17101 0.27554 0.00618 0.0
C3429 C 0.19483 0.28581 0.01645 0.0
C3430 C 0.20323 0.30354 0.03892 0.0
C3431 C 0.18816 0.31112 0.05046 0.0
C3432 C 0.2109 0.27857 0.00239 0.0
C3433 C 0.21869 0.28593 0.97283 0.0
C3434 C 0.21615 0.26227 0.01646 0.0
C3435 C 0.20612 0.25183 0.04611 0.0
C3436 C 0.21472 0.26558 0.07253 0.0
C3437 C 0.20425 0.25582 0.10022 0.0
C3438 C 0.18552 0.23217 0.10179 0.0
C3439 C 0.17718 0.21825 0.07566 0.0
C3440 C 0.18741 0.22802 0.04788 0.0
C3441 C 0.2868 0.25516 0.93475 0.0
C3442 C 0.27743 0.23044 0.93717 0.0
C3443 C 0.2733 0.26533 0.94413 0.0
C3444 C 0.25023 0.25094 0.95607 0.0
C3445 C 0.2403 0.22616 0.95596 0.0
C3446 C 0.25364 0.2161 0.94664 0.0
C3447 C 0.23707 0.2613 0.97125 0.0
C3448 C 0.22932 0.25411 0.00101 0.0
C3449 C 0.23136 0.27731 0.95685 0.0
C3450 C 0.23592 0.28351 0.9244 0.0
C3451 C 0.22801 0.26551 0.90239 0.0
C3452 C 0.23013 0.27125 0.87174 0.0
C3453 C 0.23981 0.29489 0.86272 0.0
C3454 C 0.2476 0.31289 0.88435 0.0
C3455 C 0.24589 0.30731 0.91503 0.0
H3456 H 0.24124 0.29925 0.83898 0.0
H3457 H 0.17747 0.22464 0.12325 0.0
H3458 H 0.73832 0.87191 0.98695 0.0
H3459 H 0.75412 0.9135 0.97321 0.0
H3460 H 0.72835 0.92519 0.0564 0.0
H3461 H 0.71318 0.88387 0.07072 0.0
H3462 H 0.73142 0.93551 0.96134 0.0
H3463 H 0.76009 0.983 0.0772 0.0
H3464 H 0.77669 0.97933 0.12611 0.0
H3465 H 0.8086 0.94405 0.08277 0.0
H3466 H 0.79245 0.94777 0.03358 0.0
H3467 H 0.75139 0.05428 0.94456 0.0
H3468 H 0.73719 0.01242 0.95693 0.0
H3469 H 0.80846 0.03238 0.98825 0.0
H3470 H 0.822 0.07392 0.97787 0.0
H3471 H 0.78173 0.00553 0.02655 0.0
H3472 H 0.77721 0.99791 0.91727 0.0
H3473 H 0.76397 0.99737 0.86462 0.0
H3474 H 0.69065 0.95223 0.88978 0.0
H3475 H 0.70342 0.95257 0.94252 0.0
C3476 C 0.7365 0.88344 0.00269 0.0
C3477 C 0.72454 0.87445 0.03005 0.0
C3478 C 0.74538 0.90723 -0.00534 0.0
C3479 C 0.7425 0.92264 0.01372 0.0
C3480 C 0.7312 0.91389 0.04145 0.0
C3481 C 0.72251 0.89016 0.04964 0.0
C3482 C 0.75029 0.94744 0.0039 0.0
C3483 C 0.74251 0.95088 0.97556 0.0
C3484 C 0.7648 0.96754 0.02231 0.0
C3485 C 0.77484 0.96547 0.05176 0.0
C3486 C 0.77072 0.97454 0.0781 0.0
C3487 C 0.78004 0.97243 0.10588 0.0
C3488 C 0.79362 0.96139 0.10756 0.0
C3489 C 0.79799 0.95252 0.08146 0.0
C3490 C 0.78874 0.95459 0.05363 0.0
C3491 C 0.76396 0.04955 0.95381 0.0
C3492 C 0.78774 0.06735 0.9605 0.0
C3493 C 0.7559 0.02558 0.96076 0.0
C3494 C 0.77169 0.01894 0.9736 0.0
C3495 C 0.7957 0.03679 0.97885 0.0
C3496 C 0.8035 0.06062 0.97275 0.0
C3497 C 0.76342 0.99391 0.98338 0.0
C3498 C 0.77078 0.99032 0.01208 0.0
C3499 C 0.74901 0.97372 0.96493 0.0
C3500 C 0.74126 0.97552 0.93389 0.0
C3501 C 0.75824 0.98826 0.91166 0.0
C3502 C 0.75081 0.98792 0.88177 0.0
C3503 C 0.72645 0.97497 0.8739 0.0
C3504 C 0.70947 0.96246 0.89592 0.0
C3505 C 0.7168 0.96268 0.92579 0.0
H3506 H 0.72071 0.97437 0.8507 0.0
H3507 H 0.8008 0.95977 0.12908 0.0
H3508 H 0.1165 0.88 -0.00636 0.0
H3509 H 0.07345 0.85425 0.98318 0.0
H3510 H 0.06795 0.80963 0.0583 0.0
H3511 H 0.11062 0.83546 0.06957 0.0
H3512 H 0.05384 0.78938 -0.00826 0.0
H3513 H 0.04034 0.83061 0.07196 0.0
H3514 H 0.04651 0.86648 0.09818 0.0
H3515 H 0.02065 0.88609 0.01983 0.0
H3516 H 0.0147 0.8505 -0.00704 0.0
H3517 H 0.93284 0.70562 0.96049 0.0
H3518 H 0.96803 0.73177 -0.00823 0.0
H3519 H 0.97287 0.79322 0.94796 0.0
H3520 H 0.93745 0.76743 0.91746 0.0
H3521 H 0.98644 0.80355 0.00488 0.0
H3522 H 0.00425 0.76825 0.92248 0.0
H3523 H 7e-05 0.73526 0.89121 0.0
H3524 H 0.02016 0.70773 0.96724 0.0
H3525 H 0.02415 0.74042 -0.00093 0.0
C3526 C 0.10601 0.86509 0.00843 0.0
C3527 C 0.11703 0.85974 0.03234 0.0
C3528 C 0.08147 0.85041 0.00241 0.0
C3529 C 0.06771 0.83009 0.01995 0.0
C3530 C 0.07836 0.82531 0.04461 0.0
C3531 C 0.10274 0.84018 0.05103 0.0
C3532 C 0.04291 0.81252 0.01055 0.0
C3533 C 0.03894 0.79214 -0.00484 0.0
C3534 C 0.02385 0.81669 0.01424 0.0
C3535 C 0.02731 0.83802 0.03036 0.0
C3536 C 0.03621 0.8427 0.06021 0.0
C3537 C 0.03961 0.86295 0.07522 0.0
C3538 C 0.03404 0.87859 0.06065 0.0
C3539 C 0.02499 0.87397 0.03107 0.0
C3540 C 0.02158 0.85375 0.01595 0.0
C3541 C 0.94099 0.7247 0.95809 0.0
C3542 C 0.93251 0.7344 0.93615 0.0
C3543 C 0.96121 0.73963 0.97586 0.0
C3544 C 0.97337 0.76444 0.97174 0.0
C3545 C 0.96387 0.77416 0.95146 0.0
C3546 C 0.94366 0.75932 0.93386 0.0
C3547 C 0.9972 0.7802 0.98607 0.0
C3548 C 0.00114 0.80041 0.00205 0.0
C3549 C 0.01646 0.77618 0.98232 0.0
C3550 C 0.01419 0.75658 0.96324 0.0
C3551 C 0.0076 0.75505 0.93258 0.0
C3552 C 0.00529 0.73643 0.91475 0.0
C3553 C 0.00976 0.71936 0.92726 0.0
C3554 C 0.01664 0.72093 0.9576 0.0
C3555 C 0.01893 0.7395 0.97555 0.0
H3556 H 0.00797 0.70496 0.91342 0.0
H3557 H 0.03667 0.89426 0.07231 0.0
H3558 H 0.49466 0.10801 0.79047 0.0
H3559 H 0.47798 0.13076 0.81143 0.0
H3560 H 0.40675 0.06977 0.80098 0.0
H3561 H 0.42355 0.04714 0.77887 0.0
H3562 H 0.40511 0.10962 0.79302 0.0
H3563 H 0.43912 0.08266 0.86945 0.0
H3564 H 0.47031 0.07739 0.8948 0.0
H3565 H 0.51615 0.15309 0.90251 0.0
H3566 H 0.4855 0.15894 0.87688 0.0
H3567 H 0.36307 0.15565 0.91219 0.0
H3568 H 0.37734 0.12956 0.89436 0.0
H3569 H 0.43832 0.18995 0.85469 0.0
H3570 H 0.42395 0.21591 0.87174 0.0
H3571 H 0.44161 0.14661 0.89211 0.0
H3572 H 0.412 0.1696 0.79872 0.0
H3573 H 0.38109 0.17707 0.77782 0.0
H3574 H 0.32595 0.10861 0.80885 0.0
H3575 H 0.35681 0.10079 0.82992 0.0
C3576 C 0.47537 0.09973 0.79153 0.0
C3577 C 0.46044 0.07585 0.78266 0.0
C3578 C 0.46582 0.11264 0.80405 0.0
C3579 C 0.44109 0.10184 0.80889 0.0
C3580 C 0.42591 0.07854 0.79785 0.0
C3581 C 0.4355 0.06566 0.78485 0.0
C3582 C 0.43156 0.11447 0.82696 0.0
C3583 C 0.41294 0.11728 0.81487 0.0
C3584 C 0.44158 0.12477 0.85565 0.0
C3585 C 0.46006 0.12124 0.87102 0.0
C3586 C 0.45592 0.09819 0.87635 0.0
C3587 C 0.47347 0.09509 0.8908 0.0
C3588 C 0.49515 0.11485 0.9002 0.0
C3589 C 0.49935 0.13779 0.8952 0.0
C3590 C 0.48189 0.14102 0.88075 0.0
C3591 C 0.37998 0.16351 0.90068 0.0
C3592 C 0.3925 0.18796 0.89369 0.0
C3593 C 0.38801 0.14853 0.89024 0.0
C3594 C 0.40892 0.1578 0.87314 0.0
C3595 C 0.42224 0.18241 0.86795 0.0
C3596 C 0.41404 0.19726 0.87786 0.0
C3597 C 0.41567 0.14181 0.85789 0.0
C3598 C 0.43369 0.13849 0.87048 0.0
C3599 C 0.40508 0.13087 0.82998 0.0
C3600 C 0.38658 0.13461 0.81567 0.0
C3601 C 0.39326 0.15613 0.80092 0.0
C3602 C 0.37575 0.16048 0.78923 0.0
C3603 C 0.35149 0.14341 0.79218 0.0
C3604 C 0.34473 0.12185 0.80665 0.0
C3605 C 0.36223 0.1174 0.81837 0.0
H3606 H 0.33793 0.14677 0.78301 0.0
H3607 H 0.50868 0.11238 0.9114 0.0
H3608 H 0.94615 0.36951 0.71402 0.0
H3609 H 0.92549 0.33354 0.74424 0.0
H3610 H 0.92463 0.37477 0.81912 0.0
H3611 H 0.94695 0.4114 0.78916 0.0
H3612 H 0.93034 0.34006 0.84027 0.0
H3613 H 0.87401 0.34124 0.76886 0.0
H3614 H 0.85998 0.34496 0.71814 0.0
H3615 H 0.86379 0.28482 0.68764 0.0
H3616 H 0.87809 0.2809 0.73807 0.0
H3617 H 0.83953 0.22899 0.90846 0.0
H3618 H 0.86346 0.26986 0.88894 0.0
H3619 H 0.86921 0.24184 0.80379 0.0
H3620 H 0.84459 0.20157 0.82252 0.0
H3621 H 0.8583 0.27255 0.79207 0.0
H3622 H 0.91709 0.27248 0.86137 0.0
H3623 H 0.93294 0.26922 0.91105 0.0
H3624 H 0.9254 0.32632 0.94501 0.0
H3625 H 0.90922 0.32973 0.89563 0.0
C3626 C 0.94161 0.37099 0.73695 0.0
C3627 C 0.94782 0.3933 0.74897 0.0
C3628 C 0.92965 0.35031 0.75426 0.0
C3629 C 0.92259 0.35108 0.78378 0.0
C3630 C 0.92955 0.37351 0.79633 0.0
C3631 C 0.94223 0.39445 0.77917 0.0
C3632 C 0.90734 0.32835 0.80072 0.0
C3633 C 0.91439 0.3254 0.8299 0.0
C3634 C 0.88655 0.30896 0.78732 0.0
C3635 C 0.87721 0.31085 0.75723 0.0
C3636 C 0.87188 0.32883 0.75132 0.0
C3637 C 0.8639 0.33098 0.72262 0.0
C3638 C 0.86102 0.31516 0.69968 0.0
C3639 C 0.86601 0.29707 0.70543 0.0
C3640 C 0.874 0.29484 0.73409 0.0
C3641 C 0.84608 0.23168 0.88567 0.0
C3642 C 0.83991 0.212 0.86696 0.0
C3643 C 0.8599 0.25508 0.87451 0.0
C3644 C 0.86834 0.25922 0.84471 0.0
C3645 C 0.86281 0.23942 0.82665 0.0
C3646 C 0.84869 0.21626 0.83747 0.0
C3647 C 0.8818 0.28372 0.83118 0.0
C3648 C 0.87421 0.28714 0.80263 0.0
C3649 C 0.90209 0.30334 0.84516 0.0
C3650 C 0.91169 0.30118 0.87489 0.0
C3651 C 0.91863 0.28421 0.8795 0.0
C3652 C 0.92771 0.28236 0.9076 0.0
C3653 C 0.93012 0.29751 0.93119 0.0
C3654 C 0.92349 0.31457 0.92673 0.0
C3655 C 0.91437 0.31648 0.89869 0.0
H3656 H 0.93719 0.29608 0.9529 0.0
H3657 H 0.85491 0.3169 0.67745 0.0
H3658 H 0.77219 0.57778 0.87304 0.0
H3659 H 0.73428 0.56454 0.84552 0.0
H3660 H 0.75887 0.63691 0.81896 0.0
H3661 H 0.7971 0.65017 0.84586 0.0
H3662 H 0.70843 0.60397 0.85338 0.0
H3663 H 0.75629 0.61319 0.76563 0.0
H3664 H 0.78455 0.60645 0.73723 0.0
H3665 H 0.73666 0.53087 0.74272 0.0
H3666 H 0.70824 0.53717 0.77152 0.0
H3667 H 0.60896 0.58187 0.76 0.0
H3668 H 0.64792 0.59665 0.78466 0.0
H3669 H 0.64357 0.52965 0.76684 0.0
H3670 H 0.60532 0.51561 0.73996 0.0
H3671 H 0.68509 0.56146 0.75523 0.0
H3672 H 0.63647 0.55043 0.84117 0.0
H3673 H 0.60732 0.5553 0.87036 0.0
H3674 H 0.6549 0.63106 0.87167 0.0
H3675 H 0.68423 0.6267 0.84212 0.0
C3676 C 0.76971 0.59078 0.86075 0.0
C3677 C 0.78771 0.61497 0.8612 0.0
C3678 C 0.74804 0.58322 0.8452 0.0
C3679 C 0.74379 0.59978 0.8304 0.0
C3680 C 0.76188 0.62389 0.83026 0.0
C3681 C 0.7838 0.63139 0.84526 0.0
C3682 C 0.72006 0.59183 0.81608 0.0
C3683 C 0.70331 0.59496 0.83173 0.0
C3684 C 0.71328 0.57944 0.78838 0.0
C3685 C 0.7303 0.57564 0.77103 0.0
C3686 C 0.75191 0.59514 0.76106 0.0
C3687 C 0.76793 0.5914 0.74482 0.0
C3688 C 0.76245 0.56826 0.73827 0.0
C3689 C 0.7409 0.54879 0.74786 0.0
C3690 C 0.72482 0.55243 0.76411 0.0
C3691 C 0.61616 0.57017 0.7618 0.0
C3692 C 0.60406 0.54751 0.74833 0.0
C3693 C 0.63846 0.5786 0.77605 0.0
C3694 C 0.64871 0.56418 0.77828 0.0
C3695 C 0.6362 0.54122 0.76548 0.0
C3696 C 0.61425 0.5331 0.75031 0.0
C3697 C 0.67294 0.57339 0.79249 0.0
C3698 C 0.68992 0.57045 0.7769 0.0
C3699 C 0.67974 0.58565 0.82055 0.0
C3700 C 0.66247 0.58824 0.83921 0.0
C3701 C 0.6407 0.56814 0.84763 0.0
C3702 C 0.62415 0.5708 0.86426 0.0
C3703 C 0.62925 0.59346 0.87286 0.0
C3704 C 0.65098 0.61352 0.86501 0.0
C3705 C 0.66759 0.61096 0.84835 0.0
H3706 H 0.61636 0.59547 0.8856 0.0
H3707 H 0.77487 0.5654 0.7257 0.0
H3708 H 0.76637 0.81326 0.0635 0.0
H3709 H 0.78711 0.79745 0.03487 0.0
H3710 H 0.71946 0.74219 -0.00178 0.0
H3711 H 0.69865 0.75826 0.02622 0.0
H3712 H 0.74912 0.72517 0.02236 0.0
H3713 H 0.75262 0.78128 0.95224 0.0
H3714 H 0.75955 0.8198 0.93362 0.0
H3715 H 0.8345 0.85238 0.9558 0.0
H3716 H 0.8279 0.81403 0.97522 0.0
H3717 H 0.80614 0.68727 0.9149 0.0
H3718 H 0.78203 0.70423 0.93163 0.0
H3719 H 0.84117 0.75473 0.98745 0.0
H3720 H 0.86482 0.7371 0.97208 0.0
H3721 H 0.81289 0.77258 0.94894 0.0
H3722 H 0.80691 0.71443 0.02086 0.0
H3723 H 0.79826 0.67507 0.03834 0.0
H3724 H 0.72497 0.64455 0.00872 0.0
H3725 H 0.7334 0.68394 -0.00913 0.0
C3726 C 0.75591 0.79793 0.04905 0.0
C3727 C 0.73082 0.78716 0.04706 0.0
C3728 C 0.76781 0.78889 0.03268 0.0
C3729 C 0.75489 0.76858 0.01435 0.0
C3730 C 0.72985 0.75786 0.01217 0.0
C3731 C 0.71799 0.76721 0.02804 0.0
C3732 C 0.76759 0.75831 -0.00175 0.0
C3733 C 0.76275 0.73538 0.00591 0.0
C3734 C 0.78554 0.77163 0.97691 0.0
C3735 C 0.78971 0.79483 0.96555 0.0
C3736 C 0.77054 0.79671 0.95351 0.0
C3737 C 0.77442 0.81852 0.94272 0.0
C3738 C 0.79745 0.83858 0.94356 0.0
C3739 C 0.81665 0.83684 0.9552 0.0
C3740 C 0.81285 0.81506 0.96612 0.0
C3741 C 0.81409 0.70222 0.93037 0.0
C3742 C 0.83738 0.71089 0.94215 0.0
C3743 C 0.80029 0.71185 0.93997 0.0
C3744 C 0.80979 0.73076 0.96082 0.0
C3745 C 0.8335 0.74022 0.9713 0.0
C3746 C 0.84697 0.73011 0.96254 0.0
C3747 C 0.79464 0.73963 0.97342 0.0
C3748 C 0.79907 0.76229 0.96515 0.0
C3749 C 0.77606 0.72591 -0.00612 0.0
C3750 C 0.77092 0.70212 0.0042 0.0
C3751 C 0.78904 0.69932 0.01783 0.0
C3752 C 0.78416 0.67699 0.02787 0.0
C3753 C 0.76108 0.65724 0.02454 0.0
C3754 C 0.74286 0.65985 0.01123 0.0
C3755 C 0.7477 0.6822 0.00117 0.0
H3756 H 0.75731 0.63995 0.03234 0.0
H3757 H 0.80041 0.85545 0.93513 0.0
H3758 H 0.29464 0.14841 0.97976 0.0
H3759 H 0.27749 0.10917 0.00248 0.0
H3760 H 0.23902 0.07685 0.91957 0.0
H3761 H 0.25581 0.11627 0.89673 0.0
H3762 H 0.21197 0.05264 0.96374 0.0
H3763 H 0.29293 0.08017 0.94038 0.0
H3764 H 0.33666 0.10759 0.93958 0.0
H3765 H 0.34066 0.10263 0.03584 0.0
H3766 H 0.29683 0.07582 0.03736 0.0
H3767 H 0.20379 0.93917 0.00469 0.0
H3768 H 0.21719 0.97698 0.9783 0.0
H3769 H 0.22722 0.0124 0.06343 0.0
H3770 H 0.21331 0.97477 0.08989 0.0
H3771 H 0.26848 0.03312 0.01476 0.0
H3772 H 0.1849 0.00742 0.03524 0.0
H3773 H 0.14153 0.97828 0.03258 0.0
H3774 H 0.14407 0.97732 0.93599 0.0
H3775 H 0.18758 0.00623 0.93815 0.0
C3776 C 0.28223 0.13306 0.9664 0.0
C3777 C 0.2768 0.13565 0.93624 0.0
C3778 C 0.27251 0.1105 0.97945 0.0
C3779 C 0.25733 0.08984 0.96264 0.0
C3780 C 0.25079 0.09241 0.93306 0.0
C3781 C 0.26039 0.11505 0.92001 0.0
C3782 C 0.24902 0.06568 0.97561 0.0
C3783 C 0.22446 0.04839 0.97453 0.0
C3784 C 0.26515 0.05982 -0.01027 0.0
C3785 C 0.29153 0.07611 -0.011 0.0
C3786 C 0.30309 0.08512 0.96142 0.0
C3787 C 0.3279 0.10058 0.96084 0.0
C3788 C 0.34141 0.1069 0.98766 0.0
C3789 C 0.33014 0.09776 0.0151 0.0
C3790 C 0.30531 0.08249 0.01585 0.0
C3791 C 0.20881 0.95493 0.01782 0.0
C3792 C 0.20739 0.9538 0.04947 0.0
C3793 C 0.21642 0.97655 0.00267 0.0
C3794 C 0.22318 0.99748 0.01893 0.0
C3795 C 0.22207 0.99646 0.05045 0.0
C3796 C 0.214 0.97486 0.06551 0.0
C3797 C 0.2316 0.02059 0.00332 0.0
C3798 C 0.25617 0.03755 0.00383 0.0
C3799 C 0.2156 0.02598 0.9882 0.0
C3800 C 0.18951 0.0087 0.98688 0.0
C3801 C 0.17626 0.00078 0.01346 0.0
C3802 C 0.15164 0.98436 0.01204 0.0
C3803 C 0.14007 0.97588 0.98414 0.0
C3804 C 0.15307 0.98386 0.95759 0.0
C3805 C 0.1777 0.00027 0.9589 0.0
H3806 H 0.12101 0.96317 0.98309 0.0
H3807 H 0.36062 0.11885 0.98717 0.0
H3808 H 0.90604 0.15663 0.91138 0.0
H3809 H 0.94403 0.18046 0.93835 0.0
H3810 H 0.90777 0.19346 0.00941 0.0
H3811 H 0.86975 0.16985 0.98247 0.0
H3812 H 0.94529 0.23407 -0.00928 0.0
H3813 H 0.93126 0.15816 0.02154 0.0
H3814 H 0.92157 0.11667 0.01572 0.0
H3815 H 0.98383 0.14013 0.96175 0.0
H3816 H 0.99372 0.18177 0.96689 0.0
H3817 H 0.04162 0.28023 0.09915 0.0
H3818 H 0.00385 0.25307 0.07284 0.0
H3819 H 0.04236 0.25996 -0.00824 0.0
H3820 H 0.08032 0.28753 0.01791 0.0
H3821 H 0.00452 0.20962 0.01524 0.0
H3822 H 0.01745 0.28675 0.98585 0.0
H3823 H 0.02675 0.32765 -0.00378 0.0
H3824 H 0.96509 0.30046 0.05224 0.0
H3825 H 0.95566 0.25938 0.04262 0.0
C3826 C 0.90599 0.16422 0.93296 0.0
C3827 C 0.8847 0.16145 0.94454 0.0
C3828 C 0.92779 0.17781 0.94841 0.0
C3829 C 0.92874 0.18875 0.97588 0.0
C3830 C 0.90745 0.18527 0.98813 0.0
C3831 C 0.88564 0.17168 0.97267 0.0
C3832 C 0.95213 0.20507 -0.00927 0.0
C3833 C 0.95809 0.22859 -0.0036 0.0
C3834 C 0.96902 0.19808 -0.00236 0.0
C3835 C 0.96309 0.17306 -0.00567 0.0
C3836 C 0.94276 0.15446 0.00818 0.0
C3837 C 0.93726 0.13092 0.00506 0.0
C3838 C 0.95204 0.12576 0.9883 0.0
C3839 C 0.97238 0.14415 0.97468 0.0
C3840 C 0.97796 0.16773 0.97772 0.0
C3841 C 0.04201 0.27594 0.07571 0.0
C3842 C 0.06377 0.28608 0.0604 0.0
C3843 C 0.02049 0.26052 0.06076 0.0
C3844 C 0.02045 0.25468 0.03046 0.0
C3845 C 0.04217 0.26442 0.01518 0.0
C3846 C 0.06373 0.28028 0.02999 0.0
C3847 C 0.99752 0.23842 0.01496 0.0
C3848 C 0.99167 0.21498 0.00931 0.0
C3849 C 0.9806 0.24536 0.00843 0.0
C3850 C 0.98605 0.27002 0.01387 0.0
C3851 C 0.00602 0.2895 0.00064 0.0
C3852 C 0.01128 0.31271 0.00632 0.0
C3853 C 0.99659 0.31664 0.02502 0.0
C3854 C 0.9765 0.29737 0.03787 0.0
C3855 C 0.97119 0.27413 0.0323 0.0
H3856 H 0.00074 0.3346 0.02956 0.0
H3857 H 0.94775 0.10752 0.98593 0.0
H3858 H 0.19191 0.23745 0.56732 0.0
H3859 H 0.20841 0.21656 0.54105 0.0
H3860 H 0.25399 0.28001 0.4903 0.0
H3861 H 0.23708 0.30094 0.51609 0.0
H3862 H 0.23849 0.24354 0.45439 0.0
H3863 H 0.27665 0.26156 0.55093 0.0
H3864 H 0.27959 0.264 0.60645 0.0
H3865 H 0.23689 0.18782 0.61217 0.0
H3866 H 0.23354 0.18494 0.55666 0.0
H3867 H 0.30797 0.19288 0.40393 0.0
H3868 H 0.29423 0.21821 0.42515 0.0
H3869 H 0.24578 0.16039 0.48232 0.0
H3870 H 0.26039 0.13556 0.46228 0.0
H3871 H 0.26695 0.19819 0.51451 0.0
H3872 H 0.22888 0.18267 0.41401 0.0
H3873 H 0.22994 0.18351 0.35842 0.0
H3874 H 0.27773 0.25928 0.36049 0.0
H3875 H 0.2771 0.25884 0.41609 0.0
C3876 C 0.20533 0.247 0.55045 0.0
C3877 C 0.21307 0.27096 0.54392 0.0
C3878 C 0.21495 0.23503 0.53553 0.0
C3879 C 0.23291 0.24673 0.51399 0.0
C3880 C 0.24024 0.27049 0.50682 0.0
C3881 C 0.23047 0.28246 0.5216 0.0
C3882 C 0.24396 0.23411 0.49924 0.0
C3883 C 0.24494 0.23384 0.4676 0.0
C3884 C 0.25261 0.22147 0.51622 0.0
C3885 C 0.25469 0.22305 0.54963 0.0
C3886 C 0.26778 0.24534 0.56403 0.0
C3887 C 0.26954 0.2468 0.59549 0.0
C3888 C 0.25837 0.22609 0.61283 0.0
C3889 C 0.24548 0.20386 0.59872 0.0
C3890 C 0.24369 0.20229 0.56725 0.0
C3891 C 0.294 0.1854 0.42053 0.0
C3892 C 0.28509 0.16204 0.43112 0.0
C3893 C 0.28611 0.19996 0.43275 0.0
C3894 C 0.26862 0.19129 0.45526 0.0
C3895 C 0.25928 0.1677 0.46512 0.0
C3896 C 0.26751 0.15337 0.45341 0.0
C3897 C 0.26054 0.20674 0.46956 0.0
C3898 C 0.26037 0.20776 0.50124 0.0
C3899 C 0.25311 0.22043 0.45259 0.0
C3900 C 0.25304 0.22069 0.41918 0.0
C3901 C 0.23965 0.19948 0.40259 0.0
C3902 C 0.24018 0.1999 0.37109 0.0
C3903 C 0.25392 0.22143 0.35594 0.0
C3904 C 0.26709 0.24261 0.37225 0.0
C3905 C 0.26662 0.2423 0.40374 0.0
H3906 H 0.25433 0.2217 0.33156 0.0
H3907 H 0.25974 0.22726 0.63718 0.0
H3908 H 0.81296 0.12677 0.39528 0.0
H3909 H 0.79001 0.0854 0.41342 0.0
H3910 H 0.84672 0.10009 0.47757 0.0
H3911 H 0.86934 0.14118 0.46 0.0
H3912 H 0.82758 0.05538 0.44955 0.0
H3913 H 0.80067 0.10262 0.50059 0.0
H3914 H 0.78375 0.12881 0.50274 0.0
H3915 H 0.71989 0.07583 0.45671 0.0
H3916 H 0.73662 0.04946 0.45391 0.0
H3917 H 0.77694 0.97116 0.56674 0.0
H3918 H 0.79693 0.00629 0.53478 0.0
H3919 H 0.72967 0.98611 0.48984 0.0
H3920 H 0.70936 0.9514 0.52256 0.0
H3921 H 0.75153 0.03118 0.50134 0.0
H3922 H 0.77589 0.9818 0.455 0.0
H3923 H 0.79239 0.95528 0.45226 0.0
H3924 H 0.86008 0.01106 0.48711 0.0
H3925 H 0.84388 0.03783 0.49048 0.0
C3926 C 0.8207 0.12096 0.41275 0.0
C3927 C 0.84295 0.13722 0.42619 0.0
C3928 C 0.80753 0.0974 0.42327 0.0
C3929 C 0.81658 0.08966 0.44705 0.0
C3930 C 0.83935 0.10557 0.45924 0.0
C3931 C 0.85226 0.1291 0.44916 0.0
C3932 C 0.80202 0.06559 0.46076 0.0
C3933 C 0.81097 0.05007 0.46094 0.0
C3934 C 0.78005 0.05839 0.47503 0.0
C3935 C 0.77002 0.07423 0.47667 0.0
C3936 C 0.78312 0.09667 0.49066 0.0
C3937 C 0.77355 0.11152 0.49205 0.0
C3938 C 0.7508 0.10404 0.47976 0.0
C3939 C 0.73754 0.08164 0.46614 0.0
C3940 C 0.74706 0.06673 0.46464 0.0
C3941 C 0.76636 0.97397 0.54987 0.0
C3942 C 0.74147 0.95812 0.54717 0.0
C3943 C 0.7779 0.99411 0.5314 0.0
C3944 C 0.76498 0.99883 0.5094 0.0
C3945 C 0.74016 0.98293 0.50647 0.0
C3946 C 0.72855 0.96288 0.52512 0.0
C3947 C 0.77719 0.02088 0.49054 0.0
C3948 C 0.76787 0.03614 0.48951 0.0
C3949 C 0.79875 0.02775 0.47526 0.0
C3950 C 0.8086 0.01176 0.47321 0.0
C3951 C 0.79424 0.98836 0.46229 0.0
C3952 C 0.80355 0.97329 0.46059 0.0
C3953 C 0.82726 0.98146 0.46956 0.0
C3954 C 0.84172 0.00475 0.48019 0.0
C3955 C 0.83249 0.01989 0.48197 0.0
H3956 H 0.83443 0.96977 0.46823 0.0
H3957 H 0.74341 0.11556 0.48088 0.0
H3958 H 0.06096 0.8235 0.57465 0.0
H3959 H 0.02096 0.80589 0.55221 0.0
H3960 H 0.03113 0.75382 0.50642 0.0
H3961 H 0.07154 0.77164 0.52851 0.0
H3962 H 0.00884 0.76901 0.47039 0.0
H3963 H 0.99764 0.73801 0.56891 0.0
H3964 H 0.00292 0.73861 0.62415 0.0
H3965 H 0.97025 0.78104 0.63296 0.0
H3966 H 0.96503 0.78097 0.57771 0.0
H3967 H 0.86977 0.70107 0.47889 0.0
H3968 H 0.90797 0.71234 0.50407 0.0
H3969 H 0.94232 0.7771 0.45204 0.0
H3970 H 0.90433 0.76556 0.42651 0.0
H3971 H 0.94066 0.74765 0.53779 0.0
H3972 H 0.99529 0.78835 0.42827 0.0
H3973 H 0.98923 0.78217 0.37327 0.0
H3974 H 0.93319 0.7098 0.38708 0.0
H3975 H 0.9391 0.71545 0.44213 0.0
C3976 C 0.05483 0.80842 0.55962 0.0
C3977 C 0.06941 0.79888 0.55353 0.0
C3978 C 0.03187 0.79828 0.54697 0.0
C3979 C 0.02287 0.77821 0.52823 0.0
C3980 C 0.03769 0.7692 0.52103 0.0
C3981 C 0.0608 0.77945 0.53359 0.0
C3982 C 0.99792 0.76679 0.51638 0.0
C3983 C 0.99393 0.76426 0.48511 0.0
C3984 C 0.97832 0.75974 0.53573 0.0
C3985 C 0.98112 0.75964 0.56908 0.0
C3986 C 0.99172 0.74761 0.58259 0.0
C3987 C 0.99469 0.74784 0.61391 0.0
C3988 C 0.98704 0.75996 0.63204 0.0
C3989 C 0.97625 0.77174 0.61888 0.0
C3990 C 0.97322 0.77156 0.58755 0.0
C3991 C 0.88532 0.71782 0.47327 0.0
C3992 C 0.88403 0.73216 0.4505 0.0
C3993 C 0.9072 0.72426 0.48759 0.0
C3994 C 0.92812 0.74527 0.47936 0.0
C3995 C 0.92652 0.76048 0.45816 0.0
C3996 C 0.90476 0.7539 0.44368 0.0
C3997 C 0.95184 0.75097 0.49174 0.0
C3998 C 0.95556 0.75228 0.5231 0.0
C3999 C 0.97103 0.75601 0.47253 0.0
C4000 C 0.96755 0.7524 0.43937 0.0
C4001 C 0.98176 0.77109 0.41958 0.0
C4002 C 0.97833 0.76768 0.38839 0.0
C4003 C 0.96081 0.74563 0.37669 0.0
C4004 C 0.94671 0.7269 0.39617 0.0
C4005 C 0.95007 0.73021 0.42737 0.0
H4006 H 0.95819 0.74303 0.35255 0.0
H4007 H 0.98936 0.76012 0.65629 0.0
H4008 H 0.81154 0.62008 0.33298 0.0
H4009 H 0.8379 0.60536 0.31797 0.0
H4010 H 0.88595 0.64337 0.39224 0.0
H4011 H 0.85942 0.6576 0.40786 0.0
H4012 H 0.90783 0.65145 0.33292 0.0
H4013 H 0.85545 0.58747 0.39892 0.0
H4014 H 0.81623 0.55564 0.41673 0.0
H4015 H 0.80177 0.5203 0.33108 0.0
H4016 H 0.84079 0.55213 0.31261 0.0
H4017 H 0.9705 0.58243 0.34806 0.0
H4018 H 0.94515 0.59904 0.35954 0.0
H4019 H 0.91987 0.58826 0.26723 0.0
H4020 H 0.94619 0.57281 0.2552 0.0
H4021 H 0.88621 0.56687 0.33306 0.0
H4022 H 0.93553 0.63088 0.26483 0.0
H4023 H 0.97131 0.66487 0.24292 0.0
H4024 H 0.98878 0.70153 0.32789 0.0
H4025 H 0.95355 0.66728 0.35064 0.0
C4026 C 0.8276 0.62508 0.34628 0.0
C4027 C 0.83334 0.63997 0.37164 0.0
C4028 C 0.84261 0.61665 0.33769 0.0
C4029 C 0.86391 0.62328 0.35394 0.0
C4030 C 0.86961 0.638 0.37938 0.0
C4031 C 0.85435 0.64601 0.38837 0.0
C4032 C 0.88069 0.61562 0.34375 0.0
C4033 C 0.90322 0.63298 0.33327 0.0
C4034 C 0.87436 0.59145 0.34321 0.0
C4035 C 0.85093 0.57231 0.35429 0.0
C4036 C 0.84381 0.57303 0.38379 0.0
C4037 C 0.82164 0.55496 0.39402 0.0
C4038 C 0.80649 0.53599 0.37502 0.0
C4039 C 0.81351 0.53502 0.34576 0.0
C4040 C 0.83566 0.55306 0.3354 0.0
C4041 C 0.95983 0.58394 0.33008 0.0
C4042 C 0.96035 0.57626 0.30069 0.0
C4043 C 0.94542 0.59354 0.33666 0.0
C4044 C 0.93086 0.59526 0.31417 0.0
C4045 C 0.93136 0.58765 0.2848 0.0
C4046 C 0.94632 0.5787 0.27798 0.0
C4047 C 0.9135 0.60276 0.32232 0.0
C4048 C 0.89086 0.58535 0.33264 0.0
C4049 C 0.91957 0.62688 0.32221 0.0
C4050 C 0.94226 0.64617 0.30966 0.0
C4051 C 0.94744 0.64579 0.27914 0.0
C4052 C 0.96749 0.66524 0.26647 0.0
C4053 C 0.98228 0.68537 0.28398 0.0
C4054 C 0.97726 0.68595 0.31433 0.0
C4055 C 0.95738 0.66643 0.32718 0.0
H4056 H 0.99767 0.7005 0.27405 0.0
H4057 H 0.78933 0.52201 0.383 0.0
H4058 H 0.49278 0.41029 0.30914 0.0
H4059 H 0.47768 0.36775 0.31685 0.0
H4060 H 0.40722 0.35131 0.28698 0.0
H4061 H 0.42242 0.39394 0.279 0.0
H4062 H 0.41066 0.3309 0.34541 0.0
H4063 H 0.43476 0.33978 0.24279 0.0
H4064 H 0.46163 0.35583 0.19954 0.0
H4065 H 0.50791 0.33399 0.23969 0.0
H4066 H 0.48161 0.31808 0.28353 0.0
H4067 H 0.37251 0.20241 0.31998 0.0
H4068 H 0.38812 0.24203 0.29898 0.0
H4069 H 0.43255 0.27269 0.37843 0.0
H4070 H 0.41731 0.23299 0.39958 0.0
H4071 H 0.43861 0.28403 0.29022 0.0
H4072 H 0.41862 0.3118 0.4009 0.0
H4073 H 0.39193 0.29342 0.44418 0.0
H4074 H 0.33711 0.24149 0.38525 0.0
H4075 H 0.36351 0.25956 0.34169 0.0
C4076 C 0.47417 0.39752 0.30378 0.0
C4077 C 0.45878 0.40517 0.29293 0.0
C4078 C 0.46559 0.37332 0.30822 0.0
C4079 C 0.44139 0.35649 0.30242 0.0
C4080 C 0.42597 0.36408 0.29147 0.0
C4081 C 0.43469 0.38829 0.28652 0.0
C4082 C 0.43217 0.33108 0.30889 0.0
C4083 C 0.41666 0.32065 0.33316 0.0
C4084 C 0.44008 0.31778 0.29292 0.0
C4085 C 0.45627 0.32793 0.26678 0.0
C4086 C 0.4509 0.3388 0.2428 0.0
C4087 C 0.46597 0.34777 0.21806 0.0
C4088 C 0.48649 0.34606 0.21695 0.0
C4089 C 0.492 0.33533 0.24059 0.0
C4090 C 0.47698 0.32627 0.26537 0.0
C4091 C 0.38592 0.21735 0.33284 0.0
C4092 C 0.39344 0.21429 0.36165 0.0
C4093 C 0.39493 0.24009 0.32065 0.0
C4094 C 0.41134 0.2602 0.33726 0.0
C4095 C 0.41986 0.25729 0.36529 0.0
C4096 C 0.41113 0.23454 0.37729 0.0
C4097 C 0.41763 0.28425 0.32693 0.0
C4098 C 0.43258 0.29438 0.30216 0.0
C4099 C 0.40928 0.29736 0.34231 0.0
C4100 C 0.393 0.28702 0.36814 0.0
C4101 C 0.40083 0.29653 0.39722 0.0
C4102 C 0.3858 0.28609 0.42179 0.0
C4103 C 0.36285 0.26629 0.41747 0.0
C4104 C 0.35489 0.25683 0.38857 0.0
C4105 C 0.36989 0.26712 0.36396 0.0
H4106 H 0.35122 0.25828 0.43649 0.0
H4107 H 0.49807 0.35296 0.19771 0.0
H4108 H 0.61082 0.03326 0.24273 0.0
H4109 H 0.65078 0.0575 0.26527 0.0
H4110 H 0.63805 0.11581 0.27532 0.0
H4111 H 0.59891 0.09209 0.25009 0.0
H4112 H 0.67841 0.13345 0.25546 0.0
H4113 H 0.64229 0.07827 0.33732 0.0
H4114 H 0.62016 0.03882 0.36151 0.0
H4115 H 0.67338 0.02301 0.33341 0.0
H4116 H 0.69572 0.06225 0.30879 0.0
H4117 H 0.77174 0.19971 0.36398 0.0
H4118 H 0.73389 0.17464 0.33676 0.0
H4119 H 0.76205 0.13302 0.30065 0.0
H4120 H 0.80029 0.15844 0.3277 0.0
H4121 H 0.71611 0.1064 0.33176 0.0
H4122 H 0.75272 0.16415 0.25233 0.0
H4123 H 0.77442 0.20474 0.2313 0.0
H4124 H 0.71893 0.21691 0.26048 0.0
H4125 H 0.69699 0.17646 0.28189 0.0
C4126 C 0.61644 0.0511 0.25038 0.0
C4127 C 0.6018 0.06081 0.24495 0.0
C4128 C 0.63931 0.06499 0.26345 0.0
C4129 C 0.64765 0.0886 0.27257 0.0
C4130 C 0.63233 0.09779 0.26841 0.0
C4131 C 0.60984 0.08419 0.25428 0.0
C4132 C 0.6728 0.1043 0.28426 0.0
C4133 C 0.68635 0.12748 0.27252 0.0
C4134 C 0.68383 0.09661 0.30589 0.0
C4135 C 0.67053 0.0731 0.32092 0.0
C4136 C 0.64919 0.06632 0.33614 0.0
C4137 C 0.63663 0.04401 0.34995 0.0
C4138 C 0.64531 0.02841 0.34887 0.0
C4139 C 0.66665 0.03511 0.33416 0.0
C4140 C 0.67929 0.05739 0.32031 0.0
C4141 C 0.77008 0.1856 0.3496 0.0
C4142 C 0.78903 0.18116 0.34767 0.0
C4143 C 0.74843 0.17125 0.33414 0.0
C4144 C 0.74511 0.15193 0.31675 0.0
C4145 C 0.76426 0.14787 0.31394 0.0
C4146 C 0.78618 0.16256 0.32905 0.0
C4147 C 0.7211 0.1353 0.30328 0.0
C4148 C 0.70791 0.11208 0.31467 0.0
C4149 C 0.71018 0.14305 0.28187 0.0
C4150 C 0.7233 0.16734 0.26887 0.0
C4151 C 0.74523 0.17554 0.25443 0.0
C4152 C 0.75755 0.19851 0.24239 0.0
C4153 C 0.74809 0.21341 0.24461 0.0
C4154 C 0.72624 0.20536 0.25878 0.0
C4155 C 0.71383 0.18239 0.27081 0.0
H4156 H 0.75766 0.23119 0.2353 0.0
H4157 H 0.63552 0.01114 0.35946 0.0
loop_
_geom_bond_atom_site_label_1
_geom_bond_atom_site_label_2
_geom_bond_distance
_geom_bond_site_symmetry_2
_ccdc_geom_bond_type
C0 O12 1.241 1_655 S
C0 O13 1.280 . S
C1 O14 1.277 . S
C1 O15 1.245 . S
C2 O26 1.247 . S
C2 O28 1.289 . S
Mg3 O4 1.926 . S
Mg3 O13 1.984 . S
Mg3 O15 1.988 . S
Mg3 O16 2.061 . S
O4 Mg3 1.926 . S
O4 Mg5 1.986 1_655 S
O4 Mg6 1.917 1_655 S
Mg5 O4 1.986 1_455 S
Mg5 O12 2.042 . S
Mg5 O14 2.041 1_455 S
Mg5 O20 2.038 . S
Mg5 O28 2.238 . S
Mg6 O4 1.917 1_455 S
Mg6 O7 1.917 . S
Mg6 O17 2.106 1_455 S
Mg6 O19 2.079 . S
Mg6 O28 2.106 . S
Mg6 O29 2.079 1_455 S
O7 Mg6 1.917 . S
O7 Mg8 1.926 . S
O7 Mg9 1.986 1_455 S
Mg8 O7 1.926 . S
Mg8 O22 1.984 . S
Mg8 O25 1.988 . S
Mg8 O26 2.061 . S
Mg9 O7 1.986 1_655 S
Mg9 O17 2.238 . S
Mg9 O21 2.042 1_655 S
Mg9 O23 2.041 1_655 S
Mg9 O30 2.038 . S
C10 O16 1.247 . S
C10 O17 1.289 . S
C11 O29 1.245 . S
C11 O30 1.274 . S
O12 C0 1.241 1_455 S
O12 Mg5 2.042 . S
O13 C0 1.280 . S
O13 Mg3 1.984 . S
O14 C1 1.277 . S
O14 Mg5 2.041 1_655 S
O15 C1 1.245 . S
O15 Mg3 1.988 . S
O16 Mg3 2.061 . S
O16 C10 1.247 . S
O17 Mg6 2.106 1_655 S
O17 Mg9 2.238 . S
O17 C10 1.289 . S
C18 O19 1.245 . S
C18 O20 1.274 . S
O19 Mg6 2.079 . S
O19 C18 1.245 . S
O20 Mg5 2.038 . S
O20 C18 1.274 . S
O21 Mg9 2.042 1_455 S
O21 C24 1.241 . S
O22 Mg8 1.984 . S
O22 C24 1.280 . S
O23 Mg9 2.041 1_455 S
O23 C27 1.277 . S
C24 O21 1.241 . S
C24 O22 1.280 . S
O25 Mg8 1.988 . S
O25 C27 1.245 . S
O26 C2 1.247 . S
O26 Mg8 2.061 . S
C27 O23 1.277 . S
C27 O25 1.245 . S
O28 C2 1.289 . S
O28 Mg5 2.238 . S
O28 Mg6 2.106 . S
O29 Mg6 2.079 1_655 S
O29 C11 1.245 . S
O30 Mg9 2.038 . S
O30 C11 1.274 . S
C31 O43 1.241 . S
C31 O44 1.280 . S
C32 O45 1.277 . S
C32 O46 1.245 . S
C33 O57 1.247 . S
C33 O59 1.289 . S
Mg34 O35 1.926 . S
Mg34 O44 1.984 . S
Mg34 O46 1.988 . S
Mg34 O47 2.061 . S
O35 Mg34 1.926 . S
O35 Mg36 1.986 . S
O35 Mg37 1.917 . S
Mg36 O35 1.986 . S
Mg36 O43 2.042 . S
Mg36 O45 2.041 . S
Mg36 O51 2.038 . S
Mg36 O59 2.238 . S
Mg37 O35 1.917 . S
Mg37 O38 1.917 . S
Mg37 O48 2.106 . S
Mg37 O50 2.079 . S
Mg37 O59 2.106 . S
Mg37 O60 2.079 . S
O38 Mg37 1.917 . S
O38 Mg39 1.926 . S
O38 Mg40 1.986 . S
Mg39 O38 1.926 . S
Mg39 O53 1.984 . S
Mg39 O56 1.988 . S
Mg39 O57 2.061 . S
Mg40 O38 1.986 . S
Mg40 O48 2.238 . S
Mg40 O52 2.042 . S
Mg40 O54 2.041 . S
Mg40 O61 2.038 . S
C41 O47 1.247 . S
C41 O48 1.289 . S
C42 O60 1.245 . S
C42 O61 1.274 . S
O43 C31 1.241 . S
O43 Mg36 2.042 . S
O44 C31 1.280 . S
O44 Mg34 1.984 . S
O45 C32 1.277 . S
O45 Mg36 2.041 . S
O46 C32 1.245 . S
O46 Mg34 1.988 . S
O47 Mg34 2.061 . S
O47 C41 1.247 . S
O48 Mg37 2.106 . S
O48 Mg40 2.238 . S
O48 C41 1.289 . S
C49 O50 1.245 . S
C49 O51 1.274 . S
O50 Mg37 2.079 . S
O50 C49 1.245 . S
O51 Mg36 2.038 . S
O51 C49 1.274 . S
O52 Mg40 2.042 . S
O52 C55 1.241 . S
O53 Mg39 1.984 . S
O53 C55 1.280 . S
O54 Mg40 2.041 . S
O54 C58 1.277 . S
C55 O52 1.241 . S
C55 O53 1.280 . S
O56 Mg39 1.988 . S
O56 C58 1.245 . S
O57 C33 1.247 . S
O57 Mg39 2.061 . S
C58 O54 1.277 . S
C58 O56 1.245 . S
O59 C33 1.289 . S
O59 Mg36 2.238 . S
O59 Mg37 2.106 . S
O60 Mg37 2.079 . S
O60 C42 1.245 . S
O61 Mg40 2.038 . S
O61 C42 1.274 . S
C62 O74 1.238 1_565 S
C62 O75 1.280 . S
C63 O76 1.277 . S
C63 O77 1.245 . S
C64 O88 1.247 . S
C64 O90 1.289 . S
Mg65 O66 1.926 . S
Mg65 O75 1.984 . S
Mg65 O77 1.988 . S
Mg65 O78 2.061 . S
O66 Mg65 1.926 . S
O66 Mg67 1.986 1_565 S
O66 Mg68 1.913 1_565 S
Mg67 O66 1.986 1_545 S
Mg67 O74 2.042 . S
Mg67 O76 2.041 1_545 S
Mg67 O82 2.038 . S
Mg67 O90 2.238 . S
Mg68 O66 1.913 1_545 S
Mg68 O69 1.921 . S
Mg68 O79 2.101 1_545 S
Mg68 O81 2.097 . S
Mg68 O90 2.111 . S
Mg68 O91 2.060 1_545 S
O69 Mg68 1.921 . S
O69 Mg70 1.926 . S
O69 Mg71 1.986 1_545 S
Mg70 O69 1.926 . S
Mg70 O84 1.984 . S
Mg70 O87 1.988 . S
Mg70 O88 2.061 . S
Mg71 O69 1.986 1_565 S
Mg71 O79 2.238 . S
Mg71 O83 2.043 1_565 S
Mg71 O85 2.041 1_565 S
Mg71 O92 2.038 . S
C72 O78 1.247 . S
C72 O79 1.289 . S
C73 O91 1.245 . S
C73 O92 1.274 . S
O74 C62 1.238 1_545 S
O74 Mg67 2.042 . S
O75 C62 1.280 . S
O75 Mg65 1.984 . S
O76 C63 1.277 . S
O76 Mg67 2.041 1_565 S
O77 C63 1.245 . S
O77 Mg65 1.988 . S
O78 Mg65 2.061 . S
O78 C72 1.247 . S
O79 Mg68 2.101 1_565 S
O79 Mg71 2.238 . S
O79 C72 1.289 . S
C80 O81 1.245 . S
C80 O82 1.274 . S
O81 Mg68 2.097 . S
O81 C80 1.245 . S
O82 Mg67 2.038 . S
O82 C80 1.274 . S
O83 Mg71 2.043 1_545 S
O83 C86 1.254 . S
O84 Mg70 1.984 . S
O84 C86 1.280 . S
O85 Mg71 2.041 1_545 S
O85 C89 1.277 . S
C86 O83 1.254 . S
C86 O84 1.280 . S
O87 Mg70 1.988 . S
O87 C89 1.245 . S
O88 C64 1.247 . S
O88 Mg70 2.061 . S
C89 O85 1.277 . S
C89 O87 1.245 . S
O90 C64 1.289 . S
O90 Mg67 2.238 . S
O90 Mg68 2.111 . S
O91 Mg68 2.060 1_565 S
O91 C73 1.245 . S
O92 Mg71 2.038 . S
O92 C73 1.274 . S
C93 O105 1.241 1_655 S
C93 O106 1.280 . S
C94 O107 1.277 1_655 S
C94 O108 1.245 . S
C95 O119 1.247 . S
C95 O121 1.289 . S
Mg96 O97 1.965 . S
Mg96 O106 1.984 . S
Mg96 O108 1.988 . S
Mg96 O109 2.061 . S
O97 Mg96 1.965 . S
O97 Mg98 1.962 1_655 S
O97 Mg99 1.909 1_655 S
Mg98 O97 1.962 1_455 S
Mg98 O105 2.042 . S
Mg98 O107 2.041 . S
Mg98 O113 2.038 . S
Mg98 O121 2.238 . S
Mg99 O97 1.909 1_455 S
Mg99 O100 1.917 . S
Mg99 O110 2.106 1_455 S
Mg99 O112 2.079 . S
Mg99 O121 2.106 . S
Mg99 O122 2.079 1_455 S
O100 Mg99 1.917 . S
O100 Mg101 1.926 . S
O100 Mg102 1.972 1_455 S
Mg101 O100 1.926 . S
Mg101 O115 1.984 . S
Mg101 O118 1.988 . S
Mg101 O119 2.061 . S
Mg102 O100 1.972 1_655 S
Mg102 O110 2.236 . S
Mg102 O114 2.043 1_655 S
Mg102 O116 2.017 1_655 S
Mg102 O123 2.062 . S
C103 O109 1.247 . S
C103 O110 1.289 . S
C104 O122 1.245 . S
C104 O123 1.274 . S
O105 C93 1.241 1_455 S
O105 Mg98 2.042 . S
O106 C93 1.280 . S
O106 Mg96 1.984 . S
O107 C94 1.277 1_455 S
O107 Mg98 2.041 . S
O108 C94 1.245 . S
O108 Mg96 1.988 . S
O109 Mg96 2.061 . S
O109 C103 1.247 . S
O110 Mg99 2.106 1_655 S
O110 Mg102 2.236 . S
O110 C103 1.289 . S
C111 O112 1.245 . S
C111 O113 1.274 . S
O112 Mg99 2.079 . S
O112 C111 1.245 . S
O113 Mg98 2.038 . S
O113 C111 1.274 . S
O114 Mg102 2.043 1_455 S
O114 C117 1.241 . S
O115 Mg101 1.984 . S
O115 C117 1.280 . S
O116 Mg102 2.017 1_455 S
O116 C120 1.277 . S
C117 O114 1.241 . S
C117 O115 1.280 . S
O118 Mg101 1.988 . S
O118 C120 1.245 . S
O119 C95 1.247 . S
O119 Mg101 2.061 . S
C120 O116 1.277 . S
C120 O118 1.245 . S
O121 C95 1.289 . S
O121 Mg98 2.238 . S
O121 Mg99 2.106 . S
O122 Mg99 2.079 1_655 S
O122 C104 1.245 . S
O123 Mg102 2.062 . S
O123 C104 1.274 . S
C124 O136 1.241 . S
C124 O137 1.280 . S
C125 O138 1.277 . S
C125 O139 1.245 . S
C126 O150 1.247 . S
C126 O152 1.289 . S
Mg127 O128 1.926 . S
Mg127 O137 1.984 . S
Mg127 O139 1.988 . S
Mg127 O140 2.061 . S
O128 Mg127 1.926 . S
O128 Mg129 1.986 . S
O128 Mg130 1.917 . S
Mg129 O128 1.986 . S
Mg129 O136 2.042 . S
Mg129 O138 2.041 . S
Mg129 O144 2.038 . S
Mg129 O152 2.238 . S
Mg130 O128 1.917 . S
Mg130 O131 1.917 . S
Mg130 O141 2.106 . S
Mg130 O143 2.079 . S
Mg130 O152 2.106 . S
Mg130 O153 2.079 . S
O131 Mg130 1.917 . S
O131 Mg132 1.926 . S
O131 Mg133 1.986 . S
Mg132 O131 1.926 . S
Mg132 O146 1.984 . S
Mg132 O149 1.988 . S
Mg132 O150 2.061 . S
Mg133 O131 1.986 . S
Mg133 O141 2.238 . S
Mg133 O145 2.042 . S
Mg133 O147 2.041 . S
Mg133 O154 2.038 . S
C134 O140 1.247 . S
C134 O141 1.289 . S
C135 O153 1.245 . S
C135 O154 1.274 . S
O136 C124 1.241 . S
O136 Mg129 2.042 . S
O137 C124 1.280 . S
O137 Mg127 1.984 . S
O138 C125 1.277 . S
O138 Mg129 2.041 . S
O139 C125 1.245 . S
O139 Mg127 1.988 . S
O140 Mg127 2.061 . S
O140 C134 1.247 . S
O141 Mg130 2.106 . S
O141 Mg133 2.238 . S
O141 C134 1.289 . S
C142 O143 1.245 . S
C142 O144 1.274 . S
O143 Mg130 2.079 . S
O143 C142 1.245 . S
O144 Mg129 2.038 . S
O144 C142 1.274 . S
O145 Mg133 2.042 . S
O145 C148 1.241 . S
O146 Mg132 1.984 . S
O146 C148 1.280 . S
O147 Mg133 2.041 . S
O147 C151 1.277 . S
C148 O145 1.241 . S
C148 O146 1.280 . S
O149 Mg132 1.988 . S
O149 C151 1.245 . S
O150 C126 1.247 . S
O150 Mg132 2.061 . S
C151 O147 1.277 . S
C151 O149 1.245 . S
O152 C126 1.289 . S
O152 Mg129 2.238 . S
O152 Mg130 2.106 . S
O153 Mg130 2.079 . S
O153 C135 1.245 . S
O154 Mg133 2.038 . S
O154 C135 1.274 . S
C155 O167 1.241 1_565 S
C155 O168 1.280 . S
C156 O169 1.277 1_565 S
C156 O170 1.245 . S
C157 O181 1.247 . S
C157 O183 1.289 . S
Mg158 O159 1.926 . S
Mg158 O168 1.984 . S
Mg158 O170 1.988 . S
Mg158 O171 2.061 . S
O159 Mg158 1.926 . S
O159 Mg160 1.986 1_565 S
O159 Mg161 1.917 1_565 S
Mg160 O159 1.986 1_545 S
Mg160 O167 2.042 . S
Mg160 O169 2.041 . S
Mg160 O175 2.038 . S
Mg160 O183 2.238 . S
Mg161 O159 1.917 1_545 S
Mg161 O162 1.917 . S
Mg161 O172 2.106 1_545 S
Mg161 O174 2.079 . S
Mg161 O183 2.106 . S
Mg161 O184 2.079 1_545 S
O162 Mg161 1.917 . S
O162 Mg163 1.926 . S
O162 Mg164 1.986 1_545 S
Mg163 O162 1.926 . S
Mg163 O177 1.984 . S
Mg163 O180 1.988 . S
Mg163 O181 2.061 . S
Mg164 O162 1.986 1_565 S
Mg164 O172 2.238 . S
Mg164 O176 2.042 1_565 S
Mg164 O178 2.041 1_565 S
Mg164 O185 2.038 . S
C165 O171 1.247 . S
C165 O172 1.289 . S
C166 O184 1.245 . S
C166 O185 1.274 . S
O167 C155 1.241 1_545 S
O167 Mg160 2.042 . S
O168 C155 1.280 . S
O168 Mg158 1.984 . S
O169 C156 1.277 1_545 S
O169 Mg160 2.041 . S
O170 C156 1.245 . S
O170 Mg158 1.988 . S
O171 Mg158 2.061 . S
O171 C165 1.247 . S
O172 Mg161 2.106 1_565 S
O172 Mg164 2.238 . S
O172 C165 1.289 . S
C173 O174 1.245 . S
C173 O175 1.274 . S
O174 Mg161 2.079 . S
O174 C173 1.245 . S
O175 Mg160 2.038 . S
O175 C173 1.274 . S
O176 Mg164 2.042 1_545 S
O176 C179 1.241 . S
O177 Mg163 1.984 . S
O177 C179 1.280 . S
O178 Mg164 2.041 1_545 S
O178 C182 1.277 . S
C179 O176 1.241 . S
C179 O177 1.280 . S
O180 Mg163 1.988 . S
O180 C182 1.245 . S
O181 C157 1.247 . S
O181 Mg163 2.061 . S
C182 O178 1.277 . S
C182 O180 1.245 . S
O183 C157 1.289 . S
O183 Mg160 2.238 . S
O183 Mg161 2.106 . S
O184 Mg161 2.079 1_565 S
O184 C166 1.245 . S
O185 Mg164 2.038 . S
O185 C166 1.274 . S
C186 O198 1.241 . S
C186 O199 1.280 . S
C187 O200 1.277 . S
C187 O201 1.245 . S
C188 O212 1.247 . S
C188 O214 1.289 . S
Mg189 O190 1.926 . S
Mg189 O199 1.984 . S
Mg189 O201 1.988 . S
Mg189 O202 2.061 . S
O190 Mg189 1.926 . S
O190 Mg191 1.986 . S
O190 Mg192 1.917 . S
Mg191 O190 1.986 . S
Mg191 O198 2.042 . S
Mg191 O200 2.041 . S
Mg191 O206 2.038 . S
Mg191 O214 2.238 . S
Mg192 O190 1.917 . S
Mg192 O193 1.917 . S
Mg192 O203 2.106 . S
Mg192 O205 2.079 . S
Mg192 O214 2.106 . S
Mg192 O215 2.079 . S
O193 Mg192 1.917 . S
O193 Mg194 1.926 . S
O193 Mg195 1.986 . S
Mg194 O193 1.926 . S
Mg194 O208 1.984 . S
Mg194 O211 1.988 . S
Mg194 O212 2.061 . S
Mg195 O193 1.986 . S
Mg195 O203 2.238 . S
Mg195 O207 2.042 . S
Mg195 O209 2.041 . S
Mg195 O216 2.038 . S
C196 O202 1.247 . S
C196 O203 1.289 . S
C197 O215 1.245 . S
C197 O216 1.274 . S
O198 C186 1.241 . S
O198 Mg191 2.042 . S
O199 C186 1.280 . S
O199 Mg189 1.984 . S
O200 C187 1.277 . S
O200 Mg191 2.041 . S
O201 C187 1.245 . S
O201 Mg189 1.988 . S
O202 Mg189 2.061 . S
O202 C196 1.247 . S
O203 Mg192 2.106 . S
O203 Mg195 2.238 . S
O203 C196 1.289 . S
C204 O205 1.245 . S
C204 O206 1.274 . S
O205 Mg192 2.079 . S
O205 C204 1.245 . S
O206 Mg191 2.038 . S
O206 C204 1.274 . S
O207 Mg195 2.042 . S
O207 C210 1.241 . S
O208 Mg194 1.984 . S
O208 C210 1.280 . S
O209 Mg195 2.041 . S
O209 C213 1.277 . S
C210 O207 1.241 . S
C210 O208 1.280 . S
O211 Mg194 1.988 . S
O211 C213 1.245 . S
O212 C188 1.247 . S
O212 Mg194 2.061 . S
C213 O209 1.277 . S
C213 O211 1.245 . S
O214 C188 1.289 . S
O214 Mg191 2.238 . S
O214 Mg192 2.106 . S
O215 Mg192 2.079 . S
O215 C197 1.245 . S
O216 Mg195 2.038 . S
O216 C197 1.274 . S
C217 O229 1.241 . S
C217 O230 1.280 . S
C218 O231 1.277 . S
C218 O232 1.245 . S
C219 O243 1.247 . S
C219 O245 1.289 . S
Mg220 O221 1.926 . S
Mg220 O230 1.984 . S
Mg220 O232 1.988 . S
Mg220 O233 2.061 . S
O221 Mg220 1.926 . S
O221 Mg222 1.986 . S
O221 Mg223 1.917 . S
Mg222 O221 1.986 . S
Mg222 O229 2.042 . S
Mg222 O231 2.041 . S
Mg222 O237 2.038 . S
Mg222 O245 2.238 . S
Mg223 O221 1.917 . S
Mg223 O224 1.917 . S
Mg223 O234 2.106 . S
Mg223 O236 2.079 . S
Mg223 O245 2.106 . S
Mg223 O246 2.079 . S
O224 Mg223 1.917 . S
O224 Mg225 1.926 . S
O224 Mg226 1.986 . S
Mg225 O224 1.926 . S
Mg225 O239 1.984 . S
Mg225 O242 1.988 . S
Mg225 O243 2.061 . S
Mg226 O224 1.986 . S
Mg226 O234 2.238 . S
Mg226 O238 2.042 . S
Mg226 O240 2.041 . S
Mg226 O247 2.038 . S
C227 O233 1.247 . S
C227 O234 1.289 . S
C228 O246 1.245 . S
C228 O247 1.274 . S
O229 C217 1.241 . S
O229 Mg222 2.042 . S
O230 C217 1.280 . S
O230 Mg220 1.984 . S
O231 C218 1.277 . S
O231 Mg222 2.041 . S
O232 C218 1.245 . S
O232 Mg220 1.988 . S
O233 Mg220 2.061 . S
O233 C227 1.247 . S
O234 Mg223 2.106 . S
O234 Mg226 2.238 . S
O234 C227 1.289 . S
C235 O236 1.245 . S
C235 O237 1.274 . S
O236 Mg223 2.079 . S
O236 C235 1.245 . S
O237 Mg222 2.038 . S
O237 C235 1.274 . S
O238 Mg226 2.042 . S
O238 C241 1.241 . S
O239 Mg225 1.984 . S
O239 C241 1.280 . S
O240 Mg226 2.041 . S
O240 C244 1.277 . S
C241 O238 1.241 . S
C241 O239 1.280 . S
O242 Mg225 1.988 . S
O242 C244 1.245 . S
O243 C219 1.247 . S
O243 Mg225 2.061 . S
C244 O240 1.277 . S
C244 O242 1.245 . S
O245 C219 1.289 . S
O245 Mg222 2.238 . S
O245 Mg223 2.106 . S
O246 Mg223 2.079 . S
O246 C228 1.245 . S
O247 Mg226 2.038 . S
O247 C228 1.274 . S
C248 O260 1.241 . S
C248 O261 1.280 . S
C249 O262 1.277 . S
C249 O263 1.245 . S
C250 O274 1.247 . S
C250 O276 1.289 . S
Mg251 O252 1.926 . S
Mg251 O261 1.984 . S
Mg251 O263 1.988 . S
Mg251 O264 2.061 . S
O252 Mg251 1.926 . S
O252 Mg253 1.986 . S
O252 Mg254 1.917 . S
Mg253 O252 1.986 . S
Mg253 O260 2.042 . S
Mg253 O262 2.041 . S
Mg253 O268 2.038 . S
Mg253 O276 2.238 . S
Mg254 O252 1.917 . S
Mg254 O255 1.917 . S
Mg254 O265 2.106 . S
Mg254 O267 2.079 . S
Mg254 O276 2.106 . S
Mg254 O277 2.079 . S
O255 Mg254 1.917 . S
O255 Mg256 1.926 . S
O255 Mg257 1.986 . S
Mg256 O255 1.926 . S
Mg256 O270 1.984 . S
Mg256 O273 1.988 . S
Mg256 O274 2.061 . S
Mg257 O255 1.986 . S
Mg257 O265 2.238 . S
Mg257 O269 2.042 . S
Mg257 O271 2.041 . S
Mg257 O278 2.038 . S
C258 O264 1.247 . S
C258 O265 1.289 . S
C259 O277 1.245 . S
C259 O278 1.274 . S
O260 C248 1.241 . S
O260 Mg253 2.042 . S
O261 C248 1.280 . S
O261 Mg251 1.984 . S
O262 C249 1.277 . S
O262 Mg253 2.041 . S
O263 C249 1.245 . S
O263 Mg251 1.988 . S
O264 Mg251 2.061 . S
O264 C258 1.247 . S
O265 Mg254 2.106 . S
O265 Mg257 2.238 . S
O265 C258 1.289 . S
C266 O267 1.245 . S
C266 O268 1.274 . S
O267 Mg254 2.079 . S
O267 C266 1.245 . S
O268 Mg253 2.038 . S
O268 C266 1.274 . S
O269 Mg257 2.042 . S
O269 C272 1.241 . S
O270 Mg256 1.984 . S
O270 C272 1.280 . S
O271 Mg257 2.041 . S
O271 C275 1.277 . S
C272 O269 1.241 . S
C272 O270 1.280 . S
O273 Mg256 1.988 . S
O273 C275 1.245 . S
O274 C250 1.247 . S
O274 Mg256 2.061 . S
C275 O271 1.277 . S
C275 O273 1.245 . S
O276 C250 1.289 . S
O276 Mg253 2.238 . S
O276 Mg254 2.106 . S
O277 Mg254 2.079 . S
O277 C259 1.245 . S
O278 Mg257 2.038 . S
O278 C259 1.274 . S
C279 O291 1.241 . S
C279 O292 1.280 . S
C280 O293 1.277 . S
C280 O294 1.245 . S
C281 O305 1.247 . S
C281 O307 1.289 . S
Mg282 O283 1.926 . S
Mg282 O292 1.984 . S
Mg282 O294 1.988 . S
Mg282 O295 2.061 . S
O283 Mg282 1.926 . S
O283 Mg284 1.986 . S
O283 Mg285 1.917 . S
Mg284 O283 1.986 . S
Mg284 O291 2.042 . S
Mg284 O293 2.041 . S
Mg284 O299 2.038 . S
Mg284 O307 2.238 . S
Mg285 O283 1.917 . S
Mg285 O286 1.917 . S
Mg285 O296 2.106 . S
Mg285 O298 2.079 . S
Mg285 O307 2.106 . S
Mg285 O308 2.079 . S
O286 Mg285 1.917 . S
O286 Mg287 1.926 . S
O286 Mg288 1.986 . S
Mg287 O286 1.926 . S
Mg287 O301 1.984 1_554 S
Mg287 O304 1.988 . S
Mg287 O305 2.061 . S
Mg288 O286 1.986 . S
Mg288 O296 2.238 . S
Mg288 O300 2.042 1_554 S
Mg288 O302 2.041 1_554 S
Mg288 O309 2.038 . S
C289 O295 1.247 . S
C289 O296 1.289 . S
C290 O308 1.245 . S
C290 O309 1.274 . S
O291 C279 1.241 . S
O291 Mg284 2.042 . S
O292 C279 1.280 . S
O292 Mg282 1.984 . S
O293 C280 1.277 . S
O293 Mg284 2.041 . S
O294 C280 1.245 . S
O294 Mg282 1.988 . S
O295 Mg282 2.061 . S
O295 C289 1.247 . S
O296 Mg285 2.106 . S
O296 Mg288 2.238 . S
O296 C289 1.289 . S
C297 O298 1.245 . S
C297 O299 1.274 . S
O298 Mg285 2.079 . S
O298 C297 1.245 . S
O299 Mg284 2.038 . S
O299 C297 1.274 . S
O300 Mg288 2.042 1_556 S
O300 C303 1.241 . S
O301 Mg287 1.984 1_556 S
O301 C303 1.280 . S
O302 Mg288 2.041 1_556 S
O302 C306 1.277 . S
C303 O300 1.241 . S
C303 O301 1.280 . S
O304 Mg287 1.988 . S
O304 C306 1.245 1_554 S
O305 C281 1.247 . S
O305 Mg287 2.061 . S
C306 O302 1.277 . S
C306 O304 1.245 1_556 S
O307 C281 1.289 . S
O307 Mg284 2.238 . S
O307 Mg285 2.106 . S
O308 Mg285 2.079 . S
O308 C290 1.245 . S
O309 Mg288 2.038 . S
O309 C290 1.274 . S
C310 O322 1.241 . S
C310 O323 1.280 . S
C311 O324 1.277 . S
C311 O325 1.245 . S
C312 O336 1.247 . S
C312 O338 1.289 . S
Mg313 O314 1.926 . S
Mg313 O323 1.984 . S
Mg313 O325 1.988 . S
Mg313 O326 2.061 . S
O314 Mg313 1.926 . S
O314 Mg315 1.986 . S
O314 Mg316 1.917 . S
Mg315 O314 1.986 . S
Mg315 O322 2.042 . S
Mg315 O324 2.041 . S
Mg315 O330 2.038 . S
Mg315 O338 2.238 . S
Mg316 O314 1.917 . S
Mg316 O317 1.917 . S
Mg316 O327 2.106 . S
Mg316 O329 2.079 . S
Mg316 O338 2.106 . S
Mg316 O339 2.079 . S
O317 Mg316 1.917 . S
O317 Mg318 1.926 . S
O317 Mg319 1.986 . S
Mg318 O317 1.926 . S
Mg318 O332 1.984 1_554 S
Mg318 O335 1.988 . S
Mg318 O336 2.061 . S
Mg319 O317 1.986 . S
Mg319 O327 2.238 . S
Mg319 O331 2.042 1_554 S
Mg319 O333 2.041 1_554 S
Mg319 O340 2.038 . S
C320 O326 1.247 . S
C320 O327 1.289 . S
C321 O339 1.245 . S
C321 O340 1.274 . S
O322 C310 1.241 . S
O322 Mg315 2.042 . S
O323 C310 1.280 . S
O323 Mg313 1.984 . S
O324 C311 1.277 . S
O324 Mg315 2.041 . S
O325 C311 1.245 . S
O325 Mg313 1.988 . S
O326 Mg313 2.061 . S
O326 C320 1.247 . S
O327 Mg316 2.106 . S
O327 Mg319 2.238 . S
O327 C320 1.289 . S
C328 O329 1.245 . S
C328 O330 1.274 . S
O329 Mg316 2.079 . S
O329 C328 1.245 . S
O330 Mg315 2.038 . S
O330 C328 1.274 . S
O331 Mg319 2.042 1_556 S
O331 C334 1.241 . S
O332 Mg318 1.984 1_556 S
O332 C334 1.280 . S
O333 Mg319 2.041 1_556 S
O333 C337 1.277 . S
C334 O331 1.241 . S
C334 O332 1.280 . S
O335 Mg318 1.988 . S
O335 C337 1.245 1_554 S
O336 C312 1.247 . S
O336 Mg318 2.061 . S
C337 O333 1.277 . S
C337 O335 1.245 1_556 S
O338 C312 1.289 . S
O338 Mg315 2.238 . S
O338 Mg316 2.106 . S
O339 Mg316 2.079 . S
O339 C321 1.245 . S
O340 Mg319 2.038 . S
O340 C321 1.274 . S
C341 O353 1.241 . S
C341 O354 1.280 . S
C342 O355 1.277 . S
C342 O356 1.245 . S
C343 O367 1.247 . S
C343 O369 1.289 . S
Mg344 O345 1.926 . S
Mg344 O354 1.984 . S
Mg344 O356 1.988 . S
Mg344 O357 2.061 . S
O345 Mg344 1.926 . S
O345 Mg346 1.986 . S
O345 Mg347 1.917 . S
Mg346 O345 1.986 . S
Mg346 O353 2.042 . S
Mg346 O355 2.041 . S
Mg346 O361 2.038 . S
Mg346 O369 2.238 . S
Mg347 O345 1.917 . S
Mg347 O348 1.917 . S
Mg347 O358 2.106 . S
Mg347 O360 2.079 . S
Mg347 O369 2.106 . S
Mg347 O370 2.079 . S
O348 Mg347 1.917 . S
O348 Mg349 1.926 . S
O348 Mg350 1.986 . S
Mg349 O348 1.926 . S
Mg349 O363 1.984 1_554 S
Mg349 O366 1.988 . S
Mg349 O367 2.061 . S
Mg350 O348 1.986 . S
Mg350 O358 2.238 . S
Mg350 O362 2.042 1_554 S
Mg350 O364 2.041 1_554 S
Mg350 O371 2.038 . S
C351 O357 1.247 . S
C351 O358 1.289 . S
C352 O370 1.245 . S
C352 O371 1.274 . S
O353 C341 1.241 . S
O353 Mg346 2.042 . S
O354 C341 1.280 . S
O354 Mg344 1.984 . S
O355 C342 1.277 . S
O355 Mg346 2.041 . S
O356 C342 1.245 . S
O356 Mg344 1.988 . S
O357 Mg344 2.061 . S
O357 C351 1.247 . S
O358 Mg347 2.106 . S
O358 Mg350 2.238 . S
O358 C351 1.289 . S
C359 O360 1.245 . S
C359 O361 1.274 . S
O360 Mg347 2.079 . S
O360 C359 1.245 . S
O361 Mg346 2.038 . S
O361 C359 1.274 . S
O362 Mg350 2.042 1_556 S
O362 C365 1.241 . S
O363 Mg349 1.984 1_556 S
O363 C365 1.280 . S
O364 Mg350 2.041 1_556 S
O364 C368 1.277 . S
C365 O362 1.241 . S
C365 O363 1.280 . S
O366 Mg349 1.988 . S
O366 C368 1.245 1_554 S
O367 C343 1.247 . S
O367 Mg349 2.061 . S
C368 O364 1.277 . S
C368 O366 1.245 1_556 S
O369 C343 1.289 . S
O369 Mg346 2.238 . S
O369 Mg347 2.106 . S
O370 Mg347 2.079 . S
O370 C352 1.245 . S
O371 Mg350 2.038 . S
O371 C352 1.274 . S
C372 O384 1.241 . S
C372 O385 1.280 . S
C373 O386 1.277 . S
C373 O387 1.245 . S
C374 O398 1.247 . S
C374 O400 1.289 . S
Mg375 O376 1.926 . S
Mg375 O385 1.984 . S
Mg375 O387 1.988 . S
Mg375 O388 2.061 . S
O376 Mg375 1.926 . S
O376 Mg377 1.986 . S
O376 Mg378 1.917 . S
Mg377 O376 1.986 . S
Mg377 O384 2.042 . S
Mg377 O386 2.041 . S
Mg377 O392 2.038 . S
Mg377 O400 2.238 . S
Mg378 O376 1.917 . S
Mg378 O379 1.917 . S
Mg378 O389 2.106 . S
Mg378 O391 2.079 . S
Mg378 O400 2.106 . S
Mg378 O401 2.079 . S
O379 Mg378 1.917 . S
O379 Mg380 1.926 . S
O379 Mg381 1.986 . S
Mg380 O379 1.926 . S
Mg380 O394 1.984 1_556 S
Mg380 O397 1.988 . S
Mg380 O398 2.061 . S
Mg381 O379 1.986 . S
Mg381 O389 2.238 . S
Mg381 O393 2.042 1_556 S
Mg381 O395 2.041 1_556 S
Mg381 O402 2.038 . S
C382 O388 1.247 . S
C382 O389 1.289 . S
C383 O401 1.245 . S
C383 O402 1.274 . S
O384 C372 1.241 . S
O384 Mg377 2.042 . S
O385 C372 1.280 . S
O385 Mg375 1.984 . S
O386 C373 1.277 . S
O386 Mg377 2.041 . S
O387 C373 1.245 . S
O387 Mg375 1.988 . S
O388 Mg375 2.061 . S
O388 C382 1.247 . S
O389 Mg378 2.106 . S
O389 Mg381 2.238 . S
O389 C382 1.289 . S
C390 O391 1.245 . S
C390 O392 1.274 . S
O391 Mg378 2.079 . S
O391 C390 1.245 . S
O392 Mg377 2.038 . S
O392 C390 1.274 . S
O393 Mg381 2.042 1_554 S
O393 C396 1.241 . S
O394 Mg380 1.984 1_554 S
O394 C396 1.280 . S
O395 Mg381 2.041 1_554 S
O395 C399 1.277 . S
C396 O393 1.241 . S
C396 O394 1.280 . S
O397 Mg380 1.988 . S
O397 C399 1.245 1_556 S
O398 C374 1.247 . S
O398 Mg380 2.061 . S
C399 O395 1.277 . S
C399 O397 1.245 1_554 S
O400 C374 1.289 . S
O400 Mg377 2.238 . S
O400 Mg378 2.106 . S
O401 Mg378 2.079 . S
O401 C383 1.245 . S
O402 Mg381 2.038 . S
O402 C383 1.274 . S
C403 O415 1.241 . S
C403 O416 1.280 . S
C404 O417 1.277 . S
C404 O418 1.245 . S
C405 O429 1.247 . S
C405 O431 1.289 . S
Mg406 O407 1.926 . S
Mg406 O416 1.984 . S
Mg406 O418 1.988 . S
Mg406 O419 2.061 . S
O407 Mg406 1.926 . S
O407 Mg408 1.986 . S
O407 Mg409 1.917 . S
Mg408 O407 1.986 . S
Mg408 O415 2.042 . S
Mg408 O417 2.041 . S
Mg408 O423 2.038 . S
Mg408 O431 2.238 . S
Mg409 O407 1.917 . S
Mg409 O410 1.917 . S
Mg409 O420 2.106 . S
Mg409 O422 2.079 . S
Mg409 O431 2.106 . S
Mg409 O432 2.079 . S
O410 Mg409 1.917 . S
O410 Mg411 1.926 . S
O410 Mg412 1.986 . S
Mg411 O410 1.926 . S
Mg411 O425 1.999 . S
Mg411 O428 1.988 . S
Mg411 O429 2.061 . S
Mg412 O410 1.986 . S
Mg412 O420 2.238 . S
Mg412 O424 2.042 1_556 S
Mg412 O426 2.041 1_556 S
Mg412 O433 2.038 . S
C413 O419 1.247 . S
C413 O420 1.289 . S
C414 O432 1.245 . S
C414 O433 1.274 . S
O415 C403 1.241 . S
O415 Mg408 2.042 . S
O416 C403 1.280 . S
O416 Mg406 1.984 . S
O417 C404 1.277 . S
O417 Mg408 2.041 . S
O418 C404 1.245 . S
O418 Mg406 1.988 . S
O419 Mg406 2.061 . S
O419 C413 1.247 . S
O420 Mg409 2.106 . S
O420 Mg412 2.238 . S
O420 C413 1.289 . S
C421 O422 1.245 . S
C421 O423 1.274 . S
O422 Mg409 2.079 . S
O422 C421 1.245 . S
O423 Mg408 2.038 . S
O423 C421 1.274 . S
O424 Mg412 2.042 1_554 S
O424 C427 1.241 . S
O425 Mg411 1.999 . S
O425 C427 1.269 1_556 S
O426 Mg412 2.041 1_554 S
O426 C430 1.277 1_554 S
C427 O424 1.241 . S
C427 O425 1.269 1_554 S
O428 Mg411 1.988 . S
O428 C430 1.245 . S
O429 C405 1.247 . S
O429 Mg411 2.061 . S
C430 O426 1.277 1_556 S
C430 O428 1.245 . S
O431 C405 1.289 . S
O431 Mg408 2.238 . S
O431 Mg409 2.106 . S
O432 Mg409 2.079 . S
O432 C414 1.245 . S
O433 Mg412 2.038 . S
O433 C414 1.274 . S
C434 O446 1.241 . S
C434 O447 1.278 . S
C435 O448 1.277 1_556 S
C435 O449 1.245 . S
C436 O460 1.247 . S
C436 O462 1.289 . S
Mg437 O438 1.926 . S
Mg437 O447 1.987 1_556 S
Mg437 O449 1.988 . S
Mg437 O450 2.061 . S
O438 Mg437 1.926 . S
O438 Mg439 1.986 . S
O438 Mg440 1.917 . S
Mg439 O438 1.986 . S
Mg439 O446 2.042 1_556 S
Mg439 O448 2.041 1_556 S
Mg439 O454 2.038 . S
Mg439 O462 2.238 . S
Mg440 O438 1.917 . S
Mg440 O441 1.917 . S
Mg440 O451 2.106 . S
Mg440 O453 2.079 . S
Mg440 O462 2.106 . S
Mg440 O463 2.079 . S
O441 Mg440 1.917 . S
O441 Mg442 1.926 . S
O441 Mg443 1.986 . S
Mg442 O441 1.926 . S
Mg442 O456 1.984 . S
Mg442 O459 1.988 . S
Mg442 O460 2.061 . S
Mg443 O441 1.986 . S
Mg443 O451 2.238 . S
Mg443 O455 2.042 . S
Mg443 O457 2.041 . S
Mg443 O464 2.038 . S
C444 O450 1.247 . S
C444 O451 1.289 . S
C445 O463 1.245 . S
C445 O464 1.274 . S
O446 C434 1.241 . S
O446 Mg439 2.042 1_554 S
O447 C434 1.278 . S
O447 Mg437 1.987 1_554 S
O448 C435 1.277 1_554 S
O448 Mg439 2.041 1_554 S
O449 C435 1.245 . S
O449 Mg437 1.988 . S
O450 Mg437 2.061 . S
O450 C444 1.247 . S
O451 Mg440 2.106 . S
O451 Mg443 2.238 . S
O451 C444 1.289 . S
C452 O453 1.245 . S
C452 O454 1.274 . S
O453 Mg440 2.079 . S
O453 C452 1.245 . S
O454 Mg439 2.038 . S
O454 C452 1.274 . S
O455 Mg443 2.042 . S
O455 C458 1.241 . S
O456 Mg442 1.984 . S
O456 C458 1.280 . S
O457 Mg443 2.041 . S
O457 C461 1.277 . S
C458 O455 1.241 . S
C458 O456 1.280 . S
O459 Mg442 1.988 . S
O459 C461 1.245 . S
O460 C436 1.247 . S
O460 Mg442 2.061 . S
C461 O457 1.277 . S
C461 O459 1.245 . S
O462 C436 1.289 . S
O462 Mg439 2.238 . S
O462 Mg440 2.106 . S
O463 Mg440 2.079 . S
O463 C445 1.245 . S
O464 Mg443 2.038 . S
O464 C445 1.274 . S
C465 O477 1.241 . S
C465 O478 1.280 . S
C466 O479 1.277 . S
C466 O480 1.245 . S
C467 O491 1.247 . S
C467 O493 1.289 . S
Mg468 O469 1.926 . S
Mg468 O478 1.984 . S
Mg468 O480 1.988 . S
Mg468 O481 2.061 . S
O469 Mg468 1.926 . S
O469 Mg470 1.986 . S
O469 Mg471 1.917 . S
Mg470 O469 1.986 . S
Mg470 O477 2.042 . S
Mg470 O479 2.041 . S
Mg470 O485 2.038 . S
Mg470 O493 2.238 . S
Mg471 O469 1.917 . S
Mg471 O472 1.917 . S
Mg471 O482 2.106 . S
Mg471 O484 2.079 . S
Mg471 O493 2.106 . S
Mg471 O494 2.079 . S
O472 Mg471 1.917 . S
O472 Mg473 1.926 . S
O472 Mg474 1.986 . S
Mg473 O472 1.926 . S
Mg473 O487 1.984 . S
Mg473 O490 1.988 . S
Mg473 O491 2.061 . S
Mg474 O472 1.986 . S
Mg474 O482 2.238 . S
Mg474 O486 2.042 . S
Mg474 O488 2.041 . S
Mg474 O495 2.038 . S
C475 O481 1.247 . S
C475 O482 1.289 . S
C476 O494 1.245 . S
C476 O495 1.274 . S
O477 C465 1.241 . S
O477 Mg470 2.042 . S
O478 C465 1.280 . S
O478 Mg468 1.984 . S
O479 C466 1.277 . S
O479 Mg470 2.041 . S
O480 C466 1.245 . S
O480 Mg468 1.988 . S
O481 Mg468 2.061 . S
O481 C475 1.247 . S
O482 Mg471 2.106 . S
O482 Mg474 2.238 . S
O482 C475 1.289 . S
C483 O484 1.245 . S
C483 O485 1.274 . S
O484 Mg471 2.079 . S
O484 C483 1.245 . S
O485 Mg470 2.038 . S
O485 C483 1.274 . S
O486 Mg474 2.042 . S
O486 C489 1.241 . S
O487 Mg473 1.984 . S
O487 C489 1.280 . S
O488 Mg474 2.041 . S
O488 C492 1.277 . S
C489 O486 1.241 . S
C489 O487 1.280 . S
O490 Mg473 1.988 . S
O490 C492 1.245 . S
O491 C467 1.247 . S
O491 Mg473 2.061 . S
C492 O488 1.277 . S
C492 O490 1.245 . S
O493 C467 1.289 . S
O493 Mg470 2.238 . S
O493 Mg471 2.106 . S
O494 Mg471 2.079 . S
O494 C476 1.245 . S
O495 Mg474 2.038 . S
O495 C476 1.274 . S
C496 O508 1.241 . S
C496 O509 1.280 . S
C497 O510 1.277 . S
C497 O511 1.245 . S
C498 O522 1.247 . S
C498 O524 1.289 . S
Mg499 O500 1.926 . S
Mg499 O509 1.984 . S
Mg499 O511 1.988 . S
Mg499 O512 2.061 . S
O500 Mg499 1.926 . S
O500 Mg501 1.986 . S
O500 Mg502 1.917 . S
Mg501 O500 1.986 . S
Mg501 O508 2.042 . S
Mg501 O510 2.041 . S
Mg501 O516 2.038 . S
Mg501 O524 2.238 . S
Mg502 O500 1.917 . S
Mg502 O503 1.917 . S
Mg502 O513 2.106 . S
Mg502 O515 2.079 . S
Mg502 O524 2.106 . S
Mg502 O525 2.079 . S
O503 Mg502 1.917 . S
O503 Mg504 1.926 . S
O503 Mg505 1.986 . S
Mg504 O503 1.926 . S
Mg504 O518 1.984 . S
Mg504 O521 1.988 . S
Mg504 O522 2.061 . S
Mg505 O503 1.986 . S
Mg505 O513 2.238 . S
Mg505 O517 2.042 . S
Mg505 O519 2.041 . S
Mg505 O526 2.038 . S
C506 O512 1.247 . S
C506 O513 1.289 . S
C507 O525 1.245 . S
C507 O526 1.274 . S
O508 C496 1.241 . S
O508 Mg501 2.042 . S
O509 C496 1.280 . S
O509 Mg499 1.984 . S
O510 C497 1.277 . S
O510 Mg501 2.041 . S
O511 C497 1.245 . S
O511 Mg499 1.988 . S
O512 Mg499 2.061 . S
O512 C506 1.247 . S
O513 Mg502 2.106 . S
O513 Mg505 2.238 . S
O513 C506 1.289 . S
C514 O515 1.245 . S
C514 O516 1.274 . S
O515 Mg502 2.079 . S
O515 C514 1.245 . S
O516 Mg501 2.038 . S
O516 C514 1.274 . S
O517 Mg505 2.042 . S
O517 C520 1.241 . S
O518 Mg504 1.984 . S
O518 C520 1.280 . S
O519 Mg505 2.041 . S
O519 C523 1.277 . S
C520 O517 1.241 . S
C520 O518 1.280 . S
O521 Mg504 1.988 . S
O521 C523 1.245 . S
O522 C498 1.247 . S
O522 Mg504 2.061 . S
C523 O519 1.277 . S
C523 O521 1.245 . S
O524 C498 1.289 . S
O524 Mg501 2.238 . S
O524 Mg502 2.106 . S
O525 Mg502 2.079 . S
O525 C507 1.245 . S
O526 Mg505 2.038 . S
O526 C507 1.274 . S
C527 O539 1.241 . S
C527 O540 1.280 . S
C528 O541 1.277 . S
C528 O542 1.245 . S
C529 O553 1.247 . S
C529 O555 1.289 . S
Mg530 O531 1.926 . S
Mg530 O540 1.984 . S
Mg530 O542 1.988 . S
Mg530 O543 2.061 . S
O531 Mg530 1.926 . S
O531 Mg532 1.986 . S
O531 Mg533 1.917 . S
Mg532 O531 1.986 . S
Mg532 O539 2.042 . S
Mg532 O541 2.041 . S
Mg532 O547 2.038 . S
Mg532 O555 2.238 . S
Mg533 O531 1.917 . S
Mg533 O534 1.917 . S
Mg533 O544 2.106 . S
Mg533 O546 2.079 . S
Mg533 O555 2.106 . S
Mg533 O556 2.079 . S
O534 Mg533 1.917 . S
O534 Mg535 1.926 . S
O534 Mg536 1.986 . S
Mg535 O534 1.926 . S
Mg535 O549 1.984 . S
Mg535 O552 1.988 . S
Mg535 O553 2.061 . S
Mg536 O534 1.986 . S
Mg536 O544 2.238 . S
Mg536 O548 2.042 . S
Mg536 O550 2.041 . S
Mg536 O557 2.038 . S
C537 O543 1.247 . S
C537 O544 1.289 . S
C538 O556 1.245 . S
C538 O557 1.274 . S
O539 C527 1.241 . S
O539 Mg532 2.042 . S
O540 C527 1.280 . S
O540 Mg530 1.984 . S
O541 C528 1.277 . S
O541 Mg532 2.041 . S
O542 C528 1.245 . S
O542 Mg530 1.988 . S
O543 Mg530 2.061 . S
O543 C537 1.247 . S
O544 Mg533 2.106 . S
O544 Mg536 2.238 . S
O544 C537 1.289 . S
C545 O546 1.245 . S
C545 O547 1.274 . S
O546 Mg533 2.079 . S
O546 C545 1.245 . S
O547 Mg532 2.038 . S
O547 C545 1.274 . S
O548 Mg536 2.042 . S
O548 C551 1.241 . S
O549 Mg535 1.984 . S
O549 C551 1.280 . S
O550 Mg536 2.041 . S
O550 C554 1.277 . S
C551 O548 1.241 . S
C551 O549 1.280 . S
O552 Mg535 1.988 . S
O552 C554 1.245 . S
O553 C529 1.247 . S
O553 Mg535 2.061 . S
C554 O550 1.277 . S
C554 O552 1.245 . S
O555 C529 1.289 . S
O555 Mg532 2.238 . S
O555 Mg533 2.106 . S
O556 Mg533 2.079 . S
O556 C538 1.245 . S
O557 Mg536 2.038 . S
O557 C538 1.274 . S
H558 C576 0.951 . S
H559 C578 0.951 . S
H560 C580 0.950 . S
H561 C581 0.950 . S
H562 C583 0.950 . S
H563 C586 0.950 . S
H564 C587 0.950 . S
H565 C589 0.950 . S
H566 C590 0.950 . S
H567 C591 0.951 . S
H568 C593 0.951 . S
H569 C595 0.950 . S
H570 C596 0.950 1_655 S
H571 C598 0.950 . S
H572 C601 0.950 1_655 S
H573 C602 0.950 . S
H574 C604 0.950 . S
H575 C605 0.950 . S
C576 H558 0.951 . S
C576 C577 1.366 . S
C576 C578 1.388 . S
C577 C576 1.366 . S
C577 C581 1.385 . S
C578 H559 0.951 . S
C578 C576 1.388 . S
C578 C579 1.366 . S
C579 C578 1.366 . S
C579 C580 1.414 . S
C579 C582 1.499 . S
C580 H560 0.950 . S
C580 C579 1.414 . S
C580 C581 1.374 . S
C581 H561 0.950 . S
C581 C577 1.385 . S
C581 C580 1.374 . S
C582 C579 1.499 . S
C582 C583 1.373 . S
C582 C584 1.389 . S
C583 H562 0.950 . S
C583 C582 1.373 . S
C583 C599 1.377 . S
C584 C582 1.389 . S
C584 C585 1.524 . S
C584 C598 1.377 . S
C585 C584 1.524 . S
C585 C586 1.397 . S
C585 C590 1.363 . S
C586 H563 0.950 . S
C586 C585 1.397 . S
C586 C587 1.334 . S
C587 H564 0.950 . S
C587 C586 1.334 . S
C587 C588 1.287 . S
C588 C587 1.287 . S
C588 C589 1.524 . S
C588 H607 0.913 . S
C589 H565 0.950 . S
C589 C588 1.524 . S
C589 C590 1.415 . S
C590 H566 0.950 . S
C590 C585 1.363 . S
C590 C589 1.415 . S
C591 H567 0.951 . S
C591 C592 1.366 . S
C591 C593 1.388 . S
C592 C591 1.366 . S
C592 C596 1.385 . S
C593 H568 0.951 . S
C593 C591 1.388 . S
C593 C594 1.366 . S
C594 C593 1.366 . S
C594 C595 1.414 . S
C594 C597 1.499 . S
C595 H569 0.950 . S
C595 C594 1.414 . S
C595 C596 1.374 . S
C596 H570 0.950 1_455 S
C596 C592 1.385 . S
C596 C595 1.374 . S
C597 C594 1.499 . S
C597 C598 1.373 . S
C597 C599 1.389 . S
C598 H571 0.950 . S
C598 C584 1.377 . S
C598 C597 1.373 . S
C599 C583 1.377 . S
C599 C597 1.389 . S
C599 C600 1.524 . S
C600 C599 1.524 . S
C600 C601 1.397 . S
C600 C605 1.363 . S
C601 H572 0.950 1_455 S
C601 C600 1.397 . S
C601 C602 1.334 1_455 S
C602 H573 0.950 . S
C602 C601 1.334 1_655 S
C602 C603 1.287 . S
C603 C602 1.287 . S
C603 C604 1.522 1_655 S
C603 H606 1.002 . S
C604 H574 0.950 . S
C604 C603 1.522 1_455 S
C604 C605 1.415 . S
C605 H575 0.950 . S
C605 C600 1.363 . S
C605 C604 1.415 . S
H606 C603 1.002 . S
H607 C588 0.913 . S
H608 C626 0.951 . S
H609 C628 0.951 . S
H610 C630 0.950 . S
H611 C631 0.950 . S
H612 C633 0.950 . S
H613 C636 0.950 . S
H614 C637 0.950 . S
H615 C639 0.950 . S
H616 C640 0.950 . S
H617 C641 0.951 . S
H618 C643 0.951 . S
H619 C645 0.950 . S
H620 C646 0.950 . S
H621 C648 0.950 . S
H622 C651 0.950 . S
H623 C652 0.950 . S
H624 C654 0.950 . S
H625 C655 0.950 . S
C626 H608 0.951 . S
C626 C627 1.366 . S
C626 C628 1.388 . S
C627 C626 1.366 . S
C627 C631 1.385 . S
C628 H609 0.951 . S
C628 C626 1.388 . S
C628 C629 1.366 . S
C629 C628 1.366 . S
C629 C630 1.414 . S
C629 C632 1.499 . S
C630 H610 0.950 . S
C630 C629 1.414 . S
C630 C631 1.374 . S
C631 H611 0.950 . S
C631 C627 1.385 . S
C631 C630 1.374 . S
C632 C629 1.499 . S
C632 C633 1.373 . S
C632 C634 1.389 . S
C633 H612 0.950 . S
C633 C632 1.373 . S
C633 C649 1.377 . S
C634 C632 1.389 . S
C634 C635 1.524 . S
C634 C648 1.377 . S
C635 C634 1.524 . S
C635 C636 1.397 . S
C635 C640 1.363 . S
C636 H613 0.950 . S
C636 C635 1.397 . S
C636 C637 1.334 . S
C637 H614 0.950 . S
C637 C636 1.334 . S
C637 C638 1.287 . S
C638 C637 1.287 . S
C638 C639 1.524 . S
C638 H657 0.913 . S
C639 H615 0.950 . S
C639 C638 1.524 . S
C639 C640 1.415 . S
C640 H616 0.950 . S
C640 C635 1.363 . S
C640 C639 1.415 . S
C641 H617 0.951 . S
C641 C642 1.366 . S
C641 C643 1.388 . S
C642 C641 1.366 . S
C642 C646 1.385 . S
C643 H618 0.951 . S
C643 C641 1.388 . S
C643 C644 1.366 . S
C644 C643 1.366 . S
C644 C645 1.414 . S
C644 C647 1.499 . S
C645 H619 0.950 . S
C645 C644 1.414 . S
C645 C646 1.374 . S
C646 H620 0.950 . S
C646 C642 1.385 . S
C646 C645 1.374 . S
C647 C644 1.499 . S
C647 C648 1.373 . S
C647 C649 1.389 . S
C648 H621 0.950 . S
C648 C634 1.377 . S
C648 C647 1.373 . S
C649 C633 1.377 . S
C649 C647 1.389 . S
C649 C650 1.524 . S
C650 C649 1.524 . S
C650 C651 1.397 . S
C650 C655 1.363 . S
C651 H622 0.950 . S
C651 C650 1.397 . S
C651 C652 1.334 . S
C652 H623 0.950 . S
C652 C651 1.334 . S
C652 C653 1.287 . S
C653 C652 1.287 . S
C653 C654 1.524 . S
C653 H656 0.999 . S
C654 H624 0.950 . S
C654 C653 1.524 . S
C654 C655 1.415 . S
C655 H625 0.950 . S
C655 C650 1.363 . S
C655 C654 1.415 . S
H656 C653 0.999 . S
H657 C638 0.913 . S
H658 C676 0.951 . S
H659 C678 0.951 . S
H660 C680 0.950 . S
H661 C681 0.950 . S
H662 C683 0.950 . S
H663 C686 0.950 . S
H664 C687 0.950 . S
H665 C689 0.950 . S
H666 C690 0.951 . S
H667 C691 0.951 . S
H668 C693 0.951 . S
H669 C695 0.950 . S
H670 C696 0.943 1_545 S
H671 C698 0.950 . S
H672 C701 0.950 . S
H673 C702 0.950 . S
H674 C704 0.950 . S
H675 C705 0.950 . S
C676 H658 0.951 . S
C676 C677 1.366 . S
C676 C678 1.388 . S
C677 C676 1.366 . S
C677 C681 1.385 . S
C678 H659 0.951 . S
C678 C676 1.388 . S
C678 C679 1.366 . S
C679 C678 1.366 . S
C679 C680 1.414 . S
C679 C682 1.499 . S
C680 H660 0.950 . S
C680 C679 1.414 . S
C680 C681 1.374 . S
C681 H661 0.950 . S
C681 C677 1.385 . S
C681 C680 1.374 . S
C682 C679 1.499 . S
C682 C683 1.373 . S
C682 C684 1.389 . S
C683 H662 0.950 . S
C683 C682 1.373 . S
C683 C699 1.377 . S
C684 C682 1.389 . S
C684 C685 1.524 . S
C684 C698 1.377 . S
C685 C684 1.524 . S
C685 C686 1.397 . S
C685 C690 1.352 1_565 S
C686 H663 0.950 . S
C686 C685 1.397 . S
C686 C687 1.334 . S
C687 H664 0.950 . S
C687 C686 1.334 . S
C687 C688 1.287 1_565 S
C688 C687 1.287 1_545 S
C688 C689 1.524 . S
C688 H707 0.913 . S
C689 H665 0.950 . S
C689 C688 1.524 . S
C689 C690 1.426 . S
C690 H666 0.951 . S
C690 C685 1.352 1_545 S
C690 C689 1.426 . S
C691 H667 0.951 . S
C691 C692 1.366 . S
C691 C693 1.388 . S
C692 C691 1.366 . S
C692 C696 1.385 . S
C693 H668 0.951 . S
C693 C691 1.388 . S
C693 C694 1.366 . S
C694 C693 1.366 . S
C694 C695 1.414 . S
C694 C697 1.499 . S
C695 H669 0.950 . S
C695 C694 1.414 . S
C695 C696 1.374 . S
C696 H670 0.943 1_565 S
C696 C692 1.385 . S
C696 C695 1.374 . S
C697 C694 1.499 . S
C697 C698 1.373 . S
C697 C699 1.389 . S
C698 H671 0.950 . S
C698 C684 1.377 . S
C698 C697 1.373 . S
C699 C683 1.377 . S
C699 C697 1.389 . S
C699 C700 1.524 . S
C700 C699 1.524 . S
C700 C701 1.397 . S
C700 C705 1.363 . S
C701 H672 0.950 . S
C701 C700 1.397 . S
C701 C702 1.334 . S
C702 H673 0.950 . S
C702 C701 1.334 . S
C702 C703 1.287 . S
C703 C702 1.287 . S
C703 C704 1.524 . S
C703 H706 0.999 . S
C704 H674 0.950 . S
C704 C703 1.524 . S
C704 C705 1.415 . S
C705 H675 0.950 . S
C705 C700 1.363 . S
C705 C704 1.415 . S
H706 C703 0.999 . S
H707 C688 0.913 . S
H708 C726 0.973 . S
H709 C728 0.951 . S
H710 C730 0.950 . S
H711 C731 0.950 . S
H712 C733 0.950 . S
H713 C736 0.950 . S
H714 C737 0.950 . S
H715 C739 0.950 . S
H716 C740 0.950 . S
H717 C741 0.924 1_565 S
H718 C743 0.951 . S
H719 C745 0.950 . S
H720 C746 0.950 . S
H721 C748 0.950 . S
H722 C751 0.950 . S
H723 C752 0.950 . S
H724 C754 0.950 . S
H725 C755 0.950 1_545 S
C726 H708 0.973 . S
C726 C727 1.361 1_556 S
C726 C728 1.372 1_556 S
C727 C726 1.361 1_554 S
C727 C731 1.385 . S
C728 H709 0.951 . S
C728 C726 1.372 1_554 S
C728 C729 1.366 . S
C729 C728 1.366 . S
C729 C730 1.414 . S
C729 C732 1.499 . S
C730 H710 0.950 . S
C730 C729 1.414 . S
C730 C731 1.374 . S
C731 H711 0.950 . S
C731 C727 1.385 . S
C731 C730 1.374 . S
C732 C729 1.499 . S
C732 C733 1.373 . S
C732 C734 1.389 . S
C733 H712 0.950 . S
C733 C732 1.373 . S
C733 C749 1.377 . S
C734 C732 1.389 . S
C734 C735 1.524 . S
C734 C748 1.377 . S
C735 C734 1.524 . S
C735 C736 1.397 . S
C735 C740 1.363 . S
C736 H713 0.950 . S
C736 C735 1.397 . S
C736 C737 1.334 . S
C737 H714 0.950 . S
C737 C736 1.334 . S
C737 C738 1.287 . S
C738 C737 1.287 . S
C738 C739 1.524 . S
C738 H757 0.913 . S
C739 H715 0.950 . S
C739 C738 1.524 . S
C739 C740 1.415 . S
C740 H716 0.950 . S
C740 C735 1.363 . S
C740 C739 1.415 . S
C741 H717 0.924 1_545 S
C741 C742 1.366 . S
C741 C743 1.388 . S
C742 C741 1.366 . S
C742 C746 1.385 . S
C743 H718 0.951 . S
C743 C741 1.388 . S
C743 C744 1.366 . S
C744 C743 1.366 . S
C744 C745 1.414 . S
C744 C747 1.499 . S
C745 H719 0.950 . S
C745 C744 1.414 . S
C745 C746 1.374 . S
C746 H720 0.950 . S
C746 C742 1.385 . S
C746 C745 1.374 . S
C747 C744 1.499 . S
C747 C748 1.373 . S
C747 C749 1.389 . S
C748 H721 0.950 . S
C748 C734 1.377 . S
C748 C747 1.373 . S
C749 C733 1.377 . S
C749 C747 1.389 . S
C749 C750 1.524 . S
C750 C749 1.524 . S
C750 C751 1.397 1_545 S
C750 C755 1.363 1_545 S
C751 H722 0.950 . S
C751 C750 1.397 1_565 S
C751 C752 1.334 . S
C752 H723 0.950 . S
C752 C751 1.334 . S
C752 C753 1.287 . S
C753 C752 1.287 . S
C753 C754 1.524 . S
C753 H756 0.999 . S
C754 H724 0.950 . S
C754 C753 1.524 . S
C754 C755 1.415 . S
C755 H725 0.950 1_565 S
C755 C750 1.363 1_565 S
C755 C754 1.415 . S
H756 C753 0.999 . S
H757 C738 0.913 . S
H758 C776 0.951 . S
H759 C778 0.951 . S
H760 C780 0.950 . S
H761 C781 0.950 . S
H762 C783 0.950 . S
H763 C786 0.950 . S
H764 C787 0.950 . S
H765 C789 0.950 . S
H766 C790 0.950 . S
H767 C791 0.951 . S
H768 C793 0.951 . S
H769 C795 0.950 . S
H770 C796 0.950 . S
H771 C798 0.950 . S
H772 C801 0.950 . S
H773 C802 0.950 . S
H774 C804 0.950 . S
H775 C805 0.950 . S
C776 H758 0.951 . S
C776 C777 1.366 . S
C776 C778 1.388 1_556 S
C777 C776 1.366 . S
C777 C781 1.385 1_556 S
C778 H759 0.951 . S
C778 C776 1.388 1_554 S
C778 C779 1.366 . S
C779 C778 1.366 . S
C779 C780 1.414 . S
C779 C782 1.499 . S
C780 H760 0.950 . S
C780 C779 1.414 . S
C780 C781 1.374 . S
C781 H761 0.950 . S
C781 C777 1.385 1_554 S
C781 C780 1.374 . S
C782 C779 1.499 . S
C782 C783 1.373 . S
C782 C784 1.389 . S
C783 H762 0.950 . S
C783 C782 1.373 . S
C783 C799 1.377 . S
C784 C782 1.389 . S
C784 C785 1.524 . S
C784 C798 1.377 . S
C785 C784 1.524 . S
C785 C786 1.397 . S
C785 C790 1.363 . S
C786 H763 0.950 . S
C786 C785 1.397 . S
C786 C787 1.334 . S
C787 H764 0.950 . S
C787 C786 1.334 . S
C787 C788 1.287 . S
C788 C787 1.287 . S
C788 C789 1.524 . S
C788 H807 0.913 . S
C789 H765 0.950 . S
C789 C788 1.524 . S
C789 C790 1.415 . S
C790 H766 0.950 . S
C790 C785 1.363 . S
C790 C789 1.415 . S
C791 H767 0.951 . S
C791 C792 1.366 . S
C791 C793 1.388 . S
C792 C791 1.366 . S
C792 C796 1.385 . S
C793 H768 0.951 . S
C793 C791 1.388 . S
C793 C794 1.366 . S
C794 C793 1.366 . S
C794 C795 1.414 . S
C794 C797 1.499 . S
C795 H769 0.950 . S
C795 C794 1.414 . S
C795 C796 1.374 . S
C796 H770 0.950 . S
C796 C792 1.385 . S
C796 C795 1.374 . S
C797 C794 1.499 . S
C797 C798 1.373 . S
C797 C799 1.389 . S
C798 H771 0.950 . S
C798 C784 1.377 . S
C798 C797 1.373 . S
C799 C783 1.377 . S
C799 C797 1.389 . S
C799 C800 1.524 . S
C800 C799 1.524 . S
C800 C801 1.397 1_655 S
C800 C805 1.363 . S
C801 H772 0.950 . S
C801 C800 1.397 1_455 S
C801 C802 1.334 . S
C802 H773 0.950 . S
C802 C801 1.334 . S
C802 C803 1.287 . S
C803 C802 1.287 . S
C803 C804 1.524 . S
C803 H806 0.999 . S
C804 H774 0.950 . S
C804 C803 1.524 . S
C804 C805 1.415 1_455 S
C805 H775 0.950 . S
C805 C800 1.363 . S
C805 C804 1.415 1_655 S
H806 C803 0.999 . S
H807 C788 0.913 . S
H808 C826 0.951 . S
H809 C828 0.951 . S
H810 C830 0.950 . S
H811 C831 0.950 1_556 S
H812 C833 0.950 . S
H813 C836 0.950 . S
H814 C837 0.950 . S
H815 C839 0.950 . S
H816 C840 0.950 . S
H817 C841 0.951 . S
H818 C843 0.951 . S
H819 C845 0.950 . S
H820 C846 0.950 . S
H821 C848 0.950 . S
H822 C851 0.950 . S
H823 C852 0.950 . S
H824 C854 0.950 . S
H825 C855 0.950 . S
C826 H808 0.951 . S
C826 C827 1.366 . S
C826 C828 1.388 . S
C827 C826 1.366 . S
C827 C831 1.385 . S
C828 H809 0.951 . S
C828 C826 1.388 . S
C828 C829 1.366 . S
C829 C828 1.366 . S
C829 C830 1.414 . S
C829 C832 1.499 . S
C830 H810 0.950 . S
C830 C829 1.414 . S
C830 C831 1.374 . S
C831 H811 0.950 1_554 S
C831 C827 1.385 . S
C831 C830 1.374 . S
C832 C829 1.499 . S
C832 C833 1.373 . S
C832 C834 1.389 . S
C833 H812 0.950 . S
C833 C832 1.373 . S
C833 C849 1.377 . S
C834 C832 1.389 . S
C834 C835 1.524 . S
C834 C848 1.377 . S
C835 C834 1.524 . S
C835 C836 1.397 . S
C835 C840 1.363 . S
C836 H813 0.950 . S
C836 C835 1.397 . S
C836 C837 1.334 . S
C837 H814 0.950 . S
C837 C836 1.334 . S
C837 C838 1.287 . S
C838 C837 1.287 . S
C838 C839 1.524 . S
C838 H857 0.913 . S
C839 H815 0.950 . S
C839 C838 1.524 . S
C839 C840 1.415 . S
C840 H816 0.950 . S
C840 C835 1.363 . S
C840 C839 1.415 . S
C841 H817 0.951 . S
C841 C842 1.366 . S
C841 C843 1.388 . S
C842 C841 1.366 . S
C842 C846 1.385 . S
C843 H818 0.951 . S
C843 C841 1.388 . S
C843 C844 1.366 . S
C844 C843 1.366 . S
C844 C845 1.414 . S
C844 C847 1.499 . S
C845 H819 0.950 . S
C845 C844 1.414 . S
C845 C846 1.374 . S
C846 H820 0.950 . S
C846 C842 1.385 . S
C846 C845 1.374 . S
C847 C844 1.499 . S
C847 C848 1.373 . S
C847 C849 1.389 . S
C848 H821 0.950 . S
C848 C834 1.377 . S
C848 C847 1.373 . S
C849 C833 1.377 . S
C849 C847 1.389 . S
C849 C850 1.524 . S
C850 C849 1.524 . S
C850 C851 1.397 . S
C850 C855 1.363 . S
C851 H822 0.950 . S
C851 C850 1.397 . S
C851 C852 1.334 . S
C852 H823 0.950 . S
C852 C851 1.334 . S
C852 C853 1.287 . S
C853 C852 1.287 . S
C853 C854 1.524 . S
C853 H856 0.999 . S
C854 H824 0.950 . S
C854 C853 1.524 . S
C854 C855 1.415 . S
C855 H825 0.950 . S
C855 C850 1.363 . S
C855 C854 1.415 . S
H856 C853 0.999 . S
H857 C838 0.913 . S
H858 C876 0.951 . S
H859 C878 0.951 . S
H860 C880 0.950 . S
H861 C881 0.950 . S
H862 C883 0.950 . S
H863 C886 0.950 . S
H864 C887 0.950 . S
H865 C889 0.950 . S
H866 C890 0.950 . S
H867 C891 0.951 . S
H868 C893 0.951 . S
H869 C895 0.950 . S
H870 C896 0.950 . S
H871 C898 0.950 . S
H872 C901 0.950 . S
H873 C902 0.950 . S
H874 C904 0.950 . S
H875 C905 0.950 . S
C876 H858 0.951 . S
C876 C877 1.366 1_655 S
C876 C878 1.388 . S
C877 C876 1.366 1_455 S
C877 C881 1.385 . S
C878 H859 0.951 . S
C878 C876 1.388 . S
C878 C879 1.366 . S
C879 C878 1.366 . S
C879 C880 1.414 . S
C879 C882 1.499 . S
C880 H860 0.950 . S
C880 C879 1.414 . S
C880 C881 1.374 1_655 S
C881 H861 0.950 . S
C881 C877 1.385 . S
C881 C880 1.374 1_455 S
C882 C879 1.499 . S
C882 C883 1.373 . S
C882 C884 1.389 . S
C883 H862 0.950 . S
C883 C882 1.373 . S
C883 C899 1.377 . S
C884 C882 1.389 . S
C884 C885 1.524 . S
C884 C898 1.377 . S
C885 C884 1.524 . S
C885 C886 1.397 . S
C885 C890 1.363 . S
C886 H863 0.950 . S
C886 C885 1.397 . S
C886 C887 1.334 . S
C887 H864 0.950 . S
C887 C886 1.334 . S
C887 C888 1.287 . S
C888 C887 1.287 . S
C888 C889 1.524 . S
C888 H907 0.913 . S
C889 H865 0.950 . S
C889 C888 1.524 . S
C889 C890 1.415 . S
C890 H866 0.950 . S
C890 C885 1.363 . S
C890 C889 1.415 . S
C891 H867 0.951 . S
C891 C892 1.366 . S
C891 C893 1.388 . S
C892 C891 1.366 . S
C892 C896 1.385 . S
C893 H868 0.951 . S
C893 C891 1.388 . S
C893 C894 1.366 . S
C894 C893 1.366 . S
C894 C895 1.414 . S
C894 C897 1.499 . S
C895 H869 0.950 . S
C895 C894 1.414 . S
C895 C896 1.374 . S
C896 H870 0.950 . S
C896 C892 1.385 . S
C896 C895 1.374 . S
C897 C894 1.499 . S
C897 C898 1.373 . S
C897 C899 1.389 . S
C898 H871 0.950 . S
C898 C884 1.377 . S
C898 C897 1.373 . S
C899 C883 1.377 . S
C899 C897 1.389 . S
C899 C900 1.524 . S
C900 C899 1.524 . S
C900 C901 1.397 . S
C900 C905 1.363 . S
C901 H872 0.950 . S
C901 C900 1.397 . S
C901 C902 1.334 . S
C902 H873 0.950 . S
C902 C901 1.334 . S
C902 C903 1.287 1_655 S
C903 C902 1.287 1_455 S
C903 C904 1.524 . S
C903 H906 0.999 . S
C904 H874 0.950 . S
C904 C903 1.524 . S
C904 C905 1.415 1_455 S
C905 H875 0.950 . S
C905 C900 1.363 . S
C905 C904 1.415 1_655 S
H906 C903 0.999 . S
H907 C888 0.913 . S
H908 C926 0.951 . S
H909 C928 0.951 . S
H910 C930 0.950 . S
H911 C931 0.950 . S
H912 C933 0.950 . S
H913 C936 0.950 . S
H914 C937 0.950 . S
H915 C939 0.950 . S
H916 C940 0.950 . S
H917 C941 0.951 . S
H918 C943 0.951 . S
H919 C945 0.950 . S
H920 C946 0.950 . S
H921 C948 0.950 . S
H922 C951 0.950 . S
H923 C952 0.950 . S
H924 C954 0.950 . S
H925 C955 0.950 . S
C926 H908 0.951 . S
C926 C927 1.366 . S
C926 C928 1.388 . S
C927 C926 1.366 . S
C927 C931 1.385 . S
C928 H909 0.951 . S
C928 C926 1.388 . S
C928 C929 1.366 . S
C929 C928 1.366 . S
C929 C930 1.414 . S
C929 C932 1.499 . S
C930 H910 0.950 . S
C930 C929 1.414 . S
C930 C931 1.374 . S
C931 H911 0.950 . S
C931 C927 1.385 . S
C931 C930 1.374 . S
C932 C929 1.499 . S
C932 C933 1.373 . S
C932 C934 1.389 . S
C933 H912 0.950 . S
C933 C932 1.373 . S
C933 C949 1.377 . S
C934 C932 1.389 . S
C934 C935 1.524 . S
C934 C948 1.377 . S
C935 C934 1.524 . S
C935 C936 1.397 . S
C935 C940 1.363 . S
C936 H913 0.950 . S
C936 C935 1.397 . S
C936 C937 1.334 . S
C937 H914 0.950 . S
C937 C936 1.334 . S
C937 C938 1.287 . S
C938 C937 1.287 . S
C938 C939 1.524 . S
C938 H957 0.913 . S
C939 H915 0.950 . S
C939 C938 1.524 . S
C939 C940 1.415 . S
C940 H916 0.950 . S
C940 C935 1.363 . S
C940 C939 1.415 . S
C941 H917 0.951 . S
C941 C942 1.366 . S
C941 C943 1.388 . S
C942 C941 1.366 . S
C942 C946 1.385 . S
C943 H918 0.951 . S
C943 C941 1.388 . S
C943 C944 1.366 . S
C944 C943 1.366 . S
C944 C945 1.414 . S
C944 C947 1.499 . S
C945 H919 0.950 . S
C945 C944 1.414 . S
C945 C946 1.374 . S
C946 H920 0.950 . S
C946 C942 1.385 . S
C946 C945 1.374 . S
C947 C944 1.499 . S
C947 C948 1.373 . S
C947 C949 1.389 . S
C948 H921 0.950 . S
C948 C934 1.377 . S
C948 C947 1.373 . S
C949 C933 1.377 . S
C949 C947 1.389 . S
C949 C950 1.524 . S
C950 C949 1.524 . S
C950 C951 1.397 . S
C950 C955 1.363 . S
C951 H922 0.950 . S
C951 C950 1.397 . S
C951 C952 1.334 . S
C952 H923 0.950 . S
C952 C951 1.334 . S
C952 C953 1.287 . S
C953 C952 1.287 . S
C953 C954 1.524 . S
C953 H956 0.999 . S
C954 H924 0.950 . S
C954 C953 1.524 . S
C954 C955 1.415 . S
C955 H925 0.950 . S
C955 C950 1.363 . S
C955 C954 1.415 . S
H956 C953 0.999 . S
H957 C938 0.913 . S
H958 C976 0.951 . S
H959 C978 0.951 . S
H960 C980 0.950 . S
H961 C981 0.950 . S
H962 C983 0.950 . S
H963 C986 0.950 . S
H964 C987 0.950 . S
H965 C989 0.950 . S
H966 C990 0.950 . S
H967 C991 0.951 . S
H968 C993 0.951 . S
H969 C995 0.950 . S
H970 C996 0.950 . S
H971 C998 0.950 . S
H972 C1001 0.950 . S
H973 C1002 0.950 . S
H974 C1004 0.966 . S
H975 C1005 0.950 . S
C976 H958 0.951 . S
C976 C977 1.366 . S
C976 C978 1.388 . S
C977 C976 1.366 . S
C977 C981 1.385 . S
C978 H959 0.951 . S
C978 C976 1.388 . S
C978 C979 1.366 . S
C979 C978 1.366 . S
C979 C980 1.414 . S
C979 C982 1.499 . S
C980 H960 0.950 . S
C980 C979 1.414 . S
C980 C981 1.374 . S
C981 H961 0.950 . S
C981 C977 1.385 . S
C981 C980 1.374 . S
C982 C979 1.499 . S
C982 C983 1.373 . S
C982 C984 1.389 . S
C983 H962 0.950 . S
C983 C982 1.373 . S
C983 C999 1.377 . S
C984 C982 1.389 . S
C984 C985 1.524 . S
C984 C998 1.377 . S
C985 C984 1.524 . S
C985 C986 1.397 . S
C985 C990 1.363 . S
C986 H963 0.950 . S
C986 C985 1.397 . S
C986 C987 1.334 . S
C987 H964 0.950 . S
C987 C986 1.334 . S
C987 C988 1.287 . S
C988 C987 1.287 . S
C988 C989 1.524 . S
C988 H1007 0.913 . S
C989 H965 0.950 . S
C989 C988 1.524 . S
C989 C990 1.415 . S
C990 H966 0.950 . S
C990 C985 1.363 . S
C990 C989 1.415 . S
C991 H967 0.951 . S
C991 C992 1.366 . S
C991 C993 1.388 . S
C992 C991 1.366 . S
C992 C996 1.385 . S
C993 H968 0.951 . S
C993 C991 1.388 . S
C993 C994 1.366 . S
C994 C993 1.366 . S
C994 C995 1.414 . S
C994 C997 1.499 . S
C995 H969 0.950 . S
C995 C994 1.414 . S
C995 C996 1.374 . S
C996 H970 0.950 . S
C996 C992 1.385 . S
C996 C995 1.374 . S
C997 C994 1.499 . S
C997 C998 1.373 . S
C997 C999 1.389 . S
C998 H971 0.950 . S
C998 C984 1.377 . S
C998 C997 1.373 . S
C999 C983 1.377 . S
C999 C997 1.389 . S
C999 C1000 1.524 . S
C1000 C999 1.524 . S
C1000 C1001 1.397 . S
C1000 C1005 1.363 . S
C1001 H972 0.950 . S
C1001 C1000 1.397 . S
C1001 C1002 1.334 . S
C1002 H973 0.950 . S
C1002 C1001 1.334 . S
C1002 C1003 1.287 . S
C1003 C1002 1.287 . S
C1003 C1004 1.526 1_545 S
C1003 H1006 0.999 1_545 S
C1004 H974 0.966 . S
C1004 C1003 1.526 1_565 S
C1004 C1005 1.396 1_565 S
C1005 H975 0.950 . S
C1005 C1000 1.363 . S
C1005 C1004 1.396 1_545 S
H1006 C1003 0.999 1_565 S
H1007 C988 0.913 . S
H1008 C1026 0.951 . S
H1009 C1028 0.951 . S
H1010 C1030 0.950 . S
H1011 C1031 0.950 . S
H1012 C1033 0.950 . S
H1013 C1036 0.950 . S
H1014 C1037 0.950 . S
H1015 C1039 0.950 . S
H1016 C1040 0.950 . S
H1017 C1041 0.951 . S
H1018 C1043 0.951 . S
H1019 C1045 0.950 . S
H1020 C1046 0.950 . S
H1021 C1048 0.950 . S
H1022 C1051 0.950 . S
H1023 C1052 0.950 . S
H1024 C1054 0.950 . S
H1025 C1055 0.950 . S
C1026 H1008 0.951 . S
C1026 C1027 1.366 . S
C1026 C1028 1.388 . S
C1027 C1026 1.366 . S
C1027 C1031 1.385 1_545 S
C1028 H1009 0.951 . S
C1028 C1026 1.388 . S
C1028 C1029 1.366 1_545 S
C1029 C1028 1.366 1_565 S
C1029 C1030 1.414 . S
C1029 C1032 1.499 . S
C1030 H1010 0.950 . S
C1030 C1029 1.414 . S
C1030 C1031 1.374 . S
C1031 H1011 0.950 . S
C1031 C1027 1.385 1_565 S
C1031 C1030 1.374 . S
C1032 C1029 1.499 . S
C1032 C1033 1.373 . S
C1032 C1034 1.389 . S
C1033 H1012 0.950 . S
C1033 C1032 1.373 . S
C1033 C1049 1.377 . S
C1034 C1032 1.389 . S
C1034 C1035 1.524 . S
C1034 C1048 1.377 . S
C1035 C1034 1.524 . S
C1035 C1036 1.397 . S
C1035 C1040 1.363 1_565 S
C1036 H1013 0.950 . S
C1036 C1035 1.397 . S
C1036 C1037 1.334 1_565 S
C1037 H1014 0.950 . S
C1037 C1036 1.334 1_545 S
C1037 C1038 1.287 . S
C1038 C1037 1.287 . S
C1038 C1039 1.524 . S
C1038 H1057 0.913 . S
C1039 H1015 0.950 . S
C1039 C1038 1.524 . S
C1039 C1040 1.415 . S
C1040 H1016 0.950 . S
C1040 C1035 1.363 1_545 S
C1040 C1039 1.415 . S
C1041 H1017 0.951 . S
C1041 C1042 1.366 1_556 S
C1041 C1043 1.388 . S
C1042 C1041 1.366 1_554 S
C1042 C1046 1.385 . S
C1043 H1018 0.951 . S
C1043 C1041 1.388 . S
C1043 C1044 1.366 . S
C1044 C1043 1.366 . S
C1044 C1045 1.414 . S
C1044 C1047 1.499 . S
C1045 H1019 0.950 . S
C1045 C1044 1.414 . S
C1045 C1046 1.374 1_556 S
C1046 H1020 0.950 . S
C1046 C1042 1.385 . S
C1046 C1045 1.374 1_554 S
C1047 C1044 1.499 . S
C1047 C1048 1.373 . S
C1047 C1049 1.389 . S
C1048 H1021 0.950 . S
C1048 C1034 1.377 . S
C1048 C1047 1.373 . S
C1049 C1033 1.377 . S
C1049 C1047 1.389 . S
C1049 C1050 1.524 . S
C1050 C1049 1.524 . S
C1050 C1051 1.397 . S
C1050 C1055 1.363 . S
C1051 H1022 0.950 . S
C1051 C1050 1.397 . S
C1051 C1052 1.334 . S
C1052 H1023 0.950 . S
C1052 C1051 1.334 . S
C1052 C1053 1.287 . S
C1053 C1052 1.287 . S
C1053 C1054 1.524 . S
C1053 H1056 0.999 . S
C1054 H1024 0.950 . S
C1054 C1053 1.524 . S
C1054 C1055 1.415 . S
C1055 H1025 0.950 . S
C1055 C1050 1.363 . S
C1055 C1054 1.415 . S
H1056 C1053 0.999 . S
H1057 C1038 0.913 . S
H1058 C1076 0.951 . S
H1059 C1078 0.951 . S
H1060 C1080 0.950 . S
H1061 C1081 0.950 . S
H1062 C1083 0.950 . S
H1063 C1086 0.950 . S
H1064 C1087 0.950 . S
H1065 C1089 0.950 . S
H1066 C1090 0.950 . S
H1067 C1091 0.951 . S
H1068 C1093 0.951 . S
H1069 C1095 0.950 . S
H1070 C1096 0.950 . S
H1071 C1098 0.950 . S
H1072 C1101 0.950 . S
H1073 C1102 0.950 1_554 S
H1074 C1104 0.950 . S
H1075 C1105 0.950 . S
C1076 H1058 0.951 . S
C1076 C1077 1.366 . S
C1076 C1078 1.388 . S
C1077 C1076 1.366 . S
C1077 C1081 1.385 . S
C1078 H1059 0.951 . S
C1078 C1076 1.388 . S
C1078 C1079 1.366 . S
C1079 C1078 1.366 . S
C1079 C1080 1.414 . S
C1079 C1082 1.499 . S
C1080 H1060 0.950 . S
C1080 C1079 1.414 . S
C1080 C1081 1.374 . S
C1081 H1061 0.950 . S
C1081 C1077 1.385 . S
C1081 C1080 1.374 . S
C1082 C1079 1.499 . S
C1082 C1083 1.373 . S
C1082 C1084 1.389 . S
C1083 H1062 0.950 . S
C1083 C1082 1.373 . S
C1083 C1099 1.377 . S
C1084 C1082 1.389 . S
C1084 C1085 1.524 . S
C1084 C1098 1.377 . S
C1085 C1084 1.524 . S
C1085 C1086 1.397 . S
C1085 C1090 1.363 . S
C1086 H1063 0.950 . S
C1086 C1085 1.397 . S
C1086 C1087 1.334 . S
C1087 H1064 0.950 . S
C1087 C1086 1.334 . S
C1087 C1088 1.287 . S
C1088 C1087 1.287 . S
C1088 C1089 1.524 . S
C1088 H1107 0.913 . S
C1089 H1065 0.950 . S
C1089 C1088 1.524 . S
C1089 C1090 1.415 . S
C1090 H1066 0.950 . S
C1090 C1085 1.363 . S
C1090 C1089 1.415 . S
C1091 H1067 0.951 . S
C1091 C1092 1.366 1_556 S
C1091 C1093 1.388 . S
C1092 C1091 1.366 1_554 S
C1092 C1096 1.385 . S
C1093 H1068 0.951 . S
C1093 C1091 1.388 . S
C1093 C1094 1.366 . S
C1094 C1093 1.366 . S
C1094 C1095 1.414 . S
C1094 C1097 1.499 . S
C1095 H1069 0.950 . S
C1095 C1094 1.414 . S
C1095 C1096 1.374 1_556 S
C1096 H1070 0.950 . S
C1096 C1092 1.385 . S
C1096 C1095 1.374 1_554 S
C1097 C1094 1.499 . S
C1097 C1098 1.373 . S
C1097 C1099 1.389 . S
C1098 H1071 0.950 . S
C1098 C1084 1.377 . S
C1098 C1097 1.373 . S
C1099 C1083 1.377 . S
C1099 C1097 1.389 . S
C1099 C1100 1.524 . S
C1100 C1099 1.524 . S
C1100 C1101 1.397 . S
C1100 C1105 1.363 . S
C1101 H1072 0.950 . S
C1101 C1100 1.397 . S
C1101 C1102 1.334 . S
C1102 H1073 0.950 1_556 S
C1102 C1101 1.334 . S
C1102 C1103 1.287 1_455 S
C1103 C1102 1.287 1_655 S
C1103 C1104 1.524 . S
C1103 H1106 0.999 . S
C1104 H1074 0.950 . S
C1104 C1103 1.524 . S
C1104 C1105 1.415 1_655 S
C1105 H1075 0.950 . S
C1105 C1100 1.363 . S
C1105 C1104 1.415 1_455 S
H1106 C1103 0.999 . S
H1107 C1088 0.913 . S
H1108 C1126 0.951 . S
H1109 C1128 0.951 . S
H1110 C1130 0.950 . S
H1111 C1131 0.950 . S
H1112 C1133 0.950 . S
H1113 C1136 0.950 . S
H1114 C1137 0.950 . S
H1115 C1139 0.950 . S
H1116 C1140 0.950 . S
H1117 C1141 0.951 . S
H1118 C1143 0.951 . S
H1119 C1145 0.950 . S
H1120 C1146 0.950 . S
H1121 C1148 0.950 . S
H1122 C1151 0.958 . S
H1123 C1152 0.950 . S
H1124 C1154 0.950 . S
H1125 C1155 0.950 . S
C1126 H1108 0.951 . S
C1126 C1127 1.366 . S
C1126 C1128 1.388 . S
C1127 C1126 1.366 . S
C1127 C1131 1.385 . S
C1128 H1109 0.951 . S
C1128 C1126 1.388 . S
C1128 C1129 1.366 . S
C1129 C1128 1.366 . S
C1129 C1130 1.414 . S
C1129 C1132 1.499 . S
C1130 H1110 0.950 . S
C1130 C1129 1.414 . S
C1130 C1131 1.374 . S
C1131 H1111 0.950 . S
C1131 C1127 1.385 . S
C1131 C1130 1.374 . S
C1132 C1129 1.499 . S
C1132 C1133 1.373 . S
C1132 C1134 1.389 . S
C1133 H1112 0.950 . S
C1133 C1132 1.373 . S
C1133 C1149 1.377 . S
C1134 C1132 1.389 . S
C1134 C1135 1.524 . S
C1134 C1148 1.377 . S
C1135 C1134 1.524 . S
C1135 C1136 1.397 . S
C1135 C1140 1.363 . S
C1136 H1113 0.950 . S
C1136 C1135 1.397 . S
C1136 C1137 1.334 . S
C1137 H1114 0.950 . S
C1137 C1136 1.334 . S
C1137 C1138 1.287 . S
C1138 C1137 1.287 . S
C1138 C1139 1.524 . S
C1138 H1157 0.913 . S
C1139 H1115 0.950 . S
C1139 C1138 1.524 . S
C1139 C1140 1.415 . S
C1140 H1116 0.950 . S
C1140 C1135 1.363 . S
C1140 C1139 1.415 . S
C1141 H1117 0.951 . S
C1141 C1142 1.366 . S
C1141 C1143 1.388 1_554 S
C1142 C1141 1.366 . S
C1142 C1146 1.385 1_554 S
C1143 H1118 0.951 . S
C1143 C1141 1.388 1_556 S
C1143 C1144 1.366 . S
C1144 C1143 1.366 . S
C1144 C1145 1.414 . S
C1144 C1147 1.499 . S
C1145 H1119 0.950 . S
C1145 C1144 1.414 . S
C1145 C1146 1.374 . S
C1146 H1120 0.950 . S
C1146 C1142 1.385 1_556 S
C1146 C1145 1.374 . S
C1147 C1144 1.499 . S
C1147 C1148 1.373 . S
C1147 C1149 1.389 . S
C1148 H1121 0.950 . S
C1148 C1134 1.377 . S
C1148 C1147 1.373 . S
C1149 C1133 1.377 . S
C1149 C1147 1.389 . S
C1149 C1150 1.524 . S
C1150 C1149 1.524 . S
C1150 C1151 1.415 . S
C1150 C1155 1.363 . S
C1151 H1122 0.958 . S
C1151 C1150 1.415 . S
C1151 C1152 1.308 1_556 S
C1152 H1123 0.950 . S
C1152 C1151 1.308 1_554 S
C1152 C1153 1.287 . S
C1153 C1152 1.287 . S
C1153 C1154 1.524 . S
C1153 H1156 0.999 . S
C1154 H1124 0.950 . S
C1154 C1153 1.524 . S
C1154 C1155 1.415 1_554 S
C1155 H1125 0.950 . S
C1155 C1150 1.363 . S
C1155 C1154 1.415 1_556 S
H1156 C1153 0.999 . S
H1157 C1138 0.913 . S
H1158 C1176 0.951 . S
H1159 C1178 0.951 . S
H1160 C1180 0.950 . S
H1161 C1181 0.950 . S
H1162 C1183 0.950 . S
H1163 C1186 0.950 1_565 S
H1164 C1187 0.950 1_565 S
H1165 C1189 0.950 . S
H1166 C1190 0.950 . S
H1167 C1191 0.951 . S
H1168 C1193 0.951 . S
H1169 C1195 0.950 . S
H1170 C1196 0.950 . S
H1171 C1198 0.950 . S
H1172 C1201 0.950 . S
H1173 C1202 0.950 . S
H1174 C1204 0.950 . S
H1175 C1205 0.950 . S
C1176 H1158 0.951 . S
C1176 C1177 1.366 . S
C1176 C1178 1.388 . S
C1177 C1176 1.366 . S
C1177 C1181 1.385 . S
C1178 H1159 0.951 . S
C1178 C1176 1.388 . S
C1178 C1179 1.366 . S
C1179 C1178 1.366 . S
C1179 C1180 1.414 . S
C1179 C1182 1.499 . S
C1180 H1160 0.950 . S
C1180 C1179 1.414 . S
C1180 C1181 1.374 . S
C1181 H1161 0.950 . S
C1181 C1177 1.385 . S
C1181 C1180 1.374 . S
C1182 C1179 1.499 . S
C1182 C1183 1.373 . S
C1182 C1184 1.389 1_565 S
C1183 H1162 0.950 . S
C1183 C1182 1.373 . S
C1183 C1199 1.377 1_565 S
C1184 C1182 1.389 1_545 S
C1184 C1185 1.524 . S
C1184 C1198 1.377 . S
C1185 C1184 1.524 . S
C1185 C1186 1.397 . S
C1185 C1190 1.363 . S
C1186 H1163 0.950 1_545 S
C1186 C1185 1.397 . S
C1186 C1187 1.334 . S
C1187 H1164 0.950 1_545 S
C1187 C1186 1.334 . S
C1187 C1188 1.287 . S
C1188 C1187 1.287 . S
C1188 C1189 1.524 . S
C1188 H1207 0.913 . S
C1189 H1165 0.950 . S
C1189 C1188 1.524 . S
C1189 C1190 1.415 . S
C1190 H1166 0.950 . S
C1190 C1185 1.363 . S
C1190 C1189 1.415 . S
C1191 H1167 0.951 . S
C1191 C1192 1.366 . S
C1191 C1193 1.388 . S
C1192 C1191 1.366 . S
C1192 C1196 1.385 . S
C1193 H1168 0.951 . S
C1193 C1191 1.388 . S
C1193 C1194 1.366 . S
C1194 C1193 1.366 . S
C1194 C1195 1.414 . S
C1194 C1197 1.499 . S
C1195 H1169 0.950 . S
C1195 C1194 1.414 . S
C1195 C1196 1.374 . S
C1196 H1170 0.950 . S
C1196 C1192 1.385 . S
C1196 C1195 1.374 . S
C1197 C1194 1.499 . S
C1197 C1198 1.373 . S
C1197 C1199 1.389 . S
C1198 H1171 0.950 . S
C1198 C1184 1.377 . S
C1198 C1197 1.373 . S
C1199 C1183 1.377 1_545 S
C1199 C1197 1.389 . S
C1199 C1200 1.524 1_545 S
C1200 C1199 1.524 1_565 S
C1200 C1201 1.397 1_565 S
C1200 C1205 1.363 . S
C1201 H1172 0.950 . S
C1201 C1200 1.397 1_545 S
C1201 C1202 1.334 . S
C1202 H1173 0.950 . S
C1202 C1201 1.334 . S
C1202 C1203 1.287 1_545 S
C1203 C1202 1.287 1_565 S
C1203 C1204 1.524 . S
C1203 H1206 0.999 . S
C1204 H1174 0.950 . S
C1204 C1203 1.524 . S
C1204 C1205 1.415 . S
C1205 H1175 0.950 . S
C1205 C1200 1.363 . S
C1205 C1204 1.415 . S
H1206 C1203 0.999 . S
H1207 C1188 0.913 . S
H1208 C1226 0.951 . S
H1209 C1228 0.951 . S
H1210 C1230 0.950 . S
H1211 C1231 0.950 . S
H1212 C1233 0.950 . S
H1213 C1236 0.950 . S
H1214 C1237 0.950 . S
H1215 C1239 0.950 . S
H1216 C1240 0.979 . S
H1217 C1241 0.951 . S
H1218 C1243 0.951 . S
H1219 C1245 0.950 . S
H1220 C1246 0.950 . S
H1221 C1248 0.950 . S
H1222 C1251 0.950 . S
H1223 C1252 0.950 . S
H1224 C1254 0.950 . S
H1225 C1255 0.989 . S
C1226 H1208 0.951 . S
C1226 C1227 1.366 . S
C1226 C1228 1.388 . S
C1227 C1226 1.366 . S
C1227 C1231 1.385 . S
C1228 H1209 0.951 . S
C1228 C1226 1.388 . S
C1228 C1229 1.366 . S
C1229 C1228 1.366 . S
C1229 C1230 1.414 . S
C1229 C1232 1.499 . S
C1230 H1210 0.950 . S
C1230 C1229 1.414 . S
C1230 C1231 1.374 . S
C1231 H1211 0.950 . S
C1231 C1227 1.385 . S
C1231 C1230 1.374 . S
C1232 C1229 1.499 . S
C1232 C1233 1.373 . S
C1232 C1234 1.389 . S
C1233 H1212 0.950 . S
C1233 C1232 1.373 . S
C1233 C1249 1.377 1_455 S
C1234 C1232 1.389 . S
C1234 C1235 1.524 . S
C1234 C1248 1.377 1_455 S
C1235 C1234 1.524 . S
C1235 C1236 1.397 . S
C1235 C1240 1.363 . S
C1236 H1213 0.950 . S
C1236 C1235 1.397 . S
C1236 C1237 1.334 . S
C1237 H1214 0.950 . S
C1237 C1236 1.334 . S
C1237 C1238 1.287 . S
C1238 C1237 1.287 . S
C1238 C1239 1.524 . S
C1238 H1257 0.913 . S
C1239 H1215 0.950 . S
C1239 C1238 1.524 . S
C1239 C1240 1.415 . S
C1240 H1216 0.979 . S
C1240 C1235 1.363 . S
C1240 C1239 1.415 . S
C1241 H1217 0.951 . S
C1241 C1242 1.366 . S
C1241 C1243 1.388 . S
C1242 C1241 1.366 . S
C1242 C1246 1.385 . S
C1243 H1218 0.951 . S
C1243 C1241 1.388 . S
C1243 C1244 1.366 . S
C1244 C1243 1.366 . S
C1244 C1245 1.414 . S
C1244 C1247 1.499 . S
C1245 H1219 0.950 . S
C1245 C1244 1.414 . S
C1245 C1246 1.374 . S
C1246 H1220 0.950 . S
C1246 C1242 1.385 . S
C1246 C1245 1.374 . S
C1247 C1244 1.499 . S
C1247 C1248 1.373 . S
C1247 C1249 1.389 . S
C1248 H1221 0.950 . S
C1248 C1234 1.377 1_655 S
C1248 C1247 1.373 . S
C1249 C1233 1.377 1_655 S
C1249 C1247 1.389 . S
C1249 C1250 1.524 . S
C1250 C1249 1.524 . S
C1250 C1251 1.397 . S
C1250 C1255 1.363 . S
C1251 H1222 0.950 . S
C1251 C1250 1.397 . S
C1251 C1252 1.334 . S
C1252 H1223 0.950 . S
C1252 C1251 1.334 . S
C1252 C1253 1.287 . S
C1253 C1252 1.287 . S
C1253 C1254 1.524 . S
C1253 H1256 0.999 . S
C1254 H1224 0.950 . S
C1254 C1253 1.524 . S
C1254 C1255 1.415 . S
C1255 H1225 0.989 . S
C1255 C1250 1.363 . S
C1255 C1254 1.415 . S
H1256 C1253 0.999 . S
H1257 C1238 0.913 . S
H1258 C1276 0.951 . S
H1259 C1278 0.951 . S
H1260 C1280 0.950 . S
H1261 C1281 0.950 . S
H1262 C1283 0.950 . S
H1263 C1286 0.950 . S
H1264 C1287 0.950 . S
H1265 C1289 0.950 . S
H1266 C1290 0.950 . S
H1267 C1291 0.951 . S
H1268 C1293 0.951 . S
H1269 C1295 0.950 . S
H1270 C1296 0.950 . S
H1271 C1298 0.950 . S
H1272 C1301 0.950 . S
H1273 C1302 0.950 . S
H1274 C1304 0.950 . S
H1275 C1305 0.950 . S
C1276 H1258 0.951 . S
C1276 C1277 1.366 . S
C1276 C1278 1.388 . S
C1277 C1276 1.366 . S
C1277 C1281 1.385 . S
C1278 H1259 0.951 . S
C1278 C1276 1.388 . S
C1278 C1279 1.366 . S
C1279 C1278 1.366 . S
C1279 C1280 1.414 . S
C1279 C1282 1.499 . S
C1280 H1260 0.950 . S
C1280 C1279 1.414 . S
C1280 C1281 1.374 . S
C1281 H1261 0.950 . S
C1281 C1277 1.385 . S
C1281 C1280 1.374 . S
C1282 C1279 1.499 . S
C1282 C1283 1.373 . S
C1282 C1284 1.389 . S
C1283 H1262 0.950 . S
C1283 C1282 1.373 . S
C1283 C1299 1.377 . S
C1284 C1282 1.389 . S
C1284 C1285 1.524 . S
C1284 C1298 1.377 . S
C1285 C1284 1.524 . S
C1285 C1286 1.397 . S
C1285 C1290 1.363 . S
C1286 H1263 0.950 . S
C1286 C1285 1.397 . S
C1286 C1287 1.334 . S
C1287 H1264 0.950 . S
C1287 C1286 1.334 . S
C1287 C1288 1.287 . S
C1288 C1287 1.287 . S
C1288 C1289 1.524 . S
C1288 H1307 0.913 . S
C1289 H1265 0.950 . S
C1289 C1288 1.524 . S
C1289 C1290 1.415 . S
C1290 H1266 0.950 . S
C1290 C1285 1.363 . S
C1290 C1289 1.415 . S
C1291 H1267 0.951 . S
C1291 C1292 1.366 . S
C1291 C1293 1.388 . S
C1292 C1291 1.366 . S
C1292 C1296 1.385 . S
C1293 H1268 0.951 . S
C1293 C1291 1.388 . S
C1293 C1294 1.366 . S
C1294 C1293 1.366 . S
C1294 C1295 1.414 . S
C1294 C1297 1.499 . S
C1295 H1269 0.950 . S
C1295 C1294 1.414 . S
C1295 C1296 1.374 . S
C1296 H1270 0.950 . S
C1296 C1292 1.385 . S
C1296 C1295 1.374 . S
C1297 C1294 1.499 . S
C1297 C1298 1.373 . S
C1297 C1299 1.389 . S
C1298 H1271 0.950 . S
C1298 C1284 1.377 . S
C1298 C1297 1.373 . S
C1299 C1283 1.377 . S
C1299 C1297 1.389 . S
C1299 C1300 1.524 . S
C1300 C1299 1.524 . S
C1300 C1301 1.397 . S
C1300 C1305 1.363 . S
C1301 H1272 0.950 . S
C1301 C1300 1.397 . S
C1301 C1302 1.334 . S
C1302 H1273 0.950 . S
C1302 C1301 1.334 . S
C1302 C1303 1.287 . S
C1303 C1302 1.287 . S
C1303 C1304 1.524 . S
C1303 H1306 0.999 . S
C1304 H1274 0.950 . S
C1304 C1303 1.524 . S
C1304 C1305 1.415 . S
C1305 H1275 0.950 . S
C1305 C1300 1.363 . S
C1305 C1304 1.415 . S
H1306 C1303 0.999 . S
H1307 C1288 0.913 . S
H1308 C1326 0.951 . S
H1309 C1328 0.951 . S
H1310 C1330 0.950 . S
H1311 C1331 0.950 . S
H1312 C1333 0.950 . S
H1313 C1336 0.950 . S
H1314 C1337 0.950 . S
H1315 C1339 0.950 . S
H1316 C1340 0.950 . S
H1317 C1341 0.951 . S
H1318 C1343 0.951 . S
H1319 C1345 0.950 . S
H1320 C1346 0.950 . S
H1321 C1348 0.950 1_655 S
H1322 C1351 0.950 . S
H1323 C1352 0.950 . S
H1324 C1354 0.950 . S
H1325 C1355 0.950 . S
C1326 H1308 0.951 . S
C1326 C1327 1.366 . S
C1326 C1328 1.388 . S
C1327 C1326 1.366 . S
C1327 C1331 1.385 . S
C1328 H1309 0.951 . S
C1328 C1326 1.388 . S
C1328 C1329 1.366 . S
C1329 C1328 1.366 . S
C1329 C1330 1.414 . S
C1329 C1332 1.499 . S
C1330 H1310 0.950 . S
C1330 C1329 1.414 . S
C1330 C1331 1.374 . S
C1331 H1311 0.950 . S
C1331 C1327 1.385 . S
C1331 C1330 1.374 . S
C1332 C1329 1.499 . S
C1332 C1333 1.373 1_655 S
C1332 C1334 1.389 . S
C1333 H1312 0.950 . S
C1333 C1332 1.373 1_455 S
C1333 C1349 1.377 . S
C1334 C1332 1.389 . S
C1334 C1335 1.524 . S
C1334 C1348 1.376 1_655 S
C1335 C1334 1.524 . S
C1335 C1336 1.397 . S
C1335 C1340 1.363 . S
C1336 H1313 0.950 . S
C1336 C1335 1.397 . S
C1336 C1337 1.334 . S
C1337 H1314 0.950 . S
C1337 C1336 1.334 . S
C1337 C1338 1.287 . S
C1338 C1337 1.287 . S
C1338 C1339 1.524 . S
C1338 H1357 0.913 . S
C1339 H1315 0.950 . S
C1339 C1338 1.524 . S
C1339 C1340 1.415 . S
C1340 H1316 0.950 . S
C1340 C1335 1.363 . S
C1340 C1339 1.415 . S
C1341 H1317 0.951 . S
C1341 C1342 1.366 . S
C1341 C1343 1.388 . S
C1342 C1341 1.366 . S
C1342 C1346 1.385 . S
C1343 H1318 0.951 . S
C1343 C1341 1.388 . S
C1343 C1344 1.366 . S
C1344 C1343 1.366 . S
C1344 C1345 1.414 . S
C1344 C1347 1.499 . S
C1345 H1319 0.950 . S
C1345 C1344 1.414 . S
C1345 C1346 1.374 . S
C1346 H1320 0.950 . S
C1346 C1342 1.385 . S
C1346 C1345 1.374 . S
C1347 C1344 1.499 . S
C1347 C1348 1.374 . S
C1347 C1349 1.389 . S
C1348 H1321 0.950 1_455 S
C1348 C1334 1.376 1_455 S
C1348 C1347 1.374 . S
C1349 C1333 1.377 . S
C1349 C1347 1.389 . S
C1349 C1350 1.524 . S
C1350 C1349 1.524 . S
C1350 C1351 1.397 . S
C1350 C1355 1.363 . S
C1351 H1322 0.950 . S
C1351 C1350 1.397 . S
C1351 C1352 1.334 . S
C1352 H1323 0.950 . S
C1352 C1351 1.334 . S
C1352 C1353 1.287 . S
C1353 C1352 1.287 . S
C1353 C1354 1.524 . S
C1353 H1356 0.999 . S
C1354 H1324 0.950 . S
C1354 C1353 1.524 . S
C1354 C1355 1.415 . S
C1355 H1325 0.950 . S
C1355 C1350 1.363 . S
C1355 C1354 1.415 . S
H1356 C1353 0.999 . S
H1357 C1338 0.913 . S
H1358 C1376 0.951 . S
H1359 C1378 0.951 . S
H1360 C1380 0.950 . S
H1361 C1381 0.950 . S
H1362 C1383 0.950 . S
H1363 C1386 0.950 . S
H1364 C1387 0.950 . S
H1365 C1389 0.950 . S
H1366 C1390 0.950 . S
H1367 C1391 0.951 . S
H1368 C1393 0.951 . S
H1369 C1395 0.950 . S
H1370 C1396 0.950 . S
H1371 C1398 0.950 . S
H1372 C1401 0.950 . S
H1373 C1402 0.950 . S
H1374 C1404 0.950 . S
H1375 C1405 0.950 . S
C1376 H1358 0.951 . S
C1376 C1377 1.366 . S
C1376 C1378 1.388 . S
C1377 C1376 1.366 . S
C1377 C1381 1.385 . S
C1378 H1359 0.951 . S
C1378 C1376 1.388 . S
C1378 C1379 1.366 . S
C1379 C1378 1.366 . S
C1379 C1380 1.414 . S
C1379 C1382 1.499 . S
C1380 H1360 0.950 . S
C1380 C1379 1.414 . S
C1380 C1381 1.374 . S
C1381 H1361 0.950 . S
C1381 C1377 1.385 . S
C1381 C1380 1.374 . S
C1382 C1379 1.499 . S
C1382 C1383 1.373 . S
C1382 C1384 1.389 . S
C1383 H1362 0.950 . S
C1383 C1382 1.373 . S
C1383 C1399 1.377 . S
C1384 C1382 1.389 . S
C1384 C1385 1.524 . S
C1384 C1398 1.377 . S
C1385 C1384 1.524 . S
C1385 C1386 1.397 . S
C1385 C1390 1.363 . S
C1386 H1363 0.950 . S
C1386 C1385 1.397 . S
C1386 C1387 1.334 . S
C1387 H1364 0.950 . S
C1387 C1386 1.334 . S
C1387 C1388 1.287 . S
C1388 C1387 1.287 . S
C1388 C1389 1.524 . S
C1388 H1407 0.913 . S
C1389 H1365 0.950 . S
C1389 C1388 1.524 . S
C1389 C1390 1.415 . S
C1390 H1366 0.950 . S
C1390 C1385 1.363 . S
C1390 C1389 1.415 . S
C1391 H1367 0.951 . S
C1391 C1392 1.366 . S
C1391 C1393 1.388 . S
C1392 C1391 1.366 . S
C1392 C1396 1.385 . S
C1393 H1368 0.951 . S
C1393 C1391 1.388 . S
C1393 C1394 1.366 . S
C1394 C1393 1.366 . S
C1394 C1395 1.414 . S
C1394 C1397 1.499 . S
C1395 H1369 0.950 . S
C1395 C1394 1.414 . S
C1395 C1396 1.374 . S
C1396 H1370 0.950 . S
C1396 C1392 1.385 . S
C1396 C1395 1.374 . S
C1397 C1394 1.499 . S
C1397 C1398 1.373 . S
C1397 C1399 1.389 . S
C1398 H1371 0.950 . S
C1398 C1384 1.377 . S
C1398 C1397 1.373 . S
C1399 C1383 1.377 . S
C1399 C1397 1.389 . S
C1399 C1400 1.524 . S
C1400 C1399 1.524 . S
C1400 C1401 1.397 . S
C1400 C1405 1.363 . S
C1401 H1372 0.950 . S
C1401 C1400 1.397 . S
C1401 C1402 1.334 . S
C1402 H1373 0.950 . S
C1402 C1401 1.334 . S
C1402 C1403 1.287 . S
C1403 C1402 1.287 . S
C1403 C1404 1.524 . S
C1403 H1406 0.999 . S
C1404 H1374 0.950 . S
C1404 C1403 1.524 . S
C1404 C1405 1.415 . S
C1405 H1375 0.950 . S
C1405 C1400 1.363 . S
C1405 C1404 1.415 . S
H1406 C1403 0.999 . S
H1407 C1388 0.913 . S
H1408 C1426 0.951 . S
H1409 C1428 0.951 . S
H1410 C1430 0.950 . S
H1411 C1431 0.950 . S
H1412 C1433 0.950 . S
H1413 C1436 0.950 . S
H1414 C1437 0.950 . S
H1415 C1439 0.950 . S
H1416 C1440 0.950 . S
H1417 C1441 0.951 . S
H1418 C1443 0.951 . S
H1419 C1445 0.950 . S
H1420 C1446 0.950 . S
H1421 C1448 0.925 1_565 S
H1422 C1451 0.950 . S
H1423 C1452 0.950 . S
H1424 C1454 0.994 . S
H1425 C1455 0.950 . S
C1426 H1408 0.951 . S
C1426 C1427 1.366 . S
C1426 C1428 1.388 . S
C1427 C1426 1.366 . S
C1427 C1431 1.385 . S
C1428 H1409 0.951 . S
C1428 C1426 1.388 . S
C1428 C1429 1.366 . S
C1429 C1428 1.366 . S
C1429 C1430 1.414 . S
C1429 C1432 1.499 . S
C1430 H1410 0.950 . S
C1430 C1429 1.414 . S
C1430 C1431 1.374 . S
C1431 H1411 0.950 . S
C1431 C1427 1.385 . S
C1431 C1430 1.374 . S
C1432 C1429 1.499 . S
C1432 C1433 1.373 . S
C1432 C1434 1.389 . S
C1433 H1412 0.950 . S
C1433 C1432 1.373 . S
C1433 C1449 1.377 1_545 S
C1434 C1432 1.389 . S
C1434 C1435 1.524 . S
C1434 C1448 1.400 . S
C1435 C1434 1.524 . S
C1435 C1436 1.397 . S
C1435 C1440 1.363 . S
C1436 H1413 0.950 . S
C1436 C1435 1.397 . S
C1436 C1437 1.334 . S
C1437 H1414 0.950 . S
C1437 C1436 1.334 . S
C1437 C1438 1.287 . S
C1438 C1437 1.287 . S
C1438 C1439 1.524 . S
C1438 H1457 0.913 . S
C1439 H1415 0.950 . S
C1439 C1438 1.524 . S
C1439 C1440 1.415 . S
C1440 H1416 0.950 . S
C1440 C1435 1.363 . S
C1440 C1439 1.415 . S
C1441 H1417 0.951 . S
C1441 C1442 1.366 . S
C1441 C1443 1.388 . S
C1442 C1441 1.366 . S
C1442 C1446 1.385 . S
C1443 H1418 0.951 . S
C1443 C1441 1.388 . S
C1443 C1444 1.366 . S
C1444 C1443 1.366 . S
C1444 C1445 1.414 . S
C1444 C1447 1.499 . S
C1445 H1419 0.950 . S
C1445 C1444 1.414 . S
C1445 C1446 1.374 . S
C1446 H1420 0.950 . S
C1446 C1442 1.385 . S
C1446 C1445 1.374 . S
C1447 C1444 1.499 . S
C1447 C1448 1.376 1_565 S
C1447 C1449 1.389 . S
C1448 H1421 0.925 1_545 S
C1448 C1434 1.400 . S
C1448 C1447 1.376 1_545 S
C1449 C1433 1.377 1_565 S
C1449 C1447 1.389 . S
C1449 C1450 1.524 . S
C1450 C1449 1.524 . S
C1450 C1451 1.397 . S
C1450 C1455 1.363 1_565 S
C1451 H1422 0.950 . S
C1451 C1450 1.397 . S
C1451 C1452 1.334 . S
C1452 H1423 0.950 . S
C1452 C1451 1.334 . S
C1452 C1453 1.287 . S
C1453 C1452 1.287 . S
C1453 C1454 1.524 . S
C1453 H1456 0.999 . S
C1454 H1424 0.994 . S
C1454 C1453 1.524 . S
C1454 C1455 1.415 1_565 S
C1455 H1425 0.950 . S
C1455 C1450 1.363 1_545 S
C1455 C1454 1.415 1_545 S
H1456 C1453 0.999 . S
H1457 C1438 0.913 . S
H1458 C1476 0.951 . S
H1459 C1478 0.951 . S
H1460 C1480 0.950 . S
H1461 C1481 0.950 . S
H1462 C1483 0.950 . S
H1463 C1486 0.950 . S
H1464 C1487 0.950 . S
H1465 C1489 0.950 . S
H1466 C1490 0.950 . S
H1467 C1491 0.951 . S
H1468 C1493 0.951 . S
H1469 C1495 0.950 1_455 S
H1470 C1496 0.950 . S
H1471 C1498 0.950 . S
H1472 C1501 0.950 . S
H1473 C1502 0.950 . S
H1474 C1504 0.950 . S
H1475 C1505 0.950 . S
C1476 H1458 0.951 . S
C1476 C1477 1.366 . S
C1476 C1478 1.388 . S
C1477 C1476 1.366 . S
C1477 C1481 1.385 . S
C1478 H1459 0.951 . S
C1478 C1476 1.388 . S
C1478 C1479 1.366 . S
C1479 C1478 1.366 . S
C1479 C1480 1.414 . S
C1479 C1482 1.499 . S
C1480 H1460 0.950 . S
C1480 C1479 1.414 . S
C1480 C1481 1.374 . S
C1481 H1461 0.950 . S
C1481 C1477 1.385 . S
C1481 C1480 1.374 . S
C1482 C1479 1.499 . S
C1482 C1483 1.373 1_455 S
C1482 C1484 1.389 . S
C1483 H1462 0.950 . S
C1483 C1482 1.373 1_655 S
C1483 C1499 1.377 1_556 S
C1484 C1482 1.389 . S
C1484 C1485 1.524 . S
C1484 C1498 1.377 1_556 S
C1485 C1484 1.524 . S
C1485 C1486 1.397 . S
C1485 C1490 1.363 . S
C1486 H1463 0.950 . S
C1486 C1485 1.397 . S
C1486 C1487 1.334 . S
C1487 H1464 0.950 . S
C1487 C1486 1.334 . S
C1487 C1488 1.287 . S
C1488 C1487 1.287 . S
C1488 C1489 1.524 . S
C1488 H1507 0.913 . S
C1489 H1465 0.950 . S
C1489 C1488 1.524 . S
C1489 C1490 1.415 . S
C1490 H1466 0.950 . S
C1490 C1485 1.363 . S
C1490 C1489 1.415 . S
C1491 H1467 0.951 . S
C1491 C1492 1.366 . S
C1491 C1493 1.388 . S
C1492 C1491 1.366 . S
C1492 C1496 1.385 . S
C1493 H1468 0.951 . S
C1493 C1491 1.388 . S
C1493 C1494 1.366 . S
C1494 C1493 1.366 . S
C1494 C1495 1.416 . S
C1494 C1497 1.499 1_655 S
C1495 H1469 0.950 1_655 S
C1495 C1494 1.416 . S
C1495 C1496 1.372 . S
C1496 H1470 0.950 . S
C1496 C1492 1.385 . S
C1496 C1495 1.372 . S
C1497 C1494 1.499 1_455 S
C1497 C1498 1.373 . S
C1497 C1499 1.389 1_455 S
C1498 H1471 0.950 . S
C1498 C1484 1.377 1_554 S
C1498 C1497 1.373 . S
C1499 C1483 1.377 1_554 S
C1499 C1497 1.389 1_655 S
C1499 C1500 1.524 . S
C1500 C1499 1.524 . S
C1500 C1501 1.397 . S
C1500 C1505 1.363 . S
C1501 H1472 0.950 . S
C1501 C1500 1.397 . S
C1501 C1502 1.334 . S
C1502 H1473 0.950 . S
C1502 C1501 1.334 . S
C1502 C1503 1.287 . S
C1503 C1502 1.287 . S
C1503 C1504 1.524 . S
C1503 H1506 0.999 . S
C1504 H1474 0.950 . S
C1504 C1503 1.524 . S
C1504 C1505 1.415 . S
C1505 H1475 0.950 . S
C1505 C1500 1.363 . S
C1505 C1504 1.415 . S
H1506 C1503 0.999 . S
H1507 C1488 0.913 . S
H1508 C1526 0.951 . S
H1509 C1528 0.951 . S
H1510 C1530 0.950 . S
H1511 C1531 0.950 . S
H1512 C1533 0.950 . S
H1513 C1536 0.950 . S
H1514 C1537 0.950 . S
H1515 C1539 0.950 . S
H1516 C1540 0.950 1_554 S
H1517 C1541 0.951 . S
H1518 C1543 0.951 . S
H1519 C1545 0.950 . S
H1520 C1546 0.950 . S
H1521 C1548 0.950 . S
H1522 C1551 0.950 . S
H1523 C1552 0.950 . S
H1524 C1554 0.950 . S
H1525 C1555 0.950 . S
C1526 H1508 0.951 . S
C1526 C1527 1.366 . S
C1526 C1528 1.388 . S
C1527 C1526 1.366 . S
C1527 C1531 1.385 . S
C1528 H1509 0.951 . S
C1528 C1526 1.388 . S
C1528 C1529 1.366 . S
C1529 C1528 1.366 . S
C1529 C1530 1.414 . S
C1529 C1532 1.499 . S
C1530 H1510 0.950 . S
C1530 C1529 1.414 . S
C1530 C1531 1.374 . S
C1531 H1511 0.950 . S
C1531 C1527 1.385 . S
C1531 C1530 1.374 . S
C1532 C1529 1.499 . S
C1532 C1533 1.373 . S
C1532 C1534 1.389 . S
C1533 H1512 0.950 . S
C1533 C1532 1.373 . S
C1533 C1549 1.377 1_556 S
C1534 C1532 1.389 . S
C1534 C1535 1.524 . S
C1534 C1548 1.377 1_556 S
C1535 C1534 1.524 . S
C1535 C1536 1.397 . S
C1535 C1540 1.363 . S
C1536 H1513 0.950 . S
C1536 C1535 1.397 . S
C1536 C1537 1.334 . S
C1537 H1514 0.950 . S
C1537 C1536 1.334 . S
C1537 C1538 1.287 . S
C1538 C1537 1.287 . S
C1538 C1539 1.524 . S
C1538 H1557 0.913 . S
C1539 H1515 0.950 . S
C1539 C1538 1.524 . S
C1539 C1540 1.415 . S
C1540 H1516 0.950 1_556 S
C1540 C1535 1.363 . S
C1540 C1539 1.415 . S
C1541 H1517 0.951 . S
C1541 C1542 1.366 . S
C1541 C1543 1.388 . S
C1542 C1541 1.366 . S
C1542 C1546 1.385 . S
C1543 H1518 0.951 . S
C1543 C1541 1.388 . S
C1543 C1544 1.366 . S
C1544 C1543 1.366 . S
C1544 C1545 1.414 . S
C1544 C1547 1.499 . S
C1545 H1519 0.950 . S
C1545 C1544 1.414 . S
C1545 C1546 1.374 . S
C1546 H1520 0.950 . S
C1546 C1542 1.385 . S
C1546 C1545 1.374 . S
C1547 C1544 1.499 . S
C1547 C1548 1.373 . S
C1547 C1549 1.389 . S
C1548 H1521 0.950 . S
C1548 C1534 1.377 1_554 S
C1548 C1547 1.373 . S
C1549 C1533 1.377 1_554 S
C1549 C1547 1.389 . S
C1549 C1550 1.524 . S
C1550 C1549 1.524 . S
C1550 C1551 1.397 . S
C1550 C1555 1.363 . S
C1551 H1522 0.950 . S
C1551 C1550 1.397 . S
C1551 C1552 1.334 . S
C1552 H1523 0.950 . S
C1552 C1551 1.334 . S
C1552 C1553 1.287 . S
C1553 C1552 1.287 . S
C1553 C1554 1.524 . S
C1553 H1556 0.999 . S
C1554 H1524 0.950 . S
C1554 C1553 1.524 . S
C1554 C1555 1.415 . S
C1555 H1525 0.950 . S
C1555 C1550 1.363 . S
C1555 C1554 1.415 . S
H1556 C1553 0.999 . S
H1557 C1538 0.913 . S
H1558 C1576 0.951 . S
H1559 C1578 0.951 . S
H1560 C1580 0.962 . S
H1561 C1581 0.950 1_565 S
H1562 C1583 0.950 . S
H1563 C1586 0.950 . S
H1564 C1587 0.950 . S
H1565 C1589 0.950 . S
H1566 C1590 0.950 1_556 S
H1567 C1591 0.951 . S
H1568 C1593 0.951 . S
H1569 C1595 0.950 . S
H1570 C1596 0.950 . S
H1571 C1598 0.950 . S
H1572 C1601 0.950 . S
H1573 C1602 0.950 . S
H1574 C1604 0.950 . S
H1575 C1605 0.950 1_554 S
C1576 H1558 0.951 . S
C1576 C1577 1.366 . S
C1576 C1578 1.388 . S
C1577 C1576 1.366 . S
C1577 C1581 1.385 . S
C1578 H1559 0.951 . S
C1578 C1576 1.388 . S
C1578 C1579 1.366 . S
C1579 C1578 1.366 . S
C1579 C1580 1.405 1_545 S
C1579 C1582 1.499 . S
C1580 H1560 0.962 . S
C1580 C1579 1.405 1_565 S
C1580 C1581 1.372 1_565 S
C1581 H1561 0.950 1_545 S
C1581 C1577 1.385 . S
C1581 C1580 1.372 1_545 S
C1582 C1579 1.499 . S
C1582 C1583 1.373 1_545 S
C1582 C1584 1.389 . S
C1583 H1562 0.950 . S
C1583 C1582 1.373 1_565 S
C1583 C1599 1.377 1_554 S
C1584 C1582 1.389 . S
C1584 C1585 1.524 . S
C1584 C1598 1.377 1_554 S
C1585 C1584 1.524 . S
C1585 C1586 1.397 . S
C1585 C1590 1.363 . S
C1586 H1563 0.950 . S
C1586 C1585 1.397 . S
C1586 C1587 1.334 . S
C1587 H1564 0.950 . S
C1587 C1586 1.334 . S
C1587 C1588 1.287 . S
C1588 C1587 1.287 . S
C1588 C1589 1.524 . S
C1588 H1607 0.913 . S
C1589 H1565 0.950 . S
C1589 C1588 1.524 . S
C1589 C1590 1.415 . S
C1590 H1566 0.950 1_554 S
C1590 C1585 1.363 . S
C1590 C1589 1.415 . S
C1591 H1567 0.951 . S
C1591 C1592 1.366 . S
C1591 C1593 1.388 . S
C1592 C1591 1.366 . S
C1592 C1596 1.385 1_565 S
C1593 H1568 0.951 . S
C1593 C1591 1.388 . S
C1593 C1594 1.366 . S
C1594 C1593 1.366 . S
C1594 C1595 1.414 1_565 S
C1594 C1597 1.495 1_565 S
C1595 H1569 0.950 . S
C1595 C1594 1.414 1_545 S
C1595 C1596 1.374 . S
C1596 H1570 0.950 . S
C1596 C1592 1.385 1_545 S
C1596 C1595 1.374 . S
C1597 C1594 1.495 1_545 S
C1597 C1598 1.403 . S
C1597 C1599 1.365 1_545 S
C1598 H1571 0.950 . S
C1598 C1584 1.377 1_556 S
C1598 C1597 1.403 . S
C1599 C1583 1.377 1_556 S
C1599 C1597 1.365 1_565 S
C1599 C1600 1.524 . S
C1600 C1599 1.524 . S
C1600 C1601 1.397 . S
C1600 C1605 1.363 . S
C1601 H1572 0.950 . S
C1601 C1600 1.397 . S
C1601 C1602 1.334 . S
C1602 H1573 0.950 . S
C1602 C1601 1.334 . S
C1602 C1603 1.287 . S
C1603 C1602 1.287 . S
C1603 C1604 1.524 . S
C1603 H1606 0.999 . S
C1604 H1574 0.950 . S
C1604 C1603 1.524 . S
C1604 C1605 1.415 . S
C1605 H1575 0.950 1_556 S
C1605 C1600 1.363 . S
C1605 C1604 1.415 . S
H1606 C1603 0.999 . S
H1607 C1588 0.913 . S
H1608 C1626 0.951 . S
H1609 C1628 0.951 1_565 S
H1610 C1630 0.950 . S
H1611 C1631 0.950 . S
H1612 C1633 0.950 . S
H1613 C1636 0.950 . S
H1614 C1637 0.950 . S
H1615 C1639 0.950 . S
H1616 C1640 0.950 1_565 S
H1617 C1641 0.951 . S
H1618 C1643 0.951 . S
H1619 C1645 0.950 . S
H1620 C1646 0.950 . S
H1621 C1648 0.950 . S
H1622 C1651 0.950 . S
H1623 C1652 0.950 . S
H1624 C1654 0.950 1_545 S
H1625 C1655 0.950 . S
C1626 H1608 0.951 . S
C1626 C1627 1.366 . S
C1626 C1628 1.388 . S
C1627 C1626 1.366 . S
C1627 C1631 1.385 . S
C1628 H1609 0.951 1_545 S
C1628 C1626 1.388 . S
C1628 C1629 1.366 . S
C1629 C1628 1.366 . S
C1629 C1630 1.414 . S
C1629 C1632 1.499 . S
C1630 H1610 0.950 . S
C1630 C1629 1.414 . S
C1630 C1631 1.374 . S
C1631 H1611 0.950 . S
C1631 C1627 1.385 . S
C1631 C1630 1.374 . S
C1632 C1629 1.499 . S
C1632 C1633 1.373 . S
C1632 C1634 1.389 . S
C1633 H1612 0.950 . S
C1633 C1632 1.373 . S
C1633 C1649 1.377 1_545 S
C1634 C1632 1.389 . S
C1634 C1635 1.524 . S
C1634 C1648 1.377 . S
C1635 C1634 1.524 . S
C1635 C1636 1.397 . S
C1635 C1640 1.363 . S
C1636 H1613 0.950 . S
C1636 C1635 1.397 . S
C1636 C1637 1.334 . S
C1637 H1614 0.950 . S
C1637 C1636 1.334 . S
C1637 C1638 1.287 . S
C1638 C1637 1.287 . S
C1638 C1639 1.524 . S
C1638 H1657 0.913 . S
C1639 H1615 0.950 . S
C1639 C1638 1.524 . S
C1639 C1640 1.415 . S
C1640 H1616 0.950 1_545 S
C1640 C1635 1.363 . S
C1640 C1639 1.415 . S
C1641 H1617 0.951 . S
C1641 C1642 1.366 1_545 S
C1641 C1643 1.388 . S
C1642 C1641 1.366 1_565 S
C1642 C1646 1.385 . S
C1643 H1618 0.951 . S
C1643 C1641 1.388 . S
C1643 C1644 1.366 1_545 S
C1644 C1643 1.366 1_565 S
C1644 C1645 1.414 . S
C1644 C1647 1.505 . S
C1645 H1619 0.950 . S
C1645 C1644 1.414 . S
C1645 C1646 1.374 . S
C1646 H1620 0.950 . S
C1646 C1642 1.385 . S
C1646 C1645 1.374 . S
C1647 C1644 1.505 . S
C1647 C1648 1.379 1_565 S
C1647 C1649 1.375 . S
C1648 H1621 0.950 . S
C1648 C1634 1.377 . S
C1648 C1647 1.379 1_545 S
C1649 C1633 1.377 1_565 S
C1649 C1647 1.375 . S
C1649 C1650 1.525 . S
C1650 C1649 1.525 . S
C1650 C1651 1.397 . S
C1650 C1655 1.363 1_565 S
C1651 H1622 0.950 . S
C1651 C1650 1.397 . S
C1651 C1652 1.334 . S
C1652 H1623 0.950 . S
C1652 C1651 1.334 . S
C1652 C1653 1.287 . S
C1653 C1652 1.287 . S
C1653 C1654 1.524 . S
C1653 H1656 0.999 . S
C1654 H1624 0.950 1_565 S
C1654 C1653 1.524 . S
C1654 C1655 1.415 1_565 S
C1655 H1625 0.950 . S
C1655 C1650 1.363 1_545 S
C1655 C1654 1.415 1_545 S
H1656 C1653 0.999 . S
H1657 C1638 0.913 . S
H1658 C1676 0.951 . S
H1659 C1678 0.951 . S
H1660 C1680 0.950 . S
H1661 C1681 0.950 . S
H1662 C1683 0.950 . S
H1663 C1686 0.950 . S
H1664 C1687 0.950 . S
H1665 C1689 0.950 . S
H1666 C1690 0.950 . S
H1667 C1691 0.951 . S
H1668 C1693 0.966 . S
H1669 C1695 0.950 . S
H1670 C1696 0.950 . S
H1671 C1698 0.950 . S
H1672 C1701 0.950 . S
H1673 C1702 0.950 . S
H1674 C1704 0.950 . S
H1675 C1705 0.950 . S
C1676 H1658 0.951 . S
C1676 C1677 1.366 . S
C1676 C1678 1.388 . S
C1677 C1676 1.366 . S
C1677 C1681 1.385 . S
C1678 H1659 0.951 . S
C1678 C1676 1.388 . S
C1678 C1679 1.366 . S
C1679 C1678 1.366 . S
C1679 C1680 1.414 . S
C1679 C1682 1.499 . S
C1680 H1660 0.950 . S
C1680 C1679 1.414 . S
C1680 C1681 1.374 . S
C1681 H1661 0.950 . S
C1681 C1677 1.385 . S
C1681 C1680 1.374 . S
C1682 C1679 1.499 . S
C1682 C1683 1.373 1_455 S
C1682 C1684 1.389 . S
C1683 H1662 0.950 . S
C1683 C1682 1.373 1_655 S
C1683 C1699 1.377 . S
C1684 C1682 1.389 . S
C1684 C1685 1.524 . S
C1684 C1698 1.377 . S
C1685 C1684 1.524 . S
C1685 C1686 1.397 . S
C1685 C1690 1.363 . S
C1686 H1663 0.950 . S
C1686 C1685 1.397 . S
C1686 C1687 1.334 . S
C1687 H1664 0.950 . S
C1687 C1686 1.334 . S
C1687 C1688 1.287 . S
C1688 C1687 1.287 . S
C1688 C1689 1.524 . S
C1688 H1707 0.913 . S
C1689 H1665 0.950 . S
C1689 C1688 1.524 . S
C1689 C1690 1.415 . S
C1690 H1666 0.950 . S
C1690 C1685 1.363 . S
C1690 C1689 1.415 . S
C1691 H1667 0.951 . S
C1691 C1692 1.366 . S
C1691 C1693 1.388 . S
C1692 C1691 1.366 . S
C1692 C1696 1.385 . S
C1693 H1668 0.966 . S
C1693 C1691 1.388 . S
C1693 C1694 1.366 . S
C1694 C1693 1.366 . S
C1694 C1695 1.414 . S
C1694 C1697 1.499 1_655 S
C1695 H1669 0.950 . S
C1695 C1694 1.414 . S
C1695 C1696 1.374 . S
C1696 H1670 0.950 . S
C1696 C1692 1.385 . S
C1696 C1695 1.374 . S
C1697 C1694 1.499 1_455 S
C1697 C1698 1.373 . S
C1697 C1699 1.389 1_455 S
C1698 H1671 0.950 . S
C1698 C1684 1.377 . S
C1698 C1697 1.373 . S
C1699 C1683 1.377 . S
C1699 C1697 1.389 1_655 S
C1699 C1700 1.524 . S
C1700 C1699 1.524 . S
C1700 C1701 1.397 . S
C1700 C1705 1.363 . S
C1701 H1672 0.950 . S
C1701 C1700 1.397 . S
C1701 C1702 1.334 . S
C1702 H1673 0.950 . S
C1702 C1701 1.334 . S
C1702 C1703 1.287 . S
C1703 C1702 1.287 . S
C1703 C1704 1.524 . S
C1703 H1706 0.999 . S
C1704 H1674 0.950 . S
C1704 C1703 1.524 . S
C1704 C1705 1.415 . S
C1705 H1675 0.950 . S
C1705 C1700 1.363 . S
C1705 C1704 1.415 . S
H1706 C1703 0.999 . S
H1707 C1688 0.913 . S
H1708 C1726 0.951 . S
H1709 C1728 0.951 . S
H1710 C1730 0.950 . S
H1711 C1731 0.950 . S
H1712 C1733 0.950 . S
H1713 C1736 0.950 . S
H1714 C1737 0.950 . S
H1715 C1739 0.950 . S
H1716 C1740 0.950 . S
H1717 C1741 0.951 . S
H1718 C1743 0.951 . S
H1719 C1745 0.950 . S
H1720 C1746 0.950 . S
H1721 C1748 0.950 . S
H1722 C1751 0.950 . S
H1723 C1752 0.950 . S
H1724 C1754 0.950 . S
H1725 C1755 0.950 . S
C1726 H1708 0.951 . S
C1726 C1727 1.366 . S
C1726 C1728 1.388 . S
C1727 C1726 1.366 . S
C1727 C1731 1.385 . S
C1728 H1709 0.951 . S
C1728 C1726 1.388 . S
C1728 C1729 1.366 . S
C1729 C1728 1.366 . S
C1729 C1730 1.414 . S
C1729 C1732 1.499 . S
C1730 H1710 0.950 . S
C1730 C1729 1.414 . S
C1730 C1731 1.374 . S
C1731 H1711 0.950 . S
C1731 C1727 1.385 . S
C1731 C1730 1.374 . S
C1732 C1729 1.499 . S
C1732 C1733 1.373 . S
C1732 C1734 1.389 . S
C1733 H1712 0.950 . S
C1733 C1732 1.373 . S
C1733 C1749 1.377 . S
C1734 C1732 1.389 . S
C1734 C1735 1.524 . S
C1734 C1748 1.377 . S
C1735 C1734 1.524 . S
C1735 C1736 1.397 . S
C1735 C1740 1.363 . S
C1736 H1713 0.950 . S
C1736 C1735 1.397 . S
C1736 C1737 1.334 . S
C1737 H1714 0.950 . S
C1737 C1736 1.334 . S
C1737 C1738 1.287 . S
C1738 C1737 1.287 . S
C1738 C1739 1.524 . S
C1738 H1757 0.913 . S
C1739 H1715 0.950 . S
C1739 C1738 1.524 . S
C1739 C1740 1.415 . S
C1740 H1716 0.950 . S
C1740 C1735 1.363 . S
C1740 C1739 1.415 . S
C1741 H1717 0.951 . S
C1741 C1742 1.366 . S
C1741 C1743 1.388 . S
C1742 C1741 1.366 . S
C1742 C1746 1.385 . S
C1743 H1718 0.951 . S
C1743 C1741 1.388 . S
C1743 C1744 1.366 . S
C1744 C1743 1.366 . S
C1744 C1745 1.414 . S
C1744 C1747 1.499 . S
C1745 H1719 0.950 . S
C1745 C1744 1.414 . S
C1745 C1746 1.374 . S
C1746 H1720 0.950 . S
C1746 C1742 1.385 . S
C1746 C1745 1.374 . S
C1747 C1744 1.499 . S
C1747 C1748 1.373 . S
C1747 C1749 1.389 . S
C1748 H1721 0.950 . S
C1748 C1734 1.377 . S
C1748 C1747 1.373 . S
C1749 C1733 1.377 . S
C1749 C1747 1.389 . S
C1749 C1750 1.524 . S
C1750 C1749 1.524 . S
C1750 C1751 1.397 . S
C1750 C1755 1.363 . S
C1751 H1722 0.950 . S
C1751 C1750 1.397 . S
C1751 C1752 1.334 . S
C1752 H1723 0.950 . S
C1752 C1751 1.334 . S
C1752 C1753 1.287 . S
C1753 C1752 1.287 . S
C1753 C1754 1.524 . S
C1753 H1756 0.999 . S
C1754 H1724 0.950 . S
C1754 C1753 1.524 . S
C1754 C1755 1.415 . S
C1755 H1725 0.950 . S
C1755 C1750 1.363 . S
C1755 C1754 1.415 . S
H1756 C1753 0.999 . S
H1757 C1738 0.913 . S
H1758 C1776 0.951 . S
H1759 C1778 0.951 . S
H1760 C1780 0.950 . S
H1761 C1781 0.950 . S
H1762 C1783 0.950 . S
H1763 C1786 0.950 . S
H1764 C1787 0.950 . S
H1765 C1789 0.950 . S
H1766 C1790 0.950 . S
H1767 C1791 0.951 . S
H1768 C1793 0.951 . S
H1769 C1795 0.950 . S
H1770 C1796 0.950 . S
H1771 C1798 0.950 . S
H1772 C1801 0.950 . S
H1773 C1802 0.950 . S
H1774 C1804 0.950 . S
H1775 C1805 0.950 . S
C1776 H1758 0.951 . S
C1776 C1777 1.366 . S
C1776 C1778 1.388 . S
C1777 C1776 1.366 . S
C1777 C1781 1.385 . S
C1778 H1759 0.951 . S
C1778 C1776 1.388 . S
C1778 C1779 1.366 . S
C1779 C1778 1.366 . S
C1779 C1780 1.414 . S
C1779 C1782 1.499 . S
C1780 H1760 0.950 . S
C1780 C1779 1.414 . S
C1780 C1781 1.374 . S
C1781 H1761 0.950 . S
C1781 C1777 1.385 . S
C1781 C1780 1.374 . S
C1782 C1779 1.499 . S
C1782 C1783 1.373 . S
C1782 C1784 1.389 . S
C1783 H1762 0.950 . S
C1783 C1782 1.373 . S
C1783 C1799 1.377 . S
C1784 C1782 1.389 . S
C1784 C1785 1.524 . S
C1784 C1798 1.377 . S
C1785 C1784 1.524 . S
C1785 C1786 1.397 . S
C1785 C1790 1.363 . S
C1786 H1763 0.950 . S
C1786 C1785 1.397 . S
C1786 C1787 1.334 . S
C1787 H1764 0.950 . S
C1787 C1786 1.334 . S
C1787 C1788 1.287 . S
C1788 C1787 1.287 . S
C1788 C1789 1.524 . S
C1788 H1807 0.913 . S
C1789 H1765 0.950 . S
C1789 C1788 1.524 . S
C1789 C1790 1.415 . S
C1790 H1766 0.950 . S
C1790 C1785 1.363 . S
C1790 C1789 1.415 . S
C1791 H1767 0.951 . S
C1791 C1792 1.366 . S
C1791 C1793 1.388 . S
C1792 C1791 1.366 . S
C1792 C1796 1.385 . S
C1793 H1768 0.951 . S
C1793 C1791 1.388 . S
C1793 C1794 1.366 . S
C1794 C1793 1.366 . S
C1794 C1795 1.414 . S
C1794 C1797 1.499 . S
C1795 H1769 0.950 . S
C1795 C1794 1.414 . S
C1795 C1796 1.374 . S
C1796 H1770 0.950 . S
C1796 C1792 1.385 . S
C1796 C1795 1.374 . S
C1797 C1794 1.499 . S
C1797 C1798 1.373 . S
C1797 C1799 1.389 . S
C1798 H1771 0.950 . S
C1798 C1784 1.377 . S
C1798 C1797 1.373 . S
C1799 C1783 1.377 . S
C1799 C1797 1.389 . S
C1799 C1800 1.524 . S
C1800 C1799 1.524 . S
C1800 C1801 1.397 . S
C1800 C1805 1.363 . S
C1801 H1772 0.950 . S
C1801 C1800 1.397 . S
C1801 C1802 1.334 . S
C1802 H1773 0.950 . S
C1802 C1801 1.334 . S
C1802 C1803 1.287 . S
C1803 C1802 1.287 . S
C1803 C1804 1.524 . S
C1803 H1806 0.999 . S
C1804 H1774 0.950 . S
C1804 C1803 1.524 . S
C1804 C1805 1.415 . S
C1805 H1775 0.950 . S
C1805 C1800 1.363 . S
C1805 C1804 1.415 . S
H1806 C1803 0.999 . S
H1807 C1788 0.913 . S
H1808 C1826 0.951 . S
H1809 C1828 0.951 . S
H1810 C1830 0.950 . S
H1811 C1831 0.950 . S
H1812 C1833 0.950 . S
H1813 C1836 0.950 . S
H1814 C1837 0.950 . S
H1815 C1839 0.950 . S
H1816 C1840 0.950 . S
H1817 C1841 0.951 . S
H1818 C1843 0.951 . S
H1819 C1845 0.950 . S
H1820 C1846 0.950 . S
H1821 C1848 0.950 . S
H1822 C1851 0.950 . S
H1823 C1852 0.950 . S
H1824 C1854 0.950 . S
H1825 C1855 0.950 . S
C1826 H1808 0.951 . S
C1826 C1827 1.366 . S
C1826 C1828 1.388 . S
C1827 C1826 1.366 . S
C1827 C1831 1.385 . S
C1828 H1809 0.951 . S
C1828 C1826 1.388 . S
C1828 C1829 1.366 . S
C1829 C1828 1.366 . S
C1829 C1830 1.414 . S
C1829 C1832 1.499 . S
C1830 H1810 0.950 . S
C1830 C1829 1.414 . S
C1830 C1831 1.374 . S
C1831 H1811 0.950 . S
C1831 C1827 1.385 . S
C1831 C1830 1.374 . S
C1832 C1829 1.499 . S
C1832 C1833 1.373 . S
C1832 C1834 1.389 . S
C1833 H1812 0.950 . S
C1833 C1832 1.373 . S
C1833 C1849 1.377 . S
C1834 C1832 1.389 . S
C1834 C1835 1.524 . S
C1834 C1848 1.377 . S
C1835 C1834 1.524 . S
C1835 C1836 1.397 . S
C1835 C1840 1.363 . S
C1836 H1813 0.950 . S
C1836 C1835 1.397 . S
C1836 C1837 1.334 . S
C1837 H1814 0.950 . S
C1837 C1836 1.334 . S
C1837 C1838 1.287 . S
C1838 C1837 1.287 . S
C1838 C1839 1.524 . S
C1838 H1857 0.913 . S
C1839 H1815 0.950 . S
C1839 C1838 1.524 . S
C1839 C1840 1.415 . S
C1840 H1816 0.950 . S
C1840 C1835 1.363 . S
C1840 C1839 1.415 . S
C1841 H1817 0.951 . S
C1841 C1842 1.366 . S
C1841 C1843 1.388 . S
C1842 C1841 1.366 . S
C1842 C1846 1.385 . S
C1843 H1818 0.951 . S
C1843 C1841 1.388 . S
C1843 C1844 1.366 . S
C1844 C1843 1.366 . S
C1844 C1845 1.414 . S
C1844 C1847 1.499 . S
C1845 H1819 0.950 . S
C1845 C1844 1.414 . S
C1845 C1846 1.374 . S
C1846 H1820 0.950 . S
C1846 C1842 1.385 . S
C1846 C1845 1.374 . S
C1847 C1844 1.499 . S
C1847 C1848 1.373 . S
C1847 C1849 1.389 . S
C1848 H1821 0.950 . S
C1848 C1834 1.377 . S
C1848 C1847 1.373 . S
C1849 C1833 1.377 . S
C1849 C1847 1.389 . S
C1849 C1850 1.524 . S
C1850 C1849 1.524 . S
C1850 C1851 1.397 . S
C1850 C1855 1.363 . S
C1851 H1822 0.950 . S
C1851 C1850 1.397 . S
C1851 C1852 1.334 . S
C1852 H1823 0.950 . S
C1852 C1851 1.334 . S
C1852 C1853 1.287 . S
C1853 C1852 1.287 . S
C1853 C1854 1.524 . S
C1853 H1856 0.999 . S
C1854 H1824 0.950 . S
C1854 C1853 1.524 . S
C1854 C1855 1.415 . S
C1855 H1825 0.950 . S
C1855 C1850 1.363 . S
C1855 C1854 1.415 . S
H1856 C1853 0.999 . S
H1857 C1838 0.913 . S
H1858 C1876 0.951 . S
H1859 C1878 0.951 . S
H1860 C1880 0.950 . S
H1861 C1881 0.950 . S
H1862 C1883 0.950 . S
H1863 C1886 0.950 . S
H1864 C1887 0.950 . S
H1865 C1889 0.950 . S
H1866 C1890 0.950 . S
H1867 C1891 0.951 . S
H1868 C1893 0.951 . S
H1869 C1895 0.950 . S
H1870 C1896 0.950 . S
H1871 C1898 0.950 . S
H1872 C1901 0.950 . S
H1873 C1902 0.950 . S
H1874 C1904 0.950 . S
H1875 C1905 0.950 . S
C1876 H1858 0.951 . S
C1876 C1877 1.366 . S
C1876 C1878 1.388 . S
C1877 C1876 1.366 . S
C1877 C1881 1.385 . S
C1878 H1859 0.951 . S
C1878 C1876 1.388 . S
C1878 C1879 1.366 . S
C1879 C1878 1.366 . S
C1879 C1880 1.414 . S
C1879 C1882 1.499 . S
C1880 H1860 0.950 . S
C1880 C1879 1.414 . S
C1880 C1881 1.374 . S
C1881 H1861 0.950 . S
C1881 C1877 1.385 . S
C1881 C1880 1.374 . S
C1882 C1879 1.499 . S
C1882 C1883 1.373 . S
C1882 C1884 1.389 . S
C1883 H1862 0.950 . S
C1883 C1882 1.373 . S
C1883 C1899 1.377 . S
C1884 C1882 1.389 . S
C1884 C1885 1.524 . S
C1884 C1898 1.377 . S
C1885 C1884 1.524 . S
C1885 C1886 1.397 . S
C1885 C1890 1.363 . S
C1886 H1863 0.950 . S
C1886 C1885 1.397 . S
C1886 C1887 1.334 . S
C1887 H1864 0.950 . S
C1887 C1886 1.334 . S
C1887 C1888 1.287 . S
C1888 C1887 1.287 . S
C1888 C1889 1.524 . S
C1888 H1907 0.913 . S
C1889 H1865 0.950 . S
C1889 C1888 1.524 . S
C1889 C1890 1.415 . S
C1890 H1866 0.950 . S
C1890 C1885 1.363 . S
C1890 C1889 1.415 . S
C1891 H1867 0.951 . S
C1891 C1892 1.366 . S
C1891 C1893 1.388 . S
C1892 C1891 1.366 . S
C1892 C1896 1.385 . S
C1893 H1868 0.951 . S
C1893 C1891 1.388 . S
C1893 C1894 1.366 . S
C1894 C1893 1.366 . S
C1894 C1895 1.414 . S
C1894 C1897 1.499 . S
C1895 H1869 0.950 . S
C1895 C1894 1.414 . S
C1895 C1896 1.374 . S
C1896 H1870 0.950 . S
C1896 C1892 1.385 . S
C1896 C1895 1.374 . S
C1897 C1894 1.499 . S
C1897 C1898 1.373 . S
C1897 C1899 1.389 . S
C1898 H1871 0.950 . S
C1898 C1884 1.377 . S
C1898 C1897 1.373 . S
C1899 C1883 1.377 . S
C1899 C1897 1.389 . S
C1899 C1900 1.524 . S
C1900 C1899 1.524 . S
C1900 C1901 1.397 . S
C1900 C1905 1.363 . S
C1901 H1872 0.950 . S
C1901 C1900 1.397 . S
C1901 C1902 1.334 . S
C1902 H1873 0.950 . S
C1902 C1901 1.334 . S
C1902 C1903 1.287 . S
C1903 C1902 1.287 . S
C1903 C1904 1.524 . S
C1903 H1906 0.999 . S
C1904 H1874 0.950 . S
C1904 C1903 1.524 . S
C1904 C1905 1.415 . S
C1905 H1875 0.950 . S
C1905 C1900 1.363 . S
C1905 C1904 1.415 . S
H1906 C1903 0.999 . S
H1907 C1888 0.913 . S
H1908 C1926 0.951 . S
H1909 C1928 0.951 . S
H1910 C1930 0.950 . S
H1911 C1931 0.950 . S
H1912 C1933 0.950 . S
H1913 C1936 0.950 . S
H1914 C1937 0.950 . S
H1915 C1939 0.950 . S
H1916 C1940 0.950 . S
H1917 C1941 0.951 . S
H1918 C1943 0.951 . S
H1919 C1945 0.950 . S
H1920 C1946 0.950 . S
H1921 C1948 0.950 . S
H1922 C1951 0.950 . S
H1923 C1952 0.950 . S
H1924 C1954 0.950 . S
H1925 C1955 0.950 . S
C1926 H1908 0.951 . S
C1926 C1927 1.366 . S
C1926 C1928 1.388 . S
C1927 C1926 1.366 . S
C1927 C1931 1.385 . S
C1928 H1909 0.951 . S
C1928 C1926 1.388 . S
C1928 C1929 1.366 . S
C1929 C1928 1.366 . S
C1929 C1930 1.414 . S
C1929 C1932 1.499 . S
C1930 H1910 0.950 . S
C1930 C1929 1.414 . S
C1930 C1931 1.374 . S
C1931 H1911 0.950 . S
C1931 C1927 1.385 . S
C1931 C1930 1.374 . S
C1932 C1929 1.499 . S
C1932 C1933 1.373 . S
C1932 C1934 1.389 . S
C1933 H1912 0.950 . S
C1933 C1932 1.373 . S
C1933 C1949 1.377 . S
C1934 C1932 1.389 . S
C1934 C1935 1.524 . S
C1934 C1948 1.377 . S
C1935 C1934 1.524 . S
C1935 C1936 1.397 . S
C1935 C1940 1.363 . S
C1936 H1913 0.950 . S
C1936 C1935 1.397 . S
C1936 C1937 1.334 . S
C1937 H1914 0.950 . S
C1937 C1936 1.334 . S
C1937 C1938 1.287 . S
C1938 C1937 1.287 . S
C1938 C1939 1.524 . S
C1938 H1957 0.913 . S
C1939 H1915 0.950 . S
C1939 C1938 1.524 . S
C1939 C1940 1.415 . S
C1940 H1916 0.950 . S
C1940 C1935 1.363 . S
C1940 C1939 1.415 . S
C1941 H1917 0.951 . S
C1941 C1942 1.366 . S
C1941 C1943 1.388 . S
C1942 C1941 1.366 . S
C1942 C1946 1.385 . S
C1943 H1918 0.951 . S
C1943 C1941 1.388 . S
C1943 C1944 1.366 . S
C1944 C1943 1.366 . S
C1944 C1945 1.414 . S
C1944 C1947 1.499 . S
C1945 H1919 0.950 . S
C1945 C1944 1.414 . S
C1945 C1946 1.374 . S
C1946 H1920 0.950 . S
C1946 C1942 1.385 . S
C1946 C1945 1.374 . S
C1947 C1944 1.499 . S
C1947 C1948 1.373 . S
C1947 C1949 1.389 . S
C1948 H1921 0.950 . S
C1948 C1934 1.377 . S
C1948 C1947 1.373 . S
C1949 C1933 1.377 . S
C1949 C1947 1.389 . S
C1949 C1950 1.524 . S
C1950 C1949 1.524 . S
C1950 C1951 1.397 . S
C1950 C1955 1.363 . S
C1951 H1922 0.950 . S
C1951 C1950 1.397 . S
C1951 C1952 1.334 . S
C1952 H1923 0.950 . S
C1952 C1951 1.334 . S
C1952 C1953 1.287 . S
C1953 C1952 1.287 . S
C1953 C1954 1.524 . S
C1953 H1956 0.999 . S
C1954 H1924 0.950 . S
C1954 C1953 1.524 . S
C1954 C1955 1.415 . S
C1955 H1925 0.950 . S
C1955 C1950 1.363 . S
C1955 C1954 1.415 . S
H1956 C1953 0.999 . S
H1957 C1938 0.913 . S
H1958 C1976 0.951 . S
H1959 C1978 0.951 . S
H1960 C1980 0.950 . S
H1961 C1981 0.950 . S
H1962 C1983 0.950 . S
H1963 C1986 0.950 . S
H1964 C1987 0.950 . S
H1965 C1989 0.950 . S
H1966 C1990 0.950 . S
H1967 C1991 0.951 . S
H1968 C1993 0.951 . S
H1969 C1995 0.950 . S
H1970 C1996 0.950 . S
H1971 C1998 0.950 . S
H1972 C2001 0.950 . S
H1973 C2002 0.950 . S
H1974 C2004 0.950 . S
H1975 C2005 0.950 . S
C1976 H1958 0.951 . S
C1976 C1977 1.366 . S
C1976 C1978 1.388 . S
C1977 C1976 1.366 . S
C1977 C1981 1.385 . S
C1978 H1959 0.951 . S
C1978 C1976 1.388 . S
C1978 C1979 1.366 . S
C1979 C1978 1.366 . S
C1979 C1980 1.414 . S
C1979 C1982 1.499 . S
C1980 H1960 0.950 . S
C1980 C1979 1.414 . S
C1980 C1981 1.374 . S
C1981 H1961 0.950 . S
C1981 C1977 1.385 . S
C1981 C1980 1.374 . S
C1982 C1979 1.499 . S
C1982 C1983 1.373 . S
C1982 C1984 1.389 . S
C1983 H1962 0.950 . S
C1983 C1982 1.373 . S
C1983 C1999 1.377 . S
C1984 C1982 1.389 . S
C1984 C1985 1.524 . S
C1984 C1998 1.377 . S
C1985 C1984 1.524 . S
C1985 C1986 1.397 . S
C1985 C1990 1.363 . S
C1986 H1963 0.950 . S
C1986 C1985 1.397 . S
C1986 C1987 1.334 . S
C1987 H1964 0.950 . S
C1987 C1986 1.334 . S
C1987 C1988 1.287 . S
C1988 C1987 1.287 . S
C1988 C1989 1.524 . S
C1988 H2007 0.913 . S
C1989 H1965 0.950 . S
C1989 C1988 1.524 . S
C1989 C1990 1.415 . S
C1990 H1966 0.950 . S
C1990 C1985 1.363 . S
C1990 C1989 1.415 . S
C1991 H1967 0.951 . S
C1991 C1992 1.366 . S
C1991 C1993 1.388 . S
C1992 C1991 1.366 . S
C1992 C1996 1.385 . S
C1993 H1968 0.951 . S
C1993 C1991 1.388 . S
C1993 C1994 1.366 . S
C1994 C1993 1.366 . S
C1994 C1995 1.414 . S
C1994 C1997 1.499 . S
C1995 H1969 0.950 . S
C1995 C1994 1.414 . S
C1995 C1996 1.374 . S
C1996 H1970 0.950 . S
C1996 C1992 1.385 . S
C1996 C1995 1.374 . S
C1997 C1994 1.499 . S
C1997 C1998 1.373 . S
C1997 C1999 1.389 . S
C1998 H1971 0.950 . S
C1998 C1984 1.377 . S
C1998 C1997 1.373 . S
C1999 C1983 1.377 . S
C1999 C1997 1.389 . S
C1999 C2000 1.524 . S
C2000 C1999 1.524 . S
C2000 C2001 1.397 . S
C2000 C2005 1.363 . S
C2001 H1972 0.950 . S
C2001 C2000 1.397 . S
C2001 C2002 1.334 . S
C2002 H1973 0.950 . S
C2002 C2001 1.334 . S
C2002 C2003 1.287 . S
C2003 C2002 1.287 . S
C2003 C2004 1.524 . S
C2003 H2006 0.999 . S
C2004 H1974 0.950 . S
C2004 C2003 1.524 . S
C2004 C2005 1.415 . S
C2005 H1975 0.950 . S
C2005 C2000 1.363 . S
C2005 C2004 1.415 . S
H2006 C2003 0.999 . S
H2007 C1988 0.913 . S
H2008 C2026 0.951 . S
H2009 C2028 0.951 . S
H2010 C2030 0.950 . S
H2011 C2031 0.950 . S
H2012 C2033 0.950 . S
H2013 C2036 0.950 . S
H2014 C2037 0.950 . S
H2015 C2039 0.950 . S
H2016 C2040 0.950 . S
H2017 C2041 0.951 . S
H2018 C2043 0.951 . S
H2019 C2045 0.950 . S
H2020 C2046 0.950 . S
H2021 C2048 0.950 . S
H2022 C2051 0.950 . S
H2023 C2052 0.950 . S
H2024 C2054 0.950 . S
H2025 C2055 0.950 . S
C2026 H2008 0.951 . S
C2026 C2027 1.366 . S
C2026 C2028 1.388 . S
C2027 C2026 1.366 . S
C2027 C2031 1.385 . S
C2028 H2009 0.951 . S
C2028 C2026 1.388 . S
C2028 C2029 1.366 . S
C2029 C2028 1.366 . S
C2029 C2030 1.414 . S
C2029 C2032 1.499 . S
C2030 H2010 0.950 . S
C2030 C2029 1.414 . S
C2030 C2031 1.374 . S
C2031 H2011 0.950 . S
C2031 C2027 1.385 . S
C2031 C2030 1.374 . S
C2032 C2029 1.499 . S
C2032 C2033 1.373 . S
C2032 C2034 1.389 . S
C2033 H2012 0.950 . S
C2033 C2032 1.373 . S
C2033 C2049 1.377 . S
C2034 C2032 1.389 . S
C2034 C2035 1.524 . S
C2034 C2048 1.377 . S
C2035 C2034 1.524 . S
C2035 C2036 1.397 . S
C2035 C2040 1.363 . S
C2036 H2013 0.950 . S
C2036 C2035 1.397 . S
C2036 C2037 1.334 . S
C2037 H2014 0.950 . S
C2037 C2036 1.334 . S
C2037 C2038 1.287 . S
C2038 C2037 1.287 . S
C2038 C2039 1.524 . S
C2038 H2057 0.913 . S
C2039 H2015 0.950 . S
C2039 C2038 1.524 . S
C2039 C2040 1.415 . S
C2040 H2016 0.950 . S
C2040 C2035 1.363 . S
C2040 C2039 1.415 . S
C2041 H2017 0.951 . S
C2041 C2042 1.366 . S
C2041 C2043 1.388 . S
C2042 C2041 1.366 . S
C2042 C2046 1.385 . S
C2043 H2018 0.951 . S
C2043 C2041 1.388 . S
C2043 C2044 1.366 . S
C2044 C2043 1.366 . S
C2044 C2045 1.414 . S
C2044 C2047 1.499 . S
C2045 H2019 0.950 . S
C2045 C2044 1.414 . S
C2045 C2046 1.374 . S
C2046 H2020 0.950 . S
C2046 C2042 1.385 . S
C2046 C2045 1.374 . S
C2047 C2044 1.499 . S
C2047 C2048 1.373 . S
C2047 C2049 1.389 . S
C2048 H2021 0.950 . S
C2048 C2034 1.377 . S
C2048 C2047 1.373 . S
C2049 C2033 1.377 . S
C2049 C2047 1.389 . S
C2049 C2050 1.524 . S
C2050 C2049 1.524 . S
C2050 C2051 1.397 . S
C2050 C2055 1.363 . S
C2051 H2022 0.950 . S
C2051 C2050 1.397 . S
C2051 C2052 1.334 . S
C2052 H2023 0.950 . S
C2052 C2051 1.334 . S
C2052 C2053 1.287 . S
C2053 C2052 1.287 . S
C2053 C2054 1.524 . S
C2053 H2056 0.999 . S
C2054 H2024 0.950 . S
C2054 C2053 1.524 . S
C2054 C2055 1.415 . S
C2055 H2025 0.950 . S
C2055 C2050 1.363 . S
C2055 C2054 1.415 . S
H2056 C2053 0.999 . S
H2057 C2038 0.913 . S
H2058 C2076 0.951 . S
H2059 C2078 0.951 . S
H2060 C2080 0.950 . S
H2061 C2081 0.950 . S
H2062 C2083 0.950 . S
H2063 C2086 0.950 . S
H2064 C2087 0.950 . S
H2065 C2089 0.950 . S
H2066 C2090 0.950 . S
H2067 C2091 0.951 . S
H2068 C2093 0.951 . S
H2069 C2095 0.950 . S
H2070 C2096 0.950 . S
H2071 C2098 0.950 . S
H2072 C2101 0.950 . S
H2073 C2102 0.950 . S
H2074 C2104 0.950 . S
H2075 C2105 0.950 . S
C2076 H2058 0.951 . S
C2076 C2077 1.366 . S
C2076 C2078 1.388 . S
C2077 C2076 1.366 . S
C2077 C2081 1.385 . S
C2078 H2059 0.951 . S
C2078 C2076 1.388 . S
C2078 C2079 1.366 . S
C2079 C2078 1.366 . S
C2079 C2080 1.414 . S
C2079 C2082 1.499 . S
C2080 H2060 0.950 . S
C2080 C2079 1.414 . S
C2080 C2081 1.374 . S
C2081 H2061 0.950 . S
C2081 C2077 1.385 . S
C2081 C2080 1.374 . S
C2082 C2079 1.499 . S
C2082 C2083 1.373 . S
C2082 C2084 1.389 . S
C2083 H2062 0.950 . S
C2083 C2082 1.373 . S
C2083 C2099 1.377 . S
C2084 C2082 1.389 . S
C2084 C2085 1.524 . S
C2084 C2098 1.377 . S
C2085 C2084 1.524 . S
C2085 C2086 1.397 . S
C2085 C2090 1.363 . S
C2086 H2063 0.950 . S
C2086 C2085 1.397 . S
C2086 C2087 1.334 . S
C2087 H2064 0.950 . S
C2087 C2086 1.334 . S
C2087 C2088 1.287 . S
C2088 C2087 1.287 . S
C2088 C2089 1.524 . S
C2088 H2107 0.913 . S
C2089 H2065 0.950 . S
C2089 C2088 1.524 . S
C2089 C2090 1.415 . S
C2090 H2066 0.950 . S
C2090 C2085 1.363 . S
C2090 C2089 1.415 . S
C2091 H2067 0.951 . S
C2091 C2092 1.366 . S
C2091 C2093 1.388 . S
C2092 C2091 1.366 . S
C2092 C2096 1.385 . S
C2093 H2068 0.951 . S
C2093 C2091 1.388 . S
C2093 C2094 1.366 . S
C2094 C2093 1.366 . S
C2094 C2095 1.414 . S
C2094 C2097 1.499 . S
C2095 H2069 0.950 . S
C2095 C2094 1.414 . S
C2095 C2096 1.374 . S
C2096 H2070 0.950 . S
C2096 C2092 1.385 . S
C2096 C2095 1.374 . S
C2097 C2094 1.499 . S
C2097 C2098 1.373 . S
C2097 C2099 1.389 . S
C2098 H2071 0.950 . S
C2098 C2084 1.377 . S
C2098 C2097 1.373 . S
C2099 C2083 1.377 . S
C2099 C2097 1.389 . S
C2099 C2100 1.524 . S
C2100 C2099 1.524 . S
C2100 C2101 1.397 . S
C2100 C2105 1.363 . S
C2101 H2072 0.950 . S
C2101 C2100 1.397 . S
C2101 C2102 1.334 . S
C2102 H2073 0.950 . S
C2102 C2101 1.334 . S
C2102 C2103 1.287 . S
C2103 C2102 1.287 . S
C2103 C2104 1.524 . S
C2103 H2106 0.999 . S
C2104 H2074 0.950 . S
C2104 C2103 1.524 . S
C2104 C2105 1.415 . S
C2105 H2075 0.950 . S
C2105 C2100 1.363 . S
C2105 C2104 1.415 . S
H2106 C2103 0.999 . S
H2107 C2088 0.913 . S
H2108 C2126 0.951 . S
H2109 C2128 0.951 . S
H2110 C2130 0.950 . S
H2111 C2131 0.950 . S
H2112 C2133 0.950 . S
H2113 C2136 0.950 . S
H2114 C2137 0.950 . S
H2115 C2139 0.950 . S
H2116 C2140 0.950 . S
H2117 C2141 0.951 . S
H2118 C2143 0.951 . S
H2119 C2145 0.950 . S
H2120 C2146 0.950 . S
H2121 C2148 0.950 . S
H2122 C2151 0.950 . S
H2123 C2152 0.950 . S
H2124 C2154 0.950 . S
H2125 C2155 0.950 . S
C2126 H2108 0.951 . S
C2126 C2127 1.366 . S
C2126 C2128 1.388 . S
C2127 C2126 1.366 . S
C2127 C2131 1.385 . S
C2128 H2109 0.951 . S
C2128 C2126 1.388 . S
C2128 C2129 1.366 . S
C2129 C2128 1.366 . S
C2129 C2130 1.414 . S
C2129 C2132 1.499 . S
C2130 H2110 0.950 . S
C2130 C2129 1.414 . S
C2130 C2131 1.374 . S
C2131 H2111 0.950 . S
C2131 C2127 1.385 . S
C2131 C2130 1.374 . S
C2132 C2129 1.499 . S
C2132 C2133 1.373 . S
C2132 C2134 1.389 . S
C2133 H2112 0.950 . S
C2133 C2132 1.373 . S
C2133 C2149 1.377 . S
C2134 C2132 1.389 . S
C2134 C2135 1.524 . S
C2134 C2148 1.377 . S
C2135 C2134 1.524 . S
C2135 C2136 1.397 . S
C2135 C2140 1.363 . S
C2136 H2113 0.950 . S
C2136 C2135 1.397 . S
C2136 C2137 1.334 . S
C2137 H2114 0.950 . S
C2137 C2136 1.334 . S
C2137 C2138 1.287 . S
C2138 C2137 1.287 . S
C2138 C2139 1.524 . S
C2138 H2157 0.913 . S
C2139 H2115 0.950 . S
C2139 C2138 1.524 . S
C2139 C2140 1.415 . S
C2140 H2116 0.950 . S
C2140 C2135 1.363 . S
C2140 C2139 1.415 . S
C2141 H2117 0.951 . S
C2141 C2142 1.366 . S
C2141 C2143 1.388 . S
C2142 C2141 1.366 . S
C2142 C2146 1.385 . S
C2143 H2118 0.951 . S
C2143 C2141 1.388 . S
C2143 C2144 1.366 . S
C2144 C2143 1.366 . S
C2144 C2145 1.414 . S
C2144 C2147 1.499 . S
C2145 H2119 0.950 . S
C2145 C2144 1.414 . S
C2145 C2146 1.374 . S
C2146 H2120 0.950 . S
C2146 C2142 1.385 . S
C2146 C2145 1.374 . S
C2147 C2144 1.499 . S
C2147 C2148 1.373 . S
C2147 C2149 1.389 . S
C2148 H2121 0.950 . S
C2148 C2134 1.377 . S
C2148 C2147 1.373 . S
C2149 C2133 1.377 . S
C2149 C2147 1.389 . S
C2149 C2150 1.524 . S
C2150 C2149 1.524 . S
C2150 C2151 1.397 . S
C2150 C2155 1.363 . S
C2151 H2122 0.950 . S
C2151 C2150 1.397 . S
C2151 C2152 1.334 . S
C2152 H2123 0.950 . S
C2152 C2151 1.334 . S
C2152 C2153 1.287 . S
C2153 C2152 1.287 . S
C2153 C2154 1.524 . S
C2153 H2156 0.999 . S
C2154 H2124 0.950 . S
C2154 C2153 1.524 . S
C2154 C2155 1.415 . S
C2155 H2125 0.950 . S
C2155 C2150 1.363 . S
C2155 C2154 1.415 . S
H2156 C2153 0.999 . S
H2157 C2138 0.913 . S
H2158 C2176 0.951 . S
H2159 C2178 0.951 . S
H2160 C2180 0.950 . S
H2161 C2181 0.950 . S
H2162 C2183 0.950 . S
H2163 C2186 0.950 . S
H2164 C2187 0.950 . S
H2165 C2189 0.950 . S
H2166 C2190 0.950 . S
H2167 C2191 0.951 . S
H2168 C2193 0.951 . S
H2169 C2195 0.950 . S
H2170 C2196 0.950 . S
H2171 C2198 0.950 . S
H2172 C2201 0.950 . S
H2173 C2202 0.950 . S
H2174 C2204 0.950 . S
H2175 C2205 0.950 . S
C2176 H2158 0.951 . S
C2176 C2177 1.366 . S
C2176 C2178 1.388 . S
C2177 C2176 1.366 . S
C2177 C2181 1.385 . S
C2178 H2159 0.951 . S
C2178 C2176 1.388 . S
C2178 C2179 1.366 . S
C2179 C2178 1.366 . S
C2179 C2180 1.414 . S
C2179 C2182 1.499 . S
C2180 H2160 0.950 . S
C2180 C2179 1.414 . S
C2180 C2181 1.374 . S
C2181 H2161 0.950 . S
C2181 C2177 1.385 . S
C2181 C2180 1.374 . S
C2182 C2179 1.499 . S
C2182 C2183 1.373 . S
C2182 C2184 1.389 . S
C2183 H2162 0.950 . S
C2183 C2182 1.373 . S
C2183 C2199 1.377 . S
C2184 C2182 1.389 . S
C2184 C2185 1.524 . S
C2184 C2198 1.377 . S
C2185 C2184 1.524 . S
C2185 C2186 1.397 . S
C2185 C2190 1.363 . S
C2186 H2163 0.950 . S
C2186 C2185 1.397 . S
C2186 C2187 1.334 . S
C2187 H2164 0.950 . S
C2187 C2186 1.334 . S
C2187 C2188 1.287 . S
C2188 C2187 1.287 . S
C2188 C2189 1.524 . S
C2188 H2207 0.913 . S
C2189 H2165 0.950 . S
C2189 C2188 1.524 . S
C2189 C2190 1.415 . S
C2190 H2166 0.950 . S
C2190 C2185 1.363 . S
C2190 C2189 1.415 . S
C2191 H2167 0.951 . S
C2191 C2192 1.366 . S
C2191 C2193 1.388 . S
C2192 C2191 1.366 . S
C2192 C2196 1.385 . S
C2193 H2168 0.951 . S
C2193 C2191 1.388 . S
C2193 C2194 1.366 . S
C2194 C2193 1.366 . S
C2194 C2195 1.414 . S
C2194 C2197 1.499 . S
C2195 H2169 0.950 . S
C2195 C2194 1.414 . S
C2195 C2196 1.374 . S
C2196 H2170 0.950 . S
C2196 C2192 1.385 . S
C2196 C2195 1.374 . S
C2197 C2194 1.499 . S
C2197 C2198 1.373 . S
C2197 C2199 1.389 . S
C2198 H2171 0.950 . S
C2198 C2184 1.377 . S
C2198 C2197 1.373 . S
C2199 C2183 1.377 . S
C2199 C2197 1.389 . S
C2199 C2200 1.524 . S
C2200 C2199 1.524 . S
C2200 C2201 1.397 . S
C2200 C2205 1.363 . S
C2201 H2172 0.950 . S
C2201 C2200 1.397 . S
C2201 C2202 1.334 . S
C2202 H2173 0.950 . S
C2202 C2201 1.334 . S
C2202 C2203 1.287 . S
C2203 C2202 1.287 . S
C2203 C2204 1.524 . S
C2203 H2206 0.999 . S
C2204 H2174 0.950 . S
C2204 C2203 1.524 . S
C2204 C2205 1.415 . S
C2205 H2175 0.950 . S
C2205 C2200 1.363 . S
C2205 C2204 1.415 . S
H2206 C2203 0.999 . S
H2207 C2188 0.913 . S
H2208 C2226 0.951 . S
H2209 C2228 0.951 . S
H2210 C2230 0.950 . S
H2211 C2231 0.950 . S
H2212 C2233 0.950 . S
H2213 C2236 0.950 . S
H2214 C2237 0.950 . S
H2215 C2239 0.950 . S
H2216 C2240 0.950 . S
H2217 C2241 0.951 . S
H2218 C2243 0.951 . S
H2219 C2245 0.950 . S
H2220 C2246 0.950 . S
H2221 C2248 0.950 . S
H2222 C2251 0.950 . S
H2223 C2252 0.950 . S
H2224 C2254 0.950 . S
H2225 C2255 0.950 . S
C2226 H2208 0.951 . S
C2226 C2227 1.366 . S
C2226 C2228 1.388 . S
C2227 C2226 1.366 . S
C2227 C2231 1.385 . S
C2228 H2209 0.951 . S
C2228 C2226 1.388 . S
C2228 C2229 1.366 . S
C2229 C2228 1.366 . S
C2229 C2230 1.414 . S
C2229 C2232 1.499 . S
C2230 H2210 0.950 . S
C2230 C2229 1.414 . S
C2230 C2231 1.374 . S
C2231 H2211 0.950 . S
C2231 C2227 1.385 . S
C2231 C2230 1.374 . S
C2232 C2229 1.499 . S
C2232 C2233 1.373 . S
C2232 C2234 1.389 . S
C2233 H2212 0.950 . S
C2233 C2232 1.373 . S
C2233 C2249 1.377 . S
C2234 C2232 1.389 . S
C2234 C2235 1.524 . S
C2234 C2248 1.377 . S
C2235 C2234 1.524 . S
C2235 C2236 1.397 . S
C2235 C2240 1.363 . S
C2236 H2213 0.950 . S
C2236 C2235 1.397 . S
C2236 C2237 1.334 . S
C2237 H2214 0.950 . S
C2237 C2236 1.334 . S
C2237 C2238 1.287 . S
C2238 C2237 1.287 . S
C2238 C2239 1.524 . S
C2238 H2257 0.913 . S
C2239 H2215 0.950 . S
C2239 C2238 1.524 . S
C2239 C2240 1.415 . S
C2240 H2216 0.950 . S
C2240 C2235 1.363 . S
C2240 C2239 1.415 . S
C2241 H2217 0.951 . S
C2241 C2242 1.366 . S
C2241 C2243 1.388 . S
C2242 C2241 1.366 . S
C2242 C2246 1.385 . S
C2243 H2218 0.951 . S
C2243 C2241 1.388 . S
C2243 C2244 1.366 . S
C2244 C2243 1.366 . S
C2244 C2245 1.414 . S
C2244 C2247 1.499 . S
C2245 H2219 0.950 . S
C2245 C2244 1.414 . S
C2245 C2246 1.374 . S
C2246 H2220 0.950 . S
C2246 C2242 1.385 . S
C2246 C2245 1.374 . S
C2247 C2244 1.499 . S
C2247 C2248 1.373 . S
C2247 C2249 1.389 . S
C2248 H2221 0.950 . S
C2248 C2234 1.377 . S
C2248 C2247 1.373 . S
C2249 C2233 1.377 . S
C2249 C2247 1.389 . S
C2249 C2250 1.524 . S
C2250 C2249 1.524 . S
C2250 C2251 1.397 . S
C2250 C2255 1.363 . S
C2251 H2222 0.950 . S
C2251 C2250 1.397 . S
C2251 C2252 1.334 . S
C2252 H2223 0.950 . S
C2252 C2251 1.334 . S
C2252 C2253 1.287 . S
C2253 C2252 1.287 . S
C2253 C2254 1.524 . S
C2253 H2256 0.999 . S
C2254 H2224 0.950 . S
C2254 C2253 1.524 . S
C2254 C2255 1.415 . S
C2255 H2225 0.950 . S
C2255 C2250 1.363 . S
C2255 C2254 1.415 . S
H2256 C2253 0.999 . S
H2257 C2238 0.913 . S
H2258 C2276 0.951 . S
H2259 C2278 0.951 . S
H2260 C2280 0.950 . S
H2261 C2281 0.950 . S
H2262 C2283 0.950 . S
H2263 C2286 0.950 . S
H2264 C2287 0.950 . S
H2265 C2289 0.950 . S
H2266 C2290 0.950 . S
H2267 C2291 0.951 . S
H2268 C2293 0.951 . S
H2269 C2295 0.950 . S
H2270 C2296 0.950 . S
H2271 C2298 0.950 . S
H2272 C2301 0.950 . S
H2273 C2302 0.950 . S
H2274 C2304 0.950 . S
H2275 C2305 0.950 . S
C2276 H2258 0.951 . S
C2276 C2277 1.366 . S
C2276 C2278 1.388 . S
C2277 C2276 1.366 . S
C2277 C2281 1.385 . S
C2278 H2259 0.951 . S
C2278 C2276 1.388 . S
C2278 C2279 1.366 . S
C2279 C2278 1.366 . S
C2279 C2280 1.414 . S
C2279 C2282 1.499 . S
C2280 H2260 0.950 . S
C2280 C2279 1.414 . S
C2280 C2281 1.374 . S
C2281 H2261 0.950 . S
C2281 C2277 1.385 . S
C2281 C2280 1.374 . S
C2282 C2279 1.499 . S
C2282 C2283 1.373 . S
C2282 C2284 1.389 . S
C2283 H2262 0.950 . S
C2283 C2282 1.373 . S
C2283 C2299 1.377 . S
C2284 C2282 1.389 . S
C2284 C2285 1.524 . S
C2284 C2298 1.377 . S
C2285 C2284 1.524 . S
C2285 C2286 1.397 . S
C2285 C2290 1.363 . S
C2286 H2263 0.950 . S
C2286 C2285 1.397 . S
C2286 C2287 1.334 . S
C2287 H2264 0.950 . S
C2287 C2286 1.334 . S
C2287 C2288 1.287 . S
C2288 C2287 1.287 . S
C2288 C2289 1.524 . S
C2288 H2307 0.913 . S
C2289 H2265 0.950 . S
C2289 C2288 1.524 . S
C2289 C2290 1.415 . S
C2290 H2266 0.950 . S
C2290 C2285 1.363 . S
C2290 C2289 1.415 . S
C2291 H2267 0.951 . S
C2291 C2292 1.366 . S
C2291 C2293 1.388 . S
C2292 C2291 1.366 . S
C2292 C2296 1.385 . S
C2293 H2268 0.951 . S
C2293 C2291 1.388 . S
C2293 C2294 1.366 . S
C2294 C2293 1.366 . S
C2294 C2295 1.414 . S
C2294 C2297 1.499 . S
C2295 H2269 0.950 . S
C2295 C2294 1.414 . S
C2295 C2296 1.374 . S
C2296 H2270 0.950 . S
C2296 C2292 1.385 . S
C2296 C2295 1.374 . S
C2297 C2294 1.499 . S
C2297 C2298 1.373 . S
C2297 C2299 1.389 . S
C2298 H2271 0.950 . S
C2298 C2284 1.377 . S
C2298 C2297 1.373 . S
C2299 C2283 1.377 . S
C2299 C2297 1.389 . S
C2299 C2300 1.524 . S
C2300 C2299 1.524 . S
C2300 C2301 1.397 . S
C2300 C2305 1.363 . S
C2301 H2272 0.950 . S
C2301 C2300 1.397 . S
C2301 C2302 1.334 . S
C2302 H2273 0.950 . S
C2302 C2301 1.334 . S
C2302 C2303 1.287 . S
C2303 C2302 1.287 . S
C2303 C2304 1.524 . S
C2303 H2306 0.999 . S
C2304 H2274 0.950 . S
C2304 C2303 1.524 . S
C2304 C2305 1.415 . S
C2305 H2275 0.950 . S
C2305 C2300 1.363 . S
C2305 C2304 1.415 . S
H2306 C2303 0.999 . S
H2307 C2288 0.913 . S
H2308 C2326 0.951 . S
H2309 C2328 0.951 . S
H2310 C2330 0.950 . S
H2311 C2331 0.950 . S
H2312 C2333 0.950 . S
H2313 C2336 0.950 . S
H2314 C2337 0.950 . S
H2315 C2339 0.950 . S
H2316 C2340 0.950 . S
H2317 C2341 0.951 . S
H2318 C2343 0.951 . S
H2319 C2345 0.950 . S
H2320 C2346 0.950 . S
H2321 C2348 0.950 . S
H2322 C2351 0.950 . S
H2323 C2352 0.950 . S
H2324 C2354 0.950 . S
H2325 C2355 0.950 . S
C2326 H2308 0.951 . S
C2326 C2327 1.366 . S
C2326 C2328 1.388 . S
C2327 C2326 1.366 . S
C2327 C2331 1.385 . S
C2328 H2309 0.951 . S
C2328 C2326 1.388 . S
C2328 C2329 1.366 . S
C2329 C2328 1.366 . S
C2329 C2330 1.414 . S
C2329 C2332 1.499 . S
C2330 H2310 0.950 . S
C2330 C2329 1.414 . S
C2330 C2331 1.374 . S
C2331 H2311 0.950 . S
C2331 C2327 1.385 . S
C2331 C2330 1.374 . S
C2332 C2329 1.499 . S
C2332 C2333 1.373 . S
C2332 C2334 1.389 . S
C2333 H2312 0.950 . S
C2333 C2332 1.373 . S
C2333 C2349 1.377 . S
C2334 C2332 1.389 . S
C2334 C2335 1.524 . S
C2334 C2348 1.377 . S
C2335 C2334 1.524 . S
C2335 C2336 1.397 . S
C2335 C2340 1.363 . S
C2336 H2313 0.950 . S
C2336 C2335 1.397 . S
C2336 C2337 1.334 . S
C2337 H2314 0.950 . S
C2337 C2336 1.334 . S
C2337 C2338 1.287 . S
C2338 C2337 1.287 . S
C2338 C2339 1.524 . S
C2338 H2357 0.913 . S
C2339 H2315 0.950 . S
C2339 C2338 1.524 . S
C2339 C2340 1.415 . S
C2340 H2316 0.950 . S
C2340 C2335 1.363 . S
C2340 C2339 1.415 . S
C2341 H2317 0.951 . S
C2341 C2342 1.366 . S
C2341 C2343 1.388 . S
C2342 C2341 1.366 . S
C2342 C2346 1.385 . S
C2343 H2318 0.951 . S
C2343 C2341 1.388 . S
C2343 C2344 1.366 . S
C2344 C2343 1.366 . S
C2344 C2345 1.414 . S
C2344 C2347 1.499 . S
C2345 H2319 0.950 . S
C2345 C2344 1.414 . S
C2345 C2346 1.374 . S
C2346 H2320 0.950 . S
C2346 C2342 1.385 . S
C2346 C2345 1.374 . S
C2347 C2344 1.499 . S
C2347 C2348 1.373 . S
C2347 C2349 1.389 . S
C2348 H2321 0.950 . S
C2348 C2334 1.377 . S
C2348 C2347 1.373 . S
C2349 C2333 1.377 . S
C2349 C2347 1.389 . S
C2349 C2350 1.524 . S
C2350 C2349 1.524 . S
C2350 C2351 1.397 . S
C2350 C2355 1.363 . S
C2351 H2322 0.950 . S
C2351 C2350 1.397 . S
C2351 C2352 1.334 . S
C2352 H2323 0.950 . S
C2352 C2351 1.334 . S
C2352 C2353 1.287 . S
C2353 C2352 1.287 . S
C2353 C2354 1.524 . S
C2353 H2356 0.999 . S
C2354 H2324 0.950 . S
C2354 C2353 1.524 . S
C2354 C2355 1.415 . S
C2355 H2325 0.950 . S
C2355 C2350 1.363 . S
C2355 C2354 1.415 . S
H2356 C2353 0.999 . S
H2357 C2338 0.913 . S
H2358 C2376 0.951 . S
H2359 C2378 0.951 . S
H2360 C2380 0.950 . S
H2361 C2381 0.950 . S
H2362 C2383 0.950 . S
H2363 C2386 0.950 . S
H2364 C2387 0.950 . S
H2365 C2389 0.935 1_655 S
H2366 C2390 0.950 . S
H2367 C2391 0.951 . S
H2368 C2393 0.951 . S
H2369 C2395 0.950 . S
H2370 C2396 0.950 . S
H2371 C2398 0.950 . S
H2372 C2401 0.950 . S
H2373 C2402 0.950 . S
H2374 C2404 0.950 . S
H2375 C2405 0.950 . S
C2376 H2358 0.951 . S
C2376 C2377 1.366 . S
C2376 C2378 1.388 . S
C2377 C2376 1.366 . S
C2377 C2381 1.385 . S
C2378 H2359 0.951 . S
C2378 C2376 1.388 . S
C2378 C2379 1.366 . S
C2379 C2378 1.366 . S
C2379 C2380 1.414 . S
C2379 C2382 1.499 . S
C2380 H2360 0.950 . S
C2380 C2379 1.414 . S
C2380 C2381 1.374 . S
C2381 H2361 0.950 . S
C2381 C2377 1.385 . S
C2381 C2380 1.374 . S
C2382 C2379 1.499 . S
C2382 C2383 1.373 . S
C2382 C2384 1.389 . S
C2383 H2362 0.950 . S
C2383 C2382 1.373 . S
C2383 C2399 1.377 . S
C2384 C2382 1.389 . S
C2384 C2385 1.524 . S
C2384 C2398 1.377 . S
C2385 C2384 1.524 . S
C2385 C2386 1.397 . S
C2385 C2390 1.363 . S
C2386 H2363 0.950 . S
C2386 C2385 1.397 . S
C2386 C2387 1.334 . S
C2387 H2364 0.950 . S
C2387 C2386 1.334 . S
C2387 C2388 1.287 . S
C2388 C2387 1.287 . S
C2388 C2389 1.524 . S
C2388 H2407 0.913 . S
C2389 H2365 0.935 1_455 S
C2389 C2388 1.524 . S
C2389 C2390 1.415 . S
C2390 H2366 0.950 . S
C2390 C2385 1.363 . S
C2390 C2389 1.415 . S
C2391 H2367 0.951 . S
C2391 C2392 1.366 . S
C2391 C2393 1.388 . S
C2392 C2391 1.366 . S
C2392 C2396 1.385 . S
C2393 H2368 0.951 . S
C2393 C2391 1.388 . S
C2393 C2394 1.366 . S
C2394 C2393 1.366 . S
C2394 C2395 1.414 . S
C2394 C2397 1.499 . S
C2395 H2369 0.950 . S
C2395 C2394 1.414 . S
C2395 C2396 1.374 . S
C2396 H2370 0.950 . S
C2396 C2392 1.385 . S
C2396 C2395 1.374 . S
C2397 C2394 1.499 . S
C2397 C2398 1.373 . S
C2397 C2399 1.389 . S
C2398 H2371 0.950 . S
C2398 C2384 1.377 . S
C2398 C2397 1.373 . S
C2399 C2383 1.377 . S
C2399 C2397 1.389 . S
C2399 C2400 1.524 . S
C2400 C2399 1.524 . S
C2400 C2401 1.397 . S
C2400 C2405 1.363 . S
C2401 H2372 0.950 . S
C2401 C2400 1.397 . S
C2401 C2402 1.334 . S
C2402 H2373 0.950 . S
C2402 C2401 1.334 . S
C2402 C2403 1.287 . S
C2403 C2402 1.287 . S
C2403 C2404 1.524 . S
C2403 H2406 0.999 . S
C2404 H2374 0.950 . S
C2404 C2403 1.524 . S
C2404 C2405 1.415 . S
C2405 H2375 0.950 . S
C2405 C2400 1.363 . S
C2405 C2404 1.415 . S
H2406 C2403 0.999 . S
H2407 C2388 0.913 . S
H2408 C2426 0.951 . S
H2409 C2428 0.951 . S
H2410 C2430 0.950 . S
H2411 C2431 0.950 . S
H2412 C2433 0.950 . S
H2413 C2436 0.950 . S
H2414 C2437 0.950 . S
H2415 C2439 0.950 . S
H2416 C2440 0.950 . S
H2417 C2441 0.951 . S
H2418 C2443 0.951 . S
H2419 C2445 0.950 . S
H2420 C2446 0.950 . S
H2421 C2448 0.950 . S
H2422 C2451 0.950 . S
H2423 C2452 0.950 . S
H2424 C2454 0.950 . S
H2425 C2455 0.950 . S
C2426 H2408 0.951 . S
C2426 C2427 1.366 . S
C2426 C2428 1.388 . S
C2427 C2426 1.366 . S
C2427 C2431 1.385 . S
C2428 H2409 0.951 . S
C2428 C2426 1.388 . S
C2428 C2429 1.366 . S
C2429 C2428 1.366 . S
C2429 C2430 1.414 . S
C2429 C2432 1.499 . S
C2430 H2410 0.950 . S
C2430 C2429 1.414 . S
C2430 C2431 1.374 . S
C2431 H2411 0.950 . S
C2431 C2427 1.385 . S
C2431 C2430 1.374 . S
C2432 C2429 1.499 . S
C2432 C2433 1.373 . S
C2432 C2434 1.389 . S
C2433 H2412 0.950 . S
C2433 C2432 1.373 . S
C2433 C2449 1.377 . S
C2434 C2432 1.389 . S
C2434 C2435 1.524 . S
C2434 C2448 1.377 . S
C2435 C2434 1.524 . S
C2435 C2436 1.397 . S
C2435 C2440 1.363 . S
C2436 H2413 0.950 . S
C2436 C2435 1.397 . S
C2436 C2437 1.334 . S
C2437 H2414 0.950 . S
C2437 C2436 1.334 . S
C2437 C2438 1.287 . S
C2438 C2437 1.287 . S
C2438 C2439 1.524 . S
C2438 H2457 0.913 . S
C2439 H2415 0.950 . S
C2439 C2438 1.524 . S
C2439 C2440 1.415 . S
C2440 H2416 0.950 . S
C2440 C2435 1.363 . S
C2440 C2439 1.415 . S
C2441 H2417 0.951 . S
C2441 C2442 1.366 . S
C2441 C2443 1.388 . S
C2442 C2441 1.366 . S
C2442 C2446 1.385 . S
C2443 H2418 0.951 . S
C2443 C2441 1.388 . S
C2443 C2444 1.366 . S
C2444 C2443 1.366 . S
C2444 C2445 1.414 . S
C2444 C2447 1.499 . S
C2445 H2419 0.950 . S
C2445 C2444 1.414 . S
C2445 C2446 1.374 . S
C2446 H2420 0.950 . S
C2446 C2442 1.385 . S
C2446 C2445 1.374 . S
C2447 C2444 1.499 . S
C2447 C2448 1.373 . S
C2447 C2449 1.389 . S
C2448 H2421 0.950 . S
C2448 C2434 1.377 . S
C2448 C2447 1.373 . S
C2449 C2433 1.377 . S
C2449 C2447 1.389 . S
C2449 C2450 1.524 . S
C2450 C2449 1.524 . S
C2450 C2451 1.397 . S
C2450 C2455 1.363 . S
C2451 H2422 0.950 . S
C2451 C2450 1.397 . S
C2451 C2452 1.334 . S
C2452 H2423 0.950 . S
C2452 C2451 1.334 . S
C2452 C2453 1.287 . S
C2453 C2452 1.287 . S
C2453 C2454 1.524 . S
C2453 H2456 0.999 . S
C2454 H2424 0.950 . S
C2454 C2453 1.524 . S
C2454 C2455 1.415 . S
C2455 H2425 0.950 . S
C2455 C2450 1.363 . S
C2455 C2454 1.415 . S
H2456 C2453 0.999 . S
H2457 C2438 0.913 . S
H2458 C2476 0.951 . S
H2459 C2478 0.951 . S
H2460 C2480 0.950 . S
H2461 C2481 0.950 . S
H2462 C2483 0.950 . S
H2463 C2486 0.950 . S
H2464 C2487 0.950 . S
H2465 C2489 0.950 . S
H2466 C2490 0.950 . S
H2467 C2491 0.951 . S
H2468 C2493 0.951 . S
H2469 C2495 0.950 . S
H2470 C2496 0.950 . S
H2471 C2498 0.950 . S
H2472 C2501 0.950 . S
H2473 C2502 0.950 . S
H2474 C2504 0.950 . S
H2475 C2505 0.950 . S
C2476 H2458 0.951 . S
C2476 C2477 1.366 . S
C2476 C2478 1.388 . S
C2477 C2476 1.366 . S
C2477 C2481 1.385 . S
C2478 H2459 0.951 . S
C2478 C2476 1.388 . S
C2478 C2479 1.366 . S
C2479 C2478 1.366 . S
C2479 C2480 1.414 . S
C2479 C2482 1.499 . S
C2480 H2460 0.950 . S
C2480 C2479 1.414 . S
C2480 C2481 1.374 . S
C2481 H2461 0.950 . S
C2481 C2477 1.385 . S
C2481 C2480 1.374 . S
C2482 C2479 1.499 . S
C2482 C2483 1.373 . S
C2482 C2484 1.389 . S
C2483 H2462 0.950 . S
C2483 C2482 1.373 . S
C2483 C2499 1.377 . S
C2484 C2482 1.389 . S
C2484 C2485 1.524 . S
C2484 C2498 1.377 . S
C2485 C2484 1.524 . S
C2485 C2486 1.397 . S
C2485 C2490 1.363 . S
C2486 H2463 0.950 . S
C2486 C2485 1.397 . S
C2486 C2487 1.334 . S
C2487 H2464 0.950 . S
C2487 C2486 1.334 . S
C2487 C2488 1.287 . S
C2488 C2487 1.287 . S
C2488 C2489 1.524 . S
C2488 H2507 0.913 . S
C2489 H2465 0.950 . S
C2489 C2488 1.524 . S
C2489 C2490 1.415 . S
C2490 H2466 0.950 . S
C2490 C2485 1.363 . S
C2490 C2489 1.415 . S
C2491 H2467 0.951 . S
C2491 C2492 1.366 . S
C2491 C2493 1.388 . S
C2492 C2491 1.366 . S
C2492 C2496 1.385 . S
C2493 H2468 0.951 . S
C2493 C2491 1.388 . S
C2493 C2494 1.366 . S
C2494 C2493 1.366 . S
C2494 C2495 1.414 . S
C2494 C2497 1.499 . S
C2495 H2469 0.950 . S
C2495 C2494 1.414 . S
C2495 C2496 1.374 . S
C2496 H2470 0.950 . S
C2496 C2492 1.385 . S
C2496 C2495 1.374 . S
C2497 C2494 1.499 . S
C2497 C2498 1.373 . S
C2497 C2499 1.389 . S
C2498 H2471 0.950 . S
C2498 C2484 1.377 . S
C2498 C2497 1.373 . S
C2499 C2483 1.377 . S
C2499 C2497 1.389 . S
C2499 C2500 1.524 . S
C2500 C2499 1.524 . S
C2500 C2501 1.397 . S
C2500 C2505 1.363 . S
C2501 H2472 0.950 . S
C2501 C2500 1.397 . S
C2501 C2502 1.334 . S
C2502 H2473 0.950 . S
C2502 C2501 1.334 . S
C2502 C2503 1.287 . S
C2503 C2502 1.287 . S
C2503 C2504 1.524 . S
C2503 H2506 0.999 . S
C2504 H2474 0.950 . S
C2504 C2503 1.524 . S
C2504 C2505 1.415 . S
C2505 H2475 0.950 . S
C2505 C2500 1.363 . S
C2505 C2504 1.415 . S
H2506 C2503 0.999 . S
H2507 C2488 0.913 . S
H2508 C2526 0.951 . S
H2509 C2528 0.951 . S
H2510 C2530 0.950 . S
H2511 C2531 0.950 . S
H2512 C2533 0.950 . S
H2513 C2536 0.950 . S
H2514 C2537 0.950 . S
H2515 C2539 0.950 . S
H2516 C2540 0.950 . S
H2517 C2541 0.951 . S
H2518 C2543 0.951 . S
H2519 C2545 0.950 . S
H2520 C2546 0.950 . S
H2521 C2548 0.950 . S
H2522 C2551 0.950 . S
H2523 C2552 0.950 . S
H2524 C2554 0.950 . S
H2525 C2555 0.950 . S
C2526 H2508 0.951 . S
C2526 C2527 1.366 . S
C2526 C2528 1.388 . S
C2527 C2526 1.366 . S
C2527 C2531 1.385 . S
C2528 H2509 0.951 . S
C2528 C2526 1.388 . S
C2528 C2529 1.366 . S
C2529 C2528 1.366 . S
C2529 C2530 1.414 . S
C2529 C2532 1.499 . S
C2530 H2510 0.950 . S
C2530 C2529 1.414 . S
C2530 C2531 1.374 . S
C2531 H2511 0.950 . S
C2531 C2527 1.385 . S
C2531 C2530 1.374 . S
C2532 C2529 1.499 . S
C2532 C2533 1.373 . S
C2532 C2534 1.389 . S
C2533 H2512 0.950 . S
C2533 C2532 1.373 . S
C2533 C2549 1.377 . S
C2534 C2532 1.389 . S
C2534 C2535 1.524 . S
C2534 C2548 1.377 . S
C2535 C2534 1.524 . S
C2535 C2536 1.397 . S
C2535 C2540 1.363 . S
C2536 H2513 0.950 . S
C2536 C2535 1.397 . S
C2536 C2537 1.334 . S
C2537 H2514 0.950 . S
C2537 C2536 1.334 . S
C2537 C2538 1.287 . S
C2538 C2537 1.287 . S
C2538 C2539 1.524 . S
C2538 H2557 0.913 . S
C2539 H2515 0.950 . S
C2539 C2538 1.524 . S
C2539 C2540 1.415 . S
C2540 H2516 0.950 . S
C2540 C2535 1.363 . S
C2540 C2539 1.415 . S
C2541 H2517 0.951 . S
C2541 C2542 1.366 . S
C2541 C2543 1.388 . S
C2542 C2541 1.366 . S
C2542 C2546 1.385 . S
C2543 H2518 0.951 . S
C2543 C2541 1.388 . S
C2543 C2544 1.366 . S
C2544 C2543 1.366 . S
C2544 C2545 1.414 . S
C2544 C2547 1.499 . S
C2545 H2519 0.950 . S
C2545 C2544 1.414 . S
C2545 C2546 1.374 . S
C2546 H2520 0.950 . S
C2546 C2542 1.385 . S
C2546 C2545 1.374 . S
C2547 C2544 1.499 . S
C2547 C2548 1.373 . S
C2547 C2549 1.389 . S
C2548 H2521 0.950 . S
C2548 C2534 1.377 . S
C2548 C2547 1.373 . S
C2549 C2533 1.377 . S
C2549 C2547 1.389 . S
C2549 C2550 1.524 . S
C2550 C2549 1.524 . S
C2550 C2551 1.397 . S
C2550 C2555 1.363 . S
C2551 H2522 0.950 . S
C2551 C2550 1.397 . S
C2551 C2552 1.334 . S
C2552 H2523 0.950 . S
C2552 C2551 1.334 . S
C2552 C2553 1.287 . S
C2553 C2552 1.287 . S
C2553 C2554 1.524 . S
C2553 H2556 0.999 . S
C2554 H2524 0.950 . S
C2554 C2553 1.524 . S
C2554 C2555 1.415 . S
C2555 H2525 0.950 . S
C2555 C2550 1.363 . S
C2555 C2554 1.415 . S
H2556 C2553 0.999 . S
H2557 C2538 0.913 . S
H2558 C2576 0.951 . S
H2559 C2578 0.951 . S
H2560 C2580 0.950 . S
H2561 C2581 0.950 . S
H2562 C2583 0.950 . S
H2563 C2586 0.950 . S
H2564 C2587 0.950 . S
H2565 C2589 0.950 . S
H2566 C2590 0.950 . S
H2567 C2591 0.951 . S
H2568 C2593 0.951 . S
H2569 C2595 0.950 . S
H2570 C2596 0.950 . S
H2571 C2598 0.950 . S
H2572 C2601 0.950 . S
H2573 C2602 0.950 1_455 S
H2574 C2604 0.950 . S
H2575 C2605 0.950 . S
C2576 H2558 0.951 . S
C2576 C2577 1.366 . S
C2576 C2578 1.388 . S
C2577 C2576 1.366 . S
C2577 C2581 1.385 . S
C2578 H2559 0.951 . S
C2578 C2576 1.388 . S
C2578 C2579 1.366 . S
C2579 C2578 1.366 . S
C2579 C2580 1.414 . S
C2579 C2582 1.499 . S
C2580 H2560 0.950 . S
C2580 C2579 1.414 . S
C2580 C2581 1.374 . S
C2581 H2561 0.950 . S
C2581 C2577 1.385 . S
C2581 C2580 1.374 . S
C2582 C2579 1.499 . S
C2582 C2583 1.373 . S
C2582 C2584 1.389 . S
C2583 H2562 0.950 . S
C2583 C2582 1.373 . S
C2583 C2599 1.377 . S
C2584 C2582 1.389 . S
C2584 C2585 1.524 . S
C2584 C2598 1.377 . S
C2585 C2584 1.524 . S
C2585 C2586 1.397 . S
C2585 C2590 1.363 . S
C2586 H2563 0.950 . S
C2586 C2585 1.397 . S
C2586 C2587 1.334 . S
C2587 H2564 0.950 . S
C2587 C2586 1.334 . S
C2587 C2588 1.287 . S
C2588 C2587 1.287 . S
C2588 C2589 1.524 . S
C2588 H2607 0.913 . S
C2589 H2565 0.950 . S
C2589 C2588 1.524 . S
C2589 C2590 1.415 . S
C2590 H2566 0.950 . S
C2590 C2585 1.363 . S
C2590 C2589 1.415 . S
C2591 H2567 0.951 . S
C2591 C2592 1.366 . S
C2591 C2593 1.388 . S
C2592 C2591 1.366 . S
C2592 C2596 1.385 . S
C2593 H2568 0.951 . S
C2593 C2591 1.388 . S
C2593 C2594 1.366 . S
C2594 C2593 1.366 . S
C2594 C2595 1.414 . S
C2594 C2597 1.499 . S
C2595 H2569 0.950 . S
C2595 C2594 1.414 . S
C2595 C2596 1.374 . S
C2596 H2570 0.950 . S
C2596 C2592 1.385 . S
C2596 C2595 1.374 . S
C2597 C2594 1.499 . S
C2597 C2598 1.373 . S
C2597 C2599 1.389 . S
C2598 H2571 0.950 . S
C2598 C2584 1.377 . S
C2598 C2597 1.373 . S
C2599 C2583 1.377 . S
C2599 C2597 1.389 . S
C2599 C2600 1.524 . S
C2600 C2599 1.524 . S
C2600 C2601 1.397 . S
C2600 C2605 1.363 . S
C2601 H2572 0.950 . S
C2601 C2600 1.397 . S
C2601 C2602 1.334 . S
C2602 H2573 0.950 1_655 S
C2602 C2601 1.334 . S
C2602 C2603 1.287 . S
C2603 C2602 1.287 . S
C2603 C2604 1.524 . S
C2603 H2606 0.999 . S
C2604 H2574 0.950 . S
C2604 C2603 1.524 . S
C2604 C2605 1.415 . S
C2605 H2575 0.950 . S
C2605 C2600 1.363 . S
C2605 C2604 1.415 . S
H2606 C2603 0.999 . S
H2607 C2588 0.913 . S
H2608 C2626 0.951 . S
H2609 C2628 0.951 . S
H2610 C2630 0.950 . S
H2611 C2631 0.950 . S
H2612 C2633 0.950 . S
H2613 C2636 0.950 . S
H2614 C2637 0.950 . S
H2615 C2639 0.950 . S
H2616 C2640 0.950 . S
H2617 C2641 0.951 . S
H2618 C2643 0.951 . S
H2619 C2645 0.950 . S
H2620 C2646 0.950 . S
H2621 C2648 0.950 . S
H2622 C2651 0.950 . S
H2623 C2652 0.950 . S
H2624 C2654 0.950 . S
H2625 C2655 0.950 . S
C2626 H2608 0.951 . S
C2626 C2627 1.366 . S
C2626 C2628 1.388 . S
C2627 C2626 1.366 . S
C2627 C2631 1.385 . S
C2628 H2609 0.951 . S
C2628 C2626 1.388 . S
C2628 C2629 1.366 . S
C2629 C2628 1.366 . S
C2629 C2630 1.414 . S
C2629 C2632 1.499 . S
C2630 H2610 0.950 . S
C2630 C2629 1.414 . S
C2630 C2631 1.374 . S
C2631 H2611 0.950 . S
C2631 C2627 1.385 . S
C2631 C2630 1.374 . S
C2632 C2629 1.499 . S
C2632 C2633 1.373 . S
C2632 C2634 1.389 . S
C2633 H2612 0.950 . S
C2633 C2632 1.373 . S
C2633 C2649 1.377 . S
C2634 C2632 1.389 . S
C2634 C2635 1.524 . S
C2634 C2648 1.377 . S
C2635 C2634 1.524 . S
C2635 C2636 1.397 . S
C2635 C2640 1.363 . S
C2636 H2613 0.950 . S
C2636 C2635 1.397 . S
C2636 C2637 1.334 . S
C2637 H2614 0.950 . S
C2637 C2636 1.334 . S
C2637 C2638 1.287 . S
C2638 C2637 1.287 . S
C2638 C2639 1.524 . S
C2638 H2657 0.913 . S
C2639 H2615 0.950 . S
C2639 C2638 1.524 . S
C2639 C2640 1.415 . S
C2640 H2616 0.950 . S
C2640 C2635 1.363 . S
C2640 C2639 1.415 . S
C2641 H2617 0.951 . S
C2641 C2642 1.366 . S
C2641 C2643 1.388 . S
C2642 C2641 1.366 . S
C2642 C2646 1.385 . S
C2643 H2618 0.951 . S
C2643 C2641 1.388 . S
C2643 C2644 1.366 . S
C2644 C2643 1.366 . S
C2644 C2645 1.414 . S
C2644 C2647 1.499 . S
C2645 H2619 0.950 . S
C2645 C2644 1.414 . S
C2645 C2646 1.374 . S
C2646 H2620 0.950 . S
C2646 C2642 1.385 . S
C2646 C2645 1.374 . S
C2647 C2644 1.499 . S
C2647 C2648 1.373 . S
C2647 C2649 1.389 . S
C2648 H2621 0.950 . S
C2648 C2634 1.377 . S
C2648 C2647 1.373 . S
C2649 C2633 1.377 . S
C2649 C2647 1.389 . S
C2649 C2650 1.524 . S
C2650 C2649 1.524 . S
C2650 C2651 1.397 . S
C2650 C2655 1.363 . S
C2651 H2622 0.950 . S
C2651 C2650 1.397 . S
C2651 C2652 1.334 . S
C2652 H2623 0.950 . S
C2652 C2651 1.334 . S
C2652 C2653 1.287 . S
C2653 C2652 1.287 . S
C2653 C2654 1.524 . S
C2653 H2656 0.999 . S
C2654 H2624 0.950 . S
C2654 C2653 1.524 . S
C2654 C2655 1.415 . S
C2655 H2625 0.950 . S
C2655 C2650 1.363 . S
C2655 C2654 1.415 . S
H2656 C2653 0.999 . S
H2657 C2638 0.913 . S
H2658 C2676 0.951 . S
H2659 C2678 0.951 . S
H2660 C2680 0.950 . S
H2661 C2681 0.950 . S
H2662 C2683 0.950 . S
H2663 C2686 0.950 . S
H2664 C2687 0.950 . S
H2665 C2689 0.950 . S
H2666 C2690 0.939 1_455 S
H2667 C2691 0.951 . S
H2668 C2693 0.951 . S
H2669 C2695 0.950 . S
H2670 C2696 0.930 1_455 S
H2671 C2698 0.950 . S
H2672 C2701 0.950 . S
H2673 C2702 0.950 . S
H2674 C2704 0.950 . S
H2675 C2705 0.950 . S
C2676 H2658 0.951 . S
C2676 C2677 1.366 . S
C2676 C2678 1.388 . S
C2677 C2676 1.366 . S
C2677 C2681 1.385 . S
C2678 H2659 0.951 . S
C2678 C2676 1.388 . S
C2678 C2679 1.366 . S
C2679 C2678 1.366 . S
C2679 C2680 1.414 . S
C2679 C2682 1.499 . S
C2680 H2660 0.950 . S
C2680 C2679 1.414 . S
C2680 C2681 1.374 . S
C2681 H2661 0.950 . S
C2681 C2677 1.385 . S
C2681 C2680 1.374 . S
C2682 C2679 1.499 . S
C2682 C2683 1.373 . S
C2682 C2684 1.389 . S
C2683 H2662 0.950 . S
C2683 C2682 1.373 . S
C2683 C2699 1.377 . S
C2684 C2682 1.389 . S
C2684 C2685 1.524 . S
C2684 C2698 1.377 . S
C2685 C2684 1.524 . S
C2685 C2686 1.397 . S
C2685 C2690 1.363 . S
C2686 H2663 0.950 . S
C2686 C2685 1.397 . S
C2686 C2687 1.334 . S
C2687 H2664 0.950 . S
C2687 C2686 1.334 . S
C2687 C2688 1.287 . S
C2688 C2687 1.287 . S
C2688 C2689 1.524 1_655 S
C2688 H2707 0.913 . S
C2689 H2665 0.950 . S
C2689 C2688 1.524 1_455 S
C2689 C2690 1.415 1_455 S
C2690 H2666 0.939 1_655 S
C2690 C2685 1.363 . S
C2690 C2689 1.415 1_655 S
C2691 H2667 0.951 . S
C2691 C2692 1.366 . S
C2691 C2693 1.388 . S
C2692 C2691 1.366 . S
C2692 C2696 1.385 . S
C2693 H2668 0.951 . S
C2693 C2691 1.388 . S
C2693 C2694 1.366 . S
C2694 C2693 1.366 . S
C2694 C2695 1.414 . S
C2694 C2697 1.499 . S
C2695 H2669 0.950 . S
C2695 C2694 1.414 . S
C2695 C2696 1.374 . S
C2696 H2670 0.930 1_655 S
C2696 C2692 1.385 . S
C2696 C2695 1.374 . S
C2697 C2694 1.499 . S
C2697 C2698 1.373 . S
C2697 C2699 1.389 . S
C2698 H2671 0.950 . S
C2698 C2684 1.377 . S
C2698 C2697 1.373 . S
C2699 C2683 1.377 . S
C2699 C2697 1.389 . S
C2699 C2700 1.524 . S
C2700 C2699 1.524 . S
C2700 C2701 1.397 . S
C2700 C2705 1.363 . S
C2701 H2672 0.950 . S
C2701 C2700 1.397 . S
C2701 C2702 1.334 . S
C2702 H2673 0.950 . S
C2702 C2701 1.334 . S
C2702 C2703 1.287 . S
C2703 C2702 1.287 . S
C2703 C2704 1.524 . S
C2703 H2706 0.999 . S
C2704 H2674 0.950 . S
C2704 C2703 1.524 . S
C2704 C2705 1.415 . S
C2705 H2675 0.950 . S
C2705 C2700 1.363 . S
C2705 C2704 1.415 . S
H2706 C2703 0.999 . S
H2707 C2688 0.913 . S
H2708 C2726 0.951 . S
H2709 C2728 0.951 . S
H2710 C2730 0.950 . S
H2711 C2731 0.950 . S
H2712 C2733 0.950 . S
H2713 C2736 0.950 . S
H2714 C2737 0.950 . S
H2715 C2739 0.950 . S
H2716 C2740 0.950 . S
H2717 C2741 0.951 . S
H2718 C2743 0.951 . S
H2719 C2745 0.950 . S
H2720 C2746 0.950 . S
H2721 C2748 0.950 . S
H2722 C2751 0.950 . S
H2723 C2752 0.950 . S
H2724 C2754 0.950 . S
H2725 C2755 0.950 . S
C2726 H2708 0.951 . S
C2726 C2727 1.366 . S
C2726 C2728 1.388 . S
C2727 C2726 1.366 . S
C2727 C2731 1.385 . S
C2728 H2709 0.951 . S
C2728 C2726 1.388 . S
C2728 C2729 1.366 . S
C2729 C2728 1.366 . S
C2729 C2730 1.414 . S
C2729 C2732 1.499 . S
C2730 H2710 0.950 . S
C2730 C2729 1.414 . S
C2730 C2731 1.374 . S
C2731 H2711 0.950 . S
C2731 C2727 1.385 . S
C2731 C2730 1.374 . S
C2732 C2729 1.499 . S
C2732 C2733 1.373 . S
C2732 C2734 1.389 . S
C2733 H2712 0.950 . S
C2733 C2732 1.373 . S
C2733 C2749 1.377 . S
C2734 C2732 1.389 . S
C2734 C2735 1.524 . S
C2734 C2748 1.377 . S
C2735 C2734 1.524 . S
C2735 C2736 1.397 . S
C2735 C2740 1.363 . S
C2736 H2713 0.950 . S
C2736 C2735 1.397 . S
C2736 C2737 1.334 . S
C2737 H2714 0.950 . S
C2737 C2736 1.334 . S
C2737 C2738 1.287 . S
C2738 C2737 1.287 . S
C2738 C2739 1.524 . S
C2738 H2757 0.913 . S
C2739 H2715 0.950 . S
C2739 C2738 1.524 . S
C2739 C2740 1.415 . S
C2740 H2716 0.950 . S
C2740 C2735 1.363 . S
C2740 C2739 1.415 . S
C2741 H2717 0.951 . S
C2741 C2742 1.366 . S
C2741 C2743 1.388 . S
C2742 C2741 1.366 . S
C2742 C2746 1.385 . S
C2743 H2718 0.951 . S
C2743 C2741 1.388 . S
C2743 C2744 1.366 . S
C2744 C2743 1.366 . S
C2744 C2745 1.414 . S
C2744 C2747 1.499 . S
C2745 H2719 0.950 . S
C2745 C2744 1.414 . S
C2745 C2746 1.374 . S
C2746 H2720 0.950 . S
C2746 C2742 1.385 . S
C2746 C2745 1.374 . S
C2747 C2744 1.499 . S
C2747 C2748 1.373 . S
C2747 C2749 1.389 . S
C2748 H2721 0.950 . S
C2748 C2734 1.377 . S
C2748 C2747 1.373 . S
C2749 C2733 1.377 . S
C2749 C2747 1.389 . S
C2749 C2750 1.524 . S
C2750 C2749 1.524 . S
C2750 C2751 1.397 . S
C2750 C2755 1.363 . S
C2751 H2722 0.950 . S
C2751 C2750 1.397 . S
C2751 C2752 1.334 . S
C2752 H2723 0.950 . S
C2752 C2751 1.334 . S
C2752 C2753 1.287 . S
C2753 C2752 1.287 . S
C2753 C2754 1.524 . S
C2753 H2756 0.999 . S
C2754 H2724 0.950 . S
C2754 C2753 1.524 . S
C2754 C2755 1.415 . S
C2755 H2725 0.950 . S
C2755 C2750 1.363 . S
C2755 C2754 1.415 . S
H2756 C2753 0.999 . S
H2757 C2738 0.913 . S
H2758 C2776 0.951 . S
H2759 C2778 0.951 . S
H2760 C2780 0.950 . S
H2761 C2781 0.950 . S
H2762 C2783 0.950 . S
H2763 C2786 0.950 . S
H2764 C2787 0.966 1_565 S
H2765 C2789 0.950 . S
H2766 C2790 0.950 . S
H2767 C2791 0.951 . S
H2768 C2793 0.951 . S
H2769 C2795 0.950 . S
H2770 C2796 0.950 . S
H2771 C2798 0.950 . S
H2772 C2801 0.950 . S
H2773 C2802 0.950 . S
H2774 C2804 0.950 . S
H2775 C2805 0.950 . S
C2776 H2758 0.951 . S
C2776 C2777 1.366 . S
C2776 C2778 1.388 . S
C2777 C2776 1.366 . S
C2777 C2781 1.385 . S
C2778 H2759 0.951 . S
C2778 C2776 1.388 . S
C2778 C2779 1.366 . S
C2779 C2778 1.366 . S
C2779 C2780 1.414 . S
C2779 C2782 1.499 . S
C2780 H2760 0.950 . S
C2780 C2779 1.414 . S
C2780 C2781 1.374 . S
C2781 H2761 0.950 . S
C2781 C2777 1.385 . S
C2781 C2780 1.374 . S
C2782 C2779 1.499 . S
C2782 C2783 1.373 . S
C2782 C2784 1.389 . S
C2783 H2762 0.950 . S
C2783 C2782 1.373 . S
C2783 C2799 1.377 . S
C2784 C2782 1.389 . S
C2784 C2785 1.524 . S
C2784 C2798 1.377 . S
C2785 C2784 1.524 . S
C2785 C2786 1.397 . S
C2785 C2790 1.363 . S
C2786 H2763 0.950 . S
C2786 C2785 1.397 . S
C2786 C2787 1.374 . S
C2787 H2764 0.966 1_545 S
C2787 C2786 1.374 . S
C2787 C2788 1.233 1_545 S
C2788 C2787 1.233 1_565 S
C2788 C2789 1.524 . S
C2788 H2807 0.913 . S
C2789 H2765 0.950 . S
C2789 C2788 1.524 . S
C2789 C2790 1.415 1_565 S
C2790 H2766 0.950 . S
C2790 C2785 1.363 . S
C2790 C2789 1.415 1_545 S
C2791 H2767 0.951 . S
C2791 C2792 1.366 . S
C2791 C2793 1.388 . S
C2792 C2791 1.366 . S
C2792 C2796 1.385 . S
C2793 H2768 0.951 . S
C2793 C2791 1.388 . S
C2793 C2794 1.366 . S
C2794 C2793 1.366 . S
C2794 C2795 1.414 . S
C2794 C2797 1.499 . S
C2795 H2769 0.950 . S
C2795 C2794 1.414 . S
C2795 C2796 1.374 . S
C2796 H2770 0.950 . S
C2796 C2792 1.385 . S
C2796 C2795 1.374 . S
C2797 C2794 1.499 . S
C2797 C2798 1.373 . S
C2797 C2799 1.389 . S
C2798 H2771 0.950 . S
C2798 C2784 1.377 . S
C2798 C2797 1.373 . S
C2799 C2783 1.377 . S
C2799 C2797 1.389 . S
C2799 C2800 1.524 . S
C2800 C2799 1.524 . S
C2800 C2801 1.397 . S
C2800 C2805 1.363 . S
C2801 H2772 0.950 . S
C2801 C2800 1.397 . S
C2801 C2802 1.334 . S
C2802 H2773 0.950 . S
C2802 C2801 1.334 . S
C2802 C2803 1.287 . S
C2803 C2802 1.287 . S
C2803 C2804 1.524 . S
C2803 H2806 0.999 . S
C2804 H2774 0.950 . S
C2804 C2803 1.524 . S
C2804 C2805 1.415 . S
C2805 H2775 0.950 . S
C2805 C2800 1.363 . S
C2805 C2804 1.415 . S
H2806 C2803 0.999 . S
H2807 C2788 0.913 . S
H2808 C2826 0.951 . S
H2809 C2828 0.951 . S
H2810 C2830 0.950 . S
H2811 C2831 0.950 . S
H2812 C2833 0.950 . S
H2813 C2836 0.950 . S
H2814 C2837 0.950 . S
H2815 C2839 0.950 . S
H2816 C2840 0.950 . S
H2817 C2841 0.951 . S
H2818 C2843 0.951 . S
H2819 C2845 0.950 . S
H2820 C2846 0.950 . S
H2821 C2848 0.950 . S
H2822 C2851 0.950 . S
H2823 C2852 0.948 . S
H2824 C2854 0.950 . S
H2825 C2855 0.950 . S
C2826 H2808 0.951 . S
C2826 C2827 1.366 . S
C2826 C2828 1.388 . S
C2827 C2826 1.366 . S
C2827 C2831 1.385 . S
C2828 H2809 0.951 . S
C2828 C2826 1.388 . S
C2828 C2829 1.366 . S
C2829 C2828 1.366 . S
C2829 C2830 1.414 . S
C2829 C2832 1.499 . S
C2830 H2810 0.950 . S
C2830 C2829 1.414 . S
C2830 C2831 1.374 . S
C2831 H2811 0.950 . S
C2831 C2827 1.385 . S
C2831 C2830 1.374 . S
C2832 C2829 1.499 . S
C2832 C2833 1.373 . S
C2832 C2834 1.389 . S
C2833 H2812 0.950 . S
C2833 C2832 1.373 . S
C2833 C2849 1.377 . S
C2834 C2832 1.389 . S
C2834 C2835 1.524 . S
C2834 C2848 1.377 . S
C2835 C2834 1.524 . S
C2835 C2836 1.397 . S
C2835 C2840 1.363 . S
C2836 H2813 0.950 . S
C2836 C2835 1.397 . S
C2836 C2837 1.334 . S
C2837 H2814 0.950 . S
C2837 C2836 1.334 . S
C2837 C2838 1.287 . S
C2838 C2837 1.287 . S
C2838 C2839 1.524 . S
C2838 H2857 0.913 . S
C2839 H2815 0.950 . S
C2839 C2838 1.524 . S
C2839 C2840 1.415 . S
C2840 H2816 0.950 . S
C2840 C2835 1.363 . S
C2840 C2839 1.415 . S
C2841 H2817 0.951 . S
C2841 C2842 1.366 . S
C2841 C2843 1.388 . S
C2842 C2841 1.366 . S
C2842 C2846 1.385 . S
C2843 H2818 0.951 . S
C2843 C2841 1.388 . S
C2843 C2844 1.366 . S
C2844 C2843 1.366 . S
C2844 C2845 1.414 . S
C2844 C2847 1.499 . S
C2845 H2819 0.950 . S
C2845 C2844 1.414 . S
C2845 C2846 1.374 . S
C2846 H2820 0.950 . S
C2846 C2842 1.385 . S
C2846 C2845 1.374 . S
C2847 C2844 1.499 . S
C2847 C2848 1.373 . S
C2847 C2849 1.389 . S
C2848 H2821 0.950 . S
C2848 C2834 1.377 . S
C2848 C2847 1.373 . S
C2849 C2833 1.377 . S
C2849 C2847 1.389 . S
C2849 C2850 1.524 . S
C2850 C2849 1.524 . S
C2850 C2851 1.397 . S
C2850 C2855 1.363 . S
C2851 H2822 0.950 . S
C2851 C2850 1.397 . S
C2851 C2852 1.336 1_565 S
C2852 H2823 0.948 . S
C2852 C2851 1.336 1_545 S
C2852 C2853 1.287 1_545 S
C2853 C2852 1.287 1_565 S
C2853 C2854 1.524 . S
C2853 H2856 0.999 . S
C2854 H2824 0.950 . S
C2854 C2853 1.524 . S
C2854 C2855 1.415 . S
C2855 H2825 0.950 . S
C2855 C2850 1.363 . S
C2855 C2854 1.415 . S
H2856 C2853 0.999 . S
H2857 C2838 0.913 . S
H2858 C2876 0.951 . S
H2859 C2878 0.951 . S
H2860 C2880 0.950 . S
H2861 C2881 0.950 . S
H2862 C2883 0.950 . S
H2863 C2886 0.950 . S
H2864 C2887 0.950 . S
H2865 C2889 0.950 . S
H2866 C2890 0.950 . S
H2867 C2891 0.951 . S
H2868 C2893 0.951 . S
H2869 C2895 0.950 . S
H2870 C2896 0.950 . S
H2871 C2898 0.950 . S
H2872 C2901 0.950 . S
H2873 C2902 0.950 . S
H2874 C2904 0.950 . S
H2875 C2905 0.950 . S
C2876 H2858 0.951 . S
C2876 C2877 1.366 . S
C2876 C2878 1.388 . S
C2877 C2876 1.366 . S
C2877 C2881 1.385 . S
C2878 H2859 0.951 . S
C2878 C2876 1.388 . S
C2878 C2879 1.366 . S
C2879 C2878 1.366 . S
C2879 C2880 1.414 . S
C2879 C2882 1.499 . S
C2880 H2860 0.950 . S
C2880 C2879 1.414 . S
C2880 C2881 1.374 . S
C2881 H2861 0.950 . S
C2881 C2877 1.385 . S
C2881 C2880 1.374 . S
C2882 C2879 1.499 . S
C2882 C2883 1.373 . S
C2882 C2884 1.389 . S
C2883 H2862 0.950 . S
C2883 C2882 1.373 . S
C2883 C2899 1.377 . S
C2884 C2882 1.389 . S
C2884 C2885 1.524 . S
C2884 C2898 1.377 . S
C2885 C2884 1.524 . S
C2885 C2886 1.397 . S
C2885 C2890 1.363 . S
C2886 H2863 0.950 . S
C2886 C2885 1.397 . S
C2886 C2887 1.334 . S
C2887 H2864 0.950 . S
C2887 C2886 1.334 . S
C2887 C2888 1.287 . S
C2888 C2887 1.287 . S
C2888 C2889 1.524 . S
C2888 H2907 0.913 . S
C2889 H2865 0.950 . S
C2889 C2888 1.524 . S
C2889 C2890 1.415 . S
C2890 H2866 0.950 . S
C2890 C2885 1.363 . S
C2890 C2889 1.415 . S
C2891 H2867 0.951 . S
C2891 C2892 1.366 . S
C2891 C2893 1.388 . S
C2892 C2891 1.366 . S
C2892 C2896 1.385 . S
C2893 H2868 0.951 . S
C2893 C2891 1.388 . S
C2893 C2894 1.366 . S
C2894 C2893 1.366 . S
C2894 C2895 1.414 . S
C2894 C2897 1.499 . S
C2895 H2869 0.950 . S
C2895 C2894 1.414 . S
C2895 C2896 1.374 . S
C2896 H2870 0.950 . S
C2896 C2892 1.385 . S
C2896 C2895 1.374 . S
C2897 C2894 1.499 . S
C2897 C2898 1.373 . S
C2897 C2899 1.389 . S
C2898 H2871 0.950 . S
C2898 C2884 1.377 . S
C2898 C2897 1.373 . S
C2899 C2883 1.377 . S
C2899 C2897 1.389 . S
C2899 C2900 1.524 . S
C2900 C2899 1.524 . S
C2900 C2901 1.397 . S
C2900 C2905 1.363 . S
C2901 H2872 0.950 . S
C2901 C2900 1.397 . S
C2901 C2902 1.334 . S
C2902 H2873 0.950 . S
C2902 C2901 1.334 . S
C2902 C2903 1.287 . S
C2903 C2902 1.287 . S
C2903 C2904 1.524 . S
C2903 H2906 0.999 . S
C2904 H2874 0.950 . S
C2904 C2903 1.524 . S
C2904 C2905 1.415 . S
C2905 H2875 0.950 . S
C2905 C2900 1.363 . S
C2905 C2904 1.415 . S
H2906 C2903 0.999 . S
H2907 C2888 0.913 . S
H2908 C2926 0.951 . S
H2909 C2928 0.951 . S
H2910 C2930 0.950 . S
H2911 C2931 0.950 . S
H2912 C2933 0.950 . S
H2913 C2936 0.950 . S
H2914 C2937 0.950 . S
H2915 C2939 0.950 . S
H2916 C2940 0.950 . S
H2917 C2941 0.951 . S
H2918 C2943 0.951 . S
H2919 C2945 0.950 . S
H2920 C2946 0.950 . S
H2921 C2948 0.950 . S
H2922 C2951 0.950 . S
H2923 C2952 0.950 . S
H2924 C2954 0.950 . S
H2925 C2955 0.950 . S
C2926 H2908 0.951 . S
C2926 C2927 1.366 . S
C2926 C2928 1.388 . S
C2927 C2926 1.366 . S
C2927 C2931 1.385 . S
C2928 H2909 0.951 . S
C2928 C2926 1.388 . S
C2928 C2929 1.366 . S
C2929 C2928 1.366 . S
C2929 C2930 1.414 . S
C2929 C2932 1.499 . S
C2930 H2910 0.950 . S
C2930 C2929 1.414 . S
C2930 C2931 1.374 . S
C2931 H2911 0.950 . S
C2931 C2927 1.385 . S
C2931 C2930 1.374 . S
C2932 C2929 1.499 . S
C2932 C2933 1.373 . S
C2932 C2934 1.389 . S
C2933 H2912 0.950 . S
C2933 C2932 1.373 . S
C2933 C2949 1.377 . S
C2934 C2932 1.389 . S
C2934 C2935 1.524 . S
C2934 C2948 1.377 . S
C2935 C2934 1.524 . S
C2935 C2936 1.397 . S
C2935 C2940 1.363 . S
C2936 H2913 0.950 . S
C2936 C2935 1.397 . S
C2936 C2937 1.334 . S
C2937 H2914 0.950 . S
C2937 C2936 1.334 . S
C2937 C2938 1.287 . S
C2938 C2937 1.287 . S
C2938 C2939 1.524 . S
C2938 H2957 0.913 . S
C2939 H2915 0.950 . S
C2939 C2938 1.524 . S
C2939 C2940 1.415 . S
C2940 H2916 0.950 . S
C2940 C2935 1.363 . S
C2940 C2939 1.415 . S
C2941 H2917 0.951 . S
C2941 C2942 1.366 . S
C2941 C2943 1.388 . S
C2942 C2941 1.366 . S
C2942 C2946 1.385 . S
C2943 H2918 0.951 . S
C2943 C2941 1.388 . S
C2943 C2944 1.366 . S
C2944 C2943 1.366 . S
C2944 C2945 1.414 . S
C2944 C2947 1.499 . S
C2945 H2919 0.950 . S
C2945 C2944 1.414 . S
C2945 C2946 1.374 . S
C2946 H2920 0.950 . S
C2946 C2942 1.385 . S
C2946 C2945 1.374 . S
C2947 C2944 1.499 . S
C2947 C2948 1.373 . S
C2947 C2949 1.389 . S
C2948 H2921 0.950 . S
C2948 C2934 1.377 . S
C2948 C2947 1.373 . S
C2949 C2933 1.377 . S
C2949 C2947 1.389 . S
C2949 C2950 1.524 . S
C2950 C2949 1.524 . S
C2950 C2951 1.397 . S
C2950 C2955 1.363 . S
C2951 H2922 0.950 . S
C2951 C2950 1.397 . S
C2951 C2952 1.334 . S
C2952 H2923 0.950 . S
C2952 C2951 1.334 . S
C2952 C2953 1.287 . S
C2953 C2952 1.287 . S
C2953 C2954 1.524 . S
C2953 H2956 0.999 . S
C2954 H2924 0.950 . S
C2954 C2953 1.524 . S
C2954 C2955 1.415 . S
C2955 H2925 0.950 . S
C2955 C2950 1.363 . S
C2955 C2954 1.415 . S
H2956 C2953 0.999 . S
H2957 C2938 0.913 . S
H2958 C2976 0.951 . S
H2959 C2978 0.951 . S
H2960 C2980 0.950 . S
H2961 C2981 0.950 . S
H2962 C2983 0.950 . S
H2963 C2986 0.950 . S
H2964 C2987 0.950 . S
H2965 C2989 0.950 . S
H2966 C2990 0.950 . S
H2967 C2991 0.951 . S
H2968 C2993 0.951 . S
H2969 C2995 0.950 . S
H2970 C2996 0.950 . S
H2971 C2998 0.950 . S
H2972 C3001 0.950 . S
H2973 C3002 0.950 . S
H2974 C3004 0.950 . S
H2975 C3005 0.950 . S
C2976 H2958 0.951 . S
C2976 C2977 1.366 . S
C2976 C2978 1.388 . S
C2977 C2976 1.366 . S
C2977 C2981 1.385 . S
C2978 H2959 0.951 . S
C2978 C2976 1.388 . S
C2978 C2979 1.366 . S
C2979 C2978 1.366 . S
C2979 C2980 1.414 . S
C2979 C2982 1.499 . S
C2980 H2960 0.950 . S
C2980 C2979 1.414 . S
C2980 C2981 1.374 . S
C2981 H2961 0.950 . S
C2981 C2977 1.385 . S
C2981 C2980 1.374 . S
C2982 C2979 1.499 . S
C2982 C2983 1.373 . S
C2982 C2984 1.389 . S
C2983 H2962 0.950 . S
C2983 C2982 1.373 . S
C2983 C2999 1.377 . S
C2984 C2982 1.389 . S
C2984 C2985 1.524 . S
C2984 C2998 1.377 . S
C2985 C2984 1.524 . S
C2985 C2986 1.397 . S
C2985 C2990 1.363 . S
C2986 H2963 0.950 . S
C2986 C2985 1.397 . S
C2986 C2987 1.334 . S
C2987 H2964 0.950 . S
C2987 C2986 1.334 . S
C2987 C2988 1.287 . S
C2988 C2987 1.287 . S
C2988 C2989 1.524 . S
C2988 H3007 0.913 . S
C2989 H2965 0.950 . S
C2989 C2988 1.524 . S
C2989 C2990 1.415 . S
C2990 H2966 0.950 . S
C2990 C2985 1.363 . S
C2990 C2989 1.415 . S
C2991 H2967 0.951 . S
C2991 C2992 1.366 . S
C2991 C2993 1.388 . S
C2992 C2991 1.366 . S
C2992 C2996 1.385 . S
C2993 H2968 0.951 . S
C2993 C2991 1.388 . S
C2993 C2994 1.366 . S
C2994 C2993 1.366 . S
C2994 C2995 1.414 . S
C2994 C2997 1.499 . S
C2995 H2969 0.950 . S
C2995 C2994 1.414 . S
C2995 C2996 1.374 . S
C2996 H2970 0.950 . S
C2996 C2992 1.385 . S
C2996 C2995 1.374 . S
C2997 C2994 1.499 . S
C2997 C2998 1.373 . S
C2997 C2999 1.389 . S
C2998 H2971 0.950 . S
C2998 C2984 1.377 . S
C2998 C2997 1.373 . S
C2999 C2983 1.377 . S
C2999 C2997 1.389 . S
C2999 C3000 1.524 . S
C3000 C2999 1.524 . S
C3000 C3001 1.397 . S
C3000 C3005 1.363 . S
C3001 H2972 0.950 . S
C3001 C3000 1.397 . S
C3001 C3002 1.334 . S
C3002 H2973 0.950 . S
C3002 C3001 1.334 . S
C3002 C3003 1.287 . S
C3003 C3002 1.287 . S
C3003 C3004 1.524 . S
C3003 H3006 0.999 . S
C3004 H2974 0.950 . S
C3004 C3003 1.524 . S
C3004 C3005 1.415 . S
C3005 H2975 0.950 . S
C3005 C3000 1.363 . S
C3005 C3004 1.415 . S
H3006 C3003 0.999 . S
H3007 C2988 0.913 . S
H3008 C3026 0.951 . S
H3009 C3028 0.951 1_565 S
H3010 C3030 0.950 . S
H3011 C3031 0.950 . S
H3012 C3033 0.950 . S
H3013 C3036 0.950 . S
H3014 C3037 0.950 . S
H3015 C3039 0.950 . S
H3016 C3040 0.950 . S
H3017 C3041 0.951 . S
H3018 C3043 0.951 . S
H3019 C3045 0.950 . S
H3020 C3046 0.950 . S
H3021 C3048 0.950 . S
H3022 C3051 0.950 . S
H3023 C3052 0.950 . S
H3024 C3054 0.950 . S
H3025 C3055 0.950 . S
C3026 H3008 0.951 . S
C3026 C3027 1.366 . S
C3026 C3028 1.388 . S
C3027 C3026 1.366 . S
C3027 C3031 1.385 . S
C3028 H3009 0.951 1_545 S
C3028 C3026 1.388 . S
C3028 C3029 1.366 . S
C3029 C3028 1.366 . S
C3029 C3030 1.414 . S
C3029 C3032 1.499 1_545 S
C3030 H3010 0.950 . S
C3030 C3029 1.414 . S
C3030 C3031 1.374 . S
C3031 H3011 0.950 . S
C3031 C3027 1.385 . S
C3031 C3030 1.374 . S
C3032 C3029 1.499 1_565 S
C3032 C3033 1.373 . S
C3032 C3034 1.389 . S
C3033 H3012 0.950 . S
C3033 C3032 1.373 . S
C3033 C3049 1.377 . S
C3034 C3032 1.389 . S
C3034 C3035 1.524 . S
C3034 C3048 1.377 . S
C3035 C3034 1.524 . S
C3035 C3036 1.397 . S
C3035 C3040 1.363 . S
C3036 H3013 0.950 . S
C3036 C3035 1.397 . S
C3036 C3037 1.334 . S
C3037 H3014 0.950 . S
C3037 C3036 1.334 . S
C3037 C3038 1.287 . S
C3038 C3037 1.287 . S
C3038 C3039 1.524 . S
C3038 H3057 0.913 . S
C3039 H3015 0.950 . S
C3039 C3038 1.524 . S
C3039 C3040 1.415 . S
C3040 H3016 0.950 . S
C3040 C3035 1.363 . S
C3040 C3039 1.415 . S
C3041 H3017 0.951 . S
C3041 C3042 1.366 . S
C3041 C3043 1.388 . S
C3042 C3041 1.366 . S
C3042 C3046 1.385 . S
C3043 H3018 0.951 . S
C3043 C3041 1.388 . S
C3043 C3044 1.366 . S
C3044 C3043 1.366 . S
C3044 C3045 1.414 . S
C3044 C3047 1.499 . S
C3045 H3019 0.950 . S
C3045 C3044 1.414 . S
C3045 C3046 1.374 . S
C3046 H3020 0.950 . S
C3046 C3042 1.385 . S
C3046 C3045 1.374 . S
C3047 C3044 1.499 . S
C3047 C3048 1.373 . S
C3047 C3049 1.389 . S
C3048 H3021 0.950 . S
C3048 C3034 1.377 . S
C3048 C3047 1.373 . S
C3049 C3033 1.377 . S
C3049 C3047 1.389 . S
C3049 C3050 1.524 . S
C3050 C3049 1.524 . S
C3050 C3051 1.397 . S
C3050 C3055 1.363 . S
C3051 H3022 0.950 . S
C3051 C3050 1.397 . S
C3051 C3052 1.334 . S
C3052 H3023 0.950 . S
C3052 C3051 1.334 . S
C3052 C3053 1.287 . S
C3053 C3052 1.287 . S
C3053 C3054 1.524 . S
C3053 H3056 0.999 . S
C3054 H3024 0.950 . S
C3054 C3053 1.524 . S
C3054 C3055 1.415 . S
C3055 H3025 0.950 . S
C3055 C3050 1.363 . S
C3055 C3054 1.415 . S
H3056 C3053 0.999 . S
H3057 C3038 0.913 . S
H3058 C3076 0.951 . S
H3059 C3078 0.951 . S
H3060 C3080 0.950 . S
H3061 C3081 0.950 . S
H3062 C3083 0.950 . S
H3063 C3086 0.950 . S
H3064 C3087 0.950 . S
H3065 C3089 0.950 . S
H3066 C3090 0.950 . S
H3067 C3091 0.951 . S
H3068 C3093 0.951 . S
H3069 C3095 0.950 . S
H3070 C3096 0.950 . S
H3071 C3098 0.950 . S
H3072 C3101 0.950 . S
H3073 C3102 0.950 . S
H3074 C3104 0.950 . S
H3075 C3105 0.950 . S
C3076 H3058 0.951 . S
C3076 C3077 1.366 . S
C3076 C3078 1.388 . S
C3077 C3076 1.366 . S
C3077 C3081 1.385 . S
C3078 H3059 0.951 . S
C3078 C3076 1.388 . S
C3078 C3079 1.366 1_655 S
C3079 C3078 1.366 1_455 S
C3079 C3080 1.414 . S
C3079 C3082 1.499 . S
C3080 H3060 0.950 . S
C3080 C3079 1.414 . S
C3080 C3081 1.374 1_455 S
C3081 H3061 0.950 . S
C3081 C3077 1.385 . S
C3081 C3080 1.374 1_655 S
C3082 C3079 1.499 . S
C3082 C3083 1.373 . S
C3082 C3084 1.389 . S
C3083 H3062 0.950 . S
C3083 C3082 1.373 . S
C3083 C3099 1.377 . S
C3084 C3082 1.389 . S
C3084 C3085 1.524 . S
C3084 C3098 1.377 . S
C3085 C3084 1.524 . S
C3085 C3086 1.397 . S
C3085 C3090 1.363 . S
C3086 H3063 0.950 . S
C3086 C3085 1.397 . S
C3086 C3087 1.334 . S
C3087 H3064 0.950 . S
C3087 C3086 1.334 . S
C3087 C3088 1.287 . S
C3088 C3087 1.287 . S
C3088 C3089 1.524 . S
C3088 H3107 0.913 . S
C3089 H3065 0.950 . S
C3089 C3088 1.524 . S
C3089 C3090 1.415 . S
C3090 H3066 0.950 . S
C3090 C3085 1.363 . S
C3090 C3089 1.415 . S
C3091 H3067 0.951 . S
C3091 C3092 1.366 . S
C3091 C3093 1.388 . S
C3092 C3091 1.366 . S
C3092 C3096 1.385 . S
C3093 H3068 0.951 . S
C3093 C3091 1.388 . S
C3093 C3094 1.366 . S
C3094 C3093 1.366 . S
C3094 C3095 1.414 . S
C3094 C3097 1.499 . S
C3095 H3069 0.950 . S
C3095 C3094 1.414 . S
C3095 C3096 1.374 . S
C3096 H3070 0.950 . S
C3096 C3092 1.385 . S
C3096 C3095 1.374 . S
C3097 C3094 1.499 . S
C3097 C3098 1.373 . S
C3097 C3099 1.389 . S
C3098 H3071 0.950 . S
C3098 C3084 1.377 . S
C3098 C3097 1.373 . S
C3099 C3083 1.377 . S
C3099 C3097 1.389 . S
C3099 C3100 1.524 . S
C3100 C3099 1.524 . S
C3100 C3101 1.397 . S
C3100 C3105 1.363 . S
C3101 H3072 0.950 . S
C3101 C3100 1.397 . S
C3101 C3102 1.334 . S
C3102 H3073 0.950 . S
C3102 C3101 1.334 . S
C3102 C3103 1.287 . S
C3103 C3102 1.287 . S
C3103 C3104 1.524 . S
C3103 H3106 0.999 . S
C3104 H3074 0.950 . S
C3104 C3103 1.524 . S
C3104 C3105 1.415 . S
C3105 H3075 0.950 . S
C3105 C3100 1.363 . S
C3105 C3104 1.415 . S
H3106 C3103 0.999 . S
H3107 C3088 0.913 . S
H3108 C3126 0.951 . S
H3109 C3128 0.951 . S
H3110 C3130 0.950 . S
H3111 C3131 0.950 . S
H3112 C3133 0.950 . S
H3113 C3136 0.950 . S
H3114 C3137 0.950 . S
H3115 C3139 0.950 . S
H3116 C3140 0.950 . S
H3117 C3141 0.951 . S
H3118 C3143 0.951 . S
H3119 C3145 0.950 . S
H3120 C3146 0.950 . S
H3121 C3148 0.950 . S
H3122 C3151 0.950 . S
H3123 C3152 0.950 . S
H3124 C3154 0.950 . S
H3125 C3155 0.950 . S
C3126 H3108 0.951 . S
C3126 C3127 1.366 . S
C3126 C3128 1.388 . S
C3127 C3126 1.366 . S
C3127 C3131 1.385 . S
C3128 H3109 0.951 . S
C3128 C3126 1.388 . S
C3128 C3129 1.366 . S
C3129 C3128 1.366 . S
C3129 C3130 1.414 . S
C3129 C3132 1.499 . S
C3130 H3110 0.950 . S
C3130 C3129 1.414 . S
C3130 C3131 1.374 . S
C3131 H3111 0.950 . S
C3131 C3127 1.385 . S
C3131 C3130 1.374 . S
C3132 C3129 1.499 . S
C3132 C3133 1.373 . S
C3132 C3134 1.389 . S
C3133 H3112 0.950 . S
C3133 C3132 1.373 . S
C3133 C3149 1.377 . S
C3134 C3132 1.389 . S
C3134 C3135 1.524 . S
C3134 C3148 1.377 . S
C3135 C3134 1.524 . S
C3135 C3136 1.397 . S
C3135 C3140 1.363 . S
C3136 H3113 0.950 . S
C3136 C3135 1.397 . S
C3136 C3137 1.334 . S
C3137 H3114 0.950 . S
C3137 C3136 1.334 . S
C3137 C3138 1.287 . S
C3138 C3137 1.287 . S
C3138 C3139 1.524 . S
C3138 H3157 0.913 . S
C3139 H3115 0.950 . S
C3139 C3138 1.524 . S
C3139 C3140 1.415 . S
C3140 H3116 0.950 . S
C3140 C3135 1.363 . S
C3140 C3139 1.415 . S
C3141 H3117 0.951 . S
C3141 C3142 1.366 . S
C3141 C3143 1.388 . S
C3142 C3141 1.366 . S
C3142 C3146 1.385 . S
C3143 H3118 0.951 . S
C3143 C3141 1.388 . S
C3143 C3144 1.366 . S
C3144 C3143 1.366 . S
C3144 C3145 1.414 . S
C3144 C3147 1.499 . S
C3145 H3119 0.950 . S
C3145 C3144 1.414 . S
C3145 C3146 1.374 . S
C3146 H3120 0.950 . S
C3146 C3142 1.385 . S
C3146 C3145 1.374 . S
C3147 C3144 1.499 . S
C3147 C3148 1.373 . S
C3147 C3149 1.389 . S
C3148 H3121 0.950 . S
C3148 C3134 1.377 . S
C3148 C3147 1.373 . S
C3149 C3133 1.377 . S
C3149 C3147 1.389 . S
C3149 C3150 1.524 . S
C3150 C3149 1.524 . S
C3150 C3151 1.397 . S
C3150 C3155 1.363 . S
C3151 H3122 0.950 . S
C3151 C3150 1.397 . S
C3151 C3152 1.334 . S
C3152 H3123 0.950 . S
C3152 C3151 1.334 . S
C3152 C3153 1.287 . S
C3153 C3152 1.287 . S
C3153 C3154 1.524 . S
C3153 H3156 0.999 . S
C3154 H3124 0.950 . S
C3154 C3153 1.524 . S
C3154 C3155 1.415 . S
C3155 H3125 0.950 . S
C3155 C3150 1.363 . S
C3155 C3154 1.415 . S
H3156 C3153 0.999 . S
H3157 C3138 0.913 . S
H3158 C3176 0.951 . S
H3159 C3178 0.951 . S
H3160 C3180 0.950 . S
H3161 C3181 0.950 . S
H3162 C3183 0.950 . S
H3163 C3186 0.950 . S
H3164 C3187 0.950 . S
H3165 C3189 0.950 . S
H3166 C3190 0.950 . S
H3167 C3191 0.951 . S
H3168 C3193 0.951 . S
H3169 C3195 0.950 . S
H3170 C3196 0.950 . S
H3171 C3198 0.950 . S
H3172 C3201 0.950 . S
H3173 C3202 0.950 . S
H3174 C3204 0.950 . S
H3175 C3205 0.950 . S
C3176 H3158 0.951 . S
C3176 C3177 1.366 . S
C3176 C3178 1.388 . S
C3177 C3176 1.366 . S
C3177 C3181 1.385 . S
C3178 H3159 0.951 . S
C3178 C3176 1.388 . S
C3178 C3179 1.366 . S
C3179 C3178 1.366 . S
C3179 C3180 1.414 . S
C3179 C3182 1.499 . S
C3180 H3160 0.950 . S
C3180 C3179 1.414 . S
C3180 C3181 1.374 . S
C3181 H3161 0.950 . S
C3181 C3177 1.385 . S
C3181 C3180 1.374 . S
C3182 C3179 1.499 . S
C3182 C3183 1.373 . S
C3182 C3184 1.389 . S
C3183 H3162 0.950 . S
C3183 C3182 1.373 . S
C3183 C3199 1.377 . S
C3184 C3182 1.389 . S
C3184 C3185 1.524 . S
C3184 C3198 1.377 . S
C3185 C3184 1.524 . S
C3185 C3186 1.397 . S
C3185 C3190 1.363 . S
C3186 H3163 0.950 . S
C3186 C3185 1.397 . S
C3186 C3187 1.334 . S
C3187 H3164 0.950 . S
C3187 C3186 1.334 . S
C3187 C3188 1.287 . S
C3188 C3187 1.287 . S
C3188 C3189 1.524 . S
C3188 H3207 0.913 . S
C3189 H3165 0.950 . S
C3189 C3188 1.524 . S
C3189 C3190 1.415 . S
C3190 H3166 0.950 . S
C3190 C3185 1.363 . S
C3190 C3189 1.415 . S
C3191 H3167 0.951 . S
C3191 C3192 1.366 . S
C3191 C3193 1.388 . S
C3192 C3191 1.366 . S
C3192 C3196 1.385 . S
C3193 H3168 0.951 . S
C3193 C3191 1.388 . S
C3193 C3194 1.366 . S
C3194 C3193 1.366 . S
C3194 C3195 1.414 . S
C3194 C3197 1.499 . S
C3195 H3169 0.950 . S
C3195 C3194 1.414 . S
C3195 C3196 1.374 . S
C3196 H3170 0.950 . S
C3196 C3192 1.385 . S
C3196 C3195 1.374 . S
C3197 C3194 1.499 . S
C3197 C3198 1.373 . S
C3197 C3199 1.389 . S
C3198 H3171 0.950 . S
C3198 C3184 1.377 . S
C3198 C3197 1.373 . S
C3199 C3183 1.377 . S
C3199 C3197 1.389 . S
C3199 C3200 1.524 . S
C3200 C3199 1.524 . S
C3200 C3201 1.397 . S
C3200 C3205 1.363 . S
C3201 H3172 0.950 . S
C3201 C3200 1.397 . S
C3201 C3202 1.334 . S
C3202 H3173 0.950 . S
C3202 C3201 1.334 . S
C3202 C3203 1.287 . S
C3203 C3202 1.287 . S
C3203 C3204 1.524 . S
C3203 H3206 0.999 . S
C3204 H3174 0.950 . S
C3204 C3203 1.524 . S
C3204 C3205 1.415 . S
C3205 H3175 0.950 . S
C3205 C3200 1.363 . S
C3205 C3204 1.415 . S
H3206 C3203 0.999 . S
H3207 C3188 0.913 . S
H3208 C3226 0.951 . S
H3209 C3228 0.951 . S
H3210 C3230 0.950 . S
H3211 C3231 0.950 . S
H3212 C3233 0.950 . S
H3213 C3236 0.950 . S
H3214 C3237 0.950 . S
H3215 C3239 0.950 . S
H3216 C3240 0.950 . S
H3217 C3241 0.951 . S
H3218 C3243 0.951 . S
H3219 C3245 0.950 . S
H3220 C3246 0.950 . S
H3221 C3248 0.950 . S
H3222 C3251 0.950 . S
H3223 C3252 0.950 . S
H3224 C3254 0.950 . S
H3225 C3255 0.950 . S
C3226 H3208 0.951 . S
C3226 C3227 1.366 . S
C3226 C3228 1.388 . S
C3227 C3226 1.366 . S
C3227 C3231 1.385 . S
C3228 H3209 0.951 . S
C3228 C3226 1.388 . S
C3228 C3229 1.366 . S
C3229 C3228 1.366 . S
C3229 C3230 1.414 . S
C3229 C3232 1.499 . S
C3230 H3210 0.950 . S
C3230 C3229 1.414 . S
C3230 C3231 1.374 . S
C3231 H3211 0.950 . S
C3231 C3227 1.385 . S
C3231 C3230 1.374 . S
C3232 C3229 1.499 . S
C3232 C3233 1.373 . S
C3232 C3234 1.389 . S
C3233 H3212 0.950 . S
C3233 C3232 1.373 . S
C3233 C3249 1.377 . S
C3234 C3232 1.389 . S
C3234 C3235 1.524 . S
C3234 C3248 1.377 . S
C3235 C3234 1.524 . S
C3235 C3236 1.397 . S
C3235 C3240 1.363 . S
C3236 H3213 0.950 . S
C3236 C3235 1.397 . S
C3236 C3237 1.334 . S
C3237 H3214 0.950 . S
C3237 C3236 1.334 . S
C3237 C3238 1.287 . S
C3238 C3237 1.287 . S
C3238 C3239 1.524 . S
C3238 H3257 0.913 . S
C3239 H3215 0.950 . S
C3239 C3238 1.524 . S
C3239 C3240 1.415 . S
C3240 H3216 0.950 . S
C3240 C3235 1.363 . S
C3240 C3239 1.415 . S
C3241 H3217 0.951 . S
C3241 C3242 1.366 . S
C3241 C3243 1.388 . S
C3242 C3241 1.366 . S
C3242 C3246 1.385 . S
C3243 H3218 0.951 . S
C3243 C3241 1.388 . S
C3243 C3244 1.366 . S
C3244 C3243 1.366 . S
C3244 C3245 1.414 . S
C3244 C3247 1.499 . S
C3245 H3219 0.950 . S
C3245 C3244 1.414 . S
C3245 C3246 1.374 . S
C3246 H3220 0.950 . S
C3246 C3242 1.385 . S
C3246 C3245 1.374 . S
C3247 C3244 1.499 . S
C3247 C3248 1.373 . S
C3247 C3249 1.389 . S
C3248 H3221 0.950 . S
C3248 C3234 1.377 . S
C3248 C3247 1.373 . S
C3249 C3233 1.377 . S
C3249 C3247 1.389 . S
C3249 C3250 1.524 . S
C3250 C3249 1.524 . S
C3250 C3251 1.397 . S
C3250 C3255 1.363 . S
C3251 H3222 0.950 . S
C3251 C3250 1.397 . S
C3251 C3252 1.334 . S
C3252 H3223 0.950 . S
C3252 C3251 1.334 . S
C3252 C3253 1.287 . S
C3253 C3252 1.287 . S
C3253 C3254 1.524 . S
C3253 H3256 0.999 . S
C3254 H3224 0.950 . S
C3254 C3253 1.524 . S
C3254 C3255 1.415 . S
C3255 H3225 0.950 . S
C3255 C3250 1.363 . S
C3255 C3254 1.415 . S
H3256 C3253 0.999 . S
H3257 C3238 0.913 . S
H3258 C3276 0.951 . S
H3259 C3278 0.951 . S
H3260 C3280 0.950 . S
H3261 C3281 0.950 . S
H3262 C3283 0.950 . S
H3263 C3286 0.950 . S
H3264 C3287 0.950 . S
H3265 C3289 0.950 . S
H3266 C3290 0.950 . S
H3267 C3291 0.951 . S
H3268 C3293 0.951 . S
H3269 C3295 0.950 . S
H3270 C3296 0.950 . S
H3271 C3298 0.950 . S
H3272 C3301 0.950 . S
H3273 C3302 0.950 . S
H3274 C3304 0.950 . S
H3275 C3305 0.950 . S
C3276 H3258 0.951 . S
C3276 C3277 1.366 . S
C3276 C3278 1.388 . S
C3277 C3276 1.366 . S
C3277 C3281 1.385 . S
C3278 H3259 0.951 . S
C3278 C3276 1.388 . S
C3278 C3279 1.366 . S
C3279 C3278 1.366 . S
C3279 C3280 1.414 . S
C3279 C3282 1.499 . S
C3280 H3260 0.950 . S
C3280 C3279 1.414 . S
C3280 C3281 1.374 . S
C3281 H3261 0.950 . S
C3281 C3277 1.385 . S
C3281 C3280 1.374 . S
C3282 C3279 1.499 . S
C3282 C3283 1.373 . S
C3282 C3284 1.389 . S
C3283 H3262 0.950 . S
C3283 C3282 1.373 . S
C3283 C3299 1.377 . S
C3284 C3282 1.389 . S
C3284 C3285 1.524 . S
C3284 C3298 1.377 . S
C3285 C3284 1.524 . S
C3285 C3286 1.397 . S
C3285 C3290 1.363 . S
C3286 H3263 0.950 . S
C3286 C3285 1.397 . S
C3286 C3287 1.334 . S
C3287 H3264 0.950 . S
C3287 C3286 1.334 . S
C3287 C3288 1.287 . S
C3288 C3287 1.287 . S
C3288 C3289 1.524 . S
C3288 H3307 0.913 . S
C3289 H3265 0.950 . S
C3289 C3288 1.524 . S
C3289 C3290 1.415 . S
C3290 H3266 0.950 . S
C3290 C3285 1.363 . S
C3290 C3289 1.415 . S
C3291 H3267 0.951 . S
C3291 C3292 1.366 . S
C3291 C3293 1.388 . S
C3292 C3291 1.366 . S
C3292 C3296 1.385 . S
C3293 H3268 0.951 . S
C3293 C3291 1.388 . S
C3293 C3294 1.366 . S
C3294 C3293 1.366 . S
C3294 C3295 1.414 . S
C3294 C3297 1.499 . S
C3295 H3269 0.950 . S
C3295 C3294 1.414 . S
C3295 C3296 1.374 . S
C3296 H3270 0.950 . S
C3296 C3292 1.385 . S
C3296 C3295 1.374 . S
C3297 C3294 1.499 . S
C3297 C3298 1.373 . S
C3297 C3299 1.389 . S
C3298 H3271 0.950 . S
C3298 C3284 1.377 . S
C3298 C3297 1.373 . S
C3299 C3283 1.377 . S
C3299 C3297 1.389 . S
C3299 C3300 1.524 . S
C3300 C3299 1.524 . S
C3300 C3301 1.397 . S
C3300 C3305 1.363 . S
C3301 H3272 0.950 . S
C3301 C3300 1.397 . S
C3301 C3302 1.334 . S
C3302 H3273 0.950 . S
C3302 C3301 1.334 . S
C3302 C3303 1.287 . S
C3303 C3302 1.287 . S
C3303 C3304 1.524 . S
C3303 H3306 0.999 . S
C3304 H3274 0.950 . S
C3304 C3303 1.524 . S
C3304 C3305 1.415 . S
C3305 H3275 0.950 . S
C3305 C3300 1.363 . S
C3305 C3304 1.415 . S
H3306 C3303 0.999 . S
H3307 C3288 0.913 . S
H3308 C3326 0.951 . S
H3309 C3328 0.951 . S
H3310 C3330 0.950 . S
H3311 C3331 0.950 . S
H3312 C3333 0.950 . S
H3313 C3336 0.950 . S
H3314 C3337 0.950 . S
H3315 C3339 0.950 . S
H3316 C3340 0.950 . S
H3317 C3341 0.951 . S
H3318 C3343 0.951 . S
H3319 C3345 0.950 . S
H3320 C3346 0.950 . S
H3321 C3348 0.950 . S
H3322 C3351 0.950 . S
H3323 C3352 0.950 . S
H3324 C3354 0.950 . S
H3325 C3355 0.950 . S
C3326 H3308 0.951 . S
C3326 C3327 1.366 . S
C3326 C3328 1.388 . S
C3327 C3326 1.366 . S
C3327 C3331 1.385 . S
C3328 H3309 0.951 . S
C3328 C3326 1.388 . S
C3328 C3329 1.366 . S
C3329 C3328 1.366 . S
C3329 C3330 1.414 . S
C3329 C3332 1.499 . S
C3330 H3310 0.950 . S
C3330 C3329 1.414 . S
C3330 C3331 1.374 . S
C3331 H3311 0.950 . S
C3331 C3327 1.385 . S
C3331 C3330 1.374 . S
C3332 C3329 1.499 . S
C3332 C3333 1.373 . S
C3332 C3334 1.389 . S
C3333 H3312 0.950 . S
C3333 C3332 1.373 . S
C3333 C3349 1.377 . S
C3334 C3332 1.389 . S
C3334 C3335 1.524 . S
C3334 C3348 1.377 . S
C3335 C3334 1.524 . S
C3335 C3336 1.397 . S
C3335 C3340 1.363 . S
C3336 H3313 0.950 . S
C3336 C3335 1.397 . S
C3336 C3337 1.334 . S
C3337 H3314 0.950 . S
C3337 C3336 1.334 . S
C3337 C3338 1.287 . S
C3338 C3337 1.287 . S
C3338 C3339 1.524 . S
C3338 H3357 0.913 . S
C3339 H3315 0.950 . S
C3339 C3338 1.524 . S
C3339 C3340 1.415 . S
C3340 H3316 0.950 . S
C3340 C3335 1.363 . S
C3340 C3339 1.415 . S
C3341 H3317 0.951 . S
C3341 C3342 1.366 . S
C3341 C3343 1.388 . S
C3342 C3341 1.366 . S
C3342 C3346 1.385 . S
C3343 H3318 0.951 . S
C3343 C3341 1.388 . S
C3343 C3344 1.366 . S
C3344 C3343 1.366 . S
C3344 C3345 1.414 . S
C3344 C3347 1.499 . S
C3345 H3319 0.950 . S
C3345 C3344 1.414 . S
C3345 C3346 1.374 . S
C3346 H3320 0.950 . S
C3346 C3342 1.385 . S
C3346 C3345 1.374 . S
C3347 C3344 1.499 . S
C3347 C3348 1.373 . S
C3347 C3349 1.389 . S
C3348 H3321 0.950 . S
C3348 C3334 1.377 . S
C3348 C3347 1.373 . S
C3349 C3333 1.377 . S
C3349 C3347 1.389 . S
C3349 C3350 1.524 . S
C3350 C3349 1.524 . S
C3350 C3351 1.397 . S
C3350 C3355 1.363 . S
C3351 H3322 0.950 . S
C3351 C3350 1.397 . S
C3351 C3352 1.334 . S
C3352 H3323 0.950 . S
C3352 C3351 1.334 . S
C3352 C3353 1.287 . S
C3353 C3352 1.287 . S
C3353 C3354 1.524 . S
C3353 H3356 0.999 . S
C3354 H3324 0.950 . S
C3354 C3353 1.524 . S
C3354 C3355 1.415 . S
C3355 H3325 0.950 . S
C3355 C3350 1.363 . S
C3355 C3354 1.415 . S
H3356 C3353 0.999 . S
H3357 C3338 0.913 . S
H3358 C3376 0.951 . S
H3359 C3378 0.951 . S
H3360 C3380 0.950 . S
H3361 C3381 0.950 . S
H3362 C3383 0.950 . S
H3363 C3386 0.950 . S
H3364 C3387 0.950 . S
H3365 C3389 0.950 . S
H3366 C3390 0.950 . S
H3367 C3391 0.951 . S
H3368 C3393 0.951 . S
H3369 C3395 0.950 . S
H3370 C3396 0.950 . S
H3371 C3398 0.950 . S
H3372 C3401 0.950 . S
H3373 C3402 0.950 . S
H3374 C3404 0.950 . S
H3375 C3405 0.950 . S
C3376 H3358 0.951 . S
C3376 C3377 1.366 . S
C3376 C3378 1.388 . S
C3377 C3376 1.366 . S
C3377 C3381 1.385 . S
C3378 H3359 0.951 . S
C3378 C3376 1.388 . S
C3378 C3379 1.366 . S
C3379 C3378 1.366 . S
C3379 C3380 1.414 . S
C3379 C3382 1.499 . S
C3380 H3360 0.950 . S
C3380 C3379 1.414 . S
C3380 C3381 1.374 . S
C3381 H3361 0.950 . S
C3381 C3377 1.385 . S
C3381 C3380 1.374 . S
C3382 C3379 1.499 . S
C3382 C3383 1.373 . S
C3382 C3384 1.389 . S
C3383 H3362 0.950 . S
C3383 C3382 1.373 . S
C3383 C3399 1.377 . S
C3384 C3382 1.389 . S
C3384 C3385 1.524 . S
C3384 C3398 1.377 . S
C3385 C3384 1.524 . S
C3385 C3386 1.397 . S
C3385 C3390 1.363 . S
C3386 H3363 0.950 . S
C3386 C3385 1.397 . S
C3386 C3387 1.334 . S
C3387 H3364 0.950 . S
C3387 C3386 1.334 . S
C3387 C3388 1.287 . S
C3388 C3387 1.287 . S
C3388 C3389 1.524 . S
C3388 H3407 0.913 . S
C3389 H3365 0.950 . S
C3389 C3388 1.524 . S
C3389 C3390 1.415 . S
C3390 H3366 0.950 . S
C3390 C3385 1.363 . S
C3390 C3389 1.415 . S
C3391 H3367 0.951 . S
C3391 C3392 1.366 . S
C3391 C3393 1.388 . S
C3392 C3391 1.366 . S
C3392 C3396 1.385 . S
C3393 H3368 0.951 . S
C3393 C3391 1.388 . S
C3393 C3394 1.366 . S
C3394 C3393 1.366 . S
C3394 C3395 1.414 . S
C3394 C3397 1.499 . S
C3395 H3369 0.950 . S
C3395 C3394 1.414 . S
C3395 C3396 1.374 . S
C3396 H3370 0.950 . S
C3396 C3392 1.385 . S
C3396 C3395 1.374 . S
C3397 C3394 1.499 . S
C3397 C3398 1.373 . S
C3397 C3399 1.389 . S
C3398 H3371 0.950 . S
C3398 C3384 1.377 . S
C3398 C3397 1.373 . S
C3399 C3383 1.377 . S
C3399 C3397 1.389 . S
C3399 C3400 1.524 . S
C3400 C3399 1.524 . S
C3400 C3401 1.397 . S
C3400 C3405 1.363 . S
C3401 H3372 0.950 . S
C3401 C3400 1.397 . S
C3401 C3402 1.334 . S
C3402 H3373 0.950 . S
C3402 C3401 1.334 . S
C3402 C3403 1.287 . S
C3403 C3402 1.287 . S
C3403 C3404 1.524 . S
C3403 H3406 0.999 . S
C3404 H3374 0.950 . S
C3404 C3403 1.524 . S
C3404 C3405 1.415 . S
C3405 H3375 0.950 . S
C3405 C3400 1.363 . S
C3405 C3404 1.415 . S
H3406 C3403 0.999 . S
H3407 C3388 0.913 . S
H3408 C3426 0.951 . S
H3409 C3428 0.951 . S
H3410 C3430 0.950 . S
H3411 C3431 0.950 . S
H3412 C3433 0.950 . S
H3413 C3436 0.950 . S
H3414 C3437 0.950 . S
H3415 C3439 0.950 . S
H3416 C3440 0.950 . S
H3417 C3441 0.951 . S
H3418 C3443 0.951 . S
H3419 C3445 0.950 . S
H3420 C3446 0.950 . S
H3421 C3448 0.950 . S
H3422 C3451 0.950 . S
H3423 C3452 0.950 . S
H3424 C3454 0.950 . S
H3425 C3455 0.950 . S
C3426 H3408 0.951 . S
C3426 C3427 1.366 . S
C3426 C3428 1.388 . S
C3427 C3426 1.366 . S
C3427 C3431 1.385 . S
C3428 H3409 0.951 . S
C3428 C3426 1.388 . S
C3428 C3429 1.366 . S
C3429 C3428 1.366 . S
C3429 C3430 1.414 . S
C3429 C3432 1.499 . S
C3430 H3410 0.950 . S
C3430 C3429 1.414 . S
C3430 C3431 1.374 . S
C3431 H3411 0.950 . S
C3431 C3427 1.385 . S
C3431 C3430 1.374 . S
C3432 C3429 1.499 . S
C3432 C3433 1.373 1_554 S
C3432 C3434 1.389 . S
C3433 H3412 0.950 . S
C3433 C3432 1.373 1_556 S
C3433 C3449 1.377 . S
C3434 C3432 1.389 . S
C3434 C3435 1.524 . S
C3434 C3448 1.377 . S
C3435 C3434 1.524 . S
C3435 C3436 1.397 . S
C3435 C3440 1.363 . S
C3436 H3413 0.950 . S
C3436 C3435 1.397 . S
C3436 C3437 1.334 . S
C3437 H3414 0.950 . S
C3437 C3436 1.334 . S
C3437 C3438 1.287 . S
C3438 C3437 1.287 . S
C3438 C3439 1.524 . S
C3438 H3457 0.913 . S
C3439 H3415 0.950 . S
C3439 C3438 1.524 . S
C3439 C3440 1.415 . S
C3440 H3416 0.950 . S
C3440 C3435 1.363 . S
C3440 C3439 1.415 . S
C3441 H3417 0.951 . S
C3441 C3442 1.366 . S
C3441 C3443 1.388 . S
C3442 C3441 1.366 . S
C3442 C3446 1.385 . S
C3443 H3418 0.951 . S
C3443 C3441 1.388 . S
C3443 C3444 1.366 . S
C3444 C3443 1.366 . S
C3444 C3445 1.414 . S
C3444 C3447 1.499 . S
C3445 H3419 0.950 . S
C3445 C3444 1.414 . S
C3445 C3446 1.374 . S
C3446 H3420 0.950 . S
C3446 C3442 1.385 . S
C3446 C3445 1.374 . S
C3447 C3444 1.499 . S
C3447 C3448 1.373 1_556 S
C3447 C3449 1.389 . S
C3448 H3421 0.950 . S
C3448 C3434 1.377 . S
C3448 C3447 1.373 1_554 S
C3449 C3433 1.377 . S
C3449 C3447 1.389 . S
C3449 C3450 1.524 . S
C3450 C3449 1.524 . S
C3450 C3451 1.397 . S
C3450 C3455 1.363 . S
C3451 H3422 0.950 . S
C3451 C3450 1.397 . S
C3451 C3452 1.334 . S
C3452 H3423 0.950 . S
C3452 C3451 1.334 . S
C3452 C3453 1.287 . S
C3453 C3452 1.287 . S
C3453 C3454 1.524 . S
C3453 H3456 0.999 . S
C3454 H3424 0.950 . S
C3454 C3453 1.524 . S
C3454 C3455 1.415 . S
C3455 H3425 0.950 . S
C3455 C3450 1.363 . S
C3455 C3454 1.415 . S
H3456 C3453 0.999 . S
H3457 C3438 0.913 . S
H3458 C3476 0.951 . S
H3459 C3478 0.951 . S
H3460 C3480 0.950 . S
H3461 C3481 0.950 . S
H3462 C3483 0.950 . S
H3463 C3486 0.950 . S
H3464 C3487 0.950 . S
H3465 C3489 0.950 . S
H3466 C3490 0.950 . S
H3467 C3491 0.951 . S
H3468 C3493 0.951 1_565 S
H3469 C3495 0.950 . S
H3470 C3496 0.950 . S
H3471 C3498 0.950 . S
H3472 C3501 0.950 . S
H3473 C3502 0.950 . S
H3474 C3504 0.950 . S
H3475 C3505 0.950 . S
C3476 H3458 0.951 . S
C3476 C3477 1.366 . S
C3476 C3478 1.388 . S
C3477 C3476 1.366 . S
C3477 C3481 1.385 . S
C3478 H3459 0.951 . S
C3478 C3476 1.388 . S
C3478 C3479 1.366 . S
C3479 C3478 1.366 . S
C3479 C3480 1.414 . S
C3479 C3482 1.499 . S
C3480 H3460 0.950 . S
C3480 C3479 1.414 . S
C3480 C3481 1.374 . S
C3481 H3461 0.950 . S
C3481 C3477 1.385 . S
C3481 C3480 1.374 . S
C3482 C3479 1.499 . S
C3482 C3483 1.373 1_554 S
C3482 C3484 1.389 . S
C3483 H3462 0.950 . S
C3483 C3482 1.373 1_556 S
C3483 C3499 1.377 . S
C3484 C3482 1.389 . S
C3484 C3485 1.524 . S
C3484 C3498 1.377 . S
C3485 C3484 1.524 . S
C3485 C3486 1.397 . S
C3485 C3490 1.363 . S
C3486 H3463 0.950 . S
C3486 C3485 1.397 . S
C3486 C3487 1.334 . S
C3487 H3464 0.950 . S
C3487 C3486 1.334 . S
C3487 C3488 1.287 . S
C3488 C3487 1.287 . S
C3488 C3489 1.524 . S
C3488 H3507 0.913 . S
C3489 H3465 0.950 . S
C3489 C3488 1.524 . S
C3489 C3490 1.415 . S
C3490 H3466 0.950 . S
C3490 C3485 1.363 . S
C3490 C3489 1.415 . S
C3491 H3467 0.951 . S
C3491 C3492 1.366 . S
C3491 C3493 1.388 . S
C3492 C3491 1.366 . S
C3492 C3496 1.385 . S
C3493 H3468 0.951 1_545 S
C3493 C3491 1.388 . S
C3493 C3494 1.335 1_545 S
C3494 C3493 1.335 1_565 S
C3494 C3495 1.402 1_565 S
C3494 C3497 1.541 . S
C3495 H3469 0.950 . S
C3495 C3494 1.402 1_545 S
C3495 C3496 1.374 . S
C3496 H3470 0.950 . S
C3496 C3492 1.385 . S
C3496 C3495 1.374 . S
C3497 C3494 1.541 . S
C3497 C3498 1.373 1_556 S
C3497 C3499 1.389 . S
C3498 H3471 0.950 . S
C3498 C3484 1.377 . S
C3498 C3497 1.373 1_554 S
C3499 C3483 1.377 . S
C3499 C3497 1.389 . S
C3499 C3500 1.524 . S
C3500 C3499 1.524 . S
C3500 C3501 1.397 . S
C3500 C3505 1.363 . S
C3501 H3472 0.950 . S
C3501 C3500 1.397 . S
C3501 C3502 1.334 . S
C3502 H3473 0.950 . S
C3502 C3501 1.334 . S
C3502 C3503 1.287 . S
C3503 C3502 1.287 . S
C3503 C3504 1.524 . S
C3503 H3506 0.999 . S
C3504 H3474 0.950 . S
C3504 C3503 1.524 . S
C3504 C3505 1.415 . S
C3505 H3475 0.950 . S
C3505 C3500 1.363 . S
C3505 C3504 1.415 . S
H3506 C3503 0.999 . S
H3507 C3488 0.913 . S
H3508 C3526 0.951 . S
H3509 C3528 0.951 . S
H3510 C3530 0.950 . S
H3511 C3531 0.950 . S
H3512 C3533 0.950 . S
H3513 C3536 0.950 . S
H3514 C3537 0.950 . S
H3515 C3539 0.950 . S
H3516 C3540 0.950 . S
H3517 C3541 0.951 . S
H3518 C3543 0.979 . S
H3519 C3545 0.950 . S
H3520 C3546 0.950 . S
H3521 C3548 0.950 . S
H3522 C3551 0.950 . S
H3523 C3552 0.950 . S
H3524 C3554 0.950 . S
H3525 C3555 0.950 . S
C3526 H3508 0.951 . S
C3526 C3527 1.366 . S
C3526 C3528 1.388 . S
C3527 C3526 1.366 . S
C3527 C3531 1.385 . S
C3528 H3509 0.951 . S
C3528 C3526 1.388 . S
C3528 C3529 1.366 . S
C3529 C3528 1.366 . S
C3529 C3530 1.414 . S
C3529 C3532 1.499 . S
C3530 H3510 0.950 . S
C3530 C3529 1.414 . S
C3530 C3531 1.374 . S
C3531 H3511 0.950 . S
C3531 C3527 1.385 . S
C3531 C3530 1.374 . S
C3532 C3529 1.499 . S
C3532 C3533 1.373 1_554 S
C3532 C3534 1.389 . S
C3533 H3512 0.950 . S
C3533 C3532 1.373 1_556 S
C3533 C3549 1.377 . S
C3534 C3532 1.389 . S
C3534 C3535 1.524 . S
C3534 C3548 1.377 . S
C3535 C3534 1.524 . S
C3535 C3536 1.397 . S
C3535 C3540 1.363 . S
C3536 H3513 0.950 . S
C3536 C3535 1.397 . S
C3536 C3537 1.334 . S
C3537 H3514 0.950 . S
C3537 C3536 1.334 . S
C3537 C3538 1.287 . S
C3538 C3537 1.287 . S
C3538 C3539 1.524 . S
C3538 H3557 0.913 . S
C3539 H3515 0.950 . S
C3539 C3538 1.524 . S
C3539 C3540 1.415 . S
C3540 H3516 0.950 . S
C3540 C3535 1.363 . S
C3540 C3539 1.415 . S
C3541 H3517 0.951 . S
C3541 C3542 1.366 . S
C3541 C3543 1.367 1_655 S
C3542 C3541 1.366 . S
C3542 C3546 1.385 . S
C3543 H3518 0.979 . S
C3543 C3541 1.367 1_455 S
C3543 C3544 1.359 . S
C3544 C3543 1.359 . S
C3544 C3545 1.414 1_455 S
C3544 C3547 1.499 . S
C3545 H3519 0.950 . S
C3545 C3544 1.414 1_655 S
C3545 C3546 1.374 . S
C3546 H3520 0.950 . S
C3546 C3542 1.385 . S
C3546 C3545 1.374 . S
C3547 C3544 1.499 . S
C3547 C3548 1.373 1_556 S
C3547 C3549 1.389 . S
C3548 H3521 0.950 . S
C3548 C3534 1.377 . S
C3548 C3547 1.373 1_554 S
C3549 C3533 1.377 . S
C3549 C3547 1.389 . S
C3549 C3550 1.524 . S
C3550 C3549 1.524 . S
C3550 C3551 1.397 . S
C3550 C3555 1.363 . S
C3551 H3522 0.950 . S
C3551 C3550 1.397 . S
C3551 C3552 1.334 . S
C3552 H3523 0.950 . S
C3552 C3551 1.334 . S
C3552 C3553 1.287 . S
C3553 C3552 1.287 . S
C3553 C3554 1.524 . S
C3553 H3556 0.999 . S
C3554 H3524 0.950 . S
C3554 C3553 1.524 . S
C3554 C3555 1.415 . S
C3555 H3525 0.950 . S
C3555 C3550 1.363 . S
C3555 C3554 1.415 . S
H3556 C3553 0.999 . S
H3557 C3538 0.913 . S
H3558 C3576 0.951 . S
H3559 C3578 0.951 . S
H3560 C3580 0.950 . S
H3561 C3581 0.950 . S
H3562 C3583 0.950 . S
H3563 C3586 0.950 . S
H3564 C3587 0.950 . S
H3565 C3589 0.950 . S
H3566 C3590 0.950 . S
H3567 C3591 0.951 . S
H3568 C3593 0.951 . S
H3569 C3595 0.950 . S
H3570 C3596 0.950 . S
H3571 C3598 0.950 . S
H3572 C3601 0.950 . S
H3573 C3602 0.950 . S
H3574 C3604 0.950 . S
H3575 C3605 0.950 . S
C3576 H3558 0.951 . S
C3576 C3577 1.366 . S
C3576 C3578 1.388 . S
C3577 C3576 1.366 . S
C3577 C3581 1.385 . S
C3578 H3559 0.951 . S
C3578 C3576 1.388 . S
C3578 C3579 1.366 . S
C3579 C3578 1.366 . S
C3579 C3580 1.414 . S
C3579 C3582 1.499 . S
C3580 H3560 0.950 . S
C3580 C3579 1.414 . S
C3580 C3581 1.374 . S
C3581 H3561 0.950 . S
C3581 C3577 1.385 . S
C3581 C3580 1.374 . S
C3582 C3579 1.499 . S
C3582 C3583 1.373 . S
C3582 C3584 1.389 . S
C3583 H3562 0.950 . S
C3583 C3582 1.373 . S
C3583 C3599 1.377 . S
C3584 C3582 1.389 . S
C3584 C3585 1.524 . S
C3584 C3598 1.377 . S
C3585 C3584 1.524 . S
C3585 C3586 1.397 . S
C3585 C3590 1.363 . S
C3586 H3563 0.950 . S
C3586 C3585 1.397 . S
C3586 C3587 1.334 . S
C3587 H3564 0.950 . S
C3587 C3586 1.334 . S
C3587 C3588 1.287 . S
C3588 C3587 1.287 . S
C3588 C3589 1.524 . S
C3588 H3607 0.913 . S
C3589 H3565 0.950 . S
C3589 C3588 1.524 . S
C3589 C3590 1.415 . S
C3590 H3566 0.950 . S
C3590 C3585 1.363 . S
C3590 C3589 1.415 . S
C3591 H3567 0.951 . S
C3591 C3592 1.366 . S
C3591 C3593 1.388 . S
C3592 C3591 1.366 . S
C3592 C3596 1.385 . S
C3593 H3568 0.951 . S
C3593 C3591 1.388 . S
C3593 C3594 1.366 . S
C3594 C3593 1.366 . S
C3594 C3595 1.414 . S
C3594 C3597 1.499 . S
C3595 H3569 0.950 . S
C3595 C3594 1.414 . S
C3595 C3596 1.374 . S
C3596 H3570 0.950 . S
C3596 C3592 1.385 . S
C3596 C3595 1.374 . S
C3597 C3594 1.499 . S
C3597 C3598 1.373 . S
C3597 C3599 1.389 . S
C3598 H3571 0.950 . S
C3598 C3584 1.377 . S
C3598 C3597 1.373 . S
C3599 C3583 1.377 . S
C3599 C3597 1.389 . S
C3599 C3600 1.524 . S
C3600 C3599 1.524 . S
C3600 C3601 1.397 . S
C3600 C3605 1.363 . S
C3601 H3572 0.950 . S
C3601 C3600 1.397 . S
C3601 C3602 1.334 . S
C3602 H3573 0.950 . S
C3602 C3601 1.334 . S
C3602 C3603 1.287 . S
C3603 C3602 1.287 . S
C3603 C3604 1.524 . S
C3603 H3606 0.999 . S
C3604 H3574 0.950 . S
C3604 C3603 1.524 . S
C3604 C3605 1.415 . S
C3605 H3575 0.950 . S
C3605 C3600 1.363 . S
C3605 C3604 1.415 . S
H3606 C3603 0.999 . S
H3607 C3588 0.913 . S
H3608 C3626 0.951 . S
H3609 C3628 0.951 . S
H3610 C3630 0.950 . S
H3611 C3631 0.950 . S
H3612 C3633 0.950 . S
H3613 C3636 0.950 . S
H3614 C3637 0.950 . S
H3615 C3639 0.950 . S
H3616 C3640 0.950 . S
H3617 C3641 0.951 . S
H3618 C3643 0.951 . S
H3619 C3645 0.950 . S
H3620 C3646 0.950 . S
H3621 C3648 0.950 . S
H3622 C3651 0.950 . S
H3623 C3652 0.950 . S
H3624 C3654 0.950 . S
H3625 C3655 0.950 . S
C3626 H3608 0.951 . S
C3626 C3627 1.366 . S
C3626 C3628 1.388 . S
C3627 C3626 1.366 . S
C3627 C3631 1.385 . S
C3628 H3609 0.951 . S
C3628 C3626 1.388 . S
C3628 C3629 1.366 . S
C3629 C3628 1.366 . S
C3629 C3630 1.414 . S
C3629 C3632 1.499 . S
C3630 H3610 0.950 . S
C3630 C3629 1.414 . S
C3630 C3631 1.374 . S
C3631 H3611 0.950 . S
C3631 C3627 1.385 . S
C3631 C3630 1.374 . S
C3632 C3629 1.499 . S
C3632 C3633 1.373 . S
C3632 C3634 1.389 . S
C3633 H3612 0.950 . S
C3633 C3632 1.373 . S
C3633 C3649 1.377 . S
C3634 C3632 1.389 . S
C3634 C3635 1.524 . S
C3634 C3648 1.377 . S
C3635 C3634 1.524 . S
C3635 C3636 1.397 . S
C3635 C3640 1.363 . S
C3636 H3613 0.950 . S
C3636 C3635 1.397 . S
C3636 C3637 1.334 . S
C3637 H3614 0.950 . S
C3637 C3636 1.334 . S
C3637 C3638 1.287 . S
C3638 C3637 1.287 . S
C3638 C3639 1.524 . S
C3638 H3657 0.913 . S
C3639 H3615 0.950 . S
C3639 C3638 1.524 . S
C3639 C3640 1.415 . S
C3640 H3616 0.950 . S
C3640 C3635 1.363 . S
C3640 C3639 1.415 . S
C3641 H3617 0.951 . S
C3641 C3642 1.366 . S
C3641 C3643 1.388 . S
C3642 C3641 1.366 . S
C3642 C3646 1.385 . S
C3643 H3618 0.951 . S
C3643 C3641 1.388 . S
C3643 C3644 1.366 . S
C3644 C3643 1.366 . S
C3644 C3645 1.414 . S
C3644 C3647 1.499 . S
C3645 H3619 0.950 . S
C3645 C3644 1.414 . S
C3645 C3646 1.374 . S
C3646 H3620 0.950 . S
C3646 C3642 1.385 . S
C3646 C3645 1.374 . S
C3647 C3644 1.499 . S
C3647 C3648 1.373 . S
C3647 C3649 1.389 . S
C3648 H3621 0.950 . S
C3648 C3634 1.377 . S
C3648 C3647 1.373 . S
C3649 C3633 1.377 . S
C3649 C3647 1.389 . S
C3649 C3650 1.524 . S
C3650 C3649 1.524 . S
C3650 C3651 1.397 . S
C3650 C3655 1.363 . S
C3651 H3622 0.950 . S
C3651 C3650 1.397 . S
C3651 C3652 1.334 . S
C3652 H3623 0.950 . S
C3652 C3651 1.334 . S
C3652 C3653 1.287 . S
C3653 C3652 1.287 . S
C3653 C3654 1.524 . S
C3653 H3656 0.999 . S
C3654 H3624 0.950 . S
C3654 C3653 1.524 . S
C3654 C3655 1.415 . S
C3655 H3625 0.950 . S
C3655 C3650 1.363 . S
C3655 C3654 1.415 . S
H3656 C3653 0.999 . S
H3657 C3638 0.913 . S
H3658 C3676 0.951 . S
H3659 C3678 0.951 . S
H3660 C3680 0.950 . S
H3661 C3681 0.950 . S
H3662 C3683 0.950 . S
H3663 C3686 0.950 . S
H3664 C3687 0.950 . S
H3665 C3689 0.950 . S
H3666 C3690 0.950 . S
H3667 C3691 0.951 . S
H3668 C3693 0.951 . S
H3669 C3695 0.950 . S
H3670 C3696 0.950 . S
H3671 C3698 0.950 . S
H3672 C3701 0.950 . S
H3673 C3702 0.950 . S
H3674 C3704 0.950 . S
H3675 C3705 0.950 . S
C3676 H3658 0.951 . S
C3676 C3677 1.366 . S
C3676 C3678 1.388 . S
C3677 C3676 1.366 . S
C3677 C3681 1.385 . S
C3678 H3659 0.951 . S
C3678 C3676 1.388 . S
C3678 C3679 1.366 . S
C3679 C3678 1.366 . S
C3679 C3680 1.414 . S
C3679 C3682 1.499 . S
C3680 H3660 0.950 . S
C3680 C3679 1.414 . S
C3680 C3681 1.374 . S
C3681 H3661 0.950 . S
C3681 C3677 1.385 . S
C3681 C3680 1.374 . S
C3682 C3679 1.499 . S
C3682 C3683 1.373 . S
C3682 C3684 1.389 . S
C3683 H3662 0.950 . S
C3683 C3682 1.373 . S
C3683 C3699 1.377 . S
C3684 C3682 1.389 . S
C3684 C3685 1.524 . S
C3684 C3698 1.377 . S
C3685 C3684 1.524 . S
C3685 C3686 1.397 . S
C3685 C3690 1.363 . S
C3686 H3663 0.950 . S
C3686 C3685 1.397 . S
C3686 C3687 1.334 . S
C3687 H3664 0.950 . S
C3687 C3686 1.334 . S
C3687 C3688 1.287 . S
C3688 C3687 1.287 . S
C3688 C3689 1.524 . S
C3688 H3707 0.913 . S
C3689 H3665 0.950 . S
C3689 C3688 1.524 . S
C3689 C3690 1.415 . S
C3690 H3666 0.950 . S
C3690 C3685 1.363 . S
C3690 C3689 1.415 . S
C3691 H3667 0.951 . S
C3691 C3692 1.366 . S
C3691 C3693 1.388 . S
C3692 C3691 1.366 . S
C3692 C3696 1.385 . S
C3693 H3668 0.951 . S
C3693 C3691 1.388 . S
C3693 C3694 1.366 . S
C3694 C3693 1.366 . S
C3694 C3695 1.414 . S
C3694 C3697 1.499 . S
C3695 H3669 0.950 . S
C3695 C3694 1.414 . S
C3695 C3696 1.374 . S
C3696 H3670 0.950 . S
C3696 C3692 1.385 . S
C3696 C3695 1.374 . S
C3697 C3694 1.499 . S
C3697 C3698 1.373 . S
C3697 C3699 1.389 . S
C3698 H3671 0.950 . S
C3698 C3684 1.377 . S
C3698 C3697 1.373 . S
C3699 C3683 1.377 . S
C3699 C3697 1.389 . S
C3699 C3700 1.524 . S
C3700 C3699 1.524 . S
C3700 C3701 1.397 . S
C3700 C3705 1.363 . S
C3701 H3672 0.950 . S
C3701 C3700 1.397 . S
C3701 C3702 1.334 . S
C3702 H3673 0.950 . S
C3702 C3701 1.334 . S
C3702 C3703 1.287 . S
C3703 C3702 1.287 . S
C3703 C3704 1.524 . S
C3703 H3706 0.999 . S
C3704 H3674 0.950 . S
C3704 C3703 1.524 . S
C3704 C3705 1.415 . S
C3705 H3675 0.950 . S
C3705 C3700 1.363 . S
C3705 C3704 1.415 . S
H3706 C3703 0.999 . S
H3707 C3688 0.913 . S
H3708 C3726 0.951 . S
H3709 C3728 0.951 . S
H3710 C3730 0.950 . S
H3711 C3731 0.950 . S
H3712 C3733 0.950 . S
H3713 C3736 0.950 . S
H3714 C3737 0.950 . S
H3715 C3739 0.950 . S
H3716 C3740 0.950 . S
H3717 C3741 0.951 . S
H3718 C3743 0.951 . S
H3719 C3745 0.950 . S
H3720 C3746 0.950 . S
H3721 C3748 0.950 . S
H3722 C3751 0.950 . S
H3723 C3752 0.950 . S
H3724 C3754 0.950 . S
H3725 C3755 0.950 . S
C3726 H3708 0.951 . S
C3726 C3727 1.366 . S
C3726 C3728 1.388 . S
C3727 C3726 1.366 . S
C3727 C3731 1.385 . S
C3728 H3709 0.951 . S
C3728 C3726 1.388 . S
C3728 C3729 1.366 . S
C3729 C3728 1.366 . S
C3729 C3730 1.414 . S
C3729 C3732 1.499 . S
C3730 H3710 0.950 . S
C3730 C3729 1.414 . S
C3730 C3731 1.374 . S
C3731 H3711 0.950 . S
C3731 C3727 1.385 . S
C3731 C3730 1.374 . S
C3732 C3729 1.499 . S
C3732 C3733 1.373 . S
C3732 C3734 1.389 1_554 S
C3733 H3712 0.950 . S
C3733 C3732 1.373 . S
C3733 C3749 1.377 . S
C3734 C3732 1.389 1_556 S
C3734 C3735 1.524 . S
C3734 C3748 1.377 . S
C3735 C3734 1.524 . S
C3735 C3736 1.397 . S
C3735 C3740 1.363 . S
C3736 H3713 0.950 . S
C3736 C3735 1.397 . S
C3736 C3737 1.334 . S
C3737 H3714 0.950 . S
C3737 C3736 1.334 . S
C3737 C3738 1.287 . S
C3738 C3737 1.287 . S
C3738 C3739 1.524 . S
C3738 H3757 0.913 . S
C3739 H3715 0.950 . S
C3739 C3738 1.524 . S
C3739 C3740 1.415 . S
C3740 H3716 0.950 . S
C3740 C3735 1.363 . S
C3740 C3739 1.415 . S
C3741 H3717 0.951 . S
C3741 C3742 1.366 . S
C3741 C3743 1.388 . S
C3742 C3741 1.366 . S
C3742 C3746 1.385 . S
C3743 H3718 0.951 . S
C3743 C3741 1.388 . S
C3743 C3744 1.366 . S
C3744 C3743 1.366 . S
C3744 C3745 1.414 . S
C3744 C3747 1.499 . S
C3745 H3719 0.950 . S
C3745 C3744 1.414 . S
C3745 C3746 1.374 . S
C3746 H3720 0.950 . S
C3746 C3742 1.385 . S
C3746 C3745 1.374 . S
C3747 C3744 1.499 . S
C3747 C3748 1.373 . S
C3747 C3749 1.389 1_556 S
C3748 H3721 0.950 . S
C3748 C3734 1.377 . S
C3748 C3747 1.373 . S
C3749 C3733 1.377 . S
C3749 C3747 1.389 1_554 S
C3749 C3750 1.524 . S
C3750 C3749 1.524 . S
C3750 C3751 1.397 . S
C3750 C3755 1.363 . S
C3751 H3722 0.950 . S
C3751 C3750 1.397 . S
C3751 C3752 1.334 . S
C3752 H3723 0.950 . S
C3752 C3751 1.334 . S
C3752 C3753 1.287 . S
C3753 C3752 1.287 . S
C3753 C3754 1.524 . S
C3753 H3756 0.999 . S
C3754 H3724 0.950 . S
C3754 C3753 1.524 . S
C3754 C3755 1.415 . S
C3755 H3725 0.950 . S
C3755 C3750 1.363 . S
C3755 C3754 1.415 . S
H3756 C3753 0.999 . S
H3757 C3738 0.913 . S
H3758 C3776 0.951 . S
H3759 C3778 0.951 1_554 S
H3760 C3780 0.950 . S
H3761 C3781 0.950 . S
H3762 C3783 0.950 . S
H3763 C3786 0.950 . S
H3764 C3787 0.950 . S
H3765 C3789 0.950 . S
H3766 C3790 0.950 . S
H3767 C3791 0.951 . S
H3768 C3793 0.951 1_556 S
H3769 C3795 0.950 . S
H3770 C3796 0.950 . S
H3771 C3798 0.950 . S
H3772 C3801 0.950 . S
H3773 C3802 0.950 1_565 S
H3774 C3804 0.950 . S
H3775 C3805 0.950 . S
C3776 H3758 0.951 . S
C3776 C3777 1.366 . S
C3776 C3778 1.388 . S
C3777 C3776 1.366 . S
C3777 C3781 1.385 . S
C3778 H3759 0.951 1_556 S
C3778 C3776 1.388 . S
C3778 C3779 1.366 . S
C3779 C3778 1.366 . S
C3779 C3780 1.414 . S
C3779 C3782 1.499 . S
C3780 H3760 0.950 . S
C3780 C3779 1.414 . S
C3780 C3781 1.374 . S
C3781 H3761 0.950 . S
C3781 C3777 1.385 . S
C3781 C3780 1.374 . S
C3782 C3779 1.499 . S
C3782 C3783 1.373 . S
C3782 C3784 1.390 1_556 S
C3783 H3762 0.950 . S
C3783 C3782 1.373 . S
C3783 C3799 1.377 1_556 S
C3784 C3782 1.390 1_554 S
C3784 C3785 1.525 1_554 S
C3784 C3798 1.376 . S
C3785 C3784 1.525 1_556 S
C3785 C3786 1.397 . S
C3785 C3790 1.363 1_556 S
C3786 H3763 0.950 . S
C3786 C3785 1.397 . S
C3786 C3787 1.334 . S
C3787 H3764 0.950 . S
C3787 C3786 1.334 . S
C3787 C3788 1.287 . S
C3788 C3787 1.287 . S
C3788 C3789 1.524 1_556 S
C3788 H3807 0.913 . S
C3789 H3765 0.950 . S
C3789 C3788 1.524 1_554 S
C3789 C3790 1.415 . S
C3790 H3766 0.950 . S
C3790 C3785 1.363 1_554 S
C3790 C3789 1.415 . S
C3791 H3767 0.951 . S
C3791 C3792 1.366 . S
C3791 C3793 1.388 . S
C3792 C3791 1.366 . S
C3792 C3796 1.385 . S
C3793 H3768 0.951 1_554 S
C3793 C3791 1.388 . S
C3793 C3794 1.366 1_565 S
C3794 C3793 1.366 1_545 S
C3794 C3795 1.414 . S
C3794 C3797 1.499 . S
C3795 H3769 0.950 . S
C3795 C3794 1.414 . S
C3795 C3796 1.374 1_545 S
C3796 H3770 0.950 . S
C3796 C3792 1.385 . S
C3796 C3795 1.374 1_565 S
C3797 C3794 1.499 . S
C3797 C3798 1.373 . S
C3797 C3799 1.389 . S
C3798 H3771 0.950 . S
C3798 C3784 1.376 . S
C3798 C3797 1.373 . S
C3799 C3783 1.377 1_554 S
C3799 C3797 1.389 . S
C3799 C3800 1.524 . S
C3800 C3799 1.524 . S
C3800 C3801 1.397 . S
C3800 C3805 1.363 1_554 S
C3801 H3772 0.950 . S
C3801 C3800 1.397 . S
C3801 C3802 1.334 . S
C3802 H3773 0.950 1_545 S
C3802 C3801 1.334 . S
C3802 C3803 1.292 1_545 S
C3803 C3802 1.292 1_565 S
C3803 C3804 1.518 1_564 S
C3803 H3806 1.005 . S
C3804 H3774 0.950 . S
C3804 C3803 1.518 1_546 S
C3804 C3805 1.415 . S
C3805 H3775 0.950 . S
C3805 C3800 1.363 1_556 S
C3805 C3804 1.415 . S
H3806 C3803 1.005 . S
H3807 C3788 0.913 . S
H3808 C3826 0.951 . S
H3809 C3828 0.951 . S
H3810 C3830 0.950 . S
H3811 C3831 0.950 . S
H3812 C3833 0.950 . S
H3813 C3836 0.950 . S
H3814 C3837 0.950 . S
H3815 C3839 0.950 . S
H3816 C3840 0.950 . S
H3817 C3841 0.951 . S
H3818 C3843 0.951 . S
H3819 C3845 0.950 1_556 S
H3820 C3846 0.950 . S
H3821 C3848 0.950 . S
H3822 C3851 0.950 . S
H3823 C3852 0.950 1_455 S
H3824 C3854 0.950 1_554 S
H3825 C3855 0.950 . S
C3826 H3808 0.951 . S
C3826 C3827 1.366 . S
C3826 C3828 1.388 . S
C3827 C3826 1.366 . S
C3827 C3831 1.385 . S
C3828 H3809 0.951 . S
C3828 C3826 1.388 . S
C3828 C3829 1.366 . S
C3829 C3828 1.366 . S
C3829 C3830 1.414 . S
C3829 C3832 1.499 . S
C3830 H3810 0.950 . S
C3830 C3829 1.414 . S
C3830 C3831 1.374 . S
C3831 H3811 0.950 . S
C3831 C3827 1.385 . S
C3831 C3830 1.374 . S
C3832 C3829 1.499 . S
C3832 C3833 1.373 . S
C3832 C3834 1.389 . S
C3833 H3812 0.950 . S
C3833 C3832 1.373 . S
C3833 C3849 1.377 . S
C3834 C3832 1.389 . S
C3834 C3835 1.525 1_556 S
C3834 C3848 1.377 1_556 S
C3835 C3834 1.525 1_554 S
C3835 C3836 1.395 . S
C3835 C3840 1.364 1_554 S
C3836 H3813 0.950 . S
C3836 C3835 1.395 . S
C3836 C3837 1.334 . S
C3837 H3814 0.950 . S
C3837 C3836 1.334 . S
C3837 C3838 1.287 . S
C3838 C3837 1.287 . S
C3838 C3839 1.524 1_554 S
C3838 H3857 0.913 . S
C3839 H3815 0.950 . S
C3839 C3838 1.524 1_556 S
C3839 C3840 1.415 . S
C3840 H3816 0.950 . S
C3840 C3835 1.364 1_556 S
C3840 C3839 1.415 . S
C3841 H3817 0.951 . S
C3841 C3842 1.366 . S
C3841 C3843 1.388 1_455 S
C3842 C3841 1.366 . S
C3842 C3846 1.385 . S
C3843 H3818 0.951 . S
C3843 C3841 1.388 1_655 S
C3843 C3844 1.366 . S
C3844 C3843 1.366 . S
C3844 C3845 1.414 1_655 S
C3844 C3847 1.499 . S
C3845 H3819 0.950 1_554 S
C3845 C3844 1.414 1_455 S
C3845 C3846 1.374 . S
C3846 H3820 0.950 . S
C3846 C3842 1.385 . S
C3846 C3845 1.374 . S
C3847 C3844 1.499 . S
C3847 C3848 1.373 . S
C3847 C3849 1.389 1_554 S
C3848 H3821 0.950 . S
C3848 C3834 1.377 1_554 S
C3848 C3847 1.373 . S
C3849 C3833 1.377 . S
C3849 C3847 1.389 1_556 S
C3849 C3850 1.524 . S
C3850 C3849 1.524 . S
C3850 C3851 1.397 . S
C3850 C3855 1.363 1_556 S
C3851 H3822 0.950 . S
C3851 C3850 1.397 . S
C3851 C3852 1.334 . S
C3852 H3823 0.950 1_655 S
C3852 C3851 1.334 . S
C3852 C3853 1.287 . S
C3853 C3852 1.287 . S
C3853 C3854 1.524 . S
C3853 H3856 0.999 . S
C3854 H3824 0.950 1_556 S
C3854 C3853 1.524 . S
C3854 C3855 1.415 1_556 S
C3855 H3825 0.950 . S
C3855 C3850 1.363 1_554 S
C3855 C3854 1.415 1_554 S
H3856 C3853 0.999 . S
H3857 C3838 0.913 . S
H3858 C3876 0.951 . S
H3859 C3878 0.951 . S
H3860 C3880 0.950 . S
H3861 C3881 0.950 . S
H3862 C3883 0.950 . S
H3863 C3886 0.950 . S
H3864 C3887 0.950 . S
H3865 C3889 0.950 . S
H3866 C3890 0.950 . S
H3867 C3891 0.951 . S
H3868 C3893 0.951 . S
H3869 C3895 0.950 . S
H3870 C3896 0.950 . S
H3871 C3898 0.950 . S
H3872 C3901 0.950 . S
H3873 C3902 0.950 . S
H3874 C3904 0.950 . S
H3875 C3905 0.950 . S
C3876 H3858 0.951 . S
C3876 C3877 1.366 . S
C3876 C3878 1.388 . S
C3877 C3876 1.366 . S
C3877 C3881 1.385 . S
C3878 H3859 0.951 . S
C3878 C3876 1.388 . S
C3878 C3879 1.366 . S
C3879 C3878 1.366 . S
C3879 C3880 1.414 . S
C3879 C3882 1.499 . S
C3880 H3860 0.950 . S
C3880 C3879 1.414 . S
C3880 C3881 1.374 . S
C3881 H3861 0.950 . S
C3881 C3877 1.385 . S
C3881 C3880 1.374 . S
C3882 C3879 1.499 . S
C3882 C3883 1.373 . S
C3882 C3884 1.389 . S
C3883 H3862 0.950 . S
C3883 C3882 1.373 . S
C3883 C3899 1.377 . S
C3884 C3882 1.389 . S
C3884 C3885 1.524 . S
C3884 C3898 1.377 . S
C3885 C3884 1.524 . S
C3885 C3886 1.397 . S
C3885 C3890 1.363 . S
C3886 H3863 0.950 . S
C3886 C3885 1.397 . S
C3886 C3887 1.334 . S
C3887 H3864 0.950 . S
C3887 C3886 1.334 . S
C3887 C3888 1.287 . S
C3888 C3887 1.287 . S
C3888 C3889 1.524 . S
C3888 H3907 0.913 . S
C3889 H3865 0.950 . S
C3889 C3888 1.524 . S
C3889 C3890 1.415 . S
C3890 H3866 0.950 . S
C3890 C3885 1.363 . S
C3890 C3889 1.415 . S
C3891 H3867 0.951 . S
C3891 C3892 1.366 . S
C3891 C3893 1.388 . S
C3892 C3891 1.366 . S
C3892 C3896 1.385 . S
C3893 H3868 0.951 . S
C3893 C3891 1.388 . S
C3893 C3894 1.366 . S
C3894 C3893 1.366 . S
C3894 C3895 1.414 . S
C3894 C3897 1.499 . S
C3895 H3869 0.950 . S
C3895 C3894 1.414 . S
C3895 C3896 1.374 . S
C3896 H3870 0.950 . S
C3896 C3892 1.385 . S
C3896 C3895 1.374 . S
C3897 C3894 1.499 . S
C3897 C3898 1.373 . S
C3897 C3899 1.389 . S
C3898 H3871 0.950 . S
C3898 C3884 1.377 . S
C3898 C3897 1.373 . S
C3899 C3883 1.377 . S
C3899 C3897 1.389 . S
C3899 C3900 1.524 . S
C3900 C3899 1.524 . S
C3900 C3901 1.397 . S
C3900 C3905 1.363 . S
C3901 H3872 0.950 . S
C3901 C3900 1.397 . S
C3901 C3902 1.334 . S
C3902 H3873 0.950 . S
C3902 C3901 1.334 . S
C3902 C3903 1.287 . S
C3903 C3902 1.287 . S
C3903 C3904 1.524 . S
C3903 H3906 0.999 . S
C3904 H3874 0.950 . S
C3904 C3903 1.524 . S
C3904 C3905 1.415 . S
C3905 H3875 0.950 . S
C3905 C3900 1.363 . S
C3905 C3904 1.415 . S
H3906 C3903 0.999 . S
H3907 C3888 0.913 . S
H3908 C3926 0.951 . S
H3909 C3928 0.951 . S
H3910 C3930 0.950 . S
H3911 C3931 0.950 . S
H3912 C3933 0.950 . S
H3913 C3936 0.950 . S
H3914 C3937 0.950 . S
H3915 C3939 0.950 . S
H3916 C3940 0.950 . S
H3917 C3941 0.951 . S
H3918 C3943 0.951 . S
H3919 C3945 0.950 . S
H3920 C3946 0.950 . S
H3921 C3948 0.950 . S
H3922 C3951 0.950 . S
H3923 C3952 0.950 . S
H3924 C3954 0.950 . S
H3925 C3955 0.950 . S
C3926 H3908 0.951 . S
C3926 C3927 1.366 . S
C3926 C3928 1.388 . S
C3927 C3926 1.366 . S
C3927 C3931 1.385 . S
C3928 H3909 0.951 . S
C3928 C3926 1.388 . S
C3928 C3929 1.366 . S
C3929 C3928 1.366 . S
C3929 C3930 1.414 . S
C3929 C3932 1.499 . S
C3930 H3910 0.950 . S
C3930 C3929 1.414 . S
C3930 C3931 1.374 . S
C3931 H3911 0.950 . S
C3931 C3927 1.385 . S
C3931 C3930 1.374 . S
C3932 C3929 1.499 . S
C3932 C3933 1.373 . S
C3932 C3934 1.389 . S
C3933 H3912 0.950 . S
C3933 C3932 1.373 . S
C3933 C3949 1.377 . S
C3934 C3932 1.389 . S
C3934 C3935 1.524 . S
C3934 C3948 1.377 . S
C3935 C3934 1.524 . S
C3935 C3936 1.397 . S
C3935 C3940 1.363 . S
C3936 H3913 0.950 . S
C3936 C3935 1.397 . S
C3936 C3937 1.334 . S
C3937 H3914 0.950 . S
C3937 C3936 1.334 . S
C3937 C3938 1.287 . S
C3938 C3937 1.287 . S
C3938 C3939 1.524 . S
C3938 H3957 0.913 . S
C3939 H3915 0.950 . S
C3939 C3938 1.524 . S
C3939 C3940 1.415 . S
C3940 H3916 0.950 . S
C3940 C3935 1.363 . S
C3940 C3939 1.415 . S
C3941 H3917 0.951 . S
C3941 C3942 1.366 . S
C3941 C3943 1.388 1_565 S
C3942 C3941 1.366 . S
C3942 C3946 1.385 . S
C3943 H3918 0.951 . S
C3943 C3941 1.388 1_545 S
C3943 C3944 1.366 . S
C3944 C3943 1.366 . S
C3944 C3945 1.414 . S
C3944 C3947 1.499 . S
C3945 H3919 0.950 . S
C3945 C3944 1.414 . S
C3945 C3946 1.374 1_545 S
C3946 H3920 0.950 . S
C3946 C3942 1.385 . S
C3946 C3945 1.374 1_565 S
C3947 C3944 1.499 . S
C3947 C3948 1.373 . S
C3947 C3949 1.389 . S
C3948 H3921 0.950 . S
C3948 C3934 1.377 . S
C3948 C3947 1.373 . S
C3949 C3933 1.377 . S
C3949 C3947 1.389 . S
C3949 C3950 1.524 . S
C3950 C3949 1.524 . S
C3950 C3951 1.397 . S
C3950 C3955 1.363 . S
C3951 H3922 0.950 . S
C3951 C3950 1.397 . S
C3951 C3952 1.334 1_545 S
C3952 H3923 0.950 . S
C3952 C3951 1.334 1_565 S
C3952 C3953 1.296 1_565 S
C3953 C3952 1.296 1_545 S
C3953 C3954 1.545 . S
C3953 H3956 0.965 1_545 S
C3954 H3924 0.950 . S
C3954 C3953 1.545 . S
C3954 C3955 1.415 . S
C3955 H3925 0.950 . S
C3955 C3950 1.363 . S
C3955 C3954 1.415 . S
H3956 C3953 0.965 1_565 S
H3957 C3938 0.913 . S
H3958 C3976 0.951 . S
H3959 C3978 0.966 . S
H3960 C3980 0.950 1_655 S
H3961 C3981 0.950 . S
H3962 C3983 0.950 . S
H3963 C3986 0.950 . S
H3964 C3987 0.950 . S
H3965 C3989 0.950 . S
H3966 C3990 0.950 . S
H3967 C3991 0.951 . S
H3968 C3993 0.951 . S
H3969 C3995 0.950 . S
H3970 C3996 0.950 . S
H3971 C3998 0.950 . S
H3972 C4001 0.950 . S
H3973 C4002 0.950 . S
H3974 C4004 0.950 . S
H3975 C4005 0.950 . S
C3976 H3958 0.951 . S
C3976 C3977 1.366 . S
C3976 C3978 1.388 . S
C3977 C3976 1.366 . S
C3977 C3981 1.385 . S
C3978 H3959 0.966 . S
C3978 C3976 1.388 . S
C3978 C3979 1.366 1_455 S
C3979 C3978 1.366 1_655 S
C3979 C3980 1.414 1_655 S
C3979 C3982 1.499 . S
C3980 H3960 0.950 1_455 S
C3980 C3979 1.414 1_455 S
C3980 C3981 1.374 . S
C3981 H3961 0.950 . S
C3981 C3977 1.385 . S
C3981 C3980 1.374 . S
C3982 C3979 1.499 . S
C3982 C3983 1.373 . S
C3982 C3984 1.389 . S
C3983 H3962 0.950 . S
C3983 C3982 1.373 . S
C3983 C3999 1.377 . S
C3984 C3982 1.389 . S
C3984 C3985 1.524 . S
C3984 C3998 1.377 . S
C3985 C3984 1.524 . S
C3985 C3986 1.397 . S
C3985 C3990 1.363 . S
C3986 H3963 0.950 . S
C3986 C3985 1.397 . S
C3986 C3987 1.334 . S
C3987 H3964 0.950 . S
C3987 C3986 1.334 . S
C3987 C3988 1.287 . S
C3988 C3987 1.287 . S
C3988 C3989 1.524 . S
C3988 H4007 0.913 . S
C3989 H3965 0.950 . S
C3989 C3988 1.524 . S
C3989 C3990 1.415 . S
C3990 H3966 0.950 . S
C3990 C3985 1.363 . S
C3990 C3989 1.415 . S
C3991 H3967 0.951 . S
C3991 C3992 1.366 . S
C3991 C3993 1.388 . S
C3992 C3991 1.366 . S
C3992 C3996 1.385 . S
C3993 H3968 0.951 . S
C3993 C3991 1.388 . S
C3993 C3994 1.366 . S
C3994 C3993 1.366 . S
C3994 C3995 1.414 . S
C3994 C3997 1.499 . S
C3995 H3969 0.950 . S
C3995 C3994 1.414 . S
C3995 C3996 1.374 . S
C3996 H3970 0.950 . S
C3996 C3992 1.385 . S
C3996 C3995 1.374 . S
C3997 C3994 1.499 . S
C3997 C3998 1.373 . S
C3997 C3999 1.389 . S
C3998 H3971 0.950 . S
C3998 C3984 1.377 . S
C3998 C3997 1.373 . S
C3999 C3983 1.377 . S
C3999 C3997 1.389 . S
C3999 C4000 1.524 . S
C4000 C3999 1.524 . S
C4000 C4001 1.397 . S
C4000 C4005 1.363 . S
C4001 H3972 0.950 . S
C4001 C4000 1.397 . S
C4001 C4002 1.334 . S
C4002 H3973 0.950 . S
C4002 C4001 1.334 . S
C4002 C4003 1.287 . S
C4003 C4002 1.287 . S
C4003 C4004 1.524 . S
C4003 H4006 0.999 . S
C4004 H3974 0.950 . S
C4004 C4003 1.524 . S
C4004 C4005 1.415 . S
C4005 H3975 0.950 . S
C4005 C4000 1.363 . S
C4005 C4004 1.415 . S
H4006 C4003 0.999 . S
H4007 C3988 0.913 . S
H4008 C4026 0.951 . S
H4009 C4028 0.951 . S
H4010 C4030 0.950 . S
H4011 C4031 0.950 . S
H4012 C4033 0.950 . S
H4013 C4036 0.950 . S
H4014 C4037 0.950 . S
H4015 C4039 0.950 . S
H4016 C4040 0.950 . S
H4017 C4041 0.951 . S
H4018 C4043 0.951 . S
H4019 C4045 0.950 . S
H4020 C4046 0.950 . S
H4021 C4048 0.950 . S
H4022 C4051 0.950 . S
H4023 C4052 0.950 . S
H4024 C4054 0.950 . S
H4025 C4055 0.950 . S
C4026 H4008 0.951 . S
C4026 C4027 1.366 . S
C4026 C4028 1.388 . S
C4027 C4026 1.366 . S
C4027 C4031 1.385 . S
C4028 H4009 0.951 . S
C4028 C4026 1.388 . S
C4028 C4029 1.366 . S
C4029 C4028 1.366 . S
C4029 C4030 1.414 . S
C4029 C4032 1.499 . S
C4030 H4010 0.950 . S
C4030 C4029 1.414 . S
C4030 C4031 1.374 . S
C4031 H4011 0.950 . S
C4031 C4027 1.385 . S
C4031 C4030 1.374 . S
C4032 C4029 1.499 . S
C4032 C4033 1.373 . S
C4032 C4034 1.389 . S
C4033 H4012 0.950 . S
C4033 C4032 1.373 . S
C4033 C4049 1.377 . S
C4034 C4032 1.389 . S
C4034 C4035 1.524 . S
C4034 C4048 1.377 . S
C4035 C4034 1.524 . S
C4035 C4036 1.397 . S
C4035 C4040 1.363 . S
C4036 H4013 0.950 . S
C4036 C4035 1.397 . S
C4036 C4037 1.334 . S
C4037 H4014 0.950 . S
C4037 C4036 1.334 . S
C4037 C4038 1.287 . S
C4038 C4037 1.287 . S
C4038 C4039 1.524 . S
C4038 H4057 0.913 . S
C4039 H4015 0.950 . S
C4039 C4038 1.524 . S
C4039 C4040 1.415 . S
C4040 H4016 0.950 . S
C4040 C4035 1.363 . S
C4040 C4039 1.415 . S
C4041 H4017 0.951 . S
C4041 C4042 1.366 . S
C4041 C4043 1.388 . S
C4042 C4041 1.366 . S
C4042 C4046 1.385 . S
C4043 H4018 0.951 . S
C4043 C4041 1.388 . S
C4043 C4044 1.366 . S
C4044 C4043 1.366 . S
C4044 C4045 1.414 . S
C4044 C4047 1.499 . S
C4045 H4019 0.950 . S
C4045 C4044 1.414 . S
C4045 C4046 1.374 . S
C4046 H4020 0.950 . S
C4046 C4042 1.385 . S
C4046 C4045 1.374 . S
C4047 C4044 1.499 . S
C4047 C4048 1.373 . S
C4047 C4049 1.389 . S
C4048 H4021 0.950 . S
C4048 C4034 1.377 . S
C4048 C4047 1.373 . S
C4049 C4033 1.377 . S
C4049 C4047 1.389 . S
C4049 C4050 1.524 . S
C4050 C4049 1.524 . S
C4050 C4051 1.397 . S
C4050 C4055 1.363 . S
C4051 H4022 0.950 . S
C4051 C4050 1.397 . S
C4051 C4052 1.334 . S
C4052 H4023 0.950 . S
C4052 C4051 1.334 . S
C4052 C4053 1.287 . S
C4053 C4052 1.287 . S
C4053 C4054 1.524 . S
C4053 H4056 0.999 . S
C4054 H4024 0.950 . S
C4054 C4053 1.524 . S
C4054 C4055 1.415 . S
C4055 H4025 0.950 . S
C4055 C4050 1.363 . S
C4055 C4054 1.415 . S
H4056 C4053 0.999 . S
H4057 C4038 0.913 . S
H4058 C4076 0.951 . S
H4059 C4078 0.951 . S
H4060 C4080 0.950 . S
H4061 C4081 0.950 . S
H4062 C4083 0.950 . S
H4063 C4086 0.950 . S
H4064 C4087 0.950 . S
H4065 C4089 0.950 . S
H4066 C4090 0.950 . S
H4067 C4091 0.951 . S
H4068 C4093 0.951 . S
H4069 C4095 0.950 . S
H4070 C4096 0.950 . S
H4071 C4098 0.950 . S
H4072 C4101 0.950 . S
H4073 C4102 0.950 . S
H4074 C4104 0.950 . S
H4075 C4105 0.950 . S
C4076 H4058 0.951 . S
C4076 C4077 1.366 . S
C4076 C4078 1.388 . S
C4077 C4076 1.366 . S
C4077 C4081 1.385 . S
C4078 H4059 0.951 . S
C4078 C4076 1.388 . S
C4078 C4079 1.366 . S
C4079 C4078 1.366 . S
C4079 C4080 1.414 . S
C4079 C4082 1.499 . S
C4080 H4060 0.950 . S
C4080 C4079 1.414 . S
C4080 C4081 1.374 . S
C4081 H4061 0.950 . S
C4081 C4077 1.385 . S
C4081 C4080 1.374 . S
C4082 C4079 1.499 . S
C4082 C4083 1.373 . S
C4082 C4084 1.389 . S
C4083 H4062 0.950 . S
C4083 C4082 1.373 . S
C4083 C4099 1.377 . S
C4084 C4082 1.389 . S
C4084 C4085 1.524 . S
C4084 C4098 1.377 . S
C4085 C4084 1.524 . S
C4085 C4086 1.397 . S
C4085 C4090 1.363 . S
C4086 H4063 0.950 . S
C4086 C4085 1.397 . S
C4086 C4087 1.334 . S
C4087 H4064 0.950 . S
C4087 C4086 1.334 . S
C4087 C4088 1.287 . S
C4088 C4087 1.287 . S
C4088 C4089 1.524 . S
C4088 H4107 0.913 . S
C4089 H4065 0.950 . S
C4089 C4088 1.524 . S
C4089 C4090 1.415 . S
C4090 H4066 0.950 . S
C4090 C4085 1.363 . S
C4090 C4089 1.415 . S
C4091 H4067 0.951 . S
C4091 C4092 1.366 . S
C4091 C4093 1.388 . S
C4092 C4091 1.366 . S
C4092 C4096 1.385 . S
C4093 H4068 0.951 . S
C4093 C4091 1.388 . S
C4093 C4094 1.366 . S
C4094 C4093 1.366 . S
C4094 C4095 1.414 . S
C4094 C4097 1.499 . S
C4095 H4069 0.950 . S
C4095 C4094 1.414 . S
C4095 C4096 1.374 . S
C4096 H4070 0.950 . S
C4096 C4092 1.385 . S
C4096 C4095 1.374 . S
C4097 C4094 1.499 . S
C4097 C4098 1.373 . S
C4097 C4099 1.389 . S
C4098 H4071 0.950 . S
C4098 C4084 1.377 . S
C4098 C4097 1.373 . S
C4099 C4083 1.377 . S
C4099 C4097 1.389 . S
C4099 C4100 1.524 . S
C4100 C4099 1.524 . S
C4100 C4101 1.397 . S
C4100 C4105 1.363 . S
C4101 H4072 0.950 . S
C4101 C4100 1.397 . S
C4101 C4102 1.334 . S
C4102 H4073 0.950 . S
C4102 C4101 1.334 . S
C4102 C4103 1.287 . S
C4103 C4102 1.287 . S
C4103 C4104 1.524 . S
C4103 H4106 0.999 . S
C4104 H4074 0.950 . S
C4104 C4103 1.524 . S
C4104 C4105 1.415 . S
C4105 H4075 0.950 . S
C4105 C4100 1.363 . S
C4105 C4104 1.415 . S
H4106 C4103 0.999 . S
H4107 C4088 0.913 . S
H4108 C4126 0.951 . S
H4109 C4128 0.951 . S
H4110 C4130 0.950 . S
H4111 C4131 0.950 . S
H4112 C4133 0.950 . S
H4113 C4136 0.950 . S
H4114 C4137 0.950 . S
H4115 C4139 0.950 . S
H4116 C4140 0.950 . S
H4117 C4141 0.951 . S
H4118 C4143 0.951 . S
H4119 C4145 0.950 . S
H4120 C4146 0.950 . S
H4121 C4148 0.950 . S
H4122 C4151 0.950 . S
H4123 C4152 0.950 . S
H4124 C4154 0.950 . S
H4125 C4155 0.950 . S
C4126 H4108 0.951 . S
C4126 C4127 1.366 . S
C4126 C4128 1.388 . S
C4127 C4126 1.366 . S
C4127 C4131 1.385 . S
C4128 H4109 0.951 . S
C4128 C4126 1.388 . S
C4128 C4129 1.366 . S
C4129 C4128 1.366 . S
C4129 C4130 1.414 . S
C4129 C4132 1.499 . S
C4130 H4110 0.950 . S
C4130 C4129 1.414 . S
C4130 C4131 1.374 . S
C4131 H4111 0.950 . S
C4131 C4127 1.385 . S
C4131 C4130 1.374 . S
C4132 C4129 1.499 . S
C4132 C4133 1.373 . S
C4132 C4134 1.389 . S
C4133 H4112 0.950 . S
C4133 C4132 1.373 . S
C4133 C4149 1.377 . S
C4134 C4132 1.389 . S
C4134 C4135 1.524 . S
C4134 C4148 1.377 . S
C4135 C4134 1.524 . S
C4135 C4136 1.397 . S
C4135 C4140 1.363 . S
C4136 H4113 0.950 . S
C4136 C4135 1.397 . S
C4136 C4137 1.334 . S
C4137 H4114 0.950 . S
C4137 C4136 1.334 . S
C4137 C4138 1.287 . S
C4138 C4137 1.287 . S
C4138 C4139 1.524 . S
C4138 H4157 0.913 . S
C4139 H4115 0.950 . S
C4139 C4138 1.524 . S
C4139 C4140 1.415 . S
C4140 H4116 0.950 . S
C4140 C4135 1.363 . S
C4140 C4139 1.415 . S
C4141 H4117 0.951 . S
C4141 C4142 1.366 . S
C4141 C4143 1.388 . S
C4142 C4141 1.366 . S
C4142 C4146 1.385 . S
C4143 H4118 0.951 . S
C4143 C4141 1.388 . S
C4143 C4144 1.366 . S
C4144 C4143 1.366 . S
C4144 C4145 1.414 . S
C4144 C4147 1.499 . S
C4145 H4119 0.950 . S
C4145 C4144 1.414 . S
C4145 C4146 1.374 . S
C4146 H4120 0.950 . S
C4146 C4142 1.385 . S
C4146 C4145 1.374 . S
C4147 C4144 1.499 . S
C4147 C4148 1.373 . S
C4147 C4149 1.389 . S
C4148 H4121 0.950 . S
C4148 C4134 1.377 . S
C4148 C4147 1.373 . S
C4149 C4133 1.377 . S
C4149 C4147 1.389 . S
C4149 C4150 1.524 . S
C4150 C4149 1.524 . S
C4150 C4151 1.397 . S
C4150 C4155 1.363 . S
C4151 H4122 0.950 . S
C4151 C4150 1.397 . S
C4151 C4152 1.334 . S
C4152 H4123 0.950 . S
C4152 C4151 1.334 . S
C4152 C4153 1.287 . S
C4153 C4152 1.287 . S
C4153 C4154 1.524 . S
C4153 H4156 0.999 . S
C4154 H4124 0.950 . S
C4154 C4153 1.524 . S
C4154 C4155 1.415 . S
C4155 H4125 0.950 . S
C4155 C4150 1.363 . S
C4155 C4154 1.415 . S
H4156 C4153 0.999 . S
H4157 C4138 0.913 . S
C577 C218 0.609 . S
C592 C24 0.749 . S
C627 C55 0.731 . S
C642 C249 0.558 . S
C677 C187 0.646 . S
C692 C63 0.631 . S
C727 C427 0.701 . S
C742 C86 0.734 . S
C777 C435 0.561 . S
C792 C1 0.580 . S
C827 C396 0.736 . S
C842 C32 0.544 . S
C877 C93 0.745 1_455 S
C892 C523 0.523 . S
C927 C124 0.719 . S
C942 C527 0.719 . S
C977 C182 0.573 . S
C992 C492 0.571 . S
C1027 C155 0.682 1_545 S
C1042 C337 0.514 1_554 S
C1077 C120 0.571 . S
C1092 C368 0.591 1_554 S
C1127 C151 0.555 . S
C1142 C306 0.564 1_554 S
C1177 C210 0.690 . S
C1192 C404 0.551 . S
C1227 C241 0.634 . S
C1242 C458 0.672 . S
C1277 C373 0.560 . S
C1292 C272 0.713 . S
C1327 C496 0.728 . S
C1342 C341 0.676 . S
C1377 C279 0.767 . S
C1392 C554 0.628 . S
C1427 C465 0.738 . S
C1442 C310 0.721 . S
C1477 C117 1.434 . S
C1492 C0 1.433 . S
C1527 C148 1.402 . S
C1542 C31 1.401 . S
C1577 C89 1.877 . S
C1592 C156 1.877 . S
C1627 C179 1.430 . S
C1642 C62 1.431 . S
C1677 C27 1.914 . S
C1692 C94 1.914 . S
C1727 C58 1.877 . S
C1742 C125 1.876 . S
C1777 C280 1.659 . S
C1792 C186 1.729 . S
C1827 C311 1.608 . S
C1842 C217 1.672 . S
C1877 C342 1.631 . S
C1892 C248 1.693 . S
C1927 C365 1.669 . S
C1942 C275 1.599 . S
C1977 C303 1.688 . S
C1992 C213 1.620 . S
C2027 C334 1.630 . S
C2042 C244 1.567 . S
C2077 C489 1.414 . S
C2092 C372 1.413 . S
C2127 C520 1.384 . S
C2142 C403 1.383 . S
C2177 C461 1.854 . S
C2192 C528 1.856 . S
C2227 C434 1.410 . S
C2242 C551 1.409 . S
C2277 C399 1.889 . S
C2292 C466 1.887 . S
C2327 C430 1.850 1_554 S
C2342 C497 1.849 . S
C2377 C18 1.908 . S
C2392 C359 1.901 . S
C2427 C297 1.874 . S
C2442 C49 1.880 . S
C2477 C328 1.719 . S
C2492 C72 1.806 . S
C2527 C80 1.873 . S
C2542 C483 1.867 . S
C2577 C514 1.596 . S
C2592 C10 1.666 . S
C2627 C537 1.606 . S
C2642 C41 1.654 . S
C2677 C445 1.827 . S
C2692 C104 1.833 . S
C2727 C135 1.819 . S
C2742 C374 1.854 . S
C2777 C157 1.609 . S
C2792 C405 1.563 . S
C2827 C197 1.917 . S
C2842 C166 1.924 . S
C2877 C95 1.850 . S
C2892 C228 1.764 . S
C2927 C126 1.819 . S
C2942 C259 1.733 . S
C2977 C204 1.673 . S
C2992 C545 1.668 . S
C3027 C475 1.693 . S
C3042 C235 1.669 . S
C3077 C506 1.703 . S
C3092 C266 1.683 . S
C3127 C111 1.757 . S
C3142 C258 1.832 . S
C3177 C196 1.854 . S
C3192 C142 1.770 . S
C3227 C165 1.801 . S
C3242 C227 1.848 . S
C3277 C281 1.850 . S
C3292 C73 1.766 . S
C3327 C312 1.841 . S
C3342 C2 1.797 . S
C3377 C343 1.862 . S
C3392 C33 1.810 . S
C3427 C352 1.661 . S
C3442 C383 1.659 . S
C3477 C290 1.676 . S
C3492 C414 1.669 . S
C3527 C321 1.676 . S
C3542 C436 1.694 . S
C3577 C173 1.854 . S
C3592 C390 1.856 . S
C3627 C103 1.877 . S
C3642 C421 1.841 . S
C3677 C444 1.651 . S
C3692 C134 1.599 . S
C3727 C289 1.786 . S
C3742 C452 1.752 . S
C3777 C382 1.621 . S
C3792 C320 1.579 . S
C3827 C413 1.588 . S
C3842 C351 1.543 . S
C3877 C250 1.767 . S
C3892 C476 1.732 . S
C3927 C507 1.702 . S
C3942 C188 1.735 . S
C3977 C219 1.526 . S
C3992 C529 1.570 . S
C4027 C538 1.897 . S
C4042 C11 1.893 . S
C4077 C42 1.635 . S
C4092 C467 1.710 . S
C4127 C64 1.641 . S
C4142 C498 1.696 . S
