# Generated by pormake.
# Topology unp, (4)-cn, num edge types: 1
# Building blocks:
#     Node 0, Type 0, BuildingBlock: KUFVIS_clean_sbu_0, # of connection points: 4
#     Node 1, Type 0, BuildingBlock: KUFVIS_clean_sbu_0, # of connection points: 4
#     Node 2, Type 0, BuildingBlock: KUFVIS_clean_sbu_0, # of connection points: 4
#     Node 3, Type 0, BuildingBlock: KUFVIS_clean_sbu_0, # of connection points: 4
#     Node 4, Type 0, BuildingBlock: KUFVIS_clean_sbu_0, # of connection points: 4
#     Node 5, Type 0, BuildingBlock: KUFVIS_clean_sbu_0, # of connection points: 4
#     Node 6, Type 0, BuildingBlock: KUFVIS_clean_sbu_0, # of connection points: 4
#     Node 7, Type 0, BuildingBlock: KUFVIS_clean_sbu_0, # of connection points: 4
#     Node 8, Type 0, BuildingBlock: KUFVIS_clean_sbu_0, # of connection points: 4
#     Node 9, Type 0, BuildingBlock: KUFVIS_clean_sbu_0, # of connection points: 4
#     Node 10, Type 0, BuildingBlock: KUFVIS_clean_sbu_0, # of connection points: 4
#     Node 11, Type 0, BuildingBlock: KUFVIS_clean_sbu_0, # of connection points: 4
#     Node 12, Type 0, BuildingBlock: KUFVIS_clean_sbu_0, # of connection points: 4
#     Node 13, Type 0, BuildingBlock: KUFVIS_clean_sbu_0, # of connection points: 4
#     Node 14, Type 0, BuildingBlock: KUFVIS_clean_sbu_0, # of connection points: 4
#     Node 15, Type 0, BuildingBlock: KUFVIS_clean_sbu_0, # of connection points: 4
#     Node 16, Type 0, BuildingBlock: KUFVIS_clean_sbu_0, # of connection points: 4
#     Node 17, Type 0, BuildingBlock: KUFVIS_clean_sbu_0, # of connection points: 4
#     Edge 18, Type (0, 0), BuildingBlock: UVAHIK_clean_linker_0, # of connection points: 2
#     Edge 19, Type (0, 0), BuildingBlock: UVAHIK_clean_linker_0, # of connection points: 2
#     Edge 20, Type (0, 0), BuildingBlock: UVAHIK_clean_linker_0, # of connection points: 2
#     Edge 21, Type (0, 0), BuildingBlock: UVAHIK_clean_linker_0, # of connection points: 2
#     Edge 22, Type (0, 0), BuildingBlock: UVAHIK_clean_linker_0, # of connection points: 2
#     Edge 23, Type (0, 0), BuildingBlock: UVAHIK_clean_linker_0, # of connection points: 2
#     Edge 24, Type (0, 0), BuildingBlock: UVAHIK_clean_linker_0, # of connection points: 2
#     Edge 25, Type (0, 0), BuildingBlock: UVAHIK_clean_linker_0, # of connection points: 2
#     Edge 26, Type (0, 0), BuildingBlock: UVAHIK_clean_linker_0, # of connection points: 2
#     Edge 27, Type (0, 0), BuildingBlock: UVAHIK_clean_linker_0, # of connection points: 2
#     Edge 28, Type (0, 0), BuildingBlock: UVAHIK_clean_linker_0, # of connection points: 2
#     Edge 29, Type (0, 0), BuildingBlock: UVAHIK_clean_linker_0, # of connection points: 2
#     Edge 30, Type (0, 0), BuildingBlock: UVAHIK_clean_linker_0, # of connection points: 2
#     Edge 31, Type (0, 0), BuildingBlock: UVAHIK_clean_linker_0, # of connection points: 2
#     Edge 32, Type (0, 0), BuildingBlock: UVAHIK_clean_linker_0, # of connection points: 2
#     Edge 33, Type (0, 0), BuildingBlock: UVAHIK_clean_linker_0, # of connection points: 2
#     Edge 34, Type (0, 0), BuildingBlock: UVAHIK_clean_linker_0, # of connection points: 2
#     Edge 35, Type (0, 0), BuildingBlock: UVAHIK_clean_linker_0, # of connection points: 2
#     Edge 36, Type (0, 0), BuildingBlock: UVAHIK_clean_linker_0, # of connection points: 2
#     Edge 37, Type (0, 0), BuildingBlock: UVAHIK_clean_linker_0, # of connection points: 2
#     Edge 38, Type (0, 0), BuildingBlock: UVAHIK_clean_linker_0, # of connection points: 2
#     Edge 39, Type (0, 0), BuildingBlock: UVAHIK_clean_linker_0, # of connection points: 2
#     Edge 40, Type (0, 0), BuildingBlock: UVAHIK_clean_linker_0, # of connection points: 2
#     Edge 41, Type (0, 0), BuildingBlock: UVAHIK_clean_linker_0, # of connection points: 2
#     Edge 42, Type (0, 0), BuildingBlock: UVAHIK_clean_linker_0, # of connection points: 2
#     Edge 43, Type (0, 0), BuildingBlock: UVAHIK_clean_linker_0, # of connection points: 2
#     Edge 44, Type (0, 0), BuildingBlock: UVAHIK_clean_linker_0, # of connection points: 2
#     Edge 45, Type (0, 0), BuildingBlock: UVAHIK_clean_linker_0, # of connection points: 2
#     Edge 46, Type (0, 0), BuildingBlock: UVAHIK_clean_linker_0, # of connection points: 2
#     Edge 47, Type (0, 0), BuildingBlock: UVAHIK_clean_linker_0, # of connection points: 2
#     Edge 48, Type (0, 0), BuildingBlock: UVAHIK_clean_linker_0, # of connection points: 2
#     Edge 49, Type (0, 0), BuildingBlock: UVAHIK_clean_linker_0, # of connection points: 2
#     Edge 50, Type (0, 0), BuildingBlock: UVAHIK_clean_linker_0, # of connection points: 2
#     Edge 51, Type (0, 0), BuildingBlock: UVAHIK_clean_linker_0, # of connection points: 2
#     Edge 52, Type (0, 0), BuildingBlock: UVAHIK_clean_linker_0, # of connection points: 2
#     Edge 53, Type (0, 0), BuildingBlock: UVAHIK_clean_linker_0, # of connection points: 2
# Relax obj value: 0.413
# Max RMSD: 0.189
# Mean RMSD: 0.187
data_MOF--net-unp--node1-KUFVIS_clean_sbu_0--edge1-UVAHIK_clean_linker_0
_symmetry_space_group_name_H-M    P1
_symmetry_Int_Tables_number       1
_symmetry_cell_setting            triclinic
loop_
_symmetry_equiv_pos_as_xyz
'x, y, z'
_cell_length_a     61.321327
_cell_length_b     61.316661
_cell_length_c     74.263724
_cell_angle_alpha  90.087189
_cell_angle_beta   89.911865
_cell_angle_gamma 120.14664
loop_
_atom_site_label
_atom_site_type_symbol
_atom_site_fract_x
_atom_site_fract_y
_atom_site_fract_z
_atom_type_partial_charge
Mn0 Mn 0.15118 0.09816 0.15058 0.0
Mn1 Mn 0.1974 0.08372 0.14845 0.0
C2 C 0.15565 0.07509 0.17324 0.0
C3 C 0.1105 0.08893 0.14366 0.0
C4 C 0.20661 0.1355 0.15821 0.0
O5 O 0.16116 0.10355 0.12441 0.0
O6 O 0.19201 0.09369 0.1239 0.0
C7 C 0.17138 0.03771 0.12599 0.0
N8 N 0.18318 0.04914 0.14163 0.0
C9 C 0.17723 0.01006 0.15359 0.0
C10 C 0.16517 0.99791 0.13756 0.0
C11 C 0.16223 0.0118 0.12371 0.0
C12 C 0.18628 0.036 0.155 0.0
H13 H 0.16889 0.04827 0.11537 0.0
C14 C 0.17797 0.10091 0.1162 0.0
O15 O 0.12821 0.1119 0.14697 0.0
O16 O 0.11646 0.07143 0.14435 0.0
N17 N 0.20413 0.07359 0.17116 0.0
C18 C 0.21431 0.0877 0.18629 0.0
C19 C 0.21756 0.07639 0.20169 0.0
C20 C 0.21029 0.05071 0.20139 0.0
C21 C 0.19987 0.03658 0.18566 0.0
C22 C 0.19735 0.04895 0.17066 0.0
H23 H 0.21963 0.10736 0.18665 0.0
O24 O 0.14442 0.0879 0.17641 0.0
O25 O 0.16432 0.07676 0.15701 0.0
O26 O 0.18387 0.13049 0.15677 0.0
O27 O 0.21371 0.11938 0.15586 0.0
C28 C 0.19129 0.01057 0.18444 0.0
C29 C 0.18 0.99733 0.16841 0.0
H30 H 0.15783 0.97787 0.13582 0.0
H31 H 0.15281 0.00252 0.11134 0.0
H32 H 0.22548 0.08739 0.21381 0.0
H33 H 0.21256 0.04198 0.21336 0.0
H34 H 0.19293 0.00049 0.19584 0.0
H35 H 0.17313 0.97726 0.16773 0.0
Mn36 Mn 0.81064 0.99003 0.10031 0.0
Mn37 Mn 0.84772 0.04053 0.07426 0.0
C38 C 0.8534 0.01289 0.10534 0.0
C39 C 0.7909 0.94742 0.1075 0.0
C40 C 0.81701 0.04267 0.10508 0.0
O41 O 0.78803 0.98453 0.07891 0.0
O42 O 0.81366 0.0199 0.06335 0.0
C43 C 0.85186 0.01208 0.04347 0.0
N44 N 0.8631 0.03017 0.05637 0.0
C45 C 0.90444 0.04043 0.04616 0.0
C46 C 0.89331 0.02201 0.03268 0.0
C47 C 0.8669 0.00774 0.03136 0.0
C48 C 0.88849 0.04394 0.0578 0.0
H49 H 0.83158 0.00101 0.04243 0.0
C50 C 0.79266 -0.00058 0.06566 0.0
O51 O 0.7829 0.96185 0.11393 0.0
O52 O 0.80931 0.95743 0.09597 0.0
N53 N 0.88126 0.06232 0.08284 0.0
C54 C 0.88901 0.07887 0.09689 0.0
C55 C 0.91492 0.09426 0.10028 0.0
C56 C 0.93258 0.09275 0.08906 0.0
C57 C 0.92416 0.07598 0.07445 0.0
C58 C 0.89811 0.06118 0.07169 0.0
H59 H 0.87553 0.08014 0.10554 0.0
O60 O 0.83806 -0.00075 0.11801 0.0
O61 O 0.8434 0.01262 0.0898 0.0
O62 O 0.80641 0.0193 0.10897 0.0
O63 O 0.83324 0.05291 0.09251 0.0
C64 C 0.94058 0.07303 0.06272 0.0
C65 C 0.93072 0.05522 0.04862 0.0
H66 H 0.90484 0.01856 0.02335 0.0
H67 H 0.85817 0.99342 0.02105 0.0
H68 H 0.92126 0.1072 0.11156 0.0
H69 H 0.95253 0.10448 0.09182 0.0
H70 H 0.96081 0.08417 0.06454 0.0
H71 H 0.94353 0.05294 0.0398 0.0
Mn72 Mn 0.94865 0.84344 0.16396 0.0
Mn73 Mn 0.92117 0.84314 0.12447 0.0
C74 C 0.9091 0.83946 0.16378 0.0
C75 C 0.97652 0.86633 0.187 0.0
C76 C 0.92428 0.79843 0.1384 0.0
O77 O 0.97761 0.85622 0.14612 0.0
O78 O 0.95805 0.85796 0.12096 0.0
C79 C 0.94406 0.89844 0.1208 0.0
N80 N 0.92319 0.87506 0.12157 0.0
C81 C 0.89583 0.8921 0.11686 0.0
C82 C 0.91704 0.91636 0.11593 0.0
C83 C 0.94126 0.91955 0.11799 0.0
C84 C 0.8998 0.87183 0.11988 0.0
H85 H 0.96269 0.90093 0.12233 0.0
C86 C 0.9776 0.86118 0.12947 0.0
O87 O 0.97108 0.8434 0.18339 0.0
O88 O 0.96544 0.87563 0.17743 0.0
N89 N 0.88545 0.82942 0.12547 0.0
C90 C 0.86698 0.80482 0.127 0.0
C91 C 0.84167 0.79825 0.1248 0.0
C92 C 0.83564 0.81701 0.1209 0.0
C93 C 0.85494 0.84224 0.11955 0.0
C94 C 0.87983 0.84759 0.12164 0.0
H95 H 0.87155 0.79033 0.12972 0.0
O96 O 0.91675 0.83263 0.17783 0.0
O97 O 0.925 0.84881 0.15051 0.0
O98 O 0.93502 0.80836 0.1533 0.0
O99 O 0.91787 0.80938 0.12665 0.0
C100 C 0.85048 0.86227 0.11611 0.0
C101 C 0.8709 0.88722 0.11497 0.0
H102 H 0.91496 0.93268 0.11369 0.0
H103 H 0.95771 0.93823 0.11735 0.0
H104 H 0.82686 0.77875 0.12593 0.0
H105 H 0.81613 0.81178 0.11888 0.0
H106 H 0.83143 0.85873 0.11446 0.0
H107 H 0.86722 0.90249 0.11256 0.0
Mn108 Mn 0.15099 0.17327 0.90518 0.0
Mn109 Mn 0.12992 0.19836 0.93643 0.0
C110 C 0.11328 0.17243 0.90092 0.0
C111 C 0.15396 0.13953 0.89392 0.0
C112 C 0.17186 0.22984 0.91026 0.0
O113 O 0.17128 0.17525 0.92735 0.0
O114 O 0.15538 0.19141 0.94736 0.0
C115 C 0.10351 0.1541 0.96047 0.0
N116 N 0.10302 0.17191 0.94982 0.0
C117 C 0.05906 0.15579 0.95621 0.0
C118 C 0.05914 0.13738 0.96734 0.0
C119 C 0.08145 0.13651 0.96945 0.0
C120 C 0.08167 0.17295 0.94772 0.0
H121 H 0.1206 0.15329 0.96207 0.0
C122 C 0.17005 0.18297 0.94307 0.0
O123 O 0.17087 0.1626 0.89004 0.0
O124 O 0.13561 0.13617 0.90443 0.0
N125 N 0.10495 0.20561 0.92758 0.0
C126 C 0.10759 0.22327 0.91531 0.0
C127 C 0.08671 0.22588 0.91105 0.0
C128 C 0.06342 0.21042 0.91952 0.0
C129 C 0.06121 0.19248 0.93218 0.0
C130 C 0.0827 0.19083 0.93595 0.0
H131 H 0.12543 0.23514 0.90872 0.0
O132 O 0.1256 0.17085 0.88722 0.0
O133 O 0.1236 0.17475 0.9166 0.0
O134 O 0.17166 0.21148 0.90205 0.0
O135 O 0.15707 0.22701 0.92328 0.0
C136 C 0.03841 0.17581 0.94091 0.0
C137 C 0.03731 0.15745 0.95289 0.0
H138 H 0.04211 0.12366 0.97419 0.0
H139 H 0.08163 0.12227 0.97794 0.0
H140 H 0.08854 0.23971 0.90122 0.0
H141 H 0.0473 0.21234 0.91608 0.0
H142 H 0.02149 0.17667 0.93828 0.0
H143 H 0.01956 0.14444 0.95927 0.0
Mn144 Mn 0.83318 0.95651 0.88117 0.0
Mn145 Mn 0.79564 0.89884 0.89893 0.0
C146 C 0.84772 0.92855 0.88449 0.0
C147 C 0.86291 -0.00098 0.88484 0.0
C148 C 0.78968 0.91312 0.86098 0.0
O149 O 0.80592 0.96045 0.89372 0.0
O150 O 0.78306 0.92181 0.90623 0.0
C151 C 0.8075 0.91158 0.93748 0.0
N152 N 0.80681 0.89792 0.92279 0.0
C153 C 0.82443 0.87694 0.93965 0.0
C154 C 0.82516 0.89066 0.95499 0.0
C155 C 0.81667 0.90806 0.95389 0.0
C156 C 0.81489 0.88109 0.92371 0.0
H157 H 0.8012 0.92512 0.93667 0.0
C158 C 0.78772 0.9444 0.90344 0.0
O159 O 0.84875 0.99104 0.87059 0.0
O160 O 0.85926 0.98242 0.89704 0.0
N161 N 0.80625 0.87518 0.89301 0.0
C162 C 0.80552 0.86446 0.87677 0.0
C163 C 0.81395 0.84704 0.87545 0.0
C164 C 0.82301 0.84081 0.89083 0.0
C165 C 0.82342 0.85197 0.90741 0.0
C166 C 0.81449 0.86896 0.90795 0.0
H167 H 0.79873 0.8693 0.8649 0.0
O168 O 0.85812 0.94666 0.8728 0.0
O169 O 0.82905 0.9273 0.89358 0.0
O170 O 0.8084 0.93556 0.86135 0.0
O171 O 0.78321 0.89796 0.8743 0.0
C172 C 0.8328 0.84726 0.92335 0.0
C173 C 0.83332 0.85975 0.93945 0.0
H174 H 0.83242 0.88816 0.96763 0.0
H175 H 0.81732 0.91883 0.96564 0.0
H176 H 0.81362 0.83855 0.8626 0.0
H177 H 0.82978 0.8276 0.88971 0.0
H178 H 0.83997 0.83432 0.92332 0.0
H179 H 0.84088 0.85622 0.95157 0.0
Mn180 Mn 0.07227 0.87112 0.93338 0.0
Mn181 Mn 0.1342 0.89813 0.94329 0.0
C182 C 0.10174 0.90476 0.91661 0.0
C183 C 0.03306 0.86785 0.93675 0.0
C184 C 0.10477 0.84824 0.92365 0.0
O185 O 0.07209 0.8587 0.9588 0.0
O186 O 0.11378 0.88019 0.96484 0.0
C187 C 0.13856 0.9359 0.97014 0.0
N188 N 0.14596 0.93033 0.95431 0.0
C189 C 0.17593 0.97414 0.94896 0.0
C190 C 0.1688 0.98029 0.96528 0.0
C191 C 0.15 0.96109 0.97589 0.0
C192 C 0.16408 0.94867 0.94401 0.0
H193 H 0.12396 0.92125 0.97826 0.0
C194 C 0.09074 0.86565 0.96951 0.0
O195 O 0.03518 0.8491 0.93078 0.0
O196 O 0.05362 0.88808 0.94156 0.0
N197 N 0.15579 0.91658 0.92359 0.0
C198 C 0.15901 0.90774 0.90754 0.0
C199 C 0.17633 0.92471 0.89498 0.0
C200 C 0.1902 0.95056 0.89905 0.0
C201 C 0.18664 0.95921 0.91567 0.0
C202 C 0.16929 0.94138 0.92774 0.0
H203 H 0.1483 0.88793 0.90426 0.0
O204 O 0.07966 0.88946 0.90994 0.0
O205 O 0.10581 0.89997 0.9329 0.0
O206 O 0.08392 0.84799 0.92309 0.0
O207 O 0.12438 0.86553 0.93151 0.0
C208 C 0.19918 0.98489 0.92055 0.0
C209 C 0.19383 0.99235 0.93717 0.0
H210 H 0.17739 -0.00027 0.96968 0.0
H211 H 0.14426 0.96571 0.98844 0.0
H212 H 0.17889 0.9179 0.88215 0.0
H213 H 0.20334 0.96363 0.88924 0.0
H214 H 0.21265 -0.0009 0.91147 0.0
H215 H 0.20326 0.01219 0.94063 0.0
Mn216 Mn 0.85049 0.49612 0.43897 0.0
Mn217 Mn 0.89276 0.47944 0.42564 0.0
C218 C 0.8412 0.45507 0.44226 0.0
C219 C 0.8179 0.50328 0.43165 0.0
C220 C 0.8967 0.50649 0.46082 0.0
O221 O 0.87476 0.52552 0.42364 0.0
O222 O 0.90055 0.51184 0.41385 0.0
C223 C 0.87786 0.46957 0.38727 0.0
N224 N 0.88165 0.46143 0.40339 0.0
C225 C 0.86891 0.42037 0.39116 0.0
C226 C 0.86507 0.4284 0.3744 0.0
C227 C 0.86952 0.45309 0.37246 0.0
C228 C 0.87733 0.43767 0.40542 0.0
H229 H 0.88108 0.48848 0.38573 0.0
C230 C 0.89309 0.52798 0.41406 0.0
O231 O 0.83195 0.51388 0.44568 0.0
O232 O 0.82293 0.48876 0.42194 0.0
N233 N 0.88754 0.44833 0.43556 0.0
C234 C 0.89148 0.44327 0.45272 0.0
C235 C 0.88774 0.4193 0.45693 0.0
C236 C 0.88003 0.40079 0.44346 0.0
C237 C 0.87637 0.4065 0.42585 0.0
C238 C 0.88075 0.43084 0.4224 0.0
H239 H 0.89699 0.45722 0.46319 0.0
O240 O 0.82898 0.4635 0.45145 0.0
O241 O 0.85796 0.47068 0.43091 0.0
O242 O 0.87651 0.50744 0.4591 0.0
O243 O 0.90478 0.49706 0.44897 0.0
C244 C 0.86817 0.38888 0.41166 0.0
C245 C 0.86438 0.39579 0.39434 0.0
H246 H 0.85853 0.4157 0.36296 0.0
H247 H 0.86646 0.45938 0.3596 0.0
H248 H 0.89053 0.41503 0.47058 0.0
H249 H 0.87682 0.38222 0.44682 0.0
H250 H 0.86447 0.36987 0.41396 0.0
H251 H 0.85782 0.38199 0.38357 0.0
Mn252 Mn 0.52089 0.38084 0.42198 0.0
Mn253 Mn 0.53496 0.43231 0.39701 0.0
C254 C 0.56097 0.4154 0.42241 0.0
C255 C 0.51786 0.34175 0.42561 0.0
C256 C 0.50643 0.42025 0.43217 0.0
O257 O 0.49208 0.3673 0.40403 0.0
O258 O 0.50341 0.40269 0.38799 0.0
C259 C 0.54621 0.41565 0.36254 0.0
N260 N 0.55355 0.43276 0.37619 0.0
C261 C 0.59426 0.45862 0.36257 0.0
C262 C 0.58707 0.44136 0.3483 0.0
C263 C 0.56294 0.41977 0.34831 0.0
C264 C 0.57669 0.45364 0.3763 0.0
H265 H 0.52775 0.39894 0.36254 0.0
C266 C 0.4886 0.37922 0.39133 0.0
O267 O 0.50507 0.3486 0.43575 0.0
O268 O 0.53153 0.35718 0.41296 0.0
N269 N 0.56521 0.46216 0.40418 0.0
C270 C 0.56975 0.47613 0.41946 0.0
C271 C 0.59337 0.49792 0.42186 0.0
C272 C 0.612 0.50521 0.40851 0.0
C273 C 0.60679 0.49068 0.39282 0.0
C274 C 0.58283 0.46927 0.39109 0.0
H275 H 0.55555 0.47054 0.42981 0.0
O276 O 0.55303 0.39949 0.43567 0.0
O277 O 0.54522 0.41061 0.40926 0.0
O278 O 0.50645 0.39985 0.43533 0.0
O279 O 0.5165 0.43381 0.41823 0.0
C280 C 0.62463 0.49629 0.37901 0.0
C281 C 0.61837 0.48027 0.3639 0.0
H282 H 0.59999 0.44436 0.33737 0.0
H283 H 0.55731 0.40628 0.3374 0.0
H284 H 0.59726 0.50901 0.43403 0.0
H285 H 0.6303 0.52187 0.41052 0.0
H286 H 0.64333 0.51268 0.38 0.0
H287 H 0.63235 0.4846 0.3535 0.0
Mn288 Mn 0.63805 0.16331 0.45909 0.0
Mn289 Mn 0.57753 0.12431 0.44735 0.0
C290 C 0.60745 0.17368 0.46561 0.0
C291 C 0.67792 0.19669 0.45234 0.0
C292 C 0.60389 0.11346 0.47761 0.0
O293 O 0.64051 0.14087 0.44003 0.0
O294 O 0.59975 0.1179 0.43124 0.0
C295 C 0.57717 0.14426 0.41116 0.0
N296 N 0.56815 0.13892 0.42832 0.0
C297 C 0.54018 0.15504 0.42281 0.0
C298 C 0.54908 0.16059 0.40505 0.0
C299 C 0.56766 0.15518 0.39921 0.0
C300 C 0.55018 0.14392 0.43406 0.0
H301 H 0.5916 0.14032 0.40666 0.0
C302 C 0.62316 0.12447 0.42989 0.0
O303 O 0.67473 0.18014 0.46449 0.0
O304 O 0.65804 0.1935 0.44386 0.0
N305 N 0.55473 0.12944 0.46196 0.0
C306 C 0.54956 0.12466 0.47984 0.0
C307 C 0.53197 0.12984 0.48798 0.0
C308 C 0.51994 0.13993 0.47768 0.0
C309 C 0.52559 0.14471 0.4593 0.0
C310 C 0.54306 0.13889 0.45188 0.0
H311 H 0.55892 0.11712 0.48785 0.0
O312 O 0.62814 0.18354 0.47494 0.0
O313 O 0.60532 0.15768 0.45336 0.0
O314 O 0.62463 0.13426 0.47695 0.0
O315 O 0.58527 0.10784 0.46715 0.0
C316 C 0.51502 0.15559 0.44817 0.0
C317 C 0.52231 0.16074 0.42994 0.0
H318 H 0.54199 0.16926 0.39585 0.0
H319 H 0.57473 0.15955 0.38555 0.0
H320 H 0.52781 0.12622 0.50219 0.0
H321 H 0.5066 0.14418 0.48406 0.0
H322 H 0.50155 0.16041 0.45356 0.0
H323 H 0.51434 0.16946 0.42159 0.0
Mn324 Mn 0.82194 0.52527 0.22443 0.0
Mn325 Mn 0.80203 0.56469 0.23854 0.0
C326 C 0.78085 0.51502 0.21967 0.0
C327 C 0.82923 0.49247 0.23083 0.0
C328 C 0.8325 0.57302 0.20441 0.0
O329 O 0.84941 0.5484 0.24153 0.0
O330 O 0.83413 0.57298 0.25109 0.0
C331 C 0.79037 0.54678 0.27624 0.0
N332 N 0.78279 0.55124 0.26011 0.0
C333 C 0.7406 0.53558 0.27118 0.0
C334 C 0.74802 0.53101 0.28795 0.0
C335 C 0.773 0.53661 0.29047 0.0
C336 C 0.75878 0.54587 0.25753 0.0
H337 H 0.8095 0.55086 0.27822 0.0
C338 C 0.8507 0.56606 0.25132 0.0
O339 O 0.84103 0.50799 0.21769 0.0
O340 O 0.81361 0.49626 0.2402 0.0
N341 N 0.77103 0.55876 0.22795 0.0
C342 C 0.76663 0.56344 0.21081 0.0
C343 C 0.74246 0.55863 0.20602 0.0
C344 C 0.72306 0.54908 0.2189 0.0
C345 C 0.72807 0.54461 0.2365 0.0
C346 C 0.75262 0.55012 0.24056 0.0
H347 H 0.78128 0.57029 0.20077 0.0
O348 O 0.79078 0.50445 0.21018 0.0
O349 O 0.79509 0.53086 0.23201 0.0
O350 O 0.83464 0.55342 0.20568 0.0
O351 O 0.82094 0.57909 0.21596 0.0
C352 C 0.70954 0.53452 0.25009 0.0
C353 C 0.71579 0.52995 0.26741 0.0
H354 H 0.73464 0.52304 0.29893 0.0
H355 H 0.77884 0.533 0.30334 0.0
H356 H 0.73873 0.56202 0.19237 0.0
H357 H 0.70436 0.54506 0.21508 0.0
H358 H 0.69036 0.52992 0.24731 0.0
H359 H 0.70133 0.52194 0.2777 0.0
Mn360 Mn 0.48891 0.30074 0.19756 0.0
Mn361 Mn 0.44663 0.24117 0.20973 0.0
C362 C 0.49667 0.26819 0.1918 0.0
C363 C 0.52352 0.33992 0.20414 0.0
C364 C 0.43922 0.26818 0.17823 0.0
O365 O 0.46714 0.30545 0.21598 0.0
O366 O 0.44151 0.26513 0.22481 0.0
C367 C 0.46436 0.24069 0.2467 0.0
N368 N 0.45907 0.23102 0.2297 0.0
C369 C 0.47066 0.20002 0.23719 0.0
C370 C 0.47611 0.20955 0.2548 0.0
C371 C 0.47299 0.23 0.25956 0.0
C372 C 0.46198 0.21133 0.22499 0.0
H373 H 0.46207 0.25646 0.25039 0.0
C374 C 0.44965 0.2889 0.22595 0.0
O375 O 0.50757 0.33727 0.19165 0.0
O376 O 0.51914 0.31987 0.21298 0.0
N377 N 0.45016 0.21648 0.19625 0.0
C378 C 0.44585 0.21075 0.1784 0.0
C379 C 0.44909 0.19133 0.17128 0.0
C380 C 0.45668 0.178 0.18257 0.0
C381 C 0.46098 0.18422 0.2009 0.0
C382 C 0.45726 0.20362 0.20726 0.0
H383 H 0.44018 0.22105 0.16965 0.0
O384 O 0.50794 0.28877 0.18236 0.0
O385 O 0.48106 0.26732 0.20395 0.0
O386 O 0.46042 0.28844 0.17927 0.0
O387 O 0.43221 0.24957 0.18895 0.0
C388 C 0.46926 0.17226 0.21303 0.0
C389 C 0.47406 0.18012 0.23117 0.0
H390 H 0.48293 0.20148 0.26472 0.0
H391 H 0.47727 0.23755 0.27309 0.0
H392 H 0.44586 0.18673 0.1571 0.0
H393 H 0.45938 0.16319 0.17699 0.0
H394 H 0.47237 0.15723 0.20848 0.0
H395 H 0.48075 0.17101 0.2403 0.0
Mn396 Mn 0.70581 0.19186 0.23332 0.0
Mn397 Mn 0.75695 0.20913 0.25957 0.0
C398 C 0.73818 0.2331 0.23368 0.0
C399 C 0.66534 0.18483 0.22851 0.0
C400 C 0.74874 0.18198 0.22413 0.0
O401 O 0.69345 0.16274 0.25091 0.0
O402 O 0.72848 0.1762 0.26783 0.0
C403 C 0.73675 0.2174 0.29352 0.0
N404 N 0.75467 0.22628 0.28038 0.0
C405 C 0.7774 0.26687 0.29476 0.0
C406 C 0.75928 0.25811 0.30852 0.0
C407 C 0.73885 0.23328 0.30788 0.0
C408 C 0.77442 0.25013 0.28087 0.0
H409 H 0.72094 0.19838 0.29304 0.0
C410 C 0.70555 0.16012 0.26388 0.0
O411 O 0.67458 0.17388 0.21868 0.0
O412 O 0.67934 0.19924 0.24151 0.0
N413 N 0.78576 0.24077 0.25324 0.0
C414 C 0.80084 0.24671 0.23843 0.0
C415 C 0.82174 0.27112 0.23671 0.0
C416 C 0.827 0.28909 0.25027 0.0
C417 C 0.81141 0.28244 0.26549 0.0
C418 C 0.79097 0.25776 0.26654 0.0
H419 H 0.79683 0.23299 0.22793 0.0
O420 O 0.72289 0.22446 0.22007 0.0
O421 O 0.734 0.21739 0.24676 0.0
O422 O 0.7277 0.18039 0.22053 0.0
O423 O 0.76131 0.19226 0.23841 0.0
C424 C 0.81501 0.29948 0.27948 0.0
C425 C 0.79801 0.29171 0.29409 0.0
H426 H 0.76073 0.27035 0.31955 0.0
H427 H 0.72472 0.22642 0.3184 0.0
H428 H 0.83367 0.27611 0.22491 0.0
H429 H 0.84296 0.30799 0.24879 0.0
H430 H 0.83059 0.31872 0.279 0.0
H431 H 0.80079 0.30509 0.30464 0.0
Mn432 Mn 0.52454 0.80634 0.74507 0.0
Mn433 Mn 0.54814 0.78227 0.715 0.0
C434 C 0.51599 0.76531 0.74814 0.0
C435 C 0.49321 0.81535 0.75288 0.0
C436 C 0.57935 0.81917 0.74445 0.0
O437 O 0.53518 0.83083 0.72411 0.0
O438 O 0.54646 0.81087 0.70387 0.0
C439 C 0.50689 0.76188 0.68817 0.0
N440 N 0.52186 0.75822 0.69985 0.0
C441 C 0.50183 0.71419 0.69218 0.0
C442 C 0.48632 0.71752 0.67998 0.0
C443 C 0.48883 0.74146 0.67799 0.0
C444 C 0.51959 0.73527 0.70187 0.0
H445 H 0.50869 0.78023 0.68665 0.0
C446 C 0.54214 0.82856 0.70836 0.0
O447 O 0.51562 0.82795 0.75985 0.0
O448 O 0.48907 0.79754 0.74157 0.0
N449 N 0.55028 0.7542 0.72407 0.0
C450 C 0.56553 0.75381 0.73725 0.0
C451 C 0.5647 0.73106 0.74137 0.0
C452 C 0.54832 0.709 0.73185 0.0
C453 C 0.53295 0.70991 0.71826 0.0
C454 C 0.53471 0.73315 0.71466 0.0
H455 H 0.57813 0.77069 0.74463 0.0
O456 O 0.51359 0.77714 0.76182 0.0
O457 O 0.52294 0.77775 0.73309 0.0
O458 O 0.56133 0.82029 0.75213 0.0
O459 O 0.57653 0.8063 0.73021 0.0
C460 C 0.51559 0.68855 0.70838 0.0
C461 C 0.50001 0.69068 0.69538 0.0
H462 H 0.47225 0.70178 0.67219 0.0
H463 H 0.47683 0.74415 0.66868 0.0
H464 H 0.57658 0.73051 0.7519 0.0
H465 H 0.54756 0.69144 0.73518 0.0
H466 H 0.51377 0.67031 0.7109 0.0
H467 H 0.48644 0.67403 0.6881 0.0
Mn468 Mn 0.21153 0.7295 0.76617 0.0
Mn469 Mn 0.23098 0.78817 0.75076 0.0
C470 C 0.25086 0.7624 0.77387 0.0
C471 C 0.20691 0.68968 0.7636 0.0
C472 C 0.1923 0.76324 0.78047 0.0
O473 O 0.18817 0.72353 0.74503 0.0
O474 O 0.20491 0.76315 0.73421 0.0
C475 C 0.25544 0.78708 0.71662 0.0
N476 N 0.25689 0.79754 0.73309 0.0
C477 C 0.30077 0.82809 0.72864 0.0
C478 C 0.29969 0.81773 0.71159 0.0
C479 C 0.27693 0.79713 0.70557 0.0
C480 C 0.27867 0.81746 0.73898 0.0
H481 H 0.23806 0.77113 0.71196 0.0
C482 C 0.18962 0.73929 0.73316 0.0
O483 O 0.19204 0.69375 0.77368 0.0
O484 O 0.22411 0.70866 0.75451 0.0
N485 N 0.2568 0.81369 0.76552 0.0
C486 C 0.2552 0.82019 0.78283 0.0
C487 C 0.27666 0.83979 0.79116 0.0
C488 C 0.29951 0.8525 0.78164 0.0
C489 C 0.30069 0.84551 0.76384 0.0
C490 C 0.27863 0.82598 0.75617 0.0
H491 H 0.23775 0.81037 0.79027 0.0
O492 O 0.23988 0.74238 0.78391 0.0
O493 O 0.23833 0.76252 0.75984 0.0
O494 O 0.1937 0.74331 0.7812 0.0
O495 O 0.20476 0.78093 0.76919 0.0
C496 C 0.32304 0.85676 0.75357 0.0
C497 C 0.32307 0.84808 0.73597 0.0
H498 H 0.31628 0.82526 0.7031 0.0
H499 H 0.27598 0.78894 0.69247 0.0
H500 H 0.27563 0.84501 0.80493 0.0
H501 H 0.31609 0.86744 0.78819 0.0
H502 H 0.34041 0.87184 0.75917 0.0
H503 H 0.34046 0.85662 0.72831 0.0
Mn504 Mn 0.29696 0.48304 0.77488 0.0
Mn505 Mn 0.23483 0.44774 0.76568 0.0
C506 C 0.27031 0.49866 0.78026 0.0
C507 C 0.33781 0.51229 0.76604 0.0
C508 C 0.25937 0.43934 0.79826 0.0
O509 O 0.2954 0.45605 0.75818 0.0
O510 O 0.25375 0.43475 0.75185 0.0
C511 C 0.23632 0.46174 0.72738 0.0
N512 N 0.22753 0.46044 0.74443 0.0
C513 C 0.20332 0.47952 0.73519 0.0
C514 C 0.21198 0.4809 0.71751 0.0
C515 C 0.22857 0.47199 0.71359 0.0
C516 C 0.21157 0.46896 0.74834 0.0
H517 H 0.24922 0.45509 0.72433 0.0
C518 C 0.27622 0.43862 0.75001 0.0
O519 O 0.33365 0.49716 0.77949 0.0
O520 O 0.31828 0.50975 0.75743 0.0
N521 N 0.21454 0.45863 0.77803 0.0
C522 C 0.20876 0.45687 0.79589 0.0
C523 C 0.19266 0.46536 0.80209 0.0
C524 C 0.18263 0.4755 0.78989 0.0
C525 C 0.18866 0.47689 0.77155 0.0
C526 C 0.20455 0.46784 0.76611 0.0
H527 H 0.21649 0.4492 0.80534 0.0
O528 O 0.29167 0.50803 0.7887 0.0
O529 O 0.26528 0.48049 0.76905 0.0
O530 O 0.28163 0.45745 0.79527 0.0
O531 O 0.24065 0.43392 0.78795 0.0
C532 C 0.17986 0.48729 0.7585 0.0
C533 C 0.18722 0.48864 0.74034 0.0
H534 H 0.20618 0.48894 0.70686 0.0
H535 H 0.23544 0.47312 0.7 0.0
H536 H 0.18811 0.46424 0.81627 0.0
H537 H 0.17045 0.48229 0.79476 0.0
H538 H 0.16769 0.4946 0.76232 0.0
H539 H 0.1806 0.49698 0.73047 0.0
Mn540 Mn 0.4365 0.82557 0.51467 0.0
Mn541 Mn 0.42617 0.87425 0.52 0.0
C542 C 0.4056 0.82734 0.49815 0.0
C543 C 0.42808 0.78576 0.52363 0.0
C544 C 0.47109 0.87807 0.49993 0.0
O545 O 0.45405 0.84134 0.53813 0.0
O546 O 0.44382 0.87171 0.54182 0.0
C547 C 0.38958 0.85464 0.55008 0.0
N548 N 0.39542 0.86341 0.53289 0.0
C549 C 0.35432 0.85849 0.52849 0.0
C550 C 0.34792 0.84958 0.54619 0.0
C551 C 0.36563 0.84764 0.55703 0.0
C552 C 0.37859 0.86552 0.52239 0.0
H553 H 0.40306 0.8529 0.5584 0.0
C554 C 0.45448 0.85936 0.54706 0.0
O555 O 0.44873 0.80095 0.51508 0.0
O556 O 0.41265 0.79386 0.5271 0.0
N557 N 0.40903 0.8783 0.49989 0.0
C558 C 0.41746 0.88526 0.48271 0.0
C559 C 0.40163 0.88708 0.4699 0.0
C560 C 0.37731 0.8817 0.47489 0.0
C561 C 0.36907 0.87458 0.49266 0.0
C562 C 0.38579 0.87338 0.50489 0.0
H563 H 0.43602 0.88914 0.47876 0.0
O564 O 0.4151 0.81382 0.49253 0.0
O565 O 0.4147 0.83943 0.51314 0.0
O566 O 0.46525 0.85506 0.50129 0.0
O567 O 0.45789 0.88704 0.50637 0.0
C568 C 0.34469 0.86801 0.4986 0.0
C569 C 0.33733 0.86 0.5165 0.0
H570 H 0.32937 0.84388 0.55153 0.0
H571 H 0.36078 0.84062 0.57066 0.0
H572 H 0.40808 0.89245 0.45619 0.0
H573 H 0.36505 0.88283 0.46492 0.0
H574 H 0.33132 0.86868 0.48943 0.0
H575 H 0.3184 0.85461 0.52082 0.0
Mn576 Mn 0.15228 0.61448 0.52639 0.0
Mn577 Mn 0.14329 0.56997 0.5569 0.0
C578 C 0.14662 0.57593 0.51712 0.0
C579 C 0.17907 0.64962 0.50929 0.0
C580 C 0.10265 0.58139 0.54634 0.0
O581 O 0.16355 0.63458 0.5497 0.0
O582 O 0.15701 0.60333 0.56874 0.0
C583 C 0.19728 0.58924 0.5647 0.0
N584 N 0.17436 0.57007 0.55937 0.0
C585 C 0.19058 0.54175 0.55629 0.0
C586 C 0.21434 0.56115 0.56183 0.0
C587 C 0.21772 0.58502 0.56597 0.0
C588 C 0.17101 0.54716 0.55507 0.0
H589 H 0.1999 0.60758 0.56794 0.0
C590 C 0.16354 0.62632 0.56546 0.0
O591 O 0.15629 0.64451 0.51306 0.0
O592 O 0.18624 0.63454 0.51566 0.0
N593 N 0.13003 0.53659 0.54756 0.0
C594 C 0.10603 0.52007 0.54219 0.0
C595 C 0.09929 0.49515 0.53796 0.0
C596 C 0.11723 0.48742 0.53946 0.0
C597 C 0.14188 0.50479 0.5449 0.0
C598 C 0.14741 0.5293 0.54911 0.0
H599 H 0.09211 0.52585 0.54125 0.0
O600 O 0.14229 0.58968 0.50607 0.0
O601 O 0.15417 0.58523 0.53311 0.0
O602 O 0.11599 0.59879 0.53512 0.0
O603 O 0.11039 0.56843 0.55483 0.0
C604 C 0.16113 0.49873 0.54644 0.0
C605 C 0.18555 0.51727 0.5519 0.0
H606 H 0.23013 0.55794 0.5629 0.0
H607 H 0.23602 0.60011 0.5702 0.0
H608 H 0.08025 0.48186 0.53372 0.0
H609 H 0.11181 0.46806 0.53646 0.0
H610 H 0.15739 0.47989 0.54336 0.0
H611 H 0.20027 0.51247 0.55279 0.0
Mn612 Mn 0.30353 0.47716 0.54738 0.0
Mn613 Mn 0.35074 0.509 0.57727 0.0
C614 C 0.32822 0.52042 0.54559 0.0
C615 C 0.2619 0.45966 0.53812 0.0
C616 C 0.35544 0.48127 0.54535 0.0
O617 O 0.29469 0.45129 0.56719 0.0
O618 O 0.32743 0.47416 0.58587 0.0
C619 C 0.31921 0.51164 0.60646 0.0
N620 N 0.33912 0.52348 0.59496 0.0
C621 C 0.34958 0.56421 0.60668 0.0
C622 C 0.32929 0.55244 0.61873 0.0
C623 C 0.31401 0.52605 0.61859 0.0
C624 C 0.35385 0.54887 0.59492 0.0
H625 H 0.30736 0.49137 0.60635 0.0
C626 C 0.30727 0.45386 0.58145 0.0
O627 O 0.27652 0.45208 0.5314 0.0
O628 O 0.27114 0.47653 0.55079 0.0
N629 N 0.3749 0.54302 0.57097 0.0
C630 C 0.39367 0.55144 0.55845 0.0
C631 C 0.41063 0.57744 0.55681 0.0
C632 C 0.40833 0.59447 0.56822 0.0
C633 C 0.38922 0.58532 0.58128 0.0
C634 C 0.37301 0.5592 0.58237 0.0
H635 H 0.39558 0.53843 0.54968 0.0
O636 O 0.3158 0.50735 0.53167 0.0
O637 O 0.32558 0.50791 0.56037 0.0
O638 O 0.33303 0.47284 0.53958 0.0
O639 O 0.36428 0.49527 0.55927 0.0
C640 C 0.38545 0.60111 0.59311 0.0
C641 C 0.36559 0.59057 0.60576 0.0
H642 H 0.32518 0.56349 0.62808 0.0
H643 H 0.29825 0.51683 0.62779 0.0
H644 H 0.42539 0.58435 0.54675 0.0
H645 H 0.42131 0.61452 0.56682 0.0
H646 H 0.39758 0.6214 0.59249 0.0
H647 H 0.36274 0.60291 0.61469 0.0
C648 C 0.40205 0.24452 0.1583 0.0
C649 C 0.4201 0.26747 0.16596 0.0
C650 C 0.37992 0.24198 0.15108 0.0
C651 C 0.33738 0.25991 0.16565 0.0
H652 H 0.29652 0.21634 0.12679 0.0
C653 C 0.24621 0.16826 0.17243 0.0
C654 C 0.22646 0.16191 0.16029 0.0
C655 C 0.26808 0.19178 0.17141 0.0
C656 C 0.30768 0.22918 0.13746 0.0
H657 H 0.43038 0.30637 0.17076 0.0
H658 H 0.39099 0.30153 0.15882 0.0
H659 H 0.34246 0.23944 0.12397 0.0
H660 H 0.21321 0.17517 0.13816 0.0
H661 H 0.25226 0.21611 0.13579 0.0
H662 H 0.30274 0.24707 0.18007 0.0
C663 C 0.39429 0.28578 0.15801 0.0
C664 C 0.33391 0.24231 0.13585 0.0
C665 C 0.41677 0.2885 0.1648 0.0
C666 C 0.22817 0.17992 0.14783 0.0
C667 C 0.25041 0.20323 0.14643 0.0
C668 C 0.31119 0.24639 0.1674 0.0
C669 C 0.37525 0.26218 0.15185 0.0
C670 C 0.34895 0.25659 0.15037 0.0
C671 C 0.27078 0.20896 0.15787 0.0
C672 C 0.29629 0.22985 0.15372 0.0
H673 H 0.40423 0.22807 0.15905 0.0
H674 H 0.36541 0.2235 0.14659 0.0
H675 H 0.34859 0.27064 0.17711 0.0
H676 H 0.24529 0.15454 0.18204 0.0
H677 H 0.28372 0.19566 0.18019 0.0
C678 C 0.82235 0.08491 0.11273 0.0
C679 C 0.81107 0.05894 0.11629 0.0
C680 C 0.81774 0.10043 0.12396 0.0
C681 C 0.79779 0.10387 0.16992 0.0
H682 H 0.78121 0.15221 0.15004 0.0
C683 C 0.78109 0.17056 0.21496 0.0
C684 C 0.75898 0.1712 0.21109 0.0
C685 C 0.7901 0.15945 0.20289 0.0
C686 C 0.78586 0.13881 0.15575 0.0
H687 H 0.78576 0.02888 0.13431 0.0
H688 H 0.77769 0.05597 0.15376 0.0
H689 H 0.79119 0.12698 0.12978 0.0
H690 H 0.72945 0.16134 0.19124 0.0
H691 H 0.74512 0.14186 0.17034 0.0
H692 H 0.79178 0.11513 0.19584 0.0
C693 C 0.79033 0.06432 0.14241 0.0
C694 C 0.79175 0.12454 0.14419 0.0
C695 C 0.79482 0.0488 0.13117 0.0
C696 C 0.74647 0.16109 0.1947 0.0
C697 C 0.75555 0.1501 0.18263 0.0
C698 C 0.79203 0.1182 0.18147 0.0
C699 C 0.8019 0.0903 0.139 0.0
C700 C 0.79735 0.10665 0.15118 0.0
C701 C 0.77727 0.14893 0.1867 0.0
C702 C 0.78563 0.13552 0.17448 0.0
H703 H 0.835 0.09337 0.1014 0.0
H704 H 0.82698 0.12044 0.12109 0.0
H705 H 0.80237 0.09043 0.17565 0.0
H706 H 0.79128 0.17831 0.22741 0.0
H707 H 0.80704 0.15898 0.20626 0.0
C708 C 0.83409 0.60461 0.18262 0.0
C709 C 0.84409 0.58983 0.18882 0.0
C710 C 0.84588 0.62189 0.16878 0.0
C711 C 0.87207 0.65198 0.13477 0.0
H712 H 0.93245 0.7063 0.15637 0.0
C713 C 0.93947 0.76791 0.13657 0.0
C714 C 0.91978 0.77306 0.13449 0.0
C715 C 0.93478 0.74323 0.1352 0.0
C716 C 0.91621 0.69136 0.14956 0.0
H717 H 0.87397 0.58107 0.18509 0.0
H718 H 0.89562 0.61276 0.16143 0.0
H719 H 0.91487 0.66401 0.16804 0.0
H720 H 0.88023 0.7571 0.12827 0.0
H721 H 0.87142 0.71388 0.12721 0.0
H722 H 0.87283 0.67936 0.11662 0.0
C723 C 0.8781 0.61012 0.16696 0.0
C724 C 0.90613 0.667 0.15636 0.0
C725 C 0.86581 0.59218 0.18051 0.0
C726 C 0.89566 0.75351 0.12998 0.0
C727 C 0.89076 0.7287 0.12917 0.0
C728 C 0.88248 0.67626 0.12765 0.0
C729 C 0.8683 0.62526 0.16117 0.0
C730 C 0.88317 0.64753 0.14976 0.0
C731 C 0.91009 0.7231 0.13242 0.0
C732 C 0.9037 0.69659 0.1358 0.0
H733 H 0.8175 0.60338 0.18875 0.0
H734 H 0.83831 0.63377 0.16479 0.0
H735 H 0.85436 0.63709 0.12944 0.0
H736 H 0.95838 0.78293 0.1397 0.0
H737 H 0.95033 0.73986 0.13719 0.0
C738 C 0.27532 0.42537 0.82436 0.0
C739 C 0.25497 0.42334 0.81426 0.0
C740 C 0.27106 0.40901 0.83873 0.0
C741 C 0.25584 0.35926 0.85775 0.0
H742 H 0.1971 0.33606 0.88844 0.0
C743 C 0.20188 0.25976 0.8873 0.0
C744 C 0.18897 0.25574 0.90371 0.0
C745 C 0.21544 0.28394 0.88001 0.0
C746 C 0.21391 0.34262 0.88029 0.0
H747 H 0.21416 0.40317 0.81184 0.0
H748 H 0.20683 0.37465 0.83669 0.0
H749 H 0.21009 0.37278 0.8694 0.0
H750 H 0.18182 0.27427 0.92601 0.0
H751 H 0.20575 0.31648 0.91336 0.0
H752 H 0.25934 0.32873 0.86839 0.0
C753 C 0.22605 0.38898 0.83362 0.0
C754 C 0.22115 0.36349 0.86922 0.0
C755 C 0.23029 0.4052 0.81924 0.0
C756 C 0.19123 0.27664 0.91321 0.0
C757 C 0.20491 0.30084 0.90596 0.0
C758 C 0.24862 0.33837 0.86887 0.0
C759 C 0.24638 0.39048 0.84336 0.0
C760 C 0.24162 0.37145 0.85738 0.0
C761 C 0.21649 0.30464 0.88902 0.0
C762 C 0.22706 0.32932 0.87979 0.0
H763 H 0.29459 0.43919 0.82091 0.0
H764 H 0.28706 0.41067 0.84609 0.0
H765 H 0.27168 0.36493 0.84872 0.0
H766 H 0.20062 0.24411 0.87966 0.0
H767 H 0.2239 0.28615 0.86684 0.0
C768 C 0.77614 0.92202 0.83135 0.0
C769 C 0.77356 0.90465 0.84473 0.0
C770 C 0.7589 0.91457 0.81717 0.0
C771 C 0.70837 0.89777 0.79918 0.0
H772 H 0.67892 0.83186 0.7767 0.0
C773 C 0.60896 0.8472 0.76843 0.0
C774 C 0.60468 0.83262 0.7528 0.0
C775 C 0.63241 0.8585 0.77694 0.0
C776 C 0.68718 0.85049 0.78263 0.0
H777 H 0.7517 0.86549 0.85307 0.0
H778 H 0.72165 0.85263 0.82847 0.0
H779 H 0.71599 0.8465 0.7958 0.0
H780 H 0.62208 0.81926 0.73355 0.0
H781 H 0.66296 0.83911 0.74842 0.0
H782 H 0.67932 0.9016 0.78622 0.0
C783 C 0.73703 0.87197 0.82889 0.0
C784 C 0.70825 0.85875 0.7937 0.0
C785 C 0.75416 0.87941 0.84308 0.0
C786 C 0.62463 0.83024 0.74561 0.0
C787 C 0.64806 0.84152 0.75415 0.0
C788 C 0.68726 0.88948 0.78813 0.0
C789 C 0.73886 0.88959 0.81602 0.0
C790 C 0.71872 0.88223 0.8024 0.0
C791 C 0.65208 0.85548 0.77004 0.0
C792 C 0.67612 0.86553 0.78006 0.0
H793 H 0.79092 0.9416 0.83215 0.0
H794 H 0.76093 0.92848 0.80732 0.0
H795 H 0.71589 0.91587 0.80581 0.0
H796 H 0.59407 0.84948 0.77433 0.0
H797 H 0.63483 0.86889 0.7893 0.0
C798 C 0.1761 0.78903 0.79555 0.0
C799 C 0.17658 0.76641 0.79419 0.0
C800 C 0.16319 0.79266 0.8097 0.0
C801 C 0.14447 0.77292 0.85607 0.0
H802 H 0.10576 0.8067 0.85071 0.0
C803 C 0.08789 0.81375 0.90064 0.0
C804 C 0.10734 0.82963 0.91251 0.0
C805 C 0.09219 0.8003 0.88731 0.0
C806 C 0.11618 0.79688 0.8524 0.0
H807 H 0.16272 0.72937 0.80615 0.0
H808 H 0.14043 0.73589 0.83073 0.0
H809 H 0.12056 0.79481 0.82393 0.0
H810 H 0.14577 0.84188 0.92073 0.0
H811 H 0.15315 0.81826 0.89752 0.0
H812 H 0.14073 0.77568 0.88455 0.0
C813 C 0.15026 0.75086 0.82098 0.0
C814 C 0.12486 0.79034 0.8371 0.0
C815 C 0.16301 0.74716 0.80684 0.0
C816 C 0.13043 0.82999 0.91175 0.0
C817 C 0.13465 0.81638 0.89849 0.0
C818 C 0.13598 0.77966 0.87138 0.0
C819 C 0.15063 0.7738 0.82275 0.0
C820 C 0.13943 0.77868 0.8388 0.0
C821 C 0.1159 0.80223 0.88571 0.0
C822 C 0.12211 0.79207 0.86968 0.0
H823 H 0.18631 0.80422 0.78605 0.0
H824 H 0.16391 0.81063 0.81083 0.0
H825 H 0.15584 0.76411 0.85777 0.0
H826 H 0.06978 0.81282 0.90091 0.0
H827 H 0.07732 0.7892 0.87777 0.0
C828 C 0.92762 0.5075 0.48301 0.0
C829 C 0.91107 0.51587 0.47773 0.0
C830 C 0.94111 0.51598 0.49898 0.0
C831 C 0.9577 0.53003 0.53846 0.0
H832 H 0.01513 0.59595 0.52855 0.0
C833 C 0.07199 0.59618 0.55048 0.0
C834 C 0.07684 0.57615 0.54952 0.0
C835 C 0.04725 0.59143 0.55088 0.0
C836 C -0.00093 0.57794 0.5322 0.0
H837 H 0.89579 0.53985 0.48508 0.0
H838 H 0.92101 0.55604 0.51269 0.0
H839 H 0.97649 0.58169 0.51188 0.0
H840 H 0.06006 0.53558 0.54978 0.0
H841 H 0.01698 0.5271 0.54903 0.0
H842 H 0.98046 0.52569 0.55826 0.0
C843 C 0.92251 0.54209 0.50465 0.0
C844 C 0.97684 0.56981 0.52253 0.0
C845 C 0.90833 0.53298 0.48884 0.0
C846 C 0.05673 0.55132 0.55033 0.0
C847 C 0.03195 0.54653 0.55016 0.0
C848 C 0.97973 0.53838 0.54848 0.0
C849 C 0.93889 0.53351 0.50979 0.0
C850 C 0.95675 0.54518 0.52472 0.0
C851 C 0.02689 0.56657 0.54964 0.0
C852 C 0.00136 0.56162 0.54441 0.0
H853 H 0.93039 0.49453 0.47476 0.0
H854 H 0.95419 0.50966 0.50251 0.0
H855 H 0.94223 0.51095 0.54036 0.0
H856 H 0.08736 0.61555 0.55036 0.0
H857 H 0.04416 0.60733 0.55112 0.0
C858 C 0.36347 0.46043 0.51928 0.0
C859 C 0.37225 0.47512 0.53501 0.0
C860 C 0.37954 0.45553 0.50901 0.0
C861 C 0.43793 0.45313 0.51062 0.0
H862 H 0.43629 0.45985 0.45878 0.0
C863 C 0.48148 0.4138 0.46039 0.0
C864 C 0.49388 0.42857 0.44521 0.0
C865 C 0.46872 0.42117 0.47226 0.0
C866 C 0.43717 0.45816 0.47324 0.0
H867 H 0.40477 0.49579 0.55243 0.0
H868 H 0.43285 0.48717 0.53437 0.0
H869 H 0.40978 0.46936 0.47783 0.0
H870 H 0.50335 0.46319 0.431 0.0
H871 H 0.48109 0.47597 0.45176 0.0
H872 H 0.46539 0.44192 0.50597 0.0
C873 C 0.41345 0.47941 0.53012 0.0
C874 C 0.42179 0.46331 0.48412 0.0
C875 C 0.39738 0.4844 0.5404 0.0
C876 C 0.49379 0.45121 0.44245 0.0
C877 C 0.481 0.45854 0.4543 0.0
C878 C 0.45328 0.44786 0.49971 0.0
C879 C 0.40473 0.46517 0.51423 0.0
C880 C 0.42184 0.46062 0.50288 0.0
C881 C 0.46808 0.44342 0.46918 0.0
C882 C 0.45289 0.45017 0.48091 0.0
H883 H 0.34421 0.45286 0.51476 0.0
H884 H 0.37224 0.44415 0.49696 0.0
H885 H 0.43823 0.45081 0.52506 0.0
H886 H 0.48122 0.39629 0.46297 0.0
H887 H 0.4587 0.40904 0.48354 0.0
C888 C 0.57976 0.07445 0.49579 0.0
C889 C 0.60279 0.09293 0.48849 0.0
C890 C 0.5767 0.05132 0.50125 0.0
C891 C 0.59118 0.00868 0.48258 0.0
H892 H 0.5546 0.96645 0.52323 0.0
C893 C 0.49977 0.91566 0.48188 0.0
C894 C 0.49647 0.8965 0.49375 0.0
C895 C 0.52312 0.93773 0.48066 0.0
C896 C 0.56548 0.97801 0.51195 0.0
H897 H 0.64126 0.10269 0.48241 0.0
H898 H 0.63544 0.06166 0.49123 0.0
H899 H 0.57734 0.01235 0.52659 0.0
H900 H 0.51499 0.88429 0.51269 0.0
H901 H 0.55569 0.92358 0.51116 0.0
H902 H 0.57656 0.97444 0.46733 0.0
C903 C 0.62009 0.06537 0.49316 0.0
C904 C 0.57838 0.0042 0.51389 0.0
C905 C 0.62337 0.0888 0.48819 0.0
C906 C 0.51732 0.89873 0.50321 0.0
C907 C 0.54051 0.92116 0.50242 0.0
C908 C 0.57777 0.98251 0.48053 0.0
C909 C 0.59643 0.04617 0.49902 0.0
C910 C 0.59032 0.01968 0.49899 0.0
C911 C 0.54319 0.94119 0.49172 0.0
C912 C 0.56389 0.96709 0.495 0.0
H913 H 0.56364 0.0772 0.49608 0.0
H914 H 0.55819 0.03664 0.50555 0.0
H915 H 0.60004 0.02032 0.47085 0.0
H916 H 0.48385 0.91439 0.47464 0.0
H917 H 0.5247 0.9531 0.47249 0.0
C918 C 0.06465 0.05775 0.14064 0.0
C919 C 0.08456 0.08277 0.13936 0.0
C920 C 0.03999 0.05175 0.1368 0.0
C921 C 0.00253 0.07114 0.11103 0.0
H922 H 0.94999 0.03225 0.14593 0.0
C923 C 0.89153 0.03702 0.12422 0.0
C924 C 0.88061 0.024 0.10819 0.0
C925 C 0.91696 0.04584 0.12778 0.0
C926 C 0.96451 0.04321 0.13612 0.0
H927 H 0.09444 0.1211 0.13277 0.0
H928 H 0.05115 0.11042 0.12563 0.0
H929 H 0.99373 0.04455 0.15268 0.0
H930 H 0.88677 0.0082 0.08395 0.0
H931 H 0.93167 0.02432 0.0899 0.0
H932 H 0.9731 0.06922 0.0943 0.0
C933 C 0.05474 0.09558 0.12977 0.0
C934 C 0.98943 0.05009 0.13992 0.0
C935 C 0.07941 0.10167 0.13393 0.0
C936 C 0.89519 0.0192 0.09601 0.0
C937 C 0.92072 0.02825 0.09946 0.0
C938 C 0.97749 0.06385 0.10708 0.0
C939 C 0.03484 0.0706 0.13132 0.0
C940 C 0.00863 0.06406 0.1274 0.0
C941 C 0.93175 0.04154 0.11542 0.0
C942 C 0.95831 0.04982 0.11961 0.0
H943 H 0.06807 0.0428 0.14481 0.0
H944 H 0.02495 0.03232 0.13796 0.0
H945 H 0.01705 0.08181 0.10114 0.0
H946 H 0.88037 0.04035 0.13398 0.0
H947 H 0.92506 0.05595 0.14021 0.0
C948 C 0.79087 0.90676 0.10768 0.0
C949 C 0.78331 0.92268 0.11565 0.0
C950 C 0.79098 0.88758 0.11772 0.0
C951 C 0.78943 0.84736 0.14295 0.0
H952 H 0.83882 0.88798 0.17917 0.0
C953 C 0.86289 0.82239 0.16864 0.0
C954 C 0.88706 0.84275 0.16504 0.0
C955 C 0.84202 0.82597 0.16871 0.0
C956 C 0.82463 0.87608 0.16944 0.0
H957 H 0.76717 0.92921 0.13966 0.0
H958 H 0.76808 0.89612 0.15733 0.0
H959 H 0.81217 0.90267 0.16605 0.0
H960 H 0.90912 0.88297 0.16056 0.0
H961 H 0.87309 0.88938 0.16069 0.0
H962 H 0.80271 0.82129 0.14593 0.0
C963 C 0.77371 0.89837 0.14331 0.0
C964 C 0.80923 0.8844 0.162 0.0
C965 C 0.77319 0.91728 0.13316 0.0
C966 C 0.89049 0.86695 0.16296 0.0
C967 C 0.86987 0.87062 0.16333 0.0
C968 C 0.80446 0.83873 0.15076 0.0
C969 C 0.78387 0.88428 0.13596 0.0
C970 C 0.79272 0.87096 0.14783 0.0
C971 C 0.84532 0.85012 0.16579 0.0
C972 C 0.8236 0.85405 0.16296 0.0
H973 H 0.79861 0.91039 0.09418 0.0
H974 H 0.79908 0.87712 0.11174 0.0
H975 H 0.77665 0.83653 0.13218 0.0
H976 H 0.86004 0.80363 0.1706 0.0
H977 H 0.82333 0.80985 0.17062 0.0
C978 C 0.14984 0.05457 0.20343 0.0
C979 C 0.14939 0.05307 0.18456 0.0
C980 C 0.13936 0.0325 0.21382 0.0
C981 C 0.10974 0.96232 0.20985 0.0
H982 H 0.05567 0.96138 0.23749 0.0
C983 C 0.00033 0.90637 0.20415 0.0
C984 C 0.99647 0.88239 0.19994 0.0
C985 C 0.02225 0.92401 0.21291 0.0
C986 C 0.07079 0.96122 0.23004 0.0
H987 H 0.13713 0.02763 0.16176 0.0
H988 H 0.11979 0.98965 0.1795 0.0
H989 H 0.09381 0.00131 0.23162 0.0
H990 H 0.01105 0.85697 0.20344 0.0
H991 H 0.04949 0.88785 0.21891 0.0
H992 H 0.08555 0.9228 0.20617 0.0
C993 C 0.12888 0.00755 0.18653 0.0
C994 C 0.09287 0.98415 0.22687 0.0
C995 C 0.13889 0.0294 0.17627 0.0
C996 C 0.01371 0.87547 0.20632 0.0
C997 C 0.03576 0.89319 0.21514 0.0
C998 C 0.08751 0.93947 0.21274 0.0
C999 C 0.12823 0.0087 0.20542 0.0
C1000 C 0.11156 0.9851 0.21539 0.0
C1001 C 0.0409 0.9181 0.21769 0.0
C1002 C 0.06694 0.93904 0.22151 0.0
H1003 H 0.15737 0.07269 0.21006 0.0
H1004 H 0.1389 0.03397 0.22833 0.0
H1005 H 0.12423 0.96244 0.2014 0.0
H1006 H 0.98722 0.91216 0.19962 0.0
H1007 H 0.02542 0.94295 0.21442 0.0
C1008 C 0.1244 0.95116 0.91891 0.0
C1009 C 0.11726 0.92965 0.90839 0.0
C1010 C 0.13723 0.97502 0.91121 0.0
C1011 C 0.13814 0.00644 0.87107 0.0
H1012 H 0.1902 0.06415 0.89692 0.0
C1013 C 0.17885 0.12015 0.88247 0.0
C1014 C 0.15555 0.1178 0.88714 0.0
C1015 C 0.18038 0.09869 0.87826 0.0
C1016 C 0.17617 0.04836 0.88915 0.0
H1017 H 0.11648 0.91575 0.88147 0.0
H1018 H 0.13846 0.95798 0.86764 0.0
H1019 H 0.18336 0.02211 0.90316 0.0
H1020 H 0.11544 0.09172 0.8898 0.0
H1021 H 0.11801 0.05449 0.88227 0.0
H1022 H 0.1295 0.03242 0.85821 0.0
C1023 C 0.13504 0.95627 0.88202 0.0
C1024 C 0.17219 0.0243 0.89279 0.0
C1025 C 0.12247 0.93225 0.88986 0.0
C1026 C 0.13366 0.09402 0.88639 0.0
C1027 C 0.13511 0.07274 0.88186 0.0
C1028 C 0.142 0.03048 0.86753 0.0
C1029 C 0.14244 0.97784 0.89267 0.0
C1030 C 0.15218 0.00304 0.88456 0.0
C1031 C 0.15854 0.07473 0.87826 0.0
C1032 C 0.16005 0.05142 0.87732 0.0
H1033 H 0.11947 0.94949 0.93306 0.0
H1034 H 0.14196 0.99124 0.91964 0.0
H1035 H 0.12256 0.99034 0.86457 0.0
H1036 H 0.19601 0.13835 0.88295 0.0
H1037 H 0.19867 0.10068 0.87559 0.0
C1038 C 0.06916 0.14441 0.91051 0.0
C1039 C 0.08624 0.16361 0.8991 0.0
C1040 C 0.04332 0.13449 0.90848 0.0
C1041 C 0.99616 0.11834 0.8751 0.0
H1042 H 0.9525 0.10547 0.91637 0.0
C1043 C 0.89125 0.04214 0.87201 0.0
C1044 C 0.88386 0.02529 0.88658 0.0
C1045 C 0.91349 0.0656 0.87294 0.0
C1046 C 0.96438 0.10897 0.90467 0.0
H1047 H 0.08996 0.18639 0.87581 0.0
H1048 H 0.04415 0.16826 0.87179 0.0
H1049 H -0.00237 0.13505 0.91905 0.0
H1050 H 0.89299 0.02043 0.91394 0.0
H1051 H 0.93163 0.06074 0.91547 0.0
H1052 H 0.9634 0.09067 0.86112 0.0
C1053 C 0.05099 0.16175 0.88279 0.0
C1054 C 0.99017 0.12604 0.90619 0.0
C1055 C 0.07704 0.17204 0.88505 0.0
C1056 C 0.89822 0.03293 0.90244 0.0
C1057 C 0.92033 0.05625 0.90337 0.0
C1058 C 0.97036 0.10097 0.87363 0.0
C1059 C 0.03395 0.14294 0.89457 0.0
C1060 C 0.00641 0.13008 0.89164 0.0
C1061 C 0.92866 0.07261 0.88847 0.0
C1062 C 0.95438 0.09524 0.88866 0.0
H1063 H 0.07579 0.13672 0.92087 0.0
H1064 H 0.03059 0.1195 0.91742 0.0
H1065 H 0.00834 0.12103 0.86372 0.0
H1066 H 0.88048 0.0368 0.85962 0.0
H1067 H 0.91921 0.07788 0.8613 0.0
C1068 C 0.9906 0.85226 0.92316 0.0
C1069 C 0.00889 0.86754 0.93587 0.0
C1070 C 0.96989 0.85534 0.9198 0.0
C1071 C 0.9519 0.90448 0.92484 0.0
H1072 H 0.88815 0.85247 0.90523 0.0
C1073 C 0.86974 0.92111 0.90945 0.0
C1074 C 0.86208 0.91712 0.89138 0.0
C1075 C 0.88511 0.9123 0.9161 0.0
C1076 C 0.90592 0.86709 0.91068 0.0
H1077 H 0.01885 0.89642 0.95615 0.0
H1078 H 0.98199 0.9008 0.95115 0.0
H1079 H 0.9188 0.84121 0.91635 0.0
H1080 H 0.86473 0.90148 0.8659 0.0
H1081 H 0.89142 0.8853 0.87774 0.0
H1082 H 0.93866 0.93015 0.91952 0.0
C1083 C 0.98414 0.88727 0.94308 0.0
C1084 C 0.92353 0.86074 0.917 0.0
C1085 C 0.00515 0.8846 0.94612 0.0
C1086 C 0.87012 0.9043 0.87996 0.0
C1087 C 0.88519 0.89503 0.88673 0.0
C1088 C 0.93415 0.91066 0.91888 0.0
C1089 C 0.96677 0.87345 0.92935 0.0
C1090 C 0.94692 0.87944 0.92399 0.0
C1091 C 0.89306 0.8993 0.90479 0.0
C1092 C 0.91117 0.89211 0.91158 0.0
H1093 H 0.99311 0.83904 0.91498 0.0
H1094 H 0.95717 0.84448 0.90903 0.0
H1095 H 0.96984 0.91959 0.92962 0.0
H1096 H 0.8642 0.9315 0.91836 0.0
H1097 H 0.89104 0.91587 0.93005 0.0
C1098 C 0.78385 0.51208 0.44092 0.0
C1099 C 0.79586 0.50585 0.42743 0.0
C1100 C 0.76023 0.50956 0.43768 0.0
C1101 C 0.70553 0.46937 0.41018 0.0
H1102 H 0.67685 0.50744 0.43097 0.0
C1103 C 0.6002 0.43209 0.4046 0.0
C1104 C 0.58809 0.43283 0.42039 0.0
C1105 C 0.62632 0.44648 0.40311 0.0
C1106 C 0.68464 0.49664 0.42512 0.0
H1107 H 0.79415 0.49486 0.39948 0.0
H1108 H 0.75332 0.49105 0.3937 0.0
H1109 H 0.72252 0.52435 0.43237 0.0
H1110 H 0.59339 0.44822 0.44729 0.0
H1111 H 0.63945 0.47292 0.44504 0.0
H1112 H 0.668 0.44118 0.40363 0.0
C1113 C 0.76167 0.4971 0.40693 0.0
C1114 C 0.71073 0.50633 0.42589 0.0
C1115 C 0.78505 0.49932 0.41022 0.0
C1116 C 0.60245 0.4479 0.43484 0.0
C1117 C 0.62872 0.46215 0.43346 0.0
C1118 C 0.67963 0.4597 0.40949 0.0
C1119 C 0.74846 0.50099 0.42086 0.0
C1120 C 0.72137 0.49262 0.41857 0.0
C1121 C 0.64096 0.46119 0.41768 0.0
C1122 C 0.6688 0.47303 0.41711 0.0
H1123 H 0.79187 0.51724 0.4543 0.0
H1124 H 0.75048 0.51261 0.4487 0.0
H1125 H 0.713 0.458 0.40483 0.0
H1126 H 0.58948 0.41986 0.39354 0.0
H1127 H 0.6351 0.4455 0.39071 0.0
C1128 C 0.51202 0.30699 0.44635 0.0
C1129 C 0.51936 0.31894 0.42948 0.0
C1130 C 0.51799 0.28852 0.45117 0.0
C1131 C 0.56635 0.27228 0.44038 0.0
H1132 H 0.52533 0.21073 0.46734 0.0
C1133 C 0.59421 0.19744 0.44628 0.0
C1134 C 0.59418 0.18784 0.46339 0.0
C1135 C 0.58299 0.21198 0.44353 0.0
C1136 C 0.53701 0.22804 0.46001 0.0
H1137 H 0.53661 0.3194 0.40388 0.0
H1138 H 0.54646 0.28692 0.41209 0.0
H1139 H 0.50787 0.23774 0.45904 0.0
H1140 H 0.58316 0.18632 0.49125 0.0
H1141 H 0.56302 0.21205 0.4864 0.0
H1142 H 0.59534 0.26271 0.44113 0.0
C1143 C 0.5368 0.29228 0.42181 0.0
C1144 C 0.52705 0.24342 0.45522 0.0
C1145 C 0.53102 0.31078 0.41706 0.0
C1146 C 0.58303 0.19332 0.4779 0.0
C1147 C 0.57148 0.20784 0.4751 0.0
C1148 C 0.57621 0.25702 0.44511 0.0
C1149 C 0.53129 0.28169 0.43916 0.0
C1150 C 0.54151 0.26545 0.44502 0.0
C1151 C 0.57171 0.21754 0.45789 0.0
C1152 C 0.56154 0.23455 0.45468 0.0
H1153 H 0.503 0.31291 0.4562 0.0
H1154 H 0.51348 0.28068 0.46463 0.0
H1155 H 0.57827 0.28951 0.43302 0.0
H1156 H 0.60318 0.19386 0.43497 0.0
H1157 H 0.58325 0.21901 0.43011 0.0
C1158 C 0.83144 0.4165 0.45931 0.0
C1159 C 0.83274 0.42812 0.44283 0.0
C1160 C 0.82124 0.39043 0.4602 0.0
C1161 C 0.79682 0.33227 0.43159 0.0
H1162 H 0.75535 0.30074 0.47369 0.0
C1163 C 0.70664 0.23462 0.43417 0.0
C1164 C 0.70261 0.21955 0.44943 0.0
C1165 C 0.7283 0.25834 0.4328 0.0
C1166 C 0.76724 0.30924 0.462 0.0
H1167 H 0.82324 0.42203 0.41454 0.0
H1168 H 0.80421 0.37632 0.41608 0.0
H1169 H 0.78193 0.3462 0.47273 0.0
H1170 H 0.71871 0.21666 0.47467 0.0
H1171 H 0.75632 0.25852 0.47247 0.0
H1172 H 0.78019 0.29497 0.42043 0.0
C1173 C 0.81234 0.38722 0.42821 0.0
C1174 C 0.78262 0.33538 0.46144 0.0
C1175 C 0.8231 0.41338 0.42729 0.0
C1176 C 0.72133 0.22792 0.46277 0.0
C1177 C 0.7428 0.25183 0.46154 0.0
C1178 C 0.78099 0.30608 0.43204 0.0
C1179 C 0.81106 0.37535 0.44472 0.0
C1180 C 0.79723 0.34733 0.44608 0.0
C1181 C 0.74608 0.2675 0.44679 0.0
C1182 C 0.76575 0.29443 0.44714 0.0
H1183 H 0.83848 0.42765 0.47149 0.0
H1184 H 0.82103 0.38212 0.47309 0.0
H1185 H 0.80824 0.34072 0.41971 0.0
H1186 H 0.69256 0.22855 0.42364 0.0
H1187 H 0.7303 0.27016 0.42136 0.0
C1188 C 0.75241 0.27211 0.25141 0.0
C1189 C 0.75445 0.2604 0.23582 0.0
C1190 C 0.76622 0.29825 0.2531 0.0
C1191 C 0.7806 0.3521 0.24735 0.0
H1192 H 0.84717 0.39496 0.22711 0.0
C1193 C 0.83787 0.45873 0.22036 0.0
C1194 C 0.83143 0.47002 0.23426 0.0
C1195 C 0.83433 0.4345 0.22265 0.0
C1196 C 0.8286 0.38317 0.23284 0.0
H1197 H 0.7713 0.26641 0.20937 0.0
H1198 H 0.79514 0.31247 0.21202 0.0
H1199 H 0.82902 0.34905 0.22722 0.0
H1200 H 0.81908 0.46635 0.26202 0.0
H1201 H 0.81349 0.42447 0.26613 0.0
H1202 H 0.77974 0.3858 0.25268 0.0
C1203 C 0.78374 0.30144 0.2233 0.0
C1204 C 0.81819 0.35694 0.23286 0.0
C1205 C 0.77 0.27518 0.22169 0.0
C1206 C 0.82376 0.45785 0.25098 0.0
C1207 C 0.8205 0.43386 0.25332 0.0
C1208 C 0.791 0.37813 0.24744 0.0
C1209 C 0.78175 0.31327 0.23896 0.0
C1210 C 0.79394 0.34114 0.23997 0.0
C1211 C 0.8245 0.42142 0.2389 0.0
C1212 C 0.815 0.39398 0.24007 0.0
H1213 H 0.73981 0.26103 0.26221 0.0
H1214 H 0.76441 0.30671 0.26541 0.0
H1215 H 0.76164 0.34053 0.25252 0.0
H1216 H 0.84386 0.46778 0.20734 0.0
H1217 H 0.83754 0.42536 0.21129 0.0
C1218 C 0.73855 0.49355 0.23389 0.0
C1219 C 0.75359 0.5049 0.21871 0.0
C1220 C 0.71231 0.481 0.23252 0.0
C1221 C 0.66232 0.44947 0.19822 0.0
H1222 H 0.61868 0.4414 0.23859 0.0
C1223 C 0.55528 0.38346 0.19426 0.0
C1224 C 0.54666 0.36432 0.2073 0.0
C1225 C 0.57891 0.40515 0.19607 0.0
C1226 C 0.63069 0.4437 0.22718 0.0
H1227 H 0.75357 0.512 0.19022 0.0
H1228 H 0.70774 0.49129 0.18787 0.0
H1229 H 0.66377 0.47218 0.24046 0.0
H1230 H 0.55509 0.35355 0.23303 0.0
H1231 H 0.59625 0.39171 0.2363 0.0
H1232 H 0.62922 0.42103 0.18499 0.0
C1233 C 0.71596 0.49157 0.20081 0.0
C1234 C 0.65651 0.46114 0.22827 0.0
C1235 C 0.74218 0.50363 0.20214 0.0
C1236 C 0.56135 0.36795 0.22272 0.0
C1237 C 0.5848 0.38983 0.22466 0.0
C1238 C 0.63652 0.43245 0.19702 0.0
C1239 C 0.70063 0.47957 0.2159 0.0
C1240 C 0.67277 0.46373 0.21398 0.0
C1241 C 0.59408 0.40825 0.21109 0.0
C1242 C 0.62058 0.42896 0.21164 0.0
H1243 H 0.7471 0.49368 0.24668 0.0
H1244 H 0.70127 0.47156 0.24436 0.0
H1245 H 0.67415 0.45045 0.18706 0.0
H1246 H 0.54433 0.38117 0.18225 0.0
H1247 H 0.58569 0.41917 0.18546 0.0
C1248 C 0.51208 0.24093 0.17813 0.0
C1249 C 0.50793 0.25205 0.19327 0.0
C1250 C 0.52366 0.22632 0.1801 0.0
C1251 C 0.54152 0.19449 0.21505 0.0
H1252 H 0.59663 0.20835 0.18268 0.0
C1253 C 0.62978 0.19195 0.23625 0.0
C1254 C 0.64098 0.18292 0.22411 0.0
C1255 C 0.60855 0.19325 0.23122 0.0
C1256 C 0.58095 0.20382 0.19163 0.0
H1257 H 0.51397 0.25837 0.22196 0.0
H1258 H 0.53429 0.23339 0.22543 0.0
H1259 H 0.56837 0.22432 0.17555 0.0
H1260 H 0.63816 0.16716 0.19746 0.0
H1261 H 0.60118 0.16986 0.18857 0.0
H1262 H 0.55506 0.17529 0.23165 0.0
C1263 C 0.52776 0.23479 0.21217 0.0
C1264 C 0.56473 0.21294 0.18753 0.0
C1265 C 0.51622 0.2492 0.2102 0.0
C1266 C 0.6299 0.1742 0.20711 0.0
C1267 C 0.60883 0.17583 0.20198 0.0
C1268 C 0.55782 0.18555 0.2192 0.0
C1269 C 0.53157 0.22307 0.19719 0.0
C1270 C 0.54543 0.2092 0.19955 0.0
C1271 C 0.59826 0.18582 0.21388 0.0
C1272 C 0.57822 0.1909 0.20784 0.0
H1273 H 0.50618 0.24333 0.1649 0.0
H1274 H 0.52644 0.21762 0.16829 0.0
H1275 H 0.5265 0.19082 0.2244 0.0
H1276 H 0.63788 0.19875 0.24945 0.0
H1277 H 0.60095 0.20128 0.24061 0.0
C1278 C 0.29247 0.78136 0.75918 0.0
C1279 C 0.27837 0.77862 0.77472 0.0
C1280 C 0.31866 0.79498 0.75966 0.0
C1281 C 0.37083 0.81015 0.78937 0.0
H1282 H 0.4088 0.848 0.7475 0.0
C1283 C 0.47272 0.83168 0.77403 0.0
C1284 C 0.47306 0.82084 0.75741 0.0
C1285 C 0.45228 0.8348 0.77863 0.0
C1286 C 0.39856 0.83785 0.75943 0.0
H1287 H 0.28024 0.78676 0.8032 0.0
H1288 H 0.3267 0.81068 0.80421 0.0
H1289 H 0.36552 0.83888 0.75169 0.0
H1290 H 0.45313 0.80594 0.73226 0.0
H1291 H 0.4179 0.81188 0.74008 0.0
H1292 H 0.40354 0.80798 0.79655 0.0
C1293 C 0.31731 0.8028 0.79153 0.0
C1294 C 0.37382 0.83258 0.76182 0.0
C1295 C 0.29088 0.78919 0.79098 0.0
C1296 C 0.45327 0.81421 0.7452 0.0
C1297 C 0.43323 0.81782 0.74961 0.0
C1298 C 0.39571 0.8156 0.78705 0.0
C1299 C 0.33144 0.80575 0.77583 0.0
C1300 C 0.35926 0.81747 0.77626 0.0
C1301 C 0.43231 0.82776 0.76645 0.0
C1302 C 0.40927 0.82833 0.77155 0.0
H1303 H 0.28321 0.77245 0.74665 0.0
H1304 H 0.32891 0.79618 0.74746 0.0
H1305 H 0.36005 0.7984 0.8006 0.0
H1306 H 0.48777 0.83689 0.78368 0.0
H1307 H 0.45188 0.84239 0.79173 0.0
C1308 C 0.25559 0.52258 0.76229 0.0
C1309 C 0.25754 0.51336 0.77909 0.0
C1310 C 0.24502 0.53798 0.76087 0.0
C1311 C 0.23138 0.58021 0.78825 0.0
H1312 H 0.19775 0.58159 0.74441 0.0
C1313 C 0.19334 0.64813 0.77802 0.0
C1314 C 0.20572 0.66507 0.76382 0.0
C1315 C 0.19491 0.6263 0.77972 0.0
C1316 C 0.20698 0.58124 0.75674 0.0
H1317 H 0.25084 0.51327 0.80767 0.0
H1318 H 0.23111 0.53934 0.80525 0.0
H1319 H 0.20847 0.54856 0.74863 0.0
H1320 H 0.22815 0.67179 0.73969 0.0
H1321 H 0.23029 0.63308 0.74243 0.0
H1322 H 0.22942 0.6127 0.79639 0.0
C1323 C 0.23804 0.53504 0.79313 0.0
C1324 C 0.21332 0.5625 0.75914 0.0
C1325 C 0.24912 0.51999 0.79456 0.0
C1326 C 0.21851 0.65909 0.75078 0.0
C1327 C 0.21963 0.63695 0.75229 0.0
C1328 C 0.22453 0.59856 0.786 0.0
C1329 C 0.23606 0.54444 0.77626 0.0
C1330 C 0.22627 0.56218 0.77472 0.0
C1331 C 0.2084 0.62077 0.76703 0.0
C1332 C 0.21283 0.59956 0.77007 0.0
H1333 H 0.2627 0.51823 0.75026 0.0
H1334 H 0.24456 0.54535 0.74773 0.0
H1335 H 0.24166 0.58092 0.80029 0.0
H1336 H 0.18338 0.65227 0.78829 0.0
H1337 H 0.1861 0.61402 0.79117 0.0
C1338 C 0.51131 0.72644 0.76258 0.0
C1339 C 0.50485 0.73784 0.74886 0.0
C1340 C 0.49929 0.70012 0.76371 0.0
C1341 C 0.459 0.64156 0.73777 0.0
H1342 H 0.43159 0.61243 0.78446 0.0
C1343 C 0.36695 0.5485 0.74668 0.0
C1344 C 0.36328 0.53338 0.76184 0.0
C1345 C 0.38965 0.57099 0.74422 0.0
C1346 C 0.43959 0.6201 0.77139 0.0
H1347 H 0.47983 0.73121 0.72641 0.0
H1348 H 0.45883 0.68539 0.72828 0.0
H1349 H 0.46168 0.65737 0.78209 0.0
H1350 H 0.38112 0.52903 0.78568 0.0
H1351 H 0.42097 0.56844 0.78133 0.0
H1352 H 0.43612 0.60446 0.72697 0.0
C1353 C 0.47379 0.69653 0.73775 0.0
C1354 C 0.45682 0.64591 0.77003 0.0
C1355 C 0.48576 0.72273 0.73666 0.0
C1356 C 0.38338 0.54036 0.77389 0.0
C1357 C 0.40613 0.56298 0.77146 0.0
C1358 C 0.44185 0.61575 0.73913 0.0
C1359 C 0.48037 0.68491 0.75129 0.0
C1360 C 0.46598 0.65706 0.75312 0.0
C1361 C 0.40921 0.57891 0.75689 0.0
C1362 C 0.43122 0.6049 0.75587 0.0
H1363 H 0.52566 0.73788 0.77235 0.0
H1364 H 0.50467 0.69169 0.77434 0.0
H1365 H 0.46606 0.64955 0.7246 0.0
H1366 H 0.35185 0.54358 0.73711 0.0
H1367 H 0.39122 0.58288 0.73295 0.0
C1368 C 0.40234 0.74636 0.54117 0.0
C1369 C 0.42151 0.75986 0.52854 0.0
C1370 C 0.39419 0.72107 0.54468 0.0
C1371 C 0.40973 0.67023 0.53754 0.0
H1372 H 0.33741 0.62706 0.54312 0.0
C1373 C 0.35794 0.56148 0.53132 0.0
C1374 C 0.34051 0.54799 0.54497 0.0
C1375 C 0.36898 0.58768 0.53034 0.0
C1376 C 0.35766 0.63892 0.54177 0.0
H1377 H 0.44778 0.75781 0.51004 0.0
H1378 H 0.43301 0.71331 0.51571 0.0
H1379 H 0.3552 0.67231 0.53979 0.0
H1380 H 0.31917 0.55049 0.5673 0.0
H1381 H 0.33828 0.59641 0.56552 0.0
H1382 H 0.41183 0.63639 0.53892 0.0
C1383 C 0.42459 0.72236 0.52322 0.0
C1384 C 0.36792 0.6649 0.53994 0.0
C1385 C 0.433 0.74784 0.5199 0.0
C1386 C 0.33322 0.56075 0.55703 0.0
C1387 C 0.34395 0.58689 0.5559 0.0
C1388 C 0.39938 0.64415 0.53917 0.0
C1389 C 0.40472 0.70854 0.53541 0.0
C1390 C 0.39409 0.68092 0.53781 0.0
C1391 C 0.36209 0.60062 0.54263 0.0
C1392 C 0.37325 0.62828 0.54128 0.0
H1393 H 0.39334 0.75524 0.54821 0.0
H1394 H 0.37934 0.71125 0.55451 0.0
H1395 H 0.42997 0.682 0.53616 0.0
H1396 H 0.36328 0.55178 0.52162 0.0
H1397 H 0.38257 0.59777 0.51978 0.0
C1398 C 0.21933 0.67429 0.49253 0.0
C1399 C 0.19655 0.6719 0.49858 0.0
C1400 C 0.23728 0.69628 0.48404 0.0
C1401 C 0.27246 0.74283 0.46363 0.0
H1402 H 0.28831 0.79975 0.49464 0.0
C1403 C 0.37468 0.81932 0.47347 0.0
C1404 C 0.38044 0.82109 0.49187 0.0
C1405 C 0.34959 0.80912 0.46788 0.0
C1406 C 0.28399 0.78423 0.48557 0.0
H1407 H 0.17395 0.68999 0.4995 0.0
H1408 H 0.20571 0.72887 0.48476 0.0
H1409 H 0.24629 0.76281 0.49549 0.0
H1410 H 0.36488 0.81317 0.51881 0.0
H1411 H 0.32163 0.79592 0.50932 0.0
H1412 H 0.31099 0.76303 0.45529 0.0
C1413 C 0.20961 0.71364 0.48664 0.0
C1414 C 0.2598 0.76309 0.48595 0.0
C1415 C 0.19147 0.69143 0.49508 0.0
C1416 C 0.36101 0.81303 0.50456 0.0
C1417 C 0.33616 0.80315 0.49907 0.0
C1418 C 0.29673 0.76385 0.46341 0.0
C1419 C 0.23298 0.71653 0.48142 0.0
C1420 C 0.25442 0.74143 0.47599 0.0
C1421 C 0.32999 0.80033 0.48066 0.0
C1422 C 0.30321 0.7839 0.47544 0.0
H1423 H 0.22371 0.65948 0.49488 0.0
H1424 H 0.2552 0.69792 0.48054 0.0
H1425 H 0.26861 0.72668 0.45539 0.0
H1426 H 0.38943 0.82501 0.46347 0.0
H1427 H 0.3454 0.80703 0.45361 0.0
C1428 C 0.21983 0.45643 0.53939 0.0
C1429 C 0.23753 0.4529 0.52977 0.0
C1430 C 0.20022 0.45705 0.53035 0.0
C1431 C 0.15946 0.45776 0.5072 0.0
H1432 H 0.19994 0.51941 0.4803 0.0
C1433 C 0.13182 0.53459 0.50136 0.0
C1434 C 0.15089 0.55601 0.51009 0.0
C1435 C 0.13637 0.51538 0.4957 0.0
C1436 C 0.18804 0.50179 0.48725 0.0
H1437 H 0.2473 0.4448 0.50351 0.0
H1438 H 0.2135 0.44692 0.4876 0.0
H1439 H 0.21646 0.49143 0.48632 0.0
H1440 H 0.19001 0.5756 0.51831 0.0
H1441 H 0.19812 0.54257 0.50835 0.0
H1442 H 0.1317 0.46905 0.50895 0.0
C1443 C 0.21454 0.44871 0.50213 0.0
C1444 C 0.19744 0.48569 0.49065 0.0
C1445 C 0.23386 0.44752 0.51125 0.0
C1446 C 0.17493 0.55896 0.51189 0.0
C1447 C 0.17962 0.5402 0.50594 0.0
C1448 C 0.1498 0.47361 0.50339 0.0
C1449 C 0.19831 0.45467 0.51151 0.0
C1450 C 0.18407 0.46463 0.50188 0.0
C1451 C 0.16032 0.518 0.49808 0.0
C1452 C 0.16503 0.49687 0.49486 0.0
H1453 H 0.2222 0.46052 0.55368 0.0
H1454 H 0.18817 0.46196 0.53791 0.0
H1455 H 0.14871 0.44146 0.51574 0.0
H1456 H 0.11323 0.53226 0.49964 0.0
H1457 H 0.12115 0.49836 0.48982 0.0
C1458 C 0.16343 0.11006 0.08738 0.0
C1459 C 0.18195 0.10777 0.0969 0.0
C1460 C 0.16797 0.11944 0.0699 0.0
C1461 C 0.20714 0.13266 0.02955 0.0
H1462 H 0.18488 0.1809 0.02156 0.0
C1463 C 0.19456 0.19792 0.97146 0.0
C1464 C 0.18416 0.17974 0.9578 0.0
C1465 C 0.20263 0.19251 0.98752 0.0
C1466 C 0.19181 0.16795 0.02351 0.0
H1467 H 0.21931 0.11224 0.09513 0.0
H1468 H 0.22733 0.12895 0.06434 0.0
H1469 H 0.18189 0.16386 0.05133 0.0
H1470 H 0.17571 0.14245 0.94946 0.0
H1471 H 0.18858 0.13239 0.97786 0.0
H1472 H 0.21695 0.1368 0.00152 0.0
C1473 C 0.20929 0.12338 0.07055 0.0
C1474 C 0.18966 0.15783 0.0406 0.0
C1475 C 0.20469 0.11385 0.08815 0.0
C1476 C 0.18379 0.15681 0.95983 0.0
C1477 C 0.19127 0.15111 0.9761 0.0
C1478 C 0.20939 0.14292 0.01232 0.0
C1479 C 0.1912 0.12694 0.06149 0.0
C1480 C 0.19654 0.13952 0.0437 0.0
C1481 C 0.19962 0.16847 0.99046 0.0
C1482 C 0.2012 0.16029 0.00903 0.0
H1483 H 0.14552 0.10513 0.09358 0.0
H1484 H 0.1534 0.12131 0.06306 0.0
H1485 H 0.21269 0.11864 0.03161 0.0
H1486 H 0.1953 0.21587 0.97006 0.0
H1487 H 0.20976 0.20665 0.99805 0.0
C1488 C 0.78605 0.97733 0.92186 0.0
C1489 C 0.77344 0.95316 0.91425 0.0
C1490 C 0.7751 0.98346 0.936 0.0
C1491 C 0.75227 0.9939 0.96783 0.0
H1492 H 0.7183 0.93597 -0.00076 0.0
C1493 C 0.76929 0.00928 0.04275 0.0
C1494 C 0.77415 0.99163 0.05103 0.0
C1495 C 0.75612 0.00349 0.02647 0.0
C1496 C 0.72802 0.95246 0.99075 0.0
H1497 H 0.73823 0.91763 0.91355 0.0
H1498 H 0.71823 0.92888 0.93732 0.0
H1499 H 0.72079 0.9296 0.96751 0.0
H1500 H 0.76788 0.95369 0.04969 0.0
H1501 H 0.74676 0.94406 0.0209 0.0
H1502 H 0.76254 0.01671 0.99131 0.0
C1503 C 0.7372 0.94269 0.93326 0.0
C1504 C 0.72897 0.94881 0.97226 0.0
C1505 C 0.74851 0.93628 0.91948 0.0
C1506 C 0.76419 0.96754 0.04355 0.0
C1507 C 0.75183 0.96202 0.02698 0.0
C1508 C 0.75223 0.99753 0.98639 0.0
C1509 C 0.75097 0.96573 0.94257 0.0
C1510 C 0.74267 0.96951 0.96068 0.0
C1511 C 0.74857 0.98033 0.01776 0.0
C1512 C 0.7416 0.97679 0.99824 0.0
H1513 H 0.80534 0.9907 0.91811 0.0
H1514 H 0.7867 0.00133 0.94267 0.0
H1515 H 0.76173 0.01039 0.95931 0.0
H1516 H 0.7766 0.02792 0.04849 0.0
H1517 H 0.75319 0.01778 0.0203 0.0
C1518 C 0.1048 0.87233 0.00168 0.0
C1519 C 0.08545 0.85968 0.98892 0.0
C1520 C 0.09913 0.87129 0.01998 0.0
C1521 C 0.05029 0.83898 0.05464 0.0
H1522 H 0.07229 0.90638 0.07263 0.0
C1523 C 0.00529 0.88245 0.10308 0.0
C1524 C 0.00012 0.86756 0.11858 0.0
C1525 C 0.02261 0.8836 0.09038 0.0
C1526 C 0.06639 0.88748 0.06791 0.0
H1527 H 0.04526 0.83403 0.98565 0.0
H1528 H 0.0355 0.83195 0.01767 0.0
H1529 H 0.08893 0.90098 0.04407 0.0
H1530 H 0.00995 0.84335 0.13351 0.0
H1531 H 0.03989 0.84491 0.11095 0.0
H1532 H 0.02695 0.82553 0.07815 0.0
C1533 C 0.05501 0.84286 0.01342 0.0
C1534 C 0.07596 0.88436 0.05165 0.0
C1535 C 0.06061 0.84414 0.99507 0.0
C1536 C 0.0138 0.85518 0.12175 0.0
C1537 C 0.03075 0.85589 0.10882 0.0
C1538 C 0.04104 0.8421 0.07106 0.0
C1539 C 0.07409 0.85725 0.02594 0.0
C1540 C 0.06737 0.8601 0.04459 0.0
C1541 C 0.03468 0.86948 0.09279 0.0
C1542 C 0.0484 0.86639 0.07753 0.0
H1543 H 0.12419 0.88435 0.99751 0.0
H1544 H 0.11419 0.88235 0.0294 0.0
H1545 H 0.04343 0.8201 0.04948 0.0
H1546 H 0.99493 0.89211 0.10033 0.0
H1547 H 0.02519 0.89408 0.07806 0.0
C1548 C 0.87716 0.5997 0.27387 0.0
C1549 C 0.87064 0.57683 0.26522 0.0
C1550 C 0.89295 0.60745 0.28898 0.0
C1551 C 0.92849 0.58633 0.31943 0.0
H1552 H 0.90321 0.6126 0.35625 0.0
C1553 C 0.92654 0.55555 0.39176 0.0
C1554 C 0.90373 0.5486 0.40065 0.0
C1555 C 0.93376 0.57135 0.37667 0.0
C1556 C 0.91031 0.60492 0.3462 0.0
H1557 H 0.87678 0.54494 0.26499 0.0
H1558 H 0.90252 0.55727 0.29153 0.0
H1559 H 0.89456 0.61602 0.3251 0.0
H1560 H 0.8716 0.55435 0.4015 0.0
H1561 H 0.883 0.58006 0.37501 0.0
H1562 H 0.9412 0.57215 0.34055 0.0
C1563 C 0.8966 0.57006 0.28658 0.0
C1564 C 0.90581 0.60743 0.3281 0.0
C1565 C 0.88144 0.56272 0.27129 0.0
C1566 C 0.88931 0.55926 0.39499 0.0
C1567 C 0.89611 0.57441 0.3797 0.0
C1568 C 0.93202 0.58284 0.33754 0.0
C1569 C 0.90195 0.59212 0.29608 0.0
C1570 C 0.91336 0.59662 0.31448 0.0
C1571 C 0.91792 0.57988 0.36981 0.0
C1572 C 0.92144 0.59057 0.35122 0.0
H1573 H 0.86941 0.61118 0.26932 0.0
H1574 H 0.89719 0.62496 0.29547 0.0
H1575 H 0.93602 0.5791 0.30937 0.0
H1576 H 0.9383 0.54796 0.39601 0.0
H1577 H 0.95116 0.57578 0.36993 0.0
C1578 C 0.41804 0.28086 0.25024 0.0
C1579 C 0.4401 0.29775 0.2409 0.0
C1580 C 0.41144 0.28823 0.26622 0.0
C1581 C 0.41566 0.30074 0.30584 0.0
H1582 H 0.44296 0.37118 0.31785 0.0
C1583 C 0.4631 0.34081 0.37282 0.0
C1584 C 0.46829 0.36485 0.37827 0.0
C1585 C 0.44875 0.32972 0.3574 0.0
C1586 C 0.43451 0.35127 0.31492 0.0
H1587 H 0.47166 0.3361 0.24038 0.0
H1588 H 0.46095 0.34859 0.26835 0.0
H1589 H 0.43666 0.35839 0.28666 0.0
H1590 H 0.46022 0.39487 0.37333 0.0
H1591 H 0.43377 0.37485 0.34708 0.0
H1592 H 0.41297 0.29353 0.33411 0.0
C1593 C 0.44818 0.32984 0.26329 0.0
C1594 C 0.43134 0.34399 0.29687 0.0
C1595 C 0.45451 0.32261 0.24721 0.0
C1596 C 0.45675 0.37644 0.36919 0.0
C1597 C 0.4418 0.36504 0.35405 0.0
C1598 C 0.41819 0.30793 0.32392 0.0
C1599 C 0.42701 0.31252 0.27334 0.0
C1600 C 0.42345 0.31892 0.29208 0.0
C1601 C 0.43882 0.34221 0.34732 0.0
C1602 C 0.4292 0.33352 0.3287 0.0
H1603 H 0.40632 0.26165 0.24557 0.0
H1604 H 0.39468 0.27456 0.27332 0.0
H1605 H 0.40933 0.28119 0.3028 0.0
H1606 H 0.47189 0.33152 0.37955 0.0
H1607 H 0.44726 0.3123 0.35271 0.0
C1608 C 0.65536 0.12783 0.40779 0.0
C1609 C 0.63073 0.11424 0.41463 0.0
C1610 C 0.66156 0.12072 0.39162 0.0
C1611 C 0.63018 0.08701 0.34981 0.0
H1612 H 0.70002 0.11338 0.33645 0.0
C1613 C 0.70391 0.12817 0.28541 0.0
C1614 C 0.69168 0.1393 0.27666 0.0
C1615 C 0.69297 0.1129 0.3005 0.0
C1616 C 0.68024 0.10515 0.33973 0.0
H1617 H 0.59388 0.08112 0.41078 0.0
H1618 H 0.60499 0.068 0.38288 0.0
H1619 H 0.68845 0.10782 0.36782 0.0
H1620 H 0.65778 0.14187 0.27585 0.0
H1621 H 0.63943 0.11687 0.30263 0.0
H1622 H 0.62183 0.08356 0.32171 0.0
C1623 C 0.61929 0.08478 0.38962 0.0
C1624 C 0.67367 0.10245 0.35792 0.0
C1625 C 0.61294 0.09221 0.40567 0.0
C1626 C 0.66752 0.13337 0.28233 0.0
C1627 C 0.65693 0.1188 0.29773 0.0
C1628 C 0.63663 0.08897 0.3316 0.0
C1629 C 0.64342 0.0995 0.382 0.0
C1630 C 0.64889 0.09507 0.3632 0.0
C1631 C 0.67005 0.10931 0.30756 0.0
C1632 C 0.66202 0.09977 0.3263 0.0
H1633 H 0.66949 0.14495 0.41432 0.0
H1634 H 0.68021 0.13292 0.38618 0.0
H1635 H 0.6108 0.08097 0.35321 0.0
H1636 H 0.72247 0.13224 0.28109 0.0
H1637 H 0.70326 0.10517 0.30719 0.0
C1638 C 0.46369 0.88 0.57753 0.0
C1639 C 0.46845 0.86651 0.56427 0.0
C1640 C 0.4764 0.8857 0.59404 0.0
C1641 C 0.53187 0.88947 0.61684 0.0
H1642 H 0.48844 0.86466 0.65876 0.0
C1643 C 0.55173 0.84463 0.67676 0.0
C1644 C 0.54257 0.84543 0.69395 0.0
C1645 C 0.54789 0.85669 0.66224 0.0
C1646 C 0.50105 0.87238 0.64734 0.0
H1647 H 0.49103 0.84942 0.55762 0.0
H1648 H 0.51304 0.85933 0.58625 0.0
H1649 H 0.47125 0.86833 0.63016 0.0
H1650 H 0.52396 0.86132 0.70965 0.0
H1651 H 0.51735 0.88248 0.68421 0.0
H1652 H 0.56139 0.89239 0.63381 0.0
C1653 C 0.4996 0.86558 0.58394 0.0
C1654 C 0.49114 0.87443 0.63092 0.0
C1655 C 0.48673 0.85962 0.5676 0.0
C1656 C 0.53115 0.86018 0.69656 0.0
C1657 C 0.52723 0.87221 0.68198 0.0
C1658 C 0.5418 0.88754 0.63326 0.0
C1659 C 0.49437 0.8784 0.59741 0.0
C1660 C 0.50618 0.88191 0.61536 0.0
C1661 C 0.53478 0.86984 0.66455 0.0
C1662 C 0.52621 0.87786 0.64849 0.0
H1663 H 0.44973 0.88561 0.57534 0.0
H1664 H 0.47202 0.89559 0.60422 0.0
H1665 H 0.54398 0.89573 0.60508 0.0
H1666 H 0.56077 0.83361 0.67427 0.0
H1667 H 0.55375 0.85424 0.64898 0.0
C1668 C 0.16993 0.66667 0.57929 0.0
C1669 C 0.1681 0.64295 0.5812 0.0
C1670 C 0.16944 0.67998 0.5945 0.0
C1671 C 0.14363 0.66789 0.63977 0.0
H1672 H 0.19571 0.73563 0.6524 0.0
C1673 C 0.16449 0.70325 0.7122 0.0
C1674 C 0.17628 0.72922 0.71584 0.0
C1675 C 0.15805 0.69434 0.69459 0.0
C1676 C 0.18059 0.71695 0.64889 0.0
H1677 H 0.1662 0.61562 0.60071 0.0
H1678 H 0.1651 0.63868 0.62693 0.0
H1679 H 0.1973 0.71799 0.62325 0.0
H1680 H 0.18778 0.76585 0.70407 0.0
H1681 H 0.17599 0.75016 0.67342 0.0
H1682 H 0.12703 0.66648 0.66538 0.0
C1683 C 0.16651 0.64673 0.6137 0.0
C1684 C 0.18165 0.70686 0.63223 0.0
C1685 C 0.16731 0.63364 0.59864 0.0
C1686 C 0.17905 0.74575 0.70174 0.0
C1687 C 0.17249 0.7368 0.68412 0.0
C1688 C 0.14237 0.67804 0.65629 0.0
C1689 C 0.16683 0.66962 0.61175 0.0
C1690 C 0.16369 0.68193 0.62786 0.0
C1691 C 0.16304 0.71116 0.68023 0.0
C1692 C 0.16137 0.70234 0.66136 0.0
H1693 H 0.17059 0.67442 0.56608 0.0
H1694 H 0.16995 0.69777 0.59274 0.0
H1695 H 0.12931 0.64872 0.63651 0.0
H1696 H 0.16194 0.68991 0.72269 0.0
H1697 H 0.15092 0.67447 0.69215 0.0
C1698 C 0.27572 0.42777 0.6044 0.0
C1699 C 0.29741 0.43336 0.59462 0.0
C1700 C 0.27017 0.41393 0.62033 0.0
C1701 C 0.30621 0.40326 0.65563 0.0
H1702 H 0.24275 0.38018 0.68036 0.0
C1703 C 0.26053 0.40065 0.73023 0.0
C1704 C 0.28034 0.42423 0.7358 0.0
C1705 C 0.26237 0.38982 0.71414 0.0
C1706 C 0.2606 0.38589 0.67382 0.0
H1707 H 0.32897 0.42706 0.59241 0.0
H1708 H 0.31836 0.4012 0.6195 0.0
H1709 H 0.24354 0.37973 0.64788 0.0
H1710 H 0.31841 0.45391 0.72981 0.0
H1711 H 0.32124 0.43602 0.70154 0.0
H1712 H 0.32315 0.40875 0.68156 0.0
C1713 C 0.30618 0.40839 0.61554 0.0
C1714 C 0.2611 0.3861 0.65502 0.0
C1715 C 0.31212 0.4229 0.59989 0.0
C1716 C 0.30283 0.4357 0.72587 0.0
C1717 C 0.30445 0.42521 0.7096 0.0
C1718 C 0.30558 0.40229 0.67441 0.0
C1719 C 0.28603 0.40504 0.6266 0.0
C1720 C 0.28417 0.39667 0.6457 0.0
C1721 C 0.28378 0.40271 0.70305 0.0
C1722 C 0.28312 0.3955 0.68377 0.0
H1723 H 0.26435 0.43601 0.60062 0.0
H1724 H 0.25467 0.41221 0.62839 0.0
H1725 H 0.32444 0.41129 0.64916 0.0
H1726 H 0.24311 0.39118 0.73783 0.0
H1727 H 0.24639 0.37207 0.70992 0.0
loop_
_geom_bond_atom_site_label_1
_geom_bond_atom_site_label_2
_geom_bond_distance
_geom_bond_site_symmetry_2
_ccdc_geom_bond_type
Mn0 O5 2.095 . S
Mn0 O15 2.162 . S
Mn0 O16 2.297 . S
Mn0 O24 2.385 . S
Mn0 O25 2.209 . S
Mn0 O26 2.094 . S
Mn1 O6 2.121 . S
Mn1 N8 2.257 . S
Mn1 N17 2.282 . S
Mn1 O25 2.215 . S
Mn1 O27 2.117 . S
C2 O24 1.234 . S
C2 O25 1.283 . S
C3 O15 1.281 . S
C3 O16 1.236 . S
C4 O26 1.240 . S
C4 O27 1.264 . S
O5 Mn0 2.095 . S
O5 C14 1.250 . S
O6 Mn1 2.121 . S
O6 C14 1.258 . S
C7 N8 1.326 . S
C7 C11 1.460 . S
C7 H13 0.929 . S
N8 Mn1 2.257 . S
N8 C7 1.326 . S
N8 C12 1.362 . S
C9 C10 1.258 . S
C9 C12 1.431 . S
C9 C29 1.449 . S
C10 C9 1.258 . S
C10 C11 1.477 . S
C10 H30 0.931 . S
C11 C7 1.460 . S
C11 C10 1.477 . S
C11 H31 0.930 . S
C12 N8 1.362 . S
C12 C9 1.431 . S
C12 C22 1.476 . S
H13 C7 0.929 . S
C14 O5 1.250 . S
C14 O6 1.258 . S
O15 Mn0 2.162 . S
O15 C3 1.281 . S
O16 Mn0 2.297 . S
O16 C3 1.236 . S
N17 Mn1 2.282 . S
N17 C18 1.328 . S
N17 C22 1.318 . S
C18 N17 1.328 . S
C18 C19 1.457 . S
C18 H23 0.929 . S
C19 C18 1.457 . S
C19 C20 1.291 . S
C19 H32 0.931 . S
C20 C19 1.291 . S
C20 C21 1.373 . S
C20 H33 0.929 . S
C21 C20 1.373 . S
C21 C22 1.396 . S
C21 C28 1.403 . S
C22 C12 1.476 . S
C22 N17 1.318 . S
C22 C21 1.396 . S
H23 C18 0.929 . S
O24 Mn0 2.385 . S
O24 C2 1.234 . S
O25 Mn0 2.209 . S
O25 Mn1 2.215 . S
O25 C2 1.283 . S
O26 Mn0 2.094 . S
O26 C4 1.240 . S
O27 Mn1 2.117 . S
O27 C4 1.264 . S
C28 C21 1.403 . S
C28 C29 1.399 . S
C28 H34 0.929 . S
C29 C9 1.449 . S
C29 C28 1.399 . S
C29 H35 0.930 . S
H30 C10 0.931 . S
H31 C11 0.930 . S
H32 C19 0.931 . S
H33 C20 0.929 . S
H34 C28 0.929 . S
H35 C29 0.930 . S
Mn36 O41 2.095 . S
Mn36 O51 2.162 . S
Mn36 O52 2.297 . S
Mn36 O60 2.385 1_565 S
Mn36 O61 2.209 1_565 S
Mn36 O62 2.094 1_565 S
Mn37 O42 2.121 . S
Mn37 N44 2.257 . S
Mn37 N53 2.282 . S
Mn37 O61 2.215 . S
Mn37 O63 2.117 . S
C38 O60 1.234 . S
C38 O61 1.283 . S
C39 O51 1.281 . S
C39 O52 1.236 . S
C40 O62 1.240 . S
C40 O63 1.264 . S
O41 Mn36 2.095 . S
O41 C50 1.253 . S
O42 Mn37 2.121 . S
O42 C50 1.252 1_545 S
C43 N44 1.326 . S
C43 C47 1.460 . S
C43 H49 0.929 . S
N44 Mn37 2.257 . S
N44 C43 1.326 . S
N44 C48 1.362 . S
C45 C46 1.258 . S
C45 C48 1.431 . S
C45 C65 1.449 . S
C46 C45 1.258 . S
C46 C47 1.477 . S
C46 H66 0.931 . S
C47 C43 1.460 . S
C47 C46 1.477 . S
C47 H67 0.930 . S
C48 N44 1.362 . S
C48 C45 1.431 . S
C48 C58 1.476 . S
H49 C43 0.929 . S
C50 O41 1.253 . S
C50 O42 1.252 1_565 S
O51 Mn36 2.162 . S
O51 C39 1.281 . S
O52 Mn36 2.297 . S
O52 C39 1.236 . S
N53 Mn37 2.282 . S
N53 C54 1.328 . S
N53 C58 1.318 . S
C54 N53 1.328 . S
C54 C55 1.457 . S
C54 H59 0.929 . S
C55 C54 1.457 . S
C55 C56 1.291 . S
C55 H68 0.931 . S
C56 C55 1.291 . S
C56 C57 1.373 . S
C56 H69 0.929 . S
C57 C56 1.373 . S
C57 C58 1.396 . S
C57 C64 1.403 . S
C58 C48 1.476 . S
C58 N53 1.318 . S
C58 C57 1.396 . S
H59 C54 0.929 . S
O60 Mn36 2.385 1_545 S
O60 C38 1.234 . S
O61 Mn36 2.209 1_545 S
O61 Mn37 2.215 . S
O61 C38 1.283 . S
O62 Mn36 2.094 1_545 S
O62 C40 1.240 . S
O63 Mn37 2.117 . S
O63 C40 1.264 . S
C64 C57 1.403 . S
C64 C65 1.399 . S
C64 H70 0.929 . S
C65 C45 1.449 . S
C65 C64 1.399 . S
C65 H71 0.930 . S
H66 C46 0.931 . S
H67 C47 0.930 . S
H68 C55 0.931 . S
H69 C56 0.929 . S
H70 C64 0.929 . S
H71 C65 0.930 . S
Mn72 O77 2.095 . S
Mn72 O87 2.162 . S
Mn72 O88 2.297 . S
Mn72 O96 2.385 1_455 S
Mn72 O97 2.209 1_455 S
Mn72 O98 2.094 1_455 S
Mn73 O78 2.121 . S
Mn73 N80 2.257 . S
Mn73 N89 2.282 . S
Mn73 O97 2.215 . S
Mn73 O99 2.117 . S
C74 O96 1.234 . S
C74 O97 1.283 . S
C75 O87 1.281 . S
C75 O88 1.236 . S
C76 O98 1.240 . S
C76 O99 1.264 . S
O77 Mn72 2.095 . S
O77 C86 1.254 . S
O78 Mn73 2.121 . S
O78 C86 1.251 1_655 S
C79 N80 1.326 . S
C79 C83 1.460 . S
C79 H85 0.929 . S
N80 Mn73 2.257 . S
N80 C79 1.326 . S
N80 C84 1.362 . S
C81 C82 1.258 . S
C81 C84 1.431 . S
C81 C101 1.449 . S
C82 C81 1.258 . S
C82 C83 1.477 . S
C82 H102 0.931 . S
C83 C79 1.460 . S
C83 C82 1.477 . S
C83 H103 0.930 . S
C84 N80 1.362 . S
C84 C81 1.431 . S
C84 C94 1.476 . S
H85 C79 0.929 . S
C86 O77 1.254 . S
C86 O78 1.251 1_455 S
O87 Mn72 2.162 . S
O87 C75 1.281 . S
O88 Mn72 2.297 . S
O88 C75 1.236 . S
N89 Mn73 2.282 . S
N89 C90 1.328 . S
N89 C94 1.318 . S
C90 N89 1.328 . S
C90 C91 1.457 . S
C90 H95 0.929 . S
C91 C90 1.457 . S
C91 C92 1.291 . S
C91 H104 0.931 . S
C92 C91 1.291 . S
C92 C93 1.373 . S
C92 H105 0.929 . S
C93 C92 1.373 . S
C93 C94 1.396 . S
C93 C100 1.403 . S
C94 C84 1.476 . S
C94 N89 1.318 . S
C94 C93 1.396 . S
H95 C90 0.929 . S
O96 Mn72 2.385 1_655 S
O96 C74 1.234 . S
O97 Mn72 2.209 1_655 S
O97 Mn73 2.215 . S
O97 C74 1.283 . S
O98 Mn72 2.094 1_655 S
O98 C76 1.240 . S
O99 Mn73 2.117 . S
O99 C76 1.264 . S
C100 C93 1.403 . S
C100 C101 1.399 . S
C100 H106 0.929 . S
C101 C81 1.449 . S
C101 C100 1.399 . S
C101 H107 0.930 . S
H102 C82 0.931 . S
H103 C83 0.930 . S
H104 C91 0.931 . S
H105 C92 0.929 . S
H106 C100 0.929 . S
H107 C101 0.930 . S
Mn108 O113 2.095 . S
Mn108 O123 2.162 . S
Mn108 O124 2.297 . S
Mn108 O132 2.385 . S
Mn108 O133 2.209 . S
Mn108 O134 2.094 . S
Mn109 O114 2.121 . S
Mn109 N116 2.257 . S
Mn109 N125 2.282 . S
Mn109 O133 2.215 . S
Mn109 O135 2.117 . S
C110 O132 1.234 . S
C110 O133 1.283 . S
C111 O123 1.281 . S
C111 O124 1.236 . S
C112 O134 1.240 . S
C112 O135 1.264 . S
O113 Mn108 2.095 . S
O113 C122 1.250 . S
O114 Mn109 2.121 . S
O114 C122 1.258 . S
C115 N116 1.326 . S
C115 C119 1.460 . S
C115 H121 0.929 . S
N116 Mn109 2.257 . S
N116 C115 1.326 . S
N116 C120 1.362 . S
C117 C118 1.258 . S
C117 C120 1.431 . S
C117 C137 1.449 . S
C118 C117 1.258 . S
C118 C119 1.477 . S
C118 H138 0.931 . S
C119 C115 1.460 . S
C119 C118 1.477 . S
C119 H139 0.930 . S
C120 N116 1.362 . S
C120 C117 1.431 . S
C120 C130 1.476 . S
H121 C115 0.929 . S
C122 O113 1.250 . S
C122 O114 1.258 . S
O123 Mn108 2.162 . S
O123 C111 1.281 . S
O124 Mn108 2.297 . S
O124 C111 1.236 . S
N125 Mn109 2.282 . S
N125 C126 1.328 . S
N125 C130 1.318 . S
C126 N125 1.328 . S
C126 C127 1.457 . S
C126 H131 0.929 . S
C127 C126 1.457 . S
C127 C128 1.291 . S
C127 H140 0.931 . S
C128 C127 1.291 . S
C128 C129 1.373 . S
C128 H141 0.929 . S
C129 C128 1.373 . S
C129 C130 1.396 . S
C129 C136 1.403 . S
C130 C120 1.476 . S
C130 N125 1.318 . S
C130 C129 1.396 . S
H131 C126 0.929 . S
O132 Mn108 2.385 . S
O132 C110 1.234 . S
O133 Mn108 2.209 . S
O133 Mn109 2.215 . S
O133 C110 1.283 . S
O134 Mn108 2.094 . S
O134 C112 1.240 . S
O135 Mn109 2.117 . S
O135 C112 1.264 . S
C136 C129 1.403 . S
C136 C137 1.399 . S
C136 H142 0.929 . S
C137 C117 1.449 . S
C137 C136 1.399 . S
C137 H143 0.930 . S
H138 C118 0.931 . S
H139 C119 0.930 . S
H140 C127 0.931 . S
H141 C128 0.929 . S
H142 C136 0.929 . S
H143 C137 0.930 . S
Mn144 O149 2.095 . S
Mn144 O159 2.162 . S
Mn144 O160 2.297 . S
Mn144 O168 2.385 1_545 S
Mn144 O169 2.209 1_545 S
Mn144 O170 2.094 1_545 S
Mn145 O150 2.121 . S
Mn145 N152 2.257 . S
Mn145 N161 2.282 . S
Mn145 O169 2.215 . S
Mn145 O171 2.117 . S
C146 O168 1.234 . S
C146 O169 1.283 . S
C147 O159 1.281 . S
C147 O160 1.236 . S
C148 O170 1.240 . S
C148 O171 1.264 . S
O149 Mn144 2.095 . S
O149 C158 1.254 . S
O150 Mn145 2.121 . S
O150 C158 1.251 1_565 S
C151 N152 1.326 . S
C151 C155 1.460 . S
C151 H157 0.929 . S
N152 Mn145 2.257 . S
N152 C151 1.326 . S
N152 C156 1.362 . S
C153 C154 1.258 . S
C153 C156 1.431 . S
C153 C173 1.449 . S
C154 C153 1.258 . S
C154 C155 1.477 . S
C154 H174 0.931 . S
C155 C151 1.460 . S
C155 C154 1.477 . S
C155 H175 0.930 . S
C156 N152 1.362 . S
C156 C153 1.431 . S
C156 C166 1.476 . S
H157 C151 0.929 . S
C158 O149 1.254 . S
C158 O150 1.251 1_545 S
O159 Mn144 2.162 . S
O159 C147 1.281 . S
O160 Mn144 2.297 . S
O160 C147 1.236 . S
N161 Mn145 2.282 . S
N161 C162 1.328 . S
N161 C166 1.318 . S
C162 N161 1.328 . S
C162 C163 1.457 . S
C162 H167 0.929 . S
C163 C162 1.457 . S
C163 C164 1.291 . S
C163 H176 0.931 . S
C164 C163 1.291 . S
C164 C165 1.373 . S
C164 H177 0.929 . S
C165 C164 1.373 . S
C165 C166 1.396 . S
C165 C172 1.403 . S
C166 C156 1.476 . S
C166 N161 1.318 . S
C166 C165 1.396 . S
H167 C162 0.929 . S
O168 Mn144 2.385 1_565 S
O168 C146 1.234 . S
O169 Mn144 2.209 1_565 S
O169 Mn145 2.215 . S
O169 C146 1.283 . S
O170 Mn144 2.094 1_565 S
O170 C148 1.240 . S
O171 Mn145 2.117 . S
O171 C148 1.264 . S
C172 C165 1.403 . S
C172 C173 1.399 . S
C172 H178 0.929 . S
C173 C153 1.449 . S
C173 C172 1.399 . S
C173 H179 0.930 . S
H174 C154 0.931 . S
H175 C155 0.930 . S
H176 C163 0.931 . S
H177 C164 0.929 . S
H178 C172 0.929 . S
H179 C173 0.930 . S
Mn180 O185 2.095 . S
Mn180 O195 2.162 . S
Mn180 O196 2.297 . S
Mn180 O204 2.385 1_655 S
Mn180 O205 2.209 1_655 S
Mn180 O206 2.094 1_655 S
Mn181 O186 2.121 . S
Mn181 N188 2.257 . S
Mn181 N197 2.282 . S
Mn181 O205 2.215 . S
Mn181 O207 2.117 . S
C182 O204 1.234 . S
C182 O205 1.283 . S
C183 O195 1.281 . S
C183 O196 1.236 . S
C184 O206 1.240 . S
C184 O207 1.264 . S
O185 Mn180 2.095 . S
O185 C194 1.253 . S
O186 Mn181 2.121 . S
O186 C194 1.252 1_455 S
C187 N188 1.326 . S
C187 C191 1.460 . S
C187 H193 0.929 . S
N188 Mn181 2.257 . S
N188 C187 1.326 . S
N188 C192 1.362 . S
C189 C190 1.258 . S
C189 C192 1.431 . S
C189 C209 1.449 . S
C190 C189 1.258 . S
C190 C191 1.477 . S
C190 H210 0.931 . S
C191 C187 1.460 . S
C191 C190 1.477 . S
C191 H211 0.930 . S
C192 N188 1.362 . S
C192 C189 1.431 . S
C192 C202 1.476 . S
H193 C187 0.929 . S
C194 O185 1.253 . S
C194 O186 1.252 1_655 S
O195 Mn180 2.162 . S
O195 C183 1.281 . S
O196 Mn180 2.297 . S
O196 C183 1.236 . S
N197 Mn181 2.282 . S
N197 C198 1.328 . S
N197 C202 1.318 . S
C198 N197 1.328 . S
C198 C199 1.457 . S
C198 H203 0.929 . S
C199 C198 1.457 . S
C199 C200 1.291 . S
C199 H212 0.931 . S
C200 C199 1.291 . S
C200 C201 1.373 . S
C200 H213 0.929 . S
C201 C200 1.373 . S
C201 C202 1.396 . S
C201 C208 1.403 . S
C202 C192 1.476 . S
C202 N197 1.318 . S
C202 C201 1.396 . S
H203 C198 0.929 . S
O204 Mn180 2.385 1_455 S
O204 C182 1.234 . S
O205 Mn180 2.209 1_455 S
O205 Mn181 2.215 . S
O205 C182 1.283 . S
O206 Mn180 2.094 1_455 S
O206 C184 1.240 . S
O207 Mn181 2.117 . S
O207 C184 1.264 . S
C208 C201 1.403 . S
C208 C209 1.399 . S
C208 H214 0.929 . S
C209 C189 1.449 . S
C209 C208 1.399 . S
C209 H215 0.930 . S
H210 C190 0.931 . S
H211 C191 0.930 . S
H212 C199 0.931 . S
H213 C200 0.929 . S
H214 C208 0.929 . S
H215 C209 0.930 . S
Mn216 O221 2.095 . S
Mn216 O231 2.162 . S
Mn216 O232 2.297 . S
Mn216 O240 2.385 . S
Mn216 O241 2.209 . S
Mn216 O242 2.094 . S
Mn217 O222 2.121 . S
Mn217 N224 2.257 . S
Mn217 N233 2.282 . S
Mn217 O241 2.215 . S
Mn217 O243 2.117 . S
C218 O240 1.234 . S
C218 O241 1.283 . S
C219 O231 1.281 . S
C219 O232 1.236 . S
C220 O242 1.240 . S
C220 O243 1.264 . S
O221 Mn216 2.095 . S
O221 C230 1.250 . S
O222 Mn217 2.121 . S
O222 C230 1.258 . S
C223 N224 1.326 . S
C223 C227 1.460 . S
C223 H229 0.929 . S
N224 Mn217 2.257 . S
N224 C223 1.326 . S
N224 C228 1.362 . S
C225 C226 1.258 . S
C225 C228 1.431 . S
C225 C245 1.449 . S
C226 C225 1.258 . S
C226 C227 1.477 . S
C226 H246 0.931 . S
C227 C223 1.460 . S
C227 C226 1.477 . S
C227 H247 0.930 . S
C228 N224 1.362 . S
C228 C225 1.431 . S
C228 C238 1.476 . S
H229 C223 0.929 . S
C230 O221 1.250 . S
C230 O222 1.258 . S
O231 Mn216 2.162 . S
O231 C219 1.281 . S
O232 Mn216 2.297 . S
O232 C219 1.236 . S
N233 Mn217 2.282 . S
N233 C234 1.328 . S
N233 C238 1.318 . S
C234 N233 1.328 . S
C234 C235 1.457 . S
C234 H239 0.929 . S
C235 C234 1.457 . S
C235 C236 1.291 . S
C235 H248 0.931 . S
C236 C235 1.291 . S
C236 C237 1.373 . S
C236 H249 0.929 . S
C237 C236 1.373 . S
C237 C238 1.396 . S
C237 C244 1.403 . S
C238 C228 1.476 . S
C238 N233 1.318 . S
C238 C237 1.396 . S
H239 C234 0.929 . S
O240 Mn216 2.385 . S
O240 C218 1.234 . S
O241 Mn216 2.209 . S
O241 Mn217 2.215 . S
O241 C218 1.283 . S
O242 Mn216 2.094 . S
O242 C220 1.240 . S
O243 Mn217 2.117 . S
O243 C220 1.264 . S
C244 C237 1.403 . S
C244 C245 1.399 . S
C244 H250 0.929 . S
C245 C225 1.449 . S
C245 C244 1.399 . S
C245 H251 0.930 . S
H246 C226 0.931 . S
H247 C227 0.930 . S
H248 C235 0.931 . S
H249 C236 0.929 . S
H250 C244 0.929 . S
H251 C245 0.930 . S
Mn252 O257 2.095 . S
Mn252 O267 2.162 . S
Mn252 O268 2.297 . S
Mn252 O276 2.385 . S
Mn252 O277 2.209 . S
Mn252 O278 2.094 . S
Mn253 O258 2.121 . S
Mn253 N260 2.257 . S
Mn253 N269 2.282 . S
Mn253 O277 2.215 . S
Mn253 O279 2.117 . S
C254 O276 1.234 . S
C254 O277 1.283 . S
C255 O267 1.281 . S
C255 O268 1.236 . S
C256 O278 1.240 . S
C256 O279 1.264 . S
O257 Mn252 2.095 . S
O257 C266 1.250 . S
O258 Mn253 2.121 . S
O258 C266 1.258 . S
C259 N260 1.326 . S
C259 C263 1.460 . S
C259 H265 0.929 . S
N260 Mn253 2.257 . S
N260 C259 1.326 . S
N260 C264 1.362 . S
C261 C262 1.258 . S
C261 C264 1.431 . S
C261 C281 1.449 . S
C262 C261 1.258 . S
C262 C263 1.477 . S
C262 H282 0.931 . S
C263 C259 1.460 . S
C263 C262 1.477 . S
C263 H283 0.930 . S
C264 N260 1.362 . S
C264 C261 1.431 . S
C264 C274 1.476 . S
H265 C259 0.929 . S
C266 O257 1.250 . S
C266 O258 1.258 . S
O267 Mn252 2.162 . S
O267 C255 1.281 . S
O268 Mn252 2.297 . S
O268 C255 1.236 . S
N269 Mn253 2.282 . S
N269 C270 1.328 . S
N269 C274 1.318 . S
C270 N269 1.328 . S
C270 C271 1.457 . S
C270 H275 0.929 . S
C271 C270 1.457 . S
C271 C272 1.291 . S
C271 H284 0.931 . S
C272 C271 1.291 . S
C272 C273 1.373 . S
C272 H285 0.929 . S
C273 C272 1.373 . S
C273 C274 1.396 . S
C273 C280 1.403 . S
C274 C264 1.476 . S
C274 N269 1.318 . S
C274 C273 1.396 . S
H275 C270 0.929 . S
O276 Mn252 2.385 . S
O276 C254 1.234 . S
O277 Mn252 2.209 . S
O277 Mn253 2.215 . S
O277 C254 1.283 . S
O278 Mn252 2.094 . S
O278 C256 1.240 . S
O279 Mn253 2.117 . S
O279 C256 1.264 . S
C280 C273 1.403 . S
C280 C281 1.399 . S
C280 H286 0.929 . S
C281 C261 1.449 . S
C281 C280 1.399 . S
C281 H287 0.930 . S
H282 C262 0.931 . S
H283 C263 0.930 . S
H284 C271 0.931 . S
H285 C272 0.929 . S
H286 C280 0.929 . S
H287 C281 0.930 . S
Mn288 O293 2.095 . S
Mn288 O303 2.162 . S
Mn288 O304 2.297 . S
Mn288 O312 2.385 . S
Mn288 O313 2.209 . S
Mn288 O314 2.094 . S
Mn289 O294 2.121 . S
Mn289 N296 2.257 . S
Mn289 N305 2.282 . S
Mn289 O313 2.215 . S
Mn289 O315 2.117 . S
C290 O312 1.234 . S
C290 O313 1.283 . S
C291 O303 1.281 . S
C291 O304 1.236 . S
C292 O314 1.240 . S
C292 O315 1.264 . S
O293 Mn288 2.095 . S
O293 C302 1.250 . S
O294 Mn289 2.121 . S
O294 C302 1.258 . S
C295 N296 1.326 . S
C295 C299 1.460 . S
C295 H301 0.929 . S
N296 Mn289 2.257 . S
N296 C295 1.326 . S
N296 C300 1.362 . S
C297 C298 1.258 . S
C297 C300 1.431 . S
C297 C317 1.449 . S
C298 C297 1.258 . S
C298 C299 1.477 . S
C298 H318 0.931 . S
C299 C295 1.460 . S
C299 C298 1.477 . S
C299 H319 0.930 . S
C300 N296 1.362 . S
C300 C297 1.431 . S
C300 C310 1.476 . S
H301 C295 0.929 . S
C302 O293 1.250 . S
C302 O294 1.258 . S
O303 Mn288 2.162 . S
O303 C291 1.281 . S
O304 Mn288 2.297 . S
O304 C291 1.236 . S
N305 Mn289 2.282 . S
N305 C306 1.328 . S
N305 C310 1.318 . S
C306 N305 1.328 . S
C306 C307 1.457 . S
C306 H311 0.929 . S
C307 C306 1.457 . S
C307 C308 1.291 . S
C307 H320 0.931 . S
C308 C307 1.291 . S
C308 C309 1.373 . S
C308 H321 0.929 . S
C309 C308 1.373 . S
C309 C310 1.396 . S
C309 C316 1.403 . S
C310 C300 1.476 . S
C310 N305 1.318 . S
C310 C309 1.396 . S
H311 C306 0.929 . S
O312 Mn288 2.385 . S
O312 C290 1.234 . S
O313 Mn288 2.209 . S
O313 Mn289 2.215 . S
O313 C290 1.283 . S
O314 Mn288 2.094 . S
O314 C292 1.240 . S
O315 Mn289 2.117 . S
O315 C292 1.264 . S
C316 C309 1.403 . S
C316 C317 1.399 . S
C316 H322 0.929 . S
C317 C297 1.449 . S
C317 C316 1.399 . S
C317 H323 0.930 . S
H318 C298 0.931 . S
H319 C299 0.930 . S
H320 C307 0.931 . S
H321 C308 0.929 . S
H322 C316 0.929 . S
H323 C317 0.930 . S
Mn324 O329 2.095 . S
Mn324 O339 2.162 . S
Mn324 O340 2.297 . S
Mn324 O348 2.385 . S
Mn324 O349 2.209 . S
Mn324 O350 2.094 . S
Mn325 O330 2.121 . S
Mn325 N332 2.257 . S
Mn325 N341 2.282 . S
Mn325 O349 2.215 . S
Mn325 O351 2.117 . S
C326 O348 1.234 . S
C326 O349 1.283 . S
C327 O339 1.281 . S
C327 O340 1.236 . S
C328 O350 1.240 . S
C328 O351 1.264 . S
O329 Mn324 2.095 . S
O329 C338 1.250 . S
O330 Mn325 2.121 . S
O330 C338 1.258 . S
C331 N332 1.326 . S
C331 C335 1.460 . S
C331 H337 0.929 . S
N332 Mn325 2.257 . S
N332 C331 1.326 . S
N332 C336 1.362 . S
C333 C334 1.258 . S
C333 C336 1.431 . S
C333 C353 1.449 . S
C334 C333 1.258 . S
C334 C335 1.477 . S
C334 H354 0.931 . S
C335 C331 1.460 . S
C335 C334 1.477 . S
C335 H355 0.930 . S
C336 N332 1.362 . S
C336 C333 1.431 . S
C336 C346 1.476 . S
H337 C331 0.929 . S
C338 O329 1.250 . S
C338 O330 1.258 . S
O339 Mn324 2.162 . S
O339 C327 1.281 . S
O340 Mn324 2.297 . S
O340 C327 1.236 . S
N341 Mn325 2.282 . S
N341 C342 1.328 . S
N341 C346 1.318 . S
C342 N341 1.328 . S
C342 C343 1.457 . S
C342 H347 0.929 . S
C343 C342 1.457 . S
C343 C344 1.291 . S
C343 H356 0.931 . S
C344 C343 1.291 . S
C344 C345 1.373 . S
C344 H357 0.929 . S
C345 C344 1.373 . S
C345 C346 1.396 . S
C345 C352 1.403 . S
C346 C336 1.476 . S
C346 N341 1.318 . S
C346 C345 1.396 . S
H347 C342 0.929 . S
O348 Mn324 2.385 . S
O348 C326 1.234 . S
O349 Mn324 2.209 . S
O349 Mn325 2.215 . S
O349 C326 1.283 . S
O350 Mn324 2.094 . S
O350 C328 1.240 . S
O351 Mn325 2.117 . S
O351 C328 1.264 . S
C352 C345 1.403 . S
C352 C353 1.399 . S
C352 H358 0.929 . S
C353 C333 1.449 . S
C353 C352 1.399 . S
C353 H359 0.930 . S
H354 C334 0.931 . S
H355 C335 0.930 . S
H356 C343 0.931 . S
H357 C344 0.929 . S
H358 C352 0.929 . S
H359 C353 0.930 . S
Mn360 O365 2.095 . S
Mn360 O375 2.162 . S
Mn360 O376 2.297 . S
Mn360 O384 2.385 . S
Mn360 O385 2.209 . S
Mn360 O386 2.094 . S
Mn361 O366 2.121 . S
Mn361 N368 2.257 . S
Mn361 N377 2.282 . S
Mn361 O385 2.215 . S
Mn361 O387 2.117 . S
C362 O384 1.234 . S
C362 O385 1.283 . S
C363 O375 1.281 . S
C363 O376 1.236 . S
C364 O386 1.240 . S
C364 O387 1.264 . S
O365 Mn360 2.095 . S
O365 C374 1.250 . S
O366 Mn361 2.121 . S
O366 C374 1.258 . S
C367 N368 1.326 . S
C367 C371 1.460 . S
C367 H373 0.929 . S
N368 Mn361 2.257 . S
N368 C367 1.326 . S
N368 C372 1.362 . S
C369 C370 1.258 . S
C369 C372 1.431 . S
C369 C389 1.449 . S
C370 C369 1.258 . S
C370 C371 1.477 . S
C370 H390 0.931 . S
C371 C367 1.460 . S
C371 C370 1.477 . S
C371 H391 0.930 . S
C372 N368 1.362 . S
C372 C369 1.431 . S
C372 C382 1.476 . S
H373 C367 0.929 . S
C374 O365 1.250 . S
C374 O366 1.258 . S
O375 Mn360 2.162 . S
O375 C363 1.281 . S
O376 Mn360 2.297 . S
O376 C363 1.236 . S
N377 Mn361 2.282 . S
N377 C378 1.328 . S
N377 C382 1.318 . S
C378 N377 1.328 . S
C378 C379 1.457 . S
C378 H383 0.929 . S
C379 C378 1.457 . S
C379 C380 1.291 . S
C379 H392 0.931 . S
C380 C379 1.291 . S
C380 C381 1.373 . S
C380 H393 0.929 . S
C381 C380 1.373 . S
C381 C382 1.396 . S
C381 C388 1.403 . S
C382 C372 1.476 . S
C382 N377 1.318 . S
C382 C381 1.396 . S
H383 C378 0.929 . S
O384 Mn360 2.385 . S
O384 C362 1.234 . S
O385 Mn360 2.209 . S
O385 Mn361 2.215 . S
O385 C362 1.283 . S
O386 Mn360 2.094 . S
O386 C364 1.240 . S
O387 Mn361 2.117 . S
O387 C364 1.264 . S
C388 C381 1.403 . S
C388 C389 1.399 . S
C388 H394 0.929 . S
C389 C369 1.449 . S
C389 C388 1.399 . S
C389 H395 0.930 . S
H390 C370 0.931 . S
H391 C371 0.930 . S
H392 C379 0.931 . S
H393 C380 0.929 . S
H394 C388 0.929 . S
H395 C389 0.930 . S
Mn396 O401 2.095 . S
Mn396 O411 2.162 . S
Mn396 O412 2.297 . S
Mn396 O420 2.385 . S
Mn396 O421 2.209 . S
Mn396 O422 2.094 . S
Mn397 O402 2.121 . S
Mn397 N404 2.257 . S
Mn397 N413 2.282 . S
Mn397 O421 2.215 . S
Mn397 O423 2.117 . S
C398 O420 1.234 . S
C398 O421 1.283 . S
C399 O411 1.281 . S
C399 O412 1.236 . S
C400 O422 1.240 . S
C400 O423 1.264 . S
O401 Mn396 2.095 . S
O401 C410 1.250 . S
O402 Mn397 2.121 . S
O402 C410 1.258 . S
C403 N404 1.326 . S
C403 C407 1.460 . S
C403 H409 0.929 . S
N404 Mn397 2.257 . S
N404 C403 1.326 . S
N404 C408 1.362 . S
C405 C406 1.258 . S
C405 C408 1.431 . S
C405 C425 1.449 . S
C406 C405 1.258 . S
C406 C407 1.477 . S
C406 H426 0.931 . S
C407 C403 1.460 . S
C407 C406 1.477 . S
C407 H427 0.930 . S
C408 N404 1.362 . S
C408 C405 1.431 . S
C408 C418 1.476 . S
H409 C403 0.929 . S
C410 O401 1.250 . S
C410 O402 1.258 . S
O411 Mn396 2.162 . S
O411 C399 1.281 . S
O412 Mn396 2.297 . S
O412 C399 1.236 . S
N413 Mn397 2.282 . S
N413 C414 1.328 . S
N413 C418 1.318 . S
C414 N413 1.328 . S
C414 C415 1.457 . S
C414 H419 0.929 . S
C415 C414 1.457 . S
C415 C416 1.291 . S
C415 H428 0.931 . S
C416 C415 1.291 . S
C416 C417 1.373 . S
C416 H429 0.929 . S
C417 C416 1.373 . S
C417 C418 1.396 . S
C417 C424 1.403 . S
C418 C408 1.476 . S
C418 N413 1.318 . S
C418 C417 1.396 . S
H419 C414 0.929 . S
O420 Mn396 2.385 . S
O420 C398 1.234 . S
O421 Mn396 2.209 . S
O421 Mn397 2.215 . S
O421 C398 1.283 . S
O422 Mn396 2.094 . S
O422 C400 1.240 . S
O423 Mn397 2.117 . S
O423 C400 1.264 . S
C424 C417 1.403 . S
C424 C425 1.399 . S
C424 H430 0.929 . S
C425 C405 1.449 . S
C425 C424 1.399 . S
C425 H431 0.930 . S
H426 C406 0.931 . S
H427 C407 0.930 . S
H428 C415 0.931 . S
H429 C416 0.929 . S
H430 C424 0.929 . S
H431 C425 0.930 . S
Mn432 O437 2.095 . S
Mn432 O447 2.162 . S
Mn432 O448 2.297 . S
Mn432 O456 2.385 . S
Mn432 O457 2.209 . S
Mn432 O458 2.094 . S
Mn433 O438 2.121 . S
Mn433 N440 2.257 . S
Mn433 N449 2.282 . S
Mn433 O457 2.215 . S
Mn433 O459 2.117 . S
C434 O456 1.234 . S
C434 O457 1.283 . S
C435 O447 1.281 . S
C435 O448 1.236 . S
C436 O458 1.240 . S
C436 O459 1.264 . S
O437 Mn432 2.095 . S
O437 C446 1.250 . S
O438 Mn433 2.121 . S
O438 C446 1.258 . S
C439 N440 1.326 . S
C439 C443 1.460 . S
C439 H445 0.929 . S
N440 Mn433 2.257 . S
N440 C439 1.326 . S
N440 C444 1.362 . S
C441 C442 1.258 . S
C441 C444 1.431 . S
C441 C461 1.449 . S
C442 C441 1.258 . S
C442 C443 1.477 . S
C442 H462 0.931 . S
C443 C439 1.460 . S
C443 C442 1.477 . S
C443 H463 0.930 . S
C444 N440 1.362 . S
C444 C441 1.431 . S
C444 C454 1.476 . S
H445 C439 0.929 . S
C446 O437 1.250 . S
C446 O438 1.258 . S
O447 Mn432 2.162 . S
O447 C435 1.281 . S
O448 Mn432 2.297 . S
O448 C435 1.236 . S
N449 Mn433 2.282 . S
N449 C450 1.328 . S
N449 C454 1.318 . S
C450 N449 1.328 . S
C450 C451 1.457 . S
C450 H455 0.929 . S
C451 C450 1.457 . S
C451 C452 1.291 . S
C451 H464 0.931 . S
C452 C451 1.291 . S
C452 C453 1.373 . S
C452 H465 0.929 . S
C453 C452 1.373 . S
C453 C454 1.396 . S
C453 C460 1.403 . S
C454 C444 1.476 . S
C454 N449 1.318 . S
C454 C453 1.396 . S
H455 C450 0.929 . S
O456 Mn432 2.385 . S
O456 C434 1.234 . S
O457 Mn432 2.209 . S
O457 Mn433 2.215 . S
O457 C434 1.283 . S
O458 Mn432 2.094 . S
O458 C436 1.240 . S
O459 Mn433 2.117 . S
O459 C436 1.264 . S
C460 C453 1.403 . S
C460 C461 1.399 . S
C460 H466 0.929 . S
C461 C441 1.449 . S
C461 C460 1.399 . S
C461 H467 0.930 . S
H462 C442 0.931 . S
H463 C443 0.930 . S
H464 C451 0.931 . S
H465 C452 0.929 . S
H466 C460 0.929 . S
H467 C461 0.930 . S
Mn468 O473 2.095 . S
Mn468 O483 2.162 . S
Mn468 O484 2.297 . S
Mn468 O492 2.385 . S
Mn468 O493 2.209 . S
Mn468 O494 2.094 . S
Mn469 O474 2.121 . S
Mn469 N476 2.257 . S
Mn469 N485 2.282 . S
Mn469 O493 2.215 . S
Mn469 O495 2.117 . S
C470 O492 1.234 . S
C470 O493 1.283 . S
C471 O483 1.281 . S
C471 O484 1.236 . S
C472 O494 1.240 . S
C472 O495 1.264 . S
O473 Mn468 2.095 . S
O473 C482 1.250 . S
O474 Mn469 2.121 . S
O474 C482 1.258 . S
C475 N476 1.326 . S
C475 C479 1.460 . S
C475 H481 0.929 . S
N476 Mn469 2.257 . S
N476 C475 1.326 . S
N476 C480 1.362 . S
C477 C478 1.258 . S
C477 C480 1.431 . S
C477 C497 1.449 . S
C478 C477 1.258 . S
C478 C479 1.477 . S
C478 H498 0.931 . S
C479 C475 1.460 . S
C479 C478 1.477 . S
C479 H499 0.930 . S
C480 N476 1.362 . S
C480 C477 1.431 . S
C480 C490 1.476 . S
H481 C475 0.929 . S
C482 O473 1.250 . S
C482 O474 1.258 . S
O483 Mn468 2.162 . S
O483 C471 1.281 . S
O484 Mn468 2.297 . S
O484 C471 1.236 . S
N485 Mn469 2.282 . S
N485 C486 1.328 . S
N485 C490 1.318 . S
C486 N485 1.328 . S
C486 C487 1.457 . S
C486 H491 0.929 . S
C487 C486 1.457 . S
C487 C488 1.291 . S
C487 H500 0.931 . S
C488 C487 1.291 . S
C488 C489 1.373 . S
C488 H501 0.929 . S
C489 C488 1.373 . S
C489 C490 1.396 . S
C489 C496 1.403 . S
C490 C480 1.476 . S
C490 N485 1.318 . S
C490 C489 1.396 . S
H491 C486 0.929 . S
O492 Mn468 2.385 . S
O492 C470 1.234 . S
O493 Mn468 2.209 . S
O493 Mn469 2.215 . S
O493 C470 1.283 . S
O494 Mn468 2.094 . S
O494 C472 1.240 . S
O495 Mn469 2.117 . S
O495 C472 1.264 . S
C496 C489 1.403 . S
C496 C497 1.399 . S
C496 H502 0.929 . S
C497 C477 1.449 . S
C497 C496 1.399 . S
C497 H503 0.930 . S
H498 C478 0.931 . S
H499 C479 0.930 . S
H500 C487 0.931 . S
H501 C488 0.929 . S
H502 C496 0.929 . S
H503 C497 0.930 . S
Mn504 O509 2.095 . S
Mn504 O519 2.162 . S
Mn504 O520 2.297 . S
Mn504 O528 2.385 . S
Mn504 O529 2.209 . S
Mn504 O530 2.094 . S
Mn505 O510 2.121 . S
Mn505 N512 2.257 . S
Mn505 N521 2.282 . S
Mn505 O529 2.215 . S
Mn505 O531 2.117 . S
C506 O528 1.234 . S
C506 O529 1.283 . S
C507 O519 1.281 . S
C507 O520 1.236 . S
C508 O530 1.240 . S
C508 O531 1.264 . S
O509 Mn504 2.095 . S
O509 C518 1.250 . S
O510 Mn505 2.121 . S
O510 C518 1.258 . S
C511 N512 1.326 . S
C511 C515 1.460 . S
C511 H517 0.929 . S
N512 Mn505 2.257 . S
N512 C511 1.326 . S
N512 C516 1.362 . S
C513 C514 1.258 . S
C513 C516 1.431 . S
C513 C533 1.449 . S
C514 C513 1.258 . S
C514 C515 1.477 . S
C514 H534 0.931 . S
C515 C511 1.460 . S
C515 C514 1.477 . S
C515 H535 0.930 . S
C516 N512 1.362 . S
C516 C513 1.431 . S
C516 C526 1.476 . S
H517 C511 0.929 . S
C518 O509 1.250 . S
C518 O510 1.258 . S
O519 Mn504 2.162 . S
O519 C507 1.281 . S
O520 Mn504 2.297 . S
O520 C507 1.236 . S
N521 Mn505 2.282 . S
N521 C522 1.328 . S
N521 C526 1.318 . S
C522 N521 1.328 . S
C522 C523 1.457 . S
C522 H527 0.929 . S
C523 C522 1.457 . S
C523 C524 1.291 . S
C523 H536 0.931 . S
C524 C523 1.291 . S
C524 C525 1.373 . S
C524 H537 0.929 . S
C525 C524 1.373 . S
C525 C526 1.396 . S
C525 C532 1.403 . S
C526 C516 1.476 . S
C526 N521 1.318 . S
C526 C525 1.396 . S
H527 C522 0.929 . S
O528 Mn504 2.385 . S
O528 C506 1.234 . S
O529 Mn504 2.209 . S
O529 Mn505 2.215 . S
O529 C506 1.283 . S
O530 Mn504 2.094 . S
O530 C508 1.240 . S
O531 Mn505 2.117 . S
O531 C508 1.264 . S
C532 C525 1.403 . S
C532 C533 1.399 . S
C532 H538 0.929 . S
C533 C513 1.449 . S
C533 C532 1.399 . S
C533 H539 0.930 . S
H534 C514 0.931 . S
H535 C515 0.930 . S
H536 C523 0.931 . S
H537 C524 0.929 . S
H538 C532 0.929 . S
H539 C533 0.930 . S
Mn540 O545 2.095 . S
Mn540 O555 2.162 . S
Mn540 O556 2.297 . S
Mn540 O564 2.385 . S
Mn540 O565 2.209 . S
Mn540 O566 2.094 . S
Mn541 O546 2.121 . S
Mn541 N548 2.257 . S
Mn541 N557 2.282 . S
Mn541 O565 2.215 . S
Mn541 O567 2.117 . S
C542 O564 1.234 . S
C542 O565 1.283 . S
C543 O555 1.281 . S
C543 O556 1.236 . S
C544 O566 1.240 . S
C544 O567 1.264 . S
O545 Mn540 2.095 . S
O545 C554 1.250 . S
O546 Mn541 2.121 . S
O546 C554 1.258 . S
C547 N548 1.326 . S
C547 C551 1.460 . S
C547 H553 0.929 . S
N548 Mn541 2.257 . S
N548 C547 1.326 . S
N548 C552 1.362 . S
C549 C550 1.258 . S
C549 C552 1.431 . S
C549 C569 1.449 . S
C550 C549 1.258 . S
C550 C551 1.477 . S
C550 H570 0.931 . S
C551 C547 1.460 . S
C551 C550 1.477 . S
C551 H571 0.930 . S
C552 N548 1.362 . S
C552 C549 1.431 . S
C552 C562 1.476 . S
H553 C547 0.929 . S
C554 O545 1.250 . S
C554 O546 1.258 . S
O555 Mn540 2.162 . S
O555 C543 1.281 . S
O556 Mn540 2.297 . S
O556 C543 1.236 . S
N557 Mn541 2.282 . S
N557 C558 1.328 . S
N557 C562 1.318 . S
C558 N557 1.328 . S
C558 C559 1.457 . S
C558 H563 0.929 . S
C559 C558 1.457 . S
C559 C560 1.291 . S
C559 H572 0.931 . S
C560 C559 1.291 . S
C560 C561 1.373 . S
C560 H573 0.929 . S
C561 C560 1.373 . S
C561 C562 1.396 . S
C561 C568 1.403 . S
C562 C552 1.476 . S
C562 N557 1.318 . S
C562 C561 1.396 . S
H563 C558 0.929 . S
O564 Mn540 2.385 . S
O564 C542 1.234 . S
O565 Mn540 2.209 . S
O565 Mn541 2.215 . S
O565 C542 1.283 . S
O566 Mn540 2.094 . S
O566 C544 1.240 . S
O567 Mn541 2.117 . S
O567 C544 1.264 . S
C568 C561 1.403 . S
C568 C569 1.399 . S
C568 H574 0.929 . S
C569 C549 1.449 . S
C569 C568 1.399 . S
C569 H575 0.930 . S
H570 C550 0.931 . S
H571 C551 0.930 . S
H572 C559 0.931 . S
H573 C560 0.929 . S
H574 C568 0.929 . S
H575 C569 0.930 . S
Mn576 O581 2.095 . S
Mn576 O591 2.162 . S
Mn576 O592 2.297 . S
Mn576 O600 2.385 . S
Mn576 O601 2.209 . S
Mn576 O602 2.094 . S
Mn577 O582 2.121 . S
Mn577 N584 2.257 . S
Mn577 N593 2.282 . S
Mn577 O601 2.215 . S
Mn577 O603 2.117 . S
C578 O600 1.234 . S
C578 O601 1.283 . S
C579 O591 1.281 . S
C579 O592 1.236 . S
C580 O602 1.240 . S
C580 O603 1.264 . S
O581 Mn576 2.095 . S
O581 C590 1.250 . S
O582 Mn577 2.121 . S
O582 C590 1.258 . S
C583 N584 1.326 . S
C583 C587 1.460 . S
C583 H589 0.929 . S
N584 Mn577 2.257 . S
N584 C583 1.326 . S
N584 C588 1.362 . S
C585 C586 1.258 . S
C585 C588 1.431 . S
C585 C605 1.449 . S
C586 C585 1.258 . S
C586 C587 1.477 . S
C586 H606 0.931 . S
C587 C583 1.460 . S
C587 C586 1.477 . S
C587 H607 0.930 . S
C588 N584 1.362 . S
C588 C585 1.431 . S
C588 C598 1.476 . S
H589 C583 0.929 . S
C590 O581 1.250 . S
C590 O582 1.258 . S
O591 Mn576 2.162 . S
O591 C579 1.281 . S
O592 Mn576 2.297 . S
O592 C579 1.236 . S
N593 Mn577 2.282 . S
N593 C594 1.328 . S
N593 C598 1.318 . S
C594 N593 1.328 . S
C594 C595 1.457 . S
C594 H599 0.929 . S
C595 C594 1.457 . S
C595 C596 1.291 . S
C595 H608 0.931 . S
C596 C595 1.291 . S
C596 C597 1.373 . S
C596 H609 0.929 . S
C597 C596 1.373 . S
C597 C598 1.396 . S
C597 C604 1.403 . S
C598 C588 1.476 . S
C598 N593 1.318 . S
C598 C597 1.396 . S
H599 C594 0.929 . S
O600 Mn576 2.385 . S
O600 C578 1.234 . S
O601 Mn576 2.209 . S
O601 Mn577 2.215 . S
O601 C578 1.283 . S
O602 Mn576 2.094 . S
O602 C580 1.240 . S
O603 Mn577 2.117 . S
O603 C580 1.264 . S
C604 C597 1.403 . S
C604 C605 1.399 . S
C604 H610 0.929 . S
C605 C585 1.449 . S
C605 C604 1.399 . S
C605 H611 0.930 . S
H606 C586 0.931 . S
H607 C587 0.930 . S
H608 C595 0.931 . S
H609 C596 0.929 . S
H610 C604 0.929 . S
H611 C605 0.930 . S
Mn612 O617 2.095 . S
Mn612 O627 2.162 . S
Mn612 O628 2.297 . S
Mn612 O636 2.385 . S
Mn612 O637 2.209 . S
Mn612 O638 2.094 . S
Mn613 O618 2.121 . S
Mn613 N620 2.257 . S
Mn613 N629 2.282 . S
Mn613 O637 2.215 . S
Mn613 O639 2.117 . S
C614 O636 1.234 . S
C614 O637 1.283 . S
C615 O627 1.281 . S
C615 O628 1.236 . S
C616 O638 1.240 . S
C616 O639 1.264 . S
O617 Mn612 2.095 . S
O617 C626 1.250 . S
O618 Mn613 2.121 . S
O618 C626 1.258 . S
C619 N620 1.326 . S
C619 C623 1.460 . S
C619 H625 0.929 . S
N620 Mn613 2.257 . S
N620 C619 1.326 . S
N620 C624 1.362 . S
C621 C622 1.258 . S
C621 C624 1.431 . S
C621 C641 1.449 . S
C622 C621 1.258 . S
C622 C623 1.477 . S
C622 H642 0.931 . S
C623 C619 1.460 . S
C623 C622 1.477 . S
C623 H643 0.930 . S
C624 N620 1.362 . S
C624 C621 1.431 . S
C624 C634 1.476 . S
H625 C619 0.929 . S
C626 O617 1.250 . S
C626 O618 1.258 . S
O627 Mn612 2.162 . S
O627 C615 1.281 . S
O628 Mn612 2.297 . S
O628 C615 1.236 . S
N629 Mn613 2.282 . S
N629 C630 1.328 . S
N629 C634 1.318 . S
C630 N629 1.328 . S
C630 C631 1.457 . S
C630 H635 0.929 . S
C631 C630 1.457 . S
C631 C632 1.291 . S
C631 H644 0.931 . S
C632 C631 1.291 . S
C632 C633 1.373 . S
C632 H645 0.929 . S
C633 C632 1.373 . S
C633 C634 1.396 . S
C633 C640 1.403 . S
C634 C624 1.476 . S
C634 N629 1.318 . S
C634 C633 1.396 . S
H635 C630 0.929 . S
O636 Mn612 2.385 . S
O636 C614 1.234 . S
O637 Mn612 2.209 . S
O637 Mn613 2.215 . S
O637 C614 1.283 . S
O638 Mn612 2.094 . S
O638 C616 1.240 . S
O639 Mn613 2.117 . S
O639 C616 1.264 . S
C640 C633 1.403 . S
C640 C641 1.399 . S
C640 H646 0.929 . S
C641 C621 1.449 . S
C641 C640 1.399 . S
C641 H647 0.930 . S
H642 C622 0.931 . S
H643 C623 0.930 . S
H644 C631 0.931 . S
H645 C632 0.929 . S
H646 C640 0.929 . S
H647 C641 0.930 . S
C648 C649 1.349 . S
C648 C650 1.327 . S
C648 H673 0.950 . S
C649 C648 1.349 . S
C649 C665 1.349 . S
C650 C648 1.327 . S
C650 C669 1.429 . S
C650 H674 0.950 . S
C651 C668 1.574 . S
C651 C670 1.368 . S
C651 H675 0.949 . S
H652 C656 0.949 . S
C653 C654 1.349 . S
C653 C655 1.327 . S
C653 H676 0.950 . S
C654 C653 1.349 . S
C654 C666 1.349 . S
C655 C653 1.327 . S
C655 C671 1.429 . S
C655 H677 0.950 . S
C656 H652 0.949 . S
C656 C664 1.574 . S
C656 C672 1.368 . S
H657 C665 0.950 . S
H658 C663 0.950 . S
H659 C664 0.949 . S
H660 C666 0.950 . S
H661 C667 0.950 . S
H662 C668 0.949 . S
C663 H658 0.950 . S
C663 C665 1.327 . S
C663 C669 1.429 . S
C664 C656 1.574 . S
C664 H659 0.949 . S
C664 C670 1.368 . S
C665 C649 1.349 . S
C665 H657 0.950 . S
C665 C663 1.327 . S
C666 C654 1.349 . S
C666 H660 0.950 . S
C666 C667 1.327 . S
C667 H661 0.950 . S
C667 C666 1.327 . S
C667 C671 1.429 . S
C668 C651 1.574 . S
C668 H662 0.949 . S
C668 C672 1.368 . S
C669 C650 1.429 . S
C669 C663 1.429 . S
C669 C670 1.523 . S
C670 C651 1.368 . S
C670 C664 1.368 . S
C670 C669 1.523 . S
C671 C655 1.429 . S
C671 C667 1.429 . S
C671 C672 1.523 . S
C672 C656 1.368 . S
C672 C668 1.368 . S
C672 C671 1.523 . S
H673 C648 0.950 . S
H674 C650 0.950 . S
H675 C651 0.949 . S
H676 C653 0.950 . S
H677 C655 0.950 . S
C678 C679 1.349 . S
C678 C680 1.327 . S
C678 H703 0.950 . S
C679 C678 1.349 . S
C679 C695 1.349 . S
C680 C678 1.327 . S
C680 C699 1.429 . S
C680 H704 0.950 . S
C681 C698 1.574 . S
C681 C700 1.368 . S
C681 H705 0.949 . S
H682 C686 0.949 . S
C683 C684 1.349 . S
C683 C685 1.327 . S
C683 H706 0.950 . S
C684 C683 1.349 . S
C684 C696 1.349 . S
C685 C683 1.327 . S
C685 C701 1.429 . S
C685 H707 0.950 . S
C686 H682 0.949 . S
C686 C694 1.574 . S
C686 C702 1.368 . S
H687 C695 0.950 . S
H688 C693 0.950 . S
H689 C694 0.949 . S
H690 C696 0.950 . S
H691 C697 0.950 . S
H692 C698 0.949 . S
C693 H688 0.950 . S
C693 C695 1.327 . S
C693 C699 1.429 . S
C694 C686 1.574 . S
C694 H689 0.949 . S
C694 C700 1.368 . S
C695 C679 1.349 . S
C695 H687 0.950 . S
C695 C693 1.327 . S
C696 C684 1.349 . S
C696 H690 0.950 . S
C696 C697 1.327 . S
C697 H691 0.950 . S
C697 C696 1.327 . S
C697 C701 1.429 . S
C698 C681 1.574 . S
C698 H692 0.949 . S
C698 C702 1.368 . S
C699 C680 1.429 . S
C699 C693 1.429 . S
C699 C700 1.523 . S
C700 C681 1.368 . S
C700 C694 1.368 . S
C700 C699 1.523 . S
C701 C685 1.429 . S
C701 C697 1.429 . S
C701 C702 1.523 . S
C702 C686 1.368 . S
C702 C698 1.368 . S
C702 C701 1.523 . S
H703 C678 0.950 . S
H704 C680 0.950 . S
H705 C681 0.949 . S
H706 C683 0.950 . S
H707 C685 0.950 . S
C708 C709 1.349 . S
C708 C710 1.327 . S
C708 H733 0.950 . S
C709 C708 1.349 . S
C709 C725 1.349 . S
C710 C708 1.327 . S
C710 C729 1.429 . S
C710 H734 0.950 . S
C711 C728 1.574 . S
C711 C730 1.368 . S
C711 H735 0.949 . S
H712 C716 0.949 . S
C713 C714 1.349 . S
C713 C715 1.327 . S
C713 H736 0.950 . S
C714 C713 1.349 . S
C714 C726 1.349 . S
C715 C713 1.327 . S
C715 C731 1.429 . S
C715 H737 0.950 . S
C716 H712 0.949 . S
C716 C724 1.574 . S
C716 C732 1.368 . S
H717 C725 0.950 . S
H718 C723 0.950 . S
H719 C724 0.949 . S
H720 C726 0.950 . S
H721 C727 0.950 . S
H722 C728 0.949 . S
C723 H718 0.950 . S
C723 C725 1.327 . S
C723 C729 1.429 . S
C724 C716 1.574 . S
C724 H719 0.949 . S
C724 C730 1.368 . S
C725 C709 1.349 . S
C725 H717 0.950 . S
C725 C723 1.327 . S
C726 C714 1.349 . S
C726 H720 0.950 . S
C726 C727 1.327 . S
C727 H721 0.950 . S
C727 C726 1.327 . S
C727 C731 1.429 . S
C728 C711 1.574 . S
C728 H722 0.949 . S
C728 C732 1.368 . S
C729 C710 1.429 . S
C729 C723 1.429 . S
C729 C730 1.523 . S
C730 C711 1.368 . S
C730 C724 1.368 . S
C730 C729 1.523 . S
C731 C715 1.429 . S
C731 C727 1.429 . S
C731 C732 1.523 . S
C732 C716 1.368 . S
C732 C728 1.368 . S
C732 C731 1.523 . S
H733 C708 0.950 . S
H734 C710 0.950 . S
H735 C711 0.949 . S
H736 C713 0.950 . S
H737 C715 0.950 . S
C738 C739 1.349 . S
C738 C740 1.327 . S
C738 H763 0.950 . S
C739 C738 1.349 . S
C739 C755 1.349 . S
C740 C738 1.327 . S
C740 C759 1.429 . S
C740 H764 0.950 . S
C741 C758 1.574 . S
C741 C760 1.368 . S
C741 H765 0.949 . S
H742 C746 0.949 . S
C743 C744 1.349 . S
C743 C745 1.327 . S
C743 H766 0.950 . S
C744 C743 1.349 . S
C744 C756 1.349 . S
C745 C743 1.327 . S
C745 C761 1.429 . S
C745 H767 0.950 . S
C746 H742 0.949 . S
C746 C754 1.574 . S
C746 C762 1.368 . S
H747 C755 0.950 . S
H748 C753 0.950 . S
H749 C754 0.949 . S
H750 C756 0.950 . S
H751 C757 0.950 . S
H752 C758 0.949 . S
C753 H748 0.950 . S
C753 C755 1.327 . S
C753 C759 1.429 . S
C754 C746 1.574 . S
C754 H749 0.949 . S
C754 C760 1.368 . S
C755 C739 1.349 . S
C755 H747 0.950 . S
C755 C753 1.327 . S
C756 C744 1.349 . S
C756 H750 0.950 . S
C756 C757 1.327 . S
C757 H751 0.950 . S
C757 C756 1.327 . S
C757 C761 1.429 . S
C758 C741 1.574 . S
C758 H752 0.949 . S
C758 C762 1.368 . S
C759 C740 1.429 . S
C759 C753 1.429 . S
C759 C760 1.523 . S
C760 C741 1.368 . S
C760 C754 1.368 . S
C760 C759 1.523 . S
C761 C745 1.429 . S
C761 C757 1.429 . S
C761 C762 1.523 . S
C762 C746 1.368 . S
C762 C758 1.368 . S
C762 C761 1.523 . S
H763 C738 0.950 . S
H764 C740 0.950 . S
H765 C741 0.949 . S
H766 C743 0.950 . S
H767 C745 0.950 . S
C768 C769 1.349 . S
C768 C770 1.327 . S
C768 H793 0.950 . S
C769 C768 1.349 . S
C769 C785 1.349 . S
C770 C768 1.327 . S
C770 C789 1.429 . S
C770 H794 0.950 . S
C771 C788 1.574 . S
C771 C790 1.368 . S
C771 H795 0.949 . S
H772 C776 0.949 . S
C773 C774 1.349 . S
C773 C775 1.327 . S
C773 H796 0.950 . S
C774 C773 1.349 . S
C774 C786 1.349 . S
C775 C773 1.327 . S
C775 C791 1.429 . S
C775 H797 0.950 . S
C776 H772 0.949 . S
C776 C784 1.574 . S
C776 C792 1.368 . S
H777 C785 0.950 . S
H778 C783 0.950 . S
H779 C784 0.949 . S
H780 C786 0.950 . S
H781 C787 0.950 . S
H782 C788 0.949 . S
C783 H778 0.950 . S
C783 C785 1.327 . S
C783 C789 1.429 . S
C784 C776 1.574 . S
C784 H779 0.949 . S
C784 C790 1.368 . S
C785 C769 1.349 . S
C785 H777 0.950 . S
C785 C783 1.327 . S
C786 C774 1.349 . S
C786 H780 0.950 . S
C786 C787 1.327 . S
C787 H781 0.950 . S
C787 C786 1.327 . S
C787 C791 1.429 . S
C788 C771 1.574 . S
C788 H782 0.949 . S
C788 C792 1.368 . S
C789 C770 1.429 . S
C789 C783 1.429 . S
C789 C790 1.523 . S
C790 C771 1.368 . S
C790 C784 1.368 . S
C790 C789 1.523 . S
C791 C775 1.429 . S
C791 C787 1.429 . S
C791 C792 1.523 . S
C792 C776 1.368 . S
C792 C788 1.368 . S
C792 C791 1.523 . S
H793 C768 0.950 . S
H794 C770 0.950 . S
H795 C771 0.949 . S
H796 C773 0.950 . S
H797 C775 0.950 . S
C798 C799 1.349 . S
C798 C800 1.327 . S
C798 H823 0.950 . S
C799 C798 1.349 . S
C799 C815 1.349 . S
C800 C798 1.327 . S
C800 C819 1.429 . S
C800 H824 0.950 . S
C801 C818 1.574 . S
C801 C820 1.368 . S
C801 H825 0.949 . S
H802 C806 0.949 . S
C803 C804 1.349 . S
C803 C805 1.327 . S
C803 H826 0.950 . S
C804 C803 1.349 . S
C804 C816 1.349 . S
C805 C803 1.327 . S
C805 C821 1.429 . S
C805 H827 0.950 . S
C806 H802 0.949 . S
C806 C814 1.574 . S
C806 C822 1.368 . S
H807 C815 0.950 . S
H808 C813 0.950 . S
H809 C814 0.949 . S
H810 C816 0.950 . S
H811 C817 0.950 . S
H812 C818 0.949 . S
C813 H808 0.950 . S
C813 C815 1.327 . S
C813 C819 1.429 . S
C814 C806 1.574 . S
C814 H809 0.949 . S
C814 C820 1.368 . S
C815 C799 1.349 . S
C815 H807 0.950 . S
C815 C813 1.327 . S
C816 C804 1.349 . S
C816 H810 0.950 . S
C816 C817 1.327 . S
C817 H811 0.950 . S
C817 C816 1.327 . S
C817 C821 1.429 . S
C818 C801 1.574 . S
C818 H812 0.949 . S
C818 C822 1.368 . S
C819 C800 1.429 . S
C819 C813 1.429 . S
C819 C820 1.523 . S
C820 C801 1.368 . S
C820 C814 1.368 . S
C820 C819 1.523 . S
C821 C805 1.429 . S
C821 C817 1.429 . S
C821 C822 1.523 . S
C822 C806 1.368 . S
C822 C818 1.368 . S
C822 C821 1.523 . S
H823 C798 0.950 . S
H824 C800 0.950 . S
H825 C801 0.949 . S
H826 C803 0.950 . S
H827 C805 0.950 . S
C828 C829 1.349 . S
C828 C830 1.327 . S
C828 H853 0.950 . S
C829 C828 1.349 . S
C829 C845 1.349 . S
C830 C828 1.327 . S
C830 C849 1.429 . S
C830 H854 0.950 . S
C831 C848 1.574 1_655 S
C831 C850 1.368 . S
C831 H855 0.949 . S
H832 C836 0.949 . S
C833 C834 1.349 . S
C833 C835 1.327 . S
C833 H856 0.950 . S
C834 C833 1.349 . S
C834 C846 1.349 . S
C835 C833 1.327 . S
C835 C851 1.429 . S
C835 H857 0.950 . S
C836 H832 0.949 . S
C836 C844 1.574 1_455 S
C836 C852 1.368 . S
H837 C845 0.950 . S
H838 C843 0.950 . S
H839 C844 0.949 . S
H840 C846 0.950 . S
H841 C847 0.950 . S
H842 C848 0.949 . S
C843 H838 0.950 . S
C843 C845 1.327 . S
C843 C849 1.429 . S
C844 C836 1.574 1_655 S
C844 H839 0.949 . S
C844 C850 1.368 . S
C845 C829 1.349 . S
C845 H837 0.950 . S
C845 C843 1.327 . S
C846 C834 1.349 . S
C846 H840 0.950 . S
C846 C847 1.327 . S
C847 H841 0.950 . S
C847 C846 1.327 . S
C847 C851 1.429 . S
C848 C831 1.574 1_455 S
C848 H842 0.949 . S
C848 C852 1.368 . S
C849 C830 1.429 . S
C849 C843 1.429 . S
C849 C850 1.523 . S
C850 C831 1.368 . S
C850 C844 1.368 . S
C850 C849 1.523 . S
C851 C835 1.429 . S
C851 C847 1.429 . S
C851 C852 1.523 . S
C852 C836 1.368 . S
C852 C848 1.368 . S
C852 C851 1.523 . S
H853 C828 0.950 . S
H854 C830 0.950 . S
H855 C831 0.949 . S
H856 C833 0.950 . S
H857 C835 0.950 . S
C858 C859 1.349 . S
C858 C860 1.327 . S
C858 H883 0.950 . S
C859 C858 1.349 . S
C859 C875 1.349 . S
C860 C858 1.327 . S
C860 C879 1.429 . S
C860 H884 0.950 . S
C861 C878 1.574 . S
C861 C880 1.368 . S
C861 H885 0.949 . S
H862 C866 0.949 . S
C863 C864 1.349 . S
C863 C865 1.327 . S
C863 H886 0.950 . S
C864 C863 1.349 . S
C864 C876 1.349 . S
C865 C863 1.327 . S
C865 C881 1.429 . S
C865 H887 0.950 . S
C866 H862 0.949 . S
C866 C874 1.574 . S
C866 C882 1.368 . S
H867 C875 0.950 . S
H868 C873 0.950 . S
H869 C874 0.949 . S
H870 C876 0.950 . S
H871 C877 0.950 . S
H872 C878 0.949 . S
C873 H868 0.950 . S
C873 C875 1.327 . S
C873 C879 1.429 . S
C874 C866 1.574 . S
C874 H869 0.949 . S
C874 C880 1.368 . S
C875 C859 1.349 . S
C875 H867 0.950 . S
C875 C873 1.327 . S
C876 C864 1.349 . S
C876 H870 0.950 . S
C876 C877 1.327 . S
C877 H871 0.950 . S
C877 C876 1.327 . S
C877 C881 1.429 . S
C878 C861 1.574 . S
C878 H872 0.949 . S
C878 C882 1.368 . S
C879 C860 1.429 . S
C879 C873 1.429 . S
C879 C880 1.523 . S
C880 C861 1.368 . S
C880 C874 1.368 . S
C880 C879 1.523 . S
C881 C865 1.429 . S
C881 C877 1.429 . S
C881 C882 1.523 . S
C882 C866 1.368 . S
C882 C878 1.368 . S
C882 C881 1.523 . S
H883 C858 0.950 . S
H884 C860 0.950 . S
H885 C861 0.949 . S
H886 C863 0.950 . S
H887 C865 0.950 . S
C888 C889 1.349 . S
C888 C890 1.327 . S
C888 H913 0.950 . S
C889 C888 1.349 . S
C889 C905 1.349 . S
C890 C888 1.327 . S
C890 C909 1.429 . S
C890 H914 0.950 . S
C891 C908 1.574 1_545 S
C891 C910 1.368 . S
C891 H915 0.949 . S
H892 C896 0.949 . S
C893 C894 1.349 . S
C893 C895 1.327 . S
C893 H916 0.950 . S
C894 C893 1.349 . S
C894 C906 1.349 . S
C895 C893 1.327 . S
C895 C911 1.429 . S
C895 H917 0.950 . S
C896 H892 0.949 . S
C896 C904 1.574 1_565 S
C896 C912 1.368 . S
H897 C905 0.950 . S
H898 C903 0.950 . S
H899 C904 0.949 . S
H900 C906 0.950 . S
H901 C907 0.950 . S
H902 C908 0.949 . S
C903 H898 0.950 . S
C903 C905 1.327 . S
C903 C909 1.429 . S
C904 C896 1.574 1_545 S
C904 H899 0.949 . S
C904 C910 1.368 . S
C905 C889 1.349 . S
C905 H897 0.950 . S
C905 C903 1.327 . S
C906 C894 1.349 . S
C906 H900 0.950 . S
C906 C907 1.327 . S
C907 H901 0.950 . S
C907 C906 1.327 . S
C907 C911 1.429 . S
C908 C891 1.574 1_565 S
C908 H902 0.949 . S
C908 C912 1.368 . S
C909 C890 1.429 . S
C909 C903 1.429 . S
C909 C910 1.523 . S
C910 C891 1.368 . S
C910 C904 1.368 . S
C910 C909 1.523 . S
C911 C895 1.429 . S
C911 C907 1.429 . S
C911 C912 1.523 . S
C912 C896 1.368 . S
C912 C908 1.368 . S
C912 C911 1.523 . S
H913 C888 0.950 . S
H914 C890 0.950 . S
H915 C891 0.949 . S
H916 C893 0.950 . S
H917 C895 0.950 . S
C918 C919 1.349 . S
C918 C920 1.327 . S
C918 H943 0.950 . S
C919 C918 1.349 . S
C919 C935 1.349 . S
C920 C918 1.327 . S
C920 C939 1.429 . S
C920 H944 0.950 . S
C921 C938 1.574 1_455 S
C921 C940 1.368 . S
C921 H945 0.949 . S
H922 C926 0.949 . S
C923 C924 1.349 . S
C923 C925 1.327 . S
C923 H946 0.950 . S
C924 C923 1.349 . S
C924 C936 1.349 . S
C925 C923 1.327 . S
C925 C941 1.429 . S
C925 H947 0.950 . S
C926 H922 0.949 . S
C926 C934 1.574 1_655 S
C926 C942 1.368 . S
H927 C935 0.950 . S
H928 C933 0.950 . S
H929 C934 0.949 . S
H930 C936 0.950 . S
H931 C937 0.950 . S
H932 C938 0.949 . S
C933 H928 0.950 . S
C933 C935 1.327 . S
C933 C939 1.429 . S
C934 C926 1.574 1_455 S
C934 H929 0.949 . S
C934 C940 1.368 . S
C935 C919 1.349 . S
C935 H927 0.950 . S
C935 C933 1.327 . S
C936 C924 1.349 . S
C936 H930 0.950 . S
C936 C937 1.327 . S
C937 H931 0.950 . S
C937 C936 1.327 . S
C937 C941 1.429 . S
C938 C921 1.574 1_655 S
C938 H932 0.949 . S
C938 C942 1.368 . S
C939 C920 1.429 . S
C939 C933 1.429 . S
C939 C940 1.523 . S
C940 C921 1.368 . S
C940 C934 1.368 . S
C940 C939 1.523 . S
C941 C925 1.429 . S
C941 C937 1.429 . S
C941 C942 1.523 . S
C942 C926 1.368 . S
C942 C938 1.368 . S
C942 C941 1.523 . S
H943 C918 0.950 . S
H944 C920 0.950 . S
H945 C921 0.949 . S
H946 C923 0.950 . S
H947 C925 0.950 . S
C948 C949 1.349 . S
C948 C950 1.327 . S
C948 H973 0.950 . S
C949 C948 1.349 . S
C949 C965 1.349 . S
C950 C948 1.327 . S
C950 C969 1.429 . S
C950 H974 0.950 . S
C951 C968 1.574 . S
C951 C970 1.368 . S
C951 H975 0.949 . S
H952 C956 0.949 . S
C953 C954 1.349 . S
C953 C955 1.327 . S
C953 H976 0.950 . S
C954 C953 1.349 . S
C954 C966 1.349 . S
C955 C953 1.327 . S
C955 C971 1.429 . S
C955 H977 0.950 . S
C956 H952 0.949 . S
C956 C964 1.574 . S
C956 C972 1.368 . S
H957 C965 0.950 . S
H958 C963 0.950 . S
H959 C964 0.949 . S
H960 C966 0.950 . S
H961 C967 0.950 . S
H962 C968 0.949 . S
C963 H958 0.950 . S
C963 C965 1.327 . S
C963 C969 1.429 . S
C964 C956 1.574 . S
C964 H959 0.949 . S
C964 C970 1.368 . S
C965 C949 1.349 . S
C965 H957 0.950 . S
C965 C963 1.327 . S
C966 C954 1.349 . S
C966 H960 0.950 . S
C966 C967 1.327 . S
C967 H961 0.950 . S
C967 C966 1.327 . S
C967 C971 1.429 . S
C968 C951 1.574 . S
C968 H962 0.949 . S
C968 C972 1.368 . S
C969 C950 1.429 . S
C969 C963 1.429 . S
C969 C970 1.523 . S
C970 C951 1.368 . S
C970 C964 1.368 . S
C970 C969 1.523 . S
C971 C955 1.429 . S
C971 C967 1.429 . S
C971 C972 1.523 . S
C972 C956 1.368 . S
C972 C968 1.368 . S
C972 C971 1.523 . S
H973 C948 0.950 . S
H974 C950 0.950 . S
H975 C951 0.949 . S
H976 C953 0.950 . S
H977 C955 0.950 . S
C978 C979 1.349 . S
C978 C980 1.327 . S
C978 H1003 0.950 . S
C979 C978 1.349 . S
C979 C995 1.349 . S
C980 C978 1.327 . S
C980 C999 1.429 . S
C980 H1004 0.950 . S
C981 C998 1.574 1_545 S
C981 C1000 1.368 . S
C981 H1005 0.949 . S
H982 C986 0.949 . S
C983 C984 1.349 . S
C983 C985 1.327 . S
C983 H1006 0.950 . S
C984 C983 1.349 . S
C984 C996 1.349 . S
C985 C983 1.327 . S
C985 C1001 1.429 . S
C985 H1007 0.950 . S
C986 H982 0.949 . S
C986 C994 1.574 1_565 S
C986 C1002 1.368 . S
H987 C995 0.950 . S
H988 C993 0.950 . S
H989 C994 0.949 . S
H990 C996 0.950 . S
H991 C997 0.950 . S
H992 C998 0.949 . S
C993 H988 0.950 . S
C993 C995 1.327 . S
C993 C999 1.429 . S
C994 C986 1.574 1_545 S
C994 H989 0.949 . S
C994 C1000 1.368 . S
C995 C979 1.349 . S
C995 H987 0.950 . S
C995 C993 1.327 . S
C996 C984 1.349 . S
C996 H990 0.950 . S
C996 C997 1.327 . S
C997 H991 0.950 . S
C997 C996 1.327 . S
C997 C1001 1.429 . S
C998 C981 1.574 1_565 S
C998 H992 0.949 . S
C998 C1002 1.368 . S
C999 C980 1.429 . S
C999 C993 1.429 . S
C999 C1000 1.523 . S
C1000 C981 1.368 . S
C1000 C994 1.368 . S
C1000 C999 1.523 . S
C1001 C985 1.429 . S
C1001 C997 1.429 . S
C1001 C1002 1.523 . S
C1002 C986 1.368 . S
C1002 C998 1.368 . S
C1002 C1001 1.523 . S
H1003 C978 0.950 . S
H1004 C980 0.950 . S
H1005 C981 0.949 . S
H1006 C983 0.950 . S
H1007 C985 0.950 . S
C1008 C1009 1.349 . S
C1008 C1010 1.327 . S
C1008 H1033 0.950 . S
C1009 C1008 1.349 . S
C1009 C1025 1.349 . S
C1010 C1008 1.327 . S
C1010 C1029 1.429 . S
C1010 H1034 0.950 . S
C1011 C1028 1.574 1_565 S
C1011 C1030 1.368 . S
C1011 H1035 0.949 . S
H1012 C1016 0.949 . S
C1013 C1014 1.349 . S
C1013 C1015 1.327 . S
C1013 H1036 0.950 . S
C1014 C1013 1.349 . S
C1014 C1026 1.349 . S
C1015 C1013 1.327 . S
C1015 C1031 1.429 . S
C1015 H1037 0.950 . S
C1016 H1012 0.949 . S
C1016 C1024 1.574 1_545 S
C1016 C1032 1.368 . S
H1017 C1025 0.950 . S
H1018 C1023 0.950 . S
H1019 C1024 0.949 . S
H1020 C1026 0.950 . S
H1021 C1027 0.950 . S
H1022 C1028 0.949 . S
C1023 H1018 0.950 . S
C1023 C1025 1.327 . S
C1023 C1029 1.429 . S
C1024 C1016 1.574 1_565 S
C1024 H1019 0.949 . S
C1024 C1030 1.368 . S
C1025 C1009 1.349 . S
C1025 H1017 0.950 . S
C1025 C1023 1.327 . S
C1026 C1014 1.349 . S
C1026 H1020 0.950 . S
C1026 C1027 1.327 . S
C1027 H1021 0.950 . S
C1027 C1026 1.327 . S
C1027 C1031 1.429 . S
C1028 C1011 1.574 1_545 S
C1028 H1022 0.949 . S
C1028 C1032 1.368 . S
C1029 C1010 1.429 . S
C1029 C1023 1.429 . S
C1029 C1030 1.523 . S
C1030 C1011 1.368 . S
C1030 C1024 1.368 . S
C1030 C1029 1.523 . S
C1031 C1015 1.429 . S
C1031 C1027 1.429 . S
C1031 C1032 1.523 . S
C1032 C1016 1.368 . S
C1032 C1028 1.368 . S
C1032 C1031 1.523 . S
H1033 C1008 0.950 . S
H1034 C1010 0.950 . S
H1035 C1011 0.949 . S
H1036 C1013 0.950 . S
H1037 C1015 0.950 . S
C1038 C1039 1.349 . S
C1038 C1040 1.327 . S
C1038 H1063 0.950 . S
C1039 C1038 1.349 . S
C1039 C1055 1.349 . S
C1040 C1038 1.327 . S
C1040 C1059 1.429 . S
C1040 H1064 0.950 . S
C1041 C1058 1.574 1_455 S
C1041 C1060 1.368 . S
C1041 H1065 0.949 . S
H1042 C1046 0.949 . S
C1043 C1044 1.349 . S
C1043 C1045 1.327 . S
C1043 H1066 0.950 . S
C1044 C1043 1.349 . S
C1044 C1056 1.349 . S
C1045 C1043 1.327 . S
C1045 C1061 1.429 . S
C1045 H1067 0.950 . S
C1046 H1042 0.949 . S
C1046 C1054 1.574 1_655 S
C1046 C1062 1.368 . S
H1047 C1055 0.950 . S
H1048 C1053 0.950 . S
H1049 C1054 0.949 . S
H1050 C1056 0.950 . S
H1051 C1057 0.950 . S
H1052 C1058 0.949 . S
C1053 H1048 0.950 . S
C1053 C1055 1.327 . S
C1053 C1059 1.429 . S
C1054 C1046 1.574 1_455 S
C1054 H1049 0.949 . S
C1054 C1060 1.368 . S
C1055 C1039 1.349 . S
C1055 H1047 0.950 . S
C1055 C1053 1.327 . S
C1056 C1044 1.349 . S
C1056 H1050 0.950 . S
C1056 C1057 1.327 . S
C1057 H1051 0.950 . S
C1057 C1056 1.327 . S
C1057 C1061 1.429 . S
C1058 C1041 1.574 1_655 S
C1058 H1052 0.949 . S
C1058 C1062 1.368 . S
C1059 C1040 1.429 . S
C1059 C1053 1.429 . S
C1059 C1060 1.523 . S
C1060 C1041 1.368 . S
C1060 C1054 1.368 . S
C1060 C1059 1.523 . S
C1061 C1045 1.429 . S
C1061 C1057 1.429 . S
C1061 C1062 1.523 . S
C1062 C1046 1.368 . S
C1062 C1058 1.368 . S
C1062 C1061 1.523 . S
H1063 C1038 0.950 . S
H1064 C1040 0.950 . S
H1065 C1041 0.949 . S
H1066 C1043 0.950 . S
H1067 C1045 0.950 . S
C1068 C1069 1.349 . S
C1068 C1070 1.327 . S
C1068 H1093 0.950 . S
C1069 C1068 1.349 . S
C1069 C1085 1.349 . S
C1070 C1068 1.327 . S
C1070 C1089 1.429 . S
C1070 H1094 0.950 . S
C1071 C1088 1.574 . S
C1071 C1090 1.368 . S
C1071 H1095 0.949 . S
H1072 C1076 0.949 . S
C1073 C1074 1.349 . S
C1073 C1075 1.327 . S
C1073 H1096 0.950 . S
C1074 C1073 1.349 . S
C1074 C1086 1.349 . S
C1075 C1073 1.327 . S
C1075 C1091 1.429 . S
C1075 H1097 0.950 . S
C1076 H1072 0.949 . S
C1076 C1084 1.574 . S
C1076 C1092 1.368 . S
H1077 C1085 0.950 . S
H1078 C1083 0.950 . S
H1079 C1084 0.949 . S
H1080 C1086 0.950 . S
H1081 C1087 0.950 . S
H1082 C1088 0.949 . S
C1083 H1078 0.950 . S
C1083 C1085 1.327 . S
C1083 C1089 1.429 . S
C1084 C1076 1.574 . S
C1084 H1079 0.949 . S
C1084 C1090 1.368 . S
C1085 C1069 1.349 . S
C1085 H1077 0.950 . S
C1085 C1083 1.327 . S
C1086 C1074 1.349 . S
C1086 H1080 0.950 . S
C1086 C1087 1.327 . S
C1087 H1081 0.950 . S
C1087 C1086 1.327 . S
C1087 C1091 1.429 . S
C1088 C1071 1.574 . S
C1088 H1082 0.949 . S
C1088 C1092 1.368 . S
C1089 C1070 1.429 . S
C1089 C1083 1.429 . S
C1089 C1090 1.523 . S
C1090 C1071 1.368 . S
C1090 C1084 1.368 . S
C1090 C1089 1.523 . S
C1091 C1075 1.429 . S
C1091 C1087 1.429 . S
C1091 C1092 1.523 . S
C1092 C1076 1.368 . S
C1092 C1088 1.368 . S
C1092 C1091 1.523 . S
H1093 C1068 0.950 . S
H1094 C1070 0.950 . S
H1095 C1071 0.949 . S
H1096 C1073 0.950 . S
H1097 C1075 0.950 . S
C1098 C1099 1.349 . S
C1098 C1100 1.327 . S
C1098 H1123 0.950 . S
C1099 C1098 1.349 . S
C1099 C1115 1.349 . S
C1100 C1098 1.327 . S
C1100 C1119 1.429 . S
C1100 H1124 0.950 . S
C1101 C1118 1.574 . S
C1101 C1120 1.368 . S
C1101 H1125 0.949 . S
H1102 C1106 0.949 . S
C1103 C1104 1.349 . S
C1103 C1105 1.327 . S
C1103 H1126 0.950 . S
C1104 C1103 1.349 . S
C1104 C1116 1.349 . S
C1105 C1103 1.327 . S
C1105 C1121 1.429 . S
C1105 H1127 0.950 . S
C1106 H1102 0.949 . S
C1106 C1114 1.574 . S
C1106 C1122 1.368 . S
H1107 C1115 0.950 . S
H1108 C1113 0.950 . S
H1109 C1114 0.949 . S
H1110 C1116 0.950 . S
H1111 C1117 0.950 . S
H1112 C1118 0.949 . S
C1113 H1108 0.950 . S
C1113 C1115 1.327 . S
C1113 C1119 1.429 . S
C1114 C1106 1.574 . S
C1114 H1109 0.949 . S
C1114 C1120 1.368 . S
C1115 C1099 1.349 . S
C1115 H1107 0.950 . S
C1115 C1113 1.327 . S
C1116 C1104 1.349 . S
C1116 H1110 0.950 . S
C1116 C1117 1.327 . S
C1117 H1111 0.950 . S
C1117 C1116 1.327 . S
C1117 C1121 1.429 . S
C1118 C1101 1.574 . S
C1118 H1112 0.949 . S
C1118 C1122 1.368 . S
C1119 C1100 1.429 . S
C1119 C1113 1.429 . S
C1119 C1120 1.523 . S
C1120 C1101 1.368 . S
C1120 C1114 1.368 . S
C1120 C1119 1.523 . S
C1121 C1105 1.429 . S
C1121 C1117 1.429 . S
C1121 C1122 1.523 . S
C1122 C1106 1.368 . S
C1122 C1118 1.368 . S
C1122 C1121 1.523 . S
H1123 C1098 0.950 . S
H1124 C1100 0.950 . S
H1125 C1101 0.949 . S
H1126 C1103 0.950 . S
H1127 C1105 0.950 . S
C1128 C1129 1.349 . S
C1128 C1130 1.327 . S
C1128 H1153 0.950 . S
C1129 C1128 1.349 . S
C1129 C1145 1.349 . S
C1130 C1128 1.327 . S
C1130 C1149 1.429 . S
C1130 H1154 0.950 . S
C1131 C1148 1.574 . S
C1131 C1150 1.368 . S
C1131 H1155 0.949 . S
H1132 C1136 0.949 . S
C1133 C1134 1.349 . S
C1133 C1135 1.327 . S
C1133 H1156 0.950 . S
C1134 C1133 1.349 . S
C1134 C1146 1.349 . S
C1135 C1133 1.327 . S
C1135 C1151 1.429 . S
C1135 H1157 0.950 . S
C1136 H1132 0.949 . S
C1136 C1144 1.574 . S
C1136 C1152 1.368 . S
H1137 C1145 0.950 . S
H1138 C1143 0.950 . S
H1139 C1144 0.949 . S
H1140 C1146 0.950 . S
H1141 C1147 0.950 . S
H1142 C1148 0.949 . S
C1143 H1138 0.950 . S
C1143 C1145 1.327 . S
C1143 C1149 1.429 . S
C1144 C1136 1.574 . S
C1144 H1139 0.949 . S
C1144 C1150 1.368 . S
C1145 C1129 1.349 . S
C1145 H1137 0.950 . S
C1145 C1143 1.327 . S
C1146 C1134 1.349 . S
C1146 H1140 0.950 . S
C1146 C1147 1.327 . S
C1147 H1141 0.950 . S
C1147 C1146 1.327 . S
C1147 C1151 1.429 . S
C1148 C1131 1.574 . S
C1148 H1142 0.949 . S
C1148 C1152 1.368 . S
C1149 C1130 1.429 . S
C1149 C1143 1.429 . S
C1149 C1150 1.523 . S
C1150 C1131 1.368 . S
C1150 C1144 1.368 . S
C1150 C1149 1.523 . S
C1151 C1135 1.429 . S
C1151 C1147 1.429 . S
C1151 C1152 1.523 . S
C1152 C1136 1.368 . S
C1152 C1148 1.368 . S
C1152 C1151 1.523 . S
H1153 C1128 0.950 . S
H1154 C1130 0.950 . S
H1155 C1131 0.949 . S
H1156 C1133 0.950 . S
H1157 C1135 0.950 . S
C1158 C1159 1.349 . S
C1158 C1160 1.327 . S
C1158 H1183 0.950 . S
C1159 C1158 1.349 . S
C1159 C1175 1.349 . S
C1160 C1158 1.327 . S
C1160 C1179 1.429 . S
C1160 H1184 0.950 . S
C1161 C1178 1.574 . S
C1161 C1180 1.368 . S
C1161 H1185 0.949 . S
H1162 C1166 0.949 . S
C1163 C1164 1.349 . S
C1163 C1165 1.327 . S
C1163 H1186 0.950 . S
C1164 C1163 1.349 . S
C1164 C1176 1.349 . S
C1165 C1163 1.327 . S
C1165 C1181 1.429 . S
C1165 H1187 0.950 . S
C1166 H1162 0.949 . S
C1166 C1174 1.574 . S
C1166 C1182 1.368 . S
H1167 C1175 0.950 . S
H1168 C1173 0.950 . S
H1169 C1174 0.949 . S
H1170 C1176 0.950 . S
H1171 C1177 0.950 . S
H1172 C1178 0.949 . S
C1173 H1168 0.950 . S
C1173 C1175 1.327 . S
C1173 C1179 1.429 . S
C1174 C1166 1.574 . S
C1174 H1169 0.949 . S
C1174 C1180 1.368 . S
C1175 C1159 1.349 . S
C1175 H1167 0.950 . S
C1175 C1173 1.327 . S
C1176 C1164 1.349 . S
C1176 H1170 0.950 . S
C1176 C1177 1.327 . S
C1177 H1171 0.950 . S
C1177 C1176 1.327 . S
C1177 C1181 1.429 . S
C1178 C1161 1.574 . S
C1178 H1172 0.949 . S
C1178 C1182 1.368 . S
C1179 C1160 1.429 . S
C1179 C1173 1.429 . S
C1179 C1180 1.523 . S
C1180 C1161 1.368 . S
C1180 C1174 1.368 . S
C1180 C1179 1.523 . S
C1181 C1165 1.429 . S
C1181 C1177 1.429 . S
C1181 C1182 1.523 . S
C1182 C1166 1.368 . S
C1182 C1178 1.368 . S
C1182 C1181 1.523 . S
H1183 C1158 0.950 . S
H1184 C1160 0.950 . S
H1185 C1161 0.949 . S
H1186 C1163 0.950 . S
H1187 C1165 0.950 . S
C1188 C1189 1.349 . S
C1188 C1190 1.327 . S
C1188 H1213 0.950 . S
C1189 C1188 1.349 . S
C1189 C1205 1.349 . S
C1190 C1188 1.327 . S
C1190 C1209 1.429 . S
C1190 H1214 0.950 . S
C1191 C1208 1.574 . S
C1191 C1210 1.368 . S
C1191 H1215 0.949 . S
H1192 C1196 0.949 . S
C1193 C1194 1.349 . S
C1193 C1195 1.327 . S
C1193 H1216 0.950 . S
C1194 C1193 1.349 . S
C1194 C1206 1.349 . S
C1195 C1193 1.327 . S
C1195 C1211 1.429 . S
C1195 H1217 0.950 . S
C1196 H1192 0.949 . S
C1196 C1204 1.574 . S
C1196 C1212 1.368 . S
H1197 C1205 0.950 . S
H1198 C1203 0.950 . S
H1199 C1204 0.949 . S
H1200 C1206 0.950 . S
H1201 C1207 0.950 . S
H1202 C1208 0.949 . S
C1203 H1198 0.950 . S
C1203 C1205 1.327 . S
C1203 C1209 1.429 . S
C1204 C1196 1.574 . S
C1204 H1199 0.949 . S
C1204 C1210 1.368 . S
C1205 C1189 1.349 . S
C1205 H1197 0.950 . S
C1205 C1203 1.327 . S
C1206 C1194 1.349 . S
C1206 H1200 0.950 . S
C1206 C1207 1.327 . S
C1207 H1201 0.950 . S
C1207 C1206 1.327 . S
C1207 C1211 1.429 . S
C1208 C1191 1.574 . S
C1208 H1202 0.949 . S
C1208 C1212 1.368 . S
C1209 C1190 1.429 . S
C1209 C1203 1.429 . S
C1209 C1210 1.523 . S
C1210 C1191 1.368 . S
C1210 C1204 1.368 . S
C1210 C1209 1.523 . S
C1211 C1195 1.429 . S
C1211 C1207 1.429 . S
C1211 C1212 1.523 . S
C1212 C1196 1.368 . S
C1212 C1208 1.368 . S
C1212 C1211 1.523 . S
H1213 C1188 0.950 . S
H1214 C1190 0.950 . S
H1215 C1191 0.949 . S
H1216 C1193 0.950 . S
H1217 C1195 0.950 . S
C1218 C1219 1.349 . S
C1218 C1220 1.327 . S
C1218 H1243 0.950 . S
C1219 C1218 1.349 . S
C1219 C1235 1.349 . S
C1220 C1218 1.327 . S
C1220 C1239 1.429 . S
C1220 H1244 0.950 . S
C1221 C1238 1.574 . S
C1221 C1240 1.368 . S
C1221 H1245 0.949 . S
H1222 C1226 0.949 . S
C1223 C1224 1.349 . S
C1223 C1225 1.327 . S
C1223 H1246 0.950 . S
C1224 C1223 1.349 . S
C1224 C1236 1.349 . S
C1225 C1223 1.327 . S
C1225 C1241 1.429 . S
C1225 H1247 0.950 . S
C1226 H1222 0.949 . S
C1226 C1234 1.574 . S
C1226 C1242 1.368 . S
H1227 C1235 0.950 . S
H1228 C1233 0.950 . S
H1229 C1234 0.949 . S
H1230 C1236 0.950 . S
H1231 C1237 0.950 . S
H1232 C1238 0.949 . S
C1233 H1228 0.950 . S
C1233 C1235 1.327 . S
C1233 C1239 1.429 . S
C1234 C1226 1.574 . S
C1234 H1229 0.949 . S
C1234 C1240 1.368 . S
C1235 C1219 1.349 . S
C1235 H1227 0.950 . S
C1235 C1233 1.327 . S
C1236 C1224 1.349 . S
C1236 H1230 0.950 . S
C1236 C1237 1.327 . S
C1237 H1231 0.950 . S
C1237 C1236 1.327 . S
C1237 C1241 1.429 . S
C1238 C1221 1.574 . S
C1238 H1232 0.949 . S
C1238 C1242 1.368 . S
C1239 C1220 1.429 . S
C1239 C1233 1.429 . S
C1239 C1240 1.523 . S
C1240 C1221 1.368 . S
C1240 C1234 1.368 . S
C1240 C1239 1.523 . S
C1241 C1225 1.429 . S
C1241 C1237 1.429 . S
C1241 C1242 1.523 . S
C1242 C1226 1.368 . S
C1242 C1238 1.368 . S
C1242 C1241 1.523 . S
H1243 C1218 0.950 . S
H1244 C1220 0.950 . S
H1245 C1221 0.949 . S
H1246 C1223 0.950 . S
H1247 C1225 0.950 . S
C1248 C1249 1.349 . S
C1248 C1250 1.327 . S
C1248 H1273 0.950 . S
C1249 C1248 1.349 . S
C1249 C1265 1.349 . S
C1250 C1248 1.327 . S
C1250 C1269 1.429 . S
C1250 H1274 0.950 . S
C1251 C1268 1.574 . S
C1251 C1270 1.368 . S
C1251 H1275 0.949 . S
H1252 C1256 0.949 . S
C1253 C1254 1.349 . S
C1253 C1255 1.327 . S
C1253 H1276 0.950 . S
C1254 C1253 1.349 . S
C1254 C1266 1.349 . S
C1255 C1253 1.327 . S
C1255 C1271 1.429 . S
C1255 H1277 0.950 . S
C1256 H1252 0.949 . S
C1256 C1264 1.574 . S
C1256 C1272 1.368 . S
H1257 C1265 0.950 . S
H1258 C1263 0.950 . S
H1259 C1264 0.949 . S
H1260 C1266 0.950 . S
H1261 C1267 0.950 . S
H1262 C1268 0.949 . S
C1263 H1258 0.950 . S
C1263 C1265 1.327 . S
C1263 C1269 1.429 . S
C1264 C1256 1.574 . S
C1264 H1259 0.949 . S
C1264 C1270 1.368 . S
C1265 C1249 1.349 . S
C1265 H1257 0.950 . S
C1265 C1263 1.327 . S
C1266 C1254 1.349 . S
C1266 H1260 0.950 . S
C1266 C1267 1.327 . S
C1267 H1261 0.950 . S
C1267 C1266 1.327 . S
C1267 C1271 1.429 . S
C1268 C1251 1.574 . S
C1268 H1262 0.949 . S
C1268 C1272 1.368 . S
C1269 C1250 1.429 . S
C1269 C1263 1.429 . S
C1269 C1270 1.523 . S
C1270 C1251 1.368 . S
C1270 C1264 1.368 . S
C1270 C1269 1.523 . S
C1271 C1255 1.429 . S
C1271 C1267 1.429 . S
C1271 C1272 1.523 . S
C1272 C1256 1.368 . S
C1272 C1268 1.368 . S
C1272 C1271 1.523 . S
H1273 C1248 0.950 . S
H1274 C1250 0.950 . S
H1275 C1251 0.949 . S
H1276 C1253 0.950 . S
H1277 C1255 0.950 . S
C1278 C1279 1.349 . S
C1278 C1280 1.327 . S
C1278 H1303 0.950 . S
C1279 C1278 1.349 . S
C1279 C1295 1.349 . S
C1280 C1278 1.327 . S
C1280 C1299 1.429 . S
C1280 H1304 0.950 . S
C1281 C1298 1.574 . S
C1281 C1300 1.368 . S
C1281 H1305 0.949 . S
H1282 C1286 0.949 . S
C1283 C1284 1.349 . S
C1283 C1285 1.327 . S
C1283 H1306 0.950 . S
C1284 C1283 1.349 . S
C1284 C1296 1.349 . S
C1285 C1283 1.327 . S
C1285 C1301 1.429 . S
C1285 H1307 0.950 . S
C1286 H1282 0.949 . S
C1286 C1294 1.574 . S
C1286 C1302 1.368 . S
H1287 C1295 0.950 . S
H1288 C1293 0.950 . S
H1289 C1294 0.949 . S
H1290 C1296 0.950 . S
H1291 C1297 0.950 . S
H1292 C1298 0.949 . S
C1293 H1288 0.950 . S
C1293 C1295 1.327 . S
C1293 C1299 1.429 . S
C1294 C1286 1.574 . S
C1294 H1289 0.949 . S
C1294 C1300 1.368 . S
C1295 C1279 1.349 . S
C1295 H1287 0.950 . S
C1295 C1293 1.327 . S
C1296 C1284 1.349 . S
C1296 H1290 0.950 . S
C1296 C1297 1.327 . S
C1297 H1291 0.950 . S
C1297 C1296 1.327 . S
C1297 C1301 1.429 . S
C1298 C1281 1.574 . S
C1298 H1292 0.949 . S
C1298 C1302 1.368 . S
C1299 C1280 1.429 . S
C1299 C1293 1.429 . S
C1299 C1300 1.523 . S
C1300 C1281 1.368 . S
C1300 C1294 1.368 . S
C1300 C1299 1.523 . S
C1301 C1285 1.429 . S
C1301 C1297 1.429 . S
C1301 C1302 1.523 . S
C1302 C1286 1.368 . S
C1302 C1298 1.368 . S
C1302 C1301 1.523 . S
H1303 C1278 0.950 . S
H1304 C1280 0.950 . S
H1305 C1281 0.949 . S
H1306 C1283 0.950 . S
H1307 C1285 0.950 . S
C1308 C1309 1.349 . S
C1308 C1310 1.327 . S
C1308 H1333 0.950 . S
C1309 C1308 1.349 . S
C1309 C1325 1.349 . S
C1310 C1308 1.327 . S
C1310 C1329 1.429 . S
C1310 H1334 0.950 . S
C1311 C1328 1.574 . S
C1311 C1330 1.368 . S
C1311 H1335 0.949 . S
H1312 C1316 0.949 . S
C1313 C1314 1.349 . S
C1313 C1315 1.327 . S
C1313 H1336 0.950 . S
C1314 C1313 1.349 . S
C1314 C1326 1.349 . S
C1315 C1313 1.327 . S
C1315 C1331 1.429 . S
C1315 H1337 0.950 . S
C1316 H1312 0.949 . S
C1316 C1324 1.574 . S
C1316 C1332 1.368 . S
H1317 C1325 0.950 . S
H1318 C1323 0.950 . S
H1319 C1324 0.949 . S
H1320 C1326 0.950 . S
H1321 C1327 0.950 . S
H1322 C1328 0.949 . S
C1323 H1318 0.950 . S
C1323 C1325 1.327 . S
C1323 C1329 1.429 . S
C1324 C1316 1.574 . S
C1324 H1319 0.949 . S
C1324 C1330 1.368 . S
C1325 C1309 1.349 . S
C1325 H1317 0.950 . S
C1325 C1323 1.327 . S
C1326 C1314 1.349 . S
C1326 H1320 0.950 . S
C1326 C1327 1.327 . S
C1327 H1321 0.950 . S
C1327 C1326 1.327 . S
C1327 C1331 1.429 . S
C1328 C1311 1.574 . S
C1328 H1322 0.949 . S
C1328 C1332 1.368 . S
C1329 C1310 1.429 . S
C1329 C1323 1.429 . S
C1329 C1330 1.523 . S
C1330 C1311 1.368 . S
C1330 C1324 1.368 . S
C1330 C1329 1.523 . S
C1331 C1315 1.429 . S
C1331 C1327 1.429 . S
C1331 C1332 1.523 . S
C1332 C1316 1.368 . S
C1332 C1328 1.368 . S
C1332 C1331 1.523 . S
H1333 C1308 0.950 . S
H1334 C1310 0.950 . S
H1335 C1311 0.949 . S
H1336 C1313 0.950 . S
H1337 C1315 0.950 . S
C1338 C1339 1.349 . S
C1338 C1340 1.327 . S
C1338 H1363 0.950 . S
C1339 C1338 1.349 . S
C1339 C1355 1.349 . S
C1340 C1338 1.327 . S
C1340 C1359 1.429 . S
C1340 H1364 0.950 . S
C1341 C1358 1.574 . S
C1341 C1360 1.368 . S
C1341 H1365 0.949 . S
H1342 C1346 0.949 . S
C1343 C1344 1.349 . S
C1343 C1345 1.327 . S
C1343 H1366 0.950 . S
C1344 C1343 1.349 . S
C1344 C1356 1.349 . S
C1345 C1343 1.327 . S
C1345 C1361 1.429 . S
C1345 H1367 0.950 . S
C1346 H1342 0.949 . S
C1346 C1354 1.574 . S
C1346 C1362 1.368 . S
H1347 C1355 0.950 . S
H1348 C1353 0.950 . S
H1349 C1354 0.949 . S
H1350 C1356 0.950 . S
H1351 C1357 0.950 . S
H1352 C1358 0.949 . S
C1353 H1348 0.950 . S
C1353 C1355 1.327 . S
C1353 C1359 1.429 . S
C1354 C1346 1.574 . S
C1354 H1349 0.949 . S
C1354 C1360 1.368 . S
C1355 C1339 1.349 . S
C1355 H1347 0.950 . S
C1355 C1353 1.327 . S
C1356 C1344 1.349 . S
C1356 H1350 0.950 . S
C1356 C1357 1.327 . S
C1357 H1351 0.950 . S
C1357 C1356 1.327 . S
C1357 C1361 1.429 . S
C1358 C1341 1.574 . S
C1358 H1352 0.949 . S
C1358 C1362 1.368 . S
C1359 C1340 1.429 . S
C1359 C1353 1.429 . S
C1359 C1360 1.523 . S
C1360 C1341 1.368 . S
C1360 C1354 1.368 . S
C1360 C1359 1.523 . S
C1361 C1345 1.429 . S
C1361 C1357 1.429 . S
C1361 C1362 1.523 . S
C1362 C1346 1.368 . S
C1362 C1358 1.368 . S
C1362 C1361 1.523 . S
H1363 C1338 0.950 . S
H1364 C1340 0.950 . S
H1365 C1341 0.949 . S
H1366 C1343 0.950 . S
H1367 C1345 0.950 . S
C1368 C1369 1.349 . S
C1368 C1370 1.327 . S
C1368 H1393 0.950 . S
C1369 C1368 1.349 . S
C1369 C1385 1.349 . S
C1370 C1368 1.327 . S
C1370 C1389 1.429 . S
C1370 H1394 0.950 . S
C1371 C1388 1.574 . S
C1371 C1390 1.368 . S
C1371 H1395 0.949 . S
H1372 C1376 0.949 . S
C1373 C1374 1.349 . S
C1373 C1375 1.327 . S
C1373 H1396 0.950 . S
C1374 C1373 1.349 . S
C1374 C1386 1.349 . S
C1375 C1373 1.327 . S
C1375 C1391 1.429 . S
C1375 H1397 0.950 . S
C1376 H1372 0.949 . S
C1376 C1384 1.574 . S
C1376 C1392 1.368 . S
H1377 C1385 0.950 . S
H1378 C1383 0.950 . S
H1379 C1384 0.949 . S
H1380 C1386 0.950 . S
H1381 C1387 0.950 . S
H1382 C1388 0.949 . S
C1383 H1378 0.950 . S
C1383 C1385 1.327 . S
C1383 C1389 1.429 . S
C1384 C1376 1.574 . S
C1384 H1379 0.949 . S
C1384 C1390 1.368 . S
C1385 C1369 1.349 . S
C1385 H1377 0.950 . S
C1385 C1383 1.327 . S
C1386 C1374 1.349 . S
C1386 H1380 0.950 . S
C1386 C1387 1.327 . S
C1387 H1381 0.950 . S
C1387 C1386 1.327 . S
C1387 C1391 1.429 . S
C1388 C1371 1.574 . S
C1388 H1382 0.949 . S
C1388 C1392 1.368 . S
C1389 C1370 1.429 . S
C1389 C1383 1.429 . S
C1389 C1390 1.523 . S
C1390 C1371 1.368 . S
C1390 C1384 1.368 . S
C1390 C1389 1.523 . S
C1391 C1375 1.429 . S
C1391 C1387 1.429 . S
C1391 C1392 1.523 . S
C1392 C1376 1.368 . S
C1392 C1388 1.368 . S
C1392 C1391 1.523 . S
H1393 C1368 0.950 . S
H1394 C1370 0.950 . S
H1395 C1371 0.949 . S
H1396 C1373 0.950 . S
H1397 C1375 0.950 . S
C1398 C1399 1.349 . S
C1398 C1400 1.327 . S
C1398 H1423 0.950 . S
C1399 C1398 1.349 . S
C1399 C1415 1.349 . S
C1400 C1398 1.327 . S
C1400 C1419 1.429 . S
C1400 H1424 0.950 . S
C1401 C1418 1.574 . S
C1401 C1420 1.368 . S
C1401 H1425 0.949 . S
H1402 C1406 0.949 . S
C1403 C1404 1.349 . S
C1403 C1405 1.327 . S
C1403 H1426 0.950 . S
C1404 C1403 1.349 . S
C1404 C1416 1.349 . S
C1405 C1403 1.327 . S
C1405 C1421 1.429 . S
C1405 H1427 0.950 . S
C1406 H1402 0.949 . S
C1406 C1414 1.574 . S
C1406 C1422 1.368 . S
H1407 C1415 0.950 . S
H1408 C1413 0.950 . S
H1409 C1414 0.949 . S
H1410 C1416 0.950 . S
H1411 C1417 0.950 . S
H1412 C1418 0.949 . S
C1413 H1408 0.950 . S
C1413 C1415 1.327 . S
C1413 C1419 1.429 . S
C1414 C1406 1.574 . S
C1414 H1409 0.949 . S
C1414 C1420 1.368 . S
C1415 C1399 1.349 . S
C1415 H1407 0.950 . S
C1415 C1413 1.327 . S
C1416 C1404 1.349 . S
C1416 H1410 0.950 . S
C1416 C1417 1.327 . S
C1417 H1411 0.950 . S
C1417 C1416 1.327 . S
C1417 C1421 1.429 . S
C1418 C1401 1.574 . S
C1418 H1412 0.949 . S
C1418 C1422 1.368 . S
C1419 C1400 1.429 . S
C1419 C1413 1.429 . S
C1419 C1420 1.523 . S
C1420 C1401 1.368 . S
C1420 C1414 1.368 . S
C1420 C1419 1.523 . S
C1421 C1405 1.429 . S
C1421 C1417 1.429 . S
C1421 C1422 1.523 . S
C1422 C1406 1.368 . S
C1422 C1418 1.368 . S
C1422 C1421 1.523 . S
H1423 C1398 0.950 . S
H1424 C1400 0.950 . S
H1425 C1401 0.949 . S
H1426 C1403 0.950 . S
H1427 C1405 0.950 . S
C1428 C1429 1.349 . S
C1428 C1430 1.327 . S
C1428 H1453 0.950 . S
C1429 C1428 1.349 . S
C1429 C1445 1.349 . S
C1430 C1428 1.327 . S
C1430 C1449 1.429 . S
C1430 H1454 0.950 . S
C1431 C1448 1.574 . S
C1431 C1450 1.368 . S
C1431 H1455 0.949 . S
H1432 C1436 0.949 . S
C1433 C1434 1.349 . S
C1433 C1435 1.327 . S
C1433 H1456 0.950 . S
C1434 C1433 1.349 . S
C1434 C1446 1.349 . S
C1435 C1433 1.327 . S
C1435 C1451 1.429 . S
C1435 H1457 0.950 . S
C1436 H1432 0.949 . S
C1436 C1444 1.574 . S
C1436 C1452 1.368 . S
H1437 C1445 0.950 . S
H1438 C1443 0.950 . S
H1439 C1444 0.949 . S
H1440 C1446 0.950 . S
H1441 C1447 0.950 . S
H1442 C1448 0.949 . S
C1443 H1438 0.950 . S
C1443 C1445 1.327 . S
C1443 C1449 1.429 . S
C1444 C1436 1.574 . S
C1444 H1439 0.949 . S
C1444 C1450 1.368 . S
C1445 C1429 1.349 . S
C1445 H1437 0.950 . S
C1445 C1443 1.327 . S
C1446 C1434 1.349 . S
C1446 H1440 0.950 . S
C1446 C1447 1.327 . S
C1447 H1441 0.950 . S
C1447 C1446 1.327 . S
C1447 C1451 1.429 . S
C1448 C1431 1.574 . S
C1448 H1442 0.949 . S
C1448 C1452 1.368 . S
C1449 C1430 1.429 . S
C1449 C1443 1.429 . S
C1449 C1450 1.523 . S
C1450 C1431 1.368 . S
C1450 C1444 1.368 . S
C1450 C1449 1.523 . S
C1451 C1435 1.429 . S
C1451 C1447 1.429 . S
C1451 C1452 1.523 . S
C1452 C1436 1.368 . S
C1452 C1448 1.368 . S
C1452 C1451 1.523 . S
H1453 C1428 0.950 . S
H1454 C1430 0.950 . S
H1455 C1431 0.949 . S
H1456 C1433 0.950 . S
H1457 C1435 0.950 . S
C1458 C1459 1.349 . S
C1458 C1460 1.327 . S
C1458 H1483 0.950 . S
C1459 C1458 1.349 . S
C1459 C1475 1.349 . S
C1460 C1458 1.327 . S
C1460 C1479 1.429 . S
C1460 H1484 0.950 . S
C1461 C1478 1.574 1_554 S
C1461 C1480 1.368 . S
C1461 H1485 0.949 . S
H1462 C1466 0.949 . S
C1463 C1464 1.349 . S
C1463 C1465 1.327 . S
C1463 H1486 0.950 . S
C1464 C1463 1.349 . S
C1464 C1476 1.349 . S
C1465 C1463 1.327 . S
C1465 C1481 1.429 . S
C1465 H1487 0.950 . S
C1466 H1462 0.949 . S
C1466 C1474 1.574 1_556 S
C1466 C1482 1.368 . S
H1467 C1475 0.950 . S
H1468 C1473 0.950 . S
H1469 C1474 0.949 . S
H1470 C1476 0.950 . S
H1471 C1477 0.950 . S
H1472 C1478 0.949 . S
C1473 H1468 0.950 . S
C1473 C1475 1.327 . S
C1473 C1479 1.429 . S
C1474 C1466 1.574 1_554 S
C1474 H1469 0.949 . S
C1474 C1480 1.368 . S
C1475 C1459 1.349 . S
C1475 H1467 0.950 . S
C1475 C1473 1.327 . S
C1476 C1464 1.349 . S
C1476 H1470 0.950 . S
C1476 C1477 1.327 . S
C1477 H1471 0.950 . S
C1477 C1476 1.327 . S
C1477 C1481 1.429 . S
C1478 C1461 1.574 1_556 S
C1478 H1472 0.949 . S
C1478 C1482 1.368 . S
C1479 C1460 1.429 . S
C1479 C1473 1.429 . S
C1479 C1480 1.523 . S
C1480 C1461 1.368 . S
C1480 C1474 1.368 . S
C1480 C1479 1.523 . S
C1481 C1465 1.429 . S
C1481 C1477 1.429 . S
C1481 C1482 1.523 . S
C1482 C1466 1.368 . S
C1482 C1478 1.368 . S
C1482 C1481 1.523 . S
H1483 C1458 0.950 . S
H1484 C1460 0.950 . S
H1485 C1461 0.949 . S
H1486 C1463 0.950 . S
H1487 C1465 0.950 . S
C1488 C1489 1.349 1_565 S
C1488 C1490 1.327 . S
C1488 H1513 0.950 . S
C1489 C1488 1.349 1_545 S
C1489 C1505 1.349 . S
C1490 C1488 1.327 . S
C1490 C1509 1.429 1_565 S
C1490 H1514 0.950 . S
C1491 C1508 1.574 1_556 S
C1491 C1510 1.368 . S
C1491 H1515 0.949 . S
H1492 C1496 0.949 . S
C1493 C1494 1.349 1_545 S
C1493 C1495 1.327 . S
C1493 H1516 0.950 . S
C1494 C1493 1.349 1_565 S
C1494 C1506 1.349 . S
C1495 C1493 1.327 . S
C1495 C1511 1.429 1_545 S
C1495 H1517 0.950 . S
C1496 H1492 0.949 . S
C1496 C1504 1.574 1_554 S
C1496 C1512 1.368 . S
H1497 C1505 0.950 . S
H1498 C1503 0.950 . S
H1499 C1504 0.949 . S
H1500 C1506 0.950 . S
H1501 C1507 0.950 . S
H1502 C1508 0.949 . S
C1503 H1498 0.950 . S
C1503 C1505 1.327 . S
C1503 C1509 1.429 . S
C1504 C1496 1.574 1_556 S
C1504 H1499 0.949 . S
C1504 C1510 1.368 1_565 S
C1505 C1489 1.349 . S
C1505 H1497 0.950 . S
C1505 C1503 1.327 . S
C1506 C1494 1.349 . S
C1506 H1500 0.950 . S
C1506 C1507 1.327 . S
C1507 H1501 0.950 . S
C1507 C1506 1.327 . S
C1507 C1511 1.429 . S
C1508 C1491 1.574 1_554 S
C1508 H1502 0.949 . S
C1508 C1512 1.368 1_545 S
C1509 C1490 1.429 1_545 S
C1509 C1503 1.429 . S
C1509 C1510 1.523 . S
C1510 C1491 1.368 . S
C1510 C1504 1.368 1_545 S
C1510 C1509 1.523 . S
C1511 C1495 1.429 1_565 S
C1511 C1507 1.429 . S
C1511 C1512 1.523 . S
C1512 C1496 1.368 . S
C1512 C1508 1.368 1_565 S
C1512 C1511 1.523 . S
H1513 C1488 0.950 . S
H1514 C1490 0.950 . S
H1515 C1491 0.949 . S
H1516 C1493 0.950 . S
H1517 C1495 0.950 . S
C1518 C1519 1.349 . S
C1518 C1520 1.327 . S
C1518 H1543 0.950 . S
C1519 C1518 1.349 . S
C1519 C1535 1.349 . S
C1520 C1518 1.327 . S
C1520 C1539 1.429 . S
C1520 H1544 0.950 . S
C1521 C1538 1.574 1_556 S
C1521 C1540 1.368 . S
C1521 H1545 0.949 . S
H1522 C1526 0.949 . S
C1523 C1524 1.349 . S
C1523 C1525 1.327 . S
C1523 H1546 0.950 . S
C1524 C1523 1.349 . S
C1524 C1536 1.349 . S
C1525 C1523 1.327 . S
C1525 C1541 1.429 . S
C1525 H1547 0.957 . S
C1526 H1522 0.949 . S
C1526 C1534 1.574 1_554 S
C1526 C1542 1.368 . S
H1527 C1535 0.950 . S
H1528 C1533 0.950 . S
H1529 C1534 0.949 . S
H1530 C1536 0.950 . S
H1531 C1537 0.950 . S
H1532 C1538 0.949 . S
C1533 H1528 0.950 . S
C1533 C1535 1.327 . S
C1533 C1539 1.429 . S
C1534 C1526 1.574 1_556 S
C1534 H1529 0.949 . S
C1534 C1540 1.368 1_455 S
C1535 C1519 1.349 . S
C1535 H1527 0.950 . S
C1535 C1533 1.327 . S
C1536 C1524 1.349 . S
C1536 H1530 0.950 . S
C1536 C1537 1.327 . S
C1537 H1531 0.950 . S
C1537 C1536 1.327 . S
C1537 C1541 1.429 . S
C1538 C1521 1.574 1_554 S
C1538 H1532 0.949 . S
C1538 C1542 1.368 1_655 S
C1539 C1520 1.429 . S
C1539 C1533 1.429 . S
C1539 C1540 1.523 . S
C1540 C1521 1.368 . S
C1540 C1534 1.368 1_655 S
C1540 C1539 1.523 . S
C1541 C1525 1.429 . S
C1541 C1537 1.429 . S
C1541 C1542 1.523 . S
C1542 C1526 1.368 . S
C1542 C1538 1.368 1_455 S
C1542 C1541 1.523 . S
H1543 C1518 0.950 . S
H1544 C1520 0.950 . S
H1545 C1521 0.949 . S
H1546 C1523 0.950 . S
H1547 C1525 0.957 . S
C1548 C1549 1.349 . S
C1548 C1550 1.327 . S
C1548 H1573 0.950 . S
C1549 C1548 1.349 . S
C1549 C1565 1.349 . S
C1550 C1548 1.327 . S
C1550 C1569 1.429 . S
C1550 H1574 0.950 . S
C1551 C1568 1.574 . S
C1551 C1570 1.368 . S
C1551 H1575 0.949 . S
H1552 C1556 0.949 . S
C1553 C1554 1.349 . S
C1553 C1555 1.327 . S
C1553 H1576 0.950 . S
C1554 C1553 1.349 . S
C1554 C1566 1.349 . S
C1555 C1553 1.327 . S
C1555 C1571 1.429 . S
C1555 H1577 0.950 . S
C1556 H1552 0.949 . S
C1556 C1564 1.574 . S
C1556 C1572 1.368 . S
H1557 C1565 0.950 . S
H1558 C1563 0.950 . S
H1559 C1564 0.949 . S
H1560 C1566 0.950 . S
H1561 C1567 0.950 . S
H1562 C1568 0.949 . S
C1563 H1558 0.950 . S
C1563 C1565 1.327 . S
C1563 C1569 1.429 . S
C1564 C1556 1.574 . S
C1564 H1559 0.949 . S
C1564 C1570 1.368 . S
C1565 C1549 1.349 . S
C1565 H1557 0.950 . S
C1565 C1563 1.327 . S
C1566 C1554 1.349 . S
C1566 H1560 0.950 . S
C1566 C1567 1.327 . S
C1567 H1561 0.950 . S
C1567 C1566 1.327 . S
C1567 C1571 1.429 . S
C1568 C1551 1.574 . S
C1568 H1562 0.949 . S
C1568 C1572 1.368 . S
C1569 C1550 1.429 . S
C1569 C1563 1.429 . S
C1569 C1570 1.523 . S
C1570 C1551 1.368 . S
C1570 C1564 1.368 . S
C1570 C1569 1.523 . S
C1571 C1555 1.429 . S
C1571 C1567 1.429 . S
C1571 C1572 1.523 . S
C1572 C1556 1.368 . S
C1572 C1568 1.368 . S
C1572 C1571 1.523 . S
H1573 C1548 0.950 . S
H1574 C1550 0.950 . S
H1575 C1551 0.949 . S
H1576 C1553 0.950 . S
H1577 C1555 0.950 . S
C1578 C1579 1.349 . S
C1578 C1580 1.327 . S
C1578 H1603 0.950 . S
C1579 C1578 1.349 . S
C1579 C1595 1.349 . S
C1580 C1578 1.327 . S
C1580 C1599 1.429 . S
C1580 H1604 0.950 . S
C1581 C1598 1.574 . S
C1581 C1600 1.368 . S
C1581 H1605 0.949 . S
H1582 C1586 0.949 . S
C1583 C1584 1.349 . S
C1583 C1585 1.327 . S
C1583 H1606 0.950 . S
C1584 C1583 1.349 . S
C1584 C1596 1.349 . S
C1585 C1583 1.327 . S
C1585 C1601 1.429 . S
C1585 H1607 0.950 . S
C1586 H1582 0.949 . S
C1586 C1594 1.574 . S
C1586 C1602 1.368 . S
H1587 C1595 0.950 . S
H1588 C1593 0.950 . S
H1589 C1594 0.949 . S
H1590 C1596 0.950 . S
H1591 C1597 0.950 . S
H1592 C1598 0.949 . S
C1593 H1588 0.950 . S
C1593 C1595 1.327 . S
C1593 C1599 1.429 . S
C1594 C1586 1.574 . S
C1594 H1589 0.949 . S
C1594 C1600 1.368 . S
C1595 C1579 1.349 . S
C1595 H1587 0.950 . S
C1595 C1593 1.327 . S
C1596 C1584 1.349 . S
C1596 H1590 0.950 . S
C1596 C1597 1.327 . S
C1597 H1591 0.950 . S
C1597 C1596 1.327 . S
C1597 C1601 1.429 . S
C1598 C1581 1.574 . S
C1598 H1592 0.949 . S
C1598 C1602 1.368 . S
C1599 C1580 1.429 . S
C1599 C1593 1.429 . S
C1599 C1600 1.523 . S
C1600 C1581 1.368 . S
C1600 C1594 1.368 . S
C1600 C1599 1.523 . S
C1601 C1585 1.429 . S
C1601 C1597 1.429 . S
C1601 C1602 1.523 . S
C1602 C1586 1.368 . S
C1602 C1598 1.368 . S
C1602 C1601 1.523 . S
H1603 C1578 0.950 . S
H1604 C1580 0.950 . S
H1605 C1581 0.949 . S
H1606 C1583 0.950 . S
H1607 C1585 0.950 . S
C1608 C1609 1.349 . S
C1608 C1610 1.327 . S
C1608 H1633 0.950 . S
C1609 C1608 1.349 . S
C1609 C1625 1.349 . S
C1610 C1608 1.327 . S
C1610 C1629 1.429 . S
C1610 H1634 0.950 . S
C1611 C1628 1.574 . S
C1611 C1630 1.368 . S
C1611 H1635 0.949 . S
H1612 C1616 0.949 . S
C1613 C1614 1.349 . S
C1613 C1615 1.327 . S
C1613 H1636 0.950 . S
C1614 C1613 1.349 . S
C1614 C1626 1.349 . S
C1615 C1613 1.327 . S
C1615 C1631 1.429 . S
C1615 H1637 0.950 . S
C1616 H1612 0.949 . S
C1616 C1624 1.574 . S
C1616 C1632 1.368 . S
H1617 C1625 0.950 . S
H1618 C1623 0.950 . S
H1619 C1624 0.949 . S
H1620 C1626 0.950 . S
H1621 C1627 0.950 . S
H1622 C1628 0.949 . S
C1623 H1618 0.950 . S
C1623 C1625 1.327 . S
C1623 C1629 1.429 . S
C1624 C1616 1.574 . S
C1624 H1619 0.949 . S
C1624 C1630 1.368 . S
C1625 C1609 1.349 . S
C1625 H1617 0.950 . S
C1625 C1623 1.327 . S
C1626 C1614 1.349 . S
C1626 H1620 0.950 . S
C1626 C1627 1.327 . S
C1627 H1621 0.950 . S
C1627 C1626 1.327 . S
C1627 C1631 1.429 . S
C1628 C1611 1.574 . S
C1628 H1622 0.949 . S
C1628 C1632 1.368 . S
C1629 C1610 1.429 . S
C1629 C1623 1.429 . S
C1629 C1630 1.523 . S
C1630 C1611 1.368 . S
C1630 C1624 1.368 . S
C1630 C1629 1.523 . S
C1631 C1615 1.429 . S
C1631 C1627 1.429 . S
C1631 C1632 1.523 . S
C1632 C1616 1.368 . S
C1632 C1628 1.368 . S
C1632 C1631 1.523 . S
H1633 C1608 0.950 . S
H1634 C1610 0.950 . S
H1635 C1611 0.949 . S
H1636 C1613 0.950 . S
H1637 C1615 0.950 . S
C1638 C1639 1.349 . S
C1638 C1640 1.327 . S
C1638 H1663 0.950 . S
C1639 C1638 1.349 . S
C1639 C1655 1.349 . S
C1640 C1638 1.327 . S
C1640 C1659 1.429 . S
C1640 H1664 0.950 . S
C1641 C1658 1.574 . S
C1641 C1660 1.368 . S
C1641 H1665 0.949 . S
H1642 C1646 0.949 . S
C1643 C1644 1.349 . S
C1643 C1645 1.327 . S
C1643 H1666 0.950 . S
C1644 C1643 1.349 . S
C1644 C1656 1.349 . S
C1645 C1643 1.327 . S
C1645 C1661 1.429 . S
C1645 H1667 0.950 . S
C1646 H1642 0.949 . S
C1646 C1654 1.574 . S
C1646 C1662 1.368 . S
H1647 C1655 0.950 . S
H1648 C1653 0.950 . S
H1649 C1654 0.949 . S
H1650 C1656 0.950 . S
H1651 C1657 0.950 . S
H1652 C1658 0.949 . S
C1653 H1648 0.950 . S
C1653 C1655 1.327 . S
C1653 C1659 1.429 . S
C1654 C1646 1.574 . S
C1654 H1649 0.949 . S
C1654 C1660 1.368 . S
C1655 C1639 1.349 . S
C1655 H1647 0.950 . S
C1655 C1653 1.327 . S
C1656 C1644 1.349 . S
C1656 H1650 0.950 . S
C1656 C1657 1.327 . S
C1657 H1651 0.950 . S
C1657 C1656 1.327 . S
C1657 C1661 1.429 . S
C1658 C1641 1.574 . S
C1658 H1652 0.949 . S
C1658 C1662 1.368 . S
C1659 C1640 1.429 . S
C1659 C1653 1.429 . S
C1659 C1660 1.523 . S
C1660 C1641 1.368 . S
C1660 C1654 1.368 . S
C1660 C1659 1.523 . S
C1661 C1645 1.429 . S
C1661 C1657 1.429 . S
C1661 C1662 1.523 . S
C1662 C1646 1.368 . S
C1662 C1658 1.368 . S
C1662 C1661 1.523 . S
H1663 C1638 0.950 . S
H1664 C1640 0.950 . S
H1665 C1641 0.949 . S
H1666 C1643 0.950 . S
H1667 C1645 0.950 . S
C1668 C1669 1.349 . S
C1668 C1670 1.327 . S
C1668 H1693 0.950 . S
C1669 C1668 1.349 . S
C1669 C1685 1.349 . S
C1670 C1668 1.327 . S
C1670 C1689 1.429 . S
C1670 H1694 0.950 . S
C1671 C1688 1.574 . S
C1671 C1690 1.368 . S
C1671 H1695 0.949 . S
H1672 C1676 0.949 . S
C1673 C1674 1.349 . S
C1673 C1675 1.327 . S
C1673 H1696 0.950 . S
C1674 C1673 1.349 . S
C1674 C1686 1.349 . S
C1675 C1673 1.327 . S
C1675 C1691 1.429 . S
C1675 H1697 0.950 . S
C1676 H1672 0.949 . S
C1676 C1684 1.574 . S
C1676 C1692 1.368 . S
H1677 C1685 0.950 . S
H1678 C1683 0.950 . S
H1679 C1684 0.949 . S
H1680 C1686 0.950 . S
H1681 C1687 0.950 . S
H1682 C1688 0.949 . S
C1683 H1678 0.950 . S
C1683 C1685 1.327 . S
C1683 C1689 1.429 . S
C1684 C1676 1.574 . S
C1684 H1679 0.949 . S
C1684 C1690 1.368 . S
C1685 C1669 1.349 . S
C1685 H1677 0.950 . S
C1685 C1683 1.327 . S
C1686 C1674 1.349 . S
C1686 H1680 0.950 . S
C1686 C1687 1.327 . S
C1687 H1681 0.950 . S
C1687 C1686 1.327 . S
C1687 C1691 1.429 . S
C1688 C1671 1.574 . S
C1688 H1682 0.949 . S
C1688 C1692 1.368 . S
C1689 C1670 1.429 . S
C1689 C1683 1.429 . S
C1689 C1690 1.523 . S
C1690 C1671 1.368 . S
C1690 C1684 1.368 . S
C1690 C1689 1.523 . S
C1691 C1675 1.429 . S
C1691 C1687 1.429 . S
C1691 C1692 1.523 . S
C1692 C1676 1.368 . S
C1692 C1688 1.368 . S
C1692 C1691 1.523 . S
H1693 C1668 0.950 . S
H1694 C1670 0.950 . S
H1695 C1671 0.949 . S
H1696 C1673 0.950 . S
H1697 C1675 0.950 . S
C1698 C1699 1.349 . S
C1698 C1700 1.327 . S
C1698 H1723 0.950 . S
C1699 C1698 1.349 . S
C1699 C1715 1.349 . S
C1700 C1698 1.327 . S
C1700 C1719 1.429 . S
C1700 H1724 0.950 . S
C1701 C1718 1.574 . S
C1701 C1720 1.368 . S
C1701 H1725 0.949 . S
H1702 C1706 0.949 . S
C1703 C1704 1.349 . S
C1703 C1705 1.327 . S
C1703 H1726 0.950 . S
C1704 C1703 1.349 . S
C1704 C1716 1.349 . S
C1705 C1703 1.327 . S
C1705 C1721 1.429 . S
C1705 H1727 0.950 . S
C1706 H1702 0.949 . S
C1706 C1714 1.574 . S
C1706 C1722 1.368 . S
H1707 C1715 0.950 . S
H1708 C1713 0.950 . S
H1709 C1714 0.949 . S
H1710 C1716 0.950 . S
H1711 C1717 0.950 . S
H1712 C1718 0.949 . S
C1713 H1708 0.950 . S
C1713 C1715 1.327 . S
C1713 C1719 1.429 . S
C1714 C1706 1.574 . S
C1714 H1709 0.949 . S
C1714 C1720 1.368 . S
C1715 C1699 1.349 . S
C1715 H1707 0.950 . S
C1715 C1713 1.327 . S
C1716 C1704 1.349 . S
C1716 H1710 0.950 . S
C1716 C1717 1.327 . S
C1717 H1711 0.950 . S
C1717 C1716 1.327 . S
C1717 C1721 1.429 . S
C1718 C1701 1.574 . S
C1718 H1712 0.949 . S
C1718 C1722 1.368 . S
C1719 C1700 1.429 . S
C1719 C1713 1.429 . S
C1719 C1720 1.523 . S
C1720 C1701 1.368 . S
C1720 C1714 1.368 . S
C1720 C1719 1.523 . S
C1721 C1705 1.429 . S
C1721 C1717 1.429 . S
C1721 C1722 1.523 . S
C1722 C1706 1.368 . S
C1722 C1718 1.368 . S
C1722 C1721 1.523 . S
H1723 C1698 0.950 . S
H1724 C1700 0.950 . S
H1725 C1701 0.949 . S
H1726 C1703 0.950 . S
H1727 C1705 0.950 . S
C649 C364 0.972 . S
C654 C4 0.971 . S
C679 C40 0.965 . S
C684 C400 0.958 . S
C709 C328 0.965 . S
C714 C76 0.968 . S
C739 C508 0.972 . S
C744 C112 0.971 . S
C769 C148 0.966 . S
C774 C436 0.964 . S
C799 C472 0.963 . S
C804 C184 0.961 . S
C829 C220 0.985 . S
C834 C580 0.986 . S
C859 C616 0.979 . S
C864 C256 0.979 . S
C889 C292 0.986 . S
C894 C544 0.985 . S
C919 C3 0.789 . S
C924 C38 0.792 . S
C949 C39 0.790 . S
C954 C74 0.793 . S
C979 C2 0.817 . S
C984 C75 0.813 . S
C1009 C182 0.793 . S
C1014 C111 0.791 . S
C1039 C110 0.817 . S
C1044 C147 0.813 . S
C1069 C183 0.790 . S
C1074 C146 0.793 . S
C1099 C219 0.809 . S
C1104 C254 0.816 . S
C1129 C255 0.800 . S
C1134 C290 0.806 . S
C1159 C218 0.810 . S
C1164 C291 0.804 . S
C1189 C398 0.820 . S
C1194 C327 0.813 . S
C1219 C326 0.801 . S
C1224 C363 0.796 . S
C1249 C362 0.802 . S
C1254 C399 0.797 . S
C1279 C470 0.820 . S
C1284 C435 0.813 . S
C1309 C506 0.802 . S
C1314 C471 0.797 . S
C1339 C434 0.801 . S
C1344 C507 0.796 . S
C1369 C543 0.809 . S
C1374 C614 0.816 . S
C1399 C579 0.804 . S
C1404 C542 0.810 . S
C1429 C615 0.800 . S
C1434 C578 0.806 . S
C1459 C14 1.552 . S
C1464 C122 1.552 . S
C1489 C158 1.550 . S
C1494 C50 1.552 . S
C1519 C194 1.550 . S
C1524 C86 1.553 . S
C1549 C338 1.555 . S
C1554 C230 1.555 . S
C1579 C374 1.547 . S
C1584 C266 1.546 . S
C1609 C302 1.558 . S
C1614 C410 1.557 . S
C1639 C554 1.555 . S
C1644 C446 1.555 . S
C1669 C590 1.558 . S
C1674 C482 1.557 . S
C1699 C626 1.547 . S
C1704 C518 1.547 . S
