# Generated by pormake.
# Topology sop, (7)-cn, num edge types: 1
# Building blocks:
#     Node 0, Type 0, BuildingBlock: NUHQUE_clean_sbu_2, # of connection points: 7
#     Node 1, Type 0, BuildingBlock: NUHQUE_clean_sbu_2, # of connection points: 7
#     Node 2, Type 0, BuildingBlock: NUHQUE_clean_sbu_2, # of connection points: 7
#     Node 3, Type 0, BuildingBlock: NUHQUE_clean_sbu_2, # of connection points: 7
#     Node 4, Type 0, BuildingBlock: NUHQUE_clean_sbu_2, # of connection points: 7
#     Node 5, Type 0, BuildingBlock: NUHQUE_clean_sbu_2, # of connection points: 7
#     Node 6, Type 0, BuildingBlock: NUHQUE_clean_sbu_2, # of connection points: 7
#     Node 7, Type 0, BuildingBlock: NUHQUE_clean_sbu_2, # of connection points: 7
#     Node 8, Type 0, BuildingBlock: NUHQUE_clean_sbu_2, # of connection points: 7
#     Node 9, Type 0, BuildingBlock: NUHQUE_clean_sbu_2, # of connection points: 7
#     Node 10, Type 0, BuildingBlock: NUHQUE_clean_sbu_2, # of connection points: 7
#     Node 11, Type 0, BuildingBlock: NUHQUE_clean_sbu_2, # of connection points: 7
#     Node 12, Type 0, BuildingBlock: NUHQUE_clean_sbu_2, # of connection points: 7
#     Node 13, Type 0, BuildingBlock: NUHQUE_clean_sbu_2, # of connection points: 7
#     Node 14, Type 0, BuildingBlock: NUHQUE_clean_sbu_2, # of connection points: 7
#     Node 15, Type 0, BuildingBlock: NUHQUE_clean_sbu_2, # of connection points: 7
#     Node 16, Type 0, BuildingBlock: NUHQUE_clean_sbu_2, # of connection points: 7
#     Node 17, Type 0, BuildingBlock: NUHQUE_clean_sbu_2, # of connection points: 7
#     Node 18, Type 0, BuildingBlock: NUHQUE_clean_sbu_2, # of connection points: 7
#     Node 19, Type 0, BuildingBlock: NUHQUE_clean_sbu_2, # of connection points: 7
#     Node 20, Type 0, BuildingBlock: NUHQUE_clean_sbu_2, # of connection points: 7
#     Node 21, Type 0, BuildingBlock: NUHQUE_clean_sbu_2, # of connection points: 7
#     Node 22, Type 0, BuildingBlock: NUHQUE_clean_sbu_2, # of connection points: 7
#     Node 23, Type 0, BuildingBlock: NUHQUE_clean_sbu_2, # of connection points: 7
#     Node 24, Type 0, BuildingBlock: NUHQUE_clean_sbu_2, # of connection points: 7
#     Node 25, Type 0, BuildingBlock: NUHQUE_clean_sbu_2, # of connection points: 7
#     Node 26, Type 0, BuildingBlock: NUHQUE_clean_sbu_2, # of connection points: 7
#     Node 27, Type 0, BuildingBlock: NUHQUE_clean_sbu_2, # of connection points: 7
#     Node 28, Type 0, BuildingBlock: NUHQUE_clean_sbu_2, # of connection points: 7
#     Node 29, Type 0, BuildingBlock: NUHQUE_clean_sbu_2, # of connection points: 7
#     Node 30, Type 0, BuildingBlock: NUHQUE_clean_sbu_2, # of connection points: 7
#     Node 31, Type 0, BuildingBlock: NUHQUE_clean_sbu_2, # of connection points: 7
#     Edge 32, Type (0, 0), BuildingBlock: KIFKEQ_clean_linker_1, # of connection points: 2
#     Edge 33, Type (0, 0), BuildingBlock: KIFKEQ_clean_linker_1, # of connection points: 2
#     Edge 34, Type (0, 0), BuildingBlock: KIFKEQ_clean_linker_1, # of connection points: 2
#     Edge 35, Type (0, 0), BuildingBlock: KIFKEQ_clean_linker_1, # of connection points: 2
#     Edge 36, Type (0, 0), BuildingBlock: KIFKEQ_clean_linker_1, # of connection points: 2
#     Edge 37, Type (0, 0), BuildingBlock: KIFKEQ_clean_linker_1, # of connection points: 2
#     Edge 38, Type (0, 0), BuildingBlock: KIFKEQ_clean_linker_1, # of connection points: 2
#     Edge 39, Type (0, 0), BuildingBlock: KIFKEQ_clean_linker_1, # of connection points: 2
#     Edge 40, Type (0, 0), BuildingBlock: KIFKEQ_clean_linker_1, # of connection points: 2
#     Edge 41, Type (0, 0), BuildingBlock: KIFKEQ_clean_linker_1, # of connection points: 2
#     Edge 42, Type (0, 0), BuildingBlock: KIFKEQ_clean_linker_1, # of connection points: 2
#     Edge 43, Type (0, 0), BuildingBlock: KIFKEQ_clean_linker_1, # of connection points: 2
#     Edge 44, Type (0, 0), BuildingBlock: KIFKEQ_clean_linker_1, # of connection points: 2
#     Edge 45, Type (0, 0), BuildingBlock: KIFKEQ_clean_linker_1, # of connection points: 2
#     Edge 46, Type (0, 0), BuildingBlock: KIFKEQ_clean_linker_1, # of connection points: 2
#     Edge 47, Type (0, 0), BuildingBlock: KIFKEQ_clean_linker_1, # of connection points: 2
#     Edge 48, Type (0, 0), BuildingBlock: KIFKEQ_clean_linker_1, # of connection points: 2
#     Edge 49, Type (0, 0), BuildingBlock: KIFKEQ_clean_linker_1, # of connection points: 2
#     Edge 50, Type (0, 0), BuildingBlock: KIFKEQ_clean_linker_1, # of connection points: 2
#     Edge 51, Type (0, 0), BuildingBlock: KIFKEQ_clean_linker_1, # of connection points: 2
#     Edge 52, Type (0, 0), BuildingBlock: KIFKEQ_clean_linker_1, # of connection points: 2
#     Edge 53, Type (0, 0), BuildingBlock: KIFKEQ_clean_linker_1, # of connection points: 2
#     Edge 54, Type (0, 0), BuildingBlock: KIFKEQ_clean_linker_1, # of connection points: 2
#     Edge 55, Type (0, 0), BuildingBlock: KIFKEQ_clean_linker_1, # of connection points: 2
#     Edge 56, Type (0, 0), BuildingBlock: KIFKEQ_clean_linker_1, # of connection points: 2
#     Edge 57, Type (0, 0), BuildingBlock: KIFKEQ_clean_linker_1, # of connection points: 2
#     Edge 58, Type (0, 0), BuildingBlock: KIFKEQ_clean_linker_1, # of connection points: 2
#     Edge 59, Type (0, 0), BuildingBlock: KIFKEQ_clean_linker_1, # of connection points: 2
#     Edge 60, Type (0, 0), BuildingBlock: KIFKEQ_clean_linker_1, # of connection points: 2
#     Edge 61, Type (0, 0), BuildingBlock: KIFKEQ_clean_linker_1, # of connection points: 2
#     Edge 62, Type (0, 0), BuildingBlock: KIFKEQ_clean_linker_1, # of connection points: 2
#     Edge 63, Type (0, 0), BuildingBlock: KIFKEQ_clean_linker_1, # of connection points: 2
#     Edge 64, Type (0, 0), BuildingBlock: KIFKEQ_clean_linker_1, # of connection points: 2
#     Edge 65, Type (0, 0), BuildingBlock: KIFKEQ_clean_linker_1, # of connection points: 2
#     Edge 66, Type (0, 0), BuildingBlock: KIFKEQ_clean_linker_1, # of connection points: 2
#     Edge 67, Type (0, 0), BuildingBlock: KIFKEQ_clean_linker_1, # of connection points: 2
#     Edge 68, Type (0, 0), BuildingBlock: KIFKEQ_clean_linker_1, # of connection points: 2
#     Edge 69, Type (0, 0), BuildingBlock: KIFKEQ_clean_linker_1, # of connection points: 2
#     Edge 70, Type (0, 0), BuildingBlock: KIFKEQ_clean_linker_1, # of connection points: 2
#     Edge 71, Type (0, 0), BuildingBlock: KIFKEQ_clean_linker_1, # of connection points: 2
#     Edge 72, Type (0, 0), BuildingBlock: KIFKEQ_clean_linker_1, # of connection points: 2
#     Edge 73, Type (0, 0), BuildingBlock: KIFKEQ_clean_linker_1, # of connection points: 2
#     Edge 74, Type (0, 0), BuildingBlock: KIFKEQ_clean_linker_1, # of connection points: 2
#     Edge 75, Type (0, 0), BuildingBlock: KIFKEQ_clean_linker_1, # of connection points: 2
#     Edge 76, Type (0, 0), BuildingBlock: KIFKEQ_clean_linker_1, # of connection points: 2
#     Edge 77, Type (0, 0), BuildingBlock: KIFKEQ_clean_linker_1, # of connection points: 2
#     Edge 78, Type (0, 0), BuildingBlock: KIFKEQ_clean_linker_1, # of connection points: 2
#     Edge 79, Type (0, 0), BuildingBlock: KIFKEQ_clean_linker_1, # of connection points: 2
#     Edge 80, Type (0, 0), BuildingBlock: KIFKEQ_clean_linker_1, # of connection points: 2
#     Edge 81, Type (0, 0), BuildingBlock: KIFKEQ_clean_linker_1, # of connection points: 2
#     Edge 82, Type (0, 0), BuildingBlock: KIFKEQ_clean_linker_1, # of connection points: 2
#     Edge 83, Type (0, 0), BuildingBlock: KIFKEQ_clean_linker_1, # of connection points: 2
#     Edge 84, Type (0, 0), BuildingBlock: KIFKEQ_clean_linker_1, # of connection points: 2
#     Edge 85, Type (0, 0), BuildingBlock: KIFKEQ_clean_linker_1, # of connection points: 2
#     Edge 86, Type (0, 0), BuildingBlock: KIFKEQ_clean_linker_1, # of connection points: 2
#     Edge 87, Type (0, 0), BuildingBlock: KIFKEQ_clean_linker_1, # of connection points: 2
#     Edge 88, Type (0, 0), BuildingBlock: KIFKEQ_clean_linker_1, # of connection points: 2
#     Edge 89, Type (0, 0), BuildingBlock: KIFKEQ_clean_linker_1, # of connection points: 2
#     Edge 90, Type (0, 0), BuildingBlock: KIFKEQ_clean_linker_1, # of connection points: 2
#     Edge 91, Type (0, 0), BuildingBlock: KIFKEQ_clean_linker_1, # of connection points: 2
#     Edge 92, Type (0, 0), BuildingBlock: KIFKEQ_clean_linker_1, # of connection points: 2
#     Edge 93, Type (0, 0), BuildingBlock: KIFKEQ_clean_linker_1, # of connection points: 2
#     Edge 94, Type (0, 0), BuildingBlock: KIFKEQ_clean_linker_1, # of connection points: 2
#     Edge 95, Type (0, 0), BuildingBlock: KIFKEQ_clean_linker_1, # of connection points: 2
#     Edge 96, Type (0, 0), BuildingBlock: KIFKEQ_clean_linker_1, # of connection points: 2
#     Edge 97, Type (0, 0), BuildingBlock: KIFKEQ_clean_linker_1, # of connection points: 2
#     Edge 98, Type (0, 0), BuildingBlock: KIFKEQ_clean_linker_1, # of connection points: 2
#     Edge 99, Type (0, 0), BuildingBlock: KIFKEQ_clean_linker_1, # of connection points: 2
#     Edge 100, Type (0, 0), BuildingBlock: KIFKEQ_clean_linker_1, # of connection points: 2
#     Edge 101, Type (0, 0), BuildingBlock: KIFKEQ_clean_linker_1, # of connection points: 2
#     Edge 102, Type (0, 0), BuildingBlock: KIFKEQ_clean_linker_1, # of connection points: 2
#     Edge 103, Type (0, 0), BuildingBlock: KIFKEQ_clean_linker_1, # of connection points: 2
#     Edge 104, Type (0, 0), BuildingBlock: KIFKEQ_clean_linker_1, # of connection points: 2
#     Edge 105, Type (0, 0), BuildingBlock: KIFKEQ_clean_linker_1, # of connection points: 2
#     Edge 106, Type (0, 0), BuildingBlock: KIFKEQ_clean_linker_1, # of connection points: 2
#     Edge 107, Type (0, 0), BuildingBlock: KIFKEQ_clean_linker_1, # of connection points: 2
#     Edge 108, Type (0, 0), BuildingBlock: KIFKEQ_clean_linker_1, # of connection points: 2
#     Edge 109, Type (0, 0), BuildingBlock: KIFKEQ_clean_linker_1, # of connection points: 2
#     Edge 110, Type (0, 0), BuildingBlock: KIFKEQ_clean_linker_1, # of connection points: 2
#     Edge 111, Type (0, 0), BuildingBlock: KIFKEQ_clean_linker_1, # of connection points: 2
#     Edge 112, Type (0, 0), BuildingBlock: KIFKEQ_clean_linker_1, # of connection points: 2
#     Edge 113, Type (0, 0), BuildingBlock: KIFKEQ_clean_linker_1, # of connection points: 2
#     Edge 114, Type (0, 0), BuildingBlock: KIFKEQ_clean_linker_1, # of connection points: 2
#     Edge 115, Type (0, 0), BuildingBlock: KIFKEQ_clean_linker_1, # of connection points: 2
#     Edge 116, Type (0, 0), BuildingBlock: KIFKEQ_clean_linker_1, # of connection points: 2
#     Edge 117, Type (0, 0), BuildingBlock: KIFKEQ_clean_linker_1, # of connection points: 2
#     Edge 118, Type (0, 0), BuildingBlock: KIFKEQ_clean_linker_1, # of connection points: 2
#     Edge 119, Type (0, 0), BuildingBlock: KIFKEQ_clean_linker_1, # of connection points: 2
#     Edge 120, Type (0, 0), BuildingBlock: KIFKEQ_clean_linker_1, # of connection points: 2
#     Edge 121, Type (0, 0), BuildingBlock: KIFKEQ_clean_linker_1, # of connection points: 2
#     Edge 122, Type (0, 0), BuildingBlock: KIFKEQ_clean_linker_1, # of connection points: 2
#     Edge 123, Type (0, 0), BuildingBlock: KIFKEQ_clean_linker_1, # of connection points: 2
#     Edge 124, Type (0, 0), BuildingBlock: KIFKEQ_clean_linker_1, # of connection points: 2
#     Edge 125, Type (0, 0), BuildingBlock: KIFKEQ_clean_linker_1, # of connection points: 2
#     Edge 126, Type (0, 0), BuildingBlock: KIFKEQ_clean_linker_1, # of connection points: 2
#     Edge 127, Type (0, 0), BuildingBlock: KIFKEQ_clean_linker_1, # of connection points: 2
#     Edge 128, Type (0, 0), BuildingBlock: KIFKEQ_clean_linker_1, # of connection points: 2
#     Edge 129, Type (0, 0), BuildingBlock: KIFKEQ_clean_linker_1, # of connection points: 2
#     Edge 130, Type (0, 0), BuildingBlock: KIFKEQ_clean_linker_1, # of connection points: 2
#     Edge 131, Type (0, 0), BuildingBlock: KIFKEQ_clean_linker_1, # of connection points: 2
#     Edge 132, Type (0, 0), BuildingBlock: KIFKEQ_clean_linker_1, # of connection points: 2
#     Edge 133, Type (0, 0), BuildingBlock: KIFKEQ_clean_linker_1, # of connection points: 2
#     Edge 134, Type (0, 0), BuildingBlock: KIFKEQ_clean_linker_1, # of connection points: 2
#     Edge 135, Type (0, 0), BuildingBlock: KIFKEQ_clean_linker_1, # of connection points: 2
#     Edge 136, Type (0, 0), BuildingBlock: KIFKEQ_clean_linker_1, # of connection points: 2
#     Edge 137, Type (0, 0), BuildingBlock: KIFKEQ_clean_linker_1, # of connection points: 2
#     Edge 138, Type (0, 0), BuildingBlock: KIFKEQ_clean_linker_1, # of connection points: 2
#     Edge 139, Type (0, 0), BuildingBlock: KIFKEQ_clean_linker_1, # of connection points: 2
#     Edge 140, Type (0, 0), BuildingBlock: KIFKEQ_clean_linker_1, # of connection points: 2
#     Edge 141, Type (0, 0), BuildingBlock: KIFKEQ_clean_linker_1, # of connection points: 2
#     Edge 142, Type (0, 0), BuildingBlock: KIFKEQ_clean_linker_1, # of connection points: 2
#     Edge 143, Type (0, 0), BuildingBlock: KIFKEQ_clean_linker_1, # of connection points: 2
# Relax obj value: 0.248
# Max RMSD: 0.261
# Mean RMSD: 0.261
data_MOF--net-sop--node1-NUHQUE_clean_sbu_2--edge1-KIFKEQ_clean_linker_1
_symmetry_space_group_name_H-M    P1
_symmetry_Int_Tables_number       1
_symmetry_cell_setting            triclinic
loop_
_symmetry_equiv_pos_as_xyz
'x, y, z'
_cell_length_a     118.62671
_cell_length_b     26.74887
_cell_length_c     61.558857
_cell_angle_alpha  89.030333
_cell_angle_beta   90.035737
_cell_angle_gamma 89.873405
loop_
_atom_site_label
_atom_site_type_symbol
_atom_site_fract_x
_atom_site_fract_y
_atom_site_fract_z
_atom_type_partial_charge
O0 O 0.10417 0.37021 0.06569 0.0
Tb1 Tb 0.11595 0.39329 0.09051 0.0
Eu2 Eu 0.08976 0.43768 0.08921 0.0
C3 C 0.10398 0.32471 0.05768 0.0
O4 O 0.09593 0.31312 0.04404 0.0
C5 C 0.09852 0.33656 0.12001 0.0
O6 O 0.08302 0.49287 0.11362 0.0
C7 C 0.07552 0.44009 0.05641 0.0
C8 C 0.08908 0.50748 0.13027 0.0
O9 O 0.09868 0.48467 0.13446 0.0
C10 C 0.1127 0.50938 0.09248 0.0
C11 C 0.0668 0.44281 1.03831 0.0
C12 C 0.06948 0.43234 1.01626 0.0
C13 C 0.06124 0.43762 0.99953 0.0
C14 C 0.05042 0.45508 1.00513 0.0
C15 C 0.04737 0.46576 1.0267 0.0
C16 C 0.05567 0.45909 0.0431 0.0
O17 O 0.10913 0.35068 0.11778 0.0
O18 O 0.09025 0.36076 0.10913 0.0
O19 O 0.13085 0.3971 0.06966 0.0
O20 O 0.13086 0.34734 0.09682 0.0
C21 C 0.1368 0.36436 0.08054 0.0
O22 O 0.10254 0.50287 0.0839 0.0
O23 O 0.11821 0.47065 0.10065 0.0
O24 O 0.07266 0.44724 0.07677 0.0
O25 O 0.08626 0.42877 0.05383 0.0
H26 H 0.07789 0.41975 1.01215 0.0
H27 H 0.04438 0.46149 0.99218 0.0
H28 H 0.05348 0.46669 0.05978 0.0
O29 O 0.16007 0.99975 0.06509 0.0
Tb30 Tb 0.14823 0.97271 0.08937 0.0
Eu31 Eu 0.17459 0.93141 0.0899 0.0
C32 C 0.16051 1.04667 0.05806 0.0
O33 O 0.16882 0.06016 0.04517 0.0
C34 C 0.1646 1.03003 0.12015 0.0
O35 O 0.18148 0.87266 0.11334 0.0
C36 C 0.18895 0.94172 0.05734 0.0
C37 C 0.17537 0.85801 0.13012 0.0
O38 O 0.16603 0.88244 0.13434 0.0
C39 C 0.15228 0.85762 0.09255 0.0
C40 C 0.19652 0.91956 0.04004 0.0
C41 C 0.19419 0.92678 1.01742 0.0
C42 C 0.20206 0.91196 1.00125 0.0
C43 C 0.21209 0.88808 1.00814 0.0
C44 C 0.21478 0.88135 1.03022 0.0
C45 C 0.20699 0.89739 0.04601 0.0
O46 O 0.15401 1.01829 0.11599 0.0
O47 O 0.17315 1.00473 0.11104 0.0
O48 O 0.1341 0.96094 0.06733 0.0
O49 O 0.13215 1.0111 0.09331 0.0
C50 C 0.12703 0.99027 0.07706 0.0
O51 O 0.16227 0.86558 0.08342 0.0
O52 O 0.14695 0.89539 0.10133 0.0
O53 O 0.19185 0.93603 0.07787 0.0
O54 O 0.17793 0.9435 0.05473 0.0
H55 H 0.18654 0.946 1.01246 0.0
H56 H 0.21814 0.87603 0.9961 0.0
H57 H 0.20922 0.89315 0.06301 0.0
O58 O 0.12431 0.98889 0.21317 0.0
Tb59 Tb 0.11074 0.9372 0.21987 0.0
Eu60 Eu 0.08546 0.90869 0.24329 0.0
C61 C 0.12825 1.01307 0.22989 0.0
O62 O 0.12626 0.99432 0.24938 0.0
C63 C 0.09263 1.01633 0.21962 0.0
O64 O 0.0797 0.83917 0.22588 0.0
C65 C 0.0726 0.92067 0.27763 0.0
C66 C 0.07613 0.83628 0.2057 0.0
O67 O 0.07391 0.87738 0.19454 0.0
C68 C 0.11017 0.84343 0.2497 0.0
C69 C 0.06581 0.89909 0.29646 0.0
C70 C 0.06859 0.90916 0.31851 0.0
C71 C 0.06116 0.89552 0.33577 0.0
C72 C 0.05107 0.87061 0.33063 0.0
C73 C 0.04789 0.86098 0.30902 0.0
C74 C 0.05541 0.87509 0.2922 0.0
O75 O 0.10231 1.00586 0.22883 0.0
O76 O 0.08483 0.98055 0.22024 0.0
O77 O 0.1129 0.90778 0.18732 0.0
O78 O 0.09644 0.91129 0.20093 0.0
C79 C 0.10225 0.89883 0.18396 0.0
O80 O 0.09892 0.84594 0.24963 0.0
O81 O 0.11634 0.8817 0.24333 0.0
O82 O 0.06885 0.913 0.2578 0.0
O83 O 0.08371 0.92399 0.27847 0.0
H84 H 0.0762 0.92968 0.32214 0.0
H85 H 0.04558 0.85907 0.34383 0.0
H86 H 0.05288 0.86962 0.27552 0.0
O87 O 0.14233 0.39819 0.19555 0.0
Tb88 Tb 0.15744 0.43695 0.20524 0.0
Eu89 Eu 0.17788 0.44583 0.24492 0.0
C90 C 0.13513 0.38701 0.21105 0.0
O91 O 0.13517 0.41495 0.22841 0.0
C92 C 0.17021 0.34449 0.21859 0.0
O93 O 0.18037 0.51757 0.22542 0.0
C94 C 0.19243 0.44026 0.27724 0.0
C95 C 0.18712 0.52575 0.20879 0.0
O96 O 0.19366 0.4898 0.20176 0.0
C97 C 0.15439 0.51541 0.24297 0.0
C98 C 0.19933 0.46128 0.29575 0.0
C99 C 0.19667 0.4512 0.31804 0.0
C100 C 0.20419 0.46479 0.33501 0.0
C101 C 0.21424 0.4899 0.32931 0.0
C102 C 0.21721 0.49961 0.30756 0.0
C103 C 0.20973 0.48514 0.29099 0.0
O104 O 0.16027 0.36473 0.22075 0.0
O105 O 0.179 0.37227 0.22425 0.0
O106 O 0.15972 0.46278 0.17194 0.0
O107 O 0.17401 0.43651 0.18976 0.0
C108 C 0.17056 0.45494 0.1712 0.0
O109 O 0.16213 0.49216 0.25541 0.0
O110 O 0.15248 0.5027 0.22277 0.0
O111 O 0.19502 0.45346 0.25712 0.0
O112 O 0.18166 0.42909 0.27957 0.0
H113 H 0.18906 0.43077 0.32209 0.0
H114 H 0.22007 0.50043 0.342 0.0
H115 H 0.21219 0.49168 0.27424 0.0
O116 O 0.89688 0.71984 0.94691 0.0
Tb117 Tb 0.9073 0.65347 0.9499 0.0
Eu118 Eu 0.92862 0.65368 0.99241 0.0
C119 C 0.89719 0.74933 0.96373 0.0
O120 O 0.90178 0.73201 0.98178 0.0
C121 C 0.92448 0.73825 0.95256 0.0
O122 O 0.93461 0.58711 0.97333 0.0
C123 C 0.94207 0.66308 1.02616 0.0
C124 C 0.93691 0.58496 0.95248 0.0
O125 O 0.93752 0.62622 0.94072 0.0
C126 C 0.90417 0.59172 0.99241 0.0
C127 C 0.94953 0.6421 0.04424 0.0
C128 C 0.94715 0.65188 0.06651 0.0
C129 C 0.95512 0.64053 0.08321 0.0
C130 C 0.96548 0.61876 0.07723 0.0
C131 C 0.96807 0.60802 0.05552 0.0
C132 C 0.96002 0.61922 1.03921 0.0
O133 O 0.9218 0.69912 0.94103 0.0
O134 O 0.9261 0.73122 0.97391 0.0
O135 O 0.89932 0.61856 0.92224 0.0
O136 O 0.91115 0.57664 0.94115 0.0
C137 C 0.90421 0.57493 0.92478 0.0
O138 O 0.91487 0.59315 0.99884 0.0
O139 O 0.90001 0.62908 0.98077 0.0
O140 O 0.94553 0.65936 1.00589 0.0
O141 O 0.93097 0.6633 1.02784 0.0
H142 H 0.93936 0.67056 0.07072 0.0
H143 H 0.97166 0.60993 0.0897 0.0
H144 H 0.96219 0.6123 1.02244 0.0
O145 O 0.87174 0.13076 0.95336 0.0
Tb146 Tb 0.85748 0.17432 0.96387 0.0
Eu147 Eu 0.83294 0.19517 0.99167 0.0
C148 C 0.87825 0.11084 0.96838 0.0
O149 O 0.87705 0.12588 0.98847 0.0
C150 C 0.8406 0.08957 0.96639 0.0
O151 O 0.82459 0.2598 0.97392 0.0
C152 C 0.82089 0.18148 1.02727 0.0
C153 C 0.82021 0.25919 0.95433 0.0
O154 O 0.81953 0.21705 0.94379 0.0
C155 C 0.85713 0.26455 0.99417 0.0
C156 C 0.81398 0.20279 0.04579 0.0
C157 C 0.81696 0.19374 0.06795 0.0
C158 C 0.80974 0.20841 0.0852 0.0
C159 C 0.79928 0.23063 0.07981 0.0
C160 C 0.79591 0.23981 0.0581 0.0
C161 C 0.80347 0.22638 0.04134 0.0
O162 O 0.85078 0.10152 0.97267 0.0
O163 O 0.83239 0.12304 0.96953 0.0
O164 O 0.85853 0.21321 0.93263 0.0
O165 O 0.8424 0.19589 0.94566 0.0
C166 C 0.8477 0.21621 0.92927 0.0
O167 O 0.84588 0.26162 0.99502 0.0
O168 O 0.86314 0.22595 0.98809 0.0
O169 O 0.81673 0.18611 1.00751 0.0
O170 O 0.83203 0.18179 1.02742 0.0
H171 H 0.82484 0.17495 0.07175 0.0
H172 H 0.79349 0.23887 0.09286 0.0
H173 H 0.80106 0.23352 1.02462 0.0
O174 O 0.91098 0.12548 0.81379 0.0
Tb175 Tb 0.89922 0.14309 0.83969 0.0
Eu176 Eu 0.92507 0.18524 0.83817 0.0
C177 C 0.91491 0.08046 0.80935 0.0
O178 O 0.92272 0.07658 0.79435 0.0
C179 C 0.91643 0.08064 0.86767 0.0
O180 O 0.93153 0.23985 0.86284 0.0
C181 C 0.9395 0.19039 0.80576 0.0
C182 C 0.92555 0.25305 0.8798 0.0
O183 O 0.91619 0.22889 0.88431 0.0
C184 C 0.90234 0.25753 0.84228 0.0
C185 C 0.94824 0.1945 0.78779 0.0
C186 C 0.94564 0.18413 0.7657 0.0
C187 C 0.95388 0.19001 0.74904 0.0
C188 C 0.96467 0.20737 0.75485 0.0
C189 C 0.96748 0.21986 0.77637 0.0
C190 C 0.95918 0.21262 0.79267 0.0
O191 O 0.90576 0.09342 0.86493 0.0
O192 O 0.92469 0.10725 0.85782 0.0
O193 O 0.88505 0.15141 0.81717 0.0
O194 O 0.88313 0.10549 0.84523 0.0
C195 C 0.878 0.12364 0.82811 0.0
O196 O 0.91213 0.25027 0.83236 0.0
O197 O 0.89744 0.21905 0.85183 0.0
O198 O 0.94231 0.19481 0.82632 0.0
O199 O 0.92877 0.18022 0.80274 0.0
H200 H 0.9373 0.1711 0.7615 0.0
H201 H 0.97098 0.21146 0.74224 0.0
H202 H 0.96112 0.22269 0.80921 0.0
O203 O 0.87472 0.74348 0.86822 0.0
Tb204 Tb 0.85993 0.69674 0.86396 0.0
Eu205 Eu 0.83405 0.66353 0.845 0.0
C206 C 0.88172 0.75172 0.852 0.0
O207 O 0.88077 0.72478 0.83445 0.0
C208 C 0.84079 0.77127 0.8688 0.0
O209 O 0.82539 0.60038 0.86312 0.0
C210 C 0.82187 0.6763 0.80939 0.0
C211 C 0.82339 0.59979 0.88412 0.0
O212 O 0.82554 0.63964 0.89558 0.0
C213 C 0.85876 0.59846 0.83937 0.0
C214 C 0.81495 0.65365 0.79118 0.0
C215 C 0.81801 0.66031 0.7689 0.0
C216 C 0.8108 0.64424 0.75188 0.0
C217 C 0.80029 0.62323 0.75759 0.0
C218 C 0.7969 0.61564 0.77934 0.0
C219 C 0.80439 0.63072 0.79594 0.0
O220 O 0.85042 0.76519 0.85879 0.0
O221 O 0.83343 0.73357 0.8682 0.0
O222 O 0.86287 0.66677 0.89662 0.0
O223 O 0.84751 0.65067 0.88089 0.0
C224 C 0.85346 0.64183 0.89827 0.0
O225 O 0.84757 0.59929 0.84225 0.0
O226 O 0.86463 0.64031 0.84056 0.0
O227 O 0.81779 0.67263 0.8292 0.0
O228 O 0.83301 0.67604 0.80919 0.0
H229 H 0.82593 0.67816 0.76483 0.0
H230 H 0.79448 0.61419 0.74467 0.0
H231 H 0.80191 0.62523 0.81272 0.0
O232 O 0.12462 0.85466 0.62459 0.0
Tb233 Tb 0.11084 0.90776 0.6209 0.0
Eu234 Eu 0.086 0.9469 0.59218 0.0
C235 C 0.1327 0.85239 0.61006 0.0
O236 O 0.13321 0.88707 0.59473 0.0
C237 C 0.09204 0.83467 0.61345 0.0
O238 O 0.0784 1.00102 0.61609 0.0
C239 C 0.07298 0.95222 0.55767 0.0
C240 C 0.08465 1.02539 0.63007 0.0
O241 O 0.09547 1.01583 0.63135 0.0
C242 C 0.1112 1.01099 0.59361 0.0
C243 C 0.06473 0.95706 0.53882 0.0
C244 C 0.06786 0.94891 0.51678 0.0
C245 C 0.06017 0.95907 0.49943 0.0
C246 C 0.04927 0.97659 0.50464 0.0
C247 C 0.04575 0.98406 0.52623 0.0
C248 C 0.0536 0.97392 0.54306 0.0
O249 O 0.10215 0.84566 0.60625 0.0
O250 O 0.08419 0.87022 0.61147 0.0
O251 O 0.11289 0.9261 0.65501 0.0
O252 O 0.09631 0.91787 0.64228 0.0
C253 C 0.10217 0.92756 0.65952 0.0
O254 O 0.10028 1.00701 0.58836 0.0
O255 O 0.11683 0.97421 0.60333 0.0
O256 O 0.06984 0.96426 0.57737 0.0
O257 O 0.08339 0.93481 0.55662 0.0
H258 H 0.07633 0.9365 0.51309 0.0
H259 H 0.04348 0.98506 0.49149 0.0
H260 H 0.05104 0.97924 0.55972 0.0
O261 O 0.16264 0.48885 0.56297 0.0
Tb262 Tb 0.15029 0.46692 0.58737 0.0
Eu263 Eu 0.17619 0.42482 0.58904 0.0
C264 C 0.16675 0.53435 0.55999 0.0
O265 O 0.17492 0.54087 0.54584 0.0
C266 C 0.16609 0.52423 0.61893 0.0
O267 O 0.18255 0.36425 0.61204 0.0
C268 C 0.19062 0.4334 0.55645 0.0
C269 C 0.17727 0.35382 0.63035 0.0
O270 O 0.16912 0.38354 0.6367 0.0
C271 C 0.15365 0.35214 0.5913 0.0
C272 C 0.19819 0.41113 0.53925 0.0
C273 C 0.19598 0.41962 0.51668 0.0
C274 C 0.20377 0.40463 0.50046 0.0
C275 C 0.21365 0.37932 0.50725 0.0
C276 C 0.2162 0.37096 0.52934 0.0
C277 C 0.20846 0.38726 0.54519 0.0
O278 O 0.1556 0.51229 0.61427 0.0
O279 O 0.17476 0.49907 0.61001 0.0
O280 O 0.13671 0.45741 0.5638 0.0
O281 O 0.13411 0.50498 0.59037 0.0
C282 C 0.1294 0.48598 0.57327 0.0
O283 O 0.16373 0.3594 0.58248 0.0
O284 O 0.14838 0.39041 0.59976 0.0
O285 O 0.19353 0.4294 0.57706 0.0
O286 O 0.17962 0.43358 0.55381 0.0
H287 H 0.18845 0.43994 0.51181 0.0
H288 H 0.21966 0.36721 0.49516 0.0
H289 H 0.21053 0.38173 0.5622 0.0
O290 O 0.12369 0.49278 0.72558 0.0
Tb291 Tb 0.10901 0.44494 0.7239 0.0
Eu292 Eu 0.08276 0.41187 0.74117 0.0
C293 C 0.12448 0.51994 0.74309 0.0
O294 O 0.11711 0.51276 0.75875 0.0
C295 C 0.08998 0.52021 0.71735 0.0
O296 O 0.07393 0.34933 0.72409 0.0
C297 C 0.07128 0.42391 0.77737 0.0
C298 C 0.07191 0.34883 0.70312 0.0
O299 O 0.07345 0.38968 0.69142 0.0
C300 C 0.10666 0.34322 0.74676 0.0
C301 C 0.06447 0.39954 0.79557 0.0
C302 C 0.06754 0.40446 0.81785 0.0
C303 C 0.06051 0.38574 0.8349 0.0
C304 C 0.05023 0.3628 0.82918 0.0
C305 C 0.04677 0.35853 0.80742 0.0
C306 C 0.05398 0.37669 0.79084 0.0
O307 O 0.09939 0.5133 0.7282 0.0
O308 O 0.08248 0.48311 0.71779 0.0
O309 O 0.11381 0.42177 0.69137 0.0
O310 O 0.09661 0.41645 0.70119 0.0
C311 C 0.10366 0.40913 0.68543 0.0
O312 O 0.09562 0.34496 0.74265 0.0
O313 O 0.1125 0.38492 0.747 0.0
O314 O 0.06688 0.42336 0.75775 0.0
O315 O 0.08241 0.42126 0.777 0.0
H316 H 0.07534 0.42312 0.82189 0.0
H317 H 0.04456 0.35006 0.8419 0.0
H318 H 0.05126 0.37355 0.77411 0.0
O319 O 0.16488 0.87523 0.77058 0.0
Tb320 Tb 0.151 0.89373 0.74906 0.0
Eu321 Eu 0.1762 0.94324 0.74593 0.0
C322 C 0.16836 0.8292 0.77455 0.0
O323 O 0.17756 0.82183 0.78604 0.0
C324 C 0.16664 0.84481 0.71507 0.0
O325 O 0.1823 1.00466 0.72315 0.0
C326 C 0.19061 0.93648 0.77874 0.0
C327 C 0.1769 1.01549 0.70496 0.0
O328 O 0.1687 0.98609 0.69872 0.0
C329 C 0.15239 1.00973 0.7449 0.0
C330 C 0.19822 0.95689 0.79633 0.0
C331 C 0.1957 0.9477 0.8187 0.0
C332 C 0.2035 0.95967 0.83534 0.0
C333 C 0.21377 0.98214 0.82921 0.0
C334 C 0.21658 0.99266 0.80733 0.0
C335 C 0.20871 0.97954 0.79102 0.0
O336 O 0.15613 0.85591 0.71994 0.0
O337 O 0.17522 0.86914 0.72465 0.0
O338 O 0.13734 0.89543 0.7729 0.0
O339 O 0.13674 0.84262 0.74778 0.0
C340 C 0.1314 0.85969 0.76458 0.0
O341 O 0.16289 1.0057 0.75226 0.0
O342 O 0.14717 0.96977 0.73794 0.0
O343 O 0.19358 0.9402 0.75818 0.0
O344 O 0.17962 0.93663 0.78128 0.0
H345 H 0.18791 0.92908 0.82309 0.0
H346 H 0.2198 0.99061 0.84182 0.0
H347 H 0.21079 0.9865 0.77412 0.0
O348 O 0.90498 0.25564 0.5081 0.0
Tb349 Tb 0.89852 0.20806 0.48267 0.0
Eu350 Eu 0.92464 0.16052 0.49339 0.0
C351 C 0.90563 0.3034 0.50255 0.0
O352 O 0.90492 0.3152 0.48182 0.0
C353 C 0.91861 0.25183 0.45683 0.0
O354 O 0.93113 0.10474 0.46916 0.0
C355 C 0.93855 0.15586 0.52657 0.0
C356 C 0.92482 0.0896 0.45297 0.0
O357 O 0.91518 0.11231 0.44913 0.0
C358 C 0.90102 0.09045 0.4915 0.0
C359 C 0.94724 0.15129 0.54467 0.0
C360 C 0.94458 0.15912 0.567 0.0
C361 C 0.9527 0.14953 0.58369 0.0
C362 C 0.96361 0.13396 0.57755 0.0
C363 C 0.96648 0.12567 0.55577 0.0
C364 C 0.95824 0.13406 0.53957 0.0
O365 O 0.90859 0.23139 0.4547 0.0
O366 O 0.92527 0.23676 0.4733 0.0
O367 O 0.88247 0.22528 0.4981 0.0
O368 O 0.88479 0.24546 0.46493 0.0
C369 C 0.87785 0.24698 0.48132 0.0
O370 O 0.91143 0.09718 0.49898 0.0
O371 O 0.89532 0.12762 0.48247 0.0
O372 O 0.94139 0.14654 0.50638 0.0
O373 O 0.92803 0.17127 0.52876 0.0
H374 H 0.93614 0.17057 0.57143 0.0
H375 H 0.96991 0.12691 0.59 0.0
H376 H 0.96045 0.12684 0.52284 0.0
O377 O 0.85336 0.61149 0.52624 0.0
Tb378 Tb 0.86445 0.62927 0.49911 0.0
Eu379 Eu 0.83798 0.67228 0.49713 0.0
C380 C 0.85511 0.57547 0.54082 0.0
O381 O 0.84837 0.57244 0.55771 0.0
C382 C 0.84778 0.57237 0.46777 0.0
O383 O 0.83145 0.73047 0.47305 0.0
C384 C 0.82349 0.66345 0.52959 0.0
C385 C 0.83799 0.74498 0.45686 0.0
O386 O 0.84747 0.72073 0.45368 0.0
C387 C 0.86071 0.74431 0.49501 0.0
C388 C 0.81614 0.68527 0.54729 0.0
C389 C 0.81887 0.67873 0.56977 0.0
C390 C 0.81117 0.69273 0.58635 0.0
C391 C 0.80084 0.71477 0.58009 0.0
C392 C 0.79782 0.72138 0.55814 0.0
C393 C 0.80547 0.70626 0.54192 0.0
O394 O 0.85833 0.58313 0.47276 0.0
O395 O 0.83919 0.59875 0.47609 0.0
O396 O 0.87922 0.63856 0.51994 0.0
O397 O 0.88015 0.58838 0.49397 0.0
C398 C 0.88581 0.60787 0.50982 0.0
O399 O 0.85055 0.73728 0.50362 0.0
O400 O 0.86612 0.70601 0.48684 0.0
O401 O 0.82063 0.67069 0.50911 0.0
O402 O 0.83447 0.65975 0.53215 0.0
H403 H 0.82671 0.66057 0.57434 0.0
H404 H 0.79487 0.7254 0.59254 0.0
H405 H 0.80299 0.71024 0.52504 0.0
O406 O 0.89052 0.60093 0.37133 0.0
Tb407 Tb 0.90346 0.65554 0.36376 0.0
Eu408 Eu 0.92853 0.68905 0.33922 0.0
C409 C 0.8869 0.57323 0.35537 0.0
O410 O 0.88902 0.58838 0.33537 0.0
C411 C 0.92229 0.57923 0.36138 0.0
O412 O 0.93279 0.75689 0.35903 0.0
C413 C 0.94187 0.69173 0.30539 0.0
C414 C 0.93688 0.7592 0.37884 0.0
O415 O 0.94 0.71819 0.38924 0.0
C416 C 0.90337 0.75278 0.33574 0.0
C417 C 0.95031 0.69525 0.28692 0.0
C418 C 0.9475 0.68634 0.26474 0.0
C419 C 0.95556 0.69436 0.24782 0.0
C420 C 0.96654 0.70955 0.25365 0.0
C421 C 0.9695 0.71902 0.27528 0.0
C422 C 0.96135 0.71197 0.29164 0.0
O423 O 0.91246 0.58993 0.3527 0.0
O424 O 0.9301 0.61494 0.3605 0.0
O425 O 0.90139 0.68402 0.39646 0.0
O426 O 0.91787 0.67904 0.38307 0.0
C427 C 0.91207 0.6918 0.39999 0.0
O428 O 0.91459 0.75027 0.33472 0.0
O429 O 0.89731 0.71391 0.34195 0.0
O430 O 0.94508 0.70115 0.32542 0.0
O431 O 0.93121 0.67783 0.30369 0.0
H432 H 0.93901 0.6751 0.26061 0.0
H433 H 0.97283 0.71536 0.2411 0.0
H434 H 0.96368 0.71988 0.30825 0.0
O435 O 0.8691 0.1966 0.3985 0.0
Tb436 Tb 0.8546 0.1612 0.3839 0.0
Eu437 Eu 0.8372 0.15648 0.34088 0.0
C438 C 0.87796 0.20335 0.38603 0.0
O439 O 0.87957 0.17141 0.37034 0.0
C440 C 0.8441 0.25792 0.36797 0.0
O441 O 0.83552 0.08767 0.36266 0.0
C442 C 0.8235 0.14952 0.30765 0.0
C443 C 0.82678 0.07284 0.37421 0.0
O444 O 0.81773 0.10106 0.37536 0.0
C445 C 0.85999 0.08463 0.34655 0.0
C446 C 0.81518 0.14456 0.28907 0.0
C447 C 0.81814 0.15379 0.26687 0.0
C448 C 0.81046 0.14325 0.24969 0.0
C449 C 0.79975 0.12401 0.25522 0.0
C450 C 0.7965 0.11573 0.27694 0.0
C451 C 0.80422 0.12639 0.29364 0.0
O452 O 0.85382 0.23468 0.36853 0.0
O453 O 0.83547 0.23306 0.35947 0.0
O454 O 0.8485 0.13877 0.41591 0.0
O455 O 0.83678 0.16574 0.39247 0.0
C456 C 0.8379 0.14935 0.41238 0.0
O457 O 0.85341 0.1108 0.33277 0.0
O458 O 0.86045 0.09503 0.36737 0.0
O459 O 0.8207 0.1373 0.32778 0.0
O460 O 0.83378 0.16786 0.30565 0.0
H461 H 0.82649 0.16751 0.26292 0.0
H462 H 0.79374 0.11634 0.24244 0.0
H463 H 0.80174 0.11888 0.31032 0.0
O464 O 0.61751 0.37275 0.63835 0.0
Tb465 Tb 0.60705 0.43896 0.63512 0.0
Eu466 Eu 0.5861 0.43774 0.59202 0.0
C467 C 0.61738 0.34345 0.62145 0.0
O468 O 0.61299 0.36099 0.60325 0.0
C469 C 0.59 0.35368 0.63216 0.0
O470 O 0.57976 0.50454 0.61068 0.0
C471 C 0.57321 0.42685 0.55753 0.0
C472 C 0.57747 0.50696 0.63155 0.0
O473 O 0.57694 0.46582 0.6434 0.0
C474 C 0.61042 0.50047 0.59261 0.0
C475 C 0.56595 0.44815 0.53922 0.0
C476 C 0.56858 0.43926 0.51697 0.0
C477 C 0.5609 0.45248 0.50003 0.0
C478 C 0.55069 0.47592 0.50569 0.0
C479 C 0.54761 0.48417 0.52747 0.0
C480 C 0.55539 0.47053 0.544 0.0
O481 O 0.59258 0.39288 0.64374 0.0
O482 O 0.58858 0.36053 0.61076 0.0
O483 O 0.61482 0.47419 0.66292 0.0
O484 O 0.60304 0.51569 0.64373 0.0
C485 C 0.60989 0.51768 0.66025 0.0
O486 O 0.59977 0.49868 0.58593 0.0
O487 O 0.61456 0.46341 0.60445 0.0
O488 O 0.56945 0.43007 0.57762 0.0
O489 O 0.58433 0.42783 0.55647 0.0
H490 H 0.57632 0.41994 0.51294 0.0
H491 H 0.54503 0.48741 0.49274 0.0
H492 H 0.55299 0.47522 0.5608 0.0
O493 O 0.64202 0.96173 0.63227 0.0
Tb494 Tb 0.65638 0.91881 0.62176 0.0
Eu495 Eu 0.6809 0.89864 0.59407 0.0
C496 C 0.63545 0.98125 0.61726 0.0
O497 O 0.63663 0.96599 0.59721 0.0
C498 C 0.67317 1.00401 0.61938 0.0
O499 O 0.68947 0.83427 0.61164 0.0
C500 C 0.69271 0.91283 0.55823 0.0
C501 C 0.69376 0.83482 0.63131 0.0
O502 O 0.6943 0.87687 0.64193 0.0
C503 C 0.65687 0.82874 0.59146 0.0
C504 C 0.69963 0.89122 0.53984 0.0
C505 C 0.69699 0.90183 0.51762 0.0
C506 C 0.70457 0.88904 0.50065 0.0
C507 C 0.71477 0.86489 0.50638 0.0
C508 C 0.71771 0.85357 0.5281 0.0
C509 C 0.70998 0.86648 0.54459 0.0
O510 O 0.66298 0.99193 0.61318 0.0
O511 O 0.6814 0.97069 0.61621 0.0
O512 O 0.65533 0.87961 0.65293 0.0
O513 O 0.67146 0.89749 0.64001 0.0
C514 C 0.66616 0.8769 0.65635 0.0
O515 O 0.66812 0.83177 0.59085 0.0
O516 O 0.65082 0.86731 0.59739 0.0
O517 O 0.69697 0.90926 0.57794 0.0
O518 O 0.68157 0.91141 0.55826 0.0
H519 H 0.68932 0.92206 0.51363 0.0
H520 H 0.72065 0.85593 0.4936 0.0
H521 H 0.71214 0.85813 0.56134 0.0
O522 O 0.60265 0.96725 0.77132 0.0
Tb523 Tb 0.61452 0.9494 0.74564 0.0
Eu524 Eu 0.58862 0.90696 0.74675 0.0
C525 C 0.59871 1.01232 0.77563 0.0
O526 O 0.59082 1.01631 0.79046 0.0
C527 C 0.59741 1.01155 0.71735 0.0
O528 O 0.58226 0.85187 0.72207 0.0
C529 C 0.57425 0.90194 0.7793 0.0
C530 C 0.58829 0.83874 0.70515 0.0
O531 O 0.59763 0.86314 0.70073 0.0
C532 C 0.61142 0.83496 0.74289 0.0
C533 C 0.56556 0.89812 0.79742 0.0
C534 C 0.56846 0.905 0.81968 0.0
C535 C 0.56057 0.89473 0.8366 0.0
C536 C 0.5497 0.87829 0.83081 0.0
C537 C 0.54638 0.87213 0.809 0.0
C538 C 0.55444 0.88229 0.79252 0.0
O539 O 0.60806 0.99876 0.72024 0.0
O540 O 0.5891 0.98498 0.7271 0.0
O541 O 0.62865 0.94102 0.76826 0.0
O542 O 0.6306 0.98721 0.7403 0.0
C543 C 0.6357 0.96896 0.75743 0.0
O544 O 0.60157 0.84206 0.75264 0.0
O545 O 0.61635 0.87351 0.73346 0.0
O546 O 0.57137 0.89789 0.75875 0.0
O547 O 0.58501 0.91165 0.78221 0.0
H548 H 0.57693 0.91639 0.82388 0.0
H549 H 0.54379 0.86944 0.84369 0.0
H550 H 0.5521 0.87732 0.7757 0.0
O551 O 0.63927 0.34921 0.71736 0.0
Tb552 Tb 0.654 0.39631 0.72168 0.0
Eu553 Eu 0.67991 0.4299 0.74055 0.0
C554 C 0.63224 0.34091 0.73353 0.0
O555 O 0.63312 0.36794 0.75106 0.0
C556 C 0.67318 0.32217 0.71686 0.0
O557 O 0.68853 0.49326 0.72247 0.0
C558 C 0.6921 0.41696 0.77614 0.0
C559 C 0.6905 0.49403 0.70145 0.0
O560 O 0.68834 0.45425 0.68995 0.0
C561 C 0.65514 0.4946 0.74624 0.0
C562 C 0.69894 0.44012 0.79433 0.0
C563 C 0.69578 0.43437 0.81659 0.0
C564 C 0.70278 0.45209 0.83366 0.0
C565 C 0.71309 0.47518 0.828 0.0
C566 C 0.71669 0.4799 0.8063 0.0
C567 C 0.70955 0.46246 0.78967 0.0
O568 O 0.6636 0.32818 0.727 0.0
O569 O 0.68052 0.35996 0.71732 0.0
O570 O 0.65106 0.42628 0.68901 0.0
O571 O 0.66642 0.44246 0.70476 0.0
C572 C 0.66047 0.45128 0.68738 0.0
O573 O 0.66633 0.49389 0.74336 0.0
O574 O 0.64929 0.4527 0.74507 0.0
O575 O 0.69618 0.42086 0.75633 0.0
O576 O 0.68096 0.41702 0.77632 0.0
H577 H 0.68794 0.41571 0.82063 0.0
H578 H 0.71869 0.4874 0.84076 0.0
H579 H 0.71242 0.46576 0.773 0.0
O580 O 0.39007 0.73813 0.45822 0.0
Tb581 Tb 0.40292 0.68566 0.46908 0.0
Eu582 Eu 0.42772 0.65452 0.49466 0.0
C583 C 0.38583 0.76926 0.47233 0.0
O584 O 0.38722 0.75906 0.49313 0.0
C585 C 0.42089 0.765 0.47263 0.0
O586 O 0.43315 0.58858 0.47452 0.0
C587 C 0.441 0.65248 0.5287 0.0
C588 C 0.43815 0.58831 0.45546 0.0
O589 O 0.44098 0.63049 0.44574 0.0
C590 C 0.40268 0.58965 0.49784 0.0
C591 C 0.44945 0.64882 0.54724 0.0
C592 C 0.44679 0.66066 0.56921 0.0
C593 C 0.45502 0.65542 0.58608 0.0
C594 C 0.46583 0.63749 0.58047 0.0
C595 C 0.46864 0.62485 0.5591 0.0
C596 C 0.46041 0.63049 0.54274 0.0
O597 O 0.41096 0.75323 0.48047 0.0
O598 O 0.42889 0.72987 0.47388 0.0
O599 O 0.40184 0.65411 0.43678 0.0
O600 O 0.41795 0.66317 0.45127 0.0
C601 C 0.41265 0.64819 0.43409 0.0
O602 O 0.41391 0.59256 0.49913 0.0
O603 O 0.39659 0.62812 0.49107 0.0
O604 O 0.44428 0.64363 0.50869 0.0
O605 O 0.43028 0.66563 0.53031 0.0
H606 H 0.43843 0.67414 0.57312 0.0
H607 H 0.47212 0.63165 0.59305 0.0
H608 H 0.46264 0.62056 0.5263 0.0
O609 O 0.36647 0.14591 0.43572 0.0
Tb610 Tb 0.35302 0.18025 0.45397 0.0
Eu611 Eu 0.33646 0.18558 0.49691 0.0
C612 C 0.37577 0.13417 0.44621 0.0
O613 O 0.37809 0.1589 0.46393 0.0
C614 C 0.34337 0.0822 0.47019 0.0
O615 O 0.33522 0.25351 0.47455 0.0
C616 C 0.32252 0.19457 0.52967 0.0
C617 C 0.32625 0.27249 0.46487 0.0
O618 O 0.31658 0.24872 0.46565 0.0
C619 C 0.35937 0.25646 0.49118 0.0
C620 C 0.31417 0.20043 0.54817 0.0
C621 C 0.31705 0.1891 0.5702 0.0
C622 C 0.30909 0.19514 0.58723 0.0
C623 C 0.29825 0.21331 0.58188 0.0
C624 C 0.29518 0.2268 0.56041 0.0
C625 C 0.30324 0.21972 0.54374 0.0
O626 O 0.353 0.10543 0.46817 0.0
O627 O 0.33487 0.10766 0.47907 0.0
O628 O 0.34616 0.21126 0.42393 0.0
O629 O 0.33505 0.17475 0.44601 0.0
C630 C 0.33571 0.19829 0.42739 0.0
O631 O 0.35251 0.23223 0.50504 0.0
O632 O 0.36 0.24417 0.47059 0.0
O633 O 0.31981 0.20572 0.50937 0.0
O634 O 0.3328 0.17621 0.53206 0.0
H635 H 0.3254 0.1751 0.57407 0.0
H636 H 0.29214 0.21706 0.5948 0.0
H637 H 0.30109 0.23031 0.5272 0.0
O638 O 0.40275 0.09011 0.31395 0.0
Tb639 Tb 0.40064 0.14337 0.34001 0.0
Eu640 Eu 0.42802 0.18576 0.3445 0.0
C641 C 0.40791 1.04714 0.31747 0.0
O642 O 0.41542 1.04396 0.33305 0.0
C643 C 0.41765 0.08932 0.37418 0.0
O644 O 0.43715 0.24129 0.36546 0.0
C645 C 0.43925 0.17732 0.3078 0.0
C646 C 0.4327 0.25239 0.38438 0.0
O647 O 0.4242 0.22536 0.39152 0.0
C648 C 0.40598 0.25777 0.33622 0.0
C649 C 0.44645 0.19914 0.28957 0.0
C650 C 0.44418 0.18829 0.26733 0.0
C651 C 0.45211 0.20016 0.25062 0.0
C652 C 0.46227 0.22351 0.25662 0.0
C653 C 0.46476 0.23495 0.2783 0.0
C654 C 0.45673 0.22348 0.29455 0.0
O655 O 0.40726 0.10423 0.36934 0.0
O656 O 0.42655 0.11144 0.36488 0.0
O657 O 0.38357 0.117 0.33302 0.0
O658 O 0.38596 0.17368 0.35634 0.0
C659 C 0.37853 0.14747 0.34603 0.0
O660 O 0.41559 0.25201 0.34676 0.0
O661 O 0.40176 0.21932 0.32594 0.0
O662 O 0.44376 0.1747 0.32735 0.0
O663 O 0.42818 0.18314 0.30834 0.0
H664 H 0.43655 0.16837 0.26321 0.0
H665 H 0.46842 0.23292 0.24419 0.0
H666 H 0.45883 0.23108 0.31131 0.0
O667 O 0.35298 0.72823 0.31475 0.0
Tb668 Tb 0.36486 0.71106 0.34067 0.0
Eu669 Eu 0.33898 0.66762 0.34032 0.0
C670 C 0.35414 0.76449 0.3001 0.0
O671 O 0.34686 0.7674 0.28404 0.0
C672 C 0.34774 0.76719 0.3708 0.0
O673 O 0.33293 0.61213 0.3659 0.0
C674 C 0.32441 0.6653 0.30807 0.0
C675 C 0.33962 0.59766 0.38187 0.0
O676 O 0.34932 0.62045 0.38432 0.0
C677 C 0.36205 0.59632 0.34289 0.0
C678 C 0.31573 0.66322 0.28998 0.0
C679 C 0.31842 0.67557 0.26794 0.0
C680 C 0.31021 0.67172 0.25118 0.0
C681 C 0.29936 0.65455 0.2568 0.0
C682 C 0.29649 0.6399 0.27821 0.0
C683 C 0.30475 0.64507 0.29464 0.0
O684 O 0.35835 0.75432 0.36755 0.0
O685 O 0.33937 0.74312 0.36047 0.0
O686 O 0.37922 0.70636 0.31851 0.0
O687 O 0.38034 0.75337 0.3456 0.0
C688 C 0.38578 0.73671 0.32884 0.0
O689 O 0.35204 0.604 0.33371 0.0
O690 O 0.36717 0.63402 0.35204 0.0
O691 O 0.32173 0.6569 0.32855 0.0
O692 O 0.33502 0.67785 0.30517 0.0
H693 H 0.32681 0.68849 0.26386 0.0
H694 H 0.29307 0.65229 0.2441 0.0
H695 H 0.30275 0.63342 0.31112 0.0
O696 O 0.60912 0.84364 0.05996 0.0
Tb697 Tb 0.61248 0.8951 0.08624 0.0
Eu698 Eu 0.58612 0.94161 0.09348 0.0
C699 C 0.60421 0.80038 0.06404 0.0
O700 O 0.59665 0.79781 0.07951 0.0
C701 C 0.59578 0.84165 0.12093 0.0
O702 O 0.57854 0.98998 0.11942 0.0
C703 C 0.57313 0.94741 0.05901 0.0
C704 C 0.58482 1.00167 0.13621 0.0
O705 O 0.59463 0.97932 0.1387 0.0
C706 C 0.60845 1.0114 0.08413 0.0
C707 C 0.5649 0.9527 0.04012 0.0
C708 C 0.56779 0.94088 1.0183 0.0
C709 C 0.55972 0.94573 1.0012 0.0
C710 C 0.54884 0.96344 1.0063 0.0
C711 C 0.54576 0.97714 1.02752 0.0
C712 C 0.55389 0.97124 0.0442 0.0
O713 O 0.60616 0.85644 0.11598 0.0
O714 O 0.5869 0.86454 0.11184 0.0
O715 O 0.62886 0.86364 0.07722 0.0
O716 O 0.62806 0.92061 0.10084 0.0
C717 C 0.63473 0.89254 0.08956 0.0
O718 O 0.59897 1.00631 0.09511 0.0
O719 O 0.61238 0.97271 0.07351 0.0
O720 O 0.56958 0.95257 0.0791 0.0
O721 O 0.584 0.93689 0.05746 0.0
H722 H 0.57616 0.92711 1.0147 0.0
H723 H 0.54266 0.96646 0.99339 0.0
H724 H 0.55172 0.98216 0.06052 0.0
O725 O 0.66081 0.48237 0.06343 0.0
Tb726 Tb 0.6494 0.46275 0.08974 0.0
Eu727 Eu 0.67577 0.42195 0.08817 0.0
C728 C 0.65925 0.51879 0.04897 0.0
O729 O 0.66639 0.52293 1.03274 0.0
C730 C 0.66641 0.51946 0.11988 0.0
O731 O 0.68318 0.36209 0.11019 0.0
C732 C 0.69006 0.43258 0.0554 0.0
C733 C 0.68037 0.35668 0.13076 0.0
O734 O 0.67369 0.38981 0.13963 0.0
C735 C 0.65321 0.34828 0.09144 0.0
C736 C 0.6975 0.41012 1.03797 0.0
C737 C 0.69472 0.41522 1.01548 0.0
C738 C 0.70214 0.39807 0.99898 0.0
C739 C 0.71246 0.37606 1.00546 0.0
C740 C 0.71566 0.37187 1.02746 0.0
C741 C 0.70813 0.389 0.04352 0.0
O742 O 0.65579 0.50769 0.1161 0.0
O743 O 0.67483 0.49451 0.11014 0.0
O744 O 0.63476 0.45666 0.06825 0.0
O745 O 0.63373 0.50332 0.09553 0.0
C746 C 0.62821 0.48653 0.07891 0.0
O747 O 0.663 0.35716 0.08153 0.0
O748 O 0.64813 0.38528 0.10129 0.0
O749 O 0.69302 0.42684 0.07589 0.0
O750 O 0.67905 0.43421 0.053 0.0
H751 H 0.68684 0.43291 1.01082 0.0
H752 H 0.71838 0.36418 0.99317 0.0
H753 H 0.71065 0.38627 0.06041 0.0
O754 O 0.62293 0.47304 0.20548 0.0
Tb755 Tb 0.60834 0.43021 0.21496 0.0
Eu756 Eu 0.58437 0.40886 0.2432 0.0
C757 C 0.62901 0.49111 0.22129 0.0
O758 O 0.62816 0.46963 0.24058 0.0
C759 C 0.5924 0.5182 0.22015 0.0
O760 O 0.57822 0.35405 0.21825 0.0
C761 C 0.57109 0.40557 0.27727 0.0
C762 C 0.57413 0.31029 0.22439 0.0
O763 O 0.57235 0.30126 0.24515 0.0
C764 C 0.60819 0.33666 0.24524 0.0
C765 C 0.56279 0.40207 0.29604 0.0
C766 C 0.56602 0.4088 0.31813 0.0
C767 C 0.55833 0.39897 0.33548 0.0
C768 C 0.54732 0.38302 0.33021 0.0
C769 C 0.54374 0.37676 0.30857 0.0
C770 C 0.55158 0.38678 0.29174 0.0
O771 O 0.60256 0.50296 0.22534 0.0
O772 O 0.58386 0.4865 0.22375 0.0
O773 O 0.60852 0.39713 0.18295 0.0
O774 O 0.59277 0.41653 0.19706 0.0
C775 C 0.59763 0.39771 0.18011 0.0
O776 O 0.59705 0.34177 0.24738 0.0
O777 O 0.61435 0.37343 0.23746 0.0
O778 O 0.56764 0.39992 0.25712 0.0
O779 O 0.58191 0.41655 0.27895 0.0
H780 H 0.57458 0.41975 0.32186 0.0
H781 H 0.54152 0.37466 0.34332 0.0
H782 H 0.54897 0.3822 0.27505 0.0
O783 O 0.64317 0.87511 0.19286 0.0
Tb784 Tb 0.65699 0.91816 0.2054 0.0
Eu785 Eu 0.67735 0.94036 0.24335 0.0
C786 C 0.63496 0.86455 0.20641 0.0
O787 O 0.63368 0.8933 0.22334 0.0
C788 C 0.67045 0.83081 0.2213 0.0
O789 O 0.68431 1.00205 0.22078 0.0
C790 C 0.69039 0.94396 0.27778 0.0
C791 C 0.67793 1.0275 0.20691 0.0
O792 O 0.66743 1.01442 0.20425 0.0
C793 C 0.65241 1.00482 0.2393 0.0
C794 C 0.69865 0.94834 0.29651 0.0
C795 C 0.69595 0.93513 0.31846 0.0
C796 C 0.70404 0.94063 0.33542 0.0
C797 C 0.71473 0.96022 0.32998 0.0
C798 C 0.7176 0.97484 0.30861 0.0
C799 C 0.70947 0.96853 0.29214 0.0
O800 O 0.6603 0.84935 0.22311 0.0
O801 O 0.67898 0.86109 0.22639 0.0
O802 O 0.6615 0.93678 0.17191 0.0
O803 O 0.67459 0.92121 0.19454 0.0
C804 C 0.67239 0.93289 0.17445 0.0
O805 O 0.66192 0.99309 0.25004 0.0
O806 O 0.64917 0.98056 0.2219 0.0
O807 O 0.69357 0.95578 0.25792 0.0
O808 O 0.67995 0.92735 0.27908 0.0
H809 H 0.68769 0.92024 0.32228 0.0
H810 H 0.72093 0.96414 0.34273 0.0
H811 H 0.71149 0.98052 0.27573 0.0
O812 O 0.39578 0.22862 0.94802 0.0
Tb813 Tb 0.40625 0.16247 0.95125 0.0
Eu814 Eu 0.42735 0.16333 0.9942 0.0
C815 C 0.39596 0.25808 0.96487 0.0
O816 O 0.40043 0.24077 0.98302 0.0
C817 C 0.42334 0.24759 0.95418 0.0
O818 O 0.43353 0.0966 0.97536 0.0
C819 C 0.4405 0.17339 1.02838 0.0
C820 C 0.43582 0.09428 0.9545 0.0
O821 O 0.4364 0.13545 0.94269 0.0
C822 C 0.40296 0.10108 0.9938 0.0
C823 C 0.44785 0.15107 0.04635 0.0
C824 C 0.4454 0.1591 0.06876 0.0
C825 C 0.45313 0.14445 0.08546 0.0
C826 C 0.46318 0.1201 0.07928 0.0
C827 C 0.46597 0.11234 0.05738 0.0
C828 C 0.45826 0.128 0.04112 0.0
O829 O 0.42074 0.20841 0.94261 0.0
O830 O 0.42483 0.24067 0.97557 0.0
O831 O 0.39844 0.12722 0.9235 0.0
O832 O 0.41019 0.08561 0.94271 0.0
C833 C 0.40334 0.08366 0.92621 0.0
O834 O 0.41363 0.10265 1.00041 0.0
O835 O 0.39883 0.13829 0.98203 0.0
O836 O 0.44411 0.17058 1.00817 0.0
O837 O 0.42939 0.17265 1.02973 0.0
H838 H 0.43776 0.17882 0.0731 0.0
H839 H 0.46915 0.10836 0.09171 0.0
H840 H 0.46051 0.12276 1.02426 0.0
O841 O 0.37082 0.63981 0.95438 0.0
Tb842 Tb 0.35654 0.68339 0.9648 0.0
Eu843 Eu 0.33196 0.70446 0.99238 0.0
C844 C 0.37728 0.61976 0.96945 0.0
O845 O 0.37603 0.63473 0.98954 0.0
C846 C 0.33967 0.59867 0.96732 0.0
O847 O 0.32358 0.76893 0.97452 0.0
C848 C 0.32003 0.69128 1.02816 0.0
C849 C 0.31932 0.76831 0.95482 0.0
O850 O 0.31873 0.72617 0.94427 0.0
C851 C 0.35612 0.77375 0.99499 0.0
C852 C 0.31322 0.71342 0.04663 0.0
C853 C 0.31648 0.70662 0.0688 0.0
C854 C 0.30937 0.72241 0.08603 0.0
C855 C 0.29877 0.74322 0.08068 0.0
C856 C 0.29516 0.75047 0.05902 0.0
C857 C 0.30257 0.73592 0.04221 0.0
O858 O 0.34983 0.61069 0.97369 0.0
O859 O 0.33144 0.63211 0.97035 0.0
O860 O 0.35765 0.72221 0.93354 0.0
O861 O 0.3415 0.70467 0.94641 0.0
C862 C 0.34684 0.725 0.93006 0.0
O863 O 0.34487 0.77092 0.99564 0.0
O864 O 0.36214 0.7351 0.98904 0.0
O865 O 0.3158 0.69538 1.00844 0.0
O866 O 0.33117 0.69158 1.02815 0.0
H867 H 0.32447 0.68892 0.07263 0.0
H868 H 0.29309 0.75226 0.09381 0.0
H869 H 0.29995 0.74145 1.0255 0.0
O870 O 0.41054 0.63446 0.81502 0.0
Tb871 Tb 0.3987 0.65213 0.84079 0.0
Eu872 Eu 0.42459 0.69432 0.83968 0.0
C873 C 0.41449 0.58943 0.81067 0.0
O874 O 0.42234 0.5855 0.79574 0.0
C875 C 0.41579 0.58982 0.86908 0.0
O876 O 0.43088 0.74921 0.86445 0.0
C877 C 0.43922 0.69913 0.80758 0.0
C878 C 0.42481 0.76238 0.88131 0.0
O879 O 0.41545 0.73807 0.88567 0.0
C880 C 0.40183 0.76656 0.84337 0.0
C881 C 0.44812 0.70335 0.7899 0.0
C882 C 0.44586 0.69204 0.76772 0.0
C883 C 0.45429 0.69814 0.75135 0.0
C884 C 0.46494 0.7165 0.75768 0.0
C885 C 0.46741 0.72861 0.77929 0.0
C886 C 0.45895 0.72206 0.7952 0.0
O887 O 0.40514 0.60262 0.86616 0.0
O888 O 0.42411 0.61639 0.85936 0.0
O889 O 0.38455 0.66037 0.81821 0.0
O890 O 0.38263 0.61433 0.84622 0.0
C891 C 0.37751 0.63246 0.82909 0.0
O892 O 0.41166 0.75925 0.83356 0.0
O893 O 0.3969 0.72811 0.85288 0.0
O894 O 0.44187 0.70386 0.8282 0.0
O895 O 0.42851 0.68889 0.8043 0.0
H896 H 0.43761 0.67828 0.76325 0.0
H897 H 0.47136 0.72314 0.74547 0.0
H898 H 0.46084 0.73172 0.81183 0.0
O899 O 0.37428 0.25244 0.86946 0.0
Tb900 Tb 0.35949 0.20582 0.86498 0.0
Eu901 Eu 0.33368 0.17295 0.84561 0.0
C902 C 0.38134 0.26061 0.85334 0.0
O903 O 0.38046 0.23359 0.8358 0.0
C904 C 0.34036 0.28049 0.86966 0.0
O905 O 0.32489 0.10973 0.86348 0.0
C906 C 0.32172 0.18616 0.80973 0.0
C907 C 0.32284 0.10894 0.88446 0.0
O908 O 0.32496 0.14869 0.896 0.0
C909 C 0.35838 0.1077 0.84029 0.0
C910 C 0.31483 0.16272 0.79168 0.0
C911 C 0.31804 0.16687 0.76935 0.0
C912 C 0.31096 0.1486 0.7525 0.0
C913 C 0.30055 0.12698 0.7584 0.0
C914 C 0.29693 0.12374 0.78009 0.0
C915 C 0.30412 0.14151 0.79654 0.0
O916 O 0.35003 0.27442 0.85982 0.0
O917 O 0.333 0.24284 0.86889 0.0
O918 O 0.36231 0.17556 0.89764 0.0
O919 O 0.34698 0.15977 0.8817 0.0
C920 C 0.35287 0.15073 0.89914 0.0
O921 O 0.34718 0.10858 0.84305 0.0
O922 O 0.36425 0.14952 0.84157 0.0
O923 O 0.31756 0.18342 0.8295 0.0
O924 O 0.33286 0.18497 0.80974 0.0
H925 H 0.32597 0.18449 0.76511 0.0
H926 H 0.29488 0.11447 0.74578 0.0
H927 H 0.30122 0.1393 0.81321 0.0
H928 H 0.06907 0.46744 0.85716 0.0
H929 H 0.05813 0.31538 0.8676 0.0
H930 H 0.07074 0.4776 0.89666 0.0
H931 H 0.05982 0.32522 0.90665 0.0
H932 H 0.04858 0.37783 0.97368 0.0
H933 H 0.04984 0.36514 0.93476 0.0
H934 H 0.07973 0.45673 0.93197 0.0
H935 H 0.07831 0.46992 0.97143 0.0
C936 C 0.06722 0.43583 0.86777 0.0
C937 C 0.0633 0.39075 0.85888 0.0
C938 C 0.06816 0.44167 0.89056 0.0
C939 C 0.06521 0.40261 0.90527 0.0
C940 C 0.06188 0.35686 0.8962 0.0
C941 C 0.06094 0.35109 0.87359 0.0
C942 C 0.05554 0.39483 0.9649 0.0
C943 C 0.06336 0.42476 0.97597 0.0
C944 C 0.0563 0.38736 0.94238 0.0
C945 C 0.06491 0.40969 0.92977 0.0
C946 C 0.07291 0.43905 0.94087 0.0
C947 C 0.07219 0.44616 0.96363 0.0
H948 H 0.18325 0.89972 0.97429 0.0
H949 H 0.21769 0.95069 0.97308 0.0
H950 H 0.18239 0.90909 0.93436 0.0
H951 H 0.21688 0.95984 0.93385 0.0
H952 H 0.21821 0.91542 0.86409 0.0
H953 H 0.21672 0.90567 0.90326 0.0
H954 H 0.18299 0.96605 0.90108 0.0
H955 H 0.18453 0.97594 0.86127 0.0
C956 C 0.19059 0.91349 0.96564 0.0
C957 C 0.20061 0.92346 0.97715 0.0
C958 C 0.19011 0.91879 0.94265 0.0
C959 C 0.19966 0.93411 0.93049 0.0
C960 C 0.20943 0.9464 0.94226 0.0
C961 C 0.20989 0.94128 0.96498 0.0
C962 C 0.21043 0.9267 0.87181 0.0
C963 C 0.20158 0.94736 0.85924 0.0
C964 C 0.20959 0.92126 0.89449 0.0
C965 C 0.19983 0.93612 0.90578 0.0
C966 C 0.19068 0.95427 0.89317 0.0
C967 C 0.19154 0.95985 0.87024 0.0
H968 H 0.07066 0.87976 0.47842 0.0
H969 H 0.05619 1.02528 0.46578 0.0
H970 H 0.07233 0.86684 0.43901 0.0
H971 H 0.0578 1.01259 0.42689 0.0
H972 H 0.0469 0.94751 0.36174 0.0
H973 H 0.04821 0.96348 0.40044 0.0
H974 H 0.08072 0.89094 0.40269 0.0
H975 H 0.07932 0.87477 0.3634 0.0
C976 C 0.06804 0.90941 0.46734 0.0
C977 C 0.06312 0.95332 0.47557 0.0
C978 C 0.06897 0.90197 0.44462 0.0
C979 C 0.06499 0.93817 0.42941 0.0
C980 C 0.06069 0.98306 0.4378 0.0
C981 C 0.0598 0.99047 0.4603 0.0
C982 C 0.05443 0.93545 0.37035 0.0
C983 C 0.06303 0.91007 0.35919 0.0
C984 C 0.05521 0.94478 0.39271 0.0
C985 C 0.0646 0.92878 0.40509 0.0
C986 C 0.07332 0.90373 0.39393 0.0
C987 C 0.07258 0.8949 0.37129 0.0
H988 H 0.18478 0.39672 0.4737 0.0
H989 H 0.21963 0.44179 0.47227 0.0
H990 H 0.18373 0.40887 0.43394 0.0
H991 H 0.21862 0.45408 0.43321 0.0
H992 H 0.21916 0.41892 0.36254 0.0
H993 H 0.21802 0.40555 0.40157 0.0
H994 H 0.18423 0.46564 0.40146 0.0
H995 H 0.18539 0.47857 0.36173 0.0
C996 C 0.19218 0.40974 0.46504 0.0
C997 C 0.20236 0.41724 0.47643 0.0
C998 C 0.19159 0.41668 0.44213 0.0
C999 C 0.20116 0.43138 0.4299 0.0
C1000 C 0.21113 0.4411 0.4416 0.0
C1001 C 0.21171 0.43419 0.46425 0.0
C1002 C 0.21143 0.42918 0.37071 0.0
C1003 C 0.20244 0.45051 0.35874 0.0
C1004 C 0.21079 0.4218 0.39332 0.0
C1005 C 0.20113 0.43558 0.40519 0.0
C1006 C 0.19185 0.4546 0.39313 0.0
C1007 C 0.19249 0.46195 0.37025 0.0
H1008 H 0.96958 0.68947 0.1101 0.0
H1009 H 0.93688 0.61963 0.1105 0.0
H1010 H 0.96826 0.70263 0.14896 0.0
H1011 H 0.93543 0.63349 0.14992 0.0
H1012 H 0.94463 0.61785 0.22571 0.0
H1013 H 0.9432 0.60716 0.18611 0.0
H1014 H 0.95914 0.75045 0.17591 0.0
H1015 H 0.96059 0.76069 0.21495 0.0
C1016 C 0.96201 0.67729 0.11846 0.0
C1017 C 0.95335 0.65342 0.10688 0.0
C1018 C 0.96121 0.68516 0.14093 0.0
C1019 C 0.95172 0.66938 0.15301 0.0
C1020 C 0.94293 0.64598 0.14143 0.0
C1021 C 0.94369 0.63851 0.1187 0.0
C1022 C 0.94765 0.64739 0.21499 0.0
C1023 C 0.95289 0.68983 0.22379 0.0
C1024 C 0.94685 0.64126 0.19217 0.0
C1025 C 0.95127 0.6774 0.17743 0.0
C1026 C 0.95592 0.7209 0.18641 0.0
C1027 C 0.9567 0.72695 0.209 0.0
H1028 H 0.81947 0.22664 0.22852 0.0
H1029 H 0.80723 0.0783 0.21616 0.0
H1030 H 0.82108 0.24249 0.18921 0.0
H1031 H 0.80869 0.09399 0.17714 0.0
H1032 H 0.81816 0.1231 0.10608 0.0
H1033 H 0.82019 0.10697 0.14528 0.0
H1034 H 0.8092 0.25756 0.15792 0.0
H1035 H 0.80734 0.27358 0.11897 0.0
C1036 C 0.81731 0.19704 0.21749 0.0
C1037 C 0.81318 0.15118 0.22577 0.0
C1038 C 0.8181 0.20629 0.1948 0.0
C1039 C 0.81494 0.16976 0.17957 0.0
C1040 C 0.81131 0.12318 0.188 0.0
C1041 C 0.8104 0.1142 0.21057 0.0
C1042 C 0.81638 0.15306 0.11719 0.0
C1043 C 0.81253 0.19966 0.10908 0.0
C1044 C 0.81742 0.14367 0.13982 0.0
C1045 C 0.8148 0.18073 0.15519 0.0
C1046 C 0.81141 0.22792 0.14693 0.0
C1047 C 0.81026 0.23708 0.12441 0.0
H1048 H 0.96697 0.13538 0.72151 0.0
H1049 H 0.93607 0.22024 0.72224 0.0
H1050 H 0.96529 0.12566 0.68251 0.0
H1051 H 0.93418 0.20958 0.68272 0.0
H1052 H 0.94296 0.22686 0.60725 0.0
H1053 H 0.94189 0.23432 0.64704 0.0
H1054 H 0.95569 0.08559 0.65447 0.0
H1055 H 0.9569 0.07884 0.61523 0.0
C1056 C 0.95969 0.15151 0.71338 0.0
C1057 C 0.95167 0.17863 0.72533 0.0
C1058 C 0.95867 0.14564 0.6908 0.0
C1059 C 0.94956 0.16662 0.67898 0.0
C1060 C 0.94138 0.19307 0.69096 0.0
C1061 C 0.94237 0.19868 0.71377 0.0
C1062 C 0.94558 0.1955 0.61741 0.0
C1063 C 0.95014 0.15244 0.6078 0.0
C1064 C 0.94499 0.19974 0.64035 0.0
C1065 C 0.94892 0.161 0.6544 0.0
C1066 C 0.95288 0.11706 0.64457 0.0
C1067 C 0.9535 0.11297 0.62186 0.0
H1068 H 0.80789 0.57453 0.72028 0.0
H1069 H 0.82 0.7249 0.7284 0.0
H1070 H 0.8093 0.5844 0.68106 0.0
H1071 H 0.82151 0.73484 0.68862 0.0
H1072 H 0.82897 0.7203 0.61325 0.0
H1073 H 0.83049 0.70862 0.65303 0.0
H1074 H 0.79885 0.62943 0.65331 0.0
H1075 H 0.7974 0.6411 0.61411 0.0
C1076 C 0.81094 0.60982 0.71374 0.0
C1077 C 0.81365 0.64911 0.72784 0.0
C1078 C 0.81172 0.61557 0.69104 0.0
C1079 C 0.81532 0.66081 0.68128 0.0
C1080 C 0.81869 0.69935 0.69534 0.0
C1081 C 0.81786 0.69362 0.71826 0.0
C1082 C 0.82245 0.69976 0.62183 0.0
C1083 C 0.81309 0.68143 0.61028 0.0
C1084 C 0.82324 0.6935 0.64473 0.0
C1085 C 0.81481 0.66788 0.65672 0.0
C1086 C 0.80562 0.64878 0.64493 0.0
C1087 C 0.80476 0.65562 0.62229 0.0
H1088 H 0.55424 0.33136 0.36852 0.0
H1089 H 0.56927 0.47594 0.35717 0.0
H1090 H 0.55629 0.34126 0.40749 0.0
H1091 H 0.57132 0.48626 0.39667 0.0
H1092 H 0.57873 0.47519 0.47186 0.0
H1093 H 0.57972 0.46117 0.43237 0.0
H1094 H 0.54742 0.38747 0.43519 0.0
H1095 H 0.54656 0.40099 0.47408 0.0
C1096 C 0.55805 0.3654 0.37431 0.0
C1097 C 0.56142 0.40308 0.35937 0.0
C1098 C 0.55919 0.37125 0.39688 0.0
C1099 C 0.56377 0.41512 0.4057 0.0
C1100 C 0.56775 0.45185 0.39076 0.0
C1101 C 0.56659 0.44592 0.36798 0.0
C1102 C 0.57196 0.45519 0.46405 0.0
C1103 C 0.56259 0.43901 0.4764 0.0
C1104 C 0.57245 0.44762 0.44128 0.0
C1105 C 0.56367 0.42293 0.43018 0.0
C1106 C 0.55448 0.40589 0.4428 0.0
C1107 C 0.55395 0.41386 0.46531 0.0
H1108 H 0.71959 0.92961 0.47152 0.0
H1109 H 0.68517 0.87864 0.47515 0.0
H1110 H 0.71802 0.93865 0.43233 0.0
H1111 H 0.68351 0.88898 0.43531 0.0
H1112 H 0.68564 0.96301 0.36201 0.0
H1113 H 0.68435 0.95245 0.40187 0.0
H1114 H 0.71657 0.87761 0.40234 0.0
H1115 H 0.71775 0.88716 0.36307 0.0
C1116 C 0.71162 0.92039 0.46401 0.0
C1117 C 0.7026 0.90225 0.47681 0.0
C1118 C 0.71073 0.92559 0.44133 0.0
C1119 C 0.70072 0.91356 0.4303 0.0
C1120 C 0.69139 0.89841 0.44309 0.0
C1121 C 0.69233 0.89266 0.46602 0.0
C1122 C 0.69232 0.94326 0.37058 0.0
C1123 C 0.70188 0.92663 0.35908 0.0
C1124 C 0.69161 0.93742 0.39352 0.0
C1125 C 0.70048 0.91513 0.40563 0.0
C1126 C 0.70968 0.89611 0.39388 0.0
C1127 C 0.71034 0.90148 0.37117 0.0
H1128 H 0.57729 0.976 0.97393 0.0
H1129 H 0.54718 0.88636 0.97477 0.0
H1130 H 0.57919 0.96248 0.93459 0.0
H1131 H 0.54885 0.87371 0.93595 0.0
H1132 H 0.5571 0.82477 0.86888 0.0
H1133 H 0.5585 0.83368 0.90803 0.0
H1134 H 0.57124 0.98355 0.89886 0.0
H1135 H 0.56999 0.9739 0.85923 0.0
C1136 C 0.57118 0.95271 0.96586 0.0
C1137 C 0.5621 0.93217 0.97778 0.0
C1138 C 0.57217 0.94544 0.94314 0.0
C1139 C 0.56419 0.91684 0.93162 0.0
C1140 C 0.55532 0.8953 0.94385 0.0
C1141 C 0.55431 0.90281 0.96633 0.0
C1142 C 0.56032 0.85958 0.87511 0.0
C1143 C 0.56333 0.89871 0.86061 0.0
C1144 C 0.56105 0.86493 0.89777 0.0
C1145 C 0.56476 0.90984 0.9071 0.0
C1146 C 0.56835 0.94825 0.89259 0.0
C1147 C 0.56766 0.94274 0.86973 0.0
H1148 H 0.69475 0.36791 0.85569 0.0
H1149 H 0.70482 0.52019 0.86647 0.0
H1150 H 0.69288 0.35439 0.89504 0.0
H1151 H 0.70319 0.50667 0.90558 0.0
H1152 H 0.69337 0.48032 0.9765 0.0
H1153 H 0.69172 0.49334 0.9371 0.0
H1154 H 0.70423 0.34394 0.92701 0.0
H1155 H 0.70562 0.33077 0.96619 0.0
C1156 C 0.6964 0.39882 0.86636 0.0
C1157 C 0.69999 0.44515 0.85761 0.0
C1158 C 0.69546 0.39092 0.8891 0.0
C1159 C 0.69796 0.42921 0.90394 0.0
C1160 C 0.70108 0.47611 0.89503 0.0
C1161 C 0.7021 0.48383 0.8724 0.0
C1162 C 0.69556 0.44988 0.96592 0.0
C1163 C 0.69969 0.40453 0.97485 0.0
C1164 C 0.69475 0.45754 0.94315 0.0
C1165 C 0.69792 0.41994 0.92843 0.0
C1166 C 0.70161 0.37393 0.93747 0.0
C1167 C 0.7025 0.36646 0.96015 0.0
H1168 H 0.469 0.70368 0.61434 0.0
H1169 H 0.43621 0.63461 0.61224 0.0
H1170 H 0.46751 0.71086 0.65352 0.0
H1171 H 0.43458 0.64332 0.65199 0.0
H1172 H 0.43548 0.71625 0.7247 0.0
H1173 H 0.43417 0.70767 0.68492 0.0
H1174 H 0.46779 0.64649 0.68395 0.0
H1175 H 0.46899 0.65339 0.72316 0.0
C1176 C 0.46139 0.69016 0.62217 0.0
C1177 C 0.45284 0.66752 0.60979 0.0
C1178 C 0.46055 0.69434 0.64483 0.0
C1179 C 0.45103 0.67684 0.65626 0.0
C1180 C 0.44208 0.6571 0.64388 0.0
C1181 C 0.44299 0.65231 0.62099 0.0
C1182 C 0.44251 0.70003 0.71607 0.0
C1183 C 0.45244 0.68656 0.72747 0.0
C1184 C 0.44177 0.69529 0.69315 0.0
C1185 C 0.45097 0.67737 0.68093 0.0
C1186 C 0.46062 0.66164 0.69253 0.0
C1187 C 0.4613 0.66573 0.71522 0.0
H1188 H 0.30891 0.07642 0.72166 0.0
H1189 H 0.31904 0.23004 0.72828 0.0
H1190 H 0.30995 0.08502 0.68231 0.0
H1191 H 0.32009 0.2389 0.68846 0.0
H1192 H 0.32656 0.22844 0.61344 0.0
H1193 H 0.32875 0.21662 0.65303 0.0
H1194 H 0.299 0.12408 0.65423 0.0
H1195 H 0.29693 0.13567 0.61513 0.0
C1196 C 0.31147 0.11212 0.71474 0.0
C1197 C 0.31377 0.15263 0.72845 0.0
C1198 C 0.31201 0.11719 0.69198 0.0
C1199 C 0.31488 0.16301 0.68179 0.0
C1200 C 0.31784 0.2029 0.69547 0.0
C1201 C 0.31728 0.19781 0.71843 0.0
C1202 C 0.32063 0.20478 0.62214 0.0
C1203 C 0.3116 0.18278 0.61087 0.0
C1204 C 0.3218 0.19846 0.64497 0.0
C1205 C 0.31408 0.16925 0.65721 0.0
C1206 C 0.30526 0.14627 0.64567 0.0
C1207 C 0.30403 0.15306 0.62308 0.0
H1208 H 0.43354 0.21445 0.22304 0.0
H1209 H 0.46732 0.15479 0.22392 0.0
H1210 H 0.43271 0.20253 0.18341 0.0
H1211 H 0.4665 0.14271 0.18497 0.0
H1212 H 0.46867 0.18156 0.11391 0.0
H1213 H 0.46732 0.1925 0.15282 0.0
H1214 H 0.43252 0.14626 0.15136 0.0
H1215 H 0.43391 0.13523 0.11174 0.0
C1216 C 0.44072 0.19806 0.21493 0.0
C1217 C 0.45057 0.18638 0.22692 0.0
C1218 C 0.44026 0.19131 0.19209 0.0
C1219 C 0.44964 0.17269 0.18049 0.0
C1220 C 0.4592 0.15867 0.19283 0.0
C1221 C 0.45965 0.16536 0.21542 0.0
C1222 C 0.46069 0.1734 0.12172 0.0
C1223 C 0.45147 0.15645 0.10936 0.0
C1224 C 0.45992 0.17957 0.14431 0.0
C1225 C 0.44988 0.16919 0.15579 0.0
C1226 C 0.44043 0.15455 0.14336 0.0
C1227 C 0.44122 0.14827 0.12052 0.0
H1228 H 0.31786 0.64019 0.10942 0.0
H1229 H 0.30754 0.79333 0.11733 0.0
H1230 H 0.31958 0.63039 0.14913 0.0
H1231 H 0.30936 0.78406 0.15653 0.0
H1232 H 0.29796 0.73391 0.22451 0.0
H1233 H 0.29929 0.74612 0.18538 0.0
H1234 H 0.3286 0.65034 0.18406 0.0
H1235 H 0.32709 0.63758 0.2237 0.0
C1236 C 0.3162 0.67211 0.11952 0.0
C1237 C 0.31244 0.71745 0.10993 0.0
C1238 C 0.31716 0.66651 0.14242 0.0
C1239 C 0.3144 0.70608 0.15647 0.0
C1240 C 0.31126 0.75205 0.14664 0.0
C1241 C 0.31029 0.75755 0.12395 0.0
C1242 C 0.30482 0.71596 0.216 0.0
C1243 C 0.31245 0.68498 0.22754 0.0
C1244 C 0.30562 0.7231 0.19336 0.0
C1245 C 0.31408 0.69941 0.18109 0.0
C1246 C 0.3219 0.66907 0.19267 0.0
C1247 C 0.32114 0.66225 0.21554 0.0
H1248 H 0.12541 0.32159 0.04261 0.0
H1249 H 0.10166 0.23978 0.0823 0.0
H1250 H 0.13922 0.25384 0.0473 0.0
H1251 H 0.11525 0.17038 0.086 0.0
H1252 H 0.13848 1.04721 0.04643 0.0
H1253 H 0.12465 0.11447 0.05116 0.0
H1254 H 0.14997 0.20313 0.08269 0.0
H1255 H 0.16356 0.13403 0.07932 0.0
C1256 C 0.12329 0.28971 0.05288 0.0
C1257 C 0.1127 0.2868 0.0629 0.0
C1258 C 0.13114 0.25079 0.0554 0.0
C1259 C 0.12834 0.20714 0.0672 0.0
C1260 C 0.11766 0.20389 0.07704 0.0
C1261 C 0.10993 0.24351 0.07498 0.0
C1262 C 0.14086 0.07981 0.05553 0.0
C1263 C 0.15187 0.08432 0.06357 0.0
C1264 C 0.13302 0.11864 0.05791 0.0
C1265 C 0.13621 0.16376 0.06751 0.0
C1266 C 0.14726 0.16851 0.07545 0.0
C1267 C 0.15501 0.12905 0.07357 0.0
H1268 H 0.13528 0.06509 0.19359 0.0
H1269 H 0.12497 0.08379 0.26017 0.0
H1270 H 0.13583 0.15531 0.18849 0.0
H1271 H 0.12441 0.17264 0.25485 0.0
H1272 H 0.13007 0.32041 0.17907 0.0
H1273 H 0.12816 0.23019 0.18327 0.0
H1274 H 0.13282 0.24431 0.25276 0.0
H1275 H 0.13357 0.33325 0.24852 0.0
C1276 C 0.13326 0.08864 0.2072 0.0
C1277 C 0.13033 0.06729 0.22739 0.0
C1278 C 0.13337 0.14068 0.20424 0.0
C1279 C 0.1303 0.1727 0.22128 0.0
C1280 C 0.12733 0.15058 0.24142 0.0
C1281 C 0.12759 0.09893 0.24455 0.0
C1282 C 0.13025 0.30389 0.19526 0.0
C1283 C 0.13179 0.33403 0.21346 0.0
C1284 C 0.12935 0.25185 0.19773 0.0
C1285 C 0.1303 0.22858 0.21843 0.0
C1286 C 0.13161 0.25956 0.23657 0.0
C1287 C 0.1321 0.31134 0.23415 0.0
H1288 H 0.8798 0.06038 0.92994 0.0
H1289 H 0.88968 0.05276 0.9975 0.0
H1290 H 0.88616 0.97425 0.92535 0.0
H1291 H 0.8954 0.96702 0.99335 0.0
H1292 H 0.88242 0.80129 0.93715 0.0
H1293 H 0.87997 0.89236 0.93495 0.0
H1294 H 0.90781 0.90986 0.97964 0.0
H1295 H 0.90947 0.82012 0.98318 0.0
C1296 C 0.88351 1.04067 0.94371 0.0
C1297 C 0.88416 0.0633 0.96415 0.0
C1298 C 0.88702 0.99109 0.94113 0.0
C1299 C 0.8912 0.96323 0.95899 0.0
C1300 C 0.89242 0.98715 0.97906 0.0
C1301 C 0.88906 1.03658 0.98153 0.0
C1302 C 0.88789 0.82495 0.94657 0.0
C1303 C 0.89582 0.8038 0.96094 0.0
C1304 C 0.88664 0.87708 0.94511 0.0
C1305 C 0.89353 0.90866 0.95756 0.0
C1306 C 0.90202 0.88697 0.97054 0.0
C1307 C 0.90299 0.83535 0.97257 0.0
H1308 H 0.89981 0.77168 0.82594 0.0
H1309 H 0.8792 0.83613 0.87612 0.0
H1310 H 0.90892 0.85253 0.81979 0.0
H1311 H 0.88818 0.91732 0.86957 0.0
H1312 H 0.89335 0.05291 0.81798 0.0
H1313 H 0.88666 0.97396 0.834 0.0
H1314 H 0.92102 0.92134 0.8383 0.0
H1315 H 0.92762 1.00181 0.82353 0.0
C1316 C 0.89739 0.80283 0.83596 0.0
C1317 C 0.88873 0.79754 0.85139 0.0
C1318 C 0.90263 0.84909 0.83247 0.0
C1319 C 0.89917 0.89126 0.84406 0.0
C1320 C 0.89094 0.88545 0.86031 0.0
C1321 C 0.88586 0.83889 0.86412 0.0
C1322 C 0.89943 1.02568 0.82361 0.0
C1323 C 0.91095 1.03438 0.82051 0.0
C1324 C 0.89565 0.98011 0.83239 0.0
C1325 C 0.90334 0.94165 0.83758 0.0
C1326 C 0.91491 0.95034 0.83449 0.0
C1327 C 0.91867 0.99629 0.82604 0.0
H1328 H 0.1792 0.60805 0.57804 0.0
H1329 H 0.14506 0.56187 0.56648 0.0
H1330 H 0.17229 0.6848 0.59485 0.0
H1331 H 0.13803 0.63663 0.58456 0.0
H1332 H 0.12946 0.76201 0.63069 0.0
H1333 H 0.13865 0.68264 0.62242 0.0
H1334 H 0.16081 0.75922 0.57744 0.0
H1335 H 0.15154 0.83848 0.58534 0.0
C1336 C 0.1702 0.61375 0.57964 0.0
C1337 C 0.16258 0.57801 0.57192 0.0
C1338 C 0.16626 0.65749 0.58928 0.0
C1339 C 0.15464 0.66619 0.59135 0.0
C1340 C 0.14704 0.63012 0.58381 0.0
C1341 C 0.151 0.5869 0.57384 0.0
C1342 C 0.13643 0.76215 0.61934 0.0
C1343 C 0.13966 0.8065 0.60842 0.0
C1344 C 0.14165 0.71665 0.61458 0.0
C1345 C 0.15035 0.71481 0.59914 0.0
C1346 C 0.15414 0.75962 0.58945 0.0
C1347 C 0.1488 0.80497 0.59393 0.0
H1348 H 0.1474 0.52954 0.74021 0.0
H1349 H 0.11651 0.61335 0.74605 0.0
H1350 H 0.15828 0.6062 0.74567 0.0
H1351 H 0.12716 0.69022 0.74997 0.0
H1352 H 0.14785 0.8001 0.78816 0.0
H1353 H 0.13743 0.72605 0.7777 0.0
H1354 H 0.16444 0.68606 0.73397 0.0
H1355 H 0.17506 0.7593 0.74575 0.0
C1356 C 0.14299 0.56468 0.74214 0.0
C1357 C 0.1312 0.56589 0.74304 0.0
C1358 C 0.14917 0.60865 0.74515 0.0
C1359 C 0.14361 0.65446 0.74872 0.0
C1360 C 0.13176 0.65556 0.74805 0.0
C1361 C 0.12564 0.61166 0.74559 0.0
C1362 C 0.15141 0.77579 0.77603 0.0
C1363 C 0.16197 0.786 0.76705 0.0
C1364 C 0.14546 0.73336 0.76994 0.0
C1365 C 0.14997 0.70023 0.75462 0.0
C1366 C 0.1607 0.71046 0.74584 0.0
C1367 C 0.16673 0.75258 0.75233 0.0
H1368 H 0.89147 0.29717 0.53767 0.0
H1369 H 0.91184 0.40029 0.50003 0.0
H1370 H 0.88032 0.36754 0.55112 0.0
H1371 H 0.90061 0.47 0.51324 0.0
H1372 H 0.86852 0.53704 0.57303 0.0
H1373 H 0.88304 0.47159 0.56994 0.0
H1374 H 0.87642 0.46356 0.5012 0.0
H1375 H 0.86157 0.52655 0.5046 0.0
C1376 C 0.89398 0.3349 0.53323 0.0
C1377 C 0.9025 0.34327 0.51773 0.0
C1378 C 0.88752 0.37509 0.54076 0.0
C1379 C 0.88955 0.42385 0.53287 0.0
C1380 C 0.89887 0.43266 0.51939 0.0
C1381 C 0.90534 0.39278 0.51202 0.0
C1382 C 0.87026 0.52144 0.55726 0.0
C1383 C 0.86429 0.53837 0.53877 0.0
C1384 C 0.87852 0.48412 0.55554 0.0
C1385 C 0.88095 0.46347 0.53529 0.0
C1386 C 0.87485 0.47982 0.51693 0.0
C1387 C 0.86648 0.51632 0.51875 0.0
H1388 H 0.88305 0.27469 0.41618 0.0
H1389 H 0.88028 0.25047 0.34733 0.0
H1390 H 0.88592 0.36382 0.40918 0.0
H1391 H 0.88169 0.33817 0.34022 0.0
H1392 H 0.88931 0.49696 0.32738 0.0
H1393 H 0.88966 0.40934 0.3356 0.0
H1394 H 0.87905 0.43899 0.40158 0.0
H1395 H 0.87999 0.52807 0.39352 0.0
C1396 C 0.88316 0.28853 0.39955 0.0
C1397 C 0.88162 0.25556 0.38232 0.0
C1398 C 0.88458 0.33995 0.39543 0.0
C1399 C 0.88396 0.35984 0.37401 0.0
C1400 C 0.88266 0.32584 0.35691 0.0
C1401 C 0.88175 0.27467 0.36098 0.0
C1402 C 0.88683 0.48482 0.34356 0.0
C1403 C 0.88451 0.51968 0.35973 0.0
C1404 C 0.88696 0.43375 0.34839 0.0
C1405 C 0.88416 0.41529 0.36931 0.0
C1406 C 0.8814 0.45057 0.38531 0.0
C1407 C 0.88172 0.50205 0.38064 0.0
H1408 H 0.60507 0.27337 0.60163 0.0
H1409 H 0.63183 0.29072 0.6484 0.0
H1410 H 0.60643 0.18358 0.60528 0.0
H1411 H 0.634 0.19953 0.65068 0.0
H1412 H 0.62419 1.03951 0.58797 0.0
H1413 H 0.61865 0.1255 0.59197 0.0
H1414 H 0.6276 0.11811 0.66012 0.0
H1415 H 0.63379 1.03172 0.65567 0.0
C1416 C 0.61143 0.25779 0.61242 0.0
C1417 C 0.6186 0.28893 0.62424 0.0
C1418 C 0.61222 0.20613 0.61451 0.0
C1419 C 0.62056 0.18396 0.62773 0.0
C1420 C 0.62745 0.21516 0.64034 0.0
C1421 C 0.62636 0.26735 0.63883 0.0
C1422 C 0.62478 0.05571 0.60394 0.0
C1423 C 0.62956 1.02888 0.6214 0.0
C1424 C 0.62152 0.1053 0.60633 0.0
C1425 C 0.62273 0.12926 0.62639 0.0
C1426 C 0.62676 0.10126 0.64433 0.0
C1427 C 0.63018 0.05153 0.64184 0.0
H1428 H 0.61406 0.32099 0.75935 0.0
H1429 H 0.63486 0.2564 0.7095 0.0
H1430 H 0.6049 0.24018 0.76536 0.0
H1431 H 0.62584 0.17525 0.71593 0.0
H1432 H 0.62033 1.03969 0.76749 0.0
H1433 H 0.62715 0.11857 0.75161 0.0
H1434 H 0.59285 0.17148 0.74651 0.0
H1435 H 0.58612 0.09106 0.76112 0.0
C1436 C 0.61651 0.28981 0.74937 0.0
C1437 C 0.62523 0.29506 0.73407 0.0
C1438 C 0.61125 0.24358 0.75278 0.0
C1439 C 0.61474 0.20138 0.74125 0.0
C1440 C 0.62305 0.20713 0.72514 0.0
C1441 C 0.62815 0.25367 0.7214 0.0
C1442 C 0.6143 0.06696 0.76171 0.0
C1443 C 0.60276 0.05834 0.76454 0.0
C1444 C 0.61816 0.1125 0.75302 0.0
C1445 C 0.61051 0.15102 0.74764 0.0
C1446 C 0.59892 0.14242 0.75047 0.0
C1447 C 0.59509 0.09651 0.75882 0.0
H1448 H 0.37047 0.06475 0.41543 0.0
H1449 H 0.391 0.0862 0.47256 0.0
H1450 H 0.37315 0.9745 0.41907 0.0
H1451 H 0.39351 0.99625 0.47626 0.0
H1452 H 0.37947 0.84664 0.49783 0.0
H1453 H 0.37886 0.93487 0.48785 0.0
H1454 H 0.38579 0.89892 0.42107 0.0
H1455 H 0.38639 0.81001 0.43102 0.0
C1456 C 0.37581 0.05041 0.4284 0.0
C1457 C 0.38025 0.08269 0.44406 0.0
C1458 C 0.3773 0.99861 0.43053 0.0
C1459 C 0.38311 0.97828 0.44852 0.0
C1460 C 0.38861 1.01084 0.46269 0.0
C1461 C 0.38726 0.06249 0.46042 0.0
C1462 C 0.3807 0.85728 0.48094 0.0
C1463 C 0.38309 0.82116 0.46529 0.0
C1464 C 0.38051 0.90797 0.47528 0.0
C1465 C 0.38264 0.92392 0.45379 0.0
C1466 C 0.38426 0.88777 0.4378 0.0
C1467 C 0.38452 0.83683 0.4435 0.0
H1468 H 0.3921 1.03736 0.28527 0.0
H1469 H 0.41094 0.95211 0.33335 0.0
H1470 H 0.38003 0.96474 0.27921 0.0
H1471 H 0.39873 0.88044 0.32752 0.0
H1472 H 0.36635 0.80249 0.26635 0.0
H1473 H 0.38081 0.86797 0.26745 0.0
H1474 H 0.3766 0.8769 0.3369 0.0
H1475 H 0.36183 0.81332 0.33554 0.0
C1476 C 0.39385 1.00289 0.29413 0.0
C1477 C 0.40244 1.00076 0.3099 0.0
C1478 C 0.38693 0.9614 0.29068 0.0
C1479 C 0.38838 0.91739 0.30315 0.0
C1480 C 0.39738 0.91417 0.31789 0.0
C1481 C 0.40442 0.95522 0.32107 0.0
C1482 C 0.36861 0.81827 0.28185 0.0
C1483 C 0.36331 0.80158 0.30106 0.0
C1484 C 0.37684 0.85563 0.28245 0.0
C1485 C 0.37994 0.87672 0.3023 0.0
C1486 C 0.37455 0.86036 0.32145 0.0
C1487 C 0.36619 0.82369 0.32075 0.0
H1488 H 0.62024 0.78876 1.03237 0.0
H1489 H 0.60201 0.70703 0.08226 0.0
H1490 H 0.63261 0.7164 1.0275 0.0
H1491 H 0.61451 0.63557 0.0776 0.0
H1492 H 0.64667 0.55584 1.01553 0.0
H1493 H 0.63209 0.62087 1.01676 0.0
H1494 H 0.6364 0.62961 0.08619 0.0
H1495 H 0.65132 0.56638 0.0847 0.0
C1496 C 0.61871 0.75511 0.04194 0.0
C1497 C 0.61015 0.75388 0.05774 0.0
C1498 C 0.6258 0.71375 1.03917 0.0
C1499 C 0.62458 0.6707 0.05238 0.0
C1500 C 0.61569 0.6685 0.06738 0.0
C1501 C 0.60848 0.70941 0.06989 0.0
C1502 C 0.6444 0.57138 1.03107 0.0
C1503 C 0.64982 0.55479 0.05021 0.0
C1504 C 0.6361 0.60856 1.03174 0.0
C1505 C 0.63302 0.62971 0.05159 0.0
C1506 C 0.63844 0.61314 0.07072 0.0
C1507 C 0.64689 0.5766 0.06995 0.0
H1508 H 0.63627 0.54477 0.18587 0.0
H1509 H 0.62696 0.55847 0.25321 0.0
H1510 H 0.637 0.63499 0.18209 0.0
H1511 H 0.62642 0.64741 0.24928 0.0
H1512 H 0.6329 0.81053 0.24353 0.0
H1513 H 0.63294 0.72162 0.2474 0.0
H1514 H 0.62947 0.70856 0.17751 0.0
H1515 H 0.63072 0.79884 0.17388 0.0
C1516 C 0.63454 0.56734 0.19994 0.0
C1517 C 0.63176 0.54466 0.21989 0.0
C1518 C 0.6347 0.61945 0.19774 0.0
C1519 C 0.63172 0.6502 0.21529 0.0
C1520 C 0.62918 0.62664 0.23537 0.0
C1521 C 0.62945 0.57484 0.23773 0.0
C1522 C 0.63184 0.78866 0.22902 0.0
C1523 C 0.63172 0.81164 0.20841 0.0
C1524 C 0.63183 0.73682 0.23118 0.0
C1525 C 0.63119 0.70611 0.21281 0.0
C1526 C 0.63028 0.72979 0.19218 0.0
C1527 C 0.63075 0.78189 0.18999 0.0
H1528 H 0.40824 0.32867 0.9844 0.0
H1529 H 0.38128 0.3102 0.93813 0.0
H1530 H 0.40665 0.41842 0.98083 0.0
H1531 H 0.3789 0.40132 0.93592 0.0
H1532 H 0.38858 0.5614 0.99864 0.0
H1533 H 0.39423 0.47558 0.99449 0.0
H1534 H 0.38517 0.48319 0.9264 0.0
H1535 H 0.37887 0.56942 0.93099 0.0
C1536 C 0.40179 0.34399 0.97373 0.0
C1537 C 0.39463 0.31255 0.96204 0.0
C1538 C 0.40087 0.39561 0.97168 0.0
C1539 C 0.39242 0.41741 0.95864 0.0
C1540 C 0.38553 0.38594 0.94613 0.0
C1541 C 0.38675 0.3338 0.9476 0.0
C1542 C 0.38798 0.54528 0.98266 0.0
C1543 C 0.38316 0.57215 0.96524 0.0
C1544 C 0.39131 0.49581 0.98018 0.0
C1545 C 0.39012 0.47199 0.96008 0.0
C1546 C 0.38601 0.49997 0.94221 0.0
C1547 C 0.38253 0.5496 0.94478 0.0
H1548 H 0.39292 0.56174 0.81907 0.0
H1549 H 0.4272 0.511 0.82511 0.0
H1550 H 0.38621 0.48282 0.8351 0.0
H1551 H 0.42058 0.43056 0.8399 0.0
H1552 H 0.39953 0.28054 0.82754 0.0
H1553 H 0.40861 0.36146 0.82138 0.0
H1554 H 0.38761 0.42644 0.87072 0.0
H1555 H 0.37867 0.34519 0.87728 0.0
C1556 C 0.39899 0.5346 0.82481 0.0
C1557 C 0.41052 0.54339 0.82184 0.0
C1558 C 0.3952 0.48904 0.83359 0.0
C1559 C 0.4029 0.45069 0.83893 0.0
C1560 C 0.41447 0.45948 0.83597 0.0
C1561 C 0.41824 0.5054 0.82751 0.0
C1562 C 0.39705 0.31175 0.83747 0.0
C1563 C 0.38834 0.30649 0.85278 0.0
C1564 C 0.40227 0.35806 0.83398 0.0
C1565 C 0.39873 0.40029 0.84543 0.0
C1566 C 0.39043 0.39453 0.86156 0.0
C1567 C 0.38538 0.34792 0.86539 0.0
H1568 H 0.0782 0.28736 0.13226 0.0
H1569 H 0.11416 0.27734 0.14135 0.0
H1570 H 0.07579 0.21254 0.15588 0.0
H1571 H 0.11181 0.20319 0.16386 0.0
H1572 H 0.07718 1.04614 0.18664 0.0
H1573 H 0.07772 0.12176 0.16308 0.0
H1574 H 0.10687 0.17319 0.19801 0.0
H1575 H 0.10633 0.0987 0.22095 0.0
C1576 C 0.08562 0.26968 0.13921 0.0
C1577 C 0.09639 0.29019 0.13473 0.0
C1578 C 0.08424 0.22608 0.1528 0.0
C1579 C 0.09358 0.20096 0.16259 0.0
C1580 C 0.10429 0.22127 0.15765 0.0
C1581 C 0.10565 0.26442 0.14429 0.0
C1582 C 0.08363 0.07385 0.18948 0.0
C1583 C 0.09174 0.06509 0.20603 0.0
C1584 C 0.08397 0.1177 0.17581 0.0
C1585 C 0.09248 0.15467 0.17794 0.0
C1586 C 0.10032 0.14611 0.19495 0.0
C1587 C 0.09996 0.1028 0.20848 0.0
H1588 H 0.18473 0.07065 0.13744 0.0
H1589 H 0.1488 0.09453 0.13693 0.0
H1590 H 0.18695 0.14303 0.16134 0.0
H1591 H 0.15098 0.16643 0.15975 0.0
H1592 H 0.1543 0.27105 0.21572 0.0
H1593 H 0.15375 0.19716 0.19353 0.0
H1594 H 0.18697 0.23093 0.16913 0.0
H1595 H 0.18759 0.30523 0.19231 0.0
C1596 C 0.17727 0.09097 0.14231 0.0
C1597 C 0.16654 0.07502 0.13508 0.0
C1598 C 0.17855 0.13322 0.15609 0.0
C1599 C 0.16916 0.16165 0.16331 0.0
C1600 C 0.15852 0.14585 0.15563 0.0
C1601 C 0.15725 0.10394 0.14209 0.0
C1602 C 0.16158 0.26288 0.20581 0.0
C1603 C 0.17098 0.29513 0.20623 0.0
C1604 C 0.16121 0.22007 0.19262 0.0
C1605 C 0.17018 0.20692 0.17865 0.0
C1606 C 0.17981 0.23848 0.17945 0.0
C1607 C 0.1802 0.28155 0.19294 0.0
H1608 H 0.91317 0.76616 0.91518 0.0
H1609 H 0.9347 0.83045 0.96357 0.0
H1610 H 0.91181 0.84681 0.89634 0.0
H1611 H 0.93364 0.91194 0.944 0.0
H1612 H 0.93663 1.03842 0.88528 0.0
H1613 H 0.93901 0.95961 0.90649 0.0
H1614 H 0.90339 0.93197 0.90159 0.0
H1615 H 0.90096 1.00983 0.88123 0.0
C1616 C 0.91776 0.79729 0.92186 0.0
C1617 C 0.92411 0.79027 0.9412 0.0
C1618 C 0.91692 0.84431 0.91091 0.0
C1619 C 0.92264 0.8872 0.91823 0.0
C1620 C 0.92915 0.88039 0.93744 0.0
C1621 C 0.92974 0.83325 0.94884 0.0
C1622 C 0.92927 1.01583 0.88878 0.0
C1623 C 0.91857 1.03206 0.88116 0.0
C1624 C 0.93063 0.97024 0.90114 0.0
C1625 C 0.92141 0.93806 0.90601 0.0
C1626 C 0.91079 0.95446 0.89831 0.0
C1627 C 0.9094 1.00009 0.88651 0.0
H1628 H 0.85694 1.0206 0.9561 0.0
H1629 H 0.8215 1.04716 0.94563 0.0
H1630 H 0.85613 0.94721 0.93365 0.0
H1631 H 0.82067 0.97221 0.92273 0.0
H1632 H 0.82257 0.80444 0.89507 0.0
H1633 H 0.82165 0.87887 0.91829 0.0
H1634 H 0.85507 0.92046 0.89755 0.0
H1635 H 0.85596 0.84758 0.87479 0.0
C1636 C 0.84886 1.01098 0.94913 0.0
C1637 C 0.83929 1.04126 0.95316 0.0
C1638 C 0.84842 0.96824 0.93584 0.0
C1639 C 0.83836 0.95252 0.92569 0.0
C1640 C 0.82864 0.98197 0.93006 0.0
C1641 C 0.82911 1.0255 0.94334 0.0
C1642 C 0.8297 0.82959 0.89531 0.0
C1643 C 0.83935 0.81864 0.88263 0.0
C1644 C 0.82918 0.87284 0.90876 0.0
C1645 C 0.83834 0.90681 0.91045 0.0
C1646 C 0.84785 0.89583 0.89749 0.0
C1647 C 0.84832 0.85338 0.88403 0.0
H1648 H 0.10793 0.76303 0.62426 0.0
H1649 H 0.07295 0.7967 0.63584 0.0
H1650 H 0.1067 0.69038 0.64837 0.0
H1651 H 0.07166 0.72265 0.66021 0.0
H1652 H 0.10581 0.59381 0.71009 0.0
H1653 H 0.10553 0.6661 0.68574 0.0
H1654 H 0.0719 0.62855 0.66534 0.0
H1655 H 0.0722 0.5548 0.69006 0.0
C1656 C 0.09988 0.75508 0.63182 0.0
C1657 C 0.09056 0.78702 0.62765 0.0
C1658 C 0.09918 0.71288 0.64602 0.0
C1659 C 0.08909 0.69948 0.65686 0.0
C1660 C 0.07963 0.73064 0.65235 0.0
C1661 C 0.08037 0.77362 0.63824 0.0
C1662 C 0.09824 0.60052 0.70063 0.0
C1663 C 0.08901 0.56722 0.70257 0.0
C1664 C 0.09813 0.6425 0.68626 0.0
C1665 C 0.08874 0.65433 0.67296 0.0
C1666 C 0.07934 0.62176 0.67514 0.0
C1667 C 0.07951 0.57896 0.68945 0.0
H1668 H 0.14982 0.57486 0.64161 0.0
H1669 H 0.18559 0.58072 0.63 0.0
H1670 H 0.1509 0.64892 0.66325 0.0
H1671 H 0.1867 0.65735 0.65176 0.0
H1672 H 0.18541 0.78065 0.70751 0.0
H1673 H 0.18614 0.7049 0.68514 0.0
H1674 H 0.15202 0.73335 0.66407 0.0
H1675 H 0.15123 0.8064 0.68655 0.0
C1676 C 0.15803 0.59176 0.64357 0.0
C1677 C 0.16761 0.57007 0.63366 0.0
C1678 C 0.15864 0.63563 0.65607 0.0
C1679 C 0.16887 0.6615 0.65949 0.0
C1680 C 0.17858 0.63954 0.64993 0.0
C1681 C 0.17796 0.595 0.63729 0.0
C1682 C 0.17809 0.77102 0.69796 0.0
C1683 C 0.16823 0.80084 0.69934 0.0
C1684 C 0.17849 0.72697 0.68498 0.0
C1685 C 0.16906 0.71066 0.67267 0.0
C1686 C 0.15943 0.74198 0.67353 0.0
C1687 C 0.15901 0.78519 0.6865 0.0
H1688 H 0.90786 0.49968 0.36214 0.0
H1689 H 0.93906 0.54509 0.39118 0.0
H1690 H 0.90758 0.425 0.38452 0.0
H1691 H 0.9393 0.46732 0.4132 0.0
H1692 H 0.93255 0.33574 0.46358 0.0
H1693 H 0.93419 0.41234 0.44115 0.0
H1694 H 0.91207 0.34765 0.39352 0.0
H1695 H 0.91009 0.27372 0.41625 0.0
C1696 C 0.91481 0.49358 0.37318 0.0
C1697 C 0.92344 0.52975 0.37442 0.0
C1698 C 0.91476 0.44939 0.38614 0.0
C1699 C 0.92348 0.4376 0.40111 0.0
C1700 C 0.93228 0.47366 0.40227 0.0
C1701 C 0.93224 0.51866 0.38929 0.0
C1702 C 0.92814 0.33769 0.44818 0.0
C1703 C 0.92119 0.29733 0.44202 0.0
C1704 C 0.92906 0.38226 0.43511 0.0
C1705 C 0.92315 0.38858 0.4151 0.0
C1706 C 0.91657 0.34702 0.4088 0.0
C1707 C 0.91553 0.30325 0.42193 0.0
H1708 H 0.82823 0.53652 0.44607 0.0
H1709 H 0.86344 0.5025 0.45508 0.0
H1710 H 0.82652 0.46447 0.42178 0.0
H1711 H 0.86174 0.43099 0.43202 0.0
H1712 H 0.86085 0.32452 0.37661 0.0
H1713 H 0.86102 0.39769 0.39908 0.0
H1714 H 0.82556 0.37868 0.41197 0.0
H1715 H 0.82544 0.3051 0.38832 0.0
C1716 C 0.83563 0.51398 0.44304 0.0
C1717 C 0.84603 0.52716 0.45274 0.0
C1718 C 0.83465 0.47188 0.429 0.0
C1719 C 0.84401 0.44064 0.424 0.0
C1720 C 0.85427 0.45361 0.43425 0.0
C1721 C 0.85526 0.49542 0.44797 0.0
C1722 C 0.85302 0.33581 0.384 0.0
C1723 C 0.84318 0.30767 0.38019 0.0
C1724 C 0.85312 0.3783 0.39742 0.0
C1725 C 0.84338 0.39549 0.40835 0.0
C1726 C 0.83335 0.36808 0.40414 0.0
C1727 C 0.83325 0.32531 0.39037 0.0
H1728 H 0.61295 0.08238 0.70423 0.0
H1729 H 0.57731 0.05375 0.69924 0.0
H1730 H 0.61066 0.16021 0.68382 0.0
H1731 H 0.57508 0.13255 0.67795 0.0
H1732 H 0.57984 0.26156 0.62094 0.0
H1733 H 0.58073 0.18013 0.64059 0.0
H1734 H 0.60221 0.24532 0.68881 0.0
H1735 H 0.60103 0.32591 0.66987 0.0
C1736 C 0.60455 0.0921 0.69873 0.0
C1737 C 0.59534 0.06013 0.70384 0.0
C1738 C 0.60324 0.13771 0.6869 0.0
C1739 C 0.59268 0.15409 0.67891 0.0
C1740 C 0.58342 0.12193 0.68353 0.0
C1741 C 0.58469 0.07635 0.69594 0.0
C1742 C 0.58469 0.25878 0.63581 0.0
C1743 C 0.59027 0.30175 0.64358 0.0
C1744 C 0.58518 0.21168 0.64725 0.0
C1745 C 0.59154 0.20492 0.66665 0.0
C1746 C 0.59722 0.2478 0.6741 0.0
C1747 C 0.59648 0.29478 0.6631 0.0
H1748 H 0.65683 0.07293 0.62975 0.0
H1749 H 0.6923 1.04653 0.6399 0.0
H1750 H 0.65768 0.1464 0.65215 0.0
H1751 H 0.69318 0.12153 0.66275 0.0
H1752 H 0.69131 0.28928 0.69033 0.0
H1753 H 0.69218 0.21488 0.66709 0.0
H1754 H 0.65885 0.17294 0.6883 0.0
H1755 H 0.65802 0.24577 0.7111 0.0
C1756 C 0.66492 0.08262 0.63663 0.0
C1757 C 0.6745 0.05237 0.63254 0.0
C1758 C 0.66539 0.12537 0.6499 0.0
C1759 C 0.67548 0.14112 0.65995 0.0
C1760 C 0.68519 0.11172 0.6555 0.0
C1761 C 0.68469 0.06818 0.64225 0.0
C1762 C 0.68419 0.26405 0.69019 0.0
C1763 C 0.67459 0.27487 0.70301 0.0
C1764 C 0.68468 0.22084 0.67673 0.0
C1765 C 0.67553 0.18679 0.67518 0.0
C1766 C 0.66607 0.19764 0.68827 0.0
C1767 C 0.66563 0.24005 0.70175 0.0
H1768 H 0.43704 1.03375 0.38594 0.0
H1769 H 0.40128 1.03796 0.39773 0.0
H1770 H 0.43862 0.95877 0.40944 0.0
H1771 H 0.40277 0.9633 0.42054 0.0
H1772 H 0.40759 0.84928 0.47513 0.0
H1773 H 0.40752 0.92552 0.45311 0.0
H1774 H 0.43603 0.87143 0.41698 0.0
H1775 H 0.43629 0.79492 0.43984 0.0
C1776 C 0.42948 1.01919 0.39355 0.0
C1777 C 0.41903 1.04356 0.38967 0.0
C1778 C 0.43037 0.9753 0.40707 0.0
C1779 C 0.42086 0.9535 0.41757 0.0
C1780 C 0.41045 0.97816 0.41359 0.0
C1781 C 0.40956 1.02166 0.4001 0.0
C1782 C 0.41395 0.85333 0.46263 0.0
C1783 C 0.42197 0.81473 0.45973 0.0
C1784 C 0.41382 0.89758 0.44956 0.0
C1785 C 0.42161 0.90599 0.43245 0.0
C1786 C 0.42984 0.86781 0.4298 0.0
C1787 C 0.43003 0.82334 0.4431 0.0
H1788 H 0.35873 1.00513 0.46855 0.0
H1789 H 0.32577 1.04379 0.44446 0.0
H1790 H 0.35869 0.92985 0.44696 0.0
H1791 H 0.32602 0.96958 0.42127 0.0
H1792 H 0.32753 0.81293 0.38627 0.0
H1793 H 0.32551 0.88424 0.41091 0.0
H1794 H 0.3617 0.8962 0.41435 0.0
H1795 H 0.36364 0.82579 0.3908 0.0
C1796 C 0.35138 0.99764 0.45867 0.0
C1797 C 0.3422 1.03143 0.45885 0.0
C1798 C 0.35145 0.95425 0.44566 0.0
C1799 C 0.34254 0.94258 0.43121 0.0
C1800 C 0.33316 0.97578 0.43183 0.0
C1801 C 0.33297 1.0189 0.44538 0.0
C1802 C 0.33507 0.83054 0.39238 0.0
C1803 C 0.34578 0.81179 0.38619 0.0
C1804 C 0.33392 0.87223 0.40665 0.0
C1805 C 0.34341 0.89741 0.41552 0.0
C1806 C 0.35403 0.87859 0.40897 0.0
C1807 C 0.35516 0.83737 0.39493 0.0
H1808 H 0.57616 0.79465 0.13745 0.0
H1809 H 0.61232 0.78096 0.13934 0.0
H1810 H 0.57453 0.72029 0.16133 0.0
H1811 H 0.61072 0.70654 0.16218 0.0
H1812 H 0.60766 0.5952 0.21787 0.0
H1813 H 0.60789 0.67068 0.19554 0.0
H1814 H 0.57536 0.63256 0.16938 0.0
H1815 H 0.57511 0.55643 0.19253 0.0
C1816 C 0.58381 0.77616 0.14289 0.0
C1817 C 0.59441 0.79556 0.13625 0.0
C1818 C 0.58287 0.73266 0.15666 0.0
C1819 C 0.59248 0.7061 0.16452 0.0
C1820 C 0.60302 0.72548 0.15754 0.0
C1821 C 0.60395 0.76879 0.14398 0.0
C1822 C 0.60046 0.60265 0.20756 0.0
C1823 C 0.59136 0.56847 0.20753 0.0
C1824 C 0.60064 0.64651 0.19428 0.0
C1825 C 0.59175 0.65915 0.17979 0.0
C1826 C 0.58244 0.6256 0.18009 0.0
C1827 C 0.58226 0.58137 0.19359 0.0
H1828 H 0.65069 0.58532 0.13583 0.0
H1829 H 0.68648 0.55847 0.13884 0.0
H1830 H 0.6527 0.65632 0.15919 0.0
H1831 H 0.68847 0.62993 0.1635 0.0
H1832 H 0.68848 0.79253 0.19597 0.0
H1833 H 0.68841 0.71909 0.17216 0.0
H1834 H 0.65482 0.68348 0.19397 0.0
H1835 H 0.65487 0.75622 0.21691 0.0
C1836 C 0.65907 0.59375 0.14168 0.0
C1837 C 0.66837 0.5642 0.13513 0.0
C1838 C 0.66022 0.63512 0.15559 0.0
C1839 C 0.67073 0.64978 0.16431 0.0
C1840 C 0.68015 0.6209 0.15753 0.0
C1841 C 0.67901 0.57921 0.14328 0.0
C1842 C 0.68113 0.76861 0.19596 0.0
C1843 C 0.67166 0.7815 0.20876 0.0
C1844 C 0.68105 0.72603 0.18206 0.0
C1845 C 0.67149 0.69427 0.18026 0.0
C1846 C 0.66228 0.70658 0.1938 0.0
C1847 C 0.66234 0.74878 0.20744 0.0
H1848 H 0.41219 0.27547 0.91662 0.0
H1849 H 0.43356 0.33966 0.9653 0.0
H1850 H 0.41096 0.3561 0.89772 0.0
H1851 H 0.43262 0.42111 0.94568 0.0
H1852 H 0.43592 0.54733 0.88691 0.0
H1853 H 0.43818 0.46851 0.90817 0.0
H1854 H 0.40255 0.44143 0.90292 0.0
H1855 H 0.40024 0.51929 0.88251 0.0
C1856 C 0.41677 0.30657 0.92335 0.0
C1857 C 0.42304 0.29955 0.94278 0.0
C1858 C 0.41601 0.35357 0.91237 0.0
C1859 C 0.42172 0.39641 0.91975 0.0
C1860 C 0.42815 0.3896 0.93907 0.0
C1861 C 0.42866 0.34248 0.95049 0.0
C1862 C 0.42854 0.52487 0.89034 0.0
C1863 C 0.41787 0.54126 0.88261 0.0
C1864 C 0.42983 0.47927 0.90273 0.0
C1865 C 0.42057 0.44725 0.9075 0.0
C1866 C 0.40998 0.46381 0.8997 0.0
C1867 C 0.40866 0.50943 0.88787 0.0
H1868 H 0.32068 0.55633 0.94617 0.0
H1869 H 0.35605 0.52954 0.95742 0.0
H1870 H 0.31996 0.48138 0.92325 0.0
H1871 H 0.35535 0.45616 0.93495 0.0
H1872 H 0.35552 0.35667 0.87605 0.0
H1873 H 0.35451 0.42949 0.89883 0.0
H1874 H 0.32095 0.38806 0.91878 0.0
H1875 H 0.32199 0.31368 0.89555 0.0
C1876 C 0.3283 0.53461 0.94404 0.0
C1877 C 0.33842 0.55032 0.95409 0.0
C1878 C 0.32789 0.4911 0.93075 0.0
C1879 C 0.33763 0.4616 0.92659 0.0
C1880 C 0.34763 0.47724 0.93697 0.0
C1881 C 0.34801 0.51996 0.95027 0.0
C1882 C 0.34782 0.36249 0.88511 0.0
C1883 C 0.33885 0.32781 0.88349 0.0
C1884 C 0.34728 0.40491 0.89859 0.0
C1885 C 0.33769 0.41592 0.91133 0.0
C1886 C 0.32854 0.382 0.90942 0.0
C1887 C 0.32913 0.33878 0.89596 0.0
H1888 H 0.15134 0.41925 0.05534 0.0
H1889 H 0.15018 0.29842 0.10253 0.0
H1890 H 0.17044 0.43912 0.0668 0.0
H1891 H 0.16898 0.31847 0.11435 0.0
H1892 H 0.16846 0.51539 0.13587 0.0
H1893 H 0.16928 0.48403 0.09948 0.0
H1894 H 0.18686 0.35213 0.12312 0.0
H1895 H 0.186 0.38449 0.15987 0.0
C1896 C 0.15537 0.39535 0.06742 0.0
C1897 C 0.14913 0.35941 0.0791 0.0
C1898 C 0.16635 0.40668 0.074 0.0
C1899 C 0.17091 0.3832 0.0927 0.0
C1900 C 0.16564 0.33919 0.10052 0.0
C1901 C 0.15472 0.32771 0.09389 0.0
C1902 C 0.1731 0.48114 0.13307 0.0
C1903 C 0.17665 0.45107 0.15058 0.0
C1904 C 0.17365 0.46285 0.11205 0.0
C1905 C 0.17736 0.41345 0.1086 0.0
C1906 C 0.18343 0.38922 0.12543 0.0
C1907 C 0.18297 0.40783 0.14653 0.0
H1908 H 0.11066 0.84237 0.15172 0.0
H1909 H 0.08341 0.94251 0.16722 0.0
H1910 H 0.10749 0.85808 0.11339 0.0
H1911 H 0.08014 0.95866 0.12866 0.0
H1912 H 0.11528 0.91477 0.05835 0.0
H1913 H 0.09926 0.87743 0.07708 0.0
H1914 H 0.09502 1.01273 0.11352 0.0
H1915 H 0.11101 1.04942 0.09502 0.0
C1916 C 0.10359 0.86569 0.14681 0.0
C1917 C 0.09745 0.89202 0.16226 0.0
C1918 C 0.10165 0.8745 0.12475 0.0
C1919 C 0.09379 0.91122 0.11792 0.0
C1920 C 0.08636 0.93083 0.13341 0.0
C1921 C 0.08824 0.92151 0.15553 0.0
C1922 C 0.11046 0.93773 0.06933 0.0
C1923 C 0.11474 0.98357 0.07643 0.0
C1924 C 0.10123 0.91626 0.08005 0.0
C1925 C 0.09646 0.94066 0.0979 0.0
C1926 C 0.09881 0.99186 0.10047 0.0
C1927 C 0.10807 1.01314 0.0899 0.0
H1928 H 0.89567 0.5534 0.88503 0.0
H1929 H 0.89912 0.49408 0.95023 0.0
H1930 H 0.87725 0.51594 0.88242 0.0
H1931 H 0.88027 0.45869 0.948 0.0
H1932 H 0.84667 0.55191 0.883 0.0
H1933 H 0.85757 0.47713 0.89141 0.0
H1934 H 0.87045 0.54747 0.94885 0.0
H1935 H 0.86009 0.62263 0.93981 0.0
C1936 C 0.89281 0.52938 0.89826 0.0
C1937 C 0.89846 0.529 0.91822 0.0
C1938 C 0.88219 0.50744 0.89681 0.0
C1939 C 0.87697 0.48826 0.91575 0.0
C1940 C 0.88391 0.47554 0.93352 0.0
C1941 C 0.89473 0.49617 0.93479 0.0
C1942 C 0.85123 0.55018 0.89824 0.0
C1943 C 0.85307 0.59379 0.91021 0.0
C1944 C 0.85743 0.50687 0.90314 0.0
C1945 C 0.86543 0.50758 0.91998 0.0
C1946 C 0.86467 0.5461 0.93529 0.0
C1947 C 0.85874 0.58979 0.93008 0.0
H1948 H 0.85511 0.27879 0.89744 0.0
H1949 H 0.82997 0.16679 0.91167 0.0
H1950 H 0.85395 0.25998 0.85928 0.0
H1951 H 0.82869 0.1477 0.87322 0.0
H1952 H 0.86607 0.19739 0.80725 0.0
H1953 H 0.84901 0.23253 0.82284 0.0
H1954 H 0.84522 0.09952 0.86298 0.0
H1955 H 0.86219 0.06512 0.84755 0.0
C1956 C 0.84883 0.25219 0.89218 0.0
C1957 C 0.84292 0.22307 0.90742 0.0
C1958 C 0.84807 0.24142 0.87015 0.0
C1959 C 0.84162 0.20034 0.86329 0.0
C1960 C 0.83397 0.17854 0.8781 0.0
C1961 C 0.83469 0.1896 0.90018 0.0
C1962 C 0.86119 0.17442 0.81842 0.0
C1963 C 0.86569 0.12979 0.82715 0.0
C1964 C 0.85138 0.19463 0.82737 0.0
C1965 C 0.84617 0.17032 0.84513 0.0
C1966 C 0.84919 0.12027 0.84982 0.0
C1967 C 0.85901 0.10032 0.84103 0.0
H1968 H 0.1178 0.78687 0.74904 0.0
H1969 H 0.11704 0.92461 0.78439 0.0
H1970 H 0.10025 0.80924 0.73149 0.0
H1971 H 0.09938 0.94732 0.76671 0.0
H1972 H 0.08533 0.87136 0.67713 0.0
H1973 H 0.08337 0.85218 0.71599 0.0
H1974 H 0.10716 0.96967 0.73002 0.0
H1975 H 0.10929 0.98706 0.69159 0.0
C1976 C 0.11348 0.82041 0.75417 0.0
C1977 C 0.11908 0.85573 0.76677 0.0
C1978 C 0.1033 0.83336 0.74415 0.0
C1979 C 0.09897 0.88208 0.74641 0.0
C1980 C 0.10288 0.91053 0.76389 0.0
C1981 C 0.11305 0.89752 0.774 0.0
C1982 C 0.08968 0.89451 0.68872 0.0
C1983 C 0.09771 0.92962 0.68165 0.0
C1984 C 0.08851 0.88371 0.71095 0.0
C1985 C 0.09531 0.90833 0.72613 0.0
C1986 C 0.10181 0.9495 0.71893 0.0
C1987 C 0.10317 0.95933 0.69682 0.0
H1988 H 0.11498 0.35677 0.65516 0.0
H1989 H 0.08515 0.44599 0.66486 0.0
H1990 H 0.11264 0.36537 0.61613 0.0
H1991 H 0.08276 0.45517 0.62562 0.0
H1992 H 0.11845 0.40477 0.55761 0.0
H1993 H 0.10319 0.36848 0.57884 0.0
H1994 H 0.09739 0.51135 0.60847 0.0
H1995 H 0.11279 0.54695 0.58775 0.0
C1996 C 0.10763 0.37627 0.64885 0.0
C1997 C 0.10031 0.40105 0.66284 0.0
C1998 C 0.10616 0.38077 0.62644 0.0
C1999 C 0.09756 0.41166 0.61772 0.0
C2000 C 0.08942 0.43113 0.63185 0.0
C2001 C 0.0908 0.42586 0.65432 0.0
C2002 C 0.1134 0.42934 0.56749 0.0
C2003 C 0.11718 0.4777 0.57224 0.0
C2004 C 0.10461 0.40841 0.57968 0.0
C2005 C 0.09966 0.43621 0.59635 0.0
C2006 C 0.10133 0.48831 0.5963 0.0
C2007 C 0.11021 0.509 0.58439 0.0
H2008 H 0.86693 0.29157 0.44726 0.0
H2009 H 0.86185 0.23608 0.51273 0.0
H2010 H 0.84686 0.288 0.44073 0.0
H2011 H 0.84159 0.23187 0.50625 0.0
H2012 H 0.82361 0.2292 0.41296 0.0
H2013 H 0.82578 0.28481 0.44341 0.0
H2014 H 0.83723 0.16038 0.48317 0.0
H2015 H 0.83563 0.10596 0.45251 0.0
C2016 C 0.86144 0.28047 0.46054 0.0
C2017 C 0.86591 0.26163 0.48007 0.0
C2018 C 0.84984 0.27902 0.45698 0.0
C2019 C 0.84261 0.25727 0.47273 0.0
C2020 C 0.84695 0.24754 0.49364 0.0
C2021 C 0.85858 0.24936 0.49724 0.0
C2022 C 0.82585 0.21304 0.42863 0.0
C2023 C 0.83046 0.16466 0.43013 0.0
C2024 C 0.82705 0.24509 0.44621 0.0
C2025 C 0.83284 0.22788 0.46484 0.0
C2026 C 0.83349 0.17574 0.46844 0.0
C2027 C 0.83256 0.14401 0.45078 0.0
H2028 H 0.89858 0.68236 0.52679 0.0
H2029 H 0.90079 0.54647 0.49032 0.0
H2030 H 0.91463 0.71609 0.50686 0.0
H2031 H 0.9169 0.57925 0.47089 0.0
H2032 H 0.90384 0.75064 0.43152 0.0
H2033 H 0.90642 0.73526 0.47005 0.0
H2034 H 0.93301 0.62954 0.4564 0.0
H2035 H 0.93048 0.64614 0.41756 0.0
C2036 C 0.90297 0.65824 0.51562 0.0
C2037 C 0.89814 0.61296 0.50914 0.0
C2038 C 0.91222 0.67763 0.50422 0.0
C2039 C 0.91656 0.65163 0.48639 0.0
C2040 C 0.91354 0.60109 0.48407 0.0
C2041 C 0.90423 0.58203 0.49523 0.0
C2042 C 0.91066 0.72631 0.43683 0.0
C2043 C 0.91676 0.69863 0.42177 0.0
C2044 C 0.91226 0.71766 0.459 0.0
C2045 C 0.9197 0.67978 0.46631 0.0
C2046 C 0.92712 0.65841 0.45124 0.0
C2047 C 0.92565 0.66786 0.429 0.0
H2048 H 0.61822 0.53965 0.70012 0.0
H2049 H 0.61496 0.5986 0.63482 0.0
H2050 H 0.63658 0.57749 0.70295 0.0
H2051 H 0.63376 0.63435 0.63728 0.0
H2052 H 0.66718 0.54127 0.70268 0.0
H2053 H 0.6563 0.61604 0.69413 0.0
H2054 H 0.64356 0.54553 0.63661 0.0
H2055 H 0.6539 0.47038 0.64579 0.0
C2056 C 0.6211 0.56367 0.68691 0.0
C2057 C 0.61554 0.56381 0.66686 0.0
C2058 C 0.6317 0.58582 0.68849 0.0
C2059 C 0.63697 0.60494 0.6696 0.0
C2060 C 0.63008 0.61752 0.65173 0.0
C2061 C 0.61929 0.59667 0.65032 0.0
C2062 C 0.66265 0.54295 0.6874 0.0
C2063 C 0.66085 0.49931 0.67543 0.0
C2064 C 0.65647 0.58626 0.68241 0.0
C2065 C 0.64851 0.58552 0.6655 0.0
C2066 C 0.64931 0.54693 0.65023 0.0
C2067 C 0.65522 0.50325 0.65551 0.0
H2068 H 0.68382 0.92663 0.67405 0.0
H2069 H 0.65877 0.81414 0.68814 0.0
H2070 H 0.68505 0.94564 0.7125 0.0
H2071 H 0.65987 0.8329 0.72632 0.0
H2072 H 0.65152 1.02772 0.73816 0.0
H2073 H 0.66851 0.99355 0.72277 0.0
H2074 H 0.66474 0.86031 0.76277 0.0
H2075 H 0.64763 0.89523 0.77831 0.0
C2076 C 0.67911 0.90371 0.68551 0.0
C2077 C 0.67091 0.87009 0.67822 0.0
C2078 C 0.67979 0.91472 0.7076 0.0
C2079 C 0.67215 0.89277 0.72237 0.0
C2080 C 0.66574 0.85159 0.71546 0.0
C2081 C 0.66502 0.84084 0.69343 0.0
C2082 C 0.6547 0.99252 0.74466 0.0
C2083 C 0.64801 0.96292 0.75847 0.0
C2084 C 0.66454 0.9727 0.7359 0.0
C2085 C 0.66758 0.92265 0.74055 0.0
C2086 C 0.66235 0.89821 0.75827 0.0
C2087 C 0.65252 0.91829 0.76718 0.0
H2088 H 0.43083 0.69782 0.41794 0.0
H2089 H 0.40558 0.58896 0.4017 0.0
H2090 H 0.4335 0.7176 0.37949 0.0
H2091 H 0.40821 0.60798 0.36351 0.0
H2092 H 0.40065 0.79891 0.34804 0.0
H2093 H 0.41735 0.76668 0.36576 0.0
H2094 H 0.41555 0.63344 0.32726 0.0
H2095 H 0.39883 0.66659 0.30917 0.0
C2096 C 0.42638 0.67582 0.40608 0.0
C2097 C 0.41779 0.64282 0.4126 0.0
C2098 C 0.42791 0.68719 0.38402 0.0
C2099 C 0.42078 0.66594 0.36844 0.0
C2100 C 0.41379 0.62581 0.37496 0.0
C2101 C 0.41216 0.61498 0.39695 0.0
C2102 C 0.40427 0.76438 0.34224 0.0
C2103 C 0.39815 0.73387 0.32826 0.0
C2104 C 0.41394 0.74563 0.35241 0.0
C2105 C 0.41728 0.69578 0.34898 0.0
C2106 C 0.41287 0.67115 0.33085 0.0
C2107 C 0.40324 0.6902 0.32049 0.0
H2108 H 0.32657 0.26853 0.39968 0.0
H2109 H 0.32802 0.11014 0.41289 0.0
H2110 H 0.32892 0.2533 0.36121 0.0
H2111 H 0.33177 0.09535 0.37509 0.0
H2112 H 0.36133 0.08457 0.33454 0.0
H2113 H 0.34113 0.09778 0.34115 0.0
H2114 H 0.34873 0.24541 0.36514 0.0
H2115 H 0.36839 0.23161 0.3587 0.0
C2116 C 0.32663 0.23024 0.39424 0.0
C2117 C 0.32799 0.19065 0.40922 0.0
C2118 C 0.3281 0.22129 0.37211 0.0
C2119 C 0.33218 0.17414 0.36588 0.0
C2120 C 0.32965 0.13312 0.37966 0.0
C2121 C 0.32748 0.14159 0.4016 0.0
C2122 C 0.3585 0.11998 0.34089 0.0
C2123 C 0.36634 0.15636 0.34702 0.0
C2124 C 0.34696 0.12779 0.34447 0.0
C2125 C 0.34315 0.17225 0.35407 0.0
C2126 C 0.35108 0.21051 0.35774 0.0
C2127 C 0.36251 0.20236 0.3545 0.0
H2128 H 0.65081 0.82215 0.08013 0.0
H2129 H 0.64616 0.97708 0.09605 0.0
H2130 H 0.67107 0.82977 0.08717 0.0
H2131 H 0.66592 0.98573 0.10274 0.0
H2132 H 0.68354 0.99949 0.14765 0.0
H2133 H 0.6851 0.98372 0.10892 0.0
H2134 H 0.67876 0.82734 0.12137 0.0
H2135 H 0.67809 0.84241 0.15981 0.0
C2136 C 0.6542 0.85805 0.0847 0.0
C2137 C 0.64699 0.89827 0.08896 0.0
C2138 C 0.6658 0.86267 0.08857 0.0
C2139 C 0.6702 0.90739 0.09699 0.0
C2140 C 0.66306 0.94977 0.09719 0.0
C2141 C 0.65157 0.94486 0.09372 0.0
C2142 C 0.68317 0.96135 0.14215 0.0
C2143 C 0.67992 0.92253 0.15631 0.0
C2144 C 0.6841 0.95201 0.11993 0.0
C2145 C 0.68008 0.90606 0.11215 0.0
C2146 C 0.68062 0.86479 0.12667 0.0
C2147 C 0.68019 0.8733 0.14894 0.0
H2148 H 0.58037 0.45389 0.16367 0.0
H2149 H 0.60356 0.33572 0.14785 0.0
H2150 H 0.57896 0.47729 0.12528 0.0
H2151 H 0.6021 0.35798 0.10978 0.0
H2152 H 0.61488 0.41945 0.05807 0.0
H2153 H 0.59719 0.39014 0.0737 0.0
H2154 H 0.59604 0.52081 0.11397 0.0
H2155 H 0.61359 0.54954 0.09841 0.0
C2156 C 0.58461 0.43093 0.15184 0.0
C2157 C 0.59244 0.39438 0.15855 0.0
C2158 C 0.5838 0.44434 0.12981 0.0
C2159 C 0.59086 0.42134 0.11454 0.0
C2160 C 0.59671 0.37758 0.12101 0.0
C2161 C 0.59765 0.36476 0.14296 0.0
C2162 C 0.61047 0.44336 0.06929 0.0
C2163 C 0.61583 0.4852 0.07806 0.0
C2164 C 0.60029 0.42656 0.07824 0.0
C2165 C 0.59563 0.45126 0.09615 0.0
C2166 C 0.59958 0.49963 0.10076 0.0
C2167 C 0.60975 0.51625 0.09191 0.0
H2168 H 0.34609 0.06096 0.88371 0.0
H2169 H 0.35934 0.13126 0.94076 0.0
H2170 H 0.35688 0.98596 0.89224 0.0
H2171 H 0.36961 0.05592 0.94989 0.0
H2172 H 0.395 0.06172 0.88634 0.0
H2173 H 0.37662 1.024 0.88348 0.0
H2174 H 0.37939 0.96725 0.94919 0.0
H2175 H 0.3982 1.00288 0.95167 0.0
C2176 C 0.35059 0.05911 0.89901 0.0
C2177 C 0.35241 0.10264 0.91104 0.0
C2178 C 0.35672 1.01567 0.90399 0.0
C2179 C 0.36467 1.01618 0.92093 0.0
C2180 C 0.36387 0.05468 0.93624 0.0
C2181 C 0.358 0.09848 0.93099 0.0
C2182 C 0.3921 1.03775 0.89956 0.0
C2183 C 0.39765 1.03759 0.91962 0.0
C2184 C 0.38149 1.01567 0.89796 0.0
C2185 C 0.37621 0.99661 0.91685 0.0
C2186 C 0.38308 0.98403 0.93474 0.0
C2187 C 0.39388 1.00481 0.93616 0.0
H2188 H 0.36173 0.57373 0.84848 0.0
H2189 H 0.36553 0.70596 0.80814 0.0
H2190 H 0.34471 0.60782 0.86381 0.0
H2191 H 0.34841 0.74079 0.82362 0.0
H2192 H 0.32923 0.67499 0.91232 0.0
H2193 H 0.3281 0.65558 0.87389 0.0
H2194 H 0.35324 0.76848 0.86007 0.0
H2195 H 0.35425 0.78756 0.89823 0.0
C2196 C 0.35853 0.60885 0.84192 0.0
C2197 C 0.36519 0.63842 0.82807 0.0
C2198 C 0.34867 0.62862 0.85065 0.0
C2199 C 0.3456 0.67859 0.84592 0.0
C2200 C 0.35082 0.70295 0.82818 0.0
C2201 C 0.36066 0.68293 0.81929 0.0
C2202 C 0.33395 0.69784 0.90086 0.0
C2203 C 0.34212 0.73159 0.90815 0.0
C2204 C 0.33332 0.6866 0.87879 0.0
C2205 C 0.34098 0.70855 0.86404 0.0
C2206 C 0.34735 0.74983 0.87092 0.0
C2207 C 0.34803 0.76076 0.89294 0.0
H2208 H 0.97353 0.52123 1.03441 0.0
H2209 H 0.98863 0.64815 0.06501 0.0
H2210 H 0.99218 0.48505 1.02871 0.0
H2211 H 0.00733 0.61451 0.05809 0.0
H2212 H 0.04025 0.52993 0.05916 0.0
H2213 H 0.02145 0.56124 0.06631 0.0
H2214 H 0.00876 0.48 1.01136 0.0
H2215 H 0.02722 0.44458 1.00579 0.0
C2216 C 0.98088 0.54187 1.03955 0.0
C2217 C 0.97955 0.58758 0.05018 0.0
C2218 C 0.99169 0.52126 1.03619 0.0
C2219 C 1.00159 0.54623 0.04292 0.0
C2220 C 1.00013 0.59278 0.05309 0.0
C2221 C 0.98934 0.61268 0.05687 0.0
C2222 C 0.03344 0.5177 0.04883 0.0
C2223 C 0.03556 0.48461 1.03169 0.0
C2224 C 0.02254 0.53673 0.05268 0.0
C2225 C 0.01328 0.52427 1.03932 0.0
C2226 C 0.0154 0.49071 1.02235 0.0
C2227 C 0.02623 0.47089 1.01881 0.0
H2228 H 0.28067 0.73092 1.0246 0.0
H2229 H 0.28275 0.81875 0.0827 0.0
H2230 H 0.26182 0.76287 1.01797 0.0
H2231 H 0.26355 0.84631 0.0774 0.0
H2232 H 0.23127 0.92394 0.05508 0.0
H2233 H 0.25053 0.89506 0.06109 0.0
H2234 H 0.24318 0.76106 1.02535 0.0
H2235 H 0.22421 0.79229 1.01824 0.0
C2236 C 0.27719 0.75698 1.03606 0.0
C2237 C 0.28348 0.77155 0.05434 0.0
C2238 C 0.26613 0.77475 1.03248 0.0
C2239 C 0.26079 0.80718 0.04721 0.0
C2240 C 0.26716 0.82207 0.06535 0.0
C2241 C 0.27827 0.80518 0.06868 0.0
C2242 C 0.23377 0.88807 0.04873 0.0
C2243 C 0.22615 0.86039 1.03628 0.0
C2244 C 0.2449 0.87113 0.05221 0.0
C2245 C 0.24874 0.82527 0.04373 0.0
C2246 C 0.24089 0.79704 1.03179 0.0
C2247 C 0.22986 0.8146 1.02791 0.0
H2248 H 0.04148 0.80032 0.27487 0.0
H2249 H 0.02786 0.87138 0.33169 0.0
H2250 H 0.02292 0.7681 0.26642 0.0
H2251 H 0.0097 0.83486 0.32461 0.0
H2252 H 0.97494 0.80246 0.29818 0.0
H2253 H 0.99351 0.83673 0.30549 0.0
H2254 H 0.00883 0.71214 0.27255 0.0
H2255 H 0.99012 0.68018 0.26412 0.0
C2256 C 0.0346 0.80904 0.28572 0.0
C2257 C 0.03643 0.83881 0.30408 0.0
C2258 C 0.02386 0.78956 0.28104 0.0
C2259 C 0.01454 0.79831 0.29474 0.0
C2260 C 0.01643 0.82758 0.31324 0.0
C2261 C 0.02708 0.84788 0.31764 0.0
C2262 C 0.9823 0.78239 0.29258 0.0
C2263 C 0.98102 0.73849 0.28061 0.0
C2264 C 0.99305 0.80188 0.29689 0.0
C2265 C 1.00295 0.7775 0.28982 0.0
C2266 C 1.00158 0.73307 0.27801 0.0
C2267 C 0.9908 0.71424 0.27329 0.0
H2268 H 0.28299 0.58257 0.25176 0.0
H2269 H 0.28342 0.64724 0.31558 0.0
H2270 H 0.26406 0.55286 0.25794 0.0
H2271 H 0.26478 0.613 0.32265 0.0
H2272 H 0.22696 0.5837 0.32437 0.0
H2273 H 0.24572 0.61747 0.31742 0.0
H2274 H 0.2523 0.49642 0.27343 0.0
H2275 H 0.23331 0.46495 0.27957 0.0
C2276 C 0.2791 0.59068 0.2672 0.0
C2277 C 0.2849 0.61848 0.28296 0.0
C2278 C 0.26817 0.57243 0.27097 0.0
C2279 C 0.26261 0.58001 0.29089 0.0
C2280 C 0.26851 0.60684 0.30689 0.0
C2281 C 0.2794 0.62594 0.30295 0.0
C2282 C 0.23241 0.56467 0.31305 0.0
C2283 C 0.22855 0.52182 0.30239 0.0
C2284 C 0.24329 0.58375 0.30919 0.0
C2285 C 0.25081 0.56004 0.29483 0.0
C2286 C 0.24687 0.51696 0.28422 0.0
C2287 C 0.23591 0.49853 0.28777 0.0
H2288 H 0.7831 0.30597 0.08226 0.0
H2289 H 0.7819 0.22321 1.02266 0.0
H2290 H 0.76399 0.3344 0.07619 0.0
H2291 H 0.76319 0.25589 1.01542 0.0
H2292 H 0.72552 0.28449 1.01432 0.0
H2293 H 0.74445 0.25328 1.02182 0.0
H2294 H 0.75121 0.38468 0.05967 0.0
H2295 H 0.732 0.41372 0.05314 0.0
C2296 C 0.77884 0.29373 0.06775 0.0
C2297 C 0.78428 0.26133 0.05318 0.0
C2298 C 0.76779 0.31109 0.064 0.0
C2299 C 0.76171 0.29782 0.04524 0.0
C2300 C 0.76727 0.26654 1.03035 0.0
C2301 C 0.77825 0.24836 1.03432 0.0
C2302 C 0.73104 0.30642 1.02443 0.0
C2303 C 0.72716 0.35153 1.03322 0.0
C2304 C 0.74204 0.2888 1.02858 0.0
C2305 C 0.74971 0.3162 0.04131 0.0
C2306 C 0.74572 0.36141 0.05016 0.0
C2307 C 0.73462 0.37845 0.04636 0.0
H2308 H 0.98103 0.28048 0.75048 0.0
H2309 H 0.98048 0.20884 0.81387 0.0
H2310 H 0.99988 0.31028 0.75719 0.0
H2311 H 0.99905 0.24277 0.82144 0.0
H2312 H 0.03691 0.27261 0.82373 0.0
H2313 H 0.01818 0.23953 0.81647 0.0
H2314 H 0.01156 0.36538 0.77328 0.0
H2315 H 0.0305 0.39656 0.77983 0.0
C2316 C 0.98487 0.27082 0.76594 0.0
C2317 C 0.97904 0.24113 0.78142 0.0
C2318 C 0.99577 0.28908 0.77001 0.0
C2319 C 1.00128 0.27948 0.78996 0.0
C2320 C 0.99537 0.25063 0.80567 0.0
C2321 C 0.9845 0.23165 0.80144 0.0
C2322 C 0.03146 0.29303 0.81259 0.0
C2323 C 0.03532 0.33719 0.80228 0.0
C2324 C 0.02059 0.27424 0.80851 0.0
C2325 C 0.01306 0.29937 0.79423 0.0
C2326 C 0.01699 0.34376 0.784 0.0
C2327 C 0.02793 0.36202 0.7878 0.0
H2328 H 0.78479 0.54624 0.75586 0.0
H2329 H 0.78243 0.63345 0.81409 0.0
H2330 H 0.76576 0.51722 0.7612 0.0
H2331 H 0.76371 0.60001 0.82078 0.0
H2332 H 0.72605 0.56789 0.82004 0.0
H2333 H 0.74502 0.59979 0.81381 0.0
H2334 H 0.75289 0.46783 0.777 0.0
H2335 H 0.73367 0.4383 0.78216 0.0
C2336 C 0.78028 0.55939 0.76994 0.0
C2337 C 0.78535 0.59342 0.78425 0.0
C2338 C 0.76925 0.5416 0.7733 0.0
C2339 C 0.76283 0.55581 0.79149 0.0
C2340 C 0.76805 0.58855 0.80624 0.0
C2341 C 0.77903 0.60724 0.80261 0.0
C2342 C 0.73183 0.54604 0.81041 0.0
C2343 C 0.72824 0.50068 0.80144 0.0
C2344 C 0.74285 0.56407 0.80699 0.0
C2345 C 0.75084 0.53681 0.79489 0.0
C2346 C 0.74716 0.49118 0.78599 0.0
C2347 C 0.73605 0.4738 0.789 0.0
H2348 H 0.98703 0.16404 0.56727 0.0
H2349 H 0.97213 1.04259 0.53243 0.0
H2350 H 1.00577 0.13112 0.55994 0.0
H2351 H 0.99077 1.00717 0.52621 0.0
H2352 H 0.02588 0.96904 0.5033 0.0
H2353 H 0.00747 1.00501 0.50906 0.0
H2354 H 0.01969 0.07575 0.56711 0.0
H2355 H 0.03844 1.04414 0.55996 0.0
C2356 C 0.98778 0.12997 0.5581 0.0
C2357 C 0.97804 0.10623 0.55033 0.0
C2358 C 0.9986 0.11049 0.55405 0.0
C2359 C 1.00009 0.06571 0.54251 0.0
C2360 C 0.99025 1.0421 0.53475 0.0
C2361 C 0.97944 0.0623 0.53839 0.0
C2362 C 0.0248 0.99314 0.51708 0.0
C2363 C 0.03397 1.00367 0.53092 0.0
C2364 C 0.01401 1.01325 0.5207 0.0
C2365 C 0.01177 1.04392 0.53864 0.0
C2366 C 0.02088 0.05347 0.55279 0.0
C2367 C 0.03175 1.03419 0.54891 0.0
H2368 H 0.2819 0.28631 0.58656 0.0
H2369 H 0.28181 0.21785 0.52351 0.0
H2370 H 0.26298 0.31682 0.58039 0.0
H2371 H 0.26321 0.25267 0.51642 0.0
H2372 H 0.22563 0.28435 0.5143 0.0
H2373 H 0.24423 0.24947 0.52195 0.0
H2374 H 0.25109 0.37283 0.56449 0.0
H2375 H 0.23221 0.4056 0.55763 0.0
C2376 C 0.2779 0.27752 0.5713 0.0
C2377 C 0.28358 0.24853 0.55574 0.0
C2378 C 0.26697 0.29618 0.56753 0.0
C2379 C 0.26127 0.28769 0.54782 0.0
C2380 C 0.26704 0.25958 0.53204 0.0
C2381 C 0.27792 0.24014 0.53597 0.0
C2382 C 0.23109 0.30365 0.52548 0.0
C2383 C 0.22735 0.34767 0.53545 0.0
C2384 C 0.24189 0.28393 0.52974 0.0
C2385 C 0.24947 0.30806 0.5438 0.0
C2386 C 0.24562 0.35205 0.55389 0.0
C2387 C 0.23472 0.3712 0.54994 0.0
H2388 H 0.28732 1.036 0.76686 0.0
H2389 H 0.28008 0.16733 0.80392 0.0
H2390 H 0.26818 1.00591 0.77291 0.0
H2391 H 0.26072 0.1394 0.80896 0.0
H2392 H 0.22878 0.06138 0.83076 0.0
H2393 H 0.24787 0.08983 0.82524 0.0
H2394 H 0.24944 1.00889 0.76512 0.0
H2395 H 0.2306 0.9763 0.77189 0.0
C2396 C 0.28159 0.05859 0.77629 0.0
C2397 C 0.28532 0.10393 0.78506 0.0
C2398 C 0.27049 1.04162 0.77958 0.0
C2399 C 0.26258 0.0699 0.7914 0.0
C2400 C 0.2664 0.11542 0.80017 0.0
C2401 C 0.27759 0.13182 0.79724 0.0
C2402 C 0.2332 1.04871 0.81649 0.0
C2403 C 0.228 1.01533 0.80206 0.0
C2404 C 0.24424 0.06606 0.81305 0.0
C2405 C 0.25053 0.05194 0.79471 0.0
C2406 C 0.24517 1.0201 0.77978 0.0
C2407 C 0.23415 1.00194 0.78345 0.0
H2408 H 0.73146 0.86825 0.56402 0.0
H2409 H 0.73037 0.78698 0.50402 0.0
H2410 H 0.75018 0.83531 0.57124 0.0
H2411 H 0.74946 0.75845 0.51004 0.0
H2412 H 0.78154 0.67962 0.53245 0.0
H2413 H 0.76225 0.70806 0.52632 0.0
H2414 H 0.76891 0.83887 0.56465 0.0
H2415 H 0.78792 0.80808 0.57179 0.0
C2416 C 0.73514 0.84335 0.55228 0.0
C2417 C 0.72918 0.83099 0.53328 0.0
C2418 C 0.74611 0.82506 0.55623 0.0
C2419 C 0.7517 0.7943 0.54117 0.0
C2420 C 0.74565 0.78138 0.52234 0.0
C2421 C 0.73461 0.79879 0.51863 0.0
C2422 C 0.77887 0.71464 0.5394 0.0
C2423 C 0.78632 0.74157 0.55255 0.0
C2424 C 0.76774 0.73133 0.53585 0.0
C2425 C 0.76371 0.7762 0.54495 0.0
C2426 C 0.77136 0.80361 0.5577 0.0
C2427 C 0.7824 0.78628 0.56163 0.0
H2428 H 0.73112 1.03338 0.33468 0.0
H2429 H 0.73051 0.96707 0.27118 0.0
H2430 H 0.74993 0.06425 0.32781 0.0
H2431 H 0.74888 1.00254 0.26339 0.0
H2432 H 0.78648 1.03258 0.26026 0.0
H2433 H 0.76784 0.99878 0.26798 0.0
H2434 H 0.76157 0.12062 0.31175 0.0
H2435 H 0.78054 0.15206 0.30489 0.0
C2436 C 0.73493 1.02522 0.31917 0.0
C2437 C 0.72911 0.99676 0.30367 0.0
C2438 C 0.74578 1.0441 0.315 0.0
C2439 C 0.7512 1.03639 0.29494 0.0
C2440 C 0.74527 1.00883 0.27924 0.0
C2441 C 0.73451 0.98906 0.28359 0.0
C2442 C 0.7811 0.05194 0.2716 0.0
C2443 C 0.78503 0.09497 0.28199 0.0
C2444 C 0.7703 1.0328 0.27594 0.0
C2445 C 0.76291 0.05666 0.2905 0.0
C2446 C 0.76691 0.10005 0.3008 0.0
C2447 C 0.77783 0.11852 0.29679 0.0
H2448 H 0.48919 0.66406 0.57019 0.0
H2449 H 0.47429 0.53992 0.53709 0.0
H2450 H 0.50796 0.63136 0.56271 0.0
H2451 H 0.49295 0.50508 0.53068 0.0
H2452 H 0.52758 0.47049 0.50525 0.0
H2453 H 0.50926 0.50605 0.51197 0.0
H2454 H 0.5221 0.57555 0.56982 0.0
H2455 H 0.54084 0.54391 0.56174 0.0
C2456 C 0.48994 0.62943 0.56143 0.0
C2457 C 0.4802 0.60487 0.55412 0.0
C2458 C 0.50076 0.61019 0.55727 0.0
C2459 C 0.50224 0.56506 0.54602 0.0
C2460 C 0.4924 0.54041 0.5389 0.0
C2461 C 0.4816 0.56026 0.54268 0.0
C2462 C 0.52668 0.49434 0.51916 0.0
C2463 C 0.53599 0.50463 0.53265 0.0
C2464 C 0.51594 0.5141 0.52336 0.0
C2465 C 0.5139 0.54407 0.54158 0.0
C2466 C 0.52317 0.55361 0.55536 0.0
C2467 C 0.534 0.53455 0.55091 0.0
H2468 H 0.53922 0.81228 0.7751 0.0
H2469 H 0.52638 0.88903 0.83111 0.0
H2470 H 0.52048 0.78034 0.76786 0.0
H2471 H 0.50799 0.85319 0.8252 0.0
H2472 H 0.47276 0.8138 0.80162 0.0
H2473 H 0.49131 0.85024 0.80762 0.0
H2474 H 0.50674 0.72428 0.77592 0.0
H2475 H 0.48813 0.69006 0.7689 0.0
C2476 C 0.53246 0.82253 0.78596 0.0
C2477 C 0.5346 0.85337 0.80387 0.0
C2478 C 0.52161 0.80316 0.78203 0.0
C2479 C 0.51245 0.81312 0.79601 0.0
C2480 C 0.51458 0.84451 0.81374 0.0
C2481 C 0.52536 0.86458 0.81742 0.0
C2482 C 0.48014 0.79384 0.79607 0.0
C2483 C 0.47889 0.74893 0.78477 0.0
C2484 C 0.49089 0.81467 0.79957 0.0
C2485 C 0.50083 0.79081 0.79228 0.0
C2486 C 0.49949 0.7451 0.7814 0.0
C2487 C 0.48874 0.7249 0.77753 0.0
H2488 H 0.52388 0.39248 0.33148 0.0
H2489 H 0.53637 0.31783 0.27462 0.0
H2490 H 0.50538 0.35744 0.32544 0.0
H2491 H 0.51761 0.28714 0.26728 0.0
H2492 H 0.48541 0.19747 0.26751 0.0
H2493 H 0.504 0.23099 0.27504 0.0
H2494 H 0.48858 0.35552 0.30784 0.0
H2495 H 0.47 0.31948 0.30134 0.0
C2496 C 0.52276 0.36872 0.3176 0.0
C2497 C 0.53192 0.358 0.30377 0.0
C2498 C 0.51194 0.34914 0.31384 0.0
C2499 C 0.50971 0.31873 0.29583 0.0
C2500 C 0.51881 0.30915 0.28167 0.0
C2501 C 0.52968 0.32792 0.28567 0.0
C2502 C 0.48601 0.23193 0.27643 0.0
C2503 C 0.47617 0.25572 0.28378 0.0
C2504 C 0.49675 0.25172 0.28061 0.0
C2505 C 0.49808 0.29685 0.29192 0.0
C2506 C 0.48815 0.32046 0.29939 0.0
C2507 C 0.47739 0.29994 0.29558 0.0
H2508 H 0.48169 0.14831 1.02829 0.0
H2509 H 0.47614 1.02768 0.07424 0.0
H2510 H 0.50071 0.11766 1.02167 0.0
H2511 H 0.49491 0.99493 0.06689 0.0
H2512 H 0.53264 0.96731 0.06482 0.0
H2513 H 0.51391 1.0001 0.07171 0.0
H2514 H 0.51284 0.06276 1.00658 0.0
H2515 H 0.5319 1.03429 1.0005 0.0
C2516 C 0.48446 0.11452 1.03666 0.0
C2517 C 0.47731 0.09055 0.05178 0.0
C2518 C 0.49544 0.09658 1.03283 0.0
C2519 C 0.49964 0.05337 0.0437 0.0
C2520 C 0.49231 1.02885 0.05847 0.0
C2521 C 0.48141 1.04737 0.06258 0.0
C2522 C 0.52854 0.98888 0.05204 0.0
C2523 C 0.53403 0.99752 1.03199 0.0
C2524 C 0.51757 1.00713 0.05588 0.0
C2525 C 0.51153 1.03423 0.03973 0.0
C2526 C 0.51705 1.04289 1.01972 0.0
C2527 C 0.52807 1.02542 1.01602 0.0
H2528 H 0.07147 0.57223 0.12229 0.0
H2529 H 0.09961 0.54672 0.16565 0.0
H2530 H 0.06722 0.65036 0.1407 0.0
H2531 H 0.09546 0.62479 0.18379 0.0
H2532 H 0.07977 0.74462 0.22473 0.0
H2533 H 0.08185 0.66431 0.20722 0.0
H2534 H 0.07513 0.73459 0.14486 0.0
H2535 H 0.0729 0.8153 0.16248 0.0
C2536 C 0.0767 0.583 0.13585 0.0
C2537 C 0.08587 0.55294 0.14251 0.0
C2538 C 0.07431 0.62806 0.1463 0.0
C2539 C 0.08099 0.64407 0.16376 0.0
C2540 C 0.09003 0.61347 0.17062 0.0
C2541 C 0.09244 0.56864 0.16014 0.0
C2542 C 0.07859 0.74304 0.2073 0.0
C2543 C 0.07614 0.78664 0.19505 0.0
C2544 C 0.07987 0.69688 0.19722 0.0
C2545 C 0.07875 0.69282 0.17457 0.0
C2546 C 0.07595 0.73613 0.16236 0.0
C2547 C 0.07468 0.78249 0.17247 0.0
H2548 H 0.17904 0.61276 0.22493 0.0
H2549 H 0.19414 0.55132 0.16741 0.0
H2550 H 0.17725 0.69351 0.2067 0.0
H2551 H 0.19196 0.63227 0.14867 0.0
H2552 H 0.19405 0.79726 0.12645 0.0
H2553 H 0.19779 0.71807 0.14566 0.0
H2554 H 0.16617 0.73252 0.17987 0.0
H2555 H 0.16269 0.81177 0.16139 0.0
C2556 C 0.18197 0.61648 0.20832 0.0
C2557 C 0.18673 0.57547 0.19763 0.0
C2558 C 0.18087 0.66289 0.19776 0.0
C2559 C 0.18432 0.66967 0.17604 0.0
C2560 C 0.18931 0.62881 0.16545 0.0
C2561 C 0.19053 0.58228 0.17616 0.0
C2562 C 0.18797 0.7837 0.13827 0.0
C2563 C 0.17811 0.81122 0.14248 0.0
C2564 C 0.19006 0.73801 0.14916 0.0
C2565 C 0.18232 0.71864 0.16446 0.0
C2566 C 0.17248 0.74644 0.16861 0.0
C2567 C 0.17044 0.79205 0.15788 0.0
H2568 H 0.93469 0.49347 0.97233 0.0
H2569 H 0.93928 0.56334 0.90915 0.0
H2570 H 0.93286 0.41241 0.95545 0.0
H2571 H 0.93736 0.48171 0.89221 0.0
H2572 H 0.94264 0.31919 0.87106 0.0
H2573 H 0.94645 0.39843 0.88876 0.0
H2574 H 0.91874 0.37115 0.93282 0.0
H2575 H 0.91499 0.29182 0.91531 0.0
C2576 C 0.93544 0.49158 0.95483 0.0
C2577 C 0.93715 0.53514 0.94211 0.0
C2578 C 0.93429 0.44499 0.94514 0.0
C2579 C 0.93487 0.44053 0.92247 0.0
C2580 C 0.93696 0.48377 0.90974 0.0
C2581 C 0.93805 0.53059 0.91945 0.0
C2582 C 0.93744 0.32978 0.88469 0.0
C2583 C 0.92852 0.29895 0.8918 0.0
C2584 C 0.93957 0.37545 0.89471 0.0
C2585 C 0.9329 0.39123 0.91218 0.0
C2586 C 0.92414 0.35989 0.91957 0.0
C2587 C 0.92196 0.3144 0.90948 0.0
H2588 H 0.82111 0.28227 0.91088 0.0
H2589 H 0.81399 0.3459 0.97334 0.0
H2590 H 0.82048 0.36538 0.89412 0.0
H2591 H 0.81263 0.42866 0.95655 0.0
H2592 H 0.82698 0.57223 0.92644 0.0
H2593 H 0.82462 0.48973 0.9429 0.0
H2594 H 0.81052 0.43624 0.88279 0.0
H2595 H 0.81351 0.51836 0.86606 0.0
C2596 C 0.81909 0.31391 0.92091 0.0
C2597 C 0.81771 0.30766 0.94343 0.0
C2598 C 0.81868 0.36174 0.91131 0.0
C2599 C 0.81665 0.40429 0.92397 0.0
C2600 C 0.81455 0.39726 0.94632 0.0
C2601 C 0.8152 0.34966 0.95594 0.0
C2602 C 0.82321 0.54304 0.91687 0.0
C2603 C 0.82042 0.55181 0.89497 0.0
C2604 C 0.82181 0.49555 0.92632 0.0
C2605 C 0.81737 0.4558 0.91424 0.0
C2606 C 0.81417 0.46538 0.89254 0.0
C2607 C 0.81577 0.51266 0.88298 0.0
H2608 H 0.06942 0.25755 0.72295 0.0
H2609 H 0.07069 0.32924 0.65952 0.0
H2610 H 0.07017 0.17597 0.70608 0.0
H2611 H 0.07137 0.24709 0.64268 0.0
H2612 H 0.06667 0.08552 0.61956 0.0
H2613 H 0.06099 0.16279 0.63758 0.0
H2614 H 0.0867 0.13744 0.68624 0.0
H2615 H 0.09242 0.06102 0.66822 0.0
C2616 C 0.06962 0.256 0.70538 0.0
C2617 C 0.07012 0.30004 0.69259 0.0
C2618 C 0.07008 0.20916 0.69575 0.0
C2619 C 0.07094 0.20521 0.67311 0.0
C2620 C 0.07064 0.24905 0.66018 0.0
C2621 C 0.07027 0.29609 0.66984 0.0
C2622 C 0.07093 0.09605 0.63435 0.0
C2623 C 0.08 0.06743 0.64249 0.0
C2624 C 0.06775 0.14038 0.64454 0.0
C2625 C 0.07341 0.1561 0.66327 0.0
C2626 C 0.08211 0.12605 0.67194 0.0
C2627 C 0.08541 0.08241 0.66158 0.0
H2628 H 0.18706 0.09942 0.72053 0.0
H2629 H 0.17101 1.04131 0.66328 0.0
H2630 H 0.18845 0.18172 0.70274 0.0
H2631 H 0.1726 0.12342 0.64541 0.0
H2632 H 0.18672 0.2687 0.61428 0.0
H2633 H 0.18791 0.18622 0.63199 0.0
H2634 H 0.1733 0.24652 0.69015 0.0
H2635 H 0.17191 0.32883 0.67236 0.0
C2636 C 0.18401 0.10394 0.70402 0.0
C2637 C 0.17893 0.06374 0.69331 0.0
C2638 C 0.18474 0.15117 0.69391 0.0
C2639 C 0.18062 0.15904 0.6727 0.0
C2640 C 0.17592 0.11841 0.6617 0.0
C2641 C 0.17499 0.07143 0.67196 0.0
C2642 C 0.18391 0.26457 0.63095 0.0
C2643 C 0.17924 0.3054 0.64193 0.0
C2644 C 0.18453 0.21724 0.64102 0.0
C2645 C 0.18069 0.20989 0.66244 0.0
C2646 C 0.1764 0.25111 0.67369 0.0
C2647 C 0.17558 0.29821 0.66348 0.0
H2648 H 0.94242 1.02488 0.46086 0.0
H2649 H 0.91376 1.04889 0.41859 0.0
H2650 H 0.94632 0.94562 0.44308 0.0
H2651 H 0.91757 0.96973 0.40109 0.0
H2652 H 0.93314 0.85051 0.35998 0.0
H2653 H 0.93119 0.93075 0.3774 0.0
H2654 H 0.93812 0.86081 0.43975 0.0
H2655 H 0.94021 0.77977 0.42215 0.0
C2656 C 0.937 1.01352 0.44766 0.0
C2657 C 0.9278 1.04347 0.44109 0.0
C2658 C 0.93919 0.96783 0.43761 0.0
C2659 C 0.93227 0.95119 0.42065 0.0
C2660 C 0.92317 0.9816 0.4139 0.0
C2661 C 0.92096 1.02704 0.42399 0.0
C2662 C 0.93436 0.85204 0.3774 0.0
C2663 C 0.93683 0.80849 0.38966 0.0
C2664 C 0.93316 0.8982 0.38742 0.0
C2665 C 0.93438 0.9023 0.41001 0.0
C2666 C 0.93721 0.85907 0.42228 0.0
C2667 C 0.9384 0.81261 0.4122 0.0
H2668 H 0.81792 0.79636 0.45256 0.0
H2669 H 0.85288 0.80048 0.43328 0.0
H2670 H 0.81452 0.87449 0.43226 0.0
H2671 H 0.84973 0.87904 0.41416 0.0
H2672 H 0.84015 0.99409 0.36436 0.0
H2673 H 0.84199 0.91449 0.38336 0.0
H2674 H 0.81736 0.96177 0.43059 0.0
H2675 H 0.81509 1.04108 0.41058 0.0
C2676 C 0.82487 0.81398 0.44402 0.0
C2677 C 0.83562 0.79175 0.44428 0.0
C2678 C 0.82296 0.85907 0.43252 0.0
C2679 C 0.83181 0.88335 0.42128 0.0
C2680 C 0.84259 0.86115 0.42196 0.0
C2681 C 0.84443 0.81592 0.43308 0.0
C2682 C 0.83508 0.98751 0.37877 0.0
C2683 C 0.82749 1.02403 0.38599 0.0
C2684 C 0.8362 0.94178 0.38984 0.0
C2685 C 0.82996 0.93142 0.40884 0.0
C2686 C 0.82223 0.96787 0.41594 0.0
C2687 C 0.82096 1.01353 0.40454 0.0
H2688 H 0.58001 0.59859 0.61183 0.0
H2689 H 0.57465 0.52868 0.67476 0.0
H2690 H 0.58169 0.67964 0.62885 0.0
H2691 H 0.57644 0.61015 0.69184 0.0
H2692 H 0.5712 0.77212 0.71342 0.0
H2693 H 0.56751 0.69314 0.69539 0.0
H2694 H 0.5954 0.72144 0.65189 0.0
H2695 H 0.59902 0.80049 0.6697 0.0
C2696 C 0.57906 0.60047 0.6293 0.0
C2697 C 0.57716 0.55688 0.6419 0.0
C2698 C 0.58012 0.64705 0.63908 0.0
C2699 C 0.57928 0.65151 0.66174 0.0
C2700 C 0.57703 0.6082 0.67432 0.0
C2701 C 0.57602 0.56142 0.66452 0.0
C2702 C 0.57647 0.76181 0.69985 0.0
C2703 C 0.58539 0.79287 0.69299 0.0
C2704 C 0.57441 0.71627 0.68963 0.0
C2705 C 0.58116 0.70079 0.6722 0.0
C2706 C 0.58993 0.73239 0.66508 0.0
C2707 C 0.59203 0.77775 0.67535 0.0
H2708 H 0.69282 0.81168 0.67475 0.0
H2709 H 0.7 0.74807 0.61231 0.0
H2710 H 0.69342 0.72858 0.6915 0.0
H2711 H 0.70132 0.66529 0.62909 0.0
H2712 H 0.68693 0.52172 0.65913 0.0
H2713 H 0.6893 0.60423 0.6427 0.0
H2714 H 0.70333 0.65766 0.70288 0.0
H2715 H 0.70032 0.57553 0.71958 0.0
C2716 C 0.69485 0.78005 0.66472 0.0
C2717 C 0.69626 0.78632 0.6422 0.0
C2718 C 0.69523 0.73221 0.67432 0.0
C2719 C 0.69727 0.68965 0.66166 0.0
C2720 C 0.69939 0.6967 0.63932 0.0
C2721 C 0.69877 0.74431 0.6297 0.0
C2722 C 0.69069 0.5509 0.66873 0.0
C2723 C 0.69344 0.5421 0.69064 0.0
C2724 C 0.6921 0.5984 0.65929 0.0
C2725 C 0.69652 0.63813 0.67139 0.0
C2726 C 0.69969 0.62854 0.69311 0.0
C2727 C 0.69808 0.58125 0.70266 0.0
H2728 H 0.44697 0.32779 0.37062 0.0
H2729 H 0.42479 0.28447 0.42323 0.0
H2730 H 0.44994 0.40891 0.3876 0.0
H2731 H 0.42746 0.36517 0.4397 0.0
H2732 H 0.43984 0.49703 0.47507 0.0
H2733 H 0.44042 0.41558 0.45829 0.0
H2734 H 0.44007 0.48669 0.39473 0.0
H2735 H 0.43992 0.56888 0.41176 0.0
C2736 C 0.44283 0.33528 0.38591 0.0
C2737 C 0.43567 0.29943 0.39559 0.0
C2738 C 0.44444 0.38202 0.39553 0.0
C2739 C 0.43896 0.39387 0.41508 0.0
C2740 C 0.43201 0.35738 0.42489 0.0
C2741 C 0.43042 0.31092 0.41534 0.0
C2742 C 0.44002 0.4954 0.4575 0.0
C2743 C 0.43976 0.53947 0.44476 0.0
C2744 C 0.44027 0.44855 0.44784 0.0
C2745 C 0.4401 0.44422 0.4251 0.0
C2746 C 0.4403 0.48843 0.41228 0.0
C2747 C 0.44018 0.5356 0.42202 0.0
H2748 H 0.31907 0.55319 0.38908 0.0
H2749 H 0.35451 0.53774 0.40353 0.0
H2750 H 0.31522 0.47617 0.4097 0.0
H2751 H 0.35089 0.45984 0.42284 0.0
H2752 H 0.34155 0.345 0.47275 0.0
H2753 H 0.34401 0.42449 0.45404 0.0
H2754 H 0.31645 0.38912 0.4109 0.0
H2755 H 0.31354 0.31036 0.43089 0.0
C2756 C 0.32603 0.53326 0.39664 0.0
C2757 C 0.33707 0.55196 0.39493 0.0
C2758 C 0.32386 0.48875 0.40831 0.0
C2759 C 0.33271 0.46137 0.41819 0.0
C2760 C 0.34376 0.48015 0.41613 0.0
C2761 C 0.34588 0.52497 0.4049 0.0
C2762 C 0.33598 0.35421 0.45931 0.0
C2763 C 0.32739 0.32121 0.45322 0.0
C2764 C 0.33745 0.39987 0.44837 0.0
C2765 C 0.33057 0.41352 0.43058 0.0
C2766 C 0.32186 0.38055 0.42463 0.0
C2767 C 0.32021 0.33515 0.43599 0.0
H2768 H 0.56417 1.04621 0.14224 0.0
H2769 H 0.59937 0.05801 0.15947 0.0
H2770 H 0.56021 0.12323 0.16219 0.0
H2771 H 0.59544 0.13505 0.17868 0.0
H2772 H 0.58576 0.30058 0.18645 0.0
H2773 H 0.58739 0.22572 0.1644 0.0
H2774 H 0.56313 0.15025 0.20545 0.0
H2775 H 0.56166 0.22482 0.22791 0.0
C2776 C 0.57103 0.06504 0.15034 0.0
C2777 C 0.58206 1.04587 0.1494 0.0
C2778 C 0.56877 0.10903 0.16167 0.0
C2779 C 0.57755 0.13516 0.17172 0.0
C2780 C 0.58854 0.11583 0.17087 0.0
C2781 C 0.59076 0.07146 0.16003 0.0
C2782 C 0.58059 0.26848 0.19051 0.0
C2783 C 0.5736 0.26855 0.20894 0.0
C2784 C 0.58158 0.22557 0.17798 0.0
C2785 C 0.57542 0.1823 0.18334 0.0
C2786 C 0.56793 0.18325 0.20096 0.0
C2787 C 0.56711 0.22584 0.2138 0.0
H2788 H 0.67809 0.33564 0.17435 0.0
H2789 H 0.68947 0.27154 0.11422 0.0
H2790 H 0.68068 0.2545 0.19278 0.0
H2791 H 0.69187 0.1907 0.13262 0.0
H2792 H 0.67144 0.05749 0.1668 0.0
H2793 H 0.67506 0.13732 0.14869 0.0
H2794 H 0.69607 0.18148 0.20226 0.0
H2795 H 0.6928 0.09966 0.2202 0.0
C2796 C 0.68133 0.30458 0.16516 0.0
C2797 C 0.68346 0.31001 0.14276 0.0
C2798 C 0.68289 0.25827 0.17576 0.0
C2799 C 0.68646 0.21639 0.16409 0.0
C2800 C 0.68911 0.22241 0.14197 0.0
C2801 C 0.68772 0.26877 0.13147 0.0
C2802 C 0.67716 0.08343 0.1744 0.0
C2803 C 0.68197 0.07208 0.19476 0.0
C2804 C 0.67921 0.12923 0.16404 0.0
C2805 C 0.68585 0.16555 0.17406 0.0
C2806 C 0.69094 0.15396 0.19419 0.0
C2807 C 0.68915 0.10716 0.20434 0.0
H2808 H 0.4385 0.07254 0.91126 0.0
H2809 H 0.4333 1.00276 0.97427 0.0
H2810 H 0.43664 0.99101 0.89424 0.0
H2811 H 0.43153 0.92171 0.95731 0.0
H2812 H 0.41404 0.80101 0.91662 0.0
H2813 H 0.41768 0.88024 0.9343 0.0
H2814 H 0.44563 0.90782 0.89087 0.0
H2815 H 0.44193 0.8287 0.87299 0.0
C2816 C 0.43715 1.03982 0.92152 0.0
C2817 C 0.43607 1.04439 0.94415 0.0
C2818 C 0.43609 0.99303 0.91176 0.0
C2819 C 0.43386 0.94979 0.9244 0.0
C2820 C 0.43309 0.95427 0.94706 0.0
C2821 C 0.4342 1.00085 0.9568 0.0
C2822 C 0.42104 0.82364 0.91097 0.0
C2823 C 0.4277 0.8083 0.8934 0.0
C2824 C 0.42315 0.86908 0.92116 0.0
C2825 C 0.43195 0.9005 0.91401 0.0
C2826 C 0.43872 0.88481 0.89665 0.0
C2827 C 0.43665 0.8392 0.88652 0.0
H2828 H 0.32619 0.0814 0.92686 0.0
H2829 H 0.31314 1.02725 0.86619 0.0
H2830 H 0.32378 0.99894 0.9433 0.0
H2831 H 0.31009 0.94515 0.8829 0.0
H2832 H 0.32045 0.79124 0.91137 0.0
H2833 H 0.31992 0.87427 0.89453 0.0
H2834 H 0.31176 0.93788 0.95675 0.0
H2835 H 0.31303 0.85519 0.97364 0.0
C2836 C 0.3225 0.05216 0.91721 0.0
C2837 C 0.31985 0.06086 0.89524 0.0
C2838 C 0.32107 1.00468 0.92665 0.0
C2839 C 0.31673 0.96485 0.9145 0.0
C2840 C 0.31366 0.97434 0.89272 0.0
C2841 C 0.3153 1.02162 0.88316 0.0
C2842 C 0.31839 0.82293 0.92134 0.0
C2843 C 0.31688 0.81678 0.94384 0.0
C2844 C 0.31804 0.87073 0.91169 0.0
C2845 C 0.31594 0.91336 0.92427 0.0
C2846 C 0.31373 0.90642 0.94658 0.0
C2847 C 0.31432 0.85886 0.95627 0.0
H2848 H 0.16116 0.76431 0.08169 0.0
H2849 H 0.13035 0.83265 0.10354 0.0
H2850 H 0.15177 0.68265 0.08154 0.0
H2851 H 0.121 0.75147 0.10349 0.0
H2852 H 0.10368 0.60385 0.08267 0.0
H2853 H 0.11304 0.68555 0.08257 0.0
H2854 H 0.14412 0.61451 0.10246 0.0
H2855 H 0.13479 0.53328 0.10247 0.0
C2856 C 0.15239 0.76221 0.0865 0.0
C2857 C 0.14665 0.80611 0.09263 0.0
C2858 C 0.14695 0.71485 0.08655 0.0
C2859 C 0.13546 0.70914 0.09246 0.0
C2860 C 0.12975 0.75325 0.09851 0.0
C2861 C 0.13521 0.80036 0.09871 0.0
C2862 C 0.11251 0.60545 0.08704 0.0
C2863 C 0.11834 0.56089 0.09257 0.0
C2864 C 0.11794 0.65283 0.0871 0.0
C2865 C 0.12951 0.65795 0.09245 0.0
C2866 C 0.13531 0.61321 0.09792 0.0
C2867 C 0.12986 0.56605 0.09809 0.0
H2868 H 0.16028 0.59601 0.26907 0.0
H2869 H 0.13251 0.5357 0.2329 0.0
H2870 H 0.14947 0.67349 0.27439 0.0
H2871 H 0.12188 0.61231 0.23768 0.0
H2872 H 0.10133 0.74784 0.25574 0.0
H2873 H 0.11146 0.66821 0.25854 0.0
H2874 H 0.14315 0.747 0.25583 0.0
H2875 H 0.13305 0.8262 0.25361 0.0
C2876 C 0.15178 0.59858 0.26274 0.0
C2877 C 0.14731 0.55884 0.25071 0.0
C2878 C 0.14558 0.64359 0.26545 0.0
C2879 C 0.13466 0.65033 0.25638 0.0
C2880 C 0.13009 0.60941 0.24525 0.0
C2881 C 0.13628 0.56498 0.24243 0.0
C2882 C 0.11045 0.7484 0.25617 0.0
C2883 C 0.11624 0.79431 0.25447 0.0
C2884 C 0.11635 0.7023 0.25752 0.0
C2885 C 0.12829 0.70005 0.25724 0.0
C2886 C 0.13403 0.74619 0.25636 0.0
C2887 C 0.12816 0.79215 0.25497 0.0
H2888 H 0.84901 0.36214 1.00049 0.0
H2889 H 0.88009 0.27966 0.99491 0.0
H2890 H 0.85977 0.44019 1.00247 0.0
H2891 H 0.89073 0.35663 0.99604 0.0
H2892 H 0.90995 0.4988 1.0104 0.0
H2893 H 0.89857 0.42301 1.01331 0.0
H2894 H 0.87022 0.50244 0.98534 0.0
H2895 H 0.88156 0.57818 0.98293 0.0
C2896 C 0.85812 0.36027 0.9999 0.0
C2897 C 0.86351 0.31348 0.99771 0.0
C2898 C 0.86439 0.40557 1.00076 0.0
C2899 C 0.87636 0.40622 0.99944 0.0
C2900 C 0.88166 0.35913 0.99758 0.0
C2901 C 0.87544 0.31419 0.99679 0.0
C2902 C 0.90124 0.50049 1.00515 0.0
C2903 C 0.89681 0.54566 0.99654 0.0
C2904 C 0.89464 0.45631 1.00654 0.0
C2905 C 0.88327 0.45498 0.99934 0.0
C2906 C 0.87879 0.50075 0.99133 0.0
C2907 C 0.8854 0.5448 0.98986 0.0
H2908 H 0.88173 0.58079 0.83401 0.0
H2909 H 0.8505 0.501 0.84227 0.0
H2910 H 0.89209 0.5019 0.83494 0.0
H2911 H 0.86077 0.42181 0.84266 0.0
H2912 H 0.88204 0.28415 0.86126 0.0
H2913 H 0.87197 0.36354 0.86015 0.0
H2914 H 0.89837 0.42757 0.82039 0.0
H2915 H 0.90861 0.348 0.82214 0.0
C2916 C 0.87697 0.54643 0.83567 0.0
C2917 C 0.8651 0.54846 0.83783 0.0
C2918 C 0.883 0.50041 0.83614 0.0
C2919 C 0.87751 0.45372 0.83891 0.0
C2920 C 0.86559 0.45591 0.84084 0.0
C2921 C 0.85956 0.50196 0.84032 0.0
C2922 C 0.8858 0.31506 0.85231 0.0
C2923 C 0.89631 0.30847 0.84184 0.0
C2924 C 0.87988 0.36125 0.85147 0.0
C2925 C 0.88409 0.40365 0.84001 0.0
C2926 C 0.89468 0.39708 0.82967 0.0
C2927 C 0.90063 0.35075 0.83057 0.0
H2928 H 0.10279 0.10649 0.5835 0.0
H2929 H 0.13406 1.03006 0.59723 0.0
H2930 H 0.11285 0.18645 0.58219 0.0
H2931 H 0.14406 0.10948 0.59628 0.0
H2932 H 0.1617 0.25877 0.57834 0.0
H2933 H 0.15171 0.17868 0.57717 0.0
H2934 H 0.12184 0.24942 0.60231 0.0
H2935 H 0.13176 0.32903 0.60317 0.0
C2936 C 0.11182 0.10632 0.58598 0.0
C2937 C 0.11747 0.06063 0.5903 0.0
C2938 C 0.11766 0.15277 0.5855 0.0
C2939 C 0.12945 0.15585 0.58921 0.0
C2940 C 0.13509 0.1099 0.59304 0.0
C2941 C 0.12926 0.06367 0.59366 0.0
C2942 C 0.153 0.2574 0.58364 0.0
C2943 C 0.14769 0.30139 0.59089 0.0
C2944 C 0.1472 0.21091 0.58308 0.0
C2945 C 0.13577 0.20619 0.58958 0.0
C2946 C 0.1305 0.25041 0.59679 0.0
C2947 C 0.13631 0.29664 0.59748 0.0
H2948 H 0.1313 1.03186 0.72802 0.0
H2949 H 0.15845 0.10107 0.76287 0.0
H2950 H 0.12053 0.10922 0.72903 0.0
H2951 H 0.14751 0.17837 0.76476 0.0
H2952 H 0.1296 0.32765 0.75082 0.0
H2953 H 0.14034 0.2504 0.75013 0.0
H2954 H 0.10937 0.16665 0.74584 0.0
H2955 H 0.09863 0.24489 0.7456 0.0
C2956 C 0.13503 0.06354 0.73604 0.0
C2957 C 0.14592 0.05925 0.74528 0.0
C2958 C 0.12871 0.1085 0.73683 0.0
C2959 C 0.13288 0.15167 0.74709 0.0
C2960 C 0.14382 0.14725 0.75633 0.0
C2961 C 0.15019 0.10226 0.75537 0.0
C2962 C 0.12499 0.29287 0.74988 0.0
C2963 C 0.11309 0.2936 0.74839 0.0
C2964 C 0.13125 0.24775 0.74959 0.0
C2965 C 0.12597 0.20058 0.74792 0.0
C2966 C 0.11401 0.2013 0.74676 0.0
C2967 C 0.10773 0.24668 0.74689 0.0
H2968 H 0.88271 0.76787 0.48411 0.0
H2969 H 0.85204 0.83819 0.50549 0.0
H2970 H 0.89225 0.84855 0.48383 0.0
H2971 H 0.86163 0.91932 0.5054 0.0
H2972 H 0.87877 0.06687 0.48326 0.0
H2973 H 0.86932 0.98617 0.4843 0.0
H2974 H 0.90043 0.91494 0.50395 0.0
H2975 H 0.90996 0.99633 0.5027 0.0
C2976 C 0.87793 0.80049 0.48879 0.0
C2977 C 0.86646 0.79548 0.4948 0.0
C2978 C 0.88351 0.84731 0.4888 0.0
C2979 C 0.87789 0.89179 0.49463 0.0
C2980 C 0.86638 0.8868 0.50054 0.0
C2981 C 0.86082 0.83975 0.50072 0.0
C2982 C 0.88368 1.03424 0.48789 0.0
C2983 C 0.89527 1.03927 0.49293 0.0
C2984 C 0.87816 0.98734 0.48863 0.0
C2985 C 0.88393 0.9427 0.49427 0.0
C2986 C 0.89555 0.94764 0.4993 0.0
C2987 C 0.90107 0.99483 0.49874 0.0
H2988 H 0.88051 0.77181 0.33078 0.0
H2989 H 0.91238 0.84845 0.33398 0.0
H2990 H 0.87062 0.85215 0.33016 0.0
H2991 H 0.9025 0.92885 0.33333 0.0
H2992 H 0.88069 0.05681 0.36195 0.0
H2993 H 0.8911 0.97949 0.35663 0.0
H2994 H 0.86577 0.93109 0.31135 0.0
H2995 H 0.85527 1.00955 0.31677 0.0
C2996 C 0.88548 0.80571 0.331 0.0
C2997 C 0.89737 0.80273 0.33233 0.0
C2998 C 0.87975 0.85224 0.33058 0.0
C2999 C 0.88562 0.89799 0.3318 0.0
C3000 C 0.89754 0.895 0.3326 0.0
C3001 C 0.90328 0.84848 0.33275 0.0
C3002 C 0.8774 1.0303 0.35046 0.0
C3003 C 0.86712 1.04043 0.33962 0.0
C3004 C 0.88344 0.98549 0.34736 0.0
C3005 C 0.87941 0.94798 0.33353 0.0
C3006 C 0.86921 0.95842 0.32227 0.0
C3007 C 0.86322 1.00397 0.32513 0.0
H3008 H 0.60455 0.59302 0.57447 0.0
H3009 H 0.63296 0.51462 0.60238 0.0
H3010 H 0.6158 0.66919 0.5717 0.0
H3011 H 0.64417 0.59075 0.60011 0.0
H3012 H 0.66517 0.7316 0.58505 0.0
H3013 H 0.65454 0.65323 0.5829 0.0
H3014 H 0.62344 0.73567 0.58935 0.0
H3015 H 0.63394 0.813 0.59065 0.0
C3016 C 0.61324 0.59164 0.57984 0.0
C3017 C 0.61771 0.54667 0.58855 0.0
C3018 C 0.61976 0.63602 0.57853 0.0
C3019 C 0.63109 0.63771 0.5859 0.0
C3020 C 0.63563 0.59213 0.594 0.0
C3021 C 0.6291 0.54788 0.59538 0.0
C3022 C 0.65605 0.73315 0.58562 0.0
C3023 C 0.65057 0.77971 0.58786 0.0
C3024 C 0.64987 0.68768 0.58465 0.0
C3025 C 0.63791 0.68666 0.58592 0.0
C3026 C 0.63251 0.73351 0.58784 0.0
C3027 C 0.63865 0.77864 0.58873 0.0
H3028 H 0.63216 0.51202 0.75139 0.0
H3029 H 0.66337 0.59211 0.74342 0.0
H3030 H 0.62176 0.59079 0.75035 0.0
H3031 H 0.65306 0.67119 0.74293 0.0
H3032 H 0.63177 0.80856 0.72408 0.0
H3033 H 0.64187 0.72928 0.7253 0.0
H3034 H 0.61541 0.66503 0.76484 0.0
H3035 H 0.60513 0.74448 0.76296 0.0
C3036 C 0.6369 0.54642 0.74978 0.0
C3037 C 0.64878 0.54452 0.74773 0.0
C3038 C 0.63085 0.59237 0.74924 0.0
C3039 C 0.63633 0.6391 0.74651 0.0
C3040 C 0.64825 0.63705 0.74471 0.0
C3041 C 0.6543 0.59106 0.74528 0.0
C3042 C 0.628 0.77762 0.733 0.0
C3043 C 0.61746 0.78409 0.74337 0.0
C3044 C 0.63394 0.7315 0.73391 0.0
C3045 C 0.62973 0.68909 0.74534 0.0
C3046 C 0.61911 0.69554 0.75558 0.0
C3047 C 0.61313 0.7418 0.75461 0.0
H3048 H 0.37981 0.57079 0.50264 0.0
H3049 H 0.41174 0.49375 0.50082 0.0
H3050 H 0.36997 0.49058 0.5042 0.0
H3051 H 0.40189 0.41341 0.50239 0.0
H3052 H 0.38024 0.28246 0.47598 0.0
H3053 H 0.39061 0.36015 0.48017 0.0
H3054 H 0.36497 0.41331 0.52377 0.0
H3055 H 0.35452 0.33454 0.51949 0.0
C3056 C 0.38481 0.53685 0.5029 0.0
C3057 C 0.3967 0.53975 0.50169 0.0
C3058 C 0.37909 0.49034 0.50387 0.0
C3059 C 0.38498 0.44439 0.50332 0.0
C3060 C 0.3969 0.44733 0.5026 0.0
C3061 C 0.40263 0.49387 0.50192 0.0
C3062 C 0.37687 0.31011 0.48689 0.0
C3063 C 0.36652 0.30109 0.49761 0.0
C3064 C 0.38289 0.35519 0.48933 0.0
C3065 C 0.37878 0.39418 0.50232 0.0
C3066 C 0.3685 0.3849 0.51346 0.0
C3067 C 0.36253 0.33912 0.51128 0.0
H3068 H 0.38382 0.27818 0.32457 0.0
H3069 H 0.41343 0.3516 0.34877 0.0
H3070 H 0.37326 0.35609 0.32667 0.0
H3071 H 0.40313 0.43045 0.34986 0.0
H3072 H 0.38101 0.5646 0.36543 0.0
H3073 H 0.3911 0.4857 0.36404 0.0
H3074 H 0.36742 0.43316 0.31626 0.0
H3075 H 0.35702 0.51178 0.31865 0.0
C3076 C 0.3882 0.31118 0.33003 0.0
C3077 C 0.39963 0.30767 0.33634 0.0
C3078 C 0.38207 0.35673 0.33118 0.0
C3079 C 0.38708 0.40155 0.33847 0.0
C3080 C 0.39861 0.39782 0.34454 0.0
C3081 C 0.40468 0.35205 0.34369 0.0
C3082 C 0.37786 0.53621 0.35467 0.0
C3083 C 0.36804 0.54559 0.34221 0.0
C3084 C 0.38381 0.49029 0.35365 0.0
C3085 C 0.3804 0.45121 0.33985 0.0
C3086 C 0.37049 0.46073 0.32744 0.0
C3087 C 0.36444 0.50658 0.3287 0.0
H3088 H 0.63478 0.315 0.115 0.0
H3089 H 0.6577 0.26482 0.06573 0.0
H3090 H 0.62459 0.2367 0.11338 0.0
H3091 H 0.64717 0.1866 0.06317 0.0
H3092 H 0.63035 1.03164 0.07035 0.0
H3093 H 0.64116 0.10884 0.07244 0.0
H3094 H 0.61219 0.18282 0.09984 0.0
H3095 H 0.6017 0.10483 0.09867 0.0
C3096 C 0.63768 0.28732 0.10364 0.0
C3097 C 0.64724 0.2974 0.09057 0.0
C3098 C 0.63165 0.24169 0.10248 0.0
C3099 C 0.63469 0.20342 0.08792 0.0
C3100 C 0.64436 0.21352 0.07491 0.0
C3101 C 0.6505 0.25915 0.07628 0.0
C3102 C 0.62623 0.06441 0.07675 0.0
C3103 C 0.61497 0.06095 0.0842 0.0
C3104 C 0.63251 0.10958 0.07791 0.0
C3105 C 0.62785 0.15412 0.0864 0.0
C3106 C 0.61649 0.15045 0.09358 0.0
C3107 C 0.61028 0.10511 0.09268 0.0
H3108 H 0.63071 1.02732 0.22669 0.0
H3109 H 0.65801 0.08798 0.26413 0.0
H3110 H 0.62007 0.10428 0.23075 0.0
H3111 H 0.64719 0.16546 0.26865 0.0
H3112 H 0.63097 0.31843 0.24919 0.0
H3113 H 0.64103 0.23914 0.25047 0.0
H3114 H 0.60932 0.16043 0.2514 0.0
H3115 H 0.5992 0.24051 0.24967 0.0
C3116 C 0.63444 0.05675 0.23617 0.0
C3117 C 0.64536 0.05043 0.24508 0.0
C3118 C 0.62822 0.10141 0.23861 0.0
C3119 C 0.6326 0.14239 0.25 0.0
C3120 C 0.64343 0.13565 0.25947 0.0
C3121 C 0.64965 0.09059 0.25713 0.0
C3122 C 0.62605 0.28438 0.24996 0.0
C3123 C 0.61414 0.28683 0.2494 0.0
C3124 C 0.63191 0.2383 0.25081 0.0
C3125 C 0.62616 0.19212 0.25097 0.0
C3126 C 0.61421 0.19453 0.251 0.0
C3127 C 0.60833 0.24086 0.25029 0.0
H3128 H 0.37906 0.789 0.99579 0.0
H3129 H 0.34794 0.87112 1.0014 0.0
H3130 H 0.38966 0.86607 0.99708 0.0
H3131 H 0.35866 0.94925 1.00354 0.0
H3132 H 0.38039 0.08741 0.98412 0.0
H3133 H 0.36909 1.01154 0.9864 0.0
H3134 H 0.39741 0.93237 1.01463 0.0
H3135 H 0.40875 1.00829 1.01185 0.0
C3136 C 0.37439 0.82347 0.99771 0.0
C3137 C 0.36247 0.82266 0.99859 0.0
C3138 C 0.3806 0.86845 0.9986 0.0
C3139 C 0.37525 0.91544 1.00052 0.0
C3140 C 0.36329 0.91469 1.00179 0.0
C3141 C 0.35705 0.86936 1.00083 0.0
C3142 C 0.38423 0.05405 0.99108 0.0
C3143 C 0.39562 0.055 0.99786 0.0
C3144 C 0.37764 1.00994 0.99247 0.0
C3145 C 0.38214 0.96423 1.00052 0.0
C3146 C 0.39348 0.96565 1.00783 0.0
C3147 C 0.40005 1.00989 1.00652 0.0
H3148 H 0.40818 0.85702 0.82332 0.0
H3149 H 0.3815 0.79323 0.86217 0.0
H3150 H 0.39798 0.93666 0.82152 0.0
H3151 H 0.37146 0.87268 0.86101 0.0
H3152 H 0.35007 1.0103 0.84299 0.0
H3153 H 0.36032 0.93104 0.8434 0.0
H3154 H 0.39169 1.01096 0.83614 0.0
H3155 H 0.38135 0.08993 0.83519 0.0
C3156 C 0.40018 0.8598 0.83168 0.0
C3157 C 0.39583 0.81752 0.84289 0.0
C3158 C 0.39425 0.90617 0.83075 0.0
C3159 C 0.38363 0.91276 0.841 0.0
C3160 C 0.37939 0.87036 0.8524 0.0
C3161 C 0.38529 0.82414 0.85327 0.0
C3162 C 0.35914 1.01121 0.84115 0.0
C3163 C 0.3647 0.05769 0.83877 0.0
C3164 C 0.36515 0.96512 0.84168 0.0
C3165 C 0.37708 0.96288 0.83989 0.0
C3166 C 0.3826 1.00954 0.83723 0.0
C3167 C 0.37658 0.0556 0.83674 0.0
loop_
_geom_bond_atom_site_label_1
_geom_bond_atom_site_label_2
_geom_bond_distance
_geom_bond_site_symmetry_2
_ccdc_geom_bond_type
O0 Tb1 2.292 . S
O0 C3 1.255 . S
Tb1 O0 2.292 . S
Tb1 O17 2.326 . S
Tb1 O19 2.500 . S
Tb1 O20 2.473 . S
Tb1 O23 2.324 . S
Eu2 O6 2.292 . S
Eu2 C7 2.852 . S
Eu2 O18 2.324 . S
Eu2 O22 2.326 . S
Eu2 O24 2.500 . S
Eu2 O25 2.473 . S
C3 O0 1.255 . S
C3 O4 1.247 . S
O4 C3 1.247 . S
C5 O17 1.242 . S
C5 O18 1.258 . S
O6 Eu2 2.292 . S
O6 C8 1.255 . S
C7 Eu2 2.852 . S
C7 C11 1.503 . S
C7 O24 1.273 . S
C7 O25 1.257 . S
C8 O6 1.255 . S
C8 O9 1.247 . S
O9 C8 1.247 . S
C10 O22 1.242 . S
C10 O23 1.258 . S
C11 C7 1.503 . S
C11 C12 1.379 1_554 S
C11 C16 1.392 . S
C12 C11 1.379 1_556 S
C12 C13 1.404 . S
C12 H26 0.929 1_556 S
C13 C12 1.404 . S
C13 C14 1.389 . S
C14 C13 1.389 . S
C14 C15 1.399 . S
C14 H27 0.931 . S
C15 C14 1.399 . S
C15 C16 1.390 1_556 S
C16 C11 1.392 . S
C16 C15 1.390 1_554 S
C16 H28 0.929 . S
O17 Tb1 2.326 . S
O17 C5 1.242 . S
O18 Eu2 2.324 . S
O18 C5 1.258 . S
O19 Tb1 2.500 . S
O19 C21 1.273 . S
O20 Tb1 2.473 . S
O20 C21 1.257 . S
C21 O19 1.273 . S
C21 O20 1.257 . S
O22 Eu2 2.326 . S
O22 C10 1.242 . S
O23 Tb1 2.324 . S
O23 C10 1.258 . S
O24 Eu2 2.500 . S
O24 C7 1.273 . S
O25 Eu2 2.473 . S
O25 C7 1.257 . S
H26 C12 0.929 1_554 S
H27 C14 0.931 . S
H28 C16 0.929 . S
O29 Tb30 2.292 . S
O29 C32 1.255 1_565 S
Tb30 O29 2.292 . S
Tb30 O46 2.326 . S
Tb30 O48 2.500 . S
Tb30 O49 2.473 . S
Tb30 O52 2.324 . S
Eu31 O35 2.292 . S
Eu31 C36 2.852 . S
Eu31 O47 2.324 . S
Eu31 O51 2.326 . S
Eu31 O53 2.500 . S
Eu31 O54 2.473 . S
C32 O29 1.255 1_545 S
C32 O33 1.247 . S
O33 C32 1.247 . S
C34 O46 1.242 . S
C34 O47 1.258 . S
O35 Eu31 2.292 . S
O35 C37 1.255 . S
C36 Eu31 2.852 . S
C36 C40 1.503 . S
C36 O53 1.273 . S
C36 O54 1.257 . S
C37 O35 1.255 . S
C37 O38 1.247 . S
O38 C37 1.247 . S
C39 O51 1.242 . S
C39 O52 1.258 . S
C40 C36 1.503 . S
C40 C41 1.379 1_554 S
C40 C45 1.392 . S
C41 C40 1.379 1_556 S
C41 C42 1.404 . S
C41 H55 0.929 1_556 S
C42 C41 1.404 . S
C42 C43 1.389 . S
C43 C42 1.389 . S
C43 C44 1.399 . S
C43 H56 0.931 . S
C44 C43 1.399 . S
C44 C45 1.390 1_556 S
C45 C40 1.392 . S
C45 C44 1.390 1_554 S
C45 H57 0.929 . S
O46 Tb30 2.326 . S
O46 C34 1.242 . S
O47 Eu31 2.324 . S
O47 C34 1.258 . S
O48 Tb30 2.500 . S
O48 C50 1.273 . S
O49 Tb30 2.473 . S
O49 C50 1.257 . S
C50 O48 1.273 . S
C50 O49 1.257 . S
O51 Eu31 2.326 . S
O51 C39 1.242 . S
O52 Tb30 2.324 . S
O52 C39 1.258 . S
O53 Eu31 2.500 . S
O53 C36 1.273 . S
O54 Eu31 2.473 . S
O54 C36 1.257 . S
H55 C41 0.929 1_554 S
H56 C43 0.931 . S
H57 C45 0.929 . S
O58 Tb59 2.292 . S
O58 C61 1.255 1_565 S
Tb59 O58 2.292 . S
Tb59 O75 2.326 . S
Tb59 O77 2.500 . S
Tb59 O78 2.473 . S
Tb59 O81 2.324 . S
Eu60 O64 2.292 . S
Eu60 C65 2.852 . S
Eu60 O76 2.324 . S
Eu60 O80 2.326 . S
Eu60 O82 2.500 . S
Eu60 O83 2.473 . S
C61 O58 1.255 1_545 S
C61 O62 1.247 . S
O62 C61 1.247 . S
C63 O75 1.242 . S
C63 O76 1.258 . S
O64 Eu60 2.292 . S
O64 C66 1.255 . S
C65 Eu60 2.852 . S
C65 C69 1.503 . S
C65 O82 1.273 . S
C65 O83 1.257 . S
C66 O64 1.255 . S
C66 O67 1.247 . S
O67 C66 1.247 . S
C68 O80 1.242 . S
C68 O81 1.258 . S
C69 C65 1.503 . S
C69 C70 1.379 . S
C69 C74 1.392 . S
C70 C69 1.379 . S
C70 C71 1.404 . S
C70 H84 0.929 . S
C71 C70 1.404 . S
C71 C72 1.389 . S
C72 C71 1.389 . S
C72 C73 1.399 . S
C72 H85 0.931 . S
C73 C72 1.399 . S
C73 C74 1.390 . S
C74 C69 1.392 . S
C74 C73 1.390 . S
C74 H86 0.929 . S
O75 Tb59 2.326 . S
O75 C63 1.242 . S
O76 Eu60 2.324 . S
O76 C63 1.258 . S
O77 Tb59 2.500 . S
O77 C79 1.273 . S
O78 Tb59 2.473 . S
O78 C79 1.257 . S
C79 O77 1.273 . S
C79 O78 1.257 . S
O80 Eu60 2.326 . S
O80 C68 1.242 . S
O81 Tb59 2.324 . S
O81 C68 1.258 . S
O82 Eu60 2.500 . S
O82 C65 1.273 . S
O83 Eu60 2.473 . S
O83 C65 1.257 . S
H84 C70 0.929 . S
H85 C72 0.931 . S
H86 C74 0.929 . S
O87 Tb88 2.292 . S
O87 C90 1.255 . S
Tb88 O87 2.292 . S
Tb88 O104 2.326 . S
Tb88 O106 2.500 . S
Tb88 O107 2.473 . S
Tb88 O110 2.324 . S
Eu89 O93 2.292 . S
Eu89 C94 2.852 . S
Eu89 O105 2.324 . S
Eu89 O109 2.326 . S
Eu89 O111 2.500 . S
Eu89 O112 2.473 . S
C90 O87 1.255 . S
C90 O91 1.247 . S
O91 C90 1.247 . S
C92 O104 1.242 . S
C92 O105 1.258 . S
O93 Eu89 2.292 . S
O93 C95 1.255 . S
C94 Eu89 2.852 . S
C94 C98 1.503 . S
C94 O111 1.273 . S
C94 O112 1.257 . S
C95 O93 1.255 . S
C95 O96 1.247 . S
O96 C95 1.247 . S
C97 O109 1.242 . S
C97 O110 1.258 . S
C98 C94 1.503 . S
C98 C99 1.379 . S
C98 C103 1.392 . S
C99 C98 1.379 . S
C99 C100 1.404 . S
C99 H113 0.929 . S
C100 C99 1.404 . S
C100 C101 1.389 . S
C101 C100 1.389 . S
C101 C102 1.399 . S
C101 H114 0.931 . S
C102 C101 1.399 . S
C102 C103 1.390 . S
C103 C98 1.392 . S
C103 C102 1.390 . S
C103 H115 0.929 . S
O104 Tb88 2.326 . S
O104 C92 1.242 . S
O105 Eu89 2.324 . S
O105 C92 1.258 . S
O106 Tb88 2.500 . S
O106 C108 1.273 . S
O107 Tb88 2.473 . S
O107 C108 1.257 . S
C108 O106 1.273 . S
C108 O107 1.257 . S
O109 Eu89 2.326 . S
O109 C97 1.242 . S
O110 Tb88 2.324 . S
O110 C97 1.258 . S
O111 Eu89 2.500 . S
O111 C94 1.273 . S
O112 Eu89 2.473 . S
O112 C94 1.257 . S
H113 C99 0.929 . S
H114 C101 0.931 . S
H115 C103 0.929 . S
O116 Tb117 2.292 . S
O116 C119 1.255 . S
Tb117 O116 2.292 . S
Tb117 O133 2.326 . S
Tb117 O135 2.500 . S
Tb117 O136 2.473 . S
Tb117 O139 2.324 . S
Eu118 O122 2.292 . S
Eu118 C123 2.852 . S
Eu118 O134 2.324 . S
Eu118 O138 2.326 . S
Eu118 O140 2.500 . S
Eu118 O141 2.473 . S
C119 O116 1.255 . S
C119 O120 1.247 . S
O120 C119 1.247 . S
C121 O133 1.242 . S
C121 O134 1.258 . S
O122 Eu118 2.292 . S
O122 C124 1.255 . S
C123 Eu118 2.852 . S
C123 C127 1.503 . S
C123 O140 1.273 . S
C123 O141 1.257 . S
C124 O122 1.255 . S
C124 O125 1.247 . S
O125 C124 1.247 . S
C126 O138 1.242 . S
C126 O139 1.258 . S
C127 C123 1.503 . S
C127 C128 1.379 1_556 S
C127 C132 1.392 . S
C128 C127 1.379 1_554 S
C128 C129 1.404 . S
C128 H142 0.929 1_554 S
C129 C128 1.404 . S
C129 C130 1.389 . S
C130 C129 1.389 . S
C130 C131 1.399 . S
C130 H143 0.931 . S
C131 C130 1.399 . S
C131 C132 1.390 1_554 S
C132 C127 1.392 . S
C132 C131 1.390 1_556 S
C132 H144 0.929 . S
O133 Tb117 2.326 . S
O133 C121 1.242 . S
O134 Eu118 2.324 . S
O134 C121 1.258 . S
O135 Tb117 2.500 . S
O135 C137 1.273 . S
O136 Tb117 2.473 . S
O136 C137 1.257 . S
C137 O135 1.273 . S
C137 O136 1.257 . S
O138 Eu118 2.326 . S
O138 C126 1.242 . S
O139 Tb117 2.324 . S
O139 C126 1.258 . S
O140 Eu118 2.500 . S
O140 C123 1.273 . S
O141 Eu118 2.473 . S
O141 C123 1.257 . S
H142 C128 0.929 1_556 S
H143 C130 0.931 . S
H144 C132 0.929 . S
O145 Tb146 2.292 . S
O145 C148 1.255 1_545 S
Tb146 O145 2.292 . S
Tb146 O162 2.326 . S
Tb146 O164 2.500 . S
Tb146 O165 2.473 . S
Tb146 O168 2.324 . S
Eu147 O151 2.292 . S
Eu147 C152 2.852 . S
Eu147 O163 2.324 . S
Eu147 O167 2.326 . S
Eu147 O169 2.500 . S
Eu147 O170 2.473 . S
C148 O145 1.255 1_565 S
C148 O149 1.247 . S
O149 C148 1.247 . S
C150 O162 1.242 . S
C150 O163 1.258 . S
O151 Eu147 2.292 . S
O151 C153 1.255 . S
C152 Eu147 2.852 . S
C152 C156 1.503 . S
C152 O169 1.273 . S
C152 O170 1.257 . S
C153 O151 1.255 . S
C153 O154 1.247 . S
O154 C153 1.247 . S
C155 O167 1.242 . S
C155 O168 1.258 . S
C156 C152 1.503 . S
C156 C157 1.379 1_556 S
C156 C161 1.392 . S
C157 C156 1.379 1_554 S
C157 C158 1.404 . S
C157 H171 0.929 1_554 S
C158 C157 1.404 . S
C158 C159 1.389 . S
C159 C158 1.389 . S
C159 C160 1.399 . S
C159 H172 0.931 . S
C160 C159 1.399 . S
C160 C161 1.390 1_554 S
C161 C156 1.392 . S
C161 C160 1.390 1_556 S
C161 H173 0.929 . S
O162 Tb146 2.326 . S
O162 C150 1.242 . S
O163 Eu147 2.324 . S
O163 C150 1.258 . S
O164 Tb146 2.500 . S
O164 C166 1.273 . S
O165 Tb146 2.473 . S
O165 C166 1.257 . S
C166 O164 1.273 . S
C166 O165 1.257 . S
O167 Eu147 2.326 . S
O167 C155 1.242 . S
O168 Tb146 2.324 . S
O168 C155 1.258 . S
O169 Eu147 2.500 . S
O169 C152 1.273 . S
O170 Eu147 2.473 . S
O170 C152 1.257 . S
H171 C157 0.929 1_556 S
H172 C159 0.931 . S
H173 C161 0.929 . S
O174 Tb175 2.292 . S
O174 C177 1.255 1_545 S
Tb175 O174 2.292 . S
Tb175 O191 2.326 . S
Tb175 O193 2.500 . S
Tb175 O194 2.473 . S
Tb175 O197 2.324 . S
Eu176 O180 2.292 . S
Eu176 C181 2.852 . S
Eu176 O192 2.324 . S
Eu176 O196 2.326 . S
Eu176 O198 2.500 . S
Eu176 O199 2.473 . S
C177 O174 1.255 1_565 S
C177 O178 1.247 . S
O178 C177 1.247 . S
C179 O191 1.242 . S
C179 O192 1.258 . S
O180 Eu176 2.292 . S
O180 C182 1.255 . S
C181 Eu176 2.852 . S
C181 C185 1.503 . S
C181 O198 1.273 . S
C181 O199 1.257 . S
C182 O180 1.255 . S
C182 O183 1.247 . S
O183 C182 1.247 . S
C184 O196 1.242 . S
C184 O197 1.258 . S
C185 C181 1.503 . S
C185 C186 1.379 . S
C185 C190 1.392 . S
C186 C185 1.379 . S
C186 C187 1.404 . S
C186 H200 0.929 . S
C187 C186 1.404 . S
C187 C188 1.389 . S
C188 C187 1.389 . S
C188 C189 1.399 . S
C188 H201 0.931 . S
C189 C188 1.399 . S
C189 C190 1.390 . S
C190 C185 1.392 . S
C190 C189 1.390 . S
C190 H202 0.929 . S
O191 Tb175 2.326 . S
O191 C179 1.242 . S
O192 Eu176 2.324 . S
O192 C179 1.258 . S
O193 Tb175 2.500 . S
O193 C195 1.273 . S
O194 Tb175 2.473 . S
O194 C195 1.257 . S
C195 O193 1.273 . S
C195 O194 1.257 . S
O196 Eu176 2.326 . S
O196 C184 1.242 . S
O197 Tb175 2.324 . S
O197 C184 1.258 . S
O198 Eu176 2.500 . S
O198 C181 1.273 . S
O199 Eu176 2.473 . S
O199 C181 1.257 . S
H200 C186 0.929 . S
H201 C188 0.931 . S
H202 C190 0.929 . S
O203 Tb204 2.292 . S
O203 C206 1.255 . S
Tb204 O203 2.292 . S
Tb204 O220 2.326 . S
Tb204 O222 2.500 . S
Tb204 O223 2.473 . S
Tb204 O226 2.324 . S
Eu205 O209 2.292 . S
Eu205 C210 2.852 . S
Eu205 O221 2.324 . S
Eu205 O225 2.326 . S
Eu205 O227 2.500 . S
Eu205 O228 2.473 . S
C206 O203 1.255 . S
C206 O207 1.247 . S
O207 C206 1.247 . S
C208 O220 1.242 . S
C208 O221 1.258 . S
O209 Eu205 2.292 . S
O209 C211 1.255 . S
C210 Eu205 2.852 . S
C210 C214 1.503 . S
C210 O227 1.273 . S
C210 O228 1.257 . S
C211 O209 1.255 . S
C211 O212 1.247 . S
O212 C211 1.247 . S
C213 O225 1.242 . S
C213 O226 1.258 . S
C214 C210 1.503 . S
C214 C215 1.379 . S
C214 C219 1.392 . S
C215 C214 1.379 . S
C215 C216 1.404 . S
C215 H229 0.929 . S
C216 C215 1.404 . S
C216 C217 1.389 . S
C217 C216 1.389 . S
C217 C218 1.399 . S
C217 H230 0.931 . S
C218 C217 1.399 . S
C218 C219 1.390 . S
C219 C214 1.392 . S
C219 C218 1.390 . S
C219 H231 0.929 . S
O220 Tb204 2.326 . S
O220 C208 1.242 . S
O221 Eu205 2.324 . S
O221 C208 1.258 . S
O222 Tb204 2.500 . S
O222 C224 1.273 . S
O223 Tb204 2.473 . S
O223 C224 1.257 . S
C224 O222 1.273 . S
C224 O223 1.257 . S
O225 Eu205 2.326 . S
O225 C213 1.242 . S
O226 Tb204 2.324 . S
O226 C213 1.258 . S
O227 Eu205 2.500 . S
O227 C210 1.273 . S
O228 Eu205 2.473 . S
O228 C210 1.257 . S
H229 C215 0.929 . S
H230 C217 0.931 . S
H231 C219 0.929 . S
O232 Tb233 2.292 . S
O232 C235 1.255 . S
Tb233 O232 2.292 . S
Tb233 O249 2.326 . S
Tb233 O251 2.500 . S
Tb233 O252 2.473 . S
Tb233 O255 2.324 . S
Eu234 O238 2.292 . S
Eu234 C239 2.852 . S
Eu234 O250 2.324 . S
Eu234 O254 2.326 . S
Eu234 O256 2.500 . S
Eu234 O257 2.473 . S
C235 O232 1.255 . S
C235 O236 1.247 . S
O236 C235 1.247 . S
C237 O249 1.242 . S
C237 O250 1.258 . S
O238 Eu234 2.292 . S
O238 C240 1.255 1_565 S
C239 Eu234 2.852 . S
C239 C243 1.503 . S
C239 O256 1.273 . S
C239 O257 1.257 . S
C240 O238 1.255 1_545 S
C240 O241 1.247 1_545 S
O241 C240 1.247 1_565 S
C242 O254 1.242 . S
C242 O255 1.258 . S
C243 C239 1.503 . S
C243 C244 1.379 . S
C243 C248 1.392 . S
C244 C243 1.379 . S
C244 C245 1.404 . S
C244 H258 0.929 . S
C245 C244 1.404 . S
C245 C246 1.389 . S
C246 C245 1.389 . S
C246 C247 1.399 . S
C246 H259 0.931 . S
C247 C246 1.399 . S
C247 C248 1.390 . S
C248 C243 1.392 . S
C248 C247 1.390 . S
C248 H260 0.929 . S
O249 Tb233 2.326 . S
O249 C237 1.242 . S
O250 Eu234 2.324 . S
O250 C237 1.258 . S
O251 Tb233 2.500 . S
O251 C253 1.273 . S
O252 Tb233 2.473 . S
O252 C253 1.257 . S
C253 O251 1.273 . S
C253 O252 1.257 . S
O254 Eu234 2.326 . S
O254 C242 1.242 . S
O255 Tb233 2.324 . S
O255 C242 1.258 . S
O256 Eu234 2.500 . S
O256 C239 1.273 . S
O257 Eu234 2.473 . S
O257 C239 1.257 . S
H258 C244 0.929 . S
H259 C246 0.931 . S
H260 C248 0.929 . S
O261 Tb262 2.292 . S
O261 C264 1.255 . S
Tb262 O261 2.292 . S
Tb262 O278 2.326 . S
Tb262 O280 2.500 . S
Tb262 O281 2.473 . S
Tb262 O284 2.324 . S
Eu263 O267 2.292 . S
Eu263 C268 2.852 . S
Eu263 O279 2.324 . S
Eu263 O283 2.326 . S
Eu263 O285 2.500 . S
Eu263 O286 2.473 . S
C264 O261 1.255 . S
C264 O265 1.247 . S
O265 C264 1.247 . S
C266 O278 1.242 . S
C266 O279 1.258 . S
O267 Eu263 2.292 . S
O267 C269 1.255 . S
C268 Eu263 2.852 . S
C268 C272 1.503 . S
C268 O285 1.273 . S
C268 O286 1.257 . S
C269 O267 1.255 . S
C269 O270 1.247 . S
O270 C269 1.247 . S
C271 O283 1.242 . S
C271 O284 1.258 . S
C272 C268 1.503 . S
C272 C273 1.379 . S
C272 C277 1.392 . S
C273 C272 1.379 . S
C273 C274 1.404 . S
C273 H287 0.929 . S
C274 C273 1.404 . S
C274 C275 1.389 . S
C275 C274 1.389 . S
C275 C276 1.399 . S
C275 H288 0.931 . S
C276 C275 1.399 . S
C276 C277 1.390 . S
C277 C272 1.392 . S
C277 C276 1.390 . S
C277 H289 0.929 . S
O278 Tb262 2.326 . S
O278 C266 1.242 . S
O279 Eu263 2.324 . S
O279 C266 1.258 . S
O280 Tb262 2.500 . S
O280 C282 1.273 . S
O281 Tb262 2.473 . S
O281 C282 1.257 . S
C282 O280 1.273 . S
C282 O281 1.257 . S
O283 Eu263 2.326 . S
O283 C271 1.242 . S
O284 Tb262 2.324 . S
O284 C271 1.258 . S
O285 Eu263 2.500 . S
O285 C268 1.273 . S
O286 Eu263 2.473 . S
O286 C268 1.257 . S
H287 C273 0.929 . S
H288 C275 0.931 . S
H289 C277 0.929 . S
O290 Tb291 2.292 . S
O290 C293 1.255 . S
Tb291 O290 2.292 . S
Tb291 O307 2.326 . S
Tb291 O309 2.500 . S
Tb291 O310 2.473 . S
Tb291 O313 2.324 . S
Eu292 O296 2.292 . S
Eu292 C297 2.852 . S
Eu292 O308 2.324 . S
Eu292 O312 2.326 . S
Eu292 O314 2.500 . S
Eu292 O315 2.473 . S
C293 O290 1.255 . S
C293 O294 1.247 . S
O294 C293 1.247 . S
C295 O307 1.242 . S
C295 O308 1.258 . S
O296 Eu292 2.292 . S
O296 C298 1.255 . S
C297 Eu292 2.852 . S
C297 C301 1.503 . S
C297 O314 1.273 . S
C297 O315 1.257 . S
C298 O296 1.255 . S
C298 O299 1.247 . S
O299 C298 1.247 . S
C300 O312 1.242 . S
C300 O313 1.258 . S
C301 C297 1.503 . S
C301 C302 1.379 . S
C301 C306 1.392 . S
C302 C301 1.379 . S
C302 C303 1.404 . S
C302 H316 0.929 . S
C303 C302 1.404 . S
C303 C304 1.389 . S
C304 C303 1.389 . S
C304 C305 1.399 . S
C304 H317 0.931 . S
C305 C304 1.399 . S
C305 C306 1.390 . S
C306 C301 1.392 . S
C306 C305 1.390 . S
C306 H318 0.929 . S
O307 Tb291 2.326 . S
O307 C295 1.242 . S
O308 Eu292 2.324 . S
O308 C295 1.258 . S
O309 Tb291 2.500 . S
O309 C311 1.273 . S
O310 Tb291 2.473 . S
O310 C311 1.257 . S
C311 O309 1.273 . S
C311 O310 1.257 . S
O312 Eu292 2.326 . S
O312 C300 1.242 . S
O313 Tb291 2.324 . S
O313 C300 1.258 . S
O314 Eu292 2.500 . S
O314 C297 1.273 . S
O315 Eu292 2.473 . S
O315 C297 1.257 . S
H316 C302 0.929 . S
H317 C304 0.931 . S
H318 C306 0.929 . S
O319 Tb320 2.292 . S
O319 C322 1.255 . S
Tb320 O319 2.292 . S
Tb320 O336 2.326 . S
Tb320 O338 2.500 . S
Tb320 O339 2.473 . S
Tb320 O342 2.324 . S
Eu321 O325 2.292 . S
Eu321 C326 2.852 . S
Eu321 O337 2.324 . S
Eu321 O341 2.326 . S
Eu321 O343 2.500 . S
Eu321 O344 2.473 . S
C322 O319 1.255 . S
C322 O323 1.247 . S
O323 C322 1.247 . S
C324 O336 1.242 . S
C324 O337 1.258 . S
O325 Eu321 2.292 . S
O325 C327 1.255 1_565 S
C326 Eu321 2.852 . S
C326 C330 1.503 . S
C326 O343 1.273 . S
C326 O344 1.257 . S
C327 O325 1.255 1_545 S
C327 O328 1.247 1_545 S
O328 C327 1.247 1_565 S
C329 O341 1.242 . S
C329 O342 1.258 . S
C330 C326 1.503 . S
C330 C331 1.379 . S
C330 C335 1.392 . S
C331 C330 1.379 . S
C331 C332 1.404 . S
C331 H345 0.929 . S
C332 C331 1.404 . S
C332 C333 1.389 . S
C333 C332 1.389 . S
C333 C334 1.399 . S
C333 H346 0.931 . S
C334 C333 1.399 . S
C334 C335 1.390 . S
C335 C330 1.392 . S
C335 C334 1.390 . S
C335 H347 0.929 . S
O336 Tb320 2.326 . S
O336 C324 1.242 . S
O337 Eu321 2.324 . S
O337 C324 1.258 . S
O338 Tb320 2.500 . S
O338 C340 1.273 . S
O339 Tb320 2.473 . S
O339 C340 1.257 . S
C340 O338 1.273 . S
C340 O339 1.257 . S
O341 Eu321 2.326 . S
O341 C329 1.242 . S
O342 Tb320 2.324 . S
O342 C329 1.258 . S
O343 Eu321 2.500 . S
O343 C326 1.273 . S
O344 Eu321 2.473 . S
O344 C326 1.257 . S
H345 C331 0.929 . S
H346 C333 0.931 . S
H347 C335 0.929 . S
O348 Tb349 2.292 . S
O348 C351 1.255 . S
Tb349 O348 2.292 . S
Tb349 O365 2.326 . S
Tb349 O367 2.500 . S
Tb349 O368 2.473 . S
Tb349 O371 2.324 . S
Eu350 O354 2.292 . S
Eu350 C355 2.852 . S
Eu350 O366 2.324 . S
Eu350 O370 2.326 . S
Eu350 O372 2.500 . S
Eu350 O373 2.473 . S
C351 O348 1.255 . S
C351 O352 1.247 . S
O352 C351 1.247 . S
C353 O365 1.242 . S
C353 O366 1.258 . S
O354 Eu350 2.292 . S
O354 C356 1.255 1_545 S
C355 Eu350 2.852 . S
C355 C359 1.503 . S
C355 O372 1.273 . S
C355 O373 1.257 . S
C356 O354 1.255 1_565 S
C356 O357 1.247 1_565 S
O357 C356 1.247 1_545 S
C358 O370 1.242 . S
C358 O371 1.258 . S
C359 C355 1.503 . S
C359 C360 1.379 . S
C359 C364 1.392 . S
C360 C359 1.379 . S
C360 C361 1.404 . S
C360 H374 0.929 . S
C361 C360 1.404 . S
C361 C362 1.389 . S
C362 C361 1.389 . S
C362 C363 1.399 . S
C362 H375 0.931 . S
C363 C362 1.399 . S
C363 C364 1.390 . S
C364 C359 1.392 . S
C364 C363 1.390 . S
C364 H376 0.929 . S
O365 Tb349 2.326 . S
O365 C353 1.242 . S
O366 Eu350 2.324 . S
O366 C353 1.258 . S
O367 Tb349 2.500 . S
O367 C369 1.273 . S
O368 Tb349 2.473 . S
O368 C369 1.257 . S
C369 O367 1.273 . S
C369 O368 1.257 . S
O370 Eu350 2.326 . S
O370 C358 1.242 . S
O371 Tb349 2.324 . S
O371 C358 1.258 . S
O372 Eu350 2.500 . S
O372 C355 1.273 . S
O373 Eu350 2.473 . S
O373 C355 1.257 . S
H374 C360 0.929 . S
H375 C362 0.931 . S
H376 C364 0.929 . S
O377 Tb378 2.292 . S
O377 C380 1.255 . S
Tb378 O377 2.292 . S
Tb378 O394 2.326 . S
Tb378 O396 2.500 . S
Tb378 O397 2.473 . S
Tb378 O400 2.324 . S
Eu379 O383 2.292 . S
Eu379 C384 2.852 . S
Eu379 O395 2.324 . S
Eu379 O399 2.326 . S
Eu379 O401 2.500 . S
Eu379 O402 2.473 . S
C380 O377 1.255 . S
C380 O381 1.247 . S
O381 C380 1.247 . S
C382 O394 1.242 . S
C382 O395 1.258 . S
O383 Eu379 2.292 . S
O383 C385 1.255 . S
C384 Eu379 2.852 . S
C384 C388 1.503 . S
C384 O401 1.273 . S
C384 O402 1.257 . S
C385 O383 1.255 . S
C385 O386 1.247 . S
O386 C385 1.247 . S
C387 O399 1.242 . S
C387 O400 1.258 . S
C388 C384 1.503 . S
C388 C389 1.379 . S
C388 C393 1.392 . S
C389 C388 1.379 . S
C389 C390 1.404 . S
C389 H403 0.929 . S
C390 C389 1.404 . S
C390 C391 1.389 . S
C391 C390 1.389 . S
C391 C392 1.399 . S
C391 H404 0.931 . S
C392 C391 1.399 . S
C392 C393 1.390 . S
C393 C388 1.392 . S
C393 C392 1.390 . S
C393 H405 0.929 . S
O394 Tb378 2.326 . S
O394 C382 1.242 . S
O395 Eu379 2.324 . S
O395 C382 1.258 . S
O396 Tb378 2.500 . S
O396 C398 1.273 . S
O397 Tb378 2.473 . S
O397 C398 1.257 . S
C398 O396 1.273 . S
C398 O397 1.257 . S
O399 Eu379 2.326 . S
O399 C387 1.242 . S
O400 Tb378 2.324 . S
O400 C387 1.258 . S
O401 Eu379 2.500 . S
O401 C384 1.273 . S
O402 Eu379 2.473 . S
O402 C384 1.257 . S
H403 C389 0.929 . S
H404 C391 0.931 . S
H405 C393 0.929 . S
O406 Tb407 2.292 . S
O406 C409 1.255 . S
Tb407 O406 2.292 . S
Tb407 O423 2.326 . S
Tb407 O425 2.500 . S
Tb407 O426 2.473 . S
Tb407 O429 2.324 . S
Eu408 O412 2.292 . S
Eu408 C413 2.852 . S
Eu408 O424 2.324 . S
Eu408 O428 2.326 . S
Eu408 O430 2.500 . S
Eu408 O431 2.473 . S
C409 O406 1.255 . S
C409 O410 1.247 . S
O410 C409 1.247 . S
C411 O423 1.242 . S
C411 O424 1.258 . S
O412 Eu408 2.292 . S
O412 C414 1.255 . S
C413 Eu408 2.852 . S
C413 C417 1.503 . S
C413 O430 1.273 . S
C413 O431 1.257 . S
C414 O412 1.255 . S
C414 O415 1.247 . S
O415 C414 1.247 . S
C416 O428 1.242 . S
C416 O429 1.258 . S
C417 C413 1.503 . S
C417 C418 1.379 . S
C417 C422 1.392 . S
C418 C417 1.379 . S
C418 C419 1.404 . S
C418 H432 0.929 . S
C419 C418 1.404 . S
C419 C420 1.389 . S
C420 C419 1.389 . S
C420 C421 1.399 . S
C420 H433 0.931 . S
C421 C420 1.399 . S
C421 C422 1.390 . S
C422 C417 1.392 . S
C422 C421 1.390 . S
C422 H434 0.929 . S
O423 Tb407 2.326 . S
O423 C411 1.242 . S
O424 Eu408 2.324 . S
O424 C411 1.258 . S
O425 Tb407 2.500 . S
O425 C427 1.273 . S
O426 Tb407 2.473 . S
O426 C427 1.257 . S
C427 O425 1.273 . S
C427 O426 1.257 . S
O428 Eu408 2.326 . S
O428 C416 1.242 . S
O429 Tb407 2.324 . S
O429 C416 1.258 . S
O430 Eu408 2.500 . S
O430 C413 1.273 . S
O431 Eu408 2.473 . S
O431 C413 1.257 . S
H432 C418 0.929 . S
H433 C420 0.931 . S
H434 C422 0.929 . S
O435 Tb436 2.292 . S
O435 C438 1.255 . S
Tb436 O435 2.292 . S
Tb436 O452 2.326 . S
Tb436 O454 2.500 . S
Tb436 O455 2.473 . S
Tb436 O458 2.324 . S
Eu437 O441 2.292 . S
Eu437 C442 2.852 . S
Eu437 O453 2.324 . S
Eu437 O457 2.326 . S
Eu437 O459 2.500 . S
Eu437 O460 2.473 . S
C438 O435 1.255 . S
C438 O439 1.247 . S
O439 C438 1.247 . S
C440 O452 1.242 . S
C440 O453 1.258 . S
O441 Eu437 2.292 . S
O441 C443 1.255 1_545 S
C442 Eu437 2.852 . S
C442 C446 1.503 . S
C442 O459 1.273 . S
C442 O460 1.257 . S
C443 O441 1.255 1_565 S
C443 O444 1.247 1_565 S
O444 C443 1.247 1_545 S
C445 O457 1.242 . S
C445 O458 1.258 . S
C446 C442 1.503 . S
C446 C447 1.379 . S
C446 C451 1.392 . S
C447 C446 1.379 . S
C447 C448 1.404 . S
C447 H461 0.929 . S
C448 C447 1.404 . S
C448 C449 1.389 . S
C449 C448 1.389 . S
C449 C450 1.399 . S
C449 H462 0.931 . S
C450 C449 1.399 . S
C450 C451 1.390 . S
C451 C446 1.392 . S
C451 C450 1.390 . S
C451 H463 0.929 . S
O452 Tb436 2.326 . S
O452 C440 1.242 . S
O453 Eu437 2.324 . S
O453 C440 1.258 . S
O454 Tb436 2.500 . S
O454 C456 1.273 . S
O455 Tb436 2.473 . S
O455 C456 1.257 . S
C456 O454 1.273 . S
C456 O455 1.257 . S
O457 Eu437 2.326 . S
O457 C445 1.242 . S
O458 Tb436 2.324 . S
O458 C445 1.258 . S
O459 Eu437 2.500 . S
O459 C442 1.273 . S
O460 Eu437 2.473 . S
O460 C442 1.257 . S
H461 C447 0.929 . S
H462 C449 0.931 . S
H463 C451 0.929 . S
O464 Tb465 2.292 . S
O464 C467 1.255 . S
Tb465 O464 2.292 . S
Tb465 O481 2.326 . S
Tb465 O483 2.500 . S
Tb465 O484 2.473 . S
Tb465 O487 2.324 . S
Eu466 O470 2.292 . S
Eu466 C471 2.852 . S
Eu466 O482 2.324 . S
Eu466 O486 2.326 . S
Eu466 O488 2.500 . S
Eu466 O489 2.473 . S
C467 O464 1.255 . S
C467 O468 1.247 . S
O468 C467 1.247 . S
C469 O481 1.242 . S
C469 O482 1.258 . S
O470 Eu466 2.292 . S
O470 C472 1.255 . S
C471 Eu466 2.852 . S
C471 C475 1.503 . S
C471 O488 1.273 . S
C471 O489 1.257 . S
C472 O470 1.255 . S
C472 O473 1.247 . S
O473 C472 1.247 . S
C474 O486 1.242 . S
C474 O487 1.258 . S
C475 C471 1.503 . S
C475 C476 1.379 . S
C475 C480 1.392 . S
C476 C475 1.379 . S
C476 C477 1.404 . S
C476 H490 0.929 . S
C477 C476 1.404 . S
C477 C478 1.389 . S
C478 C477 1.389 . S
C478 C479 1.399 . S
C478 H491 0.931 . S
C479 C478 1.399 . S
C479 C480 1.390 . S
C480 C475 1.392 . S
C480 C479 1.390 . S
C480 H492 0.929 . S
O481 Tb465 2.326 . S
O481 C469 1.242 . S
O482 Eu466 2.324 . S
O482 C469 1.258 . S
O483 Tb465 2.500 . S
O483 C485 1.273 . S
O484 Tb465 2.473 . S
O484 C485 1.257 . S
C485 O483 1.273 . S
C485 O484 1.257 . S
O486 Eu466 2.326 . S
O486 C474 1.242 . S
O487 Tb465 2.324 . S
O487 C474 1.258 . S
O488 Eu466 2.500 . S
O488 C471 1.273 . S
O489 Eu466 2.473 . S
O489 C471 1.257 . S
H490 C476 0.929 . S
H491 C478 0.931 . S
H492 C480 0.929 . S
O493 Tb494 2.292 . S
O493 C496 1.255 1_565 S
Tb494 O493 2.292 . S
Tb494 O510 2.326 . S
Tb494 O512 2.500 . S
Tb494 O513 2.473 . S
Tb494 O516 2.324 . S
Eu495 O499 2.292 . S
Eu495 C500 2.852 . S
Eu495 O511 2.324 . S
Eu495 O515 2.326 . S
Eu495 O517 2.500 . S
Eu495 O518 2.473 . S
C496 O493 1.255 1_545 S
C496 O497 1.247 . S
O497 C496 1.247 . S
C498 O510 1.242 . S
C498 O511 1.258 . S
O499 Eu495 2.292 . S
O499 C501 1.255 . S
C500 Eu495 2.852 . S
C500 C504 1.503 . S
C500 O517 1.273 . S
C500 O518 1.257 . S
C501 O499 1.255 . S
C501 O502 1.247 . S
O502 C501 1.247 . S
C503 O515 1.242 . S
C503 O516 1.258 . S
C504 C500 1.503 . S
C504 C505 1.379 . S
C504 C509 1.392 . S
C505 C504 1.379 . S
C505 C506 1.404 . S
C505 H519 0.929 . S
C506 C505 1.404 . S
C506 C507 1.389 . S
C507 C506 1.389 . S
C507 C508 1.399 . S
C507 H520 0.931 . S
C508 C507 1.399 . S
C508 C509 1.390 . S
C509 C504 1.392 . S
C509 C508 1.390 . S
C509 H521 0.929 . S
O510 Tb494 2.326 . S
O510 C498 1.242 . S
O511 Eu495 2.324 . S
O511 C498 1.258 . S
O512 Tb494 2.500 . S
O512 C514 1.273 . S
O513 Tb494 2.473 . S
O513 C514 1.257 . S
C514 O512 1.273 . S
C514 O513 1.257 . S
O515 Eu495 2.326 . S
O515 C503 1.242 . S
O516 Tb494 2.324 . S
O516 C503 1.258 . S
O517 Eu495 2.500 . S
O517 C500 1.273 . S
O518 Eu495 2.473 . S
O518 C500 1.257 . S
H519 C505 0.929 . S
H520 C507 0.931 . S
H521 C509 0.929 . S
O522 Tb523 2.292 . S
O522 C525 1.255 1_565 S
Tb523 O522 2.292 . S
Tb523 O539 2.326 . S
Tb523 O541 2.500 . S
Tb523 O542 2.473 . S
Tb523 O545 2.324 . S
Eu524 O528 2.292 . S
Eu524 C529 2.852 . S
Eu524 O540 2.324 . S
Eu524 O544 2.326 . S
Eu524 O546 2.500 . S
Eu524 O547 2.473 . S
C525 O522 1.255 1_545 S
C525 O526 1.247 . S
O526 C525 1.247 . S
C527 O539 1.242 . S
C527 O540 1.258 . S
O528 Eu524 2.292 . S
O528 C530 1.255 . S
C529 Eu524 2.852 . S
C529 C533 1.503 . S
C529 O546 1.273 . S
C529 O547 1.257 . S
C530 O528 1.255 . S
C530 O531 1.247 . S
O531 C530 1.247 . S
C532 O544 1.242 . S
C532 O545 1.258 . S
C533 C529 1.503 . S
C533 C534 1.379 . S
C533 C538 1.392 . S
C534 C533 1.379 . S
C534 C535 1.404 . S
C534 H548 0.929 . S
C535 C534 1.404 . S
C535 C536 1.389 . S
C536 C535 1.389 . S
C536 C537 1.399 . S
C536 H549 0.931 . S
C537 C536 1.399 . S
C537 C538 1.390 . S
C538 C533 1.392 . S
C538 C537 1.390 . S
C538 H550 0.929 . S
O539 Tb523 2.326 . S
O539 C527 1.242 . S
O540 Eu524 2.324 . S
O540 C527 1.258 . S
O541 Tb523 2.500 . S
O541 C543 1.273 . S
O542 Tb523 2.473 . S
O542 C543 1.257 . S
C543 O541 1.273 . S
C543 O542 1.257 . S
O544 Eu524 2.326 . S
O544 C532 1.242 . S
O545 Tb523 2.324 . S
O545 C532 1.258 . S
O546 Eu524 2.500 . S
O546 C529 1.273 . S
O547 Eu524 2.473 . S
O547 C529 1.257 . S
H548 C534 0.929 . S
H549 C536 0.931 . S
H550 C538 0.929 . S
O551 Tb552 2.292 . S
O551 C554 1.255 . S
Tb552 O551 2.292 . S
Tb552 O568 2.326 . S
Tb552 O570 2.500 . S
Tb552 O571 2.473 . S
Tb552 O574 2.324 . S
Eu553 O557 2.292 . S
Eu553 C558 2.852 . S
Eu553 O569 2.324 . S
Eu553 O573 2.326 . S
Eu553 O575 2.500 . S
Eu553 O576 2.473 . S
C554 O551 1.255 . S
C554 O555 1.247 . S
O555 C554 1.247 . S
C556 O568 1.242 . S
C556 O569 1.258 . S
O557 Eu553 2.292 . S
O557 C559 1.255 . S
C558 Eu553 2.852 . S
C558 C562 1.503 . S
C558 O575 1.273 . S
C558 O576 1.257 . S
C559 O557 1.255 . S
C559 O560 1.247 . S
O560 C559 1.247 . S
C561 O573 1.242 . S
C561 O574 1.258 . S
C562 C558 1.503 . S
C562 C563 1.379 . S
C562 C567 1.392 . S
C563 C562 1.379 . S
C563 C564 1.404 . S
C563 H577 0.929 . S
C564 C563 1.404 . S
C564 C565 1.389 . S
C565 C564 1.389 . S
C565 C566 1.399 . S
C565 H578 0.931 . S
C566 C565 1.399 . S
C566 C567 1.390 . S
C567 C562 1.392 . S
C567 C566 1.390 . S
C567 H579 0.929 . S
O568 Tb552 2.326 . S
O568 C556 1.242 . S
O569 Eu553 2.324 . S
O569 C556 1.258 . S
O570 Tb552 2.500 . S
O570 C572 1.273 . S
O571 Tb552 2.473 . S
O571 C572 1.257 . S
C572 O570 1.273 . S
C572 O571 1.257 . S
O573 Eu553 2.326 . S
O573 C561 1.242 . S
O574 Tb552 2.324 . S
O574 C561 1.258 . S
O575 Eu553 2.500 . S
O575 C558 1.273 . S
O576 Eu553 2.473 . S
O576 C558 1.257 . S
H577 C563 0.929 . S
H578 C565 0.931 . S
H579 C567 0.929 . S
O580 Tb581 2.292 . S
O580 C583 1.255 . S
Tb581 O580 2.292 . S
Tb581 O597 2.326 . S
Tb581 O599 2.500 . S
Tb581 O600 2.473 . S
Tb581 O603 2.324 . S
Eu582 O586 2.292 . S
Eu582 C587 2.852 . S
Eu582 O598 2.324 . S
Eu582 O602 2.326 . S
Eu582 O604 2.500 . S
Eu582 O605 2.473 . S
C583 O580 1.255 . S
C583 O584 1.247 . S
O584 C583 1.247 . S
C585 O597 1.242 . S
C585 O598 1.258 . S
O586 Eu582 2.292 . S
O586 C588 1.255 . S
C587 Eu582 2.852 . S
C587 C591 1.503 . S
C587 O604 1.273 . S
C587 O605 1.257 . S
C588 O586 1.255 . S
C588 O589 1.247 . S
O589 C588 1.247 . S
C590 O602 1.242 . S
C590 O603 1.258 . S
C591 C587 1.503 . S
C591 C592 1.379 . S
C591 C596 1.392 . S
C592 C591 1.379 . S
C592 C593 1.404 . S
C592 H606 0.929 . S
C593 C592 1.404 . S
C593 C594 1.389 . S
C594 C593 1.389 . S
C594 C595 1.399 . S
C594 H607 0.931 . S
C595 C594 1.399 . S
C595 C596 1.390 . S
C596 C591 1.392 . S
C596 C595 1.390 . S
C596 H608 0.929 . S
O597 Tb581 2.326 . S
O597 C585 1.242 . S
O598 Eu582 2.324 . S
O598 C585 1.258 . S
O599 Tb581 2.500 . S
O599 C601 1.273 . S
O600 Tb581 2.473 . S
O600 C601 1.257 . S
C601 O599 1.273 . S
C601 O600 1.257 . S
O602 Eu582 2.326 . S
O602 C590 1.242 . S
O603 Tb581 2.324 . S
O603 C590 1.258 . S
O604 Eu582 2.500 . S
O604 C587 1.273 . S
O605 Eu582 2.473 . S
O605 C587 1.257 . S
H606 C592 0.929 . S
H607 C594 0.931 . S
H608 C596 0.929 . S
O609 Tb610 2.292 . S
O609 C612 1.255 1_545 S
Tb610 O609 2.292 . S
Tb610 O626 2.326 . S
Tb610 O628 2.500 . S
Tb610 O629 2.473 . S
Tb610 O632 2.324 . S
Eu611 O615 2.292 . S
Eu611 C616 2.852 . S
Eu611 O627 2.324 . S
Eu611 O631 2.326 . S
Eu611 O633 2.500 . S
Eu611 O634 2.473 . S
C612 O609 1.255 1_565 S
C612 O613 1.247 . S
O613 C612 1.247 . S
C614 O626 1.242 . S
C614 O627 1.258 . S
O615 Eu611 2.292 . S
O615 C617 1.255 . S
C616 Eu611 2.852 . S
C616 C620 1.503 . S
C616 O633 1.273 . S
C616 O634 1.257 . S
C617 O615 1.255 . S
C617 O618 1.247 . S
O618 C617 1.247 . S
C619 O631 1.242 . S
C619 O632 1.258 . S
C620 C616 1.503 . S
C620 C621 1.379 . S
C620 C625 1.392 . S
C621 C620 1.379 . S
C621 C622 1.404 . S
C621 H635 0.929 . S
C622 C621 1.404 . S
C622 C623 1.389 . S
C623 C622 1.389 . S
C623 C624 1.399 . S
C623 H636 0.931 . S
C624 C623 1.399 . S
C624 C625 1.390 . S
C625 C620 1.392 . S
C625 C624 1.390 . S
C625 H637 0.929 . S
O626 Tb610 2.326 . S
O626 C614 1.242 . S
O627 Eu611 2.324 . S
O627 C614 1.258 . S
O628 Tb610 2.500 . S
O628 C630 1.273 . S
O629 Tb610 2.473 . S
O629 C630 1.257 . S
C630 O628 1.273 . S
C630 O629 1.257 . S
O631 Eu611 2.326 . S
O631 C619 1.242 . S
O632 Tb610 2.324 . S
O632 C619 1.258 . S
O633 Eu611 2.500 . S
O633 C616 1.273 . S
O634 Eu611 2.473 . S
O634 C616 1.257 . S
H635 C621 0.929 . S
H636 C623 0.931 . S
H637 C625 0.929 . S
O638 Tb639 2.292 . S
O638 C641 1.255 1_545 S
Tb639 O638 2.292 . S
Tb639 O655 2.326 . S
Tb639 O657 2.500 . S
Tb639 O658 2.473 . S
Tb639 O661 2.324 . S
Eu640 O644 2.292 . S
Eu640 C645 2.852 . S
Eu640 O656 2.324 . S
Eu640 O660 2.326 . S
Eu640 O662 2.500 . S
Eu640 O663 2.473 . S
C641 O638 1.255 1_565 S
C641 O642 1.247 . S
O642 C641 1.247 . S
C643 O655 1.242 . S
C643 O656 1.258 . S
O644 Eu640 2.292 . S
O644 C646 1.255 . S
C645 Eu640 2.852 . S
C645 C649 1.503 . S
C645 O662 1.273 . S
C645 O663 1.257 . S
C646 O644 1.255 . S
C646 O647 1.247 . S
O647 C646 1.247 . S
C648 O660 1.242 . S
C648 O661 1.258 . S
C649 C645 1.503 . S
C649 C650 1.379 . S
C649 C654 1.392 . S
C650 C649 1.379 . S
C650 C651 1.404 . S
C650 H664 0.929 . S
C651 C650 1.404 . S
C651 C652 1.389 . S
C652 C651 1.389 . S
C652 C653 1.399 . S
C652 H665 0.931 . S
C653 C652 1.399 . S
C653 C654 1.390 . S
C654 C649 1.392 . S
C654 C653 1.390 . S
C654 H666 0.929 . S
O655 Tb639 2.326 . S
O655 C643 1.242 . S
O656 Eu640 2.324 . S
O656 C643 1.258 . S
O657 Tb639 2.500 . S
O657 C659 1.273 . S
O658 Tb639 2.473 . S
O658 C659 1.257 . S
C659 O657 1.273 . S
C659 O658 1.257 . S
O660 Eu640 2.326 . S
O660 C648 1.242 . S
O661 Tb639 2.324 . S
O661 C648 1.258 . S
O662 Eu640 2.500 . S
O662 C645 1.273 . S
O663 Eu640 2.473 . S
O663 C645 1.257 . S
H664 C650 0.929 . S
H665 C652 0.931 . S
H666 C654 0.929 . S
O667 Tb668 2.292 . S
O667 C670 1.255 . S
Tb668 O667 2.292 . S
Tb668 O684 2.326 . S
Tb668 O686 2.500 . S
Tb668 O687 2.473 . S
Tb668 O690 2.324 . S
Eu669 O673 2.292 . S
Eu669 C674 2.852 . S
Eu669 O685 2.324 . S
Eu669 O689 2.326 . S
Eu669 O691 2.500 . S
Eu669 O692 2.473 . S
C670 O667 1.255 . S
C670 O671 1.247 . S
O671 C670 1.247 . S
C672 O684 1.242 . S
C672 O685 1.258 . S
O673 Eu669 2.292 . S
O673 C675 1.255 . S
C674 Eu669 2.852 . S
C674 C678 1.503 . S
C674 O691 1.273 . S
C674 O692 1.257 . S
C675 O673 1.255 . S
C675 O676 1.247 . S
O676 C675 1.247 . S
C677 O689 1.242 . S
C677 O690 1.258 . S
C678 C674 1.503 . S
C678 C679 1.379 . S
C678 C683 1.392 . S
C679 C678 1.379 . S
C679 C680 1.404 . S
C679 H693 0.929 . S
C680 C679 1.404 . S
C680 C681 1.389 . S
C681 C680 1.389 . S
C681 C682 1.399 . S
C681 H694 0.931 . S
C682 C681 1.399 . S
C682 C683 1.390 . S
C683 C678 1.392 . S
C683 C682 1.390 . S
C683 H695 0.929 . S
O684 Tb668 2.326 . S
O684 C672 1.242 . S
O685 Eu669 2.324 . S
O685 C672 1.258 . S
O686 Tb668 2.500 . S
O686 C688 1.273 . S
O687 Tb668 2.473 . S
O687 C688 1.257 . S
C688 O686 1.273 . S
C688 O687 1.257 . S
O689 Eu669 2.326 . S
O689 C677 1.242 . S
O690 Tb668 2.324 . S
O690 C677 1.258 . S
O691 Eu669 2.500 . S
O691 C674 1.273 . S
O692 Eu669 2.473 . S
O692 C674 1.257 . S
H693 C679 0.929 . S
H694 C681 0.931 . S
H695 C683 0.929 . S
O696 Tb697 2.292 . S
O696 C699 1.255 . S
Tb697 O696 2.292 . S
Tb697 O713 2.326 . S
Tb697 O715 2.500 . S
Tb697 O716 2.473 . S
Tb697 O719 2.324 . S
Eu698 O702 2.292 . S
Eu698 C703 2.852 . S
Eu698 O714 2.324 . S
Eu698 O718 2.326 . S
Eu698 O720 2.500 . S
Eu698 O721 2.473 . S
C699 O696 1.255 . S
C699 O700 1.247 . S
O700 C699 1.247 . S
C701 O713 1.242 . S
C701 O714 1.258 . S
O702 Eu698 2.292 . S
O702 C704 1.255 1_565 S
C703 Eu698 2.852 . S
C703 C707 1.503 . S
C703 O720 1.273 . S
C703 O721 1.257 . S
C704 O702 1.255 1_545 S
C704 O705 1.247 1_545 S
O705 C704 1.247 1_565 S
C706 O718 1.242 . S
C706 O719 1.258 . S
C707 C703 1.503 . S
C707 C708 1.379 1_554 S
C707 C712 1.392 . S
C708 C707 1.379 1_556 S
C708 C709 1.404 . S
C708 H722 0.929 1_556 S
C709 C708 1.404 . S
C709 C710 1.389 . S
C710 C709 1.389 . S
C710 C711 1.399 . S
C710 H723 0.931 . S
C711 C710 1.399 . S
C711 C712 1.390 1_556 S
C712 C707 1.392 . S
C712 C711 1.390 1_554 S
C712 H724 0.929 . S
O713 Tb697 2.326 . S
O713 C701 1.242 . S
O714 Eu698 2.324 . S
O714 C701 1.258 . S
O715 Tb697 2.500 . S
O715 C717 1.273 . S
O716 Tb697 2.473 . S
O716 C717 1.257 . S
C717 O715 1.273 . S
C717 O716 1.257 . S
O718 Eu698 2.326 . S
O718 C706 1.242 . S
O719 Tb697 2.324 . S
O719 C706 1.258 . S
O720 Eu698 2.500 . S
O720 C703 1.273 . S
O721 Eu698 2.473 . S
O721 C703 1.257 . S
H722 C708 0.929 1_554 S
H723 C710 0.931 . S
H724 C712 0.929 . S
O725 Tb726 2.292 . S
O725 C728 1.255 . S
Tb726 O725 2.292 . S
Tb726 O742 2.326 . S
Tb726 O744 2.500 . S
Tb726 O745 2.473 . S
Tb726 O748 2.324 . S
Eu727 O731 2.292 . S
Eu727 C732 2.852 . S
Eu727 O743 2.324 . S
Eu727 O747 2.326 . S
Eu727 O749 2.500 . S
Eu727 O750 2.473 . S
C728 O725 1.255 . S
C728 O729 1.247 . S
O729 C728 1.247 . S
C730 O742 1.242 . S
C730 O743 1.258 . S
O731 Eu727 2.292 . S
O731 C733 1.255 . S
C732 Eu727 2.852 . S
C732 C736 1.503 . S
C732 O749 1.273 . S
C732 O750 1.257 . S
C733 O731 1.255 . S
C733 O734 1.247 . S
O734 C733 1.247 . S
C735 O747 1.242 . S
C735 O748 1.258 . S
C736 C732 1.503 . S
C736 C737 1.379 1_554 S
C736 C741 1.392 . S
C737 C736 1.379 1_556 S
C737 C738 1.404 . S
C737 H751 0.929 1_556 S
C738 C737 1.404 . S
C738 C739 1.389 . S
C739 C738 1.389 . S
C739 C740 1.399 . S
C739 H752 0.931 . S
C740 C739 1.399 . S
C740 C741 1.390 1_556 S
C741 C736 1.392 . S
C741 C740 1.390 1_554 S
C741 H753 0.929 . S
O742 Tb726 2.326 . S
O742 C730 1.242 . S
O743 Eu727 2.324 . S
O743 C730 1.258 . S
O744 Tb726 2.500 . S
O744 C746 1.273 . S
O745 Tb726 2.473 . S
O745 C746 1.257 . S
C746 O744 1.273 . S
C746 O745 1.257 . S
O747 Eu727 2.326 . S
O747 C735 1.242 . S
O748 Tb726 2.324 . S
O748 C735 1.258 . S
O749 Eu727 2.500 . S
O749 C732 1.273 . S
O750 Eu727 2.473 . S
O750 C732 1.257 . S
H751 C737 0.929 1_554 S
H752 C739 0.931 . S
H753 C741 0.929 . S
O754 Tb755 2.292 . S
O754 C757 1.255 . S
Tb755 O754 2.292 . S
Tb755 O771 2.326 . S
Tb755 O773 2.500 . S
Tb755 O774 2.473 . S
Tb755 O777 2.324 . S
Eu756 O760 2.292 . S
Eu756 C761 2.852 . S
Eu756 O772 2.324 . S
Eu756 O776 2.326 . S
Eu756 O778 2.500 . S
Eu756 O779 2.473 . S
C757 O754 1.255 . S
C757 O758 1.247 . S
O758 C757 1.247 . S
C759 O771 1.242 . S
C759 O772 1.258 . S
O760 Eu756 2.292 . S
O760 C762 1.255 . S
C761 Eu756 2.852 . S
C761 C765 1.503 . S
C761 O778 1.273 . S
C761 O779 1.257 . S
C762 O760 1.255 . S
C762 O763 1.247 . S
O763 C762 1.247 . S
C764 O776 1.242 . S
C764 O777 1.258 . S
C765 C761 1.503 . S
C765 C766 1.379 . S
C765 C770 1.392 . S
C766 C765 1.379 . S
C766 C767 1.404 . S
C766 H780 0.929 . S
C767 C766 1.404 . S
C767 C768 1.389 . S
C768 C767 1.389 . S
C768 C769 1.399 . S
C768 H781 0.931 . S
C769 C768 1.399 . S
C769 C770 1.390 . S
C770 C765 1.392 . S
C770 C769 1.390 . S
C770 H782 0.929 . S
O771 Tb755 2.326 . S
O771 C759 1.242 . S
O772 Eu756 2.324 . S
O772 C759 1.258 . S
O773 Tb755 2.500 . S
O773 C775 1.273 . S
O774 Tb755 2.473 . S
O774 C775 1.257 . S
C775 O773 1.273 . S
C775 O774 1.257 . S
O776 Eu756 2.326 . S
O776 C764 1.242 . S
O777 Tb755 2.324 . S
O777 C764 1.258 . S
O778 Eu756 2.500 . S
O778 C761 1.273 . S
O779 Eu756 2.473 . S
O779 C761 1.257 . S
H780 C766 0.929 . S
H781 C768 0.931 . S
H782 C770 0.929 . S
O783 Tb784 2.292 . S
O783 C786 1.255 . S
Tb784 O783 2.292 . S
Tb784 O800 2.326 . S
Tb784 O802 2.500 . S
Tb784 O803 2.473 . S
Tb784 O806 2.324 . S
Eu785 O789 2.292 . S
Eu785 C790 2.852 . S
Eu785 O801 2.324 . S
Eu785 O805 2.326 . S
Eu785 O807 2.500 . S
Eu785 O808 2.473 . S
C786 O783 1.255 . S
C786 O787 1.247 . S
O787 C786 1.247 . S
C788 O800 1.242 . S
C788 O801 1.258 . S
O789 Eu785 2.292 . S
O789 C791 1.255 1_565 S
C790 Eu785 2.852 . S
C790 C794 1.503 . S
C790 O807 1.273 . S
C790 O808 1.257 . S
C791 O789 1.255 1_545 S
C791 O792 1.247 1_545 S
O792 C791 1.247 1_565 S
C793 O805 1.242 . S
C793 O806 1.258 . S
C794 C790 1.503 . S
C794 C795 1.379 . S
C794 C799 1.392 . S
C795 C794 1.379 . S
C795 C796 1.404 . S
C795 H809 0.929 . S
C796 C795 1.404 . S
C796 C797 1.389 . S
C797 C796 1.389 . S
C797 C798 1.399 . S
C797 H810 0.931 . S
C798 C797 1.399 . S
C798 C799 1.390 . S
C799 C794 1.392 . S
C799 C798 1.390 . S
C799 H811 0.929 . S
O800 Tb784 2.326 . S
O800 C788 1.242 . S
O801 Eu785 2.324 . S
O801 C788 1.258 . S
O802 Tb784 2.500 . S
O802 C804 1.273 . S
O803 Tb784 2.473 . S
O803 C804 1.257 . S
C804 O802 1.273 . S
C804 O803 1.257 . S
O805 Eu785 2.326 . S
O805 C793 1.242 . S
O806 Tb784 2.324 . S
O806 C793 1.258 . S
O807 Eu785 2.500 . S
O807 C790 1.273 . S
O808 Eu785 2.473 . S
O808 C790 1.257 . S
H809 C795 0.929 . S
H810 C797 0.931 . S
H811 C799 0.929 . S
O812 Tb813 2.292 . S
O812 C815 1.255 . S
Tb813 O812 2.292 . S
Tb813 O829 2.326 . S
Tb813 O831 2.500 . S
Tb813 O832 2.473 . S
Tb813 O835 2.324 . S
Eu814 O818 2.292 . S
Eu814 C819 2.852 . S
Eu814 O830 2.324 . S
Eu814 O834 2.326 . S
Eu814 O836 2.500 . S
Eu814 O837 2.473 . S
C815 O812 1.255 . S
C815 O816 1.247 . S
O816 C815 1.247 . S
C817 O829 1.242 . S
C817 O830 1.258 . S
O818 Eu814 2.292 . S
O818 C820 1.255 1_545 S
C819 Eu814 2.852 . S
C819 C823 1.503 . S
C819 O836 1.273 . S
C819 O837 1.257 . S
C820 O818 1.255 1_565 S
C820 O821 1.247 1_565 S
O821 C820 1.247 1_545 S
C822 O834 1.242 . S
C822 O835 1.258 . S
C823 C819 1.503 . S
C823 C824 1.379 1_556 S
C823 C828 1.392 . S
C824 C823 1.379 1_554 S
C824 C825 1.404 . S
C824 H838 0.929 1_554 S
C825 C824 1.404 . S
C825 C826 1.389 . S
C826 C825 1.389 . S
C826 C827 1.399 . S
C826 H839 0.931 . S
C827 C826 1.399 . S
C827 C828 1.390 1_554 S
C828 C823 1.392 . S
C828 C827 1.390 1_556 S
C828 H840 0.929 . S
O829 Tb813 2.326 . S
O829 C817 1.242 . S
O830 Eu814 2.324 . S
O830 C817 1.258 . S
O831 Tb813 2.500 . S
O831 C833 1.273 . S
O832 Tb813 2.473 . S
O832 C833 1.257 . S
C833 O831 1.273 . S
C833 O832 1.257 . S
O834 Eu814 2.326 . S
O834 C822 1.242 . S
O835 Tb813 2.324 . S
O835 C822 1.258 . S
O836 Eu814 2.500 . S
O836 C819 1.273 . S
O837 Eu814 2.473 . S
O837 C819 1.257 . S
H838 C824 0.929 1_556 S
H839 C826 0.931 . S
H840 C828 0.929 . S
O841 Tb842 2.292 . S
O841 C844 1.255 . S
Tb842 O841 2.292 . S
Tb842 O858 2.326 . S
Tb842 O860 2.500 . S
Tb842 O861 2.473 . S
Tb842 O864 2.324 . S
Eu843 O847 2.292 . S
Eu843 C848 2.852 . S
Eu843 O859 2.324 . S
Eu843 O863 2.326 . S
Eu843 O865 2.500 . S
Eu843 O866 2.473 . S
C844 O841 1.255 . S
C844 O845 1.247 . S
O845 C844 1.247 . S
C846 O858 1.242 . S
C846 O859 1.258 . S
O847 Eu843 2.292 . S
O847 C849 1.255 . S
C848 Eu843 2.852 . S
C848 C852 1.503 . S
C848 O865 1.273 . S
C848 O866 1.257 . S
C849 O847 1.255 . S
C849 O850 1.247 . S
O850 C849 1.247 . S
C851 O863 1.242 . S
C851 O864 1.258 . S
C852 C848 1.503 . S
C852 C853 1.379 1_556 S
C852 C857 1.392 . S
C853 C852 1.379 1_554 S
C853 C854 1.404 . S
C853 H867 0.929 1_554 S
C854 C853 1.404 . S
C854 C855 1.389 . S
C855 C854 1.389 . S
C855 C856 1.399 . S
C855 H868 0.931 . S
C856 C855 1.399 . S
C856 C857 1.390 1_554 S
C857 C852 1.392 . S
C857 C856 1.390 1_556 S
C857 H869 0.929 . S
O858 Tb842 2.326 . S
O858 C846 1.242 . S
O859 Eu843 2.324 . S
O859 C846 1.258 . S
O860 Tb842 2.500 . S
O860 C862 1.273 . S
O861 Tb842 2.473 . S
O861 C862 1.257 . S
C862 O860 1.273 . S
C862 O861 1.257 . S
O863 Eu843 2.326 . S
O863 C851 1.242 . S
O864 Tb842 2.324 . S
O864 C851 1.258 . S
O865 Eu843 2.500 . S
O865 C848 1.273 . S
O866 Eu843 2.473 . S
O866 C848 1.257 . S
H867 C853 0.929 1_556 S
H868 C855 0.931 . S
H869 C857 0.929 . S
O870 Tb871 2.292 . S
O870 C873 1.255 . S
Tb871 O870 2.292 . S
Tb871 O887 2.326 . S
Tb871 O889 2.500 . S
Tb871 O890 2.473 . S
Tb871 O893 2.324 . S
Eu872 O876 2.292 . S
Eu872 C877 2.852 . S
Eu872 O888 2.324 . S
Eu872 O892 2.326 . S
Eu872 O894 2.500 . S
Eu872 O895 2.473 . S
C873 O870 1.255 . S
C873 O874 1.247 . S
O874 C873 1.247 . S
C875 O887 1.242 . S
C875 O888 1.258 . S
O876 Eu872 2.292 . S
O876 C878 1.255 . S
C877 Eu872 2.852 . S
C877 C881 1.503 . S
C877 O894 1.273 . S
C877 O895 1.257 . S
C878 O876 1.255 . S
C878 O879 1.247 . S
O879 C878 1.247 . S
C880 O892 1.242 . S
C880 O893 1.258 . S
C881 C877 1.503 . S
C881 C882 1.379 . S
C881 C886 1.392 . S
C882 C881 1.379 . S
C882 C883 1.404 . S
C882 H896 0.929 . S
C883 C882 1.404 . S
C883 C884 1.389 . S
C884 C883 1.389 . S
C884 C885 1.399 . S
C884 H897 0.931 . S
C885 C884 1.399 . S
C885 C886 1.390 . S
C886 C881 1.392 . S
C886 C885 1.390 . S
C886 H898 0.929 . S
O887 Tb871 2.326 . S
O887 C875 1.242 . S
O888 Eu872 2.324 . S
O888 C875 1.258 . S
O889 Tb871 2.500 . S
O889 C891 1.273 . S
O890 Tb871 2.473 . S
O890 C891 1.257 . S
C891 O889 1.273 . S
C891 O890 1.257 . S
O892 Eu872 2.326 . S
O892 C880 1.242 . S
O893 Tb871 2.324 . S
O893 C880 1.258 . S
O894 Eu872 2.500 . S
O894 C877 1.273 . S
O895 Eu872 2.473 . S
O895 C877 1.257 . S
H896 C882 0.929 . S
H897 C884 0.931 . S
H898 C886 0.929 . S
O899 Tb900 2.292 . S
O899 C902 1.255 . S
Tb900 O899 2.292 . S
Tb900 O916 2.326 . S
Tb900 O918 2.500 . S
Tb900 O919 2.473 . S
Tb900 O922 2.324 . S
Eu901 O905 2.292 . S
Eu901 C906 2.852 . S
Eu901 O917 2.324 . S
Eu901 O921 2.326 . S
Eu901 O923 2.500 . S
Eu901 O924 2.473 . S
C902 O899 1.255 . S
C902 O903 1.247 . S
O903 C902 1.247 . S
C904 O916 1.242 . S
C904 O917 1.258 . S
O905 Eu901 2.292 . S
O905 C907 1.255 1_545 S
C906 Eu901 2.852 . S
C906 C910 1.503 . S
C906 O923 1.273 . S
C906 O924 1.257 . S
C907 O905 1.255 1_565 S
C907 O908 1.247 1_565 S
O908 C907 1.247 1_545 S
C909 O921 1.242 . S
C909 O922 1.258 . S
C910 C906 1.503 . S
C910 C911 1.379 . S
C910 C915 1.392 . S
C911 C910 1.379 . S
C911 C912 1.404 . S
C911 H925 0.929 . S
C912 C911 1.404 . S
C912 C913 1.389 . S
C913 C912 1.389 . S
C913 C914 1.399 . S
C913 H926 0.931 . S
C914 C913 1.399 . S
C914 C915 1.390 . S
C915 C910 1.392 . S
C915 C914 1.390 . S
C915 H927 0.929 . S
O916 Tb900 2.326 . S
O916 C904 1.242 . S
O917 Eu901 2.324 . S
O917 C904 1.258 . S
O918 Tb900 2.500 . S
O918 C920 1.273 . S
O919 Tb900 2.473 . S
O919 C920 1.257 . S
C920 O918 1.273 . S
C920 O919 1.257 . S
O921 Eu901 2.326 . S
O921 C909 1.242 . S
O922 Tb900 2.324 . S
O922 C909 1.258 . S
O923 Eu901 2.500 . S
O923 C906 1.273 . S
O924 Eu901 2.473 . S
O924 C906 1.257 . S
H925 C911 0.929 . S
H926 C913 0.931 . S
H927 C915 0.929 . S
H928 C936 0.950 . S
H929 C941 0.950 . S
H930 C938 0.950 . S
H931 C940 0.950 . S
H932 C942 0.950 . S
H933 C944 0.950 . S
H934 C946 0.950 . S
H935 C947 0.950 . S
C936 H928 0.950 . S
C936 C937 1.386 . S
C936 C938 1.391 . S
C937 C936 1.386 . S
C937 C941 1.393 . S
C938 H930 0.950 . S
C938 C936 1.391 . S
C938 C939 1.400 . S
C939 C938 1.400 . S
C939 C940 1.398 . S
C939 C945 1.491 . S
C940 H931 0.950 . S
C940 C939 1.398 . S
C940 C941 1.391 . S
C941 H929 0.950 . S
C941 C937 1.393 . S
C941 C940 1.391 . S
C942 H932 0.950 . S
C942 C943 1.386 . S
C942 C944 1.391 . S
C943 C942 1.386 . S
C943 C947 1.393 . S
C944 H933 0.950 . S
C944 C942 1.391 . S
C944 C945 1.400 . S
C945 C939 1.491 . S
C945 C944 1.400 . S
C945 C946 1.398 . S
C946 H934 0.950 . S
C946 C945 1.398 . S
C946 C947 1.391 . S
C947 H935 0.950 . S
C947 C943 1.393 . S
C947 C946 1.391 . S
H948 C956 0.950 . S
H949 C961 0.950 . S
H950 C958 0.950 . S
H951 C960 0.950 . S
H952 C962 0.950 . S
H953 C964 0.950 . S
H954 C966 0.950 . S
H955 C967 0.950 . S
C956 H948 0.950 . S
C956 C957 1.386 . S
C956 C958 1.391 . S
C957 C956 1.386 . S
C957 C961 1.393 . S
C958 H950 0.950 . S
C958 C956 1.391 . S
C958 C959 1.400 . S
C959 C958 1.400 . S
C959 C960 1.398 . S
C959 C965 1.491 . S
C960 H951 0.950 . S
C960 C959 1.398 . S
C960 C961 1.391 . S
C961 H949 0.950 . S
C961 C957 1.393 . S
C961 C960 1.391 . S
C962 H952 0.950 . S
C962 C963 1.386 . S
C962 C964 1.391 . S
C963 C962 1.386 . S
C963 C967 1.393 . S
C964 H953 0.950 . S
C964 C962 1.391 . S
C964 C965 1.400 . S
C965 C959 1.491 . S
C965 C964 1.400 . S
C965 C966 1.398 . S
C966 H954 0.950 . S
C966 C965 1.398 . S
C966 C967 1.391 . S
C967 H955 0.950 . S
C967 C963 1.393 . S
C967 C966 1.391 . S
H968 C976 0.950 . S
H969 C981 0.950 . S
H970 C978 0.950 . S
H971 C980 0.950 . S
H972 C982 0.950 . S
H973 C984 0.950 . S
H974 C986 0.950 . S
H975 C987 0.950 . S
C976 H968 0.950 . S
C976 C977 1.386 . S
C976 C978 1.391 . S
C977 C976 1.386 . S
C977 C981 1.393 . S
C978 H970 0.950 . S
C978 C976 1.391 . S
C978 C979 1.400 . S
C979 C978 1.400 . S
C979 C980 1.398 . S
C979 C985 1.491 . S
C980 H971 0.950 . S
C980 C979 1.398 . S
C980 C981 1.391 . S
C981 H969 0.950 . S
C981 C977 1.393 . S
C981 C980 1.391 . S
C982 H972 0.950 . S
C982 C983 1.386 . S
C982 C984 1.391 . S
C983 C982 1.386 . S
C983 C987 1.393 . S
C984 H973 0.950 . S
C984 C982 1.391 . S
C984 C985 1.400 . S
C985 C979 1.491 . S
C985 C984 1.400 . S
C985 C986 1.398 . S
C986 H974 0.950 . S
C986 C985 1.398 . S
C986 C987 1.391 . S
C987 H975 0.950 . S
C987 C983 1.393 . S
C987 C986 1.391 . S
H988 C996 0.950 . S
H989 C1001 0.950 . S
H990 C998 0.950 . S
H991 C1000 0.950 . S
H992 C1002 0.950 . S
H993 C1004 0.950 . S
H994 C1006 0.950 . S
H995 C1007 0.950 . S
C996 H988 0.950 . S
C996 C997 1.386 . S
C996 C998 1.391 . S
C997 C996 1.386 . S
C997 C1001 1.393 . S
C998 H990 0.950 . S
C998 C996 1.391 . S
C998 C999 1.400 . S
C999 C998 1.400 . S
C999 C1000 1.398 . S
C999 C1005 1.491 . S
C1000 H991 0.950 . S
C1000 C999 1.398 . S
C1000 C1001 1.391 . S
C1001 H989 0.950 . S
C1001 C997 1.393 . S
C1001 C1000 1.391 . S
C1002 H992 0.950 . S
C1002 C1003 1.386 . S
C1002 C1004 1.391 . S
C1003 C1002 1.386 . S
C1003 C1007 1.393 . S
C1004 H993 0.950 . S
C1004 C1002 1.391 . S
C1004 C1005 1.400 . S
C1005 C999 1.491 . S
C1005 C1004 1.400 . S
C1005 C1006 1.398 . S
C1006 H994 0.950 . S
C1006 C1005 1.398 . S
C1006 C1007 1.391 . S
C1007 H995 0.950 . S
C1007 C1003 1.393 . S
C1007 C1006 1.391 . S
H1008 C1016 0.950 . S
H1009 C1021 0.950 . S
H1010 C1018 0.950 . S
H1011 C1020 0.950 . S
H1012 C1022 0.950 . S
H1013 C1024 0.950 . S
H1014 C1026 0.950 . S
H1015 C1027 0.950 . S
C1016 H1008 0.950 . S
C1016 C1017 1.386 . S
C1016 C1018 1.391 . S
C1017 C1016 1.386 . S
C1017 C1021 1.393 . S
C1018 H1010 0.950 . S
C1018 C1016 1.391 . S
C1018 C1019 1.400 . S
C1019 C1018 1.400 . S
C1019 C1020 1.398 . S
C1019 C1025 1.491 . S
C1020 H1011 0.950 . S
C1020 C1019 1.398 . S
C1020 C1021 1.391 . S
C1021 H1009 0.950 . S
C1021 C1017 1.393 . S
C1021 C1020 1.391 . S
C1022 H1012 0.950 . S
C1022 C1023 1.386 . S
C1022 C1024 1.391 . S
C1023 C1022 1.386 . S
C1023 C1027 1.393 . S
C1024 H1013 0.950 . S
C1024 C1022 1.391 . S
C1024 C1025 1.400 . S
C1025 C1019 1.491 . S
C1025 C1024 1.400 . S
C1025 C1026 1.398 . S
C1026 H1014 0.950 . S
C1026 C1025 1.398 . S
C1026 C1027 1.391 . S
C1027 H1015 0.950 . S
C1027 C1023 1.393 . S
C1027 C1026 1.391 . S
H1028 C1036 0.950 . S
H1029 C1041 0.950 . S
H1030 C1038 0.950 . S
H1031 C1040 0.950 . S
H1032 C1042 0.950 . S
H1033 C1044 0.950 . S
H1034 C1046 0.950 . S
H1035 C1047 0.950 . S
C1036 H1028 0.950 . S
C1036 C1037 1.386 . S
C1036 C1038 1.391 . S
C1037 C1036 1.386 . S
C1037 C1041 1.393 . S
C1038 H1030 0.950 . S
C1038 C1036 1.391 . S
C1038 C1039 1.400 . S
C1039 C1038 1.400 . S
C1039 C1040 1.398 . S
C1039 C1045 1.491 . S
C1040 H1031 0.950 . S
C1040 C1039 1.398 . S
C1040 C1041 1.391 . S
C1041 H1029 0.950 . S
C1041 C1037 1.393 . S
C1041 C1040 1.391 . S
C1042 H1032 0.950 . S
C1042 C1043 1.386 . S
C1042 C1044 1.391 . S
C1043 C1042 1.386 . S
C1043 C1047 1.393 . S
C1044 H1033 0.950 . S
C1044 C1042 1.391 . S
C1044 C1045 1.400 . S
C1045 C1039 1.491 . S
C1045 C1044 1.400 . S
C1045 C1046 1.398 . S
C1046 H1034 0.950 . S
C1046 C1045 1.398 . S
C1046 C1047 1.391 . S
C1047 H1035 0.950 . S
C1047 C1043 1.393 . S
C1047 C1046 1.391 . S
H1048 C1056 0.950 . S
H1049 C1061 0.950 . S
H1050 C1058 0.950 . S
H1051 C1060 0.950 . S
H1052 C1062 0.950 . S
H1053 C1064 0.950 . S
H1054 C1066 0.950 . S
H1055 C1067 0.950 . S
C1056 H1048 0.950 . S
C1056 C1057 1.386 . S
C1056 C1058 1.391 . S
C1057 C1056 1.386 . S
C1057 C1061 1.393 . S
C1058 H1050 0.950 . S
C1058 C1056 1.391 . S
C1058 C1059 1.400 . S
C1059 C1058 1.400 . S
C1059 C1060 1.398 . S
C1059 C1065 1.491 . S
C1060 H1051 0.950 . S
C1060 C1059 1.398 . S
C1060 C1061 1.391 . S
C1061 H1049 0.950 . S
C1061 C1057 1.393 . S
C1061 C1060 1.391 . S
C1062 H1052 0.950 . S
C1062 C1063 1.386 . S
C1062 C1064 1.391 . S
C1063 C1062 1.386 . S
C1063 C1067 1.393 . S
C1064 H1053 0.950 . S
C1064 C1062 1.391 . S
C1064 C1065 1.400 . S
C1065 C1059 1.491 . S
C1065 C1064 1.400 . S
C1065 C1066 1.398 . S
C1066 H1054 0.950 . S
C1066 C1065 1.398 . S
C1066 C1067 1.391 . S
C1067 H1055 0.950 . S
C1067 C1063 1.393 . S
C1067 C1066 1.391 . S
H1068 C1076 0.950 . S
H1069 C1081 0.950 . S
H1070 C1078 0.950 . S
H1071 C1080 0.950 . S
H1072 C1082 0.950 . S
H1073 C1084 0.950 . S
H1074 C1086 0.950 . S
H1075 C1087 0.950 . S
C1076 H1068 0.950 . S
C1076 C1077 1.386 . S
C1076 C1078 1.391 . S
C1077 C1076 1.386 . S
C1077 C1081 1.393 . S
C1078 H1070 0.950 . S
C1078 C1076 1.391 . S
C1078 C1079 1.400 . S
C1079 C1078 1.400 . S
C1079 C1080 1.398 . S
C1079 C1085 1.491 . S
C1080 H1071 0.950 . S
C1080 C1079 1.398 . S
C1080 C1081 1.391 . S
C1081 H1069 0.950 . S
C1081 C1077 1.393 . S
C1081 C1080 1.391 . S
C1082 H1072 0.950 . S
C1082 C1083 1.386 . S
C1082 C1084 1.391 . S
C1083 C1082 1.386 . S
C1083 C1087 1.393 . S
C1084 H1073 0.950 . S
C1084 C1082 1.391 . S
C1084 C1085 1.400 . S
C1085 C1079 1.491 . S
C1085 C1084 1.400 . S
C1085 C1086 1.398 . S
C1086 H1074 0.950 . S
C1086 C1085 1.398 . S
C1086 C1087 1.391 . S
C1087 H1075 0.950 . S
C1087 C1083 1.393 . S
C1087 C1086 1.391 . S
H1088 C1096 0.950 . S
H1089 C1101 0.950 . S
H1090 C1098 0.950 . S
H1091 C1100 0.950 . S
H1092 C1102 0.950 . S
H1093 C1104 0.950 . S
H1094 C1106 0.950 . S
H1095 C1107 0.950 . S
C1096 H1088 0.950 . S
C1096 C1097 1.386 . S
C1096 C1098 1.391 . S
C1097 C1096 1.386 . S
C1097 C1101 1.393 . S
C1098 H1090 0.950 . S
C1098 C1096 1.391 . S
C1098 C1099 1.400 . S
C1099 C1098 1.400 . S
C1099 C1100 1.398 . S
C1099 C1105 1.491 . S
C1100 H1091 0.950 . S
C1100 C1099 1.398 . S
C1100 C1101 1.391 . S
C1101 H1089 0.950 . S
C1101 C1097 1.393 . S
C1101 C1100 1.391 . S
C1102 H1092 0.950 . S
C1102 C1103 1.386 . S
C1102 C1104 1.391 . S
C1103 C1102 1.386 . S
C1103 C1107 1.393 . S
C1104 H1093 0.950 . S
C1104 C1102 1.391 . S
C1104 C1105 1.400 . S
C1105 C1099 1.491 . S
C1105 C1104 1.400 . S
C1105 C1106 1.398 . S
C1106 H1094 0.950 . S
C1106 C1105 1.398 . S
C1106 C1107 1.391 . S
C1107 H1095 0.950 . S
C1107 C1103 1.393 . S
C1107 C1106 1.391 . S
H1108 C1116 0.950 . S
H1109 C1121 0.950 . S
H1110 C1118 0.950 . S
H1111 C1120 0.950 . S
H1112 C1122 0.950 . S
H1113 C1124 0.950 . S
H1114 C1126 0.950 . S
H1115 C1127 0.950 . S
C1116 H1108 0.950 . S
C1116 C1117 1.386 . S
C1116 C1118 1.391 . S
C1117 C1116 1.386 . S
C1117 C1121 1.393 . S
C1118 H1110 0.950 . S
C1118 C1116 1.391 . S
C1118 C1119 1.400 . S
C1119 C1118 1.400 . S
C1119 C1120 1.398 . S
C1119 C1125 1.491 . S
C1120 H1111 0.950 . S
C1120 C1119 1.398 . S
C1120 C1121 1.391 . S
C1121 H1109 0.950 . S
C1121 C1117 1.393 . S
C1121 C1120 1.391 . S
C1122 H1112 0.950 . S
C1122 C1123 1.386 . S
C1122 C1124 1.391 . S
C1123 C1122 1.386 . S
C1123 C1127 1.393 . S
C1124 H1113 0.950 . S
C1124 C1122 1.391 . S
C1124 C1125 1.400 . S
C1125 C1119 1.491 . S
C1125 C1124 1.400 . S
C1125 C1126 1.398 . S
C1126 H1114 0.950 . S
C1126 C1125 1.398 . S
C1126 C1127 1.391 . S
C1127 H1115 0.950 . S
C1127 C1123 1.393 . S
C1127 C1126 1.391 . S
H1128 C1136 0.950 . S
H1129 C1141 0.950 . S
H1130 C1138 0.950 . S
H1131 C1140 0.950 . S
H1132 C1142 0.950 . S
H1133 C1144 0.950 . S
H1134 C1146 0.950 . S
H1135 C1147 0.950 . S
C1136 H1128 0.950 . S
C1136 C1137 1.386 . S
C1136 C1138 1.391 . S
C1137 C1136 1.386 . S
C1137 C1141 1.393 . S
C1138 H1130 0.950 . S
C1138 C1136 1.391 . S
C1138 C1139 1.400 . S
C1139 C1138 1.400 . S
C1139 C1140 1.398 . S
C1139 C1145 1.491 . S
C1140 H1131 0.950 . S
C1140 C1139 1.398 . S
C1140 C1141 1.391 . S
C1141 H1129 0.950 . S
C1141 C1137 1.393 . S
C1141 C1140 1.391 . S
C1142 H1132 0.950 . S
C1142 C1143 1.386 . S
C1142 C1144 1.391 . S
C1143 C1142 1.386 . S
C1143 C1147 1.393 . S
C1144 H1133 0.950 . S
C1144 C1142 1.391 . S
C1144 C1145 1.400 . S
C1145 C1139 1.491 . S
C1145 C1144 1.400 . S
C1145 C1146 1.398 . S
C1146 H1134 0.950 . S
C1146 C1145 1.398 . S
C1146 C1147 1.391 . S
C1147 H1135 0.950 . S
C1147 C1143 1.393 . S
C1147 C1146 1.391 . S
H1148 C1156 0.950 . S
H1149 C1161 0.950 . S
H1150 C1158 0.950 . S
H1151 C1160 0.950 . S
H1152 C1162 0.950 . S
H1153 C1164 0.950 . S
H1154 C1166 0.950 . S
H1155 C1167 0.950 . S
C1156 H1148 0.950 . S
C1156 C1157 1.386 . S
C1156 C1158 1.391 . S
C1157 C1156 1.386 . S
C1157 C1161 1.393 . S
C1158 H1150 0.950 . S
C1158 C1156 1.391 . S
C1158 C1159 1.400 . S
C1159 C1158 1.400 . S
C1159 C1160 1.398 . S
C1159 C1165 1.491 . S
C1160 H1151 0.950 . S
C1160 C1159 1.398 . S
C1160 C1161 1.391 . S
C1161 H1149 0.950 . S
C1161 C1157 1.393 . S
C1161 C1160 1.391 . S
C1162 H1152 0.950 . S
C1162 C1163 1.386 . S
C1162 C1164 1.391 . S
C1163 C1162 1.386 . S
C1163 C1167 1.393 . S
C1164 H1153 0.950 . S
C1164 C1162 1.391 . S
C1164 C1165 1.400 . S
C1165 C1159 1.491 . S
C1165 C1164 1.400 . S
C1165 C1166 1.398 . S
C1166 H1154 0.950 . S
C1166 C1165 1.398 . S
C1166 C1167 1.391 . S
C1167 H1155 0.950 . S
C1167 C1163 1.393 . S
C1167 C1166 1.391 . S
H1168 C1176 0.950 . S
H1169 C1181 0.950 . S
H1170 C1178 0.950 . S
H1171 C1180 0.950 . S
H1172 C1182 0.950 . S
H1173 C1184 0.950 . S
H1174 C1186 0.950 . S
H1175 C1187 0.950 . S
C1176 H1168 0.950 . S
C1176 C1177 1.386 . S
C1176 C1178 1.391 . S
C1177 C1176 1.386 . S
C1177 C1181 1.393 . S
C1178 H1170 0.950 . S
C1178 C1176 1.391 . S
C1178 C1179 1.400 . S
C1179 C1178 1.400 . S
C1179 C1180 1.398 . S
C1179 C1185 1.491 . S
C1180 H1171 0.950 . S
C1180 C1179 1.398 . S
C1180 C1181 1.391 . S
C1181 H1169 0.950 . S
C1181 C1177 1.393 . S
C1181 C1180 1.391 . S
C1182 H1172 0.950 . S
C1182 C1183 1.386 . S
C1182 C1184 1.391 . S
C1183 C1182 1.386 . S
C1183 C1187 1.393 . S
C1184 H1173 0.950 . S
C1184 C1182 1.391 . S
C1184 C1185 1.400 . S
C1185 C1179 1.491 . S
C1185 C1184 1.400 . S
C1185 C1186 1.398 . S
C1186 H1174 0.950 . S
C1186 C1185 1.398 . S
C1186 C1187 1.391 . S
C1187 H1175 0.950 . S
C1187 C1183 1.393 . S
C1187 C1186 1.391 . S
H1188 C1196 0.950 . S
H1189 C1201 0.950 . S
H1190 C1198 0.950 . S
H1191 C1200 0.950 . S
H1192 C1202 0.950 . S
H1193 C1204 0.950 . S
H1194 C1206 0.950 . S
H1195 C1207 0.950 . S
C1196 H1188 0.950 . S
C1196 C1197 1.386 . S
C1196 C1198 1.391 . S
C1197 C1196 1.386 . S
C1197 C1201 1.393 . S
C1198 H1190 0.950 . S
C1198 C1196 1.391 . S
C1198 C1199 1.400 . S
C1199 C1198 1.400 . S
C1199 C1200 1.398 . S
C1199 C1205 1.491 . S
C1200 H1191 0.950 . S
C1200 C1199 1.398 . S
C1200 C1201 1.391 . S
C1201 H1189 0.950 . S
C1201 C1197 1.393 . S
C1201 C1200 1.391 . S
C1202 H1192 0.950 . S
C1202 C1203 1.386 . S
C1202 C1204 1.391 . S
C1203 C1202 1.386 . S
C1203 C1207 1.393 . S
C1204 H1193 0.950 . S
C1204 C1202 1.391 . S
C1204 C1205 1.400 . S
C1205 C1199 1.491 . S
C1205 C1204 1.400 . S
C1205 C1206 1.398 . S
C1206 H1194 0.950 . S
C1206 C1205 1.398 . S
C1206 C1207 1.391 . S
C1207 H1195 0.950 . S
C1207 C1203 1.393 . S
C1207 C1206 1.391 . S
H1208 C1216 0.950 . S
H1209 C1221 0.950 . S
H1210 C1218 0.950 . S
H1211 C1220 0.950 . S
H1212 C1222 0.950 . S
H1213 C1224 0.950 . S
H1214 C1226 0.950 . S
H1215 C1227 0.950 . S
C1216 H1208 0.950 . S
C1216 C1217 1.386 . S
C1216 C1218 1.391 . S
C1217 C1216 1.386 . S
C1217 C1221 1.393 . S
C1218 H1210 0.950 . S
C1218 C1216 1.391 . S
C1218 C1219 1.400 . S
C1219 C1218 1.400 . S
C1219 C1220 1.398 . S
C1219 C1225 1.491 . S
C1220 H1211 0.950 . S
C1220 C1219 1.398 . S
C1220 C1221 1.391 . S
C1221 H1209 0.950 . S
C1221 C1217 1.393 . S
C1221 C1220 1.391 . S
C1222 H1212 0.950 . S
C1222 C1223 1.386 . S
C1222 C1224 1.391 . S
C1223 C1222 1.386 . S
C1223 C1227 1.393 . S
C1224 H1213 0.950 . S
C1224 C1222 1.391 . S
C1224 C1225 1.400 . S
C1225 C1219 1.491 . S
C1225 C1224 1.400 . S
C1225 C1226 1.398 . S
C1226 H1214 0.950 . S
C1226 C1225 1.398 . S
C1226 C1227 1.391 . S
C1227 H1215 0.950 . S
C1227 C1223 1.393 . S
C1227 C1226 1.391 . S
H1228 C1236 0.950 . S
H1229 C1241 0.950 . S
H1230 C1238 0.950 . S
H1231 C1240 0.950 . S
H1232 C1242 0.950 . S
H1233 C1244 0.950 . S
H1234 C1246 0.950 . S
H1235 C1247 0.950 . S
C1236 H1228 0.950 . S
C1236 C1237 1.386 . S
C1236 C1238 1.391 . S
C1237 C1236 1.386 . S
C1237 C1241 1.393 . S
C1238 H1230 0.950 . S
C1238 C1236 1.391 . S
C1238 C1239 1.400 . S
C1239 C1238 1.400 . S
C1239 C1240 1.398 . S
C1239 C1245 1.491 . S
C1240 H1231 0.950 . S
C1240 C1239 1.398 . S
C1240 C1241 1.391 . S
C1241 H1229 0.950 . S
C1241 C1237 1.393 . S
C1241 C1240 1.391 . S
C1242 H1232 0.950 . S
C1242 C1243 1.386 . S
C1242 C1244 1.391 . S
C1243 C1242 1.386 . S
C1243 C1247 1.393 . S
C1244 H1233 0.950 . S
C1244 C1242 1.391 . S
C1244 C1245 1.400 . S
C1245 C1239 1.491 . S
C1245 C1244 1.400 . S
C1245 C1246 1.398 . S
C1246 H1234 0.950 . S
C1246 C1245 1.398 . S
C1246 C1247 1.391 . S
C1247 H1235 0.950 . S
C1247 C1243 1.393 . S
C1247 C1246 1.391 . S
H1248 C1256 0.950 . S
H1249 C1261 0.950 . S
H1250 C1258 0.950 . S
H1251 C1260 0.950 . S
H1252 C1262 0.950 . S
H1253 C1264 0.950 . S
H1254 C1266 0.950 . S
H1255 C1267 0.950 . S
C1256 H1248 0.950 . S
C1256 C1257 1.386 . S
C1256 C1258 1.391 . S
C1257 C1256 1.386 . S
C1257 C1261 1.393 . S
C1258 H1250 0.950 . S
C1258 C1256 1.391 . S
C1258 C1259 1.400 . S
C1259 C1258 1.400 . S
C1259 C1260 1.398 . S
C1259 C1265 1.491 . S
C1260 H1251 0.950 . S
C1260 C1259 1.398 . S
C1260 C1261 1.391 . S
C1261 H1249 0.950 . S
C1261 C1257 1.393 . S
C1261 C1260 1.391 . S
C1262 H1252 0.950 . S
C1262 C1263 1.386 . S
C1262 C1264 1.391 . S
C1263 C1262 1.386 . S
C1263 C1267 1.393 . S
C1264 H1253 0.950 . S
C1264 C1262 1.391 . S
C1264 C1265 1.400 . S
C1265 C1259 1.491 . S
C1265 C1264 1.400 . S
C1265 C1266 1.398 . S
C1266 H1254 0.950 . S
C1266 C1265 1.398 . S
C1266 C1267 1.391 . S
C1267 H1255 0.950 . S
C1267 C1263 1.393 . S
C1267 C1266 1.391 . S
H1268 C1276 0.950 . S
H1269 C1281 0.950 . S
H1270 C1278 0.950 . S
H1271 C1280 0.950 . S
H1272 C1282 0.950 . S
H1273 C1284 0.950 . S
H1274 C1286 0.950 . S
H1275 C1287 0.950 . S
C1276 H1268 0.950 . S
C1276 C1277 1.386 . S
C1276 C1278 1.391 . S
C1277 C1276 1.386 . S
C1277 C1281 1.393 . S
C1278 H1270 0.950 . S
C1278 C1276 1.391 . S
C1278 C1279 1.400 . S
C1279 C1278 1.400 . S
C1279 C1280 1.398 . S
C1279 C1285 1.491 . S
C1280 H1271 0.950 . S
C1280 C1279 1.398 . S
C1280 C1281 1.391 . S
C1281 H1269 0.950 . S
C1281 C1277 1.393 . S
C1281 C1280 1.391 . S
C1282 H1272 0.950 . S
C1282 C1283 1.386 . S
C1282 C1284 1.391 . S
C1283 C1282 1.386 . S
C1283 C1287 1.393 . S
C1284 H1273 0.950 . S
C1284 C1282 1.391 . S
C1284 C1285 1.400 . S
C1285 C1279 1.491 . S
C1285 C1284 1.400 . S
C1285 C1286 1.398 . S
C1286 H1274 0.950 . S
C1286 C1285 1.398 . S
C1286 C1287 1.391 . S
C1287 H1275 0.950 . S
C1287 C1283 1.393 . S
C1287 C1286 1.391 . S
H1288 C1296 0.950 . S
H1289 C1301 0.950 . S
H1290 C1298 0.950 . S
H1291 C1300 0.950 . S
H1292 C1302 0.950 . S
H1293 C1304 0.950 . S
H1294 C1306 0.950 . S
H1295 C1307 0.950 . S
C1296 H1288 0.950 . S
C1296 C1297 1.386 . S
C1296 C1298 1.391 . S
C1297 C1296 1.386 . S
C1297 C1301 1.393 . S
C1298 H1290 0.950 . S
C1298 C1296 1.391 . S
C1298 C1299 1.400 . S
C1299 C1298 1.400 . S
C1299 C1300 1.398 . S
C1299 C1305 1.491 . S
C1300 H1291 0.950 . S
C1300 C1299 1.398 . S
C1300 C1301 1.391 . S
C1301 H1289 0.950 . S
C1301 C1297 1.393 . S
C1301 C1300 1.391 . S
C1302 H1292 0.950 . S
C1302 C1303 1.386 . S
C1302 C1304 1.391 . S
C1303 C1302 1.386 . S
C1303 C1307 1.393 . S
C1304 H1293 0.950 . S
C1304 C1302 1.391 . S
C1304 C1305 1.400 . S
C1305 C1299 1.491 . S
C1305 C1304 1.400 . S
C1305 C1306 1.398 . S
C1306 H1294 0.950 . S
C1306 C1305 1.398 . S
C1306 C1307 1.391 . S
C1307 H1295 0.950 . S
C1307 C1303 1.393 . S
C1307 C1306 1.391 . S
H1308 C1316 0.950 . S
H1309 C1321 0.950 . S
H1310 C1318 0.950 . S
H1311 C1320 0.950 . S
H1312 C1322 0.950 . S
H1313 C1324 0.950 . S
H1314 C1326 0.950 . S
H1315 C1327 0.950 . S
C1316 H1308 0.950 . S
C1316 C1317 1.386 . S
C1316 C1318 1.391 . S
C1317 C1316 1.386 . S
C1317 C1321 1.393 . S
C1318 H1310 0.950 . S
C1318 C1316 1.391 . S
C1318 C1319 1.400 . S
C1319 C1318 1.400 . S
C1319 C1320 1.398 . S
C1319 C1325 1.491 . S
C1320 H1311 0.950 . S
C1320 C1319 1.398 . S
C1320 C1321 1.391 . S
C1321 H1309 0.950 . S
C1321 C1317 1.393 . S
C1321 C1320 1.391 . S
C1322 H1312 0.950 . S
C1322 C1323 1.386 . S
C1322 C1324 1.391 . S
C1323 C1322 1.386 . S
C1323 C1327 1.393 . S
C1324 H1313 0.950 . S
C1324 C1322 1.391 . S
C1324 C1325 1.400 . S
C1325 C1319 1.491 . S
C1325 C1324 1.400 . S
C1325 C1326 1.398 . S
C1326 H1314 0.950 . S
C1326 C1325 1.398 . S
C1326 C1327 1.391 . S
C1327 H1315 0.950 . S
C1327 C1323 1.393 . S
C1327 C1326 1.391 . S
H1328 C1336 0.950 . S
H1329 C1341 0.950 . S
H1330 C1338 0.950 . S
H1331 C1340 0.950 . S
H1332 C1342 0.950 . S
H1333 C1344 0.950 . S
H1334 C1346 0.950 . S
H1335 C1347 0.950 . S
C1336 H1328 0.950 . S
C1336 C1337 1.386 . S
C1336 C1338 1.391 . S
C1337 C1336 1.386 . S
C1337 C1341 1.393 . S
C1338 H1330 0.950 . S
C1338 C1336 1.391 . S
C1338 C1339 1.400 . S
C1339 C1338 1.400 . S
C1339 C1340 1.398 . S
C1339 C1345 1.491 . S
C1340 H1331 0.950 . S
C1340 C1339 1.398 . S
C1340 C1341 1.391 . S
C1341 H1329 0.950 . S
C1341 C1337 1.393 . S
C1341 C1340 1.391 . S
C1342 H1332 0.950 . S
C1342 C1343 1.386 . S
C1342 C1344 1.391 . S
C1343 C1342 1.386 . S
C1343 C1347 1.393 . S
C1344 H1333 0.950 . S
C1344 C1342 1.391 . S
C1344 C1345 1.400 . S
C1345 C1339 1.491 . S
C1345 C1344 1.400 . S
C1345 C1346 1.398 . S
C1346 H1334 0.950 . S
C1346 C1345 1.398 . S
C1346 C1347 1.391 . S
C1347 H1335 0.950 . S
C1347 C1343 1.393 . S
C1347 C1346 1.391 . S
H1348 C1356 0.950 . S
H1349 C1361 0.950 . S
H1350 C1358 0.950 . S
H1351 C1360 0.950 . S
H1352 C1362 0.950 . S
H1353 C1364 0.950 . S
H1354 C1366 0.950 . S
H1355 C1367 0.950 . S
C1356 H1348 0.950 . S
C1356 C1357 1.386 . S
C1356 C1358 1.391 . S
C1357 C1356 1.386 . S
C1357 C1361 1.393 . S
C1358 H1350 0.950 . S
C1358 C1356 1.391 . S
C1358 C1359 1.400 . S
C1359 C1358 1.400 . S
C1359 C1360 1.398 . S
C1359 C1365 1.491 . S
C1360 H1351 0.950 . S
C1360 C1359 1.398 . S
C1360 C1361 1.391 . S
C1361 H1349 0.950 . S
C1361 C1357 1.393 . S
C1361 C1360 1.391 . S
C1362 H1352 0.950 . S
C1362 C1363 1.386 . S
C1362 C1364 1.391 . S
C1363 C1362 1.386 . S
C1363 C1367 1.393 . S
C1364 H1353 0.950 . S
C1364 C1362 1.391 . S
C1364 C1365 1.400 . S
C1365 C1359 1.491 . S
C1365 C1364 1.400 . S
C1365 C1366 1.398 . S
C1366 H1354 0.950 . S
C1366 C1365 1.398 . S
C1366 C1367 1.391 . S
C1367 H1355 0.950 . S
C1367 C1363 1.393 . S
C1367 C1366 1.391 . S
H1368 C1376 0.950 . S
H1369 C1381 0.950 . S
H1370 C1378 0.950 . S
H1371 C1380 0.950 . S
H1372 C1382 0.950 . S
H1373 C1384 0.950 . S
H1374 C1386 0.950 . S
H1375 C1387 0.950 . S
C1376 H1368 0.950 . S
C1376 C1377 1.386 . S
C1376 C1378 1.391 . S
C1377 C1376 1.386 . S
C1377 C1381 1.393 . S
C1378 H1370 0.950 . S
C1378 C1376 1.391 . S
C1378 C1379 1.400 . S
C1379 C1378 1.400 . S
C1379 C1380 1.398 . S
C1379 C1385 1.491 . S
C1380 H1371 0.950 . S
C1380 C1379 1.398 . S
C1380 C1381 1.391 . S
C1381 H1369 0.950 . S
C1381 C1377 1.393 . S
C1381 C1380 1.391 . S
C1382 H1372 0.950 . S
C1382 C1383 1.386 . S
C1382 C1384 1.391 . S
C1383 C1382 1.386 . S
C1383 C1387 1.393 . S
C1384 H1373 0.950 . S
C1384 C1382 1.391 . S
C1384 C1385 1.400 . S
C1385 C1379 1.491 . S
C1385 C1384 1.400 . S
C1385 C1386 1.398 . S
C1386 H1374 0.950 . S
C1386 C1385 1.398 . S
C1386 C1387 1.391 . S
C1387 H1375 0.950 . S
C1387 C1383 1.393 . S
C1387 C1386 1.391 . S
H1388 C1396 0.950 . S
H1389 C1401 0.950 . S
H1390 C1398 0.950 . S
H1391 C1400 0.950 . S
H1392 C1402 0.950 . S
H1393 C1404 0.950 . S
H1394 C1406 0.950 . S
H1395 C1407 0.950 . S
C1396 H1388 0.950 . S
C1396 C1397 1.386 . S
C1396 C1398 1.391 . S
C1397 C1396 1.386 . S
C1397 C1401 1.393 . S
C1398 H1390 0.950 . S
C1398 C1396 1.391 . S
C1398 C1399 1.400 . S
C1399 C1398 1.400 . S
C1399 C1400 1.398 . S
C1399 C1405 1.491 . S
C1400 H1391 0.950 . S
C1400 C1399 1.398 . S
C1400 C1401 1.391 . S
C1401 H1389 0.950 . S
C1401 C1397 1.393 . S
C1401 C1400 1.391 . S
C1402 H1392 0.950 . S
C1402 C1403 1.386 . S
C1402 C1404 1.391 . S
C1403 C1402 1.386 . S
C1403 C1407 1.393 . S
C1404 H1393 0.950 . S
C1404 C1402 1.391 . S
C1404 C1405 1.400 . S
C1405 C1399 1.491 . S
C1405 C1404 1.400 . S
C1405 C1406 1.398 . S
C1406 H1394 0.950 . S
C1406 C1405 1.398 . S
C1406 C1407 1.391 . S
C1407 H1395 0.950 . S
C1407 C1403 1.393 . S
C1407 C1406 1.391 . S
H1408 C1416 0.950 . S
H1409 C1421 0.950 . S
H1410 C1418 0.950 . S
H1411 C1420 0.950 . S
H1412 C1422 0.950 . S
H1413 C1424 0.950 . S
H1414 C1426 0.950 . S
H1415 C1427 0.950 . S
C1416 H1408 0.950 . S
C1416 C1417 1.386 . S
C1416 C1418 1.391 . S
C1417 C1416 1.386 . S
C1417 C1421 1.393 . S
C1418 H1410 0.950 . S
C1418 C1416 1.391 . S
C1418 C1419 1.400 . S
C1419 C1418 1.400 . S
C1419 C1420 1.398 . S
C1419 C1425 1.491 . S
C1420 H1411 0.950 . S
C1420 C1419 1.398 . S
C1420 C1421 1.391 . S
C1421 H1409 0.950 . S
C1421 C1417 1.393 . S
C1421 C1420 1.391 . S
C1422 H1412 0.950 . S
C1422 C1423 1.386 . S
C1422 C1424 1.391 . S
C1423 C1422 1.386 . S
C1423 C1427 1.393 . S
C1424 H1413 0.950 . S
C1424 C1422 1.391 . S
C1424 C1425 1.400 . S
C1425 C1419 1.491 . S
C1425 C1424 1.400 . S
C1425 C1426 1.398 . S
C1426 H1414 0.950 . S
C1426 C1425 1.398 . S
C1426 C1427 1.391 . S
C1427 H1415 0.950 . S
C1427 C1423 1.393 . S
C1427 C1426 1.391 . S
H1428 C1436 0.950 . S
H1429 C1441 0.950 . S
H1430 C1438 0.950 . S
H1431 C1440 0.950 . S
H1432 C1442 0.950 1_565 S
H1433 C1444 0.950 . S
H1434 C1446 0.950 . S
H1435 C1447 0.950 . S
C1436 H1428 0.950 . S
C1436 C1437 1.386 . S
C1436 C1438 1.391 . S
C1437 C1436 1.386 . S
C1437 C1441 1.393 . S
C1438 H1430 0.950 . S
C1438 C1436 1.391 . S
C1438 C1439 1.400 . S
C1439 C1438 1.400 . S
C1439 C1440 1.398 . S
C1439 C1445 1.491 . S
C1440 H1431 0.950 . S
C1440 C1439 1.398 . S
C1440 C1441 1.391 . S
C1441 H1429 0.950 . S
C1441 C1437 1.393 . S
C1441 C1440 1.391 . S
C1442 H1432 0.950 1_545 S
C1442 C1443 1.386 . S
C1442 C1444 1.391 . S
C1443 C1442 1.386 . S
C1443 C1447 1.393 . S
C1444 H1433 0.950 . S
C1444 C1442 1.391 . S
C1444 C1445 1.400 . S
C1445 C1439 1.491 . S
C1445 C1444 1.400 . S
C1445 C1446 1.398 . S
C1446 H1434 0.950 . S
C1446 C1445 1.398 . S
C1446 C1447 1.391 . S
C1447 H1435 0.950 . S
C1447 C1443 1.393 . S
C1447 C1446 1.391 . S
H1448 C1456 0.950 . S
H1449 C1461 0.950 . S
H1450 C1458 0.950 . S
H1451 C1460 0.950 . S
H1452 C1462 0.950 . S
H1453 C1464 0.950 . S
H1454 C1466 0.950 . S
H1455 C1467 0.950 . S
C1456 H1448 0.950 . S
C1456 C1457 1.386 . S
C1456 C1458 1.391 . S
C1457 C1456 1.386 . S
C1457 C1461 1.393 . S
C1458 H1450 0.950 . S
C1458 C1456 1.391 . S
C1458 C1459 1.400 . S
C1459 C1458 1.400 . S
C1459 C1460 1.398 . S
C1459 C1465 1.491 . S
C1460 H1451 0.950 . S
C1460 C1459 1.398 . S
C1460 C1461 1.391 . S
C1461 H1449 0.950 . S
C1461 C1457 1.393 . S
C1461 C1460 1.391 . S
C1462 H1452 0.950 . S
C1462 C1463 1.386 . S
C1462 C1464 1.391 . S
C1463 C1462 1.386 . S
C1463 C1467 1.393 . S
C1464 H1453 0.950 . S
C1464 C1462 1.391 . S
C1464 C1465 1.400 . S
C1465 C1459 1.491 . S
C1465 C1464 1.400 . S
C1465 C1466 1.398 . S
C1466 H1454 0.950 . S
C1466 C1465 1.398 . S
C1466 C1467 1.391 . S
C1467 H1455 0.950 . S
C1467 C1463 1.393 . S
C1467 C1466 1.391 . S
H1468 C1476 0.950 . S
H1469 C1481 0.950 . S
H1470 C1478 0.950 . S
H1471 C1480 0.950 . S
H1472 C1482 0.950 . S
H1473 C1484 0.950 . S
H1474 C1486 0.950 . S
H1475 C1487 0.950 . S
C1476 H1468 0.950 . S
C1476 C1477 1.386 . S
C1476 C1478 1.391 . S
C1477 C1476 1.386 . S
C1477 C1481 1.393 . S
C1478 H1470 0.950 . S
C1478 C1476 1.391 . S
C1478 C1479 1.400 . S
C1479 C1478 1.400 . S
C1479 C1480 1.398 . S
C1479 C1485 1.491 . S
C1480 H1471 0.950 . S
C1480 C1479 1.398 . S
C1480 C1481 1.391 . S
C1481 H1469 0.950 . S
C1481 C1477 1.393 . S
C1481 C1480 1.391 . S
C1482 H1472 0.950 . S
C1482 C1483 1.386 . S
C1482 C1484 1.391 . S
C1483 C1482 1.386 . S
C1483 C1487 1.393 . S
C1484 H1473 0.950 . S
C1484 C1482 1.391 . S
C1484 C1485 1.400 . S
C1485 C1479 1.491 . S
C1485 C1484 1.400 . S
C1485 C1486 1.398 . S
C1486 H1474 0.950 . S
C1486 C1485 1.398 . S
C1486 C1487 1.391 . S
C1487 H1475 0.950 . S
C1487 C1483 1.393 . S
C1487 C1486 1.391 . S
H1488 C1496 0.950 . S
H1489 C1501 0.950 . S
H1490 C1498 0.950 . S
H1491 C1500 0.950 . S
H1492 C1502 0.950 . S
H1493 C1504 0.950 . S
H1494 C1506 0.950 . S
H1495 C1507 0.950 . S
C1496 H1488 0.950 . S
C1496 C1497 1.386 . S
C1496 C1498 1.391 . S
C1497 C1496 1.386 . S
C1497 C1501 1.393 . S
C1498 H1490 0.950 . S
C1498 C1496 1.391 . S
C1498 C1499 1.400 . S
C1499 C1498 1.400 . S
C1499 C1500 1.398 . S
C1499 C1505 1.491 . S
C1500 H1491 0.950 . S
C1500 C1499 1.398 . S
C1500 C1501 1.391 . S
C1501 H1489 0.950 . S
C1501 C1497 1.393 . S
C1501 C1500 1.391 . S
C1502 H1492 0.950 . S
C1502 C1503 1.386 . S
C1502 C1504 1.391 . S
C1503 C1502 1.386 . S
C1503 C1507 1.393 . S
C1504 H1493 0.950 . S
C1504 C1502 1.391 . S
C1504 C1505 1.400 . S
C1505 C1499 1.491 . S
C1505 C1504 1.400 . S
C1505 C1506 1.398 . S
C1506 H1494 0.950 . S
C1506 C1505 1.398 . S
C1506 C1507 1.391 . S
C1507 H1495 0.950 . S
C1507 C1503 1.393 . S
C1507 C1506 1.391 . S
H1508 C1516 0.950 . S
H1509 C1521 0.950 . S
H1510 C1518 0.950 . S
H1511 C1520 0.950 . S
H1512 C1522 0.950 . S
H1513 C1524 0.950 . S
H1514 C1526 0.950 . S
H1515 C1527 0.950 . S
C1516 H1508 0.950 . S
C1516 C1517 1.386 . S
C1516 C1518 1.391 . S
C1517 C1516 1.386 . S
C1517 C1521 1.393 . S
C1518 H1510 0.950 . S
C1518 C1516 1.391 . S
C1518 C1519 1.400 . S
C1519 C1518 1.400 . S
C1519 C1520 1.398 . S
C1519 C1525 1.491 . S
C1520 H1511 0.950 . S
C1520 C1519 1.398 . S
C1520 C1521 1.391 . S
C1521 H1509 0.950 . S
C1521 C1517 1.393 . S
C1521 C1520 1.391 . S
C1522 H1512 0.950 . S
C1522 C1523 1.386 . S
C1522 C1524 1.391 . S
C1523 C1522 1.386 . S
C1523 C1527 1.393 . S
C1524 H1513 0.950 . S
C1524 C1522 1.391 . S
C1524 C1525 1.400 . S
C1525 C1519 1.491 . S
C1525 C1524 1.400 . S
C1525 C1526 1.398 . S
C1526 H1514 0.950 . S
C1526 C1525 1.398 . S
C1526 C1527 1.391 . S
C1527 H1515 0.950 . S
C1527 C1523 1.393 . S
C1527 C1526 1.391 . S
H1528 C1536 0.950 . S
H1529 C1541 0.950 . S
H1530 C1538 0.950 . S
H1531 C1540 0.950 . S
H1532 C1542 0.950 . S
H1533 C1544 0.950 . S
H1534 C1546 0.950 . S
H1535 C1547 0.950 . S
C1536 H1528 0.950 . S
C1536 C1537 1.386 . S
C1536 C1538 1.391 . S
C1537 C1536 1.386 . S
C1537 C1541 1.393 . S
C1538 H1530 0.950 . S
C1538 C1536 1.391 . S
C1538 C1539 1.400 . S
C1539 C1538 1.400 . S
C1539 C1540 1.398 . S
C1539 C1545 1.491 . S
C1540 H1531 0.950 . S
C1540 C1539 1.398 . S
C1540 C1541 1.391 . S
C1541 H1529 0.950 . S
C1541 C1537 1.393 . S
C1541 C1540 1.391 . S
C1542 H1532 0.950 . S
C1542 C1543 1.386 . S
C1542 C1544 1.391 . S
C1543 C1542 1.386 . S
C1543 C1547 1.393 . S
C1544 H1533 0.950 . S
C1544 C1542 1.391 . S
C1544 C1545 1.400 . S
C1545 C1539 1.491 . S
C1545 C1544 1.400 . S
C1545 C1546 1.398 . S
C1546 H1534 0.950 . S
C1546 C1545 1.398 . S
C1546 C1547 1.391 . S
C1547 H1535 0.950 . S
C1547 C1543 1.393 . S
C1547 C1546 1.391 . S
H1548 C1556 0.950 . S
H1549 C1561 0.950 . S
H1550 C1558 0.950 . S
H1551 C1560 0.950 . S
H1552 C1562 0.950 . S
H1553 C1564 0.950 . S
H1554 C1566 0.950 . S
H1555 C1567 0.950 . S
C1556 H1548 0.950 . S
C1556 C1557 1.386 . S
C1556 C1558 1.391 . S
C1557 C1556 1.386 . S
C1557 C1561 1.393 . S
C1558 H1550 0.950 . S
C1558 C1556 1.391 . S
C1558 C1559 1.400 . S
C1559 C1558 1.400 . S
C1559 C1560 1.398 . S
C1559 C1565 1.491 . S
C1560 H1551 0.950 . S
C1560 C1559 1.398 . S
C1560 C1561 1.391 . S
C1561 H1549 0.950 . S
C1561 C1557 1.393 . S
C1561 C1560 1.391 . S
C1562 H1552 0.950 . S
C1562 C1563 1.386 . S
C1562 C1564 1.391 . S
C1563 C1562 1.386 . S
C1563 C1567 1.393 . S
C1564 H1553 0.950 . S
C1564 C1562 1.391 . S
C1564 C1565 1.400 . S
C1565 C1559 1.491 . S
C1565 C1564 1.400 . S
C1565 C1566 1.398 . S
C1566 H1554 0.950 . S
C1566 C1565 1.398 . S
C1566 C1567 1.391 . S
C1567 H1555 0.950 . S
C1567 C1563 1.393 . S
C1567 C1566 1.391 . S
H1568 C1576 0.950 . S
H1569 C1581 0.950 . S
H1570 C1578 0.950 . S
H1571 C1580 0.950 . S
H1572 C1582 0.931 1_565 S
H1573 C1584 0.950 . S
H1574 C1586 0.950 . S
H1575 C1587 0.950 . S
C1576 H1568 0.950 . S
C1576 C1577 1.386 . S
C1576 C1578 1.391 . S
C1577 C1576 1.386 . S
C1577 C1581 1.393 . S
C1578 H1570 0.950 . S
C1578 C1576 1.391 . S
C1578 C1579 1.400 . S
C1579 C1578 1.400 . S
C1579 C1580 1.398 . S
C1579 C1585 1.491 . S
C1580 H1571 0.950 . S
C1580 C1579 1.398 . S
C1580 C1581 1.391 . S
C1581 H1569 0.950 . S
C1581 C1577 1.393 . S
C1581 C1580 1.391 . S
C1582 H1572 0.931 1_545 S
C1582 C1583 1.386 . S
C1582 C1584 1.391 . S
C1583 C1582 1.386 . S
C1583 C1587 1.393 . S
C1584 H1573 0.950 . S
C1584 C1582 1.391 . S
C1584 C1585 1.400 . S
C1585 C1579 1.491 . S
C1585 C1584 1.400 . S
C1585 C1586 1.398 . S
C1586 H1574 0.950 . S
C1586 C1585 1.398 . S
C1586 C1587 1.391 . S
C1587 H1575 0.950 . S
C1587 C1583 1.393 . S
C1587 C1586 1.391 . S
H1588 C1596 0.950 . S
H1589 C1601 0.950 1_565 S
H1590 C1598 0.950 . S
H1591 C1600 0.950 . S
H1592 C1602 0.950 . S
H1593 C1604 0.950 . S
H1594 C1606 0.950 . S
H1595 C1607 0.950 . S
C1596 H1588 0.950 . S
C1596 C1597 1.386 . S
C1596 C1598 1.391 . S
C1597 C1596 1.386 . S
C1597 C1601 1.393 . S
C1598 H1590 0.950 . S
C1598 C1596 1.391 . S
C1598 C1599 1.400 . S
C1599 C1598 1.400 . S
C1599 C1600 1.398 . S
C1599 C1605 1.491 . S
C1600 H1591 0.950 . S
C1600 C1599 1.398 . S
C1600 C1601 1.391 . S
C1601 H1589 0.950 1_545 S
C1601 C1597 1.393 . S
C1601 C1600 1.391 . S
C1602 H1592 0.950 . S
C1602 C1603 1.386 . S
C1602 C1604 1.391 . S
C1603 C1602 1.386 . S
C1603 C1607 1.393 . S
C1604 H1593 0.950 . S
C1604 C1602 1.391 . S
C1604 C1605 1.400 . S
C1605 C1599 1.491 . S
C1605 C1604 1.400 . S
C1605 C1606 1.398 . S
C1606 H1594 0.950 . S
C1606 C1605 1.398 . S
C1606 C1607 1.391 . S
C1607 H1595 0.950 . S
C1607 C1603 1.393 . S
C1607 C1606 1.391 . S
H1608 C1616 0.950 . S
H1609 C1621 0.950 . S
H1610 C1618 0.950 . S
H1611 C1620 0.950 . S
H1612 C1622 0.950 1_545 S
H1613 C1624 0.950 . S
H1614 C1626 0.950 . S
H1615 C1627 0.950 . S
C1616 H1608 0.950 . S
C1616 C1617 1.386 . S
C1616 C1618 1.391 . S
C1617 C1616 1.386 . S
C1617 C1621 1.393 . S
C1618 H1610 0.950 . S
C1618 C1616 1.391 . S
C1618 C1619 1.400 . S
C1619 C1618 1.400 . S
C1619 C1620 1.398 . S
C1619 C1625 1.491 . S
C1620 H1611 0.950 . S
C1620 C1619 1.398 . S
C1620 C1621 1.391 . S
C1621 H1609 0.950 . S
C1621 C1617 1.393 . S
C1621 C1620 1.391 . S
C1622 H1612 0.950 1_565 S
C1622 C1623 1.386 . S
C1622 C1624 1.391 . S
C1623 C1622 1.386 . S
C1623 C1627 1.393 . S
C1624 H1613 0.950 . S
C1624 C1622 1.391 . S
C1624 C1625 1.400 . S
C1625 C1619 1.491 . S
C1625 C1624 1.400 . S
C1625 C1626 1.398 . S
C1626 H1614 0.950 . S
C1626 C1625 1.398 . S
C1626 C1627 1.391 . S
C1627 H1615 0.950 . S
C1627 C1623 1.393 . S
C1627 C1626 1.391 . S
H1628 C1636 0.950 . S
H1629 C1641 0.950 . S
H1630 C1638 0.950 . S
H1631 C1640 0.950 . S
H1632 C1642 0.950 . S
H1633 C1644 0.950 . S
H1634 C1646 0.950 . S
H1635 C1647 0.950 . S
C1636 H1628 0.950 . S
C1636 C1637 1.386 . S
C1636 C1638 1.391 . S
C1637 C1636 1.386 . S
C1637 C1641 1.393 . S
C1638 H1630 0.950 . S
C1638 C1636 1.391 . S
C1638 C1639 1.400 . S
C1639 C1638 1.400 . S
C1639 C1640 1.398 . S
C1639 C1645 1.491 . S
C1640 H1631 0.950 . S
C1640 C1639 1.398 . S
C1640 C1641 1.391 . S
C1641 H1629 0.950 . S
C1641 C1637 1.393 . S
C1641 C1640 1.391 . S
C1642 H1632 0.950 . S
C1642 C1643 1.386 . S
C1642 C1644 1.391 . S
C1643 C1642 1.386 . S
C1643 C1647 1.393 . S
C1644 H1633 0.950 . S
C1644 C1642 1.391 . S
C1644 C1645 1.400 . S
C1645 C1639 1.491 . S
C1645 C1644 1.400 . S
C1645 C1646 1.398 . S
C1646 H1634 0.950 . S
C1646 C1645 1.398 . S
C1646 C1647 1.391 . S
C1647 H1635 0.950 . S
C1647 C1643 1.393 . S
C1647 C1646 1.391 . S
H1648 C1656 0.950 . S
H1649 C1661 0.950 . S
H1650 C1658 0.950 . S
H1651 C1660 0.950 . S
H1652 C1662 0.950 . S
H1653 C1664 0.950 . S
H1654 C1666 0.950 . S
H1655 C1667 0.950 . S
C1656 H1648 0.950 . S
C1656 C1657 1.386 . S
C1656 C1658 1.391 . S
C1657 C1656 1.386 . S
C1657 C1661 1.393 . S
C1658 H1650 0.950 . S
C1658 C1656 1.391 . S
C1658 C1659 1.400 . S
C1659 C1658 1.400 . S
C1659 C1660 1.398 . S
C1659 C1665 1.491 . S
C1660 H1651 0.950 . S
C1660 C1659 1.398 . S
C1660 C1661 1.391 . S
C1661 H1649 0.950 . S
C1661 C1657 1.393 . S
C1661 C1660 1.391 . S
C1662 H1652 0.950 . S
C1662 C1663 1.386 . S
C1662 C1664 1.391 . S
C1663 C1662 1.386 . S
C1663 C1667 1.393 . S
C1664 H1653 0.950 . S
C1664 C1662 1.391 . S
C1664 C1665 1.400 . S
C1665 C1659 1.491 . S
C1665 C1664 1.400 . S
C1665 C1666 1.398 . S
C1666 H1654 0.950 . S
C1666 C1665 1.398 . S
C1666 C1667 1.391 . S
C1667 H1655 0.950 . S
C1667 C1663 1.393 . S
C1667 C1666 1.391 . S
H1668 C1676 0.950 . S
H1669 C1681 0.950 . S
H1670 C1678 0.950 . S
H1671 C1680 0.950 . S
H1672 C1682 0.950 . S
H1673 C1684 0.950 . S
H1674 C1686 0.950 . S
H1675 C1687 0.950 . S
C1676 H1668 0.950 . S
C1676 C1677 1.386 . S
C1676 C1678 1.391 . S
C1677 C1676 1.386 . S
C1677 C1681 1.393 . S
C1678 H1670 0.950 . S
C1678 C1676 1.391 . S
C1678 C1679 1.400 . S
C1679 C1678 1.400 . S
C1679 C1680 1.398 . S
C1679 C1685 1.491 . S
C1680 H1671 0.950 . S
C1680 C1679 1.398 . S
C1680 C1681 1.391 . S
C1681 H1669 0.950 . S
C1681 C1677 1.393 . S
C1681 C1680 1.391 . S
C1682 H1672 0.950 . S
C1682 C1683 1.386 . S
C1682 C1684 1.391 . S
C1683 C1682 1.386 . S
C1683 C1687 1.393 . S
C1684 H1673 0.950 . S
C1684 C1682 1.391 . S
C1684 C1685 1.400 . S
C1685 C1679 1.491 . S
C1685 C1684 1.400 . S
C1685 C1686 1.398 . S
C1686 H1674 0.950 . S
C1686 C1685 1.398 . S
C1686 C1687 1.391 . S
C1687 H1675 0.950 . S
C1687 C1683 1.393 . S
C1687 C1686 1.391 . S
H1688 C1696 0.950 . S
H1689 C1701 0.950 . S
H1690 C1698 0.950 . S
H1691 C1700 0.950 . S
H1692 C1702 0.950 . S
H1693 C1704 0.950 . S
H1694 C1706 0.950 . S
H1695 C1707 0.950 . S
C1696 H1688 0.950 . S
C1696 C1697 1.386 . S
C1696 C1698 1.391 . S
C1697 C1696 1.386 . S
C1697 C1701 1.393 . S
C1698 H1690 0.950 . S
C1698 C1696 1.391 . S
C1698 C1699 1.400 . S
C1699 C1698 1.400 . S
C1699 C1700 1.398 . S
C1699 C1705 1.491 . S
C1700 H1691 0.950 . S
C1700 C1699 1.398 . S
C1700 C1701 1.391 . S
C1701 H1689 0.950 . S
C1701 C1697 1.393 . S
C1701 C1700 1.391 . S
C1702 H1692 0.950 . S
C1702 C1703 1.386 . S
C1702 C1704 1.391 . S
C1703 C1702 1.386 . S
C1703 C1707 1.393 . S
C1704 H1693 0.950 . S
C1704 C1702 1.391 . S
C1704 C1705 1.400 . S
C1705 C1699 1.491 . S
C1705 C1704 1.400 . S
C1705 C1706 1.398 . S
C1706 H1694 0.950 . S
C1706 C1705 1.398 . S
C1706 C1707 1.391 . S
C1707 H1695 0.950 . S
C1707 C1703 1.393 . S
C1707 C1706 1.391 . S
H1708 C1716 0.950 . S
H1709 C1721 0.950 . S
H1710 C1718 0.950 . S
H1711 C1720 0.950 . S
H1712 C1722 0.950 . S
H1713 C1724 0.950 . S
H1714 C1726 0.950 . S
H1715 C1727 0.950 . S
C1716 H1708 0.950 . S
C1716 C1717 1.386 . S
C1716 C1718 1.391 . S
C1717 C1716 1.386 . S
C1717 C1721 1.393 . S
C1718 H1710 0.950 . S
C1718 C1716 1.391 . S
C1718 C1719 1.400 . S
C1719 C1718 1.400 . S
C1719 C1720 1.398 . S
C1719 C1725 1.491 . S
C1720 H1711 0.950 . S
C1720 C1719 1.398 . S
C1720 C1721 1.391 . S
C1721 H1709 0.950 . S
C1721 C1717 1.393 . S
C1721 C1720 1.391 . S
C1722 H1712 0.950 . S
C1722 C1723 1.386 . S
C1722 C1724 1.391 . S
C1723 C1722 1.386 . S
C1723 C1727 1.393 . S
C1724 H1713 0.950 . S
C1724 C1722 1.391 . S
C1724 C1725 1.400 . S
C1725 C1719 1.491 . S
C1725 C1724 1.400 . S
C1725 C1726 1.398 . S
C1726 H1714 0.950 . S
C1726 C1725 1.398 . S
C1726 C1727 1.391 . S
C1727 H1715 0.950 . S
C1727 C1723 1.393 . S
C1727 C1726 1.391 . S
H1728 C1736 0.950 . S
H1729 C1741 0.950 . S
H1730 C1738 0.950 . S
H1731 C1740 0.950 . S
H1732 C1742 0.950 . S
H1733 C1744 0.950 . S
H1734 C1746 0.950 . S
H1735 C1747 0.950 . S
C1736 H1728 0.950 . S
C1736 C1737 1.386 . S
C1736 C1738 1.391 . S
C1737 C1736 1.386 . S
C1737 C1741 1.393 . S
C1738 H1730 0.950 . S
C1738 C1736 1.391 . S
C1738 C1739 1.400 . S
C1739 C1738 1.400 . S
C1739 C1740 1.398 . S
C1739 C1745 1.491 . S
C1740 H1731 0.950 . S
C1740 C1739 1.398 . S
C1740 C1741 1.391 . S
C1741 H1729 0.950 . S
C1741 C1737 1.393 . S
C1741 C1740 1.391 . S
C1742 H1732 0.950 . S
C1742 C1743 1.386 . S
C1742 C1744 1.391 . S
C1743 C1742 1.386 . S
C1743 C1747 1.393 . S
C1744 H1733 0.950 . S
C1744 C1742 1.391 . S
C1744 C1745 1.400 . S
C1745 C1739 1.491 . S
C1745 C1744 1.400 . S
C1745 C1746 1.398 . S
C1746 H1734 0.950 . S
C1746 C1745 1.398 . S
C1746 C1747 1.391 . S
C1747 H1735 0.950 . S
C1747 C1743 1.393 . S
C1747 C1746 1.391 . S
H1748 C1756 0.950 . S
H1749 C1761 0.950 . S
H1750 C1758 0.950 . S
H1751 C1760 0.950 . S
H1752 C1762 0.950 . S
H1753 C1764 0.950 . S
H1754 C1766 0.950 . S
H1755 C1767 0.950 . S
C1756 H1748 0.950 . S
C1756 C1757 1.386 . S
C1756 C1758 1.391 . S
C1757 C1756 1.386 . S
C1757 C1761 1.393 . S
C1758 H1750 0.950 . S
C1758 C1756 1.391 . S
C1758 C1759 1.400 . S
C1759 C1758 1.400 . S
C1759 C1760 1.398 . S
C1759 C1765 1.491 . S
C1760 H1751 0.950 . S
C1760 C1759 1.398 . S
C1760 C1761 1.391 . S
C1761 H1749 0.950 . S
C1761 C1757 1.393 . S
C1761 C1760 1.391 . S
C1762 H1752 0.950 . S
C1762 C1763 1.386 . S
C1762 C1764 1.391 . S
C1763 C1762 1.386 . S
C1763 C1767 1.393 . S
C1764 H1753 0.950 . S
C1764 C1762 1.391 . S
C1764 C1765 1.400 . S
C1765 C1759 1.491 . S
C1765 C1764 1.400 . S
C1765 C1766 1.398 . S
C1766 H1754 0.950 . S
C1766 C1765 1.398 . S
C1766 C1767 1.391 . S
C1767 H1755 0.950 . S
C1767 C1763 1.393 . S
C1767 C1766 1.391 . S
H1768 C1776 0.950 . S
H1769 C1781 0.950 . S
H1770 C1778 0.950 . S
H1771 C1780 0.950 . S
H1772 C1782 0.950 . S
H1773 C1784 0.950 . S
H1774 C1786 0.950 . S
H1775 C1787 0.950 . S
C1776 H1768 0.950 . S
C1776 C1777 1.386 . S
C1776 C1778 1.391 . S
C1777 C1776 1.386 . S
C1777 C1781 1.393 . S
C1778 H1770 0.950 . S
C1778 C1776 1.391 . S
C1778 C1779 1.400 . S
C1779 C1778 1.400 . S
C1779 C1780 1.398 . S
C1779 C1785 1.491 . S
C1780 H1771 0.950 . S
C1780 C1779 1.398 . S
C1780 C1781 1.391 . S
C1781 H1769 0.950 . S
C1781 C1777 1.393 . S
C1781 C1780 1.391 . S
C1782 H1772 0.950 . S
C1782 C1783 1.386 . S
C1782 C1784 1.391 . S
C1783 C1782 1.386 . S
C1783 C1787 1.393 . S
C1784 H1773 0.950 . S
C1784 C1782 1.391 . S
C1784 C1785 1.400 . S
C1785 C1779 1.491 . S
C1785 C1784 1.400 . S
C1785 C1786 1.398 . S
C1786 H1774 0.950 . S
C1786 C1785 1.398 . S
C1786 C1787 1.391 . S
C1787 H1775 0.950 . S
C1787 C1783 1.393 . S
C1787 C1786 1.391 . S
H1788 C1796 0.950 . S
H1789 C1801 0.950 . S
H1790 C1798 0.950 . S
H1791 C1800 0.950 . S
H1792 C1802 0.950 . S
H1793 C1804 0.950 . S
H1794 C1806 0.950 . S
H1795 C1807 0.950 . S
C1796 H1788 0.950 . S
C1796 C1797 1.386 . S
C1796 C1798 1.391 . S
C1797 C1796 1.386 . S
C1797 C1801 1.393 . S
C1798 H1790 0.950 . S
C1798 C1796 1.391 . S
C1798 C1799 1.400 . S
C1799 C1798 1.400 . S
C1799 C1800 1.398 . S
C1799 C1805 1.491 . S
C1800 H1791 0.950 . S
C1800 C1799 1.398 . S
C1800 C1801 1.391 . S
C1801 H1789 0.950 . S
C1801 C1797 1.393 . S
C1801 C1800 1.391 . S
C1802 H1792 0.950 . S
C1802 C1803 1.386 . S
C1802 C1804 1.391 . S
C1803 C1802 1.386 . S
C1803 C1807 1.393 . S
C1804 H1793 0.950 . S
C1804 C1802 1.391 . S
C1804 C1805 1.400 . S
C1805 C1799 1.491 . S
C1805 C1804 1.400 . S
C1805 C1806 1.398 . S
C1806 H1794 0.950 . S
C1806 C1805 1.398 . S
C1806 C1807 1.391 . S
C1807 H1795 0.950 . S
C1807 C1803 1.393 . S
C1807 C1806 1.391 . S
H1808 C1816 0.950 . S
H1809 C1821 0.950 . S
H1810 C1818 0.950 . S
H1811 C1820 0.950 . S
H1812 C1822 0.950 . S
H1813 C1824 0.950 . S
H1814 C1826 0.950 . S
H1815 C1827 0.950 . S
C1816 H1808 0.950 . S
C1816 C1817 1.386 . S
C1816 C1818 1.391 . S
C1817 C1816 1.386 . S
C1817 C1821 1.393 . S
C1818 H1810 0.950 . S
C1818 C1816 1.391 . S
C1818 C1819 1.400 . S
C1819 C1818 1.400 . S
C1819 C1820 1.398 . S
C1819 C1825 1.491 . S
C1820 H1811 0.950 . S
C1820 C1819 1.398 . S
C1820 C1821 1.391 . S
C1821 H1809 0.950 . S
C1821 C1817 1.393 . S
C1821 C1820 1.391 . S
C1822 H1812 0.950 . S
C1822 C1823 1.386 . S
C1822 C1824 1.391 . S
C1823 C1822 1.386 . S
C1823 C1827 1.393 . S
C1824 H1813 0.950 . S
C1824 C1822 1.391 . S
C1824 C1825 1.400 . S
C1825 C1819 1.491 . S
C1825 C1824 1.400 . S
C1825 C1826 1.398 . S
C1826 H1814 0.950 . S
C1826 C1825 1.398 . S
C1826 C1827 1.391 . S
C1827 H1815 0.950 . S
C1827 C1823 1.393 . S
C1827 C1826 1.391 . S
H1828 C1836 0.950 . S
H1829 C1841 0.950 . S
H1830 C1838 0.950 . S
H1831 C1840 0.950 . S
H1832 C1842 0.950 . S
H1833 C1844 0.950 . S
H1834 C1846 0.950 . S
H1835 C1847 0.950 . S
C1836 H1828 0.950 . S
C1836 C1837 1.386 . S
C1836 C1838 1.391 . S
C1837 C1836 1.386 . S
C1837 C1841 1.393 . S
C1838 H1830 0.950 . S
C1838 C1836 1.391 . S
C1838 C1839 1.400 . S
C1839 C1838 1.400 . S
C1839 C1840 1.398 . S
C1839 C1845 1.491 . S
C1840 H1831 0.950 . S
C1840 C1839 1.398 . S
C1840 C1841 1.391 . S
C1841 H1829 0.950 . S
C1841 C1837 1.393 . S
C1841 C1840 1.391 . S
C1842 H1832 0.950 . S
C1842 C1843 1.386 . S
C1842 C1844 1.391 . S
C1843 C1842 1.386 . S
C1843 C1847 1.393 . S
C1844 H1833 0.950 . S
C1844 C1842 1.391 . S
C1844 C1845 1.400 . S
C1845 C1839 1.491 . S
C1845 C1844 1.400 . S
C1845 C1846 1.398 . S
C1846 H1834 0.950 . S
C1846 C1845 1.398 . S
C1846 C1847 1.391 . S
C1847 H1835 0.950 . S
C1847 C1843 1.393 . S
C1847 C1846 1.391 . S
H1848 C1856 0.950 . S
H1849 C1861 0.950 . S
H1850 C1858 0.950 . S
H1851 C1860 0.950 . S
H1852 C1862 0.950 . S
H1853 C1864 0.950 . S
H1854 C1866 0.950 . S
H1855 C1867 0.950 . S
C1856 H1848 0.950 . S
C1856 C1857 1.386 . S
C1856 C1858 1.391 . S
C1857 C1856 1.386 . S
C1857 C1861 1.393 . S
C1858 H1850 0.950 . S
C1858 C1856 1.391 . S
C1858 C1859 1.400 . S
C1859 C1858 1.400 . S
C1859 C1860 1.398 . S
C1859 C1865 1.491 . S
C1860 H1851 0.950 . S
C1860 C1859 1.398 . S
C1860 C1861 1.391 . S
C1861 H1849 0.950 . S
C1861 C1857 1.393 . S
C1861 C1860 1.391 . S
C1862 H1852 0.950 . S
C1862 C1863 1.386 . S
C1862 C1864 1.391 . S
C1863 C1862 1.386 . S
C1863 C1867 1.393 . S
C1864 H1853 0.950 . S
C1864 C1862 1.391 . S
C1864 C1865 1.400 . S
C1865 C1859 1.491 . S
C1865 C1864 1.400 . S
C1865 C1866 1.398 . S
C1866 H1854 0.950 . S
C1866 C1865 1.398 . S
C1866 C1867 1.391 . S
C1867 H1855 0.950 . S
C1867 C1863 1.393 . S
C1867 C1866 1.391 . S
H1868 C1876 0.950 . S
H1869 C1881 0.950 . S
H1870 C1878 0.950 . S
H1871 C1880 0.950 . S
H1872 C1882 0.950 . S
H1873 C1884 0.950 . S
H1874 C1886 0.950 . S
H1875 C1887 0.950 . S
C1876 H1868 0.950 . S
C1876 C1877 1.386 . S
C1876 C1878 1.391 . S
C1877 C1876 1.386 . S
C1877 C1881 1.393 . S
C1878 H1870 0.950 . S
C1878 C1876 1.391 . S
C1878 C1879 1.400 . S
C1879 C1878 1.400 . S
C1879 C1880 1.398 . S
C1879 C1885 1.491 . S
C1880 H1871 0.950 . S
C1880 C1879 1.398 . S
C1880 C1881 1.391 . S
C1881 H1869 0.950 . S
C1881 C1877 1.393 . S
C1881 C1880 1.391 . S
C1882 H1872 0.950 . S
C1882 C1883 1.386 . S
C1882 C1884 1.391 . S
C1883 C1882 1.386 . S
C1883 C1887 1.393 . S
C1884 H1873 0.950 . S
C1884 C1882 1.391 . S
C1884 C1885 1.400 . S
C1885 C1879 1.491 . S
C1885 C1884 1.400 . S
C1885 C1886 1.398 . S
C1886 H1874 0.950 . S
C1886 C1885 1.398 . S
C1886 C1887 1.391 . S
C1887 H1875 0.950 . S
C1887 C1883 1.393 . S
C1887 C1886 1.391 . S
H1888 C1896 0.950 . S
H1889 C1901 0.950 . S
H1890 C1898 0.950 . S
H1891 C1900 0.950 . S
H1892 C1902 0.950 . S
H1893 C1904 0.950 . S
H1894 C1906 0.950 . S
H1895 C1907 0.950 . S
C1896 H1888 0.950 . S
C1896 C1897 1.386 . S
C1896 C1898 1.391 . S
C1897 C1896 1.386 . S
C1897 C1901 1.393 . S
C1898 H1890 0.950 . S
C1898 C1896 1.391 . S
C1898 C1899 1.400 . S
C1899 C1898 1.400 . S
C1899 C1900 1.398 . S
C1899 C1905 1.491 . S
C1900 H1891 0.950 . S
C1900 C1899 1.398 . S
C1900 C1901 1.391 . S
C1901 H1889 0.950 . S
C1901 C1897 1.393 . S
C1901 C1900 1.391 . S
C1902 H1892 0.950 . S
C1902 C1903 1.386 . S
C1902 C1904 1.391 . S
C1903 C1902 1.386 . S
C1903 C1907 1.393 . S
C1904 H1893 0.950 . S
C1904 C1902 1.391 . S
C1904 C1905 1.400 . S
C1905 C1899 1.491 . S
C1905 C1904 1.400 . S
C1905 C1906 1.398 . S
C1906 H1894 0.950 . S
C1906 C1905 1.398 . S
C1906 C1907 1.391 . S
C1907 H1895 0.950 . S
C1907 C1903 1.393 . S
C1907 C1906 1.391 . S
H1908 C1916 0.950 . S
H1909 C1921 0.950 . S
H1910 C1918 0.950 . S
H1911 C1920 0.950 . S
H1912 C1922 0.950 . S
H1913 C1924 0.950 . S
H1914 C1926 0.950 . S
H1915 C1927 0.950 . S
C1916 H1908 0.950 . S
C1916 C1917 1.386 . S
C1916 C1918 1.391 . S
C1917 C1916 1.386 . S
C1917 C1921 1.393 . S
C1918 H1910 0.950 . S
C1918 C1916 1.391 . S
C1918 C1919 1.400 . S
C1919 C1918 1.400 . S
C1919 C1920 1.398 . S
C1919 C1925 1.491 . S
C1920 H1911 0.950 . S
C1920 C1919 1.398 . S
C1920 C1921 1.391 . S
C1921 H1909 0.950 . S
C1921 C1917 1.393 . S
C1921 C1920 1.391 . S
C1922 H1912 0.950 . S
C1922 C1923 1.386 . S
C1922 C1924 1.391 . S
C1923 C1922 1.386 . S
C1923 C1927 1.393 . S
C1924 H1913 0.950 . S
C1924 C1922 1.391 . S
C1924 C1925 1.400 . S
C1925 C1919 1.491 . S
C1925 C1924 1.400 . S
C1925 C1926 1.398 . S
C1926 H1914 0.950 . S
C1926 C1925 1.398 . S
C1926 C1927 1.391 . S
C1927 H1915 0.950 . S
C1927 C1923 1.393 . S
C1927 C1926 1.391 . S
H1928 C1936 0.950 . S
H1929 C1941 0.950 . S
H1930 C1938 0.950 . S
H1931 C1940 0.950 . S
H1932 C1942 0.950 . S
H1933 C1944 0.950 . S
H1934 C1946 0.950 . S
H1935 C1947 0.950 . S
C1936 H1928 0.950 . S
C1936 C1937 1.386 . S
C1936 C1938 1.391 . S
C1937 C1936 1.386 . S
C1937 C1941 1.393 . S
C1938 H1930 0.950 . S
C1938 C1936 1.391 . S
C1938 C1939 1.400 . S
C1939 C1938 1.400 . S
C1939 C1940 1.398 . S
C1939 C1945 1.491 . S
C1940 H1931 0.950 . S
C1940 C1939 1.398 . S
C1940 C1941 1.391 . S
C1941 H1929 0.950 . S
C1941 C1937 1.393 . S
C1941 C1940 1.391 . S
C1942 H1932 0.950 . S
C1942 C1943 1.386 . S
C1942 C1944 1.391 . S
C1943 C1942 1.386 . S
C1943 C1947 1.393 . S
C1944 H1933 0.950 . S
C1944 C1942 1.391 . S
C1944 C1945 1.400 . S
C1945 C1939 1.491 . S
C1945 C1944 1.400 . S
C1945 C1946 1.398 . S
C1946 H1934 0.950 . S
C1946 C1945 1.398 . S
C1946 C1947 1.391 . S
C1947 H1935 0.950 . S
C1947 C1943 1.393 . S
C1947 C1946 1.391 . S
H1948 C1956 0.950 . S
H1949 C1961 0.950 . S
H1950 C1958 0.950 . S
H1951 C1960 0.950 . S
H1952 C1962 0.950 . S
H1953 C1964 0.950 . S
H1954 C1966 0.950 . S
H1955 C1967 0.950 . S
C1956 H1948 0.950 . S
C1956 C1957 1.386 . S
C1956 C1958 1.391 . S
C1957 C1956 1.386 . S
C1957 C1961 1.393 . S
C1958 H1950 0.950 . S
C1958 C1956 1.391 . S
C1958 C1959 1.400 . S
C1959 C1958 1.400 . S
C1959 C1960 1.398 . S
C1959 C1965 1.491 . S
C1960 H1951 0.950 . S
C1960 C1959 1.398 . S
C1960 C1961 1.391 . S
C1961 H1949 0.950 . S
C1961 C1957 1.393 . S
C1961 C1960 1.391 . S
C1962 H1952 0.950 . S
C1962 C1963 1.386 . S
C1962 C1964 1.391 . S
C1963 C1962 1.386 . S
C1963 C1967 1.393 . S
C1964 H1953 0.950 . S
C1964 C1962 1.391 . S
C1964 C1965 1.400 . S
C1965 C1959 1.491 . S
C1965 C1964 1.400 . S
C1965 C1966 1.398 . S
C1966 H1954 0.950 . S
C1966 C1965 1.398 . S
C1966 C1967 1.391 . S
C1967 H1955 0.950 . S
C1967 C1963 1.393 . S
C1967 C1966 1.391 . S
H1968 C1976 0.950 . S
H1969 C1981 0.950 . S
H1970 C1978 0.950 . S
H1971 C1980 0.950 . S
H1972 C1982 0.950 . S
H1973 C1984 0.950 . S
H1974 C1986 0.950 . S
H1975 C1987 0.950 . S
C1976 H1968 0.950 . S
C1976 C1977 1.386 . S
C1976 C1978 1.391 . S
C1977 C1976 1.386 . S
C1977 C1981 1.393 . S
C1978 H1970 0.950 . S
C1978 C1976 1.391 . S
C1978 C1979 1.400 . S
C1979 C1978 1.400 . S
C1979 C1980 1.398 . S
C1979 C1985 1.491 . S
C1980 H1971 0.950 . S
C1980 C1979 1.398 . S
C1980 C1981 1.391 . S
C1981 H1969 0.950 . S
C1981 C1977 1.393 . S
C1981 C1980 1.391 . S
C1982 H1972 0.950 . S
C1982 C1983 1.386 . S
C1982 C1984 1.391 . S
C1983 C1982 1.386 . S
C1983 C1987 1.393 . S
C1984 H1973 0.950 . S
C1984 C1982 1.391 . S
C1984 C1985 1.400 . S
C1985 C1979 1.491 . S
C1985 C1984 1.400 . S
C1985 C1986 1.398 . S
C1986 H1974 0.950 . S
C1986 C1985 1.398 . S
C1986 C1987 1.391 . S
C1987 H1975 0.950 . S
C1987 C1983 1.393 . S
C1987 C1986 1.391 . S
H1988 C1996 0.950 . S
H1989 C2001 0.950 . S
H1990 C1998 0.950 . S
H1991 C2000 0.950 . S
H1992 C2002 0.950 . S
H1993 C2004 0.950 . S
H1994 C2006 0.950 . S
H1995 C2007 0.950 . S
C1996 H1988 0.950 . S
C1996 C1997 1.386 . S
C1996 C1998 1.391 . S
C1997 C1996 1.386 . S
C1997 C2001 1.393 . S
C1998 H1990 0.950 . S
C1998 C1996 1.391 . S
C1998 C1999 1.400 . S
C1999 C1998 1.400 . S
C1999 C2000 1.398 . S
C1999 C2005 1.491 . S
C2000 H1991 0.950 . S
C2000 C1999 1.398 . S
C2000 C2001 1.391 . S
C2001 H1989 0.950 . S
C2001 C1997 1.393 . S
C2001 C2000 1.391 . S
C2002 H1992 0.950 . S
C2002 C2003 1.386 . S
C2002 C2004 1.391 . S
C2003 C2002 1.386 . S
C2003 C2007 1.393 . S
C2004 H1993 0.950 . S
C2004 C2002 1.391 . S
C2004 C2005 1.400 . S
C2005 C1999 1.491 . S
C2005 C2004 1.400 . S
C2005 C2006 1.398 . S
C2006 H1994 0.950 . S
C2006 C2005 1.398 . S
C2006 C2007 1.391 . S
C2007 H1995 0.950 . S
C2007 C2003 1.393 . S
C2007 C2006 1.391 . S
H2008 C2016 0.950 . S
H2009 C2021 0.950 . S
H2010 C2018 0.950 . S
H2011 C2020 0.950 . S
H2012 C2022 0.950 . S
H2013 C2024 0.950 . S
H2014 C2026 0.950 . S
H2015 C2027 0.950 . S
C2016 H2008 0.950 . S
C2016 C2017 1.386 . S
C2016 C2018 1.391 . S
C2017 C2016 1.386 . S
C2017 C2021 1.393 . S
C2018 H2010 0.950 . S
C2018 C2016 1.391 . S
C2018 C2019 1.400 . S
C2019 C2018 1.400 . S
C2019 C2020 1.398 . S
C2019 C2025 1.491 . S
C2020 H2011 0.950 . S
C2020 C2019 1.398 . S
C2020 C2021 1.391 . S
C2021 H2009 0.950 . S
C2021 C2017 1.393 . S
C2021 C2020 1.391 . S
C2022 H2012 0.950 . S
C2022 C2023 1.386 . S
C2022 C2024 1.391 . S
C2023 C2022 1.386 . S
C2023 C2027 1.393 . S
C2024 H2013 0.950 . S
C2024 C2022 1.391 . S
C2024 C2025 1.400 . S
C2025 C2019 1.491 . S
C2025 C2024 1.400 . S
C2025 C2026 1.398 . S
C2026 H2014 0.950 . S
C2026 C2025 1.398 . S
C2026 C2027 1.391 . S
C2027 H2015 0.950 . S
C2027 C2023 1.393 . S
C2027 C2026 1.391 . S
H2028 C2036 0.950 . S
H2029 C2041 0.950 . S
H2030 C2038 0.950 . S
H2031 C2040 0.950 . S
H2032 C2042 0.950 . S
H2033 C2044 0.950 . S
H2034 C2046 0.950 . S
H2035 C2047 0.950 . S
C2036 H2028 0.950 . S
C2036 C2037 1.386 . S
C2036 C2038 1.391 . S
C2037 C2036 1.386 . S
C2037 C2041 1.393 . S
C2038 H2030 0.950 . S
C2038 C2036 1.391 . S
C2038 C2039 1.400 . S
C2039 C2038 1.400 . S
C2039 C2040 1.398 . S
C2039 C2045 1.491 . S
C2040 H2031 0.950 . S
C2040 C2039 1.398 . S
C2040 C2041 1.391 . S
C2041 H2029 0.950 . S
C2041 C2037 1.393 . S
C2041 C2040 1.391 . S
C2042 H2032 0.950 . S
C2042 C2043 1.386 . S
C2042 C2044 1.391 . S
C2043 C2042 1.386 . S
C2043 C2047 1.393 . S
C2044 H2033 0.950 . S
C2044 C2042 1.391 . S
C2044 C2045 1.400 . S
C2045 C2039 1.491 . S
C2045 C2044 1.400 . S
C2045 C2046 1.398 . S
C2046 H2034 0.950 . S
C2046 C2045 1.398 . S
C2046 C2047 1.391 . S
C2047 H2035 0.950 . S
C2047 C2043 1.393 . S
C2047 C2046 1.391 . S
H2048 C2056 0.950 . S
H2049 C2061 0.950 . S
H2050 C2058 0.950 . S
H2051 C2060 0.950 . S
H2052 C2062 0.950 . S
H2053 C2064 0.950 . S
H2054 C2066 0.950 . S
H2055 C2067 0.950 . S
C2056 H2048 0.950 . S
C2056 C2057 1.386 . S
C2056 C2058 1.391 . S
C2057 C2056 1.386 . S
C2057 C2061 1.393 . S
C2058 H2050 0.950 . S
C2058 C2056 1.391 . S
C2058 C2059 1.400 . S
C2059 C2058 1.400 . S
C2059 C2060 1.398 . S
C2059 C2065 1.491 . S
C2060 H2051 0.950 . S
C2060 C2059 1.398 . S
C2060 C2061 1.391 . S
C2061 H2049 0.950 . S
C2061 C2057 1.393 . S
C2061 C2060 1.391 . S
C2062 H2052 0.950 . S
C2062 C2063 1.386 . S
C2062 C2064 1.391 . S
C2063 C2062 1.386 . S
C2063 C2067 1.393 . S
C2064 H2053 0.950 . S
C2064 C2062 1.391 . S
C2064 C2065 1.400 . S
C2065 C2059 1.491 . S
C2065 C2064 1.400 . S
C2065 C2066 1.398 . S
C2066 H2054 0.950 . S
C2066 C2065 1.398 . S
C2066 C2067 1.391 . S
C2067 H2055 0.950 . S
C2067 C2063 1.393 . S
C2067 C2066 1.391 . S
H2068 C2076 0.950 . S
H2069 C2081 0.950 . S
H2070 C2078 0.950 . S
H2071 C2080 0.950 . S
H2072 C2082 0.950 . S
H2073 C2084 0.950 . S
H2074 C2086 0.950 . S
H2075 C2087 0.950 . S
C2076 H2068 0.950 . S
C2076 C2077 1.386 . S
C2076 C2078 1.391 . S
C2077 C2076 1.386 . S
C2077 C2081 1.393 . S
C2078 H2070 0.950 . S
C2078 C2076 1.391 . S
C2078 C2079 1.400 . S
C2079 C2078 1.400 . S
C2079 C2080 1.398 . S
C2079 C2085 1.491 . S
C2080 H2071 0.950 . S
C2080 C2079 1.398 . S
C2080 C2081 1.391 . S
C2081 H2069 0.950 . S
C2081 C2077 1.393 . S
C2081 C2080 1.391 . S
C2082 H2072 0.950 . S
C2082 C2083 1.386 . S
C2082 C2084 1.391 . S
C2083 C2082 1.386 . S
C2083 C2087 1.393 . S
C2084 H2073 0.950 . S
C2084 C2082 1.391 . S
C2084 C2085 1.400 . S
C2085 C2079 1.491 . S
C2085 C2084 1.400 . S
C2085 C2086 1.398 . S
C2086 H2074 0.950 . S
C2086 C2085 1.398 . S
C2086 C2087 1.391 . S
C2087 H2075 0.950 . S
C2087 C2083 1.393 . S
C2087 C2086 1.391 . S
H2088 C2096 0.950 . S
H2089 C2101 0.950 . S
H2090 C2098 0.950 . S
H2091 C2100 0.950 . S
H2092 C2102 0.950 . S
H2093 C2104 0.950 . S
H2094 C2106 0.950 . S
H2095 C2107 0.950 . S
C2096 H2088 0.950 . S
C2096 C2097 1.386 . S
C2096 C2098 1.391 . S
C2097 C2096 1.386 . S
C2097 C2101 1.393 . S
C2098 H2090 0.950 . S
C2098 C2096 1.391 . S
C2098 C2099 1.400 . S
C2099 C2098 1.400 . S
C2099 C2100 1.398 . S
C2099 C2105 1.491 . S
C2100 H2091 0.950 . S
C2100 C2099 1.398 . S
C2100 C2101 1.391 . S
C2101 H2089 0.950 . S
C2101 C2097 1.393 . S
C2101 C2100 1.391 . S
C2102 H2092 0.950 . S
C2102 C2103 1.386 . S
C2102 C2104 1.391 . S
C2103 C2102 1.386 . S
C2103 C2107 1.393 . S
C2104 H2093 0.950 . S
C2104 C2102 1.391 . S
C2104 C2105 1.400 . S
C2105 C2099 1.491 . S
C2105 C2104 1.400 . S
C2105 C2106 1.398 . S
C2106 H2094 0.950 . S
C2106 C2105 1.398 . S
C2106 C2107 1.391 . S
C2107 H2095 0.950 . S
C2107 C2103 1.393 . S
C2107 C2106 1.391 . S
H2108 C2116 0.950 . S
H2109 C2121 0.950 . S
H2110 C2118 0.950 . S
H2111 C2120 0.950 . S
H2112 C2122 0.950 . S
H2113 C2124 0.950 . S
H2114 C2126 0.950 . S
H2115 C2127 0.950 . S
C2116 H2108 0.950 . S
C2116 C2117 1.386 . S
C2116 C2118 1.391 . S
C2117 C2116 1.386 . S
C2117 C2121 1.393 . S
C2118 H2110 0.950 . S
C2118 C2116 1.391 . S
C2118 C2119 1.400 . S
C2119 C2118 1.400 . S
C2119 C2120 1.398 . S
C2119 C2125 1.491 . S
C2120 H2111 0.950 . S
C2120 C2119 1.398 . S
C2120 C2121 1.391 . S
C2121 H2109 0.950 . S
C2121 C2117 1.393 . S
C2121 C2120 1.391 . S
C2122 H2112 0.950 . S
C2122 C2123 1.386 . S
C2122 C2124 1.391 . S
C2123 C2122 1.386 . S
C2123 C2127 1.393 . S
C2124 H2113 0.950 . S
C2124 C2122 1.391 . S
C2124 C2125 1.400 . S
C2125 C2119 1.491 . S
C2125 C2124 1.400 . S
C2125 C2126 1.398 . S
C2126 H2114 0.950 . S
C2126 C2125 1.398 . S
C2126 C2127 1.391 . S
C2127 H2115 0.950 . S
C2127 C2123 1.393 . S
C2127 C2126 1.391 . S
H2128 C2136 0.950 . S
H2129 C2141 0.950 . S
H2130 C2138 0.950 . S
H2131 C2140 0.950 . S
H2132 C2142 0.950 . S
H2133 C2144 0.950 . S
H2134 C2146 0.950 . S
H2135 C2147 0.950 . S
C2136 H2128 0.950 . S
C2136 C2137 1.386 . S
C2136 C2138 1.391 . S
C2137 C2136 1.386 . S
C2137 C2141 1.393 . S
C2138 H2130 0.950 . S
C2138 C2136 1.391 . S
C2138 C2139 1.400 . S
C2139 C2138 1.400 . S
C2139 C2140 1.398 . S
C2139 C2145 1.491 . S
C2140 H2131 0.950 . S
C2140 C2139 1.398 . S
C2140 C2141 1.391 . S
C2141 H2129 0.950 . S
C2141 C2137 1.393 . S
C2141 C2140 1.391 . S
C2142 H2132 0.950 . S
C2142 C2143 1.386 . S
C2142 C2144 1.391 . S
C2143 C2142 1.386 . S
C2143 C2147 1.393 . S
C2144 H2133 0.950 . S
C2144 C2142 1.391 . S
C2144 C2145 1.400 . S
C2145 C2139 1.491 . S
C2145 C2144 1.400 . S
C2145 C2146 1.398 . S
C2146 H2134 0.950 . S
C2146 C2145 1.398 . S
C2146 C2147 1.391 . S
C2147 H2135 0.950 . S
C2147 C2143 1.393 . S
C2147 C2146 1.391 . S
H2148 C2156 0.950 . S
H2149 C2161 0.950 . S
H2150 C2158 0.950 . S
H2151 C2160 0.950 . S
H2152 C2162 0.950 . S
H2153 C2164 0.950 . S
H2154 C2166 0.950 . S
H2155 C2167 0.950 . S
C2156 H2148 0.950 . S
C2156 C2157 1.386 . S
C2156 C2158 1.391 . S
C2157 C2156 1.386 . S
C2157 C2161 1.393 . S
C2158 H2150 0.950 . S
C2158 C2156 1.391 . S
C2158 C2159 1.400 . S
C2159 C2158 1.400 . S
C2159 C2160 1.398 . S
C2159 C2165 1.491 . S
C2160 H2151 0.950 . S
C2160 C2159 1.398 . S
C2160 C2161 1.391 . S
C2161 H2149 0.950 . S
C2161 C2157 1.393 . S
C2161 C2160 1.391 . S
C2162 H2152 0.950 . S
C2162 C2163 1.386 . S
C2162 C2164 1.391 . S
C2163 C2162 1.386 . S
C2163 C2167 1.393 . S
C2164 H2153 0.950 . S
C2164 C2162 1.391 . S
C2164 C2165 1.400 . S
C2165 C2159 1.491 . S
C2165 C2164 1.400 . S
C2165 C2166 1.398 . S
C2166 H2154 0.950 . S
C2166 C2165 1.398 . S
C2166 C2167 1.391 . S
C2167 H2155 0.950 . S
C2167 C2163 1.393 . S
C2167 C2166 1.391 . S
H2168 C2176 0.950 . S
H2169 C2181 0.950 . S
H2170 C2178 0.950 . S
H2171 C2180 0.950 . S
H2172 C2182 0.950 . S
H2173 C2184 0.950 . S
H2174 C2186 0.950 . S
H2175 C2187 0.950 . S
C2176 H2168 0.950 . S
C2176 C2177 1.386 . S
C2176 C2178 1.391 . S
C2177 C2176 1.386 . S
C2177 C2181 1.393 . S
C2178 H2170 0.950 . S
C2178 C2176 1.391 . S
C2178 C2179 1.400 . S
C2179 C2178 1.400 . S
C2179 C2180 1.398 . S
C2179 C2185 1.491 . S
C2180 H2171 0.950 . S
C2180 C2179 1.398 . S
C2180 C2181 1.391 . S
C2181 H2169 0.950 . S
C2181 C2177 1.393 . S
C2181 C2180 1.391 . S
C2182 H2172 0.950 . S
C2182 C2183 1.386 . S
C2182 C2184 1.391 . S
C2183 C2182 1.386 . S
C2183 C2187 1.393 . S
C2184 H2173 0.950 . S
C2184 C2182 1.391 . S
C2184 C2185 1.400 . S
C2185 C2179 1.491 . S
C2185 C2184 1.400 . S
C2185 C2186 1.398 . S
C2186 H2174 0.950 . S
C2186 C2185 1.398 . S
C2186 C2187 1.391 . S
C2187 H2175 0.950 . S
C2187 C2183 1.393 . S
C2187 C2186 1.391 . S
H2188 C2196 0.950 . S
H2189 C2201 0.950 . S
H2190 C2198 0.950 . S
H2191 C2200 0.950 . S
H2192 C2202 0.950 . S
H2193 C2204 0.950 . S
H2194 C2206 0.950 . S
H2195 C2207 0.950 . S
C2196 H2188 0.950 . S
C2196 C2197 1.386 . S
C2196 C2198 1.391 . S
C2197 C2196 1.386 . S
C2197 C2201 1.393 . S
C2198 H2190 0.950 . S
C2198 C2196 1.391 . S
C2198 C2199 1.400 . S
C2199 C2198 1.400 . S
C2199 C2200 1.398 . S
C2199 C2205 1.491 . S
C2200 H2191 0.950 . S
C2200 C2199 1.398 . S
C2200 C2201 1.391 . S
C2201 H2189 0.950 . S
C2201 C2197 1.393 . S
C2201 C2200 1.391 . S
C2202 H2192 0.950 . S
C2202 C2203 1.386 . S
C2202 C2204 1.391 . S
C2203 C2202 1.386 . S
C2203 C2207 1.393 . S
C2204 H2193 0.950 . S
C2204 C2202 1.391 . S
C2204 C2205 1.400 . S
C2205 C2199 1.491 . S
C2205 C2204 1.400 . S
C2205 C2206 1.398 . S
C2206 H2194 0.950 . S
C2206 C2205 1.398 . S
C2206 C2207 1.391 . S
C2207 H2195 0.950 . S
C2207 C2203 1.393 . S
C2207 C2206 1.391 . S
H2208 C2216 0.950 . S
H2209 C2221 0.950 . S
H2210 C2218 0.950 . S
H2211 C2220 0.950 . S
H2212 C2222 0.950 . S
H2213 C2224 0.950 . S
H2214 C2226 0.950 . S
H2215 C2227 0.950 . S
C2216 H2208 0.950 . S
C2216 C2217 1.386 1_556 S
C2216 C2218 1.391 . S
C2217 C2216 1.386 1_554 S
C2217 C2221 1.393 . S
C2218 H2210 0.950 . S
C2218 C2216 1.391 . S
C2218 C2219 1.400 1_556 S
C2219 C2218 1.400 1_554 S
C2219 C2220 1.398 . S
C2219 C2225 1.491 1_654 S
C2220 H2211 0.950 . S
C2220 C2219 1.398 . S
C2220 C2221 1.391 . S
C2221 H2209 0.950 . S
C2221 C2217 1.393 . S
C2221 C2220 1.391 . S
C2222 H2212 0.950 . S
C2222 C2223 1.386 1_554 S
C2222 C2224 1.391 . S
C2223 C2222 1.386 1_556 S
C2223 C2227 1.393 . S
C2224 H2213 0.950 . S
C2224 C2222 1.391 . S
C2224 C2225 1.400 1_554 S
C2225 C2219 1.491 1_456 S
C2225 C2224 1.400 1_556 S
C2225 C2226 1.398 . S
C2226 H2214 0.950 . S
C2226 C2225 1.398 . S
C2226 C2227 1.391 . S
C2227 H2215 0.950 . S
C2227 C2223 1.393 . S
C2227 C2226 1.391 . S
H2228 C2236 0.950 . S
H2229 C2241 0.950 . S
H2230 C2238 0.950 . S
H2231 C2240 0.950 . S
H2232 C2242 0.950 . S
H2233 C2244 0.950 . S
H2234 C2246 0.950 . S
H2235 C2247 0.950 . S
C2236 H2228 0.950 . S
C2236 C2237 1.386 1_556 S
C2236 C2238 1.391 . S
C2237 C2236 1.386 1_554 S
C2237 C2241 1.393 . S
C2238 H2230 0.950 . S
C2238 C2236 1.391 . S
C2238 C2239 1.400 1_556 S
C2239 C2238 1.400 1_554 S
C2239 C2240 1.398 . S
C2239 C2245 1.491 1_554 S
C2240 H2231 0.950 . S
C2240 C2239 1.398 . S
C2240 C2241 1.391 . S
C2241 H2229 0.950 . S
C2241 C2237 1.393 . S
C2241 C2240 1.391 . S
C2242 H2232 0.950 . S
C2242 C2243 1.386 1_554 S
C2242 C2244 1.391 . S
C2243 C2242 1.386 1_556 S
C2243 C2247 1.393 . S
C2244 H2233 0.950 . S
C2244 C2242 1.391 . S
C2244 C2245 1.400 1_554 S
C2245 C2239 1.491 1_556 S
C2245 C2244 1.400 1_556 S
C2245 C2246 1.398 . S
C2246 H2234 0.950 . S
C2246 C2245 1.398 . S
C2246 C2247 1.391 . S
C2247 H2235 0.950 . S
C2247 C2243 1.393 . S
C2247 C2246 1.391 . S
H2248 C2256 0.950 . S
H2249 C2261 0.950 . S
H2250 C2258 0.950 . S
H2251 C2260 0.950 . S
H2252 C2262 0.950 . S
H2253 C2264 0.950 . S
H2254 C2266 0.950 . S
H2255 C2267 0.950 . S
C2256 H2248 0.950 . S
C2256 C2257 1.386 . S
C2256 C2258 1.391 . S
C2257 C2256 1.386 . S
C2257 C2261 1.393 . S
C2258 H2250 0.950 . S
C2258 C2256 1.391 . S
C2258 C2259 1.400 . S
C2259 C2258 1.400 . S
C2259 C2260 1.398 . S
C2259 C2265 1.491 1_455 S
C2260 H2251 0.950 . S
C2260 C2259 1.398 . S
C2260 C2261 1.391 . S
C2261 H2249 0.950 . S
C2261 C2257 1.393 . S
C2261 C2260 1.391 . S
C2262 H2252 0.950 . S
C2262 C2263 1.386 . S
C2262 C2264 1.391 . S
C2263 C2262 1.386 . S
C2263 C2267 1.393 . S
C2264 H2253 0.950 . S
C2264 C2262 1.391 . S
C2264 C2265 1.400 . S
C2265 C2259 1.491 1_655 S
C2265 C2264 1.400 . S
C2265 C2266 1.398 . S
C2266 H2254 0.950 . S
C2266 C2265 1.398 . S
C2266 C2267 1.391 . S
C2267 H2255 0.950 . S
C2267 C2263 1.393 . S
C2267 C2266 1.391 . S
H2268 C2276 0.950 . S
H2269 C2281 0.950 . S
H2270 C2278 0.950 . S
H2271 C2280 0.950 . S
H2272 C2282 0.950 . S
H2273 C2284 0.950 . S
H2274 C2286 0.950 . S
H2275 C2287 0.950 . S
C2276 H2268 0.950 . S
C2276 C2277 1.386 . S
C2276 C2278 1.391 . S
C2277 C2276 1.386 . S
C2277 C2281 1.393 . S
C2278 H2270 0.950 . S
C2278 C2276 1.391 . S
C2278 C2279 1.400 . S
C2279 C2278 1.400 . S
C2279 C2280 1.398 . S
C2279 C2285 1.491 . S
C2280 H2271 0.950 . S
C2280 C2279 1.398 . S
C2280 C2281 1.391 . S
C2281 H2269 0.950 . S
C2281 C2277 1.393 . S
C2281 C2280 1.391 . S
C2282 H2272 0.950 . S
C2282 C2283 1.386 . S
C2282 C2284 1.391 . S
C2283 C2282 1.386 . S
C2283 C2287 1.393 . S
C2284 H2273 0.950 . S
C2284 C2282 1.391 . S
C2284 C2285 1.400 . S
C2285 C2279 1.491 . S
C2285 C2284 1.400 . S
C2285 C2286 1.398 . S
C2286 H2274 0.950 . S
C2286 C2285 1.398 . S
C2286 C2287 1.391 . S
C2287 H2275 0.950 . S
C2287 C2283 1.393 . S
C2287 C2286 1.391 . S
H2288 C2296 0.950 . S
H2289 C2301 0.950 1_556 S
H2290 C2298 0.950 . S
H2291 C2300 0.950 . S
H2292 C2302 0.950 . S
H2293 C2304 0.950 . S
H2294 C2306 0.950 . S
H2295 C2307 0.950 1_554 S
C2296 H2288 0.950 . S
C2296 C2297 1.386 . S
C2296 C2298 1.391 . S
C2297 C2296 1.386 . S
C2297 C2301 1.393 . S
C2298 H2290 0.950 . S
C2298 C2296 1.391 . S
C2298 C2299 1.400 . S
C2299 C2298 1.400 . S
C2299 C2300 1.398 1_554 S
C2299 C2305 1.491 1_554 S
C2300 H2291 0.950 . S
C2300 C2299 1.398 1_556 S
C2300 C2301 1.391 1_556 S
C2301 H2289 0.950 1_554 S
C2301 C2297 1.393 . S
C2301 C2300 1.391 1_554 S
C2302 H2292 0.950 . S
C2302 C2303 1.386 . S
C2302 C2304 1.391 . S
C2303 C2302 1.386 . S
C2303 C2307 1.393 . S
C2304 H2293 0.950 . S
C2304 C2302 1.391 . S
C2304 C2305 1.400 . S
C2305 C2299 1.491 1_556 S
C2305 C2304 1.400 . S
C2305 C2306 1.398 1_556 S
C2306 H2294 0.950 . S
C2306 C2305 1.398 1_554 S
C2306 C2307 1.391 1_554 S
C2307 H2295 0.950 1_556 S
C2307 C2303 1.393 . S
C2307 C2306 1.391 1_556 S
H2308 C2316 0.950 . S
H2309 C2321 0.950 . S
H2310 C2318 0.950 . S
H2311 C2320 0.950 . S
H2312 C2322 0.950 . S
H2313 C2324 0.950 . S
H2314 C2326 0.950 . S
H2315 C2327 0.950 . S
C2316 H2308 0.950 . S
C2316 C2317 1.386 . S
C2316 C2318 1.391 . S
C2317 C2316 1.386 . S
C2317 C2321 1.393 . S
C2318 H2310 0.950 . S
C2318 C2316 1.391 . S
C2318 C2319 1.400 . S
C2319 C2318 1.400 . S
C2319 C2320 1.398 . S
C2319 C2325 1.491 1_655 S
C2320 H2311 0.950 . S
C2320 C2319 1.398 . S
C2320 C2321 1.391 . S
C2321 H2309 0.950 . S
C2321 C2317 1.393 . S
C2321 C2320 1.391 . S
C2322 H2312 0.950 . S
C2322 C2323 1.386 . S
C2322 C2324 1.391 . S
C2323 C2322 1.386 . S
C2323 C2327 1.393 . S
C2324 H2313 0.950 . S
C2324 C2322 1.391 . S
C2324 C2325 1.400 . S
C2325 C2319 1.491 1_455 S
C2325 C2324 1.400 . S
C2325 C2326 1.398 . S
C2326 H2314 0.950 . S
C2326 C2325 1.398 . S
C2326 C2327 1.391 . S
C2327 H2315 0.950 . S
C2327 C2323 1.393 . S
C2327 C2326 1.391 . S
H2328 C2336 0.950 . S
H2329 C2341 0.950 . S
H2330 C2338 0.950 . S
H2331 C2340 0.950 . S
H2332 C2342 0.950 . S
H2333 C2344 0.950 . S
H2334 C2346 0.950 . S
H2335 C2347 0.950 . S
C2336 H2328 0.950 . S
C2336 C2337 1.386 . S
C2336 C2338 1.391 . S
C2337 C2336 1.386 . S
C2337 C2341 1.393 . S
C2338 H2330 0.950 . S
C2338 C2336 1.391 . S
C2338 C2339 1.400 . S
C2339 C2338 1.400 . S
C2339 C2340 1.398 . S
C2339 C2345 1.491 . S
C2340 H2331 0.950 . S
C2340 C2339 1.398 . S
C2340 C2341 1.391 . S
C2341 H2329 0.950 . S
C2341 C2337 1.393 . S
C2341 C2340 1.391 . S
C2342 H2332 0.950 . S
C2342 C2343 1.386 . S
C2342 C2344 1.391 . S
C2343 C2342 1.386 . S
C2343 C2347 1.393 . S
C2344 H2333 0.950 . S
C2344 C2342 1.391 . S
C2344 C2345 1.400 . S
C2345 C2339 1.491 . S
C2345 C2344 1.400 . S
C2345 C2346 1.398 . S
C2346 H2334 0.950 . S
C2346 C2345 1.398 . S
C2346 C2347 1.391 . S
C2347 H2335 0.950 . S
C2347 C2343 1.393 . S
C2347 C2346 1.391 . S
H2348 C2356 0.950 . S
H2349 C2361 0.950 . S
H2350 C2358 0.950 . S
H2351 C2360 0.950 1_565 S
H2352 C2362 0.950 . S
H2353 C2364 0.950 . S
H2354 C2366 0.950 1_545 S
H2355 C2367 0.950 . S
C2356 H2348 0.950 . S
C2356 C2357 1.386 . S
C2356 C2358 1.391 . S
C2357 C2356 1.386 . S
C2357 C2361 1.393 . S
C2358 H2350 0.950 . S
C2358 C2356 1.391 . S
C2358 C2359 1.400 . S
C2359 C2358 1.400 . S
C2359 C2360 1.398 . S
C2359 C2365 1.491 1_645 S
C2360 H2351 0.950 1_545 S
C2360 C2359 1.398 . S
C2360 C2361 1.391 . S
C2361 H2349 0.950 . S
C2361 C2357 1.393 . S
C2361 C2360 1.391 . S
C2362 H2352 0.950 . S
C2362 C2363 1.386 . S
C2362 C2364 1.391 . S
C2363 C2362 1.386 . S
C2363 C2367 1.393 . S
C2364 H2353 0.950 . S
C2364 C2362 1.391 . S
C2364 C2365 1.400 . S
C2365 C2359 1.491 1_465 S
C2365 C2364 1.400 . S
C2365 C2366 1.398 . S
C2366 H2354 0.950 1_565 S
C2366 C2365 1.398 . S
C2366 C2367 1.391 . S
C2367 H2355 0.950 . S
C2367 C2363 1.393 . S
C2367 C2366 1.391 . S
H2368 C2376 0.950 . S
H2369 C2381 0.950 . S
H2370 C2378 0.950 . S
H2371 C2380 0.950 . S
H2372 C2382 0.950 . S
H2373 C2384 0.950 . S
H2374 C2386 0.950 . S
H2375 C2387 0.950 . S
C2376 H2368 0.950 . S
C2376 C2377 1.386 . S
C2376 C2378 1.391 . S
C2377 C2376 1.386 . S
C2377 C2381 1.393 . S
C2378 H2370 0.950 . S
C2378 C2376 1.391 . S
C2378 C2379 1.400 . S
C2379 C2378 1.400 . S
C2379 C2380 1.398 . S
C2379 C2385 1.491 . S
C2380 H2371 0.950 . S
C2380 C2379 1.398 . S
C2380 C2381 1.391 . S
C2381 H2369 0.950 . S
C2381 C2377 1.393 . S
C2381 C2380 1.391 . S
C2382 H2372 0.950 . S
C2382 C2383 1.386 . S
C2382 C2384 1.391 . S
C2383 C2382 1.386 . S
C2383 C2387 1.393 . S
C2384 H2373 0.950 . S
C2384 C2382 1.391 . S
C2384 C2385 1.400 . S
C2385 C2379 1.491 . S
C2385 C2384 1.400 . S
C2385 C2386 1.398 . S
C2386 H2374 0.950 . S
C2386 C2385 1.398 . S
C2386 C2387 1.391 . S
C2387 H2375 0.950 . S
C2387 C2383 1.393 . S
C2387 C2386 1.391 . S
H2388 C2396 0.950 . S
H2389 C2401 0.950 . S
H2390 C2398 0.950 1_565 S
H2391 C2400 0.950 . S
H2392 C2402 0.950 . S
H2393 C2404 0.950 1_545 S
H2394 C2406 0.950 . S
H2395 C2407 0.950 . S
C2396 H2388 0.950 . S
C2396 C2397 1.386 . S
C2396 C2398 1.391 . S
C2397 C2396 1.386 . S
C2397 C2401 1.393 . S
C2398 H2390 0.950 1_545 S
C2398 C2396 1.391 . S
C2398 C2399 1.400 . S
C2399 C2398 1.400 . S
C2399 C2400 1.398 . S
C2399 C2405 1.491 1_545 S
C2400 H2391 0.950 . S
C2400 C2399 1.398 . S
C2400 C2401 1.391 . S
C2401 H2389 0.950 . S
C2401 C2397 1.393 . S
C2401 C2400 1.391 . S
C2402 H2392 0.950 . S
C2402 C2403 1.386 . S
C2402 C2404 1.391 . S
C2403 C2402 1.386 . S
C2403 C2407 1.393 . S
C2404 H2393 0.950 1_565 S
C2404 C2402 1.391 . S
C2404 C2405 1.400 . S
C2405 C2399 1.491 1_565 S
C2405 C2404 1.400 . S
C2405 C2406 1.398 . S
C2406 H2394 0.950 . S
C2406 C2405 1.398 . S
C2406 C2407 1.391 . S
C2407 H2395 0.950 . S
C2407 C2403 1.393 . S
C2407 C2406 1.391 . S
H2408 C2416 0.950 . S
H2409 C2421 0.950 . S
H2410 C2418 0.950 . S
H2411 C2420 0.950 . S
H2412 C2422 0.950 . S
H2413 C2424 0.950 . S
H2414 C2426 0.950 . S
H2415 C2427 0.950 . S
C2416 H2408 0.950 . S
C2416 C2417 1.386 . S
C2416 C2418 1.391 . S
C2417 C2416 1.386 . S
C2417 C2421 1.393 . S
C2418 H2410 0.950 . S
C2418 C2416 1.391 . S
C2418 C2419 1.400 . S
C2419 C2418 1.400 . S
C2419 C2420 1.398 . S
C2419 C2425 1.491 . S
C2420 H2411 0.950 . S
C2420 C2419 1.398 . S
C2420 C2421 1.391 . S
C2421 H2409 0.950 . S
C2421 C2417 1.393 . S
C2421 C2420 1.391 . S
C2422 H2412 0.950 . S
C2422 C2423 1.386 . S
C2422 C2424 1.391 . S
C2423 C2422 1.386 . S
C2423 C2427 1.393 . S
C2424 H2413 0.950 . S
C2424 C2422 1.391 . S
C2424 C2425 1.400 . S
C2425 C2419 1.491 . S
C2425 C2424 1.400 . S
C2425 C2426 1.398 . S
C2426 H2414 0.950 . S
C2426 C2425 1.398 . S
C2426 C2427 1.391 . S
C2427 H2415 0.950 . S
C2427 C2423 1.393 . S
C2427 C2426 1.391 . S
H2428 C2436 0.950 . S
H2429 C2441 0.950 . S
H2430 C2438 0.945 1_545 S
H2431 C2440 0.950 . S
H2432 C2442 0.950 . S
H2433 C2444 0.945 1_565 S
H2434 C2446 0.950 . S
H2435 C2447 0.950 . S
C2436 H2428 0.950 . S
C2436 C2437 1.386 . S
C2436 C2438 1.394 . S
C2437 C2436 1.386 . S
C2437 C2441 1.393 . S
C2438 H2430 0.945 1_565 S
C2438 C2436 1.394 . S
C2438 C2439 1.402 . S
C2439 C2438 1.402 . S
C2439 C2440 1.398 . S
C2439 C2445 1.491 1_565 S
C2440 H2431 0.950 . S
C2440 C2439 1.398 . S
C2440 C2441 1.391 . S
C2441 H2429 0.950 . S
C2441 C2437 1.393 . S
C2441 C2440 1.391 . S
C2442 H2432 0.950 . S
C2442 C2443 1.386 . S
C2442 C2444 1.394 . S
C2443 C2442 1.386 . S
C2443 C2447 1.393 . S
C2444 H2433 0.945 1_545 S
C2444 C2442 1.394 . S
C2444 C2445 1.402 . S
C2445 C2439 1.491 1_545 S
C2445 C2444 1.402 . S
C2445 C2446 1.398 . S
C2446 H2434 0.950 . S
C2446 C2445 1.398 . S
C2446 C2447 1.391 . S
C2447 H2435 0.950 . S
C2447 C2443 1.393 . S
C2447 C2446 1.391 . S
H2448 C2456 0.950 . S
H2449 C2461 0.950 . S
H2450 C2458 0.950 . S
H2451 C2460 0.950 . S
H2452 C2462 0.950 . S
H2453 C2464 0.950 . S
H2454 C2466 0.950 . S
H2455 C2467 0.950 . S
C2456 H2448 0.950 . S
C2456 C2457 1.386 . S
C2456 C2458 1.391 . S
C2457 C2456 1.386 . S
C2457 C2461 1.393 . S
C2458 H2450 0.950 . S
C2458 C2456 1.391 . S
C2458 C2459 1.400 . S
C2459 C2458 1.400 . S
C2459 C2460 1.398 . S
C2459 C2465 1.491 . S
C2460 H2451 0.950 . S
C2460 C2459 1.398 . S
C2460 C2461 1.391 . S
C2461 H2449 0.950 . S
C2461 C2457 1.393 . S
C2461 C2460 1.391 . S
C2462 H2452 0.950 . S
C2462 C2463 1.386 . S
C2462 C2464 1.391 . S
C2463 C2462 1.386 . S
C2463 C2467 1.393 . S
C2464 H2453 0.950 . S
C2464 C2462 1.391 . S
C2464 C2465 1.400 . S
C2465 C2459 1.491 . S
C2465 C2464 1.400 . S
C2465 C2466 1.398 . S
C2466 H2454 0.950 . S
C2466 C2465 1.398 . S
C2466 C2467 1.391 . S
C2467 H2455 0.950 . S
C2467 C2463 1.393 . S
C2467 C2466 1.391 . S
H2468 C2476 0.950 . S
H2469 C2481 0.950 . S
H2470 C2478 0.950 . S
H2471 C2480 0.950 . S
H2472 C2482 0.950 . S
H2473 C2484 0.950 . S
H2474 C2486 0.950 . S
H2475 C2487 0.950 . S
C2476 H2468 0.950 . S
C2476 C2477 1.386 . S
C2476 C2478 1.391 . S
C2477 C2476 1.386 . S
C2477 C2481 1.393 . S
C2478 H2470 0.950 . S
C2478 C2476 1.391 . S
C2478 C2479 1.400 . S
C2479 C2478 1.400 . S
C2479 C2480 1.398 . S
C2479 C2485 1.491 . S
C2480 H2471 0.950 . S
C2480 C2479 1.398 . S
C2480 C2481 1.391 . S
C2481 H2469 0.950 . S
C2481 C2477 1.393 . S
C2481 C2480 1.391 . S
C2482 H2472 0.950 . S
C2482 C2483 1.386 . S
C2482 C2484 1.391 . S
C2483 C2482 1.386 . S
C2483 C2487 1.393 . S
C2484 H2473 0.950 . S
C2484 C2482 1.391 . S
C2484 C2485 1.400 . S
C2485 C2479 1.491 . S
C2485 C2484 1.400 . S
C2485 C2486 1.398 . S
C2486 H2474 0.950 . S
C2486 C2485 1.398 . S
C2486 C2487 1.391 . S
C2487 H2475 0.950 . S
C2487 C2483 1.393 . S
C2487 C2486 1.391 . S
H2488 C2496 0.950 . S
H2489 C2501 0.950 . S
H2490 C2498 0.950 . S
H2491 C2500 0.950 . S
H2492 C2502 0.950 . S
H2493 C2504 0.950 . S
H2494 C2506 0.950 . S
H2495 C2507 0.950 . S
C2496 H2488 0.950 . S
C2496 C2497 1.386 . S
C2496 C2498 1.391 . S
C2497 C2496 1.386 . S
C2497 C2501 1.393 . S
C2498 H2490 0.950 . S
C2498 C2496 1.391 . S
C2498 C2499 1.400 . S
C2499 C2498 1.400 . S
C2499 C2500 1.398 . S
C2499 C2505 1.491 . S
C2500 H2491 0.950 . S
C2500 C2499 1.398 . S
C2500 C2501 1.391 . S
C2501 H2489 0.950 . S
C2501 C2497 1.393 . S
C2501 C2500 1.391 . S
C2502 H2492 0.950 . S
C2502 C2503 1.386 . S
C2502 C2504 1.391 . S
C2503 C2502 1.386 . S
C2503 C2507 1.393 . S
C2504 H2493 0.950 . S
C2504 C2502 1.391 . S
C2504 C2505 1.400 . S
C2505 C2499 1.491 . S
C2505 C2504 1.400 . S
C2505 C2506 1.398 . S
C2506 H2494 0.950 . S
C2506 C2505 1.398 . S
C2506 C2507 1.391 . S
C2507 H2495 0.950 . S
C2507 C2503 1.393 . S
C2507 C2506 1.391 . S
H2508 C2516 0.950 . S
H2509 C2521 0.950 . S
H2510 C2518 0.950 . S
H2511 C2520 0.950 . S
H2512 C2522 0.950 . S
H2513 C2524 0.950 . S
H2514 C2526 0.950 . S
H2515 C2527 0.950 . S
C2516 H2508 0.950 . S
C2516 C2517 1.386 1_556 S
C2516 C2518 1.391 . S
C2517 C2516 1.386 1_554 S
C2517 C2521 1.393 1_545 S
C2518 H2510 0.950 . S
C2518 C2516 1.391 . S
C2518 C2519 1.400 1_556 S
C2519 C2518 1.400 1_554 S
C2519 C2520 1.398 1_545 S
C2519 C2525 1.491 1_544 S
C2520 H2511 0.950 . S
C2520 C2519 1.398 1_565 S
C2520 C2521 1.391 . S
C2521 H2509 0.950 . S
C2521 C2517 1.393 1_565 S
C2521 C2520 1.391 . S
C2522 H2512 0.950 . S
C2522 C2523 1.386 1_554 S
C2522 C2524 1.391 . S
C2523 C2522 1.386 1_556 S
C2523 C2527 1.393 1_565 S
C2524 H2513 0.950 . S
C2524 C2522 1.391 . S
C2524 C2525 1.400 1_554 S
C2525 C2519 1.491 1_566 S
C2525 C2524 1.400 1_556 S
C2525 C2526 1.398 1_565 S
C2526 H2514 0.950 . S
C2526 C2525 1.398 1_545 S
C2526 C2527 1.391 . S
C2527 H2515 0.950 . S
C2527 C2523 1.393 1_545 S
C2527 C2526 1.391 . S
H2528 C2536 0.950 . S
H2529 C2541 0.950 . S
H2530 C2538 0.950 . S
H2531 C2540 0.950 . S
H2532 C2542 0.950 . S
H2533 C2544 0.950 . S
H2534 C2546 0.950 . S
H2535 C2547 0.950 . S
C2536 H2528 0.950 . S
C2536 C2537 1.386 . S
C2536 C2538 1.391 . S
C2537 C2536 1.386 . S
C2537 C2541 1.393 . S
C2538 H2530 0.950 . S
C2538 C2536 1.391 . S
C2538 C2539 1.400 . S
C2539 C2538 1.400 . S
C2539 C2540 1.398 . S
C2539 C2545 1.491 . S
C2540 H2531 0.950 . S
C2540 C2539 1.398 . S
C2540 C2541 1.391 . S
C2541 H2529 0.950 . S
C2541 C2537 1.393 . S
C2541 C2540 1.391 . S
C2542 H2532 0.950 . S
C2542 C2543 1.386 . S
C2542 C2544 1.391 . S
C2543 C2542 1.386 . S
C2543 C2547 1.393 . S
C2544 H2533 0.950 . S
C2544 C2542 1.391 . S
C2544 C2545 1.400 . S
C2545 C2539 1.491 . S
C2545 C2544 1.400 . S
C2545 C2546 1.398 . S
C2546 H2534 0.950 . S
C2546 C2545 1.398 . S
C2546 C2547 1.391 . S
C2547 H2535 0.950 . S
C2547 C2543 1.393 . S
C2547 C2546 1.391 . S
H2548 C2556 0.950 . S
H2549 C2561 0.950 . S
H2550 C2558 0.950 . S
H2551 C2560 0.950 . S
H2552 C2562 0.950 . S
H2553 C2564 0.950 . S
H2554 C2566 0.950 . S
H2555 C2567 0.950 . S
C2556 H2548 0.950 . S
C2556 C2557 1.386 . S
C2556 C2558 1.391 . S
C2557 C2556 1.386 . S
C2557 C2561 1.393 . S
C2558 H2550 0.950 . S
C2558 C2556 1.391 . S
C2558 C2559 1.400 . S
C2559 C2558 1.400 . S
C2559 C2560 1.398 . S
C2559 C2565 1.491 . S
C2560 H2551 0.950 . S
C2560 C2559 1.398 . S
C2560 C2561 1.391 . S
C2561 H2549 0.950 . S
C2561 C2557 1.393 . S
C2561 C2560 1.391 . S
C2562 H2552 0.950 . S
C2562 C2563 1.386 . S
C2562 C2564 1.391 . S
C2563 C2562 1.386 . S
C2563 C2567 1.393 . S
C2564 H2553 0.950 . S
C2564 C2562 1.391 . S
C2564 C2565 1.400 . S
C2565 C2559 1.491 . S
C2565 C2564 1.400 . S
C2565 C2566 1.398 . S
C2566 H2554 0.950 . S
C2566 C2565 1.398 . S
C2566 C2567 1.391 . S
C2567 H2555 0.950 . S
C2567 C2563 1.393 . S
C2567 C2566 1.391 . S
H2568 C2576 0.950 . S
H2569 C2581 0.950 . S
H2570 C2578 0.950 . S
H2571 C2580 0.950 . S
H2572 C2582 0.950 . S
H2573 C2584 0.950 . S
H2574 C2586 0.950 . S
H2575 C2587 0.950 . S
C2576 H2568 0.950 . S
C2576 C2577 1.386 . S
C2576 C2578 1.391 . S
C2577 C2576 1.386 . S
C2577 C2581 1.393 . S
C2578 H2570 0.950 . S
C2578 C2576 1.391 . S
C2578 C2579 1.400 . S
C2579 C2578 1.400 . S
C2579 C2580 1.398 . S
C2579 C2585 1.491 . S
C2580 H2571 0.950 . S
C2580 C2579 1.398 . S
C2580 C2581 1.391 . S
C2581 H2569 0.950 . S
C2581 C2577 1.393 . S
C2581 C2580 1.391 . S
C2582 H2572 0.950 . S
C2582 C2583 1.386 . S
C2582 C2584 1.391 . S
C2583 C2582 1.386 . S
C2583 C2587 1.393 . S
C2584 H2573 0.950 . S
C2584 C2582 1.391 . S
C2584 C2585 1.400 . S
C2585 C2579 1.491 . S
C2585 C2584 1.400 . S
C2585 C2586 1.398 . S
C2586 H2574 0.950 . S
C2586 C2585 1.398 . S
C2586 C2587 1.391 . S
C2587 H2575 0.950 . S
C2587 C2583 1.393 . S
C2587 C2586 1.391 . S
H2588 C2596 0.950 . S
H2589 C2601 0.950 . S
H2590 C2598 0.950 . S
H2591 C2600 0.950 . S
H2592 C2602 0.950 . S
H2593 C2604 0.950 . S
H2594 C2606 0.950 . S
H2595 C2607 0.950 . S
C2596 H2588 0.950 . S
C2596 C2597 1.386 . S
C2596 C2598 1.391 . S
C2597 C2596 1.386 . S
C2597 C2601 1.393 . S
C2598 H2590 0.950 . S
C2598 C2596 1.391 . S
C2598 C2599 1.400 . S
C2599 C2598 1.400 . S
C2599 C2600 1.398 . S
C2599 C2605 1.491 . S
C2600 H2591 0.950 . S
C2600 C2599 1.398 . S
C2600 C2601 1.391 . S
C2601 H2589 0.950 . S
C2601 C2597 1.393 . S
C2601 C2600 1.391 . S
C2602 H2592 0.950 . S
C2602 C2603 1.386 . S
C2602 C2604 1.391 . S
C2603 C2602 1.386 . S
C2603 C2607 1.393 . S
C2604 H2593 0.950 . S
C2604 C2602 1.391 . S
C2604 C2605 1.400 . S
C2605 C2599 1.491 . S
C2605 C2604 1.400 . S
C2605 C2606 1.398 . S
C2606 H2594 0.950 . S
C2606 C2605 1.398 . S
C2606 C2607 1.391 . S
C2607 H2595 0.950 . S
C2607 C2603 1.393 . S
C2607 C2606 1.391 . S
H2608 C2616 0.950 . S
H2609 C2621 0.950 . S
H2610 C2618 0.950 . S
H2611 C2620 0.950 . S
H2612 C2622 0.950 . S
H2613 C2624 0.950 . S
H2614 C2626 0.950 . S
H2615 C2627 0.950 . S
C2616 H2608 0.950 . S
C2616 C2617 1.386 . S
C2616 C2618 1.391 . S
C2617 C2616 1.386 . S
C2617 C2621 1.393 . S
C2618 H2610 0.950 . S
C2618 C2616 1.391 . S
C2618 C2619 1.400 . S
C2619 C2618 1.400 . S
C2619 C2620 1.398 . S
C2619 C2625 1.491 . S
C2620 H2611 0.950 . S
C2620 C2619 1.398 . S
C2620 C2621 1.391 . S
C2621 H2609 0.950 . S
C2621 C2617 1.393 . S
C2621 C2620 1.391 . S
C2622 H2612 0.950 . S
C2622 C2623 1.386 . S
C2622 C2624 1.391 . S
C2623 C2622 1.386 . S
C2623 C2627 1.393 . S
C2624 H2613 0.950 . S
C2624 C2622 1.391 . S
C2624 C2625 1.400 . S
C2625 C2619 1.491 . S
C2625 C2624 1.400 . S
C2625 C2626 1.398 . S
C2626 H2614 0.950 . S
C2626 C2625 1.398 . S
C2626 C2627 1.391 . S
C2627 H2615 0.950 . S
C2627 C2623 1.393 . S
C2627 C2626 1.391 . S
H2628 C2636 0.950 . S
H2629 C2641 0.950 . S
H2630 C2638 0.950 . S
H2631 C2640 0.950 . S
H2632 C2642 0.950 . S
H2633 C2644 0.950 . S
H2634 C2646 0.950 . S
H2635 C2647 0.950 . S
C2636 H2628 0.950 . S
C2636 C2637 1.386 . S
C2636 C2638 1.391 . S
C2637 C2636 1.386 . S
C2637 C2641 1.393 . S
C2638 H2630 0.950 . S
C2638 C2636 1.391 . S
C2638 C2639 1.400 . S
C2639 C2638 1.400 . S
C2639 C2640 1.398 . S
C2639 C2645 1.491 . S
C2640 H2631 0.950 . S
C2640 C2639 1.398 . S
C2640 C2641 1.391 . S
C2641 H2629 0.950 . S
C2641 C2637 1.393 . S
C2641 C2640 1.391 . S
C2642 H2632 0.950 . S
C2642 C2643 1.386 . S
C2642 C2644 1.391 . S
C2643 C2642 1.386 . S
C2643 C2647 1.393 . S
C2644 H2633 0.950 . S
C2644 C2642 1.391 . S
C2644 C2645 1.400 . S
C2645 C2639 1.491 . S
C2645 C2644 1.400 . S
C2645 C2646 1.398 . S
C2646 H2634 0.950 . S
C2646 C2645 1.398 . S
C2646 C2647 1.391 . S
C2647 H2635 0.950 . S
C2647 C2643 1.393 . S
C2647 C2646 1.391 . S
H2648 C2656 0.950 . S
H2649 C2661 0.950 . S
H2650 C2658 0.950 . S
H2651 C2660 0.950 . S
H2652 C2662 0.950 . S
H2653 C2664 0.950 . S
H2654 C2666 0.950 . S
H2655 C2667 0.950 . S
C2656 H2648 0.950 . S
C2656 C2657 1.386 . S
C2656 C2658 1.391 . S
C2657 C2656 1.386 . S
C2657 C2661 1.393 . S
C2658 H2650 0.950 . S
C2658 C2656 1.391 . S
C2658 C2659 1.400 . S
C2659 C2658 1.400 . S
C2659 C2660 1.398 . S
C2659 C2665 1.491 . S
C2660 H2651 0.950 . S
C2660 C2659 1.398 . S
C2660 C2661 1.391 . S
C2661 H2649 0.950 . S
C2661 C2657 1.393 . S
C2661 C2660 1.391 . S
C2662 H2652 0.950 . S
C2662 C2663 1.386 . S
C2662 C2664 1.391 . S
C2663 C2662 1.386 . S
C2663 C2667 1.393 . S
C2664 H2653 0.950 . S
C2664 C2662 1.391 . S
C2664 C2665 1.400 . S
C2665 C2659 1.491 . S
C2665 C2664 1.400 . S
C2665 C2666 1.398 . S
C2666 H2654 0.950 . S
C2666 C2665 1.398 . S
C2666 C2667 1.391 . S
C2667 H2655 0.950 . S
C2667 C2663 1.393 . S
C2667 C2666 1.391 . S
H2668 C2676 0.950 . S
H2669 C2681 0.950 . S
H2670 C2678 0.950 . S
H2671 C2680 0.950 . S
H2672 C2682 0.950 . S
H2673 C2684 0.950 . S
H2674 C2686 0.950 . S
H2675 C2687 0.950 . S
C2676 H2668 0.950 . S
C2676 C2677 1.386 . S
C2676 C2678 1.391 . S
C2677 C2676 1.386 . S
C2677 C2681 1.393 . S
C2678 H2670 0.950 . S
C2678 C2676 1.391 . S
C2678 C2679 1.400 . S
C2679 C2678 1.400 . S
C2679 C2680 1.398 . S
C2679 C2685 1.491 . S
C2680 H2671 0.950 . S
C2680 C2679 1.398 . S
C2680 C2681 1.391 . S
C2681 H2669 0.950 . S
C2681 C2677 1.393 . S
C2681 C2680 1.391 . S
C2682 H2672 0.950 . S
C2682 C2683 1.386 . S
C2682 C2684 1.391 . S
C2683 C2682 1.386 . S
C2683 C2687 1.393 . S
C2684 H2673 0.950 . S
C2684 C2682 1.391 . S
C2684 C2685 1.400 . S
C2685 C2679 1.491 . S
C2685 C2684 1.400 . S
C2685 C2686 1.398 . S
C2686 H2674 0.950 . S
C2686 C2685 1.398 . S
C2686 C2687 1.391 . S
C2687 H2675 0.950 . S
C2687 C2683 1.393 . S
C2687 C2686 1.391 . S
H2688 C2696 0.950 . S
H2689 C2701 0.950 . S
H2690 C2698 0.950 . S
H2691 C2700 0.950 . S
H2692 C2702 0.950 . S
H2693 C2704 0.950 . S
H2694 C2706 0.950 . S
H2695 C2707 0.950 . S
C2696 H2688 0.950 . S
C2696 C2697 1.386 . S
C2696 C2698 1.391 . S
C2697 C2696 1.386 . S
C2697 C2701 1.393 . S
C2698 H2690 0.950 . S
C2698 C2696 1.391 . S
C2698 C2699 1.400 . S
C2699 C2698 1.400 . S
C2699 C2700 1.398 . S
C2699 C2705 1.491 . S
C2700 H2691 0.950 . S
C2700 C2699 1.398 . S
C2700 C2701 1.391 . S
C2701 H2689 0.950 . S
C2701 C2697 1.393 . S
C2701 C2700 1.391 . S
C2702 H2692 0.950 . S
C2702 C2703 1.386 . S
C2702 C2704 1.391 . S
C2703 C2702 1.386 . S
C2703 C2707 1.393 . S
C2704 H2693 0.950 . S
C2704 C2702 1.391 . S
C2704 C2705 1.400 . S
C2705 C2699 1.491 . S
C2705 C2704 1.400 . S
C2705 C2706 1.398 . S
C2706 H2694 0.950 . S
C2706 C2705 1.398 . S
C2706 C2707 1.391 . S
C2707 H2695 0.950 . S
C2707 C2703 1.393 . S
C2707 C2706 1.391 . S
H2708 C2716 0.950 . S
H2709 C2721 0.950 . S
H2710 C2718 0.950 . S
H2711 C2720 0.950 . S
H2712 C2722 0.950 . S
H2713 C2724 0.950 . S
H2714 C2726 0.950 . S
H2715 C2727 0.950 . S
C2716 H2708 0.950 . S
C2716 C2717 1.386 . S
C2716 C2718 1.391 . S
C2717 C2716 1.386 . S
C2717 C2721 1.393 . S
C2718 H2710 0.950 . S
C2718 C2716 1.391 . S
C2718 C2719 1.400 . S
C2719 C2718 1.400 . S
C2719 C2720 1.398 . S
C2719 C2725 1.491 . S
C2720 H2711 0.950 . S
C2720 C2719 1.398 . S
C2720 C2721 1.391 . S
C2721 H2709 0.950 . S
C2721 C2717 1.393 . S
C2721 C2720 1.391 . S
C2722 H2712 0.950 . S
C2722 C2723 1.386 . S
C2722 C2724 1.391 . S
C2723 C2722 1.386 . S
C2723 C2727 1.393 . S
C2724 H2713 0.950 . S
C2724 C2722 1.391 . S
C2724 C2725 1.400 . S
C2725 C2719 1.491 . S
C2725 C2724 1.400 . S
C2725 C2726 1.398 . S
C2726 H2714 0.950 . S
C2726 C2725 1.398 . S
C2726 C2727 1.391 . S
C2727 H2715 0.950 . S
C2727 C2723 1.393 . S
C2727 C2726 1.391 . S
H2728 C2736 0.950 . S
H2729 C2741 0.950 . S
H2730 C2738 0.950 . S
H2731 C2740 0.950 . S
H2732 C2742 0.950 . S
H2733 C2744 0.950 . S
H2734 C2746 0.950 . S
H2735 C2747 0.950 . S
C2736 H2728 0.950 . S
C2736 C2737 1.386 . S
C2736 C2738 1.391 . S
C2737 C2736 1.386 . S
C2737 C2741 1.393 . S
C2738 H2730 0.950 . S
C2738 C2736 1.391 . S
C2738 C2739 1.400 . S
C2739 C2738 1.400 . S
C2739 C2740 1.398 . S
C2739 C2745 1.491 . S
C2740 H2731 0.950 . S
C2740 C2739 1.398 . S
C2740 C2741 1.391 . S
C2741 H2729 0.950 . S
C2741 C2737 1.393 . S
C2741 C2740 1.391 . S
C2742 H2732 0.950 . S
C2742 C2743 1.386 . S
C2742 C2744 1.391 . S
C2743 C2742 1.386 . S
C2743 C2747 1.393 . S
C2744 H2733 0.950 . S
C2744 C2742 1.391 . S
C2744 C2745 1.400 . S
C2745 C2739 1.491 . S
C2745 C2744 1.400 . S
C2745 C2746 1.398 . S
C2746 H2734 0.950 . S
C2746 C2745 1.398 . S
C2746 C2747 1.391 . S
C2747 H2735 0.950 . S
C2747 C2743 1.393 . S
C2747 C2746 1.391 . S
H2748 C2756 0.950 . S
H2749 C2761 0.950 . S
H2750 C2758 0.950 . S
H2751 C2760 0.950 . S
H2752 C2762 0.950 . S
H2753 C2764 0.950 . S
H2754 C2766 0.950 . S
H2755 C2767 0.950 . S
C2756 H2748 0.950 . S
C2756 C2757 1.386 . S
C2756 C2758 1.391 . S
C2757 C2756 1.386 . S
C2757 C2761 1.393 . S
C2758 H2750 0.950 . S
C2758 C2756 1.391 . S
C2758 C2759 1.400 . S
C2759 C2758 1.400 . S
C2759 C2760 1.398 . S
C2759 C2765 1.491 . S
C2760 H2751 0.950 . S
C2760 C2759 1.398 . S
C2760 C2761 1.391 . S
C2761 H2749 0.950 . S
C2761 C2757 1.393 . S
C2761 C2760 1.391 . S
C2762 H2752 0.950 . S
C2762 C2763 1.386 . S
C2762 C2764 1.391 . S
C2763 C2762 1.386 . S
C2763 C2767 1.393 . S
C2764 H2753 0.950 . S
C2764 C2762 1.391 . S
C2764 C2765 1.400 . S
C2765 C2759 1.491 . S
C2765 C2764 1.400 . S
C2765 C2766 1.398 . S
C2766 H2754 0.950 . S
C2766 C2765 1.398 . S
C2766 C2767 1.391 . S
C2767 H2755 0.950 . S
C2767 C2763 1.393 . S
C2767 C2766 1.391 . S
H2768 C2776 0.950 . S
H2769 C2781 0.950 . S
H2770 C2778 0.950 . S
H2771 C2780 0.950 . S
H2772 C2782 0.950 . S
H2773 C2784 0.950 . S
H2774 C2786 0.950 . S
H2775 C2787 0.950 . S
C2776 H2768 0.950 . S
C2776 C2777 1.386 . S
C2776 C2778 1.391 . S
C2777 C2776 1.386 . S
C2777 C2781 1.393 . S
C2778 H2770 0.950 . S
C2778 C2776 1.391 . S
C2778 C2779 1.400 . S
C2779 C2778 1.400 . S
C2779 C2780 1.398 . S
C2779 C2785 1.491 . S
C2780 H2771 0.950 . S
C2780 C2779 1.398 . S
C2780 C2781 1.391 . S
C2781 H2769 0.950 . S
C2781 C2777 1.393 . S
C2781 C2780 1.391 . S
C2782 H2772 0.950 . S
C2782 C2783 1.386 . S
C2782 C2784 1.391 . S
C2783 C2782 1.386 . S
C2783 C2787 1.393 . S
C2784 H2773 0.950 . S
C2784 C2782 1.391 . S
C2784 C2785 1.400 . S
C2785 C2779 1.491 . S
C2785 C2784 1.400 . S
C2785 C2786 1.398 . S
C2786 H2774 0.950 . S
C2786 C2785 1.398 . S
C2786 C2787 1.391 . S
C2787 H2775 0.950 . S
C2787 C2783 1.393 . S
C2787 C2786 1.391 . S
H2788 C2796 0.950 . S
H2789 C2801 0.950 . S
H2790 C2798 0.950 . S
H2791 C2800 0.950 . S
H2792 C2802 0.950 . S
H2793 C2804 0.950 . S
H2794 C2806 0.950 . S
H2795 C2807 0.950 . S
C2796 H2788 0.950 . S
C2796 C2797 1.386 . S
C2796 C2798 1.391 . S
C2797 C2796 1.386 . S
C2797 C2801 1.393 . S
C2798 H2790 0.950 . S
C2798 C2796 1.391 . S
C2798 C2799 1.400 . S
C2799 C2798 1.400 . S
C2799 C2800 1.398 . S
C2799 C2805 1.491 . S
C2800 H2791 0.950 . S
C2800 C2799 1.398 . S
C2800 C2801 1.391 . S
C2801 H2789 0.950 . S
C2801 C2797 1.393 . S
C2801 C2800 1.391 . S
C2802 H2792 0.950 . S
C2802 C2803 1.386 . S
C2802 C2804 1.391 . S
C2803 C2802 1.386 . S
C2803 C2807 1.393 . S
C2804 H2793 0.950 . S
C2804 C2802 1.391 . S
C2804 C2805 1.400 . S
C2805 C2799 1.491 . S
C2805 C2804 1.400 . S
C2805 C2806 1.398 . S
C2806 H2794 0.950 . S
C2806 C2805 1.398 . S
C2806 C2807 1.391 . S
C2807 H2795 0.950 . S
C2807 C2803 1.393 . S
C2807 C2806 1.391 . S
H2808 C2816 0.950 . S
H2809 C2821 0.950 . S
H2810 C2818 0.950 . S
H2811 C2820 0.950 . S
H2812 C2822 0.950 . S
H2813 C2824 0.950 . S
H2814 C2826 0.950 . S
H2815 C2827 0.950 . S
C2816 H2808 0.950 . S
C2816 C2817 1.386 . S
C2816 C2818 1.391 . S
C2817 C2816 1.386 . S
C2817 C2821 1.393 . S
C2818 H2810 0.950 . S
C2818 C2816 1.391 . S
C2818 C2819 1.400 . S
C2819 C2818 1.400 . S
C2819 C2820 1.398 . S
C2819 C2825 1.491 . S
C2820 H2811 0.950 . S
C2820 C2819 1.398 . S
C2820 C2821 1.391 . S
C2821 H2809 0.950 . S
C2821 C2817 1.393 . S
C2821 C2820 1.391 . S
C2822 H2812 0.950 . S
C2822 C2823 1.386 . S
C2822 C2824 1.391 . S
C2823 C2822 1.386 . S
C2823 C2827 1.393 . S
C2824 H2813 0.950 . S
C2824 C2822 1.391 . S
C2824 C2825 1.400 . S
C2825 C2819 1.491 . S
C2825 C2824 1.400 . S
C2825 C2826 1.398 . S
C2826 H2814 0.950 . S
C2826 C2825 1.398 . S
C2826 C2827 1.391 . S
C2827 H2815 0.950 . S
C2827 C2823 1.393 . S
C2827 C2826 1.391 . S
H2828 C2836 0.950 . S
H2829 C2841 0.950 . S
H2830 C2838 0.950 . S
H2831 C2840 0.950 . S
H2832 C2842 0.950 . S
H2833 C2844 0.950 . S
H2834 C2846 0.950 . S
H2835 C2847 0.950 . S
C2836 H2828 0.950 . S
C2836 C2837 1.386 . S
C2836 C2838 1.391 . S
C2837 C2836 1.386 . S
C2837 C2841 1.393 . S
C2838 H2830 0.950 . S
C2838 C2836 1.391 . S
C2838 C2839 1.400 . S
C2839 C2838 1.400 . S
C2839 C2840 1.398 . S
C2839 C2845 1.491 . S
C2840 H2831 0.950 . S
C2840 C2839 1.398 . S
C2840 C2841 1.391 . S
C2841 H2829 0.950 . S
C2841 C2837 1.393 . S
C2841 C2840 1.391 . S
C2842 H2832 0.950 . S
C2842 C2843 1.386 . S
C2842 C2844 1.391 . S
C2843 C2842 1.386 . S
C2843 C2847 1.393 . S
C2844 H2833 0.950 . S
C2844 C2842 1.391 . S
C2844 C2845 1.400 . S
C2845 C2839 1.491 . S
C2845 C2844 1.400 . S
C2845 C2846 1.398 . S
C2846 H2834 0.950 . S
C2846 C2845 1.398 . S
C2846 C2847 1.391 . S
C2847 H2835 0.950 . S
C2847 C2843 1.393 . S
C2847 C2846 1.391 . S
H2848 C2856 0.950 . S
H2849 C2861 0.950 . S
H2850 C2858 0.950 . S
H2851 C2860 0.950 . S
H2852 C2862 0.950 . S
H2853 C2864 0.950 . S
H2854 C2866 0.950 . S
H2855 C2867 0.950 . S
C2856 H2848 0.950 . S
C2856 C2857 1.386 . S
C2856 C2858 1.391 . S
C2857 C2856 1.386 . S
C2857 C2861 1.393 . S
C2858 H2850 0.950 . S
C2858 C2856 1.391 . S
C2858 C2859 1.400 . S
C2859 C2858 1.400 . S
C2859 C2860 1.398 . S
C2859 C2865 1.491 . S
C2860 H2851 0.950 . S
C2860 C2859 1.398 . S
C2860 C2861 1.391 . S
C2861 H2849 0.950 . S
C2861 C2857 1.393 . S
C2861 C2860 1.391 . S
C2862 H2852 0.950 . S
C2862 C2863 1.386 . S
C2862 C2864 1.391 . S
C2863 C2862 1.386 . S
C2863 C2867 1.393 . S
C2864 H2853 0.950 . S
C2864 C2862 1.391 . S
C2864 C2865 1.400 . S
C2865 C2859 1.491 . S
C2865 C2864 1.400 . S
C2865 C2866 1.398 . S
C2866 H2854 0.950 . S
C2866 C2865 1.398 . S
C2866 C2867 1.391 . S
C2867 H2855 0.950 . S
C2867 C2863 1.393 . S
C2867 C2866 1.391 . S
H2868 C2876 0.950 . S
H2869 C2881 0.950 . S
H2870 C2878 0.950 . S
H2871 C2880 0.950 . S
H2872 C2882 0.950 . S
H2873 C2884 0.950 . S
H2874 C2886 0.950 . S
H2875 C2887 0.950 . S
C2876 H2868 0.950 . S
C2876 C2877 1.386 . S
C2876 C2878 1.391 . S
C2877 C2876 1.386 . S
C2877 C2881 1.393 . S
C2878 H2870 0.950 . S
C2878 C2876 1.391 . S
C2878 C2879 1.400 . S
C2879 C2878 1.400 . S
C2879 C2880 1.398 . S
C2879 C2885 1.491 . S
C2880 H2871 0.950 . S
C2880 C2879 1.398 . S
C2880 C2881 1.391 . S
C2881 H2869 0.950 . S
C2881 C2877 1.393 . S
C2881 C2880 1.391 . S
C2882 H2872 0.950 . S
C2882 C2883 1.386 . S
C2882 C2884 1.391 . S
C2883 C2882 1.386 . S
C2883 C2887 1.393 . S
C2884 H2873 0.950 . S
C2884 C2882 1.391 . S
C2884 C2885 1.400 . S
C2885 C2879 1.491 . S
C2885 C2884 1.400 . S
C2885 C2886 1.398 . S
C2886 H2874 0.950 . S
C2886 C2885 1.398 . S
C2886 C2887 1.391 . S
C2887 H2875 0.950 . S
C2887 C2883 1.393 . S
C2887 C2886 1.391 . S
H2888 C2896 0.950 . S
H2889 C2901 0.950 . S
H2890 C2898 0.950 . S
H2891 C2900 0.950 . S
H2892 C2902 0.950 . S
H2893 C2904 0.950 . S
H2894 C2906 0.950 . S
H2895 C2907 0.950 . S
C2896 H2888 0.950 . S
C2896 C2897 1.386 . S
C2896 C2898 1.391 . S
C2897 C2896 1.386 . S
C2897 C2901 1.393 . S
C2898 H2890 0.950 . S
C2898 C2896 1.391 . S
C2898 C2899 1.400 . S
C2899 C2898 1.400 . S
C2899 C2900 1.398 . S
C2899 C2905 1.491 . S
C2900 H2891 0.950 . S
C2900 C2899 1.398 . S
C2900 C2901 1.391 . S
C2901 H2889 0.950 . S
C2901 C2897 1.393 . S
C2901 C2900 1.391 . S
C2902 H2892 0.950 . S
C2902 C2903 1.386 . S
C2902 C2904 1.391 . S
C2903 C2902 1.386 . S
C2903 C2907 1.393 . S
C2904 H2893 0.950 . S
C2904 C2902 1.391 . S
C2904 C2905 1.400 . S
C2905 C2899 1.491 . S
C2905 C2904 1.400 . S
C2905 C2906 1.398 . S
C2906 H2894 0.950 . S
C2906 C2905 1.398 . S
C2906 C2907 1.391 . S
C2907 H2895 0.950 . S
C2907 C2903 1.393 . S
C2907 C2906 1.391 . S
H2908 C2916 0.950 . S
H2909 C2921 0.950 . S
H2910 C2918 0.950 . S
H2911 C2920 0.950 . S
H2912 C2922 0.950 . S
H2913 C2924 0.950 . S
H2914 C2926 0.950 . S
H2915 C2927 0.950 . S
C2916 H2908 0.950 . S
C2916 C2917 1.386 . S
C2916 C2918 1.391 . S
C2917 C2916 1.386 . S
C2917 C2921 1.393 . S
C2918 H2910 0.950 . S
C2918 C2916 1.391 . S
C2918 C2919 1.400 . S
C2919 C2918 1.400 . S
C2919 C2920 1.398 . S
C2919 C2925 1.491 . S
C2920 H2911 0.950 . S
C2920 C2919 1.398 . S
C2920 C2921 1.391 . S
C2921 H2909 0.950 . S
C2921 C2917 1.393 . S
C2921 C2920 1.391 . S
C2922 H2912 0.950 . S
C2922 C2923 1.386 . S
C2922 C2924 1.391 . S
C2923 C2922 1.386 . S
C2923 C2927 1.393 . S
C2924 H2913 0.950 . S
C2924 C2922 1.391 . S
C2924 C2925 1.400 . S
C2925 C2919 1.491 . S
C2925 C2924 1.400 . S
C2925 C2926 1.398 . S
C2926 H2914 0.950 . S
C2926 C2925 1.398 . S
C2926 C2927 1.391 . S
C2927 H2915 0.950 . S
C2927 C2923 1.393 . S
C2927 C2926 1.391 . S
H2928 C2936 0.950 . S
H2929 C2941 0.950 1_565 S
H2930 C2938 0.950 . S
H2931 C2940 0.950 . S
H2932 C2942 0.950 . S
H2933 C2944 0.950 . S
H2934 C2946 0.950 . S
H2935 C2947 0.950 . S
C2936 H2928 0.950 . S
C2936 C2937 1.386 . S
C2936 C2938 1.391 . S
C2937 C2936 1.386 . S
C2937 C2941 1.393 . S
C2938 H2930 0.950 . S
C2938 C2936 1.391 . S
C2938 C2939 1.400 . S
C2939 C2938 1.400 . S
C2939 C2940 1.398 . S
C2939 C2945 1.491 . S
C2940 H2931 0.950 . S
C2940 C2939 1.398 . S
C2940 C2941 1.391 . S
C2941 H2929 0.950 1_545 S
C2941 C2937 1.393 . S
C2941 C2940 1.391 . S
C2942 H2932 0.950 . S
C2942 C2943 1.386 . S
C2942 C2944 1.391 . S
C2943 C2942 1.386 . S
C2943 C2947 1.393 . S
C2944 H2933 0.950 . S
C2944 C2942 1.391 . S
C2944 C2945 1.400 . S
C2945 C2939 1.491 . S
C2945 C2944 1.400 . S
C2945 C2946 1.398 . S
C2946 H2934 0.950 . S
C2946 C2945 1.398 . S
C2946 C2947 1.391 . S
C2947 H2935 0.950 . S
C2947 C2943 1.393 . S
C2947 C2946 1.391 . S
H2948 C2956 0.950 . S
H2949 C2961 0.950 . S
H2950 C2958 0.950 . S
H2951 C2960 0.950 . S
H2952 C2962 0.950 . S
H2953 C2964 0.950 . S
H2954 C2966 0.950 . S
H2955 C2967 0.950 . S
C2956 H2948 0.950 . S
C2956 C2957 1.386 . S
C2956 C2958 1.391 . S
C2957 C2956 1.386 . S
C2957 C2961 1.393 . S
C2958 H2950 0.950 . S
C2958 C2956 1.391 . S
C2958 C2959 1.400 . S
C2959 C2958 1.400 . S
C2959 C2960 1.398 . S
C2959 C2965 1.491 . S
C2960 H2951 0.950 . S
C2960 C2959 1.398 . S
C2960 C2961 1.391 . S
C2961 H2949 0.950 . S
C2961 C2957 1.393 . S
C2961 C2960 1.391 . S
C2962 H2952 0.950 . S
C2962 C2963 1.386 . S
C2962 C2964 1.391 . S
C2963 C2962 1.386 . S
C2963 C2967 1.393 . S
C2964 H2953 0.950 . S
C2964 C2962 1.391 . S
C2964 C2965 1.400 . S
C2965 C2959 1.491 . S
C2965 C2964 1.400 . S
C2965 C2966 1.398 . S
C2966 H2954 0.950 . S
C2966 C2965 1.398 . S
C2966 C2967 1.391 . S
C2967 H2955 0.950 . S
C2967 C2963 1.393 . S
C2967 C2966 1.391 . S
H2968 C2976 0.950 . S
H2969 C2981 0.950 . S
H2970 C2978 0.950 . S
H2971 C2980 0.950 . S
H2972 C2982 0.950 . S
H2973 C2984 0.950 . S
H2974 C2986 0.950 . S
H2975 C2987 0.950 . S
C2976 H2968 0.950 . S
C2976 C2977 1.386 . S
C2976 C2978 1.391 . S
C2977 C2976 1.386 . S
C2977 C2981 1.393 . S
C2978 H2970 0.950 . S
C2978 C2976 1.391 . S
C2978 C2979 1.400 . S
C2979 C2978 1.400 . S
C2979 C2980 1.398 . S
C2979 C2985 1.491 . S
C2980 H2971 0.950 . S
C2980 C2979 1.398 . S
C2980 C2981 1.391 . S
C2981 H2969 0.950 . S
C2981 C2977 1.393 . S
C2981 C2980 1.391 . S
C2982 H2972 0.950 . S
C2982 C2983 1.386 . S
C2982 C2984 1.391 . S
C2983 C2982 1.386 . S
C2983 C2987 1.393 . S
C2984 H2973 0.950 . S
C2984 C2982 1.391 . S
C2984 C2985 1.400 . S
C2985 C2979 1.491 . S
C2985 C2984 1.400 . S
C2985 C2986 1.398 . S
C2986 H2974 0.950 . S
C2986 C2985 1.398 . S
C2986 C2987 1.391 . S
C2987 H2975 0.950 . S
C2987 C2983 1.393 . S
C2987 C2986 1.391 . S
H2988 C2996 0.950 . S
H2989 C3001 0.950 . S
H2990 C2998 0.950 . S
H2991 C3000 0.950 . S
H2992 C3002 0.950 . S
H2993 C3004 0.950 . S
H2994 C3006 0.950 . S
H2995 C3007 0.950 . S
C2996 H2988 0.950 . S
C2996 C2997 1.386 . S
C2996 C2998 1.391 . S
C2997 C2996 1.386 . S
C2997 C3001 1.393 . S
C2998 H2990 0.950 . S
C2998 C2996 1.391 . S
C2998 C2999 1.400 . S
C2999 C2998 1.400 . S
C2999 C3000 1.398 . S
C2999 C3005 1.491 . S
C3000 H2991 0.950 . S
C3000 C2999 1.398 . S
C3000 C3001 1.391 . S
C3001 H2989 0.950 . S
C3001 C2997 1.393 . S
C3001 C3000 1.391 . S
C3002 H2992 0.950 . S
C3002 C3003 1.386 . S
C3002 C3004 1.391 . S
C3003 C3002 1.386 . S
C3003 C3007 1.393 . S
C3004 H2993 0.950 . S
C3004 C3002 1.391 . S
C3004 C3005 1.400 . S
C3005 C2999 1.491 . S
C3005 C3004 1.400 . S
C3005 C3006 1.398 . S
C3006 H2994 0.950 . S
C3006 C3005 1.398 . S
C3006 C3007 1.391 . S
C3007 H2995 0.950 . S
C3007 C3003 1.393 . S
C3007 C3006 1.391 . S
H3008 C3016 0.950 . S
H3009 C3021 0.950 . S
H3010 C3018 0.950 . S
H3011 C3020 0.950 . S
H3012 C3022 0.950 . S
H3013 C3024 0.950 . S
H3014 C3026 0.950 . S
H3015 C3027 0.950 . S
C3016 H3008 0.950 . S
C3016 C3017 1.386 . S
C3016 C3018 1.391 . S
C3017 C3016 1.386 . S
C3017 C3021 1.393 . S
C3018 H3010 0.950 . S
C3018 C3016 1.391 . S
C3018 C3019 1.400 . S
C3019 C3018 1.400 . S
C3019 C3020 1.398 . S
C3019 C3025 1.491 . S
C3020 H3011 0.950 . S
C3020 C3019 1.398 . S
C3020 C3021 1.391 . S
C3021 H3009 0.950 . S
C3021 C3017 1.393 . S
C3021 C3020 1.391 . S
C3022 H3012 0.950 . S
C3022 C3023 1.386 . S
C3022 C3024 1.391 . S
C3023 C3022 1.386 . S
C3023 C3027 1.393 . S
C3024 H3013 0.950 . S
C3024 C3022 1.391 . S
C3024 C3025 1.400 . S
C3025 C3019 1.491 . S
C3025 C3024 1.400 . S
C3025 C3026 1.398 . S
C3026 H3014 0.950 . S
C3026 C3025 1.398 . S
C3026 C3027 1.391 . S
C3027 H3015 0.950 . S
C3027 C3023 1.393 . S
C3027 C3026 1.391 . S
H3028 C3036 0.950 . S
H3029 C3041 0.950 . S
H3030 C3038 0.950 . S
H3031 C3040 0.950 . S
H3032 C3042 0.950 . S
H3033 C3044 0.950 . S
H3034 C3046 0.950 . S
H3035 C3047 0.950 . S
C3036 H3028 0.950 . S
C3036 C3037 1.386 . S
C3036 C3038 1.391 . S
C3037 C3036 1.386 . S
C3037 C3041 1.393 . S
C3038 H3030 0.950 . S
C3038 C3036 1.391 . S
C3038 C3039 1.400 . S
C3039 C3038 1.400 . S
C3039 C3040 1.398 . S
C3039 C3045 1.491 . S
C3040 H3031 0.950 . S
C3040 C3039 1.398 . S
C3040 C3041 1.391 . S
C3041 H3029 0.950 . S
C3041 C3037 1.393 . S
C3041 C3040 1.391 . S
C3042 H3032 0.950 . S
C3042 C3043 1.386 . S
C3042 C3044 1.391 . S
C3043 C3042 1.386 . S
C3043 C3047 1.393 . S
C3044 H3033 0.950 . S
C3044 C3042 1.391 . S
C3044 C3045 1.400 . S
C3045 C3039 1.491 . S
C3045 C3044 1.400 . S
C3045 C3046 1.398 . S
C3046 H3034 0.950 . S
C3046 C3045 1.398 . S
C3046 C3047 1.391 . S
C3047 H3035 0.950 . S
C3047 C3043 1.393 . S
C3047 C3046 1.391 . S
H3048 C3056 0.950 . S
H3049 C3061 0.950 . S
H3050 C3058 0.950 . S
H3051 C3060 0.950 . S
H3052 C3062 0.950 . S
H3053 C3064 0.950 . S
H3054 C3066 0.950 . S
H3055 C3067 0.950 . S
C3056 H3048 0.950 . S
C3056 C3057 1.386 . S
C3056 C3058 1.391 . S
C3057 C3056 1.386 . S
C3057 C3061 1.393 . S
C3058 H3050 0.950 . S
C3058 C3056 1.391 . S
C3058 C3059 1.400 . S
C3059 C3058 1.400 . S
C3059 C3060 1.398 . S
C3059 C3065 1.491 . S
C3060 H3051 0.950 . S
C3060 C3059 1.398 . S
C3060 C3061 1.391 . S
C3061 H3049 0.950 . S
C3061 C3057 1.393 . S
C3061 C3060 1.391 . S
C3062 H3052 0.950 . S
C3062 C3063 1.386 . S
C3062 C3064 1.391 . S
C3063 C3062 1.386 . S
C3063 C3067 1.393 . S
C3064 H3053 0.950 . S
C3064 C3062 1.391 . S
C3064 C3065 1.400 . S
C3065 C3059 1.491 . S
C3065 C3064 1.400 . S
C3065 C3066 1.398 . S
C3066 H3054 0.950 . S
C3066 C3065 1.398 . S
C3066 C3067 1.391 . S
C3067 H3055 0.950 . S
C3067 C3063 1.393 . S
C3067 C3066 1.391 . S
H3068 C3076 0.950 . S
H3069 C3081 0.950 . S
H3070 C3078 0.950 . S
H3071 C3080 0.950 . S
H3072 C3082 0.950 . S
H3073 C3084 0.950 . S
H3074 C3086 0.950 . S
H3075 C3087 0.950 . S
C3076 H3068 0.950 . S
C3076 C3077 1.386 . S
C3076 C3078 1.391 . S
C3077 C3076 1.386 . S
C3077 C3081 1.393 . S
C3078 H3070 0.950 . S
C3078 C3076 1.391 . S
C3078 C3079 1.400 . S
C3079 C3078 1.400 . S
C3079 C3080 1.398 . S
C3079 C3085 1.491 . S
C3080 H3071 0.950 . S
C3080 C3079 1.398 . S
C3080 C3081 1.391 . S
C3081 H3069 0.950 . S
C3081 C3077 1.393 . S
C3081 C3080 1.391 . S
C3082 H3072 0.950 . S
C3082 C3083 1.386 . S
C3082 C3084 1.391 . S
C3083 C3082 1.386 . S
C3083 C3087 1.393 . S
C3084 H3073 0.950 . S
C3084 C3082 1.391 . S
C3084 C3085 1.400 . S
C3085 C3079 1.491 . S
C3085 C3084 1.400 . S
C3085 C3086 1.398 . S
C3086 H3074 0.950 . S
C3086 C3085 1.398 . S
C3086 C3087 1.391 . S
C3087 H3075 0.950 . S
C3087 C3083 1.393 . S
C3087 C3086 1.391 . S
H3088 C3096 0.950 . S
H3089 C3101 0.950 . S
H3090 C3098 0.950 . S
H3091 C3100 0.950 . S
H3092 C3102 0.950 1_565 S
H3093 C3104 0.950 . S
H3094 C3106 0.950 . S
H3095 C3107 0.950 . S
C3096 H3088 0.950 . S
C3096 C3097 1.386 . S
C3096 C3098 1.391 . S
C3097 C3096 1.386 . S
C3097 C3101 1.393 . S
C3098 H3090 0.950 . S
C3098 C3096 1.391 . S
C3098 C3099 1.400 . S
C3099 C3098 1.400 . S
C3099 C3100 1.398 . S
C3099 C3105 1.491 . S
C3100 H3091 0.950 . S
C3100 C3099 1.398 . S
C3100 C3101 1.391 . S
C3101 H3089 0.950 . S
C3101 C3097 1.393 . S
C3101 C3100 1.391 . S
C3102 H3092 0.950 1_545 S
C3102 C3103 1.386 . S
C3102 C3104 1.391 . S
C3103 C3102 1.386 . S
C3103 C3107 1.393 . S
C3104 H3093 0.950 . S
C3104 C3102 1.391 . S
C3104 C3105 1.400 . S
C3105 C3099 1.491 . S
C3105 C3104 1.400 . S
C3105 C3106 1.398 . S
C3106 H3094 0.950 . S
C3106 C3105 1.398 . S
C3106 C3107 1.391 . S
C3107 H3095 0.950 . S
C3107 C3103 1.393 . S
C3107 C3106 1.391 . S
H3108 C3116 0.950 1_565 S
H3109 C3121 0.950 . S
H3110 C3118 0.950 . S
H3111 C3120 0.950 . S
H3112 C3122 0.950 . S
H3113 C3124 0.950 . S
H3114 C3126 0.950 . S
H3115 C3127 0.950 . S
C3116 H3108 0.950 1_545 S
C3116 C3117 1.386 . S
C3116 C3118 1.391 . S
C3117 C3116 1.386 . S
C3117 C3121 1.393 . S
C3118 H3110 0.950 . S
C3118 C3116 1.391 . S
C3118 C3119 1.400 . S
C3119 C3118 1.400 . S
C3119 C3120 1.398 . S
C3119 C3125 1.491 . S
C3120 H3111 0.950 . S
C3120 C3119 1.398 . S
C3120 C3121 1.391 . S
C3121 H3109 0.950 . S
C3121 C3117 1.393 . S
C3121 C3120 1.391 . S
C3122 H3112 0.950 . S
C3122 C3123 1.386 . S
C3122 C3124 1.391 . S
C3123 C3122 1.386 . S
C3123 C3127 1.393 . S
C3124 H3113 0.950 . S
C3124 C3122 1.391 . S
C3124 C3125 1.400 . S
C3125 C3119 1.491 . S
C3125 C3124 1.400 . S
C3125 C3126 1.398 . S
C3126 H3114 0.950 . S
C3126 C3125 1.398 . S
C3126 C3127 1.391 . S
C3127 H3115 0.950 . S
C3127 C3123 1.393 . S
C3127 C3126 1.391 . S
H3128 C3136 0.950 . S
H3129 C3141 0.950 . S
H3130 C3138 0.950 . S
H3131 C3140 0.950 . S
H3132 C3142 0.950 . S
H3133 C3144 0.950 . S
H3134 C3146 0.950 . S
H3135 C3147 0.950 . S
C3136 H3128 0.950 . S
C3136 C3137 1.386 . S
C3136 C3138 1.391 . S
C3137 C3136 1.386 . S
C3137 C3141 1.393 . S
C3138 H3130 0.950 . S
C3138 C3136 1.391 . S
C3138 C3139 1.400 . S
C3139 C3138 1.400 . S
C3139 C3140 1.398 . S
C3139 C3145 1.491 . S
C3140 H3131 0.950 . S
C3140 C3139 1.398 . S
C3140 C3141 1.391 . S
C3141 H3129 0.950 . S
C3141 C3137 1.393 . S
C3141 C3140 1.391 . S
C3142 H3132 0.950 . S
C3142 C3143 1.386 . S
C3142 C3144 1.391 . S
C3143 C3142 1.386 . S
C3143 C3147 1.393 . S
C3144 H3133 0.950 . S
C3144 C3142 1.391 . S
C3144 C3145 1.400 . S
C3145 C3139 1.491 . S
C3145 C3144 1.400 . S
C3145 C3146 1.398 . S
C3146 H3134 0.950 . S
C3146 C3145 1.398 . S
C3146 C3147 1.391 . S
C3147 H3135 0.950 . S
C3147 C3143 1.393 . S
C3147 C3146 1.391 . S
H3148 C3156 0.950 . S
H3149 C3161 0.950 . S
H3150 C3158 0.950 . S
H3151 C3160 0.950 . S
H3152 C3162 0.950 . S
H3153 C3164 0.950 . S
H3154 C3166 0.950 . S
H3155 C3167 0.950 . S
C3156 H3148 0.950 . S
C3156 C3157 1.386 . S
C3156 C3158 1.391 . S
C3157 C3156 1.386 . S
C3157 C3161 1.393 . S
C3158 H3150 0.950 . S
C3158 C3156 1.391 . S
C3158 C3159 1.400 . S
C3159 C3158 1.400 . S
C3159 C3160 1.398 . S
C3159 C3165 1.491 . S
C3160 H3151 0.950 . S
C3160 C3159 1.398 . S
C3160 C3161 1.391 . S
C3161 H3149 0.950 . S
C3161 C3157 1.393 . S
C3161 C3160 1.391 . S
C3162 H3152 0.950 . S
C3162 C3163 1.386 . S
C3162 C3164 1.391 . S
C3163 C3162 1.386 . S
C3163 C3167 1.393 . S
C3164 H3153 0.950 . S
C3164 C3162 1.391 . S
C3164 C3165 1.400 . S
C3165 C3159 1.491 . S
C3165 C3164 1.400 . S
C3165 C3166 1.398 . S
C3166 H3154 0.950 . S
C3166 C3165 1.398 . S
C3166 C3167 1.391 . S
C3167 H3155 0.950 . S
C3167 C3163 1.393 . S
C3167 C3166 1.391 . S
C937 C303 3.173 . S
C943 C13 3.178 . S
C957 C42 3.178 . S
C963 C332 3.177 . S
C977 C245 3.170 . S
C983 C71 3.177 . S
C997 C274 3.178 . S
C1003 C100 3.177 . S
C1017 C129 3.177 . S
C1023 C419 3.171 . S
C1037 C448 3.174 . S
C1043 C158 3.166 . S
C1057 C187 3.175 . S
C1063 C361 3.168 . S
C1077 C216 3.172 . S
C1083 C390 3.178 . S
C1097 C767 3.169 . S
C1103 C477 3.162 . S
C1117 C506 3.164 . S
C1123 C796 3.159 . S
C1137 C709 3.178 . S
C1143 C535 3.172 . S
C1157 C564 3.168 . S
C1163 C738 3.175 . S
C1177 C593 3.177 . S
C1183 C883 3.178 . S
C1197 C912 3.173 . S
C1203 C622 3.178 . S
C1217 C651 3.160 . S
C1223 C825 3.164 . S
C1237 C854 3.165 . S
C1243 C680 3.160 . S
C1257 C3 0.855 . S
C1263 C32 0.858 . S
C1277 C61 0.835 . S
C1283 C90 0.837 . S
C1297 C148 0.858 . S
C1303 C119 0.855 . S
C1317 C206 0.858 . S
C1323 C177 0.855 . S
C1337 C264 0.836 . S
C1343 C235 0.834 . S
C1357 C293 0.857 . S
C1363 C322 0.859 . S
C1377 C351 0.859 . S
C1383 C380 0.857 . S
C1397 C438 0.831 . S
C1403 C409 0.832 . S
C1417 C467 0.857 . S
C1423 C496 0.854 . S
C1437 C554 0.842 . S
C1443 C525 0.845 . S
C1457 C612 0.836 . S
C1463 C583 0.839 . S
C1477 C641 0.856 . S
C1483 C670 0.853 . S
C1497 C699 0.837 . S
C1503 C728 0.840 . S
C1517 C757 0.860 . S
C1523 C786 0.860 . S
C1537 C815 0.854 . S
C1543 C844 0.857 . S
C1557 C873 0.859 . S
C1563 C902 0.857 . S
C1577 C5 2.516 . S
C1583 C63 2.516 1_545 S
C1597 C34 2.514 1_545 S
C1603 C92 2.515 . S
C1617 C121 2.514 . S
C1623 C179 2.514 1_565 S
C1637 C150 2.516 1_565 S
C1643 C208 2.515 . S
C1657 C237 2.511 . S
C1663 C295 2.512 . S
C1677 C266 2.509 . S
C1683 C324 2.509 . S
C1697 C411 2.516 . S
C1703 C353 2.516 . S
C1717 C382 2.509 . S
C1723 C440 2.509 . S
C1737 C527 2.509 1_545 S
C1743 C469 2.508 . S
C1757 C498 2.509 1_545 S
C1763 C556 2.508 . S
C1777 C643 2.508 1_565 S
C1783 C585 2.508 . S
C1797 C614 2.517 1_565 S
C1803 C672 2.517 . S
C1817 C701 2.518 . S
C1823 C759 2.518 . S
C1837 C730 2.508 . S
C1843 C788 2.508 . S
C1857 C817 2.515 . S
C1863 C875 2.514 . S
C1877 C846 2.508 . S
C1883 C904 2.508 . S
C1897 C21 0.818 . S
C1903 C108 0.821 . S
C1917 C79 0.848 . S
C1923 C50 0.851 . S
C1937 C137 0.853 . S
C1943 C224 0.851 . S
C1957 C166 0.821 . S
C1963 C195 0.818 . S
C1977 C340 0.850 . S
C1983 C253 0.846 . S
C1997 C311 0.848 . S
C2003 C282 0.851 . S
C2017 C369 0.814 . S
C2023 C456 0.817 . S
C2037 C398 0.848 . S
C2043 C427 0.844 . S
C2057 C485 0.813 . S
C2063 C572 0.813 . S
C2077 C514 0.820 . S
C2083 C543 0.817 . S
C2097 C601 0.846 . S
C2103 C688 0.850 . S
C2117 C630 0.821 . S
C2123 C659 0.818 . S
C2137 C717 0.817 . S
C2143 C804 0.814 . S
C2157 C775 0.817 . S
C2163 C746 0.815 . S
C2177 C920 0.814 . S
C2183 C833 0.817 . S
C2197 C891 0.815 . S
C2203 C862 0.817 . S
C2217 C131 2.661 . S
C2223 C15 2.661 . S
C2237 C856 2.665 . S
C2243 C44 2.665 . S
C2257 C73 2.684 . S
C2263 C421 2.684 . S
C2277 C682 2.672 . S
C2283 C102 2.672 . S
C2297 C160 2.670 . S
C2303 C740 2.670 . S
C2317 C189 2.679 . S
C2323 C305 2.679 . S
C2337 C218 2.677 . S
C2343 C566 2.677 . S
C2357 C363 2.682 . S
C2363 C247 2.682 . S
C2377 C624 2.675 . S
C2383 C276 2.675 . S
C2397 C914 2.680 . S
C2403 C334 2.680 . S
C2417 C508 2.671 . S
C2423 C392 2.671 . S
C2437 C798 2.663 . S
C2443 C450 2.663 . S
C2457 C595 2.682 . S
C2463 C479 2.682 . S
C2477 C537 2.682 . S
C2483 C885 2.682 . S
C2497 C769 2.662 . S
C2503 C653 2.662 . S
C2517 C827 2.671 . S
C2523 C711 2.671 . S
C2537 C8 0.882 . S
C2543 C66 0.846 . S
C2557 C95 0.864 . S
C2563 C37 0.831 . S
C2577 C124 0.832 . S
C2583 C182 0.843 . S
C2597 C153 0.886 . S
C2603 C211 0.865 . S
C2617 C298 0.884 . S
C2623 C240 0.873 . S
C2637 C327 0.886 . S
C2643 C269 0.863 . S
C2657 C356 0.878 . S
C2663 C414 0.881 . S
C2677 C385 0.831 . S
C2683 C443 0.846 . S
C2697 C472 0.886 . S
C2703 C530 0.861 . S
C2717 C501 0.857 . S
C2723 C559 0.886 . S
C2737 C646 0.844 . S
C2743 C588 0.881 . S
C2757 C675 0.836 . S
C2763 C617 0.873 . S
C2777 C704 0.851 . S
C2783 C762 0.829 . S
C2797 C733 0.829 . S
C2803 C791 0.854 . S
C2817 C820 0.885 . S
C2823 C878 0.870 . S
C2837 C907 0.886 . S
C2843 C849 0.869 . S
C2857 C39 3.294 . S
C2863 C10 3.298 . S
C2877 C97 3.284 . S
C2883 C68 3.285 . S
C2897 C155 3.287 . S
C2903 C126 3.284 . S
C2917 C213 3.284 . S
C2923 C184 3.289 . S
C2937 C242 3.287 1_545 S
C2943 C271 3.292 . S
C2957 C329 3.287 1_545 S
C2963 C300 3.284 . S
C2977 C387 3.297 . S
C2983 C358 3.298 1_565 S
C2997 C416 3.284 . S
C3003 C445 3.289 1_565 S
C3017 C474 3.287 . S
C3023 C503 3.292 . S
C3037 C561 3.289 . S
C3043 C532 3.284 . S
C3057 C590 3.294 . S
C3063 C619 3.298 . S
C3077 C648 3.295 . S
C3083 C677 3.298 . S
C3097 C735 3.296 . S
C3103 C706 3.290 1_545 S
C3117 C793 3.297 1_545 S
C3123 C764 3.293 . S
C3137 C851 3.294 . S
C3143 C822 3.298 1_565 S
C3157 C880 3.298 . S
C3163 C909 3.294 1_565 S
