# Generated by pormake.
# Topology uov, (4)-cn, num edge types: 1
# Building blocks:
#     Node 0, Type 0, BuildingBlock: KUFVIS_clean_sbu_0, # of connection points: 4
#     Node 1, Type 0, BuildingBlock: KUFVIS_clean_sbu_0, # of connection points: 4
#     Node 2, Type 0, BuildingBlock: KUFVIS_clean_sbu_0, # of connection points: 4
#     Node 3, Type 0, BuildingBlock: KUFVIS_clean_sbu_0, # of connection points: 4
#     Node 4, Type 0, BuildingBlock: KUFVIS_clean_sbu_0, # of connection points: 4
#     Node 5, Type 0, BuildingBlock: KUFVIS_clean_sbu_0, # of connection points: 4
#     Node 6, Type 0, BuildingBlock: KUFVIS_clean_sbu_0, # of connection points: 4
#     Node 7, Type 0, BuildingBlock: KUFVIS_clean_sbu_0, # of connection points: 4
#     Edge 8, Type (0, 0), BuildingBlock: EZIPEK_clean_linker_0, # of connection points: 2
#     Edge 9, Type (0, 0), BuildingBlock: EZIPEK_clean_linker_0, # of connection points: 2
#     Edge 10, Type (0, 0), BuildingBlock: EZIPEK_clean_linker_0, # of connection points: 2
#     Edge 11, Type (0, 0), BuildingBlock: EZIPEK_clean_linker_0, # of connection points: 2
#     Edge 12, Type (0, 0), BuildingBlock: EZIPEK_clean_linker_0, # of connection points: 2
#     Edge 13, Type (0, 0), BuildingBlock: EZIPEK_clean_linker_0, # of connection points: 2
#     Edge 14, Type (0, 0), BuildingBlock: EZIPEK_clean_linker_0, # of connection points: 2
#     Edge 15, Type (0, 0), BuildingBlock: EZIPEK_clean_linker_0, # of connection points: 2
#     Edge 16, Type (0, 0), BuildingBlock: EZIPEK_clean_linker_0, # of connection points: 2
#     Edge 17, Type (0, 0), BuildingBlock: EZIPEK_clean_linker_0, # of connection points: 2
#     Edge 18, Type (0, 0), BuildingBlock: EZIPEK_clean_linker_0, # of connection points: 2
#     Edge 19, Type (0, 0), BuildingBlock: EZIPEK_clean_linker_0, # of connection points: 2
#     Edge 20, Type (0, 0), BuildingBlock: EZIPEK_clean_linker_0, # of connection points: 2
#     Edge 21, Type (0, 0), BuildingBlock: EZIPEK_clean_linker_0, # of connection points: 2
#     Edge 22, Type (0, 0), BuildingBlock: EZIPEK_clean_linker_0, # of connection points: 2
#     Edge 23, Type (0, 0), BuildingBlock: EZIPEK_clean_linker_0, # of connection points: 2
# Relax obj value: 0.168
# Max RMSD: 0.188
# Mean RMSD: 0.181
data_MOF--net-uov--node1-KUFVIS_clean_sbu_0--edge1-EZIPEK_clean_linker_0
_symmetry_space_group_name_H-M    P1
_symmetry_Int_Tables_number       1
_symmetry_cell_setting            triclinic
loop_
_symmetry_equiv_pos_as_xyz
'x, y, z'
_cell_length_a     21.278886
_cell_length_b     22.228786
_cell_length_c     30.80837
_cell_angle_alpha  89.737597
_cell_angle_beta   89.97729
_cell_angle_gamma 91.528939
loop_
_atom_site_label
_atom_site_type_symbol
_atom_site_fract_x
_atom_site_fract_y
_atom_site_fract_z
_atom_type_partial_charge
Mn0 Mn 0.0558 0.26171 0.60098 0.0
Mn1 Mn 0.93292 0.26369 0.66898 0.0
C2 C 0.95703 0.25809 0.56993 0.0
C3 C 0.12504 0.20547 0.55986 0.0
C4 C 0.01145 0.37477 0.6442 0.0
O5 O 0.09584 0.23396 0.65622 0.0
O6 O 0.01138 0.23599 0.7 0.0
C7 C 0.91147 0.14068 0.70444 0.0
N8 N 0.89108 0.18747 0.67994 0.0
C9 C 0.78596 0.14403 0.67906 0.0
C10 C 0.80763 0.09314 0.7008 0.0
C11 C 0.87059 0.09183 0.71404 0.0
C12 C 0.82942 0.19092 0.66972 0.0
H13 H 0.95735 0.14203 0.7187 0.0
C14 C 0.06974 0.22549 0.69272 0.0
O15 O 0.13946 0.26089 0.56999 0.0
O16 O 0.07224 0.18362 0.57417 0.0
N17 N 0.85525 0.28663 0.64318 0.0
C18 C 0.84102 0.33949 0.62336 0.0
C19 C 0.77883 0.34947 0.61065 0.0
C20 C 0.73195 0.3051 0.61851 0.0
C21 C 0.74784 0.25068 0.63807 0.0
C22 C 0.81062 0.24318 0.64997 0.0
H23 H 0.87661 0.37416 0.61782 0.0
O24 O 0.00488 0.28548 0.55242 0.0
O25 O 0.96556 0.23945 0.61039 0.0
O26 O 0.05272 0.34899 0.62158 0.0
O27 O 0.96659 0.34646 0.663 0.0
C28 C 0.70355 0.20392 0.64668 0.0
C29 C 0.72263 0.15057 0.66709 0.0
H30 H 0.77591 0.0558 0.70883 0.0
H31 H 0.88708 0.05417 0.73287 0.0
H32 H 0.76691 0.39166 0.59549 0.0
H33 H 0.68368 0.31329 0.60995 0.0
H34 H 0.65468 0.20857 0.63774 0.0
H35 H 0.68809 0.11505 0.6738 0.0
Mn36 Mn 0.23973 0.93201 0.41347 0.0
Mn37 Mn 0.32721 0.80919 0.4012 0.0
C38 C 0.20849 0.84239 0.44849 0.0
C39 C 0.22138 0.02006 0.45205 0.0
C40 C 0.23799 0.85566 0.33168 0.0
O41 O 0.32215 0.96664 0.38979 0.0
O42 O 0.38048 0.88366 0.39271 0.0
C43 C 0.4108 0.8259 0.47743 0.0
N44 N 0.36701 0.79219 0.45546 0.0
C45 C 0.36375 0.7174 0.51225 0.0
C46 C 0.40828 0.75169 0.53564 0.0
C47 C 0.43187 0.80619 0.51814 0.0
C48 C 0.34349 0.73999 0.47227 0.0
H49 H 0.4296 0.86744 0.46401 0.0
C50 C 0.37443 0.94037 0.38726 0.0
O51 O 0.20114 0.01341 0.41251 0.0
O52 O 0.25351 0.97679 0.46823 0.0
N53 N 0.28324 0.73372 0.40938 0.0
C54 C 0.25012 0.70106 0.37931 0.0
C55 C 0.2266 0.64328 0.39014 0.0
C56 C 0.23934 0.61876 0.43119 0.0
C57 C 0.27762 0.65127 0.4603 0.0
C58 C 0.29999 0.70852 0.44753 0.0
H59 H 0.24108 0.71913 0.34741 0.0
O60 O 0.16921 0.88484 0.44119 0.0
O61 O 0.26522 0.85382 0.43434 0.0
O62 O 0.21553 0.8983 0.35398 0.0
O63 O 0.28294 0.82277 0.34479 0.0
C64 C 0.29658 0.62808 0.50069 0.0
C65 C 0.33948 0.66121 0.5267 0.0
H66 H 0.42512 0.73634 0.56685 0.0
H67 H 0.4665 0.8328 0.53587 0.0
H68 H 0.1988 0.61773 0.3669 0.0
H69 H 0.22112 0.57421 0.43948 0.0
H70 H 0.27954 0.58423 0.51164 0.0
H71 H 0.35464 0.64235 0.55731 0.0
Mn72 Mn 0.95076 0.75256 0.60033 0.0
Mn73 Mn 0.06612 0.74201 0.67456 0.0
C74 C 0.05381 0.75162 0.57695 0.0
C75 C 0.88342 0.81114 0.55936 0.0
C76 C 0.99104 0.63421 0.64239 0.0
O77 O 0.9069 0.77435 0.65571 0.0
O78 O 0.98431 0.76326 0.70366 0.0
C79 C 0.07312 0.86972 0.7009 0.0
N80 N 0.10177 0.82016 0.68552 0.0
C81 C 0.20165 0.87341 0.68159 0.0
C82 C 0.17326 0.92486 0.69777 0.0
C83 C 0.10869 0.92294 0.70713 0.0
C84 C 0.16388 0.82141 0.67612 0.0
H85 H 0.02352 0.86873 0.70832 0.0
C86 C 0.92666 0.77427 0.69454 0.0
O87 O 0.86938 0.755 0.56769 0.0
O88 O 0.93517 0.83303 0.57574 0.0
N89 N 0.14701 0.72346 0.6517 0.0
C90 C 0.1661 0.67143 0.6332 0.0
C91 C 0.22875 0.6669 0.61954 0.0
C92 C 0.27124 0.71562 0.62545 0.0
C93 C 0.25065 0.7685 0.6448 0.0
C94 C 0.18774 0.77032 0.65793 0.0
H95 H 0.1337 0.63379 0.62863 0.0
O96 O 0.00739 0.73671 0.55156 0.0
O97 O 0.03828 0.76735 0.61641 0.0
O98 O 0.95256 0.66333 0.61894 0.0
O99 O 0.03474 0.6594 0.66462 0.0
C100 C 0.28989 0.81981 0.65093 0.0
C101 C 0.2654 0.87225 0.66933 0.0
H102 H 0.20034 0.96624 0.70263 0.0
H103 H 0.08641 0.96211 0.71965 0.0
H104 H 0.24426 0.62594 0.60454 0.0
H105 H 0.31955 0.71206 0.61502 0.0
H106 H 0.33873 0.81973 0.641 0.0
H107 H 0.29571 0.91179 0.67319 0.0
Mn108 Mn 0.7457 0.07411 0.41016 0.0
Mn109 Mn 0.66939 0.20431 0.40317 0.0
C110 C 0.7892 0.15887 0.44213 0.0
C111 C 0.76543 0.9866 0.4495 0.0
C112 C 0.74361 0.15174 0.32779 0.0
O113 O 0.65832 0.04646 0.39196 0.0
O114 O 0.60861 0.1348 0.39522 0.0
C115 C 0.58634 0.19472 0.48025 0.0
N116 N 0.63386 0.22367 0.45828 0.0
C117 C 0.64058 0.30144 0.5123 0.0
C118 C 0.59248 0.27185 0.53583 0.0
C119 C 0.56543 0.2181 0.5198 0.0
C120 C 0.66083 0.275 0.47376 0.0
H121 H 0.56407 0.15445 0.4675 0.0
C122 C 0.60901 0.07755 0.38998 0.0
O123 O 0.77908 0.99058 0.40838 0.0
O124 O 0.73574 0.03089 0.46617 0.0
N125 N 0.72202 0.27471 0.41117 0.0
C126 C 0.76213 0.30189 0.38219 0.0
C127 C 0.79283 0.35642 0.39305 0.0
C128 C 0.77986 0.38397 0.43281 0.0
C129 C 0.73546 0.3572 0.46095 0.0
C130 C 0.70741 0.30205 0.4488 0.0
H131 H 0.77166 0.28165 0.35126 0.0
O132 O 0.82321 0.11369 0.43188 0.0
O133 O 0.72951 0.15335 0.43296 0.0
O134 O 0.76481 0.10694 0.34888 0.0
O135 O 0.70677 0.18905 0.34535 0.0
C136 C 0.71599 0.38445 0.49966 0.0
C137 C 0.66812 0.35693 0.52503 0.0
H138 H 0.57547 0.29032 0.56598 0.0
H139 H 0.52787 0.19526 0.53756 0.0
H140 H 0.82591 0.37744 0.37061 0.0
H141 H 0.80293 0.42651 0.44083 0.0
H142 H 0.73647 0.4273 0.5097 0.0
H143 H 0.65222 0.37938 0.55399 0.0
Mn144 Mn 0.92764 0.25769 0.09082 0.0
Mn145 Mn 0.04313 0.25145 0.16537 0.0
C146 C 0.03044 0.24608 0.06866 0.0
C147 C 0.85653 0.20885 0.04505 0.0
C148 C 0.98252 0.36771 0.13744 0.0
O149 O 0.87907 0.23727 0.14578 0.0
O150 O 0.95954 0.23089 0.19355 0.0
C151 C 0.04023 0.12225 0.19005 0.0
N152 N 0.07023 0.17024 0.17084 0.0
C153 C 0.15929 0.11026 0.15328 0.0
C154 C 0.12812 0.05972 0.1713 0.0
C155 C 0.06868 0.06596 0.19029 0.0
C156 C 0.12867 0.16527 0.15418 0.0
H157 H 0.99557 0.12718 0.20586 0.0
C158 C 0.90077 0.22676 0.1836 0.0
O159 O 0.84961 0.26513 0.0548 0.0
O160 O 0.90118 0.18077 0.06426 0.0
N161 N 0.12465 0.26821 0.14096 0.0
C162 C 0.15033 0.32202 0.12768 0.0
C163 C 0.21098 0.32414 0.10966 0.0
C164 C 0.24477 0.27103 0.10573 0.0
C165 C 0.21801 0.21642 0.12057 0.0
C166 C 0.15751 0.21713 0.13845 0.0
H167 H 0.12449 0.36299 0.13021 0.0
O168 O 0.98959 0.26993 0.04319 0.0
O169 O 0.01037 0.23284 0.10761 0.0
O170 O 0.94293 0.34406 0.11111 0.0
O171 O 0.02063 0.33729 0.16028 0.0
C172 C 0.24908 0.16133 0.1184 0.0
C173 C 0.2198 0.10831 0.13484 0.0
H174 H 0.14989 0.01621 0.17152 0.0
H175 H 0.04524 0.02761 0.20553 0.0
H176 H 0.23143 0.36655 0.09851 0.0
H177 H 0.29137 0.27279 0.09155 0.0
H178 H 0.29571 0.15933 0.10445 0.0
H179 H 0.24437 0.06631 0.13336 0.0
Mn180 Mn 0.25421 0.06323 0.90875 0.0
Mn181 Mn 0.25981 0.95249 0.83461 0.0
C182 C 0.25588 0.96448 0.93196 0.0
C183 C 0.19815 0.12623 0.95384 0.0
C184 C 0.37025 0.03652 0.85524 0.0
O185 O 0.22492 0.10363 0.85295 0.0
O186 O 0.21447 0.02321 0.80812 0.0
C187 C 0.13027 0.90912 0.81488 0.0
N188 N 0.18619 0.90075 0.83487 0.0
C189 C 0.15403 0.79975 0.85533 0.0
C190 C 0.09432 0.80965 0.83812 0.0
C191 C 0.0827 0.86425 0.81702 0.0
C192 C 0.19932 0.84651 0.85227 0.0
H193 H 0.12365 0.94813 0.79545 0.0
C194 C 0.20753 0.07967 0.81703 0.0
O195 O 0.25542 0.14002 0.94221 0.0
O196 O 0.17247 0.07807 0.93722 0.0
N197 N 0.30151 0.88455 0.85913 0.0
C198 C 0.36325 0.87955 0.87017 0.0
C199 C 0.38399 0.82594 0.8889 0.0
C200 C 0.34127 0.77773 0.89595 0.0
C201 C 0.2783 0.78337 0.88371 0.0
C202 C 0.26028 0.83802 0.86526 0.0
H203 H 0.39664 0.91615 0.8651 0.0
O204 O 0.27485 0.00781 0.9572 0.0
O205 O 0.23905 0.98058 0.89304 0.0
O206 O 0.34474 0.06193 0.8874 0.0
O207 O 0.34001 0.99907 0.8314 0.0
C208 C 0.23282 0.7367 0.88884 0.0
C209 C 0.17077 0.74475 0.87439 0.0
H210 H 0.05802 0.77474 0.83956 0.0
H211 H 0.03793 0.87115 0.80136 0.0
H212 H 0.4328 0.82191 0.89805 0.0
H213 H 0.35743 0.73646 0.91048 0.0
H214 H 0.24529 0.6941 0.90323 0.0
H215 H 0.13646 0.70812 0.87765 0.0
Mn216 Mn 0.07561 0.73767 0.08819 0.0
Mn217 Mn 0.9543 0.74498 0.15819 0.0
C218 C 0.97343 0.7486 0.06243 0.0
C219 C 0.15092 0.78662 0.04468 0.0
C220 C 0.01767 0.62825 0.13509 0.0
O221 O 0.12012 0.75791 0.14531 0.0
O222 O 0.03486 0.76837 0.18799 0.0
C223 C 0.9573 0.87677 0.17299 0.0
N224 N 0.92579 0.82589 0.15981 0.0
C225 C 0.83457 0.88223 0.14096 0.0
C226 C 0.86604 0.93508 0.15429 0.0
C227 C 0.92763 0.93237 0.17039 0.0
C228 C 0.86646 0.82811 0.14423 0.0
H229 H 0.00491 0.87507 0.18496 0.0
C230 C 0.0946 0.77144 0.18147 0.0
O231 O 0.15674 0.73036 0.05519 0.0
O232 O 0.10461 0.81462 0.06175 0.0
N233 N 0.8744 0.72528 0.13256 0.0
C234 C 0.85095 0.67047 0.11986 0.0
C235 C 0.79019 0.66582 0.10223 0.0
C236 C 0.75399 0.7174 0.0981 0.0
C237 C 0.77857 0.77307 0.11221 0.0
C238 C 0.83922 0.77487 0.12991 0.0
H239 H 0.87855 0.6306 0.12267 0.0
O240 O 0.01634 0.72605 0.03812 0.0
O241 O 0.99131 0.76169 0.10162 0.0
O242 O 0.05826 0.65132 0.10894 0.0
O243 O 0.9787 0.65931 0.15663 0.0
C244 C 0.7454 0.8269 0.10911 0.0
C245 C 0.77336 0.88144 0.1235 0.0
H246 H 0.84355 0.97802 0.15159 0.0
H247 H 0.95223 0.97313 0.18044 0.0
H248 H 0.77149 0.62262 0.09156 0.0
H249 H 0.70736 0.71373 0.08411 0.0
H250 H 0.69854 0.82695 0.09539 0.0
H251 H 0.74772 0.92269 0.12045 0.0
Mn252 Mn 0.74251 0.93401 0.90987 0.0
Mn253 Mn 0.75496 0.04571 0.83595 0.0
C254 C 0.74953 0.03314 0.93276 0.0
C255 C 0.79437 0.8668 0.9547 0.0
C256 C 0.63164 0.98113 0.85865 0.0
O257 O 0.76791 0.89014 0.85517 0.0
O258 O 0.78469 0.96887 0.80974 0.0
C259 C 0.89365 0.05024 0.83194 0.0
N260 N 0.83858 0.07897 0.83746 0.0
C261 C 0.89352 0.17165 0.85537 0.0
C262 C 0.95077 0.14333 0.84894 0.0
C263 C 0.95062 0.08202 0.83836 0.0
C264 C 0.83801 0.13724 0.84989 0.0
H265 H 0.89411 0.0029 0.82433 0.0
C266 C 0.78719 0.91262 0.81923 0.0
O267 O 0.73568 0.85708 0.94443 0.0
O268 O 0.82256 0.91326 0.93756 0.0
N269 N 0.72994 0.12237 0.85727 0.0
C270 C 0.67101 0.14158 0.86617 0.0
C271 C 0.66296 0.20069 0.88058 0.0
C272 C 0.71543 0.23974 0.88523 0.0
C273 C 0.77541 0.21951 0.87489 0.0
C274 C 0.78046 0.16028 0.86021 0.0
H275 H 0.63034 0.11205 0.86265 0.0
O276 O 0.7266 0.99143 0.95812 0.0
O277 O 0.76663 0.01522 0.89456 0.0
O278 O 0.65306 0.94487 0.887 0.0
O279 O 0.66642 0.01597 0.83505 0.0
C280 C 0.83047 0.25559 0.87912 0.0
C281 C 0.88952 0.23163 0.86947 0.0
H282 H 0.99506 0.16745 0.85398 0.0
H283 H 0.99412 0.05868 0.83682 0.0
H284 H 0.61642 0.21601 0.88827 0.0
H285 H 0.70911 0.28514 0.89677 0.0
H286 H 0.82803 0.3015 0.89051 0.0
H287 H 0.93169 0.25925 0.87402 0.0
C288 C 0.99105 0.53479 0.6027 0.0
C289 C 0.98894 0.56718 0.64238 0.0
C290 C 0.0104 0.47413 0.68265 0.0
C291 C 0.00812 0.44138 0.64332 0.0
N292 N 0.97792 0.4385 0.56768 0.0
N293 N 0.98098 0.56452 0.72049 0.0
C294 C 0.9933 0.47108 0.60383 0.0
C295 C 0.99408 0.53582 0.68252 0.0
N296 N 0.99363 0.56428 0.56368 0.0
N297 N 0.0295 0.44661 0.71995 0.0
H298 H 0.96599 0.60882 0.72142 0.0
H299 H 0.97833 0.54266 0.75043 0.0
H300 H 0.0422 0.40159 0.721 0.0
H301 H 0.03819 0.46966 0.74878 0.0
H302 H 0.00395 0.54283 0.53462 0.0
H303 H 0.99074 0.61062 0.56017 0.0
H304 H 0.95944 0.45765 0.53967 0.0
H305 H 0.97705 0.39176 0.56709 0.0
C306 C 0.51958 0.02482 0.42769 0.0
C307 C 0.54792 0.04428 0.38822 0.0
C308 C 0.46295 0.994 0.347 0.0
C309 C 0.43253 0.97857 0.38666 0.0
N310 N 0.42486 0.9901 0.46439 0.0
N311 N 0.5446 0.05398 0.31041 0.0
C312 C 0.45871 0.99737 0.42688 0.0
C313 C 0.51891 0.03089 0.3478 0.0
N314 N 0.55186 0.03036 0.46593 0.0
N315 N 0.43897 0.97234 0.30885 0.0
H316 H 0.58626 0.07987 0.31005 0.0
H317 H 0.52285 0.05091 0.28023 0.0
H318 H 0.39726 0.94669 0.30738 0.0
H319 H 0.46197 0.9766 0.27913 0.0
H320 H 0.53656 0.0106 0.49492 0.0
H321 H 0.59667 0.05028 0.46815 0.0
H322 H 0.43848 0.00925 0.49383 0.0
H323 H 0.38052 0.96906 0.46553 0.0
C324 C 0.98983 0.46709 0.17693 0.0
C325 C 0.99012 0.43446 0.13745 0.0
C326 C 0.00267 0.52912 0.09683 0.0
C327 C 0.00994 0.56132 0.13637 0.0
N328 N 0.02154 0.55864 0.21423 0.0
N329 N 0.01215 0.43441 0.06027 0.0
C330 C 0.00645 0.52965 0.17655 0.0
C331 C 1.00083 0.46543 0.09756 0.0
N332 N 0.97164 0.43891 0.21457 0.0
N333 N 0.99444 0.55889 0.05841 0.0
H334 H 0.01192 0.38775 0.05862 0.0
H335 H 0.02804 0.45517 0.03176 0.0
H336 H 0.99458 0.60546 0.05558 0.0
H337 H 0.98104 0.53716 0.02983 0.0
H338 H 0.96427 0.46175 0.2435 0.0
H339 H 0.95804 0.39352 0.21593 0.0
H340 H 0.02597 0.53666 0.24396 0.0
H341 H 0.03594 0.6037 0.21492 0.0
C342 C 0.46958 0.01487 0.81329 0.0
C343 C 0.44062 0.03887 0.8508 0.0
C344 C 0.53385 0.01845 0.89377 0.0
C345 C 0.56288 0.99195 0.85714 0.0
N346 N 0.55791 0.96199 0.78227 0.0
N347 N 0.46217 0.09423 0.91639 0.0
C348 C 0.53076 0.99001 0.81667 0.0
C349 C 0.47766 0.04995 0.88806 0.0
N350 N 0.43968 0.01958 0.77424 0.0
N351 N 0.55873 0.01339 0.93443 0.0
H352 H 0.42695 0.12462 0.90964 0.0
H353 H 0.49071 0.10709 0.94244 0.0
H354 H 0.59955 0.99079 0.94153 0.0
H355 H 0.53492 0.02701 0.96215 0.0
H356 H 0.45792 0.00554 0.74478 0.0
H357 H 0.39828 0.04336 0.77089 0.0
H358 H 0.5364 0.95528 0.75234 0.0
H359 H 0.60131 0.94143 0.78466 0.0
C360 C 0.17959 0.05853 0.52209 0.0
C361 C 0.20317 0.07113 0.47989 0.0
C362 C 0.18465 0.17855 0.49151 0.0
C363 C 0.16591 0.16529 0.53487 0.0
N364 N 0.16702 0.09554 0.59493 0.0
N365 N 0.24153 0.14512 0.42802 0.0
C366 C 0.17134 0.10626 0.5513 0.0
C367 C 0.21 0.13186 0.4656 0.0
N368 N 0.15925 0.00184 0.53336 0.0
N369 N 0.17529 0.23426 0.47427 0.0
H370 H 0.2616 0.11219 0.40884 0.0
H371 H 0.25275 0.189 0.41816 0.0
H372 H 0.15776 0.26964 0.49227 0.0
H373 H 0.18126 0.2441 0.4414 0.0
H374 H 0.1339 0.99344 0.5618 0.0
H375 H 0.15935 0.96551 0.51211 0.0
H376 H 0.17505 0.05343 0.60865 0.0
H377 H 0.16224 0.13016 0.61739 0.0
C378 C 0.19963 0.82993 0.52815 0.0
C379 C 0.19457 0.80297 0.48667 0.0
C380 C 0.12974 0.72402 0.52046 0.0
C381 C 0.11635 0.7621 0.55576 0.0
N382 N 0.13375 0.86132 0.58674 0.0
N383 N 0.13994 0.72825 0.44311 0.0
C384 C 0.15123 0.81739 0.55897 0.0
C385 C 0.15661 0.75005 0.48268 0.0
N386 N 0.24643 0.87124 0.53648 0.0
N387 N 0.11178 0.66483 0.52158 0.0
H388 H 0.15436 0.74953 0.41466 0.0
H389 H 0.10765 0.69252 0.43922 0.0
H390 H 0.09337 0.64519 0.54981 0.0
H391 H 0.12221 0.6353 0.4965 0.0
H392 H 0.25279 0.89054 0.56701 0.0
H393 H 0.28236 0.88036 0.51417 0.0
H394 H 0.15811 0.90236 0.58918 0.0
H395 H 0.09251 0.85892 0.60477 0.0
C396 C 0.81713 0.95508 0.51899 0.0
C397 C 0.79051 0.93876 0.47818 0.0
C398 C 0.82192 0.83459 0.49079 0.0
C399 C 0.84273 0.85064 0.53318 0.0
N400 N 0.83927 0.92186 0.59191 0.0
N401 N 0.75428 0.85946 0.43029 0.0
C402 C 0.83314 0.90943 0.54869 0.0
C403 C 0.78872 0.87735 0.46555 0.0
N404 N 0.8322 0.01373 0.52846 0.0
N405 N 0.83657 0.78027 0.4735 0.0
H406 H 0.72784 0.88912 0.41194 0.0
H407 H 0.7468 0.8144 0.42211 0.0
H408 H 0.8617 0.74802 0.49027 0.0
H409 H 0.82835 0.76937 0.4411 0.0
H410 H 0.85704 0.02614 0.55632 0.0
H411 H 0.82814 0.04891 0.50633 0.0
H412 H 0.82772 0.96326 0.60512 0.0
H413 H 0.84866 0.88875 0.61499 0.0
C414 C 0.80711 0.1877 0.5187 0.0
C415 C 0.81734 0.20109 0.4741 0.0
C416 C 0.92333 0.23799 0.49175 0.0
C417 C 0.91067 0.23114 0.53726 0.0
N418 N 0.86147 0.15661 0.5829 0.0
N419 N 0.88434 0.24335 0.41839 0.0
C420 C 0.85752 0.19518 0.54874 0.0
C421 C 0.87428 0.22983 0.46116 0.0
N422 N 0.75073 0.16366 0.53209 0.0
N423 N 0.98401 0.2382 0.47687 0.0
H424 H 0.85379 0.22903 0.39389 0.0
H425 H 0.92113 0.27169 0.40784 0.0
H426 H 0.02125 0.22401 0.49597 0.0
H427 H 0.99633 0.23982 0.44416 0.0
H428 H 0.74023 0.15601 0.56473 0.0
H429 H 0.71307 0.15647 0.51102 0.0
H430 H 0.82699 0.12372 0.58971 0.0
H431 H 0.90343 0.15093 0.59962 0.0
C432 C 0.73291 0.12534 0.97759 0.0
C433 C 0.77402 0.08946 0.95283 0.0
C434 C 0.86265 0.15248 0.9767 0.0
C435 C 0.8241 0.17921 0.00816 0.0
N436 N 0.72174 0.19147 0.03958 0.0
N437 N 0.88158 0.06158 0.93791 0.0
C438 C 0.7586 0.16672 0.00847 0.0
C439 C 0.83989 0.10134 0.95429 0.0
N440 N 0.66954 0.11935 0.97177 0.0
N441 N 0.92166 0.17554 0.96884 0.0
H442 H 0.86854 0.02129 0.92307 0.0
H443 H 0.92994 0.06593 0.9429 0.0
H444 H 0.93789 0.21543 0.98301 0.0
H445 H 0.9508 0.15951 0.94453 0.0
H446 H 0.63718 0.14748 0.98606 0.0
H447 H 0.65009 0.08987 0.94901 0.0
H448 H 0.67488 0.17865 0.04465 0.0
H449 H 0.73921 0.2227 0.06198 0.0
C450 C 0.13751 0.12666 0.02317 0.0
C451 C 0.1651 0.15962 0.98825 0.0
C452 C 0.12234 0.25189 0.01809 0.0
C453 C 0.08476 0.21707 0.04757 0.0
N454 N 0.04834 0.1172 0.07073 0.0
N455 N 0.17916 0.25391 0.9499 0.0
C456 C 0.09042 0.15336 0.04858 0.0
C457 C 0.15716 0.22258 0.98528 0.0
N458 N 0.15668 0.06986 0.0325 0.0
N459 N 0.12424 0.31312 0.02123 0.0
H460 H 0.20365 0.23403 0.92468 0.0
H461 H 0.16843 0.29858 0.94369 0.0
H462 H 0.09967 0.33566 0.04511 0.0
H463 H 0.15515 0.34074 1.00344 0.0
H464 H 0.14187 0.04611 0.06009 0.0
H465 H 0.19279 0.04946 0.01562 0.0
H466 H 0.0471 0.07048 0.06784 0.0
H467 H 0.01113 0.13285 0.0889 0.0
C468 C 0.24937 0.83564 0.013 0.0
C469 C 0.18605 0.81584 0.00845 0.0
C470 C 0.17019 0.88775 0.94989 0.0
C471 C 0.23434 0.90719 0.95283 0.0
N472 N 0.33824 0.89081 0.98119 0.0
N473 N 0.09593 0.80542 0.96188 0.0
C474 C 0.27518 0.87777 0.98228 0.0
C475 C 0.15013 0.83575 0.97295 0.0
N476 N 0.28351 0.81684 0.04777 0.0
N477 N 0.12666 0.92107 0.92857 0.0
H478 H 0.08238 0.76509 0.97699 0.0
H479 H 0.06955 0.81595 0.93451 0.0
H480 H 0.13649 0.96215 0.91352 0.0
H481 H 0.07861 0.91079 0.92974 0.0
H482 H 0.32759 0.83496 0.05581 0.0
H483 H 0.26596 0.78489 0.06987 0.0
H484 H 0.37104 0.86722 0.99913 0.0
H485 H 0.35828 0.9218 0.95935 0.0
C486 C 0.8598 0.86539 0.02103 0.0
C487 C 0.82771 0.83213 0.98841 0.0
C488 C 0.87844 0.74075 0.01375 0.0
C489 C 0.91834 0.77625 0.04114 0.0
N490 N 0.95548 0.8764 0.0619 0.0
N491 N 0.80988 0.73842 0.95079 0.0
C492 C 0.91116 0.83966 0.0427 0.0
C493 C 0.83711 0.76958 0.98429 0.0
N494 N 0.84129 0.92206 0.03115 0.0
N495 N 0.88002 0.6795 0.01594 0.0
H496 H 0.77925 0.75791 0.92875 0.0
H497 H 0.82105 0.69444 0.943 0.0
H498 H 0.90925 0.65729 0.03741 0.0
H499 H 0.84807 0.65106 0.99996 0.0
H500 H 0.86042 0.94696 0.05674 0.0
H501 H 0.80192 0.9413 0.01719 0.0
H502 H 0.95531 0.92315 0.0593 0.0
H503 H 0.99586 0.86112 0.07679 0.0
C504 C 0.09283 0.12816 0.72935 0.0
C505 C 0.10603 0.19045 0.72503 0.0
C506 C 0.19526 0.17879 0.77504 0.0
C507 C 0.17359 0.11901 0.78518 0.0
N508 N 0.08449 0.05031 0.78292 0.0
N509 N 0.16846 0.27722 0.74635 0.0
C510 C 0.11778 0.09708 0.76512 0.0
C511 C 0.15688 0.21663 0.74879 0.0
N512 N 0.05803 0.098 0.69884 0.0
N513 N 0.25332 0.19853 0.78849 0.0
H514 H 0.14178 0.3054 0.72688 0.0
H515 H 0.20105 0.29976 0.76606 0.0
H516 H 0.28406 0.1712 0.80539 0.0
H517 H 0.27348 0.23971 0.77895 0.0
H518 H 0.04942 0.05173 0.70027 0.0
H519 H 0.04191 0.1186 0.67059 0.0
H520 H 0.04194 0.03436 0.76995 0.0
H521 H 0.0945 0.0352 0.8142 0.0
C522 C 0.1849 0.83555 0.21339 0.0
C523 C 0.13527 0.79158 0.21874 0.0
C524 C 0.14744 0.79954 0.29758 0.0
C525 C 0.20244 0.83617 0.29227 0.0
N526 N 0.27857 0.88341 0.24448 0.0
N527 N 0.08302 0.71999 0.26689 0.0
C528 C 0.22311 0.85202 0.24989 0.0
C529 C 0.12065 0.77011 0.26114 0.0
N530 N 0.19313 0.86465 0.17456 0.0
N531 N 0.11918 0.79409 0.33722 0.0
H532 H 0.0654 0.69475 0.24106 0.0
H533 H 0.07588 0.69958 0.29709 0.0
H534 H 0.13494 0.8179 0.36428 0.0
H535 H 0.07591 0.77184 0.34184 0.0
H536 H 0.22457 0.90092 0.17028 0.0
H537 H 0.16407 0.8572 0.14782 0.0
H538 H 0.29923 0.89099 0.2142 0.0
H539 H 0.306 0.89802 0.27064 0.0
C540 C 0.90212 0.79945 0.77357 0.0
C541 C 0.88252 0.79575 0.72966 0.0
C542 C 0.79332 0.86048 0.74664 0.0
C543 C 0.81904 0.87174 0.78837 0.0
N544 N 0.90231 0.85632 0.84031 0.0
N545 N 0.78899 0.79347 0.68507 0.0
C546 C 0.87419 0.84182 0.80171 0.0
C547 C 0.8222 0.81813 0.71886 0.0
N548 N 0.94245 0.7582 0.78968 0.0
N549 N 0.74133 0.89029 0.73332 0.0
H550 H 0.80269 0.75438 0.66954 0.0
H551 H 0.74325 0.80496 0.67725 0.0
H552 H 0.71614 0.91834 0.75359 0.0
H553 H 0.72564 0.89027 0.7013 0.0
H554 H 0.9521 0.75403 0.82267 0.0
H555 H 0.95745 0.72188 0.77144 0.0
H556 H 0.94582 0.84024 0.84968 0.0
H557 H 0.8853 0.88881 0.86124 0.0
C558 C 0.76707 0.22538 0.26574 0.0
C559 C 0.76965 0.16588 0.28291 0.0
C560 C 0.84563 0.14285 0.22512 0.0
C561 C 0.85502 0.20548 0.21723 0.0
N562 N 0.82489 0.30741 0.23094 0.0
N563 N 0.7979 0.06323 0.26944 0.0
C564 C 0.81581 0.24706 0.23784 0.0
C565 C 0.80523 0.12303 0.25977 0.0
N566 N 0.71548 0.25934 0.27249 0.0
N567 N 0.87266 0.10252 0.19798 0.0
H568 H 0.75955 0.04623 0.28716 0.0
H569 H 0.82855 0.03044 0.25923 0.0
H570 H 0.89885 0.11565 0.17074 0.0
H571 H 0.86582 0.05622 0.20034 0.0
H572 H 0.71013 0.3016 0.25838 0.0
H573 H 0.67395 0.24146 0.28576 0.0
H574 H 0.8016 0.33971 0.24883 0.0
H575 H 0.85918 0.32505 0.20988 0.0
loop_
_geom_bond_atom_site_label_1
_geom_bond_atom_site_label_2
_geom_bond_distance
_geom_bond_site_symmetry_2
_ccdc_geom_bond_type
Mn0 O5 2.095 . S
Mn0 O15 2.162 . S
Mn0 O16 2.297 . S
Mn0 O24 2.385 . S
Mn0 O25 2.209 . S
Mn0 O26 2.094 . S
Mn1 O6 2.121 1_655 S
Mn1 N8 2.257 . S
Mn1 N17 2.282 . S
Mn1 O25 2.215 1_655 S
Mn1 O27 2.117 1_655 S
C2 O24 1.234 1_655 S
C2 O25 1.283 1_655 S
C3 O15 1.281 . S
C3 O16 1.236 . S
C4 O26 1.240 . S
C4 O27 1.264 . S
O5 Mn0 2.095 . S
O5 C14 1.250 . S
O6 Mn1 2.121 1_455 S
O6 C14 1.258 . S
C7 N8 1.326 . S
C7 C11 1.460 . S
C7 H13 0.929 . S
N8 Mn1 2.257 . S
N8 C7 1.326 . S
N8 C12 1.362 . S
C9 C10 1.258 . S
C9 C12 1.431 . S
C9 C29 1.449 . S
C10 C9 1.258 . S
C10 C11 1.477 . S
C10 H30 0.931 . S
C11 C7 1.460 . S
C11 C10 1.477 . S
C11 H31 0.930 . S
C12 N8 1.362 . S
C12 C9 1.431 . S
C12 C22 1.476 . S
H13 C7 0.929 . S
C14 O5 1.250 . S
C14 O6 1.258 . S
O15 Mn0 2.162 . S
O15 C3 1.281 . S
O16 Mn0 2.297 . S
O16 C3 1.236 . S
N17 Mn1 2.282 . S
N17 C18 1.328 . S
N17 C22 1.318 . S
C18 N17 1.328 . S
C18 C19 1.457 . S
C18 H23 0.929 . S
C19 C18 1.457 . S
C19 C20 1.291 . S
C19 H32 0.931 . S
C20 C19 1.291 . S
C20 C21 1.373 . S
C20 H33 0.929 . S
C21 C20 1.373 . S
C21 C22 1.396 . S
C21 C28 1.403 . S
C22 C12 1.476 . S
C22 N17 1.318 . S
C22 C21 1.396 . S
H23 C18 0.929 . S
O24 Mn0 2.385 . S
O24 C2 1.234 1_455 S
O25 Mn0 2.209 . S
O25 Mn1 2.215 1_455 S
O25 C2 1.283 1_455 S
O26 Mn0 2.094 . S
O26 C4 1.240 . S
O27 Mn1 2.117 1_455 S
O27 C4 1.264 . S
C28 C21 1.403 . S
C28 C29 1.399 . S
C28 H34 0.929 . S
C29 C9 1.449 . S
C29 C28 1.399 . S
C29 H35 0.930 . S
H30 C10 0.931 . S
H31 C11 0.930 . S
H32 C19 0.931 . S
H33 C20 0.929 . S
H34 C28 0.929 . S
H35 C29 0.930 . S
Mn36 O41 2.095 . S
Mn36 O51 2.162 1_565 S
Mn36 O52 2.297 . S
Mn36 O60 2.385 . S
Mn36 O61 2.209 . S
Mn36 O62 2.094 . S
Mn37 O42 2.121 . S
Mn37 N44 2.257 . S
Mn37 N53 2.282 . S
Mn37 O61 2.215 . S
Mn37 O63 2.117 . S
C38 O60 1.234 . S
C38 O61 1.283 . S
C39 O51 1.281 . S
C39 O52 1.236 1_545 S
C40 O62 1.240 . S
C40 O63 1.264 . S
O41 Mn36 2.095 . S
O41 C50 1.250 . S
O42 Mn37 2.121 . S
O42 C50 1.258 . S
C43 N44 1.326 . S
C43 C47 1.460 . S
C43 H49 0.929 . S
N44 Mn37 2.257 . S
N44 C43 1.326 . S
N44 C48 1.362 . S
C45 C46 1.258 . S
C45 C48 1.431 . S
C45 C65 1.449 . S
C46 C45 1.258 . S
C46 C47 1.477 . S
C46 H66 0.931 . S
C47 C43 1.460 . S
C47 C46 1.477 . S
C47 H67 0.930 . S
C48 N44 1.362 . S
C48 C45 1.431 . S
C48 C58 1.476 . S
H49 C43 0.929 . S
C50 O41 1.250 . S
C50 O42 1.258 . S
O51 Mn36 2.162 1_545 S
O51 C39 1.281 . S
O52 Mn36 2.297 . S
O52 C39 1.236 1_565 S
N53 Mn37 2.282 . S
N53 C54 1.328 . S
N53 C58 1.318 . S
C54 N53 1.328 . S
C54 C55 1.457 . S
C54 H59 0.929 . S
C55 C54 1.457 . S
C55 C56 1.291 . S
C55 H68 0.931 . S
C56 C55 1.291 . S
C56 C57 1.373 . S
C56 H69 0.929 . S
C57 C56 1.373 . S
C57 C58 1.396 . S
C57 C64 1.403 . S
C58 C48 1.476 . S
C58 N53 1.318 . S
C58 C57 1.396 . S
H59 C54 0.929 . S
O60 Mn36 2.385 . S
O60 C38 1.234 . S
O61 Mn36 2.209 . S
O61 Mn37 2.215 . S
O61 C38 1.283 . S
O62 Mn36 2.094 . S
O62 C40 1.240 . S
O63 Mn37 2.117 . S
O63 C40 1.264 . S
C64 C57 1.403 . S
C64 C65 1.399 . S
C64 H70 0.929 . S
C65 C45 1.449 . S
C65 C64 1.399 . S
C65 H71 0.930 . S
H66 C46 0.931 . S
H67 C47 0.930 . S
H68 C55 0.931 . S
H69 C56 0.929 . S
H70 C64 0.929 . S
H71 C65 0.930 . S
Mn72 O77 2.095 . S
Mn72 O87 2.162 . S
Mn72 O88 2.297 . S
Mn72 O96 2.385 . S
Mn72 O97 2.209 . S
Mn72 O98 2.094 . S
Mn73 O78 2.121 1_455 S
Mn73 N80 2.257 . S
Mn73 N89 2.282 . S
Mn73 O97 2.215 1_455 S
Mn73 O99 2.117 1_455 S
C74 O96 1.234 1_455 S
C74 O97 1.283 1_455 S
C75 O87 1.281 . S
C75 O88 1.236 . S
C76 O98 1.240 . S
C76 O99 1.264 . S
O77 Mn72 2.095 . S
O77 C86 1.250 . S
O78 Mn73 2.121 1_655 S
O78 C86 1.258 . S
C79 N80 1.326 . S
C79 C83 1.460 . S
C79 H85 0.929 . S
N80 Mn73 2.257 . S
N80 C79 1.326 . S
N80 C84 1.362 . S
C81 C82 1.258 . S
C81 C84 1.431 . S
C81 C101 1.449 . S
C82 C81 1.258 . S
C82 C83 1.477 . S
C82 H102 0.931 . S
C83 C79 1.460 . S
C83 C82 1.477 . S
C83 H103 0.930 . S
C84 N80 1.362 . S
C84 C81 1.431 . S
C84 C94 1.476 . S
H85 C79 0.929 . S
C86 O77 1.250 . S
C86 O78 1.258 . S
O87 Mn72 2.162 . S
O87 C75 1.281 . S
O88 Mn72 2.297 . S
O88 C75 1.236 . S
N89 Mn73 2.282 . S
N89 C90 1.328 . S
N89 C94 1.318 . S
C90 N89 1.328 . S
C90 C91 1.457 . S
C90 H95 0.929 . S
C91 C90 1.457 . S
C91 C92 1.291 . S
C91 H104 0.931 . S
C92 C91 1.291 . S
C92 C93 1.373 . S
C92 H105 0.929 . S
C93 C92 1.373 . S
C93 C94 1.396 . S
C93 C100 1.403 . S
C94 C84 1.476 . S
C94 N89 1.318 . S
C94 C93 1.396 . S
H95 C90 0.929 . S
O96 Mn72 2.385 . S
O96 C74 1.234 1_655 S
O97 Mn72 2.209 . S
O97 Mn73 2.215 1_655 S
O97 C74 1.283 1_655 S
O98 Mn72 2.094 . S
O98 C76 1.240 . S
O99 Mn73 2.117 1_655 S
O99 C76 1.264 . S
C100 C93 1.403 . S
C100 C101 1.399 . S
C100 H106 0.929 . S
C101 C81 1.449 . S
C101 C100 1.399 . S
C101 H107 0.930 . S
H102 C82 0.931 . S
H103 C83 0.930 . S
H104 C91 0.931 . S
H105 C92 0.929 . S
H106 C100 0.929 . S
H107 C101 0.930 . S
Mn108 O113 2.095 . S
Mn108 O123 2.162 1_545 S
Mn108 O124 2.297 . S
Mn108 O132 2.385 . S
Mn108 O133 2.209 . S
Mn108 O134 2.094 . S
Mn109 O114 2.121 . S
Mn109 N116 2.257 . S
Mn109 N125 2.282 . S
Mn109 O133 2.215 . S
Mn109 O135 2.117 . S
C110 O132 1.234 . S
C110 O133 1.283 . S
C111 O123 1.281 . S
C111 O124 1.236 1_565 S
C112 O134 1.240 . S
C112 O135 1.264 . S
O113 Mn108 2.095 . S
O113 C122 1.250 . S
O114 Mn109 2.121 . S
O114 C122 1.258 . S
C115 N116 1.326 . S
C115 C119 1.460 . S
C115 H121 0.929 . S
N116 Mn109 2.257 . S
N116 C115 1.326 . S
N116 C120 1.362 . S
C117 C118 1.258 . S
C117 C120 1.431 . S
C117 C137 1.449 . S
C118 C117 1.258 . S
C118 C119 1.477 . S
C118 H138 0.931 . S
C119 C115 1.460 . S
C119 C118 1.477 . S
C119 H139 0.930 . S
C120 N116 1.362 . S
C120 C117 1.431 . S
C120 C130 1.476 . S
H121 C115 0.929 . S
C122 O113 1.250 . S
C122 O114 1.258 . S
O123 Mn108 2.162 1_565 S
O123 C111 1.281 . S
O124 Mn108 2.297 . S
O124 C111 1.236 1_545 S
N125 Mn109 2.282 . S
N125 C126 1.328 . S
N125 C130 1.318 . S
C126 N125 1.328 . S
C126 C127 1.457 . S
C126 H131 0.929 . S
C127 C126 1.457 . S
C127 C128 1.291 . S
C127 H140 0.931 . S
C128 C127 1.291 . S
C128 C129 1.373 . S
C128 H141 0.929 . S
C129 C128 1.373 . S
C129 C130 1.396 . S
C129 C136 1.403 . S
C130 C120 1.476 . S
C130 N125 1.318 . S
C130 C129 1.396 . S
H131 C126 0.929 . S
O132 Mn108 2.385 . S
O132 C110 1.234 . S
O133 Mn108 2.209 . S
O133 Mn109 2.215 . S
O133 C110 1.283 . S
O134 Mn108 2.094 . S
O134 C112 1.240 . S
O135 Mn109 2.117 . S
O135 C112 1.264 . S
C136 C129 1.403 . S
C136 C137 1.399 . S
C136 H142 0.929 . S
C137 C117 1.449 . S
C137 C136 1.399 . S
C137 H143 0.930 . S
H138 C118 0.931 . S
H139 C119 0.930 . S
H140 C127 0.931 . S
H141 C128 0.929 . S
H142 C136 0.929 . S
H143 C137 0.930 . S
Mn144 O149 2.095 . S
Mn144 O159 2.162 . S
Mn144 O160 2.297 . S
Mn144 O168 2.385 . S
Mn144 O169 2.209 . S
Mn144 O170 2.094 . S
Mn145 O150 2.121 1_455 S
Mn145 N152 2.257 . S
Mn145 N161 2.282 . S
Mn145 O169 2.215 1_455 S
Mn145 O171 2.117 1_455 S
C146 O168 1.225 1_455 S
C146 O169 1.279 1_455 S
C147 O159 1.281 . S
C147 O160 1.236 . S
C148 O170 1.240 . S
C148 O171 1.264 . S
O149 Mn144 2.095 . S
O149 C158 1.250 . S
O150 Mn145 2.121 1_655 S
O150 C158 1.258 . S
C151 N152 1.326 . S
C151 C155 1.460 . S
C151 H157 0.929 . S
N152 Mn145 2.257 . S
N152 C151 1.326 . S
N152 C156 1.362 . S
C153 C154 1.258 . S
C153 C156 1.431 . S
C153 C173 1.449 . S
C154 C153 1.258 . S
C154 C155 1.477 . S
C154 H174 0.931 . S
C155 C151 1.460 . S
C155 C154 1.477 . S
C155 H175 0.930 . S
C156 N152 1.362 . S
C156 C153 1.431 . S
C156 C166 1.476 . S
H157 C151 0.929 . S
C158 O149 1.250 . S
C158 O150 1.258 . S
O159 Mn144 2.162 . S
O159 C147 1.281 . S
O160 Mn144 2.297 . S
O160 C147 1.236 . S
N161 Mn145 2.282 . S
N161 C162 1.328 . S
N161 C166 1.318 . S
C162 N161 1.328 . S
C162 C163 1.457 . S
C162 H167 0.929 . S
C163 C162 1.457 . S
C163 C164 1.291 . S
C163 H176 0.931 . S
C164 C163 1.291 . S
C164 C165 1.373 . S
C164 H177 0.929 . S
C165 C164 1.373 . S
C165 C166 1.396 . S
C165 C172 1.403 . S
C166 C156 1.476 . S
C166 N161 1.318 . S
C166 C165 1.396 . S
H167 C162 0.929 . S
O168 Mn144 2.385 . S
O168 C146 1.225 1_655 S
O169 Mn144 2.209 . S
O169 Mn145 2.215 1_655 S
O169 C146 1.279 1_655 S
O170 Mn144 2.094 . S
O170 C148 1.240 . S
O171 Mn145 2.117 1_655 S
O171 C148 1.264 . S
C172 C165 1.403 . S
C172 C173 1.399 . S
C172 H178 0.929 . S
C173 C153 1.449 . S
C173 C172 1.399 . S
C173 H179 0.930 . S
H174 C154 0.931 . S
H175 C155 0.930 . S
H176 C163 0.931 . S
H177 C164 0.929 . S
H178 C172 0.929 . S
H179 C173 0.930 . S
Mn180 O185 2.095 . S
Mn180 O195 2.162 . S
Mn180 O196 2.297 . S
Mn180 O204 2.385 . S
Mn180 O205 2.209 . S
Mn180 O206 2.094 . S
Mn181 O186 2.121 1_565 S
Mn181 N188 2.257 . S
Mn181 N197 2.282 . S
Mn181 O205 2.215 1_565 S
Mn181 O207 2.117 1_565 S
C182 O204 1.234 . S
C182 O205 1.283 . S
C183 O195 1.281 . S
C183 O196 1.236 . S
C184 O206 1.240 . S
C184 O207 1.264 . S
O185 Mn180 2.095 . S
O185 C194 1.250 . S
O186 Mn181 2.121 1_545 S
O186 C194 1.258 . S
C187 N188 1.326 . S
C187 C191 1.460 . S
C187 H193 0.929 . S
N188 Mn181 2.257 . S
N188 C187 1.326 . S
N188 C192 1.362 . S
C189 C190 1.258 . S
C189 C192 1.431 . S
C189 C209 1.449 . S
C190 C189 1.258 . S
C190 C191 1.477 . S
C190 H210 0.931 . S
C191 C187 1.460 . S
C191 C190 1.477 . S
C191 H211 0.930 . S
C192 N188 1.362 . S
C192 C189 1.431 . S
C192 C202 1.476 . S
H193 C187 0.929 . S
C194 O185 1.250 . S
C194 O186 1.258 . S
O195 Mn180 2.162 . S
O195 C183 1.281 . S
O196 Mn180 2.297 . S
O196 C183 1.236 . S
N197 Mn181 2.282 . S
N197 C198 1.328 . S
N197 C202 1.318 . S
C198 N197 1.328 . S
C198 C199 1.457 . S
C198 H203 0.929 . S
C199 C198 1.457 . S
C199 C200 1.291 . S
C199 H212 0.931 . S
C200 C199 1.291 . S
C200 C201 1.373 . S
C200 H213 0.929 . S
C201 C200 1.373 . S
C201 C202 1.396 . S
C201 C208 1.403 . S
C202 C192 1.476 . S
C202 N197 1.318 . S
C202 C201 1.396 . S
H203 C198 0.929 . S
O204 Mn180 2.385 . S
O204 C182 1.234 . S
O205 Mn180 2.209 . S
O205 Mn181 2.215 1_545 S
O205 C182 1.283 . S
O206 Mn180 2.094 . S
O206 C184 1.240 . S
O207 Mn181 2.117 1_545 S
O207 C184 1.264 . S
C208 C201 1.403 . S
C208 C209 1.399 . S
C208 H214 0.929 . S
C209 C189 1.449 . S
C209 C208 1.399 . S
C209 H215 0.930 . S
H210 C190 0.931 . S
H211 C191 0.930 . S
H212 C199 0.931 . S
H213 C200 0.929 . S
H214 C208 0.929 . S
H215 C209 0.930 . S
Mn216 O221 2.095 . S
Mn216 O231 2.162 . S
Mn216 O232 2.297 . S
Mn216 O240 2.385 . S
Mn216 O241 2.209 . S
Mn216 O242 2.094 . S
Mn217 O222 2.121 1_655 S
Mn217 N224 2.257 . S
Mn217 N233 2.282 . S
Mn217 O241 2.215 1_655 S
Mn217 O243 2.117 1_655 S
C218 O240 1.225 1_655 S
C218 O241 1.279 1_655 S
C219 O231 1.281 . S
C219 O232 1.236 . S
C220 O242 1.240 . S
C220 O243 1.264 . S
O221 Mn216 2.095 . S
O221 C230 1.250 . S
O222 Mn217 2.121 1_455 S
O222 C230 1.258 . S
C223 N224 1.326 . S
C223 C227 1.460 . S
C223 H229 0.929 . S
N224 Mn217 2.257 . S
N224 C223 1.326 . S
N224 C228 1.362 . S
C225 C226 1.258 . S
C225 C228 1.431 . S
C225 C245 1.449 . S
C226 C225 1.258 . S
C226 C227 1.477 . S
C226 H246 0.931 . S
C227 C223 1.460 . S
C227 C226 1.477 . S
C227 H247 0.930 . S
C228 N224 1.362 . S
C228 C225 1.431 . S
C228 C238 1.476 . S
H229 C223 0.929 . S
C230 O221 1.250 . S
C230 O222 1.258 . S
O231 Mn216 2.162 . S
O231 C219 1.281 . S
O232 Mn216 2.297 . S
O232 C219 1.236 . S
N233 Mn217 2.282 . S
N233 C234 1.328 . S
N233 C238 1.318 . S
C234 N233 1.328 . S
C234 C235 1.457 . S
C234 H239 0.929 . S
C235 C234 1.457 . S
C235 C236 1.291 . S
C235 H248 0.931 . S
C236 C235 1.291 . S
C236 C237 1.373 . S
C236 H249 0.929 . S
C237 C236 1.373 . S
C237 C238 1.396 . S
C237 C244 1.403 . S
C238 C228 1.476 . S
C238 N233 1.318 . S
C238 C237 1.396 . S
H239 C234 0.929 . S
O240 Mn216 2.385 . S
O240 C218 1.225 1_455 S
O241 Mn216 2.209 . S
O241 Mn217 2.215 1_455 S
O241 C218 1.279 1_455 S
O242 Mn216 2.094 . S
O242 C220 1.240 . S
O243 Mn217 2.117 1_455 S
O243 C220 1.264 . S
C244 C237 1.403 . S
C244 C245 1.399 . S
C244 H250 0.929 . S
C245 C225 1.449 . S
C245 C244 1.399 . S
C245 H251 0.930 . S
H246 C226 0.931 . S
H247 C227 0.930 . S
H248 C235 0.931 . S
H249 C236 0.929 . S
H250 C244 0.929 . S
H251 C245 0.930 . S
Mn252 O257 2.095 . S
Mn252 O267 2.162 . S
Mn252 O268 2.297 . S
Mn252 O276 2.385 . S
Mn252 O277 2.209 . S
Mn252 O278 2.094 . S
Mn253 O258 2.121 1_545 S
Mn253 N260 2.257 . S
Mn253 N269 2.282 . S
Mn253 O277 2.215 1_545 S
Mn253 O279 2.117 1_545 S
C254 O276 1.234 . S
C254 O277 1.283 . S
C255 O267 1.281 . S
C255 O268 1.236 . S
C256 O278 1.240 . S
C256 O279 1.264 . S
O257 Mn252 2.095 . S
O257 C266 1.250 . S
O258 Mn253 2.121 1_565 S
O258 C266 1.258 . S
C259 N260 1.326 . S
C259 C263 1.460 . S
C259 H265 0.929 . S
N260 Mn253 2.257 . S
N260 C259 1.326 . S
N260 C264 1.362 . S
C261 C262 1.258 . S
C261 C264 1.431 . S
C261 C281 1.449 . S
C262 C261 1.258 . S
C262 C263 1.477 . S
C262 H282 0.931 . S
C263 C259 1.460 . S
C263 C262 1.477 . S
C263 H283 0.930 . S
C264 N260 1.362 . S
C264 C261 1.431 . S
C264 C274 1.476 . S
H265 C259 0.929 . S
C266 O257 1.250 . S
C266 O258 1.258 . S
O267 Mn252 2.162 . S
O267 C255 1.281 . S
O268 Mn252 2.297 . S
O268 C255 1.236 . S
N269 Mn253 2.282 . S
N269 C270 1.328 . S
N269 C274 1.318 . S
C270 N269 1.328 . S
C270 C271 1.457 . S
C270 H275 0.929 . S
C271 C270 1.457 . S
C271 C272 1.291 . S
C271 H284 0.931 . S
C272 C271 1.291 . S
C272 C273 1.373 . S
C272 H285 0.929 . S
C273 C272 1.373 . S
C273 C274 1.396 . S
C273 C280 1.403 . S
C274 C264 1.476 . S
C274 N269 1.318 . S
C274 C273 1.396 . S
H275 C270 0.929 . S
O276 Mn252 2.385 . S
O276 C254 1.234 . S
O277 Mn252 2.209 . S
O277 Mn253 2.215 1_565 S
O277 C254 1.283 . S
O278 Mn252 2.094 . S
O278 C256 1.240 . S
O279 Mn253 2.117 1_565 S
O279 C256 1.264 . S
C280 C273 1.403 . S
C280 C281 1.399 . S
C280 H286 0.929 . S
C281 C261 1.449 . S
C281 C280 1.399 . S
C281 H287 0.930 . S
H282 C262 0.931 . S
H283 C263 0.930 . S
H284 C271 0.931 . S
H285 C272 0.929 . S
H286 C280 0.929 . S
H287 C281 0.930 . S
C288 C289 1.363 . S
C288 C294 1.379 . S
C288 N296 1.356 . S
C289 C288 1.363 . S
C289 C295 1.363 1_655 S
C290 C291 1.363 . S
C290 C295 1.379 . S
C290 N297 1.356 . S
C291 C290 1.363 . S
C291 C294 1.363 1_455 S
N292 C294 1.356 1_455 S
N292 H304 0.984 1_455 S
N292 H305 0.985 . S
N293 C295 1.356 1_655 S
N293 H298 0.984 . S
N293 H299 0.985 1_655 S
C294 C288 1.379 . S
C294 C291 1.363 1_655 S
C294 N292 1.356 1_655 S
C295 C289 1.363 1_455 S
C295 C290 1.379 . S
C295 N293 1.356 1_455 S
N296 C288 1.356 . S
N296 H302 0.984 . S
N296 H303 0.984 . S
N297 C290 1.356 . S
N297 H300 0.984 . S
N297 H301 0.985 . S
H298 N293 0.984 . S
H299 N293 0.985 1_455 S
H300 N297 0.984 . S
H301 N297 0.985 . S
H302 N296 0.984 . S
H303 N296 0.984 . S
H304 N292 0.984 1_655 S
H305 N292 0.985 . S
C306 C307 1.363 . S
C306 C312 1.379 1_545 S
C306 N314 1.356 . S
C307 C306 1.363 . S
C307 C313 1.363 . S
C308 C309 1.363 . S
C308 C313 1.379 1_565 S
C308 N315 1.356 . S
C309 C308 1.363 . S
C309 C312 1.363 . S
N310 C312 1.356 . S
N310 H322 0.984 . S
N310 H323 0.985 . S
N311 C313 1.356 . S
N311 H316 0.984 . S
N311 H317 0.985 . S
C312 C306 1.379 1_565 S
C312 C309 1.363 . S
C312 N310 1.356 . S
C313 C307 1.363 . S
C313 C308 1.379 1_545 S
C313 N311 1.356 . S
N314 C306 1.356 . S
N314 H320 0.984 1_545 S
N314 H321 0.984 . S
N315 C308 1.356 . S
N315 H318 0.984 . S
N315 H319 0.985 1_565 S
H316 N311 0.984 . S
H317 N311 0.985 . S
H318 N315 0.984 . S
H319 N315 0.985 1_545 S
H320 N314 0.984 1_565 S
H321 N314 0.984 . S
H322 N310 0.984 . S
H323 N310 0.985 . S
C324 C325 1.363 . S
C324 C330 1.379 1_655 S
C324 N332 1.356 . S
C325 C324 1.363 . S
C325 C331 1.363 . S
C326 C327 1.363 . S
C326 C331 1.379 1_455 S
C326 N333 1.356 . S
C327 C326 1.363 . S
C327 C330 1.363 . S
N328 C330 1.356 . S
N328 H340 0.984 1_455 S
N328 H341 0.985 . S
N329 C331 1.356 . S
N329 H334 0.984 . S
N329 H335 0.985 1_655 S
C330 C324 1.379 1_455 S
C330 C327 1.363 . S
C330 N328 1.356 . S
C331 C325 1.363 . S
C331 C326 1.379 1_655 S
C331 N329 1.356 . S
N332 C324 1.356 . S
N332 H338 0.984 . S
N332 H339 0.984 . S
N333 C326 1.356 . S
N333 H336 0.984 . S
N333 H337 0.985 . S
H334 N329 0.984 . S
H335 N329 0.985 1_455 S
H336 N333 0.984 . S
H337 N333 0.985 . S
H338 N332 0.984 . S
H339 N332 0.984 . S
H340 N328 0.984 1_655 S
H341 N328 0.985 . S
C342 C343 1.363 . S
C342 C348 1.379 1_545 S
C342 N350 1.356 . S
C343 C342 1.363 . S
C343 C349 1.363 . S
C344 C345 1.363 . S
C344 C349 1.379 1_565 S
C344 N351 1.356 . S
C345 C344 1.363 . S
C345 C348 1.363 . S
N346 C348 1.356 . S
N346 H358 0.984 . S
N346 H359 0.985 . S
N347 C349 1.356 . S
N347 H352 0.984 . S
N347 H353 0.985 . S
C348 C342 1.379 1_565 S
C348 C345 1.363 . S
C348 N346 1.356 . S
C349 C343 1.363 . S
C349 C344 1.379 1_545 S
C349 N347 1.356 . S
N350 C342 1.356 . S
N350 H356 0.984 1_545 S
N350 H357 0.984 . S
N351 C344 1.356 . S
N351 H354 0.984 . S
N351 H355 0.985 1_565 S
H352 N347 0.984 . S
H353 N347 0.985 . S
H354 N351 0.984 . S
H355 N351 0.985 1_545 S
H356 N350 0.984 1_565 S
H357 N350 0.984 . S
H358 N346 0.984 . S
H359 N346 0.985 . S
C360 C361 1.363 . S
C360 C366 1.379 . S
C360 N368 1.356 1_545 S
C361 C360 1.363 . S
C361 C367 1.363 . S
C362 C363 1.363 . S
C362 C367 1.379 . S
C362 N369 1.356 . S
C363 C362 1.363 . S
C363 C366 1.363 . S
N364 C366 1.356 . S
N364 H376 0.984 . S
N364 H377 0.985 . S
N365 C367 1.356 . S
N365 H370 0.984 . S
N365 H371 0.985 . S
C366 C360 1.379 . S
C366 C363 1.363 . S
C366 N364 1.356 . S
C367 C361 1.363 . S
C367 C362 1.379 . S
C367 N365 1.356 . S
N368 C360 1.356 1_565 S
N368 H374 0.984 . S
N368 H375 0.984 . S
N369 C362 1.356 . S
N369 H372 0.984 . S
N369 H373 0.985 . S
H370 N365 0.984 . S
H371 N365 0.985 . S
H372 N369 0.984 . S
H373 N369 0.985 . S
H374 N368 0.984 . S
H375 N368 0.984 . S
H376 N364 0.984 . S
H377 N364 0.985 . S
C378 C379 1.363 . S
C378 C384 1.379 . S
C378 N386 1.356 . S
C379 C378 1.363 . S
C379 C385 1.363 . S
C380 C381 1.363 . S
C380 C385 1.379 . S
C380 N387 1.356 . S
C381 C380 1.363 . S
C381 C384 1.363 . S
N382 C384 1.356 . S
N382 H394 0.984 . S
N382 H395 0.985 . S
N383 C385 1.356 . S
N383 H388 0.984 . S
N383 H389 0.985 . S
C384 C378 1.379 . S
C384 C381 1.363 . S
C384 N382 1.356 . S
C385 C379 1.363 . S
C385 C380 1.379 . S
C385 N383 1.356 . S
N386 C378 1.356 . S
N386 H392 0.984 . S
N386 H393 0.984 . S
N387 C380 1.356 . S
N387 H390 0.984 . S
N387 H391 0.985 . S
H388 N383 0.984 . S
H389 N383 0.985 . S
H390 N387 0.984 . S
H391 N387 0.985 . S
H392 N386 0.984 . S
H393 N386 0.984 . S
H394 N382 0.984 . S
H395 N382 0.985 . S
C396 C397 1.363 . S
C396 C402 1.379 . S
C396 N404 1.356 1_565 S
C397 C396 1.363 . S
C397 C403 1.363 . S
C398 C399 1.363 . S
C398 C403 1.379 . S
C398 N405 1.356 . S
C399 C398 1.363 . S
C399 C402 1.363 . S
N400 C402 1.356 . S
N400 H412 0.984 . S
N400 H413 0.985 . S
N401 C403 1.356 . S
N401 H406 0.984 . S
N401 H407 0.985 . S
C402 C396 1.379 . S
C402 C399 1.363 . S
C402 N400 1.356 . S
C403 C397 1.363 . S
C403 C398 1.379 . S
C403 N401 1.356 . S
N404 C396 1.356 1_545 S
N404 H410 0.984 . S
N404 H411 0.984 . S
N405 C398 1.356 . S
N405 H408 0.984 . S
N405 H409 0.985 . S
H406 N401 0.984 . S
H407 N401 0.985 . S
H408 N405 0.984 . S
H409 N405 0.985 . S
H410 N404 0.984 . S
H411 N404 0.984 . S
H412 N400 0.984 . S
H413 N400 0.985 . S
C414 C415 1.363 . S
C414 C420 1.379 . S
C414 N422 1.356 . S
C415 C414 1.363 . S
C415 C421 1.363 . S
C416 C417 1.363 . S
C416 C421 1.379 . S
C416 N423 1.356 . S
C417 C416 1.363 . S
C417 C420 1.363 . S
N418 C420 1.356 . S
N418 H430 0.984 . S
N418 H431 0.985 . S
N419 C421 1.356 . S
N419 H424 0.984 . S
N419 H425 0.985 . S
C420 C414 1.379 . S
C420 C417 1.363 . S
C420 N418 1.356 . S
C421 C415 1.363 . S
C421 C416 1.379 . S
C421 N419 1.356 . S
N422 C414 1.356 . S
N422 H428 0.984 . S
N422 H429 0.984 . S
N423 C416 1.356 . S
N423 H426 0.984 1_655 S
N423 H427 0.985 1_655 S
H424 N419 0.984 . S
H425 N419 0.985 . S
H426 N423 0.984 1_455 S
H427 N423 0.985 1_455 S
H428 N422 0.984 . S
H429 N422 0.984 . S
H430 N418 0.984 . S
H431 N418 0.985 . S
C432 C433 1.363 . S
C432 C438 1.379 1_556 S
C432 N440 1.372 . S
C433 C432 1.363 . S
C433 C439 1.363 . S
C434 C435 1.363 1_556 S
C434 C439 1.379 . S
C434 N441 1.356 . S
C435 C434 1.363 1_554 S
C435 C438 1.363 . S
N436 C438 1.356 . S
N436 H448 0.984 . S
N436 H449 0.985 . S
N437 C439 1.356 . S
N437 H442 0.984 . S
N437 H443 0.985 . S
C438 C432 1.379 1_554 S
C438 C435 1.363 . S
C438 N436 1.356 . S
C439 C433 1.363 . S
C439 C434 1.379 . S
C439 N437 1.356 . S
N440 C432 1.372 . S
N440 H446 0.982 1_546 S
N440 H447 0.971 1_545 S
N441 C434 1.356 . S
N441 H444 0.984 1_556 S
N441 H445 0.985 . S
H442 N437 0.984 . S
H443 N437 0.985 . S
H444 N441 0.984 1_554 S
H445 N441 0.985 . S
H446 N440 0.982 1_564 S
H447 N440 0.971 1_565 S
H448 N436 0.984 . S
H449 N436 0.985 . S
C450 C451 1.363 1_554 S
C450 C456 1.379 . S
C450 N458 1.356 . S
C451 C450 1.363 1_556 S
C451 C457 1.363 . S
C452 C453 1.363 1_556 S
C452 C457 1.379 . S
C452 N459 1.356 1_455 S
C453 C452 1.363 1_554 S
C453 C456 1.363 . S
N454 C456 1.356 . S
N454 H466 0.984 . S
N454 H467 0.985 . S
N455 C457 1.356 . S
N455 H460 0.984 . S
N455 H461 0.985 . S
C456 C450 1.379 . S
C456 C453 1.363 . S
C456 N454 1.356 . S
C457 C451 1.363 . S
C457 C452 1.379 . S
C457 N455 1.356 . S
N458 C450 1.356 . S
N458 H464 0.984 . S
N458 H465 0.984 . S
N459 C452 1.356 1_655 S
N459 H462 0.984 1_556 S
N459 H463 0.985 . S
H460 N455 0.984 . S
H461 N455 0.985 . S
H462 N459 0.984 1_554 S
H463 N459 0.985 . S
H464 N458 0.984 . S
H465 N458 0.984 . S
H466 N454 0.984 . S
H467 N454 0.985 . S
C468 C469 1.363 1_556 S
C468 C474 1.379 . S
C468 N476 1.356 . S
C469 C468 1.363 1_554 S
C469 C475 1.363 . S
C470 C471 1.363 . S
C470 C475 1.379 1_556 S
C470 N477 1.356 . S
C471 C470 1.363 . S
C471 C474 1.363 . S
N472 C474 1.356 . S
N472 H484 0.984 . S
N472 H485 0.985 . S
N473 C475 1.356 . S
N473 H478 0.984 . S
N473 H479 0.985 . S
C474 C468 1.379 . S
C474 C471 1.363 . S
C474 N472 1.356 . S
C475 C469 1.363 . S
C475 C470 1.379 1_554 S
C475 N473 1.356 . S
N476 C468 1.356 . S
N476 H482 0.984 . S
N476 H483 0.984 1_556 S
N477 C470 1.356 . S
N477 H480 0.984 1_565 S
N477 H481 0.985 . S
H478 N473 0.984 . S
H479 N473 0.985 . S
H480 N477 0.984 1_545 S
H481 N477 0.985 . S
H482 N476 0.984 . S
H483 N476 0.984 1_554 S
H484 N472 0.984 . S
H485 N472 0.985 . S
C486 C487 1.363 . S
C486 C492 1.379 1_556 S
C486 N494 1.356 . S
C487 C486 1.363 . S
C487 C493 1.363 1_556 S
C488 C489 1.363 . S
C488 C493 1.379 . S
C488 N495 1.356 . S
C489 C488 1.363 . S
C489 C492 1.363 . S
N490 C492 1.356 . S
N490 H502 0.984 1_655 S
N490 H503 0.985 1_655 S
N491 C493 1.356 1_556 S
N491 H496 0.984 . S
N491 H497 0.985 1_556 S
C492 C486 1.379 1_554 S
C492 C489 1.363 . S
C492 N490 1.356 . S
C493 C487 1.363 1_554 S
C493 C488 1.379 . S
C493 N491 1.356 1_554 S
N494 C486 1.356 . S
N494 H500 0.984 . S
N494 H501 0.984 . S
N495 C488 1.356 . S
N495 H498 0.984 . S
N495 H499 0.985 . S
H496 N491 0.984 . S
H497 N491 0.985 1_554 S
H498 N495 0.984 . S
H499 N495 0.985 . S
H500 N494 0.984 . S
H501 N494 0.984 . S
H502 N490 0.984 1_455 S
H503 N490 0.985 1_455 S
C504 C505 1.363 . S
C504 C510 1.379 . S
C504 N512 1.356 . S
C505 C504 1.363 . S
C505 C511 1.363 . S
C506 C507 1.363 . S
C506 C511 1.379 . S
C506 N513 1.356 . S
C507 C506 1.363 . S
C507 C510 1.363 . S
N508 C510 1.356 . S
N508 H520 0.984 . S
N508 H521 0.985 . S
N509 C511 1.356 . S
N509 H514 0.984 . S
N509 H515 0.985 . S
C510 C504 1.379 . S
C510 C507 1.363 . S
C510 N508 1.356 . S
C511 C505 1.363 . S
C511 C506 1.379 . S
C511 N509 1.356 . S
N512 C504 1.356 . S
N512 H518 0.984 . S
N512 H519 0.984 . S
N513 C506 1.356 . S
N513 H516 0.984 . S
N513 H517 0.985 . S
H514 N509 0.984 . S
H515 N509 0.985 . S
H516 N513 0.984 . S
H517 N513 0.985 . S
H518 N512 0.984 . S
H519 N512 0.984 . S
H520 N508 0.984 . S
H521 N508 0.985 . S
C522 C523 1.363 . S
C522 C528 1.379 . S
C522 N530 1.356 . S
C523 C522 1.363 . S
C523 C529 1.363 . S
C524 C525 1.363 . S
C524 C529 1.379 . S
C524 N531 1.356 . S
C525 C524 1.363 . S
C525 C528 1.363 . S
N526 C528 1.356 . S
N526 H538 0.984 . S
N526 H539 0.985 . S
N527 C529 1.356 . S
N527 H532 0.984 . S
N527 H533 0.985 . S
C528 C522 1.379 . S
C528 C525 1.363 . S
C528 N526 1.356 . S
C529 C523 1.363 . S
C529 C524 1.379 . S
C529 N527 1.356 . S
N530 C522 1.356 . S
N530 H536 0.984 . S
N530 H537 0.984 . S
N531 C524 1.356 . S
N531 H534 0.984 . S
N531 H535 0.985 . S
H532 N527 0.984 . S
H533 N527 0.985 . S
H534 N531 0.984 . S
H535 N531 0.985 . S
H536 N530 0.984 . S
H537 N530 0.984 . S
H538 N526 0.984 . S
H539 N526 0.985 . S
C540 C541 1.363 . S
C540 C546 1.379 . S
C540 N548 1.356 . S
C541 C540 1.363 . S
C541 C547 1.363 . S
C542 C543 1.363 . S
C542 C547 1.379 . S
C542 N549 1.356 . S
C543 C542 1.363 . S
C543 C546 1.363 . S
N544 C546 1.356 . S
N544 H556 0.984 . S
N544 H557 0.985 . S
N545 C547 1.356 . S
N545 H550 0.984 . S
N545 H551 0.985 . S
C546 C540 1.379 . S
C546 C543 1.363 . S
C546 N544 1.356 . S
C547 C541 1.363 . S
C547 C542 1.379 . S
C547 N545 1.356 . S
N548 C540 1.356 . S
N548 H554 0.984 . S
N548 H555 0.984 . S
N549 C542 1.356 . S
N549 H552 0.984 . S
N549 H553 0.985 . S
H550 N545 0.984 . S
H551 N545 0.985 . S
H552 N549 0.984 . S
H553 N549 0.985 . S
H554 N548 0.984 . S
H555 N548 0.984 . S
H556 N544 0.984 . S
H557 N544 0.985 . S
C558 C559 1.363 . S
C558 C564 1.379 . S
C558 N566 1.356 . S
C559 C558 1.363 . S
C559 C565 1.363 . S
C560 C561 1.363 . S
C560 C565 1.379 . S
C560 N567 1.356 . S
C561 C560 1.363 . S
C561 C564 1.363 . S
N562 C564 1.356 . S
N562 H574 0.984 . S
N562 H575 0.985 . S
N563 C565 1.356 . S
N563 H568 0.984 . S
N563 H569 0.985 . S
C564 C558 1.379 . S
C564 C561 1.363 . S
C564 N562 1.356 . S
C565 C559 1.363 . S
C565 C560 1.379 . S
C565 N563 1.356 . S
N566 C558 1.356 . S
N566 H572 0.984 . S
N566 H573 0.984 . S
N567 C560 1.356 . S
N567 H570 0.984 . S
N567 H571 0.985 . S
H568 N563 0.984 . S
H569 N563 0.985 . S
H570 N567 0.984 . S
H571 N567 0.985 . S
H572 N566 0.984 . S
H573 N566 0.984 . S
H574 N562 0.984 . S
H575 N562 0.985 . S
C289 C76 1.458 . S
C291 C4 1.458 . S
C307 C122 1.708 . S
C309 C50 1.708 . S
C325 C148 1.489 . S
C327 C220 1.489 . S
C343 C184 1.524 . S
C345 C256 1.524 . S
C361 C39 1.153 . S
C363 C3 1.129 . S
C379 C38 1.263 . S
C381 C74 1.322 . S
C397 C111 1.153 . S
C399 C75 1.129 . S
C415 C110 1.263 . S
C417 C2 1.322 . S
C433 C254 1.265 1_545 S
C435 C147 1.256 . S
C451 C183 1.189 . S
C453 C146 1.206 . S
C469 C219 1.256 . S
C471 C182 1.265 1_565 S
C487 C255 1.189 . S
C489 C218 1.206 . S
C505 C14 1.694 . S
C507 C194 1.689 . S
C523 C230 1.650 . S
C525 C40 1.635 . S
C541 C86 1.694 . S
C543 C266 1.689 . S
C559 C112 1.635 . S
C561 C158 1.650 . S
