# Generated by pormake.
# Topology smu, (6)-cn, num edge types: 1
# Building blocks:
#     Node 0, Type 0, BuildingBlock: BETDIP_clean_sbu_0, # of connection points: 6
#     Node 1, Type 0, BuildingBlock: BETDIP_clean_sbu_0, # of connection points: 6
#     Node 2, Type 0, BuildingBlock: BETDIP_clean_sbu_0, # of connection points: 6
#     Node 3, Type 0, BuildingBlock: BETDIP_clean_sbu_0, # of connection points: 6
#     Node 4, Type 0, BuildingBlock: BETDIP_clean_sbu_0, # of connection points: 6
#     Node 5, Type 0, BuildingBlock: BETDIP_clean_sbu_0, # of connection points: 6
#     Edge 6, Type (0, 0), BuildingBlock: MIFKUJ_clean_linker_0, # of connection points: 2
#     Edge 7, Type (0, 0), BuildingBlock: MIFKUJ_clean_linker_0, # of connection points: 2
#     Edge 8, Type (0, 0), BuildingBlock: MIFKUJ_clean_linker_0, # of connection points: 2
#     Edge 9, Type (0, 0), BuildingBlock: MIFKUJ_clean_linker_0, # of connection points: 2
#     Edge 10, Type (0, 0), BuildingBlock: MIFKUJ_clean_linker_0, # of connection points: 2
#     Edge 11, Type (0, 0), BuildingBlock: MIFKUJ_clean_linker_0, # of connection points: 2
#     Edge 12, Type (0, 0), BuildingBlock: MIFKUJ_clean_linker_0, # of connection points: 2
#     Edge 13, Type (0, 0), BuildingBlock: MIFKUJ_clean_linker_0, # of connection points: 2
#     Edge 14, Type (0, 0), BuildingBlock: MIFKUJ_clean_linker_0, # of connection points: 2
#     Edge 15, Type (0, 0), BuildingBlock: MIFKUJ_clean_linker_0, # of connection points: 2
#     Edge 16, Type (0, 0), BuildingBlock: MIFKUJ_clean_linker_0, # of connection points: 2
#     Edge 17, Type (0, 0), BuildingBlock: MIFKUJ_clean_linker_0, # of connection points: 2
#     Edge 18, Type (0, 0), BuildingBlock: MIFKUJ_clean_linker_0, # of connection points: 2
#     Edge 19, Type (0, 0), BuildingBlock: MIFKUJ_clean_linker_0, # of connection points: 2
#     Edge 20, Type (0, 0), BuildingBlock: MIFKUJ_clean_linker_0, # of connection points: 2
#     Edge 21, Type (0, 0), BuildingBlock: MIFKUJ_clean_linker_0, # of connection points: 2
#     Edge 22, Type (0, 0), BuildingBlock: MIFKUJ_clean_linker_0, # of connection points: 2
#     Edge 23, Type (0, 0), BuildingBlock: MIFKUJ_clean_linker_0, # of connection points: 2
# Relax obj value: 0.218
# Max RMSD: 0.300
# Mean RMSD: 0.300
data_MOF--net-smu--node1-BETDIP_clean_sbu_0--edge1-MIFKUJ_clean_linker_0
_symmetry_space_group_name_H-M    P1
_symmetry_Int_Tables_number       1
_symmetry_cell_setting            triclinic
loop_
_symmetry_equiv_pos_as_xyz
'x, y, z'
_cell_length_a     47.505934
_cell_length_b     47.487435
_cell_length_c     34.800213
_cell_angle_alpha  90.621984
_cell_angle_beta   89.494683
_cell_angle_gamma 119.91197
loop_
_atom_site_label
_atom_site_type_symbol
_atom_site_fract_x
_atom_site_fract_y
_atom_site_fract_z
_atom_type_partial_charge
Tb0 Tb 0.33685 0.06518 0.28625 0.0
Tb1 Tb 0.36724 0.13562 0.28312 0.0
C2 C 0.29581 1.00688 0.30075 0.0
C3 C 0.25971 0.98984 0.30087 0.0
C4 C 0.24179 0.96543 0.32774 0.0
C5 C 0.20772 0.94949 0.32809 0.0
C6 C 0.19063 0.95756 0.30153 0.0
C7 C 0.20877 0.98235 0.27491 0.0
C8 C 0.24281 0.99831 0.27464 0.0
C9 C 0.35291 0.08737 0.21531 0.0
C10 C 0.29433 0.10002 0.28033 0.0
C11 C 0.39924 0.19594 0.26939 0.0
C12 C 0.42869 0.22809 0.27688 0.0
C13 C 0.44868 0.24564 0.24585 0.0
C14 C 0.47288 0.27828 0.25024 0.0
C15 C 0.47781 0.29446 0.28587 0.0
C16 C 0.45864 0.2764 0.31736 0.0
C17 C 0.43437 0.24371 0.31292 0.0
C18 C 0.35211 0.10954 0.35329 0.0
C19 C 0.41255 0.10325 0.28762 0.0
O20 O 0.31039 0.029 0.32745 0.0
O21 O 0.30989 1.01678 0.2673 0.0
O22 O 0.34061 0.09757 0.24071 0.0
O23 O 0.35667 0.06469 0.23038 0.0
O24 O 0.29712 0.0764 0.29621 0.0
O25 O 0.31968 0.1244 0.26431 0.0
O26 O 0.40204 0.17407 0.24906 0.0
O27 O 0.37757 0.18292 0.29675 0.0
O28 O 0.36448 0.10234 0.32597 0.0
O29 O 0.34815 0.13331 0.34255 0.0
O30 O 0.40986 0.12907 0.27967 0.0
O31 O 0.38657 0.0747 0.29561 0.0
H32 H 0.25407 0.95868 0.3486 0.0
H33 H 0.19478 0.93102 0.34953 0.0
H34 H 0.19669 0.98914 0.25375 0.0
H35 H 0.25593 1.01725 0.25373 0.0
H36 H 0.44459 0.23453 0.21758 0.0
H37 H 0.48669 0.29121 0.22511 0.0
H38 H 0.46198 0.28767 0.34543 0.0
H39 H 0.41934 0.23107 0.33747 0.0
Tb40 Tb 0.76644 0.7096 0.29389 0.0
Tb41 Tb 0.79819 0.67146 0.29203 0.0
C42 C 0.75281 0.75311 0.31074 0.0
C43 C 0.77123 0.78883 0.30615 0.0
C44 C 0.77319 0.80913 0.33686 0.0
C45 C 0.79155 0.84299 0.33341 0.0
C46 C 0.80816 0.85724 0.29903 0.0
C47 C 0.80624 0.83684 0.26834 0.0
C48 C 0.78817 0.80302 0.27193 0.0
C49 C 0.76899 0.69065 0.22334 0.0
C50 C 0.84544 0.74404 0.28903 0.0
C51 C 0.81766 0.63116 0.28668 0.0
C52 C 0.829 0.60716 0.28499 0.0
C53 C 0.84021 0.60057 0.25043 0.0
C54 C 0.85234 0.57901 0.24964 0.0
C55 C 0.85379 0.56377 0.28348 0.0
C56 C 0.84226 0.5702 0.31792 0.0
C57 C 0.82995 0.59154 0.31864 0.0
C58 C 0.79086 0.69207 0.36117 0.0
C59 C 0.72223 0.6348 0.28944 0.0
O60 O 0.76478 0.74132 0.33537 0.0
O61 O 0.74318 0.73567 0.27921 0.0
O62 O 0.79187 0.7004 0.24792 0.0
O63 O 0.74471 0.69181 0.23866 0.0
O64 O 0.81947 0.74711 0.29593 0.0
O65 O 0.8423 0.71551 0.28173 0.0
O66 O 0.8204 0.65028 0.25832 0.0
O67 O 0.80322 0.63431 0.31716 0.0
O68 O 0.77044 0.67989 0.33484 0.0
O69 O 0.8175 0.69371 0.3493 0.0
O70 O 0.74875 0.63606 0.27563 0.0
O71 O 0.72384 0.66123 0.30511 0.0
H72 H 0.7606 0.79876 0.36363 0.0
H73 H 0.79236 0.85804 0.35746 0.0
H74 H 0.81907 0.84705 0.24167 0.0
H75 H 0.78763 0.78801 0.24796 0.0
H76 H 0.8399 0.61232 0.22405 0.0
H77 H 0.86124 0.5748 0.22267 0.0
H78 H 0.84257 0.55858 0.3444 0.0
H79 H 0.82156 0.59611 0.34579 0.0
Tb80 Tb 0.98012 0.27685 0.27379 0.0
Tb81 Tb 0.90955 0.23956 0.2646 0.0
C82 C 0.03809 0.29407 0.29031 0.0
C83 C 0.05603 0.27589 0.29322 0.0
C84 C 0.0565 0.26078 0.3276 0.0
C85 C 0.07221 0.24244 0.32928 0.0
C86 C 0.08788 0.23883 0.29664 0.0
C87 C 0.088 0.25457 0.26259 0.0
C88 C 0.07242 0.27291 0.26094 0.0
C89 C 0.96154 0.27739 0.20259 0.0
C90 C 0.9437 0.20054 0.25895 0.0
C91 C 0.85041 0.21374 0.2454 0.0
C92 C 0.81785 0.21014 0.25198 0.0
C93 C 0.79635 0.20056 0.22085 0.0
C94 C 0.76392 0.19244 0.22624 0.0
C95 C 0.75204 0.19379 0.26299 0.0
C96 C 0.77396 0.20461 0.29407 0.0
C97 C 0.80651 0.21249 0.28868 0.0
C98 C 0.93118 0.24383 0.33638 0.0
C99 C 0.94422 0.31651 0.27594 0.0
O100 O 1.01573 0.28831 0.31618 0.0
O101 O 0.02847 0.29609 0.25593 0.0
O102 O 0.94952 0.25276 0.2245 0.0
O103 O 0.98384 0.30209 0.22114 0.0
O104 O 0.96698 0.22504 0.27844 0.0
O105 O 0.92145 0.20449 0.24179 0.0
O106 O 0.87347 0.24069 0.23052 0.0
O107 O 0.86144 0.20187 0.27111 0.0
O108 O 0.94126 0.26554 0.31161 0.0
O109 O 0.90612 0.2185 0.32254 0.0
O110 O 0.91867 0.28949 0.26337 0.0
O111 O 0.97096 0.31679 0.28743 0.0
H112 H 0.0445 0.26287 0.35315 0.0
H113 H 0.07157 0.23061 0.35597 0.0
H114 H 0.10042 0.25296 0.23713 0.0
H115 H 0.07303 0.28458 0.23412 0.0
H116 H 0.80442 0.19838 0.19232 0.0
H117 H 0.74801 0.18477 0.20154 0.0
H118 H 0.76565 0.20584 0.32279 0.0
H119 H 0.82251 0.21956 0.31326 0.0
Tb120 Tb 0.09761 0.3725 0.77613 0.0
Tb121 Tb 0.12521 0.32942 0.75657 0.0
C122 C 0.08478 0.41666 0.79382 0.0
C123 C 0.101 0.45209 0.80137 0.0
C124 C 0.13311 0.47023 0.81461 0.0
C125 C 0.14873 0.5044 0.8164 0.0
C126 C 0.13261 0.5211 0.80473 0.0
C127 C 0.10026 0.50247 0.79207 0.0
C128 C 0.08475 0.46856 0.79057 0.0
C129 C 0.08264 0.34611 0.70652 0.0
C130 C 0.17343 0.40478 0.75965 0.0
C131 C 0.15119 0.2985 0.72921 0.0
C132 C 0.154 0.26944 0.73701 0.0
C133 C 0.16087 0.25425 0.7065 0.0
C134 C 0.16906 0.23025 0.71357 0.0
C135 C 0.17077 0.22105 0.75141 0.0
C136 C 0.16238 0.23527 0.78188 0.0
C137 C 0.15399 0.25916 0.77475 0.0
C138 C 0.1133 0.33091 0.83115 0.0
C139 C 0.05169 0.29772 0.77782 0.0
O140 O 0.08673 0.39746 0.81922 0.0
O141 O 0.08812 0.40883 0.75869 0.0
O142 O 0.11023 0.35706 0.72239 0.0
O143 O 0.06371 0.35062 0.72932 0.0
O144 O 0.14961 0.40849 0.7739 0.0
O145 O 0.16828 0.37635 0.74717 0.0
O146 O 0.12316 0.2942 0.71733 0.0
O147 O 0.16505 0.32224 0.75426 0.0
O148 O 0.12343 0.35444 0.808 0.0
O149 O 0.1129 0.30682 0.81311 0.0
O150 O 0.07315 0.29572 0.75506 0.0
O151 O 0.05791 0.32527 0.79532 0.0
H152 H 0.14625 0.45806 0.82281 0.0
H153 H 0.17348 0.51769 0.8267 0.0
H154 H 0.08706 0.51403 0.78191 0.0
H155 H 0.06017 0.45515 0.7796 0.0
H156 H 0.16126 0.26195 0.67721 0.0
H157 H 0.17558 0.22003 0.68944 0.0
H158 H 0.16293 0.22838 0.81131 0.0
H159 H 0.1487 0.27045 0.79883 0.0
Tb160 Tb 0.30417 0.94145 0.78503 0.0
Tb161 Tb 0.23265 0.91809 0.77409 0.0
C162 C 0.36132 0.95879 0.80594 0.0
C163 C 0.38186 0.94351 0.80139 0.0
C164 C 0.40708 0.95097 0.82735 0.0
C165 C 0.42581 0.93568 0.82435 0.0
C166 C 0.41983 0.91248 0.79519 0.0
C167 C 0.39437 0.90507 0.76923 0.0
C168 C 0.37556 0.92029 0.7724 0.0
C169 C 0.28484 0.93434 0.71159 0.0
C170 C 0.25758 0.86727 0.77307 0.0
C171 C 0.17514 0.89196 0.75009 0.0
C172 C 0.14327 0.88982 0.75546 0.0
C173 C 0.12474 0.88661 0.72286 0.0
C174 C 0.092 0.87772 0.72649 0.0
C175 C 0.07707 0.87175 0.76289 0.0
C176 C 0.09628 0.87707 0.79571 0.0
C177 C 0.12908 0.88598 0.79204 0.0
C178 C 0.25156 0.93182 0.84608 0.0
C179 C 0.27812 0.9921 0.78738 0.0
O180 O 0.33583 0.94326 0.82807 0.0
O181 O 0.35443 0.96912 0.7746 0.0
O182 O 0.27518 0.94421 0.73962 0.0
O183 O 0.30679 0.92841 0.72473 0.0
O184 O 0.28535 0.88927 0.78821 0.0
O185 O 0.23673 0.87531 0.75948 0.0
O186 O 0.19898 0.91844 0.73517 0.0
O187 O 0.18481 0.88005 0.77742 0.0
O188 O 0.26221 0.91961 0.82127 0.0
O189 O 0.22654 0.93211 0.83209 0.0
O190 O 0.25001 0.9696 0.77311 0.0
O191 O 0.3017 0.98613 0.79722 0.0
H192 H 0.41212 0.96845 0.85029 0.0
H193 H 0.44467 0.94171 0.84538 0.0
H194 H 0.38912 0.88774 0.7461 0.0
H195 H 0.356 0.91381 0.75221 0.0
H196 H 0.13516 0.8894 0.69437 0.0
H197 H 0.07812 0.87451 0.70067 0.0
H198 H 0.08559 0.87261 0.82418 0.0
H199 H 0.14284 0.88831 0.8177 0.0
Tb200 Tb 0.66689 0.73788 0.80236 0.0
Tb201 Tb 0.71592 0.80682 0.78314 0.0
C202 C 0.61905 0.68825 0.83109 0.0
C203 C 0.58349 0.67014 0.82408 0.0
C204 C 0.56178 0.65905 0.85528 0.0
C205 C 0.52813 0.64097 0.84922 0.0
C206 C 0.51542 0.63333 0.81174 0.0
C207 C 0.53724 0.64503 0.78051 0.0
C208 C 0.57084 0.66334 0.78658 0.0
C209 C 0.68826 0.74506 0.73104 0.0
C210 C 0.64129 0.78593 0.78283 0.0
C211 C 0.74941 0.86225 0.75399 0.0
C212 C 0.77957 0.8934 0.76091 0.0
C213 C 0.79854 0.91117 0.72949 0.0
C214 C 0.82341 0.94339 0.7343 0.0
C215 C 0.82961 0.95866 0.77065 0.0
C216 C 0.81182 0.94004 0.80249 0.0
C217 C 0.78715 0.90775 0.7977 0.0
C218 C 0.71755 0.79308 0.85657 0.0
C219 C 0.74007 0.7582 0.79835 0.0
O220 O 0.63108 0.71745 0.8457 0.0
O221 O 0.6376 0.68714 0.80388 0.0
O222 O 0.68295 0.76537 0.74934 0.0
O223 O 0.67861 0.71928 0.75158 0.0
O224 O 0.63388 0.7552 0.78465 0.0
O225 O 0.67168 0.8097 0.78386 0.0
O226 O 0.75176 0.83701 0.74297 0.0
O227 O 0.72606 0.85467 0.77899 0.0
O228 O 0.69271 0.78174 0.83521 0.0
O229 O 0.74168 0.81576 0.83778 0.0
O230 O 0.74404 0.78255 0.77656 0.0
O231 O 0.71266 0.73981 0.81761 0.0
H232 H 0.57088 0.66405 0.88445 0.0
H233 H 0.51211 0.6322 0.87394 0.0
H234 H 0.52832 0.64005 0.75127 0.0
H235 H 0.58692 0.67192 0.76189 0.0
H236 H 0.79317 0.90062 0.70088 0.0
H237 H 0.83711 0.95664 0.70926 0.0
H238 H 0.81564 0.95087 0.83088 0.0
H239 H 0.77293 0.89458 0.82252 0.0
H240 H 0.21675 0.92129 0.91139 0.0
H241 H 0.2349 0.94954 0.97314 0.0
H242 H 0.33288 1.0032 0.92939 0.0
H243 H 0.31478 0.97388 0.86804 0.0
H244 H 0.33409 0.9892 1.00245 0.0
H245 H 0.27465 0.03125 0.93224 0.0
H246 H 0.22585 0.02549 0.90027 0.0
H247 H 0.1715 0.99149 1.005 0.0
H248 H 0.21945 0.99591 0.03747 0.0
H249 H 0.39277 0.10346 0.15305 0.0
H250 H 0.37714 0.08124 0.08786 0.0
H251 H 0.27619 0.03348 0.12166 0.0
H252 H 0.29193 0.0576 0.18592 0.0
H253 H 0.27743 0.04612 0.05199 0.0
H254 H 0.32689 0.99586 0.12089 0.0
H255 H 0.36959 0.99334 0.15792 0.0
H256 H 0.43561 0.03379 0.06275 0.0
H257 H 0.3934 0.03697 1.02533 0.0
C258 C 0.24233 0.93853 0.9153 0.0
C259 C 0.26442 0.94482 0.88501 0.0
C260 C 0.25265 0.95506 0.95051 0.0
C261 C 0.2852 0.97935 0.95592 0.0
C262 C 0.30761 0.98474 0.92614 0.0
C263 C 0.29733 0.96764 0.89107 0.0
C264 C 0.29565 0.99962 0.99203 0.0
C265 C 0.32198 1.00205 1.01288 0.0
C266 C 0.2792 1.01556 1.00682 0.0
C267 C 0.25067 1.01373 0.98726 0.0
C268 C 0.25228 0.02241 0.94845 0.0
C269 C 0.22477 0.01937 0.93021 0.0
C270 C 0.19571 1.00827 0.95054 0.0
C271 C 0.19403 1.00011 0.98924 0.0
C272 C 0.22134 1.0028 1.00758 0.0
C273 C 0.36722 0.08941 0.14593 0.0
C274 C 0.34357 0.08286 0.17428 0.0
C275 C 0.35824 0.07606 0.10884 0.0
C276 C 0.32541 0.05457 0.09976 0.0
C277 C 0.30168 0.04975 0.12754 0.0
C278 C 0.31066 0.06382 0.16431 0.0
C279 C 0.31587 0.03568 0.06252 0.0
C280 C 0.28973 0.03349 0.04144 0.0
C281 C 0.33173 0.01903 0.04818 0.0
C282 C 0.35711 1.01699 0.07048 0.0
C283 C 0.35058 1.00441 0.10795 0.0
C284 C 0.37468 1.00284 0.129 0.0
C285 C 0.40532 1.01348 0.11274 0.0
C286 C 0.41188 0.02562 0.07534 0.0
C287 C 0.38788 0.0273 0.05419 0.0
H288 H 0.42395 1.01226 0.12908 0.0
H289 H 0.1745 1.00598 0.93628 0.0
H290 H 0.71108 0.79565 0.67769 0.0
H291 H 0.73578 0.79729 0.61425 0.0
H292 H 0.72457 0.70285 0.63523 0.0
H293 H 0.70108 0.70148 0.69752 0.0
H294 H 0.78012 0.73747 0.60403 0.0
H295 H 0.67094 0.71624 0.57743 0.0
H296 H 0.6267 0.72921 0.57772 0.0
H297 H 0.68673 0.81637 0.51435 0.0
H298 H 0.73146 0.80406 0.51409 0.0
H299 H 0.73267 0.67716 0.39288 0.0
H300 H 0.72188 0.69556 0.45415 0.0
H301 H 0.82497 0.75435 0.47391 0.0
H302 H 0.83569 0.73439 0.41325 0.0
H303 H 0.73085 0.7482 0.48412 0.0
H304 H 0.84264 0.76643 0.56391 0.0
H305 H 0.88132 0.746 0.56486 0.0
H306 H 0.8073 0.6534 0.52204 0.0
H307 H 0.76811 0.67322 0.52148 0.0
C308 C 0.71407 0.77541 0.66862 0.0
C309 C 0.70379 0.74834 0.69264 0.0
C310 C 0.72812 0.77627 0.63233 0.0
C311 C 0.73199 0.75004 0.61953 0.0
C312 C 0.72219 0.72352 0.64408 0.0
C313 C 0.70842 0.7227 0.67987 0.0
C314 C 0.74513 0.74877 0.5805 0.0
C315 C 0.7696 0.74034 0.57786 0.0
C316 C 0.73144 0.75205 0.54598 0.0
C317 C 0.70464 0.75946 0.54618 0.0
C318 C 0.67476 0.73829 0.56383 0.0
C319 C 0.6496 0.7455 0.56394 0.0
C320 C 0.65394 0.77366 0.54619 0.0
C321 C 0.68343 0.79462 0.52818 0.0
C322 C 0.70869 0.78754 0.52804 0.0
C323 C 0.75306 0.69386 0.41042 0.0
C324 C 0.78504 0.70398 0.39847 0.0
C325 C 0.74687 0.70462 0.44545 0.0
C326 C 0.77248 0.72615 0.46939 0.0
C327 C 0.8046 0.7371 0.45679 0.0
C328 C 0.81079 0.72578 0.42198 0.0
C329 C 0.76515 0.73596 0.5078 0.0
C330 C 0.74191 0.7461 0.51027 0.0
C331 C 0.77934 0.73345 0.54232 0.0
C332 C 0.80257 0.72129 0.54269 0.0
C333 C 0.83461 0.74163 0.55505 0.0
C334 C 0.85662 0.7302 0.55543 0.0
C335 C 0.84678 0.69842 0.5435 0.0
C336 C 0.81489 0.67801 0.53124 0.0
C337 C 0.79278 0.68932 0.53091 0.0
H338 H 0.86386 0.68962 0.54375 0.0
H339 H 0.63443 0.77919 0.54629 0.0
H340 H 0.97154 0.32463 0.1529 0.0
H341 H 0.99264 0.33153 0.08733 0.0
H342 H 0.9842 0.23687 0.09155 0.0
H343 H 0.96292 0.22995 0.15761 0.0
H344 H 0.04436 0.28245 0.06962 0.0
H345 H 0.93713 0.25233 1.0304 0.0
H346 H 0.88595 0.25371 1.02954 0.0
H347 H 0.93762 0.35323 0.99353 0.0
H348 H 0.98922 0.35261 0.9947 0.0
H349 H 0.08711 0.27737 0.87554 0.0
H350 H 0.05833 0.26788 0.93646 0.0
H351 H 0.07483 0.36574 0.93572 0.0
H352 H 0.10466 0.37568 0.8744 0.0
H353 H 1.00976 0.31844 0.95494 0.0
H354 H 0.11709 0.34839 0.99548 0.0
H355 H 0.168 0.34648 0.99611 0.0
H356 H 0.11535 0.24634 1.02964 0.0
H357 H 0.06402 0.24751 1.02866 0.0
C358 C 0.97306 0.30478 0.13933 0.0
C359 C 0.96516 0.27659 0.16024 0.0
C360 C 0.98527 0.30879 0.10179 0.0
C361 C 0.99011 0.28477 0.08419 0.0
C362 C 0.9807 0.2558 0.10438 0.0
C363 C 0.96812 0.25163 0.14197 0.0
C364 C 1.00768 0.29137 0.04643 0.0
C365 C 0.03638 0.28972 0.04439 0.0
C366 C 0.99807 0.30199 1.01367 0.0
C367 C 0.96711 0.30251 1.013 0.0
C368 C 0.93764 0.27461 1.02263 0.0
C369 C 0.90854 0.27524 1.02202 0.0
C370 C 0.90855 0.30357 1.01158 0.0
C371 C 0.93766 0.33132 1.00165 0.0
C372 C 0.96684 0.33083 1.00224 0.0
C373 C 0.08494 0.29711 0.88834 0.0
C374 C 0.09789 0.32725 0.86968 0.0
C375 C 0.06836 0.29156 0.9233 0.0
C376 C 0.06428 0.31601 0.94089 0.0
C377 C 0.07741 0.34636 0.92261 0.0
C378 C 0.09439 0.35205 0.88751 0.0
C379 C 0.04629 0.30941 0.97827 0.0
C380 C 1.01761 0.3111 0.98023 0.0
C381 C 0.05584 0.29877 1.01101 0.0
C382 C 0.08666 0.29796 1.01163 0.0
C383 C 0.11632 0.32588 1.00265 0.0
C384 C 0.14527 0.32495 1.00314 0.0
C385 C 0.1449 0.29629 1.01281 0.0
C386 C 0.11559 0.26851 1.0221 0.0
C387 C 0.08657 0.2693 1.02162 0.0
H388 H 0.16734 0.29562 1.01319 0.0
H389 H 0.88598 0.304 1.01111 0.0
H390 H 0.38462 0.08492 0.39052 0.0
H391 H 0.36947 0.05341 0.44958 0.0
H392 H 0.28235 0.06035 0.45732 0.0
H393 H 0.29923 0.09446 0.39958 0.0
H394 H 0.30144 0.06359 0.52433 0.0
H395 H 0.28878 0.98875 0.42306 0.0
H396 H 0.30617 0.96851 0.36724 0.0
H397 H 0.38003 0.96668 0.43531 0.0
H398 H 0.36379 0.98761 0.49128 0.0
H399 H 0.24236 0.94944 0.67735 0.0
H400 H 0.2478 0.97486 0.61487 0.0
H401 H 0.33775 0.97515 0.59495 0.0
H402 H 0.33106 0.94772 0.6561 0.0
H403 H 0.31048 0.96421 0.53133 0.0
H404 H 0.33022 0.05027 0.62619 0.0
H405 H 0.3159 0.07487 0.68015 0.0
H406 H 0.22751 0.05372 0.62332 0.0
H407 H 0.24189 0.02986 0.56847 0.0
C408 C 0.3624 0.08 0.40511 0.0
C409 C 0.34316 0.09223 0.39056 0.0
C410 C 0.35341 0.06147 0.43869 0.0
C411 C 0.32402 0.05317 0.45767 0.0
C412 C 0.30501 0.06599 0.44339 0.0
C413 C 0.31466 0.08558 0.41039 0.0
C414 C 0.31366 0.03188 0.49272 0.0
C415 C 0.30295 0.04156 0.52541 0.0
C416 C 0.31583 1.00313 0.495 0.0
C417 C 0.32514 0.98993 0.46139 0.0
C418 C 0.30882 0.98416 0.42612 0.0
C419 C 0.31847 0.97259 0.39444 0.0
C420 C 0.3441 0.96631 0.39775 0.0
C421 C 0.36016 0.97155 0.43277 0.0
C422 C 0.35076 0.98327 0.46449 0.0
C423 C 0.26299 0.95443 0.65931 0.0
C424 C 0.28619 0.94642 0.67181 0.0
C425 C 0.26644 0.96956 0.62369 0.0
C426 C 0.29379 0.97813 0.60013 0.0
C427 C 0.31643 0.96912 0.61223 0.0
C428 C 0.31257 0.95331 0.64738 0.0
C429 C 0.29926 0.99652 0.56317 0.0
C430 C 0.30882 0.98614 0.53003 0.0
C431 C 0.29592 0.02452 0.56031 0.0
C432 C 0.28692 0.038 0.59361 0.0
C433 C 0.30765 0.0507 0.6254 0.0
C434 C 0.29954 0.06458 0.65608 0.0
C435 C 0.27058 0.06551 0.65542 0.0
C436 C 0.24985 0.05287 0.62388 0.0
C437 C 0.25806 0.03937 0.5929 0.0
H438 H 0.26424 0.07623 0.67914 0.0
H439 H 0.3515 0.95736 0.37318 0.0
H440 H 0.76646 0.82529 0.90718 0.0
H441 H 0.77708 0.80603 0.96689 0.0
H442 H 0.68976 0.71358 0.95111 0.0
H443 H 0.67845 0.73355 0.89166 0.0
H444 H 0.69459 0.72828 1.02326 0.0
H445 H 0.77385 0.72484 0.93613 0.0
H446 H 0.81919 0.74588 0.88964 0.0
H447 H 0.87744 0.82554 0.96571 0.0
H448 H 0.83276 0.80428 1.01323 0.0
H449 H 0.73058 0.64977 0.16809 0.0
H450 H 0.7238 0.66475 0.10321 0.0
H451 H 0.80653 0.76038 0.12026 0.0
H452 H 0.81382 0.74492 0.185 0.0
H453 H 0.80386 0.7427 0.04705 0.0
H454 H 0.7273 0.74358 0.13665 0.0
H455 H 0.68422 0.72057 0.18598 0.0
H456 H 0.62073 0.64694 0.10626 0.0
H457 H 0.66365 0.66921 0.0566 0.0
C458 C 0.7493 0.80089 0.91651 0.0
C459 C 0.72148 0.78103 0.89452 0.0
C460 C 0.75568 0.78967 0.95058 0.0
C461 C 0.73485 0.75786 0.96342 0.0
C462 C 0.70649 0.73815 0.94198 0.0
C463 C 0.69985 0.74963 0.90797 0.0
C464 C 0.74241 0.74565 0.99948 0.0
C465 C 0.71834 0.73095 1.028 0.0
C466 C 0.77364 0.74982 1.00688 0.0
C467 C 0.79994 0.76322 0.9779 0.0
C468 C 0.79627 0.74696 0.94276 0.0
C469 C 0.8219 0.75883 0.91636 0.0
C470 C 0.85103 0.78725 0.92456 0.0
C471 C 0.8548 0.80361 0.95938 0.0
C472 C 0.82946 0.79153 0.98616 0.0
C473 C 0.74823 0.67348 0.15728 0.0
C474 C 0.77313 0.69591 0.18133 0.0
C475 C 0.74396 0.68229 0.12042 0.0
C476 C 0.764 0.71407 0.10701 0.0
C477 C 0.79054 0.73577 0.12986 0.0
C478 C 0.79503 0.72679 0.16673 0.0
C479 C 0.75603 0.72517 0.07051 0.0
C480 C 0.78004 0.73981 0.04211 0.0
C481 C 0.72479 0.72106 0.06339 0.0
C482 C 0.6988 0.70788 0.09302 0.0
C483 C 0.70422 0.72236 0.12971 0.0
C484 C 0.67983 0.70946 0.15773 0.0
C485 C 0.64978 0.68227 0.14929 0.0
C486 C 0.64403 0.66798 0.11277 0.0
C487 C 0.66838 0.68073 0.08467 0.0
H488 H 0.63092 0.67231 0.17102 0.0
H489 H 0.87074 0.79665 0.90403 0.0
H490 H 0.98161 0.23497 0.3559 0.0
H491 H 1.01251 0.25127 0.41583 0.0
H492 H 0.9436 0.27596 0.46455 0.0
H493 H 0.91457 0.26236 0.40316 0.0
H494 H 0.99795 0.32056 0.48329 0.0
H495 H 0.95336 0.20405 0.48946 0.0
H496 H 0.94289 0.15073 0.46497 0.0
H497 H 0.04547 0.18622 0.45813 0.0
H498 H 0.05654 0.23984 0.48227 0.0
H499 H 1.02178 0.31841 0.67945 0.0
H500 H 1.00199 0.29931 0.61501 0.0
H501 H 0.09782 0.32122 0.57916 0.0
H502 H 0.11836 0.34114 0.64489 0.0
H503 H 0.03854 0.25642 0.55082 0.0
H504 H 0.08135 0.37196 0.55171 0.0
H505 H 0.08943 0.42364 0.57884 0.0
H506 H 0.98671 0.38753 0.57447 0.0
H507 H 0.97796 0.33541 0.54788 0.0
C508 C 0.97312 0.24384 0.37952 0.0
C509 C 0.94586 0.24761 0.37487 0.0
C510 C 0.9906 0.25282 0.4141 0.0
C511 C 0.98051 0.26469 0.44548 0.0
C512 C 0.95229 0.26712 0.44107 0.0
C513 C 0.93538 0.25898 0.4061 0.0
C514 C 0.99996 0.27617 0.48206 0.0
C515 C 1.00641 0.30616 0.49801 0.0
C516 C 1.01242 0.25837 0.50119 0.0
C517 C 1.00576 0.226 0.48735 0.0
C518 C 0.97367 0.2005 0.4826 0.0
C519 C 0.96763 0.17023 0.4688 0.0
C520 C 0.9935 0.16512 0.45992 0.0
C521 C 1.02546 0.19023 0.46499 0.0
C522 C 0.03163 0.22054 0.47879 0.0
C523 C 0.03888 0.31915 0.65813 0.0
C524 C 0.07186 0.33179 0.66737 0.0
C525 C 0.02737 0.30805 0.62115 0.0
C526 C 0.04834 0.30905 0.59202 0.0
C527 C 0.08114 0.32024 0.60122 0.0
C528 C 0.09289 0.33167 0.63869 0.0
C529 C 0.03549 0.30009 0.55197 0.0
C530 C 0.03026 0.27073 0.53556 0.0
C531 C 1.02378 0.31821 0.5325 0.0
C532 C 0.02899 0.34969 0.54802 0.0
C533 C 0.06046 0.37495 0.55679 0.0
C534 C 0.06517 0.40434 0.57204 0.0
C535 C 0.0386 0.40885 0.57844 0.0
C536 C 1.00727 0.384 0.56951 0.0
C537 C 1.00243 0.35454 0.5543 0.0
H538 H 0.04229 0.43161 0.59026 0.0
H539 H 0.98877 0.14169 0.44917 0.0
H540 H 0.46481 0.1551 0.31894 0.0
H541 H 0.5212 0.16766 0.31865 0.0
H542 H 0.49327 0.07692 0.26019 0.0
H543 H 0.436 0.06339 0.26263 0.0
H544 H 0.5402 0.08863 0.30671 0.0
H545 H 0.52769 0.15426 0.21248 0.0
H546 H 0.51106 0.19249 0.18863 0.0
H547 H 0.57627 0.2655 0.26779 0.0
H548 H 0.59298 0.22755 0.29248 0.0
H549 H 0.69944 0.14015 0.23223 0.0
H550 H 0.64186 0.12302 0.23946 0.0
H551 H 0.66657 0.20527 0.31376 0.0
H552 H 0.72447 0.22272 0.30643 0.0
H553 H 0.62158 0.1974 0.2583 0.0
H554 H 0.63438 0.13043 0.35106 0.0
H555 H 0.65028 0.09128 0.37349 0.0
H556 H 0.58439 0.01998 0.29325 0.0
H557 H 0.56842 0.05889 0.26994 0.0
C558 C 0.47061 0.13761 0.30639 0.0
C559 C 0.44599 0.10835 0.29053 0.0
C560 C 0.50301 0.14497 0.3059 0.0
C561 C 0.51202 0.12388 0.28816 0.0
C562 C 0.48721 0.09387 0.27373 0.0
C563 C 0.45445 0.08607 0.27514 0.0
C564 C 0.54727 0.13373 0.28399 0.0
C565 C 0.55783 0.11224 0.29556 0.0
C566 C 0.57077 0.16479 0.27003 0.0
C567 C 0.5614 0.18796 0.25454 0.0
C568 C 0.5384 0.17843 0.22489 0.0
C569 C 0.52895 0.20005 0.21123 0.0
C570 C 0.54254 0.23138 0.22675 0.0
C571 C 0.56574 0.24121 0.25582 0.0
C572 C 0.57525 0.21967 0.26963 0.0
C573 C 0.69271 0.15471 0.25005 0.0
C574 C 0.71675 0.18295 0.26863 0.0
C575 C 0.65966 0.1447 0.2544 0.0
C576 C 0.64967 0.16268 0.27735 0.0
C577 C 0.67357 0.19091 0.29594 0.0
C578 C 0.70669 0.20077 0.29192 0.0
C579 C 0.61439 0.15238 0.28118 0.0
C580 C 0.60387 0.17379 0.2694 0.0
C581 C 0.59095 0.12115 0.29445 0.0
C582 C 0.60045 0.09769 0.30849 0.0
C583 C 0.62348 0.1065 0.33797 0.0
C584 C 0.63247 0.08433 0.35088 0.0
C585 C 0.61842 0.05319 0.33473 0.0
C586 C 0.59529 0.04413 0.30569 0.0
C587 C 0.58624 0.06622 0.29264 0.0
H588 H 0.6254 0.03606 0.34478 0.0
H589 H 0.53512 0.24805 0.21622 0.0
H590 H 0.66522 0.6124 0.33203 0.0
H591 H 0.61881 0.55642 0.33322 0.0
H592 H 0.66521 0.52839 0.24578 0.0
H593 H 0.71042 0.58355 0.24374 0.0
H594 H 0.60422 0.49954 0.23092 0.0
H595 H 0.66717 0.51408 0.34555 0.0
H596 H 0.69242 0.53984 0.40734 0.0
H597 H 0.59887 0.51519 0.45365 0.0
H598 H 0.57312 0.48963 0.39191 0.0
H599 H 0.53756 0.33015 0.25066 0.0
H600 H 0.5742 0.38887 0.25293 0.0
H601 H 0.50944 0.39923 0.3318 0.0
H602 H 0.47223 0.34053 0.32914 0.0
H603 H 0.57338 0.43812 0.35299 0.0
H604 H 0.51048 0.41801 0.2386 0.0
H605 H 0.48665 0.39128 0.17672 0.0
H606 H 0.58208 0.42593 0.12959 0.0
H607 H 0.60648 0.45249 0.19139 0.0
C608 C 0.66515 0.59437 0.31264 0.0
C609 C 0.69174 0.60257 0.288 0.0
C610 C 0.63875 0.56224 0.31359 0.0
C611 C 0.63854 0.53775 0.28998 0.0
C612 C 0.66452 0.54649 0.26437 0.0
C613 C 0.6906 0.57827 0.26339 0.0
C614 C 0.61222 0.50278 0.29205 0.0
C615 C 0.59769 0.48619 0.25768 0.0
C616 C 0.60287 0.4851 0.3269 0.0
C617 C 0.61829 0.50032 0.36401 0.0
C618 C 0.65202 0.51437 0.36883 0.0
C619 C 0.66642 0.5289 0.40385 0.0
C620 C 0.64728 0.52925 0.43436 0.0
C621 C 0.61368 0.51497 0.42996 0.0
C622 C 0.59917 0.50046 0.39497 0.0
C623 C 0.53087 0.34481 0.26836 0.0
C624 C 0.50159 0.33026 0.28947 0.0
C625 C 0.552 0.37851 0.26972 0.0
C626 C 0.54449 0.39873 0.29215 0.0
C627 C 0.51587 0.38428 0.31425 0.0
C628 C 0.49463 0.35054 0.31281 0.0
C629 C 0.5662 0.43491 0.29175 0.0
C630 C 0.57972 0.45163 0.32635 0.0
C631 C 0.57489 0.45271 0.25705 0.0
C632 C 0.56029 0.43703 0.21973 0.0
C633 C 0.52638 0.41975 0.21512 0.0
C634 C 0.51277 0.40465 0.18005 0.0
C635 C 0.53283 0.40685 0.14927 0.0
C636 C 0.56656 0.42423 0.15347 0.0
C637 C 0.5803 0.43934 0.1885 0.0
H638 H 0.52225 0.39514 0.12214 0.0
H639 H 0.65846 0.54051 0.46145 0.0
H640 H 0.97607 0.37073 0.32275 0.0
H641 H 0.96735 0.41773 0.32575 0.0
H642 H 0.89811 0.37645 0.23348 0.0
H643 H 0.9063 0.32976 0.23068 0.0
H644 H 0.94113 0.44312 0.22482 0.0
H645 H 0.87107 0.36729 0.32193 0.0
H646 H 0.86015 0.33398 0.37996 0.0
H647 H 0.92202 0.41956 0.44603 0.0
H648 H 0.93366 0.45333 0.38819 0.0
H649 H 0.84346 0.5164 0.23049 0.0
H650 H 0.86506 0.47923 0.23059 0.0
H651 H 0.91678 0.52341 0.33548 0.0
H652 H 0.89486 0.56037 0.33577 0.0
H653 H 0.89019 0.46054 0.34089 0.0
H654 H 0.95621 0.53758 0.24651 0.0
H655 H 0.96851 0.57168 0.18897 0.0
H656 H 0.91756 0.48628 0.11839 0.0
H657 H 0.90454 0.45165 0.1756 0.0
C658 C 0.95926 0.37193 0.30293 0.0
C659 C 0.94172 0.34644 0.27669 0.0
C660 C 0.9542 0.39869 0.30474 0.0
C661 C 0.93194 0.40052 0.27991 0.0
C662 C 0.91539 0.37562 0.25288 0.0
C663 C 0.92001 0.34882 0.25149 0.0
C664 C 0.92456 0.4275 0.28255 0.0
C665 C 0.9299 0.44691 0.25013 0.0
C666 C 0.91069 0.43301 0.3159 0.0
C667 C 0.90356 0.41276 0.35067 0.0
C668 C 0.88257 0.37896 0.34876 0.0
C669 C 0.87621 0.36001 0.38163 0.0
C670 C 0.89047 0.37463 0.41663 0.0
C671 C 0.91105 0.40826 0.41887 0.0
C672 C 0.91753 0.42731 0.38607 0.0
C673 C 0.85968 0.51843 0.25338 0.0
C674 C 0.86745 0.54145 0.28307 0.0
C675 C 0.87209 0.49716 0.25341 0.0
C676 C 0.89302 0.49871 0.28276 0.0
C677 C 0.90072 0.52163 0.3125 0.0
C678 C 0.8881 0.54273 0.31266 0.0
C679 C 0.9062 0.47597 0.2828 0.0
C680 C 0.9019 0.45726 0.3157 0.0
C681 C 0.92133 0.4713 0.24995 0.0
C682 C 0.92918 0.49202 0.21541 0.0
C683 C 0.94742 0.52607 0.21876 0.0
C684 C 0.95456 0.5455 0.1862 0.0
C685 C 0.94377 0.53116 0.15006 0.0
C686 C 0.92588 0.49736 0.14641 0.0
C687 C 0.91865 0.47781 0.17889 0.0
H688 H 0.94932 0.54625 0.12489 0.0
H689 H 0.88551 0.35992 0.44205 0.0
H690 H 0.19703 0.5654 0.78872 0.0
H691 H 0.22254 0.62456 0.78324 0.0
H692 H 0.13153 0.61893 0.8122 0.0
H693 H 0.10621 0.56027 0.81955 0.0
H694 H 0.16196 0.65491 0.74374 0.0
H695 H 0.18873 0.64766 0.87653 0.0
H696 H 0.21326 0.63107 0.92731 0.0
H697 H 0.30666 0.68494 0.87298 0.0
H698 H 0.28258 0.70154 0.82161 0.0
H699 H 0.19648 0.81503 0.77109 0.0
H700 H 0.1798 0.75777 0.77589 0.0
H701 H 0.28025 0.78214 0.77991 0.0
H702 H 0.29706 0.84013 0.77746 0.0
H703 H 0.24996 0.73632 0.82665 0.0
H704 H 0.2279 0.74668 0.69662 0.0
H705 H 0.20653 0.76266 0.6418 0.0
H706 H 0.10919 0.70231 0.68331 0.0
H707 H 0.13 0.68629 0.73868 0.0
C708 C 0.18251 0.57669 0.79476 0.0
C709 C 0.14928 0.55761 0.80424 0.0
C710 C 0.19716 0.61061 0.79133 0.0
C711 C 0.17891 0.62624 0.79703 0.0
C712 C 0.14605 0.60744 0.80726 0.0
C713 C 0.13154 0.57372 0.81121 0.0
C714 C 0.19348 0.66197 0.79126 0.0
C715 C 0.181 0.67275 0.76207 0.0
C716 C 0.21933 0.68531 0.814 0.0
C717 C 0.2338 0.67555 0.84503 0.0
C718 C 0.21445 0.65575 0.87525 0.0
C719 C 0.22828 0.6464 0.90418 0.0
C720 C 0.26148 0.65687 0.90331 0.0
C721 C 0.28094 0.67681 0.87359 0.0
C722 C 0.26722 0.68623 0.84459 0.0
C723 C 0.21513 0.80829 0.7726 0.0
C724 C 0.24817 0.83226 0.77342 0.0
C725 C 0.20552 0.77532 0.77515 0.0
C726 C 0.22864 0.76511 0.77724 0.0
C727 C 0.26177 0.78908 0.77812 0.0
C728 C 0.27142 0.82229 0.77651 0.0
C729 C 0.21792 0.72956 0.7795 0.0
C730 C 0.23113 0.7187 0.80795 0.0
C731 C 0.19325 0.70605 0.75535 0.0
C732 C 0.18056 0.71547 0.72197 0.0
C733 C 0.20195 0.73697 0.69419 0.0
C734 C 0.18993 0.74602 0.663 0.0
C735 C 0.15653 0.73356 0.65912 0.0
C736 C 0.13507 0.71196 0.68637 0.0
C737 C 0.14696 0.70285 0.71764 0.0
H738 H 0.14728 0.74061 0.63496 0.0
H739 H 0.27214 0.64959 0.92572 0.0
H740 H 0.48521 0.93881 0.80935 0.0
H741 H 0.51815 0.91277 0.80418 0.0
H742 H 0.43449 0.82384 0.76646 0.0
H743 H 0.40081 0.84927 0.77351 0.0
H744 H 0.46875 0.80943 0.81346 0.0
H745 H 0.49451 0.87548 0.70233 0.0
H746 H 0.51046 0.92523 0.6653 0.0
H747 H 0.60182 0.97384 0.72425 0.0
H748 H 0.58624 0.92451 0.76203 0.0
H749 H 0.57619 0.7472 0.76437 0.0
H750 H 0.53476 0.7637 0.76106 0.0
H751 H 0.60629 0.8611 0.79515 0.0
H752 H 0.64757 0.84528 0.79671 0.0
H753 H 0.57284 0.86562 0.74166 0.0
H754 H 0.54276 0.79903 0.85756 0.0
H755 H 0.52634 0.7477 0.89145 0.0
H756 H 0.4423 0.69822 0.81946 0.0
H757 H 0.45838 0.74922 0.78487 0.0
C758 C 0.47353 0.91358 0.80044 0.0
C759 C 0.44013 0.89635 0.79178 0.0
C760 C 0.49262 0.89875 0.797 0.0
C761 C 0.47911 0.86637 0.78422 0.0
C762 C 0.44569 0.84887 0.77615 0.0
C763 C 0.42648 0.86364 0.7798 0.0
C764 C 0.50005 0.85115 0.77912 0.0
C765 C 0.49131 0.82155 0.79733 0.0
C766 C 0.52954 0.86666 0.75802 0.0
C767 C 0.53909 0.89635 0.73522 0.0
C768 C 0.51792 0.89684 0.70758 0.0
C769 C 0.5269 0.92496 0.68643 0.0
C770 C 0.55711 0.9527 0.69247 0.0
C771 C 0.57842 0.95235 0.71962 0.0
C772 C 0.56954 0.9243 0.74088 0.0
C773 C 0.58302 0.77214 0.77102 0.0
C774 C 0.61534 0.79488 0.78063 0.0
C775 C 0.55923 0.78155 0.7694 0.0
C776 C 0.56707 0.81371 0.77829 0.0
C777 C 0.59936 0.83622 0.78792 0.0
C778 C 0.62308 0.82704 0.78888 0.0
C779 C 0.54239 0.8247 0.77749 0.0
C780 C 0.55027 0.85343 0.75778 0.0
C781 C 0.51207 0.80823 0.79694 0.0
C782 C 0.50193 0.77785 0.81844 0.0
C783 C 0.52083 0.77718 0.84891 0.0
C784 C 0.51158 0.74815 0.86822 0.0
C785 C 0.48335 0.7197 0.85752 0.0
C786 C 0.46418 0.72027 0.82765 0.0
C787 C 0.47332 0.74923 0.80822 0.0
H788 H 0.47628 0.69724 0.87243 0.0
H789 H 0.56402 0.97445 0.67606 0.0
H790 H 0.22631 0.40967 0.7216 0.0
H791 H 0.28315 0.45131 0.72914 0.0
H792 H 0.25546 0.50356 0.80871 0.0
H793 H 0.19821 0.46229 0.80038 0.0
H794 H 0.30483 0.54577 0.76652 0.0
H795 H 0.28424 0.45329 0.84001 0.0
H796 H 0.26487 0.39543 0.85244 0.0
H797 H 0.33239 0.39618 0.76905 0.0
H798 H 0.35186 0.45396 0.75571 0.0
H799 H 0.46507 0.63562 0.84868 0.0
H800 H 0.40658 0.59974 0.83907 0.0
H801 H 0.42641 0.54778 0.75044 0.0
H802 H 0.48474 0.58317 0.76026 0.0
H803 H 0.3805 0.50653 0.80068 0.0
H804 H 0.40084 0.60125 0.72869 0.0
H805 H 0.42031 0.65964 0.72045 0.0
H806 H 0.35321 0.65524 0.80691 0.0
H807 H 0.33369 0.5969 0.8161 0.0
C808 C 0.23217 0.43019 0.74038 0.0
C809 C 0.20754 0.43238 0.76062 0.0
C810 C 0.26483 0.45398 0.74487 0.0
C811 C 0.2739 0.4803 0.7703 0.0
C812 C 0.24926 0.48345 0.78911 0.0
C813 C 0.21644 0.45978 0.78429 0.0
C814 C 0.30904 0.50357 0.77828 0.0
C815 C 0.32125 0.53717 0.77447 0.0
C816 C 0.33078 0.49259 0.78852 0.0
C817 C 0.31929 0.45788 0.79661 0.0
C818 C 0.29481 0.44106 0.82413 0.0
C819 C 0.28382 0.40828 0.83136 0.0
C820 C 0.29733 0.39212 0.81147 0.0
C821 C 0.32192 0.40872 0.78439 0.0
C822 C 0.33296 0.44149 0.777 0.0
C823 C 0.45697 0.61651 0.82719 0.0
C824 C 0.4797 0.61235 0.80521 0.0
C825 C 0.42349 0.59615 0.82151 0.0
C826 C 0.41195 0.57109 0.79382 0.0
C827 C 0.43461 0.56692 0.77191 0.0
C828 C 0.46802 0.58737 0.77737 0.0
C829 C 0.37638 0.5486 0.7882 0.0
C830 C 0.36406 0.51511 0.7927 0.0
C831 C 0.35457 0.55977 0.77919 0.0
C832 C 0.36602 0.59476 0.77334 0.0
C833 C 0.3904 0.61277 0.74614 0.0
C834 C 0.40141 0.64586 0.74127 0.0
C835 C 0.38803 0.66115 0.76317 0.0
C836 C 0.36356 0.64337 0.78996 0.0
C837 C 0.3525 0.61028 0.795 0.0
H838 H 0.39663 0.68677 0.7594 0.0
H839 H 0.2888 0.36674 0.81711 0.0
H840 H 0.25018 0.0916 0.22569 0.0
H841 H 0.2082 0.10719 0.23073 0.0
H842 H 0.23334 0.13366 0.34979 0.0
H843 H 0.27373 0.11601 0.34515 0.0
H844 H 0.17307 0.11367 0.34385 0.0
H845 H 0.26575 0.19001 0.27223 0.0
H846 H 0.30725 0.20869 0.22098 0.0
H847 H 0.23283 0.17765 0.13537 0.0
H848 H 0.19083 0.15837 0.18614 0.0
H849 H 0.12588 0.23605 0.35397 0.0
H850 H 0.15531 0.2059 0.35366 0.0
H851 H 0.11674 0.16683 0.24156 0.0
H852 H 0.0871 0.19662 0.24179 0.0
H853 H 0.18184 0.1916 0.24425 0.0
H854 H 0.08979 0.12177 0.32404 0.0
H855 H 0.05336 0.10997 0.38 0.0
H856 H 0.13341 0.13677 0.45632 0.0
H857 H 0.17045 0.14956 0.40094 0.0
C858 C 0.24584 0.09972 0.25318 0.0
C859 C 0.26478 0.10237 0.28514 0.0
C860 C 0.2222 0.10907 0.25599 0.0
C861 C 0.21814 0.12262 0.29037 0.0
C862 C 0.23592 0.12345 0.3229 0.0
C863 C 0.25895 0.11329 0.32031 0.0
C864 C 0.19737 0.13812 0.29171 0.0
C865 C 0.1752 0.13088 0.32219 0.0
C866 C 0.19995 0.1607 0.26356 0.0
C867 C 0.22514 0.17243 0.23296 0.0
C868 C 0.25823 0.18698 0.24246 0.0
C869 C 0.28183 0.19769 0.21351 0.0
C870 C 0.27267 0.19427 0.17494 0.0
C871 C 0.23988 0.18022 0.16525 0.0
C872 C 0.21617 0.16941 0.1941 0.0
C873 C 0.12325 0.22065 0.3295 0.0
C874 C 0.10427 0.21898 0.29778 0.0
C875 C 0.14014 0.20343 0.32935 0.0
C876 C 0.13817 0.18394 0.29764 0.0
C877 C 0.11879 0.1818 0.26628 0.0
C878 C 0.10194 0.19898 0.2664 0.0
C879 C 0.15744 0.16697 0.29615 0.0
C880 C 0.17949 0.17413 0.26569 0.0
C881 C 0.15541 0.14517 0.32498 0.0
C882 C 0.13294 0.13685 0.35826 0.0
C883 C 0.09965 0.12534 0.35274 0.0
C884 C 0.07889 0.11847 0.38435 0.0
C885 C 0.09106 0.1226 0.42164 0.0
C886 C 0.12401 0.13359 0.42741 0.0
C887 C 0.1449 0.14067 0.39592 0.0
H888 H 0.07496 0.11726 0.44605 0.0
H889 H 0.29098 0.20258 0.15256 0.0
H890 H 0.86863 0.81066 0.28317 0.0
H891 H 0.92598 0.85462 0.28728 0.0
H892 H 0.95529 0.78344 0.30683 0.0
H893 H 0.89935 0.74028 0.30252 0.0
H894 H 0.98421 0.83494 0.35749 0.0
H895 H 0.964 0.81543 0.2202 0.0
H896 H 0.93616 0.81356 0.15995 0.0
H897 H 0.96649 0.9148 0.17268 0.0
H898 H 0.99417 0.91713 0.23335 0.0
H899 H 0.14831 0.89276 0.31449 0.0
H900 H 0.08909 0.86411 0.31487 0.0
H901 H 0.09034 0.95303 0.28753 0.0
H902 H 0.14984 0.98217 0.28767 0.0
H903 H 0.04446 0.90228 0.24532 0.0
H904 H 0.07169 0.92372 0.37763 0.0
H905 H 0.09964 0.92568 0.43779 0.0
H906 H 0.05564 0.82176 0.43578 0.0
H907 H 0.02779 0.81919 0.37526 0.0
C908 C 0.88739 0.80455 0.28839 0.0
C909 C 0.8793 0.77186 0.29213 0.0
C910 C 0.92012 0.82963 0.29066 0.0
C911 C 0.94505 0.82233 0.29735 0.0
C912 C 0.93668 0.7898 0.30176 0.0
C913 C 0.90447 0.76503 0.29899 0.0
C914 C 0.98011 0.84778 0.29953 0.0
C915 C 0.99737 0.8497 0.33296 0.0
C916 C 0.99729 0.86773 0.26797 0.0
C917 C 0.98075 0.86635 0.23153 0.0
C918 C 0.96447 0.83721 0.21033 0.0
C919 C 0.94878 0.83608 0.17607 0.0
C920 C 0.94945 0.86402 0.16257 0.0
C921 C 0.96591 0.89316 0.18323 0.0
C922 C 0.98161 0.8944 0.21754 0.0
C923 C 0.13615 0.90646 0.30904 0.0
C924 C 0.15417 0.93998 0.30137 0.0
C925 C 0.10213 0.88994 0.30911 0.0
C926 C 0.08505 0.90641 0.3017 0.0
C927 C 0.10284 0.93972 0.29334 0.0
C928 C 0.13697 0.95634 0.29334 0.0
C929 C 0.0487 0.88859 0.3029 0.0
C930 C 0.03127 0.8881 0.27017 0.0
C931 C 0.03125 0.86994 0.3352 0.0
C932 C 0.04781 0.8713 0.37174 0.0
C933 C 0.06814 0.9013 0.38986 0.0
C934 C 0.08394 0.90251 0.42406 0.0
C935 C 0.07946 0.87386 0.44056 0.0
C936 C 0.0591 0.84393 0.42295 0.0
C937 C 0.04326 0.84258 0.38872 0.0
H938 H 0.09172 0.87486 0.46704 0.0
H939 H 0.9373 0.8631 0.13603 0.0
H940 H 0.96801 0.17463 0.31071 0.0
H941 H 0.95131 0.11687 0.31761 0.0
H942 H 0.89276 0.09422 0.21557 0.0
H943 H 0.90896 0.1513 0.20881 0.0
H944 H 0.85765 0.05793 0.274 0.0
H945 H 0.96198 0.09068 0.21896 0.0
H946 H 1.02164 0.12113 0.21344 0.0
H947 H 0.02953 0.08046 0.31959 0.0
H948 H 0.97004 0.051 0.32677 0.0
H949 H 0.80771 0.89323 0.23857 0.0
H950 H 0.83681 0.95241 0.23247 0.0
H951 H 0.88004 0.96202 0.34373 0.0
H952 H 0.85092 0.90262 0.35004 0.0
H953 H 0.92444 1.00487 0.28548 0.0
H954 H 0.82028 0.97434 0.34114 0.0
H955 H 0.76053 0.94292 0.34552 0.0
H956 H 0.75311 0.97851 0.23535 0.0
H957 H 0.81287 1.00977 0.23004 0.0
C958 C 0.95224 0.15739 0.28927 0.0
C959 C 0.93958 0.16748 0.25941 0.0
C960 C 0.94263 0.12437 0.29328 0.0
C961 C 0.9205 0.10109 0.26728 0.0
C962 C 0.90955 0.1116 0.23623 0.0
C963 C 0.91895 0.14433 0.23233 0.0
C964 C 0.90635 0.06557 0.2737 0.0
C965 C 0.87237 0.04641 0.27608 0.0
C966 C 0.92549 0.0505 0.27755 0.0
C967 C 0.96143 0.069 0.27374 0.0
C968 C 0.97642 0.08873 0.24157 0.0
C969 C 1.01027 0.10586 0.23815 0.0
C970 C 0.02942 0.10302 0.26636 0.0
C971 C 1.01475 0.08304 0.29804 0.0
C972 C 0.98095 0.06618 0.30185 0.0
C973 C 0.82368 0.90789 0.26157 0.0
C974 C 0.82689 0.89323 0.29487 0.0
C975 C 0.84022 0.94172 0.2581 0.0
C976 C 0.8605 0.96164 0.28771 0.0
C977 C 0.86455 0.94711 0.32053 0.0
C978 C 0.84768 0.91321 0.32423 0.0
C979 C 0.87596 0.99757 0.28503 0.0
C980 C 0.90997 1.01667 0.28354 0.0
C981 C 0.85699 1.01277 0.28184 0.0
C982 C 0.82105 0.99415 0.28504 0.0
C983 C 0.80591 0.97525 0.3177 0.0
C984 C 0.77204 0.95751 0.32037 0.0
C985 C 0.75304 0.95866 0.29069 0.0
C986 C 0.76787 0.97762 0.2583 0.0
C987 C 0.80173 0.99537 0.25545 0.0
H988 H 0.72682 0.94491 0.29282 0.0
H989 H 0.05559 0.11609 0.2635 0.0
H990 H 0.21377 0.22614 0.80681 0.0
H991 H 0.23685 0.19082 0.81669 0.0
H992 H 0.18002 0.12974 0.72248 0.0
H993 H 0.15639 0.16467 0.71285 0.0
H994 H 0.17953 0.09349 0.78176 0.0
H995 H 0.25935 0.18347 0.70981 0.0
H996 H 0.2965 0.24122 0.69526 0.0
H997 H 0.34845 0.25227 0.79984 0.0
H998 H 0.31128 0.19465 0.8153 0.0
H999 H 0.30565 0.04319 0.73871 0.0
H1000 H 0.29439 0.08853 0.73795 0.0
H1001 H 0.24474 0.05729 0.84643 0.0
H1002 H 0.25589 1.012 0.84731 0.0
H1003 H 0.29911 0.1398 0.77781 0.0
H1004 H 0.17361 0.05299 0.84236 0.0
H1005 H 0.13754 0.99399 0.85093 0.0
H1006 H 0.17704 0.97498 0.74893 0.0
H1007 H 0.21308 0.03388 0.73952 0.0
C1008 C 0.20579 0.20492 0.78853 0.0
C1009 C 0.1832 0.19829 0.75899 0.0
C1010 C 0.21929 0.18492 0.79398 0.0
C1011 C 0.2105 0.15778 0.77005 0.0
C1012 C 0.18729 0.15057 0.74123 0.0
C1013 C 0.17393 0.17068 0.73561 0.0
C1014 C 0.22576 0.13714 0.77475 0.0
C1015 C 0.20567 0.10372 0.78105 0.0
C1016 C 0.25989 0.15021 0.77312 0.0
C1017 C 0.28232 0.18484 0.76391 0.0
C1018 C 0.27852 0.19828 0.72987 0.0
C1019 C 0.29961 0.23098 0.72143 0.0
C1020 C 0.32476 0.25043 0.74667 0.0
C1021 C 0.32892 0.23719 0.78036 0.0
C1022 C 0.30786 0.2045 0.78896 0.0
C1023 C 0.29351 0.04693 0.76307 0.0
C1024 C 0.28176 0.02444 0.79314 0.0
C1025 C 0.28678 0.07252 0.76244 0.0
C1026 C 0.2676 0.07541 0.79143 0.0
C1027 C 0.25888 0.05492 0.82343 0.0
C1028 C 0.26555 0.02937 0.82409 0.0
C1029 C 0.25289 0.09643 0.78575 0.0
C1030 C 0.27301 0.12976 0.77898 0.0
C1031 C 0.21872 0.08319 0.78602 0.0
C1032 C 0.19609 0.04781 0.79037 0.0
C1033 C 0.17436 0.03622 0.82158 0.0
C1034 C 0.154 1.00281 0.82663 0.0
C1035 C 0.15501 0.98077 0.80049 0.0
C1036 C 0.1763 0.99209 0.76915 0.0
C1037 C 0.19668 0.02547 0.76394 0.0
H1038 H 0.13928 0.95493 0.80452 0.0
H1039 H 0.34107 0.27573 0.74007 0.0
H1040 H 0.04314 0.88668 0.81588 0.0
H1041 H 0.98417 0.86077 0.82358 0.0
H1042 H 0.97086 0.79869 0.72593 0.0
H1043 H 0.02968 0.82437 0.7181 0.0
H1044 H 0.92833 0.82029 0.72374 0.0
H1045 H 0.96075 0.76831 0.81779 0.0
H1046 H 0.99329 0.76687 0.87182 0.0
H1047 H 0.96034 0.81925 0.94294 0.0
H1048 H 0.92813 0.82152 0.88909 0.0
H1049 H 0.76027 0.72185 0.75857 0.0
H1050 H 0.81664 0.73296 0.75514 0.0
H1051 H 0.84338 0.80548 0.84442 0.0
H1052 H 0.78705 0.79316 0.8492 0.0
H1053 H 0.87783 0.77153 0.84903 0.0
H1054 H 0.84955 0.82825 0.75361 0.0
H1055 H 0.81438 0.82715 0.70115 0.0
H1056 H 0.83862 0.76567 0.63421 0.0
H1057 H 0.87378 0.76631 0.6863 0.0
C1058 C 0.02767 0.86748 0.79609 0.0
C1059 C 0.04122 0.85763 0.7664 0.0
C1060 C 0.99394 0.85266 0.80052 0.0
C1061 C 0.97302 0.82743 0.77565 0.0
C1062 C 0.98645 0.81809 0.74546 0.0
C1063 C 1.02015 0.83295 0.74093 0.0
C1064 C 0.93719 0.81052 0.78143 0.0
C1065 C 0.91734 0.80941 0.75106 0.0
C1066 C 0.92266 0.79636 0.81707 0.0
C1067 C 0.94198 0.79501 0.84948 0.0
C1068 C 0.96056 0.77961 0.84493 0.0
C1069 C 0.97897 0.77868 0.8755 0.0
C1070 C 0.97886 0.79293 0.91081 0.0
C1071 C 0.96035 0.80815 0.91561 0.0
C1072 C 0.94195 0.8092 0.88511 0.0
C1073 C 0.77792 0.73877 0.77889 0.0
C1074 C 0.76935 0.75603 0.80489 0.0
C1075 C 0.81014 0.74546 0.77656 0.0
C1076 C 0.83426 0.77014 0.79951 0.0
C1077 C 0.82517 0.78601 0.82692 0.0
C1078 C 0.79295 0.77887 0.82976 0.0
C1079 C 0.86931 0.78248 0.79198 0.0
C1080 C 0.88896 0.78261 0.82188 0.0
C1081 C 0.88368 0.79596 0.75608 0.0
C1082 C 0.86417 0.79723 0.72384 0.0
C1083 C 0.84744 0.8146 0.72761 0.0
C1084 C 0.82748 0.81404 0.69795 0.0
C1085 C 0.82429 0.79639 0.66428 0.0
C1086 C 0.84121 0.77945 0.66015 0.0
C1087 C 0.8612 0.77995 0.6897 0.0
H1088 H 0.80872 0.79585 0.64142 0.0
H1089 H 0.99313 0.79218 0.93444 0.0
H1090 H 1.02531 0.26688 0.84527 0.0
H1091 H 0.9827 0.20963 0.85179 0.0
H1092 H 0.96656 0.2035 0.72948 0.0
H1093 H 1.00998 0.26006 0.72278 0.0
H1094 H 0.90728 0.16814 0.78151 0.0
H1095 H 1.0145 0.18256 0.75076 0.0
H1096 H 0.07314 0.20727 0.76359 0.0
H1097 H 0.05222 0.16573 0.87642 0.0
H1098 H 0.99341 0.14126 0.86445 0.0
H1099 H 0.8396 1.0069 0.72047 0.0
H1100 H 0.87425 0.06528 0.72855 0.0
H1101 H 0.90462 0.05054 0.83934 0.0
H1102 H 0.87122 0.99167 0.83055 0.0
H1103 H 0.95485 0.09728 0.80303 0.0
H1104 H 0.84767 0.0754 0.83098 0.0
H1105 H 0.78894 0.05264 0.82093 0.0
H1106 H 0.80835 0.10898 0.71836 0.0
H1107 H 0.86723 0.13173 0.72748 0.0
C1108 C 1.01188 0.25353 0.82009 0.0
C1109 C 1.02065 0.26764 0.78358 0.0
C1110 C 0.9877 0.2209 0.82378 0.0
C1111 C 0.97166 0.20242 0.79105 0.0
C1112 C 0.97857 0.21743 0.75504 0.0
C1113 C 1.00326 0.24967 0.75125 0.0
C1114 C 0.95088 0.16667 0.79317 0.0
C1115 C 0.91755 0.15254 0.78614 0.0
C1116 C 0.96434 0.14653 0.80009 0.0
C1117 C 0.99961 0.16039 0.80688 0.0
C1118 C 1.02242 0.1789 0.7784 0.0
C1119 C 0.05568 0.19284 0.7855 0.0
C1120 C 0.0664 0.18814 0.82084 0.0
C1121 C 0.04387 0.16939 0.84908 0.0
C1122 C 1.01058 0.15547 0.84216 0.0
C1123 C 0.8541 1.01586 0.74627 0.0
C1124 C 0.85247 0.99433 0.77485 0.0
C1125 C 0.87357 0.04942 0.75113 0.0
C1126 C 0.89152 0.06245 0.78497 0.0
C1127 C 0.89076 0.04112 0.81313 0.0
C1128 C 0.87143 1.00743 0.80816 0.0
C1129 C 0.91095 0.09833 0.79066 0.0
C1130 C 0.94421 0.11262 0.79904 0.0
C1131 C 0.89729 0.11862 0.78535 0.0
C1132 C 0.86188 0.10509 0.77978 0.0
C1133 C 0.83942 0.08277 0.80613 0.0
C1134 C 0.8061 0.06989 0.80062 0.0
C1135 C 0.79492 0.07931 0.76899 0.0
C1136 C 0.81705 0.10169 0.74284 0.0
C1137 C 0.85041 0.11461 0.74819 0.0
H1138 H 0.76911 0.06932 0.76477 0.0
H1139 H 0.09215 0.19897 0.8263 0.0
loop_
_geom_bond_atom_site_label_1
_geom_bond_atom_site_label_2
_geom_bond_distance
_geom_bond_site_symmetry_2
_ccdc_geom_bond_type
Tb0 C2 2.809 . S
Tb0 O20 2.484 . S
Tb0 O21 2.440 . S
Tb0 O22 2.658 . S
Tb0 O23 2.409 . S
Tb0 O24 2.378 . S
Tb0 O28 2.325 . S
Tb0 O31 2.341 . S
Tb1 C11 2.809 . S
Tb1 O22 2.325 . S
Tb1 O25 2.341 . S
Tb1 O26 2.484 . S
Tb1 O27 2.440 . S
Tb1 O28 2.658 . S
Tb1 O29 2.409 . S
Tb1 O30 2.378 . S
C2 Tb0 2.809 . S
C2 C3 1.514 1_545 S
C2 O20 1.248 . S
C2 O21 1.266 . S
C3 C2 1.514 1_565 S
C3 C4 1.359 . S
C3 C8 1.348 . S
C4 C3 1.359 . S
C4 C5 1.380 . S
C4 H32 0.929 . S
C5 C4 1.380 . S
C5 C6 1.347 . S
C5 H33 0.931 . S
C6 C5 1.347 . S
C6 C7 1.369 . S
C7 C6 1.369 . S
C7 C8 1.408 . S
C7 H34 0.930 . S
C8 C3 1.348 . S
C8 C7 1.408 . S
C8 H35 0.930 . S
C9 O22 1.281 . S
C9 O23 1.254 . S
C10 O24 1.236 . S
C10 O25 1.266 . S
C11 Tb1 2.809 . S
C11 C12 1.514 . S
C11 O26 1.248 . S
C11 O27 1.266 . S
C12 C11 1.514 . S
C12 C13 1.359 . S
C12 C17 1.348 . S
C13 C12 1.359 . S
C13 C14 1.380 . S
C13 H36 0.929 . S
C14 C13 1.380 . S
C14 C15 1.347 . S
C14 H37 0.931 . S
C15 C14 1.347 . S
C15 C16 1.369 . S
C16 C15 1.369 . S
C16 C17 1.408 . S
C16 H38 0.930 . S
C17 C12 1.348 . S
C17 C16 1.408 . S
C17 H39 0.930 . S
C18 O28 1.281 . S
C18 O29 1.254 . S
C19 O30 1.236 . S
C19 O31 1.266 . S
O20 Tb0 2.484 . S
O20 C2 1.248 . S
O21 Tb0 2.440 . S
O21 C2 1.266 . S
O22 Tb0 2.658 . S
O22 Tb1 2.325 . S
O22 C9 1.281 . S
O23 Tb0 2.409 . S
O23 C9 1.254 . S
O24 Tb0 2.378 . S
O24 C10 1.236 . S
O25 Tb1 2.341 . S
O25 C10 1.266 . S
O26 Tb1 2.484 . S
O26 C11 1.248 . S
O27 Tb1 2.440 . S
O27 C11 1.266 . S
O28 Tb0 2.325 . S
O28 Tb1 2.658 . S
O28 C18 1.281 . S
O29 Tb1 2.409 . S
O29 C18 1.254 . S
O30 Tb1 2.378 . S
O30 C19 1.236 . S
O31 Tb0 2.341 . S
O31 C19 1.266 . S
H32 C4 0.929 . S
H33 C5 0.931 . S
H34 C7 0.930 . S
H35 C8 0.930 . S
H36 C13 0.929 . S
H37 C14 0.931 . S
H38 C16 0.930 . S
H39 C17 0.930 . S
Tb40 C42 2.809 . S
Tb40 O60 2.484 . S
Tb40 O61 2.440 . S
Tb40 O62 2.658 . S
Tb40 O63 2.409 . S
Tb40 O64 2.378 . S
Tb40 O68 2.325 . S
Tb40 O71 2.341 . S
Tb41 C51 2.809 . S
Tb41 O62 2.325 . S
Tb41 O65 2.341 . S
Tb41 O66 2.484 . S
Tb41 O67 2.440 . S
Tb41 O68 2.658 . S
Tb41 O69 2.409 . S
Tb41 O70 2.378 . S
C42 Tb40 2.809 . S
C42 C43 1.514 . S
C42 O60 1.248 . S
C42 O61 1.266 . S
C43 C42 1.514 . S
C43 C44 1.359 . S
C43 C48 1.348 . S
C44 C43 1.359 . S
C44 C45 1.380 . S
C44 H72 0.929 . S
C45 C44 1.380 . S
C45 C46 1.347 . S
C45 H73 0.931 . S
C46 C45 1.347 . S
C46 C47 1.369 . S
C47 C46 1.369 . S
C47 C48 1.408 . S
C47 H74 0.930 . S
C48 C43 1.348 . S
C48 C47 1.408 . S
C48 H75 0.930 . S
C49 O62 1.281 . S
C49 O63 1.254 . S
C50 O64 1.236 . S
C50 O65 1.266 . S
C51 Tb41 2.809 . S
C51 C52 1.514 . S
C51 O66 1.248 . S
C51 O67 1.266 . S
C52 C51 1.514 . S
C52 C53 1.359 . S
C52 C57 1.348 . S
C53 C52 1.359 . S
C53 C54 1.380 . S
C53 H76 0.929 . S
C54 C53 1.380 . S
C54 C55 1.347 . S
C54 H77 0.931 . S
C55 C54 1.347 . S
C55 C56 1.369 . S
C56 C55 1.369 . S
C56 C57 1.408 . S
C56 H78 0.930 . S
C57 C52 1.348 . S
C57 C56 1.408 . S
C57 H79 0.930 . S
C58 O68 1.281 . S
C58 O69 1.254 . S
C59 O70 1.236 . S
C59 O71 1.266 . S
O60 Tb40 2.484 . S
O60 C42 1.248 . S
O61 Tb40 2.440 . S
O61 C42 1.266 . S
O62 Tb40 2.658 . S
O62 Tb41 2.325 . S
O62 C49 1.281 . S
O63 Tb40 2.409 . S
O63 C49 1.254 . S
O64 Tb40 2.378 . S
O64 C50 1.236 . S
O65 Tb41 2.341 . S
O65 C50 1.266 . S
O66 Tb41 2.484 . S
O66 C51 1.248 . S
O67 Tb41 2.440 . S
O67 C51 1.266 . S
O68 Tb40 2.325 . S
O68 Tb41 2.658 . S
O68 C58 1.281 . S
O69 Tb41 2.409 . S
O69 C58 1.254 . S
O70 Tb41 2.378 . S
O70 C59 1.236 . S
O71 Tb40 2.341 . S
O71 C59 1.266 . S
H72 C44 0.929 . S
H73 C45 0.931 . S
H74 C47 0.930 . S
H75 C48 0.930 . S
H76 C53 0.929 . S
H77 C54 0.931 . S
H78 C56 0.930 . S
H79 C57 0.930 . S
Tb80 C82 2.809 . S
Tb80 O100 2.484 . S
Tb80 O101 2.440 . S
Tb80 O102 2.658 . S
Tb80 O103 2.409 . S
Tb80 O104 2.378 . S
Tb80 O108 2.325 . S
Tb80 O111 2.341 . S
Tb81 C91 2.809 . S
Tb81 O102 2.325 . S
Tb81 O105 2.341 . S
Tb81 O106 2.484 . S
Tb81 O107 2.440 . S
Tb81 O108 2.658 . S
Tb81 O109 2.409 . S
Tb81 O110 2.378 . S
C82 Tb80 2.809 . S
C82 C83 1.514 1_655 S
C82 O100 1.248 . S
C82 O101 1.266 . S
C83 C82 1.514 1_455 S
C83 C84 1.359 . S
C83 C88 1.348 . S
C84 C83 1.359 . S
C84 C85 1.380 . S
C84 H112 0.929 . S
C85 C84 1.380 . S
C85 C86 1.347 . S
C85 H113 0.931 . S
C86 C85 1.347 . S
C86 C87 1.369 . S
C87 C86 1.369 . S
C87 C88 1.408 . S
C87 H114 0.930 . S
C88 C83 1.348 . S
C88 C87 1.408 . S
C88 H115 0.930 . S
C89 O102 1.281 . S
C89 O103 1.254 . S
C90 O104 1.236 . S
C90 O105 1.266 . S
C91 Tb81 2.809 . S
C91 C92 1.514 . S
C91 O106 1.248 . S
C91 O107 1.266 . S
C92 C91 1.514 . S
C92 C93 1.359 . S
C92 C97 1.348 . S
C93 C92 1.359 . S
C93 C94 1.380 . S
C93 H116 0.929 . S
C94 C93 1.380 . S
C94 C95 1.347 . S
C94 H117 0.931 . S
C95 C94 1.347 . S
C95 C96 1.369 . S
C96 C95 1.369 . S
C96 C97 1.408 . S
C96 H118 0.930 . S
C97 C92 1.348 . S
C97 C96 1.408 . S
C97 H119 0.930 . S
C98 O108 1.281 . S
C98 O109 1.254 . S
C99 O110 1.236 . S
C99 O111 1.266 . S
O100 Tb80 2.484 . S
O100 C82 1.248 . S
O101 Tb80 2.440 . S
O101 C82 1.266 . S
O102 Tb80 2.658 . S
O102 Tb81 2.325 . S
O102 C89 1.281 . S
O103 Tb80 2.409 . S
O103 C89 1.254 . S
O104 Tb80 2.378 . S
O104 C90 1.236 . S
O105 Tb81 2.341 . S
O105 C90 1.266 . S
O106 Tb81 2.484 . S
O106 C91 1.248 . S
O107 Tb81 2.440 . S
O107 C91 1.266 . S
O108 Tb80 2.325 . S
O108 Tb81 2.658 . S
O108 C98 1.281 . S
O109 Tb81 2.409 . S
O109 C98 1.254 . S
O110 Tb81 2.378 . S
O110 C99 1.236 . S
O111 Tb80 2.341 . S
O111 C99 1.266 . S
H112 C84 0.929 . S
H113 C85 0.931 . S
H114 C87 0.930 . S
H115 C88 0.930 . S
H116 C93 0.929 . S
H117 C94 0.931 . S
H118 C96 0.930 . S
H119 C97 0.930 . S
Tb120 C122 2.809 . S
Tb120 O140 2.484 . S
Tb120 O141 2.440 . S
Tb120 O142 2.658 . S
Tb120 O143 2.409 . S
Tb120 O144 2.378 . S
Tb120 O148 2.325 . S
Tb120 O151 2.341 . S
Tb121 C131 2.809 . S
Tb121 O142 2.325 . S
Tb121 O145 2.341 . S
Tb121 O146 2.484 . S
Tb121 O147 2.440 . S
Tb121 O148 2.658 . S
Tb121 O149 2.409 . S
Tb121 O150 2.378 . S
C122 Tb120 2.809 . S
C122 C123 1.514 . S
C122 O140 1.248 . S
C122 O141 1.266 . S
C123 C122 1.514 . S
C123 C124 1.359 . S
C123 C128 1.348 . S
C124 C123 1.359 . S
C124 C125 1.380 . S
C124 H152 0.929 . S
C125 C124 1.380 . S
C125 C126 1.347 . S
C125 H153 0.931 . S
C126 C125 1.347 . S
C126 C127 1.369 . S
C127 C126 1.369 . S
C127 C128 1.408 . S
C127 H154 0.930 . S
C128 C123 1.348 . S
C128 C127 1.408 . S
C128 H155 0.930 . S
C129 O142 1.281 . S
C129 O143 1.254 . S
C130 O144 1.236 . S
C130 O145 1.266 . S
C131 Tb121 2.809 . S
C131 C132 1.514 . S
C131 O146 1.248 . S
C131 O147 1.266 . S
C132 C131 1.514 . S
C132 C133 1.359 . S
C132 C137 1.348 . S
C133 C132 1.359 . S
C133 C134 1.380 . S
C133 H156 0.929 . S
C134 C133 1.380 . S
C134 C135 1.347 . S
C134 H157 0.931 . S
C135 C134 1.347 . S
C135 C136 1.369 . S
C136 C135 1.369 . S
C136 C137 1.408 . S
C136 H158 0.930 . S
C137 C132 1.348 . S
C137 C136 1.408 . S
C137 H159 0.930 . S
C138 O148 1.281 . S
C138 O149 1.254 . S
C139 O150 1.236 . S
C139 O151 1.266 . S
O140 Tb120 2.484 . S
O140 C122 1.248 . S
O141 Tb120 2.440 . S
O141 C122 1.266 . S
O142 Tb120 2.658 . S
O142 Tb121 2.325 . S
O142 C129 1.281 . S
O143 Tb120 2.409 . S
O143 C129 1.254 . S
O144 Tb120 2.378 . S
O144 C130 1.236 . S
O145 Tb121 2.341 . S
O145 C130 1.266 . S
O146 Tb121 2.484 . S
O146 C131 1.248 . S
O147 Tb121 2.440 . S
O147 C131 1.266 . S
O148 Tb120 2.325 . S
O148 Tb121 2.658 . S
O148 C138 1.281 . S
O149 Tb121 2.409 . S
O149 C138 1.254 . S
O150 Tb121 2.378 . S
O150 C139 1.236 . S
O151 Tb120 2.341 . S
O151 C139 1.266 . S
H152 C124 0.929 . S
H153 C125 0.931 . S
H154 C127 0.930 . S
H155 C128 0.930 . S
H156 C133 0.929 . S
H157 C134 0.931 . S
H158 C136 0.930 . S
H159 C137 0.930 . S
Tb160 C162 2.809 . S
Tb160 O180 2.484 . S
Tb160 O181 2.440 . S
Tb160 O182 2.658 . S
Tb160 O183 2.409 . S
Tb160 O184 2.378 . S
Tb160 O188 2.325 . S
Tb160 O191 2.341 . S
Tb161 C171 2.809 . S
Tb161 O182 2.325 . S
Tb161 O185 2.341 . S
Tb161 O186 2.484 . S
Tb161 O187 2.440 . S
Tb161 O188 2.658 . S
Tb161 O189 2.409 . S
Tb161 O190 2.378 . S
C162 Tb160 2.809 . S
C162 C163 1.514 . S
C162 O180 1.248 . S
C162 O181 1.266 . S
C163 C162 1.514 . S
C163 C164 1.359 . S
C163 C168 1.348 . S
C164 C163 1.359 . S
C164 C165 1.380 . S
C164 H192 0.929 . S
C165 C164 1.380 . S
C165 C166 1.347 . S
C165 H193 0.931 . S
C166 C165 1.347 . S
C166 C167 1.369 . S
C167 C166 1.369 . S
C167 C168 1.408 . S
C167 H194 0.930 . S
C168 C163 1.348 . S
C168 C167 1.408 . S
C168 H195 0.930 . S
C169 O182 1.281 . S
C169 O183 1.254 . S
C170 O184 1.236 . S
C170 O185 1.266 . S
C171 Tb161 2.809 . S
C171 C172 1.514 . S
C171 O186 1.248 . S
C171 O187 1.266 . S
C172 C171 1.514 . S
C172 C173 1.359 . S
C172 C177 1.348 . S
C173 C172 1.359 . S
C173 C174 1.380 . S
C173 H196 0.929 . S
C174 C173 1.380 . S
C174 C175 1.347 . S
C174 H197 0.931 . S
C175 C174 1.347 . S
C175 C176 1.369 . S
C176 C175 1.369 . S
C176 C177 1.408 . S
C176 H198 0.930 . S
C177 C172 1.348 . S
C177 C176 1.408 . S
C177 H199 0.930 . S
C178 O188 1.281 . S
C178 O189 1.254 . S
C179 O190 1.236 . S
C179 O191 1.266 . S
O180 Tb160 2.484 . S
O180 C162 1.248 . S
O181 Tb160 2.440 . S
O181 C162 1.266 . S
O182 Tb160 2.658 . S
O182 Tb161 2.325 . S
O182 C169 1.281 . S
O183 Tb160 2.409 . S
O183 C169 1.254 . S
O184 Tb160 2.378 . S
O184 C170 1.236 . S
O185 Tb161 2.341 . S
O185 C170 1.266 . S
O186 Tb161 2.484 . S
O186 C171 1.248 . S
O187 Tb161 2.440 . S
O187 C171 1.266 . S
O188 Tb160 2.325 . S
O188 Tb161 2.658 . S
O188 C178 1.281 . S
O189 Tb161 2.409 . S
O189 C178 1.254 . S
O190 Tb161 2.378 . S
O190 C179 1.236 . S
O191 Tb160 2.341 . S
O191 C179 1.266 . S
H192 C164 0.929 . S
H193 C165 0.931 . S
H194 C167 0.930 . S
H195 C168 0.930 . S
H196 C173 0.929 . S
H197 C174 0.931 . S
H198 C176 0.930 . S
H199 C177 0.930 . S
Tb200 C202 2.809 . S
Tb200 O220 2.484 . S
Tb200 O221 2.440 . S
Tb200 O222 2.658 . S
Tb200 O223 2.409 . S
Tb200 O224 2.378 . S
Tb200 O228 2.325 . S
Tb200 O231 2.341 . S
Tb201 C211 2.809 . S
Tb201 O222 2.325 . S
Tb201 O225 2.341 . S
Tb201 O226 2.484 . S
Tb201 O227 2.440 . S
Tb201 O228 2.658 . S
Tb201 O229 2.409 . S
Tb201 O230 2.378 . S
C202 Tb200 2.809 . S
C202 C203 1.514 . S
C202 O220 1.248 . S
C202 O221 1.266 . S
C203 C202 1.514 . S
C203 C204 1.359 . S
C203 C208 1.348 . S
C204 C203 1.359 . S
C204 C205 1.380 . S
C204 H232 0.929 . S
C205 C204 1.380 . S
C205 C206 1.347 . S
C205 H233 0.931 . S
C206 C205 1.347 . S
C206 C207 1.369 . S
C207 C206 1.369 . S
C207 C208 1.408 . S
C207 H234 0.930 . S
C208 C203 1.348 . S
C208 C207 1.408 . S
C208 H235 0.930 . S
C209 O222 1.281 . S
C209 O223 1.254 . S
C210 O224 1.236 . S
C210 O225 1.266 . S
C211 Tb201 2.809 . S
C211 C212 1.514 . S
C211 O226 1.248 . S
C211 O227 1.266 . S
C212 C211 1.514 . S
C212 C213 1.359 . S
C212 C217 1.348 . S
C213 C212 1.359 . S
C213 C214 1.380 . S
C213 H236 0.929 . S
C214 C213 1.380 . S
C214 C215 1.347 . S
C214 H237 0.931 . S
C215 C214 1.347 . S
C215 C216 1.369 . S
C216 C215 1.369 . S
C216 C217 1.408 . S
C216 H238 0.930 . S
C217 C212 1.348 . S
C217 C216 1.408 . S
C217 H239 0.930 . S
C218 O228 1.281 . S
C218 O229 1.254 . S
C219 O230 1.236 . S
C219 O231 1.266 . S
O220 Tb200 2.484 . S
O220 C202 1.248 . S
O221 Tb200 2.440 . S
O221 C202 1.266 . S
O222 Tb200 2.658 . S
O222 Tb201 2.325 . S
O222 C209 1.281 . S
O223 Tb200 2.409 . S
O223 C209 1.254 . S
O224 Tb200 2.378 . S
O224 C210 1.236 . S
O225 Tb201 2.341 . S
O225 C210 1.266 . S
O226 Tb201 2.484 . S
O226 C211 1.248 . S
O227 Tb201 2.440 . S
O227 C211 1.266 . S
O228 Tb200 2.325 . S
O228 Tb201 2.658 . S
O228 C218 1.281 . S
O229 Tb201 2.409 . S
O229 C218 1.254 . S
O230 Tb201 2.378 . S
O230 C219 1.236 . S
O231 Tb200 2.341 . S
O231 C219 1.266 . S
H232 C204 0.929 . S
H233 C205 0.931 . S
H234 C207 0.930 . S
H235 C208 0.930 . S
H236 C213 0.929 . S
H237 C214 0.931 . S
H238 C216 0.930 . S
H239 C217 0.930 . S
H240 C258 0.951 . S
H241 C260 0.951 . S
H242 C262 0.950 . S
H243 C263 0.950 . S
H244 C265 0.950 . S
H245 C268 0.949 . S
H246 C269 0.950 1_545 S
H247 C271 0.950 . S
H248 C272 0.950 1_554 S
H249 C273 0.951 . S
H250 C275 0.951 . S
H251 C277 0.950 . S
H252 C278 0.950 . S
H253 C280 0.950 . S
H254 C283 0.950 1_565 S
H255 C284 0.950 . S
H256 C286 0.950 . S
H257 C287 0.950 1_556 S
C258 H240 0.951 . S
C258 C259 1.366 . S
C258 C260 1.388 . S
C259 C258 1.366 . S
C259 C263 1.385 . S
C260 H241 0.951 . S
C260 C258 1.388 . S
C260 C261 1.366 . S
C261 C260 1.366 . S
C261 C262 1.414 . S
C261 C264 1.499 . S
C262 H242 0.950 . S
C262 C261 1.414 . S
C262 C263 1.374 . S
C263 H243 0.950 . S
C263 C259 1.385 . S
C263 C262 1.374 . S
C264 C261 1.499 . S
C264 C265 1.373 . S
C264 C266 1.389 . S
C265 H244 0.950 . S
C265 C264 1.373 . S
C265 C281 1.377 1_566 S
C266 C264 1.389 . S
C266 C267 1.524 . S
C266 C280 1.377 1_566 S
C267 C266 1.524 . S
C267 C268 1.395 1_565 S
C267 C272 1.363 . S
C268 H245 0.949 . S
C268 C267 1.395 1_545 S
C268 C269 1.336 1_545 S
C269 H246 0.950 1_565 S
C269 C268 1.336 1_565 S
C269 C270 1.287 . S
C270 C269 1.287 . S
C270 C271 1.524 . S
C270 H289 0.913 . S
C271 H247 0.950 . S
C271 C270 1.524 . S
C271 C272 1.415 . S
C272 H248 0.950 1_556 S
C272 C267 1.363 . S
C272 C271 1.415 . S
C273 H249 0.951 . S
C273 C274 1.366 . S
C273 C275 1.388 . S
C274 C273 1.366 . S
C274 C278 1.385 . S
C275 H250 0.951 . S
C275 C273 1.388 . S
C275 C276 1.366 . S
C276 C275 1.366 . S
C276 C277 1.414 . S
C276 C279 1.499 . S
C277 H251 0.950 . S
C277 C276 1.414 . S
C277 C278 1.374 . S
C278 H252 0.950 . S
C278 C274 1.385 . S
C278 C277 1.374 . S
C279 C276 1.499 . S
C279 C280 1.373 . S
C279 C281 1.389 . S
C280 H253 0.950 . S
C280 C266 1.377 1_544 S
C280 C279 1.373 . S
C281 C265 1.377 1_544 S
C281 C279 1.389 . S
C281 C282 1.524 . S
C282 C281 1.524 . S
C282 C283 1.397 . S
C282 C287 1.363 . S
C283 H254 0.950 1_545 S
C283 C282 1.397 . S
C283 C284 1.334 . S
C284 H255 0.950 . S
C284 C283 1.334 . S
C284 C285 1.287 . S
C285 C284 1.287 . S
C285 C286 1.524 . S
C285 H288 0.999 . S
C286 H256 0.950 . S
C286 C285 1.524 . S
C286 C287 1.415 . S
C287 H257 0.950 1_554 S
C287 C282 1.363 . S
C287 C286 1.415 . S
H288 C285 0.999 . S
H289 C270 0.913 . S
H290 C308 0.951 . S
H291 C310 0.951 . S
H292 C312 0.950 . S
H293 C313 0.950 . S
H294 C315 0.950 . S
H295 C318 0.950 . S
H296 C319 0.950 . S
H297 C321 0.950 . S
H298 C322 0.950 . S
H299 C323 0.951 . S
H300 C325 0.951 . S
H301 C327 0.950 . S
H302 C328 0.950 . S
H303 C330 0.950 . S
H304 C333 0.950 . S
H305 C334 0.950 . S
H306 C336 0.950 . S
H307 C337 0.950 . S
C308 H290 0.951 . S
C308 C309 1.366 . S
C308 C310 1.388 . S
C309 C308 1.366 . S
C309 C313 1.385 . S
C310 H291 0.951 . S
C310 C308 1.388 . S
C310 C311 1.366 . S
C311 C310 1.366 . S
C311 C312 1.414 . S
C311 C314 1.499 . S
C312 H292 0.950 . S
C312 C311 1.414 . S
C312 C313 1.374 . S
C313 H293 0.950 . S
C313 C309 1.385 . S
C313 C312 1.374 . S
C314 C311 1.499 . S
C314 C315 1.373 . S
C314 C316 1.389 . S
C315 H294 0.950 . S
C315 C314 1.373 . S
C315 C331 1.377 . S
C316 C314 1.389 . S
C316 C317 1.524 . S
C316 C330 1.377 . S
C317 C316 1.524 . S
C317 C318 1.397 . S
C317 C322 1.363 . S
C318 H295 0.950 . S
C318 C317 1.397 . S
C318 C319 1.334 . S
C319 H296 0.950 . S
C319 C318 1.334 . S
C319 C320 1.287 . S
C320 C319 1.287 . S
C320 C321 1.524 . S
C320 H339 0.913 . S
C321 H297 0.950 . S
C321 C320 1.524 . S
C321 C322 1.415 . S
C322 H298 0.950 . S
C322 C317 1.363 . S
C322 C321 1.415 . S
C323 H299 0.951 . S
C323 C324 1.366 . S
C323 C325 1.388 . S
C324 C323 1.366 . S
C324 C328 1.385 . S
C325 H300 0.951 . S
C325 C323 1.388 . S
C325 C326 1.366 . S
C326 C325 1.366 . S
C326 C327 1.414 . S
C326 C329 1.499 . S
C327 H301 0.950 . S
C327 C326 1.414 . S
C327 C328 1.374 . S
C328 H302 0.950 . S
C328 C324 1.385 . S
C328 C327 1.374 . S
C329 C326 1.499 . S
C329 C330 1.373 . S
C329 C331 1.389 . S
C330 H303 0.950 . S
C330 C316 1.377 . S
C330 C329 1.373 . S
C331 C315 1.377 . S
C331 C329 1.389 . S
C331 C332 1.524 . S
C332 C331 1.524 . S
C332 C333 1.397 . S
C332 C337 1.363 . S
C333 H304 0.950 . S
C333 C332 1.397 . S
C333 C334 1.334 . S
C334 H305 0.950 . S
C334 C333 1.334 . S
C334 C335 1.287 . S
C335 C334 1.287 . S
C335 C336 1.524 . S
C335 H338 0.999 . S
C336 H306 0.950 . S
C336 C335 1.524 . S
C336 C337 1.415 . S
C337 H307 0.950 . S
C337 C332 1.363 . S
C337 C336 1.415 . S
H338 C335 0.999 . S
H339 C320 0.913 . S
H340 C358 0.951 . S
H341 C360 0.951 . S
H342 C362 0.950 . S
H343 C363 0.950 . S
H344 C365 0.950 . S
H345 C368 0.950 . S
H346 C369 0.950 1_554 S
H347 C371 0.950 . S
H348 C372 0.950 . S
H349 C373 0.951 . S
H350 C375 0.951 . S
H351 C377 0.950 . S
H352 C378 0.950 . S
H353 C380 0.950 . S
H354 C383 0.950 . S
H355 C384 0.950 1_556 S
H356 C386 0.950 . S
H357 C387 0.950 . S
C358 H340 0.951 . S
C358 C359 1.366 . S
C358 C360 1.388 . S
C359 C358 1.366 . S
C359 C363 1.385 . S
C360 H341 0.951 . S
C360 C358 1.388 . S
C360 C361 1.366 . S
C361 C360 1.366 . S
C361 C362 1.414 . S
C361 C364 1.499 . S
C362 H342 0.950 . S
C362 C361 1.414 . S
C362 C363 1.374 . S
C363 H343 0.950 . S
C363 C359 1.385 . S
C363 C362 1.374 . S
C364 C361 1.499 . S
C364 C365 1.373 1_655 S
C364 C366 1.389 1_554 S
C365 H344 0.950 . S
C365 C364 1.373 1_455 S
C365 C381 1.377 . S
C366 C364 1.389 1_556 S
C366 C367 1.524 . S
C366 C380 1.377 . S
C367 C366 1.524 . S
C367 C368 1.397 1_556 S
C367 C372 1.363 . S
C368 H345 0.950 . S
C368 C367 1.397 1_554 S
C368 C369 1.334 1_554 S
C369 H346 0.950 1_556 S
C369 C368 1.334 1_556 S
C369 C370 1.287 . S
C370 C369 1.287 . S
C370 C371 1.524 . S
C370 H389 0.913 . S
C371 H347 0.950 . S
C371 C370 1.524 . S
C371 C372 1.415 . S
C372 H348 0.950 . S
C372 C367 1.363 . S
C372 C371 1.415 . S
C373 H349 0.951 . S
C373 C374 1.366 . S
C373 C375 1.388 . S
C374 C373 1.366 . S
C374 C378 1.385 . S
C375 H350 0.951 . S
C375 C373 1.388 . S
C375 C376 1.366 . S
C376 C375 1.366 . S
C376 C377 1.414 . S
C376 C379 1.499 . S
C377 H351 0.950 . S
C377 C376 1.414 . S
C377 C378 1.374 . S
C378 H352 0.950 . S
C378 C374 1.385 . S
C378 C377 1.374 . S
C379 C376 1.499 . S
C379 C380 1.373 1_455 S
C379 C381 1.389 1_556 S
C380 H353 0.950 . S
C380 C366 1.377 . S
C380 C379 1.373 1_655 S
C381 C365 1.377 . S
C381 C379 1.389 1_554 S
C381 C382 1.524 . S
C382 C381 1.524 . S
C382 C383 1.397 1_554 S
C382 C387 1.363 . S
C383 H354 0.950 . S
C383 C382 1.397 1_556 S
C383 C384 1.334 1_556 S
C384 H355 0.950 1_554 S
C384 C383 1.334 1_554 S
C384 C385 1.287 . S
C385 C384 1.287 . S
C385 C386 1.524 . S
C385 H388 0.999 . S
C386 H356 0.950 . S
C386 C385 1.524 . S
C386 C387 1.415 . S
C387 H357 0.950 . S
C387 C382 1.363 . S
C387 C386 1.415 . S
H388 C385 0.999 . S
H389 C370 0.913 . S
H390 C408 0.951 . S
H391 C410 0.951 . S
H392 C412 0.950 . S
H393 C413 0.950 . S
H394 C415 0.950 . S
H395 C418 0.950 1_565 S
H396 C419 0.950 . S
H397 C421 0.950 . S
H398 C422 0.950 . S
H399 C423 0.951 . S
H400 C425 0.951 . S
H401 C427 0.950 . S
H402 C428 0.950 . S
H403 C430 0.950 . S
H404 C433 0.953 . S
H405 C434 0.950 . S
H406 C436 0.950 . S
H407 C437 0.950 . S
C408 H390 0.951 . S
C408 C409 1.366 . S
C408 C410 1.388 . S
C409 C408 1.366 . S
C409 C413 1.385 . S
C410 H391 0.951 . S
C410 C408 1.388 . S
C410 C411 1.366 . S
C411 C410 1.366 . S
C411 C412 1.414 . S
C411 C414 1.499 . S
C412 H392 0.950 . S
C412 C411 1.414 . S
C412 C413 1.374 . S
C413 H393 0.950 . S
C413 C409 1.385 . S
C413 C412 1.374 . S
C414 C411 1.499 . S
C414 C415 1.373 . S
C414 C416 1.389 . S
C415 H394 0.950 . S
C415 C414 1.373 . S
C415 C431 1.377 1_545 S
C416 C414 1.389 . S
C416 C417 1.524 . S
C416 C430 1.377 1_545 S
C417 C416 1.524 . S
C417 C418 1.397 . S
C417 C422 1.363 . S
C418 H395 0.950 1_545 S
C418 C417 1.397 . S
C418 C419 1.334 . S
C419 H396 0.950 . S
C419 C418 1.334 . S
C419 C420 1.287 . S
C420 C419 1.287 . S
C420 C421 1.524 . S
C420 H439 0.913 . S
C421 H397 0.950 . S
C421 C420 1.524 . S
C421 C422 1.415 . S
C422 H398 0.950 . S
C422 C417 1.363 . S
C422 C421 1.415 . S
C423 H399 0.951 . S
C423 C424 1.366 . S
C423 C425 1.388 . S
C424 C423 1.366 . S
C424 C428 1.385 . S
C425 H400 0.951 . S
C425 C423 1.388 . S
C425 C426 1.366 . S
C426 C425 1.366 . S
C426 C427 1.414 . S
C426 C429 1.499 . S
C427 H401 0.950 . S
C427 C426 1.414 . S
C427 C428 1.374 . S
C428 H402 0.950 . S
C428 C424 1.385 . S
C428 C427 1.374 . S
C429 C426 1.499 . S
C429 C430 1.373 . S
C429 C431 1.389 . S
C430 H403 0.950 . S
C430 C416 1.377 1_565 S
C430 C429 1.373 . S
C431 C415 1.377 1_565 S
C431 C429 1.389 . S
C431 C432 1.524 . S
C432 C431 1.524 . S
C432 C433 1.397 . S
C432 C437 1.363 . S
C433 H404 0.953 . S
C433 C432 1.397 . S
C433 C434 1.334 . S
C434 H405 0.950 . S
C434 C433 1.334 . S
C434 C435 1.287 . S
C435 C434 1.287 . S
C435 C436 1.524 . S
C435 H438 0.999 . S
C436 H406 0.950 . S
C436 C435 1.524 . S
C436 C437 1.415 . S
C437 H407 0.950 . S
C437 C432 1.363 . S
C437 C436 1.415 . S
H438 C435 0.999 . S
H439 C420 0.913 . S
H440 C458 0.951 . S
H441 C460 0.951 . S
H442 C462 0.950 . S
H443 C463 0.950 . S
H444 C465 0.950 . S
H445 C468 0.950 . S
H446 C469 0.950 . S
H447 C471 0.950 . S
H448 C472 0.950 . S
H449 C473 0.951 . S
H450 C475 0.951 . S
H451 C477 0.950 . S
H452 C478 0.950 . S
H453 C480 0.950 . S
H454 C483 0.950 . S
H455 C484 0.950 . S
H456 C486 0.950 . S
H457 C487 0.950 . S
C458 H440 0.951 . S
C458 C459 1.366 . S
C458 C460 1.388 . S
C459 C458 1.366 . S
C459 C463 1.385 . S
C460 H441 0.951 . S
C460 C458 1.388 . S
C460 C461 1.366 . S
C461 C460 1.366 . S
C461 C462 1.414 . S
C461 C464 1.499 . S
C462 H442 0.950 . S
C462 C461 1.414 . S
C462 C463 1.374 . S
C463 H443 0.950 . S
C463 C459 1.385 . S
C463 C462 1.374 . S
C464 C461 1.499 . S
C464 C465 1.373 . S
C464 C466 1.389 . S
C465 H444 0.950 . S
C465 C464 1.373 . S
C465 C481 1.377 1_556 S
C466 C464 1.389 . S
C466 C467 1.524 . S
C466 C480 1.377 1_556 S
C467 C466 1.524 . S
C467 C468 1.397 . S
C467 C472 1.363 1_556 S
C468 H445 0.950 . S
C468 C467 1.397 . S
C468 C469 1.334 . S
C469 H446 0.950 . S
C469 C468 1.334 . S
C469 C470 1.287 . S
C470 C469 1.287 . S
C470 C471 1.524 1_556 S
C470 H489 0.913 . S
C471 H447 0.950 . S
C471 C470 1.524 1_554 S
C471 C472 1.415 . S
C472 H448 0.950 . S
C472 C467 1.363 1_554 S
C472 C471 1.415 . S
C473 H449 0.951 . S
C473 C474 1.366 . S
C473 C475 1.388 . S
C474 C473 1.366 . S
C474 C478 1.385 . S
C475 H450 0.951 . S
C475 C473 1.388 . S
C475 C476 1.366 . S
C476 C475 1.366 . S
C476 C477 1.414 . S
C476 C479 1.499 . S
C477 H451 0.950 . S
C477 C476 1.414 . S
C477 C478 1.374 . S
C478 H452 0.950 . S
C478 C474 1.385 . S
C478 C477 1.374 . S
C479 C476 1.499 . S
C479 C480 1.373 . S
C479 C481 1.389 . S
C480 H453 0.950 . S
C480 C466 1.377 1_554 S
C480 C479 1.373 . S
C481 C465 1.377 1_554 S
C481 C479 1.389 . S
C481 C482 1.524 . S
C482 C481 1.524 . S
C482 C483 1.397 . S
C482 C487 1.363 1_554 S
C483 H454 0.950 . S
C483 C482 1.397 . S
C483 C484 1.334 . S
C484 H455 0.950 . S
C484 C483 1.334 . S
C484 C485 1.287 . S
C485 C484 1.287 . S
C485 C486 1.524 1_554 S
C485 H488 0.999 . S
C486 H456 0.950 . S
C486 C485 1.524 1_556 S
C486 C487 1.415 . S
C487 H457 0.950 . S
C487 C482 1.363 1_556 S
C487 C486 1.415 . S
H488 C485 0.999 . S
H489 C470 0.913 . S
H490 C508 0.951 . S
H491 C510 0.951 . S
H492 C512 0.950 . S
H493 C513 0.950 . S
H494 C515 0.950 . S
H495 C518 0.950 . S
H496 C519 0.950 . S
H497 C521 0.950 . S
H498 C522 0.950 . S
H499 C523 0.951 . S
H500 C525 0.951 . S
H501 C527 0.950 . S
H502 C528 0.950 . S
H503 C530 0.950 . S
H504 C533 0.950 . S
H505 C534 0.950 . S
H506 C536 0.950 . S
H507 C537 0.950 . S
C508 H490 0.951 . S
C508 C509 1.366 . S
C508 C510 1.388 . S
C509 C508 1.366 . S
C509 C513 1.385 . S
C510 H491 0.951 . S
C510 C508 1.388 . S
C510 C511 1.366 . S
C511 C510 1.366 . S
C511 C512 1.414 . S
C511 C514 1.499 . S
C512 H492 0.950 . S
C512 C511 1.414 . S
C512 C513 1.374 . S
C513 H493 0.950 . S
C513 C509 1.385 . S
C513 C512 1.374 . S
C514 C511 1.499 . S
C514 C515 1.373 . S
C514 C516 1.389 1_655 S
C515 H494 0.950 . S
C515 C514 1.373 . S
C515 C531 1.377 1_655 S
C516 C514 1.389 1_455 S
C516 C517 1.529 1_455 S
C516 C530 1.377 . S
C517 C516 1.529 1_655 S
C517 C518 1.404 . S
C517 C522 1.351 1_655 S
C518 H495 0.950 . S
C518 C517 1.404 . S
C518 C519 1.334 . S
C519 H496 0.950 . S
C519 C518 1.334 . S
C519 C520 1.287 . S
C520 C519 1.287 . S
C520 C521 1.524 1_655 S
C520 H539 0.913 . S
C521 H497 0.950 . S
C521 C520 1.524 1_455 S
C521 C522 1.415 . S
C522 H498 0.950 . S
C522 C517 1.351 1_455 S
C522 C521 1.415 . S
C523 H499 0.951 . S
C523 C524 1.366 . S
C523 C525 1.388 . S
C524 C523 1.366 . S
C524 C528 1.385 . S
C525 H500 0.951 . S
C525 C523 1.388 . S
C525 C526 1.366 . S
C526 C525 1.366 . S
C526 C527 1.414 . S
C526 C529 1.499 . S
C527 H501 0.950 . S
C527 C526 1.414 . S
C527 C528 1.374 . S
C528 H502 0.950 . S
C528 C524 1.385 . S
C528 C527 1.374 . S
C529 C526 1.499 . S
C529 C530 1.373 . S
C529 C531 1.389 . S
C530 H503 0.950 . S
C530 C516 1.377 . S
C530 C529 1.373 . S
C531 C515 1.377 1_455 S
C531 C529 1.389 . S
C531 C532 1.524 . S
C532 C531 1.524 . S
C532 C533 1.397 . S
C532 C537 1.363 1_455 S
C533 H504 0.950 . S
C533 C532 1.397 . S
C533 C534 1.334 . S
C534 H505 0.950 . S
C534 C533 1.334 . S
C534 C535 1.287 . S
C535 C534 1.287 . S
C535 C536 1.524 1_455 S
C535 H538 0.999 . S
C536 H506 0.950 . S
C536 C535 1.524 1_655 S
C536 C537 1.415 . S
C537 H507 0.950 . S
C537 C532 1.363 1_655 S
C537 C536 1.415 . S
H538 C535 0.999 . S
H539 C520 0.913 . S
H540 C558 0.951 . S
H541 C560 0.951 . S
H542 C562 0.950 . S
H543 C563 0.950 . S
H544 C565 0.950 . S
H545 C568 0.950 . S
H546 C569 0.950 . S
H547 C571 0.950 . S
H548 C572 0.950 . S
H549 C573 0.951 . S
H550 C575 0.951 . S
H551 C577 0.950 . S
H552 C578 0.950 . S
H553 C580 0.950 . S
H554 C583 0.950 . S
H555 C584 0.950 . S
H556 C586 0.950 . S
H557 C587 0.950 . S
C558 H540 0.951 . S
C558 C559 1.366 . S
C558 C560 1.388 . S
C559 C558 1.366 . S
C559 C563 1.385 . S
C560 H541 0.951 . S
C560 C558 1.388 . S
C560 C561 1.366 . S
C561 C560 1.366 . S
C561 C562 1.414 . S
C561 C564 1.499 . S
C562 H542 0.950 . S
C562 C561 1.414 . S
C562 C563 1.374 . S
C563 H543 0.950 . S
C563 C559 1.385 . S
C563 C562 1.374 . S
C564 C561 1.499 . S
C564 C565 1.373 . S
C564 C566 1.389 . S
C565 H544 0.950 . S
C565 C564 1.373 . S
C565 C581 1.377 . S
C566 C564 1.389 . S
C566 C567 1.524 . S
C566 C580 1.377 . S
C567 C566 1.524 . S
C567 C568 1.397 . S
C567 C572 1.363 . S
C568 H545 0.950 . S
C568 C567 1.397 . S
C568 C569 1.334 . S
C569 H546 0.950 . S
C569 C568 1.334 . S
C569 C570 1.287 . S
C570 C569 1.287 . S
C570 C571 1.524 . S
C570 H589 0.913 . S
C571 H547 0.950 . S
C571 C570 1.524 . S
C571 C572 1.415 . S
C572 H548 0.950 . S
C572 C567 1.363 . S
C572 C571 1.415 . S
C573 H549 0.951 . S
C573 C574 1.366 . S
C573 C575 1.388 . S
C574 C573 1.366 . S
C574 C578 1.385 . S
C575 H550 0.951 . S
C575 C573 1.388 . S
C575 C576 1.366 . S
C576 C575 1.366 . S
C576 C577 1.414 . S
C576 C579 1.499 . S
C577 H551 0.950 . S
C577 C576 1.414 . S
C577 C578 1.374 . S
C578 H552 0.950 . S
C578 C574 1.385 . S
C578 C577 1.374 . S
C579 C576 1.499 . S
C579 C580 1.373 . S
C579 C581 1.389 . S
C580 H553 0.950 . S
C580 C566 1.377 . S
C580 C579 1.373 . S
C581 C565 1.377 . S
C581 C579 1.389 . S
C581 C582 1.524 . S
C582 C581 1.524 . S
C582 C583 1.397 . S
C582 C587 1.363 . S
C583 H554 0.950 . S
C583 C582 1.397 . S
C583 C584 1.334 . S
C584 H555 0.950 . S
C584 C583 1.334 . S
C584 C585 1.287 . S
C585 C584 1.287 . S
C585 C586 1.524 . S
C585 H588 0.999 . S
C586 H556 0.950 . S
C586 C585 1.524 . S
C586 C587 1.415 . S
C587 H557 0.950 . S
C587 C582 1.363 . S
C587 C586 1.415 . S
H588 C585 0.999 . S
H589 C570 0.913 . S
H590 C608 0.951 . S
H591 C610 0.951 . S
H592 C612 0.950 . S
H593 C613 0.950 . S
H594 C615 0.950 . S
H595 C618 0.950 . S
H596 C619 0.950 . S
H597 C621 0.950 . S
H598 C622 0.950 . S
H599 C623 0.951 . S
H600 C625 0.951 . S
H601 C627 0.950 . S
H602 C628 0.950 . S
H603 C630 0.950 . S
H604 C633 0.950 . S
H605 C634 0.950 . S
H606 C636 0.950 . S
H607 C637 0.950 . S
C608 H590 0.951 . S
C608 C609 1.366 . S
C608 C610 1.388 . S
C609 C608 1.366 . S
C609 C613 1.385 . S
C610 H591 0.951 . S
C610 C608 1.388 . S
C610 C611 1.366 . S
C611 C610 1.366 . S
C611 C612 1.414 . S
C611 C614 1.499 . S
C612 H592 0.950 . S
C612 C611 1.414 . S
C612 C613 1.374 . S
C613 H593 0.950 . S
C613 C609 1.385 . S
C613 C612 1.374 . S
C614 C611 1.499 . S
C614 C615 1.373 . S
C614 C616 1.389 . S
C615 H594 0.950 . S
C615 C614 1.373 . S
C615 C631 1.377 . S
C616 C614 1.389 . S
C616 C617 1.524 . S
C616 C630 1.377 . S
C617 C616 1.524 . S
C617 C618 1.397 . S
C617 C622 1.363 . S
C618 H595 0.950 . S
C618 C617 1.397 . S
C618 C619 1.334 . S
C619 H596 0.950 . S
C619 C618 1.334 . S
C619 C620 1.287 . S
C620 C619 1.287 . S
C620 C621 1.524 . S
C620 H639 0.913 . S
C621 H597 0.950 . S
C621 C620 1.524 . S
C621 C622 1.415 . S
C622 H598 0.950 . S
C622 C617 1.363 . S
C622 C621 1.415 . S
C623 H599 0.951 . S
C623 C624 1.366 . S
C623 C625 1.388 . S
C624 C623 1.366 . S
C624 C628 1.385 . S
C625 H600 0.951 . S
C625 C623 1.388 . S
C625 C626 1.366 . S
C626 C625 1.366 . S
C626 C627 1.414 . S
C626 C629 1.499 . S
C627 H601 0.950 . S
C627 C626 1.414 . S
C627 C628 1.374 . S
C628 H602 0.950 . S
C628 C624 1.385 . S
C628 C627 1.374 . S
C629 C626 1.499 . S
C629 C630 1.373 . S
C629 C631 1.389 . S
C630 H603 0.950 . S
C630 C616 1.377 . S
C630 C629 1.373 . S
C631 C615 1.377 . S
C631 C629 1.389 . S
C631 C632 1.524 . S
C632 C631 1.524 . S
C632 C633 1.397 . S
C632 C637 1.363 . S
C633 H604 0.950 . S
C633 C632 1.397 . S
C633 C634 1.334 . S
C634 H605 0.950 . S
C634 C633 1.334 . S
C634 C635 1.287 . S
C635 C634 1.287 . S
C635 C636 1.524 . S
C635 H638 0.999 . S
C636 H606 0.950 . S
C636 C635 1.524 . S
C636 C637 1.415 . S
C637 H607 0.950 . S
C637 C632 1.363 . S
C637 C636 1.415 . S
H638 C635 0.999 . S
H639 C620 0.913 . S
H640 C658 0.951 . S
H641 C660 0.951 . S
H642 C662 0.950 . S
H643 C663 0.950 . S
H644 C665 0.950 . S
H645 C668 0.950 . S
H646 C669 0.950 . S
H647 C671 0.950 . S
H648 C672 0.950 . S
H649 C673 0.951 . S
H650 C675 0.951 . S
H651 C677 0.950 . S
H652 C678 0.950 . S
H653 C680 0.950 . S
H654 C683 0.950 . S
H655 C684 0.950 . S
H656 C686 0.950 . S
H657 C687 0.950 . S
C658 H640 0.951 . S
C658 C659 1.366 . S
C658 C660 1.388 . S
C659 C658 1.366 . S
C659 C663 1.385 . S
C660 H641 0.951 . S
C660 C658 1.388 . S
C660 C661 1.366 . S
C661 C660 1.366 . S
C661 C662 1.414 . S
C661 C664 1.499 . S
C662 H642 0.950 . S
C662 C661 1.414 . S
C662 C663 1.374 . S
C663 H643 0.950 . S
C663 C659 1.385 . S
C663 C662 1.374 . S
C664 C661 1.499 . S
C664 C665 1.373 . S
C664 C666 1.389 . S
C665 H644 0.950 . S
C665 C664 1.373 . S
C665 C681 1.377 . S
C666 C664 1.389 . S
C666 C667 1.524 . S
C666 C680 1.377 . S
C667 C666 1.524 . S
C667 C668 1.397 . S
C667 C672 1.363 . S
C668 H645 0.950 . S
C668 C667 1.397 . S
C668 C669 1.334 . S
C669 H646 0.950 . S
C669 C668 1.334 . S
C669 C670 1.287 . S
C670 C669 1.287 . S
C670 C671 1.524 . S
C670 H689 0.913 . S
C671 H647 0.950 . S
C671 C670 1.524 . S
C671 C672 1.415 . S
C672 H648 0.950 . S
C672 C667 1.363 . S
C672 C671 1.415 . S
C673 H649 0.951 . S
C673 C674 1.366 . S
C673 C675 1.388 . S
C674 C673 1.366 . S
C674 C678 1.385 . S
C675 H650 0.951 . S
C675 C673 1.388 . S
C675 C676 1.366 . S
C676 C675 1.366 . S
C676 C677 1.414 . S
C676 C679 1.499 . S
C677 H651 0.950 . S
C677 C676 1.414 . S
C677 C678 1.374 . S
C678 H652 0.950 . S
C678 C674 1.385 . S
C678 C677 1.374 . S
C679 C676 1.499 . S
C679 C680 1.373 . S
C679 C681 1.389 . S
C680 H653 0.950 . S
C680 C666 1.377 . S
C680 C679 1.373 . S
C681 C665 1.377 . S
C681 C679 1.389 . S
C681 C682 1.524 . S
C682 C681 1.524 . S
C682 C683 1.397 . S
C682 C687 1.363 . S
C683 H654 0.950 . S
C683 C682 1.397 . S
C683 C684 1.334 . S
C684 H655 0.950 . S
C684 C683 1.334 . S
C684 C685 1.287 . S
C685 C684 1.287 . S
C685 C686 1.524 . S
C685 H688 0.999 . S
C686 H656 0.950 . S
C686 C685 1.524 . S
C686 C687 1.415 . S
C687 H657 0.950 . S
C687 C682 1.363 . S
C687 C686 1.415 . S
H688 C685 0.999 . S
H689 C670 0.913 . S
H690 C708 0.951 . S
H691 C710 0.951 . S
H692 C712 0.950 . S
H693 C713 0.950 . S
H694 C715 0.950 . S
H695 C718 0.950 . S
H696 C719 0.950 . S
H697 C721 0.950 . S
H698 C722 0.950 . S
H699 C723 0.951 . S
H700 C725 0.951 . S
H701 C727 0.950 . S
H702 C728 0.950 . S
H703 C730 0.950 . S
H704 C733 0.950 . S
H705 C734 0.950 . S
H706 C736 0.950 . S
H707 C737 0.950 . S
C708 H690 0.951 . S
C708 C709 1.366 . S
C708 C710 1.388 . S
C709 C708 1.366 . S
C709 C713 1.385 . S
C710 H691 0.951 . S
C710 C708 1.388 . S
C710 C711 1.366 . S
C711 C710 1.366 . S
C711 C712 1.414 . S
C711 C714 1.499 . S
C712 H692 0.950 . S
C712 C711 1.414 . S
C712 C713 1.374 . S
C713 H693 0.950 . S
C713 C709 1.385 . S
C713 C712 1.374 . S
C714 C711 1.499 . S
C714 C715 1.373 . S
C714 C716 1.389 . S
C715 H694 0.950 . S
C715 C714 1.373 . S
C715 C731 1.377 . S
C716 C714 1.389 . S
C716 C717 1.524 . S
C716 C730 1.377 . S
C717 C716 1.524 . S
C717 C718 1.397 . S
C717 C722 1.363 . S
C718 H695 0.950 . S
C718 C717 1.397 . S
C718 C719 1.334 . S
C719 H696 0.950 . S
C719 C718 1.334 . S
C719 C720 1.287 . S
C720 C719 1.287 . S
C720 C721 1.524 . S
C720 H739 0.913 . S
C721 H697 0.950 . S
C721 C720 1.524 . S
C721 C722 1.415 . S
C722 H698 0.950 . S
C722 C717 1.363 . S
C722 C721 1.415 . S
C723 H699 0.951 . S
C723 C724 1.366 . S
C723 C725 1.388 . S
C724 C723 1.366 . S
C724 C728 1.385 . S
C725 H700 0.951 . S
C725 C723 1.388 . S
C725 C726 1.366 . S
C726 C725 1.366 . S
C726 C727 1.414 . S
C726 C729 1.499 . S
C727 H701 0.950 . S
C727 C726 1.414 . S
C727 C728 1.374 . S
C728 H702 0.950 . S
C728 C724 1.385 . S
C728 C727 1.374 . S
C729 C726 1.499 . S
C729 C730 1.373 . S
C729 C731 1.389 . S
C730 H703 0.950 . S
C730 C716 1.377 . S
C730 C729 1.373 . S
C731 C715 1.377 . S
C731 C729 1.389 . S
C731 C732 1.524 . S
C732 C731 1.524 . S
C732 C733 1.397 . S
C732 C737 1.363 . S
C733 H704 0.950 . S
C733 C732 1.397 . S
C733 C734 1.334 . S
C734 H705 0.950 . S
C734 C733 1.334 . S
C734 C735 1.287 . S
C735 C734 1.287 . S
C735 C736 1.524 . S
C735 H738 0.999 . S
C736 H706 0.950 . S
C736 C735 1.524 . S
C736 C737 1.415 . S
C737 H707 0.950 . S
C737 C732 1.363 . S
C737 C736 1.415 . S
H738 C735 0.999 . S
H739 C720 0.913 . S
H740 C758 0.951 . S
H741 C760 0.951 . S
H742 C762 0.950 . S
H743 C763 0.950 . S
H744 C765 0.950 . S
H745 C768 0.950 . S
H746 C769 0.950 . S
H747 C771 0.950 . S
H748 C772 0.950 . S
H749 C773 0.951 . S
H750 C775 0.951 . S
H751 C777 0.950 . S
H752 C778 0.950 . S
H753 C780 0.950 . S
H754 C783 0.950 . S
H755 C784 0.950 . S
H756 C786 0.950 . S
H757 C787 0.950 . S
C758 H740 0.951 . S
C758 C759 1.366 . S
C758 C760 1.388 . S
C759 C758 1.366 . S
C759 C763 1.385 . S
C760 H741 0.951 . S
C760 C758 1.388 . S
C760 C761 1.366 . S
C761 C760 1.366 . S
C761 C762 1.414 . S
C761 C764 1.499 . S
C762 H742 0.950 . S
C762 C761 1.414 . S
C762 C763 1.374 . S
C763 H743 0.950 . S
C763 C759 1.385 . S
C763 C762 1.374 . S
C764 C761 1.499 . S
C764 C765 1.373 . S
C764 C766 1.389 . S
C765 H744 0.950 . S
C765 C764 1.373 . S
C765 C781 1.377 . S
C766 C764 1.389 . S
C766 C767 1.524 . S
C766 C780 1.377 . S
C767 C766 1.524 . S
C767 C768 1.397 . S
C767 C772 1.363 . S
C768 H745 0.950 . S
C768 C767 1.397 . S
C768 C769 1.334 . S
C769 H746 0.950 . S
C769 C768 1.334 . S
C769 C770 1.287 . S
C770 C769 1.287 . S
C770 C771 1.524 . S
C770 H789 0.913 . S
C771 H747 0.950 . S
C771 C770 1.524 . S
C771 C772 1.415 . S
C772 H748 0.950 . S
C772 C767 1.363 . S
C772 C771 1.415 . S
C773 H749 0.951 . S
C773 C774 1.366 . S
C773 C775 1.388 . S
C774 C773 1.366 . S
C774 C778 1.385 . S
C775 H750 0.951 . S
C775 C773 1.388 . S
C775 C776 1.366 . S
C776 C775 1.366 . S
C776 C777 1.414 . S
C776 C779 1.499 . S
C777 H751 0.950 . S
C777 C776 1.414 . S
C777 C778 1.374 . S
C778 H752 0.950 . S
C778 C774 1.385 . S
C778 C777 1.374 . S
C779 C776 1.499 . S
C779 C780 1.373 . S
C779 C781 1.389 . S
C780 H753 0.950 . S
C780 C766 1.377 . S
C780 C779 1.373 . S
C781 C765 1.377 . S
C781 C779 1.389 . S
C781 C782 1.524 . S
C782 C781 1.524 . S
C782 C783 1.397 . S
C782 C787 1.363 . S
C783 H754 0.950 . S
C783 C782 1.397 . S
C783 C784 1.334 . S
C784 H755 0.950 . S
C784 C783 1.334 . S
C784 C785 1.287 . S
C785 C784 1.287 . S
C785 C786 1.524 . S
C785 H788 0.999 . S
C786 H756 0.950 . S
C786 C785 1.524 . S
C786 C787 1.415 . S
C787 H757 0.950 . S
C787 C782 1.363 . S
C787 C786 1.415 . S
H788 C785 0.999 . S
H789 C770 0.913 . S
H790 C808 0.951 . S
H791 C810 0.951 . S
H792 C812 0.950 . S
H793 C813 0.950 . S
H794 C815 0.950 . S
H795 C818 0.950 . S
H796 C819 0.950 . S
H797 C821 0.950 . S
H798 C822 0.950 . S
H799 C823 0.951 . S
H800 C825 0.951 . S
H801 C827 0.950 . S
H802 C828 0.950 . S
H803 C830 0.950 . S
H804 C833 0.950 . S
H805 C834 0.950 . S
H806 C836 0.950 . S
H807 C837 0.950 . S
C808 H790 0.951 . S
C808 C809 1.366 . S
C808 C810 1.388 . S
C809 C808 1.366 . S
C809 C813 1.385 . S
C810 H791 0.951 . S
C810 C808 1.388 . S
C810 C811 1.366 . S
C811 C810 1.366 . S
C811 C812 1.414 . S
C811 C814 1.499 . S
C812 H792 0.950 . S
C812 C811 1.414 . S
C812 C813 1.374 . S
C813 H793 0.950 . S
C813 C809 1.385 . S
C813 C812 1.374 . S
C814 C811 1.499 . S
C814 C815 1.373 . S
C814 C816 1.389 . S
C815 H794 0.950 . S
C815 C814 1.373 . S
C815 C831 1.377 . S
C816 C814 1.389 . S
C816 C817 1.524 . S
C816 C830 1.377 . S
C817 C816 1.524 . S
C817 C818 1.397 . S
C817 C822 1.363 . S
C818 H795 0.950 . S
C818 C817 1.397 . S
C818 C819 1.334 . S
C819 H796 0.950 . S
C819 C818 1.334 . S
C819 C820 1.287 . S
C820 C819 1.287 . S
C820 C821 1.524 . S
C820 H839 0.913 . S
C821 H797 0.950 . S
C821 C820 1.524 . S
C821 C822 1.415 . S
C822 H798 0.950 . S
C822 C817 1.363 . S
C822 C821 1.415 . S
C823 H799 0.951 . S
C823 C824 1.366 . S
C823 C825 1.388 . S
C824 C823 1.366 . S
C824 C828 1.385 . S
C825 H800 0.951 . S
C825 C823 1.388 . S
C825 C826 1.366 . S
C826 C825 1.366 . S
C826 C827 1.414 . S
C826 C829 1.499 . S
C827 H801 0.950 . S
C827 C826 1.414 . S
C827 C828 1.374 . S
C828 H802 0.950 . S
C828 C824 1.385 . S
C828 C827 1.374 . S
C829 C826 1.499 . S
C829 C830 1.373 . S
C829 C831 1.389 . S
C830 H803 0.950 . S
C830 C816 1.377 . S
C830 C829 1.373 . S
C831 C815 1.377 . S
C831 C829 1.389 . S
C831 C832 1.524 . S
C832 C831 1.524 . S
C832 C833 1.397 . S
C832 C837 1.363 . S
C833 H804 0.950 . S
C833 C832 1.397 . S
C833 C834 1.334 . S
C834 H805 0.950 . S
C834 C833 1.334 . S
C834 C835 1.287 . S
C835 C834 1.287 . S
C835 C836 1.524 . S
C835 H838 0.999 . S
C836 H806 0.950 . S
C836 C835 1.524 . S
C836 C837 1.415 . S
C837 H807 0.950 . S
C837 C832 1.363 . S
C837 C836 1.415 . S
H838 C835 0.999 . S
H839 C820 0.913 . S
H840 C858 0.951 . S
H841 C860 0.951 . S
H842 C862 0.950 . S
H843 C863 0.950 . S
H844 C865 0.950 . S
H845 C868 0.950 . S
H846 C869 0.950 . S
H847 C871 0.950 . S
H848 C872 0.950 . S
H849 C873 0.951 . S
H850 C875 0.951 . S
H851 C877 0.950 . S
H852 C878 0.950 . S
H853 C880 0.950 . S
H854 C883 0.950 . S
H855 C884 0.950 . S
H856 C886 0.950 . S
H857 C887 0.950 . S
C858 H840 0.951 . S
C858 C859 1.366 . S
C858 C860 1.388 . S
C859 C858 1.366 . S
C859 C863 1.385 . S
C860 H841 0.951 . S
C860 C858 1.388 . S
C860 C861 1.366 . S
C861 C860 1.366 . S
C861 C862 1.414 . S
C861 C864 1.499 . S
C862 H842 0.950 . S
C862 C861 1.414 . S
C862 C863 1.374 . S
C863 H843 0.950 . S
C863 C859 1.385 . S
C863 C862 1.374 . S
C864 C861 1.499 . S
C864 C865 1.373 . S
C864 C866 1.389 . S
C865 H844 0.950 . S
C865 C864 1.373 . S
C865 C881 1.377 . S
C866 C864 1.389 . S
C866 C867 1.524 . S
C866 C880 1.377 . S
C867 C866 1.524 . S
C867 C868 1.397 . S
C867 C872 1.363 . S
C868 H845 0.950 . S
C868 C867 1.397 . S
C868 C869 1.334 . S
C869 H846 0.950 . S
C869 C868 1.334 . S
C869 C870 1.287 . S
C870 C869 1.287 . S
C870 C871 1.524 . S
C870 H889 0.913 . S
C871 H847 0.950 . S
C871 C870 1.524 . S
C871 C872 1.415 . S
C872 H848 0.950 . S
C872 C867 1.363 . S
C872 C871 1.415 . S
C873 H849 0.951 . S
C873 C874 1.366 . S
C873 C875 1.388 . S
C874 C873 1.366 . S
C874 C878 1.385 . S
C875 H850 0.951 . S
C875 C873 1.388 . S
C875 C876 1.366 . S
C876 C875 1.366 . S
C876 C877 1.414 . S
C876 C879 1.499 . S
C877 H851 0.950 . S
C877 C876 1.414 . S
C877 C878 1.374 . S
C878 H852 0.950 . S
C878 C874 1.385 . S
C878 C877 1.374 . S
C879 C876 1.499 . S
C879 C880 1.373 . S
C879 C881 1.389 . S
C880 H853 0.950 . S
C880 C866 1.377 . S
C880 C879 1.373 . S
C881 C865 1.377 . S
C881 C879 1.389 . S
C881 C882 1.524 . S
C882 C881 1.524 . S
C882 C883 1.397 . S
C882 C887 1.363 . S
C883 H854 0.950 . S
C883 C882 1.397 . S
C883 C884 1.334 . S
C884 H855 0.950 . S
C884 C883 1.334 . S
C884 C885 1.287 . S
C885 C884 1.287 . S
C885 C886 1.524 . S
C885 H888 0.999 . S
C886 H856 0.950 . S
C886 C885 1.524 . S
C886 C887 1.415 . S
C887 H857 0.950 . S
C887 C882 1.363 . S
C887 C886 1.415 . S
H888 C885 0.999 . S
H889 C870 0.913 . S
H890 C908 0.951 . S
H891 C910 0.951 . S
H892 C912 0.950 . S
H893 C913 0.950 . S
H894 C915 0.950 . S
H895 C918 0.950 . S
H896 C919 0.950 . S
H897 C921 0.950 . S
H898 C922 0.950 . S
H899 C923 0.951 . S
H900 C925 0.951 . S
H901 C927 0.950 . S
H902 C928 0.950 . S
H903 C930 0.950 . S
H904 C933 0.950 . S
H905 C934 0.950 . S
H906 C936 0.950 . S
H907 C937 0.950 1_655 S
C908 H890 0.951 . S
C908 C909 1.366 . S
C908 C910 1.388 . S
C909 C908 1.366 . S
C909 C913 1.385 . S
C910 H891 0.951 . S
C910 C908 1.388 . S
C910 C911 1.366 . S
C911 C910 1.366 . S
C911 C912 1.414 . S
C911 C914 1.499 . S
C912 H892 0.950 . S
C912 C911 1.414 . S
C912 C913 1.374 . S
C913 H893 0.950 . S
C913 C909 1.385 . S
C913 C912 1.374 . S
C914 C911 1.499 . S
C914 C915 1.373 . S
C914 C916 1.389 . S
C915 H894 0.950 . S
C915 C914 1.373 . S
C915 C931 1.357 1_655 S
C916 C914 1.389 . S
C916 C917 1.524 . S
C916 C930 1.377 1_655 S
C917 C916 1.524 . S
C917 C918 1.397 . S
C917 C922 1.363 . S
C918 H895 0.950 . S
C918 C917 1.397 . S
C918 C919 1.334 . S
C919 H896 0.950 . S
C919 C918 1.334 . S
C919 C920 1.287 . S
C920 C919 1.287 . S
C920 C921 1.524 . S
C920 H939 0.913 . S
C921 H897 0.950 . S
C921 C920 1.524 . S
C921 C922 1.415 . S
C922 H898 0.950 . S
C922 C917 1.363 . S
C922 C921 1.415 . S
C923 H899 0.951 . S
C923 C924 1.366 . S
C923 C925 1.388 . S
C924 C923 1.366 . S
C924 C928 1.385 . S
C925 H900 0.951 . S
C925 C923 1.388 . S
C925 C926 1.366 . S
C926 C925 1.366 . S
C926 C927 1.414 . S
C926 C929 1.499 . S
C927 H901 0.950 . S
C927 C926 1.414 . S
C927 C928 1.374 . S
C928 H902 0.950 . S
C928 C924 1.385 . S
C928 C927 1.374 . S
C929 C926 1.499 . S
C929 C930 1.373 . S
C929 C931 1.400 . S
C930 H903 0.950 . S
C930 C916 1.377 1_455 S
C930 C929 1.373 . S
C931 C915 1.357 1_455 S
C931 C929 1.400 . S
C931 C932 1.532 . S
C932 C931 1.532 . S
C932 C933 1.397 . S
C932 C937 1.363 . S
C933 H904 0.950 . S
C933 C932 1.397 . S
C933 C934 1.334 . S
C934 H905 0.950 . S
C934 C933 1.334 . S
C934 C935 1.287 . S
C935 C934 1.287 . S
C935 C936 1.524 . S
C935 H938 0.999 . S
C936 H906 0.950 . S
C936 C935 1.524 . S
C936 C937 1.415 . S
C937 H907 0.950 1_455 S
C937 C932 1.363 . S
C937 C936 1.415 . S
H938 C935 0.999 . S
H939 C920 0.913 . S
H940 C958 0.951 . S
H941 C960 0.951 . S
H942 C962 0.950 . S
H943 C963 0.950 . S
H944 C965 0.950 . S
H945 C968 0.950 . S
H946 C969 0.950 . S
H947 C971 0.950 . S
H948 C972 0.950 . S
H949 C973 0.951 . S
H950 C975 0.951 . S
H951 C977 0.950 . S
H952 C978 0.950 . S
H953 C980 0.949 1_565 S
H954 C983 0.950 . S
H955 C984 0.950 . S
H956 C986 0.950 . S
H957 C987 0.950 . S
C958 H940 0.951 . S
C958 C959 1.366 . S
C958 C960 1.388 . S
C959 C958 1.366 . S
C959 C963 1.385 . S
C960 H941 0.951 . S
C960 C958 1.388 . S
C960 C961 1.366 . S
C961 C960 1.366 . S
C961 C962 1.414 . S
C961 C964 1.499 . S
C962 H942 0.950 . S
C962 C961 1.414 . S
C962 C963 1.374 . S
C963 H943 0.950 . S
C963 C959 1.385 . S
C963 C962 1.374 . S
C964 C961 1.499 . S
C964 C965 1.373 . S
C964 C966 1.389 . S
C965 H944 0.950 . S
C965 C964 1.373 . S
C965 C981 1.377 1_545 S
C966 C964 1.389 . S
C966 C967 1.524 . S
C966 C980 1.378 . S
C967 C966 1.524 . S
C967 C968 1.397 . S
C967 C972 1.363 . S
C968 H945 0.950 . S
C968 C967 1.397 . S
C968 C969 1.334 . S
C969 H946 0.950 . S
C969 C968 1.334 . S
C969 C970 1.287 . S
C970 C969 1.287 . S
C970 C971 1.524 . S
C970 H989 0.913 . S
C971 H947 0.950 . S
C971 C970 1.524 . S
C971 C972 1.415 . S
C972 H948 0.950 . S
C972 C967 1.363 . S
C972 C971 1.415 . S
C973 H949 0.951 . S
C973 C974 1.366 . S
C973 C975 1.388 . S
C974 C973 1.366 . S
C974 C978 1.385 . S
C975 H950 0.951 . S
C975 C973 1.388 . S
C975 C976 1.366 . S
C976 C975 1.366 . S
C976 C977 1.414 . S
C976 C979 1.499 . S
C977 H951 0.950 . S
C977 C976 1.414 . S
C977 C978 1.374 . S
C978 H952 0.950 . S
C978 C974 1.385 . S
C978 C977 1.374 . S
C979 C976 1.499 . S
C979 C980 1.373 1_565 S
C979 C981 1.389 . S
C980 H953 0.949 1_545 S
C980 C966 1.378 . S
C980 C979 1.373 1_545 S
C981 C965 1.377 1_565 S
C981 C979 1.389 . S
C981 C982 1.524 . S
C982 C981 1.524 . S
C982 C983 1.397 . S
C982 C987 1.363 . S
C983 H954 0.950 . S
C983 C982 1.397 . S
C983 C984 1.334 . S
C984 H955 0.950 . S
C984 C983 1.334 . S
C984 C985 1.287 . S
C985 C984 1.287 . S
C985 C986 1.524 . S
C985 H988 0.999 . S
C986 H956 0.950 . S
C986 C985 1.524 . S
C986 C987 1.415 . S
C987 H957 0.950 . S
C987 C982 1.363 . S
C987 C986 1.415 . S
H988 C985 0.999 . S
H989 C970 0.913 . S
H990 C1008 0.951 . S
H991 C1010 0.951 . S
H992 C1012 0.950 . S
H993 C1013 0.950 . S
H994 C1015 0.950 . S
H995 C1018 0.950 . S
H996 C1019 0.950 . S
H997 C1021 0.950 . S
H998 C1022 0.950 . S
H999 C1023 0.951 . S
H1000 C1025 0.951 . S
H1001 C1027 0.950 . S
H1002 C1028 0.947 . S
H1003 C1030 0.950 . S
H1004 C1033 0.950 1_545 S
H1005 C1034 0.950 . S
H1006 C1036 0.950 . S
H1007 C1037 0.950 . S
C1008 H990 0.951 . S
C1008 C1009 1.366 . S
C1008 C1010 1.388 . S
C1009 C1008 1.366 . S
C1009 C1013 1.385 . S
C1010 H991 0.951 . S
C1010 C1008 1.388 . S
C1010 C1011 1.366 . S
C1011 C1010 1.366 . S
C1011 C1012 1.414 . S
C1011 C1014 1.499 . S
C1012 H992 0.950 . S
C1012 C1011 1.414 . S
C1012 C1013 1.374 . S
C1013 H993 0.950 . S
C1013 C1009 1.385 . S
C1013 C1012 1.374 . S
C1014 C1011 1.499 . S
C1014 C1015 1.373 . S
C1014 C1016 1.389 . S
C1015 H994 0.950 . S
C1015 C1014 1.373 . S
C1015 C1031 1.377 . S
C1016 C1014 1.389 . S
C1016 C1017 1.524 . S
C1016 C1030 1.377 . S
C1017 C1016 1.524 . S
C1017 C1018 1.397 . S
C1017 C1022 1.363 . S
C1018 H995 0.950 . S
C1018 C1017 1.397 . S
C1018 C1019 1.334 . S
C1019 H996 0.950 . S
C1019 C1018 1.334 . S
C1019 C1020 1.287 . S
C1020 C1019 1.287 . S
C1020 C1021 1.524 . S
C1020 H1039 0.913 . S
C1021 H997 0.950 . S
C1021 C1020 1.524 . S
C1021 C1022 1.415 . S
C1022 H998 0.950 . S
C1022 C1017 1.363 . S
C1022 C1021 1.415 . S
C1023 H999 0.951 . S
C1023 C1024 1.366 . S
C1023 C1025 1.388 . S
C1024 C1023 1.366 . S
C1024 C1028 1.351 1_565 S
C1025 H1000 0.951 . S
C1025 C1023 1.388 . S
C1025 C1026 1.366 1_565 S
C1026 C1025 1.366 1_545 S
C1026 C1027 1.414 . S
C1026 C1029 1.499 . S
C1027 H1001 0.950 . S
C1027 C1026 1.414 . S
C1027 C1028 1.412 . S
C1028 H1002 0.947 . S
C1028 C1024 1.351 1_545 S
C1028 C1027 1.412 . S
C1029 C1026 1.499 . S
C1029 C1030 1.373 . S
C1029 C1031 1.389 . S
C1030 H1003 0.950 . S
C1030 C1016 1.377 . S
C1030 C1029 1.373 . S
C1031 C1015 1.377 . S
C1031 C1029 1.389 . S
C1031 C1032 1.524 1_545 S
C1032 C1031 1.524 1_565 S
C1032 C1033 1.397 . S
C1032 C1037 1.363 . S
C1033 H1004 0.950 1_565 S
C1033 C1032 1.397 . S
C1033 C1034 1.334 . S
C1034 H1005 0.950 . S
C1034 C1033 1.334 . S
C1034 C1035 1.287 . S
C1035 C1034 1.287 . S
C1035 C1036 1.524 . S
C1035 H1038 0.999 . S
C1036 H1006 0.950 . S
C1036 C1035 1.524 . S
C1036 C1037 1.415 . S
C1037 H1007 0.950 . S
C1037 C1032 1.363 . S
C1037 C1036 1.415 . S
H1038 C1035 0.999 . S
H1039 C1020 0.913 . S
H1040 C1058 0.951 . S
H1041 C1060 0.951 . S
H1042 C1062 0.950 . S
H1043 C1063 0.950 . S
H1044 C1065 0.950 . S
H1045 C1068 0.950 . S
H1046 C1069 0.950 . S
H1047 C1071 0.950 . S
H1048 C1072 0.950 . S
H1049 C1073 0.951 . S
H1050 C1075 0.951 . S
H1051 C1077 0.950 . S
H1052 C1078 0.950 . S
H1053 C1080 0.950 . S
H1054 C1083 0.950 . S
H1055 C1084 0.950 . S
H1056 C1086 0.950 . S
H1057 C1087 0.950 . S
C1058 H1040 0.951 . S
C1058 C1059 1.366 . S
C1058 C1060 1.388 1_455 S
C1059 C1058 1.366 . S
C1059 C1063 1.385 . S
C1060 H1041 0.951 . S
C1060 C1058 1.388 1_655 S
C1060 C1061 1.366 . S
C1061 C1060 1.366 . S
C1061 C1062 1.414 . S
C1061 C1064 1.499 . S
C1062 H1042 0.950 . S
C1062 C1061 1.414 . S
C1062 C1063 1.374 1_655 S
C1063 H1043 0.950 . S
C1063 C1059 1.385 . S
C1063 C1062 1.374 1_455 S
C1064 C1061 1.499 . S
C1064 C1065 1.373 . S
C1064 C1066 1.389 . S
C1065 H1044 0.950 . S
C1065 C1064 1.373 . S
C1065 C1081 1.377 . S
C1066 C1064 1.389 . S
C1066 C1067 1.524 . S
C1066 C1080 1.377 . S
C1067 C1066 1.524 . S
C1067 C1068 1.397 . S
C1067 C1072 1.363 . S
C1068 H1045 0.950 . S
C1068 C1067 1.397 . S
C1068 C1069 1.334 . S
C1069 H1046 0.950 . S
C1069 C1068 1.334 . S
C1069 C1070 1.287 . S
C1070 C1069 1.287 . S
C1070 C1071 1.524 . S
C1070 H1089 0.913 . S
C1071 H1047 0.950 . S
C1071 C1070 1.524 . S
C1071 C1072 1.415 . S
C1072 H1048 0.950 . S
C1072 C1067 1.363 . S
C1072 C1071 1.415 . S
C1073 H1049 0.951 . S
C1073 C1074 1.366 . S
C1073 C1075 1.388 . S
C1074 C1073 1.366 . S
C1074 C1078 1.385 . S
C1075 H1050 0.951 . S
C1075 C1073 1.388 . S
C1075 C1076 1.366 . S
C1076 C1075 1.366 . S
C1076 C1077 1.414 . S
C1076 C1079 1.499 . S
C1077 H1051 0.950 . S
C1077 C1076 1.414 . S
C1077 C1078 1.374 . S
C1078 H1052 0.950 . S
C1078 C1074 1.385 . S
C1078 C1077 1.374 . S
C1079 C1076 1.499 . S
C1079 C1080 1.373 . S
C1079 C1081 1.389 . S
C1080 H1053 0.950 . S
C1080 C1066 1.377 . S
C1080 C1079 1.373 . S
C1081 C1065 1.377 . S
C1081 C1079 1.389 . S
C1081 C1082 1.524 . S
C1082 C1081 1.524 . S
C1082 C1083 1.397 . S
C1082 C1087 1.363 . S
C1083 H1054 0.950 . S
C1083 C1082 1.397 . S
C1083 C1084 1.334 . S
C1084 H1055 0.950 . S
C1084 C1083 1.334 . S
C1084 C1085 1.287 . S
C1085 C1084 1.287 . S
C1085 C1086 1.524 . S
C1085 H1088 0.999 . S
C1086 H1056 0.950 . S
C1086 C1085 1.524 . S
C1086 C1087 1.415 . S
C1087 H1057 0.950 . S
C1087 C1082 1.363 . S
C1087 C1086 1.415 . S
H1088 C1085 0.999 . S
H1089 C1070 0.913 . S
H1090 C1108 0.951 . S
H1091 C1110 0.951 . S
H1092 C1112 0.950 . S
H1093 C1113 0.950 . S
H1094 C1115 0.950 . S
H1095 C1118 0.950 . S
H1096 C1119 0.950 . S
H1097 C1121 0.950 . S
H1098 C1122 0.950 . S
H1099 C1123 0.951 . S
H1100 C1125 0.951 . S
H1101 C1127 0.950 . S
H1102 C1128 0.950 . S
H1103 C1130 0.950 . S
H1104 C1133 0.950 . S
H1105 C1134 0.950 . S
H1106 C1136 0.950 . S
H1107 C1137 0.950 . S
C1108 H1090 0.951 . S
C1108 C1109 1.366 . S
C1108 C1110 1.388 . S
C1109 C1108 1.366 . S
C1109 C1113 1.385 . S
C1110 H1091 0.951 . S
C1110 C1108 1.388 . S
C1110 C1111 1.366 1_455 S
C1111 C1110 1.366 1_655 S
C1111 C1112 1.414 . S
C1111 C1114 1.499 . S
C1112 H1092 0.950 . S
C1112 C1111 1.414 . S
C1112 C1113 1.374 1_655 S
C1113 H1093 0.950 . S
C1113 C1109 1.385 . S
C1113 C1112 1.374 1_455 S
C1114 C1111 1.499 . S
C1114 C1115 1.373 . S
C1114 C1116 1.389 . S
C1115 H1094 0.950 . S
C1115 C1114 1.373 . S
C1115 C1131 1.377 . S
C1116 C1114 1.389 . S
C1116 C1117 1.524 1_655 S
C1116 C1130 1.377 . S
C1117 C1116 1.524 1_455 S
C1117 C1118 1.397 . S
C1117 C1122 1.363 . S
C1118 H1095 0.950 . S
C1118 C1117 1.397 . S
C1118 C1119 1.334 . S
C1119 H1096 0.950 . S
C1119 C1118 1.334 . S
C1119 C1120 1.287 . S
C1120 C1119 1.287 . S
C1120 C1121 1.524 . S
C1120 H1139 0.913 . S
C1121 H1097 0.950 . S
C1121 C1120 1.524 . S
C1121 C1122 1.415 . S
C1122 H1098 0.950 . S
C1122 C1117 1.363 . S
C1122 C1121 1.415 . S
C1123 H1099 0.951 . S
C1123 C1124 1.366 . S
C1123 C1125 1.388 1_565 S
C1124 C1123 1.366 . S
C1124 C1128 1.385 . S
C1125 H1100 0.951 . S
C1125 C1123 1.388 1_545 S
C1125 C1126 1.366 . S
C1126 C1125 1.366 . S
C1126 C1127 1.414 . S
C1126 C1129 1.499 . S
C1127 H1101 0.950 . S
C1127 C1126 1.414 . S
C1127 C1128 1.374 1_545 S
C1128 H1102 0.950 . S
C1128 C1124 1.385 . S
C1128 C1127 1.374 1_565 S
C1129 C1126 1.499 . S
C1129 C1130 1.373 . S
C1129 C1131 1.389 . S
C1130 H1103 0.950 . S
C1130 C1116 1.377 . S
C1130 C1129 1.373 . S
C1131 C1115 1.377 . S
C1131 C1129 1.389 . S
C1131 C1132 1.524 . S
C1132 C1131 1.524 . S
C1132 C1133 1.397 . S
C1132 C1137 1.363 . S
C1133 H1104 0.950 . S
C1133 C1132 1.397 . S
C1133 C1134 1.334 . S
C1134 H1105 0.950 . S
C1134 C1133 1.334 . S
C1134 C1135 1.287 . S
C1135 C1134 1.287 . S
C1135 C1136 1.524 . S
C1135 H1138 0.999 . S
C1136 H1106 0.950 . S
C1136 C1135 1.524 . S
C1136 C1137 1.415 . S
C1137 H1107 0.950 . S
C1137 C1132 1.363 . S
C1137 C1136 1.415 . S
H1138 C1135 0.999 . S
H1139 C1120 0.913 . S
C259 C178 2.531 . S
C274 C9 2.241 . S
C309 C209 2.251 . S
C324 C58 2.528 . S
C359 C89 2.240 . S
C374 C138 2.530 . S
C409 C18 2.528 . S
C424 C169 2.251 . S
C459 C218 2.531 . S
C474 C49 2.241 . S
C509 C98 2.528 . S
C524 C129 2.252 . S
C559 C19 2.035 . S
C574 C95 1.989 . S
C609 C59 2.035 . S
C624 C15 1.989 . S
C659 C99 2.035 . S
C674 C55 1.989 . S
C709 C126 1.913 . S
C724 C170 1.869 . S
C759 C166 1.913 . S
C774 C210 1.868 . S
C809 C130 1.869 . S
C824 C206 1.913 . S
C859 C10 0.926 . S
C874 C86 0.940 . S
C909 C50 0.926 . S
C924 C6 0.940 . S
C959 C90 0.925 . S
C974 C46 0.940 . S
C1009 C135 1.044 . S
C1024 C179 1.067 . S
C1059 C175 1.044 . S
C1074 C219 1.067 . S
C1109 C139 1.067 . S
C1124 C215 1.045 . S
