# Generated by pormake.
# Topology mon, (4)-cn, num edge types: 1
# Building blocks:
#     Node 0, Type 0, BuildingBlock: ICAMEG_clean_sbu_1, # of connection points: 4
#     Node 1, Type 0, BuildingBlock: ICAMEG_clean_sbu_1, # of connection points: 4
#     Node 2, Type 0, BuildingBlock: ICAMEG_clean_sbu_1, # of connection points: 4
#     Node 3, Type 0, BuildingBlock: ICAMEG_clean_sbu_1, # of connection points: 4
#     Node 4, Type 0, BuildingBlock: ICAMEG_clean_sbu_1, # of connection points: 4
#     Node 5, Type 0, BuildingBlock: ICAMEG_clean_sbu_1, # of connection points: 4
#     Node 6, Type 0, BuildingBlock: ICAMEG_clean_sbu_1, # of connection points: 4
#     Node 7, Type 0, BuildingBlock: ICAMEG_clean_sbu_1, # of connection points: 4
#     Node 8, Type 0, BuildingBlock: ICAMEG_clean_sbu_1, # of connection points: 4
#     Node 9, Type 0, BuildingBlock: ICAMEG_clean_sbu_1, # of connection points: 4
#     Node 10, Type 0, BuildingBlock: ICAMEG_clean_sbu_1, # of connection points: 4
#     Node 11, Type 0, BuildingBlock: ICAMEG_clean_sbu_1, # of connection points: 4
#     Node 12, Type 0, BuildingBlock: ICAMEG_clean_sbu_1, # of connection points: 4
#     Node 13, Type 0, BuildingBlock: ICAMEG_clean_sbu_1, # of connection points: 4
#     Node 14, Type 0, BuildingBlock: ICAMEG_clean_sbu_1, # of connection points: 4
#     Node 15, Type 0, BuildingBlock: ICAMEG_clean_sbu_1, # of connection points: 4
#     Edge 16, Type (0, 0), BuildingBlock: CIFDUS_clean_linker_0, # of connection points: 2
#     Edge 17, Type (0, 0), BuildingBlock: CIFDUS_clean_linker_0, # of connection points: 2
#     Edge 18, Type (0, 0), BuildingBlock: CIFDUS_clean_linker_0, # of connection points: 2
#     Edge 19, Type (0, 0), BuildingBlock: CIFDUS_clean_linker_0, # of connection points: 2
#     Edge 20, Type (0, 0), BuildingBlock: CIFDUS_clean_linker_0, # of connection points: 2
#     Edge 21, Type (0, 0), BuildingBlock: CIFDUS_clean_linker_0, # of connection points: 2
#     Edge 22, Type (0, 0), BuildingBlock: CIFDUS_clean_linker_0, # of connection points: 2
#     Edge 23, Type (0, 0), BuildingBlock: CIFDUS_clean_linker_0, # of connection points: 2
#     Edge 24, Type (0, 0), BuildingBlock: CIFDUS_clean_linker_0, # of connection points: 2
#     Edge 25, Type (0, 0), BuildingBlock: CIFDUS_clean_linker_0, # of connection points: 2
#     Edge 26, Type (0, 0), BuildingBlock: CIFDUS_clean_linker_0, # of connection points: 2
#     Edge 27, Type (0, 0), BuildingBlock: CIFDUS_clean_linker_0, # of connection points: 2
#     Edge 28, Type (0, 0), BuildingBlock: CIFDUS_clean_linker_0, # of connection points: 2
#     Edge 29, Type (0, 0), BuildingBlock: CIFDUS_clean_linker_0, # of connection points: 2
#     Edge 30, Type (0, 0), BuildingBlock: CIFDUS_clean_linker_0, # of connection points: 2
#     Edge 31, Type (0, 0), BuildingBlock: CIFDUS_clean_linker_0, # of connection points: 2
#     Edge 32, Type (0, 0), BuildingBlock: CIFDUS_clean_linker_0, # of connection points: 2
#     Edge 33, Type (0, 0), BuildingBlock: CIFDUS_clean_linker_0, # of connection points: 2
#     Edge 34, Type (0, 0), BuildingBlock: CIFDUS_clean_linker_0, # of connection points: 2
#     Edge 35, Type (0, 0), BuildingBlock: CIFDUS_clean_linker_0, # of connection points: 2
#     Edge 36, Type (0, 0), BuildingBlock: CIFDUS_clean_linker_0, # of connection points: 2
#     Edge 37, Type (0, 0), BuildingBlock: CIFDUS_clean_linker_0, # of connection points: 2
#     Edge 38, Type (0, 0), BuildingBlock: CIFDUS_clean_linker_0, # of connection points: 2
#     Edge 39, Type (0, 0), BuildingBlock: CIFDUS_clean_linker_0, # of connection points: 2
#     Edge 40, Type (0, 0), BuildingBlock: CIFDUS_clean_linker_0, # of connection points: 2
#     Edge 41, Type (0, 0), BuildingBlock: CIFDUS_clean_linker_0, # of connection points: 2
#     Edge 42, Type (0, 0), BuildingBlock: CIFDUS_clean_linker_0, # of connection points: 2
#     Edge 43, Type (0, 0), BuildingBlock: CIFDUS_clean_linker_0, # of connection points: 2
#     Edge 44, Type (0, 0), BuildingBlock: CIFDUS_clean_linker_0, # of connection points: 2
#     Edge 45, Type (0, 0), BuildingBlock: CIFDUS_clean_linker_0, # of connection points: 2
#     Edge 46, Type (0, 0), BuildingBlock: CIFDUS_clean_linker_0, # of connection points: 2
#     Edge 47, Type (0, 0), BuildingBlock: CIFDUS_clean_linker_0, # of connection points: 2
# Relax obj value: 0.222
# Max RMSD: 0.232
# Mean RMSD: 0.232
data_MOF--net-mon--node1-ICAMEG_clean_sbu_1--edge1-CIFDUS_clean_linker_0
_symmetry_space_group_name_H-M    P1
_symmetry_Int_Tables_number       1
_symmetry_cell_setting            triclinic
loop_
_symmetry_equiv_pos_as_xyz
'x, y, z'
_cell_length_a     30.423719
_cell_length_b     30.422892
_cell_length_c     83.668809
_cell_angle_alpha  90.1025
_cell_angle_beta   90.00047
_cell_angle_gamma 90.01817
loop_
_atom_site_label
_atom_site_type_symbol
_atom_site_fract_x
_atom_site_fract_y
_atom_site_fract_z
_atom_type_partial_charge
Co0 Co 0.98982 0.96728 0.58245 0.0
Co1 Co 0.01087 0.03948 0.61307 0.0
O2 O 0.0087 0.0256 0.59002 0.0
C3 C 0.05767 0.99783 0.55799 0.0
O4 O 0.0656 0.03419 0.56593 0.0
C5 C 0.99129 0.12645 0.59642 0.0
O6 O 0.99187 0.10824 0.5822 0.0
O7 O 0.94719 0.02456 0.61514 0.0
O8 O 0.94639 0.96266 0.60051 0.0
H9 H 0.98332 0.01011 0.6714 0.0
H10 H 0.98478 0.04578 0.56086 0.0
O11 O 0.03146 0.96898 0.56361 0.0
H12 H 0.83632 0.98152 0.56045 0.0
H13 H 0.94992 0.85173 0.54164 0.0
H14 H 0.97051 0.88338 0.59898 0.0
H15 H 0.89539 0.94763 0.57628 0.0
H16 H 0.97142 0.92588 0.55063 0.0
O17 O 0.99586 0.10323 0.609 0.0
H18 H 0.98217 0.99327 0.64261 0.0
H19 H 0.04375 0.11539 0.63242 0.0
H20 H 0.94842 0.80893 0.59051 0.0
H21 H 0.92713 0.08027 0.54467 0.0
H22 H 0.93804 0.79269 0.56165 0.0
H23 H 0.85203 0.04826 0.54439 0.0
O24 O 0.0366 0.93945 0.59586 0.0
H25 H 0.14692 0.10544 0.58797 0.0
H26 H 0.08959 0.01504 0.6321 0.0
H27 H 0.16902 0.0292 0.63031 0.0
H28 H 0.19828 0.07494 0.60817 0.0
H29 H 0.0681 0.08997 0.59006 0.0
H30 H 0.04516 0.1337 0.6611 0.0
H31 H 0.01491 0.08085 0.68084 0.0
O32 O 0.02598 0.97729 0.61848 0.0
C33 C 0.92934 0.98824 0.61095 0.0
C34 C 0.99649 0.03349 0.66292 0.0
C35 C 0.03111 0.10287 0.65714 0.0
N36 N 0.01235 0.05345 0.63577 0.0
C37 C 0.99589 0.02414 0.64658 0.0
C38 C 0.02993 0.09241 0.64088 0.0
C39 C 0.01419 0.07318 0.66821 0.0
C40 C 0.95261 0.03122 0.56076 0.0
N41 N 0.9439 0.99441 0.56954 0.0
C42 C 0.91986 0.05111 0.55158 0.0
C43 C 0.87774 0.0332 0.55144 0.0
C44 C 0.8689 0.99581 0.56046 0.0
C45 C 0.9025 0.97686 0.56949 0.0
C46 C 0.95432 0.85841 0.55425 0.0
C47 C 0.96581 0.87668 0.58641 0.0
C48 C 0.96669 0.90031 0.55942 0.0
N49 N 0.97206 0.90908 0.57534 0.0
C50 C 0.95341 0.83441 0.58168 0.0
C51 C 0.94763 0.82531 0.56549 0.0
C52 C 0.04113 0.94429 0.61093 0.0
C53 C 0.13456 0.08574 0.59775 0.0
C54 C 0.10183 0.035 0.62241 0.0
C55 C 0.14697 0.04292 0.62147 0.0
C56 C 0.16337 0.06856 0.60906 0.0
N57 N 0.07355 0.05228 0.61135 0.0
C58 C 0.08961 0.0771 0.59907 0.0
Co59 Co 0.29642 0.73325 0.83101 0.0
Co60 Co 0.22883 0.76436 0.862 0.0
O61 O 0.2397 0.7556 0.83893 0.0
C62 C 0.26473 0.7965 0.8051 0.0
O63 O 0.22889 0.80644 0.81303 0.0
C64 C 0.13988 0.74017 0.84757 0.0
O65 O 0.15659 0.73643 0.83319 0.0
O66 O 0.24381 0.70148 0.86621 0.0
O67 O 0.30265 0.69431 0.85026 0.0
H68 H 0.26581 0.75232 0.92043 0.0
H69 H 0.21541 0.72551 0.81071 0.0
O70 O 0.2933 0.77056 0.81106 0.0
H71 H 0.27471 0.57541 0.81451 0.0
H72 H 0.4047 0.6802 0.78962 0.0
H73 H 0.3822 0.71583 0.84656 0.0
H74 H 0.31229 0.63708 0.82778 0.0
H75 H 0.33253 0.70593 0.79922 0.0
O76 O 0.16446 0.74853 0.85957 0.0
H77 H 0.27856 0.74291 0.89156 0.0
H78 H 0.15592 0.80339 0.88134 0.0
H79 H 0.45474 0.6897 0.83748 0.0
H80 H 0.17722 0.66518 0.79704 0.0
H81 H 0.46637 0.67173 0.80882 0.0
H82 H 0.20669 0.58925 0.79889 0.0
O83 O 0.32735 0.78206 0.84235 0.0
H84 H 0.15958 0.89265 0.83308 0.0
H85 H 0.25565 0.84803 0.87759 0.0
H86 H 0.24114 0.92655 0.87308 0.0
H87 H 0.19256 0.94943 0.85074 0.0
H88 H 0.17542 0.81479 0.83784 0.0
H89 H 0.14167 0.81303 0.91012 0.0
H90 H 0.1969 0.78755 0.9299 0.0
O91 O 0.29175 0.78091 0.86575 0.0
C92 C 0.27877 0.68137 0.86189 0.0
C93 C 0.24145 0.7635 0.91194 0.0
C94 C 0.17176 0.7975 0.90614 0.0
N95 N 0.21795 0.77227 0.88472 0.0
C96 C 0.24849 0.75826 0.89555 0.0
C97 C 0.17992 0.7917 0.88985 0.0
C98 C 0.20278 0.78324 0.91724 0.0
C99 C 0.22888 0.69297 0.81152 0.0
N100 N 0.26634 0.68525 0.82007 0.0
C101 C 0.20689 0.65871 0.80377 0.0
C102 C 0.22338 0.61612 0.80483 0.0
C103 C 0.26148 0.60834 0.8136 0.0
C104 C 0.28254 0.64343 0.82119 0.0
C105 C 0.40002 0.68789 0.80214 0.0
C106 C 0.38688 0.70782 0.83408 0.0
C107 C 0.35926 0.70263 0.80765 0.0
N108 N 0.35303 0.71215 0.82347 0.0
C109 C 0.42809 0.69315 0.82901 0.0
C110 C 0.43461 0.68311 0.81292 0.0
C111 C 0.32436 0.79219 0.85713 0.0
C112 C 0.18054 0.8831 0.84293 0.0
C113 C 0.23446 0.85748 0.86781 0.0
C114 C 0.22635 0.90213 0.86534 0.0
C115 C 0.19911 0.91495 0.85282 0.0
N116 N 0.2158 0.82624 0.85816 0.0
C117 C 0.18941 0.83875 0.84577 0.0
Co118 Co 0.5401 0.03921 0.07972 0.0
Co119 Co 0.51419 0.96467 0.10904 0.0
O120 O 0.52163 0.98032 0.08648 0.0
C121 C 0.47235 0.00905 0.05556 0.0
O122 O 0.458 0.97918 0.06553 0.0
C123 C 0.56104 0.87949 0.11093 0.0
O124 O 0.5864 0.89737 0.12187 0.0
O125 O 0.57618 0.98255 0.11348 0.0
O126 O 0.58058 0.04397 0.09866 0.0
H127 H 0.52729 0.98781 0.16839 0.0
H128 H 0.5481 0.96138 0.05826 0.0
O129 O 0.50177 0.03641 0.05994 0.0
H130 H 0.6965 0.02609 0.06046 0.0
H131 H 0.58428 0.15615 0.04021 0.0
H132 H 0.55545 0.12303 0.09692 0.0
H133 H 0.6353 0.05971 0.07538 0.0
H134 H 0.56256 0.08151 0.04848 0.0
O135 O 0.53263 0.90296 0.10371 0.0
H136 H 0.53581 0.00733 0.13999 0.0
H137 H 0.47566 0.88726 0.12609 0.0
H138 H 0.57765 0.19799 0.08919 0.0
H139 H 0.60809 0.92713 0.04295 0.0
H140 H 0.59218 0.21496 0.06064 0.0
H141 H 0.68303 0.95941 0.04399 0.0
O142 O 0.49103 0.06617 0.09244 0.0
H143 H 0.39342 0.88525 0.07971 0.0
H144 H 0.42765 0.98753 0.12376 0.0
H145 H 0.35061 0.96747 0.11844 0.0
H146 H 0.33303 0.91577 0.09634 0.0
H147 H 0.46996 0.90701 0.08516 0.0
H148 H 0.46651 0.86637 0.15434 0.0
H149 H 0.49246 0.91679 0.17573 0.0
O150 O 0.49525 0.02547 0.11472 0.0
C151 C 0.59498 0.01866 0.10967 0.0
C152 C 0.51602 0.96545 0.15918 0.0
C153 C 0.48191 0.89732 0.15129 0.0
N154 N 0.50687 0.94829 0.13135 0.0
C155 C 0.52089 0.9763 0.14307 0.0
C156 C 0.48731 0.9093 0.13531 0.0
C157 C 0.49646 0.92563 0.16329 0.0
C158 C 0.58039 0.97601 0.05868 0.0
N159 N 0.58795 0.01288 0.06763 0.0
C160 C 0.61435 0.95628 0.05002 0.0
C161 C 0.6564 0.97436 0.05063 0.0
C162 C 0.66398 0.01174 0.05988 0.0
C163 C 0.62921 0.03057 0.06836 0.0
C164 C 0.57805 0.14916 0.05269 0.0
C165 C 0.56195 0.13007 0.08449 0.0
C166 C 0.56555 0.10698 0.05744 0.0
N167 N 0.55789 0.09782 0.07319 0.0
C168 C 0.5744 0.17262 0.08017 0.0
C169 C 0.58251 0.18213 0.06416 0.0
C170 C 0.48302 0.05982 0.10727 0.0
C171 C 0.40065 0.9078 0.08938 0.0
C172 C 0.42035 0.96557 0.11395 0.0
C173 C 0.37661 0.95406 0.11107 0.0
C174 C 0.36678 0.92499 0.0987 0.0
N175 N 0.45344 0.94869 0.10473 0.0
C176 C 0.444 0.92007 0.0926 0.0
Co177 Co 0.21772 0.2789 0.32528 0.0
Co178 Co 0.29245 0.24139 0.35301 0.0
O179 O 0.2755 0.25538 0.33097 0.0
C180 C 0.24182 0.21531 0.29856 0.0
O181 O 0.27662 0.20195 0.30638 0.0
C182 C 0.38099 0.28149 0.35597 0.0
O183 O 0.36706 0.30084 0.36908 0.0
O184 O 0.27785 0.30269 0.35999 0.0
O185 O 0.21782 0.31642 0.34506 0.0
H186 H 0.27466 0.23862 0.41277 0.0
H187 H 0.29529 0.28567 0.30346 0.0
O188 O 0.21552 0.24313 0.30483 0.0
H189 H 0.23915 0.43679 0.30898 0.0
H190 H 0.10058 0.33661 0.28819 0.0
H191 H 0.13694 0.29768 0.34382 0.0
H192 H 0.20282 0.37549 0.3229 0.0
H193 H 0.17426 0.30874 0.29506 0.0
O194 O 0.35436 0.25893 0.34753 0.0
H195 H 0.25359 0.25632 0.38508 0.0
H196 H 0.36877 0.19389 0.36762 0.0
H197 H 0.06303 0.32599 0.33749 0.0
H198 H 0.33209 0.34574 0.28912 0.0
H199 H 0.04443 0.34561 0.30949 0.0
H200 H 0.30415 0.42208 0.29183 0.0
O201 O 0.18811 0.23003 0.33714 0.0
H202 H 0.36352 0.12617 0.31835 0.0
H203 H 0.26633 0.1522 0.36455 0.0
H204 H 0.28188 0.07628 0.35603 0.0
H205 H 0.33096 0.0628 0.33281 0.0
H206 H 0.34644 0.20162 0.32705 0.0
H207 H 0.39113 0.17543 0.39511 0.0
H208 H 0.34398 0.19792 0.41794 0.0
O209 O 0.23136 0.22361 0.35871 0.0
C210 C 0.24375 0.32556 0.35663 0.0
C211 C 0.29566 0.2289 0.40294 0.0
C212 C 0.36097 0.19339 0.39302 0.0
N213 N 0.31023 0.22698 0.37474 0.0
C214 C 0.28397 0.23905 0.38723 0.0
C215 C 0.34816 0.20404 0.37748 0.0
C216 C 0.33451 0.20601 0.40582 0.0
C217 C 0.28241 0.31851 0.30459 0.0
N218 N 0.2464 0.32673 0.31389 0.0
C219 C 0.30364 0.35255 0.29648 0.0
C220 C 0.28801 0.39538 0.29803 0.0
C221 C 0.25157 0.40365 0.30765 0.0
C222 C 0.2312 0.36878 0.31556 0.0
C223 C 0.1083 0.3282 0.30043 0.0
C224 C 0.12921 0.30643 0.33163 0.0
C225 C 0.14993 0.31222 0.30439 0.0
N226 N 0.16001 0.30178 0.31986 0.0
C227 C 0.08725 0.32232 0.32811 0.0
C228 C 0.07682 0.33328 0.31239 0.0
C229 C 0.19532 0.21679 0.35139 0.0
C230 C 0.34207 0.1316 0.32849 0.0
C231 C 0.2872 0.14677 0.35429 0.0
C232 C 0.29614 0.10362 0.34959 0.0
C233 C 0.32375 0.09608 0.33659 0.0
N234 N 0.30518 0.18153 0.34625 0.0
C235 C 0.33241 0.17432 0.33352 0.0
Co236 Co 0.99543 0.04469 0.43791 0.0
Co237 Co 0.02699 0.97554 0.40742 0.0
O238 O 0.01823 0.98784 0.43039 0.0
C239 C 0.06074 0.0162 0.4636 0.0
O240 O 0.07157 0.98058 0.45567 0.0
C241 C 0.9893 0.89201 0.42091 0.0
O242 O 0.96474 0.9147 0.43082 0.0
O243 O 0.96386 0.98909 0.40297 0.0
O244 O 0.95523 0.0481 0.41888 0.0
H245 H 0.01546 0.00669 0.34853 0.0
H246 H 0.99078 0.96431 0.45859 0.0
O247 O 0.03384 0.04389 0.45764 0.0
H248 H 0.83959 0.02158 0.45645 0.0
H249 H 0.94294 0.15553 0.47855 0.0
H250 H 0.97465 0.12846 0.42158 0.0
H251 H 0.8993 0.05918 0.4421 0.0
H252 H 0.96967 0.08313 0.46955 0.0
O253 O 0.01354 0.9116 0.41079 0.0
H254 H 1.00504 0.0219 0.3772 0.0
H255 H 0.06855 0.90207 0.38911 0.0
H256 H 0.94739 0.20117 0.43005 0.0
H257 H 0.93251 0.92643 0.47345 0.0
H258 H 0.9314 0.21511 0.45872 0.0
H259 H 0.85604 0.95482 0.47241 0.0
O260 O 0.04295 0.07594 0.42593 0.0
H261 H 0.15272 0.90551 0.43693 0.0
H262 H 0.11171 1.00469 0.39284 0.0
H263 H 0.19 0.9906 0.39836 0.0
H264 H 0.21097 0.94057 0.42052 0.0
H265 H 0.07482 0.9209 0.43113 0.0
H266 H 0.07929 0.88535 0.36056 0.0
H267 H 0.05276 0.9379 0.34002 0.0
O268 O 0.04178 0.03823 0.40295 0.0
C269 C 0.9428 0.02353 0.40732 0.0
C270 C 0.02703 0.98344 0.35736 0.0
C271 C 0.06279 0.91533 0.36411 0.0
N272 N 0.03563 0.96275 0.38487 0.0
C273 C 0.02115 0.99186 0.37363 0.0
C274 C 0.05634 0.92488 0.38027 0.0
C275 C 0.04796 0.94485 0.35259 0.0
C276 C 0.95805 0.97762 0.45827 0.0
N277 N 0.9489 0.01445 0.44956 0.0
C278 C 0.92494 0.95566 0.46663 0.0
C279 C 0.88204 0.97151 0.466 0.0
C280 C 0.87278 0.0089 0.45704 0.0
C281 C 0.90675 0.02995 0.44884 0.0
C282 C 0.94976 0.14985 0.46602 0.0
C283 C 0.9675 0.13415 0.43406 0.0
C284 C 0.9651 0.10896 0.46085 0.0
N285 N 0.97354 0.10145 0.44502 0.0
C286 C 0.95219 0.17544 0.4388 0.0
C287 C 0.94326 0.18325 0.45489 0.0
C288 C 0.05223 0.07195 0.41112 0.0
C289 C 0.144 0.92734 0.42724 0.0
C290 C 0.1205 0.98316 0.40259 0.0
C291 C 0.16492 0.97516 0.40562 0.0
C292 C 0.17667 0.94706 0.41804 0.0
N293 N 0.08861 0.96371 0.41168 0.0
C294 C 0.09991 0.93611 0.42387 0.0
Co295 Co 0.22559 0.73217 0.68415 0.0
Co296 Co 0.30897 0.75786 0.6578 0.0
O297 O 0.28648 0.74949 0.67959 0.0
C298 C 0.2507 0.79669 0.71042 0.0
O299 O 0.28777 0.80612 0.70323 0.0
C300 C 0.39251 0.70774 0.65835 0.0
O301 O 0.37633 0.68339 0.64678 0.0
O302 O 0.28976 0.69693 0.65179 0.0
O303 O 0.22597 0.69139 0.66529 0.0
H304 H 0.30269 0.75107 0.59778 0.0
H305 H 0.29845 0.72196 0.70792 0.0
O306 O 0.22279 0.7712 0.70377 0.0
H307 H 0.22816 0.57639 0.70445 0.0
H308 H 0.09646 0.69192 0.71901 0.0
H309 H 0.14718 0.71751 0.66383 0.0
H310 H 0.2007 0.63813 0.68831 0.0
H311 H 0.17365 0.7116 0.71364 0.0
O312 O 0.36828 0.73647 0.66511 0.0
H313 H 0.27452 0.74141 0.62516 0.0
H314 H 0.39244 0.79442 0.64427 0.0
H315 H 0.06982 0.69732 0.66866 0.0
H316 H 0.32637 0.66149 0.72447 0.0
H317 H 0.04399 0.68444 0.69642 0.0
H318 H 0.29127 0.58792 0.72281 0.0
O319 O 0.20287 0.7812 0.67042 0.0
H320 H 0.38326 0.87249 0.69181 0.0
H321 H 0.29442 0.8465 0.64343 0.0
H322 H 0.31565 0.92213 0.65059 0.0
H323 H 0.36059 0.93555 0.67489 0.0
H324 H 0.3606 0.79743 0.68439 0.0
H325 H 0.42192 0.80478 0.61711 0.0
H326 H 0.37699 0.78294 0.59361 0.0
O327 O 0.25109 0.77997 0.65019 0.0
C328 C 0.25313 0.67781 0.65473 0.0
C329 C 0.32274 0.76041 0.60792 0.0
C330 C 0.38962 0.79058 0.61876 0.0
N331 N 0.33206 0.76637 0.63634 0.0
C332 C 0.30704 0.75474 0.62346 0.0
C333 C 0.37278 0.78447 0.63412 0.0
C334 C 0.36439 0.77834 0.60558 0.0
C335 C 0.28243 0.69043 0.70723 0.0
N336 N 0.24738 0.68404 0.69727 0.0
C337 C 0.29866 0.65611 0.71659 0.0
C338 C 0.27902 0.61482 0.71563 0.0
C339 C 0.24365 0.60833 0.70533 0.0
C340 C 0.22831 0.64344 0.69617 0.0
C341 C 0.10733 0.69742 0.70686 0.0
C342 C 0.13629 0.71166 0.67594 0.0
C343 C 0.15099 0.70878 0.70375 0.0
N344 N 0.16504 0.71552 0.68841 0.0
C345 C 0.0924 0.70037 0.6786 0.0
C346 C 0.07791 0.69319 0.69418 0.0
C347 C 0.21431 0.79123 0.65618 0.0
C348 C 0.36367 0.86708 0.68118 0.0
C349 C 0.31343 0.852 0.65415 0.0
C350 C 0.32562 0.89494 0.65808 0.0
C351 C 0.3509 0.90244 0.67171 0.0
N352 N 0.326 0.81744 0.66353 0.0
C353 C 0.35086 0.82458 0.67688 0.0
Co354 Co 0.53454 0.9821 0.93579 0.0
Co355 Co 0.50153 0.04174 0.9033 0.0
O356 O 0.51122 0.03643 0.92645 0.0
C357 C 0.4711 0.01929 0.96044 0.0
O358 O 0.45845 0.05008 0.95051 0.0
C359 C 0.54069 0.12872 0.91267 0.0
O360 O 0.57077 0.10863 0.92121 0.0
O361 O 0.56488 0.0286 0.89932 0.0
O362 O 0.57308 0.97247 0.91648 0.0
H363 H 0.51399 0.99447 0.84584 0.0
H364 H 0.54132 0.06843 0.95286 0.0
O365 O 0.49818 0.9897 0.95593 0.0
H366 H 0.69227 0.01027 0.95107 0.0
H367 H 0.59066 0.88414 0.97986 0.0
H368 H 0.55313 0.89358 0.92263 0.0
H369 H 0.63111 0.96843 0.93922 0.0
H370 H 0.56335 0.95353 0.96838 0.0
O371 O 0.51313 0.10653 0.90456 0.0
H372 H 0.52505 0.98785 0.8749 0.0
H373 H 0.45786 0.10844 0.88249 0.0
H374 H 0.58087 0.8237 0.93359 0.0
H375 H 0.60118 0.11084 0.96513 0.0
H376 H 0.5998 0.81865 0.9624 0.0
H377 H 0.67749 0.08195 0.96426 0.0
O378 O 0.4856 0.948 0.92559 0.0
H379 H 0.37418 0.11752 0.93 0.0
H380 H 0.41744 0.00625 0.89008 0.0
H381 H 0.33888 0.01997 0.89515 0.0
H382 H 0.31675 0.07605 0.9152 0.0
H383 H 0.45241 0.10235 0.92472 0.0
H384 H 0.44643 0.11657 0.8535 0.0
H385 H 0.47446 0.05925 0.83494 0.0
O386 O 0.48824 0.97767 0.90118 0.0
C387 C 0.58571 0.9948 0.90437 0.0
C388 C 0.50169 0.01972 0.8538 0.0
C389 C 0.46384 0.08827 0.85809 0.0
N390 N 0.49246 0.04784 0.88042 0.0
C391 C 0.50787 0.01616 0.87028 0.0
C392 C 0.47065 0.08359 0.87451 0.0
C393 C 0.47953 0.05607 0.84769 0.0
C394 C 0.57404 0.055 0.95266 0.0
N395 N 0.58228 0.0154 0.94553 0.0
C396 C 0.60802 0.07947 0.95953 0.0
C397 C 0.65083 0.06332 0.959 0.0
C398 C 0.65914 0.02315 0.95159 0.0
C399 C 0.62433 0.99962 0.94485 0.0
C400 C 0.58254 0.88594 0.96728 0.0
C401 C 0.56154 0.89174 0.93516 0.0
C402 C 0.56688 0.92511 0.96072 0.0
N403 N 0.55682 0.9277 0.94482 0.0
C404 C 0.57712 0.85204 0.94131 0.0
C405 C 0.5877 0.84922 0.95748 0.0
C406 C 0.47635 0.94733 0.9107 0.0
C407 C 0.3834 0.09295 0.92125 0.0
C408 C 0.40818 0.03035 0.89897 0.0
C409 C 0.36358 0.03815 0.90172 0.0
C410 C 0.35119 0.06965 0.91295 0.0
N411 N 0.43962 0.05319 0.90721 0.0
C412 C 0.42768 0.08425 0.91819 0.0
Co413 Co 0.29576 0.27239 0.1798 0.0
Co414 Co 0.21825 0.25594 0.15036 0.0
O415 O 0.23555 0.25728 0.17309 0.0
C416 C 0.26322 0.20568 0.20413 0.0
O417 O 0.22649 0.1997 0.19623 0.0
C418 C 0.13592 0.28283 0.16862 0.0
O419 O 0.15613 0.2811 0.18244 0.0
O420 O 0.23771 0.31824 0.14784 0.0
O421 O 0.3004 0.31671 0.16206 0.0
H422 H 0.24139 0.2801 0.09147 0.0
H423 H 0.21985 0.28079 0.20262 0.0
O424 O 0.29364 0.22984 0.19837 0.0
H425 H 0.29397 0.42454 0.20365 0.0
H426 H 0.41842 0.30239 0.21891 0.0
H427 H 0.37844 0.28828 0.16202 0.0
H428 H 0.32235 0.36458 0.1868 0.0
H429 H 0.34209 0.28595 0.21105 0.0
O430 O 0.15671 0.2761 0.15561 0.0
H431 H 0.26237 0.28018 0.1199 0.0
H432 H 0.13727 0.22903 0.1326 0.0
H433 H 0.45506 0.30531 0.16937 0.0
H434 H 0.19091 0.33925 0.21985 0.0
H435 H 0.47549 0.31242 0.198 0.0
H436 H 0.22785 0.41203 0.22045 0.0
O437 O 0.31971 0.22517 0.16554 0.0
H438 H 0.14379 0.12617 0.17669 0.0
H439 H 0.23395 0.17519 0.13117 0.0
H440 H 0.21333 0.09727 0.13332 0.0
H441 H 0.16768 0.07221 0.15616 0.0
H442 H 0.16567 0.20335 0.17424 0.0
H443 H 0.11484 0.22869 0.10432 0.0
H444 H 0.16708 0.25426 0.0835 0.0
O445 O 0.27807 0.23578 0.14386 0.0
C446 C 0.27475 0.33474 0.15189 0.0
C447 C 0.21824 0.26905 0.10043 0.0
C448 C 0.14722 0.24026 0.10764 0.0
N449 N 0.20097 0.25526 0.12798 0.0
C450 C 0.22992 0.26914 0.11657 0.0
C451 C 0.16005 0.24082 0.12367 0.0
C452 C 0.17656 0.25455 0.09597 0.0
C453 C 0.23648 0.31192 0.20279 0.0
N454 N 0.27286 0.3189 0.19356 0.0
C455 C 0.21976 0.34515 0.21259 0.0
C456 C 0.24044 0.38598 0.21291 0.0
C457 C 0.27747 0.39302 0.20348 0.0
C458 C 0.29322 0.35897 0.19384 0.0
C459 C 0.40992 0.2994 0.2064 0.0
C460 C 0.38698 0.29161 0.1745 0.0
C461 C 0.36676 0.2899 0.20186 0.0
N462 N 0.35569 0.28636 0.18607 0.0
C463 C 0.43046 0.30113 0.17859 0.0
C464 C 0.44192 0.30506 0.19466 0.0
C465 C 0.31201 0.22001 0.15064 0.0
C466 C 0.16348 0.13671 0.16663 0.0
C467 C 0.21421 0.16476 0.14121 0.0
C468 C 0.20256 0.12047 0.14233 0.0
C469 C 0.17695 0.10644 0.15513 0.0
N470 N 0.20066 0.19451 0.15248 0.0
C471 C 0.17579 0.18074 0.16511 0.0
Co472 Co 0.72916 0.22515 0.18763 0.0
Co473 Co 0.79445 0.26765 0.15786 0.0
O474 O 0.78354 0.25383 0.18051 0.0
C475 C 0.75161 0.29095 0.21385 0.0
O476 O 0.7809 0.31043 0.20482 0.0
C477 C 0.87909 0.2297 0.16969 0.0
O478 O 0.85705 0.19983 0.17765 0.0
O479 O 0.78472 0.2049 0.1517 0.0
O480 O 0.72768 0.1885 0.16766 0.0
H481 H 0.76202 0.26626 0.0989 0.0
H482 H 0.80917 0.22495 0.20821 0.0
O483 O 0.72841 0.25949 0.2083 0.0
H484 H 0.76874 0.06911 0.20171 0.0
H485 H 0.62614 0.15497 0.22732 0.0
H486 H 0.6461 0.20114 0.17132 0.0
H487 H 0.72448 0.12727 0.18909 0.0
H488 H 0.69541 0.18953 0.21863 0.0
O489 O 0.85893 0.25719 0.16091 0.0
H490 H 0.74837 0.24923 0.12724 0.0
H491 H 0.86498 0.31666 0.14058 0.0
H492 H 0.5765 0.16619 0.17946 0.0
H493 H 0.85374 0.16806 0.22134 0.0
H494 H 0.56615 0.14289 0.20765 0.0
H495 H 0.83381 0.08938 0.21808 0.0
O496 O 0.69352 0.27196 0.17696 0.0
H497 H 0.85966 0.39164 0.18989 0.0
H498 H 0.75911 0.35296 0.14584 0.0
H499 H 0.76914 0.43074 0.15322 0.0
H500 H 0.81985 0.45057 0.17535 0.0
H501 H 0.84812 0.31418 0.18231 0.0
H502 H 0.88015 0.33407 0.11237 0.0
H503 H 0.82841 0.30893 0.09129 0.0
O504 O 0.73079 0.27939 0.15402 0.0
C505 C 0.75229 0.18045 0.15563 0.0
C506 C 0.78491 0.27728 0.10796 0.0
C507 C 0.85122 0.31527 0.11552 0.0
N508 N 0.80603 0.28143 0.13558 0.0
C509 C 0.77736 0.26768 0.12404 0.0
C510 C 0.84257 0.30506 0.13149 0.0
C511 C 0.82215 0.30121 0.1037 0.0
C512 C 0.79972 0.19097 0.20691 0.0
N513 N 0.76396 0.17962 0.19792 0.0
C514 C 0.82536 0.15879 0.2143 0.0
C515 C 0.81423 0.11466 0.21243 0.0
C516 C 0.77779 0.10328 0.20323 0.0
C517 C 0.75297 0.13636 0.19601 0.0
C518 C 0.63026 0.16497 0.215 0.0
C519 C 0.64197 0.19088 0.18359 0.0
C520 C 0.66936 0.18474 0.21002 0.0
N521 N 0.6749 0.19723 0.19446 0.0
C522 C 0.60243 0.1712 0.18814 0.0
C523 C 0.59663 0.15817 0.20396 0.0
C524 C 0.69644 0.28491 0.16248 0.0
C525 C 0.83748 0.38343 0.18022 0.0
C526 C 0.78086 0.36119 0.15561 0.0
C527 C 0.78659 0.40536 0.15967 0.0
C528 C 0.8151 0.41647 0.17207 0.0
N529 N 0.80285 0.32892 0.16369 0.0
C530 C 0.83094 0.3396 0.17583 0.0
Co531 Co 0.79869 0.772 0.68473 0.0
Co532 Co 0.73435 0.72995 0.65462 0.0
O533 O 0.74464 0.7432 0.67736 0.0
C534 C 0.77447 0.70778 0.71124 0.0
O535 O 0.73999 0.69346 0.7034 0.0
C536 C 0.64775 0.7671 0.66543 0.0
O537 O 0.66797 0.80032 0.67226 0.0
O538 O 0.74269 0.79326 0.64896 0.0
O539 O 0.79952 0.80983 0.66507 0.0
H540 H 0.76693 0.73452 0.59569 0.0
H541 H 0.71569 0.77221 0.70408 0.0
O542 O 0.80015 0.73621 0.70505 0.0
H543 H 0.76076 0.92731 0.70052 0.0
H544 H 0.90228 0.83923 0.725 0.0
H545 H 0.88113 0.79813 0.66849 0.0
H546 H 0.80503 0.8694 0.68774 0.0
H547 H 0.83298 0.80505 0.71609 0.0
O548 O 0.6696 0.73829 0.65779 0.0
H549 H 0.78021 0.75048 0.62415 0.0
H550 H 0.66493 0.68017 0.63696 0.0
H551 H 0.95071 0.8328 0.67686 0.0
H552 H 0.67105 0.82878 0.71728 0.0
H553 H 0.96165 0.85354 0.70531 0.0
H554 H 0.69331 0.90716 0.71554 0.0
O555 O 0.83471 0.72589 0.67378 0.0
H556 H 0.67323 0.6032 0.68609 0.0
H557 H 0.7714 0.646 0.64188 0.0
H558 H 0.7636 0.56773 0.64883 0.0
H559 H 0.71412 0.54583 0.67105 0.0
H560 H 0.68239 0.68118 0.67887 0.0
H561 H 0.65017 0.66374 0.60863 0.0
H562 H 0.70142 0.69089 0.58774 0.0
O563 O 0.79828 0.71992 0.65065 0.0
C564 C 0.77453 0.81825 0.65318 0.0
C565 C 0.74424 0.72265 0.60467 0.0
C566 C 0.6787 0.68299 0.61192 0.0
N567 N 0.72314 0.71686 0.63224 0.0
C568 C 0.75156 0.73168 0.62082 0.0
C569 C 0.6871 0.69266 0.62796 0.0
C570 C 0.70749 0.69818 0.60022 0.0
C571 C 0.72633 0.80588 0.70346 0.0
N572 N 0.76363 0.81707 0.69532 0.0
C573 C 0.70056 0.83797 0.71088 0.0
C574 C 0.71299 0.88194 0.70987 0.0
C575 C 0.75079 0.89326 0.70143 0.0
C576 C 0.7757 0.86026 0.69417 0.0
C577 C 0.89788 0.83037 0.71257 0.0
C578 C 0.8855 0.80734 0.68087 0.0
C579 C 0.85877 0.81082 0.70746 0.0
N580 N 0.85287 0.79981 0.69175 0.0
C581 C 0.92504 0.82684 0.68555 0.0
C582 C 0.93117 0.83842 0.70151 0.0
C583 C 0.83226 0.71365 0.65921 0.0
C584 C 0.69491 0.61232 0.67639 0.0
C585 C 0.75013 0.63686 0.65168 0.0
C586 C 0.74569 0.59242 0.6555 0.0
C587 C 0.71789 0.58015 0.66796 0.0
N588 N 0.72757 0.66826 0.66003 0.0
C589 C 0.70018 0.65645 0.67223 0.0
Co590 Co 0.79015 0.23701 0.33356 0.0
Co591 Co 0.73324 0.27288 0.36643 0.0
O592 O 0.7375 0.26267 0.3433 0.0
C593 C 0.80801 0.298 0.30653 0.0
O594 O 0.84726 0.30434 0.31267 0.0
C595 C 0.6416 0.24594 0.35582 0.0
O596 O 0.65643 0.23021 0.34226 0.0
O597 O 0.74602 0.20953 0.37055 0.0
O598 O 0.80018 0.19828 0.35271 0.0
H599 H 0.784 0.26118 0.42348 0.0
H600 H 0.70739 0.2368 0.31478 0.0
O601 O 0.78008 0.27444 0.31402 0.0
H602 H 0.7492 0.08088 0.31976 0.0
H603 H 0.87973 0.17201 0.2886 0.0
H604 H 0.87973 0.217 0.34526 0.0
H605 H 0.79527 0.13898 0.33164 0.0
H606 H 0.81307 0.20335 0.30091 0.0
O607 O 0.66806 0.26121 0.36625 0.0
H608 H 0.78859 0.24935 0.3944 0.0
H609 H 0.66861 0.31825 0.38773 0.0
H610 H 0.94706 0.18563 0.33344 0.0
H611 H 0.66083 0.17986 0.30239 0.0
H612 H 0.94735 0.16294 0.30491 0.0
H613 H 0.68149 0.1012 0.30492 0.0
O614 O 0.8271 0.28427 0.3435 0.0
H615 H 0.66222 0.4002 0.33808 0.0
H616 H 0.76792 0.35694 0.37985 0.0
H617 H 0.75534 0.43552 0.37445 0.0
H618 H 0.70197 0.45763 0.35349 0.0
H619 H 0.67618 0.32204 0.34372 0.0
H620 H 0.66246 0.33039 0.41676 0.0
H621 H 0.72051 0.3019 0.43487 0.0
O622 O 0.7973 0.28594 0.36793 0.0
C623 C 0.77866 0.18732 0.36523 0.0
C624 C 0.75843 0.27367 0.41573 0.0
C625 C 0.6902 0.31244 0.41196 0.0
N626 N 0.72876 0.28271 0.38934 0.0
C627 C 0.76085 0.26706 0.39923 0.0
C628 C 0.69373 0.3052 0.39552 0.0
C629 C 0.7228 0.29651 0.42211 0.0
C630 C 0.71682 0.20269 0.31585 0.0
N631 N 0.75388 0.19127 0.32407 0.0
C632 C 0.69021 0.17056 0.30885 0.0
C633 C 0.70178 0.12644 0.31029 0.0
C634 C 0.7397 0.11502 0.31864 0.0
C635 C 0.76549 0.14806 0.32548 0.0
C636 C 0.88002 0.18178 0.30105 0.0
C637 C 0.87958 0.20715 0.33284 0.0
C638 C 0.84238 0.19957 0.30808 0.0
N639 N 0.8425 0.21203 0.3238 0.0
C640 C 0.91781 0.18942 0.32621 0.0
C641 C 0.91795 0.17669 0.3102 0.0
C642 C 0.8281 0.29523 0.35823 0.0
C643 C 0.68532 0.39099 0.34732 0.0
C644 C 0.74462 0.36621 0.37071 0.0
C645 C 0.73763 0.41081 0.36771 0.0
C646 C 0.70769 0.42319 0.35595 0.0
N647 N 0.72223 0.33476 0.3623 0.0
C648 C 0.69318 0.3467 0.35064 0.0
Co649 Co 0.72963 0.77779 0.83129 0.0
Co650 Co 0.7985 0.74552 0.86177 0.0
O651 O 0.7864 0.7552 0.83886 0.0
C652 C 0.75893 0.71252 0.80574 0.0
O653 O 0.79442 0.70202 0.81376 0.0
C654 C 0.88075 0.78645 0.8486 0.0
O655 O 0.85688 0.81214 0.8395 0.0
O656 O 0.78355 0.80815 0.86671 0.0
O657 O 0.72543 0.81751 0.85046 0.0
H658 H 0.76624 0.75312 0.92067 0.0
H659 H 0.8102 0.78319 0.81074 0.0
O660 O 0.73114 0.73967 0.81149 0.0
H661 H 0.75258 0.93421 0.81348 0.0
H662 H 0.61949 0.83052 0.79056 0.0
H663 H 0.64528 0.79747 0.84747 0.0
H664 H 0.71485 0.87397 0.8275 0.0
H665 H 0.69186 0.80406 0.79966 0.0
O666 O 0.86227 0.7605 0.85844 0.0
H667 H 0.75116 0.76468 0.89206 0.0
H668 H 0.87275 0.7049 0.87985 0.0
H669 H 0.57258 0.8244 0.8389 0.0
H670 H 0.84825 0.84201 0.79623 0.0
H671 H 0.5593 0.84107 0.81026 0.0
H672 H 0.81968 0.91839 0.79758 0.0
O673 O 0.69851 0.72982 0.84298 0.0
H674 H 0.87203 0.62279 0.83156 0.0
H675 H 0.77082 0.65947 0.87563 0.0
H676 H 0.78671 0.5818 0.86959 0.0
H677 H 0.83776 0.563 0.84744 0.0
H678 H 0.85481 0.70003 0.83787 0.0
H679 H 0.88933 0.69304 0.90833 0.0
H680 H 0.83583 0.71711 0.92899 0.0
O681 O 0.73593 0.72899 0.86601 0.0
C682 C 0.74929 0.82933 0.86229 0.0
C683 C 0.7899 0.74262 0.91179 0.0
C684 C 0.85899 0.70896 0.90487 0.0
N685 N 0.81119 0.73601 0.88426 0.0
C686 C 0.78156 0.74915 0.89556 0.0
C687 C 0.84952 0.71603 0.88874 0.0
C688 C 0.82894 0.72242 0.91645 0.0
C689 C 0.79683 0.8159 0.81119 0.0
N690 N 0.75985 0.82473 0.81989 0.0
C691 C 0.81887 0.84931 0.80303 0.0
C692 C 0.80292 0.89216 0.80383 0.0
C693 C 0.76535 0.90106 0.81277 0.0
C694 C 0.74422 0.8668 0.82077 0.0
C695 C 0.62489 0.82341 0.80308 0.0
C696 C 0.63987 0.80493 0.835 0.0
C697 C 0.66576 0.80825 0.8083 0.0
N698 N 0.67291 0.79946 0.82412 0.0
C699 C 0.59859 0.82005 0.83021 0.0
C700 C 0.59114 0.82935 0.81414 0.0
C701 C 0.70245 0.71897 0.85763 0.0
C702 C 0.84974 0.63056 0.84125 0.0
C703 C 0.79276 0.65164 0.86587 0.0
C704 C 0.80179 0.60755 0.86256 0.0
C705 C 0.83047 0.59702 0.85015 0.0
N706 N 0.81174 0.68438 0.85707 0.0
C707 C 0.83994 0.67428 0.84491 0.0
Co708 Co 0.49683 0.48152 0.08299 0.0
Co709 Co 0.53347 0.53754 0.11587 0.0
O710 O 0.52526 0.53228 0.09278 0.0
C711 C 0.55879 0.45832 0.05677 0.0
O712 O 0.56166 0.41883 0.063 0.0
C713 C 0.4981 0.62476 0.1061 0.0
O714 O 0.46628 0.60467 0.0984 0.0
O715 O 0.46917 0.52852 0.11955 0.0
O716 O 0.45547 0.47531 0.10154 0.0
H717 H 0.51626 0.49283 0.17338 0.0
H718 H 0.50528 0.56484 0.06492 0.0
O719 O 0.53694 0.48809 0.06401 0.0
H720 H 0.34626 0.53393 0.06657 0.0
H721 H 0.43011 0.39528 0.03749 0.0
H722 H 0.46876 0.39419 0.09472 0.0
H723 H 0.39911 0.48313 0.07906 0.0
H724 H 0.46506 0.45989 0.04999 0.0
O725 O 0.52583 0.60266 0.11413 0.0
H726 H 0.50623 0.4857 0.14428 0.0
H727 H 0.5791 0.60292 0.13672 0.0
H728 H 0.43362 0.32894 0.08272 0.0
H729 H 0.45369 0.61616 0.05201 0.0
H730 H 0.41411 0.32921 0.05389 0.0
H731 H 0.3735 0.60095 0.05284 0.0
O732 O 0.53987 0.44159 0.09388 0.0
H733 H 0.66644 0.60137 0.08878 0.0
H734 H 0.61439 0.49857 0.13018 0.0
H735 H 0.69395 0.50685 0.12549 0.0
H736 H 0.72046 0.55869 0.10471 0.0
H737 H 0.58711 0.59173 0.09374 0.0
H738 H 0.58956 0.61157 0.16577 0.0
H739 H 0.55814 0.5562 0.18433 0.0
O740 O 0.54252 0.47296 0.11814 0.0
C741 C 0.4451 0.49758 0.11395 0.0
C742 C 0.53003 0.51724 0.16543 0.0
C743 C 0.5711 0.5839 0.16115 0.0
N744 N 0.54171 0.54399 0.13878 0.0
C745 C 0.52444 0.51337 0.14892 0.0
C746 C 0.56484 0.57895 0.14471 0.0
C747 C 0.55352 0.5528 0.17156 0.0
C748 C 0.47048 0.55773 0.06521 0.0
N749 N 0.45525 0.52096 0.07276 0.0
C750 C 0.4414 0.58704 0.05793 0.0
C751 C 0.39642 0.57852 0.05843 0.0
C752 C 0.38111 0.54097 0.06615 0.0
C753 C 0.41117 0.51244 0.0733 0.0
C754 C 0.43846 0.39475 0.05006 0.0
C755 C 0.46032 0.39457 0.08218 0.0
C756 C 0.45831 0.43122 0.0572 0.0
N757 N 0.469 0.4308 0.07308 0.0
C758 C 0.44044 0.35753 0.07544 0.0
C759 C 0.42949 0.3577 0.05927 0.0
C760 C 0.54957 0.44074 0.10875 0.0
C761 C 0.65529 0.57877 0.0979 0.0
C762 C 0.62562 0.52107 0.12106 0.0
C763 C 0.67074 0.52569 0.11849 0.0
C764 C 0.68559 0.55478 0.10683 0.0
N765 N 0.59609 0.54486 0.1123 0.0
C766 C 0.61041 0.57327 0.1008 0.0
Co767 Co 0.04324 0.53205 0.57892 0.0
Co768 Co 0.00963 0.46711 0.61014 0.0
O769 O 0.01944 0.47655 0.58714 0.0
C770 C 0.97662 0.50118 0.55437 0.0
O771 O 0.96164 0.47142 0.56427 0.0
C772 C 0.04848 0.3831 0.59792 0.0
O773 O 0.07593 0.40583 0.5891 0.0
O774 O 0.07272 0.48034 0.61461 0.0
O775 O 0.08213 0.53812 0.59827 0.0
H776 H 0.01985 0.50492 0.66856 0.0
H777 H 0.04739 0.45029 0.55918 0.0
O778 O 0.00637 0.52812 0.55882 0.0
H779 H 0.20014 0.50315 0.56275 0.0
H780 H 0.10014 0.63609 0.53687 0.0
H781 H 0.06311 0.61812 0.59387 0.0
H782 H 0.14021 0.54381 0.57592 0.0
H783 H 0.07203 0.56534 0.54693 0.0
O784 O 0.02245 0.40274 0.60745 0.0
H785 H 0.03148 0.51661 0.63975 0.0
H786 H 0.96688 0.39619 0.62926 0.0
H787 H 0.09162 0.68928 0.58434 0.0
H788 H 0.10602 0.40921 0.54553 0.0
H789 H 0.1103 0.69862 0.55564 0.0
H790 H 0.1832 0.43543 0.54732 0.0
O791 O 0.99517 0.565 0.58995 0.0
H792 H 0.88359 0.39322 0.58187 0.0
H793 H 0.92492 0.49963 0.62376 0.0
H794 H 0.84661 0.48546 0.61835 0.0
H795 H 0.82546 0.43179 0.5973 0.0
H796 H 0.96152 0.40892 0.58747 0.0
H797 H 0.95491 0.38299 0.65798 0.0
H798 H 0.98135 0.43765 0.67787 0.0
O799 O 0.99536 0.53065 0.61361 0.0
C800 C 0.09401 0.51444 0.61013 0.0
C801 C 0.00826 0.4808 0.66002 0.0
C802 C 0.97188 0.41235 0.65408 0.0
N803 N 1.00024 0.457 0.6328 0.0
C804 C 0.01477 0.48724 0.64367 0.0
C805 C 0.97899 0.4199 0.63783 0.0
C806 C 0.98667 0.44305 0.66523 0.0
C807 C 0.0806 0.4625 0.55981 0.0
N808 N 0.0901 0.49979 0.56827 0.0
C809 C 0.11382 0.43882 0.55215 0.0
C810 C 0.15712 0.45346 0.55319 0.0
C811 C 0.16665 0.4914 0.56187 0.0
C812 C 0.13257 0.5142 0.56938 0.0
C813 C 0.09214 0.63241 0.54941 0.0
C814 C 0.07141 0.62182 0.58138 0.0
C815 C 0.07605 0.59246 0.55517 0.0
N816 N 0.06612 0.5875 0.571 0.0
C817 C 0.08743 0.66224 0.57605 0.0
C818 C 0.09787 0.66748 0.55994 0.0
C819 C 0.98511 0.56311 0.60476 0.0
C820 C 0.89238 0.4167 0.59106 0.0
C821 C 0.91609 0.47664 0.61444 0.0
C822 C 0.87163 0.46855 0.6115 0.0
C823 C 0.85978 0.43838 0.59971 0.0
N824 N 0.94793 0.45539 0.60585 0.0
C825 C 0.93651 0.42563 0.59433 0.0
Co826 Co 0.48928 0.54124 0.9383 0.0
Co827 Co 0.52608 0.47147 0.90877 0.0
O828 O 0.51262 0.48438 0.93125 0.0
C829 C 0.55375 0.51364 0.9642 0.0
O830 O 0.57064 0.48301 0.95505 0.0
C831 C 0.48305 0.38461 0.90431 0.0
O832 O 0.46001 0.40237 0.89272 0.0
O833 O 0.46471 0.48771 0.90238 0.0
O834 O 0.45239 0.54561 0.9185 0.0
H835 H 0.52777 0.50073 0.84964 0.0
H836 H 0.48218 0.46083 0.95838 0.0
O837 O 0.52398 0.53918 0.95885 0.0
H838 H 0.33082 0.51684 0.95347 0.0
H839 H 0.43027 0.65117 0.97806 0.0
H840 H 0.4725 0.62579 0.9219 0.0
H841 H 0.39243 0.55572 0.94065 0.0
H842 H 0.45793 0.5788 0.96939 0.0
O843 O 0.50878 0.4085 0.91265 0.0
H844 H 0.51121 0.51683 0.87788 0.0
H845 H 0.57126 0.39711 0.89203 0.0
H846 H 0.44443 0.6985 0.93003 0.0
H847 H 0.42175 0.42134 0.97163 0.0
H848 H 0.42314 0.71157 0.9583 0.0
H849 H 0.34533 0.44921 0.9692 0.0
O850 O 0.53891 0.57232 0.92741 0.0
H851 H 0.64172 0.39417 0.94127 0.0
H852 H 0.61506 0.49842 0.89728 0.0
H853 H 0.69112 0.48069 0.90499 0.0
H854 H 0.7049 0.42803 0.92708 0.0
H855 H 0.56613 0.41352 0.93342 0.0
H856 H 0.58843 0.37963 0.86394 0.0
H857 H 0.56661 0.43162 0.8425 0.0
O858 O 0.54429 0.53352 0.90466 0.0
C859 C 0.44261 0.52175 0.90644 0.0
C860 C 0.53725 0.47769 0.85886 0.0
C861 C 0.57129 0.40975 0.86688 0.0
N862 N 0.5396 0.45771 0.8866 0.0
C863 C 0.52781 0.48658 0.87487 0.0
C864 C 0.56134 0.41978 0.88277 0.0
C865 C 0.55907 0.43893 0.85486 0.0
C866 C 0.44919 0.4735 0.95736 0.0
N867 N 0.44102 0.51082 0.94878 0.0
C868 C 0.41501 0.45083 0.96485 0.0
C869 C 0.37213 0.46645 0.96346 0.0
C870 C 0.36397 0.50435 0.95463 0.0
C871 C 0.39899 0.52614 0.94731 0.0
C872 C 0.43942 0.64587 0.96571 0.0
C873 C 0.46305 0.63112 0.9342 0.0
C874 C 0.45529 0.605 0.96073 0.0
N875 N 0.46667 0.59797 0.94512 0.0
C876 C 0.44729 0.67241 0.93874 0.0
C877 C 0.43539 0.67973 0.95461 0.0
C878 C 0.55218 0.56769 0.91301 0.0
C879 C 0.63615 0.41713 0.93161 0.0
C880 C 0.62065 0.47594 0.90705 0.0
C881 C 0.66387 0.4658 0.9113 0.0
C882 C 0.67158 0.43619 0.92367 0.0
N883 N 0.58601 0.45718 0.91492 0.0
C884 C 0.59337 0.42807 0.92705 0.0
Co885 Co 0.0446 0.48034 0.43494 0.0
Co886 Co 0.01291 0.54595 0.40355 0.0
O887 O 0.0225 0.53652 0.42658 0.0
C888 C 0.97926 0.51376 0.4595 0.0
O889 O 0.96467 0.54332 0.44946 0.0
C890 C 0.04037 0.63431 0.41734 0.0
O891 O 0.04696 0.61689 0.43145 0.0
O892 O 0.07536 0.52999 0.39914 0.0
O893 O 0.08224 0.47182 0.41539 0.0
H894 H 0.02186 0.50456 0.34541 0.0
H895 H 0.0527 0.56066 0.45528 0.0
O896 O 0.00867 0.4863 0.4552 0.0
H897 H 0.2036 0.50433 0.44935 0.0
H898 H 0.09967 0.37589 0.47714 0.0
H899 H 0.05997 0.39285 0.42034 0.0
H900 H 0.14138 0.46578 0.43675 0.0
H901 H 0.07387 0.44727 0.46687 0.0
O902 O 0.02947 0.61029 0.40544 0.0
H903 H 0.03242 0.49381 0.37432 0.0
H904 H 0.97405 0.61797 0.38382 0.0
H905 H 0.08606 0.32101 0.43008 0.0
H906 H 0.11372 0.59982 0.4683 0.0
H907 H 0.10609 0.31217 0.45868 0.0
H908 H 0.18997 0.57183 0.46534 0.0
O909 O 0.99494 0.44911 0.4243 0.0
H910 H 0.88703 0.62224 0.43161 0.0
H911 H 0.92817 0.51773 0.38912 0.0
H912 H 0.85009 0.53431 0.39377 0.0
H913 H 0.82897 0.58713 0.41509 0.0
H914 H 0.96443 0.60411 0.42682 0.0
H915 H 0.96327 0.63023 0.35498 0.0
H916 H 0.98711 0.57323 0.33555 0.0
O917 O 0.99557 0.48285 0.40052 0.0
C918 C 0.09494 0.4948 0.40348 0.0
C919 C 0.01138 0.52969 0.35375 0.0
C920 C 0.97858 0.60024 0.35913 0.0
N921 N 1.00418 0.5553 0.38079 0.0
C922 C 0.01728 0.52378 0.37016 0.0
C923 C 0.98502 0.59319 0.37545 0.0
C924 C 0.99191 0.56822 0.34823 0.0
C925 C 0.08556 0.54798 0.45399 0.0
N926 N 0.09326 0.51094 0.44517 0.0
C927 C 0.12011 0.57045 0.46136 0.0
C928 C 0.16288 0.55476 0.45968 0.0
C929 C 0.17055 0.51695 0.45069 0.0
C930 C 0.13517 0.49539 0.44349 0.0
C931 C 0.09108 0.37934 0.46465 0.0
C932 C 0.06885 0.38936 0.43278 0.0
C933 C 0.07631 0.41966 0.45877 0.0
N934 N 0.06562 0.42432 0.44299 0.0
C935 C 0.08351 0.34856 0.43824 0.0
C936 C 0.0947 0.34361 0.45428 0.0
C937 C 0.98443 0.451 0.40954 0.0
C938 C 0.8958 0.59933 0.42223 0.0
C939 C 0.91946 0.54054 0.39852 0.0
C940 C 0.87507 0.54991 0.40105 0.0
C941 C 0.86324 0.57957 0.41299 0.0
N942 N 0.95139 0.56017 0.40759 0.0
C943 C 0.93987 0.58914 0.41936 0.0
H944 H 0.03286 0.18371 0.57655 0.0
H945 H 0.95925 0.17705 0.62052 0.0
H946 H 0.97094 0.25569 0.62496 0.0
H947 H 1.00351 0.32579 0.61672 0.0
H948 H 0.08085 0.33218 0.57354 0.0
H949 H 0.06693 0.25412 0.56856 0.0
C950 C 0.01877 0.19971 0.58695 0.0
C951 C 0.99451 0.17482 0.59806 0.0
C952 C 0.02698 0.24468 0.58971 0.0
C953 C 0.97757 0.19566 0.61173 0.0
C954 C 0.98449 0.24053 0.61431 0.0
C955 C 0.01751 0.31016 0.60623 0.0
C956 C 0.04328 0.33495 0.59554 0.0
C957 C 0.00949 0.26527 0.60347 0.0
C958 C 0.06123 0.31393 0.58205 0.0
C959 C 0.053 0.26931 0.57913 0.0
H960 H 0.94084 0.75045 0.86881 0.0
H961 H 0.92933 0.8141 0.82296 0.0
H962 H 0.00781 0.8026 0.81811 0.0
H963 H 0.07991 0.77399 0.82685 0.0
H964 H 0.09198 0.71485 0.87343 0.0
H965 H 0.01306 0.72443 0.87795 0.0
C966 C 0.95549 0.762 0.85777 0.0
C967 C 0.9291 0.78312 0.84626 0.0
C968 C 1.00071 0.75555 0.85512 0.0
C969 C 0.94882 0.79808 0.83208 0.0
C970 C 0.99368 0.79122 0.82925 0.0
C971 C 0.06508 0.76266 0.83789 0.0
C972 C 0.09158 0.74295 0.84968 0.0
C973 C 0.01992 0.76972 0.84063 0.0
C974 C 0.07218 0.72963 0.86412 0.0
C975 C 0.02712 0.73531 0.86673 0.0
H976 H 0.56588 0.67333 0.11772 0.0
H977 H 0.4442 0.68491 0.09149 0.0
H978 H 0.45481 0.7645 0.0896 0.0
H979 H 0.49731 0.83085 0.09626 0.0
H980 H 0.61832 0.81875 0.12287 0.0
H981 H 0.60948 0.739 0.12352 0.0
C982 C 0.54152 0.69315 0.1116 0.0
C983 C 0.504 0.67309 0.1049 0.0
C984 C 0.54788 0.73875 0.11052 0.0
C985 C 0.47319 0.69942 0.09686 0.0
C986 C 0.47931 0.74494 0.09574 0.0
C987 C 0.52214 0.81081 0.10202 0.0
C988 C 0.55853 0.83092 0.1095 0.0
C989 C 0.51643 0.76497 0.1026 0.0
C990 C 0.59006 0.80427 0.11701 0.0
C991 C 0.58491 0.75864 0.11745 0.0
H992 H 0.57505 0.23791 0.33395 0.0
H993 H 0.60028 0.26907 0.38348 0.0
H994 H 0.52288 0.28602 0.38752 0.0
H995 H 0.44779 0.29195 0.37718 0.0
H996 H 0.42128 0.25883 0.32796 0.0
H997 H 0.49927 0.24335 0.3236 0.0
C998 C 0.56357 0.24802 0.34566 0.0
C999 C 0.59367 0.25218 0.35837 0.0
C1000 C 0.51877 0.25799 0.34793 0.0
C1001 C 0.57807 0.26566 0.37344 0.0
C1002 C 0.53372 0.27553 0.37578 0.0
C1003 C 0.45913 0.28201 0.36542 0.0
C1004 C 0.42878 0.27707 0.35287 0.0
C1005 C 0.50382 0.27213 0.3631 0.0
C1006 C 0.444 0.26321 0.33781 0.0
C1007 C 0.48857 0.2541 0.33533 0.0
H1008 H 0.0212 0.83452 0.3989 0.0
H1009 H 0.96792 0.84076 0.44665 0.0
H1010 H 0.98184 0.76211 0.45012 0.0
H1011 H 0.00993 0.6916 0.43965 0.0
H1012 H 0.05868 0.68473 0.39132 0.0
H1013 H 0.04641 0.76377 0.38808 0.0
C1014 C 0.01244 0.81868 0.41006 0.0
C1015 C 0.9936 0.8436 0.42251 0.0
C1016 C 0.02029 0.77344 0.41192 0.0
C1017 C 0.98214 0.82238 0.43682 0.0
C1018 C 0.99041 0.77745 0.43886 0.0
C1019 C 0.01843 0.70759 0.42849 0.0
C1020 C 0.03604 0.68259 0.41583 0.0
C1021 C 0.00981 0.75273 0.42654 0.0
C1022 C 0.04562 0.70342 0.40128 0.0
C1023 C 0.03839 0.74852 0.3994 0.0
H1024 H 0.44057 0.77251 0.67282 0.0
H1025 H 0.45339 0.64715 0.649 0.0
H1026 H 0.53333 0.65413 0.64962 0.0
H1027 H 0.59908 0.69749 0.65537 0.0
H1028 H 0.58716 0.8239 0.67849 0.0
H1029 H 0.50721 0.81476 0.67968 0.0
C1030 C 0.4608 0.74632 0.66801 0.0
C1031 C 0.44084 0.70924 0.66088 0.0
C1032 C 0.50687 0.75101 0.66808 0.0
C1033 C 0.46775 0.67597 0.65455 0.0
C1034 C 0.5135 0.68004 0.65484 0.0
C1035 C 0.57916 0.72319 0.66068 0.0
C1036 C 0.59927 0.76163 0.66667 0.0
C1037 C 0.53334 0.71778 0.66127 0.0
C1038 C 0.57269 0.79414 0.67369 0.0
C1039 C 0.52693 0.78889 0.67439 0.0
H1040 H 0.54416 0.336 0.92046 0.0
H1041 H 0.42815 0.32367 0.89105 0.0
H1042 H 0.436 0.24381 0.89112 0.0
H1043 H 0.47681 0.17789 0.8987 0.0
H1044 H 0.59352 0.1893 0.92777 0.0
H1045 H 0.5844 0.26927 0.92858 0.0
C1046 C 0.52023 0.31588 0.91422 0.0
C1047 C 0.48545 0.33599 0.90579 0.0
C1048 C 0.52535 0.26986 0.9141 0.0
C1049 C 0.45515 0.30923 0.89765 0.0
C1050 C 0.45971 0.26351 0.89764 0.0
C1051 C 0.50048 0.19771 0.9052 0.0
C1052 C 0.53609 0.17741 0.91306 0.0
C1053 C 0.49496 0.24354 0.90564 0.0
C1054 C 0.56599 0.20391 0.92153 0.0
C1055 C 0.5607 0.24967 0.92203 0.0
H1056 H 0.08039 0.24018 0.1887 0.0
H1057 H 0.08343 0.32076 0.14638 0.0
H1058 H 1.00409 0.31139 0.14303 0.0
H1059 H 0.93474 0.27803 0.15147 0.0
H1060 H 0.93168 0.19344 0.19281 0.0
H1061 H 0.01033 0.20599 0.19707 0.0
C1062 C 0.06342 0.25639 0.17895 0.0
C1063 C 0.08743 0.28189 0.16797 0.0
C1064 C 0.01806 0.2494 0.17676 0.0
C1065 C 0.06542 0.30154 0.15509 0.0
C1066 C 0.02019 0.29591 0.15311 0.0
C1067 C 0.95118 0.26226 0.16143 0.0
C1068 C 0.92726 0.23477 0.1718 0.0
C1069 C 0.99632 0.26944 0.16374 0.0
C1070 C 0.9493 0.21445 0.18457 0.0
C1071 C 0.99423 0.22188 0.18707 0.0
H1072 H 0.07524 0.95033 0.48498 0.0
H1073 H 0.06804 0.09145 0.48107 0.0
H1074 H 0.07303 0.09849 0.51012 0.0
H1075 H 0.07056 0.06429 0.53675 0.0
H1076 H 0.0703 0.92299 0.54066 0.0
H1077 H 0.07766 0.91623 0.51165 0.0
C1078 C 0.07589 0.98265 0.49047 0.0
C1079 C 0.07154 0.02033 0.48084 0.0
C1080 C 0.07701 0.98637 0.50726 0.0
C1081 C 0.07147 0.06194 0.48819 0.0
C1082 C 0.07415 0.06597 0.50482 0.0
C1083 C 0.07327 0.03204 0.53129 0.0
C1084 C 0.07019 0.99419 0.54089 0.0
C1085 C 0.0757 0.0284 0.51451 0.0
C1086 C 0.07276 0.95263 0.53356 0.0
C1087 C 0.07676 0.94875 0.51695 0.0
H1088 H 0.19875 0.80621 0.78336 0.0
H1089 H 0.33984 0.80936 0.78812 0.0
H1090 H 0.34766 0.81586 0.75914 0.0
H1091 H 0.31487 0.81246 0.73233 0.0
H1092 H 0.17416 0.8018 0.72741 0.0
H1093 H 0.16565 0.80692 0.75643 0.0
C1094 C 0.23114 0.8094 0.77806 0.0
C1095 C 0.26867 0.80766 0.7879 0.0
C1096 C 0.23544 0.81135 0.7613 0.0
C1097 C 0.31045 0.8108 0.78082 0.0
C1098 C 0.31494 0.81434 0.76424 0.0
C1099 C 0.28226 0.81227 0.73757 0.0
C1100 C 0.24518 0.80699 0.72767 0.0
C1101 C 0.27774 0.8135 0.75432 0.0
C1102 C 0.20324 0.80595 0.73473 0.0
C1103 C 0.19837 0.8087 0.75135 0.0
H1104 H 0.46746 0.07398 0.03318 0.0
H1105 H 0.45754 0.93354 0.039 0.0
H1106 H 0.45428 0.92393 0.01002 0.0
H1107 H 0.46074 0.95514 0.98285 0.0
H1108 H 0.46466 0.09586 0.97704 0.0
H1109 H 0.4633 0.10571 1.00604 0.0
C1110 C 0.46374 0.04138 0.02808 0.0
C1111 C 0.46287 1.00455 0.03823 0.0
C1112 C 0.46107 0.03611 0.01137 0.0
C1113 C 0.45792 0.96248 0.03147 0.0
C1114 C 0.45638 0.95692 0.01488 0.0
C1115 C 0.46046 0.98793 0.98796 0.0
C1116 C 0.4629 0.02469 0.97781 0.0
C1117 C 0.45884 0.99341 1.00468 0.0
C1118 C 0.46241 0.06702 0.98458 0.0
C1119 C 0.46196 0.07269 1.00118 0.0
H1120 H 0.19537 0.20359 0.2252 0.0
H1121 H 0.33586 0.18732 0.222 0.0
H1122 H 0.34087 0.18325 0.25115 0.0
H1123 H 0.30634 0.19243 0.27757 0.0
H1124 H 0.16688 0.2165 0.28064 0.0
H1125 H 0.16033 0.2091 0.25163 0.0
C1126 C 0.22693 0.19798 0.23087 0.0
C1127 C 0.26516 0.19521 0.22142 0.0
C1128 C 0.22976 0.19765 0.24767 0.0
C1129 C 0.30594 0.18917 0.22899 0.0
C1130 C 0.30883 0.18711 0.24567 0.0
C1131 C 0.27437 0.19516 0.27192 0.0
C1132 C 0.2371 0.20481 0.28129 0.0
C1133 C 0.27111 0.19247 0.25515 0.0
C1134 C 0.19606 0.20904 0.27373 0.0
C1135 C 0.19232 0.20491 0.25712 0.0
H1136 H 0.81373 0.33227 0.23219 0.0
H1137 H 0.68858 0.26587 0.23513 0.0
H1138 H 0.69282 0.26661 0.26422 0.0
H1139 H 0.73546 0.27872 0.28867 0.0
H1140 H 0.86195 0.34257 0.28591 0.0
H1141 H 0.85339 0.35073 0.25704 0.0
C1142 C 0.78695 0.31878 0.23919 0.0
C1143 C 0.75105 0.29873 0.23141 0.0
C1144 C 0.78997 0.31849 0.25601 0.0
C1145 C 0.71678 0.28122 0.24074 0.0
C1146 C 0.7192 0.28153 0.25741 0.0
C1147 C 0.7609 0.29512 0.28184 0.0
C1148 C 0.79949 0.30964 0.28953 0.0
C1149 C 0.75619 0.29893 0.26517 0.0
C1150 C 0.83196 0.33086 0.28037 0.0
C1151 C 0.82718 0.33541 0.26381 0.0
H1152 H 0.70958 0.69341 0.73294 0.0
H1153 H 0.85038 0.70324 0.72837 0.0
H1154 H 0.85838 0.69919 0.75742 0.0
H1155 H 0.82489 0.70111 0.78422 0.0
H1156 H 0.68375 0.69971 0.78873 0.0
H1157 H 0.67625 0.69173 0.75976 0.0
C1158 C 0.74204 0.69358 0.73831 0.0
C1159 C 0.77937 0.69822 0.72852 0.0
C1160 C 0.74626 0.69315 0.75507 0.0
C1161 C 0.82117 0.69948 0.73565 0.0
C1162 C 0.82574 0.69734 0.75227 0.0
C1163 C 0.79256 0.69797 0.77888 0.0
C1164 C 0.75493 0.70058 0.78861 0.0
C1165 C 0.78847 0.69531 0.76213 0.0
C1166 C 0.7132 0.69757 0.78149 0.0
C1167 C 0.7089 0.69318 0.76491 0.0
H1168 H 0.59026 0.44839 0.98236 0.0
H1169 H 0.53576 0.57913 0.98547 0.0
H1170 H 0.53768 0.57543 0.01456 0.0
H1171 H 0.54675 0.53227 0.03897 0.0
H1172 H 0.59807 0.40022 0.03612 0.0
H1173 H 0.60617 0.40763 1.00719 0.0
C1174 C 0.57967 0.47643 0.98939 0.0
C1175 C 0.56253 0.51384 0.98168 0.0
C1176 C 0.57995 0.47375 1.00621 0.0
C1177 C 0.54876 0.54976 0.99104 0.0
C1178 C 0.54977 0.54767 1.00771 0.0
C1179 C 0.56044 0.50528 0.0321 0.0
C1180 C 0.57136 0.46556 0.03978 0.0
C1181 C 0.56405 0.50936 0.01542 0.0
C1182 C 0.58919 0.43113 0.03059 0.0
C1183 C 0.59365 0.43526 0.01399 0.0
H1184 H 0.97073 0.56651 0.53228 0.0
H1185 H 0.96414 0.42573 0.53758 0.0
H1186 H 0.96228 0.41679 0.50854 0.0
H1187 H 0.96935 0.44888 0.48155 0.0
H1188 H 0.96991 0.58977 0.47621 0.0
H1189 H 0.96686 0.59887 0.50523 0.0
C1190 C 0.968 0.53397 0.52704 0.0
C1191 C 0.96768 0.49685 0.53704 0.0
C1192 C 0.96615 0.52909 0.51031 0.0
C1193 C 0.96404 0.45485 0.53014 0.0
C1194 C 0.96332 0.44968 0.51353 0.0
C1195 C 0.96795 0.48151 0.48677 0.0
C1196 C 0.96997 0.51858 0.47678 0.0
C1197 C 0.96532 0.48651 0.50348 0.0
C1198 C 0.96801 0.56072 0.48365 0.0
C1199 C 0.96659 0.56596 0.50026 0.0
H1200 H 0.1347 0.82916 0.66357 0.0
H1201 H 0.22566 0.80948 0.62454 0.0
H1202 H 0.1783 0.85068 0.60677 0.0
H1203 H 0.1128 0.8962 0.60231 0.0
H1204 H 0.02354 0.91961 0.64141 0.0
H1205 H 0.0678 0.87309 0.65887 0.0
C1206 C 0.14411 0.83379 0.65118 0.0
C1207 C 0.18401 0.81624 0.64557 0.0
C1208 C 0.1168 0.85827 0.64089 0.0
C1209 C 0.19541 0.82262 0.62938 0.0
C1210 C 0.16822 0.84622 0.61909 0.0
C1211 C 0.10271 0.89041 0.61456 0.0
C1212 C 0.065 0.91122 0.62053 0.0
C1213 C 0.12904 0.8646 0.62471 0.0
C1214 C 0.05262 0.90403 0.63653 0.0
C1215 C 0.07797 0.87751 0.64656 0.0
H1216 H 0.33702 0.80567 0.88904 0.0
H1217 H 0.3911 0.83813 0.8428 0.0
H1218 H 0.44496 0.88634 0.85559 0.0
H1219 H 0.47329 0.92271 0.87959 0.0
H1220 H 0.41973 0.89064 0.92589 0.0
H1221 H 0.36929 0.83803 0.91332 0.0
C1222 C 0.36068 0.82306 0.88171 0.0
C1223 C 0.35954 0.81859 0.8649 0.0
C1224 C 0.39159 0.8507 0.88915 0.0
C1225 C 0.39099 0.841 0.8557 0.0
C1226 C 0.42176 0.86866 0.86302 0.0
C1227 C 0.45081 0.90405 0.887 0.0
C1228 C 0.44996 0.91104 0.90368 0.0
C1229 C 0.42184 0.87428 0.87969 0.0
C1230 C 0.42111 0.88595 0.91306 0.0
C1231 C 0.39209 0.85609 0.90586 0.0
H1232 H 0.41801 0.11584 0.09751 0.0
H1233 H 0.49378 0.07768 0.13876 0.0
H1234 H 0.44939 0.12504 0.15581 0.0
H1235 H 0.38579 0.17398 0.15945 0.0
H1236 H 0.30848 0.21008 0.11822 0.0
H1237 H 0.35634 0.16743 0.10098 0.0
C1238 C 0.42513 0.11847 0.11018 0.0
C1239 C 0.45893 0.09303 0.11683 0.0
C1240 C 0.39878 0.14522 0.12006 0.0
C1241 C 0.46757 0.09653 0.13333 0.0
C1242 C 0.44219 0.12365 0.14313 0.0
C1243 C 0.37953 0.17272 0.1467 0.0
C1244 C 0.34319 0.19514 0.1403 0.0
C1245 C 0.40708 0.14752 0.13671 0.0
C1246 C 0.33588 0.19308 0.12365 0.0
C1247 C 0.36336 0.16862 0.11368 0.0
H1248 H 0.05145 0.08913 0.37935 0.0
H1249 H 0.10901 0.13283 0.42377 0.0
H1250 H 0.15687 0.18335 0.40904 0.0
H1251 H 0.18583 0.2106 0.38352 0.0
H1252 H 0.12765 0.16754 0.33912 0.0
H1253 H 0.07609 0.12109 0.35396 0.0
C1254 C 0.07428 0.10987 0.38586 0.0
C1255 C 0.0771 0.10676 0.40265 0.0
C1256 C 0.10162 0.13862 0.37732 0.0
C1257 C 0.10621 0.13453 0.41088 0.0
C1258 C 0.13372 0.16321 0.40245 0.0
C1259 C 0.1618 0.19118 0.37705 0.0
C1260 C 0.16106 0.19199 0.36019 0.0
C1261 C 0.13231 0.16479 0.38566 0.0
C1262 C 0.12904 0.16738 0.35206 0.0
C1263 C 0.09969 0.14074 0.36055 0.0
H1264 H 0.87291 0.07256 0.41704 0.0
H1265 H 0.92897 0.0121 0.3751 0.0
H1266 H 0.88078 0.05605 0.35811 0.0
H1267 H 0.83023 0.11897 0.35531 0.0
H1268 H 0.76776 0.17273 0.39733 0.0
H1269 H 0.81076 0.12358 0.4142 0.0
C1270 C 0.87403 0.06817 0.40422 0.0
C1271 C 0.90585 0.04018 0.39738 0.0
C1272 C 0.8454 0.09273 0.39454 0.0
C1273 C 0.90584 0.0342 0.38072 0.0
C1274 C 0.87821 0.0594 0.37097 0.0
C1275 C 0.82514 0.11934 0.36811 0.0
C1276 C 0.79667 0.15069 0.37502 0.0
C1277 C 0.84907 0.09 0.37775 0.0
C1278 C 0.7901 0.14988 0.39165 0.0
C1279 C 0.81471 0.12167 0.40134 0.0
H1280 H 0.6603 0.07513 0.10093 0.0
H1281 H 0.61296 0.99986 0.14105 0.0
H1282 H 0.66114 0.0411 0.15893 0.0
H1283 H 0.70857 0.10544 0.16346 0.0
H1284 H 0.76298 0.17456 0.1231 0.0
H1285 H 0.72078 0.12801 0.10491 0.0
C1286 C 0.66113 0.06699 0.11351 0.0
C1287 C 0.63168 0.0355 0.11969 0.0
C1288 C 0.68994 0.08994 0.12368 0.0
C1289 C 0.63419 0.02472 0.13599 0.0
C1290 C 0.66186 0.04829 0.14625 0.0
C1291 C 0.71211 0.10976 0.15069 0.0
C1292 C 0.73765 0.14473 0.14472 0.0
C1293 C 0.6886 0.08211 0.14029 0.0
C1294 C 0.74264 0.1489 0.12809 0.0
C1295 C 0.71846 0.12222 0.11766 0.0
H1296 H 0.70152 0.90026 0.85268 0.0
H1297 H 0.75823 0.84118 0.89468 0.0
H1298 H 0.71416 0.88945 0.91166 0.0
H1299 H 0.65235 0.94138 0.91435 0.0
H1300 H 0.60211 0.00658 0.8724 0.0
H1301 H 0.65129 0.96319 0.85557 0.0
C1302 C 0.70504 0.89846 0.86552 0.0
C1303 C 0.73215 0.86592 0.87235 0.0
C1304 C 0.68037 0.92712 0.87521 0.0
C1305 C 0.73695 0.86501 0.88905 0.0
C1306 C 0.71165 0.89266 0.89879 0.0
C1307 C 0.65272 0.94692 0.90157 0.0
C1308 C 0.62237 0.97635 0.89465 0.0
C1309 C 0.68205 0.92271 0.89198 0.0
C1310 C 0.62418 0.98353 0.87807 0.0
C1311 C 0.6524 0.95868 0.86841 0.0
H1312 H 0.8122 0.89568 0.66216 0.0
H1313 H 0.76726 0.82492 0.62058 0.0
H1314 H 0.80889 0.87446 0.60336 0.0
H1315 H 0.86711 0.93019 0.60074 0.0
H1316 H 0.90508 0.00691 0.64188 0.0
H1317 H 0.8565 0.96296 0.65872 0.0
C1318 C 0.81064 0.89161 0.64933 0.0
C1319 C 0.78805 0.85536 0.64275 0.0
C1320 C 0.83382 0.92096 0.63947 0.0
C1321 C 0.78535 0.85155 0.62604 0.0
C1322 C 0.80922 0.87997 0.61617 0.0
C1323 C 0.86406 0.93817 0.61329 0.0
C1324 C 0.89124 0.97077 0.62011 0.0
C1325 C 0.83508 0.91357 0.62283 0.0
C1326 C 0.88578 0.9812 0.63636 0.0
C1327 C 0.85788 0.95605 0.64602 0.0
H1328 H 0.68036 0.2931 0.13074 0.0
H1329 H 0.62981 0.3309 0.17697 0.0
H1330 H 0.57617 0.37918 0.16402 0.0
H1331 H 0.54951 0.41609 0.13984 0.0
H1332 H 0.60096 0.37927 0.09365 0.0
H1333 H 0.64827 0.32434 0.10637 0.0
C1334 C 0.65742 0.31161 0.13802 0.0
C1335 C 0.65964 0.30898 0.15485 0.0
C1336 C 0.62707 0.33946 0.13051 0.0
C1337 C 0.62897 0.33244 0.16404 0.0
C1338 C 0.59846 0.36019 0.15663 0.0
C1339 C 0.57072 0.39576 0.1325 0.0
C1340 C 0.57222 0.40226 0.11581 0.0
C1341 C 0.59811 0.36481 0.13991 0.0
C1342 C 0.59922 0.37501 0.10648 0.0
C1343 C 0.62647 0.34384 0.11378 0.0
H1344 H 0.85329 0.30064 0.38918 0.0
H1345 H 0.88579 0.34894 0.34217 0.0
H1346 H 0.939 0.40008 0.354 0.0
H1347 H 0.97129 0.4349 0.37784 0.0
H1348 H 0.93811 0.3862 0.42479 0.0
H1349 H 0.88979 0.33117 0.41274 0.0
C1350 C 0.87221 0.32208 0.38146 0.0
C1351 C 0.86514 0.32134 0.3648 0.0
C1352 C 0.9022 0.35154 0.38835 0.0
C1353 C 0.89056 0.34881 0.355 0.0
C1354 C 0.92073 0.37825 0.36178 0.0
C1355 C 0.9537 0.41216 0.38548 0.0
C1356 C 0.95795 0.41517 0.40226 0.0
C1357 C 0.92601 0.38057 0.37847 0.0
C1358 C 0.93536 0.38487 0.41189 0.0
C1359 C 0.90767 0.35342 0.405 0.0
H1360 H 0.97983 0.58266 0.6364 0.0
H1361 H 0.93257 0.62431 0.59019 0.0
H1362 H 0.88351 0.67729 0.60313 0.0
H1363 H 0.84992 0.70696 0.62752 0.0
H1364 H 0.89723 0.66561 0.67375 0.0
H1365 H 0.95107 0.61748 0.66077 0.0
C1366 C 0.95905 0.60351 0.62911 0.0
C1367 C 0.95944 0.59904 0.61232 0.0
C1368 C 0.93094 0.63376 0.63663 0.0
C1369 C 0.93287 0.62694 0.6031 0.0
C1370 C 0.90468 0.65709 0.61051 0.0
C1371 C 0.8722 0.6877 0.6348 0.0
C1372 C 0.8691 0.68942 0.65162 0.0
C1373 C 0.90279 0.66004 0.62726 0.0
C1374 C 0.89884 0.66487 0.66081 0.0
C1375 C 0.92944 0.63717 0.65339 0.0
H1376 H 0.68661 0.71166 0.8895 0.0
H1377 H 0.63999 0.66689 0.84353 0.0
H1378 H 0.58784 0.61771 0.85677 0.0
H1379 H 0.5591 0.58425 0.8813 0.0
H1380 H 0.60434 0.62997 0.9273 0.0
H1381 H 0.65341 0.68248 0.91409 0.0
C1382 C 0.66491 0.69134 0.88234 0.0
C1383 C 0.66763 0.69259 0.86551 0.0
C1384 C 0.63495 0.66331 0.89004 0.0
C1385 C 0.63868 0.66656 0.85647 0.0
C1386 C 0.60898 0.63831 0.86404 0.0
C1387 C 0.57954 0.6058 0.88847 0.0
C1388 C 0.5785 0.60276 0.90529 0.0
C1389 C 0.60742 0.63589 0.8808 0.0
C1390 C 0.60456 0.63157 0.91437 0.0
C1391 C 0.63273 0.66144 0.90681 0.0
H1392 H 0.36964 0.56805 0.91498 0.0
H1393 H 0.43509 0.51283 0.87389 0.0
H1394 H 0.38755 0.55541 0.85622 0.0
H1395 H 0.33439 0.61563 0.85277 0.0
H1396 H 0.26333 0.66486 0.89367 0.0
H1397 H 0.30586 0.61676 0.91116 0.0
C1398 C 0.37302 0.56455 0.90218 0.0
C1399 C 0.40702 0.53827 0.89583 0.0
C1400 C 0.34484 0.58839 0.89208 0.0
C1401 C 0.41003 0.53344 0.87916 0.0
C1402 C 0.3828 0.55788 0.86903 0.0
C1403 C 0.32735 0.61525 0.86544 0.0
C1404 C 0.29647 0.645 0.87189 0.0
C1405 C 0.35119 0.58666 0.87539 0.0
C1406 C 0.28745 0.6432 0.88836 0.0
C1407 C 0.31183 0.61564 0.89839 0.0
H1408 H 0.16187 0.56753 0.60111 0.0
H1409 H 0.10859 0.50006 0.64208 0.0
H1410 H 0.15671 0.54237 0.65968 0.0
H1411 H 0.20649 0.60549 0.66351 0.0
H1412 H 0.26543 0.6673 0.62247 0.0
H1413 H 0.22335 0.61933 0.60474 0.0
C1414 C 0.16138 0.56123 0.61384 0.0
C1415 C 0.13043 0.53158 0.62026 0.0
C1416 C 0.18999 0.58489 0.62387 0.0
C1417 C 0.13114 0.52335 0.63679 0.0
C1418 C 0.15873 0.54758 0.64689 0.0
C1419 C 0.21079 0.60796 0.65071 0.0
C1420 C 0.23792 0.64117 0.64435 0.0
C1421 C 0.18709 0.57959 0.64059 0.0
C1422 C 0.24411 0.64291 0.62772 0.0
C1423 C 0.21991 0.61544 0.61756 0.0
H1424 H 0.1583 0.43555 0.41176 0.0
H1425 H 0.11062 0.51095 0.37172 0.0
H1426 H 0.1556 0.46703 0.35357 0.0
H1427 H 0.20094 0.40115 0.3489 0.0
H1428 H 0.25514 0.33128 0.3891 0.0
H1429 H 0.21586 0.37985 0.40744 0.0
C1430 C 0.1584 0.44318 0.39913 0.0
C1431 C 0.12986 0.47574 0.39311 0.0
C1432 C 0.18529 0.41853 0.38878 0.0
C1433 C 0.13129 0.48551 0.3767 0.0
C1434 C 0.15709 0.46035 0.36628 0.0
C1435 C 0.20487 0.39699 0.36166 0.0
C1436 C 0.22978 0.36149 0.36757 0.0
C1437 C 0.18299 0.42577 0.37215 0.0
C1438 C 0.23544 0.35749 0.38417 0.0
C1439 C 0.21289 0.38532 0.39469 0.0
H1440 H 0.37284 0.45416 0.10291 0.0
H1441 H 0.43069 0.50514 0.14622 0.0
H1442 H 0.37958 0.46151 0.16213 0.0
H1443 H 0.32628 0.40072 0.16344 0.0
H1444 H 0.26249 0.35626 0.12037 0.0
H1445 H 0.30758 0.4064 0.10458 0.0
C1446 C 0.37366 0.45669 0.11581 0.0
C1447 C 0.4068 0.48171 0.12333 0.0
C1448 C 0.34343 0.43233 0.1249 0.0
C1449 C 0.4065 0.48529 0.14008 0.0
C1450 C 0.37721 0.46029 0.14921 0.0
C1451 C 0.32156 0.40249 0.15066 0.0
C1452 C 0.29235 0.37323 0.14306 0.0
C1453 C 0.34681 0.43229 0.14172 0.0
C1454 C 0.28564 0.37724 0.12651 0.0
C1455 C 0.31145 0.40603 0.11746 0.0
loop_
_geom_bond_atom_site_label_1
_geom_bond_atom_site_label_2
_geom_bond_distance
_geom_bond_site_symmetry_2
_ccdc_geom_bond_type
Co0 O2 2.143 1_665 S
Co0 O8 2.074 . S
Co0 O11 2.093 1_655 S
Co0 O24 2.097 1_655 S
Co0 N41 2.151 . S
Co0 N49 2.214 . S
Co1 O2 2.160 . S
Co1 O7 2.058 1_455 S
Co1 O17 2.057 . S
Co1 O32 2.037 1_545 S
Co1 N36 2.145 . S
Co1 N57 2.257 . S
O2 Co0 2.143 1_445 S
O2 Co1 2.160 . S
C3 O4 1.278 . S
C3 O11 1.224 1_545 S
O4 C3 1.278 . S
C5 O6 1.245 . S
C5 O17 1.232 1_655 S
O6 C5 1.245 . S
O7 Co1 2.058 1_655 S
O7 C33 1.269 1_545 S
O8 Co0 2.074 . S
O8 C33 1.257 . S
H9 C34 0.930 . S
H10 C40 0.930 . S
O11 Co0 2.093 1_455 S
O11 C3 1.224 1_565 S
H12 C44 0.929 . S
H13 C46 0.930 . S
H14 C47 0.936 . S
H15 C45 0.929 . S
H16 C48 0.928 . S
O17 Co1 2.057 . S
O17 C5 1.232 1_455 S
H18 C37 0.929 . S
H19 C38 0.929 . S
H20 C50 0.931 . S
H21 C42 0.929 . S
H22 C51 0.930 . S
H23 C43 0.931 . S
O24 Co0 2.097 1_455 S
O24 C52 1.214 . S
H25 C53 0.929 . S
H26 C54 0.929 . S
H27 C55 0.930 . S
H28 C56 0.929 . S
H29 C58 0.930 . S
H30 C35 0.930 . S
H31 C39 0.930 . S
O32 Co1 2.037 1_565 S
O32 C52 1.234 . S
C33 O7 1.269 1_565 S
C33 O8 1.257 . S
C34 H9 0.930 . S
C34 C37 1.388 . S
C34 C39 1.418 . S
C35 H30 0.930 . S
C35 C38 1.404 . S
C35 C39 1.353 . S
N36 Co1 2.145 . S
N36 C37 1.397 . S
N36 C38 1.334 . S
C37 H18 0.929 . S
C37 C34 1.388 . S
C37 N36 1.397 . S
C38 H19 0.929 . S
C38 C35 1.404 . S
C38 N36 1.334 . S
C39 H31 0.930 . S
C39 C34 1.418 . S
C39 C35 1.353 . S
C40 H10 0.930 . S
C40 N41 1.330 1_545 S
C40 C42 1.446 . S
N41 Co0 2.151 . S
N41 C40 1.330 1_565 S
N41 C45 1.418 . S
C42 H21 0.929 . S
C42 C40 1.446 . S
C42 C43 1.332 1_545 S
C43 H23 0.931 . S
C43 C42 1.332 1_565 S
C43 C44 1.267 . S
C44 H12 0.929 . S
C44 C43 1.267 . S
C44 C45 1.251 . S
C45 H15 0.929 . S
C45 N41 1.418 . S
C45 C44 1.251 . S
C46 H13 0.930 . S
C46 C48 1.406 . S
C46 C51 1.261 . S
C47 H14 0.936 . S
C47 N49 1.325 . S
C47 C50 1.357 . S
C48 H16 0.928 . S
C48 C46 1.406 . S
C48 N49 1.261 . S
N49 Co0 2.214 . S
N49 C47 1.325 . S
N49 C48 1.261 . S
C50 H20 0.931 . S
C50 C47 1.357 . S
C50 C51 1.312 . S
C51 H22 0.930 . S
C51 C46 1.261 . S
C51 C50 1.312 . S
C52 O24 1.214 . S
C52 O32 1.234 . S
C53 H25 0.929 . S
C53 C56 1.391 . S
C53 C58 1.391 . S
C54 H26 0.929 . S
C54 C55 1.390 . S
C54 N57 1.391 . S
C55 H27 0.930 . S
C55 C54 1.390 . S
C55 C56 1.392 . S
C56 H28 0.929 . S
C56 C53 1.391 . S
C56 C55 1.392 . S
N57 Co1 2.257 . S
N57 C54 1.391 . S
N57 C58 1.388 . S
C58 H29 0.930 . S
C58 C53 1.391 . S
C58 N57 1.388 . S
Co59 O61 2.143 . S
Co59 O67 2.074 . S
Co59 O70 2.093 . S
Co59 O83 2.097 . S
Co59 N100 2.151 . S
Co59 N108 2.214 . S
Co60 O61 2.160 . S
Co60 O66 2.058 . S
Co60 O76 2.057 . S
Co60 O91 2.037 . S
Co60 N95 2.145 . S
Co60 N116 2.257 . S
O61 Co59 2.143 . S
O61 Co60 2.160 . S
C62 O63 1.278 . S
C62 O70 1.224 . S
O63 C62 1.278 . S
C64 O65 1.245 . S
C64 O76 1.232 . S
O65 C64 1.245 . S
O66 Co60 2.058 . S
O66 C92 1.269 . S
O67 Co59 2.074 . S
O67 C92 1.257 . S
H68 C93 0.930 . S
H69 C99 0.930 . S
O70 Co59 2.093 . S
O70 C62 1.224 . S
H71 C103 0.929 . S
H72 C105 0.930 . S
H73 C106 0.930 . S
H74 C104 0.929 . S
H75 C107 0.928 . S
O76 Co60 2.057 . S
O76 C64 1.232 . S
H77 C96 0.929 . S
H78 C97 0.929 . S
H79 C109 0.931 . S
H80 C101 0.929 . S
H81 C110 0.930 . S
H82 C102 0.931 . S
O83 Co59 2.097 . S
O83 C111 1.214 . S
H84 C112 0.929 . S
H85 C113 0.929 . S
H86 C114 0.930 . S
H87 C115 0.929 . S
H88 C117 0.930 . S
H89 C94 0.930 . S
H90 C98 0.930 . S
O91 Co60 2.037 . S
O91 C111 1.234 . S
C92 O66 1.269 . S
C92 O67 1.257 . S
C93 H68 0.930 . S
C93 C96 1.388 . S
C93 C98 1.418 . S
C94 H89 0.930 . S
C94 C97 1.404 . S
C94 C98 1.353 . S
N95 Co60 2.145 . S
N95 C96 1.397 . S
N95 C97 1.334 . S
C96 H77 0.929 . S
C96 C93 1.388 . S
C96 N95 1.397 . S
C97 H78 0.929 . S
C97 C94 1.404 . S
C97 N95 1.334 . S
C98 H90 0.930 . S
C98 C93 1.418 . S
C98 C94 1.353 . S
C99 H69 0.930 . S
C99 N100 1.330 . S
C99 C101 1.446 . S
N100 Co59 2.151 . S
N100 C99 1.330 . S
N100 C104 1.418 . S
C101 H80 0.929 . S
C101 C99 1.446 . S
C101 C102 1.332 . S
C102 H82 0.931 . S
C102 C101 1.332 . S
C102 C103 1.267 . S
C103 H71 0.929 . S
C103 C102 1.267 . S
C103 C104 1.251 . S
C104 H74 0.929 . S
C104 N100 1.418 . S
C104 C103 1.251 . S
C105 H72 0.930 . S
C105 C107 1.406 . S
C105 C110 1.261 . S
C106 H73 0.930 . S
C106 N108 1.325 . S
C106 C109 1.357 . S
C107 H75 0.928 . S
C107 C105 1.406 . S
C107 N108 1.261 . S
N108 Co59 2.214 . S
N108 C106 1.325 . S
N108 C107 1.261 . S
C109 H79 0.931 . S
C109 C106 1.357 . S
C109 C110 1.312 . S
C110 H81 0.930 . S
C110 C105 1.261 . S
C110 C109 1.312 . S
C111 O83 1.214 . S
C111 O91 1.234 . S
C112 H84 0.929 . S
C112 C115 1.391 . S
C112 C117 1.391 . S
C113 H85 0.929 . S
C113 C114 1.390 . S
C113 N116 1.391 . S
C114 H86 0.930 . S
C114 C113 1.390 . S
C114 C115 1.392 . S
C115 H87 0.929 . S
C115 C112 1.391 . S
C115 C114 1.392 . S
N116 Co60 2.257 . S
N116 C113 1.391 . S
N116 C117 1.388 . S
C117 H88 0.930 . S
C117 C112 1.391 . S
C117 N116 1.388 . S
Co118 O120 2.143 1_545 S
Co118 O126 2.074 . S
Co118 O129 2.093 . S
Co118 O142 2.097 . S
Co118 N159 2.151 . S
Co118 N167 2.214 . S
Co119 O120 2.160 . S
Co119 O125 2.058 . S
Co119 O135 2.057 . S
Co119 O150 2.037 1_565 S
Co119 N154 2.145 . S
Co119 N175 2.257 . S
O120 Co118 2.143 1_565 S
O120 Co119 2.160 . S
C121 O122 1.278 . S
C121 O129 1.224 1_565 S
O122 C121 1.278 . S
C123 O124 1.245 . S
C123 O135 1.232 . S
O124 C123 1.245 . S
O125 Co119 2.058 . S
O125 C151 1.269 1_565 S
O126 Co118 2.074 . S
O126 C151 1.257 . S
H127 C152 0.930 . S
H128 C158 0.930 . S
O129 Co118 2.093 . S
O129 C121 1.224 1_545 S
H130 C162 0.929 . S
H131 C164 0.930 . S
H132 C165 0.930 . S
H133 C163 0.929 . S
H134 C166 0.928 . S
O135 Co119 2.057 . S
O135 C123 1.232 . S
H136 C155 0.929 . S
H137 C156 0.929 . S
H138 C168 0.931 . S
H139 C160 0.929 . S
H140 C169 0.930 . S
H141 C161 0.931 . S
O142 Co118 2.097 . S
O142 C170 1.214 . S
H143 C171 0.929 . S
H144 C172 0.929 . S
H145 C173 0.930 . S
H146 C174 0.929 . S
H147 C176 0.930 . S
H148 C153 0.930 . S
H149 C157 0.930 . S
O150 Co119 2.037 1_545 S
O150 C170 1.234 . S
C151 O125 1.269 1_545 S
C151 O126 1.257 . S
C152 H127 0.930 . S
C152 C155 1.388 . S
C152 C157 1.418 . S
C153 H148 0.930 . S
C153 C156 1.404 . S
C153 C157 1.353 . S
N154 Co119 2.145 . S
N154 C155 1.397 . S
N154 C156 1.334 . S
C155 H136 0.929 . S
C155 C152 1.388 . S
C155 N154 1.397 . S
C156 H137 0.929 . S
C156 C153 1.404 . S
C156 N154 1.334 . S
C157 H149 0.930 . S
C157 C152 1.418 . S
C157 C153 1.353 . S
C158 H128 0.930 . S
C158 N159 1.330 1_565 S
C158 C160 1.446 . S
N159 Co118 2.151 . S
N159 C158 1.330 1_545 S
N159 C163 1.418 . S
C160 H139 0.929 . S
C160 C158 1.446 . S
C160 C161 1.332 1_565 S
C161 H141 0.931 . S
C161 C160 1.332 1_545 S
C161 C162 1.267 . S
C162 H130 0.929 . S
C162 C161 1.267 . S
C162 C163 1.251 . S
C163 H133 0.929 . S
C163 N159 1.418 . S
C163 C162 1.251 . S
C164 H131 0.930 . S
C164 C166 1.406 . S
C164 C169 1.261 . S
C165 H132 0.930 . S
C165 N167 1.325 . S
C165 C168 1.357 . S
C166 H134 0.928 . S
C166 C164 1.406 . S
C166 N167 1.261 . S
N167 Co118 2.214 . S
N167 C165 1.325 . S
N167 C166 1.261 . S
C168 H138 0.931 . S
C168 C165 1.357 . S
C168 C169 1.312 . S
C169 H140 0.930 . S
C169 C164 1.261 . S
C169 C168 1.312 . S
C170 O142 1.214 . S
C170 O150 1.234 . S
C171 H143 0.929 . S
C171 C174 1.391 . S
C171 C176 1.391 . S
C172 H144 0.929 . S
C172 C173 1.390 . S
C172 N175 1.391 . S
C173 H145 0.930 . S
C173 C172 1.390 . S
C173 C174 1.392 . S
C174 H146 0.929 . S
C174 C171 1.391 . S
C174 C173 1.392 . S
N175 Co119 2.257 . S
N175 C172 1.391 . S
N175 C176 1.388 . S
C176 H147 0.930 . S
C176 C171 1.391 . S
C176 N175 1.388 . S
Co177 O179 2.143 . S
Co177 O185 2.074 . S
Co177 O188 2.093 . S
Co177 O201 2.097 . S
Co177 N218 2.151 . S
Co177 N226 2.214 . S
Co178 O179 2.160 . S
Co178 O184 2.058 . S
Co178 O194 2.057 . S
Co178 O209 2.037 . S
Co178 N213 2.145 . S
Co178 N234 2.257 . S
O179 Co177 2.143 . S
O179 Co178 2.160 . S
C180 O181 1.278 . S
C180 O188 1.224 . S
O181 C180 1.278 . S
C182 O183 1.245 . S
C182 O194 1.232 . S
O183 C182 1.245 . S
O184 Co178 2.058 . S
O184 C210 1.269 . S
O185 Co177 2.074 . S
O185 C210 1.257 . S
H186 C211 0.930 . S
H187 C217 0.930 . S
O188 Co177 2.093 . S
O188 C180 1.224 . S
H189 C221 0.929 . S
H190 C223 0.930 . S
H191 C224 0.930 . S
H192 C222 0.929 . S
H193 C225 0.928 . S
O194 Co178 2.057 . S
O194 C182 1.232 . S
H195 C214 0.929 . S
H196 C215 0.929 . S
H197 C227 0.931 . S
H198 C219 0.929 . S
H199 C228 0.930 . S
H200 C220 0.931 . S
O201 Co177 2.097 . S
O201 C229 1.214 . S
H202 C230 0.929 . S
H203 C231 0.929 . S
H204 C232 0.930 . S
H205 C233 0.929 . S
H206 C235 0.930 . S
H207 C212 0.930 . S
H208 C216 0.930 . S
O209 Co178 2.037 . S
O209 C229 1.234 . S
C210 O184 1.269 . S
C210 O185 1.257 . S
C211 H186 0.930 . S
C211 C214 1.388 . S
C211 C216 1.418 . S
C212 H207 0.930 . S
C212 C215 1.404 . S
C212 C216 1.353 . S
N213 Co178 2.145 . S
N213 C214 1.397 . S
N213 C215 1.334 . S
C214 H195 0.929 . S
C214 C211 1.388 . S
C214 N213 1.397 . S
C215 H196 0.929 . S
C215 C212 1.404 . S
C215 N213 1.334 . S
C216 H208 0.930 . S
C216 C211 1.418 . S
C216 C212 1.353 . S
C217 H187 0.930 . S
C217 N218 1.330 . S
C217 C219 1.446 . S
N218 Co177 2.151 . S
N218 C217 1.330 . S
N218 C222 1.418 . S
C219 H198 0.929 . S
C219 C217 1.446 . S
C219 C220 1.332 . S
C220 H200 0.931 . S
C220 C219 1.332 . S
C220 C221 1.267 . S
C221 H189 0.929 . S
C221 C220 1.267 . S
C221 C222 1.251 . S
C222 H192 0.929 . S
C222 N218 1.418 . S
C222 C221 1.251 . S
C223 H190 0.930 . S
C223 C225 1.406 . S
C223 C228 1.261 . S
C224 H191 0.930 . S
C224 N226 1.325 . S
C224 C227 1.357 . S
C225 H193 0.928 . S
C225 C223 1.406 . S
C225 N226 1.261 . S
N226 Co177 2.214 . S
N226 C224 1.325 . S
N226 C225 1.261 . S
C227 H197 0.931 . S
C227 C224 1.357 . S
C227 C228 1.312 . S
C228 H199 0.930 . S
C228 C223 1.261 . S
C228 C227 1.312 . S
C229 O201 1.214 . S
C229 O209 1.234 . S
C230 H202 0.929 . S
C230 C233 1.391 . S
C230 C235 1.391 . S
C231 H203 0.929 . S
C231 C232 1.390 . S
C231 N234 1.391 . S
C232 H204 0.930 . S
C232 C231 1.390 . S
C232 C233 1.392 . S
C233 H205 0.929 . S
C233 C230 1.391 . S
C233 C232 1.392 . S
N234 Co178 2.257 . S
N234 C231 1.391 . S
N234 C235 1.388 . S
C235 H206 0.930 . S
C235 C230 1.391 . S
C235 N234 1.388 . S
Co236 O238 2.143 1_645 S
Co236 O244 2.074 . S
Co236 O247 2.093 1_655 S
Co236 O260 2.097 1_655 S
Co236 N277 2.151 . S
Co236 N285 2.214 . S
Co237 O238 2.160 . S
Co237 O243 2.058 1_455 S
Co237 O253 2.057 . S
Co237 O268 2.037 1_565 S
Co237 N272 2.145 . S
Co237 N293 2.257 . S
O238 Co236 2.143 1_465 S
O238 Co237 2.160 . S
C239 O240 1.278 . S
C239 O247 1.224 1_565 S
O240 C239 1.278 . S
C241 O242 1.245 . S
C241 O253 1.232 1_655 S
O242 C241 1.245 . S
O243 Co237 2.058 1_655 S
O243 C269 1.269 1_565 S
O244 Co236 2.074 . S
O244 C269 1.257 . S
H245 C270 0.930 . S
H246 C276 0.930 . S
O247 Co236 2.093 1_455 S
O247 C239 1.224 1_545 S
H248 C280 0.929 . S
H249 C282 0.930 . S
H250 C283 0.936 . S
H251 C281 0.929 . S
H252 C284 0.928 . S
O253 Co237 2.057 . S
O253 C241 1.232 1_455 S
H254 C273 0.929 . S
H255 C274 0.929 . S
H256 C286 0.931 . S
H257 C278 0.929 . S
H258 C287 0.930 . S
H259 C279 0.931 . S
O260 Co236 2.097 1_455 S
O260 C288 1.214 . S
H261 C289 0.929 . S
H262 C290 0.929 . S
H263 C291 0.930 . S
H264 C292 0.929 . S
H265 C294 0.930 . S
H266 C271 0.930 . S
H267 C275 0.930 . S
O268 Co237 2.037 1_545 S
O268 C288 1.234 . S
C269 O243 1.269 1_545 S
C269 O244 1.257 . S
C270 H245 0.930 . S
C270 C273 1.388 . S
C270 C275 1.418 . S
C271 H266 0.930 . S
C271 C274 1.404 . S
C271 C275 1.353 . S
N272 Co237 2.145 . S
N272 C273 1.397 . S
N272 C274 1.334 . S
C273 H254 0.929 . S
C273 C270 1.388 . S
C273 N272 1.397 . S
C274 H255 0.929 . S
C274 C271 1.404 . S
C274 N272 1.334 . S
C275 H267 0.930 . S
C275 C270 1.418 . S
C275 C271 1.353 . S
C276 H246 0.930 . S
C276 N277 1.330 1_565 S
C276 C278 1.446 . S
N277 Co236 2.151 . S
N277 C276 1.330 1_545 S
N277 C281 1.418 . S
C278 H257 0.929 . S
C278 C276 1.446 . S
C278 C279 1.332 1_565 S
C279 H259 0.931 . S
C279 C278 1.332 1_545 S
C279 C280 1.267 . S
C280 H248 0.929 . S
C280 C279 1.267 . S
C280 C281 1.251 . S
C281 H251 0.929 . S
C281 N277 1.418 . S
C281 C280 1.251 . S
C282 H249 0.930 . S
C282 C284 1.406 . S
C282 C287 1.261 . S
C283 H250 0.936 . S
C283 N285 1.325 . S
C283 C286 1.357 . S
C284 H252 0.928 . S
C284 C282 1.406 . S
C284 N285 1.261 . S
N285 Co236 2.214 . S
N285 C283 1.325 . S
N285 C284 1.261 . S
C286 H256 0.931 . S
C286 C283 1.357 . S
C286 C287 1.312 . S
C287 H258 0.930 . S
C287 C282 1.261 . S
C287 C286 1.312 . S
C288 O260 1.214 . S
C288 O268 1.234 . S
C289 H261 0.929 . S
C289 C292 1.391 . S
C289 C294 1.391 . S
C290 H262 0.929 . S
C290 C291 1.390 . S
C290 N293 1.391 . S
C291 H263 0.930 . S
C291 C290 1.390 . S
C291 C292 1.392 . S
C292 H264 0.929 . S
C292 C289 1.391 . S
C292 C291 1.392 . S
N293 Co237 2.257 . S
N293 C290 1.391 . S
N293 C294 1.388 . S
C294 H265 0.930 . S
C294 C289 1.391 . S
C294 N293 1.388 . S
Co295 O297 2.143 . S
Co295 O303 2.074 . S
Co295 O306 2.093 . S
Co295 O319 2.097 . S
Co295 N336 2.151 . S
Co295 N344 2.214 . S
Co296 O297 2.160 . S
Co296 O302 2.058 . S
Co296 O312 2.057 . S
Co296 O327 2.037 . S
Co296 N331 2.145 . S
Co296 N352 2.257 . S
O297 Co295 2.143 . S
O297 Co296 2.160 . S
C298 O299 1.278 . S
C298 O306 1.224 . S
O299 C298 1.278 . S
C300 O301 1.245 . S
C300 O312 1.232 . S
O301 C300 1.245 . S
O302 Co296 2.058 . S
O302 C328 1.269 . S
O303 Co295 2.074 . S
O303 C328 1.257 . S
H304 C329 0.930 . S
H305 C335 0.930 . S
O306 Co295 2.093 . S
O306 C298 1.224 . S
H307 C339 0.929 . S
H308 C341 0.930 . S
H309 C342 0.930 . S
H310 C340 0.929 . S
H311 C343 0.928 . S
O312 Co296 2.057 . S
O312 C300 1.232 . S
H313 C332 0.929 . S
H314 C333 0.929 . S
H315 C345 0.931 . S
H316 C337 0.929 . S
H317 C346 0.930 . S
H318 C338 0.931 . S
O319 Co295 2.097 . S
O319 C347 1.214 . S
H320 C348 0.929 . S
H321 C349 0.929 . S
H322 C350 0.930 . S
H323 C351 0.929 . S
H324 C353 0.930 . S
H325 C330 0.930 . S
H326 C334 0.930 . S
O327 Co296 2.037 . S
O327 C347 1.234 . S
C328 O302 1.269 . S
C328 O303 1.257 . S
C329 H304 0.930 . S
C329 C332 1.388 . S
C329 C334 1.418 . S
C330 H325 0.930 . S
C330 C333 1.404 . S
C330 C334 1.353 . S
N331 Co296 2.145 . S
N331 C332 1.397 . S
N331 C333 1.334 . S
C332 H313 0.929 . S
C332 C329 1.388 . S
C332 N331 1.397 . S
C333 H314 0.929 . S
C333 C330 1.404 . S
C333 N331 1.334 . S
C334 H326 0.930 . S
C334 C329 1.418 . S
C334 C330 1.353 . S
C335 H305 0.930 . S
C335 N336 1.330 . S
C335 C337 1.446 . S
N336 Co295 2.151 . S
N336 C335 1.330 . S
N336 C340 1.418 . S
C337 H316 0.929 . S
C337 C335 1.446 . S
C337 C338 1.332 . S
C338 H318 0.931 . S
C338 C337 1.332 . S
C338 C339 1.267 . S
C339 H307 0.929 . S
C339 C338 1.267 . S
C339 C340 1.251 . S
C340 H310 0.929 . S
C340 N336 1.418 . S
C340 C339 1.251 . S
C341 H308 0.930 . S
C341 C343 1.406 . S
C341 C346 1.261 . S
C342 H309 0.930 . S
C342 N344 1.325 . S
C342 C345 1.357 . S
C343 H311 0.928 . S
C343 C341 1.406 . S
C343 N344 1.261 . S
N344 Co295 2.214 . S
N344 C342 1.325 . S
N344 C343 1.261 . S
C345 H315 0.931 . S
C345 C342 1.357 . S
C345 C346 1.312 . S
C346 H317 0.930 . S
C346 C341 1.261 . S
C346 C345 1.312 . S
C347 O319 1.214 . S
C347 O327 1.234 . S
C348 H320 0.929 . S
C348 C351 1.391 . S
C348 C353 1.391 . S
C349 H321 0.929 . S
C349 C350 1.390 . S
C349 N352 1.391 . S
C350 H322 0.930 . S
C350 C349 1.390 . S
C350 C351 1.392 . S
C351 H323 0.929 . S
C351 C348 1.391 . S
C351 C350 1.392 . S
N352 Co296 2.257 . S
N352 C349 1.391 . S
N352 C353 1.388 . S
C353 H324 0.930 . S
C353 C348 1.391 . S
C353 N352 1.388 . S
Co354 O356 2.143 1_565 S
Co354 O362 2.074 . S
Co354 O365 2.093 . S
Co354 O378 2.097 . S
Co354 N395 2.151 . S
Co354 N403 2.214 . S
Co355 O356 2.160 . S
Co355 O361 2.058 . S
Co355 O371 2.057 . S
Co355 O386 2.037 1_545 S
Co355 N390 2.145 . S
Co355 N411 2.257 . S
O356 Co354 2.143 1_545 S
O356 Co355 2.160 . S
C357 O358 1.278 . S
C357 O365 1.224 1_545 S
O358 C357 1.278 . S
C359 O360 1.245 . S
C359 O371 1.232 . S
O360 C359 1.245 . S
O361 Co355 2.058 . S
O361 C387 1.269 1_545 S
O362 Co354 2.074 . S
O362 C387 1.257 . S
H363 C388 0.930 . S
H364 C394 0.930 . S
O365 Co354 2.093 . S
O365 C357 1.224 1_565 S
H366 C398 0.929 . S
H367 C400 0.930 . S
H368 C401 0.930 . S
H369 C399 0.929 . S
H370 C402 0.928 . S
O371 Co355 2.057 . S
O371 C359 1.232 . S
H372 C391 0.929 . S
H373 C392 0.929 . S
H374 C404 0.931 . S
H375 C396 0.929 . S
H376 C405 0.930 . S
H377 C397 0.931 . S
O378 Co354 2.097 . S
O378 C406 1.214 . S
H379 C407 0.929 . S
H380 C408 0.929 . S
H381 C409 0.930 . S
H382 C410 0.929 . S
H383 C412 0.930 . S
H384 C389 0.930 . S
H385 C393 0.930 . S
O386 Co355 2.037 1_565 S
O386 C406 1.234 . S
C387 O361 1.269 1_565 S
C387 O362 1.257 . S
C388 H363 0.930 . S
C388 C391 1.388 . S
C388 C393 1.418 . S
C389 H384 0.930 . S
C389 C392 1.404 . S
C389 C393 1.353 . S
N390 Co355 2.145 . S
N390 C391 1.397 . S
N390 C392 1.334 . S
C391 H372 0.929 . S
C391 C388 1.388 . S
C391 N390 1.397 . S
C392 H373 0.929 . S
C392 C389 1.404 . S
C392 N390 1.334 . S
C393 H385 0.930 . S
C393 C388 1.418 . S
C393 C389 1.353 . S
C394 H364 0.930 . S
C394 N395 1.330 1_545 S
C394 C396 1.446 . S
N395 Co354 2.151 . S
N395 C394 1.330 1_565 S
N395 C399 1.418 . S
C396 H375 0.929 . S
C396 C394 1.446 . S
C396 C397 1.332 1_545 S
C397 H377 0.931 . S
C397 C396 1.332 1_565 S
C397 C398 1.267 . S
C398 H366 0.929 . S
C398 C397 1.267 . S
C398 C399 1.251 . S
C399 H369 0.929 . S
C399 N395 1.418 . S
C399 C398 1.251 . S
C400 H367 0.930 . S
C400 C402 1.406 . S
C400 C405 1.261 . S
C401 H368 0.930 . S
C401 N403 1.325 . S
C401 C404 1.357 . S
C402 H370 0.928 . S
C402 C400 1.406 . S
C402 N403 1.261 . S
N403 Co354 2.214 . S
N403 C401 1.325 . S
N403 C402 1.261 . S
C404 H374 0.931 . S
C404 C401 1.357 . S
C404 C405 1.312 . S
C405 H376 0.930 . S
C405 C400 1.261 . S
C405 C404 1.312 . S
C406 O378 1.214 . S
C406 O386 1.234 . S
C407 H379 0.929 . S
C407 C410 1.391 . S
C407 C412 1.391 . S
C408 H380 0.929 . S
C408 C409 1.390 . S
C408 N411 1.391 . S
C409 H381 0.930 . S
C409 C408 1.390 . S
C409 C410 1.392 . S
C410 H382 0.929 . S
C410 C407 1.391 . S
C410 C409 1.392 . S
N411 Co355 2.257 . S
N411 C408 1.391 . S
N411 C412 1.388 . S
C412 H383 0.930 . S
C412 C407 1.391 . S
C412 N411 1.388 . S
Co413 O415 2.143 . S
Co413 O421 2.074 . S
Co413 O424 2.093 . S
Co413 O437 2.097 . S
Co413 N454 2.151 . S
Co413 N462 2.214 . S
Co414 O415 2.160 . S
Co414 O420 2.058 . S
Co414 O430 2.057 . S
Co414 O445 2.037 . S
Co414 N449 2.145 . S
Co414 N470 2.257 . S
O415 Co413 2.143 . S
O415 Co414 2.160 . S
C416 O417 1.278 . S
C416 O424 1.224 . S
O417 C416 1.278 . S
C418 O419 1.245 . S
C418 O430 1.232 . S
O419 C418 1.245 . S
O420 Co414 2.058 . S
O420 C446 1.269 . S
O421 Co413 2.074 . S
O421 C446 1.257 . S
H422 C447 0.930 . S
H423 C453 0.930 . S
O424 Co413 2.093 . S
O424 C416 1.224 . S
H425 C457 0.929 . S
H426 C459 0.930 . S
H427 C460 0.930 . S
H428 C458 0.929 . S
H429 C461 0.928 . S
O430 Co414 2.057 . S
O430 C418 1.232 . S
H431 C450 0.929 . S
H432 C451 0.929 . S
H433 C463 0.931 . S
H434 C455 0.929 . S
H435 C464 0.930 . S
H436 C456 0.931 . S
O437 Co413 2.097 . S
O437 C465 1.214 . S
H438 C466 0.929 . S
H439 C467 0.929 . S
H440 C468 0.930 . S
H441 C469 0.929 . S
H442 C471 0.930 . S
H443 C448 0.930 . S
H444 C452 0.930 . S
O445 Co414 2.037 . S
O445 C465 1.234 . S
C446 O420 1.269 . S
C446 O421 1.257 . S
C447 H422 0.930 . S
C447 C450 1.388 . S
C447 C452 1.418 . S
C448 H443 0.930 . S
C448 C451 1.404 . S
C448 C452 1.353 . S
N449 Co414 2.145 . S
N449 C450 1.397 . S
N449 C451 1.334 . S
C450 H431 0.929 . S
C450 C447 1.388 . S
C450 N449 1.397 . S
C451 H432 0.929 . S
C451 C448 1.404 . S
C451 N449 1.334 . S
C452 H444 0.930 . S
C452 C447 1.418 . S
C452 C448 1.353 . S
C453 H423 0.930 . S
C453 N454 1.330 . S
C453 C455 1.446 . S
N454 Co413 2.151 . S
N454 C453 1.330 . S
N454 C458 1.418 . S
C455 H434 0.929 . S
C455 C453 1.446 . S
C455 C456 1.332 . S
C456 H436 0.931 . S
C456 C455 1.332 . S
C456 C457 1.267 . S
C457 H425 0.929 . S
C457 C456 1.267 . S
C457 C458 1.251 . S
C458 H428 0.929 . S
C458 N454 1.418 . S
C458 C457 1.251 . S
C459 H426 0.930 . S
C459 C461 1.406 . S
C459 C464 1.261 . S
C460 H427 0.930 . S
C460 N462 1.325 . S
C460 C463 1.357 . S
C461 H429 0.928 . S
C461 C459 1.406 . S
C461 N462 1.261 . S
N462 Co413 2.214 . S
N462 C460 1.325 . S
N462 C461 1.261 . S
C463 H433 0.931 . S
C463 C460 1.357 . S
C463 C464 1.312 . S
C464 H435 0.930 . S
C464 C459 1.261 . S
C464 C463 1.312 . S
C465 O437 1.214 . S
C465 O445 1.234 . S
C466 H438 0.929 . S
C466 C469 1.391 . S
C466 C471 1.391 . S
C467 H439 0.929 . S
C467 C468 1.390 . S
C467 N470 1.391 . S
C468 H440 0.930 . S
C468 C467 1.390 . S
C468 C469 1.392 . S
C469 H441 0.929 . S
C469 C466 1.391 . S
C469 C468 1.392 . S
N470 Co414 2.257 . S
N470 C467 1.391 . S
N470 C471 1.388 . S
C471 H442 0.930 . S
C471 C466 1.391 . S
C471 N470 1.388 . S
Co472 O474 2.143 . S
Co472 O480 2.074 . S
Co472 O483 2.093 . S
Co472 O496 2.097 . S
Co472 N513 2.151 . S
Co472 N521 2.214 . S
Co473 O474 2.160 . S
Co473 O479 2.058 . S
Co473 O489 2.057 . S
Co473 O504 2.037 . S
Co473 N508 2.145 . S
Co473 N529 2.257 . S
O474 Co472 2.143 . S
O474 Co473 2.160 . S
C475 O476 1.278 . S
C475 O483 1.224 . S
O476 C475 1.278 . S
C477 O478 1.245 . S
C477 O489 1.232 . S
O478 C477 1.245 . S
O479 Co473 2.058 . S
O479 C505 1.269 . S
O480 Co472 2.074 . S
O480 C505 1.257 . S
H481 C506 0.930 . S
H482 C512 0.930 . S
O483 Co472 2.093 . S
O483 C475 1.224 . S
H484 C516 0.929 . S
H485 C518 0.930 . S
H486 C519 0.930 . S
H487 C517 0.929 . S
H488 C520 0.928 . S
O489 Co473 2.057 . S
O489 C477 1.232 . S
H490 C509 0.929 . S
H491 C510 0.929 . S
H492 C522 0.931 . S
H493 C514 0.929 . S
H494 C523 0.930 . S
H495 C515 0.931 . S
O496 Co472 2.097 . S
O496 C524 1.214 . S
H497 C525 0.929 . S
H498 C526 0.929 . S
H499 C527 0.930 . S
H500 C528 0.929 . S
H501 C530 0.930 . S
H502 C507 0.930 . S
H503 C511 0.930 . S
O504 Co473 2.037 . S
O504 C524 1.234 . S
C505 O479 1.269 . S
C505 O480 1.257 . S
C506 H481 0.930 . S
C506 C509 1.388 . S
C506 C511 1.418 . S
C507 H502 0.930 . S
C507 C510 1.404 . S
C507 C511 1.353 . S
N508 Co473 2.145 . S
N508 C509 1.397 . S
N508 C510 1.334 . S
C509 H490 0.929 . S
C509 C506 1.388 . S
C509 N508 1.397 . S
C510 H491 0.929 . S
C510 C507 1.404 . S
C510 N508 1.334 . S
C511 H503 0.930 . S
C511 C506 1.418 . S
C511 C507 1.353 . S
C512 H482 0.930 . S
C512 N513 1.330 . S
C512 C514 1.446 . S
N513 Co472 2.151 . S
N513 C512 1.330 . S
N513 C517 1.418 . S
C514 H493 0.929 . S
C514 C512 1.446 . S
C514 C515 1.332 . S
C515 H495 0.931 . S
C515 C514 1.332 . S
C515 C516 1.267 . S
C516 H484 0.929 . S
C516 C515 1.267 . S
C516 C517 1.251 . S
C517 H487 0.929 . S
C517 N513 1.418 . S
C517 C516 1.251 . S
C518 H485 0.930 . S
C518 C520 1.406 . S
C518 C523 1.261 . S
C519 H486 0.930 . S
C519 N521 1.325 . S
C519 C522 1.357 . S
C520 H488 0.928 . S
C520 C518 1.406 . S
C520 N521 1.261 . S
N521 Co472 2.214 . S
N521 C519 1.325 . S
N521 C520 1.261 . S
C522 H492 0.931 . S
C522 C519 1.357 . S
C522 C523 1.312 . S
C523 H494 0.930 . S
C523 C518 1.261 . S
C523 C522 1.312 . S
C524 O496 1.214 . S
C524 O504 1.234 . S
C525 H497 0.929 . S
C525 C528 1.391 . S
C525 C530 1.391 . S
C526 H498 0.929 . S
C526 C527 1.390 . S
C526 N529 1.391 . S
C527 H499 0.930 . S
C527 C526 1.390 . S
C527 C528 1.392 . S
C528 H500 0.929 . S
C528 C525 1.391 . S
C528 C527 1.392 . S
N529 Co473 2.257 . S
N529 C526 1.391 . S
N529 C530 1.388 . S
C530 H501 0.930 . S
C530 C525 1.391 . S
C530 N529 1.388 . S
Co531 O533 2.143 . S
Co531 O539 2.074 . S
Co531 O542 2.093 . S
Co531 O555 2.097 . S
Co531 N572 2.151 . S
Co531 N580 2.214 . S
Co532 O533 2.160 . S
Co532 O538 2.058 . S
Co532 O548 2.057 . S
Co532 O563 2.037 . S
Co532 N567 2.145 . S
Co532 N588 2.257 . S
O533 Co531 2.143 . S
O533 Co532 2.160 . S
C534 O535 1.278 . S
C534 O542 1.224 . S
O535 C534 1.278 . S
C536 O537 1.245 . S
C536 O548 1.232 . S
O537 C536 1.245 . S
O538 Co532 2.058 . S
O538 C564 1.269 . S
O539 Co531 2.074 . S
O539 C564 1.257 . S
H540 C565 0.930 . S
H541 C571 0.930 . S
O542 Co531 2.093 . S
O542 C534 1.224 . S
H543 C575 0.929 . S
H544 C577 0.930 . S
H545 C578 0.930 . S
H546 C576 0.929 . S
H547 C579 0.928 . S
O548 Co532 2.057 . S
O548 C536 1.232 . S
H549 C568 0.929 . S
H550 C569 0.929 . S
H551 C581 0.931 . S
H552 C573 0.929 . S
H553 C582 0.930 . S
H554 C574 0.931 . S
O555 Co531 2.097 . S
O555 C583 1.214 . S
H556 C584 0.929 . S
H557 C585 0.929 . S
H558 C586 0.930 . S
H559 C587 0.929 . S
H560 C589 0.930 . S
H561 C566 0.930 . S
H562 C570 0.930 . S
O563 Co532 2.037 . S
O563 C583 1.234 . S
C564 O538 1.269 . S
C564 O539 1.257 . S
C565 H540 0.930 . S
C565 C568 1.388 . S
C565 C570 1.418 . S
C566 H561 0.930 . S
C566 C569 1.404 . S
C566 C570 1.353 . S
N567 Co532 2.145 . S
N567 C568 1.397 . S
N567 C569 1.334 . S
C568 H549 0.929 . S
C568 C565 1.388 . S
C568 N567 1.397 . S
C569 H550 0.929 . S
C569 C566 1.404 . S
C569 N567 1.334 . S
C570 H562 0.930 . S
C570 C565 1.418 . S
C570 C566 1.353 . S
C571 H541 0.930 . S
C571 N572 1.330 . S
C571 C573 1.446 . S
N572 Co531 2.151 . S
N572 C571 1.330 . S
N572 C576 1.418 . S
C573 H552 0.929 . S
C573 C571 1.446 . S
C573 C574 1.332 . S
C574 H554 0.931 . S
C574 C573 1.332 . S
C574 C575 1.267 . S
C575 H543 0.929 . S
C575 C574 1.267 . S
C575 C576 1.251 . S
C576 H546 0.929 . S
C576 N572 1.418 . S
C576 C575 1.251 . S
C577 H544 0.930 . S
C577 C579 1.406 . S
C577 C582 1.261 . S
C578 H545 0.930 . S
C578 N580 1.325 . S
C578 C581 1.357 . S
C579 H547 0.928 . S
C579 C577 1.406 . S
C579 N580 1.261 . S
N580 Co531 2.214 . S
N580 C578 1.325 . S
N580 C579 1.261 . S
C581 H551 0.931 . S
C581 C578 1.357 . S
C581 C582 1.312 . S
C582 H553 0.930 . S
C582 C577 1.261 . S
C582 C581 1.312 . S
C583 O555 1.214 . S
C583 O563 1.234 . S
C584 H556 0.929 . S
C584 C587 1.391 . S
C584 C589 1.391 . S
C585 H557 0.929 . S
C585 C586 1.390 . S
C585 N588 1.391 . S
C586 H558 0.930 . S
C586 C585 1.390 . S
C586 C587 1.392 . S
C587 H559 0.929 . S
C587 C584 1.391 . S
C587 C586 1.392 . S
N588 Co532 2.257 . S
N588 C585 1.391 . S
N588 C589 1.388 . S
C589 H560 0.930 . S
C589 C584 1.391 . S
C589 N588 1.388 . S
Co590 O592 2.143 . S
Co590 O598 2.074 . S
Co590 O601 2.093 . S
Co590 O614 2.097 . S
Co590 N631 2.151 . S
Co590 N639 2.214 . S
Co591 O592 2.160 . S
Co591 O597 2.058 . S
Co591 O607 2.057 . S
Co591 O622 2.037 . S
Co591 N626 2.145 . S
Co591 N647 2.257 . S
O592 Co590 2.143 . S
O592 Co591 2.160 . S
C593 O594 1.278 . S
C593 O601 1.224 . S
O594 C593 1.278 . S
C595 O596 1.245 . S
C595 O607 1.232 . S
O596 C595 1.245 . S
O597 Co591 2.058 . S
O597 C623 1.269 . S
O598 Co590 2.074 . S
O598 C623 1.257 . S
H599 C624 0.930 . S
H600 C630 0.930 . S
O601 Co590 2.093 . S
O601 C593 1.224 . S
H602 C634 0.929 . S
H603 C636 0.930 . S
H604 C637 0.930 . S
H605 C635 0.929 . S
H606 C638 0.928 . S
O607 Co591 2.057 . S
O607 C595 1.232 . S
H608 C627 0.929 . S
H609 C628 0.929 . S
H610 C640 0.931 . S
H611 C632 0.929 . S
H612 C641 0.930 . S
H613 C633 0.931 . S
O614 Co590 2.097 . S
O614 C642 1.214 . S
H615 C643 0.929 . S
H616 C644 0.929 . S
H617 C645 0.930 . S
H618 C646 0.929 . S
H619 C648 0.930 . S
H620 C625 0.930 . S
H621 C629 0.930 . S
O622 Co591 2.037 . S
O622 C642 1.234 . S
C623 O597 1.269 . S
C623 O598 1.257 . S
C624 H599 0.930 . S
C624 C627 1.388 . S
C624 C629 1.418 . S
C625 H620 0.930 . S
C625 C628 1.404 . S
C625 C629 1.353 . S
N626 Co591 2.145 . S
N626 C627 1.397 . S
N626 C628 1.334 . S
C627 H608 0.929 . S
C627 C624 1.388 . S
C627 N626 1.397 . S
C628 H609 0.929 . S
C628 C625 1.404 . S
C628 N626 1.334 . S
C629 H621 0.930 . S
C629 C624 1.418 . S
C629 C625 1.353 . S
C630 H600 0.930 . S
C630 N631 1.330 . S
C630 C632 1.446 . S
N631 Co590 2.151 . S
N631 C630 1.330 . S
N631 C635 1.418 . S
C632 H611 0.929 . S
C632 C630 1.446 . S
C632 C633 1.332 . S
C633 H613 0.931 . S
C633 C632 1.332 . S
C633 C634 1.267 . S
C634 H602 0.929 . S
C634 C633 1.267 . S
C634 C635 1.251 . S
C635 H605 0.929 . S
C635 N631 1.418 . S
C635 C634 1.251 . S
C636 H603 0.930 . S
C636 C638 1.406 . S
C636 C641 1.261 . S
C637 H604 0.930 . S
C637 N639 1.325 . S
C637 C640 1.357 . S
C638 H606 0.928 . S
C638 C636 1.406 . S
C638 N639 1.261 . S
N639 Co590 2.214 . S
N639 C637 1.325 . S
N639 C638 1.261 . S
C640 H610 0.931 . S
C640 C637 1.357 . S
C640 C641 1.312 . S
C641 H612 0.930 . S
C641 C636 1.261 . S
C641 C640 1.312 . S
C642 O614 1.214 . S
C642 O622 1.234 . S
C643 H615 0.929 . S
C643 C646 1.391 . S
C643 C648 1.391 . S
C644 H616 0.929 . S
C644 C645 1.390 . S
C644 N647 1.391 . S
C645 H617 0.930 . S
C645 C644 1.390 . S
C645 C646 1.392 . S
C646 H618 0.929 . S
C646 C643 1.391 . S
C646 C645 1.392 . S
N647 Co591 2.257 . S
N647 C644 1.391 . S
N647 C648 1.388 . S
C648 H619 0.930 . S
C648 C643 1.391 . S
C648 N647 1.388 . S
Co649 O651 2.143 . S
Co649 O657 2.074 . S
Co649 O660 2.093 . S
Co649 O673 2.097 . S
Co649 N690 2.151 . S
Co649 N698 2.214 . S
Co650 O651 2.160 . S
Co650 O656 2.058 . S
Co650 O666 2.057 . S
Co650 O681 2.037 . S
Co650 N685 2.145 . S
Co650 N706 2.257 . S
O651 Co649 2.143 . S
O651 Co650 2.160 . S
C652 O653 1.278 . S
C652 O660 1.224 . S
O653 C652 1.278 . S
C654 O655 1.245 . S
C654 O666 1.232 . S
O655 C654 1.245 . S
O656 Co650 2.058 . S
O656 C682 1.269 . S
O657 Co649 2.074 . S
O657 C682 1.257 . S
H658 C683 0.930 . S
H659 C689 0.930 . S
O660 Co649 2.093 . S
O660 C652 1.224 . S
H661 C693 0.929 . S
H662 C695 0.930 . S
H663 C696 0.930 . S
H664 C694 0.929 . S
H665 C697 0.928 . S
O666 Co650 2.057 . S
O666 C654 1.232 . S
H667 C686 0.929 . S
H668 C687 0.929 . S
H669 C699 0.931 . S
H670 C691 0.929 . S
H671 C700 0.930 . S
H672 C692 0.931 . S
O673 Co649 2.097 . S
O673 C701 1.214 . S
H674 C702 0.929 . S
H675 C703 0.929 . S
H676 C704 0.930 . S
H677 C705 0.929 . S
H678 C707 0.930 . S
H679 C684 0.930 . S
H680 C688 0.930 . S
O681 Co650 2.037 . S
O681 C701 1.234 . S
C682 O656 1.269 . S
C682 O657 1.257 . S
C683 H658 0.930 . S
C683 C686 1.388 . S
C683 C688 1.418 . S
C684 H679 0.930 . S
C684 C687 1.404 . S
C684 C688 1.353 . S
N685 Co650 2.145 . S
N685 C686 1.397 . S
N685 C687 1.334 . S
C686 H667 0.929 . S
C686 C683 1.388 . S
C686 N685 1.397 . S
C687 H668 0.929 . S
C687 C684 1.404 . S
C687 N685 1.334 . S
C688 H680 0.930 . S
C688 C683 1.418 . S
C688 C684 1.353 . S
C689 H659 0.930 . S
C689 N690 1.330 . S
C689 C691 1.446 . S
N690 Co649 2.151 . S
N690 C689 1.330 . S
N690 C694 1.418 . S
C691 H670 0.929 . S
C691 C689 1.446 . S
C691 C692 1.332 . S
C692 H672 0.931 . S
C692 C691 1.332 . S
C692 C693 1.267 . S
C693 H661 0.929 . S
C693 C692 1.267 . S
C693 C694 1.251 . S
C694 H664 0.929 . S
C694 N690 1.418 . S
C694 C693 1.251 . S
C695 H662 0.930 . S
C695 C697 1.406 . S
C695 C700 1.261 . S
C696 H663 0.930 . S
C696 N698 1.325 . S
C696 C699 1.357 . S
C697 H665 0.928 . S
C697 C695 1.406 . S
C697 N698 1.261 . S
N698 Co649 2.214 . S
N698 C696 1.325 . S
N698 C697 1.261 . S
C699 H669 0.931 . S
C699 C696 1.357 . S
C699 C700 1.312 . S
C700 H671 0.930 . S
C700 C695 1.261 . S
C700 C699 1.312 . S
C701 O673 1.214 . S
C701 O681 1.234 . S
C702 H674 0.929 . S
C702 C705 1.391 . S
C702 C707 1.391 . S
C703 H675 0.929 . S
C703 C704 1.390 . S
C703 N706 1.391 . S
C704 H676 0.930 . S
C704 C703 1.390 . S
C704 C705 1.392 . S
C705 H677 0.929 . S
C705 C702 1.391 . S
C705 C704 1.392 . S
N706 Co650 2.257 . S
N706 C703 1.391 . S
N706 C707 1.388 . S
C707 H678 0.930 . S
C707 C702 1.391 . S
C707 N706 1.388 . S
Co708 O710 2.143 . S
Co708 O716 2.074 . S
Co708 O719 2.093 . S
Co708 O732 2.097 . S
Co708 N749 2.151 . S
Co708 N757 2.214 . S
Co709 O710 2.160 . S
Co709 O715 2.058 . S
Co709 O725 2.057 . S
Co709 O740 2.037 . S
Co709 N744 2.145 . S
Co709 N765 2.257 . S
O710 Co708 2.143 . S
O710 Co709 2.160 . S
C711 O712 1.278 . S
C711 O719 1.224 . S
O712 C711 1.278 . S
C713 O714 1.245 . S
C713 O725 1.232 . S
O714 C713 1.245 . S
O715 Co709 2.058 . S
O715 C741 1.269 . S
O716 Co708 2.074 . S
O716 C741 1.257 . S
H717 C742 0.930 . S
H718 C748 0.930 . S
O719 Co708 2.093 . S
O719 C711 1.224 . S
H720 C752 0.929 . S
H721 C754 0.930 . S
H722 C755 0.930 . S
H723 C753 0.929 . S
H724 C756 0.928 . S
O725 Co709 2.057 . S
O725 C713 1.232 . S
H726 C745 0.929 . S
H727 C746 0.929 . S
H728 C758 0.931 . S
H729 C750 0.929 . S
H730 C759 0.930 . S
H731 C751 0.931 . S
O732 Co708 2.097 . S
O732 C760 1.214 . S
H733 C761 0.929 . S
H734 C762 0.929 . S
H735 C763 0.930 . S
H736 C764 0.929 . S
H737 C766 0.930 . S
H738 C743 0.930 . S
H739 C747 0.930 . S
O740 Co709 2.037 . S
O740 C760 1.234 . S
C741 O715 1.269 . S
C741 O716 1.257 . S
C742 H717 0.930 . S
C742 C745 1.388 . S
C742 C747 1.418 . S
C743 H738 0.930 . S
C743 C746 1.404 . S
C743 C747 1.353 . S
N744 Co709 2.145 . S
N744 C745 1.397 . S
N744 C746 1.334 . S
C745 H726 0.929 . S
C745 C742 1.388 . S
C745 N744 1.397 . S
C746 H727 0.929 . S
C746 C743 1.404 . S
C746 N744 1.334 . S
C747 H739 0.930 . S
C747 C742 1.418 . S
C747 C743 1.353 . S
C748 H718 0.930 . S
C748 N749 1.330 . S
C748 C750 1.446 . S
N749 Co708 2.151 . S
N749 C748 1.330 . S
N749 C753 1.418 . S
C750 H729 0.929 . S
C750 C748 1.446 . S
C750 C751 1.332 . S
C751 H731 0.931 . S
C751 C750 1.332 . S
C751 C752 1.267 . S
C752 H720 0.929 . S
C752 C751 1.267 . S
C752 C753 1.251 . S
C753 H723 0.929 . S
C753 N749 1.418 . S
C753 C752 1.251 . S
C754 H721 0.930 . S
C754 C756 1.406 . S
C754 C759 1.261 . S
C755 H722 0.930 . S
C755 N757 1.325 . S
C755 C758 1.357 . S
C756 H724 0.928 . S
C756 C754 1.406 . S
C756 N757 1.261 . S
N757 Co708 2.214 . S
N757 C755 1.325 . S
N757 C756 1.261 . S
C758 H728 0.931 . S
C758 C755 1.357 . S
C758 C759 1.312 . S
C759 H730 0.930 . S
C759 C754 1.261 . S
C759 C758 1.312 . S
C760 O732 1.214 . S
C760 O740 1.234 . S
C761 H733 0.929 . S
C761 C764 1.391 . S
C761 C766 1.391 . S
C762 H734 0.929 . S
C762 C763 1.390 . S
C762 N765 1.391 . S
C763 H735 0.930 . S
C763 C762 1.390 . S
C763 C764 1.392 . S
C764 H736 0.929 . S
C764 C761 1.391 . S
C764 C763 1.392 . S
N765 Co709 2.257 . S
N765 C762 1.391 . S
N765 C766 1.388 . S
C766 H737 0.930 . S
C766 C761 1.391 . S
C766 N765 1.388 . S
Co767 O769 2.143 . S
Co767 O775 2.074 . S
Co767 O778 2.087 1_455 S
Co767 O791 2.097 1_455 S
Co767 N808 2.151 . S
Co767 N816 2.214 . S
Co768 O769 2.160 1_655 S
Co768 O774 2.058 1_655 S
Co768 O784 2.057 1_655 S
Co768 O799 2.037 . S
Co768 N803 2.145 . S
Co768 N824 2.257 . S
O769 Co767 2.143 . S
O769 Co768 2.160 1_455 S
C770 O771 1.278 . S
C770 O778 1.232 . S
O771 C770 1.278 . S
C772 O773 1.245 . S
C772 O784 1.232 . S
O773 C772 1.245 . S
O774 Co768 2.058 1_455 S
O774 C800 1.269 . S
O775 Co767 2.074 . S
O775 C800 1.257 . S
H776 C801 0.930 . S
H777 C807 0.930 . S
O778 Co767 2.087 1_655 S
O778 C770 1.232 . S
H779 C811 0.929 . S
H780 C813 0.930 . S
H781 C814 0.930 . S
H782 C812 0.929 . S
H783 C815 0.928 . S
O784 Co768 2.057 1_455 S
O784 C772 1.232 . S
H785 C804 0.929 . S
H786 C805 0.929 . S
H787 C817 0.931 . S
H788 C809 0.929 . S
H789 C818 0.930 . S
H790 C810 0.931 . S
O791 Co767 2.097 1_655 S
O791 C819 1.214 . S
H792 C820 0.929 . S
H793 C821 0.929 . S
H794 C822 0.930 . S
H795 C823 0.929 . S
H796 C825 0.930 . S
H797 C802 0.930 . S
H798 C806 0.930 . S
O799 Co768 2.037 . S
O799 C819 1.234 . S
C800 O774 1.269 . S
C800 O775 1.257 . S
C801 H776 0.930 . S
C801 C804 1.388 . S
C801 C806 1.418 . S
C802 H797 0.930 . S
C802 C805 1.404 . S
C802 C806 1.353 . S
N803 Co768 2.145 . S
N803 C804 1.397 . S
N803 C805 1.334 . S
C804 H785 0.929 . S
C804 C801 1.388 . S
C804 N803 1.397 . S
C805 H786 0.929 . S
C805 C802 1.404 . S
C805 N803 1.334 . S
C806 H798 0.930 . S
C806 C801 1.418 . S
C806 C802 1.353 . S
C807 H777 0.930 . S
C807 N808 1.330 . S
C807 C809 1.446 . S
N808 Co767 2.151 . S
N808 C807 1.330 . S
N808 C812 1.418 . S
C809 H788 0.929 . S
C809 C807 1.446 . S
C809 C810 1.332 . S
C810 H790 0.931 . S
C810 C809 1.332 . S
C810 C811 1.267 . S
C811 H779 0.929 . S
C811 C810 1.267 . S
C811 C812 1.251 . S
C812 H782 0.929 . S
C812 N808 1.418 . S
C812 C811 1.251 . S
C813 H780 0.930 . S
C813 C815 1.406 . S
C813 C818 1.261 . S
C814 H781 0.930 . S
C814 N816 1.325 . S
C814 C817 1.357 . S
C815 H783 0.928 . S
C815 C813 1.406 . S
C815 N816 1.261 . S
N816 Co767 2.214 . S
N816 C814 1.325 . S
N816 C815 1.261 . S
C817 H787 0.931 . S
C817 C814 1.357 . S
C817 C818 1.312 . S
C818 H789 0.930 . S
C818 C813 1.261 . S
C818 C817 1.312 . S
C819 O791 1.214 . S
C819 O799 1.234 . S
C820 H792 0.929 . S
C820 C823 1.391 . S
C820 C825 1.391 . S
C821 H793 0.929 . S
C821 C822 1.390 . S
C821 N824 1.391 . S
C822 H794 0.930 . S
C822 C821 1.390 . S
C822 C823 1.392 . S
C823 H795 0.929 . S
C823 C820 1.391 . S
C823 C822 1.392 . S
N824 Co768 2.257 . S
N824 C821 1.391 . S
N824 C825 1.388 . S
C825 H796 0.930 . S
C825 C820 1.391 . S
C825 N824 1.388 . S
Co826 O828 2.143 . S
Co826 O834 2.074 . S
Co826 O837 2.093 . S
Co826 O850 2.097 . S
Co826 N867 2.151 . S
Co826 N875 2.214 . S
Co827 O828 2.160 . S
Co827 O833 2.058 . S
Co827 O843 2.057 . S
Co827 O858 2.037 . S
Co827 N862 2.145 . S
Co827 N883 2.257 . S
O828 Co826 2.143 . S
O828 Co827 2.160 . S
C829 O830 1.278 . S
C829 O837 1.224 . S
O830 C829 1.278 . S
C831 O832 1.245 . S
C831 O843 1.232 . S
O832 C831 1.245 . S
O833 Co827 2.058 . S
O833 C859 1.269 . S
O834 Co826 2.074 . S
O834 C859 1.257 . S
H835 C860 0.930 . S
H836 C866 0.930 . S
O837 Co826 2.093 . S
O837 C829 1.224 . S
H838 C870 0.929 . S
H839 C872 0.930 . S
H840 C873 0.930 . S
H841 C871 0.929 . S
H842 C874 0.928 . S
O843 Co827 2.057 . S
O843 C831 1.232 . S
H844 C863 0.929 . S
H845 C864 0.929 . S
H846 C876 0.931 . S
H847 C868 0.929 . S
H848 C877 0.930 . S
H849 C869 0.931 . S
O850 Co826 2.097 . S
O850 C878 1.214 . S
H851 C879 0.929 . S
H852 C880 0.929 . S
H853 C881 0.930 . S
H854 C882 0.929 . S
H855 C884 0.930 . S
H856 C861 0.930 . S
H857 C865 0.930 . S
O858 Co827 2.037 . S
O858 C878 1.234 . S
C859 O833 1.269 . S
C859 O834 1.257 . S
C860 H835 0.930 . S
C860 C863 1.388 . S
C860 C865 1.418 . S
C861 H856 0.930 . S
C861 C864 1.404 . S
C861 C865 1.353 . S
N862 Co827 2.145 . S
N862 C863 1.397 . S
N862 C864 1.334 . S
C863 H844 0.929 . S
C863 C860 1.388 . S
C863 N862 1.397 . S
C864 H845 0.929 . S
C864 C861 1.404 . S
C864 N862 1.334 . S
C865 H857 0.930 . S
C865 C860 1.418 . S
C865 C861 1.353 . S
C866 H836 0.930 . S
C866 N867 1.330 . S
C866 C868 1.446 . S
N867 Co826 2.151 . S
N867 C866 1.330 . S
N867 C871 1.418 . S
C868 H847 0.929 . S
C868 C866 1.446 . S
C868 C869 1.332 . S
C869 H849 0.931 . S
C869 C868 1.332 . S
C869 C870 1.267 . S
C870 H838 0.929 . S
C870 C869 1.267 . S
C870 C871 1.251 . S
C871 H841 0.929 . S
C871 N867 1.418 . S
C871 C870 1.251 . S
C872 H839 0.930 . S
C872 C874 1.406 . S
C872 C877 1.261 . S
C873 H840 0.930 . S
C873 N875 1.325 . S
C873 C876 1.357 . S
C874 H842 0.928 . S
C874 C872 1.406 . S
C874 N875 1.261 . S
N875 Co826 2.214 . S
N875 C873 1.325 . S
N875 C874 1.261 . S
C876 H846 0.931 . S
C876 C873 1.357 . S
C876 C877 1.312 . S
C877 H848 0.930 . S
C877 C872 1.261 . S
C877 C876 1.312 . S
C878 O850 1.214 . S
C878 O858 1.234 . S
C879 H851 0.929 . S
C879 C882 1.391 . S
C879 C884 1.391 . S
C880 H852 0.929 . S
C880 C881 1.390 . S
C880 N883 1.391 . S
C881 H853 0.930 . S
C881 C880 1.390 . S
C881 C882 1.392 . S
C882 H854 0.929 . S
C882 C879 1.391 . S
C882 C881 1.392 . S
N883 Co827 2.257 . S
N883 C880 1.391 . S
N883 C884 1.388 . S
C884 H855 0.930 . S
C884 C879 1.391 . S
C884 N883 1.388 . S
Co885 O887 2.143 . S
Co885 O893 2.074 . S
Co885 O896 2.087 1_455 S
Co885 O909 2.097 1_455 S
Co885 N926 2.151 . S
Co885 N934 2.214 . S
Co886 O887 2.160 1_655 S
Co886 O892 2.058 1_655 S
Co886 O902 2.057 1_655 S
Co886 O917 2.037 . S
Co886 N921 2.145 . S
Co886 N942 2.257 . S
O887 Co885 2.143 . S
O887 Co886 2.160 1_455 S
C888 O889 1.278 . S
C888 O896 1.232 . S
O889 C888 1.278 . S
C890 O891 1.245 . S
C890 O902 1.232 . S
O891 C890 1.245 . S
O892 Co886 2.058 1_455 S
O892 C918 1.269 . S
O893 Co885 2.074 . S
O893 C918 1.257 . S
H894 C919 0.930 . S
H895 C925 0.930 . S
O896 Co885 2.087 1_655 S
O896 C888 1.232 . S
H897 C929 0.929 . S
H898 C931 0.930 . S
H899 C932 0.930 . S
H900 C930 0.929 . S
H901 C933 0.928 . S
O902 Co886 2.057 1_455 S
O902 C890 1.232 . S
H903 C922 0.929 . S
H904 C923 0.929 . S
H905 C935 0.931 . S
H906 C927 0.929 . S
H907 C936 0.930 . S
H908 C928 0.931 . S
O909 Co885 2.097 1_655 S
O909 C937 1.214 . S
H910 C938 0.929 . S
H911 C939 0.929 . S
H912 C940 0.930 . S
H913 C941 0.929 . S
H914 C943 0.930 . S
H915 C920 0.930 . S
H916 C924 0.930 . S
O917 Co886 2.037 . S
O917 C937 1.234 . S
C918 O892 1.269 . S
C918 O893 1.257 . S
C919 H894 0.930 . S
C919 C922 1.388 . S
C919 C924 1.418 . S
C920 H915 0.930 . S
C920 C923 1.404 . S
C920 C924 1.353 . S
N921 Co886 2.145 . S
N921 C922 1.397 . S
N921 C923 1.334 . S
C922 H903 0.929 . S
C922 C919 1.388 . S
C922 N921 1.397 . S
C923 H904 0.929 . S
C923 C920 1.404 . S
C923 N921 1.334 . S
C924 H916 0.930 . S
C924 C919 1.418 . S
C924 C920 1.353 . S
C925 H895 0.930 . S
C925 N926 1.330 . S
C925 C927 1.446 . S
N926 Co885 2.151 . S
N926 C925 1.330 . S
N926 C930 1.418 . S
C927 H906 0.929 . S
C927 C925 1.446 . S
C927 C928 1.332 . S
C928 H908 0.931 . S
C928 C927 1.332 . S
C928 C929 1.267 . S
C929 H897 0.929 . S
C929 C928 1.267 . S
C929 C930 1.251 . S
C930 H900 0.929 . S
C930 N926 1.418 . S
C930 C929 1.251 . S
C931 H898 0.930 . S
C931 C933 1.406 . S
C931 C936 1.261 . S
C932 H899 0.930 . S
C932 N934 1.325 . S
C932 C935 1.357 . S
C933 H901 0.928 . S
C933 C931 1.406 . S
C933 N934 1.261 . S
N934 Co885 2.214 . S
N934 C932 1.325 . S
N934 C933 1.261 . S
C935 H905 0.931 . S
C935 C932 1.357 . S
C935 C936 1.312 . S
C936 H907 0.930 . S
C936 C931 1.261 . S
C936 C935 1.312 . S
C937 O909 1.214 . S
C937 O917 1.234 . S
C938 H910 0.929 . S
C938 C941 1.391 . S
C938 C943 1.391 . S
C939 H911 0.929 . S
C939 C940 1.390 . S
C939 N942 1.391 . S
C940 H912 0.930 . S
C940 C939 1.390 . S
C940 C941 1.392 . S
C941 H913 0.929 . S
C941 C938 1.391 . S
C941 C940 1.392 . S
N942 Co886 2.257 . S
N942 C939 1.391 . S
N942 C943 1.388 . S
C943 H914 0.930 . S
C943 C938 1.391 . S
C943 N942 1.388 . S
H944 C950 0.930 . S
H945 C953 0.930 . S
H946 C954 0.930 . S
H947 C955 0.930 . S
H948 C958 0.930 . S
H949 C959 0.930 . S
C950 H944 0.930 . S
C950 C951 1.355 1_455 S
C950 C952 1.415 . S
C951 C950 1.355 1_655 S
C951 C953 1.419 . S
C952 C950 1.415 . S
C952 C957 1.425 1_455 S
C952 C959 1.409 . S
C953 H945 0.930 . S
C953 C951 1.419 . S
C953 C954 1.362 . S
C954 H946 0.930 . S
C954 C953 1.362 . S
C954 C957 1.409 . S
C955 H947 0.930 . S
C955 C956 1.355 1_655 S
C955 C957 1.415 . S
C956 C955 1.355 1_455 S
C956 C958 1.419 . S
C957 C952 1.425 1_655 S
C957 C954 1.409 . S
C957 C955 1.415 . S
C958 H948 0.930 . S
C958 C956 1.419 . S
C958 C959 1.362 . S
C959 H949 0.930 . S
C959 C952 1.409 . S
C959 C958 1.362 . S
H960 C966 0.930 . S
H961 C969 0.930 . S
H962 C970 0.930 . S
H963 C971 0.930 . S
H964 C974 0.930 . S
H965 C975 0.930 . S
C966 H960 0.930 . S
C966 C967 1.355 . S
C966 C968 1.415 1_655 S
C967 C966 1.355 . S
C967 C969 1.419 . S
C968 C966 1.415 1_455 S
C968 C973 1.425 . S
C968 C975 1.409 . S
C969 H961 0.930 . S
C969 C967 1.419 . S
C969 C970 1.362 . S
C970 H962 0.930 . S
C970 C969 1.362 . S
C970 C973 1.409 1_655 S
C971 H963 0.930 . S
C971 C972 1.355 . S
C971 C973 1.415 . S
C972 C971 1.355 . S
C972 C974 1.419 . S
C973 C968 1.425 . S
C973 C970 1.409 1_455 S
C973 C971 1.415 . S
C974 H964 0.930 . S
C974 C972 1.419 . S
C974 C975 1.362 . S
C975 H965 0.930 . S
C975 C968 1.409 . S
C975 C974 1.362 . S
H976 C982 0.930 . S
H977 C985 0.930 . S
H978 C986 0.930 . S
H979 C987 0.930 . S
H980 C990 0.930 . S
H981 C991 0.930 . S
C982 H976 0.930 . S
C982 C983 1.355 . S
C982 C984 1.415 . S
C983 C982 1.355 . S
C983 C985 1.419 . S
C984 C982 1.415 . S
C984 C989 1.425 . S
C984 C991 1.409 . S
C985 H977 0.930 . S
C985 C983 1.419 . S
C985 C986 1.362 . S
C986 H978 0.930 . S
C986 C985 1.362 . S
C986 C989 1.409 . S
C987 H979 0.930 . S
C987 C988 1.355 . S
C987 C989 1.415 . S
C988 C987 1.355 . S
C988 C990 1.419 . S
C989 C984 1.425 . S
C989 C986 1.409 . S
C989 C987 1.415 . S
C990 H980 0.930 . S
C990 C988 1.419 . S
C990 C991 1.362 . S
C991 H981 0.930 . S
C991 C984 1.409 . S
C991 C990 1.362 . S
H992 C998 0.930 . S
H993 C1001 0.930 . S
H994 C1002 0.930 . S
H995 C1003 0.930 . S
H996 C1006 0.930 . S
H997 C1007 0.930 . S
C998 H992 0.930 . S
C998 C999 1.355 . S
C998 C1000 1.415 . S
C999 C998 1.355 . S
C999 C1001 1.419 . S
C1000 C998 1.415 . S
C1000 C1005 1.425 . S
C1000 C1007 1.409 . S
C1001 H993 0.930 . S
C1001 C999 1.419 . S
C1001 C1002 1.362 . S
C1002 H994 0.930 . S
C1002 C1001 1.362 . S
C1002 C1005 1.409 . S
C1003 H995 0.930 . S
C1003 C1004 1.355 . S
C1003 C1005 1.415 . S
C1004 C1003 1.355 . S
C1004 C1006 1.419 . S
C1005 C1000 1.425 . S
C1005 C1002 1.409 . S
C1005 C1003 1.415 . S
C1006 H996 0.930 . S
C1006 C1004 1.419 . S
C1006 C1007 1.362 . S
C1007 H997 0.930 . S
C1007 C1000 1.409 . S
C1007 C1006 1.362 . S
H1008 C1014 0.930 . S
H1009 C1017 0.930 . S
H1010 C1018 0.930 . S
H1011 C1019 0.930 . S
H1012 C1022 0.930 . S
H1013 C1023 0.930 . S
C1014 H1008 0.930 . S
C1014 C1015 1.355 . S
C1014 C1016 1.415 . S
C1015 C1014 1.355 . S
C1015 C1017 1.419 1_655 S
C1016 C1014 1.415 . S
C1016 C1021 1.425 1_655 S
C1016 C1023 1.409 . S
C1017 H1009 0.930 . S
C1017 C1015 1.419 1_455 S
C1017 C1018 1.362 . S
C1018 H1010 0.930 . S
C1018 C1017 1.362 . S
C1018 C1021 1.409 . S
C1019 H1011 0.930 . S
C1019 C1020 1.355 . S
C1019 C1021 1.415 . S
C1020 C1019 1.355 . S
C1020 C1022 1.419 1_455 S
C1021 C1016 1.425 1_455 S
C1021 C1018 1.409 . S
C1021 C1019 1.415 . S
C1022 H1012 0.930 . S
C1022 C1020 1.419 1_655 S
C1022 C1023 1.362 . S
C1023 H1013 0.930 . S
C1023 C1016 1.409 . S
C1023 C1022 1.362 . S
H1024 C1030 0.930 . S
H1025 C1033 0.930 . S
H1026 C1034 0.930 . S
H1027 C1035 0.930 . S
H1028 C1038 0.930 . S
H1029 C1039 0.930 . S
C1030 H1024 0.930 . S
C1030 C1031 1.355 . S
C1030 C1032 1.415 . S
C1031 C1030 1.355 . S
C1031 C1033 1.419 . S
C1032 C1030 1.415 . S
C1032 C1037 1.425 . S
C1032 C1039 1.409 . S
C1033 H1025 0.930 . S
C1033 C1031 1.419 . S
C1033 C1034 1.362 . S
C1034 H1026 0.930 . S
C1034 C1033 1.362 . S
C1034 C1037 1.409 . S
C1035 H1027 0.930 . S
C1035 C1036 1.355 . S
C1035 C1037 1.415 . S
C1036 C1035 1.355 . S
C1036 C1038 1.419 . S
C1037 C1032 1.425 . S
C1037 C1034 1.409 . S
C1037 C1035 1.415 . S
C1038 H1028 0.930 . S
C1038 C1036 1.419 . S
C1038 C1039 1.362 . S
C1039 H1029 0.930 . S
C1039 C1032 1.409 . S
C1039 C1038 1.362 . S
H1040 C1046 0.930 . S
H1041 C1049 0.930 . S
H1042 C1050 0.930 . S
H1043 C1051 0.930 . S
H1044 C1054 0.930 . S
H1045 C1055 0.930 . S
C1046 H1040 0.930 . S
C1046 C1047 1.355 . S
C1046 C1048 1.415 . S
C1047 C1046 1.355 . S
C1047 C1049 1.419 . S
C1048 C1046 1.415 . S
C1048 C1053 1.425 . S
C1048 C1055 1.409 . S
C1049 H1041 0.930 . S
C1049 C1047 1.419 . S
C1049 C1050 1.362 . S
C1050 H1042 0.930 . S
C1050 C1049 1.362 . S
C1050 C1053 1.409 . S
C1051 H1043 0.930 . S
C1051 C1052 1.355 . S
C1051 C1053 1.415 . S
C1052 C1051 1.355 . S
C1052 C1054 1.419 . S
C1053 C1048 1.425 . S
C1053 C1050 1.409 . S
C1053 C1051 1.415 . S
C1054 H1044 0.930 . S
C1054 C1052 1.419 . S
C1054 C1055 1.362 . S
C1055 H1045 0.930 . S
C1055 C1048 1.409 . S
C1055 C1054 1.362 . S
H1056 C1062 0.930 . S
H1057 C1065 0.930 . S
H1058 C1066 0.930 . S
H1059 C1067 0.930 . S
H1060 C1070 0.930 . S
H1061 C1071 0.930 . S
C1062 H1056 0.930 . S
C1062 C1063 1.355 . S
C1062 C1064 1.415 . S
C1063 C1062 1.355 . S
C1063 C1065 1.419 . S
C1064 C1062 1.415 . S
C1064 C1069 1.425 . S
C1064 C1071 1.409 1_455 S
C1065 H1057 0.930 . S
C1065 C1063 1.419 . S
C1065 C1066 1.362 . S
C1066 H1058 0.930 . S
C1066 C1065 1.362 . S
C1066 C1069 1.409 . S
C1067 H1059 0.930 . S
C1067 C1068 1.355 . S
C1067 C1069 1.415 1_655 S
C1068 C1067 1.355 . S
C1068 C1070 1.419 . S
C1069 C1064 1.425 . S
C1069 C1066 1.409 . S
C1069 C1067 1.415 1_455 S
C1070 H1060 0.930 . S
C1070 C1068 1.419 . S
C1070 C1071 1.362 . S
C1071 H1061 0.930 . S
C1071 C1064 1.409 1_655 S
C1071 C1070 1.362 . S
H1072 C1078 0.930 . S
H1073 C1081 0.930 . S
H1074 C1082 0.930 . S
H1075 C1083 0.930 . S
H1076 C1086 0.930 . S
H1077 C1087 0.930 . S
C1078 H1072 0.930 . S
C1078 C1079 1.355 . S
C1078 C1080 1.415 . S
C1079 C1078 1.355 . S
C1079 C1081 1.419 1_565 S
C1080 C1078 1.415 . S
C1080 C1085 1.425 1_565 S
C1080 C1087 1.409 . S
C1081 H1073 0.930 . S
C1081 C1079 1.419 1_545 S
C1081 C1082 1.362 . S
C1082 H1074 0.930 . S
C1082 C1081 1.362 . S
C1082 C1085 1.409 . S
C1083 H1075 0.930 . S
C1083 C1084 1.355 . S
C1083 C1085 1.415 . S
C1084 C1083 1.355 . S
C1084 C1086 1.419 1_545 S
C1085 C1080 1.425 1_545 S
C1085 C1082 1.409 . S
C1085 C1083 1.415 . S
C1086 H1076 0.930 . S
C1086 C1084 1.419 1_565 S
C1086 C1087 1.362 . S
C1087 H1077 0.930 . S
C1087 C1080 1.409 . S
C1087 C1086 1.362 . S
H1088 C1094 0.930 . S
H1089 C1097 0.930 . S
H1090 C1098 0.930 . S
H1091 C1099 0.930 . S
H1092 C1102 0.930 . S
H1093 C1103 0.930 . S
C1094 H1088 0.930 . S
C1094 C1095 1.355 . S
C1094 C1096 1.415 . S
C1095 C1094 1.355 . S
C1095 C1097 1.419 . S
C1096 C1094 1.415 . S
C1096 C1101 1.425 . S
C1096 C1103 1.409 . S
C1097 H1089 0.930 . S
C1097 C1095 1.419 . S
C1097 C1098 1.362 . S
C1098 H1090 0.930 . S
C1098 C1097 1.362 . S
C1098 C1101 1.409 . S
C1099 H1091 0.930 . S
C1099 C1100 1.355 . S
C1099 C1101 1.415 . S
C1100 C1099 1.355 . S
C1100 C1102 1.419 . S
C1101 C1096 1.425 . S
C1101 C1098 1.409 . S
C1101 C1099 1.415 . S
C1102 H1092 0.930 . S
C1102 C1100 1.419 . S
C1102 C1103 1.362 . S
C1103 H1093 0.930 . S
C1103 C1096 1.409 . S
C1103 C1102 1.362 . S
H1104 C1110 0.930 . S
H1105 C1113 0.930 . S
H1106 C1114 0.930 . S
H1107 C1115 0.930 . S
H1108 C1118 0.930 . S
H1109 C1119 0.930 . S
C1110 H1104 0.930 . S
C1110 C1111 1.355 1_545 S
C1110 C1112 1.415 . S
C1111 C1110 1.355 1_565 S
C1111 C1113 1.419 . S
C1112 C1110 1.415 . S
C1112 C1117 1.425 1_544 S
C1112 C1119 1.409 1_554 S
C1113 H1105 0.930 . S
C1113 C1111 1.419 . S
C1113 C1114 1.362 . S
C1114 H1106 0.930 . S
C1114 C1113 1.362 . S
C1114 C1117 1.409 1_554 S
C1115 H1107 0.930 . S
C1115 C1116 1.355 1_565 S
C1115 C1117 1.415 . S
C1116 C1115 1.355 1_545 S
C1116 C1118 1.419 . S
C1117 C1112 1.425 1_566 S
C1117 C1114 1.409 1_556 S
C1117 C1115 1.415 . S
C1118 H1108 0.930 . S
C1118 C1116 1.419 . S
C1118 C1119 1.362 . S
C1119 H1109 0.930 . S
C1119 C1112 1.409 1_556 S
C1119 C1118 1.362 . S
H1120 C1126 0.930 . S
H1121 C1129 0.930 . S
H1122 C1130 0.930 . S
H1123 C1131 0.930 . S
H1124 C1134 0.930 . S
H1125 C1135 0.930 . S
C1126 H1120 0.930 . S
C1126 C1127 1.355 . S
C1126 C1128 1.415 . S
C1127 C1126 1.355 . S
C1127 C1129 1.419 . S
C1128 C1126 1.415 . S
C1128 C1133 1.425 . S
C1128 C1135 1.409 . S
C1129 H1121 0.930 . S
C1129 C1127 1.419 . S
C1129 C1130 1.362 . S
C1130 H1122 0.930 . S
C1130 C1129 1.362 . S
C1130 C1133 1.409 . S
C1131 H1123 0.930 . S
C1131 C1132 1.355 . S
C1131 C1133 1.415 . S
C1132 C1131 1.355 . S
C1132 C1134 1.419 . S
C1133 C1128 1.425 . S
C1133 C1130 1.409 . S
C1133 C1131 1.415 . S
C1134 H1124 0.930 . S
C1134 C1132 1.419 . S
C1134 C1135 1.362 . S
C1135 H1125 0.930 . S
C1135 C1128 1.409 . S
C1135 C1134 1.362 . S
H1136 C1142 0.930 . S
H1137 C1145 0.930 . S
H1138 C1146 0.930 . S
H1139 C1147 0.930 . S
H1140 C1150 0.930 . S
H1141 C1151 0.930 . S
C1142 H1136 0.930 . S
C1142 C1143 1.355 . S
C1142 C1144 1.415 . S
C1143 C1142 1.355 . S
C1143 C1145 1.419 . S
C1144 C1142 1.415 . S
C1144 C1149 1.425 . S
C1144 C1151 1.409 . S
C1145 H1137 0.930 . S
C1145 C1143 1.419 . S
C1145 C1146 1.362 . S
C1146 H1138 0.930 . S
C1146 C1145 1.362 . S
C1146 C1149 1.409 . S
C1147 H1139 0.930 . S
C1147 C1148 1.355 . S
C1147 C1149 1.415 . S
C1148 C1147 1.355 . S
C1148 C1150 1.419 . S
C1149 C1144 1.425 . S
C1149 C1146 1.409 . S
C1149 C1147 1.415 . S
C1150 H1140 0.930 . S
C1150 C1148 1.419 . S
C1150 C1151 1.362 . S
C1151 H1141 0.930 . S
C1151 C1144 1.409 . S
C1151 C1150 1.362 . S
H1152 C1158 0.930 . S
H1153 C1161 0.930 . S
H1154 C1162 0.930 . S
H1155 C1163 0.930 . S
H1156 C1166 0.930 . S
H1157 C1167 0.930 . S
C1158 H1152 0.930 . S
C1158 C1159 1.355 . S
C1158 C1160 1.415 . S
C1159 C1158 1.355 . S
C1159 C1161 1.419 . S
C1160 C1158 1.415 . S
C1160 C1165 1.425 . S
C1160 C1167 1.409 . S
C1161 H1153 0.930 . S
C1161 C1159 1.419 . S
C1161 C1162 1.362 . S
C1162 H1154 0.930 . S
C1162 C1161 1.362 . S
C1162 C1165 1.409 . S
C1163 H1155 0.930 . S
C1163 C1164 1.355 . S
C1163 C1165 1.415 . S
C1164 C1163 1.355 . S
C1164 C1166 1.419 . S
C1165 C1160 1.425 . S
C1165 C1162 1.409 . S
C1165 C1163 1.415 . S
C1166 H1156 0.930 . S
C1166 C1164 1.419 . S
C1166 C1167 1.362 . S
C1167 H1157 0.930 . S
C1167 C1160 1.409 . S
C1167 C1166 1.362 . S
H1168 C1174 0.930 . S
H1169 C1177 0.930 . S
H1170 C1178 0.930 . S
H1171 C1179 0.930 . S
H1172 C1182 0.930 . S
H1173 C1183 0.930 . S
C1174 H1168 0.930 . S
C1174 C1175 1.355 . S
C1174 C1176 1.415 . S
C1175 C1174 1.355 . S
C1175 C1177 1.419 . S
C1176 C1174 1.415 . S
C1176 C1181 1.425 1_556 S
C1176 C1183 1.409 1_556 S
C1177 H1169 0.930 . S
C1177 C1175 1.419 . S
C1177 C1178 1.362 . S
C1178 H1170 0.930 . S
C1178 C1177 1.362 . S
C1178 C1181 1.409 1_556 S
C1179 H1171 0.930 . S
C1179 C1180 1.355 . S
C1179 C1181 1.415 . S
C1180 C1179 1.355 . S
C1180 C1182 1.419 . S
C1181 C1176 1.425 1_554 S
C1181 C1178 1.409 1_554 S
C1181 C1179 1.415 . S
C1182 H1172 0.930 . S
C1182 C1180 1.419 . S
C1182 C1183 1.362 . S
C1183 H1173 0.930 . S
C1183 C1176 1.409 1_554 S
C1183 C1182 1.362 . S
H1184 C1190 0.930 . S
H1185 C1193 0.930 . S
H1186 C1194 0.930 . S
H1187 C1195 0.930 . S
H1188 C1198 0.930 . S
H1189 C1199 0.930 . S
C1190 H1184 0.930 . S
C1190 C1191 1.355 . S
C1190 C1192 1.415 . S
C1191 C1190 1.355 . S
C1191 C1193 1.419 . S
C1192 C1190 1.415 . S
C1192 C1197 1.425 . S
C1192 C1199 1.409 . S
C1193 H1185 0.930 . S
C1193 C1191 1.419 . S
C1193 C1194 1.362 . S
C1194 H1186 0.930 . S
C1194 C1193 1.362 . S
C1194 C1197 1.409 . S
C1195 H1187 0.930 . S
C1195 C1196 1.355 . S
C1195 C1197 1.415 . S
C1196 C1195 1.355 . S
C1196 C1198 1.419 . S
C1197 C1192 1.425 . S
C1197 C1194 1.409 . S
C1197 C1195 1.415 . S
C1198 H1188 0.930 . S
C1198 C1196 1.419 . S
C1198 C1199 1.362 . S
C1199 H1189 0.930 . S
C1199 C1192 1.409 . S
C1199 C1198 1.362 . S
H1200 C1206 0.930 . S
H1201 C1209 0.930 . S
H1202 C1210 0.930 . S
H1203 C1211 0.930 . S
H1204 C1214 0.930 . S
H1205 C1215 0.930 . S
C1206 H1200 0.930 . S
C1206 C1207 1.355 . S
C1206 C1208 1.415 . S
C1207 C1206 1.355 . S
C1207 C1209 1.419 . S
C1208 C1206 1.415 . S
C1208 C1213 1.425 . S
C1208 C1215 1.409 . S
C1209 H1201 0.930 . S
C1209 C1207 1.419 . S
C1209 C1210 1.362 . S
C1210 H1202 0.930 . S
C1210 C1209 1.362 . S
C1210 C1213 1.409 . S
C1211 H1203 0.930 . S
C1211 C1212 1.355 . S
C1211 C1213 1.415 . S
C1212 C1211 1.355 . S
C1212 C1214 1.419 . S
C1213 C1208 1.425 . S
C1213 C1210 1.409 . S
C1213 C1211 1.415 . S
C1214 H1204 0.930 . S
C1214 C1212 1.419 . S
C1214 C1215 1.362 . S
C1215 H1205 0.930 . S
C1215 C1208 1.409 . S
C1215 C1214 1.362 . S
H1216 C1222 0.930 . S
H1217 C1225 0.930 . S
H1218 C1226 0.930 . S
H1219 C1227 0.930 . S
H1220 C1230 0.930 . S
H1221 C1231 0.930 . S
C1222 H1216 0.930 . S
C1222 C1223 1.355 . S
C1222 C1224 1.415 . S
C1223 C1222 1.355 . S
C1223 C1225 1.419 . S
C1224 C1222 1.415 . S
C1224 C1229 1.425 . S
C1224 C1231 1.409 . S
C1225 H1217 0.930 . S
C1225 C1223 1.419 . S
C1225 C1226 1.362 . S
C1226 H1218 0.930 . S
C1226 C1225 1.362 . S
C1226 C1229 1.409 . S
C1227 H1219 0.930 . S
C1227 C1228 1.355 . S
C1227 C1229 1.415 . S
C1228 C1227 1.355 . S
C1228 C1230 1.419 . S
C1229 C1224 1.425 . S
C1229 C1226 1.409 . S
C1229 C1227 1.415 . S
C1230 H1220 0.930 . S
C1230 C1228 1.419 . S
C1230 C1231 1.362 . S
C1231 H1221 0.930 . S
C1231 C1224 1.409 . S
C1231 C1230 1.362 . S
H1232 C1238 0.930 . S
H1233 C1241 0.930 . S
H1234 C1242 0.930 . S
H1235 C1243 0.930 . S
H1236 C1246 0.930 . S
H1237 C1247 0.930 . S
C1238 H1232 0.930 . S
C1238 C1239 1.355 . S
C1238 C1240 1.415 . S
C1239 C1238 1.355 . S
C1239 C1241 1.419 . S
C1240 C1238 1.415 . S
C1240 C1245 1.425 . S
C1240 C1247 1.409 . S
C1241 H1233 0.930 . S
C1241 C1239 1.419 . S
C1241 C1242 1.362 . S
C1242 H1234 0.930 . S
C1242 C1241 1.362 . S
C1242 C1245 1.409 . S
C1243 H1235 0.930 . S
C1243 C1244 1.355 . S
C1243 C1245 1.415 . S
C1244 C1243 1.355 . S
C1244 C1246 1.419 . S
C1245 C1240 1.425 . S
C1245 C1242 1.409 . S
C1245 C1243 1.415 . S
C1246 H1236 0.930 . S
C1246 C1244 1.419 . S
C1246 C1247 1.362 . S
C1247 H1237 0.930 . S
C1247 C1240 1.409 . S
C1247 C1246 1.362 . S
H1248 C1254 0.930 . S
H1249 C1257 0.930 . S
H1250 C1258 0.930 . S
H1251 C1259 0.930 . S
H1252 C1262 0.930 . S
H1253 C1263 0.930 . S
C1254 H1248 0.930 . S
C1254 C1255 1.355 . S
C1254 C1256 1.415 . S
C1255 C1254 1.355 . S
C1255 C1257 1.419 . S
C1256 C1254 1.415 . S
C1256 C1261 1.425 . S
C1256 C1263 1.409 . S
C1257 H1249 0.930 . S
C1257 C1255 1.419 . S
C1257 C1258 1.362 . S
C1258 H1250 0.930 . S
C1258 C1257 1.362 . S
C1258 C1261 1.409 . S
C1259 H1251 0.930 . S
C1259 C1260 1.355 . S
C1259 C1261 1.415 . S
C1260 C1259 1.355 . S
C1260 C1262 1.419 . S
C1261 C1256 1.425 . S
C1261 C1258 1.409 . S
C1261 C1259 1.415 . S
C1262 H1252 0.930 . S
C1262 C1260 1.419 . S
C1262 C1263 1.362 . S
C1263 H1253 0.930 . S
C1263 C1256 1.409 . S
C1263 C1262 1.362 . S
H1264 C1270 0.930 . S
H1265 C1273 0.930 . S
H1266 C1274 0.930 . S
H1267 C1275 0.930 . S
H1268 C1278 0.930 . S
H1269 C1279 0.930 . S
C1270 H1264 0.930 . S
C1270 C1271 1.355 . S
C1270 C1272 1.415 . S
C1271 C1270 1.355 . S
C1271 C1273 1.419 . S
C1272 C1270 1.415 . S
C1272 C1277 1.425 . S
C1272 C1279 1.409 . S
C1273 H1265 0.930 . S
C1273 C1271 1.419 . S
C1273 C1274 1.362 . S
C1274 H1266 0.930 . S
C1274 C1273 1.362 . S
C1274 C1277 1.409 . S
C1275 H1267 0.930 . S
C1275 C1276 1.355 . S
C1275 C1277 1.415 . S
C1276 C1275 1.355 . S
C1276 C1278 1.419 . S
C1277 C1272 1.425 . S
C1277 C1274 1.409 . S
C1277 C1275 1.415 . S
C1278 H1268 0.930 . S
C1278 C1276 1.419 . S
C1278 C1279 1.362 . S
C1279 H1269 0.930 . S
C1279 C1272 1.409 . S
C1279 C1278 1.362 . S
H1280 C1286 0.930 . S
H1281 C1289 0.930 . S
H1282 C1290 0.930 . S
H1283 C1291 0.930 . S
H1284 C1294 0.930 . S
H1285 C1295 0.930 . S
C1286 H1280 0.930 . S
C1286 C1287 1.355 . S
C1286 C1288 1.415 . S
C1287 C1286 1.355 . S
C1287 C1289 1.419 . S
C1288 C1286 1.415 . S
C1288 C1293 1.425 . S
C1288 C1295 1.409 . S
C1289 H1281 0.930 . S
C1289 C1287 1.419 . S
C1289 C1290 1.362 . S
C1290 H1282 0.930 . S
C1290 C1289 1.362 . S
C1290 C1293 1.409 . S
C1291 H1283 0.930 . S
C1291 C1292 1.355 . S
C1291 C1293 1.415 . S
C1292 C1291 1.355 . S
C1292 C1294 1.419 . S
C1293 C1288 1.425 . S
C1293 C1290 1.409 . S
C1293 C1291 1.415 . S
C1294 H1284 0.930 . S
C1294 C1292 1.419 . S
C1294 C1295 1.362 . S
C1295 H1285 0.930 . S
C1295 C1288 1.409 . S
C1295 C1294 1.362 . S
H1296 C1302 0.930 . S
H1297 C1305 0.930 . S
H1298 C1306 0.930 . S
H1299 C1307 0.930 . S
H1300 C1310 0.930 . S
H1301 C1311 0.930 . S
C1302 H1296 0.930 . S
C1302 C1303 1.355 . S
C1302 C1304 1.415 . S
C1303 C1302 1.355 . S
C1303 C1305 1.419 . S
C1304 C1302 1.415 . S
C1304 C1309 1.425 . S
C1304 C1311 1.409 . S
C1305 H1297 0.930 . S
C1305 C1303 1.419 . S
C1305 C1306 1.362 . S
C1306 H1298 0.930 . S
C1306 C1305 1.362 . S
C1306 C1309 1.409 . S
C1307 H1299 0.930 . S
C1307 C1308 1.355 . S
C1307 C1309 1.415 . S
C1308 C1307 1.355 . S
C1308 C1310 1.419 . S
C1309 C1304 1.425 . S
C1309 C1306 1.409 . S
C1309 C1307 1.415 . S
C1310 H1300 0.930 . S
C1310 C1308 1.419 . S
C1310 C1311 1.362 . S
C1311 H1301 0.930 . S
C1311 C1304 1.409 . S
C1311 C1310 1.362 . S
H1312 C1318 0.930 . S
H1313 C1321 0.930 . S
H1314 C1322 0.930 . S
H1315 C1323 0.930 . S
H1316 C1326 0.930 . S
H1317 C1327 0.930 . S
C1318 H1312 0.930 . S
C1318 C1319 1.355 . S
C1318 C1320 1.415 . S
C1319 C1318 1.355 . S
C1319 C1321 1.419 . S
C1320 C1318 1.415 . S
C1320 C1325 1.425 . S
C1320 C1327 1.409 . S
C1321 H1313 0.930 . S
C1321 C1319 1.419 . S
C1321 C1322 1.362 . S
C1322 H1314 0.930 . S
C1322 C1321 1.362 . S
C1322 C1325 1.409 . S
C1323 H1315 0.930 . S
C1323 C1324 1.355 . S
C1323 C1325 1.415 . S
C1324 C1323 1.355 . S
C1324 C1326 1.419 . S
C1325 C1320 1.425 . S
C1325 C1322 1.409 . S
C1325 C1323 1.415 . S
C1326 H1316 0.930 . S
C1326 C1324 1.419 . S
C1326 C1327 1.362 . S
C1327 H1317 0.930 . S
C1327 C1320 1.409 . S
C1327 C1326 1.362 . S
H1328 C1334 0.930 . S
H1329 C1337 0.930 . S
H1330 C1338 0.930 . S
H1331 C1339 0.930 . S
H1332 C1342 0.930 . S
H1333 C1343 0.930 . S
C1334 H1328 0.930 . S
C1334 C1335 1.355 . S
C1334 C1336 1.415 . S
C1335 C1334 1.355 . S
C1335 C1337 1.419 . S
C1336 C1334 1.415 . S
C1336 C1341 1.425 . S
C1336 C1343 1.409 . S
C1337 H1329 0.930 . S
C1337 C1335 1.419 . S
C1337 C1338 1.362 . S
C1338 H1330 0.930 . S
C1338 C1337 1.362 . S
C1338 C1341 1.409 . S
C1339 H1331 0.930 . S
C1339 C1340 1.355 . S
C1339 C1341 1.415 . S
C1340 C1339 1.355 . S
C1340 C1342 1.419 . S
C1341 C1336 1.425 . S
C1341 C1338 1.409 . S
C1341 C1339 1.415 . S
C1342 H1332 0.930 . S
C1342 C1340 1.419 . S
C1342 C1343 1.362 . S
C1343 H1333 0.930 . S
C1343 C1336 1.409 . S
C1343 C1342 1.362 . S
H1344 C1350 0.930 . S
H1345 C1353 0.930 . S
H1346 C1354 0.930 . S
H1347 C1355 0.930 . S
H1348 C1358 0.930 . S
H1349 C1359 0.930 . S
C1350 H1344 0.930 . S
C1350 C1351 1.355 . S
C1350 C1352 1.415 . S
C1351 C1350 1.355 . S
C1351 C1353 1.419 . S
C1352 C1350 1.415 . S
C1352 C1357 1.425 . S
C1352 C1359 1.409 . S
C1353 H1345 0.930 . S
C1353 C1351 1.419 . S
C1353 C1354 1.362 . S
C1354 H1346 0.930 . S
C1354 C1353 1.362 . S
C1354 C1357 1.409 . S
C1355 H1347 0.930 . S
C1355 C1356 1.355 . S
C1355 C1357 1.415 . S
C1356 C1355 1.355 . S
C1356 C1358 1.419 . S
C1357 C1352 1.425 . S
C1357 C1354 1.409 . S
C1357 C1355 1.415 . S
C1358 H1348 0.930 . S
C1358 C1356 1.419 . S
C1358 C1359 1.362 . S
C1359 H1349 0.930 . S
C1359 C1352 1.409 . S
C1359 C1358 1.362 . S
H1360 C1366 0.930 . S
H1361 C1369 0.930 . S
H1362 C1370 0.930 . S
H1363 C1371 0.930 . S
H1364 C1374 0.930 . S
H1365 C1375 0.930 . S
C1366 H1360 0.930 . S
C1366 C1367 1.355 . S
C1366 C1368 1.415 . S
C1367 C1366 1.355 . S
C1367 C1369 1.419 . S
C1368 C1366 1.415 . S
C1368 C1373 1.425 . S
C1368 C1375 1.409 . S
C1369 H1361 0.930 . S
C1369 C1367 1.419 . S
C1369 C1370 1.362 . S
C1370 H1362 0.930 . S
C1370 C1369 1.362 . S
C1370 C1373 1.409 . S
C1371 H1363 0.930 . S
C1371 C1372 1.355 . S
C1371 C1373 1.415 . S
C1372 C1371 1.355 . S
C1372 C1374 1.419 . S
C1373 C1368 1.425 . S
C1373 C1370 1.409 . S
C1373 C1371 1.415 . S
C1374 H1364 0.930 . S
C1374 C1372 1.419 . S
C1374 C1375 1.362 . S
C1375 H1365 0.930 . S
C1375 C1368 1.409 . S
C1375 C1374 1.362 . S
H1376 C1382 0.930 . S
H1377 C1385 0.930 . S
H1378 C1386 0.930 . S
H1379 C1387 0.930 . S
H1380 C1390 0.930 . S
H1381 C1391 0.930 . S
C1382 H1376 0.930 . S
C1382 C1383 1.355 . S
C1382 C1384 1.415 . S
C1383 C1382 1.355 . S
C1383 C1385 1.419 . S
C1384 C1382 1.415 . S
C1384 C1389 1.425 . S
C1384 C1391 1.409 . S
C1385 H1377 0.930 . S
C1385 C1383 1.419 . S
C1385 C1386 1.362 . S
C1386 H1378 0.930 . S
C1386 C1385 1.362 . S
C1386 C1389 1.409 . S
C1387 H1379 0.930 . S
C1387 C1388 1.355 . S
C1387 C1389 1.415 . S
C1388 C1387 1.355 . S
C1388 C1390 1.419 . S
C1389 C1384 1.425 . S
C1389 C1386 1.409 . S
C1389 C1387 1.415 . S
C1390 H1380 0.930 . S
C1390 C1388 1.419 . S
C1390 C1391 1.362 . S
C1391 H1381 0.930 . S
C1391 C1384 1.409 . S
C1391 C1390 1.362 . S
H1392 C1398 0.930 . S
H1393 C1401 0.930 . S
H1394 C1402 0.930 . S
H1395 C1403 0.930 . S
H1396 C1406 0.930 . S
H1397 C1407 0.930 . S
C1398 H1392 0.930 . S
C1398 C1399 1.355 . S
C1398 C1400 1.415 . S
C1399 C1398 1.355 . S
C1399 C1401 1.419 . S
C1400 C1398 1.415 . S
C1400 C1405 1.425 . S
C1400 C1407 1.409 . S
C1401 H1393 0.930 . S
C1401 C1399 1.419 . S
C1401 C1402 1.362 . S
C1402 H1394 0.930 . S
C1402 C1401 1.362 . S
C1402 C1405 1.409 . S
C1403 H1395 0.930 . S
C1403 C1404 1.355 . S
C1403 C1405 1.415 . S
C1404 C1403 1.355 . S
C1404 C1406 1.419 . S
C1405 C1400 1.425 . S
C1405 C1402 1.409 . S
C1405 C1403 1.415 . S
C1406 H1396 0.930 . S
C1406 C1404 1.419 . S
C1406 C1407 1.362 . S
C1407 H1397 0.930 . S
C1407 C1400 1.409 . S
C1407 C1406 1.362 . S
H1408 C1414 0.930 . S
H1409 C1417 0.930 . S
H1410 C1418 0.930 . S
H1411 C1419 0.930 . S
H1412 C1422 0.930 . S
H1413 C1423 0.930 . S
C1414 H1408 0.930 . S
C1414 C1415 1.355 . S
C1414 C1416 1.415 . S
C1415 C1414 1.355 . S
C1415 C1417 1.419 . S
C1416 C1414 1.415 . S
C1416 C1421 1.425 . S
C1416 C1423 1.409 . S
C1417 H1409 0.930 . S
C1417 C1415 1.419 . S
C1417 C1418 1.362 . S
C1418 H1410 0.930 . S
C1418 C1417 1.362 . S
C1418 C1421 1.409 . S
C1419 H1411 0.930 . S
C1419 C1420 1.355 . S
C1419 C1421 1.415 . S
C1420 C1419 1.355 . S
C1420 C1422 1.419 . S
C1421 C1416 1.425 . S
C1421 C1418 1.409 . S
C1421 C1419 1.415 . S
C1422 H1412 0.930 . S
C1422 C1420 1.419 . S
C1422 C1423 1.362 . S
C1423 H1413 0.930 . S
C1423 C1416 1.409 . S
C1423 C1422 1.362 . S
H1424 C1430 0.930 . S
H1425 C1433 0.930 . S
H1426 C1434 0.930 . S
H1427 C1435 0.930 . S
H1428 C1438 0.930 . S
H1429 C1439 0.930 . S
C1430 H1424 0.930 . S
C1430 C1431 1.355 . S
C1430 C1432 1.415 . S
C1431 C1430 1.355 . S
C1431 C1433 1.419 . S
C1432 C1430 1.415 . S
C1432 C1437 1.425 . S
C1432 C1439 1.409 . S
C1433 H1425 0.930 . S
C1433 C1431 1.419 . S
C1433 C1434 1.362 . S
C1434 H1426 0.930 . S
C1434 C1433 1.362 . S
C1434 C1437 1.409 . S
C1435 H1427 0.930 . S
C1435 C1436 1.355 . S
C1435 C1437 1.415 . S
C1436 C1435 1.355 . S
C1436 C1438 1.419 . S
C1437 C1432 1.425 . S
C1437 C1434 1.409 . S
C1437 C1435 1.415 . S
C1438 H1428 0.930 . S
C1438 C1436 1.419 . S
C1438 C1439 1.362 . S
C1439 H1429 0.930 . S
C1439 C1432 1.409 . S
C1439 C1438 1.362 . S
H1440 C1446 0.930 . S
H1441 C1449 0.930 . S
H1442 C1450 0.930 . S
H1443 C1451 0.930 . S
H1444 C1454 0.930 . S
H1445 C1455 0.930 . S
C1446 H1440 0.930 . S
C1446 C1447 1.355 . S
C1446 C1448 1.415 . S
C1447 C1446 1.355 . S
C1447 C1449 1.419 . S
C1448 C1446 1.415 . S
C1448 C1453 1.425 . S
C1448 C1455 1.409 . S
C1449 H1441 0.930 . S
C1449 C1447 1.419 . S
C1449 C1450 1.362 . S
C1450 H1442 0.930 . S
C1450 C1449 1.362 . S
C1450 C1453 1.409 . S
C1451 H1443 0.930 . S
C1451 C1452 1.355 . S
C1451 C1453 1.415 . S
C1452 C1451 1.355 . S
C1452 C1454 1.419 . S
C1453 C1448 1.425 . S
C1453 C1450 1.409 . S
C1453 C1451 1.415 . S
C1454 H1444 0.930 . S
C1454 C1452 1.419 . S
C1454 C1455 1.362 . S
C1455 H1445 0.930 . S
C1455 C1448 1.409 . S
C1455 C1454 1.362 . S
C951 C5 1.375 . S
C956 C772 1.370 . S
C967 C654 1.319 . S
C972 C64 1.322 . S
C983 C713 1.378 . S
C988 C123 1.378 . S
C999 C595 1.319 . S
C1004 C182 1.323 . S
C1015 C241 1.319 . S
C1020 C890 1.323 . S
C1031 C300 1.378 . S
C1036 C536 1.374 . S
C1047 C831 1.378 . S
C1052 C359 1.375 . S
C1063 C418 1.333 . S
C1068 C477 1.326 . S
C1079 C239 1.613 . S
C1084 C3 1.618 . S
C1095 C62 1.618 . S
C1100 C298 1.613 . S
C1111 C121 1.638 . S
C1116 C357 1.637 . S
C1127 C416 1.614 . S
C1132 C180 1.615 . S
C1143 C475 1.622 . S
C1148 C593 1.631 . S
C1159 C534 1.617 . S
C1164 C652 1.613 . S
C1175 C829 1.621 . S
C1180 C711 1.631 . S
C1191 C770 1.638 . S
C1196 C888 1.637 . S
C1207 C347 1.423 . S
C1212 C52 1.415 . S
C1223 C111 1.432 . S
C1228 C406 1.424 . S
C1239 C170 1.409 . S
C1244 C465 1.405 . S
C1255 C288 1.429 . S
C1260 C229 1.421 . S
C1271 C269 1.685 . S
C1276 C623 1.670 . S
C1287 C151 1.680 . S
C1292 C505 1.670 . S
C1303 C682 1.706 . S
C1308 C387 1.679 . S
C1319 C564 1.701 . S
C1324 C33 1.675 . S
C1335 C524 1.442 . S
C1340 C760 1.437 . S
C1351 C642 1.416 . S
C1356 C937 1.424 . S
C1367 C819 1.443 . S
C1372 C583 1.442 . S
C1383 C701 1.419 . S
C1388 C878 1.427 . S
C1399 C859 1.705 . S
C1404 C92 1.727 . S
C1415 C800 1.673 . S
C1420 C328 1.695 . S
C1431 C918 1.707 . S
C1436 C210 1.680 . S
C1447 C741 1.700 . S
C1452 C446 1.675 . S
