# Generated by pormake.
# Topology xfy, (5)-cn, num edge types: 1
# Building blocks:
#     Node 0, Type 0, BuildingBlock: BEQFEK_clean_sbu_0, # of connection points: 5
#     Node 1, Type 0, BuildingBlock: BEQFEK_clean_sbu_0, # of connection points: 5
#     Node 2, Type 0, BuildingBlock: BEQFEK_clean_sbu_0, # of connection points: 5
#     Node 3, Type 0, BuildingBlock: BEQFEK_clean_sbu_0, # of connection points: 5
#     Node 4, Type 0, BuildingBlock: BEQFEK_clean_sbu_0, # of connection points: 5
#     Node 5, Type 0, BuildingBlock: BEQFEK_clean_sbu_0, # of connection points: 5
#     Node 6, Type 0, BuildingBlock: BEQFEK_clean_sbu_0, # of connection points: 5
#     Node 7, Type 0, BuildingBlock: BEQFEK_clean_sbu_0, # of connection points: 5
#     Edge 8, Type (0, 0), BuildingBlock: AJUNOK_clean_linker_0, # of connection points: 2
#     Edge 9, Type (0, 0), BuildingBlock: AJUNOK_clean_linker_0, # of connection points: 2
#     Edge 10, Type (0, 0), BuildingBlock: AJUNOK_clean_linker_0, # of connection points: 2
#     Edge 11, Type (0, 0), BuildingBlock: AJUNOK_clean_linker_0, # of connection points: 2
#     Edge 12, Type (0, 0), BuildingBlock: AJUNOK_clean_linker_0, # of connection points: 2
#     Edge 13, Type (0, 0), BuildingBlock: AJUNOK_clean_linker_0, # of connection points: 2
#     Edge 14, Type (0, 0), BuildingBlock: AJUNOK_clean_linker_0, # of connection points: 2
#     Edge 15, Type (0, 0), BuildingBlock: AJUNOK_clean_linker_0, # of connection points: 2
#     Edge 16, Type (0, 0), BuildingBlock: AJUNOK_clean_linker_0, # of connection points: 2
#     Edge 17, Type (0, 0), BuildingBlock: AJUNOK_clean_linker_0, # of connection points: 2
#     Edge 18, Type (0, 0), BuildingBlock: AJUNOK_clean_linker_0, # of connection points: 2
#     Edge 19, Type (0, 0), BuildingBlock: AJUNOK_clean_linker_0, # of connection points: 2
#     Edge 20, Type (0, 0), BuildingBlock: AJUNOK_clean_linker_0, # of connection points: 2
#     Edge 21, Type (0, 0), BuildingBlock: AJUNOK_clean_linker_0, # of connection points: 2
#     Edge 22, Type (0, 0), BuildingBlock: AJUNOK_clean_linker_0, # of connection points: 2
#     Edge 23, Type (0, 0), BuildingBlock: AJUNOK_clean_linker_0, # of connection points: 2
#     Edge 24, Type (0, 0), BuildingBlock: AJUNOK_clean_linker_0, # of connection points: 2
#     Edge 25, Type (0, 0), BuildingBlock: AJUNOK_clean_linker_0, # of connection points: 2
#     Edge 26, Type (0, 0), BuildingBlock: AJUNOK_clean_linker_0, # of connection points: 2
#     Edge 27, Type (0, 0), BuildingBlock: AJUNOK_clean_linker_0, # of connection points: 2
# Relax obj value: 0.382
# Max RMSD: 0.228
# Mean RMSD: 0.228
data_MOF--net-xfy--node1-BEQFEK_clean_sbu_0--edge1-AJUNOK_clean_linker_0
_symmetry_space_group_name_H-M    P1
_symmetry_Int_Tables_number       1
_symmetry_cell_setting            triclinic
loop_
_symmetry_equiv_pos_as_xyz
'x, y, z'
_cell_length_a     22.28049
_cell_length_b     22.07966
_cell_length_c     46.540718
_cell_angle_alpha  90.008783
_cell_angle_beta   90.093836
_cell_angle_gamma 90.270284
loop_
_atom_site_label
_atom_site_type_symbol
_atom_site_fract_x
_atom_site_fract_y
_atom_site_fract_z
_atom_type_partial_charge
Co0 Co 0.21269 0.0218 0.43369 0.0
Co1 Co 0.20641 0.12842 0.389 0.0
C2 C 0.10726 0.03691 0.39441 0.0
O3 O 0.13578 0.00701 0.41341 0.0
O4 O 0.1289 0.08494 0.38322 0.0
C5 C 0.21904 0.89976 0.4571 0.0
O6 O 0.20441 0.88169 0.43111 0.0
C7 C 0.20181 0.18337 0.33168 0.0
C8 C 0.25216 0.26864 0.33841 0.0
C9 C 0.22435 0.23378 0.31748 0.0
N10 N 0.21569 0.18823 0.3597 0.0
N11 N 0.24471 0.23991 0.36369 0.0
C12 C 0.17431 0.12801 0.31845 0.0
H13 H 0.185 0.08738 0.3315 0.0
H14 H 0.19029 0.12158 0.29609 0.0
H15 H 0.12482 0.13335 0.31799 0.0
C16 C 0.32797 0.00092 0.4054 0.0
N17 N 0.27594 0.03092 0.4077 0.0
N18 N 0.27352 0.07384 0.38812 0.0
C19 C 0.324 0.07118 0.37208 0.0
C20 C 0.35979 0.0244 0.38233 0.0
C21 C 0.34999 0.9567 0.42742 0.0
H22 H 0.33562 0.97107 0.44915 0.0
H23 H 0.33041 0.91142 0.42289 0.0
H24 H 0.39963 0.95317 0.42734 0.0
O25 O 0.20428 0.09457 0.45709 0.0
O26 O 0.19931 0.17176 0.42669 0.0
H27 H 0.34083 0.15995 0.35547 0.0
H28 H 0.38059 0.1005 0.33678 0.0
C29 C 0.33795 0.11267 0.34754 0.0
H30 H 0.30138 0.10992 0.33148 0.0
H31 H 0.2621 0.25406 0.38342 0.0
O32 O 0.22624 0.95597 0.46179 0.0
C33 C 0.19882 0.15084 0.45222 0.0
Co34 Co 0.01575 0.76503 0.57575 0.0
Co35 Co 0.12024 0.77559 0.62122 0.0
C36 C 0.02853 0.87255 0.61474 0.0
O37 O 0.00016 0.84267 0.59558 0.0
O38 O 0.07619 0.85241 0.62639 0.0
C39 C 0.89535 0.75583 0.55116 0.0
O40 O 0.87581 0.77023 0.57689 0.0
C41 C 0.17401 0.78442 0.67874 0.0
C42 C 0.25468 0.72766 0.67391 0.0
C43 C 0.2216 0.75976 0.69388 0.0
N44 N 0.17867 0.76755 0.65106 0.0
N45 N 0.22782 0.73483 0.6482 0.0
C46 C 0.12124 0.81736 0.69088 0.0
H47 H 0.07948 0.8031 0.67969 0.0
H48 H 0.11681 0.80938 0.71433 0.0
H49 H 0.12748 0.86662 0.68716 0.0
C50 C -0.00348 0.64926 0.60469 0.0
N51 N 0.02533 0.70243 0.60215 0.0
N52 N 0.0662 0.70745 0.62247 0.0
C53 C 0.06251 0.65812 0.63958 0.0
C54 C 0.01844 0.61955 0.62873 0.0
C55 C 0.95393 0.62482 0.58254 0.0
H56 H 0.96715 0.64079 0.56088 0.0
H57 H 0.90803 0.6413 0.58725 0.0
H58 H 0.95336 0.5746 0.58239 0.0
O59 O 0.08793 0.77313 0.55287 0.0
O60 O 0.164 0.78178 0.58345 0.0
H61 H 0.14602 0.64285 0.66109 0.0
H62 H 0.08165 0.61002 0.67911 0.0
C63 C 0.09808 0.64943 0.66655 0.0
H64 H 0.09422 0.69025 0.68018 0.0
H65 H 0.24098 0.7143 0.62904 0.0
O66 O 0.95136 0.74995 0.5472 0.0
C67 C 0.14357 0.77945 0.55784 0.0
Co68 Co 0.75495 0.96753 0.43512 0.0
Co69 Co 0.76588 0.86511 0.38834 0.0
C70 C 0.86032 0.96079 0.39513 0.0
O71 O 0.83075 0.98687 0.41494 0.0
O72 O 0.84104 0.91269 0.38305 0.0
C73 C 0.74745 0.08821 0.45822 0.0
O74 O 0.76099 0.10494 0.43192 0.0
C75 C 0.77597 0.81296 0.3304 0.0
C76 C 0.71928 0.73097 0.33388 0.0
C77 C 0.75137 0.76576 0.31442 0.0
N78 N 0.75758 0.80736 0.35779 0.0
N79 N 0.7247 0.75756 0.35983 0.0
C80 C 0.81714 0.86222 0.32019 0.0
H81 H 0.85805 0.86288 0.33379 0.0
H82 H 0.79471 0.9067 0.32262 0.0
H83 H 0.83092 0.85537 0.29754 0.0
C84 C 0.63839 0.98489 0.40746 0.0
N85 N 0.69181 0.9573 0.40922 0.0
N86 N 0.69669 0.91718 0.38846 0.0
C87 C 0.64679 0.92002 0.37195 0.0
C88 C 0.6081 0.96284 0.38358 0.0
C89 C 0.61462 0.02674 0.43004 0.0
H90 H 0.63131 0.01301 0.4515 0.0
H91 H 0.63047 0.07348 0.42552 0.0
H92 H 0.56485 0.02649 0.43051 0.0
O93 O 0.76613 0.89393 0.4574 0.0
O94 O 0.77521 0.81955 0.4256 0.0
H95 H 0.63044 0.83656 0.34995 0.0
H96 H 0.5988 0.90215 0.33234 0.0
C97 C 0.63774 0.88503 0.34476 0.0
H98 H 0.67842 0.889 0.33127 0.0
H99 H 0.70373 0.74318 0.37868 0.0
O100 O 0.74019 0.03226 0.46353 0.0
C101 C 0.77425 0.83842 0.45153 0.0
Co102 Co 0.95848 0.22638 0.57593 0.0
Co103 Co 0.85393 0.21354 0.62089 0.0
C104 C 0.94909 0.11904 0.61447 0.0
O105 O 0.97671 0.14958 0.59541 0.0
O106 O 0.90049 0.13767 0.62571 0.0
C107 C 0.07824 0.23335 0.55195 0.0
O108 O 0.09592 0.21533 0.57749 0.0
C109 C 0.80872 0.20808 0.67949 0.0
C110 C 0.71414 0.23595 0.67478 0.0
C111 C 0.75703 0.22005 0.69497 0.0
N112 N 0.79719 0.21711 0.65149 0.0
N113 N 0.74035 0.23303 0.64873 0.0
C114 C 0.86799 0.18686 0.69077 0.0
H115 H 0.90503 0.20448 0.67717 0.0
H116 H 0.87505 0.20045 0.71345 0.0
H117 H 0.86905 0.13667 0.68967 0.0
C118 C 0.97727 0.34094 0.60573 0.0
N119 N 0.94811 0.28812 0.60269 0.0
N120 N 0.90561 0.28358 0.62221 0.0
C121 C 0.90742 0.33378 0.63885 0.0
C122 C 0.95361 0.37113 0.6292 0.0
C123 C 0.02133 0.3649 0.58418 0.0
H124 H 0.00686 0.35218 0.56219 0.0
H125 H 0.06595 0.34455 0.58829 0.0
H126 H 0.02543 0.41492 0.5852 0.0
O127 O 0.88588 0.21662 0.55306 0.0
O128 O 0.80962 0.20713 0.58339 0.0
H129 H 0.81881 0.33845 0.65658 0.0
H130 H 0.87123 0.39227 0.67207 0.0
C131 C 0.86595 0.34579 0.66345 0.0
H132 H 0.87622 0.3139 0.6811 0.0
H133 H 0.71994 0.24353 0.62917 0.0
O134 O 0.0228 0.24297 0.54768 0.0
C135 C 0.83021 0.20959 0.55785 0.0
Co136 Co 0.26725 0.50721 0.92983 0.0
Co137 Co 0.26859 0.62202 0.88948 0.0
C138 C 0.36584 0.52547 0.88954 0.0
O139 O 0.33996 0.49257 0.90823 0.0
O140 O 0.34436 0.57631 0.88165 0.0
C141 C 0.26703 0.38664 0.95528 0.0
O142 O 0.29264 0.36875 0.93134 0.0
C143 C 0.26429 0.67324 0.83129 0.0
C144 C 0.22819 0.76483 0.83875 0.0
C145 C 0.24514 0.72522 0.81714 0.0
N146 N 0.25778 0.68141 0.85976 0.0
N147 N 0.23681 0.73655 0.86409 0.0
C148 C 0.28934 0.61677 0.8182 0.0
H149 H 0.32786 0.60051 0.83098 0.0
H150 H 0.25434 0.58085 0.8183 0.0
H151 H 0.30507 0.62459 0.79591 0.0
C152 C 0.15439 0.48511 0.90074 0.0
N153 N 0.20453 0.51782 0.90429 0.0
N154 N 0.20122 0.56795 0.88913 0.0
C155 C 0.14678 0.56986 0.87641 0.0
C156 C 0.11542 0.51742 0.88352 0.0
C157 C 0.14272 0.42546 0.91505 0.0
H158 H 0.18073 0.39463 0.91071 0.0
H159 H 0.10072 0.40404 0.90707 0.0
H160 H 0.13953 0.43208 0.93862 0.0
O161 O 0.27753 0.5792 0.95418 0.0
O162 O 0.27807 0.6627 0.92766 0.0
H163 H 0.07349 0.62059 0.8577 0.0
H164 H 0.14422 0.62604 0.83915 0.0
C165 C 0.12285 0.6236 0.86062 0.0
H166 H 0.13429 0.66563 0.87251 0.0
H167 H 0.22671 0.75426 0.88429 0.0
O168 O 0.25173 0.44164 0.95777 0.0
C169 C 0.28076 0.63649 0.95204 0.0
Co170 Co 0.51378 0.72247 0.07878 0.0
Co171 Co 0.62398 0.71287 0.12129 0.0
C172 C 0.53166 0.61493 0.11702 0.0
O173 O 0.50099 0.64463 0.09876 0.0
O174 O 0.58066 0.63546 0.12734 0.0
C175 C 0.39322 0.71649 0.05567 0.0
O176 O 0.38002 0.69142 0.08047 0.0
C177 C 0.68331 0.70603 0.17756 0.0
C178 C 0.76621 0.75872 0.16996 0.0
C179 C 0.73357 0.72962 0.19121 0.0
N180 N 0.68596 0.72071 0.14955 0.0
N181 N 0.73644 0.75088 0.14502 0.0
C182 C 0.63015 0.67657 0.19148 0.0
H183 H 0.5886 0.68692 0.17929 0.0
H184 H 0.62531 0.69154 0.21412 0.0
H185 H 0.63657 0.62676 0.19131 0.0
C186 C 0.49811 0.8378 0.10842 0.0
N187 N 0.52634 0.78477 0.10515 0.0
N188 N 0.57011 0.78041 0.12407 0.0
C189 C 0.56931 0.83022 0.14091 0.0
C190 C 0.52402 0.86841 0.13136 0.0
C191 C 0.45194 0.8609 0.08775 0.0
H192 H 0.46287 0.84588 0.06565 0.0
H193 H 0.40741 0.84195 0.09361 0.0
H194 H 0.44952 0.91104 0.08788 0.0
O195 O 0.58346 0.71549 0.05409 0.0
O196 O 0.66318 0.70809 0.08247 0.0
H197 H 0.65646 0.84428 0.15919 0.0
H198 H 0.59641 0.88092 0.17873 0.0
C199 C 0.60923 0.84 0.16639 0.0
H200 H 0.60561 0.80061 0.18095 0.0
H201 H 0.74871 0.76937 0.12523 0.0
O202 O 0.44615 0.73634 0.05173 0.0
C203 C 0.63966 0.70991 0.05748 0.0
Co204 Co 0.70862 0.47925 0.92733 0.0
Co205 Co 0.70896 0.36272 0.88867 0.0
C206 C 0.60966 0.45737 0.88775 0.0
O207 O 0.63512 0.49175 0.90602 0.0
O208 O 0.63267 0.40711 0.88004 0.0
C209 C 0.70709 0.60025 0.95264 0.0
O210 O 0.67941 0.61755 0.9291 0.0
C211 C 0.72397 0.31223 0.83136 0.0
C212 C 0.72238 0.2135 0.83892 0.0
C213 C 0.72735 0.2568 0.8175 0.0
N214 N 0.71776 0.30232 0.85967 0.0
N215 N 0.71682 0.24318 0.8641 0.0
C216 C 0.72251 0.3737 0.81782 0.0
H217 H 0.70507 0.40782 0.83314 0.0
H218 H 0.76854 0.38731 0.81144 0.0
H219 H 0.6943 0.37272 0.79813 0.0
C220 C 0.82088 0.50163 0.89804 0.0
N221 N 0.77117 0.46842 0.90172 0.0
N222 N 0.77622 0.41666 0.88799 0.0
C223 C 0.83176 0.41385 0.87655 0.0
C224 C 0.86166 0.46777 0.8826 0.0
C225 C 0.83023 0.5634 0.91063 0.0
H226 H 0.79071 0.59194 0.90574 0.0
H227 H 0.87112 0.5855 0.90185 0.0
H228 H 0.83437 0.55989 0.93432 0.0
O229 O 0.69956 0.40816 0.95255 0.0
O230 O 0.70006 0.32351 0.92692 0.0
H231 H 0.90686 0.35435 0.8699 0.0
H232 H 0.85594 0.36023 0.84021 0.0
C233 C 0.85873 0.35786 0.86397 0.0
H234 H 0.83441 0.31692 0.87147 0.0
H235 H 0.71194 0.22309 0.88426 0.0
O236 O 0.7241 0.54572 0.95481 0.0
C237 C 0.69711 0.35073 0.951 0.0
Co238 Co 0.46633 0.26096 0.07681 0.0
Co239 Co 0.36095 0.27051 0.1219 0.0
C240 C 0.45357 0.36773 0.11596 0.0
O241 O 0.48119 0.33818 0.09664 0.0
O242 O 0.4054 0.34785 0.12733 0.0
C243 C 0.58599 0.26533 0.05391 0.0
O244 O 0.59992 0.28579 0.07958 0.0
C245 C 0.30366 0.28156 0.1787 0.0
C246 C 0.22689 0.21861 0.17437 0.0
C247 C 0.25717 0.25458 0.1941 0.0
N248 N 0.30183 0.26098 0.1515 0.0
N249 N 0.255 0.22442 0.14892 0.0
C250 C 0.34907 0.3265 0.18934 0.0
H251 H 0.35198 0.36492 0.17409 0.0
H252 H 0.39382 0.30473 0.19035 0.0
H253 H 0.33697 0.34483 0.21073 0.0
C254 C 0.48774 0.14762 0.10672 0.0
N255 N 0.45722 0.19928 0.10353 0.0
N256 N 0.41574 0.20347 0.12352 0.0
C257 C 0.42041 0.15483 0.14097 0.0
C258 C 0.46643 0.1181 0.13099 0.0
C259 C 0.53063 0.12413 0.08462 0.0
H260 H 0.51546 0.13748 0.06284 0.0
H261 H 0.57562 0.14438 0.08839 0.0
H262 H 0.53414 0.07407 0.08535 0.0
O263 O 0.39449 0.26756 0.05359 0.0
O264 O 0.31806 0.27578 0.08385 0.0
H265 H 0.33596 0.13316 0.16016 0.0
H266 H 0.40004 0.1063 0.18022 0.0
C267 C 0.38247 0.14406 0.16698 0.0
H268 H 0.38162 0.18558 0.18031 0.0
H269 H 0.24396 0.20111 0.13012 0.0
O270 O 0.53247 0.24806 0.04912 0.0
C271 C 0.33879 0.27358 0.05833 0.0
C272 C 0.52762 0.03855 0.37491 0.0
C273 C 0.54568 0.97759 0.37539 0.0
C274 C 0.46675 0.054 0.37486 0.0
C275 C 0.42212 0.0089 0.37447 0.0
H276 H 0.56071 0.07447 0.37674 0.0
H277 H 0.45475 0.10121 0.37725 0.0
S278 S 0.44577 0.84317 0.37061 0.0
N279 N 0.51407 0.87215 0.37284 0.0
N280 N 0.39973 0.90155 0.37016 0.0
C281 C 0.43966 0.94816 0.37175 0.0
C282 C 0.50154 0.93231 0.37277 0.0
C283 C 0.92561 0.47851 0.63786 0.0
C284 C 0.9695 0.43316 0.63825 0.0
C285 C 0.94204 0.5397 0.63809 0.0
C286 C 0.00279 0.55722 0.63751 0.0
H287 H 0.87869 0.46692 0.63499 0.0
H288 H 0.90709 0.57343 0.6362 0.0
S289 S 0.13412 0.45511 0.64228 0.0
N290 N 0.07534 0.40933 0.64287 0.0
N291 N 0.10673 0.5243 0.63999 0.0
C292 C 0.04687 0.51233 0.64022 0.0
C293 C 0.02996 0.45015 0.64132 0.0
C294 C 0.95861 0.48297 0.85657 0.0
C295 C 0.92669 0.47844 0.88248 0.0
C296 C 0.02005 0.49741 0.85671 0.0
C297 C 0.05026 0.50791 0.88276 0.0
H298 H 0.9359 0.47583 0.83624 0.0
H299 H 0.04414 0.4997 0.83654 0.0
S300 S 0.98636 0.50066 0.95616 0.0
N301 N 0.93016 0.48238 0.93467 0.0
N302 N 0.04376 0.51471 0.93479 0.0
C303 C 0.01837 0.50424 0.90864 0.0
C304 C 0.95696 0.48782 0.90855 0.0
C305 C 0.43726 0.01196 0.14241 0.0
C306 C 0.48237 0.05631 0.14017 0.0
C307 C 0.45185 0.95044 0.14269 0.0
C308 C 0.5117 0.93159 0.13975 0.0
H309 H 0.39034 0.02446 0.1416 0.0
H310 H 0.41575 0.91738 0.14276 0.0
S311 S 0.6464 0.03095 0.13818 0.0
N312 N 0.58928 0.07803 0.14055 0.0
N313 N 0.61667 0.96234 0.13764 0.0
C314 C 0.55741 0.97563 0.14007 0.0
C315 C 0.5426 0.03818 0.1411 0.0
C316 C 0.02854 0.95852 0.38528 0.0
C317 C 0.04439 0.01981 0.38855 0.0
C318 C 0.96816 0.94024 0.38502 0.0
C319 C 0.9218 0.98249 0.38901 0.0
H320 H 0.06311 0.92427 0.38398 0.0
H321 H 0.958 0.89228 0.38366 0.0
S322 S 0.93977 0.1487 0.39699 0.0
N323 N 0.00904 0.12316 0.39397 0.0
N324 N 0.89565 0.08857 0.39462 0.0
C325 C 0.93704 0.04417 0.39108 0.0
C326 C -0.00162 0.06292 0.39055 0.0
C327 C 0.92859 0.00935 0.62168 0.0
C328 C 0.97019 0.05737 0.62073 0.0
C329 C 0.94788 0.94905 0.62126 0.0
C330 C 0.00934 0.935 0.62075 0.0
H331 H 0.88085 0.01832 0.62075 0.0
H332 H 0.91453 0.91324 0.62022 0.0
S333 S 0.13596 0.04464 0.6214 0.0
N334 N 0.07524 0.08725 0.62133 0.0
N335 N 0.11167 0.97385 0.62164 0.0
C336 C 0.05133 0.98264 0.62197 0.0
C337 C 0.03168 0.04395 0.62164 0.0
C338 C 0.53181 0.53446 0.87766 0.0
C339 C 0.54834 0.47308 0.87885 0.0
C340 C 0.47142 0.55141 0.87794 0.0
C341 C 0.42596 0.5074 0.88 0.0
H342 H 0.56579 0.5697 0.87858 0.0
H343 H 0.46069 0.59914 0.87923 0.0
S344 S 0.44529 0.34079 0.87816 0.0
N345 N 0.51436 0.36825 0.87759 0.0
N346 N 0.40061 0.40023 0.8787 0.0
C347 C 0.44166 0.44596 0.87819 0.0
C348 C 0.5031 0.4287 0.87741 0.0
C349 C 0.43314 0.47662 0.1252 0.0
C350 C 0.4748 0.42933 0.12268 0.0
C351 C 0.45215 0.53719 0.12504 0.0
C352 C 0.51343 0.55216 0.12321 0.0
H353 H 0.3854 0.46699 0.12523 0.0
H354 H 0.41858 0.57255 0.12513 0.0
S355 S 0.64046 0.44452 0.11963 0.0
N356 N 0.57999 0.40104 0.12062 0.0
N357 N 0.61589 0.51489 0.12122 0.0
C358 C 0.5557 0.50516 0.12294 0.0
C359 C 0.5363 0.44363 0.12243 0.0
C360 C 0.29665 0.25171 0.24458 0.0
C361 C 0.24732 0.25358 0.22564 0.0
C362 C 0.28851 0.24712 0.27432 0.0
C363 C 0.23083 0.24223 0.2862 0.0
H364 H 0.3421 0.25172 0.23643 0.0
H365 H 0.32776 0.24525 0.28807 0.0
S366 S 0.08684 0.24353 0.2464 0.0
N367 N 0.13856 0.25014 0.22117 0.0
N368 N 0.12359 0.23943 0.2772 0.0
C369 C 0.18111 0.24331 0.26771 0.0
C370 C 0.18929 0.24914 0.2374 0.0
C371 C 0.21955 0.68832 0.76757 0.0
C372 C 0.23864 0.7357 0.78574 0.0
C373 C 0.21468 0.69661 0.73784 0.0
C374 C 0.22681 0.75307 0.72526 0.0
H375 H 0.20752 0.64453 0.77633 0.0
H376 H 0.20054 0.65875 0.72459 0.0
S377 S 0.27275 0.89329 0.76305 0.0
N378 N 0.26681 0.84215 0.78882 0.0
N379 N 0.25515 0.85799 0.73285 0.0
C380 C 0.2433 0.80156 0.74305 0.0
C381 C 0.24946 0.79291 0.77334 0.0
C382 C 0.75837 0.70024 0.27067 0.0
C383 C 0.74977 0.75796 0.28281 0.0
C384 C 0.75388 0.69112 0.24085 0.0
C385 C 0.74095 0.73955 0.22233 0.0
H386 H 0.76841 0.66187 0.28433 0.0
H387 H 0.76034 0.64605 0.23222 0.0
S388 S 0.70636 0.89727 0.24341 0.0
N389 N 0.72093 0.86252 0.27403 0.0
N390 N 0.71545 0.84583 0.21807 0.0
C391 C 0.73125 0.79706 0.23417 0.0
C392 C 0.73484 0.80619 0.26443 0.0
C393 C 0.77992 0.27629 0.77104 0.0
C394 C 0.73503 0.24536 0.78643 0.0
C395 C 0.78752 0.26684 0.7415 0.0
C396 C 0.75051 0.22612 0.72637 0.0
H397 H 0.80972 0.30769 0.78191 0.0
H398 H 0.82191 0.29241 0.73033 0.0
S399 S 0.62649 0.13406 0.75663 0.0
N400 N 0.6534 0.17208 0.78444 0.0
N401 N 0.66733 0.15497 0.7287 0.0
C402 C 0.70554 0.19491 0.74144 0.0
C403 C 0.69817 0.20404 0.77159 0.0
C404 C 0.21778 0.84755 0.53446 0.0
C405 C 0.18142 0.79557 0.53301 0.0
C406 C 0.23465 0.87833 0.50935 0.0
C407 C 0.21599 0.85788 0.48201 0.0
H408 H 0.22801 0.86811 0.55505 0.0
H409 H 0.25859 0.92089 0.51158 0.0
S410 S 0.13255 0.71547 0.46692 0.0
N411 N 0.1364 0.71885 0.50231 0.0
N412 N 0.16864 0.77598 0.45508 0.0
C413 C 0.18626 0.80165 0.48029 0.0
C414 C 0.16881 0.77066 0.50585 0.0
C415 C 0.77068 0.81169 0.5033 0.0
C416 C 0.7928 0.79911 0.47563 0.0
C417 C 0.80104 0.79209 0.52795 0.0
C418 C 0.85513 0.75989 0.52579 0.0
H419 H 0.73223 0.84104 0.50596 0.0
H420 H 0.78463 0.80687 0.54868 0.0
S421 S 0.92492 0.70457 0.45834 0.0
N422 N 0.86639 0.74414 0.44749 0.0
N423 N 0.92377 0.70719 0.4938 0.0
C424 C 0.87388 0.74109 0.49828 0.0
C425 C 0.84254 0.76067 0.47316 0.0
C426 C 0.73388 0.11283 0.51023 0.0
C427 C 0.75317 0.13094 0.48267 0.0
C428 C 0.75296 0.14368 0.53498 0.0
C429 C 0.79236 0.1933 0.53294 0.0
H430 H 0.70745 0.07191 0.51289 0.0
H431 H 0.74161 0.12486 0.55578 0.0
S432 S 0.84521 0.26696 0.46593 0.0
N433 N 0.80527 0.20828 0.45481 0.0
N434 N 0.84157 0.2656 0.50136 0.0
C435 C 0.80614 0.21607 0.5055 0.0
C436 C 0.78639 0.18504 0.48031 0.0
C437 C 0.20143 0.17371 0.50445 0.0
C438 C 0.18102 0.18913 0.47678 0.0
C439 C 0.17126 0.19349 0.52907 0.0
C440 C 0.11899 0.22866 0.52687 0.0
H441 H 0.23825 0.14227 0.50704 0.0
H442 H 0.18619 0.17668 0.54973 0.0
S443 S 0.05415 0.29096 0.45957 0.0
N444 N 0.11109 0.2492 0.44873 0.0
N445 N 0.05403 0.2864 0.49498 0.0
C446 C 0.10209 0.24988 0.49947 0.0
C447 C 0.13329 0.23014 0.47439 0.0
C448 C 0.31747 0.26458 0.00627 0.0
C449 C 0.30123 0.28848 0.03318 0.0
C450 C 0.30088 0.29336 0.98071 0.0
C451 C 0.26782 0.34742 0.98118 0.0
H452 H 0.34772 0.22637 1.00503 0.0
H453 H 0.31859 0.27587 0.96072 0.0
S454 S 0.20212 0.42001 0.04588 0.0
N455 N 0.24132 0.36268 0.05866 0.0
N456 N 0.20939 0.41689 0.01061 0.0
C457 C 0.24473 0.36723 0.00778 0.0
C458 C 0.26155 0.33761 0.03384 0.0
C459 C 0.34178 0.71433 0.97795 0.0
C460 C 0.29587 0.67057 0.97843 0.0
C461 C 0.36993 0.73307 1.0035 0.0
C462 C 0.35286 0.70894 0.03039 0.0
H463 H 0.3596 0.73025 0.95765 0.0
H464 H 0.40798 0.76359 1.00189 0.0
S465 S 0.22569 0.60301 0.04321 0.0
N466 N 0.22802 0.61093 0.00796 0.0
N467 N 0.27996 0.64658 0.05595 0.0
C468 C 0.30241 0.67034 0.03124 0.0
C469 C 0.27423 0.65096 1.00524 0.0
C470 C 0.65518 0.7191 1.00495 0.0
C471 C 0.67476 0.69575 0.03148 0.0
C472 C 0.67095 0.69142 0.97902 0.0
C473 C 0.70648 0.63898 0.97871 0.0
H474 H 0.62333 0.75604 1.00435 0.0
H475 H 0.65092 0.70836 0.9594 0.0
S476 S 0.78034 0.56852 0.04201 0.0
N477 N 0.73977 0.62389 0.05565 0.0
N478 N 0.77009 0.57174 0.0069 0.0
C479 C 0.73242 0.61981 1.00485 0.0
C480 C 0.71645 0.64833 0.03129 0.0
C481 C 0.63996 0.27006 0.97686 0.0
C482 C 0.68242 0.31726 0.97759 0.0
C483 C 0.61226 0.24975 1.00217 0.0
C484 C 0.62656 0.2755 0.02908 0.0
H485 H 0.62436 0.25221 0.95647 0.0
H486 H 0.5767 0.21632 1.00037 0.0
S487 S 0.74405 0.39188 0.04275 0.0
N488 N 0.74404 0.38292 0.00754 0.0
N489 N 0.69289 0.3443 0.05512 0.0
C490 C 0.67367 0.31812 0.03029 0.0
C491 C 0.7013 0.3392 1.00451 0.0
loop_
_geom_bond_atom_site_label_1
_geom_bond_atom_site_label_2
_geom_bond_distance
_geom_bond_site_symmetry_2
_ccdc_geom_bond_type
Co0 O3 1.970 . S
Co0 N17 1.989 . S
Co0 O25 1.967 . S
Co0 O32 1.920 . S
Co1 O4 1.966 . S
Co1 N10 2.022 . S
Co1 N18 1.993 . S
Co1 O26 1.941 . S
C2 O3 1.258 . S
C2 O4 1.263 . S
O3 Co0 1.970 . S
O3 C2 1.258 . S
O4 Co1 1.966 . S
O4 C2 1.263 . S
C5 O6 1.235 . S
C5 O32 1.289 1_565 S
O6 C5 1.235 . S
C7 C9 1.400 . S
C7 N10 1.351 . S
C7 C12 1.501 . S
C8 C9 1.387 . S
C8 N11 1.341 . S
C9 C7 1.400 . S
C9 C8 1.387 . S
N10 Co1 2.022 . S
N10 C7 1.351 . S
N10 N11 1.365 . S
N11 C8 1.341 . S
N11 N10 1.365 . S
N11 H31 0.862 . S
C12 C7 1.501 . S
C12 H13 0.961 . S
C12 H14 0.961 . S
C12 H15 0.960 . S
H13 C12 0.961 . S
H14 C12 0.961 . S
H15 C12 0.960 . S
C16 N17 1.342 . S
C16 C20 1.401 . S
C16 C21 1.493 1_545 S
N17 Co0 1.989 . S
N17 C16 1.342 . S
N17 N18 1.388 . S
N18 Co1 1.993 . S
N18 N17 1.388 . S
N18 C19 1.346 . S
C19 N18 1.346 . S
C19 C20 1.396 . S
C19 C29 1.510 . S
C20 C16 1.401 . S
C20 C19 1.396 . S
C21 C16 1.493 1_565 S
C21 H22 0.960 . S
C21 H23 0.970 . S
C21 H24 0.955 1_565 S
H22 C21 0.960 . S
H23 C21 0.970 . S
H24 C21 0.955 1_545 S
O25 Co0 1.967 . S
O25 C33 1.258 . S
O26 Co1 1.941 . S
O26 C33 1.266 . S
H27 C29 0.959 . S
H28 C29 0.961 . S
C29 C19 1.510 . S
C29 H27 0.959 . S
C29 H28 0.961 . S
C29 H30 0.960 . S
H30 C29 0.960 . S
H31 N11 0.862 . S
O32 Co0 1.920 . S
O32 C5 1.289 1_545 S
C33 O25 1.258 . S
C33 O26 1.266 . S
Co34 O37 1.970 . S
Co34 N51 1.989 . S
Co34 O59 1.967 . S
Co34 O66 1.920 . S
Co35 O38 1.966 . S
Co35 N44 2.022 . S
Co35 N52 1.993 . S
Co35 O60 1.941 . S
C36 O37 1.258 . S
C36 O38 1.263 . S
O37 Co34 1.970 . S
O37 C36 1.258 . S
O38 Co35 1.966 . S
O38 C36 1.263 . S
C39 O40 1.235 . S
C39 O66 1.289 1_655 S
O40 C39 1.235 . S
C41 C43 1.400 . S
C41 N44 1.351 . S
C41 C46 1.501 . S
C42 C43 1.387 . S
C42 N45 1.341 . S
C43 C41 1.400 . S
C43 C42 1.387 . S
N44 Co35 2.022 . S
N44 C41 1.351 . S
N44 N45 1.365 . S
N45 C42 1.341 . S
N45 N44 1.365 . S
N45 H65 0.862 . S
C46 C41 1.501 . S
C46 H47 0.961 . S
C46 H48 0.961 . S
C46 H49 0.960 . S
H47 C46 0.961 . S
H48 C46 0.961 . S
H49 C46 0.960 . S
C50 N51 1.342 . S
C50 C54 1.401 . S
C50 C55 1.493 1_455 S
N51 Co34 1.989 . S
N51 C50 1.342 . S
N51 N52 1.388 . S
N52 Co35 1.993 . S
N52 N51 1.388 . S
N52 C53 1.346 . S
C53 N52 1.346 . S
C53 C54 1.396 . S
C53 C63 1.510 . S
C54 C50 1.401 . S
C54 C53 1.396 . S
C55 C50 1.493 1_655 S
C55 H56 0.960 . S
C55 H57 0.970 . S
C55 H58 0.955 1_655 S
H56 C55 0.960 . S
H57 C55 0.970 . S
H58 C55 0.955 1_455 S
O59 Co34 1.967 . S
O59 C67 1.258 . S
O60 Co35 1.941 . S
O60 C67 1.266 . S
H61 C63 0.959 . S
H62 C63 0.961 . S
C63 C53 1.510 . S
C63 H61 0.959 . S
C63 H62 0.961 . S
C63 H64 0.960 . S
H64 C63 0.960 . S
H65 N45 0.862 . S
O66 Co34 1.920 . S
O66 C39 1.289 1_455 S
C67 O59 1.258 . S
C67 O60 1.266 . S
Co68 O71 1.970 . S
Co68 N85 1.989 . S
Co68 O93 1.967 . S
Co68 O100 1.920 . S
Co69 O72 1.966 . S
Co69 N78 2.022 . S
Co69 N86 1.993 . S
Co69 O94 1.941 . S
C70 O71 1.258 . S
C70 O72 1.263 . S
O71 Co68 1.970 . S
O71 C70 1.258 . S
O72 Co69 1.966 . S
O72 C70 1.263 . S
C73 O74 1.235 . S
C73 O100 1.289 1_545 S
O74 C73 1.235 . S
C75 C77 1.400 . S
C75 N78 1.351 . S
C75 C80 1.501 . S
C76 C77 1.387 . S
C76 N79 1.341 . S
C77 C75 1.400 . S
C77 C76 1.387 . S
N78 Co69 2.022 . S
N78 C75 1.351 . S
N78 N79 1.365 . S
N79 C76 1.341 . S
N79 N78 1.365 . S
N79 H99 0.862 . S
C80 C75 1.501 . S
C80 H81 0.961 . S
C80 H82 0.961 . S
C80 H83 0.960 . S
H81 C80 0.961 . S
H82 C80 0.961 . S
H83 C80 0.960 . S
C84 N85 1.342 . S
C84 C88 1.401 . S
C84 C89 1.493 1_565 S
N85 Co68 1.989 . S
N85 C84 1.342 . S
N85 N86 1.388 . S
N86 Co69 1.993 . S
N86 N85 1.388 . S
N86 C87 1.346 . S
C87 N86 1.346 . S
C87 C88 1.396 . S
C87 C97 1.510 . S
C88 C84 1.401 . S
C88 C87 1.396 . S
C89 C84 1.493 1_545 S
C89 H90 0.960 . S
C89 H91 0.970 . S
C89 H92 0.955 1_545 S
H90 C89 0.960 . S
H91 C89 0.970 . S
H92 C89 0.955 1_565 S
O93 Co68 1.967 . S
O93 C101 1.258 . S
O94 Co69 1.941 . S
O94 C101 1.266 . S
H95 C97 0.959 . S
H96 C97 0.961 . S
C97 C87 1.510 . S
C97 H95 0.959 . S
C97 H96 0.961 . S
C97 H98 0.960 . S
H98 C97 0.960 . S
H99 N79 0.862 . S
O100 Co68 1.920 . S
O100 C73 1.289 1_565 S
C101 O93 1.258 . S
C101 O94 1.266 . S
Co102 O105 1.970 . S
Co102 N119 1.989 . S
Co102 O127 1.967 . S
Co102 O134 1.920 . S
Co103 O106 1.966 . S
Co103 N112 2.022 . S
Co103 N120 1.993 . S
Co103 O128 1.941 . S
C104 O105 1.258 . S
C104 O106 1.263 . S
O105 Co102 1.970 . S
O105 C104 1.258 . S
O106 Co103 1.966 . S
O106 C104 1.263 . S
C107 O108 1.235 . S
C107 O134 1.289 1_455 S
O108 C107 1.235 . S
C109 C111 1.400 . S
C109 N112 1.351 . S
C109 C114 1.501 . S
C110 C111 1.387 . S
C110 N113 1.341 . S
C111 C109 1.400 . S
C111 C110 1.387 . S
N112 Co103 2.022 . S
N112 C109 1.351 . S
N112 N113 1.365 . S
N113 C110 1.341 . S
N113 N112 1.365 . S
N113 H133 0.862 . S
C114 C109 1.501 . S
C114 H115 0.961 . S
C114 H116 0.961 . S
C114 H117 0.960 . S
H115 C114 0.961 . S
H116 C114 0.961 . S
H117 C114 0.960 . S
C118 N119 1.342 . S
C118 C122 1.401 . S
C118 C123 1.493 1_655 S
N119 Co102 1.989 . S
N119 C118 1.342 . S
N119 N120 1.388 . S
N120 Co103 1.993 . S
N120 N119 1.388 . S
N120 C121 1.346 . S
C121 N120 1.346 . S
C121 C122 1.396 . S
C121 C131 1.510 . S
C122 C118 1.401 . S
C122 C121 1.396 . S
C123 C118 1.493 1_455 S
C123 H124 0.960 . S
C123 H125 0.970 . S
C123 H126 0.955 1_455 S
H124 C123 0.960 . S
H125 C123 0.970 . S
H126 C123 0.955 1_655 S
O127 Co102 1.967 . S
O127 C135 1.258 . S
O128 Co103 1.941 . S
O128 C135 1.266 . S
H129 C131 0.959 . S
H130 C131 0.961 . S
C131 C121 1.510 . S
C131 H129 0.959 . S
C131 H130 0.961 . S
C131 H132 0.960 . S
H132 C131 0.960 . S
H133 N113 0.862 . S
O134 Co102 1.920 . S
O134 C107 1.289 1_655 S
C135 O127 1.258 . S
C135 O128 1.266 . S
Co136 O139 1.970 . S
Co136 N153 1.989 . S
Co136 O161 1.967 . S
Co136 O168 1.920 . S
Co137 O140 1.966 . S
Co137 N146 2.022 . S
Co137 N154 1.993 . S
Co137 O162 1.941 . S
C138 O139 1.258 . S
C138 O140 1.263 . S
O139 Co136 1.970 . S
O139 C138 1.258 . S
O140 Co137 1.966 . S
O140 C138 1.263 . S
C141 O142 1.235 . S
C141 O168 1.289 . S
O142 C141 1.235 . S
C143 C145 1.400 . S
C143 N146 1.351 . S
C143 C148 1.501 . S
C144 C145 1.387 . S
C144 N147 1.341 . S
C145 C143 1.400 . S
C145 C144 1.387 . S
N146 Co137 2.022 . S
N146 C143 1.351 . S
N146 N147 1.365 . S
N147 C144 1.341 . S
N147 N146 1.365 . S
N147 H167 0.862 . S
C148 C143 1.501 . S
C148 H149 0.961 . S
C148 H150 0.961 . S
C148 H151 0.960 . S
H149 C148 0.961 . S
H150 C148 0.961 . S
H151 C148 0.960 . S
C152 N153 1.342 . S
C152 C156 1.401 . S
C152 C157 1.499 . S
N153 Co136 1.989 . S
N153 C152 1.342 . S
N153 N154 1.388 . S
N154 Co137 1.993 . S
N154 N153 1.388 . S
N154 C155 1.346 . S
C155 N154 1.346 . S
C155 C156 1.396 . S
C155 C165 1.510 . S
C156 C152 1.401 . S
C156 C155 1.396 . S
C157 C152 1.499 . S
C157 H158 0.959 . S
C157 H159 0.960 . S
C157 H160 0.961 . S
H158 C157 0.959 . S
H159 C157 0.960 . S
H160 C157 0.961 . S
O161 Co136 1.967 . S
O161 C169 1.258 . S
O162 Co137 1.941 . S
O162 C169 1.266 . S
H163 C165 0.959 . S
H164 C165 0.961 . S
C165 C155 1.510 . S
C165 H163 0.959 . S
C165 H164 0.961 . S
C165 H166 0.960 . S
H166 C165 0.960 . S
H167 N147 0.862 . S
O168 Co136 1.920 . S
O168 C141 1.289 . S
C169 O161 1.258 . S
C169 O162 1.266 . S
Co170 O173 1.970 . S
Co170 N187 1.989 . S
Co170 O195 1.967 . S
Co170 O202 1.920 . S
Co171 O174 1.966 . S
Co171 N180 2.022 . S
Co171 N188 1.993 . S
Co171 O196 1.941 . S
C172 O173 1.258 . S
C172 O174 1.263 . S
O173 Co170 1.970 . S
O173 C172 1.258 . S
O174 Co171 1.966 . S
O174 C172 1.263 . S
C175 O176 1.235 . S
C175 O202 1.289 . S
O176 C175 1.235 . S
C177 C179 1.400 . S
C177 N180 1.351 . S
C177 C182 1.501 . S
C178 C179 1.387 . S
C178 N181 1.341 . S
C179 C177 1.400 . S
C179 C178 1.387 . S
N180 Co171 2.022 . S
N180 C177 1.351 . S
N180 N181 1.365 . S
N181 C178 1.341 . S
N181 N180 1.365 . S
N181 H201 0.862 . S
C182 C177 1.501 . S
C182 H183 0.961 . S
C182 H184 0.961 . S
C182 H185 0.960 . S
H183 C182 0.961 . S
H184 C182 0.961 . S
H185 C182 0.960 . S
C186 N187 1.342 . S
C186 C190 1.401 . S
C186 C191 1.499 . S
N187 Co170 1.989 . S
N187 C186 1.342 . S
N187 N188 1.388 . S
N188 Co171 1.993 . S
N188 N187 1.388 . S
N188 C189 1.346 . S
C189 N188 1.346 . S
C189 C190 1.396 . S
C189 C199 1.510 . S
C190 C186 1.401 . S
C190 C189 1.396 . S
C191 C186 1.499 . S
C191 H192 0.959 . S
C191 H193 0.960 . S
C191 H194 0.961 . S
H192 C191 0.959 . S
H193 C191 0.960 . S
H194 C191 0.961 . S
O195 Co170 1.967 . S
O195 C203 1.258 . S
O196 Co171 1.941 . S
O196 C203 1.266 . S
H197 C199 0.959 . S
H198 C199 0.961 . S
C199 C189 1.510 . S
C199 H197 0.959 . S
C199 H198 0.961 . S
C199 H200 0.960 . S
H200 C199 0.960 . S
H201 N181 0.862 . S
O202 Co170 1.920 . S
O202 C175 1.289 . S
C203 O195 1.258 . S
C203 O196 1.266 . S
Co204 O207 1.970 . S
Co204 N221 1.989 . S
Co204 O229 1.967 . S
Co204 O236 1.920 . S
Co205 O208 1.966 . S
Co205 N214 2.022 . S
Co205 N222 1.993 . S
Co205 O230 1.941 . S
C206 O207 1.258 . S
C206 O208 1.263 . S
O207 Co204 1.970 . S
O207 C206 1.258 . S
O208 Co205 1.966 . S
O208 C206 1.263 . S
C209 O210 1.235 . S
C209 O236 1.289 . S
O210 C209 1.235 . S
C211 C213 1.400 . S
C211 N214 1.351 . S
C211 C216 1.501 . S
C212 C213 1.387 . S
C212 N215 1.341 . S
C213 C211 1.400 . S
C213 C212 1.387 . S
N214 Co205 2.022 . S
N214 C211 1.351 . S
N214 N215 1.365 . S
N215 C212 1.341 . S
N215 N214 1.365 . S
N215 H235 0.862 . S
C216 C211 1.501 . S
C216 H217 0.961 . S
C216 H218 0.961 . S
C216 H219 0.960 . S
H217 C216 0.961 . S
H218 C216 0.961 . S
H219 C216 0.960 . S
C220 N221 1.342 . S
C220 C224 1.401 . S
C220 C225 1.499 . S
N221 Co204 1.989 . S
N221 C220 1.342 . S
N221 N222 1.388 . S
N222 Co205 1.993 . S
N222 N221 1.388 . S
N222 C223 1.346 . S
C223 N222 1.346 . S
C223 C224 1.396 . S
C223 C233 1.510 . S
C224 C220 1.401 . S
C224 C223 1.396 . S
C225 C220 1.499 . S
C225 H226 0.959 . S
C225 H227 0.960 . S
C225 H228 0.961 . S
H226 C225 0.959 . S
H227 C225 0.960 . S
H228 C225 0.961 . S
O229 Co204 1.967 . S
O229 C237 1.258 . S
O230 Co205 1.941 . S
O230 C237 1.266 . S
H231 C233 0.959 . S
H232 C233 0.961 . S
C233 C223 1.510 . S
C233 H231 0.959 . S
C233 H232 0.961 . S
C233 H234 0.960 . S
H234 C233 0.960 . S
H235 N215 0.862 . S
O236 Co204 1.920 . S
O236 C209 1.289 . S
C237 O229 1.258 . S
C237 O230 1.266 . S
Co238 O241 1.970 . S
Co238 N255 1.989 . S
Co238 O263 1.967 . S
Co238 O270 1.920 . S
Co239 O242 1.966 . S
Co239 N248 2.022 . S
Co239 N256 1.993 . S
Co239 O264 1.941 . S
C240 O241 1.258 . S
C240 O242 1.263 . S
O241 Co238 1.970 . S
O241 C240 1.258 . S
O242 Co239 1.966 . S
O242 C240 1.263 . S
C243 O244 1.235 . S
C243 O270 1.289 . S
O244 C243 1.235 . S
C245 C247 1.400 . S
C245 N248 1.351 . S
C245 C250 1.501 . S
C246 C247 1.387 . S
C246 N249 1.341 . S
C247 C245 1.400 . S
C247 C246 1.387 . S
N248 Co239 2.022 . S
N248 C245 1.351 . S
N248 N249 1.365 . S
N249 C246 1.341 . S
N249 N248 1.365 . S
N249 H269 0.862 . S
C250 C245 1.501 . S
C250 H251 0.961 . S
C250 H252 0.961 . S
C250 H253 0.960 . S
H251 C250 0.961 . S
H252 C250 0.961 . S
H253 C250 0.960 . S
C254 N255 1.342 . S
C254 C258 1.401 . S
C254 C259 1.499 . S
N255 Co238 1.989 . S
N255 C254 1.342 . S
N255 N256 1.388 . S
N256 Co239 1.993 . S
N256 N255 1.388 . S
N256 C257 1.346 . S
C257 N256 1.346 . S
C257 C258 1.396 . S
C257 C267 1.510 . S
C258 C254 1.401 . S
C258 C257 1.396 . S
C259 C254 1.499 . S
C259 H260 0.959 . S
C259 H261 0.960 . S
C259 H262 0.961 . S
H260 C259 0.959 . S
H261 C259 0.960 . S
H262 C259 0.961 . S
O263 Co238 1.967 . S
O263 C271 1.258 . S
O264 Co239 1.941 . S
O264 C271 1.266 . S
H265 C267 0.959 . S
H266 C267 0.961 . S
C267 C257 1.510 . S
C267 H265 0.959 . S
C267 H266 0.961 . S
C267 H268 0.960 . S
H268 C267 0.960 . S
H269 N249 0.862 . S
O270 Co238 1.920 . S
O270 C243 1.289 . S
C271 O263 1.258 . S
C271 O264 1.266 . S
C272 C273 1.369 1_545 S
C272 C274 1.419 . S
C272 H276 0.930 . S
C273 C272 1.369 1_565 S
C273 C282 1.429 . S
C274 C272 1.419 . S
C274 C275 1.363 . S
C274 H277 0.929 . S
C275 C274 1.363 . S
C275 C281 1.428 1_545 S
H276 C272 0.930 . S
H277 C274 0.929 . S
S278 N279 1.613 . S
S278 N280 1.610 . S
N279 S278 1.613 . S
N279 C282 1.350 . S
N280 S278 1.610 . S
N280 C281 1.351 . S
C281 C275 1.428 1_565 S
C281 N280 1.351 . S
C281 C282 1.434 . S
C282 C273 1.429 . S
C282 N279 1.350 . S
C282 C281 1.434 . S
C283 C284 1.369 . S
C283 C285 1.419 . S
C283 H287 0.930 . S
C284 C283 1.369 . S
C284 C293 1.429 1_655 S
C285 C283 1.419 . S
C285 C286 1.363 1_655 S
C285 H288 0.929 . S
C286 C285 1.363 1_455 S
C286 C292 1.428 . S
H287 C283 0.930 . S
H288 C285 0.929 . S
S289 N290 1.613 . S
S289 N291 1.610 . S
N290 S289 1.613 . S
N290 C293 1.350 . S
N291 S289 1.610 . S
N291 C292 1.351 . S
C292 C286 1.428 . S
C292 N291 1.351 . S
C292 C293 1.434 . S
C293 C284 1.429 1_455 S
C293 N290 1.350 . S
C293 C292 1.434 . S
C294 C295 1.369 . S
C294 C296 1.419 1_655 S
C294 H298 0.930 . S
C295 C294 1.369 . S
C295 C304 1.429 . S
C296 C294 1.419 1_455 S
C296 C297 1.363 . S
C296 H299 0.929 . S
C297 C296 1.363 . S
C297 C303 1.428 . S
H298 C294 0.930 . S
H299 C296 0.929 . S
S300 N301 1.613 1_455 S
S300 N302 1.610 . S
N301 S300 1.613 1_655 S
N301 C304 1.350 . S
N302 S300 1.610 . S
N302 C303 1.351 . S
C303 C297 1.428 . S
C303 N302 1.351 . S
C303 C304 1.434 1_455 S
C304 C295 1.429 . S
C304 N301 1.350 . S
C304 C303 1.434 1_655 S
C305 C306 1.369 1_565 S
C305 C307 1.419 . S
C305 H309 0.930 . S
C306 C305 1.369 1_545 S
C306 C315 1.429 . S
C307 C305 1.419 . S
C307 C308 1.363 . S
C307 H310 0.929 . S
C308 C307 1.363 . S
C308 C314 1.428 1_565 S
H309 C305 0.930 . S
H310 C307 0.929 . S
S311 N312 1.613 . S
S311 N313 1.610 . S
N312 S311 1.613 . S
N312 C315 1.350 . S
N313 S311 1.610 . S
N313 C314 1.351 . S
C314 C308 1.428 1_545 S
C314 N313 1.351 . S
C314 C315 1.434 . S
C315 C306 1.429 . S
C315 N312 1.350 . S
C315 C314 1.434 . S
C316 C317 1.369 1_565 S
C316 C318 1.419 1_455 S
C316 H320 0.930 . S
C317 C316 1.369 1_545 S
C317 C326 1.429 . S
C318 C316 1.419 1_655 S
C318 C319 1.363 . S
C318 H321 0.929 . S
C319 C318 1.363 . S
C319 C325 1.428 1_565 S
H320 C316 0.930 . S
H321 C318 0.929 . S
S322 N323 1.613 1_655 S
S322 N324 1.610 . S
N323 S322 1.613 1_455 S
N323 C326 1.350 . S
N324 S322 1.610 . S
N324 C325 1.351 . S
C325 C319 1.428 1_545 S
C325 N324 1.351 . S
C325 C326 1.434 1_655 S
C326 C317 1.429 . S
C326 N323 1.350 . S
C326 C325 1.434 1_455 S
C327 C328 1.369 . S
C327 C329 1.419 1_545 S
C327 H331 0.930 . S
C328 C327 1.369 . S
C328 C337 1.429 1_655 S
C329 C327 1.419 1_565 S
C329 C330 1.363 1_655 S
C329 H332 0.929 . S
C330 C329 1.363 1_455 S
C330 C336 1.428 . S
H331 C327 0.930 . S
H332 C329 0.929 . S
S333 N334 1.613 . S
S333 N335 1.610 1_545 S
N334 S333 1.613 . S
N334 C337 1.350 . S
N335 S333 1.610 1_565 S
N335 C336 1.351 . S
C336 C330 1.428 . S
C336 N335 1.351 . S
C336 C337 1.434 1_565 S
C337 C328 1.429 1_455 S
C337 N334 1.350 . S
C337 C336 1.434 1_545 S
C338 C339 1.369 . S
C338 C340 1.419 . S
C338 H342 0.930 . S
C339 C338 1.369 . S
C339 C348 1.429 . S
C340 C338 1.419 . S
C340 C341 1.363 . S
C340 H343 0.929 . S
C341 C340 1.363 . S
C341 C347 1.428 . S
H342 C338 0.930 . S
H343 C340 0.929 . S
S344 N345 1.613 . S
S344 N346 1.610 . S
N345 S344 1.613 . S
N345 C348 1.350 . S
N346 S344 1.610 . S
N346 C347 1.351 . S
C347 C341 1.428 . S
C347 N346 1.351 . S
C347 C348 1.434 . S
C348 C339 1.429 . S
C348 N345 1.350 . S
C348 C347 1.434 . S
C349 C350 1.369 . S
C349 C351 1.419 . S
C349 H353 0.930 . S
C350 C349 1.369 . S
C350 C359 1.429 . S
C351 C349 1.419 . S
C351 C352 1.363 . S
C351 H354 0.929 . S
C352 C351 1.363 . S
C352 C358 1.428 . S
H353 C349 0.930 . S
H354 C351 0.929 . S
S355 N356 1.613 . S
S355 N357 1.610 . S
N356 S355 1.613 . S
N356 C359 1.350 . S
N357 S355 1.610 . S
N357 C358 1.351 . S
C358 C352 1.428 . S
C358 N357 1.351 . S
C358 C359 1.434 . S
C359 C350 1.429 . S
C359 N356 1.350 . S
C359 C358 1.434 . S
C360 C361 1.369 . S
C360 C362 1.419 . S
C360 H364 0.930 . S
C361 C360 1.369 . S
C361 C370 1.429 . S
C362 C360 1.419 . S
C362 C363 1.363 . S
C362 H365 0.929 . S
C363 C362 1.363 . S
C363 C369 1.428 . S
H364 C360 0.930 . S
H365 C362 0.929 . S
S366 N367 1.613 . S
S366 N368 1.610 . S
N367 S366 1.613 . S
N367 C370 1.350 . S
N368 S366 1.610 . S
N368 C369 1.351 . S
C369 C363 1.428 . S
C369 N368 1.351 . S
C369 C370 1.434 . S
C370 C361 1.429 . S
C370 N367 1.350 . S
C370 C369 1.434 . S
C371 C372 1.369 . S
C371 C373 1.419 . S
C371 H375 0.930 . S
C372 C371 1.369 . S
C372 C381 1.429 . S
C373 C371 1.419 . S
C373 C374 1.363 . S
C373 H376 0.929 . S
C374 C373 1.363 . S
C374 C380 1.428 . S
H375 C371 0.930 . S
H376 C373 0.929 . S
S377 N378 1.613 . S
S377 N379 1.610 . S
N378 S377 1.613 . S
N378 C381 1.350 . S
N379 S377 1.610 . S
N379 C380 1.351 . S
C380 C374 1.428 . S
C380 N379 1.351 . S
C380 C381 1.434 . S
C381 C372 1.429 . S
C381 N378 1.350 . S
C381 C380 1.434 . S
C382 C383 1.369 . S
C382 C384 1.419 . S
C382 H386 0.930 . S
C383 C382 1.369 . S
C383 C392 1.429 . S
C384 C382 1.419 . S
C384 C385 1.363 . S
C384 H387 0.929 . S
C385 C384 1.363 . S
C385 C391 1.428 . S
H386 C382 0.930 . S
H387 C384 0.929 . S
S388 N389 1.613 . S
S388 N390 1.610 . S
N389 S388 1.613 . S
N389 C392 1.350 . S
N390 S388 1.610 . S
N390 C391 1.351 . S
C391 C385 1.428 . S
C391 N390 1.351 . S
C391 C392 1.434 . S
C392 C383 1.429 . S
C392 N389 1.350 . S
C392 C391 1.434 . S
C393 C394 1.369 . S
C393 C395 1.419 . S
C393 H397 0.930 . S
C394 C393 1.369 . S
C394 C403 1.429 . S
C395 C393 1.419 . S
C395 C396 1.363 . S
C395 H398 0.929 . S
C396 C395 1.363 . S
C396 C402 1.428 . S
H397 C393 0.930 . S
H398 C395 0.929 . S
S399 N400 1.613 . S
S399 N401 1.610 . S
N400 S399 1.613 . S
N400 C403 1.350 . S
N401 S399 1.610 . S
N401 C402 1.351 . S
C402 C396 1.428 . S
C402 N401 1.351 . S
C402 C403 1.434 . S
C403 C394 1.429 . S
C403 N400 1.350 . S
C403 C402 1.434 . S
C404 C405 1.369 . S
C404 C406 1.419 . S
C404 H408 0.930 . S
C405 C404 1.369 . S
C405 C414 1.429 . S
C406 C404 1.419 . S
C406 C407 1.363 . S
C406 H409 0.929 . S
C407 C406 1.363 . S
C407 C413 1.428 . S
H408 C404 0.930 . S
H409 C406 0.929 . S
S410 N411 1.613 . S
S410 N412 1.610 . S
N411 S410 1.613 . S
N411 C414 1.350 . S
N412 S410 1.610 . S
N412 C413 1.351 . S
C413 C407 1.428 . S
C413 N412 1.351 . S
C413 C414 1.434 . S
C414 C405 1.429 . S
C414 N411 1.350 . S
C414 C413 1.434 . S
C415 C416 1.369 . S
C415 C417 1.419 . S
C415 H419 0.930 . S
C416 C415 1.369 . S
C416 C425 1.429 . S
C417 C415 1.419 . S
C417 C418 1.363 . S
C417 H420 0.929 . S
C418 C417 1.363 . S
C418 C424 1.428 . S
H419 C415 0.930 . S
H420 C417 0.929 . S
S421 N422 1.613 . S
S421 N423 1.610 . S
N422 S421 1.613 . S
N422 C425 1.350 . S
N423 S421 1.610 . S
N423 C424 1.351 . S
C424 C418 1.428 . S
C424 N423 1.351 . S
C424 C425 1.434 . S
C425 C416 1.429 . S
C425 N422 1.350 . S
C425 C424 1.434 . S
C426 C427 1.369 . S
C426 C428 1.419 . S
C426 H430 0.930 . S
C427 C426 1.369 . S
C427 C436 1.429 . S
C428 C426 1.419 . S
C428 C429 1.363 . S
C428 H431 0.929 . S
C429 C428 1.363 . S
C429 C435 1.428 . S
H430 C426 0.930 . S
H431 C428 0.929 . S
S432 N433 1.613 . S
S432 N434 1.610 . S
N433 S432 1.613 . S
N433 C436 1.350 . S
N434 S432 1.610 . S
N434 C435 1.351 . S
C435 C429 1.428 . S
C435 N434 1.351 . S
C435 C436 1.434 . S
C436 C427 1.429 . S
C436 N433 1.350 . S
C436 C435 1.434 . S
C437 C438 1.369 . S
C437 C439 1.419 . S
C437 H441 0.930 . S
C438 C437 1.369 . S
C438 C447 1.429 . S
C439 C437 1.419 . S
C439 C440 1.363 . S
C439 H442 0.929 . S
C440 C439 1.363 . S
C440 C446 1.428 . S
H441 C437 0.930 . S
H442 C439 0.929 . S
S443 N444 1.613 . S
S443 N445 1.610 . S
N444 S443 1.613 . S
N444 C447 1.350 . S
N445 S443 1.610 . S
N445 C446 1.351 . S
C446 C440 1.428 . S
C446 N445 1.351 . S
C446 C447 1.434 . S
C447 C438 1.429 . S
C447 N444 1.350 . S
C447 C446 1.434 . S
C448 C449 1.369 . S
C448 C450 1.419 . S
C448 H452 0.930 . S
C449 C448 1.369 . S
C449 C458 1.429 . S
C450 C448 1.419 . S
C450 C451 1.363 1_554 S
C450 H453 0.929 1_554 S
C451 C450 1.363 1_556 S
C451 C457 1.428 1_556 S
H452 C448 0.930 . S
H453 C450 0.929 1_556 S
S454 N455 1.613 . S
S454 N456 1.610 . S
N455 S454 1.613 . S
N455 C458 1.350 . S
N456 S454 1.610 . S
N456 C457 1.351 . S
C457 C451 1.428 1_554 S
C457 N456 1.351 . S
C457 C458 1.434 . S
C458 C449 1.429 . S
C458 N455 1.350 . S
C458 C457 1.434 . S
C459 C460 1.369 . S
C459 C461 1.419 . S
C459 H463 0.930 . S
C460 C459 1.369 . S
C460 C469 1.429 . S
C461 C459 1.419 . S
C461 C462 1.363 1_556 S
C461 H464 0.929 . S
C462 C461 1.363 1_554 S
C462 C468 1.428 . S
H463 C459 0.930 . S
H464 C461 0.929 . S
S465 N466 1.613 1_554 S
S465 N467 1.610 . S
N466 S465 1.613 1_556 S
N466 C469 1.350 . S
N467 S465 1.610 . S
N467 C468 1.351 . S
C468 C462 1.428 . S
C468 N467 1.351 . S
C468 C469 1.434 1_554 S
C469 C460 1.429 . S
C469 N466 1.350 . S
C469 C468 1.434 1_556 S
C470 C471 1.369 . S
C470 C472 1.419 1_554 S
C470 H474 0.930 . S
C471 C470 1.369 . S
C471 C480 1.429 . S
C472 C470 1.419 1_556 S
C472 C473 1.363 . S
C472 H475 0.929 . S
C473 C472 1.363 . S
C473 C479 1.428 1_556 S
H474 C470 0.930 . S
H475 C472 0.929 . S
S476 N477 1.613 . S
S476 N478 1.610 . S
N477 S476 1.613 . S
N477 C480 1.350 . S
N478 S476 1.610 . S
N478 C479 1.351 . S
C479 C473 1.428 1_554 S
C479 N478 1.351 . S
C479 C480 1.434 . S
C480 C471 1.429 . S
C480 N477 1.350 . S
C480 C479 1.434 . S
C481 C482 1.369 . S
C481 C483 1.419 . S
C481 H485 0.930 . S
C482 C481 1.369 . S
C482 C491 1.429 . S
C483 C481 1.419 . S
C483 C484 1.363 1_556 S
C483 H486 0.929 . S
C484 C483 1.363 1_554 S
C484 C490 1.428 . S
H485 C481 0.930 . S
H486 C483 0.929 . S
S487 N488 1.613 1_554 S
S487 N489 1.610 . S
N488 S487 1.613 1_556 S
N488 C491 1.350 . S
N489 S487 1.610 . S
N489 C490 1.351 . S
C490 C484 1.428 . S
C490 N489 1.351 . S
C490 C491 1.434 1_554 S
C491 C482 1.429 . S
C491 N488 1.350 . S
C491 C490 1.434 1_556 S
C273 C88 1.289 . S
C275 C20 1.281 . S
C284 C122 1.280 . S
C286 C54 1.288 . S
C295 C224 1.283 . S
C297 C156 1.285 . S
C306 C258 1.280 . S
C308 C190 1.288 . S
C317 C2 1.503 . S
C319 C70 1.504 . S
C328 C104 1.503 . S
C330 C36 1.505 . S
C339 C206 1.510 . S
C341 C138 1.508 . S
C350 C240 1.503 . S
C352 C172 1.504 . S
C361 C247 1.543 . S
C363 C9 1.543 . S
C372 C145 1.542 . S
C374 C43 1.544 . S
C383 C77 1.545 . S
C385 C179 1.543 . S
C394 C213 1.542 . S
C396 C111 1.544 . S
C405 C67 0.835 . S
C407 C5 0.859 . S
C416 C101 0.843 . S
C418 C39 0.864 . S
C427 C73 0.859 . S
C429 C135 0.833 . S
C438 C33 0.841 . S
C440 C107 0.864 . S
C449 C271 0.822 . S
C451 C141 0.867 . S
C460 C169 0.836 . S
C462 C175 0.859 . S
C471 C203 0.827 . S
C473 C209 0.867 . S
C482 C237 0.833 . S
C484 C243 0.860 . S
