# Generated by pormake.
# Topology wme, (6)-cn, num edge types: 1
# Building blocks:
#     Node 0, Type 0, BuildingBlock: CIFDUS_clean_sbu_1, # of connection points: 6
#     Node 1, Type 0, BuildingBlock: CIFDUS_clean_sbu_1, # of connection points: 6
#     Node 2, Type 0, BuildingBlock: CIFDUS_clean_sbu_1, # of connection points: 6
#     Node 3, Type 0, BuildingBlock: CIFDUS_clean_sbu_1, # of connection points: 6
#     Node 4, Type 0, BuildingBlock: CIFDUS_clean_sbu_1, # of connection points: 6
#     Node 5, Type 0, BuildingBlock: CIFDUS_clean_sbu_1, # of connection points: 6
#     Node 6, Type 0, BuildingBlock: CIFDUS_clean_sbu_1, # of connection points: 6
#     Node 7, Type 0, BuildingBlock: CIFDUS_clean_sbu_1, # of connection points: 6
#     Node 8, Type 0, BuildingBlock: CIFDUS_clean_sbu_1, # of connection points: 6
#     Node 9, Type 0, BuildingBlock: CIFDUS_clean_sbu_1, # of connection points: 6
#     Node 10, Type 0, BuildingBlock: CIFDUS_clean_sbu_1, # of connection points: 6
#     Node 11, Type 0, BuildingBlock: CIFDUS_clean_sbu_1, # of connection points: 6
#     Edge 12, Type (0, 0), BuildingBlock: AJUNOK_clean_linker_0, # of connection points: 2
#     Edge 13, Type (0, 0), BuildingBlock: AJUNOK_clean_linker_0, # of connection points: 2
#     Edge 14, Type (0, 0), BuildingBlock: AJUNOK_clean_linker_0, # of connection points: 2
#     Edge 15, Type (0, 0), BuildingBlock: AJUNOK_clean_linker_0, # of connection points: 2
#     Edge 16, Type (0, 0), BuildingBlock: AJUNOK_clean_linker_0, # of connection points: 2
#     Edge 17, Type (0, 0), BuildingBlock: AJUNOK_clean_linker_0, # of connection points: 2
#     Edge 18, Type (0, 0), BuildingBlock: AJUNOK_clean_linker_0, # of connection points: 2
#     Edge 19, Type (0, 0), BuildingBlock: AJUNOK_clean_linker_0, # of connection points: 2
#     Edge 20, Type (0, 0), BuildingBlock: AJUNOK_clean_linker_0, # of connection points: 2
#     Edge 21, Type (0, 0), BuildingBlock: AJUNOK_clean_linker_0, # of connection points: 2
#     Edge 22, Type (0, 0), BuildingBlock: AJUNOK_clean_linker_0, # of connection points: 2
#     Edge 23, Type (0, 0), BuildingBlock: AJUNOK_clean_linker_0, # of connection points: 2
#     Edge 24, Type (0, 0), BuildingBlock: AJUNOK_clean_linker_0, # of connection points: 2
#     Edge 25, Type (0, 0), BuildingBlock: AJUNOK_clean_linker_0, # of connection points: 2
#     Edge 26, Type (0, 0), BuildingBlock: AJUNOK_clean_linker_0, # of connection points: 2
#     Edge 27, Type (0, 0), BuildingBlock: AJUNOK_clean_linker_0, # of connection points: 2
#     Edge 28, Type (0, 0), BuildingBlock: AJUNOK_clean_linker_0, # of connection points: 2
#     Edge 29, Type (0, 0), BuildingBlock: AJUNOK_clean_linker_0, # of connection points: 2
#     Edge 30, Type (0, 0), BuildingBlock: AJUNOK_clean_linker_0, # of connection points: 2
#     Edge 31, Type (0, 0), BuildingBlock: AJUNOK_clean_linker_0, # of connection points: 2
#     Edge 32, Type (0, 0), BuildingBlock: AJUNOK_clean_linker_0, # of connection points: 2
#     Edge 33, Type (0, 0), BuildingBlock: AJUNOK_clean_linker_0, # of connection points: 2
#     Edge 34, Type (0, 0), BuildingBlock: AJUNOK_clean_linker_0, # of connection points: 2
#     Edge 35, Type (0, 0), BuildingBlock: AJUNOK_clean_linker_0, # of connection points: 2
#     Edge 36, Type (0, 0), BuildingBlock: AJUNOK_clean_linker_0, # of connection points: 2
#     Edge 37, Type (0, 0), BuildingBlock: AJUNOK_clean_linker_0, # of connection points: 2
#     Edge 38, Type (0, 0), BuildingBlock: AJUNOK_clean_linker_0, # of connection points: 2
#     Edge 39, Type (0, 0), BuildingBlock: AJUNOK_clean_linker_0, # of connection points: 2
#     Edge 40, Type (0, 0), BuildingBlock: AJUNOK_clean_linker_0, # of connection points: 2
#     Edge 41, Type (0, 0), BuildingBlock: AJUNOK_clean_linker_0, # of connection points: 2
#     Edge 42, Type (0, 0), BuildingBlock: AJUNOK_clean_linker_0, # of connection points: 2
#     Edge 43, Type (0, 0), BuildingBlock: AJUNOK_clean_linker_0, # of connection points: 2
#     Edge 44, Type (0, 0), BuildingBlock: AJUNOK_clean_linker_0, # of connection points: 2
#     Edge 45, Type (0, 0), BuildingBlock: AJUNOK_clean_linker_0, # of connection points: 2
#     Edge 46, Type (0, 0), BuildingBlock: AJUNOK_clean_linker_0, # of connection points: 2
#     Edge 47, Type (0, 0), BuildingBlock: AJUNOK_clean_linker_0, # of connection points: 2
# Relax obj value: 0.160
# Max RMSD: 0.187
# Mean RMSD: 0.187
data_MOF--net-wme--node1-CIFDUS_clean_sbu_1--edge1-AJUNOK_clean_linker_0
_symmetry_space_group_name_H-M    P1
_symmetry_Int_Tables_number       1
_symmetry_cell_setting            triclinic
loop_
_symmetry_equiv_pos_as_xyz
'x, y, z'
_cell_length_a     22.790893
_cell_length_b     22.818907
_cell_length_c     43.417114
_cell_angle_alpha  89.864947
_cell_angle_beta   90.20434
_cell_angle_gamma 120.10064
loop_
_atom_site_label
_atom_site_type_symbol
_atom_site_fract_x
_atom_site_fract_y
_atom_site_fract_z
_atom_type_partial_charge
O0 O 0.30154 0.40339 0.12717 0.0
Mn1 Mn 0.19835 0.33458 0.12605 0.0
O2 O 0.29539 0.47577 0.09388 0.0
Mn3 Mn 0.21124 0.41486 0.07633 0.0
O4 O 0.09457 0.27177 0.12196 0.0
O5 O 0.19677 0.33772 0.17574 0.0
Mn6 Mn 0.1681 0.24956 0.1735 0.0
O7 O 0.21134 0.25079 0.11725 0.0
O8 O 0.0767 0.20434 0.16176 0.0
O9 O 0.18076 0.41479 0.13328 0.0
O10 O 0.13399 0.41362 0.0901 0.0
O11 O 0.17944 0.25988 0.21294 0.0
O12 O 0.23005 0.22489 0.16204 0.0
C13 C 0.20701 0.34005 0.04764 0.0
C14 C 0.32828 0.46094 0.11335 0.0
C15 C 0.05467 0.22222 0.13879 0.0
C16 C 0.19433 0.32064 0.20531 0.0
C17 C 0.22968 0.21687 0.13377 0.0
C18 C 0.13994 0.42679 0.11833 0.0
O19 O 0.20359 0.33338 0.07786 0.0
O20 O 0.21132 0.39482 0.03661 0.0
O21 O 0.88223 0.29364 0.62682 0.0
Mn22 Mn 0.86495 0.19335 0.62419 0.0
O23 O 0.86887 0.31255 0.57753 0.0
Mn24 Mn 0.81576 0.22474 0.56429 0.0
O25 O 0.84204 0.0934 0.62332 0.0
O26 O 0.86156 0.18636 0.67208 0.0
Mn27 Mn 0.93452 0.17751 0.67813 0.0
O28 O 0.96537 0.2214 0.61529 0.0
O29 O 0.88896 0.08432 0.66768 0.0
O30 O 0.7621 0.16184 0.62831 0.0
O31 O 0.72936 0.1773 0.58158 0.0
O32 O 0.93706 0.23796 0.70689 0.0
O33 O 0.01555 0.22618 0.65875 0.0
C34 C 0.88437 0.19476 0.54847 0.0
C35 C 0.87818 0.33081 0.60553 0.0
C36 C 0.85264 0.05833 0.64338 0.0
C37 C 0.87599 0.21768 0.69855 0.0
C38 C 0.0175 0.23167 0.63015 0.0
C39 C 0.71675 0.15826 0.60964 0.0
O40 O 0.86575 0.19251 0.57715 0.0
O41 O 0.84589 0.20335 0.52916 0.0
O42 O 0.59106 0.88796 0.13253 0.0
Mn43 Mn 0.66688 0.86398 0.12411 0.0
O44 O 0.5246 0.84389 0.09082 0.0
Mn45 Mn 0.57993 0.81956 0.07018 0.0
O46 O 0.74041 0.83734 0.11231 0.0
O47 O 0.66761 0.85137 0.17227 0.0
Mn48 Mn 0.75559 0.87707 0.17333 0.0
O49 O 0.74112 0.9663 0.12609 0.0
O50 O 0.77286 0.81423 0.15614 0.0
O51 O 0.59375 0.75924 0.12431 0.0
O52 O 0.56232 0.73262 0.07599 0.0
O53 O 0.73593 0.8635 0.21276 0.0
O54 O 0.81154 0.96596 0.16177 0.0
C55 C 0.66461 0.89187 0.04661 0.0
C56 C 0.5378 0.87373 0.11676 0.0
C57 C 0.76885 0.81003 0.12728 0.0
C58 C 0.67612 0.84633 0.2022 0.0
C59 C 0.79646 0.99637 0.14153 0.0
C60 C 0.56424 0.71457 0.10325 0.0
O61 O 0.66644 0.88187 0.07658 0.0
O62 O 0.60768 0.85361 0.03252 0.0
O63 O 0.69396 0.58086 0.62744 0.0
Mn64 Mn 0.794 0.66138 0.62733 0.0
O65 O 0.70147 0.53005 0.58429 0.0
Mn66 Mn 0.78535 0.59557 0.56819 0.0
O67 O 0.89522 0.73812 0.62064 0.0
O68 O 0.79285 0.65164 0.6762 0.0
Mn69 Mn 0.86243 0.73742 0.67579 0.0
O70 O 0.76306 0.73292 0.6288 0.0
O71 O 0.94296 0.74444 0.66427 0.0
O72 O 0.82524 0.5881 0.6276 0.0
O73 O 0.86243 0.59527 0.58079 0.0
O74 O 0.85063 0.72578 0.71533 0.0
O75 O 0.84203 0.80201 0.66178 0.0
C76 C 0.7885 0.68213 0.55092 0.0
C77 C 0.66929 0.53067 0.60846 0.0
C78 C 0.94874 0.7532 0.63582 0.0
C79 C 0.80523 0.66594 0.70601 0.0
C80 C 0.79422 0.78929 0.64311 0.0
C81 C 0.85819 0.57424 0.60798 0.0
O82 O 0.79132 0.67118 0.58032 0.0
O83 O 0.78823 0.63773 0.53236 0.0
O84 O 0.10874 0.6979 0.12512 0.0
Mn85 Mn 0.13239 0.79805 0.12349 0.0
O86 O 0.16608 0.69238 0.08374 0.0
Mn87 Mn 0.19772 0.77762 0.06616 0.0
O88 O 0.16051 0.8998 0.11961 0.0
O89 O 0.12867 0.79687 0.17152 0.0
Mn90 Mn 0.07859 0.83557 0.17586 0.0
O91 O 0.03125 0.77058 0.11581 0.0
O92 O 0.13149 0.92436 0.16461 0.0
O93 O 0.23471 0.82734 0.12963 0.0
O94 O 0.27902 0.84422 0.08244 0.0
O95 O 0.08659 0.8163 0.21465 0.0
O96 O 0.99304 0.79045 0.15908 0.0
C97 C 0.12011 0.79543 0.04837 0.0
C98 C 0.13065 0.66698 0.10816 0.0
C99 C 0.15892 0.94197 0.13829 0.0
C100 C 0.1251 0.79648 0.20187 0.0
C101 C 0.98392 0.77028 0.13149 0.0
C102 C 0.28586 0.85033 0.11153 0.0
O103 O 0.13618 0.79749 0.07716 0.0
O104 O 0.16009 0.78733 0.03007 0.0
O105 O 0.40222 0.10032 0.63302 0.0
Mn106 Mn 0.32446 0.12228 0.62707 0.0
O107 O 0.46421 0.16645 0.59461 0.0
Mn108 Mn 0.39751 0.18078 0.57692 0.0
O109 O 0.24951 0.14778 0.61651 0.0
O110 O 0.32669 0.1279 0.67614 0.0
Mn111 Mn 0.24212 0.11454 0.67093 0.0
O112 O 0.25374 0.02042 0.62728 0.0
O113 O 0.24046 0.19084 0.65895 0.0
O114 O 0.3979 0.22793 0.63033 0.0
O115 O 0.39517 0.2595 0.58435 0.0
O116 O 0.24222 0.10343 0.71076 0.0
O117 O 0.17776 0.03428 0.6525 0.0
C118 C 0.32802 0.10884 0.54827 0.0
C119 C 0.4577 0.12994 0.6179 0.0
C120 C 0.23323 0.18664 0.6303 0.0
C121 C 0.30376 0.11777 0.7049 0.0
C122 C 0.19321 -0.00185 0.63622 0.0
C123 C 0.41145 0.27659 0.61177 0.0
O124 O 0.31721 0.1049 0.57844 0.0
O125 O 0.38357 0.15919 0.53768 0.0
O126 O 0.58988 0.69846 0.38946 0.0
Mn127 Mn 0.66116 0.80064 0.3943 0.0
O128 O 0.52077 0.70022 0.42497 0.0
Mn129 Mn 0.58592 0.77979 0.44338 0.0
O130 O 0.73055 0.90445 0.39924 0.0
O131 O 0.65542 0.80928 0.34572 0.0
Mn132 Mn 0.74163 0.8275 0.34609 0.0
O133 O 0.74132 0.77842 0.39809 0.0
O134 O 0.80416 0.90577 0.36607 0.0
O135 O 0.58116 0.82374 0.38989 0.0
O136 O 0.58417 0.85732 0.43616 0.0
O137 O 0.73385 0.84389 0.30731 0.0
O138 O 0.75071 0.75316 0.35137 0.0
C139 C 0.65219 0.77757 0.47269 0.0
C140 C 0.53271 0.67042 0.40326 0.0
C141 C 0.78839 0.93572 0.3861 0.0
C142 C 0.67254 0.824 0.31634 0.0
C143 C 0.76453 0.75225 0.37917 0.0
C144 C 0.56593 0.85626 0.40897 0.0
O145 O 0.66771 0.78839 0.44292 0.0
O146 O 0.59559 0.77091 0.48257 0.0
O147 O 0.89528 0.59252 0.88999 0.0
Mn148 Mn 0.86217 0.6629 0.89635 0.0
O149 O 0.83172 0.5243 0.92796 0.0
Mn150 Mn 0.81367 0.5861 0.94735 0.0
O151 O 0.82237 0.72581 0.9035 0.0
O152 O 0.8391 0.65497 0.84836 0.0
Mn153 Mn 0.90256 0.7423 0.84643 0.0
O154 O 0.9626 0.74952 0.89701 0.0
O155 O 0.87895 0.80004 0.86683 0.0
O156 O 0.76288 0.58113 0.89436 0.0
O157 O 0.72928 0.57589 0.94098 0.0
O158 O 0.87461 0.72966 0.80823 0.0
O159 O 0.98696 0.75096 0.84961 0.0
C160 C 0.88377 0.66054 0.9747 0.0
C161 C 0.86857 0.53525 0.90423 0.0
C162 C 0.83903 0.78113 0.88969 0.0
C163 C 0.83624 0.66906 0.8189 0.0
C164 C 0.00738 0.7742 0.87583 0.0
C165 C 0.71438 0.56347 0.91309 0.0
O166 O 0.88343 0.67078 0.94455 0.0
O167 O 0.83891 0.60262 0.98607 0.0
O168 O 0.29239 0.88653 0.38309 0.0
Mn169 Mn 0.18767 0.85862 0.38948 0.0
O170 O 0.32958 0.92125 0.42955 0.0
Mn171 Mn 0.25414 0.84835 0.44513 0.0
O172 O 0.08424 0.82229 0.39618 0.0
O173 O 0.17781 0.84108 0.34145 0.0
Mn174 Mn 0.14314 0.89618 0.33877 0.0
O175 O 0.20852 0.96193 0.38887 0.0
O176 O 0.06337 0.87468 0.35885 0.0
O177 O 0.16381 0.75699 0.39252 0.0
O178 O 0.23221 0.76382 0.43055 0.0
O179 O 0.12688 0.86339 0.30143 0.0
O180 O 0.2111 0.98359 0.34008 0.0
C181 C 0.20017 0.88459 0.46677 0.0
C182 C 0.34193 0.91225 0.40244 0.0
C183 C 0.04423 0.83749 0.38248 0.0
C184 C 0.1609 0.83597 0.31189 0.0
C185 C 0.22014 0.00482 0.36716 0.0
C186 C 0.1894 0.72986 0.40974 0.0
O187 O 0.19545 0.87392 0.43681 0.0
O188 O 0.22665 0.85569 0.48287 0.0
O189 O 0.40626 0.2977 0.89136 0.0
Mn190 Mn 0.32635 0.19688 0.89273 0.0
O191 O 0.4468 0.31871 0.93954 0.0
Mn192 Mn 0.39911 0.23018 0.95177 0.0
O193 O 0.24964 0.09546 0.89191 0.0
O194 O 0.33838 0.19621 0.84467 0.0
Mn195 Mn 0.25708 0.18677 0.83787 0.0
O196 O 0.24995 0.22328 0.89526 0.0
O197 O 0.19516 0.09817 0.84944 0.0
O198 O 0.39978 0.16598 0.89208 0.0
O199 O 0.43456 0.17756 0.94046 0.0
O200 O 0.28982 0.20016 0.80004 0.0
O201 O 0.24042 0.25415 0.84938 0.0
C202 C 0.30811 0.20338 0.97101 0.0
C203 C 0.44958 0.33624 0.91159 0.0
C204 C 0.2011 0.06597 0.87229 0.0
C205 C 0.339 0.19833 0.81419 0.0
C206 C 0.22527 0.24953 0.87726 0.0
C207 C 0.436 0.15993 0.91303 0.0
O208 O 0.31513 0.20088 0.94075 0.0
O209 O 0.35861 0.21272 0.98832 0.0
O210 O 0.11902 0.41192 0.39231 0.0
Mn211 Mn 0.13479 0.32678 0.39687 0.0
O212 O 0.08923 0.41764 0.43859 0.0
Mn213 Mn 0.16245 0.40736 0.44697 0.0
O214 O 0.15068 0.24706 0.39596 0.0
O215 O 0.14771 0.33208 0.34895 0.0
Mn216 Mn 0.06372 0.26554 0.33936 0.0
O217 O 0.03194 0.25162 0.40215 0.0
O218 O 0.09544 0.20359 0.35081 0.0
O219 O 0.23843 0.39116 0.39529 0.0
O220 O 0.24421 0.46731 0.42781 0.0
O221 O 0.07744 0.35069 0.32701 0.0
O222 O 0.98506 0.2467 0.35873 0.0
C223 C 0.13101 0.32935 0.4757 0.0
C224 C 0.09737 0.43912 0.41156 0.0
C225 C 0.1314 0.20338 0.37422 0.0
C226 C 0.13903 0.36754 0.32816 0.0
C227 C 0.97908 0.22593 0.38556 0.0
C228 C 0.27105 0.44934 0.4073 0.0
O229 O 0.12333 0.31777 0.44552 0.0
O230 O 0.17495 0.3895 0.48516 0.0
O231 O 0.69908 0.11587 0.88296 0.0
Mn232 Mn 0.79854 0.12762 0.88935 0.0
O233 O 0.66313 0.08047 0.92886 0.0
Mn234 Mn 0.74176 0.154 0.94207 0.0
O235 O 0.89944 0.1471 0.89386 0.0
O236 O 0.80874 0.13554 0.84224 0.0
Mn237 Mn 0.84279 0.07895 0.83825 0.0
O238 O 0.75565 0.02165 0.89173 0.0
O239 O 0.93011 0.14947 0.84486 0.0
O240 O 0.83912 0.23248 0.88898 0.0
O241 O 0.77146 0.23891 0.92391 0.0
O242 O 0.75908 0.04124 0.81839 0.0
O243 O 0.83408 0.01453 0.86596 0.0
C244 C 0.79095 0.11701 0.96749 0.0
C245 C 0.64974 0.09058 0.90216 0.0
C246 C 0.94574 0.16634 0.87303 0.0
C247 C 0.77026 0.10177 0.81929 0.0
C248 C 0.78684 0.99013 0.88508 0.0
C249 C 0.81587 0.26591 0.9028 0.0
O250 O 0.79433 0.11927 0.93718 0.0
O251 O 0.76602 0.15056 0.98081 0.0
C252 C 0.2372 0.05821 0.11608 0.0
C253 C 0.17352 0.00887 0.12758 0.0
C254 C 0.25463 0.12704 0.11476 0.0
C255 C 0.20841 0.1468 0.12476 0.0
H256 H 0.27511 0.04459 0.11053 0.0
H257 H 0.30559 0.16504 0.10821 0.0
S258 S 0.03529 0.03432 0.15576 0.0
N259 N 0.06304 0.98296 0.14618 0.0
N260 N 0.09713 0.11005 0.14601 0.0
C261 C 0.14355 0.09622 0.13411 0.0
C262 C 0.12558 0.02757 0.13476 0.0
C263 C 0.11118 0.14049 0.6234 0.0
C264 C 0.17724 0.19385 0.61796 0.0
C265 C 0.0562 0.15126 0.62196 0.0
C266 C 0.06591 0.21608 0.61567 0.0
H267 H 0.10271 0.09204 0.63172 0.0
H268 H 0.00717 0.11083 0.6296 0.0
S269 S 0.22497 0.36537 0.59002 0.0
N270 N 0.24719 0.30851 0.59874 0.0
N271 N 0.14269 0.32907 0.59679 0.0
C272 C 0.12982 0.26692 0.60602 0.0
C273 C 0.18613 0.25579 0.60717 0.0
C274 C 0.90673 0.05807 0.11638 0.0
C275 C 0.85322 0.06093 0.13081 0.0
C276 C 0.97125 0.11519 0.11478 0.0
C277 C 0.98474 0.17613 0.12857 0.0
H278 H 0.90001 0.01004 0.10852 0.0
H279 H 0.01211 0.10987 0.10521 0.0
S280 S 0.85651 0.21668 0.15732 0.0
N281 N 0.81305 0.13416 0.15064 0.0
N282 N 0.93624 0.2421 0.1483 0.0
C283 C 0.92982 0.18263 0.13863 0.0
C284 C 0.86335 0.12437 0.13991 0.0
C285 C 0.76342 0.87173 0.6619 0.0
C286 C 0.78125 0.84503 0.63685 0.0
C287 C 0.78298 0.94053 0.66294 0.0
C288 C 0.82032 0.98445 0.6388 0.0
H289 H 0.74054 0.84093 0.68219 0.0
H290 H 0.77257 0.96033 0.68358 0.0
S291 S 0.86822 0.93631 0.56569 0.0
N292 N 0.82976 0.8651 0.58566 0.0
N293 N 0.86529 0.9945 0.58719 0.0
C294 C 0.83106 0.95664 0.61204 0.0
C295 C 0.81152 0.88657 0.61112 0.0
C296 C 0.93627 0.83418 0.10744 0.0
C297 C 0.92719 0.77041 0.11549 0.0
C298 C 0.881 0.84491 0.10594 0.0
C299 C 0.81513 0.79192 0.11221 0.0
H300 H 0.98694 0.87773 0.106 0.0
H301 H 0.89098 0.89645 0.10387 0.0
S302 S 0.76326 0.61175 0.12437 0.0
N303 N 0.84699 0.65098 0.12278 0.0
N304 N 0.74232 0.67081 0.11939 0.0
C305 C 0.80467 0.72612 0.11547 0.0
C306 C 0.86111 0.71534 0.11731 0.0
C307 C 0.01809 0.86624 0.61364 0.0
C308 C 0.01467 0.8069 0.62481 0.0
C309 C 0.0784 0.92802 0.61562 0.0
C310 C 0.13807 0.93175 0.62676 0.0
H311 H 0.97244 0.86654 0.60679 0.0
H312 H 0.07765 0.97384 0.60972 0.0
S313 S 0.15789 0.78894 0.65384 0.0
N314 N 0.07671 0.75396 0.64468 0.0
N315 N 0.19234 0.87042 0.64569 0.0
C316 C 0.13734 0.8718 0.63448 0.0
C317 C 0.07493 0.80899 0.63392 0.0
C318 C 0.93913 0.81122 0.41246 0.0
C319 C 0.97044 0.79803 0.38773 0.0
C320 C 0.86891 0.7881 0.41173 0.0
C321 C 0.82854 0.75196 0.38611 0.0
H322 H 0.96963 0.84397 0.43108 0.0
H323 H 0.8478 0.80432 0.42986 0.0
S324 S 0.8869 0.69599 0.3183 0.0
N325 N 0.95574 0.73984 0.33935 0.0
N326 N 0.82481 0.69579 0.33785 0.0
C327 C 0.85882 0.73232 0.36313 0.0
C328 C 0.92965 0.75595 0.3639 0.0
C329 C 0.11375 0.87806 0.8962 0.0
C330 C 0.0575 0.84819 0.87625 0.0
C331 C 0.15976 0.94882 0.89554 0.0
C332 C 0.15084 0.99185 0.87486 0.0
H333 H 0.12266 0.84661 0.91206 0.0
H334 H 0.20294 0.96967 0.91099 0.0
S335 S 0.01139 0.93749 0.81748 0.0
N336 N -0.00278 0.86721 0.83458 0.0
N337 N 0.07992 -0.00221 0.83429 0.0
C338 C 0.09433 0.96185 0.85501 0.0
C339 C 0.04889 0.89078 0.85537 0.0
C340 C 0.17773 0.14014 0.34634 0.0
C341 C 0.15901 0.1562 0.37437 0.0
C342 C 0.20572 0.0979 0.34509 0.0
C343 C 0.21339 0.06631 0.3717 0.0
H344 H 0.17092 0.16061 0.32496 0.0
H345 H 0.21747 0.08673 0.32247 0.0
S346 S 0.18506 0.10239 0.45179 0.0
N347 N 0.16145 0.14695 0.43029 0.0
N348 N 0.20945 0.06297 0.4276 0.0
C349 C 0.19966 0.08582 0.40026 0.0
C350 C 0.17327 0.13139 0.40165 0.0
C351 C 0.13482 0.27571 0.86346 0.0
C352 C 0.1606 0.24785 0.8849 0.0
C353 C 0.06523 0.25261 0.86144 0.0
C354 C 0.01875 0.20245 0.88143 0.0
H355 H 0.16766 0.31068 0.846 0.0
H356 H 0.0472 0.27104 0.84274 0.0
S357 S 0.06148 0.12751 0.94754 0.0
N358 N 0.13497 0.17669 0.93054 0.0
N359 N 0.00441 0.13614 0.92757 0.0
C360 C 0.04457 0.18167 0.90595 0.0
C361 C 0.11562 0.20399 0.9076 0.0
C362 C 0.92449 0.11118 0.36409 0.0
C363 C 0.92923 0.15286 0.38887 0.0
C364 C 0.87915 0.04224 0.36421 0.0
C365 C 0.83541 0.01002 0.38916 0.0
H366 H 0.95648 0.13195 0.34398 0.0
H367 H 0.87824 0.01426 0.34391 0.0
S368 S 0.82787 0.0958 0.46036 0.0
N369 N 0.88759 0.15771 0.43958 0.0
N370 N 0.79991 0.0256 0.4399 0.0
C371 C 0.83924 0.05061 0.41447 0.0
C372 C 0.88698 0.12237 0.41439 0.0
C373 C 0.84106 0.87741 0.91766 0.0
C374 C 0.80723 0.8215 0.89796 0.0
C375 C 0.82329 0.92813 0.91838 0.0
C376 C 0.77242 0.92533 0.89886 0.0
H377 H 0.88526 0.88505 0.93045 0.0
H378 H 0.8558 0.97417 0.93108 0.0
S379 S 0.6616 0.78331 0.84713 0.0
N380 N 0.71411 0.76078 0.86212 0.0
N381 N 0.68216 0.85717 0.86278 0.0
C382 C 0.73324 0.86576 0.88188 0.0
C383 C 0.75082 0.81381 0.88136 0.0
C384 C 0.19198 0.60761 0.11961 0.0
C385 C 0.12976 0.60632 0.11998 0.0
C386 C 0.19492 0.54878 0.12323 0.0
C387 C 0.13553 0.48624 0.12683 0.0
H388 H 0.23861 0.65397 0.11429 0.0
H389 H 0.24344 0.55155 0.12016 0.0
S390 S 0.96203 0.45761 0.13786 0.0
N391 N 0.00884 0.53987 0.13098 0.0
N392 N 0.01413 0.42692 0.13644 0.0
C393 C 0.07356 0.48462 0.13066 0.0
C394 C 0.07071 0.54557 0.12767 0.0
C395 C 0.64351 0.2024 0.62715 0.0
C396 C 0.65134 0.14602 0.62202 0.0
C397 C 0.57908 0.19471 0.63088 0.0
C398 C 0.52008 0.13084 0.62829 0.0
H399 H 0.6871 0.25317 0.62624 0.0
H400 H 0.57504 0.23975 0.63322 0.0
S401 S 0.51501 0.96634 0.62412 0.0
N402 N 0.59663 0.02336 0.62183 0.0
N403 N 0.4744 0.00916 0.62724 0.0
C404 C 0.52763 0.07349 0.62713 0.0
C405 C 0.59379 0.08118 0.62408 0.0
C406 C 0.48156 0.62245 0.13845 0.0
C407 C 0.51916 0.64175 0.11085 0.0
C408 C 0.4226 0.55832 0.1413 0.0
C409 C 0.40062 0.51159 0.11687 0.0
H410 H 0.49347 0.65925 0.15661 0.0
H411 H 0.39071 0.548 0.16136 0.0
S412 S 0.48747 0.5323 0.04249 0.0
N413 N 0.53515 0.60455 0.0607 0.0
N414 N 0.42516 0.48493 0.06634 0.0
C415 C 0.44204 0.52736 0.09089 0.0
C416 C 0.50128 0.59224 0.08781 0.0
C417 C 0.8956 0.49827 0.63468 0.0
C418 C 0.85957 0.51021 0.61128 0.0
C419 C 0.90017 0.43836 0.63464 0.0
C420 C 0.86624 0.38825 0.61189 0.0
H421 H 0.92315 0.53675 0.65193 0.0
H422 H 0.93234 0.43278 0.65139 0.0
S423 S 0.76086 0.3933 0.54757 0.0
N424 N 0.78986 0.46637 0.56529 0.0
N425 N 0.78647 0.35089 0.56885 0.0
C426 C 0.82382 0.39724 0.59093 0.0
C427 C 0.8239 0.45909 0.58948 0.0
C428 C 0.47534 0.9355 0.11457 0.0
C429 C 0.48478 0.88561 0.12895 0.0
C430 C 0.41048 0.92777 0.11199 0.0
C431 C 0.35346 0.87037 0.12405 0.0
H432 H 0.51676 0.97646 0.10209 0.0
H433 H 0.40407 0.96366 0.09807 0.0
S434 S 0.35309 0.72944 0.16684 0.0
N435 N 0.43351 0.78066 0.15794 0.0
N436 N 0.31157 0.76639 0.1536 0.0
C437 C 0.36345 0.82406 0.14146 0.0
C438 C 0.42942 0.8318 0.14388 0.0
C439 C 0.54638 0.46315 0.62856 0.0
C440 C 0.60431 0.46642 0.61485 0.0
C441 C 0.48309 0.40114 0.62928 0.0
C442 C 0.47639 0.34174 0.6158 0.0
H443 H 0.54924 0.50872 0.63757 0.0
H444 H 0.43918 0.40039 0.63919 0.0
S445 S 0.61158 0.32363 0.57824 0.0
N446 N 0.65031 0.40187 0.59114 0.0
N447 N 0.53201 0.29283 0.58766 0.0
C448 C 0.53402 0.34567 0.60264 0.0
C449 C 0.59777 0.40585 0.60356 0.0
C450 C 0.43377 0.90268 0.42817 0.0
C451 C 0.40246 0.90288 0.40004 0.0
C452 C 0.48568 0.88828 0.42991 0.0
C453 C 0.51164 0.87364 0.40366 0.0
H454 H 0.41738 0.91205 0.45008 0.0
H455 H 0.50472 0.88788 0.45276 0.0
S456 S 0.45045 0.86706 0.32372 0.0
N457 N 0.40185 0.88627 0.34465 0.0
N458 N 0.50252 0.85977 0.34801 0.0
C459 C 0.48194 0.8733 0.375 0.0
C460 C 0.42704 0.88779 0.37317 0.0
C461 C 0.59679 0.50797 0.89075 0.0
C462 C 0.64917 0.50352 0.90587 0.0
C463 C 0.53079 0.45117 0.8893 0.0
C464 C 0.51757 0.38908 0.90206 0.0
H465 H 0.60573 0.5563 0.88206 0.0
H466 H 0.48965 0.45706 0.88034 0.0
S467 S 0.64091 0.34922 0.93843 0.0
N468 N 0.68451 0.43127 0.93127 0.0
N469 N 0.56443 0.32347 0.92451 0.0
C470 C 0.5721 0.38265 0.91319 0.0
C471 C 0.63708 0.44041 0.91639 0.0
C472 C 0.13387 0.6144 0.38251 0.0
C473 C 0.166 0.65574 0.40849 0.0
C474 C 0.11216 0.54411 0.38274 0.0
C475 C 0.12104 0.51311 0.40912 0.0
H476 H 0.12572 0.63642 0.36196 0.0
H477 H 0.08753 0.51393 0.3625 0.0
S478 S 0.20655 0.59984 0.48227 0.0
N479 N 0.20671 0.6593 0.46081 0.0
N480 N 0.16975 0.53153 0.46077 0.0
C481 C 0.15518 0.55496 0.43462 0.0
C482 C 0.17641 0.62491 0.43446 0.0
C483 C 0.56996 0.11483 0.92976 0.0
C484 C 0.59238 0.10486 0.90101 0.0
C485 C 0.51854 0.12947 0.93247 0.0
C486 C 0.48559 0.13681 0.9067 0.0
H487 H 0.59288 0.11262 0.95131 0.0
H488 H 0.50584 0.13633 0.9557 0.0
S489 S 0.52346 0.11778 0.82537 0.0
N490 N 0.57717 0.10389 0.84547 0.0
N491 N 0.47888 0.13343 0.85064 0.0
C492 C 0.50655 0.12754 0.87735 0.0
C493 C 0.56032 0.11165 0.8745 0.0
C494 C 0.39471 0.4895 0.40042 0.0
C495 C 0.33891 0.49923 0.39609 0.0
C496 C 0.46151 0.54467 0.39832 0.0
C497 C 0.47321 0.60978 0.39102 0.0
H498 H 0.38675 0.44103 0.40839 0.0
H499 H 0.50325 0.53776 0.40544 0.0
S500 S 0.34444 0.65769 0.37192 0.0
N501 N 0.29997 0.57625 0.38046 0.0
N502 N 0.42474 0.67814 0.37469 0.0
C503 C 0.41789 0.61727 0.38258 0.0
C504 C 0.35063 0.5624 0.38576 0.0
C505 C 0.79656 0.41778 0.88752 0.0
C506 C 0.86298 0.47289 0.89047 0.0
C507 C 0.78254 0.3509 0.8898 0.0
C508 C 0.8348 0.33576 0.89296 0.0
H509 H 0.75426 0.42666 0.8864 0.0
H510 H 0.72996 0.31076 0.89061 0.0
S511 S 0.01881 0.46028 0.88792 0.0
N512 N 0.98267 0.50765 0.88846 0.0
N513 N 0.95655 0.38056 0.88962 0.0
C514 C 0.90212 0.38966 0.89014 0.0
C515 C 0.91635 0.45874 0.88942 0.0
C516 C 0.10903 0.31761 0.27561 0.0
C517 C 0.16025 0.36473 0.29562 0.0
C518 C 0.11855 0.3167 0.24418 0.0
C519 C 0.18266 0.35583 0.23092 0.0
H520 H 0.05948 0.28042 0.28422 0.0
H521 H 0.07701 0.27776 0.23078 0.0
S522 S 0.33475 0.49028 0.27073 0.0
N523 N 0.27666 0.45845 0.29819 0.0
N524 N 0.29834 0.44657 0.23909 0.0
C525 C 0.23515 0.40369 0.24986 0.0
C526 C 0.22353 0.40953 0.28214 0.0
C527 C 0.79649 0.20217 0.7435 0.0
C528 C 0.8331 0.17949 0.72566 0.0
C529 C 0.77501 0.17766 0.77403 0.0
C530 C 0.79331 0.13313 0.78809 0.0
H531 H 0.78618 0.2402 0.73423 0.0
H532 H 0.74553 0.19462 0.78679 0.0
S533 S 0.89802 0.06741 0.75284 0.0
N534 N 0.88577 0.10955 0.72531 0.0
N535 N 0.85877 0.07584 0.78261 0.0
C536 C 0.83278 0.11351 0.77071 0.0
C537 C 0.84812 0.13246 0.73953 0.0
C538 C 0.60554 0.76165 0.24009 0.0
C539 C 0.62259 0.82367 0.2258 0.0
C540 C 0.6064 0.75637 0.27239 0.0
C541 C 0.62382 0.81275 0.29135 0.0
H542 H 0.60412 0.72116 0.22651 0.0
H543 H 0.60507 0.71188 0.28207 0.0
S544 S 0.6455 0.97713 0.26536 0.0
N545 N 0.6358 0.93478 0.23313 0.0
N546 N 0.63893 0.92569 0.2937 0.0
C547 C 0.62635 0.8697 0.27749 0.0
C548 C 0.62462 0.87463 0.24463 0.0
C549 C 0.73238 0.63055 0.7509 0.0
C550 C 0.77211 0.61632 0.73092 0.0
C551 C 0.74192 0.63239 0.78297 0.0
C552 C 0.79089 0.61926 0.79597 0.0
H553 H 0.7036 0.65273 0.74171 0.0
H554 H 0.71989 0.65577 0.79692 0.0
S555 S 0.88798 0.55453 0.75431 0.0
N556 N 0.84693 0.56988 0.7269 0.0
N557 N 0.86419 0.57262 0.78715 0.0
C558 C 0.81914 0.5906 0.77674 0.0
C559 C 0.80968 0.58904 0.74407 0.0
C560 C 0.22393 0.85049 0.23487 0.0
C561 C 0.17133 0.78878 0.22312 0.0
C562 C 0.23247 0.86181 0.26683 0.0
C563 C 0.18896 0.81164 0.28783 0.0
H564 H 0.24907 0.89416 0.2198 0.0
H565 H 0.26426 0.91351 0.27471 0.0
S566 S 0.06825 0.63292 0.26832 0.0
N567 N 0.09472 0.67062 0.23457 0.0
N568 N 0.10898 0.69207 0.29465 0.0
C569 C 0.14836 0.74591 0.27633 0.0
C570 C 0.14063 0.7343 0.24379 0.0
C571 C 0.33312 0.10365 0.78769 0.0
C572 C 0.37447 0.17286 0.79474 0.0
C573 C 0.31723 0.08226 0.75694 0.0
C574 C 0.34687 0.12822 0.73234 0.0
H575 H 0.3012 0.06887 0.80547 0.0
H576 H 0.27495 0.03185 0.75257 0.0
S577 S 0.48841 0.30454 0.73938 0.0
N578 N 0.46458 0.2803 0.77532 0.0
N579 N 0.43903 0.23874 0.71742 0.0
C580 C 0.40145 0.19261 0.73932 0.0
C581 C 0.41534 0.21502 0.77072 0.0
C582 C 0.24239 0.2026 0.01715 0.0
C583 C 0.26104 0.22207 0.98614 0.0
C584 C 0.2213 0.23795 0.03672 0.0
C585 C 0.21735 0.29426 0.02612 0.0
H586 H 0.24917 0.16276 0.02709 0.0
H587 H 0.21125 0.22282 0.06058 0.0
S588 S 0.2599 0.36605 0.9469 0.0
N589 N 0.27546 0.30287 0.94644 0.0
N590 N 0.23042 0.36499 0.9816 0.0
C591 C 0.23192 0.3115 0.99462 0.0
C592 C 0.25508 0.27669 0.97508 0.0
C593 C 0.02767 0.21924 0.49534 0.0
C594 C 0.07361 0.28936 0.49807 0.0
C595 C 0.96989 0.18573 0.51479 0.0
C596 C 0.95581 0.22047 0.53797 0.0
H597 H 0.0348 0.19061 0.47736 0.0
H598 H 0.93378 0.13288 0.51049 0.0
S599 S 0.05489 0.40553 0.55259 0.0
N600 N 0.096 0.39294 0.5247 0.0
N601 N 0.99203 0.32956 0.56134 0.0
C602 C 0.0024 0.28991 0.54136 0.0
C603 C 0.05966 0.32434 0.52137 0.0
C604 C 0.71833 0.93848 0.99555 0.0
C605 C 0.71973 0.94754 0.02786 0.0
C606 C 0.75078 0.99371 0.97513 0.0
C607 C 0.7877 0.06051 0.98613 0.0
H608 H 0.68631 0.88869 0.98569 0.0
H609 H 0.74009 0.98434 0.95081 0.0
S610 S 0.81577 0.11285 0.06763 0.0
N611 N 0.76674 0.02963 0.06927 0.0
N612 N 0.83174 0.13204 0.03094 0.0
C613 C 0.79681 0.06942 0.01815 0.0
C614 C 0.76187 0.01354 0.03903 0.0
C615 C 0.7971 0.76969 0.51385 0.0
C616 C 0.76285 0.72494 0.53845 0.0
C617 C 0.76237 0.78893 0.49281 0.0
C618 C 0.692 0.76247 0.49537 0.0
H619 H 0.85012 0.78656 0.50978 0.0
H620 H 0.79012 0.82269 0.47401 0.0
S621 S 0.57887 0.63829 0.55421 0.0
N622 N 0.65559 0.65437 0.56375 0.0
N623 N 0.58939 0.68597 0.52383 0.0
C624 C 0.65792 0.71836 0.52027 0.0
C625 C 0.69361 0.70103 0.542 0.0
C626 C 0.94008 0.68394 0.02626 0.0
C627 C 0.93792 0.70826 0.99646 0.0
C628 C -0.00364 0.71844 0.0457 0.0
C629 C 0.05278 0.77951 0.03652 0.0
H630 H 0.90027 0.63485 0.03402 0.0
H631 H -0.0015 0.69312 0.06645 0.0
S632 S 0.06329 0.87836 0.96698 0.0
N633 N 0.99064 0.80662 0.96267 0.0
N634 N 0.09676 0.87153 0.99963 0.0
C635 C 0.04767 0.80925 0.00898 0.0
C636 C 0.99026 0.77379 0.98883 0.0
C637 C 0.28035 0.00476 0.47479 0.0
C638 C 0.21488 0.95022 0.47999 0.0
C639 C 0.31436 0.05508 0.49695 0.0
C640 C 0.28419 0.05521 0.52531 0.0
H641 H 0.30846 0.00555 0.45467 0.0
H642 H 0.36655 0.09264 0.49205 0.0
S643 S 0.10417 0.93575 0.54461 0.0
N644 N 0.11566 0.90586 0.51209 0.0
N645 N 0.17754 0.00357 0.55353 0.0
C646 C 0.21544 0.00523 0.5292 0.0
C647 C 0.18136 0.9525 0.50656 0.0
loop_
_geom_bond_atom_site_label_1
_geom_bond_atom_site_label_2
_geom_bond_distance
_geom_bond_site_symmetry_2
_ccdc_geom_bond_type
O0 Mn1 2.163 . S
O0 C14 1.244 . S
Mn1 O0 2.163 . S
Mn1 O4 2.160 . S
Mn1 O5 2.221 . S
Mn1 O7 2.163 . S
Mn1 O9 2.160 . S
Mn1 O19 2.221 . S
O2 Mn3 2.087 . S
O2 C14 1.256 . S
Mn3 O2 2.087 . S
Mn3 O10 2.089 . S
Mn3 O19 2.290 . S
Mn3 O20 2.251 . S
O4 Mn1 2.160 . S
O4 C15 1.239 . S
O5 Mn1 2.221 . S
O5 Mn6 2.290 . S
O5 C16 1.278 . S
Mn6 O5 2.290 . S
Mn6 O8 2.089 . S
Mn6 O11 2.251 . S
Mn6 O12 2.087 . S
O7 Mn1 2.163 . S
O7 C17 1.244 . S
O8 Mn6 2.089 . S
O8 C15 1.256 . S
O9 Mn1 2.160 . S
O9 C18 1.239 . S
O10 Mn3 2.089 . S
O10 C18 1.256 . S
O11 Mn6 2.251 . S
O11 C16 1.241 . S
O12 Mn6 2.087 . S
O12 C17 1.256 . S
C13 O19 1.278 . S
C13 O20 1.241 . S
C14 O0 1.244 . S
C14 O2 1.256 . S
C15 O4 1.239 . S
C15 O8 1.256 . S
C16 O5 1.278 . S
C16 O11 1.241 . S
C17 O7 1.244 . S
C17 O12 1.256 . S
C18 O9 1.239 . S
C18 O10 1.256 . S
O19 Mn1 2.221 . S
O19 Mn3 2.290 . S
O19 C13 1.278 . S
O20 Mn3 2.251 . S
O20 C13 1.241 . S
O21 Mn22 2.163 . S
O21 C35 1.244 . S
Mn22 O21 2.163 . S
Mn22 O25 2.160 . S
Mn22 O26 2.221 . S
Mn22 O28 2.163 . S
Mn22 O30 2.160 . S
Mn22 O40 2.221 . S
O23 Mn24 2.087 . S
O23 C35 1.256 . S
Mn24 O23 2.087 . S
Mn24 O31 2.089 . S
Mn24 O40 2.290 . S
Mn24 O41 2.251 . S
O25 Mn22 2.160 . S
O25 C36 1.239 . S
O26 Mn22 2.221 . S
O26 Mn27 2.290 . S
O26 C37 1.278 . S
Mn27 O26 2.290 . S
Mn27 O29 2.089 . S
Mn27 O32 2.251 . S
Mn27 O33 2.087 . S
O28 Mn22 2.163 . S
O28 C38 1.244 . S
O29 Mn27 2.089 . S
O29 C36 1.256 . S
O30 Mn22 2.160 . S
O30 C39 1.239 . S
O31 Mn24 2.089 . S
O31 C39 1.256 . S
O32 Mn27 2.251 . S
O32 C37 1.241 . S
O33 Mn27 2.087 . S
O33 C38 1.256 . S
C34 O40 1.278 . S
C34 O41 1.241 . S
C35 O21 1.244 . S
C35 O23 1.256 . S
C36 O25 1.239 . S
C36 O29 1.256 . S
C37 O26 1.278 . S
C37 O32 1.241 . S
C38 O28 1.244 . S
C38 O33 1.256 . S
C39 O30 1.239 . S
C39 O31 1.256 . S
O40 Mn22 2.221 . S
O40 Mn24 2.290 . S
O40 C34 1.278 . S
O41 Mn24 2.251 . S
O41 C34 1.241 . S
O42 Mn43 2.163 . S
O42 C56 1.244 . S
Mn43 O42 2.163 . S
Mn43 O46 2.160 . S
Mn43 O47 2.221 . S
Mn43 O49 2.163 . S
Mn43 O51 2.160 . S
Mn43 O61 2.221 . S
O44 Mn45 2.087 . S
O44 C56 1.256 . S
Mn45 O44 2.087 . S
Mn45 O52 2.089 . S
Mn45 O61 2.290 . S
Mn45 O62 2.251 . S
O46 Mn43 2.160 . S
O46 C57 1.239 . S
O47 Mn43 2.221 . S
O47 Mn48 2.290 . S
O47 C58 1.278 . S
Mn48 O47 2.290 . S
Mn48 O50 2.089 . S
Mn48 O53 2.251 . S
Mn48 O54 2.087 . S
O49 Mn43 2.163 . S
O49 C59 1.244 . S
O50 Mn48 2.089 . S
O50 C57 1.256 . S
O51 Mn43 2.160 . S
O51 C60 1.239 . S
O52 Mn45 2.089 . S
O52 C60 1.256 . S
O53 Mn48 2.251 . S
O53 C58 1.241 . S
O54 Mn48 2.087 . S
O54 C59 1.256 . S
C55 O61 1.278 . S
C55 O62 1.241 . S
C56 O42 1.244 . S
C56 O44 1.256 . S
C57 O46 1.239 . S
C57 O50 1.256 . S
C58 O47 1.278 . S
C58 O53 1.241 . S
C59 O49 1.244 . S
C59 O54 1.256 . S
C60 O51 1.239 . S
C60 O52 1.256 . S
O61 Mn43 2.221 . S
O61 Mn45 2.290 . S
O61 C55 1.278 . S
O62 Mn45 2.251 . S
O62 C55 1.241 . S
O63 Mn64 2.163 . S
O63 C77 1.244 . S
Mn64 O63 2.163 . S
Mn64 O67 2.160 . S
Mn64 O68 2.221 . S
Mn64 O70 2.163 . S
Mn64 O72 2.160 . S
Mn64 O82 2.221 . S
O65 Mn66 2.087 . S
O65 C77 1.256 . S
Mn66 O65 2.087 . S
Mn66 O73 2.089 . S
Mn66 O82 2.290 . S
Mn66 O83 2.251 . S
O67 Mn64 2.160 . S
O67 C78 1.239 . S
O68 Mn64 2.221 . S
O68 Mn69 2.290 . S
O68 C79 1.278 . S
Mn69 O68 2.290 . S
Mn69 O71 2.089 . S
Mn69 O74 2.251 . S
Mn69 O75 2.087 . S
O70 Mn64 2.163 . S
O70 C80 1.244 . S
O71 Mn69 2.089 . S
O71 C78 1.256 . S
O72 Mn64 2.160 . S
O72 C81 1.239 . S
O73 Mn66 2.089 . S
O73 C81 1.256 . S
O74 Mn69 2.251 . S
O74 C79 1.241 . S
O75 Mn69 2.087 . S
O75 C80 1.256 . S
C76 O82 1.278 . S
C76 O83 1.241 . S
C77 O63 1.244 . S
C77 O65 1.256 . S
C78 O67 1.239 . S
C78 O71 1.256 . S
C79 O68 1.278 . S
C79 O74 1.241 . S
C80 O70 1.244 . S
C80 O75 1.256 . S
C81 O72 1.239 . S
C81 O73 1.256 . S
O82 Mn64 2.221 . S
O82 Mn66 2.290 . S
O82 C76 1.278 . S
O83 Mn66 2.251 . S
O83 C76 1.241 . S
O84 Mn85 2.163 . S
O84 C98 1.244 . S
Mn85 O84 2.163 . S
Mn85 O88 2.160 . S
Mn85 O89 2.221 . S
Mn85 O91 2.163 . S
Mn85 O93 2.160 . S
Mn85 O103 2.221 . S
O86 Mn87 2.087 . S
O86 C98 1.256 . S
Mn87 O86 2.087 . S
Mn87 O94 2.089 . S
Mn87 O103 2.290 . S
Mn87 O104 2.251 . S
O88 Mn85 2.160 . S
O88 C99 1.239 . S
O89 Mn85 2.221 . S
O89 Mn90 2.290 . S
O89 C100 1.278 . S
Mn90 O89 2.290 . S
Mn90 O92 2.089 . S
Mn90 O95 2.251 . S
Mn90 O96 2.087 . S
O91 Mn85 2.163 . S
O91 C101 1.244 . S
O92 Mn90 2.089 . S
O92 C99 1.256 . S
O93 Mn85 2.160 . S
O93 C102 1.239 . S
O94 Mn87 2.089 . S
O94 C102 1.256 . S
O95 Mn90 2.251 . S
O95 C100 1.241 . S
O96 Mn90 2.087 . S
O96 C101 1.256 . S
C97 O103 1.278 . S
C97 O104 1.241 . S
C98 O84 1.244 . S
C98 O86 1.256 . S
C99 O88 1.239 . S
C99 O92 1.256 . S
C100 O89 1.278 . S
C100 O95 1.241 . S
C101 O91 1.244 . S
C101 O96 1.256 . S
C102 O93 1.239 . S
C102 O94 1.256 . S
O103 Mn85 2.221 . S
O103 Mn87 2.290 . S
O103 C97 1.278 . S
O104 Mn87 2.251 . S
O104 C97 1.241 . S
O105 Mn106 2.163 . S
O105 C119 1.244 . S
Mn106 O105 2.163 . S
Mn106 O109 2.160 . S
Mn106 O110 2.221 . S
Mn106 O112 2.163 . S
Mn106 O114 2.160 . S
Mn106 O124 2.221 . S
O107 Mn108 2.087 . S
O107 C119 1.256 . S
Mn108 O107 2.087 . S
Mn108 O115 2.089 . S
Mn108 O124 2.290 . S
Mn108 O125 2.251 . S
O109 Mn106 2.160 . S
O109 C120 1.239 . S
O110 Mn106 2.221 . S
O110 Mn111 2.290 . S
O110 C121 1.278 . S
Mn111 O110 2.290 . S
Mn111 O113 2.089 . S
Mn111 O116 2.251 . S
Mn111 O117 2.087 . S
O112 Mn106 2.163 . S
O112 C122 1.244 . S
O113 Mn111 2.089 . S
O113 C120 1.256 . S
O114 Mn106 2.160 . S
O114 C123 1.239 . S
O115 Mn108 2.089 . S
O115 C123 1.256 . S
O116 Mn111 2.251 . S
O116 C121 1.241 . S
O117 Mn111 2.087 . S
O117 C122 1.256 . S
C118 O124 1.278 . S
C118 O125 1.241 . S
C119 O105 1.244 . S
C119 O107 1.256 . S
C120 O109 1.239 . S
C120 O113 1.256 . S
C121 O110 1.278 . S
C121 O116 1.241 . S
C122 O112 1.244 . S
C122 O117 1.256 . S
C123 O114 1.239 . S
C123 O115 1.256 . S
O124 Mn106 2.221 . S
O124 Mn108 2.290 . S
O124 C118 1.278 . S
O125 Mn108 2.251 . S
O125 C118 1.241 . S
O126 Mn127 2.163 . S
O126 C140 1.244 . S
Mn127 O126 2.163 . S
Mn127 O130 2.160 . S
Mn127 O131 2.221 . S
Mn127 O133 2.163 . S
Mn127 O135 2.160 . S
Mn127 O145 2.221 . S
O128 Mn129 2.087 . S
O128 C140 1.256 . S
Mn129 O128 2.087 . S
Mn129 O136 2.089 . S
Mn129 O145 2.290 . S
Mn129 O146 2.251 . S
O130 Mn127 2.160 . S
O130 C141 1.239 . S
O131 Mn127 2.221 . S
O131 Mn132 2.290 . S
O131 C142 1.278 . S
Mn132 O131 2.290 . S
Mn132 O134 2.089 . S
Mn132 O137 2.251 . S
Mn132 O138 2.087 . S
O133 Mn127 2.163 . S
O133 C143 1.244 . S
O134 Mn132 2.089 . S
O134 C141 1.256 . S
O135 Mn127 2.160 . S
O135 C144 1.239 . S
O136 Mn129 2.089 . S
O136 C144 1.256 . S
O137 Mn132 2.251 . S
O137 C142 1.241 . S
O138 Mn132 2.087 . S
O138 C143 1.256 . S
C139 O145 1.278 . S
C139 O146 1.241 . S
C140 O126 1.244 . S
C140 O128 1.256 . S
C141 O130 1.239 . S
C141 O134 1.256 . S
C142 O131 1.278 . S
C142 O137 1.241 . S
C143 O133 1.244 . S
C143 O138 1.256 . S
C144 O135 1.239 . S
C144 O136 1.256 . S
O145 Mn127 2.221 . S
O145 Mn129 2.290 . S
O145 C139 1.278 . S
O146 Mn129 2.251 . S
O146 C139 1.241 . S
O147 Mn148 2.163 . S
O147 C161 1.244 . S
Mn148 O147 2.163 . S
Mn148 O151 2.160 . S
Mn148 O152 2.221 . S
Mn148 O154 2.163 . S
Mn148 O156 2.160 . S
Mn148 O166 2.221 . S
O149 Mn150 2.087 . S
O149 C161 1.256 . S
Mn150 O149 2.087 . S
Mn150 O157 2.089 . S
Mn150 O166 2.290 . S
Mn150 O167 2.251 . S
O151 Mn148 2.160 . S
O151 C162 1.239 . S
O152 Mn148 2.221 . S
O152 Mn153 2.290 . S
O152 C163 1.278 . S
Mn153 O152 2.290 . S
Mn153 O155 2.089 . S
Mn153 O158 2.251 . S
Mn153 O159 2.087 . S
O154 Mn148 2.163 . S
O154 C164 1.244 . S
O155 Mn153 2.089 . S
O155 C162 1.256 . S
O156 Mn148 2.160 . S
O156 C165 1.239 . S
O157 Mn150 2.089 . S
O157 C165 1.256 . S
O158 Mn153 2.251 . S
O158 C163 1.241 . S
O159 Mn153 2.087 . S
O159 C164 1.256 . S
C160 O166 1.278 . S
C160 O167 1.241 . S
C161 O147 1.244 . S
C161 O149 1.256 . S
C162 O151 1.239 . S
C162 O155 1.256 . S
C163 O152 1.278 . S
C163 O158 1.241 . S
C164 O154 1.244 . S
C164 O159 1.256 . S
C165 O156 1.239 . S
C165 O157 1.256 . S
O166 Mn148 2.221 . S
O166 Mn150 2.290 . S
O166 C160 1.278 . S
O167 Mn150 2.251 . S
O167 C160 1.241 . S
O168 Mn169 2.163 . S
O168 C182 1.244 . S
Mn169 O168 2.163 . S
Mn169 O172 2.160 . S
Mn169 O173 2.221 . S
Mn169 O175 2.163 . S
Mn169 O177 2.160 . S
Mn169 O187 2.221 . S
O170 Mn171 2.087 . S
O170 C182 1.256 . S
Mn171 O170 2.087 . S
Mn171 O178 2.089 . S
Mn171 O187 2.290 . S
Mn171 O188 2.251 . S
O172 Mn169 2.160 . S
O172 C183 1.239 . S
O173 Mn169 2.221 . S
O173 Mn174 2.290 . S
O173 C184 1.278 . S
Mn174 O173 2.290 . S
Mn174 O176 2.089 . S
Mn174 O179 2.251 . S
Mn174 O180 2.087 . S
O175 Mn169 2.163 . S
O175 C185 1.244 . S
O176 Mn174 2.089 . S
O176 C183 1.256 . S
O177 Mn169 2.160 . S
O177 C186 1.239 . S
O178 Mn171 2.089 . S
O178 C186 1.256 . S
O179 Mn174 2.251 . S
O179 C184 1.241 . S
O180 Mn174 2.087 . S
O180 C185 1.256 . S
C181 O187 1.278 . S
C181 O188 1.241 . S
C182 O168 1.244 . S
C182 O170 1.256 . S
C183 O172 1.239 . S
C183 O176 1.256 . S
C184 O173 1.278 . S
C184 O179 1.241 . S
C185 O175 1.244 . S
C185 O180 1.256 . S
C186 O177 1.239 . S
C186 O178 1.256 . S
O187 Mn169 2.221 . S
O187 Mn171 2.290 . S
O187 C181 1.278 . S
O188 Mn171 2.251 . S
O188 C181 1.241 . S
O189 Mn190 2.163 . S
O189 C203 1.244 . S
Mn190 O189 2.163 . S
Mn190 O193 2.160 . S
Mn190 O194 2.221 . S
Mn190 O196 2.163 . S
Mn190 O198 2.160 . S
Mn190 O208 2.221 . S
O191 Mn192 2.087 . S
O191 C203 1.256 . S
Mn192 O191 2.087 . S
Mn192 O199 2.089 . S
Mn192 O208 2.290 . S
Mn192 O209 2.251 . S
O193 Mn190 2.160 . S
O193 C204 1.239 . S
O194 Mn190 2.221 . S
O194 Mn195 2.290 . S
O194 C205 1.278 . S
Mn195 O194 2.290 . S
Mn195 O197 2.089 . S
Mn195 O200 2.251 . S
Mn195 O201 2.087 . S
O196 Mn190 2.163 . S
O196 C206 1.244 . S
O197 Mn195 2.089 . S
O197 C204 1.256 . S
O198 Mn190 2.160 . S
O198 C207 1.239 . S
O199 Mn192 2.089 . S
O199 C207 1.256 . S
O200 Mn195 2.251 . S
O200 C205 1.241 . S
O201 Mn195 2.087 . S
O201 C206 1.256 . S
C202 O208 1.278 . S
C202 O209 1.241 . S
C203 O189 1.244 . S
C203 O191 1.256 . S
C204 O193 1.239 . S
C204 O197 1.256 . S
C205 O194 1.278 . S
C205 O200 1.241 . S
C206 O196 1.244 . S
C206 O201 1.256 . S
C207 O198 1.239 . S
C207 O199 1.256 . S
O208 Mn190 2.221 . S
O208 Mn192 2.290 . S
O208 C202 1.278 . S
O209 Mn192 2.251 . S
O209 C202 1.241 . S
O210 Mn211 2.163 . S
O210 C224 1.244 . S
Mn211 O210 2.163 . S
Mn211 O214 2.160 . S
Mn211 O215 2.221 . S
Mn211 O217 2.163 . S
Mn211 O219 2.160 . S
Mn211 O229 2.221 . S
O212 Mn213 2.087 . S
O212 C224 1.256 . S
Mn213 O212 2.087 . S
Mn213 O220 2.089 . S
Mn213 O229 2.290 . S
Mn213 O230 2.251 . S
O214 Mn211 2.160 . S
O214 C225 1.239 . S
O215 Mn211 2.221 . S
O215 Mn216 2.290 . S
O215 C226 1.278 . S
Mn216 O215 2.290 . S
Mn216 O218 2.089 . S
Mn216 O221 2.251 . S
Mn216 O222 2.087 . S
O217 Mn211 2.163 . S
O217 C227 1.244 . S
O218 Mn216 2.089 . S
O218 C225 1.256 . S
O219 Mn211 2.160 . S
O219 C228 1.239 . S
O220 Mn213 2.089 . S
O220 C228 1.256 . S
O221 Mn216 2.251 . S
O221 C226 1.241 . S
O222 Mn216 2.087 . S
O222 C227 1.256 . S
C223 O229 1.278 . S
C223 O230 1.241 . S
C224 O210 1.244 . S
C224 O212 1.256 . S
C225 O214 1.239 . S
C225 O218 1.256 . S
C226 O215 1.278 . S
C226 O221 1.241 . S
C227 O217 1.244 . S
C227 O222 1.256 . S
C228 O219 1.239 . S
C228 O220 1.256 . S
O229 Mn211 2.221 . S
O229 Mn213 2.290 . S
O229 C223 1.278 . S
O230 Mn213 2.251 . S
O230 C223 1.241 . S
O231 Mn232 2.163 . S
O231 C245 1.244 . S
Mn232 O231 2.163 . S
Mn232 O235 2.160 . S
Mn232 O236 2.221 . S
Mn232 O238 2.163 . S
Mn232 O240 2.160 . S
Mn232 O250 2.221 . S
O233 Mn234 2.087 . S
O233 C245 1.256 . S
Mn234 O233 2.087 . S
Mn234 O241 2.089 . S
Mn234 O250 2.290 . S
Mn234 O251 2.251 . S
O235 Mn232 2.160 . S
O235 C246 1.239 . S
O236 Mn232 2.221 . S
O236 Mn237 2.290 . S
O236 C247 1.278 . S
Mn237 O236 2.290 . S
Mn237 O239 2.089 . S
Mn237 O242 2.251 . S
Mn237 O243 2.087 . S
O238 Mn232 2.163 . S
O238 C248 1.244 . S
O239 Mn237 2.089 . S
O239 C246 1.256 . S
O240 Mn232 2.160 . S
O240 C249 1.239 . S
O241 Mn234 2.089 . S
O241 C249 1.256 . S
O242 Mn237 2.251 . S
O242 C247 1.241 . S
O243 Mn237 2.087 . S
O243 C248 1.256 . S
C244 O250 1.278 . S
C244 O251 1.241 . S
C245 O231 1.244 . S
C245 O233 1.256 . S
C246 O235 1.239 . S
C246 O239 1.256 . S
C247 O236 1.278 . S
C247 O242 1.241 . S
C248 O238 1.244 . S
C248 O243 1.256 . S
C249 O240 1.239 . S
C249 O241 1.256 . S
O250 Mn232 2.221 . S
O250 Mn234 2.290 . S
O250 C244 1.278 . S
O251 Mn234 2.251 . S
O251 C244 1.241 . S
C252 C253 1.369 . S
C252 C254 1.419 . S
C252 H256 0.930 . S
C253 C252 1.369 . S
C253 C262 1.429 . S
C254 C252 1.419 . S
C254 C255 1.363 . S
C254 H257 0.929 . S
C255 C254 1.363 . S
C255 C261 1.428 . S
H256 C252 0.930 . S
H257 C254 0.929 . S
S258 N259 1.613 1_545 S
S258 N260 1.610 . S
N259 S258 1.613 1_565 S
N259 C262 1.350 1_565 S
N260 S258 1.610 . S
N260 C261 1.351 . S
C261 C255 1.428 . S
C261 N260 1.351 . S
C261 C262 1.434 . S
C262 C253 1.429 . S
C262 N259 1.350 1_545 S
C262 C261 1.434 . S
C263 C264 1.369 . S
C263 C265 1.419 . S
C263 H267 0.930 . S
C264 C263 1.369 . S
C264 C273 1.429 . S
C265 C263 1.419 . S
C265 C266 1.363 . S
C265 H268 0.929 . S
C266 C265 1.363 . S
C266 C272 1.428 . S
H267 C263 0.930 . S
H268 C265 0.929 . S
S269 N270 1.613 . S
S269 N271 1.610 . S
N270 S269 1.613 . S
N270 C273 1.350 . S
N271 S269 1.610 . S
N271 C272 1.351 . S
C272 C266 1.428 . S
C272 N271 1.351 . S
C272 C273 1.434 . S
C273 C264 1.429 . S
C273 N270 1.350 . S
C273 C272 1.434 . S
C274 C275 1.369 . S
C274 C276 1.419 . S
C274 H278 0.931 . S
C275 C274 1.369 . S
C275 C284 1.429 . S
C276 C274 1.419 . S
C276 C277 1.363 . S
C276 H279 0.937 . S
C277 C276 1.363 . S
C277 C283 1.428 . S
H278 C274 0.931 . S
H279 C276 0.937 . S
S280 N281 1.613 . S
S280 N282 1.610 . S
N281 S280 1.613 . S
N281 C284 1.350 . S
N282 S280 1.610 . S
N282 C283 1.351 . S
C283 C277 1.428 . S
C283 N282 1.351 . S
C283 C284 1.434 . S
C284 C275 1.429 . S
C284 N281 1.350 . S
C284 C283 1.434 . S
C285 C286 1.369 . S
C285 C287 1.419 . S
C285 H289 0.930 . S
C286 C285 1.369 . S
C286 C295 1.429 . S
C287 C285 1.419 . S
C287 C288 1.363 . S
C287 H290 0.929 . S
C288 C287 1.363 . S
C288 C294 1.428 . S
H289 C285 0.930 . S
H290 C287 0.929 . S
S291 N292 1.613 . S
S291 N293 1.610 . S
N292 S291 1.613 . S
N292 C295 1.350 . S
N293 S291 1.610 . S
N293 C294 1.351 . S
C294 C288 1.428 . S
C294 N293 1.351 . S
C294 C295 1.434 . S
C295 C286 1.429 . S
C295 N292 1.350 . S
C295 C294 1.434 . S
C296 C297 1.369 . S
C296 C298 1.419 . S
C296 H300 0.933 . S
C297 C296 1.369 . S
C297 C306 1.429 . S
C298 C296 1.419 . S
C298 C299 1.363 . S
C298 H301 0.929 . S
C299 C298 1.363 . S
C299 C305 1.428 . S
H300 C296 0.933 . S
H301 C298 0.929 . S
S302 N303 1.613 . S
S302 N304 1.610 . S
N303 S302 1.613 . S
N303 C306 1.350 . S
N304 S302 1.610 . S
N304 C305 1.351 . S
C305 C299 1.428 . S
C305 N304 1.351 . S
C305 C306 1.434 . S
C306 C297 1.429 . S
C306 N303 1.350 . S
C306 C305 1.434 . S
C307 C308 1.369 . S
C307 C309 1.419 . S
C307 H311 0.930 . S
C308 C307 1.369 . S
C308 C317 1.429 . S
C309 C307 1.419 . S
C309 C310 1.363 . S
C309 H312 0.929 1_565 S
C310 C309 1.363 . S
C310 C316 1.428 . S
H311 C307 0.930 . S
H312 C309 0.929 1_545 S
S313 N314 1.613 . S
S313 N315 1.610 . S
N314 S313 1.613 . S
N314 C317 1.350 . S
N315 S313 1.610 . S
N315 C316 1.351 . S
C316 C310 1.428 . S
C316 N315 1.351 . S
C316 C317 1.434 . S
C317 C308 1.429 . S
C317 N314 1.350 . S
C317 C316 1.434 . S
C318 C319 1.369 . S
C318 C320 1.419 . S
C318 H322 0.930 . S
C319 C318 1.369 . S
C319 C328 1.429 . S
C320 C318 1.419 . S
C320 C321 1.363 . S
C320 H323 0.929 . S
C321 C320 1.363 . S
C321 C327 1.428 . S
H322 C318 0.930 . S
H323 C320 0.929 . S
S324 N325 1.613 . S
S324 N326 1.610 . S
N325 S324 1.613 . S
N325 C328 1.350 . S
N326 S324 1.610 . S
N326 C327 1.351 . S
C327 C321 1.428 . S
C327 N326 1.351 . S
C327 C328 1.434 . S
C328 C319 1.429 . S
C328 N325 1.350 . S
C328 C327 1.434 . S
C329 C330 1.369 . S
C329 C331 1.419 . S
C329 H333 0.930 . S
C330 C329 1.369 . S
C330 C339 1.429 . S
C331 C329 1.419 . S
C331 C332 1.363 . S
C331 H334 0.929 . S
C332 C331 1.363 . S
C332 C338 1.428 . S
H333 C329 0.930 . S
H334 C331 0.929 . S
S335 N336 1.613 . S
S335 N337 1.610 1_565 S
N336 S335 1.613 . S
N336 C339 1.350 . S
N337 S335 1.610 1_545 S
N337 C338 1.351 1_545 S
C338 C332 1.428 . S
C338 N337 1.351 1_565 S
C338 C339 1.434 . S
C339 C330 1.429 . S
C339 N336 1.350 . S
C339 C338 1.434 . S
C340 C341 1.369 . S
C340 C342 1.419 . S
C340 H344 0.930 . S
C341 C340 1.369 . S
C341 C350 1.429 . S
C342 C340 1.419 . S
C342 C343 1.363 . S
C342 H345 0.929 . S
C343 C342 1.363 . S
C343 C349 1.428 . S
H344 C340 0.930 . S
H345 C342 0.929 . S
S346 N347 1.613 . S
S346 N348 1.610 . S
N347 S346 1.613 . S
N347 C350 1.350 . S
N348 S346 1.610 . S
N348 C349 1.351 . S
C349 C343 1.428 . S
C349 N348 1.351 . S
C349 C350 1.434 . S
C350 C341 1.429 . S
C350 N347 1.350 . S
C350 C349 1.434 . S
C351 C352 1.369 . S
C351 C353 1.419 . S
C351 H355 0.930 . S
C352 C351 1.369 . S
C352 C361 1.429 . S
C353 C351 1.419 . S
C353 C354 1.363 . S
C353 H356 0.929 . S
C354 C353 1.363 . S
C354 C360 1.428 . S
H355 C351 0.930 . S
H356 C353 0.929 . S
S357 N358 1.613 . S
S357 N359 1.610 . S
N358 S357 1.613 . S
N358 C361 1.350 . S
N359 S357 1.610 . S
N359 C360 1.351 . S
C360 C354 1.428 . S
C360 N359 1.351 . S
C360 C361 1.434 . S
C361 C352 1.429 . S
C361 N358 1.350 . S
C361 C360 1.434 . S
C362 C363 1.369 . S
C362 C364 1.419 . S
C362 H366 0.930 . S
C363 C362 1.369 . S
C363 C372 1.429 . S
C364 C362 1.419 . S
C364 C365 1.363 . S
C364 H367 0.929 . S
C365 C364 1.363 . S
C365 C371 1.428 . S
H366 C362 0.930 . S
H367 C364 0.929 . S
S368 N369 1.613 . S
S368 N370 1.610 . S
N369 S368 1.613 . S
N369 C372 1.350 . S
N370 S368 1.610 . S
N370 C371 1.351 . S
C371 C365 1.428 . S
C371 N370 1.351 . S
C371 C372 1.434 . S
C372 C363 1.429 . S
C372 N369 1.350 . S
C372 C371 1.434 . S
C373 C374 1.369 . S
C373 C375 1.419 . S
C373 H377 0.930 . S
C374 C373 1.369 . S
C374 C383 1.429 . S
C375 C373 1.419 . S
C375 C376 1.363 . S
C375 H378 0.926 1_565 S
C376 C375 1.363 . S
C376 C382 1.428 . S
H377 C373 0.930 . S
H378 C375 0.926 1_545 S
S379 N380 1.613 . S
S379 N381 1.610 . S
N380 S379 1.613 . S
N380 C383 1.350 . S
N381 S379 1.610 . S
N381 C382 1.351 . S
C382 C376 1.428 . S
C382 N381 1.351 . S
C382 C383 1.434 . S
C383 C374 1.429 . S
C383 N380 1.350 . S
C383 C382 1.434 . S
C384 C385 1.369 . S
C384 C386 1.419 . S
C384 H388 0.930 . S
C385 C384 1.369 . S
C385 C394 1.429 . S
C386 C384 1.419 . S
C386 C387 1.363 . S
C386 H389 0.929 . S
C387 C386 1.363 . S
C387 C393 1.428 . S
H388 C384 0.930 . S
H389 C386 0.929 . S
S390 N391 1.613 1_655 S
S390 N392 1.610 1_655 S
N391 S390 1.613 1_455 S
N391 C394 1.350 . S
N392 S390 1.610 1_455 S
N392 C393 1.351 . S
C393 C387 1.428 . S
C393 N392 1.351 . S
C393 C394 1.434 . S
C394 C385 1.429 . S
C394 N391 1.350 . S
C394 C393 1.434 . S
C395 C396 1.369 . S
C395 C397 1.419 . S
C395 H399 0.930 . S
C396 C395 1.369 . S
C396 C405 1.429 . S
C397 C395 1.419 . S
C397 C398 1.363 . S
C397 H400 0.929 . S
C398 C397 1.363 . S
C398 C404 1.428 . S
H399 C395 0.930 . S
H400 C397 0.929 . S
S401 N402 1.613 1_565 S
S401 N403 1.610 1_565 S
N402 S401 1.613 1_545 S
N402 C405 1.350 . S
N403 S401 1.610 1_545 S
N403 C404 1.351 . S
C404 C398 1.428 . S
C404 N403 1.351 . S
C404 C405 1.434 . S
C405 C396 1.429 . S
C405 N402 1.350 . S
C405 C404 1.434 . S
C406 C407 1.369 . S
C406 C408 1.419 . S
C406 H410 0.930 . S
C407 C406 1.369 . S
C407 C416 1.429 . S
C408 C406 1.419 . S
C408 C409 1.363 . S
C408 H411 0.929 . S
C409 C408 1.363 . S
C409 C415 1.428 . S
H410 C406 0.930 . S
H411 C408 0.929 . S
S412 N413 1.613 . S
S412 N414 1.610 . S
N413 S412 1.613 . S
N413 C416 1.350 . S
N414 S412 1.610 . S
N414 C415 1.351 . S
C415 C409 1.428 . S
C415 N414 1.351 . S
C415 C416 1.434 . S
C416 C407 1.429 . S
C416 N413 1.350 . S
C416 C415 1.434 . S
C417 C418 1.369 . S
C417 C419 1.419 . S
C417 H421 0.930 . S
C418 C417 1.369 . S
C418 C427 1.429 . S
C419 C417 1.419 . S
C419 C420 1.363 . S
C419 H422 0.929 . S
C420 C419 1.363 . S
C420 C426 1.428 . S
H421 C417 0.930 . S
H422 C419 0.929 . S
S423 N424 1.613 . S
S423 N425 1.610 . S
N424 S423 1.613 . S
N424 C427 1.350 . S
N425 S423 1.610 . S
N425 C426 1.351 . S
C426 C420 1.428 . S
C426 N425 1.351 . S
C426 C427 1.434 . S
C427 C418 1.429 . S
C427 N424 1.350 . S
C427 C426 1.434 . S
C428 C429 1.369 . S
C428 C430 1.419 . S
C428 H432 0.930 . S
C429 C428 1.369 . S
C429 C438 1.429 . S
C430 C428 1.419 . S
C430 C431 1.363 . S
C430 H433 0.929 . S
C431 C430 1.363 . S
C431 C437 1.428 . S
H432 C428 0.930 . S
H433 C430 0.929 . S
S434 N435 1.613 . S
S434 N436 1.610 . S
N435 S434 1.613 . S
N435 C438 1.350 . S
N436 S434 1.610 . S
N436 C437 1.351 . S
C437 C431 1.428 . S
C437 N436 1.351 . S
C437 C438 1.434 . S
C438 C429 1.429 . S
C438 N435 1.350 . S
C438 C437 1.434 . S
C439 C440 1.369 . S
C439 C441 1.419 . S
C439 H443 0.930 . S
C440 C439 1.369 . S
C440 C449 1.429 . S
C441 C439 1.419 . S
C441 C442 1.363 . S
C441 H444 0.929 . S
C442 C441 1.363 . S
C442 C448 1.428 . S
H443 C439 0.930 . S
H444 C441 0.929 . S
S445 N446 1.613 . S
S445 N447 1.610 . S
N446 S445 1.613 . S
N446 C449 1.350 . S
N447 S445 1.610 . S
N447 C448 1.351 . S
C448 C442 1.428 . S
C448 N447 1.351 . S
C448 C449 1.434 . S
C449 C440 1.429 . S
C449 N446 1.350 . S
C449 C448 1.434 . S
C450 C451 1.369 . S
C450 C452 1.419 . S
C450 H454 0.930 . S
C451 C450 1.369 . S
C451 C460 1.429 . S
C452 C450 1.419 . S
C452 C453 1.363 . S
C452 H455 0.929 . S
C453 C452 1.363 . S
C453 C459 1.428 . S
H454 C450 0.930 . S
H455 C452 0.929 . S
S456 N457 1.613 . S
S456 N458 1.610 . S
N457 S456 1.613 . S
N457 C460 1.350 . S
N458 S456 1.610 . S
N458 C459 1.351 . S
C459 C453 1.428 . S
C459 N458 1.351 . S
C459 C460 1.434 . S
C460 C451 1.429 . S
C460 N457 1.350 . S
C460 C459 1.434 . S
C461 C462 1.369 . S
C461 C463 1.419 . S
C461 H465 0.930 . S
C462 C461 1.369 . S
C462 C471 1.429 . S
C463 C461 1.419 . S
C463 C464 1.363 . S
C463 H466 0.929 . S
C464 C463 1.363 . S
C464 C470 1.428 . S
H465 C461 0.930 . S
H466 C463 0.929 . S
S467 N468 1.613 . S
S467 N469 1.610 . S
N468 S467 1.613 . S
N468 C471 1.350 . S
N469 S467 1.610 . S
N469 C470 1.351 . S
C470 C464 1.428 . S
C470 N469 1.351 . S
C470 C471 1.434 . S
C471 C462 1.429 . S
C471 N468 1.350 . S
C471 C470 1.434 . S
C472 C473 1.369 . S
C472 C474 1.419 . S
C472 H476 0.930 . S
C473 C472 1.369 . S
C473 C482 1.429 . S
C474 C472 1.419 . S
C474 C475 1.363 . S
C474 H477 0.929 . S
C475 C474 1.363 . S
C475 C481 1.428 . S
H476 C472 0.930 . S
H477 C474 0.929 . S
S478 N479 1.613 . S
S478 N480 1.610 . S
N479 S478 1.613 . S
N479 C482 1.350 . S
N480 S478 1.610 . S
N480 C481 1.351 . S
C481 C475 1.428 . S
C481 N480 1.351 . S
C481 C482 1.434 . S
C482 C473 1.429 . S
C482 N479 1.350 . S
C482 C481 1.434 . S
C483 C484 1.369 . S
C483 C485 1.419 . S
C483 H487 0.930 . S
C484 C483 1.369 . S
C484 C493 1.429 . S
C485 C483 1.419 . S
C485 C486 1.363 . S
C485 H488 0.929 . S
C486 C485 1.363 . S
C486 C492 1.428 . S
H487 C483 0.930 . S
H488 C485 0.929 . S
S489 N490 1.613 . S
S489 N491 1.610 . S
N490 S489 1.613 . S
N490 C493 1.350 . S
N491 S489 1.610 . S
N491 C492 1.351 . S
C492 C486 1.428 . S
C492 N491 1.351 . S
C492 C493 1.434 . S
C493 C484 1.429 . S
C493 N490 1.350 . S
C493 C492 1.434 . S
C494 C495 1.369 . S
C494 C496 1.419 . S
C494 H498 0.930 . S
C495 C494 1.369 . S
C495 C504 1.429 . S
C496 C494 1.419 . S
C496 C497 1.363 . S
C496 H499 0.929 . S
C497 C496 1.363 . S
C497 C503 1.428 . S
H498 C494 0.930 . S
H499 C496 0.929 . S
S500 N501 1.613 . S
S500 N502 1.610 . S
N501 S500 1.613 . S
N501 C504 1.350 . S
N502 S500 1.610 . S
N502 C503 1.351 . S
C503 C497 1.428 . S
C503 N502 1.351 . S
C503 C504 1.434 . S
C504 C495 1.429 . S
C504 N501 1.350 . S
C504 C503 1.434 . S
C505 C506 1.369 . S
C505 C507 1.419 . S
C505 H509 0.930 . S
C506 C505 1.369 . S
C506 C515 1.429 . S
C507 C505 1.419 . S
C507 C508 1.363 . S
C507 H510 0.929 . S
C508 C507 1.363 . S
C508 C514 1.428 . S
H509 C505 0.930 . S
H510 C507 0.929 . S
S511 N512 1.613 1_455 S
S511 N513 1.610 1_455 S
N512 S511 1.613 1_655 S
N512 C515 1.350 . S
N513 S511 1.610 1_655 S
N513 C514 1.351 . S
C514 C508 1.428 . S
C514 N513 1.351 . S
C514 C515 1.434 . S
C515 C506 1.429 . S
C515 N512 1.350 . S
C515 C514 1.434 . S
C516 C517 1.369 . S
C516 C518 1.419 . S
C516 H520 0.930 . S
C517 C516 1.369 . S
C517 C526 1.429 . S
C518 C516 1.419 . S
C518 C519 1.363 . S
C518 H521 0.929 . S
C519 C518 1.363 . S
C519 C525 1.428 . S
H520 C516 0.930 . S
H521 C518 0.929 . S
S522 N523 1.613 . S
S522 N524 1.610 . S
N523 S522 1.613 . S
N523 C526 1.350 . S
N524 S522 1.610 . S
N524 C525 1.351 . S
C525 C519 1.428 . S
C525 N524 1.351 . S
C525 C526 1.434 . S
C526 C517 1.429 . S
C526 N523 1.350 . S
C526 C525 1.434 . S
C527 C528 1.369 . S
C527 C529 1.419 . S
C527 H531 0.930 . S
C528 C527 1.369 . S
C528 C537 1.429 . S
C529 C527 1.419 . S
C529 C530 1.363 . S
C529 H532 0.929 . S
C530 C529 1.363 . S
C530 C536 1.428 . S
H531 C527 0.930 . S
H532 C529 0.929 . S
S533 N534 1.613 . S
S533 N535 1.610 . S
N534 S533 1.613 . S
N534 C537 1.350 . S
N535 S533 1.610 . S
N535 C536 1.351 . S
C536 C530 1.428 . S
C536 N535 1.351 . S
C536 C537 1.434 . S
C537 C528 1.429 . S
C537 N534 1.350 . S
C537 C536 1.434 . S
C538 C539 1.369 . S
C538 C540 1.419 . S
C538 H542 0.930 . S
C539 C538 1.369 . S
C539 C548 1.429 . S
C540 C538 1.419 . S
C540 C541 1.363 . S
C540 H543 0.929 . S
C541 C540 1.363 . S
C541 C547 1.428 . S
H542 C538 0.930 . S
H543 C540 0.929 . S
S544 N545 1.613 . S
S544 N546 1.610 . S
N545 S544 1.613 . S
N545 C548 1.350 . S
N546 S544 1.610 . S
N546 C547 1.351 . S
C547 C541 1.428 . S
C547 N546 1.351 . S
C547 C548 1.434 . S
C548 C539 1.429 . S
C548 N545 1.350 . S
C548 C547 1.434 . S
C549 C550 1.369 . S
C549 C551 1.419 . S
C549 H553 0.930 . S
C550 C549 1.369 . S
C550 C559 1.429 . S
C551 C549 1.419 . S
C551 C552 1.363 . S
C551 H554 0.929 . S
C552 C551 1.363 . S
C552 C558 1.428 . S
H553 C549 0.930 . S
H554 C551 0.929 . S
S555 N556 1.613 . S
S555 N557 1.610 . S
N556 S555 1.613 . S
N556 C559 1.350 . S
N557 S555 1.610 . S
N557 C558 1.351 . S
C558 C552 1.428 . S
C558 N557 1.351 . S
C558 C559 1.434 . S
C559 C550 1.429 . S
C559 N556 1.350 . S
C559 C558 1.434 . S
C560 C561 1.369 . S
C560 C562 1.419 . S
C560 H564 0.930 . S
C561 C560 1.369 . S
C561 C570 1.429 . S
C562 C560 1.419 . S
C562 C563 1.363 . S
C562 H565 0.929 . S
C563 C562 1.363 . S
C563 C569 1.428 . S
H564 C560 0.930 . S
H565 C562 0.929 . S
S566 N567 1.613 . S
S566 N568 1.610 . S
N567 S566 1.613 . S
N567 C570 1.350 . S
N568 S566 1.610 . S
N568 C569 1.351 . S
C569 C563 1.428 . S
C569 N568 1.351 . S
C569 C570 1.434 . S
C570 C561 1.429 . S
C570 N567 1.350 . S
C570 C569 1.434 . S
C571 C572 1.369 . S
C571 C573 1.419 . S
C571 H575 0.930 . S
C572 C571 1.369 . S
C572 C581 1.429 . S
C573 C571 1.419 . S
C573 C574 1.363 . S
C573 H576 0.929 . S
C574 C573 1.363 . S
C574 C580 1.428 . S
H575 C571 0.930 . S
H576 C573 0.929 . S
S577 N578 1.613 . S
S577 N579 1.610 . S
N578 S577 1.613 . S
N578 C581 1.350 . S
N579 S577 1.610 . S
N579 C580 1.351 . S
C580 C574 1.428 . S
C580 N579 1.351 . S
C580 C581 1.434 . S
C581 C572 1.429 . S
C581 N578 1.350 . S
C581 C580 1.434 . S
C582 C583 1.369 1_554 S
C582 C584 1.419 . S
C582 H586 0.930 . S
C583 C582 1.369 1_556 S
C583 C592 1.429 . S
C584 C582 1.419 . S
C584 C585 1.363 . S
C584 H587 0.929 . S
C585 C584 1.363 . S
C585 C591 1.428 1_554 S
H586 C582 0.930 . S
H587 C584 0.929 . S
S588 N589 1.613 . S
S588 N590 1.610 . S
N589 S588 1.613 . S
N589 C592 1.350 . S
N590 S588 1.610 . S
N590 C591 1.351 . S
C591 C585 1.428 1_556 S
C591 N590 1.351 . S
C591 C592 1.434 . S
C592 C583 1.429 . S
C592 N589 1.350 . S
C592 C591 1.434 . S
C593 C594 1.369 . S
C593 C595 1.419 1_455 S
C593 H597 0.930 . S
C594 C593 1.369 . S
C594 C603 1.429 . S
C595 C593 1.419 1_655 S
C595 C596 1.363 . S
C595 H598 0.929 . S
C596 C595 1.363 . S
C596 C602 1.428 . S
H597 C593 0.930 . S
H598 C595 0.929 . S
S599 N600 1.613 . S
S599 N601 1.610 1_455 S
N600 S599 1.613 . S
N600 C603 1.350 . S
N601 S599 1.610 1_655 S
N601 C602 1.351 . S
C602 C596 1.428 . S
C602 N601 1.351 . S
C602 C603 1.434 1_655 S
C603 C594 1.429 . S
C603 N600 1.350 . S
C603 C602 1.434 1_455 S
C604 C605 1.369 1_556 S
C604 C606 1.419 . S
C604 H608 0.930 . S
C605 C604 1.369 1_554 S
C605 C614 1.429 1_565 S
C606 C604 1.419 . S
C606 C607 1.363 1_565 S
C606 H609 0.929 . S
C607 C606 1.363 1_545 S
C607 C613 1.428 1_556 S
H608 C604 0.930 . S
H609 C606 0.929 . S
S610 N611 1.613 . S
S610 N612 1.610 . S
N611 S610 1.613 . S
N611 C614 1.350 . S
N612 S610 1.610 . S
N612 C613 1.351 . S
C613 C607 1.428 1_554 S
C613 N612 1.351 . S
C613 C614 1.434 . S
C614 C605 1.429 1_545 S
C614 N611 1.350 . S
C614 C613 1.434 . S
C615 C616 1.369 . S
C615 C617 1.419 . S
C615 H619 0.930 . S
C616 C615 1.369 . S
C616 C625 1.429 . S
C617 C615 1.419 . S
C617 C618 1.363 . S
C617 H620 0.929 . S
C618 C617 1.363 . S
C618 C624 1.428 . S
H619 C615 0.930 . S
H620 C617 0.929 . S
S621 N622 1.613 . S
S621 N623 1.610 . S
N622 S621 1.613 . S
N622 C625 1.350 . S
N623 S621 1.610 . S
N623 C624 1.351 . S
C624 C618 1.428 . S
C624 N623 1.351 . S
C624 C625 1.434 . S
C625 C616 1.429 . S
C625 N622 1.350 . S
C625 C624 1.434 . S
C626 C627 1.369 1_554 S
C626 C628 1.419 . S
C626 H630 0.930 . S
C627 C626 1.369 1_556 S
C627 C636 1.429 1_655 S
C628 C626 1.419 . S
C628 C629 1.363 1_655 S
C628 H631 0.929 . S
C629 C628 1.363 1_455 S
C629 C635 1.428 1_554 S
H630 C626 0.930 . S
H631 C628 0.929 . S
S632 N633 1.613 . S
S632 N634 1.610 . S
N633 S632 1.613 . S
N633 C636 1.350 . S
N634 S632 1.610 . S
N634 C635 1.351 . S
C635 C629 1.428 1_556 S
C635 N634 1.351 . S
C635 C636 1.434 . S
C636 C627 1.429 1_455 S
C636 N633 1.350 . S
C636 C635 1.434 . S
C637 C638 1.369 1_545 S
C637 C639 1.419 . S
C637 H641 0.930 . S
C638 C637 1.369 1_565 S
C638 C647 1.429 . S
C639 C637 1.419 . S
C639 C640 1.363 . S
C639 H642 0.929 . S
C640 C639 1.363 . S
C640 C646 1.428 1_545 S
H641 C637 0.930 . S
H642 C639 0.929 . S
S643 N644 1.613 . S
S643 N645 1.610 . S
N644 S643 1.613 . S
N644 C647 1.350 . S
N645 S643 1.610 . S
N645 C646 1.351 . S
C646 C640 1.428 1_565 S
C646 N645 1.351 . S
C646 C647 1.434 . S
C647 C638 1.429 . S
C647 N644 1.350 . S
C647 C646 1.434 . S
C253 C99 1.104 1_545 S
C255 C17 1.154 . S
C264 C120 1.112 . S
C266 C38 1.162 1_455 S
C275 C59 1.163 1_545 S
C277 C15 1.112 1_655 S
C286 C80 1.157 . S
C288 C36 1.111 1_565 S
C297 C101 1.163 1_655 S
C299 C57 1.112 . S
C308 C78 1.102 1_455 S
C310 C122 1.158 1_565 S
C319 C183 1.099 1_655 S
C321 C143 1.155 . S
C330 C164 1.154 1_455 S
C332 C204 1.101 1_565 S
C341 C225 1.115 . S
C343 C185 1.161 1_545 S
C352 C206 1.159 . S
C354 C246 1.113 1_455 S
C363 C227 1.161 1_655 S
C365 C141 1.114 1_545 S
C374 C162 1.101 . S
C376 C248 1.158 1_565 S
C385 C98 1.209 . S
C387 C18 1.306 . S
C396 C39 1.307 . S
C398 C119 1.204 . S
C407 C60 1.301 . S
C409 C14 1.195 . S
C418 C81 1.300 . S
C420 C35 1.198 . S
C429 C56 1.199 . S
C431 C102 1.301 . S
C440 C77 1.193 . S
C442 C123 1.301 . S
C451 C182 1.208 . S
C453 C144 1.304 . S
C462 C165 1.300 . S
C464 C203 1.197 . S
C473 C186 1.300 . S
C475 C224 1.195 . S
C484 C245 1.208 . S
C486 C207 1.304 . S
C495 C228 1.301 . S
C497 C140 1.202 . S
C506 C161 1.209 . S
C508 C249 1.306 . S
C517 C226 1.355 . S
C519 C16 1.353 . S
C528 C37 1.337 . S
C530 C247 1.339 . S
C539 C58 1.341 . S
C541 C142 1.343 . S
C550 C79 1.354 . S
C552 C163 1.352 . S
C561 C100 1.349 . S
C563 C184 1.349 . S
C572 C205 1.352 . S
C574 C121 1.351 . S
C583 C202 1.614 . S
C585 C13 1.614 . S
C594 C223 1.612 . S
C596 C34 1.614 . S
C605 C55 1.616 . S
C607 C244 1.616 . S
C616 C76 1.611 . S
C618 C139 1.612 . S
C627 C160 1.620 . S
C629 C97 1.619 . S
C638 C181 1.623 . S
C640 C118 1.622 . S
