# Generated by pormake.
# Topology lta, (4)-cn, num edge types: 1
# Building blocks:
#     Node 0, Type 0, BuildingBlock: NAHDIM_clean_sbu_0, # of connection points: 4
#     Node 1, Type 0, BuildingBlock: NAHDIM_clean_sbu_0, # of connection points: 4
#     Node 2, Type 0, BuildingBlock: NAHDIM_clean_sbu_0, # of connection points: 4
#     Node 3, Type 0, BuildingBlock: NAHDIM_clean_sbu_0, # of connection points: 4
#     Node 4, Type 0, BuildingBlock: NAHDIM_clean_sbu_0, # of connection points: 4
#     Node 5, Type 0, BuildingBlock: NAHDIM_clean_sbu_0, # of connection points: 4
#     Node 6, Type 0, BuildingBlock: NAHDIM_clean_sbu_0, # of connection points: 4
#     Node 7, Type 0, BuildingBlock: NAHDIM_clean_sbu_0, # of connection points: 4
#     Node 8, Type 0, BuildingBlock: NAHDIM_clean_sbu_0, # of connection points: 4
#     Node 9, Type 0, BuildingBlock: NAHDIM_clean_sbu_0, # of connection points: 4
#     Node 10, Type 0, BuildingBlock: NAHDIM_clean_sbu_0, # of connection points: 4
#     Node 11, Type 0, BuildingBlock: NAHDIM_clean_sbu_0, # of connection points: 4
#     Node 12, Type 0, BuildingBlock: NAHDIM_clean_sbu_0, # of connection points: 4
#     Node 13, Type 0, BuildingBlock: NAHDIM_clean_sbu_0, # of connection points: 4
#     Node 14, Type 0, BuildingBlock: NAHDIM_clean_sbu_0, # of connection points: 4
#     Node 15, Type 0, BuildingBlock: NAHDIM_clean_sbu_0, # of connection points: 4
#     Node 16, Type 0, BuildingBlock: NAHDIM_clean_sbu_0, # of connection points: 4
#     Node 17, Type 0, BuildingBlock: NAHDIM_clean_sbu_0, # of connection points: 4
#     Node 18, Type 0, BuildingBlock: NAHDIM_clean_sbu_0, # of connection points: 4
#     Node 19, Type 0, BuildingBlock: NAHDIM_clean_sbu_0, # of connection points: 4
#     Node 20, Type 0, BuildingBlock: NAHDIM_clean_sbu_0, # of connection points: 4
#     Node 21, Type 0, BuildingBlock: NAHDIM_clean_sbu_0, # of connection points: 4
#     Node 22, Type 0, BuildingBlock: NAHDIM_clean_sbu_0, # of connection points: 4
#     Node 23, Type 0, BuildingBlock: NAHDIM_clean_sbu_0, # of connection points: 4
#     Edge 24, Type (0, 0), BuildingBlock: KIFKEQ_clean_linker_1, # of connection points: 2
#     Edge 25, Type (0, 0), BuildingBlock: KIFKEQ_clean_linker_1, # of connection points: 2
#     Edge 26, Type (0, 0), BuildingBlock: KIFKEQ_clean_linker_1, # of connection points: 2
#     Edge 27, Type (0, 0), BuildingBlock: KIFKEQ_clean_linker_1, # of connection points: 2
#     Edge 28, Type (0, 0), BuildingBlock: KIFKEQ_clean_linker_1, # of connection points: 2
#     Edge 29, Type (0, 0), BuildingBlock: KIFKEQ_clean_linker_1, # of connection points: 2
#     Edge 30, Type (0, 0), BuildingBlock: KIFKEQ_clean_linker_1, # of connection points: 2
#     Edge 31, Type (0, 0), BuildingBlock: KIFKEQ_clean_linker_1, # of connection points: 2
#     Edge 32, Type (0, 0), BuildingBlock: KIFKEQ_clean_linker_1, # of connection points: 2
#     Edge 33, Type (0, 0), BuildingBlock: KIFKEQ_clean_linker_1, # of connection points: 2
#     Edge 34, Type (0, 0), BuildingBlock: KIFKEQ_clean_linker_1, # of connection points: 2
#     Edge 35, Type (0, 0), BuildingBlock: KIFKEQ_clean_linker_1, # of connection points: 2
#     Edge 36, Type (0, 0), BuildingBlock: KIFKEQ_clean_linker_1, # of connection points: 2
#     Edge 37, Type (0, 0), BuildingBlock: KIFKEQ_clean_linker_1, # of connection points: 2
#     Edge 38, Type (0, 0), BuildingBlock: KIFKEQ_clean_linker_1, # of connection points: 2
#     Edge 39, Type (0, 0), BuildingBlock: KIFKEQ_clean_linker_1, # of connection points: 2
#     Edge 40, Type (0, 0), BuildingBlock: KIFKEQ_clean_linker_1, # of connection points: 2
#     Edge 41, Type (0, 0), BuildingBlock: KIFKEQ_clean_linker_1, # of connection points: 2
#     Edge 42, Type (0, 0), BuildingBlock: KIFKEQ_clean_linker_1, # of connection points: 2
#     Edge 43, Type (0, 0), BuildingBlock: KIFKEQ_clean_linker_1, # of connection points: 2
#     Edge 44, Type (0, 0), BuildingBlock: KIFKEQ_clean_linker_1, # of connection points: 2
#     Edge 45, Type (0, 0), BuildingBlock: KIFKEQ_clean_linker_1, # of connection points: 2
#     Edge 46, Type (0, 0), BuildingBlock: KIFKEQ_clean_linker_1, # of connection points: 2
#     Edge 47, Type (0, 0), BuildingBlock: KIFKEQ_clean_linker_1, # of connection points: 2
#     Edge 48, Type (0, 0), BuildingBlock: KIFKEQ_clean_linker_1, # of connection points: 2
#     Edge 49, Type (0, 0), BuildingBlock: KIFKEQ_clean_linker_1, # of connection points: 2
#     Edge 50, Type (0, 0), BuildingBlock: KIFKEQ_clean_linker_1, # of connection points: 2
#     Edge 51, Type (0, 0), BuildingBlock: KIFKEQ_clean_linker_1, # of connection points: 2
#     Edge 52, Type (0, 0), BuildingBlock: KIFKEQ_clean_linker_1, # of connection points: 2
#     Edge 53, Type (0, 0), BuildingBlock: KIFKEQ_clean_linker_1, # of connection points: 2
#     Edge 54, Type (0, 0), BuildingBlock: KIFKEQ_clean_linker_1, # of connection points: 2
#     Edge 55, Type (0, 0), BuildingBlock: KIFKEQ_clean_linker_1, # of connection points: 2
#     Edge 56, Type (0, 0), BuildingBlock: KIFKEQ_clean_linker_1, # of connection points: 2
#     Edge 57, Type (0, 0), BuildingBlock: KIFKEQ_clean_linker_1, # of connection points: 2
#     Edge 58, Type (0, 0), BuildingBlock: KIFKEQ_clean_linker_1, # of connection points: 2
#     Edge 59, Type (0, 0), BuildingBlock: KIFKEQ_clean_linker_1, # of connection points: 2
#     Edge 60, Type (0, 0), BuildingBlock: KIFKEQ_clean_linker_1, # of connection points: 2
#     Edge 61, Type (0, 0), BuildingBlock: KIFKEQ_clean_linker_1, # of connection points: 2
#     Edge 62, Type (0, 0), BuildingBlock: KIFKEQ_clean_linker_1, # of connection points: 2
#     Edge 63, Type (0, 0), BuildingBlock: KIFKEQ_clean_linker_1, # of connection points: 2
#     Edge 64, Type (0, 0), BuildingBlock: KIFKEQ_clean_linker_1, # of connection points: 2
#     Edge 65, Type (0, 0), BuildingBlock: KIFKEQ_clean_linker_1, # of connection points: 2
#     Edge 66, Type (0, 0), BuildingBlock: KIFKEQ_clean_linker_1, # of connection points: 2
#     Edge 67, Type (0, 0), BuildingBlock: KIFKEQ_clean_linker_1, # of connection points: 2
#     Edge 68, Type (0, 0), BuildingBlock: KIFKEQ_clean_linker_1, # of connection points: 2
#     Edge 69, Type (0, 0), BuildingBlock: KIFKEQ_clean_linker_1, # of connection points: 2
#     Edge 70, Type (0, 0), BuildingBlock: KIFKEQ_clean_linker_1, # of connection points: 2
#     Edge 71, Type (0, 0), BuildingBlock: KIFKEQ_clean_linker_1, # of connection points: 2
# Relax obj value: 0.180
# Max RMSD: 0.068
# Mean RMSD: 0.068
data_MOF--net-lta--node1-NAHDIM_clean_sbu_0--edge1-KIFKEQ_clean_linker_1
_symmetry_space_group_name_H-M    P1
_symmetry_Int_Tables_number       1
_symmetry_cell_setting            triclinic
loop_
_symmetry_equiv_pos_as_xyz
'x, y, z'
_cell_length_a     58.334346
_cell_length_b     58.273199
_cell_length_c     58.339085
_cell_angle_alpha  89.956926
_cell_angle_beta   90.018443
_cell_angle_gamma 89.955111
loop_
_atom_site_label
_atom_site_type_symbol
_atom_site_fract_x
_atom_site_fract_y
_atom_site_fract_z
_atom_type_partial_charge
C0 C 0.1676 0.29513 0.48822 0.0
O1 O 0.17096 0.31511 0.47836 0.0
O2 O 0.12531 0.33245 0.52873 0.0
Zn3 Zn 0.12373 0.31485 0.49921 0.0
O4 O 0.12748 0.33729 0.47338 0.0
C5 C 0.08086 0.29557 0.51411 0.0
O6 O 0.08897 0.30073 0.53447 0.0
O7 O 0.14865 0.2912 0.4982 0.0
C8 C 0.12277 0.33223 0.45274 0.0
O9 O 0.11513 0.31158 0.44794 0.0
C10 C 0.14208 0.34566 0.53299 0.0
O11 O 0.15885 0.34726 0.51804 0.0
O12 O 0.09295 0.29966 0.49647 0.0
C13 C 0.70362 0.16586 0.48005 0.0
O14 O 0.6858 0.16969 0.4668 0.0
O15 O 0.66054 0.12566 0.52008 0.0
Zn16 Zn 0.67945 0.12412 0.49128 0.0
O17 O 0.65888 0.12894 0.46408 0.0
C18 C 0.69697 0.08037 0.50624 0.0
O19 O 0.69159 0.08838 0.52658 0.0
O20 O 0.70432 0.14771 0.49209 0.0
C21 C 0.6456 0.11276 0.45808 0.0
O22 O 0.64607 0.09337 0.46959 0.0
C23 C 0.64176 0.13669 0.52093 0.0
O24 O 0.63483 0.14809 0.50276 0.0
O25 O 0.69371 0.09286 0.48868 0.0
C26 C 0.82282 0.70274 0.48144 0.0
O27 O 0.81846 0.6838 0.47005 0.0
O28 O 0.86661 0.66351 0.52155 0.0
Zn29 Zn 0.8657 0.68009 0.49147 0.0
O30 O 0.85899 0.65667 0.46719 0.0
C31 C 0.90925 0.70002 0.50219 0.0
O32 O 0.90159 0.69769 0.52323 0.0
O33 O 0.84177 0.70475 0.49196 0.0
C34 C 0.86401 0.65948 0.4462 0.0
O35 O 0.87375 0.67872 0.43965 0.0
C36 C 0.85074 0.64976 0.52728 0.0
O37 O 0.83296 0.64725 0.51368 0.0
O38 O 0.89659 0.69401 0.48552 0.0
C39 C 0.28875 0.8275 0.48676 0.0
O40 O 0.31029 0.82207 0.48302 0.0
O41 O 0.32914 0.86829 0.51622 0.0
Zn42 Zn 0.30849 0.87168 0.48887 0.0
O43 O 0.32782 0.86587 0.46109 0.0
C44 C 0.29497 0.9166 0.50469 0.0
O45 O 0.30245 0.90875 0.52443 0.0
O46 O 0.28347 0.84839 0.48999 0.0
C47 C 0.34257 0.88073 0.45515 0.0
O48 O 0.34413 0.89992 0.46686 0.0
C49 C 0.32306 0.85969 0.5353 0.0
O50 O 0.30186 0.85261 0.538 0.0
O51 O 0.29544 0.90361 0.48721 0.0
C52 C 0.16546 0.70673 0.49107 0.0
O53 O 0.16964 0.68646 0.50002 0.0
O54 O 0.12003 0.66609 0.46224 0.0
Zn55 Zn 0.12052 0.68812 0.48867 0.0
O56 O 0.12627 0.67015 0.51742 0.0
C57 C 0.07697 0.70486 0.47334 0.0
O58 O 0.08497 0.69809 0.45342 0.0
O59 O 0.14524 0.71152 0.48455 0.0
C60 C 0.11079 0.65682 0.52491 0.0
O61 O 0.09115 0.65562 0.51393 0.0
C62 C 0.13316 0.64873 0.46112 0.0
O63 O 0.14838 0.64533 0.47738 0.0
O64 O 0.08963 0.70317 0.491 0.0
C65 C 0.29029 0.17351 0.49129 0.0
O66 O 0.31191 0.17897 0.4945 0.0
O67 O 0.33039 0.12788 0.46906 0.0
Zn68 Zn 0.30856 0.12849 0.49572 0.0
O69 O 0.32686 0.13593 0.52401 0.0
C70 C 0.28836 0.08572 0.48156 0.0
O71 O 0.29123 0.09453 0.46102 0.0
O72 O 0.28462 0.15248 0.49091 0.0
C73 C 0.33343 0.12024 0.53766 0.0
O74 O 0.32746 0.09889 0.53359 0.0
C75 C 0.34403 0.11095 0.46737 0.0
O76 O 0.34318 0.09459 0.48286 0.0
O77 O 0.29377 0.09753 0.49903 0.0
C78 C 0.83721 0.27518 0.48403 0.0
O79 O 0.84661 0.28279 0.46503 0.0
O80 O 0.8706 0.32525 0.47737 0.0
Zn81 Zn 0.87009 0.30514 0.50527 0.0
O82 O 0.86478 0.32578 0.5322 0.0
C83 C 0.91276 0.28586 0.49072 0.0
O84 O 0.90422 0.2906 0.47042 0.0
O85 O 0.84475 0.28217 0.50321 0.0
C86 C 0.88146 0.33738 0.54005 0.0
O87 O 0.90188 0.33476 0.53091 0.0
C88 C 0.8543 0.33904 0.47306 0.0
O89 O 0.83646 0.33959 0.48679 0.0
O90 O 0.9007 0.28967 0.50844 0.0
C91 C 0.71209 0.83539 0.48035 0.0
O92 O 0.70533 0.84445 0.46085 0.0
O93 O 0.66287 0.86894 0.47035 0.0
Zn94 Zn 0.68226 0.86968 0.49882 0.0
O95 O 0.66105 0.86774 0.52581 0.0
C96 C 0.70172 0.91198 0.48259 0.0
O97 O 0.69574 0.90364 0.46255 0.0
O98 O 0.70455 0.84358 0.49905 0.0
C99 C 0.64411 0.88144 0.52541 0.0
O100 O 0.64187 0.89554 0.50795 0.0
C101 C 0.64883 0.85278 0.46636 0.0
O102 O 0.64745 0.83556 0.48083 0.0
O103 O 0.69852 0.89997 0.50048 0.0
C104 C 0.48076 0.15786 0.28534 0.0
O105 O 0.47057 0.16127 0.30513 0.0
O106 O 0.51998 0.11557 0.32342 0.0
Zn107 Zn 0.49109 0.1136 0.3048 0.0
O108 O 0.46438 0.11581 0.32642 0.0
C109 C 0.50805 0.07126 0.28613 0.0
O110 O 0.52791 0.07997 0.29219 0.0
O111 O 0.49045 0.13873 0.28147 0.0
C112 C 0.46551 0.10377 0.34456 0.0
O113 O 0.48353 0.09062 0.34783 0.0
C114 C 0.52342 0.1315 0.33785 0.0
O115 O 0.50809 0.14786 0.34007 0.0
O116 O 0.4899 0.0829 0.28926 0.0
C117 C 0.83066 0.50672 0.28011 0.0
O118 O 0.83975 0.52626 0.28666 0.0
O119 O 0.86414 0.51732 0.32924 0.0
Zn120 Zn 0.86312 0.48755 0.31203 0.0
O121 O 0.85735 0.46227 0.33457 0.0
C122 C 0.90322 0.4974 0.28499 0.0
O123 O 0.89251 0.51688 0.28119 0.0
O124 O 0.83813 0.48805 0.28854 0.0
C125 C 0.87308 0.4578 0.34895 0.0
O126 O 0.89218 0.46973 0.34826 0.0
C127 C 0.84722 0.52329 0.34157 0.0
O128 O 0.82913 0.50991 0.34253 0.0
O129 O 0.89358 0.48216 0.2972 0.0
C130 C 0.50918 0.81732 0.2842 0.0
O131 O 0.52268 0.81432 0.30197 0.0
O132 O 0.47103 0.86258 0.32436 0.0
Zn133 Zn 0.49987 0.86075 0.30585 0.0
O134 O 0.52606 0.85544 0.32754 0.0
C135 C 0.48697 0.90272 0.28419 0.0
O136 O 0.4664 0.89406 0.2872 0.0
O137 O 0.49769 0.83576 0.28246 0.0
C138 C 0.53084 0.87129 0.34167 0.0
O139 O 0.51882 0.89037 0.34117 0.0
C140 C 0.46564 0.84752 0.33913 0.0
O141 O 0.47893 0.82952 0.34191 0.0
O142 O 0.50438 0.89107 0.29021 0.0
C143 C 0.15428 0.50702 0.28225 0.0
O144 O 0.15706 0.52104 0.29964 0.0
O145 O 0.11483 0.46404 0.3244 0.0
Zn146 Zn 0.11381 0.4938 0.30722 0.0
O147 O 0.12021 0.51922 0.32953 0.0
C148 C 0.07249 0.48302 0.28233 0.0
O149 O 0.08345 0.46388 0.27767 0.0
O150 O 0.13704 0.49371 0.2819 0.0
C151 C 0.10444 0.52635 0.34273 0.0
O152 O 0.08399 0.517 0.34145 0.0
C153 C 0.13248 0.45919 0.3362 0.0
O154 O 0.1499 0.47347 0.33614 0.0
O155 O 0.08237 0.49831 0.29426 0.0
C156 C 0.49512 0.81977 0.69774 0.0
O157 O 0.50064 0.81445 0.67656 0.0
O158 O 0.51661 0.86329 0.65855 0.0
Zn159 Zn 0.48759 0.8633 0.67713 0.0
O160 O 0.46181 0.85566 0.65582 0.0
C161 C 0.49807 0.90665 0.69865 0.0
O162 O 0.51841 0.89733 0.7014 0.0
O163 O 0.48908 0.84019 0.70233 0.0
C164 C 0.44105 0.85957 0.66108 0.0
O165 O 0.43627 0.86808 0.68138 0.0
C166 C 0.52005 0.88037 0.64544 0.0
O167 O 0.50495 0.89711 0.64504 0.0
O168 O 0.48216 0.89489 0.68959 0.0
C169 C 0.16791 0.49592 0.70083 0.0
O170 O 0.17228 0.48633 0.68094 0.0
O171 O 0.12415 0.53498 0.66223 0.0
Zn172 Zn 0.1244 0.50538 0.67974 0.0
O173 O 0.13015 0.48005 0.65718 0.0
C174 C 0.08062 0.51755 0.69864 0.0
O175 O 0.08805 0.53845 0.69464 0.0
O176 O 0.14861 0.50551 0.70407 0.0
C177 C 0.12704 0.45903 0.66201 0.0
O178 O 0.11984 0.45338 0.68259 0.0
C179 C 0.13979 0.53974 0.64786 0.0
O180 O 0.15709 0.52551 0.64537 0.0
O181 O 0.09349 0.50057 0.69406 0.0
C182 C 0.50997 0.16297 0.70734 0.0
O183 O 0.52123 0.16744 0.68837 0.0
O184 O 0.46316 0.12963 0.66641 0.0
Zn185 Zn 0.49359 0.12411 0.68157 0.0
O186 O 0.51859 0.12929 0.65828 0.0
C187 C 0.48511 0.0764 0.67953 0.0
O188 O 0.47586 0.08296 0.66006 0.0
O189 O 0.4972 0.14535 0.7083 0.0
C190 C 0.53499 0.11531 0.65503 0.0
O191 O 0.53626 0.0966 0.66754 0.0
C192 C 0.46083 0.14387 0.65008 0.0
O193 O 0.47848 0.15639 0.64381 0.0
O194 O 0.49426 0.09137 0.69242 0.0
C195 C 0.82501 0.4916 0.70495 0.0
O196 O 0.82068 0.48487 0.68392 0.0
O197 O 0.8694 0.47147 0.66669 0.0
Zn198 Zn 0.86925 0.50019 0.68586 0.0
O199 O 0.86311 0.52721 0.66546 0.0
C200 C 0.91325 0.48679 0.7033 0.0
O201 O 0.90562 0.46623 0.69814 0.0
O202 O 0.84498 0.49865 0.70999 0.0
C203 C 0.8787 0.53371 0.65175 0.0
O204 O 0.89844 0.52282 0.65169 0.0
C205 C 0.85872 0.46998 0.64776 0.0
O206 O 0.84651 0.4875 0.64053 0.0
O207 O 0.90028 0.50406 0.70027 0.0
C208 C 0.26864 0.50531 0.15302 0.0
O209 O 0.27479 0.5244 0.14273 0.0
O210 O 0.32046 0.51517 0.12413 0.0
Zn211 Zn 0.30184 0.48618 0.12259 0.0
O212 O 0.32333 0.45958 0.12768 0.0
C213 C 0.28254 0.50114 0.07957 0.0
O214 O 0.28678 0.52164 0.0879 0.0
O215 O 0.27792 0.48651 0.14707 0.0
C216 C 0.33062 0.44747 0.1111 0.0
O217 O 0.32332 0.45186 0.09025 0.0
C218 C 0.33766 0.51736 0.11097 0.0
O219 O 0.34265 0.5007 0.09665 0.0
O220 O 0.28695 0.48355 0.09166 0.0
C221 C 0.27614 0.4783 0.834 0.0
O222 O 0.28098 0.45769 0.84177 0.0
O223 O 0.32361 0.46174 0.86735 0.0
Zn224 Zn 0.307 0.49183 0.86967 0.0
O225 O 0.33078 0.51656 0.86884 0.0
C226 C 0.28654 0.47611 0.91179 0.0
O227 O 0.29239 0.45585 0.90382 0.0
O228 O 0.28516 0.49568 0.84351 0.0
C229 C 0.32608 0.53779 0.86743 0.0
O230 O 0.30456 0.5443 0.86597 0.0
C231 C 0.33639 0.45749 0.85026 0.0
O232 O 0.33814 0.4728 0.83381 0.0
O233 O 0.29046 0.49386 0.89977 0.0
C234 C 0.51293 0.27556 0.83804 0.0
O235 O 0.53218 0.28388 0.84625 0.0
O236 O 0.52173 0.32559 0.87067 0.0
Zn237 Zn 0.49226 0.30792 0.86922 0.0
O238 O 0.46729 0.33007 0.861 0.0
C239 C 0.49962 0.2812 0.91008 0.0
O240 O 0.51852 0.27518 0.89941 0.0
O241 O 0.49394 0.28314 0.84554 0.0
C242 C 0.44616 0.32537 0.86332 0.0
O243 O 0.44018 0.30507 0.87107 0.0
C244 C 0.52606 0.34037 0.85525 0.0
O245 O 0.51143 0.34318 0.83834 0.0
O246 O 0.48565 0.2947 0.9002 0.0
C247 C 0.69947 0.49741 0.82325 0.0
O248 O 0.67797 0.5005 0.81725 0.0
O249 O 0.66067 0.52411 0.86453 0.0
Zn250 Zn 0.67958 0.49538 0.86769 0.0
O251 O 0.65915 0.46803 0.86253 0.0
C252 C 0.69567 0.51078 0.91211 0.0
O253 O 0.68913 0.53108 0.9048 0.0
O254 O 0.7044 0.49504 0.8443 0.0
C255 C 0.65147 0.45623 0.87917 0.0
O256 O 0.65724 0.46181 0.90021 0.0
C257 C 0.64218 0.5256 0.87593 0.0
O258 O 0.63631 0.50855 0.88945 0.0
O259 O 0.69361 0.49349 0.89904 0.0
C260 C 0.48949 0.69995 0.8222 0.0
O261 O 0.48384 0.67864 0.81753 0.0
O262 O 0.46035 0.66551 0.86545 0.0
Zn263 Zn 0.49052 0.682 0.86747 0.0
O264 O 0.51485 0.65805 0.86363 0.0
C265 C 0.47683 0.70162 0.91074 0.0
O266 O 0.45613 0.69895 0.90229 0.0
O267 O 0.49319 0.70565 0.84287 0.0
C268 C 0.53616 0.66181 0.86593 0.0
O269 O 0.54326 0.68274 0.87033 0.0
C270 C 0.45777 0.6489 0.87932 0.0
O271 O 0.47424 0.64435 0.89403 0.0
O272 O 0.49409 0.69624 0.8986 0.0
C273 C 0.70193 0.50267 0.16518 0.0
O274 O 0.68322 0.51488 0.16808 0.0
O275 O 0.664 0.45833 0.12352 0.0
Zn276 Zn 0.68006 0.48872 0.12292 0.0
O277 O 0.65589 0.51283 0.12685 0.0
C278 C 0.69874 0.47687 0.07874 0.0
O279 O 0.69468 0.45581 0.08568 0.0
O280 O 0.70401 0.49031 0.14739 0.0
C281 C 0.65905 0.53374 0.12161 0.0
O282 O 0.67933 0.54035 0.11438 0.0
C283 C 0.64986 0.45373 0.13941 0.0
O284 O 0.64698 0.46855 0.15613 0.0
O285 O 0.69444 0.49353 0.09209 0.0
C286 C 0.50706 0.70462 0.1536 0.0
O287 O 0.52635 0.69929 0.14327 0.0
O288 O 0.51936 0.65537 0.12238 0.0
Zn289 Zn 0.4897 0.67286 0.12111 0.0
O290 O 0.46462 0.64961 0.12413 0.0
C291 C 0.50407 0.69311 0.07845 0.0
O292 O 0.52458 0.68801 0.08626 0.0
O293 O 0.4885 0.69548 0.14682 0.0
C294 C 0.44348 0.65353 0.12069 0.0
O295 O 0.43673 0.67446 0.11571 0.0
C296 C 0.52102 0.63695 0.11087 0.0
O297 O 0.50356 0.6303 0.0983 0.0
O298 O 0.48661 0.68875 0.0907 0.0
C299 C 0.49131 0.2821 0.16572 0.0
O300 O 0.49504 0.30352 0.17163 0.0
O301 O 0.46555 0.32114 0.12013 0.0
Zn302 Zn 0.49391 0.30153 0.12101 0.0
O303 O 0.52124 0.32111 0.1284 0.0
C304 C 0.48224 0.27786 0.07935 0.0
O305 O 0.46223 0.27578 0.08947 0.0
O306 O 0.49022 0.27696 0.1446 0.0
C307 C 0.529 0.33415 0.11278 0.0
O308 O 0.51902 0.33413 0.09258 0.0
C309 C 0.46388 0.33943 0.13185 0.0
O310 O 0.48101 0.3456 0.1451 0.0
O311 O 0.49852 0.28767 0.08995 0.0
H312 H 0.16635 0.44535 0.36547 0.0
H313 H 0.09895 0.42676 0.34093 0.0
H314 H 0.16541 0.41327 0.3923 0.0
H315 H 0.09791 0.39491 0.36801 0.0
H316 H 0.11167 0.32843 0.40728 0.0
H317 H 0.1156 0.35768 0.37752 0.0
H318 H 0.14396 0.40456 0.42733 0.0
H319 H 0.14038 0.37537 0.45692 0.0
C320 C 0.15139 0.43435 0.3657 0.0
C321 C 0.13266 0.4387 0.35118 0.0
C322 C 0.15082 0.41604 0.38115 0.0
C323 C 0.13152 0.40166 0.38238 0.0
C324 C 0.11311 0.40556 0.36734 0.0
C325 C 0.11366 0.4239 0.35191 0.0
C326 C 0.11885 0.34494 0.41184 0.0
C327 C 0.12564 0.3496 0.43448 0.0
C328 C 0.12101 0.36171 0.39481 0.0
C329 C 0.13011 0.38341 0.40008 0.0
C330 C 0.13719 0.38791 0.42265 0.0
C331 C 0.13496 0.37122 0.43965 0.0
H332 H 0.61716 0.08077 0.43928 0.0
H333 H 0.63695 0.15205 0.43384 0.0
H334 H 0.58911 0.08631 0.40885 0.0
H335 H 0.60896 0.15748 0.40316 0.0
H336 H 0.53557 0.16187 0.37148 0.0
H337 H 0.56651 0.15784 0.39937 0.0
H338 H 0.5873 0.09435 0.36734 0.0
H339 H 0.5563 0.09817 0.33963 0.0
C340 C 0.61563 0.09759 0.43149 0.0
C341 C 0.62925 0.11598 0.439 0.0
C342 C 0.59966 0.10071 0.41395 0.0
C343 C 0.59687 0.12232 0.4036 0.0
C344 C 0.61061 0.14069 0.41096 0.0
C345 C 0.6267 0.13753 0.42844 0.0
C346 C 0.54687 0.14716 0.37026 0.0
C347 C 0.54337 0.13026 0.35345 0.0
C348 C 0.56465 0.14492 0.38617 0.0
C349 C 0.57921 0.12569 0.38563 0.0
C350 C 0.57613 0.10918 0.36838 0.0
C351 C 0.55844 0.11145 0.35244 0.0
H352 H 0.87473 0.6584 0.4005 0.0
H353 H 0.8436 0.61819 0.45445 0.0
H354 H 0.86909 0.62667 0.37377 0.0
H355 H 0.8384 0.58647 0.42791 0.0
H356 H 0.81444 0.54063 0.37019 0.0
H357 H 0.81689 0.57488 0.39404 0.0
H358 H 0.88492 0.58818 0.368 0.0
H359 H 0.88234 0.55421 0.34384 0.0
C360 C 0.86663 0.64285 0.40664 0.0
C361 C 0.8597 0.64079 0.42962 0.0
C362 C 0.86351 0.62464 0.39136 0.0
C363 C 0.85334 0.60405 0.39873 0.0
C364 C 0.84601 0.6022 0.4216 0.0
C365 C 0.84915 0.62035 0.43686 0.0
C366 C 0.82986 0.55094 0.36944 0.0
C367 C 0.84824 0.54462 0.35522 0.0
C368 C 0.8313 0.57051 0.38318 0.0
C369 C 0.85114 0.58419 0.38298 0.0
C370 C 0.8693 0.57816 0.36835 0.0
C371 C 0.86787 0.55859 0.35462 0.0
H372 H 0.34754 0.8407 0.43119 0.0
H373 H 0.37437 0.90962 0.43661 0.0
H374 H 0.37576 0.83207 0.40153 0.0
H375 H 0.40266 0.90087 0.40716 0.0
H376 H 0.43663 0.88429 0.33934 0.0
H377 H 0.4053 0.89194 0.36584 0.0
H378 H 0.4181 0.82725 0.3997 0.0
H379 H 0.44937 0.81941 0.37303 0.0
C380 C 0.35936 0.85405 0.42597 0.0
C381 C 0.35876 0.87585 0.43629 0.0
C382 C 0.37559 0.84904 0.40909 0.0
C383 C 0.39143 0.86577 0.40207 0.0
C384 C 0.39051 0.8877 0.41205 0.0
C385 C 0.37438 0.89267 0.42901 0.0
C386 C 0.43268 0.87159 0.35231 0.0
C387 C 0.44559 0.85128 0.35417 0.0
C388 C 0.41479 0.87605 0.36755 0.0
C389 C 0.40935 0.86027 0.38492 0.0
C390 C 0.42179 0.83965 0.38636 0.0
C391 C 0.43977 0.83521 0.37115 0.0
H392 H 0.16872 0.55377 0.61375 0.0
H393 H 0.1046 0.57068 0.64686 0.0
H394 H 0.16206 0.58404 0.58563 0.0
H395 H 0.09815 0.6011 0.61892 0.0
H396 H 0.08092 0.62776 0.54619 0.0
H397 H 0.0889 0.60155 0.57774 0.0
H398 H 0.15872 0.62603 0.58062 0.0
H399 H 0.15086 0.65211 0.54881 0.0
C400 C 0.15337 0.56415 0.61523 0.0
C401 C 0.1371 0.55968 0.63241 0.0
C402 C 0.14961 0.58156 0.59918 0.0
C403 C 0.12949 0.59482 0.59997 0.0
C404 C 0.11365 0.59092 0.61768 0.0
C405 C 0.11742 0.57357 0.63375 0.0
C406 C 0.09794 0.62768 0.55363 0.0
C407 C 0.11527 0.64194 0.54494 0.0
C408 C 0.10246 0.61276 0.57182 0.0
C409 C 0.12444 0.61174 0.58166 0.0
C410 C 0.14168 0.62629 0.57323 0.0
C411 C 0.13713 0.64129 0.55509 0.0
H412 H 0.35241 0.09039 0.56832 0.0
H413 H 0.35014 0.1623 0.55021 0.0
H414 H 0.38095 0.0986 0.59753 0.0
H415 H 0.37841 0.1706 0.5799 0.0
H416 H 0.4522 0.16737 0.61042 0.0
H417 H 0.41906 0.16346 0.58535 0.0
H418 H 0.38776 0.11709 0.63395 0.0
H419 H 0.42116 0.12055 0.65878 0.0
C420 C 0.35775 0.10802 0.57079 0.0
C421 C 0.34913 0.12566 0.55681 0.0
C422 C 0.37402 0.11276 0.58768 0.0
C423 C 0.382 0.13527 0.59103 0.0
C424 C 0.37283 0.15304 0.57754 0.0
C425 C 0.35655 0.14829 0.56061 0.0
C426 C 0.43812 0.15659 0.61591 0.0
C427 C 0.43945 0.14406 0.63646 0.0
C428 C 0.41904 0.15444 0.60159 0.0
C429 C 0.40086 0.13977 0.60755 0.0
C430 C 0.40168 0.12818 0.62867 0.0
C431 C 0.42078 0.13027 0.64295 0.0
H432 H 0.88728 0.43342 0.65463 0.0
H433 H 0.83501 0.45931 0.60884 0.0
H434 H 0.89205 0.39978 0.6302 0.0
H435 H 0.83992 0.42571 0.58441 0.0
H436 H 0.8405 0.35229 0.55727 0.0
H437 H 0.83416 0.3831 0.58489 0.0
H438 H 0.90729 0.39298 0.59068 0.0
H439 H 0.91371 0.36214 0.56318 0.0
C440 C 0.87671 0.43188 0.63944 0.0
C441 C 0.86081 0.44907 0.63361 0.0
C442 C 0.87954 0.41267 0.62542 0.0
C443 C 0.86639 0.41017 0.60541 0.0
C444 C 0.85013 0.42709 0.59986 0.0
C445 C 0.84742 0.44639 0.61378 0.0
C446 C 0.85524 0.36089 0.5646 0.0
C447 C 0.87761 0.35485 0.55798 0.0
C448 C 0.85158 0.3786 0.5803 0.0
C449 C 0.87022 0.39047 0.58984 0.0
C450 C 0.8926 0.38399 0.58374 0.0
C451 C 0.89626 0.36641 0.5679 0.0
H452 H 0.53618 0.91701 0.62141 0.0
H453 H 0.54896 0.8451 0.63431 0.0
H454 H 0.56747 0.91769 0.59389 0.0
H455 H 0.57981 0.84554 0.6061 0.0
H456 H 0.64607 0.8589 0.5666 0.0
H457 H 0.61754 0.8593 0.59721 0.0
H458 H 0.57452 0.90378 0.55629 0.0
H459 H 0.60325 0.90399 0.52621 0.0
C460 C 0.54567 0.90132 0.61834 0.0
C461 C 0.54 0.88096 0.62989 0.0
C462 C 0.56354 0.90168 0.60245 0.0
C463 C 0.576 0.8816 0.59754 0.0
C464 C 0.57072 0.86137 0.6096 0.0
C465 C 0.55297 0.86108 0.62569 0.0
C466 C 0.63054 0.8688 0.56422 0.0
C467 C 0.62694 0.88146 0.54402 0.0
C468 C 0.61414 0.86895 0.58171 0.0
C469 C 0.59376 0.88165 0.57928 0.0
C470 C 0.5902 0.8942 0.55898 0.0
C471 C 0.60663 0.89419 0.54163 0.0
H472 H 0.37057 0.07442 0.45529 0.0
H473 H 0.35545 0.14462 0.43672 0.0
H474 H 0.39894 0.07242 0.42483 0.0
H475 H 0.38445 0.14289 0.40667 0.0
H476 H 0.4237 0.12494 0.34127 0.0
H477 H 0.39348 0.12624 0.37015 0.0
H478 H 0.43613 0.08688 0.41635 0.0
H479 H 0.46589 0.08495 0.38729 0.0
C480 C 0.37338 0.08947 0.44476 0.0
C481 C 0.36084 0.10971 0.44848 0.0
C482 C 0.38976 0.08837 0.42736 0.0
C483 C 0.39413 0.10755 0.41339 0.0
C484 C 0.38134 0.12771 0.41693 0.0
C485 C 0.36481 0.12875 0.43424 0.0
C486 C 0.42656 0.11652 0.35758 0.0
C487 C 0.44714 0.10476 0.36197 0.0
C488 C 0.4093 0.11737 0.37419 0.0
C489 C 0.41232 0.10661 0.39557 0.0
C490 C 0.43301 0.09498 0.39993 0.0
C491 C 0.45016 0.09399 0.3833 0.0
H492 H 0.823 0.37118 0.45918 0.0
H493 H 0.88973 0.34332 0.44282 0.0
H494 H 0.8272 0.39926 0.4284 0.0
H495 H 0.89373 0.37118 0.41195 0.0
H496 H 0.90432 0.4425 0.38022 0.0
H497 H 0.89909 0.41299 0.40932 0.0
H498 H 0.82961 0.40226 0.38608 0.0
H499 H 0.83471 0.43204 0.35706 0.0
C500 C 0.83846 0.37091 0.44891 0.0
C501 C 0.85609 0.35512 0.45353 0.0
C502 C 0.84081 0.38692 0.43121 0.0
C503 C 0.86085 0.38749 0.41786 0.0
C504 C 0.87824 0.37137 0.42218 0.0
C505 C 0.87588 0.35534 0.43979 0.0
C506 C 0.88793 0.43385 0.38127 0.0
C507 C 0.86993 0.43963 0.36634 0.0
C508 C 0.88499 0.41683 0.39786 0.0
C509 C 0.86396 0.40527 0.39994 0.0
C510 C 0.84594 0.41103 0.38501 0.0
C511 C 0.84892 0.42799 0.36833 0.0
H512 H 0.55615 0.83262 0.35013 0.0
H513 H 0.54707 0.90288 0.37207 0.0
H514 H 0.58596 0.82743 0.37911 0.0
H515 H 0.57662 0.89759 0.40108 0.0
H516 H 0.64577 0.88744 0.43501 0.0
H517 H 0.61835 0.8913 0.40376 0.0
H518 H 0.58874 0.82577 0.42162 0.0
H519 H 0.61637 0.82172 0.45281 0.0
C520 C 0.56054 0.84696 0.36109 0.0
C521 C 0.54925 0.86817 0.35881 0.0
C522 C 0.57752 0.84394 0.37774 0.0
C523 C 0.58364 0.8621 0.39233 0.0
C524 C 0.57249 0.88335 0.38989 0.0
C525 C 0.55545 0.88634 0.37335 0.0
C526 C 0.63353 0.87376 0.4322 0.0
C527 C 0.63316 0.85432 0.44649 0.0
C528 C 0.61775 0.87605 0.41437 0.0
C529 C 0.6013 0.85893 0.41035 0.0
C530 C 0.60133 0.83917 0.4242 0.0
C531 C 0.61709 0.83691 0.44213 0.0
H532 H 0.15913 0.61059 0.45248 0.0
H533 H 0.10024 0.64839 0.42785 0.0
H534 H 0.15259 0.58141 0.42319 0.0
H535 H 0.09389 0.61932 0.39855 0.0
H536 H 0.07375 0.54832 0.37039 0.0
H537 H 0.0815 0.5785 0.39825 0.0
H538 H 0.15338 0.57644 0.38066 0.0
H539 H 0.14572 0.54611 0.35286 0.0
C540 C 0.14491 0.61277 0.44073 0.0
C541 C 0.13016 0.63176 0.44255 0.0
C542 C 0.14123 0.59611 0.42391 0.0
C543 C 0.12266 0.59805 0.40868 0.0
C544 C 0.10816 0.61723 0.41025 0.0
C545 C 0.11191 0.63395 0.42696 0.0
C546 C 0.09121 0.55431 0.37244 0.0
C547 C 0.10912 0.54482 0.35943 0.0
C548 C 0.09561 0.57168 0.38829 0.0
C549 C 0.11804 0.57984 0.39158 0.0
C550 C 0.13596 0.57035 0.37861 0.0
C551 C 0.13154 0.55307 0.36262 0.0
H552 H 0.31586 0.84409 0.57906 0.0
H553 H 0.36821 0.87162 0.5344 0.0
H554 H 0.34384 0.84169 0.61021 0.0
H555 H 0.39587 0.86951 0.56546 0.0
H556 H 0.44558 0.84261 0.61774 0.0
H557 H 0.41644 0.84065 0.58796 0.0
H558 H 0.36623 0.86796 0.63505 0.0
H559 H 0.39535 0.86961 0.66509 0.0
C560 C 0.3333 0.84961 0.57589 0.0
C561 C 0.33981 0.85802 0.55425 0.0
C562 C 0.34927 0.84832 0.59374 0.0
C563 C 0.37207 0.85529 0.59024 0.0
C564 C 0.37853 0.86364 0.56859 0.0
C565 C 0.36261 0.86499 0.55082 0.0
C566 C 0.42829 0.84801 0.62185 0.0
C567 C 0.42283 0.85647 0.64374 0.0
C568 C 0.41162 0.84699 0.60474 0.0
C569 C 0.38911 0.85439 0.60909 0.0
C570 C 0.38341 0.86201 0.63122 0.0
C571 C 0.40012 0.86305 0.64839 0.0
H572 H 0.1435 0.46522 0.6187 0.0
H573 H 0.1198 0.41271 0.66538 0.0
H574 H 0.14869 0.43645 0.58898 0.0
H575 H 0.12539 0.38378 0.63561 0.0
H576 H 0.10947 0.34725 0.56658 0.0
H577 H 0.10748 0.37359 0.59893 0.0
H578 H 0.17224 0.40332 0.5788 0.0
H579 H 0.17408 0.37725 0.54617 0.0
C580 C 0.13956 0.4475 0.62269 0.0
C581 C 0.13112 0.44127 0.64438 0.0
C582 C 0.14271 0.43098 0.60568 0.0
C583 C 0.13748 0.40783 0.60995 0.0
C584 C 0.12936 0.40152 0.63175 0.0
C585 C 0.12625 0.41807 0.64882 0.0
C586 C 0.12339 0.35928 0.56914 0.0
C587 C 0.14185 0.36029 0.55369 0.0
C588 C 0.1223 0.37428 0.58778 0.0
C589 C 0.13964 0.39062 0.59135 0.0
C590 C 0.15845 0.39114 0.5763 0.0
C591 C 0.15956 0.37612 0.55767 0.0
H592 H 0.53994 0.15413 0.62921 0.0
H593 H 0.5682 0.08628 0.63922 0.0
H594 H 0.56687 0.16079 0.59801 0.0
H595 H 0.59463 0.09265 0.60757 0.0
H596 H 0.65242 0.11759 0.56239 0.0
H597 H 0.62775 0.11387 0.59587 0.0
H598 H 0.57321 0.14846 0.55942 0.0
H599 H 0.59811 0.15282 0.52624 0.0
C600 C 0.55188 0.14062 0.62473 0.0
C601 C 0.5519 0.11965 0.63665 0.0
C602 C 0.56724 0.14439 0.60676 0.0
C603 C 0.58287 0.12723 0.6002 0.0
C604 C 0.58307 0.10637 0.61236 0.0
C605 C 0.56781 0.10266 0.63044 0.0
C606 C 0.63522 0.12456 0.56159 0.0
C607 C 0.62721 0.13546 0.54164 0.0
C608 C 0.62102 0.12229 0.58074 0.0
C609 C 0.59843 0.13075 0.58032 0.0
C610 C 0.59059 0.14201 0.56047 0.0
C611 C 0.60484 0.14441 0.54138 0.0
H612 H 0.90871 0.55243 0.62114 0.0
H613 H 0.83878 0.55749 0.64513 0.0
H614 H 0.90108 0.58213 0.59277 0.0
H615 H 0.83127 0.5875 0.61689 0.0
H616 H 0.82148 0.61674 0.5432 0.0
H617 H 0.82791 0.59015 0.57486 0.0
H618 H 0.8925 0.62323 0.58959 0.0
H619 H 0.88629 0.64959 0.55776 0.0
C620 C 0.89176 0.56001 0.62049 0.0
C621 C 0.87434 0.55255 0.63533 0.0
C622 C 0.88743 0.57714 0.60433 0.0
C623 C 0.86557 0.58716 0.60261 0.0
C624 C 0.84822 0.57993 0.61766 0.0
C625 C 0.85257 0.56283 0.6339 0.0
C626 C 0.83694 0.61849 0.55333 0.0
C627 C 0.85346 0.63515 0.54784 0.0
C628 C 0.84057 0.60332 0.57154 0.0
C629 C 0.86079 0.60449 0.5846 0.0
C630 C 0.87692 0.62167 0.5796 0.0
C631 C 0.87329 0.63685 0.56144 0.0
H632 H 0.35036 0.4349 0.15177 0.0
H633 H 0.35136 0.42024 0.07915 0.0
H634 H 0.38137 0.40745 0.15771 0.0
H635 H 0.38263 0.39319 0.08506 0.0
H636 H 0.42548 0.3316 0.10614 0.0
H637 H 0.39192 0.35624 0.10216 0.0
H638 H 0.42214 0.40503 0.14898 0.0
H639 H 0.45548 0.38022 0.15334 0.0
C640 C 0.35713 0.42577 0.13708 0.0
C641 C 0.34844 0.42981 0.11497 0.0
C642 C 0.37499 0.41015 0.14048 0.0
C643 C 0.38454 0.39822 0.12185 0.0
C644 C 0.37548 0.40189 0.09981 0.0
C645 C 0.35763 0.41751 0.09641 0.0
C646 C 0.42491 0.34753 0.11568 0.0
C647 C 0.44318 0.35399 0.13001 0.0
C648 C 0.40573 0.36169 0.11331 0.0
C649 C 0.40439 0.38261 0.1252 0.0
C650 C 0.42251 0.38889 0.1398 0.0
C651 C 0.44169 0.37472 0.14218 0.0
H652 H 0.44803 0.61192 0.90616 0.0
H653 H 0.42107 0.65238 0.85014 0.0
H654 H 0.41546 0.58606 0.90322 0.0
H655 H 0.38849 0.62617 0.84705 0.0
H656 H 0.32272 0.58469 0.86497 0.0
H657 H 0.3538 0.61267 0.86824 0.0
H658 H 0.40266 0.55737 0.87514 0.0
H659 H 0.37182 0.52953 0.87216 0.0
C660 C 0.43512 0.61534 0.89324 0.0
C661 C 0.43722 0.63411 0.87828 0.0
C662 C 0.41652 0.60044 0.89149 0.0
C663 C 0.39955 0.60396 0.87475 0.0
C664 C 0.40126 0.6231 0.86019 0.0
C665 C 0.41995 0.63803 0.86191 0.0
C666 C 0.34011 0.57854 0.86714 0.0
C667 C 0.34478 0.5549 0.86843 0.0
C668 C 0.35789 0.59455 0.86892 0.0
C669 C 0.38062 0.5872 0.87215 0.0
C670 C 0.38527 0.56357 0.87308 0.0
C671 C 0.36758 0.54761 0.87122 0.0
H672 H 0.39971 0.32264 0.8696 0.0
H673 H 0.45317 0.36844 0.84638 0.0
H674 H 0.37141 0.35303 0.86395 0.0
H675 H 0.42502 0.39878 0.84114 0.0
H676 H 0.3671 0.4441 0.81749 0.0
H677 H 0.39206 0.4105 0.81815 0.0
H678 H 0.36231 0.38955 0.88266 0.0
H679 H 0.33709 0.42285 0.88183 0.0
C680 C 0.40541 0.33912 0.86317 0.0
C681 C 0.4287 0.34316 0.85856 0.0
C682 C 0.38921 0.35655 0.86004 0.0
C683 C 0.39599 0.37832 0.85216 0.0
C684 C 0.41919 0.38212 0.84696 0.0
C685 C 0.43536 0.36475 0.85013 0.0
C686 C 0.36573 0.4322 0.83169 0.0
C687 C 0.35025 0.43624 0.84969 0.0
C688 C 0.38009 0.41301 0.83211 0.0
C689 C 0.37926 0.39745 0.85052 0.0
C690 C 0.36322 0.40108 0.86812 0.0
C691 C 0.34887 0.42027 0.86771 0.0
H692 H 0.63795 0.4385 0.83793 0.0
H693 H 0.62794 0.43125 0.91098 0.0
H694 H 0.60962 0.40855 0.83111 0.0
H695 H 0.59919 0.40185 0.90416 0.0
H696 H 0.56113 0.33712 0.88617 0.0
H697 H 0.59335 0.36328 0.89095 0.0
H698 H 0.56879 0.40395 0.83402 0.0
H699 H 0.53699 0.37745 0.82882 0.0
C700 C 0.62973 0.4305 0.85253 0.0
C701 C 0.63513 0.43732 0.875 0.0
C702 C 0.6134 0.41342 0.84862 0.0
C703 C 0.60205 0.40285 0.86708 0.0
C704 C 0.60782 0.40938 0.88955 0.0
C705 C 0.62422 0.42637 0.89347 0.0
C706 C 0.56273 0.35154 0.87455 0.0
C707 C 0.54644 0.35529 0.8572 0.0
C708 C 0.58113 0.3666 0.87737 0.0
C709 C 0.58357 0.38581 0.86298 0.0
C710 C 0.5676 0.38918 0.84524 0.0
C711 C 0.54927 0.37405 0.84234 0.0
H712 H 0.65041 0.56518 0.8519 0.0
H713 H 0.60031 0.53231 0.89551 0.0
H714 H 0.62526 0.59857 0.84824 0.0
H715 H 0.57542 0.56565 0.89199 0.0
H716 H 0.52619 0.61651 0.85999 0.0
H717 H 0.55239 0.58408 0.86153 0.0
H718 H 0.60918 0.63031 0.87244 0.0
H719 H 0.58292 0.663 0.87069 0.0
C720 C 0.63409 0.56509 0.86073 0.0
C721 C 0.62732 0.54606 0.87393 0.0
C722 C 0.61976 0.58425 0.85872 0.0
C723 C 0.59834 0.58465 0.86972 0.0
C724 C 0.59169 0.56569 0.88303 0.0
C725 C 0.60602 0.54664 0.88515 0.0
C726 C 0.54427 0.61985 0.86258 0.0
C727 C 0.55245 0.64236 0.86536 0.0
C728 C 0.55926 0.60122 0.86359 0.0
C729 C 0.58279 0.60465 0.86733 0.0
C730 C 0.59113 0.62717 0.86943 0.0
C731 C 0.57608 0.64587 0.86852 0.0
H732 H 0.61437 0.52404 0.13123 0.0
H733 H 0.6594 0.57986 0.11236 0.0
H734 H 0.58158 0.54976 0.1289 0.0
H735 H 0.62635 0.60562 0.10997 0.0
H736 H 0.5617 0.6476 0.1317 0.0
H737 H 0.5957 0.62328 0.13521 0.0
H738 H 0.56157 0.57001 0.09675 0.0
H739 H 0.52763 0.59415 0.09328 0.0
C740 C 0.61731 0.54183 0.12671 0.0
C741 C 0.63949 0.54988 0.12184 0.0
C742 C 0.59849 0.55651 0.12525 0.0
C743 C 0.60141 0.5796 0.11904 0.0
C744 C 0.62364 0.58789 0.11487 0.0
C745 C 0.64252 0.57313 0.11617 0.0
C746 C 0.56149 0.63072 0.12394 0.0
C747 C 0.54195 0.62274 0.11229 0.0
C748 C 0.58098 0.61687 0.12588 0.0
C749 C 0.58118 0.59473 0.11639 0.0
C750 C 0.56176 0.58689 0.10451 0.0
C751 C 0.54238 0.60078 0.10241 0.0
H752 H 0.3782 0.52489 0.08902 0.0
H753 H 0.33002 0.55668 0.13549 0.0
H754 H 0.40295 0.55842 0.09181 0.0
H755 H 0.35496 0.59026 0.13832 0.0
H756 H 0.3967 0.65515 0.11596 0.0
H757 H 0.37026 0.62262 0.11358 0.0
H758 H 0.42695 0.5758 0.1227 0.0
H759 H 0.45329 0.60802 0.12499 0.0
C760 C 0.37286 0.53904 0.09979 0.0
C761 C 0.35221 0.53807 0.11213 0.0
C762 C 0.38709 0.5582 0.10147 0.0
C763 C 0.38093 0.57686 0.1154 0.0
C764 C 0.36006 0.57615 0.12737 0.0
C765 C 0.34587 0.55688 0.12583 0.0
C766 C 0.40347 0.63791 0.11757 0.0
C767 C 0.4271 0.63417 0.12057 0.0
C768 C 0.38834 0.61933 0.11629 0.0
C769 C 0.39661 0.59671 0.11776 0.0
C770 C 0.42015 0.59304 0.12116 0.0
C771 C 0.43521 0.61154 0.12262 0.0
H772 H 0.65004 0.42106 0.10585 0.0
H773 H 0.61559 0.44047 0.16852 0.0
H774 H 0.62258 0.39008 0.10036 0.0
H775 H 0.58792 0.40966 0.16278 0.0
H776 H 0.55136 0.34104 0.15348 0.0
H777 H 0.58276 0.36767 0.16112 0.0
H778 H 0.5818 0.38909 0.09021 0.0
H779 H 0.55074 0.36235 0.08249 0.0
C780 C 0.63674 0.4186 0.11857 0.0
C781 C 0.63487 0.43337 0.13752 0.0
C782 C 0.62094 0.40092 0.11534 0.0
C783 C 0.60295 0.39759 0.131 0.0
C784 C 0.60168 0.41169 0.15049 0.0
C785 C 0.61748 0.42942 0.15372 0.0
C786 C 0.55797 0.35133 0.1395 0.0
C787 C 0.54853 0.34963 0.11738 0.0
C788 C 0.57588 0.36664 0.14391 0.0
C789 C 0.58477 0.38044 0.12627 0.0
C790 C 0.57555 0.37845 0.1041 0.0
C791 C 0.55762 0.36324 0.09971 0.0
H792 H 0.04649 0.29805 0.5456 0.0
H793 H 0.06126 0.27537 0.4767 0.0
H794 H 0.0061 0.29024 0.53961 0.0
H795 H 0.02087 0.26634 0.47099 0.0
H796 H 0.94639 0.29028 0.45867 0.0
H797 H 0.98741 0.28748 0.46468 0.0
H798 H 0.97573 0.26461 0.53427 0.0
H799 H 0.93453 0.26862 0.52849 0.0
C800 C 0.04116 0.29084 0.52934 0.0
C801 C 0.05698 0.28763 0.51151 0.0
C802 C 0.01795 0.28616 0.52593 0.0
C803 C 0.01006 0.27781 0.50471 0.0
C804 C 0.0262 0.27326 0.48736 0.0
C805 C 0.04937 0.27831 0.49066 0.0
C806 C 0.95255 0.28428 0.47514 0.0
C807 C 0.93726 0.28 0.49321 0.0
C808 C 0.97616 0.28252 0.47858 0.0
C809 C 0.98502 0.27608 0.50009 0.0
C810 C 0.96958 0.27019 0.51767 0.0
C811 C 0.94595 0.27232 0.51432 0.0
H812 H 0.694 0.04589 0.53766 0.0
H813 H 0.71605 0.06033 0.46846 0.0
H814 H 0.70066 0.00525 0.53142 0.0
H815 H 0.72378 0.01967 0.46246 0.0
H816 H 0.69716 0.94582 0.45065 0.0
H817 H 0.7012 0.98681 0.4566 0.0
H818 H 0.7259 0.97434 0.52541 0.0
H819 H 0.72079 0.93323 0.51971 0.0
C820 C 0.70081 0.04042 0.52128 0.0
C821 C 0.7042 0.05625 0.50346 0.0
C822 C 0.70481 0.01708 0.51772 0.0
C823 C 0.71261 0.00906 0.49634 0.0
C824 C 0.71731 0.02514 0.47897 0.0
C825 C 0.71299 0.04847 0.48244 0.0
C826 C 0.70384 0.95179 0.46691 0.0
C827 C 0.70831 0.93633 0.48483 0.0
C828 C 0.7063 0.97536 0.47031 0.0
C829 C 0.71361 0.98399 0.49162 0.0
C830 C 0.71969 0.96835 0.50898 0.0
C831 C 0.71691 0.94478 0.50568 0.0
H832 H 0.92816 0.71495 0.46204 0.0
H833 H 0.94443 0.70066 0.53286 0.0
H834 H 0.96852 0.72243 0.45427 0.0
H835 H 0.98477 0.70689 0.52497 0.0
H836 H 0.05625 0.72637 0.50943 0.0
H837 H 0.01524 0.73126 0.51579 0.0
H838 H 0.00157 0.70022 0.44985 0.0
H839 H 0.04242 0.6965 0.44312 0.0
C840 C 0.94038 0.71352 0.47597 0.0
C841 C 0.93319 0.70701 0.498 0.0
C842 C 0.96353 0.71767 0.4715 0.0
C843 C 0.98005 0.71501 0.48889 0.0
C844 C 0.97262 0.70946 0.51117 0.0
C845 C 0.94944 0.70569 0.51571 0.0
C846 C 0.04444 0.72102 0.49615 0.0
C847 C 0.05252 0.71085 0.47589 0.0
C848 C 0.02092 0.72367 0.49984 0.0
C849 C 0.00498 0.71582 0.48351 0.0
C850 C 0.01322 0.70674 0.46274 0.0
C851 C 0.03672 0.70446 0.4589 0.0
H852 H 0.27385 0.06393 0.52034 0.0
H853 H 0.29045 0.05209 0.44917 0.0
H854 H 0.26987 0.02274 0.5263 0.0
H855 H 0.28757 0.01096 0.45529 0.0
H856 H 0.27314 0.93711 0.46858 0.0
H857 H 0.26568 0.97794 0.46319 0.0
H858 H 0.29564 0.9919 0.52955 0.0
H859 H 0.30207 0.95117 0.53528 0.0
C860 C 0.27645 0.05251 0.50593 0.0
C861 C 0.28266 0.0612 0.48435 0.0
C862 C 0.27433 0.02889 0.50937 0.0
C863 C 0.27875 0.01343 0.49139 0.0
C864 C 0.28379 0.02227 0.4695 0.0
C865 C 0.28556 0.04591 0.46599 0.0
C866 C 0.27781 0.94892 0.48213 0.0
C867 C 0.28836 0.94096 0.50228 0.0
C868 C 0.27365 0.97234 0.479 0.0
C869 C 0.28023 0.98832 0.49583 0.0
C870 C 0.28999 0.98016 0.51634 0.0
C871 C 0.29387 0.95675 0.51958 0.0
H872 H 0.52571 0.9238 0.26845 0.0
H873 H 0.45454 0.9363 0.2846 0.0
H874 H 0.53145 0.96476 0.26217 0.0
H875 H 0.46043 0.97717 0.27961 0.0
H876 H 0.47241 0.05024 0.26423 0.0
H877 H 0.46778 0.00932 0.25696 0.0
H878 H 0.53495 -0.00322 0.28588 0.0
H879 H 0.53994 0.03764 0.2919 0.0
C880 C 0.51126 0.93531 0.27048 0.0
C881 C 0.48974 0.92691 0.27725 0.0
C882 C 0.51456 0.9588 0.26704 0.0
C883 C 0.49652 0.97442 0.27072 0.0
C884 C 0.4747 0.96577 0.2763 0.0
C885 C 0.47132 0.94226 0.27934 0.0
C886 C 0.48632 0.03872 0.26861 0.0
C887 C 0.50643 0.04708 0.27886 0.0
C888 C 0.48363 0.01524 0.26458 0.0
C889 C 0.50083 -0.0004 0.27114 0.0
C890 C 0.52142 0.00821 0.2803 0.0
C891 C 0.52425 0.03171 0.28393 0.0
H892 H 0.92993 0.45932 0.29036 0.0
H893 H 0.93107 0.52846 0.26347 0.0
H894 H 0.97095 0.45607 0.28395 0.0
H895 H 0.97222 0.52501 0.25667 0.0
H896 H 0.04567 0.52083 0.2886 0.0
H897 H 0.00447 0.52386 0.28342 0.0
H898 H 0.00268 0.45481 0.25655 0.0
H899 H 0.04406 0.45159 0.26211 0.0
C900 C 0.93885 0.47368 0.28265 0.0
C901 C 0.9273 0.49429 0.27775 0.0
C902 C 0.96237 0.47174 0.27881 0.0
C903 C 0.97487 0.49035 0.26997 0.0
C904 C 0.96309 0.51049 0.2638 0.0
C905 C 0.93951 0.51243 0.26762 0.0
C906 C 0.03658 0.50639 0.28127 0.0
C907 C 0.04809 0.48584 0.27607 0.0
C908 C 0.01295 0.50821 0.27811 0.0
C909 C 0.00029 0.48952 0.26969 0.0
C910 C 0.01196 0.46939 0.26333 0.0
C911 C 0.03566 0.46759 0.26644 0.0
H912 H 0.45809 0.93075 0.6955 0.0
H913 H 0.53047 0.93894 0.70916 0.0
H914 H 0.45352 0.97227 0.69467 0.0
H915 H 0.52591 0.98053 0.70793 0.0
H916 H 0.50679 0.05611 0.71602 0.0
H917 H 0.5084 0.01518 0.7252 0.0
H918 H 0.46607 0.00048 0.66624 0.0
H919 H 0.4642 0.04114 0.65726 0.0
C920 C 0.47298 0.9414 0.69864 0.0
C921 C 0.49471 0.93155 0.70207 0.0
C922 C 0.47037 0.96519 0.69805 0.0
C923 C 0.48942 0.97965 0.70085 0.0
C924 C 0.51088 0.96984 0.70579 0.0
C925 C 0.5135 0.94599 0.70642 0.0
C926 C 0.49768 0.04413 0.70515 0.0
C927 C 0.48543 0.05184 0.68586 0.0
C928 C 0.49868 0.02071 0.71037 0.0
C929 C 0.48729 0.00463 0.69651 0.0
C930 C 0.47471 0.01246 0.67749 0.0
C931 C 0.47381 0.03578 0.67223 0.0
H932 H 0.9484 0.45656 0.69765 0.0
H933 H 0.93311 0.52481 0.72212 0.0
H934 H 0.98908 0.46418 0.70147 0.0
H935 H 0.97394 0.53215 0.72713 0.0
H936 H 0.04509 0.54781 0.69646 0.0
H937 H 0.00474 0.53988 0.70266 0.0
H938 H 0.02161 0.47075 0.72393 0.0
H939 H 0.06199 0.47847 0.71652 0.0
C940 C 0.95373 0.473 0.70444 0.0
C941 C 0.93759 0.4902 0.70928 0.0
C942 C 0.97713 0.47736 0.70679 0.0
C943 C 0.98492 0.49891 0.7144 0.0
C944 C 0.96862 0.51557 0.72069 0.0
C945 C 0.94521 0.51133 0.71797 0.0
C946 C 0.04021 0.53102 0.70276 0.0
C947 C 0.05665 0.51366 0.70569 0.0
C948 C 0.01703 0.52648 0.7065 0.0
C949 C 0.00978 0.50457 0.71362 0.0
C950 C 0.02647 0.48765 0.71793 0.0
C951 C 0.04963 0.49209 0.71381 0.0
H952 H 0.28975 0.44467 0.94621 0.0
H953 H 0.26611 0.51338 0.93151 0.0
H954 H 0.28326 0.451 0.98677 0.0
H955 H 0.25845 0.51944 0.97213 0.0
H956 H 0.28582 0.53275 0.04531 0.0
H957 H 0.28123 0.5262 0.00449 0.0
H958 H 0.25895 0.45673 0.01814 0.0
H959 H 0.26472 0.46305 0.05902 0.0
C960 C 0.28256 0.46093 0.9516 0.0
C961 C 0.27878 0.47865 0.93573 0.0
C962 C 0.27867 0.46455 0.97492 0.0
C963 C 0.27055 0.48587 0.98287 0.0
C964 C 0.26524 0.50302 0.96672 0.0
C965 C 0.26949 0.49951 0.94342 0.0
C966 C 0.27958 0.5162 0.03962 0.0
C967 C 0.27595 0.49831 0.05531 0.0
C968 C 0.27678 0.51245 0.01615 0.0
C969 C 0.26995 0.49082 0.00789 0.0
C970 C 0.26478 0.47343 0.02381 0.0
C971 C 0.26794 0.47708 0.04726 0.0
H972 H 0.46215 0.2904 0.93649 0.0
H973 H 0.52831 0.25698 0.93832 0.0
H974 H 0.45781 0.28405 0.97742 0.0
H975 H 0.52373 0.25025 0.97938 0.0
H976 H 0.52114 0.28069 0.05354 0.0
H977 H 0.52454 0.27612 0.01228 0.0
H978 H 0.45329 0.2563 0.00847 0.0
H979 H 0.44972 0.26128 0.04986 0.0
C980 C 0.4756 0.28133 0.94555 0.0
C981 C 0.49573 0.27448 0.93421 0.0
C982 C 0.47302 0.27751 0.96902 0.0
C983 C 0.49049 0.26676 0.98168 0.0
C984 C 0.5101 0.25885 0.97012 0.0
C985 C 0.51268 0.26263 0.94659 0.0
C986 C 0.50626 0.27501 0.04398 0.0
C987 C 0.48507 0.27167 0.05494 0.0
C988 C 0.50827 0.27222 0.02032 0.0
C989 C 0.48913 0.26602 0.00707 0.0
C990 C 0.46825 0.26141 0.01819 0.0
C991 C 0.46625 0.26418 0.04191 0.0
H992 H 0.68896 0.5399 0.94804 0.0
H993 H 0.71781 0.4739 0.93057 0.0
H994 H 0.69491 0.53179 0.98846 0.0
H995 H 0.7248 0.46614 0.97101 0.0
H996 H 0.69712 0.44715 0.04274 0.0
H997 H 0.70143 0.45624 0.00238 0.0
H998 H 0.7197 0.52598 0.01989 0.0
H999 H 0.71434 0.51704 0.06035 0.0
C1000 C 0.69712 0.52389 0.95282 0.0
C1001 C 0.70262 0.5074 0.93619 0.0
C1002 C 0.70069 0.51927 0.97603 0.0
C1003 C 0.71014 0.49817 0.98308 0.0
C1004 C 0.71699 0.48232 0.96625 0.0
C1005 C 0.71312 0.48682 0.94307 0.0
C1006 C 0.70241 0.46432 0.03801 0.0
C1007 C 0.70507 0.48146 0.05468 0.0
C1008 C 0.70504 0.46954 0.01481 0.0
C1009 C 0.71071 0.49194 0.00779 0.0
C1010 C 0.71482 0.50869 0.02464 0.0
C1011 C 0.71189 0.50354 0.04784 0.0
H1012 H 0.51547 0.71787 0.93149 0.0
H1013 H 0.44553 0.69789 0.94513 0.0
H1014 H 0.52229 0.72216 0.97247 0.0
H1015 H 0.45255 0.70087 0.98601 0.0
H1016 H 0.46647 0.7136 0.05944 0.0
H1017 H 0.45993 0.72211 0.01905 0.0
H1018 H 0.52796 0.69715 0.00312 0.0
H1019 H 0.53479 0.68991 0.04349 0.0
C1020 C 0.50151 0.71456 0.94328 0.0
C1021 C 0.48004 0.70734 0.93516 0.0
C1022 C 0.50544 0.71685 0.96678 0.0
C1023 C 0.48811 0.71151 0.98269 0.0
C1024 C 0.46628 0.70543 0.9744 0.0
C1025 C 0.46224 0.70357 0.95088 0.0
C1026 C 0.48013 0.71034 0.04729 0.0
C1027 C 0.50106 0.7009 0.05457 0.0
C1028 C 0.47635 0.71507 0.02411 0.0
C1029 C 0.49327 0.71005 0.00766 0.0
C1030 C 0.51459 0.70159 0.0152 0.0
C1031 C 0.5185 0.69725 0.03841 0.0
H1032 H 0.16653 0.25273 0.50807 0.0
H1033 H 0.20956 0.29741 0.46748 0.0
H1034 H 0.19643 0.22361 0.50782 0.0
H1035 H 0.23933 0.268 0.46685 0.0
H1036 H 0.296 0.21995 0.49449 0.0
H1037 H 0.26636 0.24946 0.49303 0.0
H1038 H 0.21507 0.19728 0.48143 0.0
H1039 H 0.24455 0.16777 0.48336 0.0
C1040 C 0.18232 0.25629 0.49899 0.0
C1041 C 0.18568 0.27739 0.48781 0.0
C1042 C 0.19941 0.23954 0.49873 0.0
C1043 C 0.22021 0.24348 0.48725 0.0
C1044 C 0.22357 0.26456 0.47604 0.0
C1045 C 0.20647 0.28135 0.47632 0.0
C1046 C 0.27841 0.21479 0.49153 0.0
C1047 C 0.2726 0.19152 0.48918 0.0
C1048 C 0.26146 0.23171 0.49058 0.0
C1049 C 0.23837 0.22568 0.48723 0.0
C1050 C 0.23266 0.20244 0.48441 0.0
C1051 C 0.24958 0.18554 0.48539 0.0
H1052 H 0.70896 0.20511 0.45484 0.0
H1053 H 0.74213 0.16338 0.50645 0.0
H1054 H 0.74127 0.2317 0.45565 0.0
H1055 H 0.77445 0.18975 0.50697 0.0
H1056 H 0.81515 0.25532 0.52016 0.0
H1057 H 0.78254 0.22932 0.51902 0.0
H1058 H 0.78248 0.23249 0.44503 0.0
H1059 H 0.81499 0.25882 0.44612 0.0
C1060 C 0.72313 0.2016 0.46633 0.0
C1061 C 0.72297 0.18217 0.48061 0.0
C1062 C 0.74168 0.21675 0.46668 0.0
C1063 C 0.76036 0.21279 0.48137 0.0
C1064 C 0.76016 0.19339 0.49567 0.0
C1065 C 0.74168 0.17823 0.49528 0.0
C1066 C 0.80822 0.25048 0.50363 0.0
C1067 C 0.81768 0.2591 0.48322 0.0
C1068 C 0.7896 0.2355 0.50299 0.0
C1069 C 0.78 0.22886 0.48194 0.0
C1070 C 0.78939 0.23751 0.46151 0.0
C1071 C 0.8081 0.25246 0.46214 0.0
H1072 H 0.78277 0.70605 0.45731 0.0
H1073 H 0.82517 0.74255 0.50592 0.0
H1074 H 0.75561 0.73795 0.45717 0.0
H1075 H 0.79813 0.77442 0.50558 0.0
H1076 H 0.73195 0.81506 0.51757 0.0
H1077 H 0.75822 0.78252 0.51796 0.0
H1078 H 0.75474 0.77876 0.4441 0.0
H1079 H 0.72827 0.81121 0.44364 0.0
C1080 C 0.78629 0.72084 0.46797 0.0
C1081 C 0.80612 0.72179 0.48162 0.0
C1082 C 0.77081 0.73914 0.46778 0.0
C1083 C 0.77479 0.75864 0.48135 0.0
C1084 C 0.79451 0.7595 0.49513 0.0
C1085 C 0.81004 0.74128 0.49522 0.0
C1086 C 0.73677 0.8073 0.5014 0.0
C1087 C 0.72807 0.81573 0.48056 0.0
C1088 C 0.75188 0.78873 0.50164 0.0
C1089 C 0.75852 0.77814 0.48107 0.0
C1090 C 0.74972 0.78646 0.46024 0.0
C1091 C 0.7347 0.80513 0.45998 0.0
H1092 H 0.16288 0.74961 0.4723 0.0
H1093 H 0.20961 0.70296 0.50615 0.0
H1094 H 0.19297 0.77851 0.47056 0.0
H1095 H 0.23951 0.73207 0.50486 0.0
H1096 H 0.29383 0.78176 0.47795 0.0
H1097 H 0.26416 0.75233 0.47799 0.0
H1098 H 0.21373 0.8033 0.49679 0.0
H1099 H 0.24324 0.83281 0.49625 0.0
C1100 C 0.17956 0.74553 0.47939 0.0
C1101 C 0.18386 0.72402 0.48941 0.0
C1102 C 0.19675 0.76214 0.47851 0.0
C1103 C 0.21858 0.75761 0.48766 0.0
C1104 C 0.22295 0.73599 0.49742 0.0
C1105 C 0.20577 0.71936 0.49827 0.0
C1106 C 0.27641 0.78668 0.48208 0.0
C1107 C 0.27087 0.8096 0.48706 0.0
C1108 C 0.25944 0.7698 0.4822 0.0
C1109 C 0.2366 0.7755 0.48736 0.0
C1110 C 0.2311 0.79843 0.4924 0.0
C1111 C 0.24804 0.81531 0.49223 0.0
H1112 H 0.5013 0.15636 0.24339 0.0
H1113 H 0.46174 0.20073 0.28769 0.0
H1114 H 0.50313 0.18662 0.21475 0.0
H1115 H 0.46321 0.23093 0.2587 0.0
H1116 H 0.49454 0.28686 0.21221 0.0
H1117 H 0.49124 0.25688 0.2412 0.0
H1118 H 0.47826 0.20688 0.18811 0.0
H1119 H 0.48202 0.23669 0.15911 0.0
C1120 C 0.49287 0.17253 0.24697 0.0
C1121 C 0.48138 0.17615 0.26782 0.0
C1122 C 0.49381 0.18983 0.23048 0.0
C1123 C 0.48326 0.21113 0.23444 0.0
C1124 C 0.47171 0.21477 0.25527 0.0
C1125 C 0.47077 0.19743 0.27181 0.0
C1126 C 0.49094 0.26948 0.20673 0.0
C1127 C 0.48867 0.26412 0.18336 0.0
C1128 C 0.48891 0.25234 0.22335 0.0
C1129 C 0.48456 0.22952 0.21693 0.0
C1130 C 0.48197 0.22425 0.19357 0.0
C1131 C 0.48402 0.24136 0.17697 0.0
H1132 H 0.80835 0.54339 0.26114 0.0
H1133 H 0.81005 0.4692 0.26126 0.0
H1134 H 0.77697 0.5426 0.23344 0.0
H1135 H 0.77859 0.46849 0.23383 0.0
H1136 H 0.74135 0.47749 0.16541 0.0
H1137 H 0.77241 0.4789 0.19323 0.0
H1138 H 0.7359 0.53079 0.23148 0.0
H1139 H 0.7048 0.52961 0.20346 0.0
C1140 C 0.80203 0.52694 0.25529 0.0
C1141 C 0.81171 0.50636 0.26334 0.0
C1142 C 0.78398 0.52649 0.23955 0.0
C1143 C 0.77539 0.50548 0.23149 0.0
C1144 C 0.78506 0.48493 0.23956 0.0
C1145 C 0.80301 0.48536 0.25535 0.0
C1146 C 0.7399 0.48921 0.17974 0.0
C1147 C 0.7206 0.50343 0.18225 0.0
C1148 C 0.75765 0.48992 0.19573 0.0
C1149 C 0.75653 0.50491 0.21453 0.0
C1150 C 0.73729 0.51921 0.21702 0.0
C1151 C 0.71945 0.51843 0.20106 0.0
H1152 H 0.54405 0.72381 0.17484 0.0
H1153 H 0.46998 0.72177 0.17653 0.0
H1154 H 0.54401 0.7504 0.20709 0.0
H1155 H 0.47002 0.74822 0.20892 0.0
H1156 H 0.48078 0.81692 0.24702 0.0
H1157 H 0.48002 0.78913 0.21584 0.0
H1158 H 0.53411 0.75056 0.24869 0.0
H1159 H 0.53506 0.77846 0.27986 0.0
C1160 C 0.52777 0.729 0.1821 0.0
C1161 C 0.50702 0.72073 0.17311 0.0
C1162 C 0.52777 0.7441 0.20066 0.0
C1163 C 0.50702 0.75132 0.21051 0.0
C1164 C 0.48626 0.74307 0.20152 0.0
C1165 C 0.48626 0.72787 0.18304 0.0
C1166 C 0.49246 0.80247 0.24765 0.0
C1167 C 0.50804 0.79992 0.26586 0.0
C1168 C 0.49193 0.78651 0.22985 0.0
C1169 C 0.50704 0.76774 0.22984 0.0
C1170 C 0.52244 0.76502 0.24816 0.0
C1171 C 0.52289 0.78092 0.26605 0.0
H1172 H 0.15452 0.47896 0.24477 0.0
H1173 H 0.1916 0.53471 0.27659 0.0
H1174 H 0.18185 0.47885 0.21318 0.0
H1175 H 0.21907 0.53436 0.24508 0.0
H1176 H 0.24816 0.54276 0.17237 0.0
H1177 H 0.22021 0.54327 0.20347 0.0
H1178 H 0.22269 0.46926 0.20697 0.0
H1179 H 0.25041 0.46867 0.17576 0.0
C1180 C 0.16852 0.49115 0.24506 0.0
C1181 C 0.1709 0.50684 0.26318 0.0
C1182 C 0.18422 0.49101 0.22702 0.0
C1183 C 0.20257 0.50659 0.22669 0.0
C1184 C 0.20493 0.52233 0.24477 0.0
C1185 C 0.18928 0.52242 0.26286 0.0
C1186 C 0.2427 0.5266 0.17973 0.0
C1187 C 0.25149 0.50568 0.17161 0.0
C1188 C 0.2268 0.52691 0.19762 0.0
C1189 C 0.21931 0.50631 0.20764 0.0
C1190 C 0.22798 0.48539 0.19941 0.0
C1191 C 0.24394 0.48508 0.18161 0.0
H1192 H 0.47918 0.69459 0.77681 0.0
H1193 H 0.504 0.7443 0.82585 0.0
H1194 H 0.48119 0.72349 0.74662 0.0
H1195 H 0.50654 0.77295 0.79561 0.0
H1196 H 0.48179 0.82465 0.74228 0.0
H1197 H 0.48096 0.79542 0.77203 0.0
H1198 H 0.50841 0.74581 0.72431 0.0
H1199 H 0.50871 0.77498 0.6943 0.0
C1200 C 0.48522 0.71163 0.78111 0.0
C1201 C 0.49132 0.7172 0.80373 0.0
C1202 C 0.4865 0.72814 0.76379 0.0
C1203 C 0.49397 0.75053 0.76874 0.0
C1204 C 0.50037 0.75597 0.79131 0.0
C1205 C 0.49901 0.7395 0.80862 0.0
C1206 C 0.4877 0.80753 0.73812 0.0
C1207 C 0.49529 0.80212 0.71592 0.0
C1208 C 0.48735 0.7908 0.75523 0.0
C1209 C 0.49466 0.7683 0.75055 0.0
C1210 C 0.50239 0.76292 0.72837 0.0
C1211 C 0.50269 0.77966 0.71122 0.0
H1212 H 0.2585 0.44496 0.80628 0.0
H1213 H 0.2589 0.51839 0.8169 0.0
H1214 H 0.23299 0.44995 0.7735 0.0
H1215 H 0.23348 0.5233 0.78405 0.0
H1216 H 0.1661 0.51742 0.74235 0.0
H1217 H 0.19282 0.51346 0.77427 0.0
H1218 H 0.23432 0.46719 0.734 0.0
H1219 H 0.20756 0.47101 0.70204 0.0
C1220 C 0.25316 0.46215 0.80163 0.0
C1221 C 0.26067 0.48127 0.8142 0.0
C1222 C 0.23869 0.465 0.78277 0.0
C1223 C 0.23131 0.48701 0.77626 0.0
C1224 C 0.23877 0.50613 0.78884 0.0
C1225 C 0.25339 0.5033 0.80758 0.0
C1226 C 0.18098 0.50648 0.74025 0.0
C1227 C 0.1847 0.49447 0.71971 0.0
C1228 C 0.19631 0.50431 0.75849 0.0
C1229 C 0.21557 0.48997 0.7566 0.0
C1230 C 0.21946 0.47817 0.73598 0.0
C1231 C 0.20422 0.48048 0.71766 0.0
H1232 H 0.53623 0.20159 0.7115 0.0
H1233 H 0.48735 0.1596 0.74816 0.0
H1234 H 0.53766 0.22808 0.74384 0.0
H1235 H 0.48905 0.18593 0.78051 0.0
H1236 H 0.47632 0.25343 0.81919 0.0
H1237 H 0.47656 0.2256 0.78811 0.0
H1238 H 0.55038 0.2301 0.78443 0.0
H1239 H 0.55019 0.25825 0.81543 0.0
C1240 C 0.52591 0.19793 0.72649 0.0
C1241 C 0.51158 0.17857 0.72722 0.0
C1242 C 0.52684 0.21303 0.74505 0.0
C1243 C 0.51341 0.20909 0.76465 0.0
C1244 C 0.49937 0.18955 0.76551 0.0
C1245 C 0.49848 0.17443 0.747 0.0
C1246 C 0.49263 0.24846 0.81182 0.0
C1247 C 0.51324 0.25807 0.81974 0.0
C1248 C 0.49276 0.23241 0.79411 0.0
C1249 C 0.51349 0.22567 0.78387 0.0
C1250 C 0.53413 0.23516 0.79187 0.0
C1251 C 0.53402 0.25116 0.80969 0.0
H1252 H 0.69557 0.50469 0.77711 0.0
H1253 H 0.74465 0.4875 0.82996 0.0
H1254 H 0.72597 0.50305 0.74846 0.0
H1255 H 0.77481 0.48527 0.80131 0.0
H1256 H 0.82707 0.50886 0.74836 0.0
H1257 H 0.7965 0.51033 0.77666 0.0
H1258 H 0.75103 0.4758 0.72945 0.0
H1259 H 0.78147 0.47489 0.70084 0.0
C1260 C 0.71281 0.50046 0.78259 0.0
C1261 C 0.71773 0.49631 0.80579 0.0
C1262 C 0.73019 0.49938 0.76616 0.0
C1263 C 0.7528 0.49405 0.77262 0.0
C1264 C 0.75764 0.48977 0.79582 0.0
C1265 C 0.74032 0.49094 0.81223 0.0
C1266 C 0.81057 0.50153 0.74402 0.0
C1267 C 0.80667 0.49178 0.72236 0.0
C1268 C 0.79308 0.50228 0.76029 0.0
C1269 C 0.77135 0.49316 0.7553 0.0
C1270 C 0.7675 0.48326 0.73368 0.0
C1271 C 0.78498 0.48261 0.71736 0.0
loop_
_geom_bond_atom_site_label_1
_geom_bond_atom_site_label_2
_geom_bond_distance
_geom_bond_site_symmetry_2
_ccdc_geom_bond_type
C0 O1 1.160 . S
C0 O7 1.185 . S
O1 C0 1.160 . S
O2 Zn3 1.899 . S
O2 C10 1.284 . S
Zn3 O2 1.899 . S
Zn3 O4 2.032 . S
Zn3 O7 2.086 . S
Zn3 O12 1.977 . S
O4 Zn3 2.032 . S
O4 C8 1.278 . S
C5 O6 1.203 . S
C5 O12 1.267 . S
O6 C5 1.203 . S
O7 C0 1.185 . S
O7 Zn3 2.086 . S
C8 O4 1.278 . S
C8 O9 1.211 . S
O9 C8 1.211 . S
C10 O2 1.284 . S
C10 O11 1.273 . S
O11 C10 1.273 . S
O12 Zn3 1.977 . S
O12 C5 1.267 . S
C13 O14 1.160 . S
C13 O20 1.185 . S
O14 C13 1.160 . S
O15 Zn16 1.899 . S
O15 C23 1.284 . S
Zn16 O15 1.899 . S
Zn16 O17 2.032 . S
Zn16 O20 2.086 . S
Zn16 O25 1.977 . S
O17 Zn16 2.032 . S
O17 C21 1.278 . S
C18 O19 1.203 . S
C18 O25 1.267 . S
O19 C18 1.203 . S
O20 C13 1.185 . S
O20 Zn16 2.086 . S
C21 O17 1.278 . S
C21 O22 1.211 . S
O22 C21 1.211 . S
C23 O15 1.284 . S
C23 O24 1.273 . S
O24 C23 1.273 . S
O25 Zn16 1.977 . S
O25 C18 1.267 . S
C26 O27 1.160 . S
C26 O33 1.185 . S
O27 C26 1.160 . S
O28 Zn29 1.899 . S
O28 C36 1.284 . S
Zn29 O28 1.899 . S
Zn29 O30 2.032 . S
Zn29 O33 2.086 . S
Zn29 O38 1.977 . S
O30 Zn29 2.032 . S
O30 C34 1.278 . S
C31 O32 1.203 . S
C31 O38 1.267 . S
O32 C31 1.203 . S
O33 C26 1.185 . S
O33 Zn29 2.086 . S
C34 O30 1.278 . S
C34 O35 1.211 . S
O35 C34 1.211 . S
C36 O28 1.284 . S
C36 O37 1.273 . S
O37 C36 1.273 . S
O38 Zn29 1.977 . S
O38 C31 1.267 . S
C39 O40 1.160 . S
C39 O46 1.185 . S
O40 C39 1.160 . S
O41 Zn42 1.899 . S
O41 C49 1.284 . S
Zn42 O41 1.899 . S
Zn42 O43 2.032 . S
Zn42 O46 2.086 . S
Zn42 O51 1.977 . S
O43 Zn42 2.032 . S
O43 C47 1.278 . S
C44 O45 1.203 . S
C44 O51 1.267 . S
O45 C44 1.203 . S
O46 C39 1.185 . S
O46 Zn42 2.086 . S
C47 O43 1.278 . S
C47 O48 1.211 . S
O48 C47 1.211 . S
C49 O41 1.284 . S
C49 O50 1.273 . S
O50 C49 1.273 . S
O51 Zn42 1.977 . S
O51 C44 1.267 . S
C52 O53 1.160 . S
C52 O59 1.185 . S
O53 C52 1.160 . S
O54 Zn55 1.899 . S
O54 C62 1.284 . S
Zn55 O54 1.899 . S
Zn55 O56 2.032 . S
Zn55 O59 2.086 . S
Zn55 O64 1.977 . S
O56 Zn55 2.032 . S
O56 C60 1.278 . S
C57 O58 1.203 . S
C57 O64 1.267 . S
O58 C57 1.203 . S
O59 C52 1.185 . S
O59 Zn55 2.086 . S
C60 O56 1.278 . S
C60 O61 1.211 . S
O61 C60 1.211 . S
C62 O54 1.284 . S
C62 O63 1.273 . S
O63 C62 1.273 . S
O64 Zn55 1.977 . S
O64 C57 1.267 . S
C65 O66 1.160 . S
C65 O72 1.185 . S
O66 C65 1.160 . S
O67 Zn68 1.899 . S
O67 C75 1.284 . S
Zn68 O67 1.899 . S
Zn68 O69 2.032 . S
Zn68 O72 2.086 . S
Zn68 O77 1.977 . S
O69 Zn68 2.032 . S
O69 C73 1.278 . S
C70 O71 1.203 . S
C70 O77 1.267 . S
O71 C70 1.203 . S
O72 C65 1.185 . S
O72 Zn68 2.086 . S
C73 O69 1.278 . S
C73 O74 1.211 . S
O74 C73 1.211 . S
C75 O67 1.284 . S
C75 O76 1.273 . S
O76 C75 1.273 . S
O77 Zn68 1.977 . S
O77 C70 1.267 . S
C78 O79 1.160 . S
C78 O85 1.185 . S
O79 C78 1.160 . S
O80 Zn81 1.899 . S
O80 C88 1.284 . S
Zn81 O80 1.899 . S
Zn81 O82 2.032 . S
Zn81 O85 2.086 . S
Zn81 O90 1.977 . S
O82 Zn81 2.032 . S
O82 C86 1.278 . S
C83 O84 1.203 . S
C83 O90 1.267 . S
O84 C83 1.203 . S
O85 C78 1.185 . S
O85 Zn81 2.086 . S
C86 O82 1.278 . S
C86 O87 1.211 . S
O87 C86 1.211 . S
C88 O80 1.284 . S
C88 O89 1.273 . S
O89 C88 1.273 . S
O90 Zn81 1.977 . S
O90 C83 1.267 . S
C91 O92 1.160 . S
C91 O98 1.185 . S
O92 C91 1.160 . S
O93 Zn94 1.899 . S
O93 C101 1.284 . S
Zn94 O93 1.899 . S
Zn94 O95 2.032 . S
Zn94 O98 2.086 . S
Zn94 O103 1.977 . S
O95 Zn94 2.032 . S
O95 C99 1.278 . S
C96 O97 1.203 . S
C96 O103 1.267 . S
O97 C96 1.203 . S
O98 C91 1.185 . S
O98 Zn94 2.086 . S
C99 O95 1.278 . S
C99 O100 1.211 . S
O100 C99 1.211 . S
C101 O93 1.284 . S
C101 O102 1.273 . S
O102 C101 1.273 . S
O103 Zn94 1.977 . S
O103 C96 1.267 . S
C104 O105 1.160 . S
C104 O111 1.185 . S
O105 C104 1.160 . S
O106 Zn107 1.899 . S
O106 C114 1.284 . S
Zn107 O106 1.899 . S
Zn107 O108 2.032 . S
Zn107 O111 2.086 . S
Zn107 O116 1.977 . S
O108 Zn107 2.032 . S
O108 C112 1.278 . S
C109 O110 1.203 . S
C109 O116 1.267 . S
O110 C109 1.203 . S
O111 C104 1.185 . S
O111 Zn107 2.086 . S
C112 O108 1.278 . S
C112 O113 1.211 . S
O113 C112 1.211 . S
C114 O106 1.284 . S
C114 O115 1.273 . S
O115 C114 1.273 . S
O116 Zn107 1.977 . S
O116 C109 1.267 . S
C117 O118 1.160 . S
C117 O124 1.185 . S
O118 C117 1.160 . S
O119 Zn120 1.899 . S
O119 C127 1.284 . S
Zn120 O119 1.899 . S
Zn120 O121 2.032 . S
Zn120 O124 2.086 . S
Zn120 O129 1.977 . S
O121 Zn120 2.032 . S
O121 C125 1.278 . S
C122 O123 1.203 . S
C122 O129 1.267 . S
O123 C122 1.203 . S
O124 C117 1.185 . S
O124 Zn120 2.086 . S
C125 O121 1.278 . S
C125 O126 1.211 . S
O126 C125 1.211 . S
C127 O119 1.284 . S
C127 O128 1.273 . S
O128 C127 1.273 . S
O129 Zn120 1.977 . S
O129 C122 1.267 . S
C130 O131 1.160 . S
C130 O137 1.185 . S
O131 C130 1.160 . S
O132 Zn133 1.899 . S
O132 C140 1.284 . S
Zn133 O132 1.899 . S
Zn133 O134 2.032 . S
Zn133 O137 2.086 . S
Zn133 O142 1.977 . S
O134 Zn133 2.032 . S
O134 C138 1.278 . S
C135 O136 1.203 . S
C135 O142 1.267 . S
O136 C135 1.203 . S
O137 C130 1.185 . S
O137 Zn133 2.086 . S
C138 O134 1.278 . S
C138 O139 1.211 . S
O139 C138 1.211 . S
C140 O132 1.284 . S
C140 O141 1.273 . S
O141 C140 1.273 . S
O142 Zn133 1.977 . S
O142 C135 1.267 . S
C143 O144 1.160 . S
C143 O150 1.185 . S
O144 C143 1.160 . S
O145 Zn146 1.899 . S
O145 C153 1.284 . S
Zn146 O145 1.899 . S
Zn146 O147 2.032 . S
Zn146 O150 2.086 . S
Zn146 O155 1.977 . S
O147 Zn146 2.032 . S
O147 C151 1.278 . S
C148 O149 1.203 . S
C148 O155 1.267 . S
O149 C148 1.203 . S
O150 C143 1.185 . S
O150 Zn146 2.086 . S
C151 O147 1.278 . S
C151 O152 1.211 . S
O152 C151 1.211 . S
C153 O145 1.284 . S
C153 O154 1.273 . S
O154 C153 1.273 . S
O155 Zn146 1.977 . S
O155 C148 1.267 . S
C156 O157 1.160 . S
C156 O163 1.185 . S
O157 C156 1.160 . S
O158 Zn159 1.899 . S
O158 C166 1.284 . S
Zn159 O158 1.899 . S
Zn159 O160 2.032 . S
Zn159 O163 2.086 . S
Zn159 O168 1.977 . S
O160 Zn159 2.032 . S
O160 C164 1.278 . S
C161 O162 1.203 . S
C161 O168 1.267 . S
O162 C161 1.203 . S
O163 C156 1.185 . S
O163 Zn159 2.086 . S
C164 O160 1.278 . S
C164 O165 1.211 . S
O165 C164 1.211 . S
C166 O158 1.284 . S
C166 O167 1.273 . S
O167 C166 1.273 . S
O168 Zn159 1.977 . S
O168 C161 1.267 . S
C169 O170 1.160 . S
C169 O176 1.185 . S
O170 C169 1.160 . S
O171 Zn172 1.899 . S
O171 C179 1.284 . S
Zn172 O171 1.899 . S
Zn172 O173 2.032 . S
Zn172 O176 2.086 . S
Zn172 O181 1.977 . S
O173 Zn172 2.032 . S
O173 C177 1.278 . S
C174 O175 1.203 . S
C174 O181 1.267 . S
O175 C174 1.203 . S
O176 C169 1.185 . S
O176 Zn172 2.086 . S
C177 O173 1.278 . S
C177 O178 1.211 . S
O178 C177 1.211 . S
C179 O171 1.284 . S
C179 O180 1.273 . S
O180 C179 1.273 . S
O181 Zn172 1.977 . S
O181 C174 1.267 . S
C182 O183 1.160 . S
C182 O189 1.185 . S
O183 C182 1.160 . S
O184 Zn185 1.899 . S
O184 C192 1.284 . S
Zn185 O184 1.899 . S
Zn185 O186 2.032 . S
Zn185 O189 2.086 . S
Zn185 O194 1.977 . S
O186 Zn185 2.032 . S
O186 C190 1.278 . S
C187 O188 1.203 . S
C187 O194 1.267 . S
O188 C187 1.203 . S
O189 C182 1.185 . S
O189 Zn185 2.086 . S
C190 O186 1.278 . S
C190 O191 1.211 . S
O191 C190 1.211 . S
C192 O184 1.284 . S
C192 O193 1.273 . S
O193 C192 1.273 . S
O194 Zn185 1.977 . S
O194 C187 1.267 . S
C195 O196 1.160 . S
C195 O202 1.185 . S
O196 C195 1.160 . S
O197 Zn198 1.899 . S
O197 C205 1.284 . S
Zn198 O197 1.899 . S
Zn198 O199 2.032 . S
Zn198 O202 2.086 . S
Zn198 O207 1.977 . S
O199 Zn198 2.032 . S
O199 C203 1.278 . S
C200 O201 1.203 . S
C200 O207 1.267 . S
O201 C200 1.203 . S
O202 C195 1.185 . S
O202 Zn198 2.086 . S
C203 O199 1.278 . S
C203 O204 1.211 . S
O204 C203 1.211 . S
C205 O197 1.284 . S
C205 O206 1.273 . S
O206 C205 1.273 . S
O207 Zn198 1.977 . S
O207 C200 1.267 . S
C208 O209 1.160 . S
C208 O215 1.185 . S
O209 C208 1.160 . S
O210 Zn211 1.899 . S
O210 C218 1.284 . S
Zn211 O210 1.899 . S
Zn211 O212 2.032 . S
Zn211 O215 2.086 . S
Zn211 O220 1.977 . S
O212 Zn211 2.032 . S
O212 C216 1.278 . S
C213 O214 1.203 . S
C213 O220 1.267 . S
O214 C213 1.203 . S
O215 C208 1.185 . S
O215 Zn211 2.086 . S
C216 O212 1.278 . S
C216 O217 1.211 . S
O217 C216 1.211 . S
C218 O210 1.284 . S
C218 O219 1.273 . S
O219 C218 1.273 . S
O220 Zn211 1.977 . S
O220 C213 1.267 . S
C221 O222 1.160 . S
C221 O228 1.185 . S
O222 C221 1.160 . S
O223 Zn224 1.899 . S
O223 C231 1.284 . S
Zn224 O223 1.899 . S
Zn224 O225 2.032 . S
Zn224 O228 2.086 . S
Zn224 O233 1.977 . S
O225 Zn224 2.032 . S
O225 C229 1.278 . S
C226 O227 1.203 . S
C226 O233 1.267 . S
O227 C226 1.203 . S
O228 C221 1.185 . S
O228 Zn224 2.086 . S
C229 O225 1.278 . S
C229 O230 1.211 . S
O230 C229 1.211 . S
C231 O223 1.284 . S
C231 O232 1.273 . S
O232 C231 1.273 . S
O233 Zn224 1.977 . S
O233 C226 1.267 . S
C234 O235 1.160 . S
C234 O241 1.185 . S
O235 C234 1.160 . S
O236 Zn237 1.899 . S
O236 C244 1.284 . S
Zn237 O236 1.899 . S
Zn237 O238 2.032 . S
Zn237 O241 2.086 . S
Zn237 O246 1.977 . S
O238 Zn237 2.032 . S
O238 C242 1.278 . S
C239 O240 1.203 . S
C239 O246 1.267 . S
O240 C239 1.203 . S
O241 C234 1.185 . S
O241 Zn237 2.086 . S
C242 O238 1.278 . S
C242 O243 1.211 . S
O243 C242 1.211 . S
C244 O236 1.284 . S
C244 O245 1.273 . S
O245 C244 1.273 . S
O246 Zn237 1.977 . S
O246 C239 1.267 . S
C247 O248 1.160 . S
C247 O254 1.185 . S
O248 C247 1.160 . S
O249 Zn250 1.899 . S
O249 C257 1.284 . S
Zn250 O249 1.899 . S
Zn250 O251 2.032 . S
Zn250 O254 2.086 . S
Zn250 O259 1.977 . S
O251 Zn250 2.032 . S
O251 C255 1.278 . S
C252 O253 1.203 . S
C252 O259 1.267 . S
O253 C252 1.203 . S
O254 C247 1.185 . S
O254 Zn250 2.086 . S
C255 O251 1.278 . S
C255 O256 1.211 . S
O256 C255 1.211 . S
C257 O249 1.284 . S
C257 O258 1.273 . S
O258 C257 1.273 . S
O259 Zn250 1.977 . S
O259 C252 1.267 . S
C260 O261 1.160 . S
C260 O267 1.185 . S
O261 C260 1.160 . S
O262 Zn263 1.899 . S
O262 C270 1.284 . S
Zn263 O262 1.899 . S
Zn263 O264 2.032 . S
Zn263 O267 2.086 . S
Zn263 O272 1.977 . S
O264 Zn263 2.032 . S
O264 C268 1.278 . S
C265 O266 1.203 . S
C265 O272 1.267 . S
O266 C265 1.203 . S
O267 C260 1.185 . S
O267 Zn263 2.086 . S
C268 O264 1.278 . S
C268 O269 1.211 . S
O269 C268 1.211 . S
C270 O262 1.284 . S
C270 O271 1.273 . S
O271 C270 1.273 . S
O272 Zn263 1.977 . S
O272 C265 1.267 . S
C273 O274 1.160 . S
C273 O280 1.185 . S
O274 C273 1.160 . S
O275 Zn276 1.899 . S
O275 C283 1.284 . S
Zn276 O275 1.899 . S
Zn276 O277 2.032 . S
Zn276 O280 2.086 . S
Zn276 O285 1.977 . S
O277 Zn276 2.032 . S
O277 C281 1.278 . S
C278 O279 1.203 . S
C278 O285 1.267 . S
O279 C278 1.203 . S
O280 C273 1.185 . S
O280 Zn276 2.086 . S
C281 O277 1.278 . S
C281 O282 1.211 . S
O282 C281 1.211 . S
C283 O275 1.284 . S
C283 O284 1.273 . S
O284 C283 1.273 . S
O285 Zn276 1.977 . S
O285 C278 1.267 . S
C286 O287 1.160 . S
C286 O293 1.185 . S
O287 C286 1.160 . S
O288 Zn289 1.899 . S
O288 C296 1.284 . S
Zn289 O288 1.899 . S
Zn289 O290 2.032 . S
Zn289 O293 2.086 . S
Zn289 O298 1.977 . S
O290 Zn289 2.032 . S
O290 C294 1.278 . S
C291 O292 1.203 . S
C291 O298 1.267 . S
O292 C291 1.203 . S
O293 C286 1.185 . S
O293 Zn289 2.086 . S
C294 O290 1.278 . S
C294 O295 1.211 . S
O295 C294 1.211 . S
C296 O288 1.284 . S
C296 O297 1.273 . S
O297 C296 1.273 . S
O298 Zn289 1.977 . S
O298 C291 1.267 . S
C299 O300 1.160 . S
C299 O306 1.185 . S
O300 C299 1.160 . S
O301 Zn302 1.899 . S
O301 C309 1.284 . S
Zn302 O301 1.899 . S
Zn302 O303 2.032 . S
Zn302 O306 2.086 . S
Zn302 O311 1.977 . S
O303 Zn302 2.032 . S
O303 C307 1.278 . S
C304 O305 1.203 . S
C304 O311 1.267 . S
O305 C304 1.203 . S
O306 C299 1.185 . S
O306 Zn302 2.086 . S
C307 O303 1.278 . S
C307 O308 1.211 . S
O308 C307 1.211 . S
C309 O301 1.284 . S
C309 O310 1.273 . S
O310 C309 1.273 . S
O311 Zn302 1.977 . S
O311 C304 1.267 . S
H312 C320 0.950 . S
H313 C325 0.950 . S
H314 C322 0.950 . S
H315 C324 0.950 . S
H316 C326 0.950 . S
H317 C328 0.950 . S
H318 C330 0.950 . S
H319 C331 0.950 . S
C320 H312 0.950 . S
C320 C321 1.386 . S
C320 C322 1.391 . S
C321 C320 1.386 . S
C321 C325 1.393 . S
C322 H314 0.950 . S
C322 C320 1.391 . S
C322 C323 1.400 . S
C323 C322 1.400 . S
C323 C324 1.398 . S
C323 C329 1.491 . S
C324 H315 0.950 . S
C324 C323 1.398 . S
C324 C325 1.391 . S
C325 H313 0.950 . S
C325 C321 1.393 . S
C325 C324 1.391 . S
C326 H316 0.950 . S
C326 C327 1.386 . S
C326 C328 1.391 . S
C327 C326 1.386 . S
C327 C331 1.393 . S
C328 H317 0.950 . S
C328 C326 1.391 . S
C328 C329 1.400 . S
C329 C323 1.491 . S
C329 C328 1.400 . S
C329 C330 1.398 . S
C330 H318 0.950 . S
C330 C329 1.398 . S
C330 C331 1.391 . S
C331 H319 0.950 . S
C331 C327 1.393 . S
C331 C330 1.391 . S
H332 C340 0.950 . S
H333 C345 0.950 . S
H334 C342 0.950 . S
H335 C344 0.950 . S
H336 C346 0.950 . S
H337 C348 0.950 . S
H338 C350 0.950 . S
H339 C351 0.950 . S
C340 H332 0.950 . S
C340 C341 1.386 . S
C340 C342 1.391 . S
C341 C340 1.386 . S
C341 C345 1.393 . S
C342 H334 0.950 . S
C342 C340 1.391 . S
C342 C343 1.400 . S
C343 C342 1.400 . S
C343 C344 1.398 . S
C343 C349 1.491 . S
C344 H335 0.950 . S
C344 C343 1.398 . S
C344 C345 1.391 . S
C345 H333 0.950 . S
C345 C341 1.393 . S
C345 C344 1.391 . S
C346 H336 0.950 . S
C346 C347 1.386 . S
C346 C348 1.391 . S
C347 C346 1.386 . S
C347 C351 1.393 . S
C348 H337 0.950 . S
C348 C346 1.391 . S
C348 C349 1.400 . S
C349 C343 1.491 . S
C349 C348 1.400 . S
C349 C350 1.398 . S
C350 H338 0.950 . S
C350 C349 1.398 . S
C350 C351 1.391 . S
C351 H339 0.950 . S
C351 C347 1.393 . S
C351 C350 1.391 . S
H352 C360 0.950 . S
H353 C365 0.950 . S
H354 C362 0.950 . S
H355 C364 0.950 . S
H356 C366 0.950 . S
H357 C368 0.950 . S
H358 C370 0.950 . S
H359 C371 0.950 . S
C360 H352 0.950 . S
C360 C361 1.386 . S
C360 C362 1.391 . S
C361 C360 1.386 . S
C361 C365 1.393 . S
C362 H354 0.950 . S
C362 C360 1.391 . S
C362 C363 1.400 . S
C363 C362 1.400 . S
C363 C364 1.398 . S
C363 C369 1.491 . S
C364 H355 0.950 . S
C364 C363 1.398 . S
C364 C365 1.391 . S
C365 H353 0.950 . S
C365 C361 1.393 . S
C365 C364 1.391 . S
C366 H356 0.950 . S
C366 C367 1.386 . S
C366 C368 1.391 . S
C367 C366 1.386 . S
C367 C371 1.393 . S
C368 H357 0.950 . S
C368 C366 1.391 . S
C368 C369 1.400 . S
C369 C363 1.491 . S
C369 C368 1.400 . S
C369 C370 1.398 . S
C370 H358 0.950 . S
C370 C369 1.398 . S
C370 C371 1.391 . S
C371 H359 0.950 . S
C371 C367 1.393 . S
C371 C370 1.391 . S
H372 C380 0.950 . S
H373 C385 0.950 . S
H374 C382 0.950 . S
H375 C384 0.950 . S
H376 C386 0.950 . S
H377 C388 0.950 . S
H378 C390 0.950 . S
H379 C391 0.950 . S
C380 H372 0.950 . S
C380 C381 1.386 . S
C380 C382 1.391 . S
C381 C380 1.386 . S
C381 C385 1.393 . S
C382 H374 0.950 . S
C382 C380 1.391 . S
C382 C383 1.400 . S
C383 C382 1.400 . S
C383 C384 1.398 . S
C383 C389 1.491 . S
C384 H375 0.950 . S
C384 C383 1.398 . S
C384 C385 1.391 . S
C385 H373 0.950 . S
C385 C381 1.393 . S
C385 C384 1.391 . S
C386 H376 0.950 . S
C386 C387 1.386 . S
C386 C388 1.391 . S
C387 C386 1.386 . S
C387 C391 1.393 . S
C388 H377 0.950 . S
C388 C386 1.391 . S
C388 C389 1.400 . S
C389 C383 1.491 . S
C389 C388 1.400 . S
C389 C390 1.398 . S
C390 H378 0.950 . S
C390 C389 1.398 . S
C390 C391 1.391 . S
C391 H379 0.950 . S
C391 C387 1.393 . S
C391 C390 1.391 . S
H392 C400 0.950 . S
H393 C405 0.950 . S
H394 C402 0.950 . S
H395 C404 0.950 . S
H396 C406 0.950 . S
H397 C408 0.950 . S
H398 C410 0.950 . S
H399 C411 0.950 . S
C400 H392 0.950 . S
C400 C401 1.386 . S
C400 C402 1.391 . S
C401 C400 1.386 . S
C401 C405 1.393 . S
C402 H394 0.950 . S
C402 C400 1.391 . S
C402 C403 1.400 . S
C403 C402 1.400 . S
C403 C404 1.398 . S
C403 C409 1.491 . S
C404 H395 0.950 . S
C404 C403 1.398 . S
C404 C405 1.391 . S
C405 H393 0.950 . S
C405 C401 1.393 . S
C405 C404 1.391 . S
C406 H396 0.950 . S
C406 C407 1.386 . S
C406 C408 1.391 . S
C407 C406 1.386 . S
C407 C411 1.393 . S
C408 H397 0.950 . S
C408 C406 1.391 . S
C408 C409 1.400 . S
C409 C403 1.491 . S
C409 C408 1.400 . S
C409 C410 1.398 . S
C410 H398 0.950 . S
C410 C409 1.398 . S
C410 C411 1.391 . S
C411 H399 0.950 . S
C411 C407 1.393 . S
C411 C410 1.391 . S
H412 C420 0.950 . S
H413 C425 0.950 . S
H414 C422 0.950 . S
H415 C424 0.950 . S
H416 C426 0.950 . S
H417 C428 0.950 . S
H418 C430 0.950 . S
H419 C431 0.950 . S
C420 H412 0.950 . S
C420 C421 1.386 . S
C420 C422 1.391 . S
C421 C420 1.386 . S
C421 C425 1.393 . S
C422 H414 0.950 . S
C422 C420 1.391 . S
C422 C423 1.400 . S
C423 C422 1.400 . S
C423 C424 1.398 . S
C423 C429 1.491 . S
C424 H415 0.950 . S
C424 C423 1.398 . S
C424 C425 1.391 . S
C425 H413 0.950 . S
C425 C421 1.393 . S
C425 C424 1.391 . S
C426 H416 0.950 . S
C426 C427 1.386 . S
C426 C428 1.391 . S
C427 C426 1.386 . S
C427 C431 1.393 . S
C428 H417 0.950 . S
C428 C426 1.391 . S
C428 C429 1.400 . S
C429 C423 1.491 . S
C429 C428 1.400 . S
C429 C430 1.398 . S
C430 H418 0.950 . S
C430 C429 1.398 . S
C430 C431 1.391 . S
C431 H419 0.950 . S
C431 C427 1.393 . S
C431 C430 1.391 . S
H432 C440 0.950 . S
H433 C445 0.950 . S
H434 C442 0.950 . S
H435 C444 0.950 . S
H436 C446 0.950 . S
H437 C448 0.950 . S
H438 C450 0.950 . S
H439 C451 0.950 . S
C440 H432 0.950 . S
C440 C441 1.386 . S
C440 C442 1.391 . S
C441 C440 1.386 . S
C441 C445 1.393 . S
C442 H434 0.950 . S
C442 C440 1.391 . S
C442 C443 1.400 . S
C443 C442 1.400 . S
C443 C444 1.398 . S
C443 C449 1.491 . S
C444 H435 0.950 . S
C444 C443 1.398 . S
C444 C445 1.391 . S
C445 H433 0.950 . S
C445 C441 1.393 . S
C445 C444 1.391 . S
C446 H436 0.950 . S
C446 C447 1.386 . S
C446 C448 1.391 . S
C447 C446 1.386 . S
C447 C451 1.393 . S
C448 H437 0.950 . S
C448 C446 1.391 . S
C448 C449 1.400 . S
C449 C443 1.491 . S
C449 C448 1.400 . S
C449 C450 1.398 . S
C450 H438 0.950 . S
C450 C449 1.398 . S
C450 C451 1.391 . S
C451 H439 0.950 . S
C451 C447 1.393 . S
C451 C450 1.391 . S
H452 C460 0.950 . S
H453 C465 0.950 . S
H454 C462 0.950 . S
H455 C464 0.950 . S
H456 C466 0.950 . S
H457 C468 0.950 . S
H458 C470 0.950 . S
H459 C471 0.950 . S
C460 H452 0.950 . S
C460 C461 1.386 . S
C460 C462 1.391 . S
C461 C460 1.386 . S
C461 C465 1.393 . S
C462 H454 0.950 . S
C462 C460 1.391 . S
C462 C463 1.400 . S
C463 C462 1.400 . S
C463 C464 1.398 . S
C463 C469 1.491 . S
C464 H455 0.950 . S
C464 C463 1.398 . S
C464 C465 1.391 . S
C465 H453 0.950 . S
C465 C461 1.393 . S
C465 C464 1.391 . S
C466 H456 0.950 . S
C466 C467 1.386 . S
C466 C468 1.391 . S
C467 C466 1.386 . S
C467 C471 1.393 . S
C468 H457 0.950 . S
C468 C466 1.391 . S
C468 C469 1.400 . S
C469 C463 1.491 . S
C469 C468 1.400 . S
C469 C470 1.398 . S
C470 H458 0.950 . S
C470 C469 1.398 . S
C470 C471 1.391 . S
C471 H459 0.950 . S
C471 C467 1.393 . S
C471 C470 1.391 . S
H472 C480 0.950 . S
H473 C485 0.950 . S
H474 C482 0.950 . S
H475 C484 0.950 . S
H476 C486 0.950 . S
H477 C488 0.950 . S
H478 C490 0.950 . S
H479 C491 0.950 . S
C480 H472 0.950 . S
C480 C481 1.386 . S
C480 C482 1.391 . S
C481 C480 1.386 . S
C481 C485 1.393 . S
C482 H474 0.950 . S
C482 C480 1.391 . S
C482 C483 1.400 . S
C483 C482 1.400 . S
C483 C484 1.398 . S
C483 C489 1.491 . S
C484 H475 0.950 . S
C484 C483 1.398 . S
C484 C485 1.391 . S
C485 H473 0.950 . S
C485 C481 1.393 . S
C485 C484 1.391 . S
C486 H476 0.950 . S
C486 C487 1.386 . S
C486 C488 1.391 . S
C487 C486 1.386 . S
C487 C491 1.393 . S
C488 H477 0.950 . S
C488 C486 1.391 . S
C488 C489 1.400 . S
C489 C483 1.491 . S
C489 C488 1.400 . S
C489 C490 1.398 . S
C490 H478 0.950 . S
C490 C489 1.398 . S
C490 C491 1.391 . S
C491 H479 0.950 . S
C491 C487 1.393 . S
C491 C490 1.391 . S
H492 C500 0.950 . S
H493 C505 0.950 . S
H494 C502 0.950 . S
H495 C504 0.950 . S
H496 C506 0.950 . S
H497 C508 0.950 . S
H498 C510 0.950 . S
H499 C511 0.950 . S
C500 H492 0.950 . S
C500 C501 1.386 . S
C500 C502 1.391 . S
C501 C500 1.386 . S
C501 C505 1.393 . S
C502 H494 0.950 . S
C502 C500 1.391 . S
C502 C503 1.400 . S
C503 C502 1.400 . S
C503 C504 1.398 . S
C503 C509 1.491 . S
C504 H495 0.950 . S
C504 C503 1.398 . S
C504 C505 1.391 . S
C505 H493 0.950 . S
C505 C501 1.393 . S
C505 C504 1.391 . S
C506 H496 0.950 . S
C506 C507 1.386 . S
C506 C508 1.391 . S
C507 C506 1.386 . S
C507 C511 1.393 . S
C508 H497 0.950 . S
C508 C506 1.391 . S
C508 C509 1.400 . S
C509 C503 1.491 . S
C509 C508 1.400 . S
C509 C510 1.398 . S
C510 H498 0.950 . S
C510 C509 1.398 . S
C510 C511 1.391 . S
C511 H499 0.950 . S
C511 C507 1.393 . S
C511 C510 1.391 . S
H512 C520 0.950 . S
H513 C525 0.950 . S
H514 C522 0.950 . S
H515 C524 0.950 . S
H516 C526 0.950 . S
H517 C528 0.950 . S
H518 C530 0.950 . S
H519 C531 0.950 . S
C520 H512 0.950 . S
C520 C521 1.386 . S
C520 C522 1.391 . S
C521 C520 1.386 . S
C521 C525 1.393 . S
C522 H514 0.950 . S
C522 C520 1.391 . S
C522 C523 1.400 . S
C523 C522 1.400 . S
C523 C524 1.398 . S
C523 C529 1.491 . S
C524 H515 0.950 . S
C524 C523 1.398 . S
C524 C525 1.391 . S
C525 H513 0.950 . S
C525 C521 1.393 . S
C525 C524 1.391 . S
C526 H516 0.950 . S
C526 C527 1.386 . S
C526 C528 1.391 . S
C527 C526 1.386 . S
C527 C531 1.393 . S
C528 H517 0.950 . S
C528 C526 1.391 . S
C528 C529 1.400 . S
C529 C523 1.491 . S
C529 C528 1.400 . S
C529 C530 1.398 . S
C530 H518 0.950 . S
C530 C529 1.398 . S
C530 C531 1.391 . S
C531 H519 0.950 . S
C531 C527 1.393 . S
C531 C530 1.391 . S
H532 C540 0.950 . S
H533 C545 0.950 . S
H534 C542 0.950 . S
H535 C544 0.950 . S
H536 C546 0.950 . S
H537 C548 0.950 . S
H538 C550 0.950 . S
H539 C551 0.950 . S
C540 H532 0.950 . S
C540 C541 1.386 . S
C540 C542 1.391 . S
C541 C540 1.386 . S
C541 C545 1.393 . S
C542 H534 0.950 . S
C542 C540 1.391 . S
C542 C543 1.400 . S
C543 C542 1.400 . S
C543 C544 1.398 . S
C543 C549 1.491 . S
C544 H535 0.950 . S
C544 C543 1.398 . S
C544 C545 1.391 . S
C545 H533 0.950 . S
C545 C541 1.393 . S
C545 C544 1.391 . S
C546 H536 0.950 . S
C546 C547 1.386 . S
C546 C548 1.391 . S
C547 C546 1.386 . S
C547 C551 1.393 . S
C548 H537 0.950 . S
C548 C546 1.391 . S
C548 C549 1.400 . S
C549 C543 1.491 . S
C549 C548 1.400 . S
C549 C550 1.398 . S
C550 H538 0.950 . S
C550 C549 1.398 . S
C550 C551 1.391 . S
C551 H539 0.950 . S
C551 C547 1.393 . S
C551 C550 1.391 . S
H552 C560 0.950 . S
H553 C565 0.950 . S
H554 C562 0.950 . S
H555 C564 0.950 . S
H556 C566 0.950 . S
H557 C568 0.950 . S
H558 C570 0.950 . S
H559 C571 0.950 . S
C560 H552 0.950 . S
C560 C561 1.386 . S
C560 C562 1.391 . S
C561 C560 1.386 . S
C561 C565 1.393 . S
C562 H554 0.950 . S
C562 C560 1.391 . S
C562 C563 1.400 . S
C563 C562 1.400 . S
C563 C564 1.398 . S
C563 C569 1.491 . S
C564 H555 0.950 . S
C564 C563 1.398 . S
C564 C565 1.391 . S
C565 H553 0.950 . S
C565 C561 1.393 . S
C565 C564 1.391 . S
C566 H556 0.950 . S
C566 C567 1.386 . S
C566 C568 1.391 . S
C567 C566 1.386 . S
C567 C571 1.393 . S
C568 H557 0.950 . S
C568 C566 1.391 . S
C568 C569 1.400 . S
C569 C563 1.491 . S
C569 C568 1.400 . S
C569 C570 1.398 . S
C570 H558 0.950 . S
C570 C569 1.398 . S
C570 C571 1.391 . S
C571 H559 0.950 . S
C571 C567 1.393 . S
C571 C570 1.391 . S
H572 C580 0.950 . S
H573 C585 0.950 . S
H574 C582 0.950 . S
H575 C584 0.950 . S
H576 C586 0.950 . S
H577 C588 0.950 . S
H578 C590 0.950 . S
H579 C591 0.950 . S
C580 H572 0.950 . S
C580 C581 1.386 . S
C580 C582 1.391 . S
C581 C580 1.386 . S
C581 C585 1.393 . S
C582 H574 0.950 . S
C582 C580 1.391 . S
C582 C583 1.400 . S
C583 C582 1.400 . S
C583 C584 1.398 . S
C583 C589 1.491 . S
C584 H575 0.950 . S
C584 C583 1.398 . S
C584 C585 1.391 . S
C585 H573 0.950 . S
C585 C581 1.393 . S
C585 C584 1.391 . S
C586 H576 0.950 . S
C586 C587 1.386 . S
C586 C588 1.391 . S
C587 C586 1.386 . S
C587 C591 1.393 . S
C588 H577 0.950 . S
C588 C586 1.391 . S
C588 C589 1.400 . S
C589 C583 1.491 . S
C589 C588 1.400 . S
C589 C590 1.398 . S
C590 H578 0.950 . S
C590 C589 1.398 . S
C590 C591 1.391 . S
C591 H579 0.950 . S
C591 C587 1.393 . S
C591 C590 1.391 . S
H592 C600 0.950 . S
H593 C605 0.950 . S
H594 C602 0.950 . S
H595 C604 0.950 . S
H596 C606 0.950 . S
H597 C608 0.950 . S
H598 C610 0.950 . S
H599 C611 0.950 . S
C600 H592 0.950 . S
C600 C601 1.386 . S
C600 C602 1.391 . S
C601 C600 1.386 . S
C601 C605 1.393 . S
C602 H594 0.950 . S
C602 C600 1.391 . S
C602 C603 1.400 . S
C603 C602 1.400 . S
C603 C604 1.398 . S
C603 C609 1.491 . S
C604 H595 0.950 . S
C604 C603 1.398 . S
C604 C605 1.391 . S
C605 H593 0.950 . S
C605 C601 1.393 . S
C605 C604 1.391 . S
C606 H596 0.950 . S
C606 C607 1.386 . S
C606 C608 1.391 . S
C607 C606 1.386 . S
C607 C611 1.393 . S
C608 H597 0.950 . S
C608 C606 1.391 . S
C608 C609 1.400 . S
C609 C603 1.491 . S
C609 C608 1.400 . S
C609 C610 1.398 . S
C610 H598 0.950 . S
C610 C609 1.398 . S
C610 C611 1.391 . S
C611 H599 0.950 . S
C611 C607 1.393 . S
C611 C610 1.391 . S
H612 C620 0.950 . S
H613 C625 0.950 . S
H614 C622 0.950 . S
H615 C624 0.950 . S
H616 C626 0.950 . S
H617 C628 0.950 . S
H618 C630 0.950 . S
H619 C631 0.950 . S
C620 H612 0.950 . S
C620 C621 1.386 . S
C620 C622 1.391 . S
C621 C620 1.386 . S
C621 C625 1.393 . S
C622 H614 0.950 . S
C622 C620 1.391 . S
C622 C623 1.400 . S
C623 C622 1.400 . S
C623 C624 1.398 . S
C623 C629 1.491 . S
C624 H615 0.950 . S
C624 C623 1.398 . S
C624 C625 1.391 . S
C625 H613 0.950 . S
C625 C621 1.393 . S
C625 C624 1.391 . S
C626 H616 0.950 . S
C626 C627 1.386 . S
C626 C628 1.391 . S
C627 C626 1.386 . S
C627 C631 1.393 . S
C628 H617 0.950 . S
C628 C626 1.391 . S
C628 C629 1.400 . S
C629 C623 1.491 . S
C629 C628 1.400 . S
C629 C630 1.398 . S
C630 H618 0.950 . S
C630 C629 1.398 . S
C630 C631 1.391 . S
C631 H619 0.950 . S
C631 C627 1.393 . S
C631 C630 1.391 . S
H632 C640 0.950 . S
H633 C645 0.950 . S
H634 C642 0.950 . S
H635 C644 0.950 . S
H636 C646 0.950 . S
H637 C648 0.950 . S
H638 C650 0.950 . S
H639 C651 0.950 . S
C640 H632 0.950 . S
C640 C641 1.386 . S
C640 C642 1.391 . S
C641 C640 1.386 . S
C641 C645 1.393 . S
C642 H634 0.950 . S
C642 C640 1.391 . S
C642 C643 1.400 . S
C643 C642 1.400 . S
C643 C644 1.398 . S
C643 C649 1.491 . S
C644 H635 0.950 . S
C644 C643 1.398 . S
C644 C645 1.391 . S
C645 H633 0.950 . S
C645 C641 1.393 . S
C645 C644 1.391 . S
C646 H636 0.950 . S
C646 C647 1.386 . S
C646 C648 1.391 . S
C647 C646 1.386 . S
C647 C651 1.393 . S
C648 H637 0.950 . S
C648 C646 1.391 . S
C648 C649 1.400 . S
C649 C643 1.491 . S
C649 C648 1.400 . S
C649 C650 1.398 . S
C650 H638 0.950 . S
C650 C649 1.398 . S
C650 C651 1.391 . S
C651 H639 0.950 . S
C651 C647 1.393 . S
C651 C650 1.391 . S
H652 C660 0.950 . S
H653 C665 0.950 . S
H654 C662 0.950 . S
H655 C664 0.950 . S
H656 C666 0.950 . S
H657 C668 0.950 . S
H658 C670 0.950 . S
H659 C671 0.950 . S
C660 H652 0.950 . S
C660 C661 1.386 . S
C660 C662 1.391 . S
C661 C660 1.386 . S
C661 C665 1.393 . S
C662 H654 0.950 . S
C662 C660 1.391 . S
C662 C663 1.400 . S
C663 C662 1.400 . S
C663 C664 1.398 . S
C663 C669 1.491 . S
C664 H655 0.950 . S
C664 C663 1.398 . S
C664 C665 1.391 . S
C665 H653 0.950 . S
C665 C661 1.393 . S
C665 C664 1.391 . S
C666 H656 0.950 . S
C666 C667 1.386 . S
C666 C668 1.391 . S
C667 C666 1.386 . S
C667 C671 1.393 . S
C668 H657 0.950 . S
C668 C666 1.391 . S
C668 C669 1.400 . S
C669 C663 1.491 . S
C669 C668 1.400 . S
C669 C670 1.398 . S
C670 H658 0.950 . S
C670 C669 1.398 . S
C670 C671 1.391 . S
C671 H659 0.950 . S
C671 C667 1.393 . S
C671 C670 1.391 . S
H672 C680 0.950 . S
H673 C685 0.950 . S
H674 C682 0.950 . S
H675 C684 0.950 . S
H676 C686 0.950 . S
H677 C688 0.950 . S
H678 C690 0.950 . S
H679 C691 0.950 . S
C680 H672 0.950 . S
C680 C681 1.386 . S
C680 C682 1.391 . S
C681 C680 1.386 . S
C681 C685 1.393 . S
C682 H674 0.950 . S
C682 C680 1.391 . S
C682 C683 1.400 . S
C683 C682 1.400 . S
C683 C684 1.398 . S
C683 C689 1.491 . S
C684 H675 0.950 . S
C684 C683 1.398 . S
C684 C685 1.391 . S
C685 H673 0.950 . S
C685 C681 1.393 . S
C685 C684 1.391 . S
C686 H676 0.950 . S
C686 C687 1.386 . S
C686 C688 1.391 . S
C687 C686 1.386 . S
C687 C691 1.393 . S
C688 H677 0.950 . S
C688 C686 1.391 . S
C688 C689 1.400 . S
C689 C683 1.491 . S
C689 C688 1.400 . S
C689 C690 1.398 . S
C690 H678 0.950 . S
C690 C689 1.398 . S
C690 C691 1.391 . S
C691 H679 0.950 . S
C691 C687 1.393 . S
C691 C690 1.391 . S
H692 C700 0.950 . S
H693 C705 0.950 . S
H694 C702 0.950 . S
H695 C704 0.950 . S
H696 C706 0.950 . S
H697 C708 0.950 . S
H698 C710 0.950 . S
H699 C711 0.950 . S
C700 H692 0.950 . S
C700 C701 1.386 . S
C700 C702 1.391 . S
C701 C700 1.386 . S
C701 C705 1.393 . S
C702 H694 0.950 . S
C702 C700 1.391 . S
C702 C703 1.400 . S
C703 C702 1.400 . S
C703 C704 1.398 . S
C703 C709 1.491 . S
C704 H695 0.950 . S
C704 C703 1.398 . S
C704 C705 1.391 . S
C705 H693 0.950 . S
C705 C701 1.393 . S
C705 C704 1.391 . S
C706 H696 0.950 . S
C706 C707 1.386 . S
C706 C708 1.391 . S
C707 C706 1.386 . S
C707 C711 1.393 . S
C708 H697 0.950 . S
C708 C706 1.391 . S
C708 C709 1.400 . S
C709 C703 1.491 . S
C709 C708 1.400 . S
C709 C710 1.398 . S
C710 H698 0.950 . S
C710 C709 1.398 . S
C710 C711 1.391 . S
C711 H699 0.950 . S
C711 C707 1.393 . S
C711 C710 1.391 . S
H712 C720 0.950 . S
H713 C725 0.950 . S
H714 C722 0.950 . S
H715 C724 0.950 . S
H716 C726 0.950 . S
H717 C728 0.950 . S
H718 C730 0.950 . S
H719 C731 0.950 . S
C720 H712 0.950 . S
C720 C721 1.386 . S
C720 C722 1.391 . S
C721 C720 1.386 . S
C721 C725 1.393 . S
C722 H714 0.950 . S
C722 C720 1.391 . S
C722 C723 1.400 . S
C723 C722 1.400 . S
C723 C724 1.398 . S
C723 C729 1.491 . S
C724 H715 0.950 . S
C724 C723 1.398 . S
C724 C725 1.391 . S
C725 H713 0.950 . S
C725 C721 1.393 . S
C725 C724 1.391 . S
C726 H716 0.950 . S
C726 C727 1.386 . S
C726 C728 1.391 . S
C727 C726 1.386 . S
C727 C731 1.393 . S
C728 H717 0.950 . S
C728 C726 1.391 . S
C728 C729 1.400 . S
C729 C723 1.491 . S
C729 C728 1.400 . S
C729 C730 1.398 . S
C730 H718 0.950 . S
C730 C729 1.398 . S
C730 C731 1.391 . S
C731 H719 0.950 . S
C731 C727 1.393 . S
C731 C730 1.391 . S
H732 C740 0.950 . S
H733 C745 0.950 . S
H734 C742 0.950 . S
H735 C744 0.950 . S
H736 C746 0.950 . S
H737 C748 0.950 . S
H738 C750 0.950 . S
H739 C751 0.950 . S
C740 H732 0.950 . S
C740 C741 1.386 . S
C740 C742 1.391 . S
C741 C740 1.386 . S
C741 C745 1.393 . S
C742 H734 0.950 . S
C742 C740 1.391 . S
C742 C743 1.400 . S
C743 C742 1.400 . S
C743 C744 1.398 . S
C743 C749 1.491 . S
C744 H735 0.950 . S
C744 C743 1.398 . S
C744 C745 1.391 . S
C745 H733 0.950 . S
C745 C741 1.393 . S
C745 C744 1.391 . S
C746 H736 0.950 . S
C746 C747 1.386 . S
C746 C748 1.391 . S
C747 C746 1.386 . S
C747 C751 1.393 . S
C748 H737 0.950 . S
C748 C746 1.391 . S
C748 C749 1.400 . S
C749 C743 1.491 . S
C749 C748 1.400 . S
C749 C750 1.398 . S
C750 H738 0.950 . S
C750 C749 1.398 . S
C750 C751 1.391 . S
C751 H739 0.950 . S
C751 C747 1.393 . S
C751 C750 1.391 . S
H752 C760 0.950 . S
H753 C765 0.950 . S
H754 C762 0.950 . S
H755 C764 0.950 . S
H756 C766 0.950 . S
H757 C768 0.950 . S
H758 C770 0.950 . S
H759 C771 0.950 . S
C760 H752 0.950 . S
C760 C761 1.386 . S
C760 C762 1.391 . S
C761 C760 1.386 . S
C761 C765 1.393 . S
C762 H754 0.950 . S
C762 C760 1.391 . S
C762 C763 1.400 . S
C763 C762 1.400 . S
C763 C764 1.398 . S
C763 C769 1.491 . S
C764 H755 0.950 . S
C764 C763 1.398 . S
C764 C765 1.391 . S
C765 H753 0.950 . S
C765 C761 1.393 . S
C765 C764 1.391 . S
C766 H756 0.950 . S
C766 C767 1.386 . S
C766 C768 1.391 . S
C767 C766 1.386 . S
C767 C771 1.393 . S
C768 H757 0.950 . S
C768 C766 1.391 . S
C768 C769 1.400 . S
C769 C763 1.491 . S
C769 C768 1.400 . S
C769 C770 1.398 . S
C770 H758 0.950 . S
C770 C769 1.398 . S
C770 C771 1.391 . S
C771 H759 0.950 . S
C771 C767 1.393 . S
C771 C770 1.391 . S
H772 C780 0.950 . S
H773 C785 0.950 . S
H774 C782 0.950 . S
H775 C784 0.950 . S
H776 C786 0.950 . S
H777 C788 0.950 . S
H778 C790 0.950 . S
H779 C791 0.950 . S
C780 H772 0.950 . S
C780 C781 1.386 . S
C780 C782 1.391 . S
C781 C780 1.386 . S
C781 C785 1.393 . S
C782 H774 0.950 . S
C782 C780 1.391 . S
C782 C783 1.400 . S
C783 C782 1.400 . S
C783 C784 1.398 . S
C783 C789 1.491 . S
C784 H775 0.950 . S
C784 C783 1.398 . S
C784 C785 1.391 . S
C785 H773 0.950 . S
C785 C781 1.393 . S
C785 C784 1.391 . S
C786 H776 0.950 . S
C786 C787 1.386 . S
C786 C788 1.391 . S
C787 C786 1.386 . S
C787 C791 1.393 . S
C788 H777 0.950 . S
C788 C786 1.391 . S
C788 C789 1.400 . S
C789 C783 1.491 . S
C789 C788 1.400 . S
C789 C790 1.398 . S
C790 H778 0.950 . S
C790 C789 1.398 . S
C790 C791 1.391 . S
C791 H779 0.950 . S
C791 C787 1.393 . S
C791 C790 1.391 . S
H792 C800 0.950 . S
H793 C805 0.950 . S
H794 C802 0.950 . S
H795 C804 0.950 . S
H796 C806 0.950 . S
H797 C808 0.950 . S
H798 C810 0.950 . S
H799 C811 0.950 . S
C800 H792 0.950 . S
C800 C801 1.386 . S
C800 C802 1.391 . S
C801 C800 1.386 . S
C801 C805 1.393 . S
C802 H794 0.950 . S
C802 C800 1.391 . S
C802 C803 1.400 . S
C803 C802 1.400 . S
C803 C804 1.398 . S
C803 C809 1.491 1_455 S
C804 H795 0.950 . S
C804 C803 1.398 . S
C804 C805 1.391 . S
C805 H793 0.950 . S
C805 C801 1.393 . S
C805 C804 1.391 . S
C806 H796 0.950 . S
C806 C807 1.386 . S
C806 C808 1.391 . S
C807 C806 1.386 . S
C807 C811 1.393 . S
C808 H797 0.950 . S
C808 C806 1.391 . S
C808 C809 1.400 . S
C809 C803 1.491 1_655 S
C809 C808 1.400 . S
C809 C810 1.398 . S
C810 H798 0.950 . S
C810 C809 1.398 . S
C810 C811 1.391 . S
C811 H799 0.950 . S
C811 C807 1.393 . S
C811 C810 1.391 . S
H812 C820 0.950 . S
H813 C825 0.950 . S
H814 C822 0.950 . S
H815 C824 0.950 . S
H816 C826 0.950 . S
H817 C828 0.950 . S
H818 C830 0.950 . S
H819 C831 0.950 . S
C820 H812 0.950 . S
C820 C821 1.386 . S
C820 C822 1.391 . S
C821 C820 1.386 . S
C821 C825 1.393 . S
C822 H814 0.950 . S
C822 C820 1.391 . S
C822 C823 1.400 . S
C823 C822 1.400 . S
C823 C824 1.398 . S
C823 C829 1.491 1_545 S
C824 H815 0.950 . S
C824 C823 1.398 . S
C824 C825 1.391 . S
C825 H813 0.950 . S
C825 C821 1.393 . S
C825 C824 1.391 . S
C826 H816 0.950 . S
C826 C827 1.386 . S
C826 C828 1.391 . S
C827 C826 1.386 . S
C827 C831 1.393 . S
C828 H817 0.950 . S
C828 C826 1.391 . S
C828 C829 1.400 . S
C829 C823 1.491 1_565 S
C829 C828 1.400 . S
C829 C830 1.398 . S
C830 H818 0.950 . S
C830 C829 1.398 . S
C830 C831 1.391 . S
C831 H819 0.950 . S
C831 C827 1.393 . S
C831 C830 1.391 . S
H832 C840 0.950 . S
H833 C845 0.950 . S
H834 C842 0.950 . S
H835 C844 0.950 . S
H836 C846 0.950 . S
H837 C848 0.950 . S
H838 C850 0.950 . S
H839 C851 0.950 . S
C840 H832 0.950 . S
C840 C841 1.386 . S
C840 C842 1.391 . S
C841 C840 1.386 . S
C841 C845 1.393 . S
C842 H834 0.950 . S
C842 C840 1.391 . S
C842 C843 1.400 . S
C843 C842 1.400 . S
C843 C844 1.398 . S
C843 C849 1.491 1_655 S
C844 H835 0.950 . S
C844 C843 1.398 . S
C844 C845 1.391 . S
C845 H833 0.950 . S
C845 C841 1.393 . S
C845 C844 1.391 . S
C846 H836 0.950 . S
C846 C847 1.386 . S
C846 C848 1.391 . S
C847 C846 1.386 . S
C847 C851 1.393 . S
C848 H837 0.950 . S
C848 C846 1.391 . S
C848 C849 1.400 . S
C849 C843 1.491 1_455 S
C849 C848 1.400 . S
C849 C850 1.398 . S
C850 H838 0.950 . S
C850 C849 1.398 . S
C850 C851 1.391 . S
C851 H839 0.950 . S
C851 C847 1.393 . S
C851 C850 1.391 . S
H852 C860 0.950 . S
H853 C865 0.950 . S
H854 C862 0.950 . S
H855 C864 0.950 . S
H856 C866 0.950 . S
H857 C868 0.950 . S
H858 C870 0.950 . S
H859 C871 0.950 . S
C860 H852 0.950 . S
C860 C861 1.386 . S
C860 C862 1.391 . S
C861 C860 1.386 . S
C861 C865 1.393 . S
C862 H854 0.950 . S
C862 C860 1.391 . S
C862 C863 1.400 . S
C863 C862 1.400 . S
C863 C864 1.398 . S
C863 C869 1.491 1_545 S
C864 H855 0.950 . S
C864 C863 1.398 . S
C864 C865 1.391 . S
C865 H853 0.950 . S
C865 C861 1.393 . S
C865 C864 1.391 . S
C866 H856 0.950 . S
C866 C867 1.386 . S
C866 C868 1.391 . S
C867 C866 1.386 . S
C867 C871 1.393 . S
C868 H857 0.950 . S
C868 C866 1.391 . S
C868 C869 1.400 . S
C869 C863 1.491 1_565 S
C869 C868 1.400 . S
C869 C870 1.398 . S
C870 H858 0.950 . S
C870 C869 1.398 . S
C870 C871 1.391 . S
C871 H859 0.950 . S
C871 C867 1.393 . S
C871 C870 1.391 . S
H872 C880 0.950 . S
H873 C885 0.950 . S
H874 C882 0.950 . S
H875 C884 0.950 . S
H876 C886 0.950 . S
H877 C888 0.950 . S
H878 C890 0.950 . S
H879 C891 0.950 . S
C880 H872 0.950 . S
C880 C881 1.386 . S
C880 C882 1.391 . S
C881 C880 1.386 . S
C881 C885 1.393 . S
C882 H874 0.950 . S
C882 C880 1.391 . S
C882 C883 1.400 . S
C883 C882 1.400 . S
C883 C884 1.398 . S
C883 C889 1.491 1_565 S
C884 H875 0.950 . S
C884 C883 1.398 . S
C884 C885 1.391 . S
C885 H873 0.950 . S
C885 C881 1.393 . S
C885 C884 1.391 . S
C886 H876 0.950 . S
C886 C887 1.386 . S
C886 C888 1.391 . S
C887 C886 1.386 . S
C887 C891 1.393 . S
C888 H877 0.950 . S
C888 C886 1.391 . S
C888 C889 1.400 . S
C889 C883 1.491 1_545 S
C889 C888 1.400 . S
C889 C890 1.398 . S
C890 H878 0.950 . S
C890 C889 1.398 . S
C890 C891 1.391 . S
C891 H879 0.950 . S
C891 C887 1.393 . S
C891 C890 1.391 . S
H892 C900 0.950 . S
H893 C905 0.950 . S
H894 C902 0.950 . S
H895 C904 0.950 . S
H896 C906 0.950 . S
H897 C908 0.950 . S
H898 C910 0.950 . S
H899 C911 0.950 . S
C900 H892 0.950 . S
C900 C901 1.386 . S
C900 C902 1.391 . S
C901 C900 1.386 . S
C901 C905 1.393 . S
C902 H894 0.950 . S
C902 C900 1.391 . S
C902 C903 1.400 . S
C903 C902 1.400 . S
C903 C904 1.398 . S
C903 C909 1.491 1_655 S
C904 H895 0.950 . S
C904 C903 1.398 . S
C904 C905 1.391 . S
C905 H893 0.950 . S
C905 C901 1.393 . S
C905 C904 1.391 . S
C906 H896 0.950 . S
C906 C907 1.386 . S
C906 C908 1.391 . S
C907 C906 1.386 . S
C907 C911 1.393 . S
C908 H897 0.950 . S
C908 C906 1.391 . S
C908 C909 1.400 . S
C909 C903 1.491 1_455 S
C909 C908 1.400 . S
C909 C910 1.398 . S
C910 H898 0.950 . S
C910 C909 1.398 . S
C910 C911 1.391 . S
C911 H899 0.950 . S
C911 C907 1.393 . S
C911 C910 1.391 . S
H912 C920 0.950 . S
H913 C925 0.950 . S
H914 C922 0.950 . S
H915 C924 0.950 . S
H916 C926 0.950 . S
H917 C928 0.950 . S
H918 C930 0.950 . S
H919 C931 0.950 . S
C920 H912 0.950 . S
C920 C921 1.386 . S
C920 C922 1.391 . S
C921 C920 1.386 . S
C921 C925 1.393 . S
C922 H914 0.950 . S
C922 C920 1.391 . S
C922 C923 1.400 . S
C923 C922 1.400 . S
C923 C924 1.398 . S
C923 C929 1.491 1_565 S
C924 H915 0.950 . S
C924 C923 1.398 . S
C924 C925 1.391 . S
C925 H913 0.950 . S
C925 C921 1.393 . S
C925 C924 1.391 . S
C926 H916 0.950 . S
C926 C927 1.386 . S
C926 C928 1.391 . S
C927 C926 1.386 . S
C927 C931 1.393 . S
C928 H917 0.950 . S
C928 C926 1.391 . S
C928 C929 1.400 . S
C929 C923 1.491 1_545 S
C929 C928 1.400 . S
C929 C930 1.398 . S
C930 H918 0.950 . S
C930 C929 1.398 . S
C930 C931 1.391 . S
C931 H919 0.950 . S
C931 C927 1.393 . S
C931 C930 1.391 . S
H932 C940 0.950 . S
H933 C945 0.950 . S
H934 C942 0.950 . S
H935 C944 0.950 . S
H936 C946 0.950 . S
H937 C948 0.950 . S
H938 C950 0.950 . S
H939 C951 0.950 . S
C940 H932 0.950 . S
C940 C941 1.386 . S
C940 C942 1.391 . S
C941 C940 1.386 . S
C941 C945 1.393 . S
C942 H934 0.950 . S
C942 C940 1.391 . S
C942 C943 1.400 . S
C943 C942 1.400 . S
C943 C944 1.398 . S
C943 C949 1.491 1_655 S
C944 H935 0.950 . S
C944 C943 1.398 . S
C944 C945 1.391 . S
C945 H933 0.950 . S
C945 C941 1.393 . S
C945 C944 1.391 . S
C946 H936 0.950 . S
C946 C947 1.386 . S
C946 C948 1.391 . S
C947 C946 1.386 . S
C947 C951 1.393 . S
C948 H937 0.950 . S
C948 C946 1.391 . S
C948 C949 1.400 . S
C949 C943 1.491 1_455 S
C949 C948 1.400 . S
C949 C950 1.398 . S
C950 H938 0.950 . S
C950 C949 1.398 . S
C950 C951 1.391 . S
C951 H939 0.950 . S
C951 C947 1.393 . S
C951 C950 1.391 . S
H952 C960 0.950 . S
H953 C965 0.950 . S
H954 C962 0.950 . S
H955 C964 0.950 . S
H956 C966 0.950 . S
H957 C968 0.950 . S
H958 C970 0.950 . S
H959 C971 0.950 . S
C960 H952 0.950 . S
C960 C961 1.386 . S
C960 C962 1.391 . S
C961 C960 1.386 . S
C961 C965 1.393 . S
C962 H954 0.950 . S
C962 C960 1.391 . S
C962 C963 1.400 . S
C963 C962 1.400 . S
C963 C964 1.398 . S
C963 C969 1.491 1_556 S
C964 H955 0.950 . S
C964 C963 1.398 . S
C964 C965 1.391 . S
C965 H953 0.950 . S
C965 C961 1.393 . S
C965 C964 1.391 . S
C966 H956 0.950 . S
C966 C967 1.386 . S
C966 C968 1.391 . S
C967 C966 1.386 . S
C967 C971 1.393 . S
C968 H957 0.950 . S
C968 C966 1.391 . S
C968 C969 1.400 . S
C969 C963 1.491 1_554 S
C969 C968 1.400 . S
C969 C970 1.398 . S
C970 H958 0.950 . S
C970 C969 1.398 . S
C970 C971 1.391 . S
C971 H959 0.950 . S
C971 C967 1.393 . S
C971 C970 1.391 . S
H972 C980 0.950 . S
H973 C985 0.950 . S
H974 C982 0.950 . S
H975 C984 0.950 . S
H976 C986 0.950 . S
H977 C988 0.950 . S
H978 C990 0.950 . S
H979 C991 0.950 . S
C980 H972 0.950 . S
C980 C981 1.386 . S
C980 C982 1.391 . S
C981 C980 1.386 . S
C981 C985 1.393 . S
C982 H974 0.950 . S
C982 C980 1.391 . S
C982 C983 1.400 . S
C983 C982 1.400 . S
C983 C984 1.398 . S
C983 C989 1.491 1_556 S
C984 H975 0.950 . S
C984 C983 1.398 . S
C984 C985 1.391 . S
C985 H973 0.950 . S
C985 C981 1.393 . S
C985 C984 1.391 . S
C986 H976 0.950 . S
C986 C987 1.386 . S
C986 C988 1.391 . S
C987 C986 1.386 . S
C987 C991 1.393 . S
C988 H977 0.950 . S
C988 C986 1.391 . S
C988 C989 1.400 . S
C989 C983 1.491 1_554 S
C989 C988 1.400 . S
C989 C990 1.398 . S
C990 H978 0.950 . S
C990 C989 1.398 . S
C990 C991 1.391 . S
C991 H979 0.950 . S
C991 C987 1.393 . S
C991 C990 1.391 . S
H992 C1000 0.950 . S
H993 C1005 0.950 . S
H994 C1002 0.950 . S
H995 C1004 0.950 . S
H996 C1006 0.950 . S
H997 C1008 0.950 . S
H998 C1010 0.950 . S
H999 C1011 0.950 . S
C1000 H992 0.950 . S
C1000 C1001 1.386 . S
C1000 C1002 1.391 . S
C1001 C1000 1.386 . S
C1001 C1005 1.393 . S
C1002 H994 0.950 . S
C1002 C1000 1.391 . S
C1002 C1003 1.400 . S
C1003 C1002 1.400 . S
C1003 C1004 1.398 . S
C1003 C1009 1.491 1_556 S
C1004 H995 0.950 . S
C1004 C1003 1.398 . S
C1004 C1005 1.391 . S
C1005 H993 0.950 . S
C1005 C1001 1.393 . S
C1005 C1004 1.391 . S
C1006 H996 0.950 . S
C1006 C1007 1.386 . S
C1006 C1008 1.391 . S
C1007 C1006 1.386 . S
C1007 C1011 1.393 . S
C1008 H997 0.950 . S
C1008 C1006 1.391 . S
C1008 C1009 1.400 . S
C1009 C1003 1.491 1_554 S
C1009 C1008 1.400 . S
C1009 C1010 1.398 . S
C1010 H998 0.950 . S
C1010 C1009 1.398 . S
C1010 C1011 1.391 . S
C1011 H999 0.950 . S
C1011 C1007 1.393 . S
C1011 C1010 1.391 . S
H1012 C1020 0.950 . S
H1013 C1025 0.950 . S
H1014 C1022 0.950 . S
H1015 C1024 0.950 . S
H1016 C1026 0.950 . S
H1017 C1028 0.950 . S
H1018 C1030 0.950 . S
H1019 C1031 0.950 . S
C1020 H1012 0.950 . S
C1020 C1021 1.386 . S
C1020 C1022 1.391 . S
C1021 C1020 1.386 . S
C1021 C1025 1.393 . S
C1022 H1014 0.950 . S
C1022 C1020 1.391 . S
C1022 C1023 1.400 . S
C1023 C1022 1.400 . S
C1023 C1024 1.398 . S
C1023 C1029 1.491 1_556 S
C1024 H1015 0.950 . S
C1024 C1023 1.398 . S
C1024 C1025 1.391 . S
C1025 H1013 0.950 . S
C1025 C1021 1.393 . S
C1025 C1024 1.391 . S
C1026 H1016 0.950 . S
C1026 C1027 1.386 . S
C1026 C1028 1.391 . S
C1027 C1026 1.386 . S
C1027 C1031 1.393 . S
C1028 H1017 0.950 . S
C1028 C1026 1.391 . S
C1028 C1029 1.400 . S
C1029 C1023 1.491 1_554 S
C1029 C1028 1.400 . S
C1029 C1030 1.398 . S
C1030 H1018 0.950 . S
C1030 C1029 1.398 . S
C1030 C1031 1.391 . S
C1031 H1019 0.950 . S
C1031 C1027 1.393 . S
C1031 C1030 1.391 . S
H1032 C1040 0.950 . S
H1033 C1045 0.950 . S
H1034 C1042 0.950 . S
H1035 C1044 0.950 . S
H1036 C1046 0.950 . S
H1037 C1048 0.950 . S
H1038 C1050 0.950 . S
H1039 C1051 0.950 . S
C1040 H1032 0.950 . S
C1040 C1041 1.386 . S
C1040 C1042 1.391 . S
C1041 C1040 1.386 . S
C1041 C1045 1.393 . S
C1042 H1034 0.950 . S
C1042 C1040 1.391 . S
C1042 C1043 1.400 . S
C1043 C1042 1.400 . S
C1043 C1044 1.398 . S
C1043 C1049 1.491 . S
C1044 H1035 0.950 . S
C1044 C1043 1.398 . S
C1044 C1045 1.391 . S
C1045 H1033 0.950 . S
C1045 C1041 1.393 . S
C1045 C1044 1.391 . S
C1046 H1036 0.950 . S
C1046 C1047 1.386 . S
C1046 C1048 1.391 . S
C1047 C1046 1.386 . S
C1047 C1051 1.393 . S
C1048 H1037 0.950 . S
C1048 C1046 1.391 . S
C1048 C1049 1.400 . S
C1049 C1043 1.491 . S
C1049 C1048 1.400 . S
C1049 C1050 1.398 . S
C1050 H1038 0.950 . S
C1050 C1049 1.398 . S
C1050 C1051 1.391 . S
C1051 H1039 0.950 . S
C1051 C1047 1.393 . S
C1051 C1050 1.391 . S
H1052 C1060 0.950 . S
H1053 C1065 0.950 . S
H1054 C1062 0.950 . S
H1055 C1064 0.950 . S
H1056 C1066 0.950 . S
H1057 C1068 0.950 . S
H1058 C1070 0.950 . S
H1059 C1071 0.950 . S
C1060 H1052 0.950 . S
C1060 C1061 1.386 . S
C1060 C1062 1.391 . S
C1061 C1060 1.386 . S
C1061 C1065 1.393 . S
C1062 H1054 0.950 . S
C1062 C1060 1.391 . S
C1062 C1063 1.400 . S
C1063 C1062 1.400 . S
C1063 C1064 1.398 . S
C1063 C1069 1.491 . S
C1064 H1055 0.950 . S
C1064 C1063 1.398 . S
C1064 C1065 1.391 . S
C1065 H1053 0.950 . S
C1065 C1061 1.393 . S
C1065 C1064 1.391 . S
C1066 H1056 0.950 . S
C1066 C1067 1.386 . S
C1066 C1068 1.391 . S
C1067 C1066 1.386 . S
C1067 C1071 1.393 . S
C1068 H1057 0.950 . S
C1068 C1066 1.391 . S
C1068 C1069 1.400 . S
C1069 C1063 1.491 . S
C1069 C1068 1.400 . S
C1069 C1070 1.398 . S
C1070 H1058 0.950 . S
C1070 C1069 1.398 . S
C1070 C1071 1.391 . S
C1071 H1059 0.950 . S
C1071 C1067 1.393 . S
C1071 C1070 1.391 . S
H1072 C1080 0.950 . S
H1073 C1085 0.950 . S
H1074 C1082 0.950 . S
H1075 C1084 0.950 . S
H1076 C1086 0.950 . S
H1077 C1088 0.950 . S
H1078 C1090 0.950 . S
H1079 C1091 0.950 . S
C1080 H1072 0.950 . S
C1080 C1081 1.386 . S
C1080 C1082 1.391 . S
C1081 C1080 1.386 . S
C1081 C1085 1.393 . S
C1082 H1074 0.950 . S
C1082 C1080 1.391 . S
C1082 C1083 1.400 . S
C1083 C1082 1.400 . S
C1083 C1084 1.398 . S
C1083 C1089 1.491 . S
C1084 H1075 0.950 . S
C1084 C1083 1.398 . S
C1084 C1085 1.391 . S
C1085 H1073 0.950 . S
C1085 C1081 1.393 . S
C1085 C1084 1.391 . S
C1086 H1076 0.950 . S
C1086 C1087 1.386 . S
C1086 C1088 1.391 . S
C1087 C1086 1.386 . S
C1087 C1091 1.393 . S
C1088 H1077 0.950 . S
C1088 C1086 1.391 . S
C1088 C1089 1.400 . S
C1089 C1083 1.491 . S
C1089 C1088 1.400 . S
C1089 C1090 1.398 . S
C1090 H1078 0.950 . S
C1090 C1089 1.398 . S
C1090 C1091 1.391 . S
C1091 H1079 0.950 . S
C1091 C1087 1.393 . S
C1091 C1090 1.391 . S
H1092 C1100 0.950 . S
H1093 C1105 0.950 . S
H1094 C1102 0.950 . S
H1095 C1104 0.950 . S
H1096 C1106 0.950 . S
H1097 C1108 0.950 . S
H1098 C1110 0.950 . S
H1099 C1111 0.950 . S
C1100 H1092 0.950 . S
C1100 C1101 1.386 . S
C1100 C1102 1.391 . S
C1101 C1100 1.386 . S
C1101 C1105 1.393 . S
C1102 H1094 0.950 . S
C1102 C1100 1.391 . S
C1102 C1103 1.400 . S
C1103 C1102 1.400 . S
C1103 C1104 1.398 . S
C1103 C1109 1.491 . S
C1104 H1095 0.950 . S
C1104 C1103 1.398 . S
C1104 C1105 1.391 . S
C1105 H1093 0.950 . S
C1105 C1101 1.393 . S
C1105 C1104 1.391 . S
C1106 H1096 0.950 . S
C1106 C1107 1.386 . S
C1106 C1108 1.391 . S
C1107 C1106 1.386 . S
C1107 C1111 1.393 . S
C1108 H1097 0.950 . S
C1108 C1106 1.391 . S
C1108 C1109 1.400 . S
C1109 C1103 1.491 . S
C1109 C1108 1.400 . S
C1109 C1110 1.398 . S
C1110 H1098 0.950 . S
C1110 C1109 1.398 . S
C1110 C1111 1.391 . S
C1111 H1099 0.950 . S
C1111 C1107 1.393 . S
C1111 C1110 1.391 . S
H1112 C1120 0.950 . S
H1113 C1125 0.950 . S
H1114 C1122 0.950 . S
H1115 C1124 0.950 . S
H1116 C1126 0.950 . S
H1117 C1128 0.950 . S
H1118 C1130 0.950 . S
H1119 C1131 0.950 . S
C1120 H1112 0.950 . S
C1120 C1121 1.386 . S
C1120 C1122 1.391 . S
C1121 C1120 1.386 . S
C1121 C1125 1.393 . S
C1122 H1114 0.950 . S
C1122 C1120 1.391 . S
C1122 C1123 1.400 . S
C1123 C1122 1.400 . S
C1123 C1124 1.398 . S
C1123 C1129 1.491 . S
C1124 H1115 0.950 . S
C1124 C1123 1.398 . S
C1124 C1125 1.391 . S
C1125 H1113 0.950 . S
C1125 C1121 1.393 . S
C1125 C1124 1.391 . S
C1126 H1116 0.950 . S
C1126 C1127 1.386 . S
C1126 C1128 1.391 . S
C1127 C1126 1.386 . S
C1127 C1131 1.393 . S
C1128 H1117 0.950 . S
C1128 C1126 1.391 . S
C1128 C1129 1.400 . S
C1129 C1123 1.491 . S
C1129 C1128 1.400 . S
C1129 C1130 1.398 . S
C1130 H1118 0.950 . S
C1130 C1129 1.398 . S
C1130 C1131 1.391 . S
C1131 H1119 0.950 . S
C1131 C1127 1.393 . S
C1131 C1130 1.391 . S
H1132 C1140 0.950 . S
H1133 C1145 0.950 . S
H1134 C1142 0.950 . S
H1135 C1144 0.950 . S
H1136 C1146 0.950 . S
H1137 C1148 0.950 . S
H1138 C1150 0.950 . S
H1139 C1151 0.950 . S
C1140 H1132 0.950 . S
C1140 C1141 1.386 . S
C1140 C1142 1.391 . S
C1141 C1140 1.386 . S
C1141 C1145 1.393 . S
C1142 H1134 0.950 . S
C1142 C1140 1.391 . S
C1142 C1143 1.400 . S
C1143 C1142 1.400 . S
C1143 C1144 1.398 . S
C1143 C1149 1.491 . S
C1144 H1135 0.950 . S
C1144 C1143 1.398 . S
C1144 C1145 1.391 . S
C1145 H1133 0.950 . S
C1145 C1141 1.393 . S
C1145 C1144 1.391 . S
C1146 H1136 0.950 . S
C1146 C1147 1.386 . S
C1146 C1148 1.391 . S
C1147 C1146 1.386 . S
C1147 C1151 1.393 . S
C1148 H1137 0.950 . S
C1148 C1146 1.391 . S
C1148 C1149 1.400 . S
C1149 C1143 1.491 . S
C1149 C1148 1.400 . S
C1149 C1150 1.398 . S
C1150 H1138 0.950 . S
C1150 C1149 1.398 . S
C1150 C1151 1.391 . S
C1151 H1139 0.950 . S
C1151 C1147 1.393 . S
C1151 C1150 1.391 . S
H1152 C1160 0.950 . S
H1153 C1165 0.950 . S
H1154 C1162 0.950 . S
H1155 C1164 0.950 . S
H1156 C1166 0.950 . S
H1157 C1168 0.950 . S
H1158 C1170 0.950 . S
H1159 C1171 0.950 . S
C1160 H1152 0.950 . S
C1160 C1161 1.386 . S
C1160 C1162 1.391 . S
C1161 C1160 1.386 . S
C1161 C1165 1.393 . S
C1162 H1154 0.950 . S
C1162 C1160 1.391 . S
C1162 C1163 1.400 . S
C1163 C1162 1.400 . S
C1163 C1164 1.398 . S
C1163 C1169 1.491 . S
C1164 H1155 0.950 . S
C1164 C1163 1.398 . S
C1164 C1165 1.391 . S
C1165 H1153 0.950 . S
C1165 C1161 1.393 . S
C1165 C1164 1.391 . S
C1166 H1156 0.950 . S
C1166 C1167 1.386 . S
C1166 C1168 1.391 . S
C1167 C1166 1.386 . S
C1167 C1171 1.393 . S
C1168 H1157 0.950 . S
C1168 C1166 1.391 . S
C1168 C1169 1.400 . S
C1169 C1163 1.491 . S
C1169 C1168 1.400 . S
C1169 C1170 1.398 . S
C1170 H1158 0.950 . S
C1170 C1169 1.398 . S
C1170 C1171 1.391 . S
C1171 H1159 0.950 . S
C1171 C1167 1.393 . S
C1171 C1170 1.391 . S
H1172 C1180 0.950 . S
H1173 C1185 0.950 . S
H1174 C1182 0.950 . S
H1175 C1184 0.950 . S
H1176 C1186 0.950 . S
H1177 C1188 0.950 . S
H1178 C1190 0.950 . S
H1179 C1191 0.950 . S
C1180 H1172 0.950 . S
C1180 C1181 1.386 . S
C1180 C1182 1.391 . S
C1181 C1180 1.386 . S
C1181 C1185 1.393 . S
C1182 H1174 0.950 . S
C1182 C1180 1.391 . S
C1182 C1183 1.400 . S
C1183 C1182 1.400 . S
C1183 C1184 1.398 . S
C1183 C1189 1.491 . S
C1184 H1175 0.950 . S
C1184 C1183 1.398 . S
C1184 C1185 1.391 . S
C1185 H1173 0.950 . S
C1185 C1181 1.393 . S
C1185 C1184 1.391 . S
C1186 H1176 0.950 . S
C1186 C1187 1.386 . S
C1186 C1188 1.391 . S
C1187 C1186 1.386 . S
C1187 C1191 1.393 . S
C1188 H1177 0.950 . S
C1188 C1186 1.391 . S
C1188 C1189 1.400 . S
C1189 C1183 1.491 . S
C1189 C1188 1.400 . S
C1189 C1190 1.398 . S
C1190 H1178 0.950 . S
C1190 C1189 1.398 . S
C1190 C1191 1.391 . S
C1191 H1179 0.950 . S
C1191 C1187 1.393 . S
C1191 C1190 1.391 . S
H1192 C1200 0.950 . S
H1193 C1205 0.950 . S
H1194 C1202 0.950 . S
H1195 C1204 0.950 . S
H1196 C1206 0.950 . S
H1197 C1208 0.950 . S
H1198 C1210 0.950 . S
H1199 C1211 0.950 . S
C1200 H1192 0.950 . S
C1200 C1201 1.386 . S
C1200 C1202 1.391 . S
C1201 C1200 1.386 . S
C1201 C1205 1.393 . S
C1202 H1194 0.950 . S
C1202 C1200 1.391 . S
C1202 C1203 1.400 . S
C1203 C1202 1.400 . S
C1203 C1204 1.398 . S
C1203 C1209 1.491 . S
C1204 H1195 0.950 . S
C1204 C1203 1.398 . S
C1204 C1205 1.391 . S
C1205 H1193 0.950 . S
C1205 C1201 1.393 . S
C1205 C1204 1.391 . S
C1206 H1196 0.950 . S
C1206 C1207 1.386 . S
C1206 C1208 1.391 . S
C1207 C1206 1.386 . S
C1207 C1211 1.393 . S
C1208 H1197 0.950 . S
C1208 C1206 1.391 . S
C1208 C1209 1.400 . S
C1209 C1203 1.491 . S
C1209 C1208 1.400 . S
C1209 C1210 1.398 . S
C1210 H1198 0.950 . S
C1210 C1209 1.398 . S
C1210 C1211 1.391 . S
C1211 H1199 0.950 . S
C1211 C1207 1.393 . S
C1211 C1210 1.391 . S
H1212 C1220 0.950 . S
H1213 C1225 0.950 . S
H1214 C1222 0.950 . S
H1215 C1224 0.950 . S
H1216 C1226 0.950 . S
H1217 C1228 0.950 . S
H1218 C1230 0.950 . S
H1219 C1231 0.950 . S
C1220 H1212 0.950 . S
C1220 C1221 1.386 . S
C1220 C1222 1.391 . S
C1221 C1220 1.386 . S
C1221 C1225 1.393 . S
C1222 H1214 0.950 . S
C1222 C1220 1.391 . S
C1222 C1223 1.400 . S
C1223 C1222 1.400 . S
C1223 C1224 1.398 . S
C1223 C1229 1.491 . S
C1224 H1215 0.950 . S
C1224 C1223 1.398 . S
C1224 C1225 1.391 . S
C1225 H1213 0.950 . S
C1225 C1221 1.393 . S
C1225 C1224 1.391 . S
C1226 H1216 0.950 . S
C1226 C1227 1.386 . S
C1226 C1228 1.391 . S
C1227 C1226 1.386 . S
C1227 C1231 1.393 . S
C1228 H1217 0.950 . S
C1228 C1226 1.391 . S
C1228 C1229 1.400 . S
C1229 C1223 1.491 . S
C1229 C1228 1.400 . S
C1229 C1230 1.398 . S
C1230 H1218 0.950 . S
C1230 C1229 1.398 . S
C1230 C1231 1.391 . S
C1231 H1219 0.950 . S
C1231 C1227 1.393 . S
C1231 C1230 1.391 . S
H1232 C1240 0.950 . S
H1233 C1245 0.950 . S
H1234 C1242 0.950 . S
H1235 C1244 0.950 . S
H1236 C1246 0.950 . S
H1237 C1248 0.950 . S
H1238 C1250 0.950 . S
H1239 C1251 0.950 . S
C1240 H1232 0.950 . S
C1240 C1241 1.386 . S
C1240 C1242 1.391 . S
C1241 C1240 1.386 . S
C1241 C1245 1.393 . S
C1242 H1234 0.950 . S
C1242 C1240 1.391 . S
C1242 C1243 1.400 . S
C1243 C1242 1.400 . S
C1243 C1244 1.398 . S
C1243 C1249 1.491 . S
C1244 H1235 0.950 . S
C1244 C1243 1.398 . S
C1244 C1245 1.391 . S
C1245 H1233 0.950 . S
C1245 C1241 1.393 . S
C1245 C1244 1.391 . S
C1246 H1236 0.950 . S
C1246 C1247 1.386 . S
C1246 C1248 1.391 . S
C1247 C1246 1.386 . S
C1247 C1251 1.393 . S
C1248 H1237 0.950 . S
C1248 C1246 1.391 . S
C1248 C1249 1.400 . S
C1249 C1243 1.491 . S
C1249 C1248 1.400 . S
C1249 C1250 1.398 . S
C1250 H1238 0.950 . S
C1250 C1249 1.398 . S
C1250 C1251 1.391 . S
C1251 H1239 0.950 . S
C1251 C1247 1.393 . S
C1251 C1250 1.391 . S
H1252 C1260 0.950 . S
H1253 C1265 0.950 . S
H1254 C1262 0.950 . S
H1255 C1264 0.950 . S
H1256 C1266 0.950 . S
H1257 C1268 0.950 . S
H1258 C1270 0.950 . S
H1259 C1271 0.950 . S
C1260 H1252 0.950 . S
C1260 C1261 1.386 . S
C1260 C1262 1.391 . S
C1261 C1260 1.386 . S
C1261 C1265 1.393 . S
C1262 H1254 0.950 . S
C1262 C1260 1.391 . S
C1262 C1263 1.400 . S
C1263 C1262 1.400 . S
C1263 C1264 1.398 . S
C1263 C1269 1.491 . S
C1264 H1255 0.950 . S
C1264 C1263 1.398 . S
C1264 C1265 1.391 . S
C1265 H1253 0.950 . S
C1265 C1261 1.393 . S
C1265 C1264 1.391 . S
C1266 H1256 0.950 . S
C1266 C1267 1.386 . S
C1266 C1268 1.391 . S
C1267 C1266 1.386 . S
C1267 C1271 1.393 . S
C1268 H1257 0.950 . S
C1268 C1266 1.391 . S
C1268 C1269 1.400 . S
C1269 C1263 1.491 . S
C1269 C1268 1.400 . S
C1269 C1270 1.398 . S
C1270 H1258 0.950 . S
C1270 C1269 1.398 . S
C1270 C1271 1.391 . S
C1271 H1259 0.950 . S
C1271 C1267 1.393 . S
C1271 C1270 1.391 . S
C321 C153 1.393 . S
C327 C8 1.390 . S
C341 C21 1.370 . S
C347 C114 1.415 . S
C361 C34 1.365 . S
C367 C127 1.407 . S
C381 C47 1.391 . S
C387 C140 1.393 . S
C401 C179 1.399 . S
C407 C60 1.395 . S
C421 C73 1.369 . S
C427 C192 1.415 . S
C441 C205 1.413 . S
C447 C86 1.367 . S
C461 C166 1.413 . S
C467 C99 1.386 . S
C481 C75 1.410 . S
C487 C112 1.390 . S
C501 C88 1.394 . S
C507 C125 1.377 . S
C521 C138 1.391 . S
C527 C101 1.394 . S
C541 C62 1.394 . S
C547 C151 1.378 . S
C561 C49 1.395 . S
C567 C164 1.375 . S
C581 C177 1.381 . S
C587 C10 1.393 . S
C601 C190 1.395 . S
C607 C23 1.400 . S
C621 C203 1.388 . S
C627 C36 1.411 . S
C641 C216 1.374 . S
C647 C309 1.396 . S
C661 C270 1.410 . S
C667 C229 1.389 . S
C681 C242 1.365 . S
C687 C231 1.408 . S
C701 C255 1.394 . S
C707 C244 1.397 . S
C721 C257 1.398 . S
C727 C268 1.371 . S
C741 C281 1.394 . S
C747 C296 1.403 . S
C761 C218 1.410 . S
C767 C294 1.389 . S
C781 C283 1.416 . S
C787 C307 1.376 . S
C801 C5 1.308 . S
C807 C83 1.337 . S
C821 C18 1.318 . S
C827 C96 1.331 . S
C841 C31 1.332 . S
C847 C57 1.317 . S
C861 C70 1.336 . S
C867 C44 1.307 . S
C881 C135 1.318 . S
C887 C109 1.320 . S
C901 C122 1.325 . S
C907 C148 1.313 . S
C921 C161 1.336 . S
C927 C187 1.312 . S
C941 C200 1.310 . S
C947 C174 1.336 . S
C961 C226 1.320 . S
C967 C213 1.329 . S
C981 C239 1.329 . S
C987 C304 1.310 . S
C1001 C252 1.319 . S
C1007 C278 1.331 . S
C1021 C265 1.336 . S
C1027 C291 1.307 . S
C1041 C0 0.985 . S
C1047 C65 0.974 . S
C1061 C13 0.957 . S
C1067 C78 0.973 . S
C1081 C26 0.956 . S
C1087 C91 0.971 . S
C1101 C52 0.965 . S
C1107 C39 0.981 . S
C1121 C104 0.976 . S
C1127 C299 0.985 . S
C1141 C117 0.974 . S
C1147 C273 0.958 . S
C1161 C286 0.976 . S
C1167 C130 0.959 . S
C1181 C143 0.982 . S
C1187 C208 0.967 . S
C1201 C260 0.954 . S
C1207 C156 0.964 . S
C1221 C221 0.978 . S
C1227 C169 0.962 . S
C1241 C182 0.957 . S
C1247 C234 0.973 . S
C1261 C247 0.954 . S
C1267 C195 0.961 . S
