# Generated by pormake.
# Topology mok, (4)-cn, num edge types: 1
# Building blocks:
#     Node 0, Type 0, BuildingBlock: QUQFOY_clean_sbu_3, # of connection points: 4
#     Node 1, Type 0, BuildingBlock: QUQFOY_clean_sbu_3, # of connection points: 4
#     Node 2, Type 0, BuildingBlock: QUQFOY_clean_sbu_3, # of connection points: 4
#     Node 3, Type 0, BuildingBlock: QUQFOY_clean_sbu_3, # of connection points: 4
#     Node 4, Type 0, BuildingBlock: QUQFOY_clean_sbu_3, # of connection points: 4
#     Node 5, Type 0, BuildingBlock: QUQFOY_clean_sbu_3, # of connection points: 4
#     Node 6, Type 0, BuildingBlock: QUQFOY_clean_sbu_3, # of connection points: 4
#     Node 7, Type 0, BuildingBlock: QUQFOY_clean_sbu_3, # of connection points: 4
#     Edge 8, Type (0, 0), BuildingBlock: FUNLAD_clean_linker_1, # of connection points: 2
#     Edge 9, Type (0, 0), BuildingBlock: FUNLAD_clean_linker_1, # of connection points: 2
#     Edge 10, Type (0, 0), BuildingBlock: FUNLAD_clean_linker_1, # of connection points: 2
#     Edge 11, Type (0, 0), BuildingBlock: FUNLAD_clean_linker_1, # of connection points: 2
#     Edge 12, Type (0, 0), BuildingBlock: FUNLAD_clean_linker_1, # of connection points: 2
#     Edge 13, Type (0, 0), BuildingBlock: FUNLAD_clean_linker_1, # of connection points: 2
#     Edge 14, Type (0, 0), BuildingBlock: FUNLAD_clean_linker_1, # of connection points: 2
#     Edge 15, Type (0, 0), BuildingBlock: FUNLAD_clean_linker_1, # of connection points: 2
#     Edge 16, Type (0, 0), BuildingBlock: FUNLAD_clean_linker_1, # of connection points: 2
#     Edge 17, Type (0, 0), BuildingBlock: FUNLAD_clean_linker_1, # of connection points: 2
#     Edge 18, Type (0, 0), BuildingBlock: FUNLAD_clean_linker_1, # of connection points: 2
#     Edge 19, Type (0, 0), BuildingBlock: FUNLAD_clean_linker_1, # of connection points: 2
#     Edge 20, Type (0, 0), BuildingBlock: FUNLAD_clean_linker_1, # of connection points: 2
#     Edge 21, Type (0, 0), BuildingBlock: FUNLAD_clean_linker_1, # of connection points: 2
#     Edge 22, Type (0, 0), BuildingBlock: FUNLAD_clean_linker_1, # of connection points: 2
#     Edge 23, Type (0, 0), BuildingBlock: FUNLAD_clean_linker_1, # of connection points: 2
# Relax obj value: 0.012
# Max RMSD: 0.032
# Mean RMSD: 0.032
data_MOF--net-mok--node1-QUQFOY_clean_sbu_3--edge1-FUNLAD_clean_linker_1
_symmetry_space_group_name_H-M    P1
_symmetry_Int_Tables_number       1
_symmetry_cell_setting            triclinic
loop_
_symmetry_equiv_pos_as_xyz
'x, y, z'
_cell_length_a     57.106111
_cell_length_b     16.883229
_cell_length_c     28.938372
_cell_angle_alpha  90.02515
_cell_angle_beta   89.948421
_cell_angle_gamma 89.8853
loop_
_atom_site_label
_atom_site_type_symbol
_atom_site_fract_x
_atom_site_fract_y
_atom_site_fract_z
_atom_type_partial_charge
C0 C 0.60727 0.43117 0.08564 0.0
O1 O 0.61446 0.47973 0.05543 0.0
Cd2 Cd 0.61797 0.44326 0.97616 0.0
O3 O 0.60041 0.36207 0.07433 0.0
Cd4 Cd 0.59434 0.28132 0.00408 0.0
C5 C 0.65281 0.27712 0.98916 0.0
O6 O 0.58103 0.3875 0.95436 0.0
O7 O 0.5926 0.28125 0.91953 0.0
O8 O 0.5564 0.24701 0.03597 0.0
C9 C 0.58264 0.34832 0.91726 0.0
O10 O 0.65055 0.3484 0.97534 0.0
C11 C 0.558 0.17337 0.02815 0.0
O12 O 0.63527 0.23823 0.00401 0.0
O13 O 0.57702 0.14841 0.01045 0.0
C14 C 0.35647 0.57112 0.08224 0.0
O15 O 0.34432 0.52808 0.05554 0.0
Cd16 Cd 0.34357 0.54832 0.97363 0.0
O17 O 0.36858 0.62846 0.06664 0.0
Cd18 Cd 0.37823 0.6954 0.99364 0.0
C19 C 0.32078 0.73689 0.97435 0.0
O20 O 0.38346 0.57192 0.95208 0.0
O21 O 0.38523 0.67862 0.91092 0.0
O22 O 0.41673 0.7106 0.02854 0.0
C23 C 0.38739 0.60398 0.91336 0.0
O24 O 0.31848 0.66366 0.96491 0.0
C25 C 0.4192 0.78273 0.01754 0.0
O26 O 0.34033 0.76461 0.98794 0.0
O27 O 0.40233 0.81565 -0.00375 0.0
C28 C 0.61848 0.4984 0.43924 0.0
O29 O 0.62345 0.44949 0.47099 0.0
Cd30 Cd 0.6316 0.49349 0.54763 0.0
O31 O 0.61604 0.57196 0.44794 0.0
Cd32 Cd 0.61569 0.66644 0.51315 0.0
C33 C 0.6737 0.63611 0.52316 0.0
O34 O 0.59958 0.57641 0.56958 0.0
O35 O 0.61631 0.68062 0.59738 0.0
O36 O 0.5787 0.70972 0.48115 0.0
C37 C 0.60411 0.61918 0.60436 0.0
O38 O 0.66792 0.56924 0.53997 0.0
C39 C 0.58252 0.78332 0.48469 0.0
O40 O 0.6583 0.68431 0.50789 0.0
O41 O 0.60243 0.80426 0.50015 0.0
C42 C 0.39558 0.44844 0.42244 0.0
O43 O 0.38611 0.49395 0.45205 0.0
Cd44 Cd 0.38426 0.46647 0.53284 0.0
O45 O 0.40539 0.38384 0.43437 0.0
Cd46 Cd 0.41331 0.3047 0.50447 0.0
C47 C 0.35435 0.28967 0.52163 0.0
O48 O 0.42191 0.41691 0.55293 0.0
O49 O 0.41828 0.30575 0.58868 0.0
O50 O 0.45159 0.28025 0.47029 0.0
C51 C 0.42274 0.37921 0.5906 0.0
O52 O 0.35509 0.36172 0.53467 0.0
C53 C 0.45196 0.20663 0.47884 0.0
O54 O 0.37264 0.25425 0.50681 0.0
O55 O 0.4339 0.17714 0.49793 0.0
C56 C 0.09058 0.9944 0.08409 0.0
O57 O 0.09445 0.04564 0.05299 0.0
Cd58 Cd 0.10035 0.01075 0.97366 0.0
O59 O 0.08837 0.92135 0.074 0.0
Cd60 Cd 0.0878 0.83397 0.00582 0.0
C61 C 0.14506 0.87529 0.98849 0.0
O62 O 0.06903 0.92414 0.95218 0.0
O63 O 0.08689 0.82389 0.92193 0.0
O64 O 0.05311 0.76955 0.03635 0.0
C65 C 0.07388 0.88408 0.91646 0.0
O66 O 0.13837 0.94244 0.97321 0.0
C67 C 0.06101 0.69951 0.03266 0.0
O68 O 0.13047 0.82571 0.00487 0.0
O69 O 0.08176 0.69159 0.01754 0.0
C70 C 0.88572 0.03595 0.09354 0.0
O71 O 0.87951 0.98463 0.06404 0.0
Cd72 Cd 0.87351 0.01798 0.98489 0.0
O73 O 0.88964 0.10741 0.08171 0.0
Cd74 Cd 0.89034 0.18943 0.01103 0.0
C75 C 0.83212 0.16507 -0.0036 0.0
O76 O 0.90815 0.08915 0.96278 0.0
O77 O 0.89298 0.18809 0.92621 0.0
O78 O 0.92601 0.24869 0.04123 0.0
C79 C 0.90552 0.12608 0.9252 0.0
O80 O 0.83701 0.09515 0.98284 0.0
C81 C 0.91987 0.3198 0.03382 0.0
O82 O 0.84807 0.21124 0.01099 0.0
O83 O 0.89965 0.33093 0.01683 0.0
C84 C 0.11728 0.04793 0.43487 0.0
O85 O 0.12486 0.99763 0.46376 0.0
Cd86 Cd 0.13388 0.03368 0.54161 0.0
O87 O 0.11372 0.1197 0.44657 0.0
Cd88 Cd 0.11555 0.20694 0.51481 0.0
C89 C 0.17437 0.18114 0.5212 0.0
O90 O 0.10118 0.10963 0.56892 0.0
O91 O 0.11683 0.21379 0.59932 0.0
O92 O 0.07748 0.25593 0.49066 0.0
C93 C 0.10541 0.15022 0.60474 0.0
O94 O 0.16977 0.11193 0.53618 0.0
C95 C 0.08253 0.32891 0.49291 0.0
O96 O 0.15808 0.22787 0.50833 0.0
O97 O 0.10338 0.34633 0.50432 0.0
C98 C 0.90358 0.96831 0.44558 0.0
O99 O 0.89941 0.01831 0.47725 0.0
Cd100 Cd 0.8882 0.97851 0.55326 0.0
O101 O 0.90396 0.89426 0.45409 0.0
Cd102 Cd 0.90083 0.80041 0.51921 0.0
C103 C 0.84344 0.84815 0.52463 0.0
O104 O 0.91632 0.88438 0.57918 0.0
O105 O 0.8964 0.78386 0.60283 0.0
O106 O 0.93803 0.74294 0.49658 0.0
C107 C 0.90894 0.84329 0.61274 0.0
O108 O 0.85033 0.91344 0.54193 0.0
C109 C 0.93096 0.67182 0.49479 0.0
O110 O 0.85801 0.79578 0.51079 0.0
O111 O 0.90938 0.65973 0.50303 0.0
H112 H 0.80416 0.25343 0.00784 0.0
C113 C 0.80766 0.19348 -0.0041 0.0
H114 H 0.79298 0.0887 0.96837 0.0
H115 H 0.70205 0.27421 0.06516 0.0
H116 H 0.72093 0.24443 0.13807 0.0
H117 H 0.75993 0.18145 0.14006 0.0
H118 H 0.78044 0.1492 0.06909 0.0
C119 C 0.78977 0.14791 0.98172 0.0
C120 C 0.76533 0.17871 0.98088 0.0
C121 C 0.7532 0.1943 0.02274 0.0
C122 C 0.73029 0.22759 0.02157 0.0
C123 C 0.7191 0.24641 0.0639 0.0
C124 C 0.7298 0.23 0.10607 0.0
C125 C 0.75179 0.19478 0.10719 0.0
C126 C 0.76343 0.17699 0.06615 0.0
H127 H 0.67774 0.1791 0.00198 0.0
C128 C 0.67621 0.23969 0.98962 0.0
H129 H 0.69427 0.33918 0.9633 0.0
H130 H 0.78343 0.15358 0.89445 0.0
H131 H 0.76399 0.17903 0.82143 0.0
H132 H 0.72383 0.23302 0.8194 0.0
H133 H 0.70288 0.26215 0.89041 0.0
C134 C 0.69557 0.27929 0.9768 0.0
C135 C 0.71923 0.24238 0.97852 0.0
C136 C 0.73116 0.225 0.93674 0.0
C137 C 0.75422 0.19309 0.93791 0.0
C138 C 0.76581 0.17721 0.8956 0.0
C139 C 0.75487 0.19163 0.85342 0.0
C140 C 0.73227 0.2221 0.85228 0.0
C141 C 0.72046 0.23869 0.89331 0.0
H142 H 0.17508 0.79558 0.0003 0.0
C143 C 0.17009 0.85372 0.98743 0.0
H144 H 0.18205 0.96011 0.9569 0.0
H145 H 0.27527 0.77847 0.05076 0.0
H146 H 0.25763 0.81226 0.12432 0.0
H147 H 0.21922 0.87915 0.12782 0.0
H148 H 0.19804 0.91128 0.05758 0.0
C149 C 0.18671 0.90269 0.97116 0.0
C150 C 0.21163 0.87694 0.96908 0.0
C151 C 0.22427 0.86202 0.01035 0.0
C152 C 0.24683 0.82634 0.00822 0.0
C153 C 0.25841 0.80764 0.05011 0.0
C154 C 0.24844 0.8265 0.09268 0.0
C155 C 0.22679 0.86394 0.09466 0.0
C156 C 0.21476 0.8816 0.0541 0.0
H157 H 0.30181 0.85071 0.98298 0.0
C158 C 0.30001 0.78909 0.9727 0.0
H159 H 0.27681 0.69916 0.95076 0.0
H160 H 0.19322 0.90669 0.88344 0.0
H161 H 0.2119 0.88083 0.8096 0.0
H162 H 0.25152 0.82259 0.80589 0.0
H163 H 0.27269 0.78962 0.87611 0.0
C164 C 0.27876 0.76023 0.96197 0.0
C165 C 0.25702 0.80849 0.96469 0.0
C166 C 0.24509 0.82887 0.92347 0.0
C167 C 0.22235 0.86318 0.92563 0.0
C168 C 0.2106 0.88108 0.88383 0.0
C169 C 0.22111 0.8665 0.8412 0.0
C170 C 0.24341 0.83364 0.83911 0.0
C171 C 0.25533 0.8148 0.87964 0.0
H172 H 0.80649 0.88117 0.53446 0.0
C173 C 0.81798 0.8344 0.5219 0.0
H174 H 0.81949 0.71997 0.49233 0.0
H175 H 0.71414 0.7473 0.59278 0.0
H176 H 0.73553 0.75111 0.66507 0.0
H177 H 0.77873 0.75303 0.66568 0.0
H178 H 0.80072 0.75302 0.59405 0.0
C179 C 0.80849 0.7668 0.50631 0.0
C180 C 0.78259 0.7559 0.50625 0.0
C181 C 0.77005 0.75189 0.54858 0.0
C182 C 0.74521 0.74624 0.54828 0.0
C183 C 0.73306 0.74769 0.59099 0.0
C184 C 0.74512 0.7505 0.63277 0.0
C185 C 0.76942 0.75194 0.63311 0.0
C186 C 0.78183 0.75254 0.59166 0.0
H187 H 0.71097 0.61248 0.53606 0.0
C188 C 0.69882 0.65598 0.52206 0.0
H189 H 0.69568 0.76786 0.48981 0.0
H190 H 0.80117 0.76313 0.41917 0.0
H191 H 0.7798 0.75487 0.3469 0.0
H192 H 0.73687 0.73867 0.34645 0.0
H193 H 0.71501 0.7314 0.41826 0.0
C194 C 0.70729 0.72439 0.50539 0.0
C195 C 0.73301 0.73969 0.50574 0.0
C196 C 0.74553 0.74349 0.46347 0.0
C197 C 0.77034 0.75175 0.46373 0.0
C198 C 0.78236 0.75612 0.42099 0.0
C199 C 0.77031 0.75151 0.37925 0.0
C200 C 0.74614 0.74244 0.37899 0.0
C201 C 0.7338 0.73836 0.42048 0.0
H202 H 0.20253 0.2675 0.50654 0.0
C203 C 0.19898 0.20786 0.51882 0.0
H204 H 0.21357 0.102 0.54534 0.0
H205 H 0.30521 0.2761 0.44556 0.0
H206 H 0.28531 0.25019 0.37321 0.0
H207 H 0.24553 0.19354 0.37235 0.0
H208 H 0.22527 0.16368 0.44392 0.0
C209 C 0.2169 0.16087 0.5317 0.0
C210 C 0.24156 0.18937 0.53165 0.0
C211 C 0.25347 0.20387 0.48945 0.0
C212 C 0.27675 0.23388 0.48994 0.0
C213 C 0.2878 0.25128 0.44731 0.0
C214 C 0.27654 0.23691 0.40546 0.0
C215 C 0.25412 0.20521 0.40498 0.0
C216 C 0.24264 0.18873 0.44635 0.0
H217 H 0.33088 0.18693 0.50995 0.0
C218 C 0.33156 0.24808 0.52161 0.0
H219 H 0.31224 0.34627 0.5465 0.0
H220 H 0.22417 0.16445 0.61869 0.0
H221 H 0.24463 0.18561 0.69104 0.0
H222 H 0.28532 0.23447 0.69179 0.0
H223 H 0.3058 0.26248 0.62015 0.0
C224 C 0.31168 0.28569 0.53386 0.0
C225 C 0.28831 0.24703 0.53264 0.0
C226 C 0.27667 0.22998 0.57474 0.0
C227 C 0.2533 0.20107 0.57427 0.0
C228 C 0.242 0.18574 0.61695 0.0
C229 C 0.25353 0.19778 0.65877 0.0
C230 C 0.27643 0.22536 0.6592 0.0
C231 C 0.28795 0.24141 0.61782 0.0
H232 H 0.61422 0.5137 0.14293 0.0
C233 C 0.60768 0.455 0.13444 0.0
H234 H 0.59456 0.34692 0.16119 0.0
H235 H 0.65447 0.46962 0.33985 0.0
H236 H 0.68622 0.40299 0.30002 0.0
H237 H 0.68043 0.34667 0.22218 0.0
H238 H 0.64285 0.35772 0.18355 0.0
C239 C 0.60111 0.40598 0.16847 0.0
C240 C 0.60357 0.43086 0.21722 0.0
C241 C 0.62535 0.42128 0.23988 0.0
C242 C 0.62842 0.45133 0.28528 0.0
C243 C 0.65081 0.44511 0.30612 0.0
C244 C 0.66928 0.40755 0.28346 0.0
C245 C 0.66605 0.37604 0.23959 0.0
C246 C 0.6444 0.38289 0.2178 0.0
H247 H 0.61699 0.40578 0.38557 0.0
C248 C 0.6157 0.46918 0.39173 0.0
H249 H 0.61029 0.58195 0.36177 0.0
H250 H 0.55951 0.45625 0.18333 0.0
H251 H 0.5273 0.52071 0.22346 0.0
H252 H 0.53222 0.57029 0.30309 0.0
H253 H 0.56934 0.55603 0.343 0.0
C254 C 0.61219 0.51862 0.3561 0.0
C255 C 0.60937 0.48825 0.30837 0.0
C256 C 0.58749 0.49689 0.2858 0.0
C257 C 0.58459 0.46803 0.24008 0.0
C258 C 0.56262 0.47735 0.2181 0.0
C259 C 0.54399 0.51407 0.24075 0.0
C260 C 0.54677 0.54199 0.28558 0.0
C261 C 0.56819 0.53355 0.30806 0.0
H262 H 0.34273 0.51788 0.14628 0.0
C263 C 0.35679 0.55353 0.1319 0.0
H264 H 0.38866 0.61275 0.14451 0.0
H265 H 0.37942 0.6654 0.35727 0.0
H266 H 0.3806 0.79989 0.32825 0.0
H267 H 0.37857 0.82675 0.24457 0.0
H268 H 0.37571 0.71925 0.18944 0.0
C269 C 0.37456 0.57728 0.15891 0.0
C270 C 0.37504 0.56023 0.20925 0.0
C271 C 0.3761 0.62411 0.24103 0.0
C272 C 0.37663 0.60878 0.28929 0.0
C273 C 0.37852 0.67354 0.32025 0.0
C274 C 0.37925 0.75116 0.30407 0.0
C275 C 0.37815 0.76627 0.25697 0.0
C276 C 0.37658 0.70383 0.22567 0.0
H277 H 0.40691 0.44008 0.34992 0.0
C278 C 0.39444 0.46822 0.37316 0.0
H279 H 0.36462 0.54173 0.37899 0.0
H280 H 0.37767 0.42274 0.15822 0.0
H281 H 0.37284 0.2892 0.18711 0.0
H282 H 0.36698 0.26446 0.27036 0.0
H283 H 0.367 0.37301 0.32517 0.0
C284 C 0.37729 0.51404 0.356 0.0
C285 C 0.37544 0.52977 0.30563 0.0
C286 C 0.3732 0.46613 0.27386 0.0
C287 C 0.37434 0.48101 0.22564 0.0
C288 C 0.37503 0.41557 0.19496 0.0
C289 C 0.37255 0.33836 0.21114 0.0
C290 C 0.36941 0.3244 0.25799 0.0
C291 C 0.36971 0.38726 0.28914 0.0
H292 H 0.39274 0.49114 0.8768 0.0
C293 C 0.39306 0.5552 0.87291 0.0
H294 H 0.39975 0.65084 0.82764 0.0
H295 H 0.46154 0.43242 0.69591 0.0
H296 H 0.49191 0.51045 0.73291 0.0
H297 H 0.48234 0.60088 0.79726 0.0
H298 H 0.44238 0.61371 0.82507 0.0
C299 C 0.39846 0.58704 0.83187 0.0
C300 C 0.40394 0.53543 0.79185 0.0
C301 C 0.42732 0.5297 0.77571 0.0
C302 C 0.43279 0.47828 0.73836 0.0
C303 C 0.45637 0.47191 0.72357 0.0
C304 C 0.47397 0.516 0.74467 0.0
C305 C 0.46859 0.56684 0.78093 0.0
C306 C 0.44558 0.57371 0.79652 0.0
H307 H 0.42515 0.48631 0.63349 0.0
C308 C 0.42352 0.42217 0.63464 0.0
H309 H 0.41702 0.32233 0.67667 0.0
H310 H 0.35699 0.53742 0.81226 0.0
H311 H 0.32676 0.4591 0.77548 0.0
H312 H 0.33641 0.36782 0.71161 0.0
H313 H 0.37632 0.35463 0.68412 0.0
C314 C 0.41978 0.38595 0.67517 0.0
C315 C 0.4148 0.43376 0.71698 0.0
C316 C 0.39145 0.43894 0.73339 0.0
C317 C 0.38595 0.49059 0.77058 0.0
C318 C 0.36231 0.49743 0.78498 0.0
C319 C 0.34472 0.45322 0.76393 0.0
C320 C 0.35014 0.40192 0.72795 0.0
C321 C 0.37317 0.39486 0.71257 0.0
H322 H 0.56263 0.42797 0.8719 0.0
C323 C 0.577 0.3857 0.873 0.0
H324 H 0.6054 0.33412 0.83759 0.0
H325 H 0.57908 0.39407 0.63265 0.0
H326 H 0.57891 0.25115 0.63673 0.0
H327 H 0.5814 0.18249 0.71176 0.0
H328 H 0.58456 0.25674 0.78311 0.0
C329 C 0.59084 0.37562 0.83603 0.0
C330 C 0.58669 0.41833 0.79184 0.0
C331 C 0.5839 0.37402 0.75057 0.0
C332 C 0.58165 0.41369 0.70748 0.0
C333 C 0.58025 0.36766 0.66656 0.0
C334 C 0.58018 0.28523 0.66833 0.0
C335 C 0.58163 0.24657 0.71054 0.0
C336 C 0.5835 0.29006 0.75126 0.0
H337 H 0.61215 0.6078 0.67822 0.0
C338 C 0.60002 0.5898 0.65128 0.0
H339 H 0.57053 0.52206 0.63338 0.0
H340 H 0.59551 0.52383 0.86277 0.0
H341 H 0.59036 0.66596 0.86005 0.0
H342 H 0.57866 0.73238 0.78769 0.0
H343 H 0.57328 0.65667 0.7171 0.0
C344 C 0.58261 0.53888 0.66064 0.0
C345 C 0.58126 0.49772 0.70605 0.0
C346 C 0.58175 0.54169 0.74781 0.0
C347 C 0.58603 0.50249 0.79037 0.0
C348 C 0.5901 0.5493 0.83026 0.0
C349 C 0.58753 0.63135 0.82906 0.0
C350 C 0.58111 0.66879 0.78829 0.0
C351 C 0.57829 0.62479 0.74799 0.0
H352 H 0.09388 0.08162 0.14036 0.0
C353 C 0.09053 0.01959 0.13269 0.0
H354 H 0.0849 0.90534 0.1608 0.0
H355 H 0.14491 0.08515 0.32525 0.0
H356 H 0.17775 0.07093 0.2727 0.0
H357 H 0.17205 0.01803 0.19402 0.0
H358 H 0.13345 0.98029 0.16727 0.0
C359 C 0.08854 0.96745 0.16744 0.0
C360 C 0.09227 0.99265 0.21589 0.0
C361 C 0.11514 0.0119 0.23132 0.0
C362 C 0.11856 0.03952 0.27713 0.0
C363 C 0.1414 0.06163 0.29118 0.0
C364 C 0.16041 0.05409 0.2613 0.0
C365 C 0.15719 0.02454 0.21698 0.0
C366 C 0.13488 0.00354 0.20198 0.0
H367 H 0.11806 0.96315 0.37689 0.0
C368 C 0.11287 0.02267 0.38708 0.0
H369 H 0.09683 0.12979 0.36578 0.0
H370 H 0.04645 0.95779 0.19729 0.0
H371 H 0.01382 0.96662 0.25103 0.0
H372 H 0.02004 0.01067 0.33147 0.0
H373 H 0.05875 0.0474 0.35837 0.0
C374 C 0.10291 0.07108 0.35603 0.0
C375 C 0.09926 0.04483 0.30777 0.0
C376 C 0.0765 0.0241 0.29264 0.0
C377 C 0.073 0.99786 0.24654 0.0
C378 C 0.05008 0.9777 0.2321 0.0
C379 C 0.03122 0.98251 0.26257 0.0
C380 C 0.0347 0.00747 0.30781 0.0
C381 C 0.05702 0.02828 0.32284 0.0
H382 H 0.90548 0.06018 0.39163 0.0
C383 C 0.9061 0.99667 0.39784 0.0
H384 H 0.90606 0.88284 0.36726 0.0
H385 H 0.85098 0.03115 0.19655 0.0
H386 H 0.8187 0.97301 0.23896 0.0
H387 H 0.82491 0.91452 0.31612 0.0
H388 H 0.86339 0.91493 0.35147 0.0
C389 C 0.90661 0.94652 0.36192 0.0
C390 C 0.90359 0.97662 0.3143 0.0
C391 C 0.88115 0.97326 0.29357 0.0
C392 C 0.87773 0.00471 0.24862 0.0
C393 C 0.85482 0.00503 0.2298 0.0
C394 C 0.83606 0.97251 0.25399 0.0
C395 C 0.83954 0.93977 0.29745 0.0
C396 C 0.86175 0.94029 0.31729 0.0
H397 H 0.88568 0.94964 0.15054 0.0
C398 C 0.88848 0.01162 0.14195 0.0
H399 H 0.89754 0.12497 0.16735 0.0
H400 H 0.94866 0.99231 0.34485 0.0
H401 H 0.98104 0.05074 0.30258 0.0
H402 H 0.97553 0.10167 0.22347 0.0
H403 H 0.93747 0.09588 0.18639 0.0
C404 C 0.89405 0.06325 0.17543 0.0
C405 C 0.89702 0.03633 0.22385 0.0
C406 C 0.91941 0.04052 0.24487 0.0
C407 C 0.92268 0.01068 0.2903 0.0
C408 C 0.94521 0.01471 0.31049 0.0
C409 C 0.96397 0.0477 0.28654 0.0
C410 C 0.96085 0.07651 0.24201 0.0
C411 C 0.93888 0.07293 0.22118 0.0
H412 H 0.89599 0.85379 0.68386 0.0
C413 C 0.90937 0.87441 0.66 0.0
H414 H 0.93777 0.95133 0.64884 0.0
H415 H 0.90524 0.21425 0.78881 0.0
H416 H 0.90985 0.28669 0.71715 0.0
H417 H 0.91905 0.21688 0.64448 0.0
H418 H 0.92416 0.07477 0.64317 0.0
C419 C 0.92452 0.93091 0.67299 0.0
C420 C 0.92141 0.97366 0.71758 0.0
C421 C 0.91799 0.05697 0.71733 0.0
C422 C 0.91192 0.09697 0.7589 0.0
C423 C 0.90932 0.18049 0.75805 0.0
C424 C 0.91197 0.22295 0.71715 0.0
C425 C 0.91719 0.18367 0.67627 0.0
C426 C 0.92014 0.10177 0.67609 0.0
H427 H 0.92941 0.05397 0.88303 0.0
C428 C 0.91382 0.091 0.88189 0.0
H429 H 0.88544 0.13191 0.842 0.0
H430 H 0.93323 0.81852 0.73304 0.0
H431 H 0.92593 0.74363 0.80321 0.0
H432 H 0.90814 0.808 0.87134 0.0
H433 H 0.89871 0.94777 0.87045 0.0
C434 C 0.90122 0.09578 0.84296 0.0
C435 C 0.9084 0.05333 0.80016 0.0
C436 C 0.91168 0.96981 0.80025 0.0
C437 C 0.91965 0.931 0.75964 0.0
C438 C 0.92551 0.84953 0.76203 0.0
C439 C 0.92161 0.80606 0.80217 0.0
C440 C 0.91175 0.8424 0.84059 0.0
C441 C 0.90672 0.92316 0.8398 0.0
H442 H 0.05397 0.95388 0.86552 0.0
C443 C 0.06937 0.91691 0.87045 0.0
H444 H 0.10103 0.87452 0.84228 0.0
H445 H 0.08559 0.91922 0.63202 0.0
H446 H 0.08857 0.77676 0.63833 0.0
H447 H 0.08809 0.71138 0.71451 0.0
H448 H 0.08507 0.78851 0.78489 0.0
C449 C 0.08545 0.91046 0.83685 0.0
C450 C 0.08282 0.95039 0.7914 0.0
C451 C 0.08364 0.90415 0.75051 0.0
C452 C 0.08316 0.94168 0.70658 0.0
C453 C 0.08531 0.89416 0.66637 0.0
C454 C 0.08708 0.81205 0.66944 0.0
C455 C 0.08686 0.77526 0.71232 0.0
C456 C 0.08519 0.82039 0.75247 0.0
H457 H 0.11127 0.13962 0.67954 0.0
C458 C 0.10055 0.11896 0.65097 0.0
H459 H 0.07298 0.04506 0.62936 0.0
H460 H 0.08465 0.0599 0.86231 0.0
H461 H 0.07705 0.20039 0.85605 0.0
H462 H 0.06896 0.26166 0.78031 0.0
H463 H 0.0696 0.18264 0.7102 0.0
C464 C 0.0837 0.0649 0.65811 0.0
C465 C 0.08101 0.02526 0.7037 0.0
C466 C 0.07814 0.07075 0.74454 0.0
C467 C 0.08047 0.03408 0.78845 0.0
C468 C 0.08096 0.08299 0.82829 0.0
C469 C 0.07693 0.16421 0.82516 0.0
C470 C 0.07254 0.19878 0.78252 0.0
C471 C 0.07317 0.15292 0.74255 0.0
H472 H 0.45519 0.79089 0.04445 0.0
C473 C 0.44137 0.82392 0.02718 0.0
H474 H 0.43223 0.93042 0.99361 0.0
H475 H 0.52926 0.02426 0.11038 0.0
H476 H 0.50639 0.00231 0.17996 0.0
H477 H 0.46602 0.95111 0.1753 0.0
H478 H 0.44844 0.92033 0.10119 0.0
C479 C 0.44553 0.89806 0.01275 0.0
C480 C 0.46935 0.93313 0.0162 0.0
C481 C 0.47904 0.95317 0.05979 0.0
C482 C 0.50194 0.98589 0.06237 0.0
C483 C 0.51162 0.0021 0.10639 0.0
C484 C 0.49874 0.98929 0.1466 0.0
C485 C 0.47604 0.9602 0.14398 0.0
C486 C 0.46621 0.94234 0.1012 0.0
H487 H 0.52172 0.14914 0.04899 0.0
C488 C 0.53765 0.12172 0.03588 0.0
H489 H 0.55278 0.01815 0.00796 0.0
H490 H 0.45647 0.89719 0.92742 0.0
H491 H 0.47908 0.92137 0.85797 0.0
H492 H 0.51809 0.98335 0.8622 0.0
H493 H 0.53481 0.02081 0.93587 0.0
C494 C 0.53728 0.04538 0.02298 0.0
C495 C 0.51469 0.00154 0.0213 0.0
C496 C 0.50515 0.98027 0.9778 0.0
C497 C 0.48249 0.94585 0.97528 0.0
C498 C 0.47346 0.92456 0.93139 0.0
C499 C 0.48627 0.93796 0.89118 0.0
C500 C 0.50824 0.97276 0.89357 0.0
C501 C 0.51765 0.9939 0.93621 0.0
H502 H 0.54702 0.8157 0.46256 0.0
C503 C 0.56358 0.83998 0.4745 0.0
H504 H 0.58109 0.94228 0.49787 0.0
H505 H 0.47933 0.05415 0.39826 0.0
H506 H 0.49658 0.00962 0.32609 0.0
H507 H 0.53581 0.94817 0.32467 0.0
H508 H 0.5579 0.92988 0.39555 0.0
C509 C 0.56502 0.91766 0.48386 0.0
C510 C 0.54349 0.96775 0.48301 0.0
C511 C 0.5312 0.98083 0.44108 0.0
C512 C 0.50896 0.01898 0.4417 0.0
C513 C 0.49658 0.02771 0.39962 0.0
C514 C 0.50624 0.0021 0.35797 0.0
C515 C 0.5283 0.96727 0.35718 0.0
C516 C 0.54072 0.95663 0.39813 0.0
H517 H 0.48782 0.18926 0.45247 0.0
C518 C 0.47328 0.15989 0.46963 0.0
H519 H 0.46218 0.05745 0.50503 0.0
H520 H 0.56307 0.95681 0.56935 0.0
H521 H 0.54684 0.00803 0.64072 0.0
H522 H 0.50891 0.07817 0.64137 0.0
H523 H 0.48692 0.097 0.57062 0.0
C524 C 0.4761 0.08586 0.48553 0.0
C525 C 0.49943 0.04641 0.48406 0.0
C526 C 0.51222 0.03666 0.52567 0.0
C527 C 0.53425 0.99727 0.52517 0.0
C528 C 0.54639 0.98703 0.56747 0.0
C529 C 0.53726 0.0161 0.6088 0.0
C530 C 0.5159 0.05551 0.60917 0.0
C531 C 0.50344 0.06578 0.56826 0.0
H532 H 0.05316 0.57156 0.03389 0.0
C533 C 0.04614 0.63 0.04161 0.0
H534 H 0.01639 0.69561 0.06277 0.0
H535 H 0.96567 0.38658 0.96785 0.0
H536 H 0.97878 0.44426 0.89573 0.0
H537 H 0.00448 0.5615 0.89531 0.0
H538 H 0.01756 0.62069 0.96699 0.0
C539 C 0.02365 0.63779 0.05445 0.0
C540 C 0.00751 0.56892 0.05476 0.0
C541 C -0.00065 0.53696 0.01238 0.0
C542 C 0.98372 0.4716 0.01261 0.0
C543 C 0.97681 0.43818 0.96981 0.0
C544 C 0.98433 0.47038 0.92807 0.0
C545 C -0.00114 0.5362 0.92784 0.0
C546 C 0.00633 0.56937 0.96934 0.0
H547 H 0.93034 0.44538 0.03116 0.0
C548 C 0.93608 0.38635 0.04107 0.0
H549 H 0.96419 0.31659 0.06605 0.0
H550 H 0.02007 0.61584 0.14168 0.0
H551 H 0.00641 0.55936 0.21407 0.0
H552 H 0.97842 0.4482 0.21448 0.0
H553 H 0.96393 0.39264 0.14253 0.0
C554 C 0.95821 0.37492 0.05538 0.0
C555 C 0.97547 0.44069 0.05519 0.0
C556 C 0.98375 0.47226 0.09749 0.0
C557 C -0.00022 0.53663 0.09726 0.0
C558 C 0.00778 0.5672 0.13997 0.0
C559 C 0.00011 0.53531 0.18172 0.0
C560 C 0.98435 0.47267 0.18194 0.0
C561 C 0.97618 0.44132 0.14043 0.0
H562 H 0.06971 0.45246 0.48871 0.0
C563 C 0.06462 0.39072 0.48536 0.0
H564 H 0.0366 0.31048 0.47652 0.0
H565 H 0.9655 0.5573 0.56563 0.0
H566 H 0.97161 0.46886 0.63023 0.0
H567 H 0.00117 0.36239 0.62625 0.0
H568 H 0.02502 0.34459 0.55768 0.0
C569 C 0.04203 0.37208 0.47802 0.0
C570 C 0.02334 0.43351 0.47866 0.0
C571 C 0.00897 0.44145 0.51836 0.0
C572 C 0.99149 0.50153 0.52015 0.0
C573 C 0.97841 0.51099 0.56145 0.0
C574 C 0.98187 0.46093 0.59909 0.0
C575 C 0.99854 0.40109 0.59688 0.0
C576 C 0.01207 0.39145 0.55722 0.0
H577 H 0.9406 0.54558 0.48632 0.0
C578 C 0.9474 0.60566 0.48672 0.0
H579 H 0.97753 0.67794 0.48349 0.0
H580 H 0.04685 0.43031 0.39632 0.0
H581 H 0.04016 0.51654 0.33047 0.0
H582 H 0.00949 0.61956 0.33292 0.0
H583 H 0.98527 0.63702 0.40118 0.0
C584 C 0.97063 0.61798 0.48389 0.0
C585 C 0.98789 0.55187 0.48146 0.0
C586 C 0.00199 0.54277 0.44142 0.0
C587 C 0.01973 0.48348 0.44 0.0
C588 C 0.03332 0.47499 0.39936 0.0
C589 C 0.02962 0.52391 0.36129 0.0
C590 C 0.01234 0.58192 0.36267 0.0
C591 C 0.99862 0.59146 0.40213 0.0
loop_
_geom_bond_atom_site_label_1
_geom_bond_atom_site_label_2
_geom_bond_distance
_geom_bond_site_symmetry_2
_ccdc_geom_bond_type
C0 O1 1.306 . S
C0 O3 1.160 . S
O1 C0 1.306 . S
O1 Cd2 2.228 . S
Cd2 O1 2.228 . S
Cd2 O6 2.273 1_554 S
Cd2 O10 2.277 . S
O3 C0 1.160 . S
O3 Cd4 2.203 . S
Cd4 O3 2.203 . S
Cd4 O6 2.411 1_554 S
Cd4 O7 2.333 1_554 S
Cd4 O8 2.352 . S
Cd4 O12 2.277 . S
Cd4 O13 2.355 1_554 S
C5 O10 1.209 . S
C5 O12 1.226 . S
O6 Cd2 2.273 1_556 S
O6 Cd4 2.411 1_556 S
O6 C9 1.320 . S
O7 Cd4 2.333 1_556 S
O7 C9 1.214 . S
O8 Cd4 2.352 . S
O8 C11 1.258 . S
C9 O6 1.320 . S
C9 O7 1.214 . S
O10 Cd2 2.277 . S
O10 C5 1.209 . S
C11 O8 1.258 . S
C11 O13 1.281 1_554 S
O12 Cd4 2.277 . S
O12 C5 1.226 . S
O13 Cd4 2.355 1_556 S
O13 C11 1.281 1_556 S
C14 O15 1.306 . S
C14 O17 1.160 . S
O15 C14 1.306 . S
O15 Cd16 2.228 . S
Cd16 O15 2.228 . S
Cd16 O20 2.273 1_554 S
Cd16 O24 2.277 . S
O17 C14 1.160 . S
O17 Cd18 2.203 . S
Cd18 O17 2.203 . S
Cd18 O20 2.411 1_554 S
Cd18 O21 2.333 1_554 S
Cd18 O22 2.352 . S
Cd18 O26 2.277 . S
Cd18 O27 2.355 1_554 S
C19 O24 1.209 . S
C19 O26 1.226 . S
O20 Cd16 2.273 1_556 S
O20 Cd18 2.411 1_556 S
O20 C23 1.320 . S
O21 Cd18 2.333 1_556 S
O21 C23 1.214 . S
O22 Cd18 2.352 . S
O22 C25 1.258 . S
C23 O20 1.320 . S
C23 O21 1.214 . S
O24 Cd16 2.277 . S
O24 C19 1.209 . S
C25 O22 1.258 . S
C25 O27 1.281 1_554 S
O26 Cd18 2.277 . S
O26 C19 1.226 . S
O27 Cd18 2.355 1_556 S
O27 C25 1.281 1_556 S
C28 O29 1.306 . S
C28 O31 1.160 . S
O29 C28 1.306 . S
O29 Cd30 2.228 . S
Cd30 O29 2.228 . S
Cd30 O34 2.273 . S
Cd30 O38 2.277 . S
O31 C28 1.160 . S
O31 Cd32 2.203 . S
Cd32 O31 2.203 . S
Cd32 O34 2.411 . S
Cd32 O35 2.333 . S
Cd32 O36 2.352 . S
Cd32 O40 2.277 . S
Cd32 O41 2.356 . S
C33 O38 1.209 . S
C33 O40 1.226 . S
O34 Cd30 2.273 . S
O34 Cd32 2.411 . S
O34 C37 1.320 . S
O35 Cd32 2.333 . S
O35 C37 1.214 . S
O36 Cd32 2.352 . S
O36 C39 1.258 . S
C37 O34 1.320 . S
C37 O35 1.214 . S
O38 Cd30 2.277 . S
O38 C33 1.209 . S
C39 O36 1.258 . S
C39 O41 1.282 . S
O40 Cd32 2.277 . S
O40 C33 1.226 . S
O41 Cd32 2.356 . S
O41 C39 1.282 . S
C42 O43 1.306 . S
C42 O45 1.160 . S
O43 C42 1.306 . S
O43 Cd44 2.228 . S
Cd44 O43 2.228 . S
Cd44 O48 2.273 . S
Cd44 O52 2.277 . S
O45 C42 1.160 . S
O45 Cd46 2.203 . S
Cd46 O45 2.203 . S
Cd46 O48 2.411 . S
Cd46 O49 2.333 . S
Cd46 O50 2.352 . S
Cd46 O54 2.277 . S
Cd46 O55 2.356 . S
C47 O52 1.209 . S
C47 O54 1.226 . S
O48 Cd44 2.273 . S
O48 Cd46 2.411 . S
O48 C51 1.320 . S
O49 Cd46 2.333 . S
O49 C51 1.214 . S
O50 Cd46 2.352 . S
O50 C53 1.258 . S
C51 O48 1.320 . S
C51 O49 1.214 . S
O52 Cd44 2.277 . S
O52 C47 1.209 . S
C53 O50 1.258 . S
C53 O55 1.282 . S
O54 Cd46 2.277 . S
O54 C47 1.226 . S
O55 Cd46 2.356 . S
O55 C53 1.282 . S
C56 O57 1.306 . S
C56 O59 1.160 . S
O57 C56 1.306 . S
O57 Cd58 2.228 . S
Cd58 O57 2.228 . S
Cd58 O62 2.273 1_554 S
Cd58 O66 2.277 . S
O59 C56 1.160 . S
O59 Cd60 2.203 . S
Cd60 O59 2.203 . S
Cd60 O62 2.411 1_554 S
Cd60 O63 2.333 1_554 S
Cd60 O64 2.352 . S
Cd60 O68 2.277 . S
Cd60 O69 2.355 1_554 S
C61 O66 1.209 . S
C61 O68 1.226 . S
O62 Cd58 2.273 1_556 S
O62 Cd60 2.411 1_556 S
O62 C65 1.320 . S
O63 Cd60 2.333 1_556 S
O63 C65 1.214 . S
O64 Cd60 2.352 . S
O64 C67 1.258 . S
C65 O62 1.320 . S
C65 O63 1.214 . S
O66 Cd58 2.277 . S
O66 C61 1.209 . S
C67 O64 1.258 . S
C67 O69 1.281 1_554 S
O68 Cd60 2.277 . S
O68 C61 1.226 . S
O69 Cd60 2.355 1_556 S
O69 C67 1.281 1_556 S
C70 O71 1.306 . S
C70 O73 1.160 . S
O71 C70 1.306 . S
O71 Cd72 2.228 . S
Cd72 O71 2.228 . S
Cd72 O76 2.273 1_554 S
Cd72 O80 2.277 . S
O73 C70 1.160 . S
O73 Cd74 2.203 . S
Cd74 O73 2.203 . S
Cd74 O76 2.411 1_554 S
Cd74 O77 2.333 1_554 S
Cd74 O78 2.352 . S
Cd74 O82 2.277 . S
Cd74 O83 2.355 1_554 S
C75 O80 1.209 . S
C75 O82 1.226 . S
O76 Cd72 2.273 1_556 S
O76 Cd74 2.411 1_556 S
O76 C79 1.320 . S
O77 Cd74 2.333 1_556 S
O77 C79 1.214 . S
O78 Cd74 2.352 . S
O78 C81 1.258 . S
C79 O76 1.320 . S
C79 O77 1.214 . S
O80 Cd72 2.277 . S
O80 C75 1.209 . S
C81 O78 1.258 . S
C81 O83 1.281 1_554 S
O82 Cd74 2.277 . S
O82 C75 1.226 . S
O83 Cd74 2.355 1_556 S
O83 C81 1.281 1_556 S
C84 O85 1.306 . S
C84 O87 1.160 . S
O85 C84 1.306 . S
O85 Cd86 2.228 . S
Cd86 O85 2.228 . S
Cd86 O90 2.273 . S
Cd86 O94 2.277 . S
O87 C84 1.160 . S
O87 Cd88 2.203 . S
Cd88 O87 2.203 . S
Cd88 O90 2.411 . S
Cd88 O91 2.333 . S
Cd88 O92 2.352 . S
Cd88 O96 2.277 . S
Cd88 O97 2.356 . S
C89 O94 1.209 . S
C89 O96 1.226 . S
O90 Cd86 2.273 . S
O90 Cd88 2.411 . S
O90 C93 1.320 . S
O91 Cd88 2.333 . S
O91 C93 1.214 . S
O92 Cd88 2.352 . S
O92 C95 1.258 . S
C93 O90 1.320 . S
C93 O91 1.214 . S
O94 Cd86 2.277 . S
O94 C89 1.209 . S
C95 O92 1.258 . S
C95 O97 1.282 . S
O96 Cd88 2.277 . S
O96 C89 1.226 . S
O97 Cd88 2.356 . S
O97 C95 1.282 . S
C98 O99 1.306 . S
C98 O101 1.160 . S
O99 C98 1.306 . S
O99 Cd100 2.228 . S
Cd100 O99 2.228 . S
Cd100 O104 2.273 . S
Cd100 O108 2.277 . S
O101 C98 1.160 . S
O101 Cd102 2.203 . S
Cd102 O101 2.203 . S
Cd102 O104 2.411 . S
Cd102 O105 2.333 . S
Cd102 O106 2.352 . S
Cd102 O110 2.277 . S
Cd102 O111 2.356 . S
C103 O108 1.209 . S
C103 O110 1.226 . S
O104 Cd100 2.273 . S
O104 Cd102 2.411 . S
O104 C107 1.320 . S
O105 Cd102 2.333 . S
O105 C107 1.214 . S
O106 Cd102 2.352 . S
O106 C109 1.258 . S
C107 O104 1.320 . S
C107 O105 1.214 . S
O108 Cd100 2.277 . S
O108 C103 1.209 . S
C109 O106 1.258 . S
C109 O111 1.282 . S
O110 Cd102 2.277 . S
O110 C103 1.226 . S
O111 Cd102 2.356 . S
O111 C109 1.282 . S
H112 C113 0.951 . S
C113 H112 0.951 . S
C113 C119 1.265 . S
H114 C119 0.950 . S
H115 C123 0.949 . S
H116 C124 0.950 . S
H117 C125 0.951 . S
H118 C126 0.951 . S
C119 C113 1.265 . S
C119 H114 0.950 . S
C119 C120 1.478 . S
C120 C119 1.478 . S
C120 C121 1.397 . S
C120 C137 1.394 1_554 S
C121 C120 1.397 . S
C121 C122 1.438 . S
C121 C126 1.429 . S
C122 C121 1.438 . S
C122 C123 1.428 . S
C122 C135 1.394 . S
C123 H115 0.949 . S
C123 C122 1.428 . S
C123 C124 1.345 . S
C124 H116 0.950 . S
C124 C123 1.345 . S
C124 C125 1.424 . S
C125 H117 0.951 . S
C125 C124 1.424 . S
C125 C126 1.347 . S
C126 H118 0.951 . S
C126 C121 1.429 . S
C126 C125 1.347 . S
H127 C128 0.951 . S
C128 H127 0.951 . S
C128 C134 1.265 . S
H129 C134 0.950 . S
H130 C138 0.949 . S
H131 C139 0.950 . S
H132 C140 0.951 . S
H133 C141 0.951 . S
C134 C128 1.265 . S
C134 H129 0.950 . S
C134 C135 1.478 . S
C135 C122 1.394 . S
C135 C134 1.478 . S
C135 C136 1.397 1_554 S
C136 C135 1.397 1_556 S
C136 C137 1.438 . S
C136 C141 1.429 . S
C137 C120 1.394 1_556 S
C137 C136 1.438 . S
C137 C138 1.428 . S
C138 H130 0.949 . S
C138 C137 1.428 . S
C138 C139 1.345 . S
C139 H131 0.950 . S
C139 C138 1.345 . S
C139 C140 1.424 . S
C140 H132 0.951 . S
C140 C139 1.424 . S
C140 C141 1.347 . S
C141 H133 0.951 . S
C141 C136 1.429 . S
C141 C140 1.347 . S
H142 C143 0.951 . S
C143 H142 0.951 . S
C143 C149 1.265 . S
H144 C149 0.950 . S
H145 C153 0.949 . S
H146 C154 0.950 . S
H147 C155 0.951 . S
H148 C156 0.951 . S
C149 C143 1.265 . S
C149 H144 0.950 . S
C149 C150 1.478 . S
C150 C149 1.478 . S
C150 C151 1.397 . S
C150 C167 1.394 1_554 S
C151 C150 1.397 . S
C151 C152 1.438 . S
C151 C156 1.429 . S
C152 C151 1.438 . S
C152 C153 1.428 . S
C152 C165 1.394 . S
C153 H145 0.949 . S
C153 C152 1.428 . S
C153 C154 1.345 . S
C154 H146 0.950 . S
C154 C153 1.345 . S
C154 C155 1.424 . S
C155 H147 0.951 . S
C155 C154 1.424 . S
C155 C156 1.347 . S
C156 H148 0.951 . S
C156 C151 1.429 . S
C156 C155 1.347 . S
H157 C158 0.951 . S
C158 H157 0.951 . S
C158 C164 1.265 . S
H159 C164 0.946 1_556 S
H160 C168 0.949 . S
H161 C169 0.950 . S
H162 C170 0.951 . S
H163 C171 0.951 . S
C164 C158 1.265 . S
C164 H159 0.946 1_554 S
C164 C165 1.478 . S
C165 C152 1.394 . S
C165 C164 1.478 . S
C165 C166 1.397 1_554 S
C166 C165 1.397 1_556 S
C166 C167 1.438 . S
C166 C171 1.429 . S
C167 C150 1.394 1_556 S
C167 C166 1.438 . S
C167 C168 1.428 . S
C168 H160 0.949 . S
C168 C167 1.428 . S
C168 C169 1.345 . S
C169 H161 0.950 . S
C169 C168 1.345 . S
C169 C170 1.424 . S
C170 H162 0.951 . S
C170 C169 1.424 . S
C170 C171 1.347 . S
C171 H163 0.951 . S
C171 C166 1.429 . S
C171 C170 1.347 . S
H172 C173 0.951 . S
C173 H172 0.951 . S
C173 C179 1.265 . S
H174 C179 0.950 . S
H175 C183 0.949 . S
H176 C184 0.950 . S
H177 C185 0.951 . S
H178 C186 0.951 . S
C179 C173 1.265 . S
C179 H174 0.950 . S
C179 C180 1.478 . S
C180 C179 1.478 . S
C180 C181 1.397 . S
C180 C197 1.394 . S
C181 C180 1.397 . S
C181 C182 1.438 . S
C181 C186 1.429 . S
C182 C181 1.438 . S
C182 C183 1.428 . S
C182 C195 1.394 . S
C183 H175 0.949 . S
C183 C182 1.428 . S
C183 C184 1.345 . S
C184 H176 0.950 . S
C184 C183 1.345 . S
C184 C185 1.424 . S
C185 H177 0.951 . S
C185 C184 1.424 . S
C185 C186 1.347 . S
C186 H178 0.951 . S
C186 C181 1.429 . S
C186 C185 1.347 . S
H187 C188 0.951 . S
C188 H187 0.951 . S
C188 C194 1.265 . S
H189 C194 0.950 . S
H190 C198 0.949 . S
H191 C199 0.950 . S
H192 C200 0.951 . S
H193 C201 0.951 . S
C194 C188 1.265 . S
C194 H189 0.950 . S
C194 C195 1.478 . S
C195 C182 1.394 . S
C195 C194 1.478 . S
C195 C196 1.397 . S
C196 C195 1.397 . S
C196 C197 1.438 . S
C196 C201 1.429 . S
C197 C180 1.394 . S
C197 C196 1.438 . S
C197 C198 1.428 . S
C198 H190 0.949 . S
C198 C197 1.428 . S
C198 C199 1.345 . S
C199 H191 0.950 . S
C199 C198 1.345 . S
C199 C200 1.424 . S
C200 H192 0.951 . S
C200 C199 1.424 . S
C200 C201 1.347 . S
C201 H193 0.951 . S
C201 C196 1.429 . S
C201 C200 1.347 . S
H202 C203 0.951 . S
C203 H202 0.951 . S
C203 C209 1.265 . S
H204 C209 0.950 . S
H205 C213 0.949 . S
H206 C214 0.950 . S
H207 C215 0.951 . S
H208 C216 0.951 . S
C209 C203 1.265 . S
C209 H204 0.950 . S
C209 C210 1.478 . S
C210 C209 1.478 . S
C210 C211 1.397 . S
C210 C227 1.394 . S
C211 C210 1.397 . S
C211 C212 1.438 . S
C211 C216 1.429 . S
C212 C211 1.438 . S
C212 C213 1.428 . S
C212 C225 1.394 . S
C213 H205 0.949 . S
C213 C212 1.428 . S
C213 C214 1.345 . S
C214 H206 0.950 . S
C214 C213 1.345 . S
C214 C215 1.424 . S
C215 H207 0.951 . S
C215 C214 1.424 . S
C215 C216 1.347 . S
C216 H208 0.951 . S
C216 C211 1.429 . S
C216 C215 1.347 . S
H217 C218 0.951 . S
C218 H217 0.951 . S
C218 C224 1.265 . S
H219 C224 0.950 . S
H220 C228 0.949 . S
H221 C229 0.950 . S
H222 C230 0.951 . S
H223 C231 0.951 . S
C224 C218 1.265 . S
C224 H219 0.950 . S
C224 C225 1.478 . S
C225 C212 1.394 . S
C225 C224 1.478 . S
C225 C226 1.397 . S
C226 C225 1.397 . S
C226 C227 1.438 . S
C226 C231 1.429 . S
C227 C210 1.394 . S
C227 C226 1.438 . S
C227 C228 1.428 . S
C228 H220 0.949 . S
C228 C227 1.428 . S
C228 C229 1.345 . S
C229 H221 0.950 . S
C229 C228 1.345 . S
C229 C230 1.424 . S
C230 H222 0.951 . S
C230 C229 1.424 . S
C230 C231 1.347 . S
C231 H223 0.951 . S
C231 C226 1.429 . S
C231 C230 1.347 . S
H232 C233 0.951 . S
C233 H232 0.951 . S
C233 C239 1.265 . S
H234 C239 0.950 . S
H235 C243 0.949 . S
H236 C244 0.950 . S
H237 C245 0.951 . S
H238 C246 0.951 . S
C239 C233 1.265 . S
C239 H234 0.950 . S
C239 C240 1.478 . S
C240 C239 1.478 . S
C240 C241 1.397 . S
C240 C257 1.394 . S
C241 C240 1.397 . S
C241 C242 1.438 . S
C241 C246 1.429 . S
C242 C241 1.438 . S
C242 C243 1.428 . S
C242 C255 1.394 . S
C243 H235 0.949 . S
C243 C242 1.428 . S
C243 C244 1.345 . S
C244 H236 0.950 . S
C244 C243 1.345 . S
C244 C245 1.424 . S
C245 H237 0.951 . S
C245 C244 1.424 . S
C245 C246 1.347 . S
C246 H238 0.951 . S
C246 C241 1.429 . S
C246 C245 1.347 . S
H247 C248 0.951 . S
C248 H247 0.951 . S
C248 C254 1.265 . S
H249 C254 0.950 . S
H250 C258 0.949 . S
H251 C259 0.950 . S
H252 C260 0.951 . S
H253 C261 0.951 . S
C254 C248 1.265 . S
C254 H249 0.950 . S
C254 C255 1.478 . S
C255 C242 1.394 . S
C255 C254 1.478 . S
C255 C256 1.397 . S
C256 C255 1.397 . S
C256 C257 1.438 . S
C256 C261 1.429 . S
C257 C240 1.394 . S
C257 C256 1.438 . S
C257 C258 1.428 . S
C258 H250 0.949 . S
C258 C257 1.428 . S
C258 C259 1.345 . S
C259 H251 0.950 . S
C259 C258 1.345 . S
C259 C260 1.424 . S
C260 H252 0.951 . S
C260 C259 1.424 . S
C260 C261 1.347 . S
C261 H253 0.951 . S
C261 C256 1.429 . S
C261 C260 1.347 . S
H262 C263 0.951 . S
C263 H262 0.951 . S
C263 C269 1.265 . S
H264 C269 0.950 . S
H265 C273 0.949 . S
H266 C274 0.950 . S
H267 C275 0.951 . S
H268 C276 0.951 . S
C269 C263 1.265 . S
C269 H264 0.950 . S
C269 C270 1.478 . S
C270 C269 1.478 . S
C270 C271 1.397 . S
C270 C287 1.394 . S
C271 C270 1.397 . S
C271 C272 1.438 . S
C271 C276 1.429 . S
C272 C271 1.438 . S
C272 C273 1.428 . S
C272 C285 1.394 . S
C273 H265 0.949 . S
C273 C272 1.428 . S
C273 C274 1.345 . S
C274 H266 0.950 . S
C274 C273 1.345 . S
C274 C275 1.424 . S
C275 H267 0.951 . S
C275 C274 1.424 . S
C275 C276 1.347 . S
C276 H268 0.951 . S
C276 C271 1.429 . S
C276 C275 1.347 . S
H277 C278 0.951 . S
C278 H277 0.951 . S
C278 C284 1.265 . S
H279 C284 0.950 . S
H280 C288 0.949 . S
H281 C289 0.950 . S
H282 C290 0.951 . S
H283 C291 0.951 . S
C284 C278 1.265 . S
C284 H279 0.950 . S
C284 C285 1.478 . S
C285 C272 1.394 . S
C285 C284 1.478 . S
C285 C286 1.397 . S
C286 C285 1.397 . S
C286 C287 1.438 . S
C286 C291 1.429 . S
C287 C270 1.394 . S
C287 C286 1.438 . S
C287 C288 1.428 . S
C288 H280 0.949 . S
C288 C287 1.428 . S
C288 C289 1.345 . S
C289 H281 0.950 . S
C289 C288 1.345 . S
C289 C290 1.424 . S
C290 H282 0.951 . S
C290 C289 1.424 . S
C290 C291 1.347 . S
C291 H283 0.951 . S
C291 C286 1.429 . S
C291 C290 1.347 . S
H292 C293 0.951 . S
C293 H292 0.951 . S
C293 C299 1.265 . S
H294 C299 0.950 . S
H295 C303 0.949 . S
H296 C304 0.950 . S
H297 C305 0.951 . S
H298 C306 0.951 . S
C299 C293 1.265 . S
C299 H294 0.950 . S
C299 C300 1.478 . S
C300 C299 1.478 . S
C300 C301 1.397 . S
C300 C317 1.394 . S
C301 C300 1.397 . S
C301 C302 1.438 . S
C301 C306 1.429 . S
C302 C301 1.438 . S
C302 C303 1.428 . S
C302 C315 1.394 . S
C303 H295 0.949 . S
C303 C302 1.428 . S
C303 C304 1.345 . S
C304 H296 0.950 . S
C304 C303 1.345 . S
C304 C305 1.424 . S
C305 H297 0.951 . S
C305 C304 1.424 . S
C305 C306 1.347 . S
C306 H298 0.951 . S
C306 C301 1.429 . S
C306 C305 1.347 . S
H307 C308 0.951 . S
C308 H307 0.951 . S
C308 C314 1.265 . S
H309 C314 0.950 . S
H310 C318 0.949 . S
H311 C319 0.950 . S
H312 C320 0.951 . S
H313 C321 0.951 . S
C314 C308 1.265 . S
C314 H309 0.950 . S
C314 C315 1.478 . S
C315 C302 1.394 . S
C315 C314 1.478 . S
C315 C316 1.397 . S
C316 C315 1.397 . S
C316 C317 1.438 . S
C316 C321 1.429 . S
C317 C300 1.394 . S
C317 C316 1.438 . S
C317 C318 1.428 . S
C318 H310 0.949 . S
C318 C317 1.428 . S
C318 C319 1.345 . S
C319 H311 0.950 . S
C319 C318 1.345 . S
C319 C320 1.424 . S
C320 H312 0.951 . S
C320 C319 1.424 . S
C320 C321 1.347 . S
C321 H313 0.951 . S
C321 C316 1.429 . S
C321 C320 1.347 . S
H322 C323 0.951 . S
C323 H322 0.951 . S
C323 C329 1.265 . S
H324 C329 0.950 . S
H325 C333 0.949 . S
H326 C334 0.950 . S
H327 C335 0.951 . S
H328 C336 0.951 . S
C329 C323 1.265 . S
C329 H324 0.950 . S
C329 C330 1.478 . S
C330 C329 1.478 . S
C330 C331 1.397 . S
C330 C347 1.394 . S
C331 C330 1.397 . S
C331 C332 1.438 . S
C331 C336 1.429 . S
C332 C331 1.438 . S
C332 C333 1.428 . S
C332 C345 1.394 . S
C333 H325 0.949 . S
C333 C332 1.428 . S
C333 C334 1.345 . S
C334 H326 0.950 . S
C334 C333 1.345 . S
C334 C335 1.424 . S
C335 H327 0.951 . S
C335 C334 1.424 . S
C335 C336 1.347 . S
C336 H328 0.951 . S
C336 C331 1.429 . S
C336 C335 1.347 . S
H337 C338 0.951 . S
C338 H337 0.951 . S
C338 C344 1.265 . S
H339 C344 0.950 . S
H340 C348 0.949 . S
H341 C349 0.950 . S
H342 C350 0.951 . S
H343 C351 0.951 . S
C344 C338 1.265 . S
C344 H339 0.950 . S
C344 C345 1.478 . S
C345 C332 1.394 . S
C345 C344 1.478 . S
C345 C346 1.397 . S
C346 C345 1.397 . S
C346 C347 1.438 . S
C346 C351 1.429 . S
C347 C330 1.394 . S
C347 C346 1.438 . S
C347 C348 1.428 . S
C348 H340 0.949 . S
C348 C347 1.428 . S
C348 C349 1.345 . S
C349 H341 0.950 . S
C349 C348 1.345 . S
C349 C350 1.424 . S
C350 H342 0.951 . S
C350 C349 1.424 . S
C350 C351 1.347 . S
C351 H343 0.951 . S
C351 C346 1.429 . S
C351 C350 1.347 . S
H352 C353 0.951 . S
C353 H352 0.951 . S
C353 C359 1.265 . S
H354 C359 0.950 . S
H355 C363 0.949 . S
H356 C364 0.950 . S
H357 C365 0.951 . S
H358 C366 0.951 . S
C359 C353 1.265 . S
C359 H354 0.950 . S
C359 C360 1.478 . S
C360 C359 1.478 . S
C360 C361 1.397 1_565 S
C360 C377 1.394 . S
C361 C360 1.397 1_545 S
C361 C362 1.438 . S
C361 C366 1.429 . S
C362 C361 1.438 . S
C362 C363 1.428 . S
C362 C375 1.394 . S
C363 H355 0.949 . S
C363 C362 1.428 . S
C363 C364 1.345 . S
C364 H356 0.950 . S
C364 C363 1.345 . S
C364 C365 1.424 . S
C365 H357 0.951 . S
C365 C364 1.424 . S
C365 C366 1.347 . S
C366 H358 0.951 . S
C366 C361 1.429 . S
C366 C365 1.347 . S
H367 C368 0.951 . S
C368 H367 0.951 . S
C368 C374 1.265 . S
H369 C374 0.950 . S
H370 C378 0.949 . S
H371 C379 0.950 . S
H372 C380 0.951 . S
H373 C381 0.951 . S
C374 C368 1.265 . S
C374 H369 0.950 . S
C374 C375 1.478 . S
C375 C362 1.394 . S
C375 C374 1.478 . S
C375 C376 1.397 1_545 S
C376 C375 1.397 1_565 S
C376 C377 1.438 . S
C376 C381 1.429 . S
C377 C360 1.394 . S
C377 C376 1.438 . S
C377 C378 1.428 . S
C378 H370 0.949 . S
C378 C377 1.428 . S
C378 C379 1.345 . S
C379 H371 0.950 . S
C379 C378 1.345 . S
C379 C380 1.424 . S
C380 H372 0.951 . S
C380 C379 1.424 . S
C380 C381 1.347 . S
C381 H373 0.951 . S
C381 C376 1.429 . S
C381 C380 1.347 . S
H382 C383 0.951 . S
C383 H382 0.951 . S
C383 C389 1.265 . S
H384 C389 0.950 . S
H385 C393 0.949 . S
H386 C394 0.950 . S
H387 C395 0.951 . S
H388 C396 0.951 . S
C389 C383 1.265 . S
C389 H384 0.950 . S
C389 C390 1.478 . S
C390 C389 1.478 . S
C390 C391 1.397 . S
C390 C407 1.394 1_565 S
C391 C390 1.397 . S
C391 C392 1.438 . S
C391 C396 1.429 . S
C392 C391 1.438 . S
C392 C393 1.428 . S
C392 C405 1.394 1_565 S
C393 H385 0.949 . S
C393 C392 1.428 . S
C393 C394 1.345 . S
C394 H386 0.950 . S
C394 C393 1.345 . S
C394 C395 1.424 . S
C395 H387 0.951 . S
C395 C394 1.424 . S
C395 C396 1.347 . S
C396 H388 0.951 . S
C396 C391 1.429 . S
C396 C395 1.347 . S
H397 C398 0.951 . S
C398 H397 0.951 . S
C398 C404 1.265 . S
H399 C404 0.950 . S
H400 C408 0.949 . S
H401 C409 0.950 . S
H402 C410 0.951 . S
H403 C411 0.951 . S
C404 C398 1.265 . S
C404 H399 0.950 . S
C404 C405 1.478 . S
C405 C392 1.394 1_545 S
C405 C404 1.478 . S
C405 C406 1.397 . S
C406 C405 1.397 . S
C406 C407 1.438 . S
C406 C411 1.429 . S
C407 C390 1.394 1_545 S
C407 C406 1.438 . S
C407 C408 1.428 . S
C408 H400 0.949 . S
C408 C407 1.428 . S
C408 C409 1.345 . S
C409 H401 0.950 . S
C409 C408 1.345 . S
C409 C410 1.424 . S
C410 H402 0.951 . S
C410 C409 1.424 . S
C410 C411 1.347 . S
C411 H403 0.951 . S
C411 C406 1.429 . S
C411 C410 1.347 . S
H412 C413 0.951 . S
C413 H412 0.951 . S
C413 C419 1.265 . S
H414 C419 0.950 . S
H415 C423 0.949 . S
H416 C424 0.950 . S
H417 C425 0.951 . S
H418 C426 0.951 . S
C419 C413 1.265 . S
C419 H414 0.950 . S
C419 C420 1.478 . S
C420 C419 1.478 . S
C420 C421 1.397 1_565 S
C420 C437 1.394 . S
C421 C420 1.397 1_545 S
C421 C422 1.438 . S
C421 C426 1.429 . S
C422 C421 1.438 . S
C422 C423 1.428 . S
C422 C435 1.394 . S
C423 H415 0.949 . S
C423 C422 1.428 . S
C423 C424 1.345 . S
C424 H416 0.950 . S
C424 C423 1.345 . S
C424 C425 1.424 . S
C425 H417 0.951 . S
C425 C424 1.424 . S
C425 C426 1.347 . S
C426 H418 0.951 . S
C426 C421 1.429 . S
C426 C425 1.347 . S
H427 C428 0.951 . S
C428 H427 0.951 . S
C428 C434 1.265 . S
H429 C434 0.950 . S
H430 C438 0.949 . S
H431 C439 0.950 . S
H432 C440 0.951 . S
H433 C441 0.951 . S
C434 C428 1.265 . S
C434 H429 0.950 . S
C434 C435 1.478 . S
C435 C422 1.394 . S
C435 C434 1.478 . S
C435 C436 1.397 1_545 S
C436 C435 1.397 1_565 S
C436 C437 1.438 . S
C436 C441 1.429 . S
C437 C420 1.394 . S
C437 C436 1.438 . S
C437 C438 1.428 . S
C438 H430 0.949 . S
C438 C437 1.428 . S
C438 C439 1.345 . S
C439 H431 0.950 . S
C439 C438 1.345 . S
C439 C440 1.424 . S
C440 H432 0.951 . S
C440 C439 1.424 . S
C440 C441 1.347 . S
C441 H433 0.951 . S
C441 C436 1.429 . S
C441 C440 1.347 . S
H442 C443 0.951 . S
C443 H442 0.951 . S
C443 C449 1.265 . S
H444 C449 0.950 . S
H445 C453 0.949 . S
H446 C454 0.950 . S
H447 C455 0.951 . S
H448 C456 0.951 . S
C449 C443 1.265 . S
C449 H444 0.950 . S
C449 C450 1.478 . S
C450 C449 1.478 . S
C450 C451 1.397 . S
C450 C467 1.394 1_565 S
C451 C450 1.397 . S
C451 C452 1.438 . S
C451 C456 1.429 . S
C452 C451 1.438 . S
C452 C453 1.428 . S
C452 C465 1.394 1_565 S
C453 H445 0.949 . S
C453 C452 1.428 . S
C453 C454 1.345 . S
C454 H446 0.950 . S
C454 C453 1.345 . S
C454 C455 1.424 . S
C455 H447 0.951 . S
C455 C454 1.424 . S
C455 C456 1.347 . S
C456 H448 0.951 . S
C456 C451 1.429 . S
C456 C455 1.347 . S
H457 C458 0.951 . S
C458 H457 0.951 . S
C458 C464 1.265 . S
H459 C464 0.950 . S
H460 C468 0.949 . S
H461 C469 0.950 . S
H462 C470 0.951 . S
H463 C471 0.951 . S
C464 C458 1.265 . S
C464 H459 0.950 . S
C464 C465 1.478 . S
C465 C452 1.394 1_545 S
C465 C464 1.478 . S
C465 C466 1.397 . S
C466 C465 1.397 . S
C466 C467 1.438 . S
C466 C471 1.429 . S
C467 C450 1.394 1_545 S
C467 C466 1.438 . S
C467 C468 1.428 . S
C468 H460 0.949 . S
C468 C467 1.428 . S
C468 C469 1.345 . S
C469 H461 0.950 . S
C469 C468 1.345 . S
C469 C470 1.424 . S
C470 H462 0.951 . S
C470 C469 1.424 . S
C470 C471 1.347 . S
C471 H463 0.951 . S
C471 C466 1.429 . S
C471 C470 1.347 . S
H472 C473 0.951 . S
C473 H472 0.951 . S
C473 C479 1.265 . S
H474 C479 0.950 . S
H475 C483 0.949 . S
H476 C484 0.950 . S
H477 C485 0.951 . S
H478 C486 0.951 1_565 S
C479 C473 1.265 . S
C479 H474 0.950 . S
C479 C480 1.478 . S
C480 C479 1.478 . S
C480 C481 1.397 1_565 S
C480 C497 1.394 1_554 S
C481 C480 1.397 1_545 S
C481 C482 1.438 . S
C481 C486 1.429 . S
C482 C481 1.438 . S
C482 C483 1.428 . S
C482 C495 1.394 . S
C483 H475 0.949 . S
C483 C482 1.428 . S
C483 C484 1.345 . S
C484 H476 0.950 . S
C484 C483 1.345 . S
C484 C485 1.424 . S
C485 H477 0.951 . S
C485 C484 1.424 . S
C485 C486 1.347 . S
C486 H478 0.951 1_545 S
C486 C481 1.429 . S
C486 C485 1.347 . S
H487 C488 0.951 . S
C488 H487 0.951 . S
C488 C494 1.265 . S
H489 C494 0.950 . S
H490 C498 0.949 . S
H491 C499 0.950 . S
H492 C500 0.951 . S
H493 C501 0.951 1_545 S
C494 C488 1.265 . S
C494 H489 0.950 . S
C494 C495 1.478 . S
C495 C482 1.394 . S
C495 C494 1.478 . S
C495 C496 1.397 1_544 S
C496 C495 1.397 1_566 S
C496 C497 1.438 . S
C496 C501 1.429 . S
C497 C480 1.394 1_556 S
C497 C496 1.438 . S
C497 C498 1.428 . S
C498 H490 0.949 . S
C498 C497 1.428 . S
C498 C499 1.345 . S
C499 H491 0.950 . S
C499 C498 1.345 . S
C499 C500 1.424 . S
C500 H492 0.951 . S
C500 C499 1.424 . S
C500 C501 1.347 . S
C501 H493 0.951 1_565 S
C501 C496 1.429 . S
C501 C500 1.347 . S
H502 C503 0.951 . S
C503 H502 0.951 . S
C503 C509 1.265 . S
H504 C509 0.950 . S
H505 C513 0.949 . S
H506 C514 0.950 . S
H507 C515 0.951 . S
H508 C516 0.951 1_565 S
C509 C503 1.265 . S
C509 H504 0.950 . S
C509 C510 1.478 . S
C510 C509 1.478 . S
C510 C511 1.397 1_565 S
C510 C527 1.394 . S
C511 C510 1.397 1_545 S
C511 C512 1.438 . S
C511 C516 1.429 . S
C512 C511 1.438 . S
C512 C513 1.428 . S
C512 C525 1.394 . S
C513 H505 0.949 . S
C513 C512 1.428 . S
C513 C514 1.345 . S
C514 H506 0.950 . S
C514 C513 1.345 . S
C514 C515 1.424 . S
C515 H507 0.951 . S
C515 C514 1.424 . S
C515 C516 1.347 . S
C516 H508 0.951 1_545 S
C516 C511 1.429 . S
C516 C515 1.347 . S
H517 C518 0.951 . S
C518 H517 0.951 . S
C518 C524 1.265 . S
H519 C524 0.950 . S
H520 C528 0.949 . S
H521 C529 0.950 . S
H522 C530 0.951 . S
H523 C531 0.951 1_545 S
C524 C518 1.265 . S
C524 H519 0.950 . S
C524 C525 1.478 . S
C525 C512 1.394 . S
C525 C524 1.478 . S
C525 C526 1.397 1_545 S
C526 C525 1.397 1_565 S
C526 C527 1.438 . S
C526 C531 1.429 . S
C527 C510 1.394 . S
C527 C526 1.438 . S
C527 C528 1.428 . S
C528 H520 0.949 . S
C528 C527 1.428 . S
C528 C529 1.345 . S
C529 H521 0.950 . S
C529 C528 1.345 . S
C529 C530 1.424 . S
C530 H522 0.951 . S
C530 C529 1.424 . S
C530 C531 1.347 . S
C531 H523 0.951 1_565 S
C531 C526 1.429 . S
C531 C530 1.347 . S
H532 C533 0.951 . S
C533 H532 0.951 . S
C533 C539 1.265 . S
H534 C539 0.950 1_556 S
H535 C543 0.949 . S
H536 C544 0.950 . S
H537 C545 0.951 . S
H538 C546 0.951 . S
C539 C533 1.265 . S
C539 H534 0.950 1_554 S
C539 C540 1.478 . S
C540 C539 1.478 . S
C540 C541 1.397 1_554 S
C540 C557 1.394 . S
C541 C540 1.397 1_556 S
C541 C542 1.438 1_455 S
C541 C546 1.429 . S
C542 C541 1.438 1_655 S
C542 C543 1.428 . S
C542 C555 1.394 1_556 S
C543 H535 0.949 . S
C543 C542 1.428 . S
C543 C544 1.345 . S
C544 H536 0.950 . S
C544 C543 1.345 . S
C544 C545 1.424 . S
C545 H537 0.951 . S
C545 C544 1.424 . S
C545 C546 1.347 1_655 S
C546 H538 0.951 . S
C546 C541 1.429 . S
C546 C545 1.347 1_455 S
H547 C548 0.951 . S
C548 H547 0.951 . S
C548 C554 1.265 . S
H549 C554 0.950 . S
H550 C558 0.949 . S
H551 C559 0.950 . S
H552 C560 0.951 . S
H553 C561 0.951 . S
C554 C548 1.265 . S
C554 H549 0.950 . S
C554 C555 1.478 . S
C555 C542 1.394 1_554 S
C555 C554 1.478 . S
C555 C556 1.397 . S
C556 C555 1.397 . S
C556 C557 1.438 1_655 S
C556 C561 1.429 . S
C557 C540 1.394 . S
C557 C556 1.438 1_455 S
C557 C558 1.428 . S
C558 H550 0.949 . S
C558 C557 1.428 . S
C558 C559 1.345 . S
C559 H551 0.950 . S
C559 C558 1.345 . S
C559 C560 1.424 . S
C560 H552 0.951 . S
C560 C559 1.424 . S
C560 C561 1.347 1_455 S
C561 H553 0.951 . S
C561 C556 1.429 . S
C561 C560 1.347 1_655 S
H562 C563 0.951 . S
C563 H562 0.951 . S
C563 C569 1.265 . S
H564 C569 0.950 . S
H565 C573 0.949 . S
H566 C574 0.950 . S
H567 C575 0.951 . S
H568 C576 0.951 1_455 S
C569 C563 1.265 . S
C569 H564 0.950 . S
C569 C570 1.478 . S
C570 C569 1.478 . S
C570 C571 1.397 1_455 S
C570 C587 1.394 . S
C571 C570 1.397 1_655 S
C571 C572 1.438 . S
C571 C576 1.429 . S
C572 C571 1.438 . S
C572 C573 1.428 . S
C572 C585 1.394 . S
C573 H565 0.949 . S
C573 C572 1.428 . S
C573 C574 1.345 . S
C574 H566 0.950 . S
C574 C573 1.345 . S
C574 C575 1.424 . S
C575 H567 0.951 . S
C575 C574 1.424 . S
C575 C576 1.347 . S
C576 H568 0.951 1_655 S
C576 C571 1.429 . S
C576 C575 1.347 . S
H577 C578 0.951 . S
C578 H577 0.951 . S
C578 C584 1.265 . S
H579 C584 0.950 . S
H580 C588 0.949 . S
H581 C589 0.950 . S
H582 C590 0.951 . S
H583 C591 0.951 1_655 S
C584 C578 1.265 . S
C584 H579 0.950 . S
C584 C585 1.478 . S
C585 C572 1.394 . S
C585 C584 1.478 . S
C585 C586 1.397 1_655 S
C586 C585 1.397 1_455 S
C586 C587 1.438 . S
C586 C591 1.429 . S
C587 C570 1.394 . S
C587 C586 1.438 . S
C587 C588 1.428 . S
C588 H580 0.949 . S
C588 C587 1.428 . S
C588 C589 1.345 . S
C589 H581 0.950 . S
C589 C588 1.345 . S
C589 C590 1.424 . S
C590 H582 0.951 . S
C590 C589 1.424 . S
C590 C591 1.347 . S
C591 H583 0.951 1_455 S
C591 C586 1.429 . S
C591 C590 1.347 . S
C113 C75 1.497 . S
C128 C5 1.497 . S
C143 C61 1.497 . S
C158 C19 1.497 . S
C173 C103 1.481 . S
C188 C33 1.481 . S
C203 C89 1.498 . S
C218 C47 1.498 . S
C233 C0 1.384 . S
C248 C28 1.422 . S
C263 C14 1.384 . S
C278 C42 1.420 . S
C293 C23 1.419 . S
C308 C51 1.415 . S
C323 C9 1.408 . S
C338 C37 1.403 . S
C353 C56 1.421 . S
C368 C84 1.384 . S
C383 C98 1.384 . S
C398 C70 1.418 . S
C413 C107 1.404 . S
C428 C79 1.409 . S
C443 C65 1.403 . S
C458 C93 1.398 . S
C473 C25 1.500 . S
C488 C11 1.500 . S
C503 C39 1.499 . S
C518 C53 1.500 . S
C533 C67 1.476 . S
C548 C81 1.475 . S
C563 C95 1.474 . S
C578 C109 1.476 . S
