# Generated by pormake.
# Topology nbo, (4)-cn, num edge types: 1
# Building blocks:
#     Node 0, Type 0, BuildingBlock: MUDLON_clean_sbu_0, # of connection points: 4
#     Node 1, Type 0, BuildingBlock: MUDLON_clean_sbu_0, # of connection points: 4
#     Node 2, Type 0, BuildingBlock: MUDLON_clean_sbu_0, # of connection points: 4
#     Node 3, Type 0, BuildingBlock: MUDLON_clean_sbu_0, # of connection points: 4
#     Node 4, Type 0, BuildingBlock: MUDLON_clean_sbu_0, # of connection points: 4
#     Node 5, Type 0, BuildingBlock: MUDLON_clean_sbu_0, # of connection points: 4
#     Edge 6, Type (0, 0), BuildingBlock: XUDNAN_clean_linker_2, # of connection points: 2
#     Edge 7, Type (0, 0), BuildingBlock: XUDNAN_clean_linker_2, # of connection points: 2
#     Edge 8, Type (0, 0), BuildingBlock: XUDNAN_clean_linker_2, # of connection points: 2
#     Edge 9, Type (0, 0), BuildingBlock: XUDNAN_clean_linker_2, # of connection points: 2
#     Edge 10, Type (0, 0), BuildingBlock: XUDNAN_clean_linker_2, # of connection points: 2
#     Edge 11, Type (0, 0), BuildingBlock: XUDNAN_clean_linker_2, # of connection points: 2
#     Edge 12, Type (0, 0), BuildingBlock: XUDNAN_clean_linker_2, # of connection points: 2
#     Edge 13, Type (0, 0), BuildingBlock: XUDNAN_clean_linker_2, # of connection points: 2
#     Edge 14, Type (0, 0), BuildingBlock: XUDNAN_clean_linker_2, # of connection points: 2
#     Edge 15, Type (0, 0), BuildingBlock: XUDNAN_clean_linker_2, # of connection points: 2
#     Edge 16, Type (0, 0), BuildingBlock: XUDNAN_clean_linker_2, # of connection points: 2
#     Edge 17, Type (0, 0), BuildingBlock: XUDNAN_clean_linker_2, # of connection points: 2
# Relax obj value: 0.000
# Max RMSD: 0.009
# Mean RMSD: 0.009
data_MOF--net-nbo--node1-MUDLON_clean_sbu_0--edge1-XUDNAN_clean_linker_2
_symmetry_space_group_name_H-M    P1
_symmetry_Int_Tables_number       1
_symmetry_cell_setting            triclinic
loop_
_symmetry_equiv_pos_as_xyz
'x, y, z'
_cell_length_a     30.52564
_cell_length_b     30.755731
_cell_length_c     30.772406
_cell_angle_alpha  91.199114
_cell_angle_beta   91.234474
_cell_angle_gamma 90.778191
loop_
_atom_site_label
_atom_site_type_symbol
_atom_site_fract_x
_atom_site_fract_y
_atom_site_fract_z
_atom_type_partial_charge
Mg0 Mg 0.08193 0.97034 0.5211 0.0
C1 C 0.10188 0.06504 0.49179 0.0
O2 O 0.1274 0.04247 0.46624 0.0
C3 C 0.08375 0.87641 0.48405 0.0
O4 O 0.07818 0.8993 0.44883 0.0
C5 C 0.97831 0.98004 0.5022 0.0
O6 O 0.99005 1.00089 0.46739 0.0
O7 O 1.00762 0.96501 0.52748 0.0
O8 O 0.0782 0.04499 0.51865 0.0
O9 O 0.1569 0.97464 0.52138 0.0
C10 C 0.18176 0.95681 0.49377 0.0
O11 O 0.16436 0.93516 0.46033 0.0
O12 O 0.08574 0.89606 0.52083 0.0
Mg13 Mg 0.52985 0.08538 0.0972 0.0
C14 C 0.56191 0.18467 0.10082 0.0
O15 O 0.59779 0.16738 0.11667 0.0
C16 C 0.54124 0.98071 0.08596 0.0
O17 O 0.56716 0.99036 0.05392 0.0
C18 C 0.54564 0.09292 0.99413 0.0
O19 O 0.57411 0.12344 1.0063 0.0
O20 O 0.52371 0.07349 0.0229 0.0
O21 O 0.53021 0.15975 0.08844 0.0
O22 O 0.53603 0.09664 0.1714 0.0
C23 C 0.57347 0.09703 0.19044 0.0
O24 O 0.60842 0.09014 0.16721 0.0
O25 O 0.52384 0.01134 0.10781 0.0
Mg26 Mg 0.96747 0.54302 0.97656 0.0
C27 C 0.07314 0.52683 0.97261 0.0
O28 O 0.0621 0.48699 0.96019 0.0
C29 C 0.87197 0.50576 0.95156 0.0
O30 O 0.89542 0.4746 0.93434 0.0
C31 C 0.97787 0.51262 0.88057 0.0
O32 O 0.98831 0.47722 0.90134 0.0
O33 O 0.96846 0.54665 0.90241 0.0
O34 O 0.04311 0.554 0.98108 0.0
O35 O 0.9658 0.5373 0.05092 0.0
C36 C 0.94121 0.5092 0.06847 0.0
O37 O 0.91645 0.48339 0.0435 0.0
O38 O 0.89164 0.53719 0.97169 0.0
Mg39 Mg 0.48965 0.58045 0.02933 0.0
C40 C 0.47949 0.66546 0.08249 0.0
O41 O 0.44344 0.64596 0.0949 0.0
C42 C 0.47999 0.49077 0.06798 0.0
O43 O 0.4441 0.49103 0.04376 0.0
C44 C 0.39608 0.55719 0.98534 0.0
O45 O 0.41461 0.525 0.96425 0.0
O46 O 0.4195 0.58237 0.01008 0.0
O47 O 0.50528 0.64491 0.05773 0.0
O48 O 0.54083 0.57208 0.98127 0.0
C49 C 0.55234 0.53418 0.96912 0.0
O50 O 0.52711 0.50076 0.97806 0.0
O51 O 0.503 0.52556 0.07186 0.0
Mg52 Mg 0.02535 0.47262 0.47373 0.0
C53 C 0.06449 0.56024 0.50223 0.0
O54 O 0.04066 0.55267 0.53633 0.0
C55 C 0.03673 0.37718 0.48296 0.0
O56 O 0.99546 0.38219 0.49299 0.0
C57 C 1.00664 0.49034 0.38128 0.0
O58 O 0.0473 0.50405 0.38727 0.0
O59 O 0.98654 0.47464 0.41338 0.0
O60 O 0.06728 0.53074 0.47279 0.0
O61 O 0.98839 0.47787 0.53338 0.0
C62 C 1.00664 0.46255 0.56723 0.0
O63 O 0.0438 0.44194 0.56328 0.0
O64 O 0.0593 0.41059 0.47319 0.0
Mg65 Mg 0.58064 0.04448 0.58643 0.0
C66 C 0.66298 0.01087 0.54632 0.0
O67 O 0.64525 0.03034 0.51282 0.0
C68 C 0.48724 0.01651 0.58331 0.0
O69 O 0.48686 0.05073 0.60959 0.0
C70 C 0.55388 0.09542 0.50679 0.0
O71 O 0.51638 0.07568 0.51373 0.0
O72 O 0.58446 0.09331 0.53553 0.0
O73 O 0.64197 1.00935 0.58157 0.0
O74 O 0.57317 0.06492 0.65485 0.0
C75 C 0.56213 0.03331 0.67863 0.0
O76 O 0.55797 0.99441 0.66041 0.0
O77 O 0.52374 1.00393 0.56873 0.0
H78 H 0.0392 0.12104 0.522 0.0
H79 H 0.16242 0.11759 0.4543 0.0
H80 H 0.16085 0.19734 0.44728 0.0
H81 H 0.99021 0.20207 0.45632 0.0
H82 H 0.96208 0.22809 0.50049 0.0
H83 H 0.97419 0.17104 0.50258 0.0
H84 H 0.01506 0.18379 0.57653 0.0
H85 H 1.00306 0.24092 0.57466 0.0
H86 H 0.05896 0.22355 0.58086 0.0
H87 H 0.14551 0.27768 0.44678 0.0
H88 H 0.1155 0.35197 0.44981 0.0
H89 H 1.00113 0.30265 0.51537 0.0
C90 C 0.06606 0.13713 0.50611 0.0
C91 C 0.10105 0.11308 0.4889 0.0
C92 C 0.13524 0.1353 0.46772 0.0
C93 C 0.13474 0.18064 0.46369 0.0
C94 C 0.09966 0.20337 0.48072 0.0
C95 C 0.06582 0.18238 0.50132 0.0
C96 C 0.03101 0.21423 0.515 0.0
C97 C 0.98677 0.20319 0.49223 0.0
C98 C 0.02679 0.2157 0.56472 0.0
C99 C 0.05044 0.25629 0.49866 0.0
C100 C 0.09026 0.24943 0.47937 0.0
C101 C 0.11434 0.28345 0.46182 0.0
C102 C 0.09708 0.32555 0.46374 0.0
C103 C 0.05593 0.33316 0.48267 0.0
C104 C 0.0326 0.29794 0.5005 0.0
H105 H 0.90621 1.0104 0.45748 0.0
H106 H 0.94435 0.9399 0.57279 0.0
H107 H 0.86706 0.93551 0.59401 0.0
H108 H 0.82539 0.07431 0.5067 0.0
H109 H 0.78814 0.0726 0.46043 0.0
H110 H 0.8461 0.06748 0.45259 0.0
H111 H 0.83241 0.99441 0.41068 0.0
H112 H 0.77432 0.99932 0.41844 0.0
H113 H 0.80231 0.95134 0.43607 0.0
H114 H 0.78629 0.94342 0.60569 0.0
H115 H 0.70791 0.96264 0.60623 0.0
H116 H 0.72218 0.02639 0.48268 0.0
C117 C 0.89829 0.99358 0.48692 0.0
C118 C 0.93147 0.97549 0.51341 0.0
C119 C 0.91962 0.95401 0.55186 0.0
C120 C 0.87573 0.95124 0.5642 0.0
C121 C 0.84392 0.96982 0.53764 0.0
C122 C 0.85459 0.99037 0.49967 0.0
C123 C 0.81432 1.00913 0.47784 0.0
C124 C 0.81877 0.05882 0.4742 0.0
C125 C 0.80532 0.98723 0.43311 0.0
C126 C 0.77957 0.99672 0.50994 0.0
C127 C 0.79725 0.97385 0.54409 0.0
C128 C 0.77194 0.96085 0.57884 0.0
C129 C 0.72747 0.97194 0.5789 0.0
C130 C 0.70878 0.99574 0.5444 0.0
C131 C 0.73524 1.00765 0.50927 0.0
H132 H 0.06258 0.63063 0.55819 0.0
H133 H 0.10045 0.59174 0.428 0.0
H134 H 0.11489 0.66865 0.4111 0.0
H135 H 1.00501 0.72174 0.5294 0.0
H136 H 0.02184 0.75509 0.57582 0.0
H137 H 0.02018 0.69685 0.57998 0.0
H138 H 0.10176 0.69713 0.60498 0.0
H139 H 0.10359 0.75555 0.60146 0.0
H140 H 0.14227 0.72306 0.5721 0.0
H141 H 0.1152 0.74985 0.40512 0.0
H142 H 0.10757 0.82945 0.41243 0.0
H143 H 0.07158 0.81573 0.54716 0.0
C144 C 0.07501 0.63811 0.52647 0.0
C145 C 0.08046 0.60507 0.49444 0.0
C146 C 0.09631 0.61638 0.45318 0.0
C147 C 0.10451 0.66003 0.44323 0.0
C148 C 0.09724 0.6919 0.47505 0.0
C149 C 0.08355 0.68145 0.51609 0.0
C150 C 0.07578 0.72198 0.54359 0.0
C151 C 0.02786 0.72401 0.55802 0.0
C152 C 0.10777 0.72458 0.58285 0.0
C153 C 0.0859 0.75689 0.51117 0.0
C154 C 0.09833 0.73884 0.47187 0.0
C155 C 0.10629 0.76438 0.43597 0.0
C156 C 0.10159 0.80954 0.44036 0.0
C157 C 0.08925 0.82877 0.48043 0.0
C158 C 0.0817 0.802 0.51633 0.0
H159 H 0.40502 0.03539 0.61043 0.0
H160 H 0.47456 0.95565 0.51729 0.0
H161 H 0.40369 0.9303 0.48464 0.0
H162 H 0.31338 0.96026 0.62512 0.0
H163 H 0.27435 1.0035 0.62952 0.0
H164 H 0.3305 0.01283 0.64684 0.0
H165 H 0.33546 0.07828 0.59534 0.0
H166 H 0.27953 0.06888 0.57752 0.0
H167 H 0.32249 0.07025 0.53828 0.0
H168 H 0.32472 0.91749 0.45944 0.0
H169 H 0.24449 0.91512 0.44642 0.0
H170 H 0.22795 1.00348 0.55656 0.0
C171 C 0.40547 0.01214 0.58353 0.0
C172 C 0.44534 0.99744 0.56645 0.0
C173 C 0.44439 0.96716 0.53109 0.0
C174 C 0.40432 0.9527 0.51225 0.0
C175 C 0.36561 0.96866 0.52934 0.0
C176 C 0.36594 0.9974 0.56447 0.0
C177 C 0.32005 0.01062 0.57615 0.0
C178 C 0.30892 0.99591 0.62213 0.0
C179 C 0.31405 0.05993 0.57153 0.0
C180 C 0.29375 0.98523 0.5418 0.0
C181 C 0.3205 0.9612 0.51507 0.0
C182 C 0.30347 0.93594 0.48039 0.0
C183 C 0.25787 0.93494 0.47315 0.0
C184 C 0.2299 0.95903 0.50051 0.0
C185 C 0.24834 0.98453 0.53514 0.0
H186 H 0.49727 0.0975 0.43657 0.0
H187 H 0.63297 0.12298 0.47519 0.0
H188 H 0.65156 0.13211 0.39817 0.0
H189 H 0.5181 0.0332 0.34687 0.0
H190 H 0.4738 0.05249 0.31309 0.0
H191 H 0.46953 0.05462 0.37129 0.0
H192 H 0.45548 0.13743 0.36938 0.0
H193 H 0.45906 0.13551 0.31098 0.0
H194 H 0.49377 0.17254 0.34271 0.0
H195 H 0.65717 0.12825 0.31657 0.0
H196 H 0.64853 0.11703 0.23717 0.0
H197 H 0.50894 0.09482 0.25161 0.0
C198 C 0.53069 0.1063 0.42907 0.0
C199 C 0.56361 0.10971 0.46213 0.0
C200 C 0.60705 0.12059 0.45063 0.0
C201 C 0.61797 0.1257 0.40688 0.0
C202 C 0.58501 0.12032 0.37501 0.0
C203 C 0.5421 0.11154 0.38563 0.0
C204 C 0.51341 0.10429 0.34518 0.0
C205 C 0.4925 0.05843 0.34407 0.0
C206 C 0.47836 0.13956 0.34188 0.0
C207 C 0.54711 0.10902 0.31011 0.0
C208 C 0.58817 0.1185 0.32797 0.0
C209 C 0.62504 0.12158 0.30222 0.0
C210 C 0.61981 0.1149 0.25713 0.0
C211 C 0.57802 0.10527 0.23806 0.0
C212 C 0.54122 0.1027 0.26507 0.0
H213 H 1.00039 0.54348 0.12888 0.0
H214 H 0.88217 0.46382 0.11626 0.0
H215 H 0.88324 0.45366 0.19568 0.0
H216 H 0.05272 0.47975 0.20858 0.0
H217 H 0.07763 0.5254 0.23785 0.0
H218 H 0.06561 0.52904 0.18054 0.0
H219 H 0.01973 0.59797 0.19492 0.0
H220 H 0.03162 0.59452 0.25234 0.0
H221 H 0.97557 0.59583 0.23282 0.0
H222 H 0.89872 0.45028 0.27682 0.0
H223 H 0.92933 0.45155 0.35206 0.0
H224 H 0.03811 0.53181 0.31058 0.0
C225 C 0.97441 0.52435 0.14286 0.0
C226 C 0.94108 0.50463 0.11634 0.0
C227 C 0.90806 0.47928 0.13589 0.0
C228 C 0.90829 0.47342 0.18103 0.0
C229 C 0.94184 0.49299 0.20621 0.0
C230 C 0.97436 0.51785 0.18778 0.0
C231 C 1.00798 0.53349 0.22166 0.0
C232 C 0.05367 0.51585 0.21155 0.0
C233 C 1.00875 0.58342 0.22567 0.0
C234 C 0.9896 0.51315 0.26191 0.0
C235 C 0.95119 0.4903 0.25252 0.0
C236 C 0.92872 0.46822 0.28457 0.0
C237 C 0.94628 0.46916 0.32721 0.0
C238 C 0.98612 0.49167 0.33724 0.0
C239 C 1.00762 0.51422 0.30405 0.0
H240 H 0.59195 0.09734 0.73766 0.0
H241 H 0.50925 0.98161 0.72536 0.0
H242 H 0.49372 0.98657 0.80339 0.0
H243 H 0.63983 0.07092 0.84047 0.0
H244 H 0.64175 0.12598 0.86173 0.0
H245 H 0.64409 0.11582 0.80399 0.0
H246 H 0.57713 0.16526 0.79173 0.0
H247 H 0.57466 0.17567 0.84947 0.0
H248 H 0.52716 0.15434 0.81998 0.0
H249 H 0.48864 1.00177 0.88271 0.0
H250 H 0.49593 0.02556 0.95951 0.0
H251 H 0.58354 0.13043 0.92288 0.0
C252 C 0.5701 0.07349 0.75138 0.0
C253 C 0.55169 0.03915 0.72529 0.0
C254 C 0.52386 1.00813 0.74461 0.0
C255 C 0.51467 0.01072 0.78895 0.0
C256 C 0.53374 0.04441 0.81393 0.0
C257 C 0.56096 0.07526 0.79605 0.0
C258 C 0.57884 0.10674 0.83104 0.0
C259 C 0.62911 0.10472 0.8345 0.0
C260 C 0.56352 0.15326 0.82254 0.0
C261 C 0.55766 0.08846 0.87117 0.0
C262 C 0.5315 0.05273 0.86035 0.0
C263 C 0.50891 0.02983 0.89163 0.0
C264 C 0.51326 0.04364 0.93524 0.0
C265 C 0.54026 0.0799 0.94745 0.0
C266 C 0.56259 0.10263 0.91474 0.0
H267 H 0.02782 0.42233 0.64277 0.0
H268 H 0.95072 0.52765 0.59107 0.0
H269 H 0.93296 0.55126 0.66598 0.0
H270 H 0.95627 0.39869 0.73438 0.0
H271 H 1.00202 0.38649 0.76986 0.0
H272 H 1.00554 0.37644 0.71216 0.0
H273 H 0.07607 0.42426 0.71098 0.0
H274 H 0.07247 0.43495 0.7685 0.0
H275 H 0.07473 0.47956 0.73151 0.0
H276 H 0.93019 0.56749 0.74717 0.0
H277 H 0.93637 0.57057 0.82753 0.0
H278 H 1.01327 0.45295 0.82502 0.0
C279 C 1.00656 0.44992 0.64714 0.0
C280 C 0.9906 0.47315 0.61115 0.0
C281 C 0.96298 0.50914 0.6182 0.0
C282 C 0.95292 0.52291 0.66062 0.0
C283 C 0.97025 0.49994 0.69547 0.0
C284 C 0.99586 0.46374 0.68908 0.0
C285 C 1.01126 0.44519 0.73183 0.0
C286 C 0.99265 0.39897 0.73738 0.0
C287 C 0.06161 0.44607 0.73593 0.0
C288 C 0.99116 0.47713 0.76338 0.0
C289 C 0.96772 0.50858 0.74188 0.0
C290 C 0.94797 0.54268 0.76433 0.0
C291 C 0.95188 0.54432 0.80992 0.0
C292 C 0.9751 0.51189 0.83251 0.0
C293 C 0.99492 0.47797 0.80873 0.0
H294 H 0.14554 0.48007 0.94832 0.0
H295 H 0.10777 0.60362 1.00603 0.0
H296 H 0.18576 0.62554 0.01338 0.0
H297 H 0.24149 0.46468 0.01507 0.0
H298 H 0.27307 0.44126 0.97187 0.0
H299 H 0.21426 0.43553 0.97054 0.0
H300 H 0.21117 0.46989 0.89442 0.0
H301 H 0.26998 0.47582 0.89556 0.0
H302 H 0.23616 0.52256 0.88688 0.0
H303 H 0.26826 0.63321 0.01667 0.0
H304 H 0.3487 0.62639 0.01491 0.0
H305 H 0.33328 0.49867 0.95331 0.0
C306 C 0.15359 0.51178 0.96248 0.0
C307 C 0.12027 0.54008 0.97666 0.0
C308 C 0.13248 0.58133 0.99486 0.0
C309 C 0.17678 0.5941 0.99917 0.0
C310 C 0.20872 0.56545 0.9849 0.0
C311 C 0.1977 0.52519 0.96677 0.0
C312 C 0.23843 0.50047 0.95419 0.0
C313 C 0.24201 0.45797 0.97943 0.0
C314 C 0.23895 0.49167 0.90483 0.0
C315 C 0.2741 0.53291 0.96845 0.0
C316 C 0.25622 0.57018 0.98609 0.0
C317 C 0.28257 0.60427 1.00267 0.0
C318 C 0.32832 0.60007 1.00152 0.0
C319 C 0.34755 0.56214 0.98372 0.0
C320 C 0.31979 0.52833 0.96666 0.0
H321 H 0.44265 0.4097 0.05612 0.0
H322 H 0.55779 0.47607 0.11175 0.0
H323 H 0.59077 0.40494 0.12743 0.0
H324 H 0.44106 0.31884 0.13122 0.0
H325 H 0.42363 0.28021 0.08927 0.0
H326 H 0.40802 0.33633 0.08573 0.0
H327 H 0.4421 0.33986 1.00947 0.0
H328 H 0.45832 0.28396 0.01298 0.0
H329 H 0.49872 0.32564 1.00298 0.0
H330 H 0.61315 0.32618 0.13251 0.0
H331 H 0.62156 0.24646 0.13031 0.0
H332 H 0.49182 0.23185 0.07073 0.0
C333 C 0.47446 0.40944 0.07237 0.0
C334 C 0.49749 0.44864 0.08292 0.0
C335 C 0.53931 0.44659 0.10364 0.0
C336 C 0.55839 0.4063 0.11253 0.0
C337 C 0.53523 0.36832 0.10061 0.0
C338 C 0.49399 0.36959 0.08134 0.0
C339 C 0.47657 0.3242 0.0703 0.0
C340 C 0.43485 0.31432 0.09565 0.0
C341 C 0.46846 0.31808 0.02101 0.0
C342 C 0.5146 0.29712 0.08598 0.0
C343 C 0.54811 0.32315 0.1034 0.0
C344 C 0.58697 0.30551 0.11922 0.0
C345 C 0.5915 0.26012 0.11765 0.0
C346 C 0.55738 0.23272 0.10037 0.0
C347 C 0.51853 0.25175 0.0842 0.0
H348 H 0.8124 0.56724 0.97843 0.0
H349 H 0.8211 0.44059 0.9144 0.0
H350 H 0.74059 0.43697 0.90662 0.0
H351 H 0.71696 0.54382 0.03885 0.0
H352 H 0.69385 0.59706 0.03308 0.0
H353 H 0.75232 0.59049 0.03198 0.0
H354 H 0.75407 0.62756 0.95718 0.0
H355 H 0.69548 0.6339 0.95792 0.0
H356 H 0.72028 0.606 0.91282 0.0
H357 H 0.65889 0.44483 0.90957 0.0
H358 H 0.58199 0.46346 0.92403 0.0
H359 H 0.62558 0.58608 0.98359 0.0
C360 C 0.79741 0.53882 0.96259 0.0
C361 C 0.82331 0.50418 0.94703 0.0
C362 C 0.8022 0.46759 0.92658 0.0
C363 C 0.75638 0.46526 0.92188 0.0
C364 C 0.73188 0.4999 0.93748 0.0
C365 C 0.75159 0.53605 0.95737 0.0
C366 C 0.7175 0.56822 0.97237 0.0
C367 C 0.72033 0.57529 0.02201 0.0
C368 C 0.72212 0.61148 0.94865 0.0
C369 C 0.67557 0.5442 0.95843 0.0
C370 C 0.68465 0.50489 0.93823 0.0
C371 C 0.65138 0.47579 0.92482 0.0
C372 C 0.60776 0.48668 0.93308 0.0
C373 C 0.59762 0.52649 0.95427 0.0
C374 C 0.6321 0.5559 0.9663 0.0
H375 H 0.53643 0.72257 0.04406 0.0
H376 H 0.43977 0.71458 0.14507 0.0
H377 H 0.44844 0.79351 0.15979 0.0
H378 H 0.60702 0.80663 0.09723 0.0
H379 H 0.618 0.83325 0.0469 0.0
H380 H 0.60712 0.77551 0.04693 0.0
H381 H 0.5441 0.78492 0.99034 0.0
H382 H 0.55465 0.84264 0.99026 0.0
H383 H 0.50067 0.82223 1.0021 0.0
H384 H 0.46465 0.87398 0.16102 0.0
H385 H 0.48611 0.95011 0.14786 0.0
H386 H 0.57101 0.90652 0.04472 0.0
C387 C 0.51768 0.73725 0.06984 0.0
C388 C 0.48763 0.7122 0.09367 0.0
C389 C 0.46309 0.73296 0.12649 0.0
C390 C 0.46784 0.77781 0.13515 0.0
C391 C 0.49717 0.80166 0.11061 0.0
C392 C 0.52171 0.78213 0.07862 0.0
C393 C 0.54902 0.8156 0.05525 0.0
C394 C 0.59821 0.80724 0.062 0.0
C395 C 0.53633 0.81639 1.00661 0.0
C396 C 0.53555 0.85706 0.07868 0.0
C397 C 0.50593 0.8482 0.11077 0.0
C398 C 0.48801 0.88126 0.13614 0.0
C399 C 0.50042 0.92448 0.12836 0.0
C400 C 0.53031 0.93453 0.09526 0.0
C401 C 0.54825 0.9001 0.07039 0.0
loop_
_geom_bond_atom_site_label_1
_geom_bond_atom_site_label_2
_geom_bond_distance
_geom_bond_site_symmetry_2
_ccdc_geom_bond_type
Mg0 O7 2.141 1_455 S
Mg0 O8 2.048 . S
Mg0 O9 2.048 . S
Mg0 O12 2.141 1_545 S
C1 O2 1.313 . S
C1 O8 1.195 . S
O2 C1 1.313 . S
C3 O4 1.245 . S
C3 O12 1.289 . S
O4 C3 1.245 . S
C5 O6 1.245 . S
C5 O7 1.289 . S
O6 C5 1.245 . S
O7 Mg0 2.141 1_655 S
O7 C5 1.289 . S
O8 Mg0 2.048 . S
O8 C1 1.195 . S
O9 Mg0 2.048 . S
O9 C10 1.195 . S
C10 O9 1.195 . S
C10 O11 1.313 . S
O11 C10 1.313 . S
O12 Mg0 2.141 1_565 S
O12 C3 1.289 . S
Mg13 O20 2.141 1_554 S
Mg13 O21 2.048 . S
Mg13 O22 2.048 . S
Mg13 O25 2.141 1_545 S
C14 O15 1.313 . S
C14 O21 1.195 . S
O15 C14 1.313 . S
C16 O17 1.245 . S
C16 O25 1.289 . S
O17 C16 1.245 . S
C18 O19 1.245 . S
C18 O20 1.289 . S
O19 C18 1.245 . S
O20 Mg13 2.141 1_556 S
O20 C18 1.289 . S
O21 Mg13 2.048 . S
O21 C14 1.195 . S
O22 Mg13 2.048 . S
O22 C23 1.195 . S
C23 O22 1.195 . S
C23 O24 1.313 . S
O24 C23 1.313 . S
O25 Mg13 2.141 1_565 S
O25 C16 1.289 . S
Mg26 O33 2.141 1_554 S
Mg26 O34 2.048 . S
Mg26 O35 2.048 . S
Mg26 O38 2.141 1_455 S
C27 O28 1.313 . S
C27 O34 1.195 . S
O28 C27 1.313 . S
C29 O30 1.245 . S
C29 O38 1.289 . S
O30 C29 1.245 . S
C31 O32 1.245 . S
C31 O33 1.289 . S
O32 C31 1.245 . S
O33 Mg26 2.141 1_556 S
O33 C31 1.289 . S
O34 Mg26 2.048 . S
O34 C27 1.195 . S
O35 Mg26 2.048 . S
O35 C36 1.195 . S
C36 O35 1.195 . S
C36 O37 1.313 . S
O37 C36 1.313 . S
O38 Mg26 2.141 1_655 S
O38 C29 1.289 . S
Mg39 O46 2.141 . S
Mg39 O47 2.048 . S
Mg39 O48 2.048 . S
Mg39 O51 2.141 . S
C40 O41 1.313 1_554 S
C40 O47 1.195 . S
O41 C40 1.313 1_556 S
C42 O43 1.245 1_554 S
C42 O51 1.289 . S
O43 C42 1.245 1_556 S
C44 O45 1.245 1_554 S
C44 O46 1.289 . S
O45 C44 1.245 1_556 S
O46 Mg39 2.141 . S
O46 C44 1.289 . S
O47 Mg39 2.048 . S
O47 C40 1.195 . S
O48 Mg39 2.048 . S
O48 C49 1.195 . S
C49 O48 1.195 . S
C49 O50 1.313 1_554 S
O50 C49 1.313 1_556 S
O51 Mg39 2.141 . S
O51 C42 1.289 . S
Mg52 O59 2.141 . S
Mg52 O60 2.048 . S
Mg52 O61 2.048 . S
Mg52 O64 2.141 . S
C53 O54 1.313 . S
C53 O60 1.195 1_455 S
O54 C53 1.313 . S
C55 O56 1.245 . S
C55 O64 1.289 1_455 S
O56 C55 1.245 . S
C57 O58 1.245 . S
C57 O59 1.289 1_455 S
O58 C57 1.245 . S
O59 Mg52 2.141 . S
O59 C57 1.289 1_655 S
O60 Mg52 2.048 . S
O60 C53 1.195 1_655 S
O61 Mg52 2.048 . S
O61 C62 1.195 1_655 S
C62 O61 1.195 1_455 S
C62 O63 1.313 . S
O63 C62 1.313 . S
O64 Mg52 2.141 . S
O64 C55 1.289 1_655 S
Mg65 O72 2.141 . S
Mg65 O73 2.048 . S
Mg65 O74 2.048 . S
Mg65 O77 2.141 . S
C66 O67 1.313 1_545 S
C66 O73 1.195 . S
O67 C66 1.313 1_565 S
C68 O69 1.245 1_545 S
C68 O77 1.289 . S
O69 C68 1.245 1_565 S
C70 O71 1.245 1_545 S
C70 O72 1.289 . S
O71 C70 1.245 1_565 S
O72 Mg65 2.141 . S
O72 C70 1.289 . S
O73 Mg65 2.048 . S
O73 C66 1.195 . S
O74 Mg65 2.048 . S
O74 C75 1.195 . S
C75 O74 1.195 . S
C75 O76 1.313 1_545 S
O76 C75 1.313 1_565 S
O77 Mg65 2.141 . S
O77 C68 1.289 . S
H78 C90 0.930 1_655 S
H79 C92 0.930 . S
H80 C93 0.930 . S
H81 C97 0.959 . S
H82 C97 0.959 . S
H83 C97 0.961 . S
H84 C98 0.960 . S
H85 C98 0.961 . S
H86 C98 0.959 . S
H87 C101 0.929 . S
H88 C102 0.931 . S
H89 C104 0.930 . S
C90 H78 0.930 1_455 S
C90 C91 1.399 . S
C90 C95 1.399 . S
C91 C90 1.399 . S
C91 C92 1.376 . S
C92 H79 0.930 . S
C92 C91 1.376 . S
C92 C93 1.388 . S
C93 H80 0.930 . S
C93 C92 1.388 . S
C93 C94 1.390 . S
C94 C93 1.390 . S
C94 C95 1.394 . S
C94 C100 1.465 . S
C95 C90 1.399 . S
C95 C94 1.394 . S
C95 C96 1.516 . S
C96 C95 1.516 . S
C96 C97 1.502 1_455 S
C96 C98 1.561 . S
C96 C99 1.526 . S
C97 H81 0.959 . S
C97 H82 0.959 . S
C97 H83 0.961 . S
C97 C96 1.502 1_655 S
C98 H84 0.960 . S
C98 H85 0.961 . S
C98 H86 0.959 . S
C98 C96 1.561 . S
C99 C96 1.526 . S
C99 C100 1.396 . S
C99 C104 1.390 . S
C100 C94 1.465 . S
C100 C99 1.396 . S
C100 C101 1.399 . S
C101 H87 0.929 . S
C101 C100 1.399 . S
C101 C102 1.385 . S
C102 H88 0.931 . S
C102 C101 1.385 . S
C102 C103 1.389 . S
C103 C102 1.389 . S
C103 C104 1.387 . S
C104 H89 0.930 . S
C104 C99 1.390 . S
C104 C103 1.387 . S
H105 C117 0.930 . S
H106 C119 0.930 . S
H107 C120 0.930 . S
H108 C124 0.959 . S
H109 C124 0.959 . S
H110 C124 0.961 . S
H111 C125 0.960 . S
H112 C125 0.961 . S
H113 C125 0.959 . S
H114 C128 0.929 . S
H115 C129 0.931 . S
H116 C131 0.930 . S
C117 H105 0.930 . S
C117 C118 1.399 . S
C117 C122 1.399 . S
C118 C117 1.399 . S
C118 C119 1.376 . S
C119 H106 0.930 . S
C119 C118 1.376 . S
C119 C120 1.388 . S
C120 H107 0.930 . S
C120 C119 1.388 . S
C120 C121 1.390 . S
C121 C120 1.390 . S
C121 C122 1.394 . S
C121 C127 1.465 . S
C122 C117 1.399 . S
C122 C121 1.394 . S
C122 C123 1.516 . S
C123 C122 1.516 . S
C123 C124 1.502 . S
C123 C125 1.561 1_545 S
C123 C126 1.526 . S
C124 H108 0.959 . S
C124 H109 0.959 . S
C124 H110 0.961 . S
C124 C123 1.502 . S
C125 H111 0.960 . S
C125 H112 0.961 . S
C125 H113 0.959 . S
C125 C123 1.561 1_565 S
C126 C123 1.526 . S
C126 C127 1.396 . S
C126 C131 1.390 . S
C127 C121 1.465 . S
C127 C126 1.396 . S
C127 C128 1.399 . S
C128 H114 0.929 . S
C128 C127 1.399 . S
C128 C129 1.385 . S
C129 H115 0.931 . S
C129 C128 1.385 . S
C129 C130 1.389 . S
C130 C129 1.389 . S
C130 C131 1.387 . S
C131 H116 0.930 . S
C131 C126 1.390 . S
C131 C130 1.387 . S
H132 C144 0.930 1_655 S
H133 C146 0.930 . S
H134 C147 0.930 . S
H135 C151 0.959 . S
H136 C151 0.959 . S
H137 C151 0.961 . S
H138 C152 0.960 . S
H139 C152 0.961 . S
H140 C152 0.959 . S
H141 C155 0.929 . S
H142 C156 0.931 . S
H143 C158 0.930 1_655 S
C144 H132 0.930 1_455 S
C144 C145 1.399 . S
C144 C149 1.399 . S
C145 C144 1.399 . S
C145 C146 1.376 . S
C146 H133 0.930 . S
C146 C145 1.376 . S
C146 C147 1.388 . S
C147 H134 0.930 . S
C147 C146 1.388 . S
C147 C148 1.390 . S
C148 C147 1.390 . S
C148 C149 1.394 . S
C148 C154 1.465 . S
C149 C144 1.399 . S
C149 C148 1.394 . S
C149 C150 1.516 1_455 S
C150 C149 1.516 1_655 S
C150 C151 1.502 . S
C150 C152 1.561 1_655 S
C150 C153 1.526 1_655 S
C151 H135 0.959 . S
C151 H136 0.959 . S
C151 H137 0.961 . S
C151 C150 1.502 . S
C152 H138 0.960 . S
C152 H139 0.961 . S
C152 H140 0.959 . S
C152 C150 1.561 1_455 S
C153 C150 1.526 1_455 S
C153 C154 1.396 . S
C153 C158 1.390 . S
C154 C148 1.465 . S
C154 C153 1.396 . S
C154 C155 1.399 . S
C155 H141 0.929 . S
C155 C154 1.399 . S
C155 C156 1.385 . S
C156 H142 0.931 . S
C156 C155 1.385 . S
C156 C157 1.389 . S
C157 C156 1.389 . S
C157 C158 1.387 . S
C158 H143 0.930 1_455 S
C158 C153 1.390 . S
C158 C157 1.387 . S
H159 C171 0.912 1_565 S
H160 C173 0.930 . S
H161 C174 0.930 . S
H162 C178 0.959 . S
H163 C178 0.959 . S
H164 C178 0.961 . S
H165 C179 0.960 . S
H166 C179 0.961 1_565 S
H167 C179 0.959 . S
H168 C182 0.929 . S
H169 C183 0.931 . S
H170 C185 0.930 . S
C171 H159 0.912 1_545 S
C171 C172 1.413 . S
C171 C176 1.404 . S
C172 C171 1.413 . S
C172 C173 1.376 . S
C173 H160 0.930 . S
C173 C172 1.376 . S
C173 C174 1.388 . S
C174 H161 0.930 . S
C174 C173 1.388 . S
C174 C175 1.390 . S
C175 C174 1.390 . S
C175 C176 1.394 . S
C175 C181 1.465 . S
C176 C171 1.404 . S
C176 C175 1.394 . S
C176 C177 1.516 1_545 S
C177 C176 1.516 1_565 S
C177 C178 1.502 . S
C177 C179 1.561 1_565 S
C177 C180 1.526 1_565 S
C178 H162 0.959 . S
C178 H163 0.959 . S
C178 H164 0.961 . S
C178 C177 1.502 . S
C179 H165 0.960 . S
C179 H166 0.961 1_545 S
C179 H167 0.959 . S
C179 C177 1.561 1_545 S
C180 C177 1.526 1_545 S
C180 C181 1.396 . S
C180 C185 1.390 1_545 S
C181 C175 1.465 . S
C181 C180 1.396 . S
C181 C182 1.399 . S
C182 H168 0.929 . S
C182 C181 1.399 . S
C182 C183 1.385 . S
C183 H169 0.931 . S
C183 C182 1.385 . S
C183 C184 1.389 . S
C184 C183 1.389 . S
C184 C185 1.387 1_545 S
C185 H170 0.930 . S
C185 C180 1.390 1_565 S
C185 C184 1.387 1_565 S
H186 C198 0.930 . S
H187 C200 0.930 . S
H188 C201 0.930 . S
H189 C205 0.959 . S
H190 C205 0.959 . S
H191 C205 0.961 . S
H192 C206 0.960 . S
H193 C206 0.961 . S
H194 C206 0.959 . S
H195 C209 0.929 . S
H196 C210 0.931 . S
H197 C212 0.930 . S
C198 H186 0.930 . S
C198 C199 1.399 . S
C198 C203 1.399 . S
C199 C198 1.399 . S
C199 C200 1.376 1_545 S
C200 H187 0.930 . S
C200 C199 1.376 1_565 S
C200 C201 1.388 . S
C201 H188 0.930 . S
C201 C200 1.388 . S
C201 C202 1.393 . S
C202 C201 1.393 . S
C202 C203 1.390 1_565 S
C202 C208 1.465 . S
C203 C198 1.399 . S
C203 C202 1.390 1_545 S
C203 C204 1.516 . S
C204 C203 1.516 . S
C204 C205 1.502 . S
C204 C206 1.561 . S
C204 C207 1.526 . S
C205 H189 0.959 . S
C205 H190 0.959 . S
C205 H191 0.961 . S
C205 C204 1.502 . S
C206 H192 0.960 . S
C206 H193 0.961 . S
C206 H194 0.959 . S
C206 C204 1.561 . S
C207 C204 1.526 . S
C207 C208 1.396 1_545 S
C207 C212 1.390 . S
C208 C202 1.465 . S
C208 C207 1.396 1_565 S
C208 C209 1.399 . S
C209 H195 0.929 . S
C209 C208 1.399 . S
C209 C210 1.385 . S
C210 H196 0.931 . S
C210 C209 1.385 . S
C210 C211 1.389 1_565 S
C211 C210 1.389 1_545 S
C211 C212 1.387 . S
C212 H197 0.930 . S
C212 C207 1.390 . S
C212 C211 1.387 . S
H213 C225 0.930 . S
H214 C227 0.930 . S
H215 C228 0.930 . S
H216 C232 0.959 . S
H217 C232 0.959 . S
H218 C232 0.961 . S
H219 C233 0.960 . S
H220 C233 0.961 . S
H221 C233 0.959 . S
H222 C236 0.929 . S
H223 C237 0.931 1_655 S
H224 C239 0.930 . S
C225 H213 0.930 . S
C225 C226 1.399 . S
C225 C230 1.399 . S
C226 C225 1.399 . S
C226 C227 1.376 1_455 S
C227 H214 0.930 . S
C227 C226 1.376 1_655 S
C227 C228 1.388 . S
C228 H215 0.930 . S
C228 C227 1.388 . S
C228 C229 1.390 1_655 S
C229 C228 1.390 1_455 S
C229 C230 1.394 . S
C229 C235 1.465 . S
C230 C225 1.399 . S
C230 C229 1.394 . S
C230 C231 1.516 . S
C231 C230 1.516 . S
C231 C232 1.502 . S
C231 C233 1.561 1_455 S
C231 C234 1.526 . S
C232 H216 0.959 . S
C232 H217 0.959 . S
C232 H218 0.961 . S
C232 C231 1.502 . S
C233 H219 0.960 . S
C233 H220 0.961 . S
C233 H221 0.959 . S
C233 C231 1.561 1_655 S
C234 C231 1.526 . S
C234 C235 1.396 . S
C234 C239 1.390 . S
C235 C229 1.465 . S
C235 C234 1.396 . S
C235 C236 1.399 1_455 S
C236 H222 0.929 . S
C236 C235 1.399 1_655 S
C236 C237 1.385 1_655 S
C237 H223 0.931 1_455 S
C237 C236 1.385 1_455 S
C237 C238 1.389 . S
C238 C237 1.389 . S
C238 C239 1.387 . S
C239 H224 0.930 . S
C239 C234 1.390 . S
C239 C238 1.387 . S
H240 C252 0.930 . S
H241 C254 0.930 . S
H242 C255 0.930 . S
H243 C259 0.959 . S
H244 C259 0.959 . S
H245 C259 0.961 . S
H246 C260 0.960 . S
H247 C260 0.961 . S
H248 C260 0.959 . S
H249 C263 0.929 . S
H250 C264 0.931 . S
H251 C266 0.930 . S
C252 H240 0.930 . S
C252 C253 1.399 . S
C252 C257 1.399 . S
C253 C252 1.399 . S
C253 C254 1.376 1_545 S
C254 H241 0.930 . S
C254 C253 1.376 1_565 S
C254 C255 1.388 . S
C255 H242 0.930 . S
C255 C254 1.388 . S
C255 C256 1.390 1_565 S
C256 C255 1.390 1_545 S
C256 C257 1.394 . S
C256 C262 1.465 . S
C257 C252 1.399 . S
C257 C256 1.394 . S
C257 C258 1.516 . S
C258 C257 1.516 . S
C258 C259 1.502 . S
C258 C260 1.561 . S
C258 C261 1.526 . S
C259 H243 0.959 . S
C259 H244 0.959 . S
C259 H245 0.961 . S
C259 C258 1.502 . S
C260 H246 0.960 . S
C260 H247 0.961 . S
C260 H248 0.959 . S
C260 C258 1.561 . S
C261 C258 1.526 . S
C261 C262 1.396 . S
C261 C266 1.390 . S
C262 C256 1.465 . S
C262 C261 1.396 . S
C262 C263 1.399 1_545 S
C263 H249 0.929 . S
C263 C262 1.399 1_565 S
C263 C264 1.385 . S
C264 H250 0.931 . S
C264 C263 1.385 . S
C264 C265 1.389 1_565 S
C265 C264 1.389 1_545 S
C265 C266 1.387 . S
C266 H251 0.930 . S
C266 C261 1.390 . S
C266 C265 1.387 . S
H267 C279 0.930 1_655 S
H268 C281 0.930 . S
H269 C282 0.930 . S
H270 C286 0.959 . S
H271 C286 0.959 . S
H272 C286 0.961 . S
H273 C287 0.960 . S
H274 C287 0.957 1_655 S
H275 C287 0.959 . S
H276 C290 0.929 . S
H277 C291 0.931 . S
H278 C293 0.930 . S
C279 H267 0.930 1_455 S
C279 C280 1.399 . S
C279 C284 1.399 . S
C280 C279 1.399 . S
C280 C281 1.376 . S
C281 H268 0.930 . S
C281 C280 1.376 . S
C281 C282 1.388 . S
C282 H269 0.930 . S
C282 C281 1.388 . S
C282 C283 1.390 . S
C283 C282 1.390 . S
C283 C284 1.394 . S
C283 C289 1.465 . S
C284 C279 1.399 . S
C284 C283 1.394 . S
C284 C285 1.516 1_455 S
C285 C284 1.516 1_655 S
C285 C286 1.502 . S
C285 C287 1.561 1_655 S
C285 C288 1.526 1_655 S
C286 H270 0.959 . S
C286 H271 0.959 . S
C286 H272 0.961 . S
C286 C285 1.502 . S
C287 H273 0.960 . S
C287 H274 0.957 1_455 S
C287 H275 0.959 . S
C287 C285 1.561 1_455 S
C288 C285 1.526 1_455 S
C288 C289 1.396 . S
C288 C293 1.390 1_455 S
C289 C283 1.465 . S
C289 C288 1.396 . S
C289 C290 1.399 . S
C290 H276 0.929 . S
C290 C289 1.399 . S
C290 C291 1.385 . S
C291 H277 0.931 . S
C291 C290 1.385 . S
C291 C292 1.389 . S
C292 C291 1.389 . S
C292 C293 1.387 1_455 S
C293 H278 0.930 . S
C293 C288 1.390 1_655 S
C293 C292 1.387 1_655 S
H294 C306 0.930 . S
H295 C308 0.930 . S
H296 C309 0.930 . S
H297 C313 0.959 . S
H298 C313 0.959 . S
H299 C313 0.961 . S
H300 C314 0.960 . S
H301 C314 0.961 . S
H302 C314 0.959 . S
H303 C317 0.929 . S
H304 C318 0.931 . S
H305 C320 0.930 . S
C306 H294 0.930 . S
C306 C307 1.399 1_556 S
C306 C311 1.399 . S
C307 C306 1.399 1_554 S
C307 C308 1.376 . S
C308 H295 0.930 . S
C308 C307 1.376 . S
C308 C309 1.388 . S
C309 H296 0.930 . S
C309 C308 1.388 . S
C309 C310 1.390 . S
C310 C309 1.390 . S
C310 C311 1.394 1_554 S
C310 C316 1.465 . S
C311 C306 1.399 . S
C311 C310 1.394 1_556 S
C311 C312 1.516 . S
C312 C311 1.516 . S
C312 C313 1.502 . S
C312 C314 1.561 . S
C312 C315 1.536 . S
C313 H297 0.959 . S
C313 H298 0.959 . S
C313 H299 0.961 . S
C313 C312 1.502 . S
C314 H300 0.960 . S
C314 H301 0.961 . S
C314 H302 0.959 . S
C314 C312 1.561 . S
C315 C312 1.536 . S
C315 C316 1.383 1_556 S
C315 C320 1.392 . S
C316 C310 1.465 . S
C316 C315 1.383 1_554 S
C316 C317 1.399 . S
C317 H303 0.929 . S
C317 C316 1.399 . S
C317 C318 1.385 . S
C318 H304 0.931 . S
C318 C317 1.385 . S
C318 C319 1.389 . S
C319 C318 1.389 . S
C319 C320 1.387 1_554 S
C320 H305 0.930 . S
C320 C315 1.392 . S
C320 C319 1.387 1_556 S
H321 C333 0.930 . S
H322 C335 0.930 . S
H323 C336 0.930 . S
H324 C340 0.959 . S
H325 C340 0.959 . S
H326 C340 0.961 . S
H327 C341 0.960 . S
H328 C341 0.961 . S
H329 C341 0.959 . S
H330 C344 0.929 . S
H331 C345 0.931 . S
H332 C347 0.930 . S
C333 H321 0.930 . S
C333 C334 1.399 1_556 S
C333 C338 1.399 . S
C334 C333 1.399 1_554 S
C334 C335 1.376 . S
C335 H322 0.930 . S
C335 C334 1.376 . S
C335 C336 1.388 . S
C336 H323 0.930 . S
C336 C335 1.388 . S
C336 C337 1.390 . S
C337 C336 1.390 . S
C337 C338 1.394 1_554 S
C337 C343 1.465 . S
C338 C333 1.399 . S
C338 C337 1.394 1_556 S
C338 C339 1.516 . S
C339 C338 1.516 . S
C339 C340 1.502 . S
C339 C341 1.561 . S
C339 C342 1.526 . S
C340 H324 0.959 . S
C340 H325 0.959 . S
C340 H326 0.961 . S
C340 C339 1.502 . S
C341 H327 0.960 . S
C341 H328 0.961 . S
C341 H329 0.959 . S
C341 C339 1.561 . S
C342 C339 1.526 . S
C342 C343 1.396 1_556 S
C342 C347 1.390 . S
C343 C337 1.465 . S
C343 C342 1.396 1_554 S
C343 C344 1.399 . S
C344 H330 0.929 . S
C344 C343 1.399 . S
C344 C345 1.385 . S
C345 H331 0.931 . S
C345 C344 1.385 . S
C345 C346 1.389 . S
C346 C345 1.389 . S
C346 C347 1.387 1_554 S
C347 H332 0.930 . S
C347 C342 1.390 . S
C347 C346 1.387 1_556 S
H348 C360 0.930 . S
H349 C362 0.930 . S
H350 C363 0.930 . S
H351 C367 0.959 . S
H352 C367 0.959 . S
H353 C367 0.961 . S
H354 C368 0.960 . S
H355 C368 0.961 . S
H356 C368 0.959 . S
H357 C371 0.929 . S
H358 C372 0.931 . S
H359 C374 0.930 . S
C360 H348 0.930 . S
C360 C361 1.399 . S
C360 C365 1.399 . S
C361 C360 1.399 . S
C361 C362 1.376 1_554 S
C362 H349 0.930 . S
C362 C361 1.376 1_556 S
C362 C363 1.388 . S
C363 H350 0.930 . S
C363 C362 1.388 . S
C363 C364 1.390 . S
C364 C363 1.390 . S
C364 C365 1.394 1_556 S
C364 C370 1.465 . S
C365 C360 1.399 . S
C365 C364 1.394 1_554 S
C365 C366 1.516 . S
C366 C365 1.516 . S
C366 C367 1.502 . S
C366 C368 1.561 . S
C366 C369 1.526 . S
C367 H351 0.959 . S
C367 H352 0.959 . S
C367 H353 0.961 . S
C367 C366 1.502 . S
C368 H354 0.960 . S
C368 H355 0.961 . S
C368 H356 0.959 . S
C368 C366 1.561 . S
C369 C366 1.526 . S
C369 C370 1.396 1_554 S
C369 C374 1.390 . S
C370 C364 1.465 . S
C370 C369 1.396 1_556 S
C370 C371 1.399 . S
C371 H357 0.929 . S
C371 C370 1.399 . S
C371 C372 1.385 . S
C372 H358 0.931 . S
C372 C371 1.385 . S
C372 C373 1.389 1_556 S
C373 C372 1.389 1_554 S
C373 C374 1.387 . S
C374 H359 0.930 . S
C374 C369 1.390 . S
C374 C373 1.387 . S
H375 C387 0.930 . S
H376 C389 0.930 . S
H377 C390 0.930 . S
H378 C394 0.959 . S
H379 C394 0.959 . S
H380 C394 0.961 . S
H381 C395 0.960 . S
H382 C395 0.961 . S
H383 C395 0.959 1_556 S
H384 C398 0.929 . S
H385 C399 0.931 . S
H386 C401 0.930 . S
C387 H375 0.930 . S
C387 C388 1.399 . S
C387 C392 1.399 . S
C388 C387 1.399 . S
C388 C389 1.376 1_554 S
C389 H376 0.930 . S
C389 C388 1.376 1_556 S
C389 C390 1.388 . S
C390 H377 0.930 . S
C390 C389 1.388 . S
C390 C391 1.390 1_556 S
C391 C390 1.390 1_554 S
C391 C392 1.394 . S
C391 C397 1.465 . S
C392 C387 1.399 . S
C392 C391 1.394 . S
C392 C393 1.516 . S
C393 C392 1.516 . S
C393 C394 1.502 . S
C393 C395 1.561 . S
C393 C396 1.526 . S
C394 H378 0.959 . S
C394 H379 0.959 . S
C394 H380 0.961 . S
C394 C393 1.502 . S
C395 H381 0.960 . S
C395 H382 0.961 . S
C395 H383 0.959 1_554 S
C395 C393 1.561 . S
C396 C393 1.526 . S
C396 C397 1.396 . S
C396 C401 1.390 . S
C397 C391 1.465 . S
C397 C396 1.396 . S
C397 C398 1.399 1_554 S
C398 H384 0.929 . S
C398 C397 1.399 1_556 S
C398 C399 1.385 . S
C399 H385 0.931 . S
C399 C398 1.385 . S
C399 C400 1.389 1_556 S
C400 C399 1.389 1_554 S
C400 C401 1.387 . S
C401 H386 0.930 . S
C401 C396 1.390 . S
C401 C400 1.387 . S
C91 C1 1.470 . S
C103 C55 1.478 . S
C118 C5 1.498 . S
C130 C66 1.479 . S
C145 C53 1.483 . S
C157 C3 1.467 . S
C172 C68 1.498 . S
C184 C10 1.471 . S
C199 C70 1.471 . S
C211 C23 1.488 . S
C226 C36 1.478 . S
C238 C57 1.491 . S
C253 C75 1.485 . S
C265 C18 1.496 . S
C280 C62 1.476 . S
C292 C31 1.496 . S
C307 C27 1.496 . S
C319 C44 1.496 . S
C334 C42 1.494 . S
C346 C14 1.477 . S
C361 C29 1.475 . S
C373 C49 1.477 . S
C388 C40 1.478 . S
C400 C16 1.498 . S
