# Generated by pormake.
# Topology rkf, (6)-cn, num edge types: 1
# Building blocks:
#     Node 0, Type 0, BuildingBlock: MIFKUJ_clean_sbu_0, # of connection points: 6
#     Node 1, Type 0, BuildingBlock: MIFKUJ_clean_sbu_0, # of connection points: 6
#     Node 2, Type 0, BuildingBlock: MIFKUJ_clean_sbu_0, # of connection points: 6
#     Node 3, Type 0, BuildingBlock: MIFKUJ_clean_sbu_0, # of connection points: 6
#     Node 4, Type 0, BuildingBlock: MIFKUJ_clean_sbu_0, # of connection points: 6
#     Node 5, Type 0, BuildingBlock: MIFKUJ_clean_sbu_0, # of connection points: 6
#     Edge 6, Type (0, 0), BuildingBlock: KIFKEQ_clean_linker_1, # of connection points: 2
#     Edge 7, Type (0, 0), BuildingBlock: KIFKEQ_clean_linker_1, # of connection points: 2
#     Edge 8, Type (0, 0), BuildingBlock: KIFKEQ_clean_linker_1, # of connection points: 2
#     Edge 9, Type (0, 0), BuildingBlock: KIFKEQ_clean_linker_1, # of connection points: 2
#     Edge 10, Type (0, 0), BuildingBlock: KIFKEQ_clean_linker_1, # of connection points: 2
#     Edge 11, Type (0, 0), BuildingBlock: KIFKEQ_clean_linker_1, # of connection points: 2
#     Edge 12, Type (0, 0), BuildingBlock: KIFKEQ_clean_linker_1, # of connection points: 2
#     Edge 13, Type (0, 0), BuildingBlock: KIFKEQ_clean_linker_1, # of connection points: 2
#     Edge 14, Type (0, 0), BuildingBlock: KIFKEQ_clean_linker_1, # of connection points: 2
#     Edge 15, Type (0, 0), BuildingBlock: KIFKEQ_clean_linker_1, # of connection points: 2
#     Edge 16, Type (0, 0), BuildingBlock: KIFKEQ_clean_linker_1, # of connection points: 2
#     Edge 17, Type (0, 0), BuildingBlock: KIFKEQ_clean_linker_1, # of connection points: 2
#     Edge 18, Type (0, 0), BuildingBlock: KIFKEQ_clean_linker_1, # of connection points: 2
#     Edge 19, Type (0, 0), BuildingBlock: KIFKEQ_clean_linker_1, # of connection points: 2
#     Edge 20, Type (0, 0), BuildingBlock: KIFKEQ_clean_linker_1, # of connection points: 2
#     Edge 21, Type (0, 0), BuildingBlock: KIFKEQ_clean_linker_1, # of connection points: 2
#     Edge 22, Type (0, 0), BuildingBlock: KIFKEQ_clean_linker_1, # of connection points: 2
#     Edge 23, Type (0, 0), BuildingBlock: KIFKEQ_clean_linker_1, # of connection points: 2
# Relax obj value: 0.343
# Max RMSD: 0.299
# Mean RMSD: 0.299
data_MOF--net-rkf--node1-MIFKUJ_clean_sbu_0--edge1-KIFKEQ_clean_linker_1
_symmetry_space_group_name_H-M    P1
_symmetry_Int_Tables_number       1
_symmetry_cell_setting            triclinic
loop_
_symmetry_equiv_pos_as_xyz
'x, y, z'
_cell_length_a     23.011237
_cell_length_b     23.016383
_cell_length_c     46.579865
_cell_angle_alpha  90.272056
_cell_angle_beta   89.741117
_cell_angle_gamma 119.95906
loop_
_atom_site_label
_atom_site_type_symbol
_atom_site_fract_x
_atom_site_fract_y
_atom_site_fract_z
_atom_type_partial_charge
Zn0 Zn 0.19826 0.87878 0.95636 0.0
Zn1 Zn 0.25328 0.87935 0.04478 0.0
C2 C 0.1563 0.73633 0.94847 0.0
O3 O 0.21797 0.7539 0.95581 0.0
C4 C 0.36065 0.00682 0.06649 0.0
O5 O 0.32806 0.03223 0.05332 0.0
O6 O 0.18441 0.93029 0.92268 0.0
O7 O 0.17858 0.9084 0.99455 0.0
O8 O 0.19751 0.92251 0.04132 0.0
C9 C 0.1829 0.98454 0.92635 0.0
O10 O 0.19601 0.01223 0.95195 0.0
O11 O 0.13772 0.77998 0.94914 0.0
C12 C 0.21707 0.81377 0.09982 0.0
O13 O 0.28181 0.85178 0.10413 0.0
O14 O 0.19507 0.80688 0.07419 0.0
O15 O 0.26035 0.85799 1.00322 0.0
O16 O 0.29405 0.89995 0.96036 0.0
O17 O 0.34102 0.94489 0.06335 0.0
C18 C 0.16784 0.92617 0.019 0.0
C19 C 0.30855 0.89157 0.9858 0.0
Zn20 Zn 0.34989 0.09486 0.3982 0.0
Zn21 Zn 0.33801 0.13383 0.30818 0.0
C22 C 0.28576 0.12883 0.44152 0.0
O23 O 0.34939 0.17104 0.44657 0.0
C24 C 0.40736 0.09165 0.26806 0.0
O25 O 0.37791 0.03544 0.28269 0.0
O26 O 0.37685 0.04349 0.42505 0.0
O27 O 0.33104 0.05339 0.35894 0.0
O28 O 0.27553 0.03712 0.31936 0.0
C29 C 0.41259 0.06904 0.44732 0.0
O30 O 0.44731 0.13463 0.44981 0.0
O31 O 0.27036 0.09176 0.41925 0.0
C32 C 0.30005 0.21488 0.27254 0.0
O33 O 0.36493 0.24905 0.26762 0.0
O34 O 0.27767 0.16718 0.29071 0.0
O35 O 0.38887 0.18009 0.3451 0.0
O36 O 0.41961 0.19176 0.39051 0.0
O37 O 0.40059 0.14057 0.27637 0.0
C38 C 0.27516 0.02771 0.34623 0.0
C39 C 0.42548 0.21709 0.36554 0.0
Zn40 Zn 0.8941 0.14458 0.63306 0.0
Zn41 Zn 0.92765 0.17714 0.72728 0.0
C42 C 0.96731 0.13784 0.5868 0.0
O43 O 0.93778 0.16962 0.57662 0.0
C44 C 0.82239 0.1846 0.76128 0.0
O45 O 0.78153 0.12155 0.75448 0.0
O46 O 0.82021 0.11683 0.60365 0.0
O47 O 0.85135 0.09643 0.67008 0.0
O48 O 0.8685 0.08164 0.71449 0.0
C49 C 0.7746 0.05554 0.60223 0.0
O50 O 0.77048 0.01455 0.62269 0.0
O51 O 0.96055 0.12283 0.61339 0.0
C52 C 0.00731 0.18346 0.77803 0.0
O53 O 0.9691 0.20408 0.7901 0.0
O54 O 0.00361 0.17428 0.75086 0.0
O55 O 0.9401 0.22382 0.68831 0.0
O56 O 0.93772 0.24433 0.64262 0.0
O57 O 0.88239 0.21375 0.75222 0.0
C58 C 0.87924 0.07691 0.68796 0.0
C59 C 0.94904 0.26549 0.66855 0.0
Zn60 Zn 0.9186 0.17638 0.0684 0.0
Zn61 Zn 0.8857 0.19515 0.97936 0.0
C62 C 0.87177 0.0345 0.05873 0.0
O63 O 0.82765 0.03595 0.04147 0.0
C64 C 0.88284 0.30307 0.9485 0.0
O65 O 0.9466 0.33757 0.95543 0.0
O66 O 0.96193 0.21368 0.10794 0.0
O67 O 0.96147 0.24422 0.03542 0.0
O68 O 0.98323 0.25797 0.98972 0.0
C69 C 0.02349 0.22926 0.10882 0.0
O70 O 0.05275 0.22877 0.08466 0.0
O71 O 0.92167 0.08964 0.06703 0.0
C72 C 0.86716 0.11844 0.92507 0.0
O73 O 0.84533 0.15798 0.91593 0.0
O74 O 0.88384 0.1221 0.95148 0.0
O75 O 0.84104 0.16541 0.01888 0.0
O76 O 0.8185 0.14497 0.06467 0.0
O77 O 0.84722 0.24425 0.95845 0.0
C78 C -0.00365 0.24371 0.01431 0.0
C79 C 0.79772 0.14242 0.039 0.0
Zn80 Zn 0.81264 0.81378 0.28871 0.0
Zn81 Zn 0.76039 0.84482 0.37487 0.0
C82 C 0.7534 0.77012 0.2347 0.0
O83 O 0.76311 0.72043 0.24177 0.0
C84 C 0.84083 0.91922 0.42346 0.0
O85 O 0.81381 0.95612 0.41717 0.0
O86 O 0.88123 0.79119 0.27094 0.0
O87 O 0.86511 0.90818 0.30463 0.0
O88 O 0.78905 0.88707 0.33681 0.0
C89 C 0.93063 0.83714 0.25706 0.0
O90 O 0.93988 0.89826 0.2576 0.0
O91 O 0.76135 0.81333 0.25375 0.0
C92 C 0.66688 0.82521 0.41646 0.0
O93 O 0.67378 0.77217 0.4192 0.0
O94 O 0.69104 0.86104 0.3941 0.0
O95 O 0.72243 0.74832 0.36477 0.0
O96 O 0.75377 0.74296 0.31951 0.0
O97 O 0.83106 0.87133 0.40659 0.0
C98 C 0.85013 0.91786 0.32968 0.0
C99 C 0.72227 0.71479 0.34277 0.0
Zn100 Zn 0.04096 0.80136 0.74415 0.0
Zn101 Zn 0.05608 0.81581 0.65109 0.0
C102 C 0.01433 0.68514 0.77508 0.0
O103 O 0.95312 0.6681 0.76711 0.0
C104 C 0.96573 0.84988 0.6199 0.0
O105 O 0.91713 0.79219 0.62935 0.0
O106 O 0.98503 0.82746 0.7711 0.0
O107 O 0.12542 0.89081 0.73269 0.0
O108 O 0.10078 0.85104 0.68962 0.0
C109 C 0.98083 0.88038 0.76806 0.0
O110 O 0.00622 0.91661 0.74481 0.0
O111 O 0.06285 0.74152 0.76714 0.0
C112 C 0.18406 0.84135 0.62541 0.0
O113 O 0.21075 0.86945 0.65015 0.0
O114 O 0.1206 0.81126 0.62264 0.0
O115 O 0.97942 0.7218 0.66093 0.0
O116 O -0.0005 0.75358 0.70578 0.0
O117 O 0.02499 0.87146 0.6291 0.0
C118 C 0.1327 0.90158 0.7057 0.0
C119 C 0.97211 0.70611 0.68751 0.0
H120 H 0.92142 0.11337 1.00027 0.0
H121 H 0.11735 0.26283 0.02973 0.0
H122 H 0.95414 0.02768 1.00243 0.0
H123 H 0.15041 0.17707 0.03269 0.0
H124 H 0.08038 0.92527 0.97954 0.0
H125 H 0.03391 1e-05 0.97866 0.0
H126 H 0.11751 0.07559 0.06264 0.0
H127 H 0.16629 0.00314 0.06307 0.0
C128 C 0.9719 0.12774 1.00665 0.0
C129 C 0.01716 0.19381 0.01479 0.0
C130 C 0.9904 0.07891 0.00816 0.0
C131 C 0.0543 0.09587 0.01812 0.0
C132 C 0.1002 0.16265 0.0256 0.0
C133 C 0.08174 0.21156 0.02376 0.0
C134 C 0.08847 0.95767 0.99784 0.0
C135 C 0.12885 0.96042 0.02087 0.0
C136 C 0.06146 -0.00014 0.99744 0.0
C137 C 0.07391 0.04451 0.02027 0.0
C138 C 0.10908 0.04281 0.04444 0.0
C139 C 0.1364 0.00098 0.04476 0.0
H140 H 0.89388 0.83506 0.34559 0.0
H141 H 0.91776 0.03003 0.36269 0.0
H142 H -0.00299 0.86609 0.37068 0.0
H143 H 0.02124 0.0615 0.3892 0.0
H144 H 0.22518 0.11064 0.34408 0.0
H145 H 0.11648 0.08781 0.3609 0.0
H146 H 0.0881 0.90805 0.40302 0.0
H147 H 0.19809 0.93122 0.38506 0.0
C148 C 0.92045 0.88389 0.35583 0.0
C149 C 0.90014 0.93125 0.3516 0.0
C150 C 0.97909 0.90154 0.37072 0.0
C151 C 0.01892 0.9674 0.38106 0.0
C152 C 0.99261 0.01111 0.38064 0.0
C153 C 0.93389 0.99351 0.36541 0.0
C154 C 0.19607 0.06702 0.35744 0.0
C155 C 0.21755 0.02079 0.36226 0.0
C156 C 0.13417 0.05444 0.36769 0.0
C157 C 0.09232 0.9947 0.38259 0.0
C158 C 0.11846 0.95346 0.39088 0.0
C159 C 0.18087 0.96627 0.38053 0.0
H160 H 0.16131 0.01419 0.73641 0.0
H161 H 0.14818 0.94203 0.64963 0.0
H162 H 0.12773 0.09234 0.72008 0.0
H163 H 0.11317 0.02005 0.63315 0.0
H164 H 0.00984 0.17784 0.69825 0.0
H165 H 0.11066 0.17207 0.69103 0.0
H166 H -0.00586 0.97946 0.6496 0.0
H167 H 0.89244 0.98563 0.65689 0.0
C168 C 0.15484 0.01745 0.71356 0.0
C169 C 0.15211 0.96868 0.69456 0.0
C170 C 0.13571 0.06271 0.70407 0.0
C171 C 0.11414 0.05932 0.67557 0.0
C172 C 0.12717 0.02169 0.65546 0.0
C173 C 0.14687 0.97677 0.66496 0.0
C174 C 0.00521 0.13462 0.68733 0.0
C175 C 0.94256 0.08068 0.67928 0.0
C176 C 0.06366 0.13203 0.68271 0.0
C177 C 0.06038 0.07512 0.67015 0.0
C178 C -0.00141 0.0244 0.65923 0.0
C179 C 0.94009 0.02721 0.66384 0.0
H180 H 0.11723 0.05417 0.93268 0.0
H181 H 0.1977 0.98063 0.86745 0.0
H182 H 0.07985 0.10223 0.89647 0.0
H183 H 0.16507 0.0337 0.83048 0.0
H184 H 0.04883 0.22424 0.83272 0.0
H185 H 0.09712 0.1812 0.86634 0.0
H186 H 0.09588 0.04615 0.80095 0.0
H187 H 0.05305 0.09498 0.76653 0.0
C188 C 0.12808 0.04937 0.91041 0.0
C189 C 0.16101 0.01389 0.90309 0.0
C190 C 0.10719 0.07798 0.88928 0.0
C191 C 0.1201 0.07417 0.85983 0.0
C192 C 0.15299 0.03799 0.85255 0.0
C193 C 0.17236 0.00762 0.87384 0.0
C194 C 0.05994 0.18611 0.82535 0.0
C195 C 0.0462 0.16273 0.7969 0.0
C196 C 0.0867 0.15994 0.84499 0.0
C197 C 0.09868 0.10733 0.83734 0.0
C198 C 0.08803 0.08635 0.80827 0.0
C199 C 0.06308 0.11435 0.78827 0.0
H200 H 0.16486 0.1305 0.26315 0.0
H201 H 0.33063 0.32342 0.23901 0.0
H202 H 0.0951 0.14139 0.22648 0.0
H203 H 0.26074 0.33543 0.20319 0.0
H204 H 0.158 0.28574 0.11547 0.0
H205 H 0.21975 0.28747 0.15769 0.0
H206 H 0.03622 0.19583 0.2072 0.0
H207 H 0.9735 0.19283 0.16411 0.0
C208 C 0.186 0.17596 0.25051 0.0
C209 C 0.25375 0.22572 0.25385 0.0
C210 C 0.14584 0.18235 0.22947 0.0
C211 C 0.17231 0.23886 0.21137 0.0
C212 C 0.23885 0.29035 0.21609 0.0
C213 C 0.27899 0.28369 0.23685 0.0
C214 C 0.13062 0.26678 0.1354 0.0
C215 C 0.06061 0.23917 0.13627 0.0
C216 C 0.16633 0.26814 0.15984 0.0
C217 C 0.13338 0.24187 0.18613 0.0
C218 C 0.06339 0.216 0.18732 0.0
C219 C 0.02744 0.21495 0.1627 0.0
H220 H 0.80892 0.1101 0.5486 0.0
H221 H 0.65896 0.93655 0.59429 0.0
H222 H 0.76404 0.05316 0.5032 0.0
H223 H 0.61143 0.88052 0.54875 0.0
H224 H 0.63633 0.77117 0.47004 0.0
H225 H 0.64709 0.8297 0.51465 0.0
H226 H 0.67985 0.00488 0.46746 0.0
H227 H 0.6719 0.94666 0.42244 0.0
C228 C 0.76479 0.06063 0.54893 0.0
C229 C 0.73791 0.0275 0.57505 0.0
C230 C 0.73871 0.02792 0.5228 0.0
C231 C 0.68441 0.9617 0.52218 0.0
C232 C 0.65422 0.93084 0.54836 0.0
C233 C 0.68108 0.96312 0.57449 0.0
C234 C 0.64418 0.82161 0.46904 0.0
C235 C 0.65436 0.8545 0.44259 0.0
C236 C 0.65003 0.85529 0.49479 0.0
C237 C 0.66532 0.92259 0.49482 0.0
C238 C 0.66953 0.95358 0.46829 0.0
C239 C 0.6642 0.91992 0.44244 0.0
H240 H 0.81536 0.08458 0.87109 0.0
H241 H 0.93996 0.0527 0.93051 0.0
H242 H 0.83461 0.02056 0.83475 0.0
H243 H 0.96168 0.99001 0.89354 0.0
H244 H 0.9639 0.84724 0.82565 0.0
H245 H 0.93133 0.89767 0.86425 0.0
H246 H 0.90937 0.02435 0.80212 0.0
H247 H 0.93964 0.97256 0.76395 0.0
C248 C 0.84715 0.06392 0.87645 0.0
C249 C 0.87617 0.07428 0.90388 0.0
C250 C 0.85896 0.02746 0.8553 0.0
C251 C 0.90117 0.00059 0.86054 0.0
C252 C 0.92878 0.00937 0.88836 0.0
C253 C 0.91639 0.04556 0.90972 0.0
C254 C 0.95094 0.88508 0.82025 0.0
C255 C 0.95439 0.90561 0.79156 0.0
C256 C 0.93302 0.91487 0.84253 0.0
C257 C 0.91761 0.9659 0.83679 0.0
C258 C 0.91929 0.98463 0.80785 0.0
C259 C 0.93735 0.95511 0.78571 0.0
H260 H 0.89627 0.71955 0.22838 0.0
H261 H 0.05945 0.92163 0.24085 0.0
H262 H 0.96242 0.70118 0.19155 0.0
H263 H 0.12551 0.90303 0.20471 0.0
H264 H 0.25056 0.83583 0.15656 0.0
H265 H 0.18038 0.83195 0.19657 0.0
H266 H 0.00837 0.75132 0.14067 0.0
H267 H 0.07895 0.75582 0.10016 0.0
C268 C 0.94672 0.75947 0.22372 0.0
C269 C 0.97283 0.82194 0.23766 0.0
C270 C 0.9843 0.74915 0.20247 0.0
C271 C 0.04931 0.80056 0.19525 0.0
C272 C 0.07596 0.86212 0.20995 0.0
C273 C 0.03802 0.87285 0.23064 0.0
C274 C 0.19753 0.81592 0.15274 0.0
C275 C 0.17075 0.79674 0.12491 0.0
C276 C 0.15735 0.81407 0.17575 0.0
C277 C 0.08898 0.79218 0.17176 0.0
C278 C 0.06087 0.76831 0.14446 0.0
C279 C 0.10137 0.77086 0.12124 0.0
H280 H 0.14393 0.80832 0.56964 0.0
H281 H 0.32142 0.91296 0.62213 0.0
H282 H 0.2115 0.8547 0.52677 0.0
H283 H 0.38975 0.95799 0.57895 0.0
H284 H 0.45107 0.1095 0.50271 0.0
H285 H 0.40441 0.04298 0.54579 0.0
H286 H 0.29536 0.86463 0.49384 0.0
H287 H 0.34057 0.93183 0.45056 0.0
C288 C 0.1977 0.83975 0.57204 0.0
C289 C 0.22701 0.85767 0.59942 0.0
C290 C 0.23674 0.86618 0.54732 0.0
C291 C 0.30623 0.9109 0.5493 0.0
C292 C 0.33623 0.92481 0.57662 0.0
C293 C 0.29707 0.89857 0.60139 0.0
C294 C 0.41854 0.05584 0.50042 0.0
C295 C 0.39872 0.02631 0.4731 0.0
C296 C 0.39182 0.01744 0.52524 0.0
C297 C 0.345 0.94841 0.52338 0.0
C298 C 0.32996 0.9179 0.4961 0.0
C299 C 0.35637 0.9564 0.47125 0.0
H300 H 0.37114 0.86005 0.02755 0.0
H301 H 0.40372 0.01339 0.96616 0.0
H302 H 0.489 0.92511 0.04209 0.0
H303 H 0.52059 0.07863 0.98079 0.0
H304 H 0.73919 0.1279 0.9867 0.0
H305 H 0.62019 0.06967 0.97553 0.0
H306 H 0.57269 0.02907 0.06567 0.0
H307 H 0.69238 0.08644 0.07686 0.0
C308 C 0.40342 0.90795 0.01741 0.0
C309 C 0.37849 0.93171 0.99577 0.0
C310 C 0.47071 0.94535 0.02579 0.0
C311 C 0.5143 0.00693 0.01247 0.0
C312 C 0.48871 0.03095 0.99115 0.0
C313 C 0.42172 0.99363 0.9828 0.0
C314 C 0.70349 0.1072 1.0042 0.0
C315 C 0.72531 0.11192 0.03267 0.0
C316 C 0.63514 0.07396 0.99781 0.0
C317 C 0.58687 0.04464 0.01972 0.0
C318 C 0.60863 0.05039 0.04828 0.0
C319 C 0.67717 0.08372 0.0547 0.0
H320 H 0.44263 0.2906 0.31704 0.0
H321 H 0.52152 0.3041 0.40238 0.0
H322 H 0.51981 0.41029 0.31014 0.0
H323 H 0.59962 0.42285 0.39519 0.0
H324 H 0.70475 0.62147 0.30138 0.0
H325 H 0.63864 0.49917 0.30553 0.0
H326 H 0.58543 0.51969 0.39255 0.0
H327 H 0.65167 0.64026 0.3888 0.0
C328 C 0.47698 0.31892 0.33417 0.0
C329 C 0.47538 0.28818 0.36039 0.0
C330 C 0.52149 0.38733 0.33013 0.0
C331 C 0.56531 0.42608 0.35223 0.0
C332 C 0.56553 0.39457 0.37797 0.0
C333 C 0.52088 0.32647 0.38206 0.0
C334 C 0.67921 0.59971 0.32142 0.0
C335 C 0.68367 0.64077 0.34474 0.0
C336 C 0.64118 0.52978 0.32374 0.0
C337 C 0.60727 0.49986 0.34944 0.0
C338 C 0.61202 0.54105 0.37266 0.0
C339 C 0.64975 0.61045 0.37038 0.0
H340 H 0.94397 0.35309 0.63114 0.0
H341 H 0.96916 0.32763 0.72129 0.0
H342 H 0.94078 0.45457 0.64205 0.0
H343 H 0.96641 0.43083 0.73215 0.0
H344 H 0.04786 0.66973 0.71863 0.0
H345 H 0.0391 0.55947 0.71917 0.0
H346 H 0.85804 0.47947 0.66884 0.0
H347 H 0.86613 0.58962 0.66902 0.0
C348 C 0.94941 0.36936 0.65331 0.0
C349 C 0.95635 0.3318 0.67537 0.0
C350 C 0.94678 0.42722 0.65957 0.0
C351 C 0.95176 0.44965 0.688 0.0
C352 C 0.96173 0.41411 0.71007 0.0
C353 C 0.96352 0.3553 0.70383 0.0
C354 C 0.00398 0.62761 0.70928 0.0
C355 C 0.95645 0.63753 0.69459 0.0
C356 C -0.00048 0.56472 0.70922 0.0
C357 C 0.94827 0.51121 0.69383 0.0
C358 C 0.89837 0.52014 0.68069 0.0
C359 C 0.9026 0.58284 0.68096 0.0
H360 H 0.3743 0.1179 0.09393 0.0
H361 H 0.44402 0.97508 0.09553 0.0
H362 H 0.41378 0.15181 0.14258 0.0
H363 H 0.48599 0.01077 0.14416 0.0
H364 H 0.47167 0.19929 0.232 0.0
H365 H 0.492 0.196 0.18077 0.0
H366 H 0.42121 0.98359 0.18697 0.0
H367 H 0.40332 0.98749 0.23807 0.0
C368 C 0.40059 0.09565 0.10424 0.0
C369 C 0.40426 0.04243 0.09122 0.0
C370 C 0.42362 0.11533 0.13226 0.0
C371 C 0.45151 0.08271 0.14768 0.0
C372 C 0.46291 0.0355 0.13322 0.0
C373 C 0.43927 0.01535 0.10528 0.0
C374 C 0.46229 0.1523 0.22254 0.0
C375 C 0.43452 0.0933 0.239 0.0
C376 C 0.47366 0.15038 0.19312 0.0
C377 C 0.45706 0.08934 0.17953 0.0
C378 C 0.43515 0.03172 0.19659 0.0
C379 C 0.42431 0.03377 0.226 0.0
H380 H 0.30799 0.1894 0.4938 0.0
H381 H 0.1482 0.04953 0.4387 0.0
H382 H 0.22639 0.17742 0.52992 0.0
H383 H 0.06589 0.03705 0.47524 0.0
H384 H 0.95268 0.12243 0.52919 0.0
H385 H 0.02483 0.10891 0.49488 0.0
H386 H 0.14268 0.09895 0.56461 0.0
H387 H 0.06971 0.11271 0.59929 0.0
C388 C 0.25535 0.15588 0.48935 0.0
C389 C 0.23465 0.12099 0.46311 0.0
C390 C 0.20854 0.14836 0.51032 0.0
C391 C 0.13961 0.10601 0.50561 0.0
C392 C 0.11868 0.07036 0.47949 0.0
C393 C 0.16576 0.07758 0.45851 0.0
C394 C 0.99371 0.11688 0.53729 0.0
C395 C 0.00663 0.12035 0.56692 0.0
C396 C 0.03473 0.10846 0.51756 0.0
C397 C 0.09022 0.104 0.52693 0.0
C398 C 0.10101 0.10362 0.55671 0.0
C399 C 0.05915 0.11112 0.57657 0.0
H400 H 0.73203 0.12598 0.80459 0.0
H401 H 0.87447 0.31884 0.76938 0.0
H402 H 0.72977 0.17925 0.8491 0.0
H403 H 0.86979 0.3735 0.81358 0.0
H404 H 0.95798 0.38864 0.90579 0.0
H405 H 0.92283 0.378 0.85641 0.0
H406 H 0.7167 0.24763 0.88228 0.0
H407 H 0.75311 0.25562 0.93186 0.0
C408 C 0.76056 0.1802 0.80595 0.0
C409 C 0.80484 0.21807 0.78395 0.0
C410 C 0.75903 0.21123 0.83152 0.0
C411 C 0.80113 0.28094 0.8354 0.0
C412 C 0.8384 0.3196 0.81175 0.0
C413 C 0.84088 0.28834 0.78637 0.0
C414 C 0.90482 0.35977 0.90115 0.0
C415 C 0.85866 0.32049 0.92244 0.0
C416 C 0.88429 0.35376 0.87262 0.0
C417 C 0.81705 0.30909 0.86506 0.0
C418 C 0.76931 0.27995 0.88719 0.0
C419 C 0.79006 0.28497 0.91566 0.0
H420 H 0.9511 0.00541 0.09239 0.0
H421 H 0.74553 0.92851 0.06597 0.0
H422 H 0.91234 0.923 0.13124 0.0
H423 H 0.70733 0.84789 0.1052 0.0
H424 H 0.70385 0.84381 0.21007 0.0
H425 H 0.72702 0.89035 0.16146 0.0
H426 H 0.83628 0.78743 0.1426 0.0
H427 H 0.81139 0.73903 0.19077 0.0
C428 C 0.89797 0.96969 0.09432 0.0
C429 C 0.85141 0.97402 0.07634 0.0
C430 C 0.87584 0.92261 0.11651 0.0
C431 C 0.80688 0.87997 0.12128 0.0
C432 C 0.7607 0.88061 0.10196 0.0
C433 C 0.78281 0.92661 0.07943 0.0
C434 C 0.73098 0.82953 0.19524 0.0
C435 C 0.75549 0.78765 0.20414 0.0
C436 C 0.74417 0.85601 0.16749 0.0
C437 C 0.78343 0.84231 0.14845 0.0
C438 C 0.80573 0.7984 0.15692 0.0
C439 C 0.79107 0.77052 0.18441 0.0
H440 H 0.82018 0.97409 0.47164 0.0
H441 H 0.92855 0.87801 0.44048 0.0
H442 H 0.85713 0.97196 0.52046 0.0
H443 H 0.96653 0.87699 0.48948 0.0
H444 H 0.84871 0.84002 0.60107 0.0
H445 H 0.8272 0.87126 0.5538 0.0
H446 H 0.03608 0.95484 0.53156 0.0
H447 H 0.05824 0.92601 0.57915 0.0
C448 C 0.85307 0.95374 0.4751 0.0
C449 C 0.87117 0.92579 0.45218 0.0
C450 C 0.87387 0.95224 0.50313 0.0
C451 C 0.91442 0.92403 0.50882 0.0
C452 C 0.93552 0.89934 0.48571 0.0
C453 C 0.91358 0.8996 0.45769 0.0
C454 C 0.89034 0.86668 0.58638 0.0
C455 C 0.95501 0.88017 0.59383 0.0
C456 C 0.87808 0.88463 0.55932 0.0
C457 C 0.92991 0.91497 0.53889 0.0
C458 C -0.00484 0.93122 0.54681 0.0
C459 C 0.0078 0.91499 0.57414 0.0
H460 H 0.91994 0.57814 0.80599 0.0
H461 H 0.13375 0.70105 0.7932 0.0
H462 H 0.93964 0.53834 0.85137 0.0
H463 H 0.15346 0.66274 0.83833 0.0
H464 H 0.19906 0.65782 0.92186 0.0
H465 H 0.14966 0.59409 0.87806 0.0
H466 H 0.97491 0.61479 0.89157 0.0
H467 H 0.02358 0.67699 0.93524 0.0
C468 C 0.97115 0.59502 0.81238 0.0
C469 C 0.02541 0.64524 0.79684 0.0
C470 C 0.98239 0.57197 0.83834 0.0
C471 C 0.04795 0.59921 0.84909 0.0
C472 C 0.10212 0.64094 0.83106 0.0
C473 C 0.0909 0.66392 0.80521 0.0
C474 C 0.14865 0.64583 0.91622 0.0
C475 C 0.11649 0.67526 0.93107 0.0
C476 C 0.12033 0.60926 0.89106 0.0
C477 C 0.05998 0.60234 0.88053 0.0
C478 C 0.02214 0.62015 0.8986 0.0
C479 C 0.05039 0.65664 0.92366 0.0
loop_
_geom_bond_atom_site_label_1
_geom_bond_atom_site_label_2
_geom_bond_distance
_geom_bond_site_symmetry_2
_ccdc_geom_bond_type
Zn0 O6 1.969 . S
Zn0 O7 1.965 . S
Zn0 O11 2.024 1_545 S
Zn0 O16 1.969 . S
Zn1 O8 1.969 . S
Zn1 O14 1.969 1_545 S
Zn1 O15 1.966 . S
Zn1 O17 2.024 . S
C2 O3 1.229 . S
C2 O11 1.058 . S
O3 C2 1.229 . S
C4 O5 1.229 . S
C4 O17 1.058 . S
O5 C4 1.229 . S
O6 Zn0 1.969 . S
O6 C9 1.267 . S
O7 Zn0 1.965 . S
O7 C18 1.260 1_556 S
O8 Zn1 1.969 . S
O8 C18 1.258 . S
C9 O6 1.267 . S
C9 O10 1.228 . S
O10 C9 1.228 . S
O11 Zn0 2.024 1_565 S
O11 C2 1.058 . S
C12 O13 1.228 . S
C12 O14 1.267 . S
O13 C12 1.228 . S
O14 Zn1 1.969 1_565 S
O14 C12 1.267 . S
O15 Zn1 1.966 . S
O15 C19 1.260 . S
O16 Zn0 1.969 . S
O16 C19 1.258 1_556 S
O17 Zn1 2.024 . S
O17 C4 1.058 . S
C18 O7 1.260 1_554 S
C18 O8 1.258 . S
C19 O15 1.260 . S
C19 O16 1.258 1_554 S
Zn20 O26 1.969 . S
Zn20 O27 1.965 . S
Zn20 O31 2.024 . S
Zn20 O36 1.969 . S
Zn21 O28 1.969 . S
Zn21 O34 1.969 . S
Zn21 O35 1.965 . S
Zn21 O37 2.024 . S
C22 O23 1.229 . S
C22 O31 1.058 . S
O23 C22 1.229 . S
C24 O25 1.229 . S
C24 O37 1.058 . S
O25 C24 1.229 . S
O26 Zn20 1.969 . S
O26 C29 1.267 . S
O27 Zn20 1.965 . S
O27 C38 1.260 . S
O28 Zn21 1.969 . S
O28 C38 1.258 . S
C29 O26 1.267 . S
C29 O30 1.228 . S
O30 C29 1.228 . S
O31 Zn20 2.024 . S
O31 C22 1.058 . S
C32 O33 1.228 . S
C32 O34 1.267 . S
O33 C32 1.228 . S
O34 Zn21 1.969 . S
O34 C32 1.267 . S
O35 Zn21 1.965 . S
O35 C39 1.260 . S
O36 Zn20 1.969 . S
O36 C39 1.258 . S
O37 Zn21 2.024 . S
O37 C24 1.058 . S
C38 O27 1.260 . S
C38 O28 1.258 . S
C39 O35 1.260 . S
C39 O36 1.258 . S
Zn40 O46 1.969 . S
Zn40 O47 1.965 . S
Zn40 O51 2.024 1_655 S
Zn40 O56 1.969 1_655 S
Zn41 O48 1.969 . S
Zn41 O54 1.969 . S
Zn41 O55 1.965 . S
Zn41 O57 2.024 1_455 S
C42 O43 1.229 . S
C42 O51 1.058 . S
O43 C42 1.229 . S
C44 O45 1.229 . S
C44 O57 1.058 . S
O45 C44 1.229 . S
O46 Zn40 1.969 . S
O46 C49 1.267 . S
O47 Zn40 1.965 . S
O47 C58 1.260 . S
O48 Zn41 1.969 . S
O48 C58 1.258 1_455 S
C49 O46 1.267 . S
C49 O50 1.228 . S
O50 C49 1.228 . S
O51 Zn40 2.024 1_455 S
O51 C42 1.058 . S
C52 O53 1.228 . S
C52 O54 1.267 . S
O53 C52 1.228 . S
O54 Zn41 1.969 . S
O54 C52 1.267 . S
O55 Zn41 1.965 . S
O55 C59 1.260 . S
O56 Zn40 1.969 1_455 S
O56 C59 1.258 . S
O57 Zn41 2.024 1_655 S
O57 C44 1.058 . S
C58 O47 1.260 . S
C58 O48 1.258 1_655 S
C59 O55 1.260 . S
C59 O56 1.258 . S
Zn60 O66 1.969 . S
Zn60 O67 1.965 . S
Zn60 O71 2.024 1_545 S
Zn60 O76 1.969 . S
Zn61 O68 1.969 . S
Zn61 O74 1.969 1_545 S
Zn61 O75 1.964 . S
Zn61 O77 2.024 . S
C62 O63 1.229 . S
C62 O71 1.058 . S
O63 C62 1.229 . S
C64 O65 1.229 . S
C64 O77 1.058 . S
O65 C64 1.229 . S
O66 Zn60 1.969 . S
O66 C69 1.267 . S
O67 Zn60 1.965 . S
O67 C78 1.260 . S
O68 Zn61 1.969 . S
O68 C78 1.258 1_556 S
C69 O66 1.267 . S
C69 O70 1.228 . S
O70 C69 1.228 . S
O71 Zn60 2.024 1_565 S
O71 C62 1.058 . S
C72 O73 1.228 . S
C72 O74 1.267 . S
O73 C72 1.228 . S
O74 Zn61 1.969 1_565 S
O74 C72 1.267 . S
O75 Zn61 1.964 . S
O75 C79 1.267 1_556 S
O76 Zn60 1.969 . S
O76 C79 1.258 . S
O77 Zn61 2.024 . S
O77 C64 1.058 . S
C78 O67 1.260 . S
C78 O68 1.258 1_554 S
C79 O75 1.267 1_554 S
C79 O76 1.258 . S
Zn80 O86 1.969 . S
Zn80 O87 1.965 . S
Zn80 O91 2.024 . S
Zn80 O96 1.969 . S
Zn81 O88 1.969 . S
Zn81 O94 1.969 . S
Zn81 O95 1.965 . S
Zn81 O97 2.024 . S
C82 O83 1.229 . S
C82 O91 1.058 . S
O83 C82 1.229 . S
C84 O85 1.229 . S
C84 O97 1.058 . S
O85 C84 1.229 . S
O86 Zn80 1.969 . S
O86 C89 1.267 . S
O87 Zn80 1.965 . S
O87 C98 1.260 . S
O88 Zn81 1.969 . S
O88 C98 1.258 . S
C89 O86 1.267 . S
C89 O90 1.228 . S
O90 C89 1.228 . S
O91 Zn80 2.024 . S
O91 C82 1.058 . S
C92 O93 1.228 . S
C92 O94 1.267 . S
O93 C92 1.228 . S
O94 Zn81 1.969 . S
O94 C92 1.267 . S
O95 Zn81 1.965 . S
O95 C99 1.260 . S
O96 Zn80 1.969 . S
O96 C99 1.258 . S
O97 Zn81 2.024 . S
O97 C84 1.058 . S
C98 O87 1.260 . S
C98 O88 1.258 . S
C99 O95 1.260 . S
C99 O96 1.258 . S
Zn100 O106 1.969 . S
Zn100 O107 1.965 . S
Zn100 O111 2.024 1_655 S
Zn100 O116 1.969 1_655 S
Zn101 O108 1.969 . S
Zn101 O114 1.969 . S
Zn101 O115 1.965 . S
Zn101 O117 2.024 1_455 S
C102 O103 1.229 . S
C102 O111 1.058 . S
O103 C102 1.229 . S
C104 O105 1.229 . S
C104 O117 1.058 . S
O105 C104 1.229 . S
O106 Zn100 1.969 . S
O106 C109 1.267 . S
O107 Zn100 1.965 . S
O107 C118 1.260 . S
O108 Zn101 1.969 . S
O108 C118 1.258 1_455 S
C109 O106 1.267 . S
C109 O110 1.228 . S
O110 C109 1.228 . S
O111 Zn100 2.024 1_455 S
O111 C102 1.058 . S
C112 O113 1.228 . S
C112 O114 1.267 . S
O113 C112 1.228 . S
O114 Zn101 1.969 . S
O114 C112 1.267 . S
O115 Zn101 1.965 . S
O115 C119 1.260 . S
O116 Zn100 1.969 1_455 S
O116 C119 1.258 . S
O117 Zn101 2.024 1_655 S
O117 C104 1.058 . S
C118 O107 1.260 . S
C118 O108 1.258 1_655 S
C119 O115 1.260 . S
C119 O116 1.258 . S
H120 C128 0.950 . S
H121 C133 0.950 . S
H122 C130 0.950 1_556 S
H123 C132 0.950 . S
H124 C134 0.950 . S
H125 C136 0.950 . S
H126 C138 0.950 1_556 S
H127 C139 0.950 . S
C128 H120 0.950 . S
C128 C129 1.386 1_565 S
C128 C130 1.391 . S
C129 C128 1.386 1_545 S
C129 C133 1.393 . S
C130 H122 0.950 1_554 S
C130 C128 1.391 . S
C130 C131 1.400 1_665 S
C131 C130 1.400 1_445 S
C131 C132 1.398 . S
C131 C137 1.491 . S
C132 H123 0.950 . S
C132 C131 1.398 . S
C132 C133 1.391 1_455 S
C133 H121 0.950 . S
C133 C129 1.393 . S
C133 C132 1.391 1_655 S
C134 H124 0.950 . S
C134 C135 1.386 . S
C134 C136 1.391 . S
C135 C134 1.386 . S
C135 C139 1.393 1_544 S
C136 H125 0.950 . S
C136 C134 1.391 . S
C136 C137 1.400 . S
C137 C131 1.491 . S
C137 C136 1.400 . S
C137 C138 1.398 1_545 S
C138 H126 0.950 1_554 S
C138 C137 1.398 1_565 S
C138 C139 1.391 1_554 S
C139 H127 0.950 . S
C139 C135 1.393 1_566 S
C139 C138 1.391 1_556 S
H140 C148 0.950 . S
H141 C153 0.950 . S
H142 C150 0.950 . S
H143 C152 0.950 . S
H144 C154 0.950 . S
H145 C156 0.950 . S
H146 C158 0.950 . S
H147 C159 0.950 . S
C148 H140 0.950 . S
C148 C149 1.386 . S
C148 C150 1.391 1_655 S
C149 C148 1.386 . S
C149 C153 1.393 . S
C150 H142 0.950 . S
C150 C148 1.391 1_455 S
C150 C151 1.400 . S
C151 C150 1.400 . S
C151 C152 1.398 . S
C151 C157 1.491 1_565 S
C152 H143 0.950 . S
C152 C151 1.398 . S
C152 C153 1.391 1_455 S
C153 H141 0.950 . S
C153 C149 1.393 . S
C153 C152 1.391 1_655 S
C154 H144 0.950 . S
C154 C155 1.386 . S
C154 C156 1.391 . S
C155 C154 1.386 . S
C155 C159 1.393 . S
C156 H145 0.950 . S
C156 C154 1.391 . S
C156 C157 1.400 . S
C157 C151 1.491 1_545 S
C157 C156 1.400 . S
C157 C158 1.398 . S
C158 H146 0.950 . S
C158 C157 1.398 . S
C158 C159 1.391 . S
C159 H147 0.950 . S
C159 C155 1.393 . S
C159 C158 1.391 . S
H160 C168 0.950 . S
H161 C173 0.950 . S
H162 C170 0.950 . S
H163 C172 0.950 . S
H164 C174 0.950 . S
H165 C176 0.950 . S
H166 C178 0.950 . S
H167 C179 0.950 . S
C168 H160 0.950 . S
C168 C169 1.386 1_655 S
C168 C170 1.391 . S
C169 C168 1.386 1_455 S
C169 C173 1.393 . S
C170 H162 0.950 . S
C170 C168 1.391 . S
C170 C171 1.401 1_655 S
C171 C170 1.401 1_455 S
C171 C172 1.406 . S
C171 C177 1.483 1_465 S
C172 H163 0.950 . S
C172 C171 1.406 . S
C172 C173 1.391 . S
C173 H161 0.950 . S
C173 C169 1.393 . S
C173 C172 1.391 . S
C174 H164 0.950 . S
C174 C175 1.386 1_455 S
C174 C176 1.391 . S
C175 C174 1.386 1_655 S
C175 C179 1.393 . S
C176 H165 0.950 . S
C176 C174 1.391 . S
C176 C177 1.400 1_455 S
C177 C171 1.483 1_645 S
C177 C176 1.400 1_655 S
C177 C178 1.398 . S
C178 H166 0.950 . S
C178 C177 1.398 . S
C178 C179 1.391 . S
C179 H167 0.950 . S
C179 C175 1.393 . S
C179 C178 1.391 . S
H180 C188 0.950 . S
H181 C193 0.950 . S
H182 C190 0.950 . S
H183 C192 0.950 . S
H184 C194 0.950 . S
H185 C196 0.950 . S
H186 C198 0.950 . S
H187 C199 0.950 . S
C188 H180 0.950 . S
C188 C189 1.386 . S
C188 C190 1.391 . S
C189 C188 1.386 . S
C189 C193 1.393 . S
C190 H182 0.950 . S
C190 C188 1.391 . S
C190 C191 1.400 . S
C191 C190 1.400 . S
C191 C192 1.398 . S
C191 C197 1.491 . S
C192 H183 0.950 . S
C192 C191 1.398 . S
C192 C193 1.391 . S
C193 H181 0.950 . S
C193 C189 1.393 . S
C193 C192 1.391 . S
C194 H184 0.950 . S
C194 C195 1.386 . S
C194 C196 1.391 . S
C195 C194 1.386 . S
C195 C199 1.393 . S
C196 H185 0.950 . S
C196 C194 1.391 . S
C196 C197 1.400 . S
C197 C191 1.491 . S
C197 C196 1.400 . S
C197 C198 1.398 . S
C198 H186 0.950 . S
C198 C197 1.398 . S
C198 C199 1.391 . S
C199 H187 0.950 . S
C199 C195 1.393 . S
C199 C198 1.391 . S
H200 C208 0.950 . S
H201 C213 0.950 . S
H202 C210 0.950 . S
H203 C212 0.950 . S
H204 C214 0.950 . S
H205 C216 0.950 . S
H206 C218 0.950 . S
H207 C219 0.950 . S
C208 H200 0.950 . S
C208 C209 1.386 . S
C208 C210 1.391 . S
C209 C208 1.386 . S
C209 C213 1.393 . S
C210 H202 0.950 . S
C210 C208 1.391 . S
C210 C211 1.400 . S
C211 C210 1.400 . S
C211 C212 1.398 . S
C211 C217 1.491 . S
C212 H203 0.950 . S
C212 C211 1.398 . S
C212 C213 1.391 . S
C213 H201 0.950 . S
C213 C209 1.393 . S
C213 C212 1.391 . S
C214 H204 0.950 . S
C214 C215 1.386 1_455 S
C214 C216 1.391 . S
C215 C214 1.386 1_655 S
C215 C219 1.393 . S
C216 H205 0.950 . S
C216 C214 1.391 . S
C216 C217 1.400 . S
C217 C211 1.491 . S
C217 C216 1.400 . S
C217 C218 1.398 1_455 S
C218 H206 0.950 . S
C218 C217 1.398 1_655 S
C218 C219 1.391 . S
C219 H207 0.950 . S
C219 C215 1.393 . S
C219 C218 1.391 . S
H220 C228 0.950 . S
H221 C233 0.950 1_565 S
H222 C230 0.950 . S
H223 C232 0.950 . S
H224 C234 0.950 . S
H225 C236 0.950 . S
H226 C238 0.950 1_545 S
H227 C239 0.950 . S
C228 H220 0.950 . S
C228 C229 1.386 . S
C228 C230 1.391 . S
C229 C228 1.386 . S
C229 C233 1.393 . S
C230 H222 0.950 . S
C230 C228 1.391 . S
C230 C231 1.400 1_545 S
C231 C230 1.400 1_565 S
C231 C232 1.398 . S
C231 C237 1.491 . S
C232 H223 0.950 . S
C232 C231 1.398 . S
C232 C233 1.391 1_565 S
C233 H221 0.950 1_545 S
C233 C229 1.393 . S
C233 C232 1.391 1_545 S
C234 H224 0.950 . S
C234 C235 1.386 . S
C234 C236 1.391 . S
C235 C234 1.386 . S
C235 C239 1.393 . S
C236 H225 0.950 . S
C236 C234 1.391 . S
C236 C237 1.400 . S
C237 C231 1.491 . S
C237 C236 1.400 . S
C237 C238 1.398 . S
C238 H226 0.950 1_565 S
C238 C237 1.398 . S
C238 C239 1.391 . S
C239 H227 0.950 . S
C239 C235 1.393 . S
C239 C238 1.391 . S
H240 C248 0.950 . S
H241 C253 0.950 . S
H242 C250 0.950 . S
H243 C252 0.950 . S
H244 C254 0.950 . S
H245 C256 0.950 . S
H246 C258 0.950 . S
H247 C259 0.950 . S
C248 H240 0.950 . S
C248 C249 1.386 . S
C248 C250 1.391 . S
C249 C248 1.386 . S
C249 C253 1.393 . S
C250 H242 0.950 . S
C250 C248 1.391 . S
C250 C251 1.400 . S
C251 C250 1.400 . S
C251 C252 1.398 . S
C251 C257 1.491 . S
C252 H243 0.950 . S
C252 C251 1.398 . S
C252 C253 1.391 . S
C253 H241 0.950 . S
C253 C249 1.393 . S
C253 C252 1.391 . S
C254 H244 0.950 . S
C254 C255 1.386 . S
C254 C256 1.391 . S
C255 C254 1.386 . S
C255 C259 1.393 . S
C256 H245 0.950 . S
C256 C254 1.391 . S
C256 C257 1.400 . S
C257 C251 1.491 . S
C257 C256 1.400 . S
C257 C258 1.398 . S
C258 H246 0.950 . S
C258 C257 1.398 . S
C258 C259 1.391 . S
C259 H247 0.950 . S
C259 C255 1.393 . S
C259 C258 1.391 . S
H260 C268 0.950 . S
H261 C273 0.950 . S
H262 C270 0.950 . S
H263 C272 0.950 . S
H264 C274 0.950 . S
H265 C276 0.950 . S
H266 C278 0.950 . S
H267 C279 0.950 . S
C268 H260 0.950 . S
C268 C269 1.386 . S
C268 C270 1.391 1_655 S
C269 C268 1.386 . S
C269 C273 1.393 1_655 S
C270 H262 0.950 . S
C270 C268 1.391 1_455 S
C270 C271 1.400 . S
C271 C270 1.400 . S
C271 C272 1.398 . S
C271 C277 1.491 . S
C272 H263 0.950 . S
C272 C271 1.398 . S
C272 C273 1.391 . S
C273 H261 0.950 . S
C273 C269 1.393 1_455 S
C273 C272 1.391 . S
C274 H264 0.950 . S
C274 C275 1.386 . S
C274 C276 1.391 . S
C275 C274 1.386 . S
C275 C279 1.393 . S
C276 H265 0.950 . S
C276 C274 1.391 . S
C276 C277 1.400 . S
C277 C271 1.491 . S
C277 C276 1.400 . S
C277 C278 1.398 . S
C278 H266 0.950 . S
C278 C277 1.398 . S
C278 C279 1.391 . S
C279 H267 0.950 . S
C279 C275 1.393 . S
C279 C278 1.391 . S
H280 C288 0.950 . S
H281 C293 0.950 . S
H282 C290 0.950 . S
H283 C292 0.950 . S
H284 C294 0.950 . S
H285 C296 0.950 1_565 S
H286 C298 0.949 . S
H287 C299 0.950 . S
C288 H280 0.950 . S
C288 C289 1.386 . S
C288 C290 1.391 . S
C289 C288 1.386 . S
C289 C293 1.393 . S
C290 H282 0.950 . S
C290 C288 1.391 . S
C290 C291 1.400 . S
C291 C290 1.400 . S
C291 C292 1.398 . S
C291 C297 1.491 . S
C292 H283 0.950 . S
C292 C291 1.398 . S
C292 C293 1.391 . S
C293 H281 0.950 . S
C293 C289 1.393 . S
C293 C292 1.391 . S
C294 H284 0.950 . S
C294 C295 1.386 . S
C294 C296 1.391 . S
C295 C294 1.386 . S
C295 C299 1.393 . S
C296 H285 0.950 1_545 S
C296 C294 1.391 . S
C296 C297 1.400 1_545 S
C297 C291 1.491 . S
C297 C296 1.400 1_565 S
C297 C298 1.404 . S
C298 H286 0.949 . S
C298 C297 1.404 . S
C298 C299 1.386 1_565 S
C299 H287 0.950 . S
C299 C295 1.393 . S
C299 C298 1.386 1_545 S
H300 C308 0.950 . S
H301 C313 0.950 . S
H302 C310 0.950 . S
H303 C312 0.949 1_565 S
H304 C314 0.950 . S
H305 C316 0.950 . S
H306 C318 0.950 . S
H307 C319 0.950 . S
C308 H300 0.950 . S
C308 C309 1.386 . S
C308 C310 1.391 . S
C309 C308 1.386 . S
C309 C313 1.393 1_554 S
C310 H302 0.950 . S
C310 C308 1.391 . S
C310 C311 1.400 . S
C311 C310 1.400 . S
C311 C312 1.398 1_554 S
C311 C317 1.491 . S
C312 H303 0.949 1_545 S
C312 C311 1.398 1_556 S
C312 C313 1.391 . S
C313 H301 0.950 . S
C313 C309 1.393 1_556 S
C313 C312 1.391 . S
C314 H304 0.950 . S
C314 C315 1.386 1_556 S
C314 C316 1.391 . S
C315 C314 1.386 1_554 S
C315 C319 1.393 . S
C316 H305 0.950 . S
C316 C314 1.391 . S
C316 C317 1.400 1_556 S
C317 C311 1.491 . S
C317 C316 1.400 1_554 S
C317 C318 1.398 . S
C318 H306 0.950 . S
C318 C317 1.398 . S
C318 C319 1.391 . S
C319 H307 0.950 . S
C319 C315 1.393 . S
C319 C318 1.391 . S
H320 C328 0.950 . S
H321 C333 0.950 . S
H322 C330 0.950 . S
H323 C332 0.950 . S
H324 C334 0.950 . S
H325 C336 0.950 . S
H326 C338 0.950 . S
H327 C339 0.950 . S
C328 H320 0.950 . S
C328 C329 1.386 . S
C328 C330 1.391 . S
C329 C328 1.386 . S
C329 C333 1.393 . S
C330 H322 0.950 . S
C330 C328 1.391 . S
C330 C331 1.400 . S
C331 C330 1.400 . S
C331 C332 1.398 . S
C331 C337 1.491 . S
C332 H323 0.950 . S
C332 C331 1.398 . S
C332 C333 1.391 . S
C333 H321 0.950 . S
C333 C329 1.393 . S
C333 C332 1.391 . S
C334 H324 0.950 . S
C334 C335 1.386 . S
C334 C336 1.391 . S
C335 C334 1.386 . S
C335 C339 1.393 . S
C336 H325 0.950 . S
C336 C334 1.391 . S
C336 C337 1.400 . S
C337 C331 1.491 . S
C337 C336 1.400 . S
C337 C338 1.398 . S
C338 H326 0.950 . S
C338 C337 1.398 . S
C338 C339 1.391 . S
C339 H327 0.950 . S
C339 C335 1.393 . S
C339 C338 1.391 . S
H340 C348 0.950 1_655 S
H341 C353 0.950 . S
H342 C350 0.950 1_655 S
H343 C352 0.950 . S
H344 C354 0.950 . S
H345 C356 0.950 . S
H346 C358 0.950 . S
H347 C359 0.950 . S
C348 H340 0.950 1_455 S
C348 C349 1.386 . S
C348 C350 1.391 . S
C349 C348 1.386 . S
C349 C353 1.393 . S
C350 H342 0.950 1_455 S
C350 C348 1.391 . S
C350 C351 1.400 . S
C351 C350 1.400 . S
C351 C352 1.398 . S
C351 C357 1.491 . S
C352 H343 0.950 . S
C352 C351 1.398 . S
C352 C353 1.391 . S
C353 H341 0.950 . S
C353 C349 1.393 . S
C353 C352 1.391 . S
C354 H344 0.950 . S
C354 C355 1.386 . S
C354 C356 1.391 . S
C355 C354 1.386 . S
C355 C359 1.393 1_455 S
C356 H345 0.950 . S
C356 C354 1.391 . S
C356 C357 1.400 . S
C357 C351 1.491 . S
C357 C356 1.400 . S
C357 C358 1.398 1_455 S
C358 H346 0.950 . S
C358 C357 1.398 1_655 S
C358 C359 1.391 . S
C359 H347 0.950 . S
C359 C355 1.393 1_655 S
C359 C358 1.391 . S
H360 C368 0.950 . S
H361 C373 0.950 . S
H362 C370 0.950 . S
H363 C372 0.950 . S
H364 C374 0.950 . S
H365 C376 0.950 . S
H366 C378 0.950 . S
H367 C379 0.950 . S
C368 H360 0.950 . S
C368 C369 1.386 . S
C368 C370 1.391 . S
C369 C368 1.386 . S
C369 C373 1.393 . S
C370 H362 0.950 . S
C370 C368 1.391 . S
C370 C371 1.400 . S
C371 C370 1.400 . S
C371 C372 1.398 . S
C371 C377 1.491 . S
C372 H363 0.950 . S
C372 C371 1.398 . S
C372 C373 1.391 . S
C373 H361 0.950 . S
C373 C369 1.393 . S
C373 C372 1.391 . S
C374 H364 0.950 . S
C374 C375 1.386 . S
C374 C376 1.391 . S
C375 C374 1.386 . S
C375 C379 1.393 . S
C376 H365 0.950 . S
C376 C374 1.391 . S
C376 C377 1.400 . S
C377 C371 1.491 . S
C377 C376 1.400 . S
C377 C378 1.398 . S
C378 H366 0.950 . S
C378 C377 1.398 . S
C378 C379 1.391 . S
C379 H367 0.950 . S
C379 C375 1.393 . S
C379 C378 1.391 . S
H380 C388 0.950 . S
H381 C393 0.950 . S
H382 C390 0.950 . S
H383 C392 0.950 . S
H384 C394 0.950 . S
H385 C396 0.950 . S
H386 C398 0.950 . S
H387 C399 0.950 . S
C388 H380 0.950 . S
C388 C389 1.386 . S
C388 C390 1.391 . S
C389 C388 1.386 . S
C389 C393 1.393 . S
C390 H382 0.950 . S
C390 C388 1.391 . S
C390 C391 1.400 . S
C391 C390 1.400 . S
C391 C392 1.398 . S
C391 C397 1.491 . S
C392 H383 0.950 . S
C392 C391 1.398 . S
C392 C393 1.391 . S
C393 H381 0.950 . S
C393 C389 1.393 . S
C393 C392 1.391 . S
C394 H384 0.950 . S
C394 C395 1.386 . S
C394 C396 1.391 . S
C395 C394 1.386 . S
C395 C399 1.393 . S
C396 H385 0.950 . S
C396 C394 1.391 . S
C396 C397 1.400 . S
C397 C391 1.491 . S
C397 C396 1.400 . S
C397 C398 1.398 . S
C398 H386 0.950 . S
C398 C397 1.398 . S
C398 C399 1.391 . S
C399 H387 0.950 . S
C399 C395 1.393 . S
C399 C398 1.391 . S
H400 C408 0.950 . S
H401 C413 0.950 . S
H402 C410 0.950 . S
H403 C412 0.950 . S
H404 C414 0.950 1_455 S
H405 C416 0.950 . S
H406 C418 0.950 . S
H407 C419 0.950 . S
C408 H400 0.950 . S
C408 C409 1.386 . S
C408 C410 1.391 . S
C409 C408 1.386 . S
C409 C413 1.393 . S
C410 H402 0.950 . S
C410 C408 1.391 . S
C410 C411 1.400 . S
C411 C410 1.400 . S
C411 C412 1.398 . S
C411 C417 1.491 . S
C412 H403 0.950 . S
C412 C411 1.398 . S
C412 C413 1.391 . S
C413 H401 0.950 . S
C413 C409 1.393 . S
C413 C412 1.391 . S
C414 H404 0.950 1_655 S
C414 C415 1.386 . S
C414 C416 1.391 . S
C415 C414 1.386 . S
C415 C419 1.393 . S
C416 H405 0.950 . S
C416 C414 1.391 . S
C416 C417 1.400 . S
C417 C411 1.491 . S
C417 C416 1.400 . S
C417 C418 1.398 . S
C418 H406 0.950 . S
C418 C417 1.398 . S
C418 C419 1.391 . S
C419 H407 0.950 . S
C419 C415 1.393 . S
C419 C418 1.391 . S
H420 C428 0.950 . S
H421 C433 0.961 . S
H422 C430 0.950 . S
H423 C432 0.950 . S
H424 C434 0.950 . S
H425 C436 0.950 . S
H426 C438 0.950 . S
H427 C439 0.950 . S
C428 H420 0.950 . S
C428 C429 1.386 . S
C428 C430 1.391 . S
C429 C428 1.386 . S
C429 C433 1.393 . S
C430 H422 0.950 . S
C430 C428 1.391 . S
C430 C431 1.400 . S
C431 C430 1.400 . S
C431 C432 1.398 . S
C431 C437 1.491 . S
C432 H423 0.950 . S
C432 C431 1.398 . S
C432 C433 1.391 . S
C433 H421 0.961 . S
C433 C429 1.393 . S
C433 C432 1.391 . S
C434 H424 0.950 . S
C434 C435 1.386 . S
C434 C436 1.391 . S
C435 C434 1.386 . S
C435 C439 1.393 . S
C436 H425 0.950 . S
C436 C434 1.391 . S
C436 C437 1.400 . S
C437 C431 1.491 . S
C437 C436 1.400 . S
C437 C438 1.398 . S
C438 H426 0.950 . S
C438 C437 1.398 . S
C438 C439 1.391 . S
C439 H427 0.950 . S
C439 C435 1.393 . S
C439 C438 1.391 . S
H440 C448 0.950 1_455 S
H441 C453 0.950 . S
H442 C450 0.950 . S
H443 C452 0.950 . S
H444 C454 0.950 . S
H445 C456 0.950 . S
H446 C458 0.950 . S
H447 C459 0.950 . S
C448 H440 0.950 1_655 S
C448 C449 1.386 . S
C448 C450 1.391 . S
C449 C448 1.386 . S
C449 C453 1.393 . S
C450 H442 0.950 . S
C450 C448 1.391 . S
C450 C451 1.400 . S
C451 C450 1.400 . S
C451 C452 1.398 . S
C451 C457 1.491 . S
C452 H443 0.950 . S
C452 C451 1.398 . S
C452 C453 1.391 . S
C453 H441 0.950 . S
C453 C449 1.393 . S
C453 C452 1.391 . S
C454 H444 0.950 . S
C454 C455 1.386 . S
C454 C456 1.391 . S
C455 C454 1.386 . S
C455 C459 1.393 . S
C456 H445 0.950 . S
C456 C454 1.391 . S
C456 C457 1.400 . S
C457 C451 1.491 . S
C457 C456 1.400 . S
C457 C458 1.398 . S
C458 H446 0.950 . S
C458 C457 1.398 . S
C458 C459 1.391 . S
C459 H447 0.950 . S
C459 C455 1.393 . S
C459 C458 1.391 . S
H460 C468 0.950 . S
H461 C473 0.950 . S
H462 C470 0.950 . S
H463 C472 0.950 . S
H464 C474 0.950 . S
H465 C476 0.950 . S
H466 C478 0.950 . S
H467 C479 0.950 . S
C468 H460 0.950 . S
C468 C469 1.386 . S
C468 C470 1.391 . S
C469 C468 1.386 . S
C469 C473 1.393 . S
C470 H462 0.950 . S
C470 C468 1.391 . S
C470 C471 1.400 . S
C471 C470 1.400 . S
C471 C472 1.398 . S
C471 C477 1.491 . S
C472 H463 0.950 . S
C472 C471 1.398 . S
C472 C473 1.391 . S
C473 H461 0.950 . S
C473 C469 1.393 . S
C473 C472 1.391 . S
C474 H464 0.950 . S
C474 C475 1.386 . S
C474 C476 1.391 . S
C475 C474 1.386 . S
C475 C479 1.393 . S
C476 H465 0.950 . S
C476 C474 1.391 . S
C476 C477 1.400 . S
C477 C471 1.491 . S
C477 C476 1.400 . S
C477 C478 1.398 . S
C478 H466 0.950 . S
C478 C477 1.398 . S
C478 C479 1.391 . S
C479 H467 0.950 . S
C479 C475 1.393 . S
C479 C478 1.391 . S
C129 C78 0.740 . S
C135 C18 0.745 . S
C149 C98 0.758 . S
C155 C38 0.770 . S
C169 C118 0.768 1_455 S
C175 C58 0.756 . S
C189 C9 1.626 . S
C195 C52 1.702 . S
C209 C32 1.717 . S
C215 C69 1.606 . S
C229 C49 1.604 . S
C235 C92 1.718 . S
C249 C72 1.695 . S
C255 C109 1.634 . S
C269 C89 1.614 . S
C275 C12 1.711 . S
C289 C112 1.706 . S
C295 C29 1.621 . S
C309 C19 0.906 . S
C315 C79 0.917 . S
C329 C39 0.917 . S
C335 C99 0.907 . S
C349 C59 0.906 . S
C355 C119 0.916 . S
C369 C4 0.988 . S
C375 C24 0.962 . S
C389 C22 1.120 . S
C395 C42 1.097 . S
C409 C44 1.003 . S
C415 C64 1.032 . S
C429 C62 1.084 . S
C435 C82 1.110 . S
C449 C84 0.962 . S
C455 C104 0.990 . S
C469 C102 1.104 . S
C475 C2 1.079 . S
