# Generated by pormake.
# Topology wmt, (6)-cn, num edge types: 1
# Building blocks:
#     Node 0, Type 0, BuildingBlock: BETDIP_clean_sbu_0, # of connection points: 6
#     Node 1, Type 0, BuildingBlock: BETDIP_clean_sbu_0, # of connection points: 6
#     Node 2, Type 0, BuildingBlock: BETDIP_clean_sbu_0, # of connection points: 6
#     Node 3, Type 0, BuildingBlock: BETDIP_clean_sbu_0, # of connection points: 6
#     Node 4, Type 0, BuildingBlock: BETDIP_clean_sbu_0, # of connection points: 6
#     Node 5, Type 0, BuildingBlock: BETDIP_clean_sbu_0, # of connection points: 6
#     Node 6, Type 0, BuildingBlock: BETDIP_clean_sbu_0, # of connection points: 6
#     Node 7, Type 0, BuildingBlock: BETDIP_clean_sbu_0, # of connection points: 6
#     Node 8, Type 0, BuildingBlock: BETDIP_clean_sbu_0, # of connection points: 6
#     Node 9, Type 0, BuildingBlock: BETDIP_clean_sbu_0, # of connection points: 6
#     Node 10, Type 0, BuildingBlock: BETDIP_clean_sbu_0, # of connection points: 6
#     Node 11, Type 0, BuildingBlock: BETDIP_clean_sbu_0, # of connection points: 6
#     Node 12, Type 0, BuildingBlock: BETDIP_clean_sbu_0, # of connection points: 6
#     Node 13, Type 0, BuildingBlock: BETDIP_clean_sbu_0, # of connection points: 6
#     Node 14, Type 0, BuildingBlock: BETDIP_clean_sbu_0, # of connection points: 6
#     Node 15, Type 0, BuildingBlock: BETDIP_clean_sbu_0, # of connection points: 6
#     Node 16, Type 0, BuildingBlock: BETDIP_clean_sbu_0, # of connection points: 6
#     Node 17, Type 0, BuildingBlock: BETDIP_clean_sbu_0, # of connection points: 6
#     Node 18, Type 0, BuildingBlock: BETDIP_clean_sbu_0, # of connection points: 6
#     Node 19, Type 0, BuildingBlock: BETDIP_clean_sbu_0, # of connection points: 6
#     Node 20, Type 0, BuildingBlock: BETDIP_clean_sbu_0, # of connection points: 6
#     Node 21, Type 0, BuildingBlock: BETDIP_clean_sbu_0, # of connection points: 6
#     Node 22, Type 0, BuildingBlock: BETDIP_clean_sbu_0, # of connection points: 6
#     Node 23, Type 0, BuildingBlock: BETDIP_clean_sbu_0, # of connection points: 6
#     Node 24, Type 0, BuildingBlock: BETDIP_clean_sbu_0, # of connection points: 6
#     Node 25, Type 0, BuildingBlock: BETDIP_clean_sbu_0, # of connection points: 6
#     Node 26, Type 0, BuildingBlock: BETDIP_clean_sbu_0, # of connection points: 6
#     Node 27, Type 0, BuildingBlock: BETDIP_clean_sbu_0, # of connection points: 6
#     Node 28, Type 0, BuildingBlock: BETDIP_clean_sbu_0, # of connection points: 6
#     Node 29, Type 0, BuildingBlock: BETDIP_clean_sbu_0, # of connection points: 6
#     Node 30, Type 0, BuildingBlock: BETDIP_clean_sbu_0, # of connection points: 6
#     Node 31, Type 0, BuildingBlock: BETDIP_clean_sbu_0, # of connection points: 6
#     Node 32, Type 0, BuildingBlock: BETDIP_clean_sbu_0, # of connection points: 6
#     Node 33, Type 0, BuildingBlock: BETDIP_clean_sbu_0, # of connection points: 6
#     Node 34, Type 0, BuildingBlock: BETDIP_clean_sbu_0, # of connection points: 6
#     Node 35, Type 0, BuildingBlock: BETDIP_clean_sbu_0, # of connection points: 6
#     Edge 36, Type (0, 0), BuildingBlock: AJUNOK_clean_linker_0, # of connection points: 2
#     Edge 37, Type (0, 0), BuildingBlock: AJUNOK_clean_linker_0, # of connection points: 2
#     Edge 38, Type (0, 0), BuildingBlock: AJUNOK_clean_linker_0, # of connection points: 2
#     Edge 39, Type (0, 0), BuildingBlock: AJUNOK_clean_linker_0, # of connection points: 2
#     Edge 40, Type (0, 0), BuildingBlock: AJUNOK_clean_linker_0, # of connection points: 2
#     Edge 41, Type (0, 0), BuildingBlock: AJUNOK_clean_linker_0, # of connection points: 2
#     Edge 42, Type (0, 0), BuildingBlock: AJUNOK_clean_linker_0, # of connection points: 2
#     Edge 43, Type (0, 0), BuildingBlock: AJUNOK_clean_linker_0, # of connection points: 2
#     Edge 44, Type (0, 0), BuildingBlock: AJUNOK_clean_linker_0, # of connection points: 2
#     Edge 45, Type (0, 0), BuildingBlock: AJUNOK_clean_linker_0, # of connection points: 2
#     Edge 46, Type (0, 0), BuildingBlock: AJUNOK_clean_linker_0, # of connection points: 2
#     Edge 47, Type (0, 0), BuildingBlock: AJUNOK_clean_linker_0, # of connection points: 2
#     Edge 48, Type (0, 0), BuildingBlock: AJUNOK_clean_linker_0, # of connection points: 2
#     Edge 49, Type (0, 0), BuildingBlock: AJUNOK_clean_linker_0, # of connection points: 2
#     Edge 50, Type (0, 0), BuildingBlock: AJUNOK_clean_linker_0, # of connection points: 2
#     Edge 51, Type (0, 0), BuildingBlock: AJUNOK_clean_linker_0, # of connection points: 2
#     Edge 52, Type (0, 0), BuildingBlock: AJUNOK_clean_linker_0, # of connection points: 2
#     Edge 53, Type (0, 0), BuildingBlock: AJUNOK_clean_linker_0, # of connection points: 2
#     Edge 54, Type (0, 0), BuildingBlock: AJUNOK_clean_linker_0, # of connection points: 2
#     Edge 55, Type (0, 0), BuildingBlock: AJUNOK_clean_linker_0, # of connection points: 2
#     Edge 56, Type (0, 0), BuildingBlock: AJUNOK_clean_linker_0, # of connection points: 2
#     Edge 57, Type (0, 0), BuildingBlock: AJUNOK_clean_linker_0, # of connection points: 2
#     Edge 58, Type (0, 0), BuildingBlock: AJUNOK_clean_linker_0, # of connection points: 2
#     Edge 59, Type (0, 0), BuildingBlock: AJUNOK_clean_linker_0, # of connection points: 2
#     Edge 60, Type (0, 0), BuildingBlock: AJUNOK_clean_linker_0, # of connection points: 2
#     Edge 61, Type (0, 0), BuildingBlock: AJUNOK_clean_linker_0, # of connection points: 2
#     Edge 62, Type (0, 0), BuildingBlock: AJUNOK_clean_linker_0, # of connection points: 2
#     Edge 63, Type (0, 0), BuildingBlock: AJUNOK_clean_linker_0, # of connection points: 2
#     Edge 64, Type (0, 0), BuildingBlock: AJUNOK_clean_linker_0, # of connection points: 2
#     Edge 65, Type (0, 0), BuildingBlock: AJUNOK_clean_linker_0, # of connection points: 2
#     Edge 66, Type (0, 0), BuildingBlock: AJUNOK_clean_linker_0, # of connection points: 2
#     Edge 67, Type (0, 0), BuildingBlock: AJUNOK_clean_linker_0, # of connection points: 2
#     Edge 68, Type (0, 0), BuildingBlock: AJUNOK_clean_linker_0, # of connection points: 2
#     Edge 69, Type (0, 0), BuildingBlock: AJUNOK_clean_linker_0, # of connection points: 2
#     Edge 70, Type (0, 0), BuildingBlock: AJUNOK_clean_linker_0, # of connection points: 2
#     Edge 71, Type (0, 0), BuildingBlock: AJUNOK_clean_linker_0, # of connection points: 2
#     Edge 72, Type (0, 0), BuildingBlock: AJUNOK_clean_linker_0, # of connection points: 2
#     Edge 73, Type (0, 0), BuildingBlock: AJUNOK_clean_linker_0, # of connection points: 2
#     Edge 74, Type (0, 0), BuildingBlock: AJUNOK_clean_linker_0, # of connection points: 2
#     Edge 75, Type (0, 0), BuildingBlock: AJUNOK_clean_linker_0, # of connection points: 2
#     Edge 76, Type (0, 0), BuildingBlock: AJUNOK_clean_linker_0, # of connection points: 2
#     Edge 77, Type (0, 0), BuildingBlock: AJUNOK_clean_linker_0, # of connection points: 2
#     Edge 78, Type (0, 0), BuildingBlock: AJUNOK_clean_linker_0, # of connection points: 2
#     Edge 79, Type (0, 0), BuildingBlock: AJUNOK_clean_linker_0, # of connection points: 2
#     Edge 80, Type (0, 0), BuildingBlock: AJUNOK_clean_linker_0, # of connection points: 2
#     Edge 81, Type (0, 0), BuildingBlock: AJUNOK_clean_linker_0, # of connection points: 2
#     Edge 82, Type (0, 0), BuildingBlock: AJUNOK_clean_linker_0, # of connection points: 2
#     Edge 83, Type (0, 0), BuildingBlock: AJUNOK_clean_linker_0, # of connection points: 2
#     Edge 84, Type (0, 0), BuildingBlock: AJUNOK_clean_linker_0, # of connection points: 2
#     Edge 85, Type (0, 0), BuildingBlock: AJUNOK_clean_linker_0, # of connection points: 2
#     Edge 86, Type (0, 0), BuildingBlock: AJUNOK_clean_linker_0, # of connection points: 2
#     Edge 87, Type (0, 0), BuildingBlock: AJUNOK_clean_linker_0, # of connection points: 2
#     Edge 88, Type (0, 0), BuildingBlock: AJUNOK_clean_linker_0, # of connection points: 2
#     Edge 89, Type (0, 0), BuildingBlock: AJUNOK_clean_linker_0, # of connection points: 2
#     Edge 90, Type (0, 0), BuildingBlock: AJUNOK_clean_linker_0, # of connection points: 2
#     Edge 91, Type (0, 0), BuildingBlock: AJUNOK_clean_linker_0, # of connection points: 2
#     Edge 92, Type (0, 0), BuildingBlock: AJUNOK_clean_linker_0, # of connection points: 2
#     Edge 93, Type (0, 0), BuildingBlock: AJUNOK_clean_linker_0, # of connection points: 2
#     Edge 94, Type (0, 0), BuildingBlock: AJUNOK_clean_linker_0, # of connection points: 2
#     Edge 95, Type (0, 0), BuildingBlock: AJUNOK_clean_linker_0, # of connection points: 2
#     Edge 96, Type (0, 0), BuildingBlock: AJUNOK_clean_linker_0, # of connection points: 2
#     Edge 97, Type (0, 0), BuildingBlock: AJUNOK_clean_linker_0, # of connection points: 2
#     Edge 98, Type (0, 0), BuildingBlock: AJUNOK_clean_linker_0, # of connection points: 2
#     Edge 99, Type (0, 0), BuildingBlock: AJUNOK_clean_linker_0, # of connection points: 2
#     Edge 100, Type (0, 0), BuildingBlock: AJUNOK_clean_linker_0, # of connection points: 2
#     Edge 101, Type (0, 0), BuildingBlock: AJUNOK_clean_linker_0, # of connection points: 2
#     Edge 102, Type (0, 0), BuildingBlock: AJUNOK_clean_linker_0, # of connection points: 2
#     Edge 103, Type (0, 0), BuildingBlock: AJUNOK_clean_linker_0, # of connection points: 2
#     Edge 104, Type (0, 0), BuildingBlock: AJUNOK_clean_linker_0, # of connection points: 2
#     Edge 105, Type (0, 0), BuildingBlock: AJUNOK_clean_linker_0, # of connection points: 2
#     Edge 106, Type (0, 0), BuildingBlock: AJUNOK_clean_linker_0, # of connection points: 2
#     Edge 107, Type (0, 0), BuildingBlock: AJUNOK_clean_linker_0, # of connection points: 2
#     Edge 108, Type (0, 0), BuildingBlock: AJUNOK_clean_linker_0, # of connection points: 2
#     Edge 109, Type (0, 0), BuildingBlock: AJUNOK_clean_linker_0, # of connection points: 2
#     Edge 110, Type (0, 0), BuildingBlock: AJUNOK_clean_linker_0, # of connection points: 2
#     Edge 111, Type (0, 0), BuildingBlock: AJUNOK_clean_linker_0, # of connection points: 2
#     Edge 112, Type (0, 0), BuildingBlock: AJUNOK_clean_linker_0, # of connection points: 2
#     Edge 113, Type (0, 0), BuildingBlock: AJUNOK_clean_linker_0, # of connection points: 2
#     Edge 114, Type (0, 0), BuildingBlock: AJUNOK_clean_linker_0, # of connection points: 2
#     Edge 115, Type (0, 0), BuildingBlock: AJUNOK_clean_linker_0, # of connection points: 2
#     Edge 116, Type (0, 0), BuildingBlock: AJUNOK_clean_linker_0, # of connection points: 2
#     Edge 117, Type (0, 0), BuildingBlock: AJUNOK_clean_linker_0, # of connection points: 2
#     Edge 118, Type (0, 0), BuildingBlock: AJUNOK_clean_linker_0, # of connection points: 2
#     Edge 119, Type (0, 0), BuildingBlock: AJUNOK_clean_linker_0, # of connection points: 2
#     Edge 120, Type (0, 0), BuildingBlock: AJUNOK_clean_linker_0, # of connection points: 2
#     Edge 121, Type (0, 0), BuildingBlock: AJUNOK_clean_linker_0, # of connection points: 2
#     Edge 122, Type (0, 0), BuildingBlock: AJUNOK_clean_linker_0, # of connection points: 2
#     Edge 123, Type (0, 0), BuildingBlock: AJUNOK_clean_linker_0, # of connection points: 2
#     Edge 124, Type (0, 0), BuildingBlock: AJUNOK_clean_linker_0, # of connection points: 2
#     Edge 125, Type (0, 0), BuildingBlock: AJUNOK_clean_linker_0, # of connection points: 2
#     Edge 126, Type (0, 0), BuildingBlock: AJUNOK_clean_linker_0, # of connection points: 2
#     Edge 127, Type (0, 0), BuildingBlock: AJUNOK_clean_linker_0, # of connection points: 2
#     Edge 128, Type (0, 0), BuildingBlock: AJUNOK_clean_linker_0, # of connection points: 2
#     Edge 129, Type (0, 0), BuildingBlock: AJUNOK_clean_linker_0, # of connection points: 2
#     Edge 130, Type (0, 0), BuildingBlock: AJUNOK_clean_linker_0, # of connection points: 2
#     Edge 131, Type (0, 0), BuildingBlock: AJUNOK_clean_linker_0, # of connection points: 2
#     Edge 132, Type (0, 0), BuildingBlock: AJUNOK_clean_linker_0, # of connection points: 2
#     Edge 133, Type (0, 0), BuildingBlock: AJUNOK_clean_linker_0, # of connection points: 2
#     Edge 134, Type (0, 0), BuildingBlock: AJUNOK_clean_linker_0, # of connection points: 2
#     Edge 135, Type (0, 0), BuildingBlock: AJUNOK_clean_linker_0, # of connection points: 2
#     Edge 136, Type (0, 0), BuildingBlock: AJUNOK_clean_linker_0, # of connection points: 2
#     Edge 137, Type (0, 0), BuildingBlock: AJUNOK_clean_linker_0, # of connection points: 2
#     Edge 138, Type (0, 0), BuildingBlock: AJUNOK_clean_linker_0, # of connection points: 2
#     Edge 139, Type (0, 0), BuildingBlock: AJUNOK_clean_linker_0, # of connection points: 2
#     Edge 140, Type (0, 0), BuildingBlock: AJUNOK_clean_linker_0, # of connection points: 2
#     Edge 141, Type (0, 0), BuildingBlock: AJUNOK_clean_linker_0, # of connection points: 2
#     Edge 142, Type (0, 0), BuildingBlock: AJUNOK_clean_linker_0, # of connection points: 2
#     Edge 143, Type (0, 0), BuildingBlock: AJUNOK_clean_linker_0, # of connection points: 2
# Relax obj value: 0.481
# Max RMSD: 0.205
# Mean RMSD: 0.205
data_MOF--net-wmt--node1-BETDIP_clean_sbu_0--edge1-AJUNOK_clean_linker_0
_symmetry_space_group_name_H-M    P1
_symmetry_Int_Tables_number       1
_symmetry_cell_setting            triclinic
loop_
_symmetry_equiv_pos_as_xyz
'x, y, z'
_cell_length_a     58.911679
_cell_length_b     58.94605
_cell_length_c     27.003424
_cell_angle_alpha  90.021484
_cell_angle_beta   90.068237
_cell_angle_gamma 120.02508
loop_
_atom_site_label
_atom_site_type_symbol
_atom_site_fract_x
_atom_site_fract_y
_atom_site_fract_z
_atom_type_partial_charge
Tb0 Tb 0.06593 0.4731 0.20528 0.0
Tb1 Tb 0.0207 0.42526 0.16276 0.0
C2 C 0.09088 0.51227 0.26128 0.0
C3 C 0.0845 0.5206 0.30977 0.0
C4 C 0.06771 0.53123 0.3116 0.0
C5 C 0.06228 0.53964 0.35662 0.0
C6 C 0.07349 0.53785 0.40158 0.0
C7 C 0.08992 0.52682 0.39995 0.0
C8 C 0.09545 0.51849 0.3548 0.0
C9 C 0.08128 0.44592 0.1468 0.0
C10 C 0.02209 0.42973 0.28037 0.0
C11 C 0.99238 0.3814 0.12338 0.0
C12 C 0.99715 0.36892 0.08174 0.0
C13 C 0.0223 0.38145 0.06187 0.0
C14 C 0.02713 0.37346 1.01709 0.0
C15 C 0.00635 0.35375 0.99026 0.0
C16 C 0.98142 0.33939 1.01192 0.0
C17 C 0.9768 0.34703 1.05808 0.0
C18 C 0.00835 0.46159 0.18861 0.0
C19 C 0.05449 0.4754 0.09108 0.0
O20 O 0.07759 0.5122 0.22225 0.0
O21 O 0.09432 0.49188 0.26159 0.0
O22 O 0.06119 0.43623 0.17606 0.0
O23 O 0.09494 0.47073 0.15761 0.0
O24 O 0.04391 0.4524 0.27371 0.0
O25 O 0.01014 0.41473 0.24156 0.0
O26 O 0.00769 0.3852 0.16148 0.0
O27 O 0.99129 0.40243 0.11169 0.0
O28 O 0.02958 0.46401 0.17424 0.0
O29 O 0.99265 0.43646 0.19105 0.0
O30 O 0.03809 0.44936 0.09382 0.0
O31 O 0.0654 0.48928 0.13215 0.0
H32 H 0.0587 0.53318 0.2781 0.0
H33 H 0.04908 0.54742 0.3562 0.0
H34 H 0.09897 0.5251 0.43359 0.0
H35 H 0.1085 0.51052 0.35512 0.0
H36 H 0.03746 0.39898 0.07902 0.0
H37 H 0.04624 0.38482 1.00032 0.0
H38 H 0.96511 0.32417 0.99128 0.0
H39 H 0.95717 0.33723 0.07334 0.0
Tb40 Tb 0.52689 0.59337 0.20758 0.0
Tb41 Tb 0.57396 0.59426 0.1601 0.0
C42 C 0.48979 0.58174 0.26782 0.0
C43 C 0.48125 0.56694 0.31623 0.0
C44 C 0.46114 0.54044 0.31746 0.0
C45 C 0.45242 0.52666 0.36256 0.0
C46 C 0.46328 0.53891 0.40825 0.0
C47 C 0.4837 0.5653 0.40695 0.0
C48 C 0.4924 0.57909 0.36185 0.0
C49 C 0.5541 0.63454 0.14706 0.0
C50 C 0.57302 0.59473 0.27793 0.0
C51 C 0.61431 0.60822 0.109 0.0
C52 C 0.62092 0.6168 1.05745 0.0
C53 C 0.64405 0.64025 1.04615 0.0
C54 C 0.64902 0.64966 0.99746 0.0
C55 C 0.63085 0.63553 0.96014 0.0
C56 C 0.60802 0.61197 0.97141 0.0
C57 C 0.60309 0.60264 1.01953 0.0
C58 C 0.53755 0.54675 0.19065 0.0
C59 C 0.52107 0.5774 0.09434 0.0
O60 O 0.48764 0.5681 0.22801 0.0
O61 O 0.51151 0.60462 0.26729 0.0
O62 O 0.5634 0.62344 0.17504 0.0
O63 O 0.53009 0.62575 0.16165 0.0
O64 O 0.54933 0.59178 0.27269 0.0
O65 O 0.58776 0.59834 0.23817 0.0
O66 O 0.61119 0.62424 0.13812 0.0
O67 O 0.59606 0.58374 0.11531 0.0
O68 O 0.53523 0.56563 0.17603 0.0
O69 O 0.56268 0.55544 0.19055 0.0
O70 O 0.54691 0.58575 0.09494 0.0
O71 O 0.50838 0.576 0.1362 0.0
H72 H 0.45184 0.53033 0.28341 0.0
H73 H 0.43666 0.50647 0.36167 0.0
H74 H 0.4931 0.57539 0.44095 0.0
H75 H 0.50781 0.59941 0.36285 0.0
H76 H 0.65797 0.65137 0.07506 0.0
H77 H 0.66684 0.66776 0.98896 0.0
H78 H 0.59378 0.6009 0.94281 0.0
H79 H 0.58497 0.58467 1.0271 0.0
Tb80 Tb 0.40978 0.93523 0.20157 0.0
Tb81 Tb 0.40798 0.98161 0.15975 0.0
C82 C 0.42394 0.91041 0.25891 0.0
C83 C 0.44008 0.91739 0.30606 0.0
C84 C 0.46037 0.94317 0.31653 0.0
C85 C 0.47579 0.94907 0.36011 0.0
C86 C 0.47111 0.92952 0.39538 0.0
C87 C 0.45067 0.90382 0.38489 0.0
C88 C 0.43555 0.89788 0.34108 0.0
C89 C 0.36765 0.92043 0.14123 0.0
C90 C 0.40851 0.97778 0.27739 0.0
C91 C 0.39563 0.01316 0.123 0.0
C92 C 0.3771 0.01179 0.08588 0.0
C93 C 0.3593 0.98742 0.06614 0.0
C94 C 0.34616 0.98571 1.02253 0.0
C95 C 0.35323 0.00863 0.99576 0.0
C96 C 0.36735 0.03304 1.01956 0.0
C97 C 0.37955 0.03464 0.0649 0.0
C98 C 0.45629 0.99278 0.18843 0.0
C99 C 0.42416 0.94827 0.0879 0.0
O100 O 0.4362 0.92209 0.21813 0.0
O101 O 0.40082 0.90861 0.2611 0.0
O102 O 0.37811 0.94073 0.17035 0.0
O103 O 0.37795 0.90629 0.15459 0.0
O104 O 0.4106 0.95674 0.27005 0.0
O105 O 0.40521 0.98974 0.23897 0.0
O106 O 0.38492 0.99917 0.16266 0.0
O107 O 0.41476 0.01006 0.10611 0.0
O108 O 0.43715 0.97205 0.17341 0.0
O109 O 0.44765 0.00911 0.18826 0.0
O110 O 0.41344 0.96367 0.09097 0.0
O111 O 0.42791 0.93756 0.12859 0.0
H112 H 0.46428 0.9589 0.29112 0.0
H113 H 0.49105 0.96911 0.36677 0.0
H114 H 0.44641 0.8881 0.41063 0.0
H115 H 0.42022 0.87785 0.33455 0.0
H116 H 0.35804 0.97005 0.08163 0.0
H117 H 0.33521 0.96672 1.00479 0.0
H118 H 0.37281 0.05095 0.99943 0.0
H119 H 0.39311 0.05369 0.08031 0.0
Tb120 Tb 0.47239 0.06803 0.55728 0.0
Tb121 Tb 0.43051 0.01831 0.60139 0.0
C122 C 0.50708 0.09682 0.49512 0.0
C123 C 0.51668 0.09131 0.44693 0.0
C124 C 0.53743 0.08583 0.44616 0.0
C125 C 0.54646 0.0807 0.40141 0.0
C126 C 0.53533 0.08112 0.35535 0.0
C127 C 0.51452 0.08656 0.35614 0.0
C128 C 0.50558 0.0918 0.40094 0.0
C129 C 0.4435 0.07724 0.62392 0.0
C130 C 0.4295 0.02192 0.48483 0.0
C131 C 0.39407 0.98275 0.65145 0.0
C132 C 0.38787 0.98063 0.704 0.0
C133 C 0.40763 0.99709 0.73659 0.0
C134 C 0.4019 -0.00026 0.78483 0.0
C135 C 0.37631 0.98444 0.8031 0.0
C136 C 0.35667 0.96599 0.77138 0.0
C137 C 0.36236 0.96444 0.72157 0.0
C138 C 0.47006 0.01421 0.56353 0.0
C139 C 0.48222 0.05772 0.66691 0.0
O140 O 0.51208 0.08812 0.53593 0.0
O141 O 0.48341 0.09383 0.4961 0.0
O142 O 0.43477 0.05708 0.59455 0.0
O143 O 0.46659 0.09406 0.60702 0.0
O144 O 0.45207 0.04385 0.49101 0.0
O145 O 0.41533 0.00949 0.52426 0.0
O146 O 0.39178 0.00083 0.62747 0.0
O147 O 0.41615 0.98358 0.64156 0.0
O148 O 0.47005 0.03332 0.58342 0.0
O149 O 0.44564 0.99607 0.56155 0.0
O150 O 0.45712 0.03847 0.66608 0.0
O151 O 0.49382 0.07048 0.62546 0.0
H152 H 0.547 0.08573 0.48028 0.0
H153 H 0.56261 0.07688 0.40289 0.0
H154 H 0.50486 0.08658 0.32204 0.0
H155 H 0.48993 0.09634 0.39948 0.0
H156 H 0.42729 0.00946 0.72398 0.0
H157 H 0.41733 0.01553 0.80588 0.0
H158 H 0.33677 0.95369 0.78435 0.0
H159 H 0.34685 0.9514 0.69667 0.0
Tb160 Tb 0.92967 0.40423 0.55922 0.0
Tb161 Tb 0.97632 0.40449 0.60416 0.0
C162 C 0.90325 0.41515 0.49991 0.0
C163 C 0.90977 0.43011 0.4519 0.0
C164 C 0.93555 0.44991 0.44036 0.0
C165 C 0.94121 0.46412 0.39554 0.0
C166 C 0.92134 0.45886 0.36053 0.0
C167 C 0.89559 0.43904 0.3724 0.0
C168 C 0.88995 0.42492 0.41718 0.0
C169 C 0.9164 0.36312 0.62079 0.0
C170 C 0.975 0.40629 0.48618 0.0
C171 C 0.00576 0.39114 0.64586 0.0
C172 C 0.00464 0.37643 0.68964 0.0
C173 C 0.98347 0.36802 0.72192 0.0
C174 C 0.98329 0.35604 0.76615 0.0
C175 C 0.00517 0.35404 0.77979 0.0
C176 C 0.02587 0.3613 0.74651 0.0
C177 C 0.02542 0.37219 0.70097 0.0
C178 C 0.9866 0.45177 0.5736 0.0
C179 C 0.9408 0.42035 0.67252 0.0
O180 O 0.91465 0.42871 0.53989 0.0
O181 O 0.90274 0.3926 0.49971 0.0
O182 O 0.93648 0.37404 0.59173 0.0
O183 O 0.90133 0.37215 0.60639 0.0
O184 O 0.95326 0.40724 0.49266 0.0
O185 O 0.98681 0.40317 0.5253 0.0
O186 O 0.98888 0.37729 0.61117 0.0
O187 O 0.00668 0.4135 0.65436 0.0
O188 O 0.96575 0.43279 0.58898 0.0
O189 O 0.00328 0.44346 0.57355 0.0
O190 O 0.95802 0.41164 0.6713 0.0
O191 O 0.92951 0.42205 0.63079 0.0
H192 H 0.95139 0.45444 0.46607 0.0
H193 H 0.96127 0.47904 0.38798 0.0
H194 H 0.87957 0.43463 0.34726 0.0
H195 H 0.8699 0.40996 0.42485 0.0
H196 H 0.96807 0.37244 0.71443 0.0
H197 H 0.96766 0.35143 0.79242 0.0
H198 H 0.04314 0.36052 0.75742 0.0
H199 H 0.04192 0.37876 0.67607 0.0
Tb200 Tb 0.59217 0.52659 0.55655 0.0
Tb201 Tb 0.5826 0.56119 0.59702 0.0
C202 C 0.58726 0.49137 0.49694 0.0
C203 C 0.57288 0.48292 0.4485 0.0
C204 C 0.55462 0.49065 0.43492 0.0
C205 C 0.54009 0.48169 0.39063 0.0
C206 C 0.54353 0.46491 0.35822 0.0
C207 C 0.56192 0.4573 0.37185 0.0
C208 C 0.57634 0.46615 0.41634 0.0
C209 C 0.63008 0.55314 0.62621 0.0
C210 C 0.59568 0.57168 0.48418 0.0
C211 C 0.569 0.59176 0.63448 0.0
C212 C 0.57664 0.60833 0.67919 0.0
C213 C 0.59722 0.6345 0.67772 0.0
C214 C 0.60928 0.64759 0.72162 0.0
C215 C 0.6005 0.63454 0.76681 0.0
C216 C 0.57748 0.6101 0.76863 0.0
C217 C 0.56552 0.59706 0.72507 0.0
C218 C 0.53371 0.50844 0.56535 0.0
C219 C 0.57403 0.51685 0.66844 0.0
O220 O 0.57245 0.48689 0.53594 0.0
O221 O 0.60819 0.51476 0.49879 0.0
O222 O 0.62048 0.56369 0.59746 0.0
O223 O 0.62122 0.52941 0.61055 0.0
O224 O 0.59797 0.55063 0.48889 0.0
O225 O 0.59272 0.58224 0.52517 0.0
O226 O 0.58677 0.59878 0.59976 0.0
O227 O 0.55737 0.56661 0.64278 0.0
O228 O 0.556 0.52865 0.55376 0.0
O229 O 0.55593 0.52839 0.55246 0.0
O230 O 0.58138 0.54193 0.66679 0.0
O231 O 0.57353 0.50495 0.62624 0.0
H232 H 0.55141 0.50352 0.45881 0.0
H233 H 0.5263 0.48813 0.38149 0.0
H234 H 0.56487 0.44409 0.34843 0.0
H235 H 0.59003 0.45964 0.42583 0.0
H236 H 0.60533 0.64399 0.64275 0.0
H237 H 0.62676 0.66675 0.71998 0.0
H238 H 0.57024 0.60003 0.80363 0.0
H239 H 0.54898 0.57731 0.72752 0.0
Tb240 Tb 0.97898 0.56745 0.10014 0.0
Tb241 Tb 0.93001 0.52407 0.0594 0.0
C242 C 0.01609 0.60666 0.14181 0.0
C243 C 0.02485 0.61442 0.1923 0.0
C244 C 0.01753 0.5951 0.22838 0.0
C245 C 0.0213 0.60205 0.27776 0.0
C246 C 0.03277 0.62858 0.29212 0.0
C247 C 0.04333 0.64805 0.25527 0.0
C248 C 0.03886 0.64094 0.20539 0.0
C249 C 0.98381 0.52726 0.0668 0.0
C250 C 0.94238 0.51808 0.17153 0.0
C251 C 0.9023 0.4871 1.00015 0.0
C252 C 0.9085 0.47789 0.95217 0.0
C253 C 0.91105 0.45531 0.95094 0.0
C254 C 0.91673 0.44646 0.90645 0.0
C255 C 0.91997 0.45975 0.8612 0.0
C256 C 0.91787 0.48262 0.8627 0.0
C257 C 0.91202 0.49135 0.9071 0.0
C258 C 0.9202 0.55403 0.12211 0.0
C259 C 0.97398 0.56728 0.98447 0.0
O260 O 0.99375 0.60502 0.13026 0.0
O261 O 0.01741 0.58641 0.1264 0.0
O262 O 0.96482 0.52735 0.08683 0.0
O263 O 0.00094 0.55176 0.06082 0.0
O264 O 0.96166 0.54319 0.16873 0.0
O265 O 0.9289 0.50555 0.13097 0.0
O266 O 0.91271 0.48407 1.04069 0.0
O267 O 0.90278 0.50965 1.00028 0.0
O268 O 0.93996 0.5623 0.09197 0.0
O269 O 0.90358 0.5302 0.10807 0.0
O270 O 0.95346 0.5437 0.99159 0.0
O271 O 0.98519 0.58239 1.0234 0.0
H272 H 0.00699 0.57448 0.21872 0.0
H273 H 0.01254 0.58612 0.30409 0.0
H274 H 0.05386 0.66866 0.26457 0.0
H275 H 0.04528 0.65604 0.17732 0.0
H276 H 0.90846 0.44426 0.98455 0.0
H277 H 0.91808 0.42881 0.90739 0.0
H278 H 0.92093 0.49405 0.82945 0.0
H279 H 0.91025 0.50875 0.90598 0.0
Tb280 Tb 0.43095 0.41242 0.10484 0.0
Tb281 Tb 0.47455 0.40745 0.06064 0.0
C282 C 0.39095 0.40774 0.14743 0.0
C283 C 0.37719 0.40285 0.19473 0.0
C284 C 0.38965 0.41854 0.23611 0.0
C285 C 0.37659 0.4132 0.28106 0.0
C286 C 0.35064 0.39227 0.28556 0.0
C287 C 0.33763 0.37774 0.24314 0.0
C288 C 0.35088 0.38295 0.19805 0.0
C289 C 0.46979 0.45743 0.06895 0.0
C290 C 0.4821 0.42656 0.17222 0.0
C291 C 0.51099 0.41645 1.00021 0.0
C292 C 0.51857 0.42971 0.95031 0.0
C293 C 0.51036 0.44732 0.93489 0.0
C294 C 0.51874 0.46079 0.88935 0.0
C295 C 0.53591 0.4574 0.85764 0.0
C296 C 0.54351 0.4392 0.87264 0.0
C297 C 0.53504 0.42566 0.91819 0.0
C298 C 0.44654 0.36894 0.12647 0.0
C299 C 0.43035 0.40812 0.988 0.0
O300 O 0.39161 0.38806 0.12617 0.0
O301 O 0.41321 0.42973 0.14378 0.0
O302 O 0.4705 0.43856 0.08807 0.0
O303 O 0.44503 0.44951 0.06457 0.0
O304 O 0.45682 0.42031 0.17126 0.0
O305 O 0.49407 0.42568 0.1309 0.0
O306 O 0.51362 0.43152 1.03806 0.0
O307 O 0.48907 0.39384 1.00304 0.0
O308 O 0.43739 0.37962 0.09654 0.0
O309 O 0.47003 0.37595 0.11062 0.0
O310 O 0.45295 0.40878 0.99391 0.0
O311 O 0.41641 0.40659 1.02751 0.0
H312 H 0.40986 0.43427 0.23448 0.0
H313 H 0.38755 0.42457 0.31294 0.0
H314 H 0.31756 0.36189 0.24499 0.0
H315 H 0.34072 0.37115 0.16598 0.0
H316 H 0.49762 0.45095 0.95838 0.0
H317 H 0.51168 0.47392 0.87899 0.0
H318 H 0.55661 0.43586 0.84966 0.0
H319 H 0.54178 0.41229 0.92871 0.0
Tb320 Tb 0.59172 0.02326 0.10426 0.0
Tb321 Tb 0.59417 0.06968 1.05709 0.0
C322 C 0.59972 0.99388 0.16011 0.0
C323 C 0.60902 0.99732 0.21115 0.0
C324 C 0.61396 0.01992 0.23675 0.0
C325 C 0.62593 0.02551 0.28268 0.0
C326 C 0.63256 0.00815 0.30496 0.0
C327 C 0.6253 0.98416 0.28132 0.0
C328 C 0.61387 0.97893 0.23415 0.0
C329 C 0.5457 0.01376 0.06886 0.0
C330 C 0.57593 0.06065 0.1683 0.0
C331 C 0.58409 0.09607 0.99637 0.0
C332 C 0.56982 0.09015 0.94745 0.0
C333 C 0.54272 0.08137 0.94559 0.0
C334 C 0.52926 0.07617 0.90012 0.0
C335 C 0.54236 0.07965 0.85466 0.0
C336 C 0.56943 0.08823 0.85654 0.0
C337 C 0.58295 0.0936 0.90208 0.0
C338 C 0.63451 0.08294 0.12099 0.0
C339 C 0.59399 0.02413 0.9864 0.0
O340 O 0.61697 0.01007 0.1282 0.0
O341 O 0.57691 0.9922 0.15472 0.0
O342 O 0.564 0.03442 0.08667 0.0
O343 O 0.55454 0.99753 0.06652 0.0
O344 O 0.5829 0.04225 0.16792 0.0
O345 O 0.57619 0.07263 0.12636 0.0
O346 O 0.56981 0.08445 1.03546 0.0
O347 O 0.60676 0.09679 0.998 0.0
O348 O 0.62376 0.06256 0.09252 0.0
O349 O 0.62571 0.09795 0.1052 0.0
O350 O 0.59257 0.04576 0.99152 0.0
O351 O 0.59619 0.01244 1.02684 0.0
H352 H 0.6099 0.0341 0.22036 0.0
H353 H 0.63071 0.04397 0.29989 0.0
H354 H 0.62842 0.96952 0.29914 0.0
H355 H 0.60913 0.9608 0.21551 0.0
H356 H 0.53181 0.07863 0.97944 0.0
H357 H 0.50854 0.06979 0.90065 0.0
H358 H 0.58026 0.09058 0.82276 0.0
H359 H 0.60377 0.10047 0.90168 0.0
Tb360 Tb 0.58041 0.98012 0.65895 0.0
Tb361 Tb 0.53095 0.93944 0.69989 0.0
C362 C 0.62889 0.00494 0.64107 0.0
C363 C 0.64587 0.0104 0.5979 0.0
C364 C 0.64239 0.99001 0.56664 0.0
C365 C 0.6542 0.99532 0.52049 0.0
C366 C 0.66854 0.02124 0.5039 0.0
C367 C 0.6744 0.04184 0.537 0.0
C368 C 0.66334 0.0364 0.58425 0.0
C369 C 0.54714 0.99584 0.65691 0.0
C370 C 0.53059 0.95097 0.58579 0.0
C371 C 0.49111 0.9164 0.75563 0.0
C372 C 0.48263 0.92234 0.8046 0.0
C373 C 0.47507 0.94154 0.80866 0.0
C374 C 0.46579 0.94597 0.85378 0.0
C375 C 0.46354 0.9313 0.89669 0.0
C376 C 0.47158 0.91245 0.89284 0.0
C377 C 0.48081 0.90798 0.84764 0.0
C378 C 0.55418 0.92014 0.63829 0.0
C379 C 0.57388 0.97867 0.77779 0.0
O380 O 0.61614 0.98064 0.65656 0.0
O381 O 0.61397 0.01544 0.63983 0.0
O382 O 0.54802 0.98141 0.692 0.0
O383 O 0.56631 0.00294 0.62571 0.0
O384 O 0.55699 0.964 0.58839 0.0
O385 O 0.51645 0.94236 0.62697 0.0
O386 O 0.49273 0.93091 0.71756 0.0
O387 O 0.51041 0.91129 0.7558 0.0
O388 O 0.5652 0.93921 0.66921 0.0
O389 O 0.52936 0.9089 0.64876 0.0
O390 O 0.55389 0.95478 0.77012 0.0
O391 O 0.58619 0.99299 0.73836 0.0
H392 H 0.62872 0.97003 0.57612 0.0
H393 H 0.64881 0.97909 0.49525 0.0
H394 H 0.6847 0.06192 0.52424 0.0
H395 H 0.66635 0.05248 0.60805 0.0
H396 H 0.47614 0.95317 0.77678 0.0
H397 H 0.46055 0.96114 0.85503 0.0
H398 H 0.47022 0.90067 0.92468 0.0
H399 H 0.48625 0.89295 0.84626 0.0
Tb400 Tb 0.01517 0.58696 0.66113 0.0
Tb401 Tb 0.06294 0.58954 0.7034 0.0
C402 C 0.98053 0.59279 0.61845 0.0
C403 C 0.97943 0.60663 0.57463 0.0
C404 C -0.00029 0.63213 0.56578 0.0
C405 C 0.00398 0.64264 0.51869 0.0
C406 C 0.98863 0.62716 0.4797 0.0
C407 C 0.9659 0.60311 0.48932 0.0
C408 C 0.9612 0.59285 0.53714 0.0
C409 C 0.00745 0.54079 0.69385 0.0
C410 C 0.05168 0.57424 0.59058 0.0
C411 C 0.08884 0.57679 0.76051 0.0
C412 C 0.08284 0.56186 0.80889 0.0
C413 C 0.08025 0.53673 0.81051 0.0
C414 C 0.075 0.52258 0.85531 0.0
C415 C 0.0723 0.53307 0.90043 0.0
C416 C 0.07435 0.55802 0.89857 0.0
C417 C 0.07966 0.57218 0.85378 0.0
C418 C 0.07513 0.63029 0.64152 0.0
C419 C 0.01941 0.58984 0.77824 0.0
O420 O 0.99503 0.60756 0.65509 0.0
O421 O 0.98463 0.57332 0.60939 0.0
O422 O 0.02722 0.5596 0.67525 0.0
O423 O 0.99087 0.54896 0.69779 0.0
O424 O 0.03444 0.58275 0.59295 0.0
O425 O 0.06309 0.57197 0.63146 0.0
O426 O 0.07609 0.56325 0.7214 0.0
O427 O 0.09112 0.60016 0.76045 0.0
O428 O 0.05497 0.61923 0.67071 0.0
O429 O 0.09074 0.62181 0.65565 0.0
O430 O 0.04134 0.58921 0.77161 0.0
O431 O 0.00654 0.59117 0.73926 0.0
H432 H 0.01444 0.64247 0.59338 0.0
H433 H 0.02187 0.66088 0.5115 0.0
H434 H 0.95398 0.59082 0.45907 0.0
H435 H 0.94529 0.57306 0.54342 0.0
H436 H 0.0825 0.528 0.77692 0.0
H437 H 0.07363 0.50357 0.85473 0.0
H438 H 0.07171 0.56667 0.93185 0.0
H439 H 0.08132 0.59131 0.85447 0.0
Tb440 Tb 0.40683 0.43002 0.66617 0.0
Tb441 Tb 0.40581 0.47514 0.70935 0.0
C442 C 0.39539 0.38931 0.61821 0.0
C443 C 0.37999 0.37817 0.57284 0.0
C444 C 0.39277 0.37881 0.5286 0.0
C445 C 0.37966 0.37446 0.48353 0.0
C446 C 0.3537 0.36929 0.48259 0.0
C447 C 0.3403 0.36618 0.52666 0.0
C448 C 0.35321 0.37036 0.57169 0.0
C449 C 0.45333 0.46591 0.70368 0.0
C450 C 0.42322 0.48086 0.59749 0.0
C451 C 0.41657 0.51278 0.76776 0.0
C452 C 0.43147 0.52134 0.81579 0.0
C453 C 0.45078 0.51479 0.82803 0.0
C454 C 0.46525 0.52367 0.87254 0.0
C455 C 0.46076 0.53922 0.90644 0.0
C456 C 0.44149 0.54581 0.89381 0.0
C457 C 0.42709 0.53698 0.84932 0.0
C458 C 0.36507 0.44766 0.64612 0.0
C459 C 0.4058 0.43095 0.7831 0.0
O460 O 0.38219 0.38981 0.65683 0.0
O461 O 0.41751 0.41137 0.61254 0.0
O462 O 0.43603 0.46901 0.68295 0.0
O463 O 0.44382 0.44074 0.70429 0.0
O464 O 0.41493 0.45521 0.5992 0.0
O465 O 0.42383 0.49372 0.63851 0.0
O466 O 0.43033 0.51466 0.7284 0.0
O467 O 0.39396 0.4908 0.76781 0.0
O468 O 0.37528 0.43822 0.67636 0.0
O469 O 0.37495 0.47209 0.65887 0.0
O470 O 0.40718 0.45389 0.77699 0.0
O471 O 0.40306 0.41643 0.74371 0.0
H472 H 0.41335 0.38453 0.52861 0.0
H473 H 0.3903 0.37704 0.44934 0.0
H474 H 0.32052 0.36244 0.52592 0.0
H475 H 0.34264 0.36933 0.60513 0.0
H476 H 0.45478 0.50284 0.80302 0.0
H477 H 0.47979 0.51807 0.88072 0.0
H478 H 0.43774 0.55818 0.91811 0.0
H479 H 0.41261 0.54262 0.84091 0.0
Tb480 Tb 0.73224 0.80658 0.54529 0.0
Tb481 Tb 0.68911 0.7699 0.50815 0.0
C482 C 0.76239 0.84326 0.60262 0.0
C483 C 0.75643 0.85189 0.65083 0.0
C484 C 0.7308 0.84644 0.66206 0.0
C485 C 0.72532 0.85545 0.70633 0.0
C486 C 0.74523 0.86992 0.74116 0.0
C487 C 0.77085 0.87522 0.72994 0.0
C488 C 0.77635 0.86636 0.68546 0.0
C489 C 0.74366 0.77843 0.47889 0.0
C490 C 0.69309 0.7621 0.62122 0.0
C491 C 0.64646 0.73417 0.47455 0.0
C492 C 0.64283 0.71537 0.43617 0.0
C493 C 0.66518 0.71789 0.41276 0.0
C494 C 0.66267 0.70444 0.36917 0.0
C495 C 0.63778 0.68784 0.34924 0.0
C496 C 0.6153 0.68309 0.37567 0.0
C497 C 0.61783 0.69701 0.41915 0.0
C498 C 0.68946 0.82155 0.53457 0.0
C499 C 0.72273 0.81389 0.43317 0.0
O500 O 0.75125 0.84658 0.56352 0.0
O501 O 0.76108 0.82037 0.60174 0.0
O502 O 0.72488 0.76885 0.51026 0.0
O503 O 0.75759 0.80322 0.48874 0.0
O504 O 0.71546 0.78414 0.61507 0.0
O505 O 0.67961 0.75016 0.58107 0.0
O506 O 0.65738 0.73179 0.51473 0.0
O507 O 0.65769 0.75843 0.45917 0.0
O508 O 0.6929 0.80247 0.54835 0.0
O509 O 0.69307 0.80275 0.54969 0.0
O510 O 0.70547 0.78865 0.4365 0.0
O511 O 0.7342 0.82669 0.47457 0.0
H512 H 0.71491 0.83528 0.63639 0.0
H513 H 0.70536 0.85079 0.71361 0.0
H514 H 0.78682 0.88659 0.75536 0.0
H515 H 0.79629 0.87103 0.67796 0.0
H516 H 0.68464 0.73199 0.42585 0.0
H517 H 0.68022 0.70933 0.34829 0.0
H518 H 0.59601 0.67102 0.35973 0.0
H519 H 0.60046 0.69488 0.43725 0.0
Tb520 Tb 0.191 0.92378 0.53667 0.0
Tb521 Tb 0.23588 0.9223 0.49451 0.0
C522 C 0.15283 0.91191 0.5943 0.0
C523 C 0.14487 0.89771 0.64311 0.0
C524 C 0.15227 0.87919 0.65665 0.0
C525 C 0.14406 0.86548 0.70199 0.0
C526 C 0.12831 0.86992 0.7355 0.0
C527 C 0.12091 0.88843 0.72162 0.0
C528 C 0.12909 0.9021 0.67632 0.0
C529 C 0.21839 0.96506 0.47529 0.0
C530 C 0.23445 0.92336 0.61149 0.0
C531 C 0.27669 0.92876 0.45284 0.0
C532 C 0.29217 0.94182 0.40914 0.0
C533 C 0.30229 0.96872 0.4027 0.0
C534 C 0.31134 0.97989 0.35677 0.0
C535 C 0.31142 0.96466 0.31747 0.0
C536 C 0.3043 0.9384 0.32523 0.0
C537 C 0.29452 0.92693 0.37113 0.0
C538 C 0.19794 0.87537 0.52527 0.0
C539 C 0.18689 0.90903 0.42304 0.0
O540 O 0.15172 0.89791 0.55571 0.0
O541 O 0.1741 0.93511 0.59371 0.0
O542 O 0.22841 0.95464 0.50407 0.0
O543 O 0.19422 0.95537 0.48968 0.0
O544 O 0.21146 0.92173 0.60481 0.0
O545 O 0.24919 0.92657 0.5724 0.0
O546 O 0.27635 0.94409 0.48764 0.0
O547 O 0.25338 0.90872 0.44411 0.0
O548 O 0.19655 0.89404 0.50719 0.0
O549 O 0.22276 0.88427 0.53069 0.0
O550 O 0.21264 0.91764 0.42595 0.0
O551 O 0.17327 0.90687 0.46404 0.0
H552 H 0.16436 0.87521 0.63201 0.0
H553 H 0.15031 0.85154 0.71105 0.0
H554 H 0.10835 0.89211 0.74551 0.0
H555 H 0.12284 0.91601 0.66702 0.0
H556 H 0.30135 0.98071 0.43197 0.0
H557 H 0.31588 -0.00031 0.3504 0.0
H558 H 0.30399 0.92625 0.29483 0.0
H559 H 0.28714 0.90614 0.37586 0.0
Tb560 Tb 0.07327 0.26726 0.54107 0.0
Tb561 Tb 0.07364 0.3127 0.49357 0.0
C562 C 0.08431 0.24127 0.60132 0.0
C563 C 0.0982 0.24697 0.65026 0.0
C564 C 0.1136 0.27275 0.66825 0.0
C565 C 0.12749 0.27779 0.71335 0.0
C566 C 0.12641 0.2572 0.74189 0.0
C567 C 0.11115 0.23146 0.72332 0.0
C568 C 0.09723 0.22646 0.6784 0.0
C569 C 0.03274 0.25272 0.47714 0.0
C570 C 0.07165 0.31198 0.61084 0.0
C571 C 0.06272 0.33992 0.43733 0.0
C572 C 0.05222 0.33389 0.38692 0.0
C573 C 0.04622 0.30965 0.36726 0.0
C574 C 0.03719 0.30294 0.31935 0.0
C575 C 0.03481 0.32081 0.28898 0.0
C576 C 0.04017 0.34515 0.30847 0.0
C577 C 0.04884 0.35168 0.35768 0.0
C578 C 0.11975 0.3243 0.53328 0.0
C579 C 0.09063 0.2764 0.42968 0.0
O580 O 0.09882 0.25403 0.56322 0.0
O581 O 0.06143 0.24008 0.59999 0.0
O582 O 0.04288 0.27302 0.50572 0.0
O583 O 0.0422 0.23827 0.49284 0.0
O584 O 0.07384 0.29078 0.60627 0.0
O585 O 0.06845 0.32297 0.57043 0.0
O586 O 0.04678 0.32412 0.47127 0.0
O587 O 0.0863 0.34322 0.44191 0.0
O588 O 0.10292 0.30352 0.51263 0.0
O589 O 0.10966 0.33953 0.53346 0.0
O590 O 0.08379 0.29485 0.43024 0.0
O591 O 0.09041 0.26421 0.4712 0.0
H592 H 0.11511 0.28909 0.64722 0.0
H593 H 0.13894 0.29785 0.7261 0.0
H594 H 0.11029 0.21508 0.74309 0.0
H595 H 0.08592 0.20645 0.66528 0.0
H596 H 0.04891 0.29588 0.38882 0.0
H597 H 0.03331 0.28412 0.30514 0.0
H598 H 0.03883 0.3594 0.28521 0.0
H599 H 0.0535 0.37063 0.37236 0.0
Tb600 Tb 0.14096 0.40283 0.88703 0.0
Tb601 Tb 0.10816 0.35824 0.92755 0.0
C602 C 0.17453 0.43405 0.82553 0.0
C603 C 0.18278 0.42913 0.7757 0.0
C604 C 0.1735 0.40346 0.75798 0.0
C605 C 0.18247 0.39884 0.71268 0.0
C606 C 0.20112 0.41971 0.68339 0.0
C607 C 0.21031 0.4454 0.7013 0.0
C608 C 0.20126 0.45001 0.74658 0.0
C609 C 0.11391 0.41195 0.95979 0.0
C610 C 0.09631 0.36038 0.8152 0.0
C611 C 0.07599 0.31351 0.96052 0.0
C612 C 0.05425 0.30442 0.99537 0.0
C613 C 0.04425 0.32084 1.00777 0.0
C614 C 0.02936 0.31603 1.05055 0.0
C615 C 0.02478 0.29507 0.08137 0.0
C616 C 0.03083 0.27619 0.06405 0.0
C617 C 0.04597 0.28111 1.02147 0.0
C618 C 0.16156 0.36419 0.89602 0.0
C619 C 0.1541 0.3951 0.99686 0.0
O620 O 0.18022 0.42399 0.86344 0.0
O621 O 0.15078 0.43056 0.82946 0.0
O622 O 0.10391 0.3923 0.92987 0.0
O623 O 0.13721 0.42807 0.94333 0.0
O624 O 0.11663 0.38419 0.81974 0.0
O625 O 0.08668 0.34665 0.85614 0.0
O626 O 0.07272 0.32307 0.91941 0.0
O627 O 0.09927 0.3285 0.97957 0.0
O628 O 0.14087 0.36535 0.88407 0.0
O629 O 0.14115 0.36554 0.88278 0.0
O630 O 0.12963 0.37554 0.99661 0.0
O631 O 0.16443 0.40739 0.95451 0.0
H632 H 0.15952 0.38684 0.77953 0.0
H633 H 0.17474 0.37878 0.70057 0.0
H634 H 0.2251 0.46208 0.68097 0.0
H635 H 0.20912 0.46999 0.7593 0.0
H636 H 0.05021 0.33878 0.98736 0.0
H637 H 0.02498 0.33079 0.06328 0.0
H638 H 0.02712 0.25963 0.08707 0.0
H639 H 0.05317 0.26801 1.01167 0.0
Tb640 Tb 0.60066 0.73785 0.89371 0.0
Tb641 Tb 0.64637 0.73782 0.94313 0.0
C642 C 0.57563 0.7505 0.83406 0.0
C643 C 0.58134 0.76385 0.78459 0.0
C644 C 0.60702 0.77794 0.76564 0.0
C645 C 0.61221 0.79145 0.72018 0.0
C646 C 0.59192 0.79157 0.69243 0.0
C647 C 0.56621 0.77715 0.7114 0.0
C648 C 0.56103 0.76357 0.75671 0.0
C649 C 0.5856 0.69638 0.95481 0.0
C650 C 0.64614 0.73707 0.82553 0.0
C651 C 0.67446 0.72666 0.99623 0.0
C652 C 0.66802 0.71351 1.04397 0.0
C653 C 0.64248 0.70369 0.06085 0.0
C654 C 0.63552 0.69364 0.10798 0.0
C655 C 0.65437 0.69439 0.14028 0.0
C656 C 0.67998 0.70311 0.12309 0.0
C657 C 0.68681 0.71265 0.07457 0.0
C658 C 0.65718 0.78503 0.91127 0.0
C659 C 0.60913 0.75318 1.00701 0.0
O660 O 0.58953 0.76502 0.87138 0.0
O661 O 0.57286 0.72696 0.8359 0.0
O662 O 0.60653 0.70742 0.92783 0.0
O663 O 0.57114 0.70593 0.93946 0.0
O664 O 0.62423 0.73802 0.82919 0.0
O665 O 0.65766 0.73488 0.86607 0.0
O666 O 0.66005 0.71203 0.95946 0.0
O667 O 0.67582 0.74951 0.99688 0.0
O668 O 0.63612 0.76622 0.92633 0.0
O669 O 0.67347 0.77625 0.91074 0.0
O670 O 0.62652 0.74484 1.00728 0.0
O671 O 0.59837 0.75482 0.96467 0.0
H672 H 0.62319 0.7787 0.78616 0.0
H673 H 0.63217 0.80163 0.70663 0.0
H674 H 0.55001 0.77673 0.69157 0.0
H675 H 0.54107 0.75306 0.77032 0.0
H676 H 0.62835 0.70537 1.03832 0.0
H677 H 0.6159 0.68741 0.12081 0.0
H678 H 0.6949 0.70402 0.14782 0.0
H679 H 0.70679 0.72041 0.06194 0.0
Tb680 Tb 0.26058 0.85687 0.89021 0.0
Tb681 Tb 0.25625 0.90059 0.93377 0.0
C682 C 0.25109 0.8199 0.83101 0.0
C683 C 0.23652 0.81118 0.78229 0.0
C684 C 0.21177 0.78818 0.77959 0.0
C685 C 0.19785 0.77974 0.73449 0.0
C686 C 0.20818 0.79388 0.69019 0.0
C687 C 0.23281 0.8171 0.69306 0.0
C688 C 0.24678 0.82549 0.73816 0.0
C689 C 0.30069 0.88591 0.95281 0.0
C690 C 0.25822 0.8999 0.81672 0.0
C691 C 0.2635 0.941 0.97784 0.0
C692 C 0.2731 0.95187 1.02646 0.0
C693 C 0.28778 0.9791 1.03319 0.0
C694 C 0.29973 0.98924 0.07881 0.0
C695 C 0.29739 0.97195 0.11657 0.0
C696 C 0.28196 0.94486 0.11011 0.0
C697 C 0.26959 0.93489 0.06552 0.0
C698 C 0.21035 0.86159 0.90149 0.0
C699 C 0.24352 0.85049 1.00288 0.0
O700 O 0.23696 0.8172 0.8703 0.0
O701 O 0.27355 0.84207 0.83223 0.0
O702 O 0.28922 0.89452 0.9236 0.0
O703 O 0.29302 0.86208 0.93838 0.0
O704 O 0.25815 0.87758 0.82277 0.0
O705 O 0.25969 0.9139 0.85609 0.0
O706 O 0.28107 0.94034 0.9491 0.0
O707 O 0.24105 0.91901 0.97737 0.0
O708 O 0.22963 0.86095 0.91912 0.0
O709 O 0.21802 0.88631 0.89761 0.0
O710 O 0.25023 0.87586 1.00118 0.0
O711 O 0.24344 0.83801 0.96156 0.0
H712 H 0.20313 0.77657 0.81257 0.0
H713 H 0.17907 0.76177 0.7342 0.0
H714 H 0.24131 0.82906 0.66044 0.0
H715 H 0.26566 0.84329 0.73836 0.0
H716 H 0.29051 0.99235 1.00302 0.0
H717 H 0.31111 0.01025 0.08431 0.0
H718 H 0.27935 0.93142 0.13988 0.0
H719 H 0.25806 0.91385 0.06112 0.0
Tb720 Tb 0.64243 0.89671 0.42712 0.0
Tb721 Tb 0.59535 0.85133 0.39116 0.0
C722 C 0.67524 0.93671 0.47281 0.0
C723 C 0.67175 0.94415 0.52188 0.0
C724 C 0.64668 0.93007 0.54194 0.0
C725 C 0.64195 0.93461 0.58961 0.0
C726 C 0.66244 0.95323 0.61878 0.0
C727 C 0.68783 0.96777 0.59862 0.0
C728 C 0.6925 0.96319 0.54992 0.0
C729 C 0.65153 0.85985 0.38982 0.0
C730 C 0.6097 0.84726 0.50073 0.0
C731 C 0.56649 0.81452 0.33341 0.0
C732 C 0.57249 0.80574 0.28518 0.0
C733 C 0.57562 0.78353 0.28335 0.0
C734 C 0.5819 0.77552 0.23874 0.0
C735 C 0.58505 0.78928 0.19426 0.0
C736 C 0.58218 0.81164 0.19616 0.0
C737 C 0.57598 0.8197 0.24077 0.0
C738 C 0.58374 0.87986 0.45477 0.0
C739 C 0.63699 0.89375 0.31289 0.0
O740 O 0.65891 0.93689 0.44009 0.0
O741 O 0.67587 0.91488 0.47199 0.0
O742 O 0.63217 0.8573 0.41358 0.0
O743 O 0.6666 0.88491 0.38436 0.0
O744 O 0.62669 0.87289 0.49621 0.0
O745 O 0.59655 0.83329 0.46134 0.0
O746 O 0.57727 0.81125 0.37326 0.0
O747 O 0.56715 0.83716 0.33402 0.0
O748 O 0.60244 0.88903 0.42238 0.0
O749 O 0.56917 0.85518 0.44416 0.0
O750 O 0.61874 0.86935 0.32255 0.0
O751 O 0.64686 0.91045 0.34999 0.0
H752 H 0.63068 0.91538 0.52042 0.0
H753 H 0.62198 0.924 0.60297 0.0
H754 H 0.70402 0.98221 0.62063 0.0
H755 H 0.71208 0.97403 0.53462 0.0
H756 H 0.57323 0.77229 0.31662 0.0
H757 H 0.58388 0.75822 0.23891 0.0
H758 H 0.58502 0.82315 0.1631 0.0
H759 H 0.57408 0.83705 0.24038 0.0
Tb760 Tb 0.09673 0.74036 0.43477 0.0
Tb761 Tb 0.14067 0.73692 0.39007 0.0
C762 C 0.05725 0.73125 0.48408 0.0
C763 C 0.04834 0.71943 0.53229 0.0
C764 C 0.02159 0.70588 0.54328 0.0
C765 C 0.01298 0.69147 0.58695 0.0
C766 C 0.03122 0.6908 0.61982 0.0
C767 C 0.05801 0.70505 0.60885 0.0
C768 C 0.06644 0.71907 0.56534 0.0
C769 C 0.13408 0.78631 0.4008 0.0
C770 C 0.14866 0.75536 0.50129 0.0
C771 C 0.17719 0.74626 0.32996 0.0
C772 C 0.18604 0.76137 0.28186 0.0
C773 C 0.20927 0.78597 0.28003 0.0
C774 C 0.21795 0.80036 0.23551 0.0
C775 C 0.20384 0.79062 0.19093 0.0
C776 C 0.18034 0.76619 0.19295 0.0
C777 C 0.17166 0.7518 0.23749 0.0
C778 C 0.11184 0.69695 0.45412 0.0
C779 C 0.09679 0.73869 0.31769 0.0
O780 O 0.05725 0.71511 0.45075 0.0
O781 O 0.07895 0.75396 0.48419 0.0
O782 O 0.13591 0.76763 0.41821 0.0
O783 O 0.10913 0.77805 0.39858 0.0
O784 O 0.12313 0.74793 0.50031 0.0
O785 O 0.16083 0.75542 0.4597 0.0
O786 O 0.18035 0.76005 0.37002 0.0
O787 O 0.15475 0.72404 0.33068 0.0
O788 O 0.10336 0.708 0.42385 0.0
O789 O 0.13598 0.70535 0.44062 0.0
O790 O 0.11948 0.7394 0.32331 0.0
O791 O 0.08269 0.73659 0.35738 0.0
H792 H 0.00738 0.70555 0.51732 0.0
H793 H 0.99211 0.68012 0.59395 0.0
H794 H 0.07258 0.70547 0.63397 0.0
H795 H 0.0871 0.72927 0.55742 0.0
H796 H 0.22093 0.79411 0.31322 0.0
H797 H 0.23609 0.81897 0.23585 0.0
H798 H 0.16844 0.75818 0.16002 0.0
H799 H 0.15359 0.73313 0.23704 0.0
Tb800 Tb 0.24778 0.35844 0.43058 0.0
Tb801 Tb 0.26081 0.40325 0.38754 0.0
C802 C 0.23165 0.31369 0.46782 0.0
C803 C 0.24246 0.3049 0.50701 0.0
C804 C 0.26662 0.32308 0.52706 0.0
C805 C 0.27531 0.31763 0.5708 0.0
C806 C 0.26012 0.2935 0.59488 0.0
C807 C 0.23691 0.27421 0.57196 0.0
C808 C 0.22796 0.28001 0.52832 0.0
C809 C 0.2014 0.36559 0.39698 0.0
C810 C 0.24079 0.39683 0.49795 0.0
C811 C 0.25851 0.43396 0.32463 0.0
C812 C 0.24479 0.42862 0.27521 0.0
C813 C 0.22831 0.40282 0.25809 0.0
C814 C 0.21436 0.39786 0.21302 0.0
C815 C 0.21631 0.41851 0.18336 0.0
C816 C 0.23278 0.44432 0.20085 0.0
C817 C 0.24679 0.44926 0.24586 0.0
C818 C 0.29719 0.41246 0.45994 0.0
C819 C 0.26248 0.35941 0.31907 0.0
O820 O 0.24607 0.32207 0.42803 0.0
O821 O 0.22419 0.33005 0.48259 0.0
O822 O 0.2231 0.3663 0.38568 0.0
O823 O 0.22302 0.3665 0.38449 0.0
O824 O 0.24637 0.37777 0.49881 0.0
O825 O 0.24205 0.40833 0.45488 0.0
O826 O 0.24316 0.42473 0.36323 0.0
O827 O 0.27847 0.42999 0.32842 0.0
O828 O 0.28668 0.39218 0.43145 0.0
O829 O 0.29056 0.42878 0.4422 0.0
O830 O 0.26588 0.38324 0.32191 0.0
O831 O 0.25851 0.34628 0.36088 0.0
H832 H 0.27764 0.34228 0.51056 0.0
H833 H 0.29255 0.33339 0.58818 0.0
H834 H 0.22473 0.25549 0.58977 0.0
H835 H 0.20916 0.26573 0.51294 0.0
H836 H 0.22594 0.38637 0.27987 0.0
H837 H 0.20205 0.37772 0.20131 0.0
H838 H 0.23444 0.46085 0.18033 0.0
H839 H 0.25891 0.46933 0.25814 0.0
Tb840 Tb 0.23708 0.3148 0.99792 0.0
Tb841 Tb 0.19327 0.26822 1.04177 0.0
C842 C 0.27385 0.34583 0.94309 0.0
C843 C 0.27852 0.3439 0.89015 0.0
C844 C 0.2979 0.33808 0.87612 0.0
C845 C 0.29758 0.32832 0.82895 0.0
C846 C 0.27838 0.32517 0.79449 0.0
C847 C 0.26124 0.33444 0.80665 0.0
C848 C 0.2611 0.34347 0.85417 0.0
C849 C 0.2009 0.32397 1.03754 0.0
C850 C 0.18566 0.27839 0.93063 0.0
C851 C 0.15623 0.24067 0.10099 0.0
C852 C 0.14775 0.24589 0.15004 0.0
C853 C 0.15783 0.27154 0.16849 0.0
C854 C 0.14884 0.2762 0.21369 0.0
C855 C 0.12936 0.25537 0.24184 0.0
C856 C 0.11916 0.22976 0.22282 0.0
C857 C 0.1283 0.22511 0.17785 0.0
C858 C 0.22038 0.25555 0.97723 0.0
C859 C 0.23897 0.31177 0.11432 0.0
O860 O 0.27522 0.32857 0.97168 0.0
O861 O 0.25356 0.34834 0.95353 0.0
O862 O 0.19787 0.30398 1.01523 0.0
O863 O 0.22608 0.33921 1.04136 0.0
O864 O 0.21105 0.29664 0.93199 0.0
O865 O 0.17337 0.26615 0.9719 0.0
O866 O 0.15407 0.25329 0.0631 0.0
O867 O 0.17834 0.24032 0.09959 0.0
O868 O 0.23015 0.27546 1.00689 0.0
O869 O 0.19638 0.24052 0.99195 0.0
O870 O 0.21544 0.29094 0.10833 0.0
O871 O 0.25323 0.32347 0.07447 0.0
H872 H 0.3119 0.33914 0.90303 0.0
H873 H 0.31115 0.3216 0.82092 0.0
H874 H 0.24696 0.33349 0.78016 0.0
H875 H 0.2463 0.34856 0.8633 0.0
H876 H 0.17255 0.28808 0.14775 0.0
H877 H 0.15728 0.29619 0.22674 0.0
H878 H 0.10364 0.21318 0.24218 0.0
H879 H 0.11981 0.20519 0.16438 0.0
Tb880 Tb 0.6877 0.92305 0.99785 0.0
Tb881 Tb 0.73436 0.92395 1.04106 0.0
C882 C 0.65668 0.93495 0.95849 0.0
C883 C 0.65665 0.94871 0.91457 0.0
C884 C 0.67812 0.9583 0.88267 0.0
C885 C 0.67653 0.96753 0.83656 0.0
C886 C 0.65343 0.9671 0.82217 0.0
C887 C 0.63277 0.95957 0.85573 0.0
C888 C 0.63441 0.95031 0.90222 0.0
C889 C 0.67786 0.87567 1.02772 0.0
C890 C 0.72335 0.90782 0.9289 0.0
C891 C 0.76236 0.91619 0.1023 0.0
C892 C 0.75612 0.9009 0.15013 0.0
C893 C 0.73059 0.88048 0.16113 0.0
C894 C 0.72498 0.86631 0.20601 0.0
C895 C 0.74477 0.87173 0.24146 0.0
C896 C 0.77029 0.89236 0.23033 0.0
C897 C 0.77583 0.90665 0.18559 0.0
C898 C 0.74615 0.96552 0.98036 0.0
C899 C 0.68836 0.91974 0.11337 0.0
O900 O 0.67424 0.94958 0.99147 0.0
O901 O 0.65613 0.91278 0.95021 0.0
O902 O 0.69854 0.89461 1.01175 0.0
O903 O 0.66112 0.88387 1.02848 0.0
O904 O 0.70659 0.9171 0.93024 0.0
O905 O 0.73436 0.90564 0.97054 0.0
O906 O 0.7528 0.9026 0.06145 0.0
O907 O 0.76024 0.93736 0.10231 0.0
O908 O 0.72696 0.95432 1.01118 0.0
O909 O 0.76111 0.9557 0.99022 0.0
O910 O 0.70767 0.91495 0.10563 0.0
O911 O 0.67947 0.9274 0.07595 0.0
H912 H 0.69531 0.95702 0.89216 0.0
H913 H 0.69234 0.97268 0.81044 0.0
H914 H 0.61462 0.95848 0.84427 0.0
H915 H 0.6178 0.94288 0.9271 0.0
H916 H 0.71481 0.87543 0.13499 0.0
H917 H 0.70491 0.8513 0.21311 0.0
H918 H 0.78622 0.89732 0.25604 0.0
H919 H 0.7957 0.9222 0.1786 0.0
Tb920 Tb 0.07498 0.75996 0.99434 0.0
Tb921 Tb 0.07241 0.80515 1.03686 0.0
C922 C 0.0657 0.71816 0.9523 0.0
C923 C 0.05587 0.70317 0.90621 0.0
C924 C 0.03138 0.68001 0.90566 0.0
C925 C 0.02077 0.66672 0.86132 0.0
C926 C 0.03525 0.67594 0.81766 0.0
C927 C 0.06068 0.69776 0.81898 0.0
C928 C 0.07091 0.71136 0.86287 0.0
C929 C 0.12124 0.79774 1.02679 0.0
C930 C 0.09068 0.8112 0.92505 0.0
C931 C 0.0833 0.84281 0.09531 0.0
C932 C 0.09796 0.85122 0.14374 0.0
C933 C 0.11845 0.84619 0.1548 0.0
C934 C 0.13296 0.85529 0.19922 0.0
C935 C 0.12753 0.86976 0.23421 0.0
C936 C 0.10657 0.87416 0.22349 0.0
C937 C 0.09212 0.86513 0.17899 0.0
C938 C 0.03168 0.77583 0.97538 0.0
C939 C 0.07372 0.76199 0.11164 0.0
O940 O 0.04856 0.72036 0.97978 0.0
O941 O 0.08831 0.73995 0.95034 0.0
O942 O 0.10248 0.79931 1.00899 0.0
O943 O 0.1126 0.77284 1.03155 0.0
O944 O 0.08432 0.78593 0.92746 0.0
O945 O 0.08979 0.82369 0.96557 0.0
O946 O 0.09721 0.84462 1.0561 0.0
O947 O 0.06051 0.821 0.09496 0.0
O948 O 0.04309 0.76747 1.00513 0.0
O949 O 0.03981 0.79997 0.98843 0.0
O950 O 0.0744 0.78454 0.10469 0.0
O951 O 0.07171 0.74741 0.07274 0.0
H952 H 0.02021 0.67265 0.93929 0.0
H953 H 0.00112 0.64991 0.8608 0.0
H954 H 0.07202 0.70531 0.7853 0.0
H955 H 0.09016 0.72874 0.86229 0.0
H956 H 0.1234 0.83532 0.12885 0.0
H957 H 0.14834 0.85075 0.2063 0.0
H958 H 0.10162 0.88512 0.24919 0.0
H959 H 0.07649 0.86933 0.17186 0.0
Tb960 Tb 0.40141 0.14239 0.87564 0.0
Tb961 Tb 0.35361 0.09944 0.82924 0.0
C962 C 0.42939 0.17754 0.93795 0.0
C963 C 0.42336 0.18592 0.98645 0.0
C964 C 0.39778 0.1804 0.99817 0.0
C965 C 0.39255 0.18957 1.04259 0.0
C966 C 0.41274 0.2047 0.07676 0.0
C967 C 0.43819 0.20958 0.0654 0.0
C968 C 0.4434 0.20041 1.02095 0.0
C969 C 0.41244 0.11324 0.81234 0.0
C970 C 0.35485 0.09849 0.94642 0.0
C971 C 0.32302 0.06194 0.77468 0.0
C972 C 0.32828 0.05529 0.72574 0.0
C973 C 0.35253 0.07227 0.70484 0.0
C974 C 0.36029 0.06602 0.66151 0.0
C975 C 0.34383 0.04256 0.63678 0.0
C976 C 0.31854 0.02584 0.65627 0.0
C977 C 0.31094 0.03204 0.70117 0.0
C978 C 0.34624 0.13754 0.86421 0.0
C979 C 0.39288 0.15199 0.76534 0.0
O980 O 0.41908 0.18168 0.89844 0.0
O981 O 0.42772 0.15448 0.93628 0.0
O982 O 0.3923 0.10477 0.84121 0.0
O983 O 0.42832 0.13722 0.82646 0.0
O984 O 0.37687 0.12113 0.94108 0.0
O985 O 0.3427 0.08462 0.90637 0.0
O986 O 0.33714 0.05985 0.80999 0.0
O987 O 0.32337 0.08427 0.77667 0.0
O988 O 0.36645 0.13873 0.84667 0.0
O989 O 0.32898 0.11273 0.86549 0.0
O990 O 0.37433 0.12668 0.76561 0.0
O991 O 0.4045 0.16402 0.8073 0.0
H992 H 0.38179 0.16917 0.97269 0.0
H993 H 0.37256 0.18465 1.05022 0.0
H994 H 0.4543 0.22107 0.09045 0.0
H995 H 0.46329 0.205 1.0132 0.0
H996 H 0.36659 0.08957 0.72389 0.0
H997 H 0.38003 0.07918 0.64928 0.0
H998 H 0.30457 0.00822 0.63703 0.0
H999 H 0.29187 0.01875 0.71674 0.0
Tb1000 Tb 0.85953 0.25996 0.87428 0.0
Tb1001 Tb 0.906 0.25948 0.8313 0.0
C1002 C 0.82142 0.2484 0.93155 0.0
C1003 C 0.81293 0.234 0.98029 0.0
C1004 C 0.79216 0.20786 0.98204 0.0
C1005 C 0.78418 0.19396 1.02703 0.0
C1006 C 0.79644 0.20582 0.07215 0.0
C1007 C 0.81696 0.23211 0.07064 0.0
C1008 C 0.82515 0.24594 1.02548 0.0
C1009 C 0.88739 0.30128 0.81394 0.0
C1010 C 0.90309 0.25942 0.94929 0.0
C1011 C 0.94838 0.27003 0.79053 0.0
C1012 C 0.96368 0.28259 0.74647 0.0
C1013 C 0.99045 0.29058 0.74549 0.0
C1014 C 0.00507 0.30194 0.70287 0.0
C1015 C 0.99308 0.30573 0.66154 0.0
C1016 C 0.96643 0.29828 0.6632 0.0
C1017 C 0.95167 0.286 0.70483 0.0
C1018 C 0.86802 0.21206 0.86081 0.0
C1019 C 0.85624 0.24513 0.76072 0.0
O1020 O 0.81999 0.23448 0.89258 0.0
O1021 O 0.84281 0.27153 0.93097 0.0
O1022 O 0.8968 0.29034 0.84261 0.0
O1023 O 0.86318 0.29206 0.82759 0.0
O1024 O 0.88015 0.25799 0.94234 0.0
O1025 O 0.91799 0.26237 0.91032 0.0
O1026 O 0.94603 0.28564 0.82204 0.0
O1027 O 0.92631 0.24812 0.78334 0.0
O1028 O 0.86673 0.23121 0.84471 0.0
O1029 O 0.89294 0.22022 0.86218 0.0
O1030 O 0.8821 0.25412 0.76334 0.0
O1031 O 0.8424 0.2426 0.80164 0.0
H1032 H 0.7819 0.19808 0.94844 0.0
H1033 H 0.76798 0.17399 1.02656 0.0
H1034 H 0.82692 0.24196 0.10447 0.0
H1035 H 0.84109 0.26603 1.02609 0.0
H1036 H -0.00023 0.28709 0.77682 0.0
H1037 H 0.02521 0.30661 0.70129 0.0
H1038 H 0.95651 0.2998 0.63059 0.0
H1039 H 0.93071 0.27819 0.7037 0.0
Tb1040 Tb 0.74119 0.60297 0.86856 0.0
Tb1041 Tb 0.73601 0.64861 0.82785 0.0
C1042 C 0.7585 0.5803 0.92356 0.0
C1043 C 0.77392 0.58738 0.97132 0.0
C1044 C 0.79661 0.61208 0.97869 0.0
C1045 C 0.81154 0.61793 1.02268 0.0
C1046 C 0.80399 0.59949 0.06126 0.0
C1047 C 0.78112 0.57493 1.0541 0.0
C1048 C 0.76642 0.56897 1.00988 0.0
C1049 C 0.69882 0.58758 0.81034 0.0
C1050 C 0.73688 0.64391 0.94546 0.0
C1051 C 0.72021 0.67512 0.78224 0.0
C1052 C 0.70927 0.6733 0.73245 0.0
C1053 C 0.68225 0.66352 0.72664 0.0
C1054 C 0.67077 0.65624 0.67987 0.0
C1055 C 0.68626 0.65945 0.63837 0.0
C1056 C 0.71356 0.67155 0.64356 0.0
C1057 C 0.72501 0.67836 0.69024 0.0
C1058 C 0.7843 0.66122 0.85646 0.0
C1059 C 0.75562 0.61721 0.75541 0.0
O1060 O 0.77073 0.59397 0.88418 0.0
O1061 O 0.73415 0.57546 0.92537 0.0
O1062 O 0.70902 0.60754 0.83971 0.0
O1063 O 0.7093 0.5734 0.82239 0.0
O1064 O 0.74085 0.62405 0.93662 0.0
O1065 O 0.73227 0.65569 0.90788 0.0
O1066 O 0.70544 0.65608 0.81285 0.0
O1067 O 0.74481 0.68114 0.78408 0.0
O1068 O 0.76578 0.64032 0.8406 0.0
O1069 O 0.77505 0.67715 0.85748 0.0
O1070 O 0.74477 0.63254 0.75912 0.0
O1071 O 0.75871 0.60568 0.79541 0.0
H1072 H 0.80289 0.62702 0.95053 0.0
H1073 H 0.82875 0.63713 1.0269 0.0
H1074 H 0.77466 0.56012 0.08271 0.0
H1075 H 0.74916 0.5498 1.00575 0.0
H1076 H 0.66986 0.65991 0.75857 0.0
H1077 H 0.64973 0.64634 0.67642 0.0
H1078 H 0.72591 0.67447 0.6117 0.0
H1079 H 0.74598 0.68628 0.69325 0.0
Tb1080 Tb 0.79934 0.72572 0.23336 0.0
Tb1081 Tb 0.75163 0.6772 0.2752 0.0
C1082 C 0.8389 0.75096 0.17812 0.0
C1083 C 0.84729 0.74609 0.12834 0.0
C1084 C 0.82971 0.73491 0.08834 0.0
C1085 C 0.83799 0.72997 1.04253 0.0
C1086 C 0.86427 0.73637 1.03472 0.0
C1087 C 0.88172 0.74734 0.07507 0.0
C1088 C 0.87337 0.75209 0.12094 0.0
C1089 C 0.77154 0.73774 0.2966 0.0
C1090 C 0.75573 0.6834 0.15686 0.0
C1091 C 0.70732 0.64496 0.30877 0.0
C1092 C 0.68832 0.63923 0.34831 0.0
C1093 C 0.68408 0.6587 0.36793 0.0
C1094 C 0.67048 0.65433 0.41226 0.0
C1095 C 0.66105 0.6304 0.43735 0.0
C1096 C 0.66193 0.60967 0.41346 0.0
C1097 C 0.67568 0.61415 0.36925 0.0
C1098 C 0.78897 0.66848 0.24057 0.0
C1099 C 0.80249 0.7111 0.34589 0.0
O1100 O 0.83792 0.73571 0.21435 0.0
O1101 O 0.81903 0.75527 0.17977 0.0
O1102 O 0.76207 0.71789 0.26664 0.0
O1103 O 0.79561 0.75347 0.28243 0.0
O1104 O 0.77705 0.70637 0.16457 0.0
O1105 O 0.74198 0.66897 0.19513 0.0
O1106 O 0.71142 0.6638 0.27774 0.0
O1107 O 0.72897 0.64522 0.32138 0.0
O1108 O 0.79013 0.68857 0.25809 0.0
O1109 O 0.76448 0.65069 0.24473 0.0
O1110 O 0.77684 0.69311 0.34298 0.0
O1111 O 0.81591 0.72441 0.30587 0.0
H1112 H 0.80946 0.72986 0.09231 0.0
H1113 H 0.82357 0.72077 1.0134 0.0
H1114 H 0.90207 0.75262 0.07106 0.0
H1115 H 0.88745 0.76053 0.15087 0.0
H1116 H 0.69322 0.67796 0.35138 0.0
H1117 H 0.67065 0.67088 0.42987 0.0
H1118 H 0.65447 0.59088 0.43158 0.0
H1119 H 0.67813 0.59859 0.35351 0.0
Tb1120 Tb 0.26576 0.07605 0.22756 0.0
Tb1121 Tb 0.31202 0.07526 0.27078 0.0
C1122 C 0.24028 0.09016 0.17193 0.0
C1123 C 0.24568 0.10509 0.12384 0.0
C1124 C 0.26063 0.10281 0.08548 0.0
C1125 C 0.26612 0.11765 1.04154 0.0
C1126 C 0.25681 0.13532 1.0341 0.0
C1127 C 0.24155 0.13729 0.07237 0.0
C1128 C 0.23623 0.12256 0.11645 0.0
C1129 C 0.25176 0.035 0.28985 0.0
C1130 C 0.30896 0.07472 0.15302 0.0
C1131 C 0.3434 0.06388 0.31039 0.0
C1132 C 0.34587 0.05124 0.35429 0.0
C1133 C 0.36555 0.04452 0.35653 0.0
C1134 C 0.36909 0.03382 0.39986 0.0
C1135 C 0.3527 0.02939 0.4404 0.0
C1136 C 0.33192 0.03459 0.43664 0.0
C1137 C 0.32886 0.04598 0.39415 0.0
C1138 C 0.32267 0.12274 0.23981 0.0
C1139 C 0.27807 0.09153 0.34121 0.0
O1140 O 0.25407 0.10359 0.21029 0.0
O1141 O 0.23758 0.06662 0.17097 0.0
O1142 O 0.27171 0.04515 0.26028 0.0
O1143 O 0.23717 0.04465 0.27556 0.0
O1144 O 0.28737 0.07602 0.15957 0.0
O1145 O 0.32107 0.07219 0.19214 0.0
O1146 O 0.32505 0.04841 0.27922 0.0
O1147 O 0.34388 0.08608 0.3179 0.0
O1148 O 0.30208 0.10416 0.25674 0.0
O1149 O 0.33858 0.11361 0.23706 0.0
O1150 O 0.29469 0.0822 0.33908 0.0
O1151 O 0.26654 0.09356 0.30013 0.0
H1152 H 0.26816 0.08956 0.08928 0.0
H1153 H 0.27796 0.11541 1.01344 0.0
H1154 H 0.23323 0.14991 0.06808 0.0
H1155 H 0.22455 0.1248 0.14491 0.0
H1156 H 0.37874 0.0485 0.32563 0.0
H1157 H 0.3855 0.03063 0.40307 0.0
H1158 H 0.31962 0.0321 0.46837 0.0
H1159 H 0.31381 0.0514 0.39295 0.0
Tb1160 Tb 0.92388 0.19167 0.22987 0.0
Tb1161 Tb 0.92498 0.23881 0.27544 0.0
C1162 C 0.91047 0.15338 0.17155 0.0
C1163 C 0.89565 0.14541 0.12346 0.0
C1164 C 0.88164 0.1574 0.10601 0.0
C1165 C 0.86726 0.14925 0.06133 0.0
C1166 C 0.86608 0.12853 1.03293 0.0
C1167 C 0.88027 0.1167 1.05065 0.0
C1168 C 0.89479 0.12501 0.09507 0.0
C1169 C 0.96548 0.2188 0.29003 0.0
C1170 C 0.92528 0.23718 0.1575 0.0
C1171 C 0.9382 0.27949 0.32467 0.0
C1172 C 0.94975 0.28781 0.37402 0.0
C1173 C 0.97415 0.31074 0.37935 0.0
C1174 C 0.98738 0.31647 0.42457 0.0
C1175 C 0.97644 0.29915 0.46457 0.0
C1176 C 0.95124 0.27723 0.46002 0.0
C1177 C 0.93809 0.27146 0.41507 0.0
C1178 C 0.8776 0.20244 0.2438 0.0
C1179 C 0.90818 0.1871 0.34338 0.0
O1180 O 0.89704 0.15269 0.21067 0.0
O1181 O 0.93383 0.17445 0.17134 0.0
O1182 O 0.95467 0.22842 0.26183 0.0
O1183 O 0.95592 0.19455 0.27607 0.0
O1184 O 0.92377 0.21415 0.16339 0.0
O1185 O 0.9278 0.25172 0.19702 0.0
O1186 O 0.95349 0.27748 0.29183 0.0
O1187 O 0.91418 0.25964 0.32318 0.0
O1188 O 0.89624 0.20021 0.25997 0.0
O1189 O 0.88626 0.22751 0.24397 0.0
O1190 O 0.91753 0.21307 0.34202 0.0
O1191 O 0.90625 0.17391 0.30185 0.0
H1192 H 0.88167 0.17306 0.127 0.0
H1193 H 0.85735 0.15949 1.04884 0.0
H1194 H 0.87988 0.10064 1.03045 0.0
H1195 H 0.90521 0.11525 0.10751 0.0
H1196 H 0.98338 0.32362 0.34807 0.0
H1197 H 0.00641 0.33393 0.42792 0.0
H1198 H 0.9418 0.26424 0.49108 0.0
H1199 H 0.91922 0.25369 0.41223 0.0
Tb1200 Tb 0.31183 0.24243 0.7711 0.0
Tb1201 Tb 0.26643 0.19395 0.72877 0.0
C1202 C 0.34073 0.28631 0.8096 0.0
C1203 C 0.34115 0.30105 0.85283 0.0
C1204 C 0.36081 0.32735 0.85763 0.0
C1205 C 0.36348 0.34053 0.90202 0.0
C1206 C 0.34627 0.32747 0.94114 0.0
C1207 C 0.32527 0.30186 0.93448 0.0
C1208 C 0.32294 0.28859 0.89069 0.0
C1209 C 0.32387 0.20585 0.74598 0.0
C1210 C 0.27737 0.19278 0.84332 0.0
C1211 C 0.24179 0.15462 0.67288 0.0
C1212 C 0.24809 0.14656 0.62415 0.0
C1213 C 0.2725 0.14823 0.61529 0.0
C1214 C 0.27776 0.13983 0.56991 0.0
C1215 C 0.25892 0.12974 0.53163 0.0
C1216 C 0.23459 0.12824 0.54059 0.0
C1217 C 0.22929 0.1365 0.58599 0.0
C1218 C 0.25133 0.22157 0.78679 0.0
C1219 C 0.30984 0.23738 0.65329 0.0
O1220 O 0.3225 0.28185 0.77691 0.0
O1221 O 0.34282 0.26559 0.81872 0.0
O1222 O 0.30271 0.20353 0.76047 0.0
O1223 O 0.33978 0.23093 0.74344 0.0
O1224 O 0.29367 0.21879 0.8399 0.0
O1225 O 0.26669 0.17825 0.80273 0.0
O1226 O 0.25552 0.15504 0.7115 0.0
O1227 O 0.23801 0.17479 0.67264 0.0
O1228 O 0.2715 0.23094 0.75786 0.0
O1229 O 0.23712 0.19709 0.77371 0.0
O1230 O 0.2887 0.2143 0.66084 0.0
O1231 O 0.32148 0.25303 0.69165 0.0
H1232 H 0.37491 0.33713 0.82825 0.0
H1233 H 0.37998 0.36002 0.90723 0.0
H1234 H 0.31221 0.29128 0.96486 0.0
H1235 H 0.30793 0.26818 0.88745 0.0
H1236 H 0.2876 0.15598 0.64353 0.0
H1237 H 0.29675 0.1415 0.56459 0.0
H1238 H 0.21933 0.12021 0.51268 0.0
H1239 H 0.21029 0.13481 0.59143 0.0
Tb1240 Tb 0.75844 0.07644 0.77041 0.0
Tb1241 Tb 0.80407 0.0734 0.73115 0.0
C1242 C 0.71443 0.06666 0.80191 0.0
C1243 C 0.69459 0.05188 0.83901 0.0
C1244 C 0.69193 0.02869 0.85811 0.0
C1245 C 0.67836 0.01858 0.90207 0.0
C1246 C 0.6681 0.03209 0.92752 0.0
C1247 C 0.66675 0.05255 0.90373 0.0
C1248 C 0.68027 0.06264 0.85955 0.0
C1249 C 0.79774 0.12297 0.74035 0.0
C1250 C 0.80756 0.09108 0.84338 0.0
C1251 C 0.84298 0.08627 0.6749 0.0
C1252 C 0.85123 0.10057 0.6258 0.0
C1253 C 0.85101 0.12413 0.61744 0.0
C1254 C 0.85981 0.13791 0.5722 0.0
C1255 C 0.86887 0.12854 0.53324 0.0
C1256 C 0.8689 0.10487 0.54161 0.0
C1257 C 0.86028 0.09119 0.58698 0.0
C1258 C 0.77517 0.03371 0.79507 0.0
C1259 C 0.76222 0.07479 0.6532 0.0
O1260 O 0.71786 0.05273 0.76807 0.0
O1261 O 0.73663 0.08619 0.81832 0.0
O1262 O 0.79797 0.10342 0.75723 0.0
O1263 O 0.77301 0.11543 0.73704 0.0
O1264 O 0.7823 0.08456 0.8393 0.0
O1265 O 0.82102 0.09062 0.8039 0.0
O1266 O 0.84335 0.1 0.7134 0.0
O1267 O 0.82229 0.0626 0.67551 0.0
O1268 O 0.7663 0.04429 0.76405 0.0
O1269 O 0.79921 0.04159 0.78113 0.0
O1270 O 0.78328 0.07272 0.66117 0.0
O1271 O 0.74854 0.07528 0.69133 0.0
H1272 H 0.70272 0.02014 0.84203 0.0
H1273 H 0.68024 0.00334 0.92049 0.0
H1274 H 0.65927 0.06348 0.92331 0.0
H1275 H 0.68177 0.08036 0.8444 0.0
H1276 H 0.8441 0.13207 0.64605 0.0
H1277 H 0.85923 0.15587 0.56752 0.0
H1278 H 0.8761 0.09708 0.51327 0.0
H1279 H 0.86095 0.0733 0.59188 0.0
Tb1280 Tb 0.91692 0.68253 0.77443 0.0
Tb1281 Tb 0.92059 0.73087 0.7314 0.0
C1282 C 0.92243 0.65034 0.82678 0.0
C1283 C 0.93971 0.65488 0.86894 0.0
C1284 C 0.9335 0.63538 0.90448 0.0
C1285 C 0.9486 0.64124 0.94755 0.0
C1286 C 0.96999 0.66662 0.95507 0.0
C1287 C 0.97695 0.68546 0.91794 0.0
C1288 C 0.96165 0.67977 0.87564 0.0
C1289 C 0.87132 0.67547 0.73938 0.0
C1290 C 0.90297 0.71912 0.84285 0.0
C1291 C 0.90927 0.7568 0.67159 0.0
C1292 C 0.89424 0.74932 0.62347 0.0
C1293 C 0.87824 0.72287 0.60941 0.0
C1294 C 0.86329 0.71596 0.56532 0.0
C1295 C 0.86357 0.73525 0.53383 0.0
C1296 C 0.87991 0.76172 0.54783 0.0
C1297 C 0.89492 0.7686 0.59184 0.0
C1298 C 0.96081 0.74219 0.79425 0.0
C1299 C 0.9207 0.68674 0.65673 0.0
O1300 O 0.93436 0.65951 0.78472 0.0
O1301 O 0.90416 0.6563 0.83434 0.0
O1302 O 0.89043 0.69511 0.75763 0.0
O1303 O 0.87838 0.65789 0.73935 0.0
O1304 O 0.91184 0.70221 0.84102 0.0
O1305 O 0.90173 0.73095 0.8017 0.0
O1306 O 0.89566 0.74525 0.71131 0.0
O1307 O 0.93217 0.75804 0.67235 0.0
O1308 O 0.94968 0.72228 0.76444 0.0
O1309 O 0.952 0.75777 0.78196 0.0
O1310 O 0.9206 0.70891 0.66409 0.0
O1311 O 0.92122 0.67328 0.69581 0.0
H1312 H 0.91648 0.61608 0.89985 0.0
H1313 H 0.9428 0.62638 0.97595 0.0
H1314 H 0.99374 0.70478 0.92263 0.0
H1315 H 0.96645 0.69497 0.8486 0.0
H1316 H 0.8771 0.70741 0.63274 0.0
H1317 H 0.85169 0.69542 0.55574 0.0
H1318 H 0.8808 0.77726 0.52507 0.0
H1319 H 0.90687 0.78912 0.60146 0.0
Tb1320 Tb 0.91174 0.64971 0.32531 0.0
Tb1321 Tb 0.86075 0.60872 0.36521 0.0
C1322 C 0.95913 0.67329 0.30006 0.0
C1323 C 0.9715 0.67382 0.253 0.0
C1324 C 0.95702 0.65447 0.21786 0.0
C1325 C 0.96718 0.65575 0.17107 0.0
C1326 C 0.9915 0.67715 0.15786 0.0
C1327 C 0.00627 0.69651 0.19303 0.0
C1328 C 0.99631 0.69481 0.24069 0.0
C1329 C 0.878 0.66559 0.32336 0.0
C1330 C 0.86196 0.62062 0.2518 0.0
C1331 C 0.82034 0.58671 0.41947 0.0
C1332 C 0.81237 0.59257 0.46896 0.0
C1333 C 0.81262 0.61629 0.47842 0.0
C1334 C 0.80403 0.6209 0.52424 0.0
C1335 C 0.79505 0.60208 0.56244 0.0
C1336 C 0.7949 0.57844 0.55294 0.0
C1337 C 0.80338 0.57379 0.50711 0.0
C1338 C 0.88437 0.58932 0.30454 0.0
C1339 C 0.9041 0.64685 0.44419 0.0
O1340 O 0.94777 0.65072 0.323 0.0
O1341 O 0.9443 0.68386 0.29866 0.0
O1342 O 0.87897 0.6505 0.35678 0.0
O1343 O 0.89894 0.67497 0.29643 0.0
O1344 O 0.88831 0.63282 0.25507 0.0
O1345 O 0.84729 0.61241 0.29234 0.0
O1346 O 0.8232 0.60232 0.38243 0.0
O1347 O 0.83855 0.58003 0.41916 0.0
O1348 O 0.89518 0.60835 0.33574 0.0
O1349 O 0.85938 0.57862 0.31341 0.0
O1350 O 0.88348 0.62345 0.43552 0.0
O1351 O 0.91767 0.66142 0.40563 0.0
H1352 H 0.93726 0.63909 0.2258 0.0
H1353 H 0.95502 0.64113 0.14387 0.0
H1354 H 0.02463 0.71351 0.18272 0.0
H1355 H 0.00731 0.7105 0.26684 0.0
H1356 H 0.81941 0.63138 0.45036 0.0
H1357 H 0.80475 0.63941 0.53002 0.0
H1358 H 0.78778 0.56321 0.5808 0.0
H1359 H 0.80264 0.55525 0.50133 0.0
Tb1360 Tb 0.35596 0.25989 0.33001 0.0
Tb1361 Tb 0.40284 0.2623 0.37576 0.0
C1362 C 0.32583 0.26947 0.27985 0.0
C1363 C 0.33079 0.28397 0.23386 0.0
C1364 C 0.35638 0.29687 0.21643 0.0
C1365 C 0.3627 0.31143 0.17356 0.0
C1366 C 0.34326 0.31172 0.14436 0.0
C1367 C 0.31717 0.29864 0.16197 0.0
C1368 C 0.31103 0.2851 0.2071 0.0
C1369 C 0.34694 0.21309 0.36084 0.0
C1370 C 0.39324 0.24618 0.26294 0.0
C1371 C 0.43017 0.25369 0.43695 0.0
C1372 C 0.42409 0.23929 0.48569 0.0
C1373 C 0.40456 0.21266 0.48956 0.0
C1374 C 0.39965 0.19908 0.53478 0.0
C1375 C 0.41405 0.21155 0.57793 0.0
C1376 C 0.43307 0.23837 0.57443 0.0
C1377 C 0.43809 0.25196 0.52901 0.0
C1378 C 0.41549 0.30334 0.31471 0.0
C1379 C 0.3565 0.25965 0.44725 0.0
O1380 O 0.33995 0.28384 0.31715 0.0
O1381 O 0.32649 0.24769 0.27601 0.0
O1382 O 0.36764 0.23221 0.34521 0.0
O1383 O 0.33007 0.22112 0.36224 0.0
O1384 O 0.3758 0.25441 0.26429 0.0
O1385 O 0.40463 0.24469 0.30468 0.0
O1386 O 0.41954 0.23957 0.39712 0.0
O1387 O 0.4297 0.27572 0.43564 0.0
O1388 O 0.39528 0.29207 0.34352 0.0
O1389 O 0.43058 0.2941 0.32734 0.0
O1390 O 0.37845 0.25889 0.44191 0.0
O1391 O 0.3448 0.26225 0.40746 0.0
H1392 H 0.37143 0.29529 0.23608 0.0
H1393 H 0.38283 0.32176 0.16264 0.0
H1394 H 0.3014 0.29808 0.14038 0.0
H1395 H 0.29098 0.27503 0.22026 0.0
H1396 H 0.39302 0.20214 0.45754 0.0
H1397 H 0.38438 0.1787 0.53593 0.0
H1398 H 0.44456 0.24875 0.60664 0.0
H1399 H 0.45317 0.27242 0.52768 0.0
Tb1400 Tb 0.74133 0.09579 0.32865 0.0
Tb1401 Tb 0.74179 0.1426 0.37313 0.0
C1402 C 0.73028 0.05627 0.27651 0.0
C1403 C 0.72079 0.05031 0.22576 0.0
C1404 C 0.71675 0.06859 0.20054 0.0
C1405 C 0.70657 0.06357 0.15336 0.0
C1406 C 0.70096 0.04034 0.12933 0.0
C1407 C 0.70617 0.02228 0.15337 0.0
C1408 C 0.71593 0.02719 0.20195 0.0
C1409 C 0.78839 0.1322 0.36085 0.0
C1410 C 0.75858 0.14836 0.26163 0.0
C1411 C 0.75399 0.18001 0.43269 0.0
C1412 C 0.76856 0.18791 0.48118 0.0
C1413 C 0.79169 0.1868 0.48874 0.0
C1414 C 0.80598 0.19564 0.53335 0.0
C1415 C 0.79759 0.20581 0.57204 0.0
C1416 C 0.77401 0.20611 0.56493 0.0
C1417 C 0.75981 0.19742 0.52017 0.0
C1418 C 0.70067 0.11574 0.31093 0.0
C1419 C 0.74074 0.09734 0.44559 0.0
O1420 O 0.71389 0.05739 0.30785 0.0
O1421 O 0.75388 0.07642 0.28069 0.0
O1422 O 0.76995 0.13452 0.34391 0.0
O1423 O 0.77944 0.1071 0.36286 0.0
O1424 O 0.75049 0.12274 0.26393 0.0
O1425 O 0.7595 0.16155 0.30234 0.0
O1426 O 0.76774 0.18162 0.39332 0.0
O1427 O 0.73079 0.15868 0.43218 0.0
O1428 O 0.7111 0.10588 0.33976 0.0
O1429 O 0.71018 0.13979 0.32604 0.0
O1430 O 0.74336 0.1208 0.43908 0.0
O1431 O 0.73705 0.08216 0.40657 0.0
H1432 H 0.72071 0.0866 0.21773 0.0
H1433 H 0.70298 0.078 0.13572 0.0
H1434 H 0.70306 0.00476 0.13446 0.0
H1435 H 0.71972 0.01317 0.22068 0.0
H1436 H 0.7989 0.17923 0.45997 0.0
H1437 H 0.82356 0.19434 0.53763 0.0
H1438 H 0.76677 0.21366 0.59368 0.0
H1439 H 0.74207 0.19845 0.51582 0.0
C1440 C 0.10388 0.44271 1.0116 0.0
C1441 C 0.10187 0.41785 1.00604 0.0
C1442 C 0.09657 0.45076 1.05593 0.0
C1443 C 0.08676 0.43474 0.09882 0.0
H1444 H 0.11169 0.45652 0.98125 0.0
H1445 H 0.09911 0.47026 1.05669 0.0
S1446 S 0.08049 0.36893 0.10847 0.0
N1447 N 0.09073 0.37785 1.051 0.0
N1448 N 0.07778 0.3931 0.13322 0.0
C1449 C 0.08538 0.4101 0.09467 0.0
C1450 C 0.0926 0.4017 1.04905 0.0
C1451 C 0.58582 0.66115 1.01538 0.0
C1452 C 0.57958 0.68104 1.00457 0.0
C1453 C 0.57885 0.64696 0.06151 0.0
C1454 C 0.56506 0.65151 0.09978 0.0
H1455 H 0.5959 0.65619 0.98797 0.0
H1456 H 0.58374 0.63182 0.06663 0.0
S1457 S 0.54206 0.69971 0.09053 0.0
N1458 N 0.55701 0.70284 1.03724 0.0
N1459 N 0.54474 0.67707 0.12154 0.0
C1460 C 0.55835 0.67088 0.08889 0.0
C1461 C 0.56527 0.68518 1.04239 0.0
C1462 C 0.33099 0.92012 0.08233 0.0
C1463 C 0.35137 0.91435 0.09191 0.0
C1464 C 0.316 0.91291 1.03667 0.0
C1465 C 0.31947 0.89843 0.99818 0.0
H1466 H 0.32603 0.92978 0.11082 0.0
H1467 H 0.30074 0.91774 1.03237 0.0
S1468 S 0.36779 0.87534 1.00507 0.0
N1469 N 0.37242 0.89142 1.05755 0.0
N1470 N 0.34434 0.87745 0.97574 0.0
C1471 C 0.33905 0.89179 1.00827 0.0
C1472 C 0.35459 0.89955 1.05367 0.0
C1473 C 0.44611 0.10987 0.68971 0.0
C1474 C 0.43254 0.08369 0.67172 0.0
C1475 C 0.43927 0.11828 0.73398 0.0
C1476 C 0.41816 0.10137 0.7652 0.0
H1477 H 0.46267 0.12462 0.66902 0.0
H1478 H 0.45092 0.13882 0.74358 0.0
S1479 S 0.37461 0.03067 0.73735 0.0
N1480 N 0.39562 0.0407 0.69072 0.0
N1481 N 0.38357 0.05621 0.774 0.0
C1482 C 0.40443 0.0749 0.74876 0.0
C1483 C 0.41131 0.06623 0.70263 0.0
C1484 C 0.92268 0.33281 0.68625 0.0
C1485 C 0.91187 0.34867 0.67162 0.0
C1486 C 0.91665 0.3192 0.7333 0.0
C1487 C 0.89861 0.31947 0.76776 0.0
H1488 H 0.93595 0.33085 0.66127 0.0
H1489 H 0.92578 0.30797 0.74282 0.0
S1490 S 0.86569 0.35885 0.75052 0.0
N1491 N 0.8831 0.36456 0.69955 0.0
N1492 N 0.87125 0.33858 0.78349 0.0
C1493 C 0.88811 0.33551 0.75367 0.0
C1494 C 0.89465 0.34985 0.70712 0.0
C1495 C 0.66267 0.59019 0.68797 0.0
C1496 C 0.64668 0.56341 0.67451 0.0
C1497 C 0.67884 0.59838 0.73196 0.0
C1498 C 0.6796 0.58026 0.76586 0.0
H1499 H 0.66322 0.60497 0.66368 0.0
H1500 H 0.69138 0.61906 0.73867 0.0
S1501 S 0.63957 0.50783 0.75193 0.0
N1502 N 0.63195 0.51901 0.70243 0.0
N1503 N 0.66107 0.53399 0.78283 0.0
C1504 C 0.66301 0.55358 0.75339 0.0
C1505 C 0.64696 0.54535 0.70893 0.0
C1506 C 0.87879 0.56857 0.21748 0.0
C1507 C 0.89564 0.58286 0.25746 0.0
C1508 C 0.88743 0.56097 0.17418 0.0
C1509 C 0.91383 0.56731 0.16621 0.0
H1510 H 0.85823 0.56274 0.21976 0.0
H1511 H 0.87283 0.54941 0.14655 0.0
S1512 S 0.96626 0.60309 0.26022 0.0
N1513 N 0.94031 0.60165 0.28641 0.0
N1514 N 0.95662 0.58847 0.2058 0.0
C1515 C 0.93102 0.5817 0.20592 0.0
C1516 C 0.922 0.58907 0.25077 0.0
C1517 C 0.43397 0.31597 0.22643 0.0
C1518 C 0.4206 0.3197 0.26654 0.0
C1519 C 0.44084 0.33112 0.182 0.0
C1520 C 0.43496 0.35138 0.1734 0.0
H1521 H 0.43948 0.30104 0.22939 0.0
H1522 H 0.45136 0.32699 0.15386 0.0
S1523 S 0.40098 0.37046 0.26697 0.0
N1524 N 0.4024 0.34622 0.29451 0.0
N1525 N 0.41509 0.37451 0.21225 0.0
C1526 C 0.4219 0.35573 0.21366 0.0
C1527 C 0.41479 0.34005 0.25929 0.0
C1528 C 0.65934 0.0734 0.19382 0.0
C1529 C 0.65223 0.09008 0.16836 0.0
C1530 C 0.67377 0.08063 0.24018 0.0
C1531 C 0.68343 0.1056 0.26284 0.0
H1532 H 0.65355 0.05442 0.17804 0.0
H1533 H 0.6776 0.0665 0.25815 0.0
S1534 S 0.67191 0.15772 0.21093 0.0
N1535 N 0.657 0.13341 0.1712 0.0
N1536 N 0.68441 0.14707 0.25339 0.0
C1537 C 0.67684 0.1225 0.23682 0.0
C1538 C 0.66162 0.11492 0.19118 0.0
C1539 C 0.58628 0.91869 0.50929 0.0
C1540 C 0.57901 0.89194 0.5027 0.0
C1541 C 0.57967 0.92817 0.55328 0.0
C1542 C 0.56545 0.9117 0.594 0.0
H1543 H 0.59676 0.93245 0.47985 0.0
H1544 H 0.58522 0.94857 0.5543 0.0
S1545 S 0.54257 0.8404 0.59795 0.0
N1546 N 0.55718 0.84956 0.54363 0.0
N1547 N 0.5451 0.86705 0.62337 0.0
C1548 C 0.55849 0.88518 0.58779 0.0
C1549 C 0.56515 0.87554 0.54353 0.0
C1550 C 0.0651 0.64771 0.55828 0.0
C1551 C 0.08238 0.65005 0.59746 0.0
C1552 C 0.0738 0.66339 0.51353 0.0
C1553 C 0.10058 0.68214 0.50433 0.0
H1554 H 0.04499 0.63215 0.56038 0.0
H1555 H 0.05965 0.65953 0.48453 0.0
S1556 S 0.15419 0.69733 0.59502 0.0
N1557 N 0.12785 0.67426 0.62308 0.0
N1558 N 0.14394 0.70217 0.5413 0.0
C1559 C 0.11779 0.68487 0.54378 0.0
C1560 C 0.1089 0.66938 0.58909 0.0
C1561 C 0.32772 0.41073 0.59035 0.0
C1562 C 0.34913 0.43663 0.59695 0.0
C1563 C 0.31166 0.40254 0.54613 0.0
C1564 C 0.3163 0.41933 0.50478 0.0
H1565 H 0.32245 0.39693 0.62053 0.0
H1566 H 0.29469 0.38312 0.54546 0.0
S1567 S 0.36901 0.48926 0.50208 0.0
N1568 N 0.37268 0.47913 0.55688 0.0
N1569 N 0.34419 0.46362 0.47555 0.0
C1570 C 0.33761 0.44508 0.51115 0.0
C1571 C 0.35345 0.45358 0.55612 0.0
C1572 C 0.76458 0.7711 0.34516 0.0
C1573 C 0.75919 0.74488 0.34059 0.0
C1574 C 0.75888 0.78108 0.3887 0.0
C1575 C 0.7474 0.76573 0.43164 0.0
H1576 H 0.77417 0.78456 0.31482 0.0
H1577 H 0.76406 0.80149 0.38887 0.0
S1578 S 0.73238 0.69695 0.44471 0.0
N1579 N 0.74306 0.70434 0.3871 0.0
N1580 N 0.73251 0.723 0.46747 0.0
C1581 C 0.74177 0.73947 0.42813 0.0
C1582 C 0.74762 0.72918 0.38349 0.0
C1583 C 0.25375 0.99302 0.4053 0.0
C1584 C 0.22907 0.98378 0.42907 0.0
C1585 C 0.26142 0.00917 0.361 0.0
C1586 C 0.24487 0.01705 0.337 0.0
H1587 H 0.26728 0.98775 0.42101 0.0
H1588 H 0.28055 0.01554 0.34547 0.0
S1589 S 0.17853 -0.00049 0.384 0.0
N1590 N 0.18872 0.98537 0.42383 0.0
N1591 N 0.20244 0.01415 0.34352 0.0
C1592 C 0.22041 0.0081 0.36104 0.0
C1593 C 0.21278 0.99205 0.40563 0.0
C1594 C 0.98597 0.25021 0.36746 0.0
C1595 C 0.98411 0.23017 0.33556 0.0
C1596 C 0.00152 0.25792 0.41223 0.0
C1597 C 0.01614 0.24603 0.42846 0.0
H1598 H 0.97521 0.25994 0.35803 0.0
H1599 H 0.00267 0.27394 0.43339 0.0
S1600 S 0.01984 0.19379 0.35699 0.0
N1601 N -9e-05 0.19968 0.3236 0.0
N1602 N 0.02814 0.21362 0.40508 0.0
C1603 C 0.01468 0.22636 0.39601 0.0
C1604 C 0.99909 0.21866 0.35086 0.0
C1605 C 0.25894 0.25828 0.85346 0.0
C1606 C 0.24574 0.23187 0.83625 0.0
C1607 C 0.25211 0.26626 0.89936 0.0
C1608 C 0.2315 0.24835 0.93094 0.0
H1609 H 0.27452 0.27299 0.83101 0.0
H1610 H 0.26266 0.28672 0.90945 0.0
S1611 S 0.19108 0.17675 0.90532 0.0
N1612 N 0.21114 0.188 0.85764 0.0
N1613 N 0.19881 0.20249 0.94038 0.0
C1614 C 0.21865 0.22202 0.91413 0.0
C1615 C 0.22551 0.214 0.86824 0.0
C1616 C 0.76587 0.99234 0.84439 0.0
C1617 C 0.76221 0.01433 0.83978 0.0
C1618 C 0.75964 0.97662 0.88828 0.0
C1619 C 0.74916 0.98138 0.93191 0.0
H1620 H 0.77461 0.98757 0.81379 0.0
H1621 H 0.7638 0.96069 0.88824 0.0
S1622 S 0.73913 0.03846 0.94553 0.0
N1623 N 0.74912 0.04089 0.8876 0.0
N1624 N 0.73745 0.01165 0.96813 0.0
C1625 C 0.74536 0.00326 0.92844 0.0
C1626 C 0.75184 0.01948 0.88348 0.0
C1627 C 0.98834 0.76295 0.92947 0.0
C1628 C 0.01206 0.76223 0.93179 0.0
C1629 C 0.97186 0.75539 0.88639 0.0
C1630 C 0.97796 0.74703 0.84146 0.0
H1631 H 0.98259 0.77007 0.96131 0.0
H1632 H 0.95431 0.75691 0.88803 0.0
S1633 S 0.03955 0.7452 0.82317 0.0
N1634 N 0.04075 0.75289 0.88224 0.0
N1635 N 0.01217 0.74253 0.80135 0.0
C1636 C 0.00214 0.74732 0.84249 0.0
C1637 C 0.0184 0.75389 0.88711 0.0
C1638 C 0.00305 0.33099 0.91043 0.0
C1639 C 0.00918 0.35391 0.93661 0.0
C1640 C 0.00356 0.33119 0.85862 0.0
C1641 C 0.01011 0.35424 0.83258 0.0
H1642 H 0.99724 0.31286 0.93001 0.0
H1643 H 0.99782 0.31315 0.83917 0.0
S1644 S 0.02769 0.41918 0.88427 0.0
N1645 N 0.02185 0.40012 0.93289 0.0
N1646 N 0.02359 0.40045 0.8358 0.0
C1647 C 0.01729 0.37741 0.85849 0.0
C1648 C 0.0165 0.37723 0.91061 0.0
C1649 C 0.62562 0.66109 0.89309 0.0
C1650 C 0.63468 0.64423 0.9085 0.0
C1651 C 0.61723 0.66043 0.84429 0.0
C1652 C 0.61764 0.6427 0.81028 0.0
H1653 H 0.62213 0.67254 0.9199 0.0
H1654 H 0.60796 0.67173 0.83467 0.0
S1655 S 0.64214 0.5967 0.83144 0.0
N1656 N 0.64631 0.61172 0.88503 0.0
N1657 N 0.63011 0.60995 0.79335 0.0
C1658 C 0.6292 0.6278 0.82394 0.0
C1659 C 0.63797 0.62877 0.87319 0.0
C1660 C 0.34105 0.99775 0.90696 0.0
C1661 C 0.35999 0.00698 0.94448 0.0
C1662 C 0.34629 0.99015 0.86119 0.0
C1663 C 0.37009 0.99038 0.85281 0.0
H1664 H 0.32207 0.99596 0.9134 0.0
H1665 H 0.33163 0.98416 0.83231 0.0
S1666 S 0.42472 0.0107 0.94312 0.0
N1667 N 0.40303 0.01588 0.9716 0.0
N1668 N 0.41169 0.99866 0.88853 0.0
C1669 C 0.38874 0.99889 0.89129 0.0
C1670 C 0.38401 0.00801 0.9363 0.0
C1671 C 0.02624 0.61646 0.38088 0.0
C1672 C 0.02884 0.63439 0.34386 0.0
C1673 C 0.01254 0.61406 0.42406 0.0
C1674 C 0.00218 0.63046 0.43304 0.0
H1675 H 0.03309 0.60273 0.37496 0.0
H1676 H 0.00983 0.59909 0.45056 0.0
S1677 S 0.01361 0.68808 0.36029 0.0
N1678 N 0.02583 0.67356 0.32597 0.0
N1679 N 0.00191 0.67001 0.41054 0.0
C1680 C 0.00826 0.65124 0.40101 0.0
C1681 C 0.02142 0.65318 0.35566 0.0
C1682 C 0.34644 0.40308 0.37276 0.0
C1683 C 0.3397 0.38381 0.33593 0.0
C1684 C 0.34857 0.39753 0.42216 0.0
C1685 C 0.34279 0.37232 0.43615 0.0
H1686 H 0.35323 0.42326 0.36263 0.0
H1687 H 0.35707 0.4135 0.44863 0.0
S1688 S 0.31334 0.31285 0.35861 0.0
N1689 N 0.31995 0.33693 0.31958 0.0
N1690 N 0.32282 0.32657 0.41369 0.0
C1691 C 0.33134 0.35196 0.40182 0.0
C1692 C 0.3297 0.35763 0.35117 0.0
C1693 C 0.63854 0.02773 0.38884 0.0
C1694 C 0.6459 0.01502 0.35363 0.0
C1695 C 0.64925 0.03312 0.43613 0.0
C1696 C 0.66709 0.02522 0.45074 0.0
H1697 H 0.62323 0.03229 0.38103 0.0
H1698 H 0.64144 0.04114 0.46288 0.0
S1699 S 0.69582 0.99486 0.37149 0.0
N1700 N 0.67516 0.99808 0.33477 0.0
N1701 N 0.69385 0.00655 0.42595 0.0
C1702 C 0.67595 0.01399 0.41552 0.0
C1703 C 0.66555 0.0091 0.36652 0.0
C1704 C 0.64649 0.66995 0.27234 0.0
C1705 C 0.63638 0.68436 0.29553 0.0
C1706 C 0.65214 0.67289 0.22154 0.0
C1707 C 0.64795 0.69045 0.19323 0.0
H1708 H 0.65085 0.65712 0.29383 0.0
H1709 H 0.66017 0.66178 0.20452 0.0
S1710 S 0.62268 0.73322 0.23788 0.0
N1711 N 0.62245 0.71656 0.28705 0.0
N1712 N 0.63376 0.72282 0.1923 0.0
C1713 C 0.63747 0.7046 0.21619 0.0
C1714 C 0.63137 0.70126 0.2672 0.0
C1715 C 0.32708 0.97523 0.18282 0.0
C1716 C 0.3081 0.98103 0.16557 0.0
C1717 C 0.3301 0.97256 0.23321 0.0
C1718 C 0.31318 0.97434 0.26717 0.0
H1719 H 0.33728 0.96951 0.15714 0.0
H1720 H 0.34393 0.96662 0.24519 0.0
S1721 S 0.25801 0.9856 0.23908 0.0
N1722 N 0.27219 0.98819 0.1852 0.0
N1723 N 0.27565 0.9803 0.28002 0.0
C1724 C 0.2945 0.98078 0.25042 0.0
C1725 C 0.29249 0.98486 0.19938 0.0
C1726 C 0.04799 0.30787 0.21266 0.0
C1727 C 0.0311 0.31494 0.2357 0.0
C1728 C 0.04443 0.29983 0.16363 0.0
C1729 C 0.02392 0.29872 0.13518 0.0
H1730 H 0.06431 0.30865 0.23281 0.0
H1731 H 0.05867 0.29554 0.14737 0.0
S1732 S 0.97445 0.31567 0.17792 0.0
N1733 N 0.99322 0.32068 0.22696 0.0
N1734 N 0.98652 0.30563 0.13322 0.0
C1735 C 0.0069 0.30598 0.15745 0.0
C1736 C 0.01054 0.31417 0.20805 0.0
C1737 C 0.66806 0.9827 0.68961 0.0
C1738 C 0.65685 0.95723 0.66993 0.0
C1739 C 0.66394 0.98657 0.73899 0.0
C1740 C 0.64832 0.9651 0.76942 0.0
H1741 H 0.68062 -0.00036 0.66719 0.0
H1742 H 0.67443 0.00613 0.75439 0.0
S1743 S 0.61438 0.89476 0.7362 0.0
N1744 N 0.62959 0.91031 0.68527 0.0
N1745 N 0.62069 0.91797 0.77709 0.0
C1746 C 0.63554 0.9398 0.74944 0.0
C1747 C 0.64032 0.93572 0.69994 0.0
C1748 C 0.03607 0.66373 0.68516 0.0
C1749 C 0.0231 0.67662 0.66713 0.0
C1750 C 0.03599 0.65858 0.73554 0.0
C1751 C 0.02322 0.6666 0.76899 0.0
H1752 H 0.04846 0.66008 0.66092 0.0
H1753 H 0.04882 0.65169 0.74899 0.0
S1754 S 0.98233 0.69586 0.738 0.0
N1755 N 0.99354 0.69275 0.68451 0.0
N1756 N 0.99357 0.68352 0.77989 0.0
C1757 C 0.00699 0.67571 0.75042 0.0
C1758 C 0.00698 0.68076 0.69906 0.0
C1759 C 0.24898 0.29416 0.73006 0.0
C1760 C 0.27467 0.31095 0.74712 0.0
C1761 C 0.24422 0.28507 0.68136 0.0
C1762 C 0.26506 0.29197 0.64827 0.0
H1763 H 0.23225 0.28948 0.7534 0.0
H1764 H 0.22409 0.27499 0.66854 0.0
S1765 S 0.33581 0.32701 0.6797 0.0
N1766 N 0.32125 0.32908 0.7303 0.0
N1767 N 0.31205 0.30977 0.63978 0.0
C1768 C 0.29073 0.30466 0.66741 0.0
C1769 C 0.29567 0.31481 0.71662 0.0
C1770 C 0.37018 0.05834 0.55923 0.0
C1771 C 0.35309 0.03712 0.58961 0.0
C1772 C 0.37572 0.05438 0.51129 0.0
C1773 C 0.3621 0.02941 0.49027 0.0
H1774 H 0.37752 0.07846 0.56998 0.0
H1775 H 0.38664 0.07148 0.48798 0.0
S1776 S 0.32527 0.9669 0.55808 0.0
N1777 N 0.33117 0.98967 0.59991 0.0
N1778 N 0.33806 0.98263 0.50565 0.0
C1779 C 0.34843 0.00776 0.52136 0.0
C1780 C 0.34438 0.0116 0.5719 0.0
C1781 C 0.00139 0.32844 0.53479 0.0
C1782 C 0.9908 0.30385 0.5116 0.0
C1783 C 0.00823 0.33119 0.58489 0.0
C1784 C 0.00468 0.30949 0.61242 0.0
H1785 H 0.00168 0.34479 0.51589 0.0
H1786 H 0.01279 0.3492 0.60348 0.0
S1787 S 0.98463 0.24315 0.56608 0.0
N1788 N 0.9819 0.25885 0.51793 0.0
N1789 N 0.99638 0.26491 0.61123 0.0
C1790 C 0.99901 0.28645 0.5875 0.0
C1791 C 0.99109 0.2832 0.53724 0.0
C1792 C 0.68144 0.63074 0.56786 0.0
C1793 C 0.67413 0.64749 0.59065 0.0
C1794 C 0.67397 0.62226 0.51943 0.0
C1795 C 0.65896 0.63035 0.4919 0.0
H1796 H 0.6943 0.62532 0.58669 0.0
H1797 H 0.6823 0.61147 0.50225 0.0
S1798 S 0.62973 0.66903 0.53915 0.0
N1799 N 0.64777 0.66856 0.5856 0.0
N1800 N 0.63277 0.65172 0.49422 0.0
C1801 C 0.64888 0.64447 0.51638 0.0
C1802 C 0.65676 0.65335 0.56586 0.0
C1803 C 0.33746 0.34026 1.0227 0.0
C1804 C 0.35411 0.33595 0.9921 0.0
C1805 C 0.33575 0.33456 0.07328 0.0
C1806 C 0.34991 0.32343 0.09403 0.0
H1807 H 0.32399 0.34569 1.00668 0.0
H1808 H 0.32186 0.33712 0.09532 0.0
S1809 S 0.3989 0.31193 1.02775 0.0
N1810 N 0.3882 0.32464 0.98584 0.0
N1811 N 0.38306 0.31063 0.07887 0.0
C1812 C 0.36851 0.32144 0.06384 0.0
C1813 C 0.37122 0.32877 1.0133 0.0
C1814 C 0.69376 0.05689 0.99874 0.0
C1815 C 0.67205 0.03383 0.9811 0.0
C1816 C 0.7034 0.05814 1.04597 0.0
C1817 C 0.69125 0.03666 0.07821 0.0
H1818 H 0.70449 0.07371 0.97474 0.0
H1819 H 0.72076 0.07613 1.05717 0.0
S1820 S 0.63358 0.97178 1.0499 0.0
N1821 N 0.63886 0.9888 0.99832 0.0
N1822 N 0.65616 0.99161 0.08976 0.0
C1823 C 0.6693 0.01345 0.06148 0.0
C1824 C 0.65978 0.01198 1.01236 0.0
C1825 C 0.99097 0.65802 1.02732 0.0
C1826 C 0.98312 0.67419 1.00366 0.0
C1827 C 0.99822 0.66181 0.07721 0.0
C1828 C 0.99735 0.6815 0.10487 0.0
H1829 H 0.98996 0.64141 1.00801 0.0
H1830 H 0.002 0.64775 0.09551 0.0
S1831 S 0.98118 0.73086 1.05888 0.0
N1832 N 0.97753 0.71232 1.0103 0.0
N1833 N 0.9912 0.71923 0.10426 0.0
C1834 C 0.99234 0.6995 0.08042 0.0
C1835 C 0.98496 0.69574 1.02968 0.0
C1836 C 0.05025 0.49113 0.95296 0.0
C1837 C 0.06804 0.5184 0.94912 0.0
C1838 C 0.04609 0.47732 0.99826 0.0
C1839 C 0.05959 0.48999 1.04218 0.0
H1840 H 0.03909 0.48035 0.92077 0.0
H1841 H 0.03197 0.45654 0.99882 0.0
S1842 S 0.11008 0.56075 1.05158 0.0
N1843 N 0.10044 0.55699 0.9933 0.0
N1844 N 0.09269 0.53164 0.07733 0.0
C1845 C 0.07781 0.51717 1.03845 0.0
C1846 C 0.08198 0.53114 0.99249 0.0
C1847 C 0.51787 0.56897 1.00099 0.0
C1848 C 0.50549 0.5675 1.04665 0.0
C1849 C 0.50346 0.55961 0.95626 0.0
C1850 C 0.47591 0.54846 0.95473 0.0
H1851 H 0.53896 0.57754 0.99957 0.0
H1852 H 0.51409 0.56153 0.92237 0.0
S1853 S 0.43342 0.53802 0.06382 0.0
N1854 N 0.46339 0.55267 0.08692 0.0
N1855 N 0.43679 0.53515 1.00389 0.0
C1856 C 0.46327 0.54647 1.00014 0.0
C1857 C 0.47785 0.55592 1.0456 0.0
C1858 C 0.45565 0.94044 1.03633 0.0
C1859 C 0.43382 0.94422 1.03863 0.0
C1860 C 0.46512 0.93646 0.99084 0.0
C1861 C 0.45304 0.93567 0.9451 0.0
H1862 H 0.46582 0.94086 0.07007 0.0
H1863 H 0.48226 0.93421 0.9916 0.0
S1864 S 0.39285 0.94063 0.93106 0.0
N1865 N 0.39949 0.94535 0.99085 0.0
N1866 N 0.41615 0.93647 0.9064 0.0
C1867 C 0.43072 0.93874 0.9471 0.0
C1868 C 0.42146 0.94337 0.99335 0.0
C1869 C 0.48796 0.04717 0.75591 0.0
C1870 C 0.49802 0.06375 0.71425 0.0
C1871 C 0.50233 0.05233 0.80048 0.0
C1872 C 0.52767 0.07434 0.80594 0.0
H1873 H 0.46887 0.02976 0.75423 0.0
H1874 H 0.4935 0.03868 0.83084 0.0
S1875 S 0.56325 0.12448 0.70882 0.0
N1876 N 0.53531 0.10343 0.68204 0.0
N1877 N 0.56194 0.11323 0.76533 0.0
C1878 C 0.53807 0.09107 0.76455 0.0
C1879 C 0.52342 0.08579 0.71909 0.0
C1880 C 0.94753 0.43034 0.76565 0.0
C1881 C 0.93508 0.43003 0.72064 0.0
C1882 C 0.94259 0.43977 0.81048 0.0
C1883 C 0.92502 0.44957 0.81284 0.0
H1884 H 0.96137 0.42334 0.76639 0.0
H1885 H 0.95299 0.43971 0.84353 0.0
S1886 S 0.88594 0.45179 0.70664 0.0
N1887 N 0.90347 0.43981 0.68255 0.0
N1888 N 0.89415 0.4569 0.76571 0.0
C1889 C 0.91221 0.44902 0.76825 0.0
C1890 C 0.9172 0.43945 0.72273 0.0
C1891 C 0.54745 0.46092 0.76536 0.0
C1892 C 0.54613 0.47296 0.80977 0.0
C1893 C 0.55672 0.47509 0.7204 0.0
C1894 C 0.5653 0.50214 0.7173 0.0
H1895 H 0.54083 0.44016 0.76504 0.0
H1896 H 0.55689 0.4646 0.68761 0.0
S1897 S 0.56797 0.54376 0.82349 0.0
N1898 N 0.55588 0.51425 0.84773 0.0
N1899 N 0.57283 0.54054 0.76436 0.0
C1900 C 0.56459 0.51452 0.76173 0.0
C1901 C 0.55512 0.5001 0.80738 0.0
C1902 C 0.94791 0.51555 0.2651 0.0
C1903 C 0.93724 0.50283 0.21949 0.0
C1904 C 0.94307 0.50139 0.3101 0.0
C1905 C 0.92728 0.47377 0.31192 0.0
H1906 H 0.95992 0.5367 0.26626 0.0
H1907 H 0.95143 0.51228 0.34396 0.0
S1908 S 0.89693 0.43052 0.20279 0.0
N1909 N 0.9114 0.46038 0.17944 0.0
N1910 N 0.90283 0.43428 0.26285 0.0
C1911 C 0.91714 0.46082 0.26645 0.0
C1912 C 0.92197 0.47514 0.22079 0.0
C1913 C 0.50068 0.44508 0.30944 0.0
C1914 C 0.52812 0.4555 0.31042 0.0
C1915 C 0.48597 0.43578 0.26507 0.0
C1916 C 0.498 0.4366 0.21936 0.0
H1917 H 0.49036 0.44373 0.34346 0.0
H1918 H 0.46495 0.42775 0.2668 0.0
S1919 S 0.56974 0.46439 0.2008 0.0
N1920 N 0.56681 0.46754 0.26081 0.0
N1921 N 0.53969 0.45037 0.1782 0.0
C1922 C 0.52556 0.44754 0.21982 0.0
C1923 C 0.54042 0.45686 0.26495 0.0
C1924 C 0.56203 0.05149 0.25907 0.0
C1925 C 0.56582 0.0664 0.21569 0.0
C1926 C 0.55226 0.05627 0.30347 0.0
C1927 C 0.54561 0.0762 0.30709 0.0
H1928 H 0.56651 0.03577 0.25885 0.0
H1929 H 0.54959 0.04394 0.33518 0.0
S1930 S 0.55302 0.12197 0.20544 0.0
N1931 N 0.56263 0.10264 0.18034 0.0
N1932 N 0.54483 0.11173 0.26299 0.0
C1933 C 0.54953 0.09139 0.26411 0.0
C1934 C 0.55945 0.08652 0.21891 0.0
C1935 C 0.52849 0.95406 0.49052 0.0
C1936 C 0.51569 0.94607 0.53687 0.0
C1937 C 0.51427 0.94919 0.44523 0.0
C1938 C 0.4865 0.9358 0.44378 0.0
H1939 H 0.54969 0.96408 0.48907 0.0
H1940 H 0.52516 0.95556 0.41089 0.0
S1941 S 0.44309 0.91241 0.55392 0.0
N1942 N 0.47289 0.92503 0.5772 0.0
N1943 N 0.44703 0.91621 0.49345 0.0
C1944 C 0.47357 0.9282 0.48972 0.0
C1945 C 0.48785 0.93322 0.53561 0.0
C1946 C 0.06191 0.53247 0.49346 0.0
C1947 C 0.06813 0.54755 0.44969 0.0
C1948 C 0.05672 0.54125 0.53857 0.0
C1949 C 0.05707 0.56531 0.54203 0.0
H1950 H 0.06083 0.51358 0.49282 0.0
H1951 H 0.05213 0.52892 0.57098 0.0
S1952 S 0.07656 0.61423 0.44134 0.0
N1953 N 0.07736 0.58935 0.41505 0.0
N1954 N 0.0667 0.60509 0.49879 0.0
C1955 C 0.06376 0.58076 0.49902 0.0
C1956 C 0.06948 0.5721 0.45329 0.0
C1957 C 0.4478 0.49833 0.46268 0.0
C1958 C 0.45303 0.52435 0.45683 0.0
C1959 C 0.43814 0.48445 0.50772 0.0
C1960 C 0.43309 0.4958 0.5493 0.0
H1961 H 0.45153 0.48864 0.43231 0.0
H1962 H 0.4348 0.46467 0.50995 0.0
S1963 S 0.44094 0.56247 0.55234 0.0
N1964 N 0.45065 0.56014 0.49622 0.0
N1965 N 0.4327 0.53442 0.57993 0.0
C1966 C 0.43776 0.52163 0.54357 0.0
C1967 C 0.44764 0.53574 0.49783 0.0
C1968 C 0.75071 0.8691 0.33492 0.0
C1969 C 0.739 0.85633 0.28982 0.0
C1970 C 0.74571 0.85535 0.38034 0.0
C1971 C 0.72857 0.82799 0.38359 0.0
H1972 H 0.76367 0.89012 0.33544 0.0
H1973 H 0.75521 0.86645 0.41343 0.0
S1974 S 0.69417 0.78443 0.27643 0.0
N1975 N 0.7105 0.81395 0.25168 0.0
N1976 N 0.70073 0.78851 0.33627 0.0
C1977 C 0.717 0.81487 0.33873 0.0
C1978 C 0.72221 0.82885 0.29237 0.0
C1979 C 0.13069 0.87767 0.32743 0.0
C1980 C 0.14333 0.88005 0.28174 0.0
C1981 C 0.14485 0.88715 0.37224 0.0
C1982 C 0.17252 0.89972 0.37403 0.0
H1983 H 0.1095 0.86802 0.32882 0.0
H1984 H 0.13382 0.88436 0.40595 0.0
S1985 S 0.21556 0.91226 0.26468 0.0
N1986 N 0.18562 0.89691 0.24133 0.0
N1987 N 0.21201 0.9145 0.32482 0.0
C1988 C 0.18548 0.90244 0.32853 0.0
C1989 C 0.17102 0.89269 0.28284 0.0
C1990 C 0.11406 0.2811 0.2947 0.0
C1991 C 0.11947 0.26038 0.29021 0.0
C1992 C 0.10453 0.28591 0.33928 0.0
C1993 C 0.10005 0.27037 0.38197 0.0
H1994 H 0.11691 0.29362 0.26321 0.0
H1995 H 0.10079 0.30212 0.3402 0.0
S1996 S 0.11155 0.21393 0.39079 0.0
N1997 N 0.12018 0.22463 0.33359 0.0
N1998 N 0.10175 0.23305 0.41608 0.0
C1999 C 0.10528 0.24951 0.37791 0.0
C2000 C 0.11508 0.24471 0.33261 0.0
C2001 C 0.17442 0.39272 0.13215 0.0
C2002 C 0.20084 0.41306 0.13523 0.0
C2003 C 0.15956 0.3874 0.08799 0.0
C2004 C 0.17025 0.40204 1.04417 0.0
H2005 H 0.16491 0.38086 0.16444 0.0
H2006 H 0.13945 0.37146 0.08831 0.0
S2007 S 0.23895 0.45659 1.03079 0.0
N2008 N 0.23727 0.44718 0.08889 0.0
N2009 N 0.20951 0.43765 1.00706 0.0
C2010 C 0.19668 0.42238 1.04663 0.0
C2011 C 0.21184 0.42774 0.09159 0.0
C2012 C 0.61631 0.76444 0.09885 0.0
C2013 C 0.60264 0.7623 1.0545 0.0
C2014 C 0.61067 0.77323 0.14346 0.0
C2015 C 0.59098 0.78017 0.14614 0.0
H2016 H 0.63171 0.75949 0.09921 0.0
H2017 H 0.62215 0.775 0.17605 0.0
S2018 S 0.54816 0.77668 1.04192 0.0
N2019 N 0.56775 0.7673 1.01718 0.0
N2020 N 0.55702 0.78312 0.10056 0.0
C2021 C 0.57699 0.77786 0.10229 0.0
C2022 C 0.5828 0.7691 1.05682 0.0
C2023 C 0.22376 0.83299 0.14029 0.0
C2024 C 0.21387 0.80565 0.14264 0.0
C2025 C 0.2333 0.84728 0.09555 0.0
C2026 C 0.23375 0.83507 1.05077 0.0
H2027 H 0.22385 0.84348 0.17329 0.0
H2028 H 0.24037 0.86813 0.09623 0.0
S2029 S 0.21149 0.76407 1.03703 0.0
N2030 N 0.20617 0.76724 0.09593 0.0
N2031 N 0.22387 0.79362 1.01286 0.0
C2032 C 0.2242 0.80776 1.05288 0.0
C2033 C 0.21434 0.79325 0.09828 0.0
C2034 C 0.58047 0.79476 0.60277 0.0
C2035 C 0.59724 0.80633 0.64386 0.0
C2036 C 0.58473 0.80803 0.55715 0.0
C2037 C 0.60583 0.83373 0.55011 0.0
H2038 H 0.56395 0.77504 0.6056 0.0
H2039 H 0.57113 0.79796 0.52715 0.0
S2040 S 0.65567 0.87331 0.64557 0.0
N2041 N 0.63592 0.8455 0.67405 0.0
N2042 N 0.6439 0.8702 0.5889 0.0
C2043 C 0.62278 0.84562 0.59087 0.0
C2044 C 0.61854 0.83202 0.63732 0.0
C2045 C 0.15188 0.76527 0.59392 0.0
C2046 C 0.16419 0.76521 0.54907 0.0
C2047 C 0.16605 0.77444 0.63888 0.0
C2048 C 0.19338 0.78428 0.64149 0.0
H2049 H 0.13102 0.75816 0.59454 0.0
H2050 H 0.15545 0.77408 0.67188 0.0
S2051 S 0.23522 0.78763 0.5356 0.0
N2052 N 0.2057 0.77547 0.51114 0.0
N2053 N 0.23193 0.79239 0.59475 0.0
C2054 C 0.20592 0.78421 0.597 0.0
C2055 C 0.1915 0.77479 0.55129 0.0
C2056 C 0.22763 0.38932 0.58885 0.0
C2057 C 0.23152 0.40388 0.54493 0.0
C2058 C 0.21784 0.39446 0.63273 0.0
C2059 C 0.21143 0.41455 0.63547 0.0
H2060 H 0.23201 0.37354 0.58945 0.0
H2061 H 0.21553 0.38265 0.66509 0.0
S2062 S 0.21673 0.45791 0.53077 0.0
N2063 N 0.22757 0.43921 0.50737 0.0
N2064 N 0.2089 0.44847 0.58883 0.0
C2065 C 0.21511 0.42921 0.59178 0.0
C2066 C 0.22514 0.424 0.54703 0.0
C2067 C 0.16747 0.28296 0.79496 0.0
C2068 C 0.1412 0.26247 0.79046 0.0
C2069 C 0.1817 0.28779 0.83979 0.0
C2070 C 0.17037 0.27249 0.88264 0.0
H2071 H 0.17733 0.29524 0.7633 0.0
H2072 H 0.20176 0.30378 0.84077 0.0
S2073 S 0.10183 0.21695 0.89149 0.0
N2074 N 0.10426 0.22738 0.83398 0.0
N2075 N 0.13082 0.23583 0.91695 0.0
C2076 C 0.14407 0.25197 0.87859 0.0
C2077 C 0.12961 0.24714 0.83306 0.0
C2078 C 0.71972 0.90156 0.83493 0.0
C2079 C 0.72876 0.89792 0.88109 0.0
C2080 C 0.72479 0.89232 0.79014 0.0
C2081 C 0.73931 0.87915 0.78922 0.0
H2082 H 0.70874 0.91178 0.83323 0.0
H2083 H 0.7176 0.89589 0.75578 0.0
S2084 S 0.76549 0.86226 0.89955 0.0
N2085 N 0.75185 0.87856 0.92238 0.0
N2086 N 0.76103 0.86143 0.83912 0.0
C2087 C 0.74796 0.87491 0.83506 0.0
C2088 C 0.7428 0.88419 0.88054 0.0
C2089 C 0.10063 0.81399 0.83234 0.0
C2090 C 0.10088 0.8265 0.87716 0.0
C2091 C 0.10966 0.82799 0.7872 0.0
C2092 C 0.11952 0.85531 0.78442 0.0
H2093 H 0.0933 0.79311 0.8319 0.0
H2094 H 0.10851 0.81717 0.75397 0.0
S2095 S 0.12785 0.89834 0.89165 0.0
N2096 N 0.11408 0.86867 0.91575 0.0
N2097 N 0.13113 0.89458 0.83202 0.0
C2098 C 0.12072 0.86819 0.82921 0.0
C2099 C 0.11148 0.85398 0.87506 0.0
C2100 C 0.40226 0.19265 0.71652 0.0
C2101 C 0.39917 0.16731 0.71776 0.0
C2102 C 0.40713 0.20685 0.67168 0.0
C2103 C 0.40942 0.19649 0.62593 0.0
H2104 H 0.40039 0.20141 0.75037 0.0
H2105 H 0.4087 0.22595 0.67281 0.0
S2106 S 0.40738 0.13292 0.61024 0.0
N2107 N 0.40129 0.1337 0.6697 0.0
N2108 N 0.41108 0.16034 0.58644 0.0
C2109 C 0.40738 0.1716 0.6272 0.0
C2110 C 0.40211 0.15708 0.67266 0.0
C2111 C 0.81451 0.2186 0.71093 0.0
C2112 C 0.84195 0.2356 0.71193 0.0
C2113 C 0.80052 0.20909 0.66603 0.0
C2114 C 0.81319 0.21599 0.6196 0.0
H2115 H 0.80362 0.21227 0.74528 0.0
H2116 H 0.77953 0.19593 0.6678 0.0
S2117 S 0.8846 0.26106 0.60084 0.0
N2118 N 0.88108 0.25952 0.6616 0.0
N2119 N 0.855 0.24189 0.57783 0.0
C2120 C 0.84062 0.23307 0.62 0.0
C2121 C 0.85488 0.24278 0.66579 0.0
C2122 C 0.76822 0.61657 0.61471 0.0
C2123 C 0.78591 0.60696 0.61189 0.0
C2124 C 0.75868 0.62007 0.66072 0.0
C2125 C 0.76636 0.61416 0.70632 0.0
H2126 H 0.76122 0.62094 0.58095 0.0
H2127 H 0.74484 0.62709 0.66041 0.0
S2128 S 0.8152 0.59201 0.72006 0.0
N2129 N 0.8126 0.59417 0.65961 0.0
N2130 N 0.79484 0.60034 0.74495 0.0
C2131 C 0.78477 0.60542 0.70389 0.0
C2132 C 0.79445 0.60193 0.65721 0.0
C2133 C 0.85819 0.74256 0.44254 0.0
C2134 C 0.84737 0.72812 0.48641 0.0
C2135 C 0.84365 0.73679 0.39803 0.0
C2136 C 0.81729 0.71629 0.39455 0.0
H2137 H 0.87832 0.75846 0.44231 0.0
H2138 H 0.85333 0.74876 0.36595 0.0
S2139 S 0.77911 0.67239 0.49852 0.0
N2140 N 0.80806 0.69234 0.52324 0.0
N2141 N 0.78113 0.68128 0.43997 0.0
C2142 C 0.80619 0.70154 0.43806 0.0
C2143 C 0.82105 0.70744 0.48358 0.0
C2144 C 0.28017 0.0952 0.43561 0.0
C2145 C 0.27358 0.10175 0.38954 0.0
C2146 C 0.27573 0.10447 0.48102 0.0
C2147 C 0.26448 0.12076 0.48275 0.0
H2148 H 0.28854 0.08251 0.43676 0.0
H2149 H 0.28076 0.09841 0.5152 0.0
S2150 S 0.24651 0.1464 0.37291 0.0
N2151 N 0.25684 0.12737 0.34916 0.0
N2152 N 0.249 0.14475 0.43351 0.0
C2153 C 0.25854 0.12805 0.43694 0.0
C2154 C 0.26295 0.11861 0.39082 0.0
C2155 C 0.89547 0.17081 0.48323 0.0
C2156 C 0.87832 0.14335 0.48443 0.0
C2157 C 0.90494 0.18477 0.43806 0.0
C2158 C 0.89778 0.17205 0.39154 0.0
H2159 H 0.90202 0.18164 0.51765 0.0
H2160 H 0.91826 0.20573 0.43974 0.0
S2161 S 0.85078 0.10095 0.37325 0.0
N2162 N 0.85293 0.10454 0.43401 0.0
N2163 N 0.87057 0.1303 0.3502 0.0
C2164 C 0.88008 0.14471 0.39225 0.0
C2165 C 0.87045 0.13056 0.43815 0.0
C2166 C 0.26572 0.15242 0.89473 0.0
C2167 C 0.27238 0.17899 0.89269 0.0
C2168 C 0.26102 0.1388 0.94007 0.0
C2169 C 0.26235 0.15082 0.98611 0.0
H2170 H 0.26435 0.14197 0.86084 0.0
H2171 H 0.25589 0.11842 0.93882 0.0
S2172 S 0.27903 0.22027 1.00176 0.0
N2173 N 0.28002 0.21683 0.94124 0.0
N2174 N 0.27132 0.19156 1.02601 0.0
C2175 C 0.26897 0.17747 0.98457 0.0
C2176 C 0.27399 0.19141 0.93824 0.0
C2177 C 0.86101 0.11292 0.94359 0.0
C2178 C 0.85062 0.11939 0.98484 0.0
C2179 C 0.84706 0.10391 0.89857 0.0
C2180 C 0.82182 0.10071 0.89217 0.0
H2181 H 0.88034 0.11506 0.94579 0.0
H2182 H 0.85624 0.09932 0.8685 0.0
S2183 S 0.78538 0.11503 0.9876 0.0
N2184 N 0.81302 0.12175 1.01552 0.0
N2185 N 0.78729 0.10543 0.93116 0.0
C2186 C 0.81121 0.10729 0.9328 0.0
C2187 C 0.82544 0.11649 0.97878 0.0
C2188 C 0.90016 0.71762 0.93709 0.0
C2189 C 0.89287 0.72364 0.89124 0.0
C2190 C 0.89094 0.72175 0.98274 0.0
C2191 C 0.87359 0.73178 0.98512 0.0
H2192 H 0.91338 0.70986 0.93787 0.0
H2193 H 0.8973 0.71674 1.01657 0.0
S2194 S 0.84771 0.75009 0.87579 0.0
N2195 N 0.86658 0.73969 0.85152 0.0
N2196 N 0.84956 0.74754 0.93635 0.0
C2197 C 0.86592 0.73759 0.93941 0.0
C2198 C 0.87546 0.73356 0.89298 0.0
C2199 C 0.86041 0.62064 0.15657 0.0
C2200 C 0.84761 0.61618 0.20275 0.0
C2201 C 0.84652 0.61574 0.11106 0.0
C2202 C 0.81914 0.60597 0.10954 0.0
H2203 H 0.88127 0.62769 0.15547 0.0
H2204 H 0.85723 0.61912 0.07674 0.0
S2205 S 0.77648 0.59367 0.21886 0.0
N2206 N 0.80564 0.60303 0.24273 0.0
N2207 N 0.78037 0.59423 0.15835 0.0
C2208 C 0.80635 0.60224 0.1552 0.0
C2209 C 0.82029 0.6072 0.20127 0.0
C2210 C 0.41838 0.21419 0.16956 0.0
C2211 C 0.40747 0.2155 0.12376 0.0
C2212 C 0.41388 0.22424 0.21379 0.0
C2213 C 0.39835 0.23632 0.21473 0.0
H2214 H 0.43029 0.20496 0.17148 0.0
H2215 H 0.42258 0.22227 0.24769 0.0
S2216 S 0.36608 0.24601 0.10468 0.0
N2217 N 0.381 0.23083 0.08231 0.0
N2218 N 0.37252 0.24945 0.1646 0.0
C2219 C 0.3875 0.23798 0.16907 0.0
C2220 C 0.39201 0.22766 0.12406 0.0
C2221 C 0.78227 0.20227 0.16212 0.0
C2222 C 0.78743 0.19103 0.12056 0.0
C2223 C 0.77301 0.18847 0.20723 0.0
C2224 C 0.76851 0.16274 0.21319 0.0
H2225 H 0.78498 0.22181 0.15954 0.0
H2226 H 0.76912 0.19806 0.23758 0.0
S2227 S 0.78163 0.12531 0.11784 0.0
N2228 N 0.78904 0.1531 0.08994 0.0
N2229 N 0.77185 0.12741 0.17397 0.0
C2230 C 0.77423 0.15154 0.17229 0.0
C2231 C 0.78358 0.16555 0.12636 0.0
C2232 C 0.0251 0.42661 0.37602 0.0
C2233 C 0.0098 0.42202 0.33254 0.0
C2234 C 0.01388 0.42057 0.4247 0.0
C2235 C 0.9867 0.41037 0.43336 0.0
H2236 H 0.0461 0.43497 0.37249 0.0
H2237 H 0.02688 0.42474 0.45603 0.0
S2238 S 0.93782 0.39615 0.33301 0.0
N2239 N 0.96567 0.40686 0.3027 0.0
N2240 N 0.94508 0.39675 0.39226 0.0
C2241 C 0.97131 0.40604 0.39008 0.0
C2242 C 0.98262 0.41149 0.34063 0.0
C2243 C 0.59947 0.57154 0.38851 0.0
C2244 C 0.59309 0.58089 0.43186 0.0
C2245 C 0.59455 0.57733 0.3395 0.0
C2246 C 0.58192 0.59201 0.33037 0.0
H2247 H 0.60808 0.55915 0.39234 0.0
H2248 H 0.5996 0.56909 0.30846 0.0
S2249 S 0.56077 0.62132 0.42951 0.0
N2250 N 0.57381 0.60652 0.46061 0.0
N2251 N 0.56348 0.61603 0.3703 0.0
C2252 C 0.57556 0.60159 0.37325 0.0
C2253 C 0.58133 0.59642 0.42306 0.0
C2254 C 0.40555 0.97294 0.37303 0.0
C2255 C 0.41174 0.98899 0.33025 0.0
C2256 C 0.40995 0.9833 0.42231 0.0
C2257 C 0.42174 0.01052 0.43208 0.0
H2258 H 0.39724 0.95201 0.36847 0.0
H2259 H 0.40495 0.96985 0.45306 0.0
S2260 S 0.44144 0.06143 0.33428 0.0
N2261 N 0.42952 0.03386 0.30252 0.0
N2262 N 0.43914 0.05314 0.39326 0.0
C2263 C 0.42816 0.02673 0.38964 0.0
C2264 C 0.42275 0.01611 0.33966 0.0
C2265 C 0.97013 0.56454 0.88892 0.0
C2266 C 0.98569 0.57552 0.93197 0.0
C2267 C 0.98082 0.57016 0.84002 0.0
C2268 C 0.00797 0.5866 0.83078 0.0
H2269 H 0.94931 0.55123 0.89294 0.0
H2270 H 0.96769 0.56066 0.80911 0.0
S2271 S 0.05778 0.62136 0.92922 0.0
N2272 N 0.03013 0.60486 0.96048 0.0
N2273 N 0.04999 0.61453 0.87015 0.0
C2274 C 0.02372 0.598 0.87334 0.0
C2275 C 0.01274 0.59278 0.92308 0.0
C2276 C 0.40262 0.43086 0.87883 0.0
C2277 C 0.41004 0.42284 0.83513 0.0
C2278 C 0.40802 0.42503 0.92742 0.0
C2279 C 0.42206 0.41163 0.93563 0.0
H2280 H 0.39256 0.44194 0.87557 0.0
H2281 H 0.40191 0.43202 0.95894 0.0
S2282 S 0.44663 0.38652 0.83477 0.0
N2283 N 0.4321 0.40016 0.80467 0.0
N2284 N 0.44326 0.39061 0.89427 0.0
C2285 C 0.42974 0.40367 0.89225 0.0
C2286 C 0.42348 0.40882 0.84289 0.0
C2287 C 0.57864 0.98516 0.9238 0.0
C2288 C 0.59123 0.01252 0.93344 0.0
C2289 C 0.57339 0.97445 0.87447 0.0
C2290 C 0.5811 0.99032 0.83112 0.0
H2291 H 0.57185 0.97169 0.95476 0.0
H2292 H 0.56298 0.95334 0.87037 0.0
S2293 S 0.61606 0.06324 0.83424 0.0
N2294 N 0.61149 0.05505 0.89337 0.0
N2295 N 0.60324 0.03545 0.80303 0.0
C2296 C 0.59451 0.01767 0.84042 0.0
C2297 C 0.59908 0.02851 0.89041 0.0
C2298 C 0.64351 0.73075 0.73058 0.0
C2299 C 0.65884 0.74083 0.77416 0.0
C2300 C 0.65471 0.73632 0.68208 0.0
C2301 C 0.68194 0.753 0.67376 0.0
H2302 H 0.62243 0.71861 0.73389 0.0
H2303 H 0.64163 0.72827 0.65063 0.0
S2304 S 0.73108 0.78539 0.77458 0.0
N2305 N 0.70312 0.76844 0.80468 0.0
N2306 N 0.7238 0.77959 0.71514 0.0
C2307 C 0.69748 0.76307 0.71714 0.0
C2308 C 0.68613 0.75686 0.7665 0.0
C2309 C 0.23661 0.91729 0.75581 0.0
C2310 C 0.2543 0.90801 0.76452 0.0
C2311 C 0.23068 0.92245 0.70715 0.0
C2312 C 0.2426 0.91944 0.66386 0.0
H2313 H 0.22644 0.91975 0.7869 0.0
H2314 H 0.21633 0.92871 0.7035 0.0
S2315 S 0.29145 0.89692 0.66537 0.0
N2316 N 0.28409 0.89666 0.72446 0.0
N2317 N 0.27388 0.90703 0.63467 0.0
C2318 C 0.26091 0.91089 0.6723 0.0
C2319 C 0.26644 0.90502 0.72175 0.0
C2320 C 0.07744 0.32103 0.75495 0.0
C2321 C 0.0871 0.34809 0.76326 0.0
C2322 C 0.07236 0.30977 0.70646 0.0
C2323 C 0.07548 0.3245 0.66278 0.0
H2324 H 0.0748 0.30845 0.78623 0.0
H2325 H 0.06584 0.28908 0.70328 0.0
S2326 S 0.10033 0.39628 0.66259 0.0
N2327 N 0.10012 0.38938 0.72194 0.0
N2328 N 0.08914 0.36825 0.63255 0.0
C2329 C 0.08454 0.35148 0.67065 0.0
C2330 C 0.09064 0.36314 0.71996 0.0
C2331 C 0.66824 0.88994 0.18882 0.0
C2332 C 0.67489 0.91359 0.1639 0.0
C2333 C 0.65547 0.88352 0.23568 0.0
C2334 C 0.6495 0.90081 0.26148 0.0
H2335 H 0.67259 0.87597 0.17155 0.0
H2336 H 0.65076 0.86497 0.25241 0.0
S2337 S 0.66304 0.96536 0.21374 0.0
N2338 N 0.6738 0.95404 0.16908 0.0
N2339 N 0.65176 0.94294 0.25778 0.0
C2340 C 0.65641 0.92465 0.23736 0.0
C2341 C 0.66848 0.93073 0.1887 0.0
C2342 C 0.09551 0.73401 0.22211 0.0
C2343 C 0.08849 0.74263 0.26555 0.0
C2344 C 0.08978 0.73924 0.1733 0.0
C2345 C 0.07739 0.75423 0.16448 0.0
H2346 H 0.10571 0.72309 0.22576 0.0
H2347 H 0.09598 0.73217 0.14205 0.0
S2348 S 0.05478 0.78175 0.26447 0.0
N2349 N 0.06764 0.76662 0.29513 0.0
N2350 N 0.05814 0.77735 0.20511 0.0
C2351 C 0.07026 0.76293 0.20761 0.0
C2352 C 0.07538 0.75691 0.25725 0.0
C2353 C 0.26491 0.35035 0.17559 0.0
C2354 C 0.24763 0.32325 0.16702 0.0
C2355 C 0.27019 0.36165 0.22418 0.0
C2356 C 0.25937 0.34652 0.26777 0.0
H2357 H 0.27363 0.36328 0.14422 0.0
H2358 H 0.28276 0.38266 0.22751 0.0
S2359 S 0.21297 0.27461 0.26735 0.0
N2360 N 0.21963 0.28175 0.20811 0.0
N2361 N 0.23025 0.30247 0.29766 0.0
C2362 C 0.24269 0.31933 0.25977 0.0
C2363 C 0.23672 0.30794 0.21033 0.0
C2364 C 0.30502 0.07028 1.05706 0.0
C2365 C 0.32082 0.07845 0.10047 0.0
C2366 C 0.31585 0.07556 1.00807 0.0
C2367 C 0.34324 0.09 0.99906 0.0
H2368 H 0.2839 0.05972 0.06085 0.0
H2369 H 0.30248 0.06902 0.97689 0.0
S2370 S 0.39376 0.11598 0.09884 0.0
N2371 N 0.36582 0.10137 0.12965 0.0
N2372 N 0.38579 0.11189 1.03954 0.0
C2373 C 0.35921 0.09803 1.04217 0.0
C2374 C 0.34821 0.09212 0.09189 0.0
C2375 C 0.90045 0.26124 1.04523 0.0
C2376 C 0.91115 0.25606 1.00238 0.0
C2377 C 0.90609 0.25653 0.0946 0.0
C2378 C 0.92222 0.24553 0.10467 0.0
H2379 H 0.88729 0.26891 1.04069 0.0
H2380 H 0.8968 0.26062 0.12518 0.0
S2381 S 0.95595 0.22863 1.00725 0.0
N2382 N 0.93985 0.23999 0.97524 0.0
N2383 N 0.94929 0.23024 0.06612 0.0
C2384 C 0.93321 0.24047 0.06231 0.0
C2385 C 0.92807 0.24594 1.01215 0.0
C2386 C 0.7468 0.67971 1.0122 0.0
C2387 C 0.73921 0.65345 0.99971 0.0
C2388 C 0.75167 0.68914 0.06228 0.0
C2389 C 0.74849 0.67278 0.10341 0.0
H2390 H 0.74992 0.69347 0.98282 0.0
H2391 H 0.75814 0.70962 0.06876 0.0
S2392 S 0.72923 0.6025 0.09268 0.0
N2393 N 0.72924 0.61146 1.03475 0.0
N2394 N 0.73735 0.62872 0.12682 0.0
C2395 C 0.74043 0.64644 0.0915 0.0
C2396 C 0.73611 0.637 1.04066 0.0
C2397 C 0.3594 0.26671 0.54248 0.0
C2398 C 0.34405 0.25556 0.4992 0.0
C2399 C 0.34831 0.26184 0.59121 0.0
C2400 C 0.32121 0.24472 0.60023 0.0
H2401 H 0.38038 0.27941 0.53874 0.0
H2402 H 0.36137 0.27098 0.62234 0.0
S2403 S 0.27214 0.20914 0.50066 0.0
N2404 N 0.29988 0.22619 0.46994 0.0
N2405 N 0.27952 0.21622 0.55978 0.0
C2406 C 0.30572 0.23327 0.5572 0.0
C2407 C 0.3169 0.23885 0.5076 0.0
C2408 C 0.76086 0.06865 0.55755 0.0
C2409 C 0.75488 0.07873 0.60026 0.0
C2410 C 0.75516 0.07346 0.5083 0.0
C2411 C 0.74394 0.08942 0.49849 0.0
H2412 H 0.77014 0.05691 0.56212 0.0
H2413 H 0.76051 0.06532 0.47752 0.0
S2414 S 0.72472 0.12114 0.59625 0.0
N2415 N 0.73644 0.1053 0.62794 0.0
N2416 N 0.72722 0.11527 0.53732 0.0
C2417 C 0.73803 0.09968 0.54091 0.0
C2418 C 0.74302 0.0941 0.59084 0.0
C2419 C 0.9079 0.64989 0.5903 0.0
C2420 C 0.91875 0.67681 0.60253 0.0
C2421 C 0.90364 0.64052 0.54007 0.0
C2422 C 0.91059 0.65741 0.49826 0.0
H2423 H 0.90178 0.63566 0.61993 0.0
H2424 H 0.89458 0.61961 0.53401 0.0
S2425 S 0.93969 0.7297 0.50805 0.0
N2426 N 0.93609 0.72012 0.56637 0.0
N2427 N 0.92904 0.7029 0.47427 0.0
C2428 C 0.92192 0.68437 0.51001 0.0
C2429 C 0.92569 0.69384 0.56098 0.0
C2430 C 0.01796 0.50507 0.15667 0.0
C2431 C -0.0001 0.47812 0.16179 0.0
C2432 C 0.01397 0.52059 0.12227 0.0
C2433 C 0.99175 0.5098 0.09117 0.0
H2434 H 0.03567 0.51415 0.17885 0.0
H2435 H 0.02796 0.5414 0.1214 0.0
S2436 S 0.93912 0.4402 0.0873 0.0
N2437 N 0.9592 0.4412 0.13107 0.0
N2438 N 0.95192 0.47051 0.06668 0.0
C2439 C 0.97374 0.4829 0.09538 0.0
C2440 C 0.97765 0.46707 0.13066 0.0
C2441 C 0.53014 0.51053 0.1324 0.0
C2442 C 0.51983 0.52152 0.16567 0.0
C2443 C 0.51401 0.49133 0.09782 0.0
C2444 C 0.48703 0.48266 0.09431 0.0
H2445 H 0.55095 0.51731 0.13194 0.0
H2446 H 0.52259 0.48269 0.07439 0.0
S2447 S 0.45022 0.50409 0.17526 0.0
N2448 N 0.48078 0.52102 0.19498 0.0
N2449 N 0.45069 0.48617 0.12878 0.0
C2450 C 0.47654 0.49351 0.12749 0.0
C2451 C 0.49283 0.51243 0.16354 0.0
C2452 C 0.51007 0.02238 0.09245 0.0
C2453 C 0.52026 0.0053 0.09331 0.0
C2454 C 0.4908 0.01971 0.1263 0.0
C2455 C 0.48131 0.00014 0.16313 0.0
H2456 H 0.51763 0.03844 0.06622 0.0
H2457 H 0.48283 0.03267 0.12262 0.0
S2458 S 0.50265 0.95151 0.18379 0.0
N2459 N 0.51962 0.96838 0.13518 0.0
N2460 N 0.48445 0.96436 0.19968 0.0
C2461 C 0.49171 0.98336 0.16496 0.0
C2462 C 0.51078 0.98557 0.12981 0.0
C2463 C 0.49971 0.98257 0.64318 0.0
C2464 C 0.52636 0.00189 0.64381 0.0
C2465 C 0.48162 0.98555 0.61373 0.0
C2466 C 0.48961 0.00803 0.58409 0.0
H2467 H 0.49287 0.96466 0.66369 0.0
H2468 H 0.46119 0.97039 0.61509 0.0
S2469 S 0.55648 0.06578 0.57845 0.0
N2470 N 0.55915 0.04547 0.61681 0.0
N2471 N 0.52552 0.05058 0.56072 0.0
C2472 C 0.51594 0.02781 0.58631 0.0
C2473 C 0.53409 0.025 0.61673 0.0
C2474 C 0.01435 0.48709 0.63369 0.0
C2475 C 0.99392 0.47684 0.59845 0.0
C2476 C 0.01712 0.50624 0.66788 0.0
C2477 C -0.00066 0.51556 0.66892 0.0
H2478 H 0.02794 0.4798 0.63589 0.0
H2479 H 0.03374 0.51434 0.69291 0.0
S2480 S 0.94276 0.49533 0.58375 0.0
N2481 N 0.95618 0.47793 0.56588 0.0
N2482 N 0.96066 0.51318 0.63087 0.0
C2483 C 0.97871 0.5053 0.63409 0.0
C2484 C 0.9763 0.48627 0.59862 0.0
C2485 C 0.51494 0.48139 0.63922 0.0
C2486 C 0.52095 0.50452 0.61377 0.0
C2487 C 0.49598 0.47131 0.67653 0.0
C2488 C 0.48089 0.48307 0.68746 0.0
H2489 H 0.52362 0.4698 0.62767 0.0
H2490 H 0.49092 0.45243 0.69215 0.0
S2491 S 0.48966 0.54478 0.63339 0.0
N2492 N 0.51022 0.53886 0.60219 0.0
N2493 N 0.4762 0.52143 0.67548 0.0
C2494 C 0.48849 0.50764 0.66576 0.0
C2495 C 0.50753 0.51761 0.62702 0.0
C2496 C 0.68958 0.85711 0.42077 0.0
C2497 C 0.66302 0.84388 0.40702 0.0
C2498 C 0.69828 0.84811 0.46021 0.0
C2499 C 0.68154 0.82448 0.48455 0.0
H2500 H 0.70297 0.87634 0.40594 0.0
H2501 H 0.71797 0.8608 0.47402 0.0
S2502 S 0.61093 0.78092 0.45856 0.0
N2503 N 0.62065 0.80433 0.41659 0.0
N2504 N 0.63719 0.78791 0.49179 0.0
C2505 C 0.65555 0.80978 0.46818 0.0
C2506 C 0.64651 0.81902 0.42806 0.0
C2507 C 0.15502 0.84193 0.49147 0.0
C2508 C 0.18172 0.8503 0.49888 0.0
C2509 C 0.1401 0.82299 0.45573 0.0
C2510 C 0.15129 0.81162 0.42566 0.0
H2511 H 0.14575 0.85068 0.51264 0.0
H2512 H 0.11941 0.81658 0.45307 0.0
S2513 S 0.22062 0.82747 0.42796 0.0
N2514 N 0.21892 0.84613 0.47171 0.0
N2515 N 0.19082 0.81078 0.40439 0.0
C2516 C 0.17804 0.82014 0.43201 0.0
C2517 C 0.1932 0.83919 0.46882 0.0
C2518 C 0.18111 0.37222 0.47042 0.0
C2519 C 0.18773 0.35576 0.44428 0.0
C2520 C 0.16201 0.36251 0.50749 0.0
C2521 C 0.14744 0.33549 0.51732 0.0
H2522 H 0.18955 0.39259 0.45983 0.0
H2523 H 0.15648 0.37583 0.52385 0.0
S2524 S 0.15847 0.28428 0.46154 0.0
N2525 N 0.17875 0.31133 0.43148 0.0
N2526 N 0.14404 0.29308 0.50365 0.0
C2527 C 0.15573 0.31922 0.49492 0.0
C2528 C 0.17506 0.32917 0.45669 0.0
C2529 C 0.19799 0.36216 1.00747 0.0
C2530 C 0.18492 0.33539 1.01965 0.0
C2531 C 0.18889 0.37141 0.96908 0.0
C2532 C 0.16534 0.35493 0.94414 0.0
H2533 H 0.21707 0.37551 1.02312 0.0
H2534 H 0.20124 0.39146 0.95688 0.0
S2535 S 0.12186 0.28403 0.96635 0.0
N2536 N 0.14543 0.29309 1.00794 0.0
N2537 N 0.12882 0.31072 0.93476 0.0
C2538 C 0.1508 0.32869 0.95879 0.0
C2539 C 0.16016 0.31907 0.99779 0.0
C2540 C 0.6495 0.83874 0.97076 0.0
C2541 C 0.67062 0.85023 1.00437 0.0
C2542 C 0.64663 0.81908 0.93767 0.0
C2543 C 0.66483 0.81024 0.93641 0.0
H2544 H 0.63553 0.84556 0.9687 0.0
H2545 H 0.62966 0.8103 0.91352 0.0
S2546 S 0.7229 0.83326 1.01887 0.0
N2547 N 0.70944 0.85079 1.03563 0.0
N2548 N 0.70437 0.8141 0.97357 0.0
C2549 C 0.68598 0.82153 0.97014 0.0
C2550 C 0.68867 0.8413 1.00415 0.0
C2551 C 0.15433 0.84065 0.99177 0.0
C2552 C 0.14639 0.81415 1.00046 0.0
C2553 C 0.17337 0.85544 0.95611 0.0
C2554 C 0.1853 0.84434 0.92734 0.0
H2555 H 0.14512 0.84984 1.01179 0.0
H2556 H 0.17933 0.87597 0.95231 0.0
S2557 S 0.17087 0.77556 0.93325 0.0
N2558 N 0.15176 0.77729 0.97591 0.0
N2559 N 0.18719 0.80511 0.90877 0.0
C2560 C 0.17732 0.81783 0.93511 0.0
C2561 C 0.15817 0.80281 0.97183 0.0
C2562 C 0.31385 0.16185 0.77479 0.0
C2563 C 0.33196 0.18885 0.77196 0.0
C2564 C 0.31721 0.1456 0.80832 0.0
C2565 C 0.33891 0.15567 0.84065 0.0
H2566 H 0.29656 0.15326 0.75148 0.0
H2567 H 0.30314 0.12481 0.80746 0.0
S2568 S 0.39152 0.2251 0.85025 0.0
N2569 N 0.37206 0.2251 0.80619 0.0
N2570 N 0.37842 0.19436 0.86857 0.0
C2571 C 0.357 0.18264 0.83871 0.0
C2572 C 0.35363 0.19924 0.80447 0.0
C2573 C 0.8597 0.17784 0.79723 0.0
C2574 C 0.85017 0.18688 0.83594 0.0
C2575 C 0.84256 0.15837 0.764 0.0
C2576 C 0.81526 0.1476 0.76731 0.0
H2577 H 0.8806 0.18644 0.79149 0.0
H2578 H 0.85072 0.15144 0.73586 0.0
S2579 S 0.78041 0.16315 0.86448 0.0
N2580 N 0.81178 0.18252 0.87729 0.0
N2581 N 0.77952 0.14638 0.81486 0.0
C2582 C 0.80553 0.15627 0.80636 0.0
C2583 C 0.82297 0.17574 0.84056 0.0
C2584 C 0.83882 0.65326 0.80563 0.0
C2585 C 0.84645 0.6692 0.76313 0.0
C2586 C 0.82054 0.65302 0.8389 0.0
C2587 C 0.80929 0.66884 0.83148 0.0
H2588 H 0.8477 0.64148 0.8143 0.0
H2589 H 0.81453 0.63966 0.86982 0.0
S2590 S 0.82217 0.71354 0.7249 0.0
N2591 N 0.84131 0.70099 0.71499 0.0
N2592 N 0.80652 0.70036 0.7771 0.0
C2593 C 0.81676 0.68491 0.78902 0.0
C2594 C 0.83535 0.68505 0.75497 0.0
C2595 C 0.8308 0.65509 0.32811 0.0
C2596 C 0.8544 0.66504 0.30184 0.0
C2597 C 0.80865 0.65414 0.30623 0.0
C2598 C 0.80938 0.66295 0.25731 0.0
H2599 H 0.82967 0.64875 0.36602 0.0
H2600 H 0.79119 0.64763 0.32852 0.0
S2601 S 0.86564 0.69018 0.17178 0.0
N2602 N 0.87662 0.68365 0.22294 0.0
N2603 N 0.83486 0.68146 0.18326 0.0
C2604 C 0.83247 0.67251 0.23047 0.0
C2605 C 0.85503 0.67375 0.25242 0.0
C2606 C 0.31668 0.17572 0.30626 0.0
C2607 C 0.3395 0.18795 0.33567 0.0
C2608 C 0.31267 0.15627 0.27171 0.0
C2609 C 0.33125 0.14818 0.26484 0.0
H2610 H 0.30209 0.18173 0.30872 0.0
H2611 H 0.29444 0.14691 0.25112 0.0
S2612 S 0.39429 0.17401 0.33293 0.0
N2613 N 0.38079 0.19043 0.35585 0.0
N2614 N 0.37352 0.15414 0.29082 0.0
C2615 C 0.35427 0.16041 0.29376 0.0
C2616 C 0.35818 0.18 0.32933 0.0
C2617 C 0.84434 0.19391 0.30863 0.0
C2618 C 0.85231 0.18475 0.26772 0.0
C2619 C 0.82514 0.17649 0.34163 0.0
C2620 C 0.81355 0.14924 0.33573 0.0
H2621 H 0.85361 0.21471 0.31628 0.0
H2622 H 0.81884 0.1844 0.37138 0.0
S2623 S 0.82664 0.11542 0.2328 0.0
N2624 N 0.84637 0.14689 0.22183 0.0
N2625 N 0.81076 0.11399 0.28409 0.0
C2626 C 0.82132 0.13987 0.29473 0.0
C2627 C 0.84049 0.15765 0.2607 0.0
loop_
_geom_bond_atom_site_label_1
_geom_bond_atom_site_label_2
_geom_bond_distance
_geom_bond_site_symmetry_2
_ccdc_geom_bond_type
Tb0 C2 2.809 . S
Tb0 O20 2.484 . S
Tb0 O21 2.440 . S
Tb0 O22 2.658 . S
Tb0 O23 2.409 . S
Tb0 O24 2.378 . S
Tb0 O28 2.325 . S
Tb0 O31 2.341 . S
Tb1 C11 2.809 1_554 S
Tb1 O22 2.325 . S
Tb1 O25 2.341 . S
Tb1 O26 2.484 . S
Tb1 O27 2.440 . S
Tb1 O28 2.658 . S
Tb1 O29 2.409 . S
Tb1 O30 2.378 . S
C2 Tb0 2.809 . S
C2 C3 1.514 . S
C2 O20 1.248 . S
C2 O21 1.266 . S
C3 C2 1.514 . S
C3 C4 1.359 . S
C3 C8 1.348 . S
C4 C3 1.359 . S
C4 C5 1.380 . S
C4 H32 0.929 . S
C5 C4 1.380 . S
C5 C6 1.347 . S
C5 H33 0.931 . S
C6 C5 1.347 . S
C6 C7 1.369 . S
C7 C6 1.369 . S
C7 C8 1.408 . S
C7 H34 0.930 . S
C8 C3 1.348 . S
C8 C7 1.408 . S
C8 H35 0.930 . S
C9 O22 1.281 . S
C9 O23 1.254 . S
C10 O24 1.236 . S
C10 O25 1.266 . S
C11 Tb1 2.809 1_556 S
C11 C12 1.514 . S
C11 O26 1.248 1_556 S
C11 O27 1.266 1_556 S
C12 C11 1.514 . S
C12 C13 1.359 . S
C12 C17 1.348 . S
C13 C12 1.359 . S
C13 C14 1.380 . S
C13 H36 0.929 . S
C14 C13 1.380 . S
C14 C15 1.347 . S
C14 H37 0.931 . S
C15 C14 1.347 . S
C15 C16 1.369 1_455 S
C16 C15 1.369 1_655 S
C16 C17 1.408 1_655 S
C16 H38 0.930 . S
C17 C12 1.348 . S
C17 C16 1.408 1_455 S
C17 H39 0.930 1_455 S
C18 O28 1.281 . S
C18 O29 1.254 . S
C19 O30 1.236 . S
C19 O31 1.266 . S
O20 Tb0 2.484 . S
O20 C2 1.248 . S
O21 Tb0 2.440 . S
O21 C2 1.266 . S
O22 Tb0 2.658 . S
O22 Tb1 2.325 . S
O22 C9 1.281 . S
O23 Tb0 2.409 . S
O23 C9 1.254 . S
O24 Tb0 2.378 . S
O24 C10 1.236 . S
O25 Tb1 2.341 . S
O25 C10 1.266 . S
O26 Tb1 2.484 . S
O26 C11 1.248 1_554 S
O27 Tb1 2.440 . S
O27 C11 1.266 1_554 S
O28 Tb0 2.325 . S
O28 Tb1 2.658 . S
O28 C18 1.281 . S
O29 Tb1 2.409 . S
O29 C18 1.254 . S
O30 Tb1 2.378 . S
O30 C19 1.236 . S
O31 Tb0 2.341 . S
O31 C19 1.266 . S
H32 C4 0.929 . S
H33 C5 0.931 . S
H34 C7 0.930 . S
H35 C8 0.930 . S
H36 C13 0.929 . S
H37 C14 0.931 . S
H38 C16 0.930 . S
H39 C17 0.930 1_655 S
Tb40 C42 2.809 . S
Tb40 O60 2.484 . S
Tb40 O61 2.440 . S
Tb40 O62 2.658 . S
Tb40 O63 2.409 . S
Tb40 O64 2.378 . S
Tb40 O68 2.325 . S
Tb40 O71 2.341 . S
Tb41 C51 2.809 1_554 S
Tb41 O62 2.325 . S
Tb41 O65 2.341 . S
Tb41 O66 2.484 . S
Tb41 O67 2.440 . S
Tb41 O68 2.658 . S
Tb41 O69 2.409 . S
Tb41 O70 2.378 . S
C42 Tb40 2.809 . S
C42 C43 1.514 . S
C42 O60 1.248 . S
C42 O61 1.266 . S
C43 C42 1.514 . S
C43 C44 1.359 . S
C43 C48 1.348 . S
C44 C43 1.359 . S
C44 C45 1.380 . S
C44 H72 0.929 . S
C45 C44 1.380 . S
C45 C46 1.347 . S
C45 H73 0.931 . S
C46 C45 1.347 . S
C46 C47 1.369 . S
C47 C46 1.369 . S
C47 C48 1.408 . S
C47 H74 0.930 . S
C48 C43 1.348 . S
C48 C47 1.408 . S
C48 H75 0.930 . S
C49 O62 1.281 . S
C49 O63 1.254 . S
C50 O64 1.236 . S
C50 O65 1.266 . S
C51 Tb41 2.809 1_556 S
C51 C52 1.514 . S
C51 O66 1.248 1_556 S
C51 O67 1.266 1_556 S
C52 C51 1.514 . S
C52 C53 1.359 . S
C52 C57 1.348 . S
C53 C52 1.359 . S
C53 C54 1.380 . S
C53 H76 0.929 . S
C54 C53 1.380 . S
C54 C55 1.347 . S
C54 H77 0.931 . S
C55 C54 1.347 . S
C55 C56 1.369 . S
C56 C55 1.369 . S
C56 C57 1.408 . S
C56 H78 0.930 . S
C57 C52 1.348 . S
C57 C56 1.408 . S
C57 H79 0.930 . S
C58 O68 1.281 . S
C58 O69 1.254 . S
C59 O70 1.236 . S
C59 O71 1.266 . S
O60 Tb40 2.484 . S
O60 C42 1.248 . S
O61 Tb40 2.440 . S
O61 C42 1.266 . S
O62 Tb40 2.658 . S
O62 Tb41 2.325 . S
O62 C49 1.281 . S
O63 Tb40 2.409 . S
O63 C49 1.254 . S
O64 Tb40 2.378 . S
O64 C50 1.236 . S
O65 Tb41 2.341 . S
O65 C50 1.266 . S
O66 Tb41 2.484 . S
O66 C51 1.248 1_554 S
O67 Tb41 2.440 . S
O67 C51 1.266 1_554 S
O68 Tb40 2.325 . S
O68 Tb41 2.658 . S
O68 C58 1.281 . S
O69 Tb41 2.409 . S
O69 C58 1.254 . S
O70 Tb41 2.378 . S
O70 C59 1.236 . S
O71 Tb40 2.341 . S
O71 C59 1.266 . S
H72 C44 0.929 . S
H73 C45 0.931 . S
H74 C47 0.930 . S
H75 C48 0.930 . S
H76 C53 0.929 . S
H77 C54 0.931 . S
H78 C56 0.930 . S
H79 C57 0.930 . S
Tb80 C82 2.809 . S
Tb80 O100 2.484 . S
Tb80 O101 2.440 . S
Tb80 O102 2.658 . S
Tb80 O103 2.409 . S
Tb80 O104 2.378 . S
Tb80 O108 2.325 . S
Tb80 O111 2.341 . S
Tb81 C91 2.809 1_554 S
Tb81 O102 2.325 . S
Tb81 O105 2.341 . S
Tb81 O106 2.484 . S
Tb81 O107 2.440 . S
Tb81 O108 2.658 . S
Tb81 O109 2.409 . S
Tb81 O110 2.378 . S
C82 Tb80 2.809 . S
C82 C83 1.514 . S
C82 O100 1.248 . S
C82 O101 1.266 . S
C83 C82 1.514 . S
C83 C84 1.359 . S
C83 C88 1.348 . S
C84 C83 1.359 . S
C84 C85 1.380 . S
C84 H112 0.929 . S
C85 C84 1.380 . S
C85 C86 1.347 . S
C85 H113 0.931 . S
C86 C85 1.347 . S
C86 C87 1.369 . S
C87 C86 1.369 . S
C87 C88 1.408 . S
C87 H114 0.930 . S
C88 C83 1.348 . S
C88 C87 1.408 . S
C88 H115 0.930 . S
C89 O102 1.281 . S
C89 O103 1.254 . S
C90 O104 1.236 . S
C90 O105 1.266 . S
C91 Tb81 2.809 1_556 S
C91 C92 1.514 . S
C91 O106 1.248 1_556 S
C91 O107 1.266 1_556 S
C92 C91 1.514 . S
C92 C93 1.359 . S
C92 C97 1.348 . S
C93 C92 1.359 . S
C93 C94 1.380 . S
C93 H116 0.929 . S
C94 C93 1.380 . S
C94 C95 1.347 . S
C94 H117 0.931 . S
C95 C94 1.347 . S
C95 C96 1.369 1_565 S
C96 C95 1.369 1_545 S
C96 C97 1.408 1_545 S
C96 H118 0.930 . S
C97 C92 1.348 . S
C97 C96 1.408 1_565 S
C97 H119 0.930 1_565 S
C98 O108 1.281 . S
C98 O109 1.254 . S
C99 O110 1.236 . S
C99 O111 1.266 . S
O100 Tb80 2.484 . S
O100 C82 1.248 . S
O101 Tb80 2.440 . S
O101 C82 1.266 . S
O102 Tb80 2.658 . S
O102 Tb81 2.325 . S
O102 C89 1.281 . S
O103 Tb80 2.409 . S
O103 C89 1.254 . S
O104 Tb80 2.378 . S
O104 C90 1.236 . S
O105 Tb81 2.341 . S
O105 C90 1.266 . S
O106 Tb81 2.484 . S
O106 C91 1.248 1_554 S
O107 Tb81 2.440 . S
O107 C91 1.266 1_554 S
O108 Tb80 2.325 . S
O108 Tb81 2.658 . S
O108 C98 1.281 . S
O109 Tb81 2.409 . S
O109 C98 1.254 . S
O110 Tb81 2.378 . S
O110 C99 1.236 . S
O111 Tb80 2.341 . S
O111 C99 1.266 . S
H112 C84 0.929 . S
H113 C85 0.931 . S
H114 C87 0.930 . S
H115 C88 0.930 . S
H116 C93 0.929 . S
H117 C94 0.931 . S
H118 C96 0.930 . S
H119 C97 0.930 1_545 S
Tb120 C122 2.809 . S
Tb120 O140 2.484 . S
Tb120 O141 2.440 . S
Tb120 O142 2.658 . S
Tb120 O143 2.409 . S
Tb120 O144 2.378 . S
Tb120 O148 2.325 . S
Tb120 O151 2.341 . S
Tb121 C131 2.809 . S
Tb121 O142 2.325 . S
Tb121 O145 2.341 . S
Tb121 O146 2.484 . S
Tb121 O147 2.440 . S
Tb121 O148 2.658 . S
Tb121 O149 2.409 . S
Tb121 O150 2.378 . S
C122 Tb120 2.809 . S
C122 C123 1.514 . S
C122 O140 1.248 . S
C122 O141 1.266 . S
C123 C122 1.514 . S
C123 C124 1.359 . S
C123 C128 1.348 . S
C124 C123 1.359 . S
C124 C125 1.380 . S
C124 H152 0.929 . S
C125 C124 1.380 . S
C125 C126 1.347 . S
C125 H153 0.931 . S
C126 C125 1.347 . S
C126 C127 1.369 . S
C127 C126 1.369 . S
C127 C128 1.408 . S
C127 H154 0.930 . S
C128 C123 1.348 . S
C128 C127 1.408 . S
C128 H155 0.930 . S
C129 O142 1.281 . S
C129 O143 1.254 . S
C130 O144 1.236 . S
C130 O145 1.266 . S
C131 Tb121 2.809 . S
C131 C132 1.514 . S
C131 O146 1.248 . S
C131 O147 1.266 . S
C132 C131 1.514 . S
C132 C133 1.359 . S
C132 C137 1.348 . S
C133 C132 1.359 . S
C133 C134 1.380 . S
C133 H156 0.929 . S
C134 C133 1.380 . S
C134 C135 1.347 . S
C134 H157 0.931 . S
C135 C134 1.347 . S
C135 C136 1.369 1_545 S
C136 C135 1.369 1_565 S
C136 C137 1.408 1_565 S
C136 H158 0.930 . S
C137 C132 1.348 . S
C137 C136 1.408 1_545 S
C137 H159 0.930 1_545 S
C138 O148 1.281 . S
C138 O149 1.254 . S
C139 O150 1.236 . S
C139 O151 1.266 . S
O140 Tb120 2.484 . S
O140 C122 1.248 . S
O141 Tb120 2.440 . S
O141 C122 1.266 . S
O142 Tb120 2.658 . S
O142 Tb121 2.325 . S
O142 C129 1.281 . S
O143 Tb120 2.409 . S
O143 C129 1.254 . S
O144 Tb120 2.378 . S
O144 C130 1.236 . S
O145 Tb121 2.341 . S
O145 C130 1.266 . S
O146 Tb121 2.484 . S
O146 C131 1.248 . S
O147 Tb121 2.440 . S
O147 C131 1.266 . S
O148 Tb120 2.325 . S
O148 Tb121 2.658 . S
O148 C138 1.281 . S
O149 Tb121 2.409 . S
O149 C138 1.254 . S
O150 Tb121 2.378 . S
O150 C139 1.236 . S
O151 Tb120 2.341 . S
O151 C139 1.266 . S
H152 C124 0.929 . S
H153 C125 0.931 . S
H154 C127 0.930 . S
H155 C128 0.930 . S
H156 C133 0.929 . S
H157 C134 0.931 . S
H158 C136 0.930 . S
H159 C137 0.930 1_565 S
Tb160 C162 2.809 . S
Tb160 O180 2.484 . S
Tb160 O181 2.440 . S
Tb160 O182 2.658 . S
Tb160 O183 2.409 . S
Tb160 O184 2.378 . S
Tb160 O188 2.325 . S
Tb160 O191 2.341 . S
Tb161 C171 2.809 . S
Tb161 O182 2.325 . S
Tb161 O185 2.341 . S
Tb161 O186 2.484 . S
Tb161 O187 2.440 . S
Tb161 O188 2.658 . S
Tb161 O189 2.409 . S
Tb161 O190 2.378 . S
C162 Tb160 2.809 . S
C162 C163 1.514 . S
C162 O180 1.248 . S
C162 O181 1.266 . S
C163 C162 1.514 . S
C163 C164 1.359 . S
C163 C168 1.348 . S
C164 C163 1.359 . S
C164 C165 1.380 . S
C164 H192 0.929 . S
C165 C164 1.380 . S
C165 C166 1.347 . S
C165 H193 0.931 . S
C166 C165 1.347 . S
C166 C167 1.369 . S
C167 C166 1.369 . S
C167 C168 1.408 . S
C167 H194 0.930 . S
C168 C163 1.348 . S
C168 C167 1.408 . S
C168 H195 0.930 . S
C169 O182 1.281 . S
C169 O183 1.254 . S
C170 O184 1.236 . S
C170 O185 1.266 . S
C171 Tb161 2.809 . S
C171 C172 1.514 . S
C171 O186 1.248 . S
C171 O187 1.266 . S
C172 C171 1.514 . S
C172 C173 1.359 . S
C172 C177 1.348 . S
C173 C172 1.359 . S
C173 C174 1.380 . S
C173 H196 0.929 . S
C174 C173 1.380 . S
C174 C175 1.347 . S
C174 H197 0.931 . S
C175 C174 1.347 . S
C175 C176 1.369 1_655 S
C176 C175 1.369 1_455 S
C176 C177 1.408 1_455 S
C176 H198 0.930 . S
C177 C172 1.348 . S
C177 C176 1.408 1_655 S
C177 H199 0.930 1_655 S
C178 O188 1.281 . S
C178 O189 1.254 . S
C179 O190 1.236 . S
C179 O191 1.266 . S
O180 Tb160 2.484 . S
O180 C162 1.248 . S
O181 Tb160 2.440 . S
O181 C162 1.266 . S
O182 Tb160 2.658 . S
O182 Tb161 2.325 . S
O182 C169 1.281 . S
O183 Tb160 2.409 . S
O183 C169 1.254 . S
O184 Tb160 2.378 . S
O184 C170 1.236 . S
O185 Tb161 2.341 . S
O185 C170 1.266 . S
O186 Tb161 2.484 . S
O186 C171 1.248 . S
O187 Tb161 2.440 . S
O187 C171 1.266 . S
O188 Tb160 2.325 . S
O188 Tb161 2.658 . S
O188 C178 1.281 . S
O189 Tb161 2.409 . S
O189 C178 1.254 . S
O190 Tb161 2.378 . S
O190 C179 1.236 . S
O191 Tb160 2.341 . S
O191 C179 1.266 . S
H192 C164 0.929 . S
H193 C165 0.931 . S
H194 C167 0.930 . S
H195 C168 0.930 . S
H196 C173 0.929 . S
H197 C174 0.931 . S
H198 C176 0.930 . S
H199 C177 0.930 1_455 S
Tb200 C202 2.809 . S
Tb200 O220 2.484 . S
Tb200 O221 2.440 . S
Tb200 O222 2.658 . S
Tb200 O223 2.409 . S
Tb200 O224 2.378 . S
Tb200 O228 2.325 . S
Tb200 O231 2.341 . S
Tb201 C211 2.809 . S
Tb201 O222 2.325 . S
Tb201 O225 2.341 . S
Tb201 O226 2.484 . S
Tb201 O227 2.440 . S
Tb201 O228 2.658 . S
Tb201 O229 2.409 . S
Tb201 O230 2.378 . S
C202 Tb200 2.809 . S
C202 C203 1.514 . S
C202 O220 1.248 . S
C202 O221 1.266 . S
C203 C202 1.514 . S
C203 C204 1.359 . S
C203 C208 1.348 . S
C204 C203 1.359 . S
C204 C205 1.380 . S
C204 H232 0.929 . S
C205 C204 1.380 . S
C205 C206 1.347 . S
C205 H233 0.931 . S
C206 C205 1.347 . S
C206 C207 1.369 . S
C207 C206 1.369 . S
C207 C208 1.408 . S
C207 H234 0.930 . S
C208 C203 1.348 . S
C208 C207 1.408 . S
C208 H235 0.930 . S
C209 O222 1.281 . S
C209 O223 1.254 . S
C210 O224 1.236 . S
C210 O225 1.266 . S
C211 Tb201 2.809 . S
C211 C212 1.514 . S
C211 O226 1.248 . S
C211 O227 1.266 . S
C212 C211 1.514 . S
C212 C213 1.359 . S
C212 C217 1.348 . S
C213 C212 1.359 . S
C213 C214 1.380 . S
C213 H236 0.929 . S
C214 C213 1.380 . S
C214 C215 1.347 . S
C214 H237 0.931 . S
C215 C214 1.347 . S
C215 C216 1.369 . S
C216 C215 1.369 . S
C216 C217 1.408 . S
C216 H238 0.930 . S
C217 C212 1.348 . S
C217 C216 1.408 . S
C217 H239 0.930 . S
C218 O228 1.281 . S
C218 O229 1.254 . S
C219 O230 1.236 . S
C219 O231 1.266 . S
O220 Tb200 2.484 . S
O220 C202 1.248 . S
O221 Tb200 2.440 . S
O221 C202 1.266 . S
O222 Tb200 2.658 . S
O222 Tb201 2.325 . S
O222 C209 1.281 . S
O223 Tb200 2.409 . S
O223 C209 1.254 . S
O224 Tb200 2.378 . S
O224 C210 1.236 . S
O225 Tb201 2.341 . S
O225 C210 1.266 . S
O226 Tb201 2.484 . S
O226 C211 1.248 . S
O227 Tb201 2.440 . S
O227 C211 1.266 . S
O228 Tb200 2.325 . S
O228 Tb201 2.658 . S
O228 C218 1.281 . S
O229 Tb201 2.409 . S
O229 C218 1.254 . S
O230 Tb201 2.378 . S
O230 C219 1.236 . S
O231 Tb200 2.341 . S
O231 C219 1.266 . S
H232 C204 0.929 . S
H233 C205 0.931 . S
H234 C207 0.930 . S
H235 C208 0.930 . S
H236 C213 0.929 . S
H237 C214 0.931 . S
H238 C216 0.930 . S
H239 C217 0.930 . S
Tb240 C242 2.809 . S
Tb240 O260 2.484 . S
Tb240 O261 2.440 . S
Tb240 O262 2.658 . S
Tb240 O263 2.409 . S
Tb240 O264 2.378 . S
Tb240 O268 2.325 . S
Tb240 O271 2.341 1_554 S
Tb241 C251 2.809 . S
Tb241 O262 2.325 1_556 S
Tb241 O265 2.341 1_556 S
Tb241 O266 2.484 . S
Tb241 O267 2.440 . S
Tb241 O268 2.658 1_556 S
Tb241 O269 2.409 1_556 S
Tb241 O270 2.378 . S
C242 Tb240 2.809 . S
C242 C243 1.514 . S
C242 O260 1.248 . S
C242 O261 1.266 . S
C243 C242 1.514 . S
C243 C244 1.359 . S
C243 C248 1.348 . S
C244 C243 1.359 . S
C244 C245 1.380 . S
C244 H272 0.929 . S
C245 C244 1.380 . S
C245 C246 1.347 . S
C245 H273 0.931 . S
C246 C245 1.347 . S
C246 C247 1.369 1_655 S
C247 C246 1.369 1_455 S
C247 C248 1.408 1_455 S
C247 H274 0.930 . S
C248 C243 1.348 . S
C248 C247 1.408 1_655 S
C248 H275 0.930 1_655 S
C249 O262 1.281 . S
C249 O263 1.254 . S
C250 O264 1.236 . S
C250 O265 1.266 . S
C251 Tb241 2.809 . S
C251 C252 1.514 . S
C251 O266 1.248 . S
C251 O267 1.266 . S
C252 C251 1.514 . S
C252 C253 1.359 . S
C252 C257 1.348 . S
C253 C252 1.359 . S
C253 C254 1.380 . S
C253 H276 0.929 . S
C254 C253 1.380 . S
C254 C255 1.347 . S
C254 H277 0.931 . S
C255 C254 1.347 . S
C255 C256 1.369 . S
C256 C255 1.369 . S
C256 C257 1.408 . S
C256 H278 0.930 . S
C257 C252 1.348 . S
C257 C256 1.408 . S
C257 H279 0.930 . S
C258 O268 1.281 . S
C258 O269 1.254 . S
C259 O270 1.236 . S
C259 O271 1.266 . S
O260 Tb240 2.484 . S
O260 C242 1.248 . S
O261 Tb240 2.440 . S
O261 C242 1.266 . S
O262 Tb240 2.658 . S
O262 Tb241 2.325 1_554 S
O262 C249 1.281 . S
O263 Tb240 2.409 . S
O263 C249 1.254 . S
O264 Tb240 2.378 . S
O264 C250 1.236 . S
O265 Tb241 2.341 1_554 S
O265 C250 1.266 . S
O266 Tb241 2.484 . S
O266 C251 1.248 . S
O267 Tb241 2.440 . S
O267 C251 1.266 . S
O268 Tb240 2.325 . S
O268 Tb241 2.658 1_554 S
O268 C258 1.281 . S
O269 Tb241 2.409 1_554 S
O269 C258 1.254 . S
O270 Tb241 2.378 . S
O270 C259 1.236 . S
O271 Tb240 2.341 1_556 S
O271 C259 1.266 . S
H272 C244 0.929 . S
H273 C245 0.931 . S
H274 C247 0.930 . S
H275 C248 0.930 1_455 S
H276 C253 0.929 . S
H277 C254 0.931 . S
H278 C256 0.930 . S
H279 C257 0.930 . S
Tb280 C282 2.809 . S
Tb280 O300 2.484 . S
Tb280 O301 2.440 . S
Tb280 O302 2.658 . S
Tb280 O303 2.409 . S
Tb280 O304 2.378 . S
Tb280 O308 2.325 . S
Tb280 O311 2.341 1_554 S
Tb281 C291 2.809 . S
Tb281 O302 2.325 1_556 S
Tb281 O305 2.341 1_556 S
Tb281 O306 2.484 . S
Tb281 O307 2.440 . S
Tb281 O308 2.658 1_556 S
Tb281 O309 2.409 1_556 S
Tb281 O310 2.378 . S
C282 Tb280 2.809 . S
C282 C283 1.514 . S
C282 O300 1.248 . S
C282 O301 1.266 . S
C283 C282 1.514 . S
C283 C284 1.359 . S
C283 C288 1.348 . S
C284 C283 1.359 . S
C284 C285 1.380 . S
C284 H312 0.929 . S
C285 C284 1.380 . S
C285 C286 1.347 . S
C285 H313 0.931 . S
C286 C285 1.347 . S
C286 C287 1.369 . S
C287 C286 1.369 . S
C287 C288 1.408 . S
C287 H314 0.930 . S
C288 C283 1.348 . S
C288 C287 1.408 . S
C288 H315 0.930 . S
C289 O302 1.281 . S
C289 O303 1.254 . S
C290 O304 1.236 . S
C290 O305 1.266 . S
C291 Tb281 2.809 . S
C291 C292 1.514 . S
C291 O306 1.248 . S
C291 O307 1.266 . S
C292 C291 1.514 . S
C292 C293 1.359 . S
C292 C297 1.348 . S
C293 C292 1.359 . S
C293 C294 1.380 . S
C293 H316 0.929 . S
C294 C293 1.380 . S
C294 C295 1.347 . S
C294 H317 0.931 . S
C295 C294 1.347 . S
C295 C296 1.369 . S
C296 C295 1.369 . S
C296 C297 1.408 . S
C296 H318 0.930 . S
C297 C292 1.348 . S
C297 C296 1.408 . S
C297 H319 0.930 . S
C298 O308 1.281 . S
C298 O309 1.254 . S
C299 O310 1.236 . S
C299 O311 1.266 . S
O300 Tb280 2.484 . S
O300 C282 1.248 . S
O301 Tb280 2.440 . S
O301 C282 1.266 . S
O302 Tb280 2.658 . S
O302 Tb281 2.325 1_554 S
O302 C289 1.281 . S
O303 Tb280 2.409 . S
O303 C289 1.254 . S
O304 Tb280 2.378 . S
O304 C290 1.236 . S
O305 Tb281 2.341 1_554 S
O305 C290 1.266 . S
O306 Tb281 2.484 . S
O306 C291 1.248 . S
O307 Tb281 2.440 . S
O307 C291 1.266 . S
O308 Tb280 2.325 . S
O308 Tb281 2.658 1_554 S
O308 C298 1.281 . S
O309 Tb281 2.409 1_554 S
O309 C298 1.254 . S
O310 Tb281 2.378 . S
O310 C299 1.236 . S
O311 Tb280 2.341 1_556 S
O311 C299 1.266 . S
H312 C284 0.929 . S
H313 C285 0.931 . S
H314 C287 0.930 . S
H315 C288 0.930 . S
H316 C293 0.929 . S
H317 C294 0.931 . S
H318 C296 0.930 . S
H319 C297 0.930 . S
Tb320 C322 2.809 . S
Tb320 O340 2.484 . S
Tb320 O341 2.440 . S
Tb320 O342 2.658 . S
Tb320 O343 2.409 . S
Tb320 O344 2.378 . S
Tb320 O348 2.325 . S
Tb320 O351 2.341 1_554 S
Tb321 C331 2.809 . S
Tb321 O342 2.325 1_556 S
Tb321 O345 2.341 1_556 S
Tb321 O346 2.484 . S
Tb321 O347 2.440 . S
Tb321 O348 2.658 1_556 S
Tb321 O349 2.409 1_556 S
Tb321 O350 2.378 . S
C322 Tb320 2.809 . S
C322 C323 1.514 . S
C322 O340 1.248 . S
C322 O341 1.266 . S
C323 C322 1.514 . S
C323 C324 1.359 . S
C323 C328 1.348 . S
C324 C323 1.359 . S
C324 C325 1.380 . S
C324 H352 0.929 . S
C325 C324 1.380 . S
C325 C326 1.347 . S
C325 H353 0.931 . S
C326 C325 1.347 . S
C326 C327 1.369 1_545 S
C327 C326 1.369 1_565 S
C327 C328 1.408 1_565 S
C327 H354 0.930 . S
C328 C323 1.348 . S
C328 C327 1.408 1_545 S
C328 H355 0.930 1_545 S
C329 O342 1.281 . S
C329 O343 1.254 . S
C330 O344 1.236 . S
C330 O345 1.266 . S
C331 Tb321 2.809 . S
C331 C332 1.514 . S
C331 O346 1.248 . S
C331 O347 1.266 . S
C332 C331 1.514 . S
C332 C333 1.359 . S
C332 C337 1.348 . S
C333 C332 1.359 . S
C333 C334 1.380 . S
C333 H356 0.929 . S
C334 C333 1.380 . S
C334 C335 1.347 . S
C334 H357 0.931 . S
C335 C334 1.347 . S
C335 C336 1.369 . S
C336 C335 1.369 . S
C336 C337 1.408 . S
C336 H358 0.930 . S
C337 C332 1.348 . S
C337 C336 1.408 . S
C337 H359 0.930 . S
C338 O348 1.281 . S
C338 O349 1.254 . S
C339 O350 1.236 . S
C339 O351 1.266 . S
O340 Tb320 2.484 . S
O340 C322 1.248 . S
O341 Tb320 2.440 . S
O341 C322 1.266 . S
O342 Tb320 2.658 . S
O342 Tb321 2.325 1_554 S
O342 C329 1.281 . S
O343 Tb320 2.409 . S
O343 C329 1.254 . S
O344 Tb320 2.378 . S
O344 C330 1.236 . S
O345 Tb321 2.341 1_554 S
O345 C330 1.266 . S
O346 Tb321 2.484 . S
O346 C331 1.248 . S
O347 Tb321 2.440 . S
O347 C331 1.266 . S
O348 Tb320 2.325 . S
O348 Tb321 2.658 1_554 S
O348 C338 1.281 . S
O349 Tb321 2.409 1_554 S
O349 C338 1.254 . S
O350 Tb321 2.378 . S
O350 C339 1.236 . S
O351 Tb320 2.341 1_556 S
O351 C339 1.266 . S
H352 C324 0.929 . S
H353 C325 0.931 . S
H354 C327 0.930 . S
H355 C328 0.930 1_565 S
H356 C333 0.929 . S
H357 C334 0.931 . S
H358 C336 0.930 . S
H359 C337 0.930 . S
Tb360 C362 2.809 . S
Tb360 O380 2.484 . S
Tb360 O381 2.440 . S
Tb360 O382 2.658 . S
Tb360 O383 2.409 . S
Tb360 O384 2.378 . S
Tb360 O388 2.325 . S
Tb360 O391 2.341 . S
Tb361 C371 2.809 . S
Tb361 O382 2.325 . S
Tb361 O385 2.341 . S
Tb361 O386 2.484 . S
Tb361 O387 2.440 . S
Tb361 O388 2.658 . S
Tb361 O389 2.409 . S
Tb361 O390 2.378 . S
C362 Tb360 2.809 . S
C362 C363 1.514 . S
C362 O380 1.248 . S
C362 O381 1.266 . S
C363 C362 1.514 . S
C363 C364 1.359 . S
C363 C368 1.348 . S
C364 C363 1.359 . S
C364 C365 1.380 . S
C364 H392 0.929 . S
C365 C364 1.380 . S
C365 C366 1.347 . S
C365 H393 0.931 . S
C366 C365 1.347 . S
C366 C367 1.369 1_565 S
C367 C366 1.369 1_545 S
C367 C368 1.408 1_545 S
C367 H394 0.930 . S
C368 C363 1.348 . S
C368 C367 1.408 1_565 S
C368 H395 0.930 1_565 S
C369 O382 1.281 . S
C369 O383 1.254 . S
C370 O384 1.236 . S
C370 O385 1.266 . S
C371 Tb361 2.809 . S
C371 C372 1.514 . S
C371 O386 1.248 . S
C371 O387 1.266 . S
C372 C371 1.514 . S
C372 C373 1.359 . S
C372 C377 1.348 . S
C373 C372 1.359 . S
C373 C374 1.380 . S
C373 H396 0.929 . S
C374 C373 1.380 . S
C374 C375 1.347 . S
C374 H397 0.931 . S
C375 C374 1.347 . S
C375 C376 1.369 . S
C376 C375 1.369 . S
C376 C377 1.408 . S
C376 H398 0.930 . S
C377 C372 1.348 . S
C377 C376 1.408 . S
C377 H399 0.930 . S
C378 O388 1.281 . S
C378 O389 1.254 . S
C379 O390 1.236 . S
C379 O391 1.266 . S
O380 Tb360 2.484 . S
O380 C362 1.248 . S
O381 Tb360 2.440 . S
O381 C362 1.266 . S
O382 Tb360 2.658 . S
O382 Tb361 2.325 . S
O382 C369 1.281 . S
O383 Tb360 2.409 . S
O383 C369 1.254 . S
O384 Tb360 2.378 . S
O384 C370 1.236 . S
O385 Tb361 2.341 . S
O385 C370 1.266 . S
O386 Tb361 2.484 . S
O386 C371 1.248 . S
O387 Tb361 2.440 . S
O387 C371 1.266 . S
O388 Tb360 2.325 . S
O388 Tb361 2.658 . S
O388 C378 1.281 . S
O389 Tb361 2.409 . S
O389 C378 1.254 . S
O390 Tb361 2.378 . S
O390 C379 1.236 . S
O391 Tb360 2.341 . S
O391 C379 1.266 . S
H392 C364 0.929 . S
H393 C365 0.931 . S
H394 C367 0.930 . S
H395 C368 0.930 1_545 S
H396 C373 0.929 . S
H397 C374 0.931 . S
H398 C376 0.930 . S
H399 C377 0.930 . S
Tb400 C402 2.809 . S
Tb400 O420 2.484 . S
Tb400 O421 2.440 . S
Tb400 O422 2.658 . S
Tb400 O423 2.409 . S
Tb400 O424 2.378 . S
Tb400 O428 2.325 . S
Tb400 O431 2.341 . S
Tb401 C411 2.809 . S
Tb401 O422 2.325 . S
Tb401 O425 2.341 . S
Tb401 O426 2.484 . S
Tb401 O427 2.440 . S
Tb401 O428 2.658 . S
Tb401 O429 2.409 . S
Tb401 O430 2.378 . S
C402 Tb400 2.809 . S
C402 C403 1.514 . S
C402 O420 1.248 . S
C402 O421 1.266 . S
C403 C402 1.514 . S
C403 C404 1.359 . S
C403 C408 1.348 . S
C404 C403 1.359 . S
C404 C405 1.380 . S
C404 H432 0.929 . S
C405 C404 1.380 . S
C405 C406 1.347 . S
C405 H433 0.931 . S
C406 C405 1.347 . S
C406 C407 1.369 1_455 S
C407 C406 1.369 1_655 S
C407 C408 1.408 1_655 S
C407 H434 0.930 . S
C408 C403 1.348 . S
C408 C407 1.408 1_455 S
C408 H435 0.930 1_455 S
C409 O422 1.281 . S
C409 O423 1.254 . S
C410 O424 1.236 . S
C410 O425 1.266 . S
C411 Tb401 2.809 . S
C411 C412 1.514 . S
C411 O426 1.248 . S
C411 O427 1.266 . S
C412 C411 1.514 . S
C412 C413 1.359 . S
C412 C417 1.348 . S
C413 C412 1.359 . S
C413 C414 1.380 . S
C413 H436 0.929 . S
C414 C413 1.380 . S
C414 C415 1.347 . S
C414 H437 0.931 . S
C415 C414 1.347 . S
C415 C416 1.369 . S
C416 C415 1.369 . S
C416 C417 1.408 . S
C416 H438 0.930 . S
C417 C412 1.348 . S
C417 C416 1.408 . S
C417 H439 0.930 . S
C418 O428 1.281 . S
C418 O429 1.254 . S
C419 O430 1.236 . S
C419 O431 1.266 . S
O420 Tb400 2.484 . S
O420 C402 1.248 . S
O421 Tb400 2.440 . S
O421 C402 1.266 . S
O422 Tb400 2.658 . S
O422 Tb401 2.325 . S
O422 C409 1.281 . S
O423 Tb400 2.409 . S
O423 C409 1.254 . S
O424 Tb400 2.378 . S
O424 C410 1.236 . S
O425 Tb401 2.341 . S
O425 C410 1.266 . S
O426 Tb401 2.484 . S
O426 C411 1.248 . S
O427 Tb401 2.440 . S
O427 C411 1.266 . S
O428 Tb400 2.325 . S
O428 Tb401 2.658 . S
O428 C418 1.281 . S
O429 Tb401 2.409 . S
O429 C418 1.254 . S
O430 Tb401 2.378 . S
O430 C419 1.236 . S
O431 Tb400 2.341 . S
O431 C419 1.266 . S
H432 C404 0.929 . S
H433 C405 0.931 . S
H434 C407 0.930 . S
H435 C408 0.930 1_655 S
H436 C413 0.929 . S
H437 C414 0.931 . S
H438 C416 0.930 . S
H439 C417 0.930 . S
Tb440 C442 2.809 . S
Tb440 O460 2.484 . S
Tb440 O461 2.440 . S
Tb440 O462 2.658 . S
Tb440 O463 2.409 . S
Tb440 O464 2.378 . S
Tb440 O468 2.325 . S
Tb440 O471 2.341 . S
Tb441 C451 2.809 . S
Tb441 O462 2.325 . S
Tb441 O465 2.341 . S
Tb441 O466 2.484 . S
Tb441 O467 2.440 . S
Tb441 O468 2.658 . S
Tb441 O469 2.409 . S
Tb441 O470 2.378 . S
C442 Tb440 2.809 . S
C442 C443 1.514 . S
C442 O460 1.248 . S
C442 O461 1.266 . S
C443 C442 1.514 . S
C443 C444 1.359 . S
C443 C448 1.348 . S
C444 C443 1.359 . S
C444 C445 1.380 . S
C444 H472 0.929 . S
C445 C444 1.380 . S
C445 C446 1.347 . S
C445 H473 0.931 . S
C446 C445 1.347 . S
C446 C447 1.369 . S
C447 C446 1.369 . S
C447 C448 1.408 . S
C447 H474 0.930 . S
C448 C443 1.348 . S
C448 C447 1.408 . S
C448 H475 0.930 . S
C449 O462 1.281 . S
C449 O463 1.254 . S
C450 O464 1.236 . S
C450 O465 1.266 . S
C451 Tb441 2.809 . S
C451 C452 1.514 . S
C451 O466 1.248 . S
C451 O467 1.266 . S
C452 C451 1.514 . S
C452 C453 1.359 . S
C452 C457 1.348 . S
C453 C452 1.359 . S
C453 C454 1.380 . S
C453 H476 0.929 . S
C454 C453 1.380 . S
C454 C455 1.347 . S
C454 H477 0.931 . S
C455 C454 1.347 . S
C455 C456 1.369 . S
C456 C455 1.369 . S
C456 C457 1.408 . S
C456 H478 0.930 . S
C457 C452 1.348 . S
C457 C456 1.408 . S
C457 H479 0.930 . S
C458 O468 1.281 . S
C458 O469 1.254 . S
C459 O470 1.236 . S
C459 O471 1.266 . S
O460 Tb440 2.484 . S
O460 C442 1.248 . S
O461 Tb440 2.440 . S
O461 C442 1.266 . S
O462 Tb440 2.658 . S
O462 Tb441 2.325 . S
O462 C449 1.281 . S
O463 Tb440 2.409 . S
O463 C449 1.254 . S
O464 Tb440 2.378 . S
O464 C450 1.236 . S
O465 Tb441 2.341 . S
O465 C450 1.266 . S
O466 Tb441 2.484 . S
O466 C451 1.248 . S
O467 Tb441 2.440 . S
O467 C451 1.266 . S
O468 Tb440 2.325 . S
O468 Tb441 2.658 . S
O468 C458 1.281 . S
O469 Tb441 2.409 . S
O469 C458 1.254 . S
O470 Tb441 2.378 . S
O470 C459 1.236 . S
O471 Tb440 2.341 . S
O471 C459 1.266 . S
H472 C444 0.929 . S
H473 C445 0.931 . S
H474 C447 0.930 . S
H475 C448 0.930 . S
H476 C453 0.929 . S
H477 C454 0.931 . S
H478 C456 0.930 . S
H479 C457 0.930 . S
Tb480 C482 2.809 . S
Tb480 O500 2.484 . S
Tb480 O501 2.440 . S
Tb480 O502 2.658 . S
Tb480 O503 2.409 . S
Tb480 O504 2.378 . S
Tb480 O508 2.325 . S
Tb480 O511 2.341 . S
Tb481 C491 2.809 . S
Tb481 O502 2.325 . S
Tb481 O505 2.341 . S
Tb481 O506 2.484 . S
Tb481 O507 2.440 . S
Tb481 O508 2.658 . S
Tb481 O509 2.409 . S
Tb481 O510 2.378 . S
C482 Tb480 2.809 . S
C482 C483 1.514 . S
C482 O500 1.248 . S
C482 O501 1.266 . S
C483 C482 1.514 . S
C483 C484 1.359 . S
C483 C488 1.348 . S
C484 C483 1.359 . S
C484 C485 1.380 . S
C484 H512 0.929 . S
C485 C484 1.380 . S
C485 C486 1.347 . S
C485 H513 0.931 . S
C486 C485 1.347 . S
C486 C487 1.369 . S
C487 C486 1.369 . S
C487 C488 1.408 . S
C487 H514 0.930 . S
C488 C483 1.348 . S
C488 C487 1.408 . S
C488 H515 0.930 . S
C489 O502 1.281 . S
C489 O503 1.254 . S
C490 O504 1.236 . S
C490 O505 1.266 . S
C491 Tb481 2.809 . S
C491 C492 1.514 . S
C491 O506 1.248 . S
C491 O507 1.266 . S
C492 C491 1.514 . S
C492 C493 1.359 . S
C492 C497 1.348 . S
C493 C492 1.359 . S
C493 C494 1.380 . S
C493 H516 0.929 . S
C494 C493 1.380 . S
C494 C495 1.347 . S
C494 H517 0.931 . S
C495 C494 1.347 . S
C495 C496 1.369 . S
C496 C495 1.369 . S
C496 C497 1.408 . S
C496 H518 0.930 . S
C497 C492 1.348 . S
C497 C496 1.408 . S
C497 H519 0.930 . S
C498 O508 1.281 . S
C498 O509 1.254 . S
C499 O510 1.236 . S
C499 O511 1.266 . S
O500 Tb480 2.484 . S
O500 C482 1.248 . S
O501 Tb480 2.440 . S
O501 C482 1.266 . S
O502 Tb480 2.658 . S
O502 Tb481 2.325 . S
O502 C489 1.281 . S
O503 Tb480 2.409 . S
O503 C489 1.254 . S
O504 Tb480 2.378 . S
O504 C490 1.236 . S
O505 Tb481 2.341 . S
O505 C490 1.266 . S
O506 Tb481 2.484 . S
O506 C491 1.248 . S
O507 Tb481 2.440 . S
O507 C491 1.266 . S
O508 Tb480 2.325 . S
O508 Tb481 2.658 . S
O508 C498 1.281 . S
O509 Tb481 2.409 . S
O509 C498 1.254 . S
O510 Tb481 2.378 . S
O510 C499 1.236 . S
O511 Tb480 2.341 . S
O511 C499 1.266 . S
H512 C484 0.929 . S
H513 C485 0.931 . S
H514 C487 0.930 . S
H515 C488 0.930 . S
H516 C493 0.929 . S
H517 C494 0.931 . S
H518 C496 0.930 . S
H519 C497 0.930 . S
Tb520 C522 2.809 . S
Tb520 O540 2.484 . S
Tb520 O541 2.440 . S
Tb520 O542 2.658 . S
Tb520 O543 2.409 . S
Tb520 O544 2.378 . S
Tb520 O548 2.325 . S
Tb520 O551 2.341 . S
Tb521 C531 2.809 . S
Tb521 O542 2.325 . S
Tb521 O545 2.341 . S
Tb521 O546 2.484 . S
Tb521 O547 2.440 . S
Tb521 O548 2.658 . S
Tb521 O549 2.409 . S
Tb521 O550 2.378 . S
C522 Tb520 2.809 . S
C522 C523 1.514 . S
C522 O540 1.248 . S
C522 O541 1.266 . S
C523 C522 1.514 . S
C523 C524 1.359 . S
C523 C528 1.348 . S
C524 C523 1.359 . S
C524 C525 1.380 . S
C524 H552 0.929 . S
C525 C524 1.380 . S
C525 C526 1.347 . S
C525 H553 0.931 . S
C526 C525 1.347 . S
C526 C527 1.369 . S
C527 C526 1.369 . S
C527 C528 1.408 . S
C527 H554 0.930 . S
C528 C523 1.348 . S
C528 C527 1.408 . S
C528 H555 0.930 . S
C529 O542 1.281 . S
C529 O543 1.254 . S
C530 O544 1.236 . S
C530 O545 1.266 . S
C531 Tb521 2.809 . S
C531 C532 1.514 . S
C531 O546 1.248 . S
C531 O547 1.266 . S
C532 C531 1.514 . S
C532 C533 1.359 . S
C532 C537 1.348 . S
C533 C532 1.359 . S
C533 C534 1.380 . S
C533 H556 0.929 . S
C534 C533 1.380 . S
C534 C535 1.347 . S
C534 H557 0.931 . S
C535 C534 1.347 . S
C535 C536 1.369 . S
C536 C535 1.369 . S
C536 C537 1.408 . S
C536 H558 0.930 . S
C537 C532 1.348 . S
C537 C536 1.408 . S
C537 H559 0.930 . S
C538 O548 1.281 . S
C538 O549 1.254 . S
C539 O550 1.236 . S
C539 O551 1.266 . S
O540 Tb520 2.484 . S
O540 C522 1.248 . S
O541 Tb520 2.440 . S
O541 C522 1.266 . S
O542 Tb520 2.658 . S
O542 Tb521 2.325 . S
O542 C529 1.281 . S
O543 Tb520 2.409 . S
O543 C529 1.254 . S
O544 Tb520 2.378 . S
O544 C530 1.236 . S
O545 Tb521 2.341 . S
O545 C530 1.266 . S
O546 Tb521 2.484 . S
O546 C531 1.248 . S
O547 Tb521 2.440 . S
O547 C531 1.266 . S
O548 Tb520 2.325 . S
O548 Tb521 2.658 . S
O548 C538 1.281 . S
O549 Tb521 2.409 . S
O549 C538 1.254 . S
O550 Tb521 2.378 . S
O550 C539 1.236 . S
O551 Tb520 2.341 . S
O551 C539 1.266 . S
H552 C524 0.929 . S
H553 C525 0.931 . S
H554 C527 0.930 . S
H555 C528 0.930 . S
H556 C533 0.929 . S
H557 C534 0.931 . S
H558 C536 0.930 . S
H559 C537 0.930 . S
Tb560 C562 2.809 . S
Tb560 O580 2.484 . S
Tb560 O581 2.440 . S
Tb560 O582 2.658 . S
Tb560 O583 2.409 . S
Tb560 O584 2.378 . S
Tb560 O588 2.325 . S
Tb560 O591 2.341 . S
Tb561 C571 2.809 . S
Tb561 O582 2.325 . S
Tb561 O585 2.341 . S
Tb561 O586 2.484 . S
Tb561 O587 2.440 . S
Tb561 O588 2.658 . S
Tb561 O589 2.409 . S
Tb561 O590 2.378 . S
C562 Tb560 2.809 . S
C562 C563 1.514 . S
C562 O580 1.248 . S
C562 O581 1.266 . S
C563 C562 1.514 . S
C563 C564 1.359 . S
C563 C568 1.348 . S
C564 C563 1.359 . S
C564 C565 1.380 . S
C564 H592 0.929 . S
C565 C564 1.380 . S
C565 C566 1.347 . S
C565 H593 0.931 . S
C566 C565 1.347 . S
C566 C567 1.369 . S
C567 C566 1.369 . S
C567 C568 1.408 . S
C567 H594 0.930 . S
C568 C563 1.348 . S
C568 C567 1.408 . S
C568 H595 0.930 . S
C569 O582 1.281 . S
C569 O583 1.254 . S
C570 O584 1.236 . S
C570 O585 1.266 . S
C571 Tb561 2.809 . S
C571 C572 1.514 . S
C571 O586 1.248 . S
C571 O587 1.266 . S
C572 C571 1.514 . S
C572 C573 1.359 . S
C572 C577 1.348 . S
C573 C572 1.359 . S
C573 C574 1.380 . S
C573 H596 0.929 . S
C574 C573 1.380 . S
C574 C575 1.347 . S
C574 H597 0.931 . S
C575 C574 1.347 . S
C575 C576 1.369 . S
C576 C575 1.369 . S
C576 C577 1.408 . S
C576 H598 0.930 . S
C577 C572 1.348 . S
C577 C576 1.408 . S
C577 H599 0.930 . S
C578 O588 1.281 . S
C578 O589 1.254 . S
C579 O590 1.236 . S
C579 O591 1.266 . S
O580 Tb560 2.484 . S
O580 C562 1.248 . S
O581 Tb560 2.440 . S
O581 C562 1.266 . S
O582 Tb560 2.658 . S
O582 Tb561 2.325 . S
O582 C569 1.281 . S
O583 Tb560 2.409 . S
O583 C569 1.254 . S
O584 Tb560 2.378 . S
O584 C570 1.236 . S
O585 Tb561 2.341 . S
O585 C570 1.266 . S
O586 Tb561 2.484 . S
O586 C571 1.248 . S
O587 Tb561 2.440 . S
O587 C571 1.266 . S
O588 Tb560 2.325 . S
O588 Tb561 2.658 . S
O588 C578 1.281 . S
O589 Tb561 2.409 . S
O589 C578 1.254 . S
O590 Tb561 2.378 . S
O590 C579 1.236 . S
O591 Tb560 2.341 . S
O591 C579 1.266 . S
H592 C564 0.929 . S
H593 C565 0.931 . S
H594 C567 0.930 . S
H595 C568 0.930 . S
H596 C573 0.929 . S
H597 C574 0.931 . S
H598 C576 0.930 . S
H599 C577 0.930 . S
Tb600 C602 2.809 . S
Tb600 O620 2.484 . S
Tb600 O621 2.440 . S
Tb600 O622 2.658 . S
Tb600 O623 2.409 . S
Tb600 O624 2.378 . S
Tb600 O628 2.325 . S
Tb600 O631 2.341 . S
Tb601 C611 2.809 . S
Tb601 O622 2.325 . S
Tb601 O625 2.341 . S
Tb601 O626 2.484 . S
Tb601 O627 2.440 . S
Tb601 O628 2.658 . S
Tb601 O629 2.409 . S
Tb601 O630 2.378 . S
C602 Tb600 2.809 . S
C602 C603 1.514 . S
C602 O620 1.248 . S
C602 O621 1.266 . S
C603 C602 1.514 . S
C603 C604 1.359 . S
C603 C608 1.348 . S
C604 C603 1.359 . S
C604 C605 1.380 . S
C604 H632 0.929 . S
C605 C604 1.380 . S
C605 C606 1.347 . S
C605 H633 0.931 . S
C606 C605 1.347 . S
C606 C607 1.369 . S
C607 C606 1.369 . S
C607 C608 1.408 . S
C607 H634 0.930 . S
C608 C603 1.348 . S
C608 C607 1.408 . S
C608 H635 0.930 . S
C609 O622 1.281 . S
C609 O623 1.254 . S
C610 O624 1.236 . S
C610 O625 1.266 . S
C611 Tb601 2.809 . S
C611 C612 1.514 1_556 S
C611 O626 1.248 . S
C611 O627 1.266 . S
C612 C611 1.514 1_554 S
C612 C613 1.359 . S
C612 C617 1.348 . S
C613 C612 1.359 . S
C613 C614 1.380 . S
C613 H636 0.929 . S
C614 C613 1.380 . S
C614 C615 1.347 . S
C614 H637 0.931 . S
C615 C614 1.347 . S
C615 C616 1.369 . S
C616 C615 1.369 . S
C616 C617 1.408 . S
C616 H638 0.930 . S
C617 C612 1.348 . S
C617 C616 1.408 . S
C617 H639 0.930 . S
C618 O628 1.281 . S
C618 O629 1.254 . S
C619 O630 1.236 . S
C619 O631 1.266 . S
O620 Tb600 2.484 . S
O620 C602 1.248 . S
O621 Tb600 2.440 . S
O621 C602 1.266 . S
O622 Tb600 2.658 . S
O622 Tb601 2.325 . S
O622 C609 1.281 . S
O623 Tb600 2.409 . S
O623 C609 1.254 . S
O624 Tb600 2.378 . S
O624 C610 1.236 . S
O625 Tb601 2.341 . S
O625 C610 1.266 . S
O626 Tb601 2.484 . S
O626 C611 1.248 . S
O627 Tb601 2.440 . S
O627 C611 1.266 . S
O628 Tb600 2.325 . S
O628 Tb601 2.658 . S
O628 C618 1.281 . S
O629 Tb601 2.409 . S
O629 C618 1.254 . S
O630 Tb601 2.378 . S
O630 C619 1.236 . S
O631 Tb600 2.341 . S
O631 C619 1.266 . S
H632 C604 0.929 . S
H633 C605 0.931 . S
H634 C607 0.930 . S
H635 C608 0.930 . S
H636 C613 0.929 . S
H637 C614 0.931 . S
H638 C616 0.930 . S
H639 C617 0.930 . S
Tb640 C642 2.809 . S
Tb640 O660 2.484 . S
Tb640 O661 2.440 . S
Tb640 O662 2.658 . S
Tb640 O663 2.409 . S
Tb640 O664 2.378 . S
Tb640 O668 2.325 . S
Tb640 O671 2.341 . S
Tb641 C651 2.809 . S
Tb641 O662 2.325 . S
Tb641 O665 2.341 . S
Tb641 O666 2.484 . S
Tb641 O667 2.440 . S
Tb641 O668 2.658 . S
Tb641 O669 2.409 . S
Tb641 O670 2.378 . S
C642 Tb640 2.809 . S
C642 C643 1.514 . S
C642 O660 1.248 . S
C642 O661 1.266 . S
C643 C642 1.514 . S
C643 C644 1.359 . S
C643 C648 1.348 . S
C644 C643 1.359 . S
C644 C645 1.380 . S
C644 H672 0.929 . S
C645 C644 1.380 . S
C645 C646 1.347 . S
C645 H673 0.931 . S
C646 C645 1.347 . S
C646 C647 1.369 . S
C647 C646 1.369 . S
C647 C648 1.408 . S
C647 H674 0.930 . S
C648 C643 1.348 . S
C648 C647 1.408 . S
C648 H675 0.930 . S
C649 O662 1.281 . S
C649 O663 1.254 . S
C650 O664 1.236 . S
C650 O665 1.266 . S
C651 Tb641 2.809 . S
C651 C652 1.514 1_556 S
C651 O666 1.248 . S
C651 O667 1.266 . S
C652 C651 1.514 1_554 S
C652 C653 1.359 . S
C652 C657 1.348 . S
C653 C652 1.359 . S
C653 C654 1.380 . S
C653 H676 0.929 . S
C654 C653 1.380 . S
C654 C655 1.347 . S
C654 H677 0.931 . S
C655 C654 1.347 . S
C655 C656 1.369 . S
C656 C655 1.369 . S
C656 C657 1.408 . S
C656 H678 0.930 . S
C657 C652 1.348 . S
C657 C656 1.408 . S
C657 H679 0.930 . S
C658 O668 1.281 . S
C658 O669 1.254 . S
C659 O670 1.236 . S
C659 O671 1.266 . S
O660 Tb640 2.484 . S
O660 C642 1.248 . S
O661 Tb640 2.440 . S
O661 C642 1.266 . S
O662 Tb640 2.658 . S
O662 Tb641 2.325 . S
O662 C649 1.281 . S
O663 Tb640 2.409 . S
O663 C649 1.254 . S
O664 Tb640 2.378 . S
O664 C650 1.236 . S
O665 Tb641 2.341 . S
O665 C650 1.266 . S
O666 Tb641 2.484 . S
O666 C651 1.248 . S
O667 Tb641 2.440 . S
O667 C651 1.266 . S
O668 Tb640 2.325 . S
O668 Tb641 2.658 . S
O668 C658 1.281 . S
O669 Tb641 2.409 . S
O669 C658 1.254 . S
O670 Tb641 2.378 . S
O670 C659 1.236 . S
O671 Tb640 2.341 . S
O671 C659 1.266 . S
H672 C644 0.929 . S
H673 C645 0.931 . S
H674 C647 0.930 . S
H675 C648 0.930 . S
H676 C653 0.929 . S
H677 C654 0.931 . S
H678 C656 0.930 . S
H679 C657 0.930 . S
Tb680 C682 2.809 . S
Tb680 O700 2.484 . S
Tb680 O701 2.440 . S
Tb680 O702 2.658 . S
Tb680 O703 2.409 . S
Tb680 O704 2.378 . S
Tb680 O708 2.325 . S
Tb680 O711 2.341 . S
Tb681 C691 2.809 . S
Tb681 O702 2.325 . S
Tb681 O705 2.341 . S
Tb681 O706 2.484 . S
Tb681 O707 2.440 . S
Tb681 O708 2.658 . S
Tb681 O709 2.409 . S
Tb681 O710 2.378 . S
C682 Tb680 2.809 . S
C682 C683 1.514 . S
C682 O700 1.248 . S
C682 O701 1.266 . S
C683 C682 1.514 . S
C683 C684 1.359 . S
C683 C688 1.348 . S
C684 C683 1.359 . S
C684 C685 1.380 . S
C684 H712 0.929 . S
C685 C684 1.380 . S
C685 C686 1.347 . S
C685 H713 0.931 . S
C686 C685 1.347 . S
C686 C687 1.369 . S
C687 C686 1.369 . S
C687 C688 1.408 . S
C687 H714 0.930 . S
C688 C683 1.348 . S
C688 C687 1.408 . S
C688 H715 0.930 . S
C689 O702 1.281 . S
C689 O703 1.254 . S
C690 O704 1.236 . S
C690 O705 1.266 . S
C691 Tb681 2.809 . S
C691 C692 1.514 1_556 S
C691 O706 1.248 . S
C691 O707 1.266 . S
C692 C691 1.514 1_554 S
C692 C693 1.359 . S
C692 C697 1.348 . S
C693 C692 1.359 . S
C693 C694 1.380 . S
C693 H716 0.929 . S
C694 C693 1.380 . S
C694 C695 1.347 . S
C694 H717 0.931 . S
C695 C694 1.347 . S
C695 C696 1.369 . S
C696 C695 1.369 . S
C696 C697 1.408 . S
C696 H718 0.930 . S
C697 C692 1.348 . S
C697 C696 1.408 . S
C697 H719 0.930 . S
C698 O708 1.281 . S
C698 O709 1.254 . S
C699 O710 1.236 . S
C699 O711 1.266 . S
O700 Tb680 2.484 . S
O700 C682 1.248 . S
O701 Tb680 2.440 . S
O701 C682 1.266 . S
O702 Tb680 2.658 . S
O702 Tb681 2.325 . S
O702 C689 1.281 . S
O703 Tb680 2.409 . S
O703 C689 1.254 . S
O704 Tb680 2.378 . S
O704 C690 1.236 . S
O705 Tb681 2.341 . S
O705 C690 1.266 . S
O706 Tb681 2.484 . S
O706 C691 1.248 . S
O707 Tb681 2.440 . S
O707 C691 1.266 . S
O708 Tb680 2.325 . S
O708 Tb681 2.658 . S
O708 C698 1.281 . S
O709 Tb681 2.409 . S
O709 C698 1.254 . S
O710 Tb681 2.378 . S
O710 C699 1.236 . S
O711 Tb680 2.341 . S
O711 C699 1.266 . S
H712 C684 0.929 . S
H713 C685 0.931 . S
H714 C687 0.930 . S
H715 C688 0.930 . S
H716 C693 0.929 . S
H717 C694 0.931 . S
H718 C696 0.930 . S
H719 C697 0.930 . S
Tb720 C722 2.809 . S
Tb720 O740 2.484 . S
Tb720 O741 2.440 . S
Tb720 O742 2.658 . S
Tb720 O743 2.409 . S
Tb720 O744 2.378 . S
Tb720 O748 2.325 . S
Tb720 O751 2.341 . S
Tb721 C731 2.809 . S
Tb721 O742 2.325 . S
Tb721 O745 2.341 . S
Tb721 O746 2.484 . S
Tb721 O747 2.440 . S
Tb721 O748 2.658 . S
Tb721 O749 2.409 . S
Tb721 O750 2.378 . S
C722 Tb720 2.809 . S
C722 C723 1.514 . S
C722 O740 1.248 . S
C722 O741 1.266 . S
C723 C722 1.514 . S
C723 C724 1.359 . S
C723 C728 1.348 . S
C724 C723 1.359 . S
C724 C725 1.380 . S
C724 H752 0.929 . S
C725 C724 1.380 . S
C725 C726 1.347 . S
C725 H753 0.931 . S
C726 C725 1.347 . S
C726 C727 1.369 . S
C727 C726 1.369 . S
C727 C728 1.408 . S
C727 H754 0.930 . S
C728 C723 1.348 . S
C728 C727 1.408 . S
C728 H755 0.930 . S
C729 O742 1.281 . S
C729 O743 1.254 . S
C730 O744 1.236 . S
C730 O745 1.266 . S
C731 Tb721 2.809 . S
C731 C732 1.514 . S
C731 O746 1.248 . S
C731 O747 1.266 . S
C732 C731 1.514 . S
C732 C733 1.359 . S
C732 C737 1.348 . S
C733 C732 1.359 . S
C733 C734 1.380 . S
C733 H756 0.929 . S
C734 C733 1.380 . S
C734 C735 1.347 . S
C734 H757 0.931 . S
C735 C734 1.347 . S
C735 C736 1.369 . S
C736 C735 1.369 . S
C736 C737 1.408 . S
C736 H758 0.930 . S
C737 C732 1.348 . S
C737 C736 1.408 . S
C737 H759 0.930 . S
C738 O748 1.281 . S
C738 O749 1.254 . S
C739 O750 1.236 . S
C739 O751 1.266 . S
O740 Tb720 2.484 . S
O740 C722 1.248 . S
O741 Tb720 2.440 . S
O741 C722 1.266 . S
O742 Tb720 2.658 . S
O742 Tb721 2.325 . S
O742 C729 1.281 . S
O743 Tb720 2.409 . S
O743 C729 1.254 . S
O744 Tb720 2.378 . S
O744 C730 1.236 . S
O745 Tb721 2.341 . S
O745 C730 1.266 . S
O746 Tb721 2.484 . S
O746 C731 1.248 . S
O747 Tb721 2.440 . S
O747 C731 1.266 . S
O748 Tb720 2.325 . S
O748 Tb721 2.658 . S
O748 C738 1.281 . S
O749 Tb721 2.409 . S
O749 C738 1.254 . S
O750 Tb721 2.378 . S
O750 C739 1.236 . S
O751 Tb720 2.341 . S
O751 C739 1.266 . S
H752 C724 0.929 . S
H753 C725 0.931 . S
H754 C727 0.930 . S
H755 C728 0.930 . S
H756 C733 0.929 . S
H757 C734 0.931 . S
H758 C736 0.930 . S
H759 C737 0.930 . S
Tb760 C762 2.809 . S
Tb760 O780 2.484 . S
Tb760 O781 2.440 . S
Tb760 O782 2.658 . S
Tb760 O783 2.409 . S
Tb760 O784 2.378 . S
Tb760 O788 2.325 . S
Tb760 O791 2.341 . S
Tb761 C771 2.809 . S
Tb761 O782 2.325 . S
Tb761 O785 2.341 . S
Tb761 O786 2.484 . S
Tb761 O787 2.440 . S
Tb761 O788 2.658 . S
Tb761 O789 2.409 . S
Tb761 O790 2.378 . S
C762 Tb760 2.809 . S
C762 C763 1.514 . S
C762 O780 1.248 . S
C762 O781 1.266 . S
C763 C762 1.514 . S
C763 C764 1.359 . S
C763 C768 1.348 . S
C764 C763 1.359 . S
C764 C765 1.380 . S
C764 H792 0.929 . S
C765 C764 1.380 . S
C765 C766 1.347 . S
C765 H793 0.931 . S
C766 C765 1.347 . S
C766 C767 1.369 . S
C767 C766 1.369 . S
C767 C768 1.408 . S
C767 H794 0.930 . S
C768 C763 1.348 . S
C768 C767 1.408 . S
C768 H795 0.930 . S
C769 O782 1.281 . S
C769 O783 1.254 . S
C770 O784 1.236 . S
C770 O785 1.266 . S
C771 Tb761 2.809 . S
C771 C772 1.514 . S
C771 O786 1.248 . S
C771 O787 1.266 . S
C772 C771 1.514 . S
C772 C773 1.359 . S
C772 C777 1.348 . S
C773 C772 1.359 . S
C773 C774 1.380 . S
C773 H796 0.929 . S
C774 C773 1.380 . S
C774 C775 1.347 . S
C774 H797 0.931 . S
C775 C774 1.347 . S
C775 C776 1.369 . S
C776 C775 1.369 . S
C776 C777 1.408 . S
C776 H798 0.930 . S
C777 C772 1.348 . S
C777 C776 1.408 . S
C777 H799 0.930 . S
C778 O788 1.281 . S
C778 O789 1.254 . S
C779 O790 1.236 . S
C779 O791 1.266 . S
O780 Tb760 2.484 . S
O780 C762 1.248 . S
O781 Tb760 2.440 . S
O781 C762 1.266 . S
O782 Tb760 2.658 . S
O782 Tb761 2.325 . S
O782 C769 1.281 . S
O783 Tb760 2.409 . S
O783 C769 1.254 . S
O784 Tb760 2.378 . S
O784 C770 1.236 . S
O785 Tb761 2.341 . S
O785 C770 1.266 . S
O786 Tb761 2.484 . S
O786 C771 1.248 . S
O787 Tb761 2.440 . S
O787 C771 1.266 . S
O788 Tb760 2.325 . S
O788 Tb761 2.658 . S
O788 C778 1.281 . S
O789 Tb761 2.409 . S
O789 C778 1.254 . S
O790 Tb761 2.378 . S
O790 C779 1.236 . S
O791 Tb760 2.341 . S
O791 C779 1.266 . S
H792 C764 0.929 . S
H793 C765 0.931 . S
H794 C767 0.930 . S
H795 C768 0.930 . S
H796 C773 0.929 . S
H797 C774 0.931 . S
H798 C776 0.930 . S
H799 C777 0.930 . S
Tb800 C802 2.809 . S
Tb800 O820 2.484 . S
Tb800 O821 2.440 . S
Tb800 O822 2.658 . S
Tb800 O823 2.409 . S
Tb800 O824 2.378 . S
Tb800 O828 2.325 . S
Tb800 O831 2.341 . S
Tb801 C811 2.809 . S
Tb801 O822 2.325 . S
Tb801 O825 2.341 . S
Tb801 O826 2.484 . S
Tb801 O827 2.440 . S
Tb801 O828 2.658 . S
Tb801 O829 2.409 . S
Tb801 O830 2.378 . S
C802 Tb800 2.809 . S
C802 C803 1.514 . S
C802 O820 1.248 . S
C802 O821 1.266 . S
C803 C802 1.514 . S
C803 C804 1.359 . S
C803 C808 1.348 . S
C804 C803 1.359 . S
C804 C805 1.380 . S
C804 H832 0.929 . S
C805 C804 1.380 . S
C805 C806 1.347 . S
C805 H833 0.931 . S
C806 C805 1.347 . S
C806 C807 1.369 . S
C807 C806 1.369 . S
C807 C808 1.408 . S
C807 H834 0.930 . S
C808 C803 1.348 . S
C808 C807 1.408 . S
C808 H835 0.930 . S
C809 O822 1.281 . S
C809 O823 1.254 . S
C810 O824 1.236 . S
C810 O825 1.266 . S
C811 Tb801 2.809 . S
C811 C812 1.514 . S
C811 O826 1.248 . S
C811 O827 1.266 . S
C812 C811 1.514 . S
C812 C813 1.359 . S
C812 C817 1.348 . S
C813 C812 1.359 . S
C813 C814 1.380 . S
C813 H836 0.929 . S
C814 C813 1.380 . S
C814 C815 1.347 . S
C814 H837 0.931 . S
C815 C814 1.347 . S
C815 C816 1.369 . S
C816 C815 1.369 . S
C816 C817 1.408 . S
C816 H838 0.930 . S
C817 C812 1.348 . S
C817 C816 1.408 . S
C817 H839 0.930 . S
C818 O828 1.281 . S
C818 O829 1.254 . S
C819 O830 1.236 . S
C819 O831 1.266 . S
O820 Tb800 2.484 . S
O820 C802 1.248 . S
O821 Tb800 2.440 . S
O821 C802 1.266 . S
O822 Tb800 2.658 . S
O822 Tb801 2.325 . S
O822 C809 1.281 . S
O823 Tb800 2.409 . S
O823 C809 1.254 . S
O824 Tb800 2.378 . S
O824 C810 1.236 . S
O825 Tb801 2.341 . S
O825 C810 1.266 . S
O826 Tb801 2.484 . S
O826 C811 1.248 . S
O827 Tb801 2.440 . S
O827 C811 1.266 . S
O828 Tb800 2.325 . S
O828 Tb801 2.658 . S
O828 C818 1.281 . S
O829 Tb801 2.409 . S
O829 C818 1.254 . S
O830 Tb801 2.378 . S
O830 C819 1.236 . S
O831 Tb800 2.341 . S
O831 C819 1.266 . S
H832 C804 0.929 . S
H833 C805 0.931 . S
H834 C807 0.930 . S
H835 C808 0.930 . S
H836 C813 0.929 . S
H837 C814 0.931 . S
H838 C816 0.930 . S
H839 C817 0.930 . S
Tb840 C842 2.809 . S
Tb840 O860 2.484 . S
Tb840 O861 2.440 . S
Tb840 O862 2.658 . S
Tb840 O863 2.409 . S
Tb840 O864 2.378 . S
Tb840 O868 2.325 . S
Tb840 O871 2.341 . S
Tb841 C851 2.809 1_556 S
Tb841 O862 2.325 . S
Tb841 O865 2.341 . S
Tb841 O866 2.484 1_556 S
Tb841 O867 2.440 1_556 S
Tb841 O868 2.658 . S
Tb841 O869 2.409 . S
Tb841 O870 2.378 1_556 S
C842 Tb840 2.809 . S
C842 C843 1.514 . S
C842 O860 1.248 . S
C842 O861 1.266 . S
C843 C842 1.514 . S
C843 C844 1.359 . S
C843 C848 1.348 . S
C844 C843 1.359 . S
C844 C845 1.380 . S
C844 H872 0.929 . S
C845 C844 1.380 . S
C845 C846 1.347 . S
C845 H873 0.931 . S
C846 C845 1.347 . S
C846 C847 1.369 . S
C847 C846 1.369 . S
C847 C848 1.408 . S
C847 H874 0.930 . S
C848 C843 1.348 . S
C848 C847 1.408 . S
C848 H875 0.930 . S
C849 O862 1.281 . S
C849 O863 1.254 . S
C850 O864 1.236 . S
C850 O865 1.266 . S
C851 Tb841 2.809 1_554 S
C851 C852 1.514 . S
C851 O866 1.248 . S
C851 O867 1.266 . S
C852 C851 1.514 . S
C852 C853 1.359 . S
C852 C857 1.348 . S
C853 C852 1.359 . S
C853 C854 1.380 . S
C853 H876 0.929 . S
C854 C853 1.380 . S
C854 C855 1.347 . S
C854 H877 0.931 . S
C855 C854 1.347 . S
C855 C856 1.369 . S
C856 C855 1.369 . S
C856 C857 1.408 . S
C856 H878 0.930 . S
C857 C852 1.348 . S
C857 C856 1.408 . S
C857 H879 0.930 . S
C858 O868 1.281 . S
C858 O869 1.254 . S
C859 O870 1.236 . S
C859 O871 1.266 1_554 S
O860 Tb840 2.484 . S
O860 C842 1.248 . S
O861 Tb840 2.440 . S
O861 C842 1.266 . S
O862 Tb840 2.658 . S
O862 Tb841 2.325 . S
O862 C849 1.281 . S
O863 Tb840 2.409 . S
O863 C849 1.254 . S
O864 Tb840 2.378 . S
O864 C850 1.236 . S
O865 Tb841 2.341 . S
O865 C850 1.266 . S
O866 Tb841 2.484 1_554 S
O866 C851 1.248 . S
O867 Tb841 2.440 1_554 S
O867 C851 1.266 . S
O868 Tb840 2.325 . S
O868 Tb841 2.658 . S
O868 C858 1.281 . S
O869 Tb841 2.409 . S
O869 C858 1.254 . S
O870 Tb841 2.378 1_554 S
O870 C859 1.236 . S
O871 Tb840 2.341 . S
O871 C859 1.266 1_556 S
H872 C844 0.929 . S
H873 C845 0.931 . S
H874 C847 0.930 . S
H875 C848 0.930 . S
H876 C853 0.929 . S
H877 C854 0.931 . S
H878 C856 0.930 . S
H879 C857 0.930 . S
Tb880 C882 2.809 . S
Tb880 O900 2.484 . S
Tb880 O901 2.440 . S
Tb880 O902 2.658 . S
Tb880 O903 2.409 . S
Tb880 O904 2.378 . S
Tb880 O908 2.325 . S
Tb880 O911 2.341 . S
Tb881 C891 2.809 1_556 S
Tb881 O902 2.325 . S
Tb881 O905 2.341 . S
Tb881 O906 2.484 1_556 S
Tb881 O907 2.440 1_556 S
Tb881 O908 2.658 . S
Tb881 O909 2.409 . S
Tb881 O910 2.378 1_556 S
C882 Tb880 2.809 . S
C882 C883 1.514 . S
C882 O900 1.248 . S
C882 O901 1.266 . S
C883 C882 1.514 . S
C883 C884 1.359 . S
C883 C888 1.348 . S
C884 C883 1.359 . S
C884 C885 1.380 . S
C884 H912 0.929 . S
C885 C884 1.380 . S
C885 C886 1.347 . S
C885 H913 0.931 . S
C886 C885 1.347 . S
C886 C887 1.369 . S
C887 C886 1.369 . S
C887 C888 1.408 . S
C887 H914 0.930 . S
C888 C883 1.348 . S
C888 C887 1.408 . S
C888 H915 0.930 . S
C889 O902 1.281 . S
C889 O903 1.254 . S
C890 O904 1.236 . S
C890 O905 1.266 . S
C891 Tb881 2.809 1_554 S
C891 C892 1.514 . S
C891 O906 1.248 . S
C891 O907 1.266 . S
C892 C891 1.514 . S
C892 C893 1.359 . S
C892 C897 1.348 . S
C893 C892 1.359 . S
C893 C894 1.380 . S
C893 H916 0.929 . S
C894 C893 1.380 . S
C894 C895 1.347 . S
C894 H917 0.931 . S
C895 C894 1.347 . S
C895 C896 1.369 . S
C896 C895 1.369 . S
C896 C897 1.408 . S
C896 H918 0.930 . S
C897 C892 1.348 . S
C897 C896 1.408 . S
C897 H919 0.930 . S
C898 O908 1.281 . S
C898 O909 1.254 . S
C899 O910 1.236 . S
C899 O911 1.266 1_554 S
O900 Tb880 2.484 . S
O900 C882 1.248 . S
O901 Tb880 2.440 . S
O901 C882 1.266 . S
O902 Tb880 2.658 . S
O902 Tb881 2.325 . S
O902 C889 1.281 . S
O903 Tb880 2.409 . S
O903 C889 1.254 . S
O904 Tb880 2.378 . S
O904 C890 1.236 . S
O905 Tb881 2.341 . S
O905 C890 1.266 . S
O906 Tb881 2.484 1_554 S
O906 C891 1.248 . S
O907 Tb881 2.440 1_554 S
O907 C891 1.266 . S
O908 Tb880 2.325 . S
O908 Tb881 2.658 . S
O908 C898 1.281 . S
O909 Tb881 2.409 . S
O909 C898 1.254 . S
O910 Tb881 2.378 1_554 S
O910 C899 1.236 . S
O911 Tb880 2.341 . S
O911 C899 1.266 1_556 S
H912 C884 0.929 . S
H913 C885 0.931 . S
H914 C887 0.930 . S
H915 C888 0.930 . S
H916 C893 0.929 . S
H917 C894 0.931 . S
H918 C896 0.930 . S
H919 C897 0.930 . S
Tb920 C922 2.809 . S
Tb920 O940 2.484 . S
Tb920 O941 2.440 . S
Tb920 O942 2.658 . S
Tb920 O943 2.409 . S
Tb920 O944 2.378 . S
Tb920 O948 2.325 . S
Tb920 O951 2.341 . S
Tb921 C931 2.809 1_556 S
Tb921 O942 2.325 . S
Tb921 O945 2.341 . S
Tb921 O946 2.484 1_556 S
Tb921 O947 2.440 1_556 S
Tb921 O948 2.658 . S
Tb921 O949 2.409 . S
Tb921 O950 2.378 1_556 S
C922 Tb920 2.809 . S
C922 C923 1.514 . S
C922 O940 1.248 . S
C922 O941 1.266 . S
C923 C922 1.514 . S
C923 C924 1.359 . S
C923 C928 1.348 . S
C924 C923 1.359 . S
C924 C925 1.380 . S
C924 H952 0.929 . S
C925 C924 1.380 . S
C925 C926 1.347 . S
C925 H953 0.931 . S
C926 C925 1.347 . S
C926 C927 1.369 . S
C927 C926 1.369 . S
C927 C928 1.408 . S
C927 H954 0.930 . S
C928 C923 1.348 . S
C928 C927 1.408 . S
C928 H955 0.930 . S
C929 O942 1.281 . S
C929 O943 1.254 . S
C930 O944 1.236 . S
C930 O945 1.266 . S
C931 Tb921 2.809 1_554 S
C931 C932 1.514 . S
C931 O946 1.248 . S
C931 O947 1.266 . S
C932 C931 1.514 . S
C932 C933 1.359 . S
C932 C937 1.348 . S
C933 C932 1.359 . S
C933 C934 1.380 . S
C933 H956 0.929 . S
C934 C933 1.380 . S
C934 C935 1.347 . S
C934 H957 0.931 . S
C935 C934 1.347 . S
C935 C936 1.369 . S
C936 C935 1.369 . S
C936 C937 1.408 . S
C936 H958 0.930 . S
C937 C932 1.348 . S
C937 C936 1.408 . S
C937 H959 0.930 . S
C938 O948 1.281 . S
C938 O949 1.254 . S
C939 O950 1.236 . S
C939 O951 1.266 1_554 S
O940 Tb920 2.484 . S
O940 C922 1.248 . S
O941 Tb920 2.440 . S
O941 C922 1.266 . S
O942 Tb920 2.658 . S
O942 Tb921 2.325 . S
O942 C929 1.281 . S
O943 Tb920 2.409 . S
O943 C929 1.254 . S
O944 Tb920 2.378 . S
O944 C930 1.236 . S
O945 Tb921 2.341 . S
O945 C930 1.266 . S
O946 Tb921 2.484 1_554 S
O946 C931 1.248 . S
O947 Tb921 2.440 1_554 S
O947 C931 1.266 . S
O948 Tb920 2.325 . S
O948 Tb921 2.658 . S
O948 C938 1.281 . S
O949 Tb921 2.409 . S
O949 C938 1.254 . S
O950 Tb921 2.378 1_554 S
O950 C939 1.236 . S
O951 Tb920 2.341 . S
O951 C939 1.266 1_556 S
H952 C924 0.929 . S
H953 C925 0.931 . S
H954 C927 0.930 . S
H955 C928 0.930 . S
H956 C933 0.929 . S
H957 C934 0.931 . S
H958 C936 0.930 . S
H959 C937 0.930 . S
Tb960 C962 2.809 . S
Tb960 O980 2.484 . S
Tb960 O981 2.440 . S
Tb960 O982 2.658 . S
Tb960 O983 2.409 . S
Tb960 O984 2.378 . S
Tb960 O988 2.325 . S
Tb960 O991 2.341 . S
Tb961 C971 2.809 . S
Tb961 O982 2.325 . S
Tb961 O985 2.341 . S
Tb961 O986 2.484 . S
Tb961 O987 2.440 . S
Tb961 O988 2.658 . S
Tb961 O989 2.409 . S
Tb961 O990 2.378 . S
C962 Tb960 2.809 . S
C962 C963 1.514 . S
C962 O980 1.248 . S
C962 O981 1.266 . S
C963 C962 1.514 . S
C963 C964 1.359 . S
C963 C968 1.348 . S
C964 C963 1.359 . S
C964 C965 1.380 1_556 S
C964 H992 0.929 . S
C965 C964 1.380 1_554 S
C965 C966 1.347 . S
C965 H993 0.931 . S
C966 C965 1.347 . S
C966 C967 1.369 . S
C967 C966 1.369 . S
C967 C968 1.408 1_554 S
C967 H994 0.930 . S
C968 C963 1.348 . S
C968 C967 1.408 1_556 S
C968 H995 0.930 . S
C969 O982 1.281 . S
C969 O983 1.254 . S
C970 O984 1.236 . S
C970 O985 1.266 . S
C971 Tb961 2.809 . S
C971 C972 1.514 . S
C971 O986 1.248 . S
C971 O987 1.266 . S
C972 C971 1.514 . S
C972 C973 1.359 . S
C972 C977 1.348 . S
C973 C972 1.359 . S
C973 C974 1.380 . S
C973 H996 0.929 . S
C974 C973 1.380 . S
C974 C975 1.347 . S
C974 H997 0.931 . S
C975 C974 1.347 . S
C975 C976 1.369 . S
C976 C975 1.369 . S
C976 C977 1.408 . S
C976 H998 0.930 . S
C977 C972 1.348 . S
C977 C976 1.408 . S
C977 H999 0.930 . S
C978 O988 1.281 . S
C978 O989 1.254 . S
C979 O990 1.236 . S
C979 O991 1.266 . S
O980 Tb960 2.484 . S
O980 C962 1.248 . S
O981 Tb960 2.440 . S
O981 C962 1.266 . S
O982 Tb960 2.658 . S
O982 Tb961 2.325 . S
O982 C969 1.281 . S
O983 Tb960 2.409 . S
O983 C969 1.254 . S
O984 Tb960 2.378 . S
O984 C970 1.236 . S
O985 Tb961 2.341 . S
O985 C970 1.266 . S
O986 Tb961 2.484 . S
O986 C971 1.248 . S
O987 Tb961 2.440 . S
O987 C971 1.266 . S
O988 Tb960 2.325 . S
O988 Tb961 2.658 . S
O988 C978 1.281 . S
O989 Tb961 2.409 . S
O989 C978 1.254 . S
O990 Tb961 2.378 . S
O990 C979 1.236 . S
O991 Tb960 2.341 . S
O991 C979 1.266 . S
H992 C964 0.929 . S
H993 C965 0.931 . S
H994 C967 0.930 . S
H995 C968 0.930 . S
H996 C973 0.929 . S
H997 C974 0.931 . S
H998 C976 0.930 . S
H999 C977 0.930 . S
Tb1000 C1002 2.809 . S
Tb1000 O1020 2.484 . S
Tb1000 O1021 2.440 . S
Tb1000 O1022 2.658 . S
Tb1000 O1023 2.409 . S
Tb1000 O1024 2.378 . S
Tb1000 O1028 2.325 . S
Tb1000 O1031 2.341 . S
Tb1001 C1011 2.809 . S
Tb1001 O1022 2.325 . S
Tb1001 O1025 2.341 . S
Tb1001 O1026 2.484 . S
Tb1001 O1027 2.440 . S
Tb1001 O1028 2.658 . S
Tb1001 O1029 2.409 . S
Tb1001 O1030 2.378 . S
C1002 Tb1000 2.809 . S
C1002 C1003 1.514 . S
C1002 O1020 1.248 . S
C1002 O1021 1.266 . S
C1003 C1002 1.514 . S
C1003 C1004 1.359 . S
C1003 C1008 1.348 . S
C1004 C1003 1.359 . S
C1004 C1005 1.380 1_556 S
C1004 H1032 0.929 . S
C1005 C1004 1.380 1_554 S
C1005 C1006 1.347 . S
C1005 H1033 0.931 . S
C1006 C1005 1.347 . S
C1006 C1007 1.369 . S
C1007 C1006 1.369 . S
C1007 C1008 1.408 1_554 S
C1007 H1034 0.930 . S
C1008 C1003 1.348 . S
C1008 C1007 1.408 1_556 S
C1008 H1035 0.930 . S
C1009 O1022 1.281 . S
C1009 O1023 1.254 . S
C1010 O1024 1.236 . S
C1010 O1025 1.266 . S
C1011 Tb1001 2.809 . S
C1011 C1012 1.514 . S
C1011 O1026 1.248 . S
C1011 O1027 1.266 . S
C1012 C1011 1.514 . S
C1012 C1013 1.359 . S
C1012 C1017 1.348 . S
C1013 C1012 1.359 . S
C1013 C1014 1.380 . S
C1013 H1036 0.929 . S
C1014 C1013 1.380 . S
C1014 C1015 1.347 . S
C1014 H1037 0.931 . S
C1015 C1014 1.347 . S
C1015 C1016 1.369 . S
C1016 C1015 1.369 . S
C1016 C1017 1.408 . S
C1016 H1038 0.930 . S
C1017 C1012 1.348 . S
C1017 C1016 1.408 . S
C1017 H1039 0.930 . S
C1018 O1028 1.281 . S
C1018 O1029 1.254 . S
C1019 O1030 1.236 . S
C1019 O1031 1.266 . S
O1020 Tb1000 2.484 . S
O1020 C1002 1.248 . S
O1021 Tb1000 2.440 . S
O1021 C1002 1.266 . S
O1022 Tb1000 2.658 . S
O1022 Tb1001 2.325 . S
O1022 C1009 1.281 . S
O1023 Tb1000 2.409 . S
O1023 C1009 1.254 . S
O1024 Tb1000 2.378 . S
O1024 C1010 1.236 . S
O1025 Tb1001 2.341 . S
O1025 C1010 1.266 . S
O1026 Tb1001 2.484 . S
O1026 C1011 1.248 . S
O1027 Tb1001 2.440 . S
O1027 C1011 1.266 . S
O1028 Tb1000 2.325 . S
O1028 Tb1001 2.658 . S
O1028 C1018 1.281 . S
O1029 Tb1001 2.409 . S
O1029 C1018 1.254 . S
O1030 Tb1001 2.378 . S
O1030 C1019 1.236 . S
O1031 Tb1000 2.341 . S
O1031 C1019 1.266 . S
H1032 C1004 0.929 . S
H1033 C1005 0.931 . S
H1034 C1007 0.930 . S
H1035 C1008 0.930 . S
H1036 C1013 0.929 . S
H1037 C1014 0.931 . S
H1038 C1016 0.930 . S
H1039 C1017 0.930 . S
Tb1040 C1042 2.809 . S
Tb1040 O1060 2.484 . S
Tb1040 O1061 2.440 . S
Tb1040 O1062 2.658 . S
Tb1040 O1063 2.409 . S
Tb1040 O1064 2.378 . S
Tb1040 O1068 2.325 . S
Tb1040 O1071 2.341 . S
Tb1041 C1051 2.809 . S
Tb1041 O1062 2.325 . S
Tb1041 O1065 2.341 . S
Tb1041 O1066 2.484 . S
Tb1041 O1067 2.440 . S
Tb1041 O1068 2.658 . S
Tb1041 O1069 2.409 . S
Tb1041 O1070 2.378 . S
C1042 Tb1040 2.809 . S
C1042 C1043 1.514 . S
C1042 O1060 1.248 . S
C1042 O1061 1.266 . S
C1043 C1042 1.514 . S
C1043 C1044 1.359 . S
C1043 C1048 1.348 . S
C1044 C1043 1.359 . S
C1044 C1045 1.380 1_556 S
C1044 H1072 0.929 . S
C1045 C1044 1.380 1_554 S
C1045 C1046 1.347 . S
C1045 H1073 0.931 . S
C1046 C1045 1.347 . S
C1046 C1047 1.369 . S
C1047 C1046 1.369 . S
C1047 C1048 1.408 1_554 S
C1047 H1074 0.930 . S
C1048 C1043 1.348 . S
C1048 C1047 1.408 1_556 S
C1048 H1075 0.930 . S
C1049 O1062 1.281 . S
C1049 O1063 1.254 . S
C1050 O1064 1.236 . S
C1050 O1065 1.266 . S
C1051 Tb1041 2.809 . S
C1051 C1052 1.514 . S
C1051 O1066 1.248 . S
C1051 O1067 1.266 . S
C1052 C1051 1.514 . S
C1052 C1053 1.359 . S
C1052 C1057 1.348 . S
C1053 C1052 1.359 . S
C1053 C1054 1.380 . S
C1053 H1076 0.929 . S
C1054 C1053 1.380 . S
C1054 C1055 1.347 . S
C1054 H1077 0.931 . S
C1055 C1054 1.347 . S
C1055 C1056 1.369 . S
C1056 C1055 1.369 . S
C1056 C1057 1.408 . S
C1056 H1078 0.930 . S
C1057 C1052 1.348 . S
C1057 C1056 1.408 . S
C1057 H1079 0.930 . S
C1058 O1068 1.281 . S
C1058 O1069 1.254 . S
C1059 O1070 1.236 . S
C1059 O1071 1.266 . S
O1060 Tb1040 2.484 . S
O1060 C1042 1.248 . S
O1061 Tb1040 2.440 . S
O1061 C1042 1.266 . S
O1062 Tb1040 2.658 . S
O1062 Tb1041 2.325 . S
O1062 C1049 1.281 . S
O1063 Tb1040 2.409 . S
O1063 C1049 1.254 . S
O1064 Tb1040 2.378 . S
O1064 C1050 1.236 . S
O1065 Tb1041 2.341 . S
O1065 C1050 1.266 . S
O1066 Tb1041 2.484 . S
O1066 C1051 1.248 . S
O1067 Tb1041 2.440 . S
O1067 C1051 1.266 . S
O1068 Tb1040 2.325 . S
O1068 Tb1041 2.658 . S
O1068 C1058 1.281 . S
O1069 Tb1041 2.409 . S
O1069 C1058 1.254 . S
O1070 Tb1041 2.378 . S
O1070 C1059 1.236 . S
O1071 Tb1040 2.341 . S
O1071 C1059 1.266 . S
H1072 C1044 0.929 . S
H1073 C1045 0.931 . S
H1074 C1047 0.930 . S
H1075 C1048 0.930 . S
H1076 C1053 0.929 . S
H1077 C1054 0.931 . S
H1078 C1056 0.930 . S
H1079 C1057 0.930 . S
Tb1080 C1082 2.809 . S
Tb1080 O1100 2.484 . S
Tb1080 O1101 2.440 . S
Tb1080 O1102 2.658 . S
Tb1080 O1103 2.409 . S
Tb1080 O1104 2.378 . S
Tb1080 O1108 2.325 . S
Tb1080 O1111 2.341 . S
Tb1081 C1091 2.809 . S
Tb1081 O1102 2.325 . S
Tb1081 O1105 2.341 . S
Tb1081 O1106 2.484 . S
Tb1081 O1107 2.440 . S
Tb1081 O1108 2.658 . S
Tb1081 O1109 2.409 . S
Tb1081 O1110 2.378 . S
C1082 Tb1080 2.809 . S
C1082 C1083 1.514 . S
C1082 O1100 1.248 . S
C1082 O1101 1.266 . S
C1083 C1082 1.514 . S
C1083 C1084 1.359 . S
C1083 C1088 1.348 . S
C1084 C1083 1.359 . S
C1084 C1085 1.380 1_554 S
C1084 H1112 0.929 . S
C1085 C1084 1.380 1_556 S
C1085 C1086 1.347 . S
C1085 H1113 0.931 . S
C1086 C1085 1.347 . S
C1086 C1087 1.369 . S
C1087 C1086 1.369 . S
C1087 C1088 1.408 1_556 S
C1087 H1114 0.930 . S
C1088 C1083 1.348 . S
C1088 C1087 1.408 1_554 S
C1088 H1115 0.930 . S
C1089 O1102 1.281 . S
C1089 O1103 1.254 . S
C1090 O1104 1.236 . S
C1090 O1105 1.266 . S
C1091 Tb1081 2.809 . S
C1091 C1092 1.514 . S
C1091 O1106 1.248 . S
C1091 O1107 1.266 . S
C1092 C1091 1.514 . S
C1092 C1093 1.359 . S
C1092 C1097 1.348 . S
C1093 C1092 1.359 . S
C1093 C1094 1.380 . S
C1093 H1116 0.929 . S
C1094 C1093 1.380 . S
C1094 C1095 1.347 . S
C1094 H1117 0.931 . S
C1095 C1094 1.347 . S
C1095 C1096 1.369 . S
C1096 C1095 1.369 . S
C1096 C1097 1.408 . S
C1096 H1118 0.930 . S
C1097 C1092 1.348 . S
C1097 C1096 1.408 . S
C1097 H1119 0.930 . S
C1098 O1108 1.281 . S
C1098 O1109 1.254 . S
C1099 O1110 1.236 . S
C1099 O1111 1.266 . S
O1100 Tb1080 2.484 . S
O1100 C1082 1.248 . S
O1101 Tb1080 2.440 . S
O1101 C1082 1.266 . S
O1102 Tb1080 2.658 . S
O1102 Tb1081 2.325 . S
O1102 C1089 1.281 . S
O1103 Tb1080 2.409 . S
O1103 C1089 1.254 . S
O1104 Tb1080 2.378 . S
O1104 C1090 1.236 . S
O1105 Tb1081 2.341 . S
O1105 C1090 1.266 . S
O1106 Tb1081 2.484 . S
O1106 C1091 1.248 . S
O1107 Tb1081 2.440 . S
O1107 C1091 1.266 . S
O1108 Tb1080 2.325 . S
O1108 Tb1081 2.658 . S
O1108 C1098 1.281 . S
O1109 Tb1081 2.409 . S
O1109 C1098 1.254 . S
O1110 Tb1081 2.378 . S
O1110 C1099 1.236 . S
O1111 Tb1080 2.341 . S
O1111 C1099 1.266 . S
H1112 C1084 0.929 . S
H1113 C1085 0.931 . S
H1114 C1087 0.930 . S
H1115 C1088 0.930 . S
H1116 C1093 0.929 . S
H1117 C1094 0.931 . S
H1118 C1096 0.930 . S
H1119 C1097 0.930 . S
Tb1120 C1122 2.809 . S
Tb1120 O1140 2.484 . S
Tb1120 O1141 2.440 . S
Tb1120 O1142 2.658 . S
Tb1120 O1143 2.409 . S
Tb1120 O1144 2.378 . S
Tb1120 O1148 2.325 . S
Tb1120 O1151 2.341 . S
Tb1121 C1131 2.809 . S
Tb1121 O1142 2.325 . S
Tb1121 O1145 2.341 . S
Tb1121 O1146 2.484 . S
Tb1121 O1147 2.440 . S
Tb1121 O1148 2.658 . S
Tb1121 O1149 2.409 . S
Tb1121 O1150 2.378 . S
C1122 Tb1120 2.809 . S
C1122 C1123 1.514 . S
C1122 O1140 1.248 . S
C1122 O1141 1.266 . S
C1123 C1122 1.514 . S
C1123 C1124 1.359 . S
C1123 C1128 1.348 . S
C1124 C1123 1.359 . S
C1124 C1125 1.380 1_554 S
C1124 H1152 0.929 . S
C1125 C1124 1.380 1_556 S
C1125 C1126 1.347 . S
C1125 H1153 0.931 . S
C1126 C1125 1.347 . S
C1126 C1127 1.369 . S
C1127 C1126 1.369 . S
C1127 C1128 1.408 1_556 S
C1127 H1154 0.930 . S
C1128 C1123 1.348 . S
C1128 C1127 1.408 1_554 S
C1128 H1155 0.930 . S
C1129 O1142 1.281 . S
C1129 O1143 1.254 . S
C1130 O1144 1.236 . S
C1130 O1145 1.266 . S
C1131 Tb1121 2.809 . S
C1131 C1132 1.514 . S
C1131 O1146 1.248 . S
C1131 O1147 1.266 . S
C1132 C1131 1.514 . S
C1132 C1133 1.359 . S
C1132 C1137 1.348 . S
C1133 C1132 1.359 . S
C1133 C1134 1.380 . S
C1133 H1156 0.929 . S
C1134 C1133 1.380 . S
C1134 C1135 1.347 . S
C1134 H1157 0.931 . S
C1135 C1134 1.347 . S
C1135 C1136 1.369 . S
C1136 C1135 1.369 . S
C1136 C1137 1.408 . S
C1136 H1158 0.930 . S
C1137 C1132 1.348 . S
C1137 C1136 1.408 . S
C1137 H1159 0.930 . S
C1138 O1148 1.281 . S
C1138 O1149 1.254 . S
C1139 O1150 1.236 . S
C1139 O1151 1.266 . S
O1140 Tb1120 2.484 . S
O1140 C1122 1.248 . S
O1141 Tb1120 2.440 . S
O1141 C1122 1.266 . S
O1142 Tb1120 2.658 . S
O1142 Tb1121 2.325 . S
O1142 C1129 1.281 . S
O1143 Tb1120 2.409 . S
O1143 C1129 1.254 . S
O1144 Tb1120 2.378 . S
O1144 C1130 1.236 . S
O1145 Tb1121 2.341 . S
O1145 C1130 1.266 . S
O1146 Tb1121 2.484 . S
O1146 C1131 1.248 . S
O1147 Tb1121 2.440 . S
O1147 C1131 1.266 . S
O1148 Tb1120 2.325 . S
O1148 Tb1121 2.658 . S
O1148 C1138 1.281 . S
O1149 Tb1121 2.409 . S
O1149 C1138 1.254 . S
O1150 Tb1121 2.378 . S
O1150 C1139 1.236 . S
O1151 Tb1120 2.341 . S
O1151 C1139 1.266 . S
H1152 C1124 0.929 . S
H1153 C1125 0.931 . S
H1154 C1127 0.930 . S
H1155 C1128 0.930 . S
H1156 C1133 0.929 . S
H1157 C1134 0.931 . S
H1158 C1136 0.930 . S
H1159 C1137 0.930 . S
Tb1160 C1162 2.809 . S
Tb1160 O1180 2.484 . S
Tb1160 O1181 2.440 . S
Tb1160 O1182 2.658 . S
Tb1160 O1183 2.409 . S
Tb1160 O1184 2.378 . S
Tb1160 O1188 2.325 . S
Tb1160 O1191 2.341 . S
Tb1161 C1171 2.809 . S
Tb1161 O1182 2.325 . S
Tb1161 O1185 2.341 . S
Tb1161 O1186 2.484 . S
Tb1161 O1187 2.440 . S
Tb1161 O1188 2.658 . S
Tb1161 O1189 2.409 . S
Tb1161 O1190 2.378 . S
C1162 Tb1160 2.809 . S
C1162 C1163 1.514 . S
C1162 O1180 1.248 . S
C1162 O1181 1.266 . S
C1163 C1162 1.514 . S
C1163 C1164 1.359 . S
C1163 C1168 1.348 . S
C1164 C1163 1.359 . S
C1164 C1165 1.380 1_554 S
C1164 H1192 0.929 . S
C1165 C1164 1.380 1_556 S
C1165 C1166 1.347 . S
C1165 H1193 0.931 . S
C1166 C1165 1.347 . S
C1166 C1167 1.369 . S
C1167 C1166 1.369 . S
C1167 C1168 1.408 1_556 S
C1167 H1194 0.930 . S
C1168 C1163 1.348 . S
C1168 C1167 1.408 1_554 S
C1168 H1195 0.930 . S
C1169 O1182 1.281 . S
C1169 O1183 1.254 . S
C1170 O1184 1.236 . S
C1170 O1185 1.266 . S
C1171 Tb1161 2.809 . S
C1171 C1172 1.514 . S
C1171 O1186 1.248 . S
C1171 O1187 1.266 . S
C1172 C1171 1.514 . S
C1172 C1173 1.359 . S
C1172 C1177 1.348 . S
C1173 C1172 1.359 . S
C1173 C1174 1.380 . S
C1173 H1196 0.929 . S
C1174 C1173 1.380 . S
C1174 C1175 1.347 . S
C1174 H1197 0.931 . S
C1175 C1174 1.347 . S
C1175 C1176 1.369 . S
C1176 C1175 1.369 . S
C1176 C1177 1.408 . S
C1176 H1198 0.930 . S
C1177 C1172 1.348 . S
C1177 C1176 1.408 . S
C1177 H1199 0.930 . S
C1178 O1188 1.281 . S
C1178 O1189 1.254 . S
C1179 O1190 1.236 . S
C1179 O1191 1.266 . S
O1180 Tb1160 2.484 . S
O1180 C1162 1.248 . S
O1181 Tb1160 2.440 . S
O1181 C1162 1.266 . S
O1182 Tb1160 2.658 . S
O1182 Tb1161 2.325 . S
O1182 C1169 1.281 . S
O1183 Tb1160 2.409 . S
O1183 C1169 1.254 . S
O1184 Tb1160 2.378 . S
O1184 C1170 1.236 . S
O1185 Tb1161 2.341 . S
O1185 C1170 1.266 . S
O1186 Tb1161 2.484 . S
O1186 C1171 1.248 . S
O1187 Tb1161 2.440 . S
O1187 C1171 1.266 . S
O1188 Tb1160 2.325 . S
O1188 Tb1161 2.658 . S
O1188 C1178 1.281 . S
O1189 Tb1161 2.409 . S
O1189 C1178 1.254 . S
O1190 Tb1161 2.378 . S
O1190 C1179 1.236 . S
O1191 Tb1160 2.341 . S
O1191 C1179 1.266 . S
H1192 C1164 0.929 . S
H1193 C1165 0.931 . S
H1194 C1167 0.930 . S
H1195 C1168 0.930 . S
H1196 C1173 0.929 . S
H1197 C1174 0.931 . S
H1198 C1176 0.930 . S
H1199 C1177 0.930 . S
Tb1200 C1202 2.809 . S
Tb1200 O1220 2.484 . S
Tb1200 O1221 2.440 . S
Tb1200 O1222 2.658 . S
Tb1200 O1223 2.409 . S
Tb1200 O1224 2.378 . S
Tb1200 O1228 2.325 . S
Tb1200 O1231 2.341 . S
Tb1201 C1211 2.809 . S
Tb1201 O1222 2.325 . S
Tb1201 O1225 2.341 . S
Tb1201 O1226 2.484 . S
Tb1201 O1227 2.440 . S
Tb1201 O1228 2.658 . S
Tb1201 O1229 2.409 . S
Tb1201 O1230 2.378 . S
C1202 Tb1200 2.809 . S
C1202 C1203 1.514 . S
C1202 O1220 1.248 . S
C1202 O1221 1.266 . S
C1203 C1202 1.514 . S
C1203 C1204 1.359 . S
C1203 C1208 1.348 . S
C1204 C1203 1.359 . S
C1204 C1205 1.380 . S
C1204 H1232 0.929 . S
C1205 C1204 1.380 . S
C1205 C1206 1.347 . S
C1205 H1233 0.931 . S
C1206 C1205 1.347 . S
C1206 C1207 1.369 . S
C1207 C1206 1.369 . S
C1207 C1208 1.408 . S
C1207 H1234 0.930 . S
C1208 C1203 1.348 . S
C1208 C1207 1.408 . S
C1208 H1235 0.930 . S
C1209 O1222 1.281 . S
C1209 O1223 1.254 . S
C1210 O1224 1.236 . S
C1210 O1225 1.266 . S
C1211 Tb1201 2.809 . S
C1211 C1212 1.514 . S
C1211 O1226 1.248 . S
C1211 O1227 1.266 . S
C1212 C1211 1.514 . S
C1212 C1213 1.359 . S
C1212 C1217 1.348 . S
C1213 C1212 1.359 . S
C1213 C1214 1.380 . S
C1213 H1236 0.929 . S
C1214 C1213 1.380 . S
C1214 C1215 1.347 . S
C1214 H1237 0.931 . S
C1215 C1214 1.347 . S
C1215 C1216 1.369 . S
C1216 C1215 1.369 . S
C1216 C1217 1.408 . S
C1216 H1238 0.930 . S
C1217 C1212 1.348 . S
C1217 C1216 1.408 . S
C1217 H1239 0.930 . S
C1218 O1228 1.281 . S
C1218 O1229 1.254 . S
C1219 O1230 1.236 . S
C1219 O1231 1.266 . S
O1220 Tb1200 2.484 . S
O1220 C1202 1.248 . S
O1221 Tb1200 2.440 . S
O1221 C1202 1.266 . S
O1222 Tb1200 2.658 . S
O1222 Tb1201 2.325 . S
O1222 C1209 1.281 . S
O1223 Tb1200 2.409 . S
O1223 C1209 1.254 . S
O1224 Tb1200 2.378 . S
O1224 C1210 1.236 . S
O1225 Tb1201 2.341 . S
O1225 C1210 1.266 . S
O1226 Tb1201 2.484 . S
O1226 C1211 1.248 . S
O1227 Tb1201 2.440 . S
O1227 C1211 1.266 . S
O1228 Tb1200 2.325 . S
O1228 Tb1201 2.658 . S
O1228 C1218 1.281 . S
O1229 Tb1201 2.409 . S
O1229 C1218 1.254 . S
O1230 Tb1201 2.378 . S
O1230 C1219 1.236 . S
O1231 Tb1200 2.341 . S
O1231 C1219 1.266 . S
H1232 C1204 0.929 . S
H1233 C1205 0.931 . S
H1234 C1207 0.930 . S
H1235 C1208 0.930 . S
H1236 C1213 0.929 . S
H1237 C1214 0.931 . S
H1238 C1216 0.930 . S
H1239 C1217 0.930 . S
Tb1240 C1242 2.809 . S
Tb1240 O1260 2.484 . S
Tb1240 O1261 2.440 . S
Tb1240 O1262 2.658 . S
Tb1240 O1263 2.409 . S
Tb1240 O1264 2.378 . S
Tb1240 O1268 2.325 . S
Tb1240 O1271 2.341 . S
Tb1241 C1251 2.809 . S
Tb1241 O1262 2.325 . S
Tb1241 O1265 2.341 . S
Tb1241 O1266 2.484 . S
Tb1241 O1267 2.440 . S
Tb1241 O1268 2.658 . S
Tb1241 O1269 2.409 . S
Tb1241 O1270 2.378 . S
C1242 Tb1240 2.809 . S
C1242 C1243 1.514 . S
C1242 O1260 1.248 . S
C1242 O1261 1.266 . S
C1243 C1242 1.514 . S
C1243 C1244 1.359 . S
C1243 C1248 1.348 . S
C1244 C1243 1.359 . S
C1244 C1245 1.380 . S
C1244 H1272 0.929 . S
C1245 C1244 1.380 . S
C1245 C1246 1.347 . S
C1245 H1273 0.931 . S
C1246 C1245 1.347 . S
C1246 C1247 1.369 . S
C1247 C1246 1.369 . S
C1247 C1248 1.408 . S
C1247 H1274 0.930 . S
C1248 C1243 1.348 . S
C1248 C1247 1.408 . S
C1248 H1275 0.930 . S
C1249 O1262 1.281 . S
C1249 O1263 1.254 . S
C1250 O1264 1.236 . S
C1250 O1265 1.266 . S
C1251 Tb1241 2.809 . S
C1251 C1252 1.514 . S
C1251 O1266 1.248 . S
C1251 O1267 1.266 . S
C1252 C1251 1.514 . S
C1252 C1253 1.359 . S
C1252 C1257 1.348 . S
C1253 C1252 1.359 . S
C1253 C1254 1.380 . S
C1253 H1276 0.929 . S
C1254 C1253 1.380 . S
C1254 C1255 1.347 . S
C1254 H1277 0.931 . S
C1255 C1254 1.347 . S
C1255 C1256 1.369 . S
C1256 C1255 1.369 . S
C1256 C1257 1.408 . S
C1256 H1278 0.930 . S
C1257 C1252 1.348 . S
C1257 C1256 1.408 . S
C1257 H1279 0.930 . S
C1258 O1268 1.281 . S
C1258 O1269 1.254 . S
C1259 O1270 1.236 . S
C1259 O1271 1.266 . S
O1260 Tb1240 2.484 . S
O1260 C1242 1.248 . S
O1261 Tb1240 2.440 . S
O1261 C1242 1.266 . S
O1262 Tb1240 2.658 . S
O1262 Tb1241 2.325 . S
O1262 C1249 1.281 . S
O1263 Tb1240 2.409 . S
O1263 C1249 1.254 . S
O1264 Tb1240 2.378 . S
O1264 C1250 1.236 . S
O1265 Tb1241 2.341 . S
O1265 C1250 1.266 . S
O1266 Tb1241 2.484 . S
O1266 C1251 1.248 . S
O1267 Tb1241 2.440 . S
O1267 C1251 1.266 . S
O1268 Tb1240 2.325 . S
O1268 Tb1241 2.658 . S
O1268 C1258 1.281 . S
O1269 Tb1241 2.409 . S
O1269 C1258 1.254 . S
O1270 Tb1241 2.378 . S
O1270 C1259 1.236 . S
O1271 Tb1240 2.341 . S
O1271 C1259 1.266 . S
H1272 C1244 0.929 . S
H1273 C1245 0.931 . S
H1274 C1247 0.930 . S
H1275 C1248 0.930 . S
H1276 C1253 0.929 . S
H1277 C1254 0.931 . S
H1278 C1256 0.930 . S
H1279 C1257 0.930 . S
Tb1280 C1282 2.809 . S
Tb1280 O1300 2.484 . S
Tb1280 O1301 2.440 . S
Tb1280 O1302 2.658 . S
Tb1280 O1303 2.409 . S
Tb1280 O1304 2.378 . S
Tb1280 O1308 2.325 . S
Tb1280 O1311 2.341 . S
Tb1281 C1291 2.809 . S
Tb1281 O1302 2.325 . S
Tb1281 O1305 2.341 . S
Tb1281 O1306 2.484 . S
Tb1281 O1307 2.440 . S
Tb1281 O1308 2.658 . S
Tb1281 O1309 2.409 . S
Tb1281 O1310 2.378 . S
C1282 Tb1280 2.809 . S
C1282 C1283 1.514 . S
C1282 O1300 1.248 . S
C1282 O1301 1.266 . S
C1283 C1282 1.514 . S
C1283 C1284 1.359 . S
C1283 C1288 1.348 . S
C1284 C1283 1.359 . S
C1284 C1285 1.380 . S
C1284 H1312 0.929 . S
C1285 C1284 1.380 . S
C1285 C1286 1.347 . S
C1285 H1313 0.931 . S
C1286 C1285 1.347 . S
C1286 C1287 1.369 . S
C1287 C1286 1.369 . S
C1287 C1288 1.408 . S
C1287 H1314 0.930 . S
C1288 C1283 1.348 . S
C1288 C1287 1.408 . S
C1288 H1315 0.930 . S
C1289 O1302 1.281 . S
C1289 O1303 1.254 . S
C1290 O1304 1.236 . S
C1290 O1305 1.266 . S
C1291 Tb1281 2.809 . S
C1291 C1292 1.514 . S
C1291 O1306 1.248 . S
C1291 O1307 1.266 . S
C1292 C1291 1.514 . S
C1292 C1293 1.359 . S
C1292 C1297 1.348 . S
C1293 C1292 1.359 . S
C1293 C1294 1.380 . S
C1293 H1316 0.929 . S
C1294 C1293 1.380 . S
C1294 C1295 1.347 . S
C1294 H1317 0.931 . S
C1295 C1294 1.347 . S
C1295 C1296 1.369 . S
C1296 C1295 1.369 . S
C1296 C1297 1.408 . S
C1296 H1318 0.930 . S
C1297 C1292 1.348 . S
C1297 C1296 1.408 . S
C1297 H1319 0.930 . S
C1298 O1308 1.281 . S
C1298 O1309 1.254 . S
C1299 O1310 1.236 . S
C1299 O1311 1.266 . S
O1300 Tb1280 2.484 . S
O1300 C1282 1.248 . S
O1301 Tb1280 2.440 . S
O1301 C1282 1.266 . S
O1302 Tb1280 2.658 . S
O1302 Tb1281 2.325 . S
O1302 C1289 1.281 . S
O1303 Tb1280 2.409 . S
O1303 C1289 1.254 . S
O1304 Tb1280 2.378 . S
O1304 C1290 1.236 . S
O1305 Tb1281 2.341 . S
O1305 C1290 1.266 . S
O1306 Tb1281 2.484 . S
O1306 C1291 1.248 . S
O1307 Tb1281 2.440 . S
O1307 C1291 1.266 . S
O1308 Tb1280 2.325 . S
O1308 Tb1281 2.658 . S
O1308 C1298 1.281 . S
O1309 Tb1281 2.409 . S
O1309 C1298 1.254 . S
O1310 Tb1281 2.378 . S
O1310 C1299 1.236 . S
O1311 Tb1280 2.341 . S
O1311 C1299 1.266 . S
H1312 C1284 0.929 . S
H1313 C1285 0.931 . S
H1314 C1287 0.930 . S
H1315 C1288 0.930 . S
H1316 C1293 0.929 . S
H1317 C1294 0.931 . S
H1318 C1296 0.930 . S
H1319 C1297 0.930 . S
Tb1320 C1322 2.809 . S
Tb1320 O1340 2.484 . S
Tb1320 O1341 2.440 . S
Tb1320 O1342 2.658 . S
Tb1320 O1343 2.409 . S
Tb1320 O1344 2.378 . S
Tb1320 O1348 2.325 . S
Tb1320 O1351 2.341 . S
Tb1321 C1331 2.809 . S
Tb1321 O1342 2.325 . S
Tb1321 O1345 2.341 . S
Tb1321 O1346 2.484 . S
Tb1321 O1347 2.440 . S
Tb1321 O1348 2.658 . S
Tb1321 O1349 2.409 . S
Tb1321 O1350 2.378 . S
C1322 Tb1320 2.809 . S
C1322 C1323 1.514 . S
C1322 O1340 1.248 . S
C1322 O1341 1.266 . S
C1323 C1322 1.514 . S
C1323 C1324 1.359 . S
C1323 C1328 1.348 . S
C1324 C1323 1.359 . S
C1324 C1325 1.380 . S
C1324 H1352 0.929 . S
C1325 C1324 1.380 . S
C1325 C1326 1.347 . S
C1325 H1353 0.931 . S
C1326 C1325 1.347 . S
C1326 C1327 1.369 . S
C1327 C1326 1.369 . S
C1327 C1328 1.408 . S
C1327 H1354 0.930 . S
C1328 C1323 1.348 . S
C1328 C1327 1.408 . S
C1328 H1355 0.930 . S
C1329 O1342 1.281 . S
C1329 O1343 1.254 . S
C1330 O1344 1.236 . S
C1330 O1345 1.266 . S
C1331 Tb1321 2.809 . S
C1331 C1332 1.514 . S
C1331 O1346 1.248 . S
C1331 O1347 1.266 . S
C1332 C1331 1.514 . S
C1332 C1333 1.359 . S
C1332 C1337 1.348 . S
C1333 C1332 1.359 . S
C1333 C1334 1.380 . S
C1333 H1356 0.929 . S
C1334 C1333 1.380 . S
C1334 C1335 1.347 . S
C1334 H1357 0.931 . S
C1335 C1334 1.347 . S
C1335 C1336 1.369 . S
C1336 C1335 1.369 . S
C1336 C1337 1.408 . S
C1336 H1358 0.930 . S
C1337 C1332 1.348 . S
C1337 C1336 1.408 . S
C1337 H1359 0.930 . S
C1338 O1348 1.281 . S
C1338 O1349 1.254 . S
C1339 O1350 1.236 . S
C1339 O1351 1.266 . S
O1340 Tb1320 2.484 . S
O1340 C1322 1.248 . S
O1341 Tb1320 2.440 . S
O1341 C1322 1.266 . S
O1342 Tb1320 2.658 . S
O1342 Tb1321 2.325 . S
O1342 C1329 1.281 . S
O1343 Tb1320 2.409 . S
O1343 C1329 1.254 . S
O1344 Tb1320 2.378 . S
O1344 C1330 1.236 . S
O1345 Tb1321 2.341 . S
O1345 C1330 1.266 . S
O1346 Tb1321 2.484 . S
O1346 C1331 1.248 . S
O1347 Tb1321 2.440 . S
O1347 C1331 1.266 . S
O1348 Tb1320 2.325 . S
O1348 Tb1321 2.658 . S
O1348 C1338 1.281 . S
O1349 Tb1321 2.409 . S
O1349 C1338 1.254 . S
O1350 Tb1321 2.378 . S
O1350 C1339 1.236 . S
O1351 Tb1320 2.341 . S
O1351 C1339 1.266 . S
H1352 C1324 0.929 . S
H1353 C1325 0.931 . S
H1354 C1327 0.930 . S
H1355 C1328 0.930 . S
H1356 C1333 0.929 . S
H1357 C1334 0.931 . S
H1358 C1336 0.930 . S
H1359 C1337 0.930 . S
Tb1360 C1362 2.809 . S
Tb1360 O1380 2.484 . S
Tb1360 O1381 2.440 . S
Tb1360 O1382 2.658 . S
Tb1360 O1383 2.409 . S
Tb1360 O1384 2.378 . S
Tb1360 O1388 2.325 . S
Tb1360 O1391 2.341 . S
Tb1361 C1371 2.809 . S
Tb1361 O1382 2.325 . S
Tb1361 O1385 2.341 . S
Tb1361 O1386 2.484 . S
Tb1361 O1387 2.440 . S
Tb1361 O1388 2.658 . S
Tb1361 O1389 2.409 . S
Tb1361 O1390 2.378 . S
C1362 Tb1360 2.809 . S
C1362 C1363 1.514 . S
C1362 O1380 1.248 . S
C1362 O1381 1.266 . S
C1363 C1362 1.514 . S
C1363 C1364 1.359 . S
C1363 C1368 1.348 . S
C1364 C1363 1.359 . S
C1364 C1365 1.380 . S
C1364 H1392 0.929 . S
C1365 C1364 1.380 . S
C1365 C1366 1.347 . S
C1365 H1393 0.931 . S
C1366 C1365 1.347 . S
C1366 C1367 1.369 . S
C1367 C1366 1.369 . S
C1367 C1368 1.408 . S
C1367 H1394 0.930 . S
C1368 C1363 1.348 . S
C1368 C1367 1.408 . S
C1368 H1395 0.930 . S
C1369 O1382 1.281 . S
C1369 O1383 1.254 . S
C1370 O1384 1.236 . S
C1370 O1385 1.266 . S
C1371 Tb1361 2.809 . S
C1371 C1372 1.514 . S
C1371 O1386 1.248 . S
C1371 O1387 1.266 . S
C1372 C1371 1.514 . S
C1372 C1373 1.359 . S
C1372 C1377 1.348 . S
C1373 C1372 1.359 . S
C1373 C1374 1.380 . S
C1373 H1396 0.929 . S
C1374 C1373 1.380 . S
C1374 C1375 1.347 . S
C1374 H1397 0.931 . S
C1375 C1374 1.347 . S
C1375 C1376 1.369 . S
C1376 C1375 1.369 . S
C1376 C1377 1.408 . S
C1376 H1398 0.930 . S
C1377 C1372 1.348 . S
C1377 C1376 1.408 . S
C1377 H1399 0.930 . S
C1378 O1388 1.281 . S
C1378 O1389 1.254 . S
C1379 O1390 1.236 . S
C1379 O1391 1.266 . S
O1380 Tb1360 2.484 . S
O1380 C1362 1.248 . S
O1381 Tb1360 2.440 . S
O1381 C1362 1.266 . S
O1382 Tb1360 2.658 . S
O1382 Tb1361 2.325 . S
O1382 C1369 1.281 . S
O1383 Tb1360 2.409 . S
O1383 C1369 1.254 . S
O1384 Tb1360 2.378 . S
O1384 C1370 1.236 . S
O1385 Tb1361 2.341 . S
O1385 C1370 1.266 . S
O1386 Tb1361 2.484 . S
O1386 C1371 1.248 . S
O1387 Tb1361 2.440 . S
O1387 C1371 1.266 . S
O1388 Tb1360 2.325 . S
O1388 Tb1361 2.658 . S
O1388 C1378 1.281 . S
O1389 Tb1361 2.409 . S
O1389 C1378 1.254 . S
O1390 Tb1361 2.378 . S
O1390 C1379 1.236 . S
O1391 Tb1360 2.341 . S
O1391 C1379 1.266 . S
H1392 C1364 0.929 . S
H1393 C1365 0.931 . S
H1394 C1367 0.930 . S
H1395 C1368 0.930 . S
H1396 C1373 0.929 . S
H1397 C1374 0.931 . S
H1398 C1376 0.930 . S
H1399 C1377 0.930 . S
Tb1400 C1402 2.809 . S
Tb1400 O1420 2.484 . S
Tb1400 O1421 2.440 . S
Tb1400 O1422 2.658 . S
Tb1400 O1423 2.409 . S
Tb1400 O1424 2.378 . S
Tb1400 O1428 2.325 . S
Tb1400 O1431 2.341 . S
Tb1401 C1411 2.809 . S
Tb1401 O1422 2.325 . S
Tb1401 O1425 2.341 . S
Tb1401 O1426 2.484 . S
Tb1401 O1427 2.440 . S
Tb1401 O1428 2.658 . S
Tb1401 O1429 2.409 . S
Tb1401 O1430 2.378 . S
C1402 Tb1400 2.809 . S
C1402 C1403 1.514 . S
C1402 O1420 1.248 . S
C1402 O1421 1.266 . S
C1403 C1402 1.514 . S
C1403 C1404 1.359 . S
C1403 C1408 1.348 . S
C1404 C1403 1.359 . S
C1404 C1405 1.380 . S
C1404 H1432 0.929 . S
C1405 C1404 1.380 . S
C1405 C1406 1.347 . S
C1405 H1433 0.931 . S
C1406 C1405 1.347 . S
C1406 C1407 1.369 . S
C1407 C1406 1.369 . S
C1407 C1408 1.408 . S
C1407 H1434 0.930 . S
C1408 C1403 1.348 . S
C1408 C1407 1.408 . S
C1408 H1435 0.930 . S
C1409 O1422 1.281 . S
C1409 O1423 1.254 . S
C1410 O1424 1.236 . S
C1410 O1425 1.266 . S
C1411 Tb1401 2.809 . S
C1411 C1412 1.514 . S
C1411 O1426 1.248 . S
C1411 O1427 1.266 . S
C1412 C1411 1.514 . S
C1412 C1413 1.359 . S
C1412 C1417 1.348 . S
C1413 C1412 1.359 . S
C1413 C1414 1.380 . S
C1413 H1436 0.929 . S
C1414 C1413 1.380 . S
C1414 C1415 1.347 . S
C1414 H1437 0.931 . S
C1415 C1414 1.347 . S
C1415 C1416 1.369 . S
C1416 C1415 1.369 . S
C1416 C1417 1.408 . S
C1416 H1438 0.930 . S
C1417 C1412 1.348 . S
C1417 C1416 1.408 . S
C1417 H1439 0.930 . S
C1418 O1428 1.281 . S
C1418 O1429 1.254 . S
C1419 O1430 1.236 . S
C1419 O1431 1.266 . S
O1420 Tb1400 2.484 . S
O1420 C1402 1.248 . S
O1421 Tb1400 2.440 . S
O1421 C1402 1.266 . S
O1422 Tb1400 2.658 . S
O1422 Tb1401 2.325 . S
O1422 C1409 1.281 . S
O1423 Tb1400 2.409 . S
O1423 C1409 1.254 . S
O1424 Tb1400 2.378 . S
O1424 C1410 1.236 . S
O1425 Tb1401 2.341 . S
O1425 C1410 1.266 . S
O1426 Tb1401 2.484 . S
O1426 C1411 1.248 . S
O1427 Tb1401 2.440 . S
O1427 C1411 1.266 . S
O1428 Tb1400 2.325 . S
O1428 Tb1401 2.658 . S
O1428 C1418 1.281 . S
O1429 Tb1401 2.409 . S
O1429 C1418 1.254 . S
O1430 Tb1401 2.378 . S
O1430 C1419 1.236 . S
O1431 Tb1400 2.341 . S
O1431 C1419 1.266 . S
H1432 C1404 0.929 . S
H1433 C1405 0.931 . S
H1434 C1407 0.930 . S
H1435 C1408 0.930 . S
H1436 C1413 0.929 . S
H1437 C1414 0.931 . S
H1438 C1416 0.930 . S
H1439 C1417 0.930 . S
C1440 C1441 1.369 . S
C1440 C1442 1.419 1_556 S
C1440 H1444 0.930 . S
C1441 C1440 1.369 . S
C1441 C1450 1.429 . S
C1442 C1440 1.419 1_554 S
C1442 C1443 1.363 . S
C1442 H1445 0.929 . S
C1443 C1442 1.363 . S
C1443 C1449 1.428 . S
H1444 C1440 0.930 . S
H1445 C1442 0.929 . S
S1446 N1447 1.613 1_554 S
S1446 N1448 1.610 . S
N1447 S1446 1.613 1_556 S
N1447 C1450 1.350 . S
N1448 S1446 1.610 . S
N1448 C1449 1.351 . S
C1449 C1443 1.428 . S
C1449 N1448 1.351 . S
C1449 C1450 1.434 1_554 S
C1450 C1441 1.429 . S
C1450 N1447 1.350 . S
C1450 C1449 1.434 1_556 S
C1451 C1452 1.369 . S
C1451 C1453 1.419 1_556 S
C1451 H1455 0.930 . S
C1452 C1451 1.369 . S
C1452 C1461 1.429 . S
C1453 C1451 1.419 1_554 S
C1453 C1454 1.363 . S
C1453 H1456 0.929 . S
C1454 C1453 1.363 . S
C1454 C1460 1.428 . S
H1455 C1451 0.930 . S
H1456 C1453 0.929 . S
S1457 N1458 1.613 . S
S1457 N1459 1.610 1_556 S
N1458 S1457 1.613 . S
N1458 C1461 1.350 . S
N1459 S1457 1.610 1_554 S
N1459 C1460 1.351 . S
C1460 C1454 1.428 . S
C1460 N1459 1.351 . S
C1460 C1461 1.434 1_554 S
C1461 C1452 1.429 . S
C1461 N1458 1.350 . S
C1461 C1460 1.434 1_556 S
C1462 C1463 1.369 . S
C1462 C1464 1.419 1_554 S
C1462 H1466 0.930 . S
C1463 C1462 1.369 . S
C1463 C1472 1.429 . S
C1464 C1462 1.419 1_556 S
C1464 C1465 1.363 . S
C1464 H1467 0.929 . S
C1465 C1464 1.363 . S
C1465 C1471 1.428 . S
H1466 C1462 0.930 . S
H1467 C1464 0.929 . S
S1468 N1469 1.613 1_556 S
S1468 N1470 1.610 . S
N1469 S1468 1.613 1_554 S
N1469 C1472 1.350 . S
N1470 S1468 1.610 . S
N1470 C1471 1.351 . S
C1471 C1465 1.428 . S
C1471 N1470 1.351 . S
C1471 C1472 1.434 1_556 S
C1472 C1463 1.429 . S
C1472 N1469 1.350 . S
C1472 C1471 1.434 1_554 S
C1473 C1474 1.369 . S
C1473 C1475 1.419 . S
C1473 H1477 0.930 . S
C1474 C1473 1.369 . S
C1474 C1483 1.429 . S
C1475 C1473 1.419 . S
C1475 C1476 1.363 . S
C1475 H1478 0.929 . S
C1476 C1475 1.363 . S
C1476 C1482 1.428 . S
H1477 C1473 0.930 . S
H1478 C1475 0.929 . S
S1479 N1480 1.613 . S
S1479 N1481 1.610 . S
N1480 S1479 1.613 . S
N1480 C1483 1.350 . S
N1481 S1479 1.610 . S
N1481 C1482 1.351 . S
C1482 C1476 1.428 . S
C1482 N1481 1.351 . S
C1482 C1483 1.434 . S
C1483 C1474 1.429 . S
C1483 N1480 1.350 . S
C1483 C1482 1.434 . S
C1484 C1485 1.369 . S
C1484 C1486 1.419 . S
C1484 H1488 0.930 . S
C1485 C1484 1.369 . S
C1485 C1494 1.429 . S
C1486 C1484 1.419 . S
C1486 C1487 1.363 . S
C1486 H1489 0.929 . S
C1487 C1486 1.363 . S
C1487 C1493 1.428 . S
H1488 C1484 0.930 . S
H1489 C1486 0.929 . S
S1490 N1491 1.613 . S
S1490 N1492 1.610 . S
N1491 S1490 1.613 . S
N1491 C1494 1.350 . S
N1492 S1490 1.610 . S
N1492 C1493 1.351 . S
C1493 C1487 1.428 . S
C1493 N1492 1.351 . S
C1493 C1494 1.434 . S
C1494 C1485 1.429 . S
C1494 N1491 1.350 . S
C1494 C1493 1.434 . S
C1495 C1496 1.369 . S
C1495 C1497 1.419 . S
C1495 H1499 0.930 . S
C1496 C1495 1.369 . S
C1496 C1505 1.429 . S
C1497 C1495 1.419 . S
C1497 C1498 1.363 . S
C1497 H1500 0.929 . S
C1498 C1497 1.363 . S
C1498 C1504 1.428 . S
H1499 C1495 0.930 . S
H1500 C1497 0.929 . S
S1501 N1502 1.613 . S
S1501 N1503 1.610 . S
N1502 S1501 1.613 . S
N1502 C1505 1.350 . S
N1503 S1501 1.610 . S
N1503 C1504 1.351 . S
C1504 C1498 1.428 . S
C1504 N1503 1.351 . S
C1504 C1505 1.434 . S
C1505 C1496 1.429 . S
C1505 N1502 1.350 . S
C1505 C1504 1.434 . S
C1506 C1507 1.369 . S
C1506 C1508 1.419 . S
C1506 H1510 0.930 . S
C1507 C1506 1.369 . S
C1507 C1516 1.429 . S
C1508 C1506 1.419 . S
C1508 C1509 1.363 . S
C1508 H1511 0.929 . S
C1509 C1508 1.363 . S
C1509 C1515 1.428 . S
H1510 C1506 0.930 . S
H1511 C1508 0.929 . S
S1512 N1513 1.613 . S
S1512 N1514 1.610 . S
N1513 S1512 1.613 . S
N1513 C1516 1.350 . S
N1514 S1512 1.610 . S
N1514 C1515 1.351 . S
C1515 C1509 1.428 . S
C1515 N1514 1.351 . S
C1515 C1516 1.434 . S
C1516 C1507 1.429 . S
C1516 N1513 1.350 . S
C1516 C1515 1.434 . S
C1517 C1518 1.369 . S
C1517 C1519 1.419 . S
C1517 H1521 0.930 . S
C1518 C1517 1.369 . S
C1518 C1527 1.429 . S
C1519 C1517 1.419 . S
C1519 C1520 1.363 . S
C1519 H1522 0.929 . S
C1520 C1519 1.363 . S
C1520 C1526 1.428 . S
H1521 C1517 0.930 . S
H1522 C1519 0.929 . S
S1523 N1524 1.613 . S
S1523 N1525 1.610 . S
N1524 S1523 1.613 . S
N1524 C1527 1.350 . S
N1525 S1523 1.610 . S
N1525 C1526 1.351 . S
C1526 C1520 1.428 . S
C1526 N1525 1.351 . S
C1526 C1527 1.434 . S
C1527 C1518 1.429 . S
C1527 N1524 1.350 . S
C1527 C1526 1.434 . S
C1528 C1529 1.369 . S
C1528 C1530 1.419 . S
C1528 H1532 0.930 . S
C1529 C1528 1.369 . S
C1529 C1538 1.429 . S
C1530 C1528 1.419 . S
C1530 C1531 1.363 . S
C1530 H1533 0.929 . S
C1531 C1530 1.363 . S
C1531 C1537 1.428 . S
H1532 C1528 0.930 . S
H1533 C1530 0.929 . S
S1534 N1535 1.613 . S
S1534 N1536 1.610 . S
N1535 S1534 1.613 . S
N1535 C1538 1.350 . S
N1536 S1534 1.610 . S
N1536 C1537 1.351 . S
C1537 C1531 1.428 . S
C1537 N1536 1.351 . S
C1537 C1538 1.434 . S
C1538 C1529 1.429 . S
C1538 N1535 1.350 . S
C1538 C1537 1.434 . S
C1539 C1540 1.369 . S
C1539 C1541 1.419 . S
C1539 H1543 0.930 . S
C1540 C1539 1.369 . S
C1540 C1549 1.429 . S
C1541 C1539 1.419 . S
C1541 C1542 1.363 . S
C1541 H1544 0.929 . S
C1542 C1541 1.363 . S
C1542 C1548 1.428 . S
H1543 C1539 0.930 . S
H1544 C1541 0.929 . S
S1545 N1546 1.613 . S
S1545 N1547 1.610 . S
N1546 S1545 1.613 . S
N1546 C1549 1.350 . S
N1547 S1545 1.610 . S
N1547 C1548 1.351 . S
C1548 C1542 1.428 . S
C1548 N1547 1.351 . S
C1548 C1549 1.434 . S
C1549 C1540 1.429 . S
C1549 N1546 1.350 . S
C1549 C1548 1.434 . S
C1550 C1551 1.369 . S
C1550 C1552 1.419 . S
C1550 H1554 0.930 . S
C1551 C1550 1.369 . S
C1551 C1560 1.429 . S
C1552 C1550 1.419 . S
C1552 C1553 1.363 . S
C1552 H1555 0.929 . S
C1553 C1552 1.363 . S
C1553 C1559 1.428 . S
H1554 C1550 0.930 . S
H1555 C1552 0.929 . S
S1556 N1557 1.613 . S
S1556 N1558 1.610 . S
N1557 S1556 1.613 . S
N1557 C1560 1.350 . S
N1558 S1556 1.610 . S
N1558 C1559 1.351 . S
C1559 C1553 1.428 . S
C1559 N1558 1.351 . S
C1559 C1560 1.434 . S
C1560 C1551 1.429 . S
C1560 N1557 1.350 . S
C1560 C1559 1.434 . S
C1561 C1562 1.369 . S
C1561 C1563 1.419 . S
C1561 H1565 0.930 . S
C1562 C1561 1.369 . S
C1562 C1571 1.429 . S
C1563 C1561 1.419 . S
C1563 C1564 1.363 . S
C1563 H1566 0.929 . S
C1564 C1563 1.363 . S
C1564 C1570 1.428 . S
H1565 C1561 0.930 . S
H1566 C1563 0.929 . S
S1567 N1568 1.613 . S
S1567 N1569 1.610 . S
N1568 S1567 1.613 . S
N1568 C1571 1.350 . S
N1569 S1567 1.610 . S
N1569 C1570 1.351 . S
C1570 C1564 1.428 . S
C1570 N1569 1.351 . S
C1570 C1571 1.434 . S
C1571 C1562 1.429 . S
C1571 N1568 1.350 . S
C1571 C1570 1.434 . S
C1572 C1573 1.369 . S
C1572 C1574 1.419 . S
C1572 H1576 0.930 . S
C1573 C1572 1.369 . S
C1573 C1582 1.429 . S
C1574 C1572 1.419 . S
C1574 C1575 1.363 . S
C1574 H1577 0.929 . S
C1575 C1574 1.363 . S
C1575 C1581 1.428 . S
H1576 C1572 0.930 . S
H1577 C1574 0.929 . S
S1578 N1579 1.613 . S
S1578 N1580 1.610 . S
N1579 S1578 1.613 . S
N1579 C1582 1.350 . S
N1580 S1578 1.610 . S
N1580 C1581 1.351 . S
C1581 C1575 1.428 . S
C1581 N1580 1.351 . S
C1581 C1582 1.434 . S
C1582 C1573 1.429 . S
C1582 N1579 1.350 . S
C1582 C1581 1.434 . S
C1583 C1584 1.369 1_545 S
C1583 C1585 1.419 . S
C1583 H1587 0.930 . S
C1584 C1583 1.369 1_565 S
C1584 C1593 1.429 . S
C1585 C1583 1.419 . S
C1585 C1586 1.363 . S
C1585 H1588 0.929 . S
C1586 C1585 1.363 . S
C1586 C1592 1.428 1_545 S
H1587 C1583 0.930 . S
H1588 C1585 0.929 . S
S1589 N1590 1.613 . S
S1589 N1591 1.610 . S
N1590 S1589 1.613 . S
N1590 C1593 1.350 . S
N1591 S1589 1.610 . S
N1591 C1592 1.351 . S
C1592 C1586 1.428 1_565 S
C1592 N1591 1.351 . S
C1592 C1593 1.434 . S
C1593 C1584 1.429 . S
C1593 N1590 1.350 . S
C1593 C1592 1.434 . S
C1594 C1595 1.369 . S
C1594 C1596 1.424 . S
C1594 H1598 0.930 . S
C1595 C1594 1.369 . S
C1595 C1604 1.427 1_655 S
C1596 C1594 1.424 . S
C1596 C1597 1.346 1_655 S
C1596 H1599 0.942 . S
C1597 C1596 1.346 1_455 S
C1597 C1603 1.428 . S
H1598 C1594 0.930 . S
H1599 C1596 0.942 . S
S1600 N1601 1.614 . S
S1600 N1602 1.610 . S
N1601 S1600 1.614 . S
N1601 C1604 1.350 . S
N1602 S1600 1.610 . S
N1602 C1603 1.351 . S
C1603 C1597 1.428 . S
C1603 N1602 1.351 . S
C1603 C1604 1.435 . S
C1604 C1595 1.427 1_455 S
C1604 N1601 1.350 . S
C1604 C1603 1.435 . S
C1605 C1606 1.369 . S
C1605 C1607 1.419 . S
C1605 H1609 0.930 . S
C1606 C1605 1.369 . S
C1606 C1615 1.429 . S
C1607 C1605 1.419 . S
C1607 C1608 1.363 . S
C1607 H1610 0.929 . S
C1608 C1607 1.363 . S
C1608 C1614 1.428 . S
H1609 C1605 0.930 . S
H1610 C1607 0.929 . S
S1611 N1612 1.613 . S
S1611 N1613 1.610 . S
N1612 S1611 1.613 . S
N1612 C1615 1.350 . S
N1613 S1611 1.610 . S
N1613 C1614 1.351 . S
C1614 C1608 1.428 . S
C1614 N1613 1.351 . S
C1614 C1615 1.434 . S
C1615 C1606 1.429 . S
C1615 N1612 1.350 . S
C1615 C1614 1.434 . S
C1616 C1617 1.369 1_565 S
C1616 C1618 1.419 . S
C1616 H1620 0.930 . S
C1617 C1616 1.369 1_545 S
C1617 C1626 1.429 . S
C1618 C1616 1.419 . S
C1618 C1619 1.363 . S
C1618 H1621 0.929 . S
C1619 C1618 1.363 . S
C1619 C1625 1.428 1_565 S
H1620 C1616 0.930 . S
H1621 C1618 0.929 . S
S1622 N1623 1.613 . S
S1622 N1624 1.610 . S
N1623 S1622 1.613 . S
N1623 C1626 1.350 . S
N1624 S1622 1.610 . S
N1624 C1625 1.351 . S
C1625 C1619 1.428 1_545 S
C1625 N1624 1.351 . S
C1625 C1626 1.434 . S
C1626 C1617 1.429 . S
C1626 N1623 1.350 . S
C1626 C1625 1.434 . S
C1627 C1628 1.369 1_655 S
C1627 C1629 1.419 . S
C1627 H1631 0.930 . S
C1628 C1627 1.369 1_455 S
C1628 C1637 1.429 . S
C1629 C1627 1.419 . S
C1629 C1630 1.363 . S
C1629 H1632 0.929 . S
C1630 C1629 1.363 . S
C1630 C1636 1.428 1_655 S
H1631 C1627 0.930 . S
H1632 C1629 0.929 . S
S1633 N1634 1.613 . S
S1633 N1635 1.610 . S
N1634 S1633 1.613 . S
N1634 C1637 1.350 . S
N1635 S1633 1.610 . S
N1635 C1636 1.351 . S
C1636 C1630 1.428 1_455 S
C1636 N1635 1.351 . S
C1636 C1637 1.434 . S
C1637 C1628 1.429 . S
C1637 N1634 1.350 . S
C1637 C1636 1.434 . S
C1638 C1639 1.369 . S
C1638 C1640 1.419 . S
C1638 H1642 0.930 . S
C1639 C1638 1.369 . S
C1639 C1648 1.429 1_455 S
C1640 C1638 1.419 . S
C1640 C1641 1.363 1_455 S
C1640 H1643 0.929 . S
C1641 C1640 1.363 1_655 S
C1641 C1647 1.428 . S
H1642 C1638 0.930 . S
H1643 C1640 0.929 . S
S1644 N1645 1.613 . S
S1644 N1646 1.610 . S
N1645 S1644 1.613 . S
N1645 C1648 1.350 . S
N1646 S1644 1.610 . S
N1646 C1647 1.351 . S
C1647 C1641 1.428 . S
C1647 N1646 1.351 . S
C1647 C1648 1.434 . S
C1648 C1639 1.429 1_655 S
C1648 N1645 1.350 . S
C1648 C1647 1.434 . S
C1649 C1650 1.369 . S
C1649 C1651 1.419 . S
C1649 H1653 0.930 . S
C1650 C1649 1.369 . S
C1650 C1659 1.429 . S
C1651 C1649 1.419 . S
C1651 C1652 1.363 . S
C1651 H1654 0.929 . S
C1652 C1651 1.363 . S
C1652 C1658 1.428 . S
H1653 C1649 0.930 . S
H1654 C1651 0.929 . S
S1655 N1656 1.613 . S
S1655 N1657 1.610 . S
N1656 S1655 1.613 . S
N1656 C1659 1.350 . S
N1657 S1655 1.610 . S
N1657 C1658 1.351 . S
C1658 C1652 1.428 . S
C1658 N1657 1.351 . S
C1658 C1659 1.434 . S
C1659 C1650 1.429 . S
C1659 N1656 1.350 . S
C1659 C1658 1.434 . S
C1660 C1661 1.369 . S
C1660 C1662 1.419 . S
C1660 H1664 0.930 . S
C1661 C1660 1.369 . S
C1661 C1670 1.429 1_565 S
C1662 C1660 1.419 . S
C1662 C1663 1.363 1_565 S
C1662 H1665 0.929 . S
C1663 C1662 1.363 1_545 S
C1663 C1669 1.428 . S
H1664 C1660 0.930 . S
H1665 C1662 0.929 . S
S1666 N1667 1.613 . S
S1666 N1668 1.610 . S
N1667 S1666 1.613 . S
N1667 C1670 1.350 . S
N1668 S1666 1.610 . S
N1668 C1669 1.351 . S
C1669 C1663 1.428 . S
C1669 N1668 1.351 . S
C1669 C1670 1.434 . S
C1670 C1661 1.429 1_545 S
C1670 N1667 1.350 . S
C1670 C1669 1.434 . S
C1671 C1672 1.390 . S
C1671 C1673 1.406 1_655 S
C1671 H1675 0.921 . S
C1672 C1671 1.390 . S
C1672 C1681 1.429 . S
C1673 C1671 1.406 1_455 S
C1673 C1674 1.363 . S
C1673 H1676 0.929 . S
C1674 C1673 1.363 . S
C1674 C1680 1.425 . S
H1675 C1671 0.921 . S
H1676 C1673 0.929 . S
S1677 N1678 1.613 . S
S1677 N1679 1.610 . S
N1678 S1677 1.613 . S
N1678 C1681 1.350 . S
N1679 S1677 1.610 . S
N1679 C1680 1.352 1_655 S
C1680 C1674 1.425 . S
C1680 N1679 1.352 1_455 S
C1680 C1681 1.436 1_455 S
C1681 C1672 1.429 . S
C1681 N1678 1.350 . S
C1681 C1680 1.436 1_655 S
C1682 C1683 1.369 . S
C1682 C1684 1.419 . S
C1682 H1686 0.930 . S
C1683 C1682 1.369 . S
C1683 C1692 1.429 . S
C1684 C1682 1.419 . S
C1684 C1685 1.363 . S
C1684 H1687 0.929 . S
C1685 C1684 1.363 . S
C1685 C1691 1.428 . S
H1686 C1682 0.930 . S
H1687 C1684 0.929 . S
S1688 N1689 1.613 . S
S1688 N1690 1.610 . S
N1689 S1688 1.613 . S
N1689 C1692 1.350 . S
N1690 S1688 1.610 . S
N1690 C1691 1.351 . S
C1691 C1685 1.428 . S
C1691 N1690 1.351 . S
C1691 C1692 1.434 . S
C1692 C1683 1.429 . S
C1692 N1689 1.350 . S
C1692 C1691 1.434 . S
C1693 C1694 1.369 . S
C1693 C1695 1.419 1_545 S
C1693 H1697 0.930 . S
C1694 C1693 1.369 . S
C1694 C1703 1.429 . S
C1695 C1693 1.419 1_565 S
C1695 C1696 1.363 . S
C1695 H1698 0.929 . S
C1696 C1695 1.363 . S
C1696 C1702 1.428 . S
H1697 C1693 0.930 . S
H1698 C1695 0.929 . S
S1699 N1700 1.613 1_565 S
S1699 N1701 1.610 . S
N1700 S1699 1.613 1_545 S
N1700 C1703 1.350 . S
N1701 S1699 1.610 . S
N1701 C1702 1.351 . S
C1702 C1696 1.428 . S
C1702 N1701 1.351 . S
C1702 C1703 1.434 1_565 S
C1703 C1694 1.429 . S
C1703 N1700 1.350 . S
C1703 C1702 1.434 1_545 S
C1704 C1705 1.369 . S
C1704 C1706 1.419 . S
C1704 H1708 0.930 . S
C1705 C1704 1.369 . S
C1705 C1714 1.429 . S
C1706 C1704 1.419 . S
C1706 C1707 1.363 . S
C1706 H1709 0.929 . S
C1707 C1706 1.363 . S
C1707 C1713 1.428 . S
H1708 C1704 0.930 . S
H1709 C1706 0.929 . S
S1710 N1711 1.613 . S
S1710 N1712 1.610 . S
N1711 S1710 1.613 . S
N1711 C1714 1.350 . S
N1712 S1710 1.610 . S
N1712 C1713 1.351 . S
C1713 C1707 1.428 . S
C1713 N1712 1.351 . S
C1713 C1714 1.434 . S
C1714 C1705 1.429 . S
C1714 N1711 1.350 . S
C1714 C1713 1.434 . S
C1715 C1716 1.369 . S
C1715 C1717 1.419 . S
C1715 H1719 0.930 . S
C1716 C1715 1.369 . S
C1716 C1725 1.429 . S
C1717 C1715 1.419 . S
C1717 C1718 1.363 . S
C1717 H1720 0.929 . S
C1718 C1717 1.363 . S
C1718 C1724 1.428 . S
H1719 C1715 0.930 . S
H1720 C1717 0.929 . S
S1721 N1722 1.613 . S
S1721 N1723 1.610 . S
N1722 S1721 1.613 . S
N1722 C1725 1.350 . S
N1723 S1721 1.610 . S
N1723 C1724 1.351 . S
C1724 C1718 1.428 . S
C1724 N1723 1.351 . S
C1724 C1725 1.434 . S
C1725 C1716 1.429 . S
C1725 N1722 1.350 . S
C1725 C1724 1.434 . S
C1726 C1727 1.369 . S
C1726 C1728 1.419 . S
C1726 H1730 0.930 . S
C1727 C1726 1.369 . S
C1727 C1736 1.429 . S
C1728 C1726 1.419 . S
C1728 C1729 1.363 . S
C1728 H1731 0.929 . S
C1729 C1728 1.363 . S
C1729 C1735 1.428 . S
H1730 C1726 0.930 . S
H1731 C1728 0.929 . S
S1732 N1733 1.613 . S
S1732 N1734 1.610 . S
N1733 S1732 1.613 . S
N1733 C1736 1.350 . S
N1734 S1732 1.610 . S
N1734 C1735 1.351 . S
C1735 C1729 1.428 . S
C1735 N1734 1.351 . S
C1735 C1736 1.434 . S
C1736 C1727 1.429 . S
C1736 N1733 1.350 . S
C1736 C1735 1.434 . S
C1737 C1738 1.369 . S
C1737 C1739 1.419 . S
C1737 H1741 0.930 . S
C1738 C1737 1.369 . S
C1738 C1747 1.429 . S
C1739 C1737 1.419 . S
C1739 C1740 1.363 . S
C1739 H1742 0.929 . S
C1740 C1739 1.363 . S
C1740 C1746 1.428 . S
H1741 C1737 0.930 . S
H1742 C1739 0.929 . S
S1743 N1744 1.613 . S
S1743 N1745 1.610 . S
N1744 S1743 1.613 . S
N1744 C1747 1.350 . S
N1745 S1743 1.610 . S
N1745 C1746 1.351 . S
C1746 C1740 1.428 . S
C1746 N1745 1.351 . S
C1746 C1747 1.434 . S
C1747 C1738 1.429 . S
C1747 N1744 1.350 . S
C1747 C1746 1.434 . S
C1748 C1749 1.369 . S
C1748 C1750 1.419 . S
C1748 H1752 0.930 . S
C1749 C1748 1.369 . S
C1749 C1758 1.429 . S
C1750 C1748 1.419 . S
C1750 C1751 1.363 . S
C1750 H1753 0.929 . S
C1751 C1750 1.363 . S
C1751 C1757 1.428 . S
H1752 C1748 0.930 . S
H1753 C1750 0.929 . S
S1754 N1755 1.613 . S
S1754 N1756 1.610 . S
N1755 S1754 1.613 . S
N1755 C1758 1.350 . S
N1756 S1754 1.610 . S
N1756 C1757 1.351 . S
C1757 C1751 1.428 . S
C1757 N1756 1.351 . S
C1757 C1758 1.434 . S
C1758 C1749 1.429 . S
C1758 N1755 1.350 . S
C1758 C1757 1.434 . S
C1759 C1760 1.369 . S
C1759 C1761 1.419 . S
C1759 H1763 0.930 . S
C1760 C1759 1.369 . S
C1760 C1769 1.429 . S
C1761 C1759 1.419 . S
C1761 C1762 1.363 . S
C1761 H1764 0.929 . S
C1762 C1761 1.363 . S
C1762 C1768 1.428 . S
H1763 C1759 0.930 . S
H1764 C1761 0.929 . S
S1765 N1766 1.613 . S
S1765 N1767 1.610 . S
N1766 S1765 1.613 . S
N1766 C1769 1.350 . S
N1767 S1765 1.610 . S
N1767 C1768 1.351 . S
C1768 C1762 1.428 . S
C1768 N1767 1.351 . S
C1768 C1769 1.434 . S
C1769 C1760 1.429 . S
C1769 N1766 1.350 . S
C1769 C1768 1.434 . S
C1770 C1771 1.369 . S
C1770 C1772 1.419 . S
C1770 H1774 0.930 . S
C1771 C1770 1.369 . S
C1771 C1780 1.429 . S
C1772 C1770 1.419 . S
C1772 C1773 1.363 . S
C1772 H1775 0.929 . S
C1773 C1772 1.363 . S
C1773 C1779 1.428 . S
H1774 C1770 0.930 . S
H1775 C1772 0.929 . S
S1776 N1777 1.613 . S
S1776 N1778 1.610 . S
N1777 S1776 1.613 . S
N1777 C1780 1.350 . S
N1778 S1776 1.610 . S
N1778 C1779 1.351 . S
C1779 C1773 1.428 . S
C1779 N1778 1.351 . S
C1779 C1780 1.434 . S
C1780 C1771 1.429 . S
C1780 N1777 1.350 . S
C1780 C1779 1.434 . S
C1781 C1782 1.369 . S
C1781 C1783 1.419 . S
C1781 H1785 0.930 . S
C1782 C1781 1.369 . S
C1782 C1791 1.429 . S
C1783 C1781 1.419 . S
C1783 C1784 1.363 . S
C1783 H1786 0.929 . S
C1784 C1783 1.363 . S
C1784 C1790 1.428 . S
H1785 C1781 0.930 . S
H1786 C1783 0.929 . S
S1787 N1788 1.613 . S
S1787 N1789 1.610 . S
N1788 S1787 1.613 . S
N1788 C1791 1.350 . S
N1789 S1787 1.610 . S
N1789 C1790 1.351 . S
C1790 C1784 1.428 . S
C1790 N1789 1.351 . S
C1790 C1791 1.434 . S
C1791 C1782 1.429 . S
C1791 N1788 1.350 . S
C1791 C1790 1.434 . S
C1792 C1793 1.369 . S
C1792 C1794 1.419 . S
C1792 H1796 0.930 . S
C1793 C1792 1.369 . S
C1793 C1802 1.429 . S
C1794 C1792 1.419 . S
C1794 C1795 1.363 . S
C1794 H1797 0.929 . S
C1795 C1794 1.363 . S
C1795 C1801 1.428 . S
H1796 C1792 0.930 . S
H1797 C1794 0.929 . S
S1798 N1799 1.613 . S
S1798 N1800 1.610 . S
N1799 S1798 1.613 . S
N1799 C1802 1.350 . S
N1800 S1798 1.610 . S
N1800 C1801 1.351 . S
C1801 C1795 1.428 . S
C1801 N1800 1.351 . S
C1801 C1802 1.434 . S
C1802 C1793 1.429 . S
C1802 N1799 1.350 . S
C1802 C1801 1.434 . S
C1803 C1804 1.369 . S
C1803 C1805 1.419 1_556 S
C1803 H1807 0.930 1_556 S
C1804 C1803 1.369 . S
C1804 C1813 1.429 . S
C1805 C1803 1.419 1_554 S
C1805 C1806 1.363 . S
C1805 H1808 0.929 . S
C1806 C1805 1.363 . S
C1806 C1812 1.428 1_554 S
H1807 C1803 0.930 1_554 S
H1808 C1805 0.929 . S
S1809 N1810 1.613 . S
S1809 N1811 1.610 . S
N1810 S1809 1.613 . S
N1810 C1813 1.350 . S
N1811 S1809 1.610 . S
N1811 C1812 1.351 . S
C1812 C1806 1.428 1_556 S
C1812 N1811 1.351 . S
C1812 C1813 1.434 . S
C1813 C1804 1.429 . S
C1813 N1810 1.350 . S
C1813 C1812 1.434 . S
C1814 C1815 1.369 . S
C1814 C1816 1.419 1_556 S
C1814 H1818 0.930 . S
C1815 C1814 1.369 . S
C1815 C1824 1.429 . S
C1816 C1814 1.419 1_554 S
C1816 C1817 1.363 . S
C1816 H1819 0.929 . S
C1817 C1816 1.363 . S
C1817 C1823 1.428 1_554 S
H1818 C1814 0.930 . S
H1819 C1816 0.929 . S
S1820 N1821 1.613 . S
S1820 N1822 1.610 . S
N1821 S1820 1.613 . S
N1821 C1824 1.350 . S
N1822 S1820 1.610 . S
N1822 C1823 1.351 . S
C1823 C1817 1.428 1_556 S
C1823 N1822 1.351 . S
C1823 C1824 1.434 . S
C1824 C1815 1.429 . S
C1824 N1821 1.350 . S
C1824 C1823 1.434 . S
C1825 C1826 1.369 . S
C1825 C1827 1.419 1_556 S
C1825 H1829 0.930 1_556 S
C1826 C1825 1.369 . S
C1826 C1835 1.429 . S
C1827 C1825 1.419 1_554 S
C1827 C1828 1.363 . S
C1827 H1830 0.929 . S
C1828 C1827 1.363 . S
C1828 C1834 1.428 1_554 S
H1829 C1825 0.930 1_554 S
H1830 C1827 0.929 . S
S1831 N1832 1.613 . S
S1831 N1833 1.610 . S
N1832 S1831 1.613 . S
N1832 C1835 1.350 . S
N1833 S1831 1.610 . S
N1833 C1834 1.351 . S
C1834 C1828 1.428 1_556 S
C1834 N1833 1.351 . S
C1834 C1835 1.434 . S
C1835 C1826 1.429 . S
C1835 N1832 1.350 . S
C1835 C1834 1.434 . S
C1836 C1837 1.369 . S
C1836 C1838 1.419 . S
C1836 H1840 0.930 . S
C1837 C1836 1.369 . S
C1837 C1846 1.429 . S
C1838 C1836 1.419 . S
C1838 C1839 1.363 . S
C1838 H1841 0.929 . S
C1839 C1838 1.363 . S
C1839 C1845 1.428 . S
H1840 C1836 0.930 . S
H1841 C1838 0.929 . S
S1842 N1843 1.615 . S
S1842 N1844 1.610 1_556 S
N1843 S1842 1.615 . S
N1843 C1846 1.350 . S
N1844 S1842 1.610 1_554 S
N1844 C1845 1.351 1_554 S
C1845 C1839 1.428 . S
C1845 N1844 1.351 1_556 S
C1845 C1846 1.434 . S
C1846 C1837 1.429 . S
C1846 N1843 1.350 . S
C1846 C1845 1.434 . S
C1847 C1848 1.369 . S
C1847 C1849 1.419 . S
C1847 H1851 0.930 . S
C1848 C1847 1.369 . S
C1848 C1857 1.429 1_556 S
C1849 C1847 1.419 . S
C1849 C1850 1.363 . S
C1849 H1852 0.929 . S
C1850 C1849 1.363 . S
C1850 C1856 1.428 . S
H1851 C1847 0.930 . S
H1852 C1849 0.929 . S
S1853 N1854 1.613 . S
S1853 N1855 1.610 1_554 S
N1854 S1853 1.613 . S
N1854 C1857 1.350 . S
N1855 S1853 1.610 1_556 S
N1855 C1856 1.351 . S
C1856 C1850 1.428 . S
C1856 N1855 1.351 . S
C1856 C1857 1.434 1_556 S
C1857 C1848 1.429 1_554 S
C1857 N1854 1.350 . S
C1857 C1856 1.434 1_554 S
C1858 C1859 1.369 . S
C1858 C1860 1.419 . S
C1858 H1862 0.930 1_556 S
C1859 C1858 1.369 . S
C1859 C1868 1.429 . S
C1860 C1858 1.419 . S
C1860 C1861 1.363 . S
C1860 H1863 0.929 . S
C1861 C1860 1.363 . S
C1861 C1867 1.428 . S
H1862 C1858 0.930 1_554 S
H1863 C1860 0.929 . S
S1864 N1865 1.613 . S
S1864 N1866 1.610 . S
N1865 S1864 1.613 . S
N1865 C1868 1.350 . S
N1866 S1864 1.610 . S
N1866 C1867 1.351 . S
C1867 C1861 1.428 . S
C1867 N1866 1.351 . S
C1867 C1868 1.434 . S
C1868 C1859 1.429 . S
C1868 N1865 1.350 . S
C1868 C1867 1.434 . S
C1869 C1870 1.369 . S
C1869 C1871 1.419 . S
C1869 H1873 0.930 . S
C1870 C1869 1.369 . S
C1870 C1879 1.429 . S
C1871 C1869 1.419 . S
C1871 C1872 1.363 . S
C1871 H1874 0.929 . S
C1872 C1871 1.363 . S
C1872 C1878 1.428 . S
H1873 C1869 0.930 . S
H1874 C1871 0.929 . S
S1875 N1876 1.613 . S
S1875 N1877 1.610 . S
N1876 S1875 1.613 . S
N1876 C1879 1.350 . S
N1877 S1875 1.610 . S
N1877 C1878 1.351 . S
C1878 C1872 1.428 . S
C1878 N1877 1.351 . S
C1878 C1879 1.434 . S
C1879 C1870 1.429 . S
C1879 N1876 1.350 . S
C1879 C1878 1.434 . S
C1880 C1881 1.369 . S
C1880 C1882 1.419 . S
C1880 H1884 0.930 . S
C1881 C1880 1.369 . S
C1881 C1890 1.429 . S
C1882 C1880 1.419 . S
C1882 C1883 1.363 . S
C1882 H1885 0.929 . S
C1883 C1882 1.363 . S
C1883 C1889 1.428 . S
H1884 C1880 0.930 . S
H1885 C1882 0.929 . S
S1886 N1887 1.613 . S
S1886 N1888 1.610 . S
N1887 S1886 1.613 . S
N1887 C1890 1.350 . S
N1888 S1886 1.610 . S
N1888 C1889 1.351 . S
C1889 C1883 1.428 . S
C1889 N1888 1.351 . S
C1889 C1890 1.434 . S
C1890 C1881 1.429 . S
C1890 N1887 1.350 . S
C1890 C1889 1.434 . S
C1891 C1892 1.369 . S
C1891 C1893 1.419 . S
C1891 H1895 0.930 . S
C1892 C1891 1.369 . S
C1892 C1901 1.429 . S
C1893 C1891 1.419 . S
C1893 C1894 1.363 . S
C1893 H1896 0.929 . S
C1894 C1893 1.363 . S
C1894 C1900 1.428 . S
H1895 C1891 0.930 . S
H1896 C1893 0.929 . S
S1897 N1898 1.613 . S
S1897 N1899 1.610 . S
N1898 S1897 1.613 . S
N1898 C1901 1.350 . S
N1899 S1897 1.610 . S
N1899 C1900 1.351 . S
C1900 C1894 1.428 . S
C1900 N1899 1.351 . S
C1900 C1901 1.434 . S
C1901 C1892 1.429 . S
C1901 N1898 1.350 . S
C1901 C1900 1.434 . S
C1902 C1903 1.369 . S
C1902 C1904 1.419 . S
C1902 H1906 0.930 . S
C1903 C1902 1.369 . S
C1903 C1912 1.429 . S
C1904 C1902 1.419 . S
C1904 C1905 1.363 . S
C1904 H1907 0.929 . S
C1905 C1904 1.363 . S
C1905 C1911 1.428 . S
H1906 C1902 0.930 . S
H1907 C1904 0.929 . S
S1908 N1909 1.613 . S
S1908 N1910 1.610 . S
N1909 S1908 1.613 . S
N1909 C1912 1.350 . S
N1910 S1908 1.610 . S
N1910 C1911 1.351 . S
C1911 C1905 1.428 . S
C1911 N1910 1.351 . S
C1911 C1912 1.434 . S
C1912 C1903 1.429 . S
C1912 N1909 1.350 . S
C1912 C1911 1.434 . S
C1913 C1914 1.369 . S
C1913 C1915 1.419 . S
C1913 H1917 0.930 . S
C1914 C1913 1.369 . S
C1914 C1923 1.429 . S
C1915 C1913 1.419 . S
C1915 C1916 1.363 . S
C1915 H1918 0.929 . S
C1916 C1915 1.363 . S
C1916 C1922 1.428 . S
H1917 C1913 0.930 . S
H1918 C1915 0.929 . S
S1919 N1920 1.613 . S
S1919 N1921 1.610 . S
N1920 S1919 1.613 . S
N1920 C1923 1.350 . S
N1921 S1919 1.610 . S
N1921 C1922 1.351 . S
C1922 C1916 1.428 . S
C1922 N1921 1.351 . S
C1922 C1923 1.434 . S
C1923 C1914 1.429 . S
C1923 N1920 1.350 . S
C1923 C1922 1.434 . S
C1924 C1925 1.369 . S
C1924 C1926 1.419 . S
C1924 H1928 0.930 . S
C1925 C1924 1.369 . S
C1925 C1934 1.429 . S
C1926 C1924 1.419 . S
C1926 C1927 1.363 . S
C1926 H1929 0.929 . S
C1927 C1926 1.363 . S
C1927 C1933 1.428 . S
H1928 C1924 0.930 . S
H1929 C1926 0.929 . S
S1930 N1931 1.613 . S
S1930 N1932 1.610 . S
N1931 S1930 1.613 . S
N1931 C1934 1.350 . S
N1932 S1930 1.610 . S
N1932 C1933 1.351 . S
C1933 C1927 1.428 . S
C1933 N1932 1.351 . S
C1933 C1934 1.434 . S
C1934 C1925 1.429 . S
C1934 N1931 1.350 . S
C1934 C1933 1.434 . S
C1935 C1936 1.369 . S
C1935 C1937 1.419 . S
C1935 H1939 0.930 . S
C1936 C1935 1.369 . S
C1936 C1945 1.429 . S
C1937 C1935 1.419 . S
C1937 C1938 1.363 . S
C1937 H1940 0.929 . S
C1938 C1937 1.363 . S
C1938 C1944 1.428 . S
H1939 C1935 0.930 . S
H1940 C1937 0.929 . S
S1941 N1942 1.613 . S
S1941 N1943 1.610 . S
N1942 S1941 1.613 . S
N1942 C1945 1.350 . S
N1943 S1941 1.610 . S
N1943 C1944 1.351 . S
C1944 C1938 1.428 . S
C1944 N1943 1.351 . S
C1944 C1945 1.434 . S
C1945 C1936 1.429 . S
C1945 N1942 1.350 . S
C1945 C1944 1.434 . S
C1946 C1947 1.369 . S
C1946 C1948 1.419 . S
C1946 H1950 0.930 . S
C1947 C1946 1.369 . S
C1947 C1956 1.429 . S
C1948 C1946 1.419 . S
C1948 C1949 1.363 . S
C1948 H1951 0.929 . S
C1949 C1948 1.363 . S
C1949 C1955 1.428 . S
H1950 C1946 0.930 . S
H1951 C1948 0.929 . S
S1952 N1953 1.613 . S
S1952 N1954 1.610 . S
N1953 S1952 1.613 . S
N1953 C1956 1.350 . S
N1954 S1952 1.610 . S
N1954 C1955 1.351 . S
C1955 C1949 1.428 . S
C1955 N1954 1.351 . S
C1955 C1956 1.434 . S
C1956 C1947 1.429 . S
C1956 N1953 1.350 . S
C1956 C1955 1.434 . S
C1957 C1958 1.369 . S
C1957 C1959 1.419 . S
C1957 H1961 0.930 . S
C1958 C1957 1.369 . S
C1958 C1967 1.429 . S
C1959 C1957 1.419 . S
C1959 C1960 1.363 . S
C1959 H1962 0.929 . S
C1960 C1959 1.363 . S
C1960 C1966 1.428 . S
H1961 C1957 0.930 . S
H1962 C1959 0.929 . S
S1963 N1964 1.613 . S
S1963 N1965 1.610 . S
N1964 S1963 1.613 . S
N1964 C1967 1.350 . S
N1965 S1963 1.610 . S
N1965 C1966 1.351 . S
C1966 C1960 1.428 . S
C1966 N1965 1.351 . S
C1966 C1967 1.434 . S
C1967 C1958 1.429 . S
C1967 N1964 1.350 . S
C1967 C1966 1.434 . S
C1968 C1969 1.369 . S
C1968 C1970 1.419 . S
C1968 H1972 0.930 . S
C1969 C1968 1.369 . S
C1969 C1978 1.429 . S
C1970 C1968 1.419 . S
C1970 C1971 1.363 . S
C1970 H1973 0.929 . S
C1971 C1970 1.363 . S
C1971 C1977 1.428 . S
H1972 C1968 0.930 . S
H1973 C1970 0.929 . S
S1974 N1975 1.613 . S
S1974 N1976 1.610 . S
N1975 S1974 1.613 . S
N1975 C1978 1.350 . S
N1976 S1974 1.610 . S
N1976 C1977 1.351 . S
C1977 C1971 1.428 . S
C1977 N1976 1.351 . S
C1977 C1978 1.434 . S
C1978 C1969 1.429 . S
C1978 N1975 1.350 . S
C1978 C1977 1.434 . S
C1979 C1980 1.369 . S
C1979 C1981 1.419 . S
C1979 H1983 0.930 . S
C1980 C1979 1.369 . S
C1980 C1989 1.429 . S
C1981 C1979 1.419 . S
C1981 C1982 1.363 . S
C1981 H1984 0.929 . S
C1982 C1981 1.363 . S
C1982 C1988 1.428 . S
H1983 C1979 0.930 . S
H1984 C1981 0.929 . S
S1985 N1986 1.613 . S
S1985 N1987 1.610 . S
N1986 S1985 1.613 . S
N1986 C1989 1.350 . S
N1987 S1985 1.610 . S
N1987 C1988 1.351 . S
C1988 C1982 1.428 . S
C1988 N1987 1.351 . S
C1988 C1989 1.434 . S
C1989 C1980 1.429 . S
C1989 N1986 1.350 . S
C1989 C1988 1.434 . S
C1990 C1991 1.369 . S
C1990 C1992 1.419 . S
C1990 H1994 0.930 . S
C1991 C1990 1.369 . S
C1991 C2000 1.429 . S
C1992 C1990 1.419 . S
C1992 C1993 1.363 . S
C1992 H1995 0.929 . S
C1993 C1992 1.363 . S
C1993 C1999 1.428 . S
H1994 C1990 0.930 . S
H1995 C1992 0.929 . S
S1996 N1997 1.613 . S
S1996 N1998 1.610 . S
N1997 S1996 1.613 . S
N1997 C2000 1.350 . S
N1998 S1996 1.610 . S
N1998 C1999 1.351 . S
C1999 C1993 1.428 . S
C1999 N1998 1.351 . S
C1999 C2000 1.434 . S
C2000 C1991 1.429 . S
C2000 N1997 1.350 . S
C2000 C1999 1.434 . S
C2001 C2002 1.369 . S
C2001 C2003 1.419 . S
C2001 H2005 0.930 . S
C2002 C2001 1.369 . S
C2002 C2011 1.429 . S
C2003 C2001 1.419 . S
C2003 C2004 1.363 1_554 S
C2003 H2006 0.929 . S
C2004 C2003 1.363 1_556 S
C2004 C2010 1.428 . S
H2005 C2001 0.930 . S
H2006 C2003 0.929 . S
S2007 N2008 1.613 . S
S2007 N2009 1.610 . S
N2008 S2007 1.613 . S
N2008 C2011 1.350 1_556 S
N2009 S2007 1.610 . S
N2009 C2010 1.351 . S
C2010 C2004 1.428 . S
C2010 N2009 1.351 . S
C2010 C2011 1.434 1_556 S
C2011 C2002 1.429 . S
C2011 N2008 1.350 1_554 S
C2011 C2010 1.434 1_554 S
C2012 C2013 1.369 1_554 S
C2012 C2014 1.419 . S
C2012 H2016 0.930 . S
C2013 C2012 1.369 1_556 S
C2013 C2022 1.429 . S
C2014 C2012 1.419 . S
C2014 C2015 1.363 . S
C2014 H2017 0.929 . S
C2015 C2014 1.363 . S
C2015 C2021 1.428 . S
H2016 C2012 0.930 . S
H2017 C2014 0.929 . S
S2018 N2019 1.613 . S
S2018 N2020 1.610 1_556 S
N2019 S2018 1.613 . S
N2019 C2022 1.350 . S
N2020 S2018 1.610 1_554 S
N2020 C2021 1.351 . S
C2021 C2015 1.428 . S
C2021 N2020 1.351 . S
C2021 C2022 1.434 1_554 S
C2022 C2013 1.429 . S
C2022 N2019 1.350 . S
C2022 C2021 1.434 1_556 S
C2023 C2024 1.369 . S
C2023 C2025 1.419 . S
C2023 H2027 0.930 . S
C2024 C2023 1.369 . S
C2024 C2033 1.429 . S
C2025 C2023 1.419 . S
C2025 C2026 1.363 1_554 S
C2025 H2028 0.929 . S
C2026 C2025 1.363 1_556 S
C2026 C2032 1.428 . S
H2027 C2023 0.930 . S
H2028 C2025 0.929 . S
S2029 N2030 1.613 1_556 S
S2029 N2031 1.610 . S
N2030 S2029 1.613 1_554 S
N2030 C2033 1.350 . S
N2031 S2029 1.610 . S
N2031 C2032 1.351 . S
C2032 C2026 1.428 . S
C2032 N2031 1.351 . S
C2032 C2033 1.434 1_556 S
C2033 C2024 1.429 . S
C2033 N2030 1.350 . S
C2033 C2032 1.434 1_554 S
C2034 C2035 1.369 . S
C2034 C2036 1.419 . S
C2034 H2038 0.930 . S
C2035 C2034 1.369 . S
C2035 C2044 1.429 . S
C2036 C2034 1.419 . S
C2036 C2037 1.363 . S
C2036 H2039 0.929 . S
C2037 C2036 1.363 . S
C2037 C2043 1.428 . S
H2038 C2034 0.930 . S
H2039 C2036 0.929 . S
S2040 N2041 1.613 . S
S2040 N2042 1.610 . S
N2041 S2040 1.613 . S
N2041 C2044 1.350 . S
N2042 S2040 1.610 . S
N2042 C2043 1.351 . S
C2043 C2037 1.428 . S
C2043 N2042 1.351 . S
C2043 C2044 1.434 . S
C2044 C2035 1.429 . S
C2044 N2041 1.350 . S
C2044 C2043 1.434 . S
C2045 C2046 1.369 . S
C2045 C2047 1.419 . S
C2045 H2049 0.930 . S
C2046 C2045 1.369 . S
C2046 C2055 1.429 . S
C2047 C2045 1.419 . S
C2047 C2048 1.363 . S
C2047 H2050 0.929 . S
C2048 C2047 1.363 . S
C2048 C2054 1.428 . S
H2049 C2045 0.930 . S
H2050 C2047 0.929 . S
S2051 N2052 1.613 . S
S2051 N2053 1.610 . S
N2052 S2051 1.613 . S
N2052 C2055 1.350 . S
N2053 S2051 1.610 . S
N2053 C2054 1.351 . S
C2054 C2048 1.428 . S
C2054 N2053 1.351 . S
C2054 C2055 1.434 . S
C2055 C2046 1.429 . S
C2055 N2052 1.350 . S
C2055 C2054 1.434 . S
C2056 C2057 1.369 . S
C2056 C2058 1.419 . S
C2056 H2060 0.930 . S
C2057 C2056 1.369 . S
C2057 C2066 1.429 . S
C2058 C2056 1.419 . S
C2058 C2059 1.363 . S
C2058 H2061 0.929 . S
C2059 C2058 1.363 . S
C2059 C2065 1.428 . S
H2060 C2056 0.930 . S
H2061 C2058 0.929 . S
S2062 N2063 1.613 . S
S2062 N2064 1.610 . S
N2063 S2062 1.613 . S
N2063 C2066 1.350 . S
N2064 S2062 1.610 . S
N2064 C2065 1.351 . S
C2065 C2059 1.428 . S
C2065 N2064 1.351 . S
C2065 C2066 1.434 . S
C2066 C2057 1.429 . S
C2066 N2063 1.350 . S
C2066 C2065 1.434 . S
C2067 C2068 1.369 . S
C2067 C2069 1.419 . S
C2067 H2071 0.930 . S
C2068 C2067 1.369 . S
C2068 C2077 1.429 . S
C2069 C2067 1.419 . S
C2069 C2070 1.363 . S
C2069 H2072 0.929 . S
C2070 C2069 1.363 . S
C2070 C2076 1.428 . S
H2071 C2067 0.930 . S
H2072 C2069 0.929 . S
S2073 N2074 1.613 . S
S2073 N2075 1.610 . S
N2074 S2073 1.613 . S
N2074 C2077 1.350 . S
N2075 S2073 1.610 . S
N2075 C2076 1.351 . S
C2076 C2070 1.428 . S
C2076 N2075 1.351 . S
C2076 C2077 1.434 . S
C2077 C2068 1.429 . S
C2077 N2074 1.350 . S
C2077 C2076 1.434 . S
C2078 C2079 1.369 . S
C2078 C2080 1.419 . S
C2078 H2082 0.930 . S
C2079 C2078 1.369 . S
C2079 C2088 1.429 . S
C2080 C2078 1.419 . S
C2080 C2081 1.363 . S
C2080 H2083 0.929 . S
C2081 C2080 1.363 . S
C2081 C2087 1.428 . S
H2082 C2078 0.930 . S
H2083 C2080 0.929 . S
S2084 N2085 1.613 . S
S2084 N2086 1.610 . S
N2085 S2084 1.613 . S
N2085 C2088 1.350 . S
N2086 S2084 1.610 . S
N2086 C2087 1.351 . S
C2087 C2081 1.428 . S
C2087 N2086 1.351 . S
C2087 C2088 1.434 . S
C2088 C2079 1.429 . S
C2088 N2085 1.350 . S
C2088 C2087 1.434 . S
C2089 C2090 1.369 . S
C2089 C2091 1.419 . S
C2089 H2093 0.930 . S
C2090 C2089 1.369 . S
C2090 C2099 1.429 . S
C2091 C2089 1.419 . S
C2091 C2092 1.363 . S
C2091 H2094 0.929 . S
C2092 C2091 1.363 . S
C2092 C2098 1.428 . S
H2093 C2089 0.930 . S
H2094 C2091 0.929 . S
S2095 N2096 1.613 . S
S2095 N2097 1.610 . S
N2096 S2095 1.613 . S
N2096 C2099 1.350 . S
N2097 S2095 1.610 . S
N2097 C2098 1.351 . S
C2098 C2092 1.428 . S
C2098 N2097 1.351 . S
C2098 C2099 1.434 . S
C2099 C2090 1.429 . S
C2099 N2096 1.350 . S
C2099 C2098 1.434 . S
C2100 C2101 1.369 . S
C2100 C2102 1.419 . S
C2100 H2104 0.930 . S
C2101 C2100 1.369 . S
C2101 C2110 1.429 . S
C2102 C2100 1.419 . S
C2102 C2103 1.363 . S
C2102 H2105 0.929 . S
C2103 C2102 1.363 . S
C2103 C2109 1.428 . S
H2104 C2100 0.930 . S
H2105 C2102 0.929 . S
S2106 N2107 1.613 . S
S2106 N2108 1.610 . S
N2107 S2106 1.613 . S
N2107 C2110 1.350 . S
N2108 S2106 1.610 . S
N2108 C2109 1.351 . S
C2109 C2103 1.428 . S
C2109 N2108 1.351 . S
C2109 C2110 1.434 . S
C2110 C2101 1.429 . S
C2110 N2107 1.350 . S
C2110 C2109 1.434 . S
C2111 C2112 1.369 . S
C2111 C2113 1.419 . S
C2111 H2115 0.930 . S
C2112 C2111 1.369 . S
C2112 C2121 1.429 . S
C2113 C2111 1.419 . S
C2113 C2114 1.363 . S
C2113 H2116 0.929 . S
C2114 C2113 1.363 . S
C2114 C2120 1.428 . S
H2115 C2111 0.930 . S
H2116 C2113 0.929 . S
S2117 N2118 1.613 . S
S2117 N2119 1.610 . S
N2118 S2117 1.613 . S
N2118 C2121 1.350 . S
N2119 S2117 1.610 . S
N2119 C2120 1.351 . S
C2120 C2114 1.428 . S
C2120 N2119 1.351 . S
C2120 C2121 1.434 . S
C2121 C2112 1.429 . S
C2121 N2118 1.350 . S
C2121 C2120 1.434 . S
C2122 C2123 1.369 . S
C2122 C2124 1.419 . S
C2122 H2126 0.930 . S
C2123 C2122 1.369 . S
C2123 C2132 1.429 . S
C2124 C2122 1.419 . S
C2124 C2125 1.363 . S
C2124 H2127 0.929 . S
C2125 C2124 1.363 . S
C2125 C2131 1.428 . S
H2126 C2122 0.930 . S
H2127 C2124 0.929 . S
S2128 N2129 1.613 . S
S2128 N2130 1.610 . S
N2129 S2128 1.613 . S
N2129 C2132 1.350 . S
N2130 S2128 1.610 . S
N2130 C2131 1.351 . S
C2131 C2125 1.428 . S
C2131 N2130 1.351 . S
C2131 C2132 1.434 . S
C2132 C2123 1.429 . S
C2132 N2129 1.350 . S
C2132 C2131 1.434 . S
C2133 C2134 1.369 . S
C2133 C2135 1.419 . S
C2133 H2137 0.930 . S
C2134 C2133 1.369 . S
C2134 C2143 1.429 . S
C2135 C2133 1.419 . S
C2135 C2136 1.363 . S
C2135 H2138 0.929 . S
C2136 C2135 1.363 . S
C2136 C2142 1.428 . S
H2137 C2133 0.930 . S
H2138 C2135 0.929 . S
S2139 N2140 1.613 . S
S2139 N2141 1.610 . S
N2140 S2139 1.613 . S
N2140 C2143 1.350 . S
N2141 S2139 1.610 . S
N2141 C2142 1.351 . S
C2142 C2136 1.428 . S
C2142 N2141 1.351 . S
C2142 C2143 1.434 . S
C2143 C2134 1.429 . S
C2143 N2140 1.350 . S
C2143 C2142 1.434 . S
C2144 C2145 1.369 . S
C2144 C2146 1.419 . S
C2144 H2148 0.930 . S
C2145 C2144 1.369 . S
C2145 C2154 1.429 . S
C2146 C2144 1.419 . S
C2146 C2147 1.363 . S
C2146 H2149 0.929 . S
C2147 C2146 1.363 . S
C2147 C2153 1.428 . S
H2148 C2144 0.930 . S
H2149 C2146 0.929 . S
S2150 N2151 1.613 . S
S2150 N2152 1.610 . S
N2151 S2150 1.613 . S
N2151 C2154 1.350 . S
N2152 S2150 1.610 . S
N2152 C2153 1.351 . S
C2153 C2147 1.428 . S
C2153 N2152 1.351 . S
C2153 C2154 1.434 . S
C2154 C2145 1.429 . S
C2154 N2151 1.350 . S
C2154 C2153 1.434 . S
C2155 C2156 1.369 . S
C2155 C2157 1.419 . S
C2155 H2159 0.930 . S
C2156 C2155 1.369 . S
C2156 C2165 1.429 . S
C2157 C2155 1.419 . S
C2157 C2158 1.363 . S
C2157 H2160 0.929 . S
C2158 C2157 1.363 . S
C2158 C2164 1.428 . S
H2159 C2155 0.930 . S
H2160 C2157 0.929 . S
S2161 N2162 1.613 . S
S2161 N2163 1.610 . S
N2162 S2161 1.613 . S
N2162 C2165 1.350 . S
N2163 S2161 1.610 . S
N2163 C2164 1.351 . S
C2164 C2158 1.428 . S
C2164 N2163 1.351 . S
C2164 C2165 1.434 . S
C2165 C2156 1.429 . S
C2165 N2162 1.350 . S
C2165 C2164 1.434 . S
C2166 C2167 1.369 . S
C2166 C2168 1.419 . S
C2166 H2170 0.930 . S
C2167 C2166 1.369 . S
C2167 C2176 1.429 . S
C2168 C2166 1.419 . S
C2168 C2169 1.363 . S
C2168 H2171 0.929 . S
C2169 C2168 1.363 . S
C2169 C2175 1.428 . S
H2170 C2166 0.930 . S
H2171 C2168 0.929 . S
S2172 N2173 1.613 . S
S2172 N2174 1.610 . S
N2173 S2172 1.613 . S
N2173 C2176 1.350 . S
N2174 S2172 1.610 . S
N2174 C2175 1.351 . S
C2175 C2169 1.428 . S
C2175 N2174 1.351 . S
C2175 C2176 1.434 . S
C2176 C2167 1.429 . S
C2176 N2173 1.350 . S
C2176 C2175 1.434 . S
C2177 C2178 1.369 . S
C2177 C2179 1.419 . S
C2177 H2181 0.930 . S
C2178 C2177 1.369 . S
C2178 C2187 1.429 . S
C2179 C2177 1.419 . S
C2179 C2180 1.363 . S
C2179 H2182 0.929 . S
C2180 C2179 1.363 . S
C2180 C2186 1.428 . S
H2181 C2177 0.930 . S
H2182 C2179 0.929 . S
S2183 N2184 1.613 . S
S2183 N2185 1.610 . S
N2184 S2183 1.613 . S
N2184 C2187 1.350 . S
N2185 S2183 1.610 . S
N2185 C2186 1.351 . S
C2186 C2180 1.428 . S
C2186 N2185 1.351 . S
C2186 C2187 1.434 . S
C2187 C2178 1.429 . S
C2187 N2184 1.350 . S
C2187 C2186 1.434 . S
C2188 C2189 1.369 . S
C2188 C2190 1.419 . S
C2188 H2192 0.930 . S
C2189 C2188 1.369 . S
C2189 C2198 1.429 . S
C2190 C2188 1.419 . S
C2190 C2191 1.363 . S
C2190 H2193 0.929 . S
C2191 C2190 1.363 . S
C2191 C2197 1.428 . S
H2192 C2188 0.930 . S
H2193 C2190 0.929 . S
S2194 N2195 1.613 . S
S2194 N2196 1.610 . S
N2195 S2194 1.613 . S
N2195 C2198 1.350 . S
N2196 S2194 1.610 . S
N2196 C2197 1.351 . S
C2197 C2191 1.428 . S
C2197 N2196 1.351 . S
C2197 C2198 1.434 . S
C2198 C2189 1.429 . S
C2198 N2195 1.350 . S
C2198 C2197 1.434 . S
C2199 C2200 1.369 . S
C2199 C2201 1.419 . S
C2199 H2203 0.930 . S
C2200 C2199 1.369 . S
C2200 C2209 1.429 . S
C2201 C2199 1.419 . S
C2201 C2202 1.363 . S
C2201 H2204 0.929 . S
C2202 C2201 1.363 . S
C2202 C2208 1.428 . S
H2203 C2199 0.930 . S
H2204 C2201 0.929 . S
S2205 N2206 1.613 . S
S2205 N2207 1.610 . S
N2206 S2205 1.613 . S
N2206 C2209 1.350 . S
N2207 S2205 1.610 . S
N2207 C2208 1.351 . S
C2208 C2202 1.428 . S
C2208 N2207 1.351 . S
C2208 C2209 1.434 . S
C2209 C2200 1.429 . S
C2209 N2206 1.350 . S
C2209 C2208 1.434 . S
C2210 C2211 1.369 . S
C2210 C2212 1.419 . S
C2210 H2214 0.930 . S
C2211 C2210 1.369 . S
C2211 C2220 1.429 . S
C2212 C2210 1.419 . S
C2212 C2213 1.363 . S
C2212 H2215 0.929 . S
C2213 C2212 1.363 . S
C2213 C2219 1.428 . S
H2214 C2210 0.930 . S
H2215 C2212 0.929 . S
S2216 N2217 1.613 . S
S2216 N2218 1.610 . S
N2217 S2216 1.613 . S
N2217 C2220 1.350 . S
N2218 S2216 1.610 . S
N2218 C2219 1.351 . S
C2219 C2213 1.428 . S
C2219 N2218 1.351 . S
C2219 C2220 1.434 . S
C2220 C2211 1.429 . S
C2220 N2217 1.350 . S
C2220 C2219 1.434 . S
C2221 C2222 1.369 . S
C2221 C2223 1.419 . S
C2221 H2225 0.930 . S
C2222 C2221 1.369 . S
C2222 C2231 1.429 . S
C2223 C2221 1.419 . S
C2223 C2224 1.363 . S
C2223 H2226 0.929 . S
C2224 C2223 1.363 . S
C2224 C2230 1.428 . S
H2225 C2221 0.930 . S
H2226 C2223 0.929 . S
S2227 N2228 1.613 . S
S2227 N2229 1.610 . S
N2228 S2227 1.613 . S
N2228 C2231 1.350 . S
N2229 S2227 1.610 . S
N2229 C2230 1.351 . S
C2230 C2224 1.428 . S
C2230 N2229 1.351 . S
C2230 C2231 1.434 . S
C2231 C2222 1.429 . S
C2231 N2228 1.350 . S
C2231 C2230 1.434 . S
C2232 C2233 1.369 . S
C2232 C2234 1.419 . S
C2232 H2236 0.930 . S
C2233 C2232 1.369 . S
C2233 C2242 1.429 1_455 S
C2234 C2232 1.419 . S
C2234 C2235 1.363 1_455 S
C2234 H2237 0.929 . S
C2235 C2234 1.363 1_655 S
C2235 C2241 1.428 . S
H2236 C2232 0.930 . S
H2237 C2234 0.929 . S
S2238 N2239 1.613 . S
S2238 N2240 1.610 . S
N2239 S2238 1.613 . S
N2239 C2242 1.350 . S
N2240 S2238 1.610 . S
N2240 C2241 1.351 . S
C2241 C2235 1.428 . S
C2241 N2240 1.351 . S
C2241 C2242 1.434 . S
C2242 C2233 1.429 1_655 S
C2242 N2239 1.350 . S
C2242 C2241 1.434 . S
C2243 C2244 1.369 . S
C2243 C2245 1.419 . S
C2243 H2247 0.930 . S
C2244 C2243 1.369 . S
C2244 C2253 1.429 . S
C2245 C2243 1.419 . S
C2245 C2246 1.363 . S
C2245 H2248 0.929 . S
C2246 C2245 1.363 . S
C2246 C2252 1.428 . S
H2247 C2243 0.930 . S
H2248 C2245 0.929 . S
S2249 N2250 1.613 . S
S2249 N2251 1.610 . S
N2250 S2249 1.613 . S
N2250 C2253 1.350 . S
N2251 S2249 1.610 . S
N2251 C2252 1.351 . S
C2252 C2246 1.428 . S
C2252 N2251 1.351 . S
C2252 C2253 1.434 . S
C2253 C2244 1.429 . S
C2253 N2250 1.350 . S
C2253 C2252 1.434 . S
C2254 C2255 1.369 . S
C2254 C2256 1.419 . S
C2254 H2258 0.930 . S
C2255 C2254 1.369 . S
C2255 C2264 1.429 1_565 S
C2256 C2254 1.419 . S
C2256 C2257 1.363 1_565 S
C2256 H2259 0.929 . S
C2257 C2256 1.363 1_545 S
C2257 C2263 1.428 . S
H2258 C2254 0.930 . S
H2259 C2256 0.929 . S
S2260 N2261 1.613 . S
S2260 N2262 1.610 . S
N2261 S2260 1.613 . S
N2261 C2264 1.350 . S
N2262 S2260 1.610 . S
N2262 C2263 1.351 . S
C2263 C2257 1.428 . S
C2263 N2262 1.351 . S
C2263 C2264 1.434 . S
C2264 C2255 1.429 1_545 S
C2264 N2261 1.350 . S
C2264 C2263 1.434 . S
C2265 C2266 1.369 . S
C2265 C2267 1.419 . S
C2265 H2269 0.930 . S
C2266 C2265 1.369 . S
C2266 C2275 1.429 1_655 S
C2267 C2265 1.419 . S
C2267 C2268 1.363 1_655 S
C2267 H2270 0.929 . S
C2268 C2267 1.363 1_455 S
C2268 C2274 1.428 . S
H2269 C2265 0.930 . S
H2270 C2267 0.929 . S
S2271 N2272 1.613 . S
S2271 N2273 1.610 . S
N2272 S2271 1.613 . S
N2272 C2275 1.350 . S
N2273 S2271 1.610 . S
N2273 C2274 1.351 . S
C2274 C2268 1.428 . S
C2274 N2273 1.351 . S
C2274 C2275 1.434 . S
C2275 C2266 1.429 1_455 S
C2275 N2272 1.350 . S
C2275 C2274 1.434 . S
C2276 C2277 1.369 . S
C2276 C2278 1.419 . S
C2276 H2280 0.930 . S
C2277 C2276 1.369 . S
C2277 C2286 1.429 . S
C2278 C2276 1.419 . S
C2278 C2279 1.363 . S
C2278 H2281 0.929 . S
C2279 C2278 1.363 . S
C2279 C2285 1.428 . S
H2280 C2276 0.930 . S
H2281 C2278 0.929 . S
S2282 N2283 1.613 . S
S2282 N2284 1.610 . S
N2283 S2282 1.613 . S
N2283 C2286 1.350 . S
N2284 S2282 1.610 . S
N2284 C2285 1.351 . S
C2285 C2279 1.428 . S
C2285 N2284 1.351 . S
C2285 C2286 1.434 . S
C2286 C2277 1.429 . S
C2286 N2283 1.350 . S
C2286 C2285 1.434 . S
C2287 C2288 1.369 1_565 S
C2287 C2289 1.419 . S
C2287 H2291 0.930 . S
C2288 C2287 1.369 1_545 S
C2288 C2297 1.429 . S
C2289 C2287 1.419 . S
C2289 C2290 1.363 . S
C2289 H2292 0.929 . S
C2290 C2289 1.363 . S
C2290 C2296 1.428 1_565 S
H2291 C2287 0.930 . S
H2292 C2289 0.929 . S
S2293 N2294 1.613 . S
S2293 N2295 1.610 . S
N2294 S2293 1.613 . S
N2294 C2297 1.350 . S
N2295 S2293 1.610 . S
N2295 C2296 1.351 . S
C2296 C2290 1.428 1_545 S
C2296 N2295 1.351 . S
C2296 C2297 1.434 . S
C2297 C2288 1.429 . S
C2297 N2294 1.350 . S
C2297 C2296 1.434 . S
C2298 C2299 1.369 . S
C2298 C2300 1.419 . S
C2298 H2302 0.930 . S
C2299 C2298 1.369 . S
C2299 C2308 1.429 . S
C2300 C2298 1.419 . S
C2300 C2301 1.363 . S
C2300 H2303 0.929 . S
C2301 C2300 1.363 . S
C2301 C2307 1.428 . S
H2302 C2298 0.930 . S
H2303 C2300 0.929 . S
S2304 N2305 1.613 . S
S2304 N2306 1.610 . S
N2305 S2304 1.613 . S
N2305 C2308 1.350 . S
N2306 S2304 1.610 . S
N2306 C2307 1.351 . S
C2307 C2301 1.428 . S
C2307 N2306 1.351 . S
C2307 C2308 1.434 . S
C2308 C2299 1.429 . S
C2308 N2305 1.350 . S
C2308 C2307 1.434 . S
C2309 C2310 1.369 . S
C2309 C2311 1.419 . S
C2309 H2313 0.930 . S
C2310 C2309 1.369 . S
C2310 C2319 1.429 . S
C2311 C2309 1.419 . S
C2311 C2312 1.363 . S
C2311 H2314 0.929 . S
C2312 C2311 1.363 . S
C2312 C2318 1.428 . S
H2313 C2309 0.930 . S
H2314 C2311 0.929 . S
S2315 N2316 1.613 . S
S2315 N2317 1.610 . S
N2316 S2315 1.613 . S
N2316 C2319 1.350 . S
N2317 S2315 1.610 . S
N2317 C2318 1.351 . S
C2318 C2312 1.428 . S
C2318 N2317 1.351 . S
C2318 C2319 1.434 . S
C2319 C2310 1.429 . S
C2319 N2316 1.350 . S
C2319 C2318 1.434 . S
C2320 C2321 1.369 . S
C2320 C2322 1.419 . S
C2320 H2324 0.930 . S
C2321 C2320 1.369 . S
C2321 C2330 1.429 . S
C2322 C2320 1.419 . S
C2322 C2323 1.363 . S
C2322 H2325 0.929 . S
C2323 C2322 1.363 . S
C2323 C2329 1.428 . S
H2324 C2320 0.930 . S
H2325 C2322 0.929 . S
S2326 N2327 1.613 . S
S2326 N2328 1.610 . S
N2327 S2326 1.613 . S
N2327 C2330 1.350 . S
N2328 S2326 1.610 . S
N2328 C2329 1.351 . S
C2329 C2323 1.428 . S
C2329 N2328 1.351 . S
C2329 C2330 1.434 . S
C2330 C2321 1.429 . S
C2330 N2327 1.350 . S
C2330 C2329 1.434 . S
C2331 C2332 1.369 . S
C2331 C2333 1.419 . S
C2331 H2335 0.930 . S
C2332 C2331 1.369 . S
C2332 C2341 1.429 . S
C2333 C2331 1.419 . S
C2333 C2334 1.363 . S
C2333 H2336 0.929 . S
C2334 C2333 1.363 . S
C2334 C2340 1.428 . S
H2335 C2331 0.930 . S
H2336 C2333 0.929 . S
S2337 N2338 1.613 . S
S2337 N2339 1.610 . S
N2338 S2337 1.613 . S
N2338 C2341 1.350 . S
N2339 S2337 1.610 . S
N2339 C2340 1.351 . S
C2340 C2334 1.428 . S
C2340 N2339 1.351 . S
C2340 C2341 1.434 . S
C2341 C2332 1.429 . S
C2341 N2338 1.350 . S
C2341 C2340 1.434 . S
C2342 C2343 1.369 . S
C2342 C2344 1.419 . S
C2342 H2346 0.930 . S
C2343 C2342 1.369 . S
C2343 C2352 1.429 . S
C2344 C2342 1.419 . S
C2344 C2345 1.363 . S
C2344 H2347 0.929 . S
C2345 C2344 1.363 . S
C2345 C2351 1.428 . S
H2346 C2342 0.930 . S
H2347 C2344 0.929 . S
S2348 N2349 1.613 . S
S2348 N2350 1.610 . S
N2349 S2348 1.613 . S
N2349 C2352 1.350 . S
N2350 S2348 1.610 . S
N2350 C2351 1.351 . S
C2351 C2345 1.428 . S
C2351 N2350 1.351 . S
C2351 C2352 1.434 . S
C2352 C2343 1.429 . S
C2352 N2349 1.350 . S
C2352 C2351 1.434 . S
C2353 C2354 1.369 . S
C2353 C2355 1.419 . S
C2353 H2357 0.930 . S
C2354 C2353 1.369 . S
C2354 C2363 1.429 . S
C2355 C2353 1.419 . S
C2355 C2356 1.363 . S
C2355 H2358 0.929 . S
C2356 C2355 1.363 . S
C2356 C2362 1.428 . S
H2357 C2353 0.930 . S
H2358 C2355 0.929 . S
S2359 N2360 1.613 . S
S2359 N2361 1.610 . S
N2360 S2359 1.613 . S
N2360 C2363 1.350 . S
N2361 S2359 1.610 . S
N2361 C2362 1.351 . S
C2362 C2356 1.428 . S
C2362 N2361 1.351 . S
C2362 C2363 1.434 . S
C2363 C2354 1.429 . S
C2363 N2360 1.350 . S
C2363 C2362 1.434 . S
C2364 C2365 1.377 . S
C2364 C2366 1.408 1_554 S
C2364 H2368 0.933 . S
C2365 C2364 1.377 . S
C2365 C2374 1.429 . S
C2366 C2364 1.408 1_556 S
C2366 C2367 1.363 . S
C2366 H2369 0.929 . S
C2367 C2366 1.363 . S
C2367 C2373 1.428 . S
H2368 C2364 0.933 . S
H2369 C2366 0.929 . S
S2370 N2371 1.613 . S
S2370 N2372 1.610 1_554 S
N2371 S2370 1.613 . S
N2371 C2374 1.350 . S
N2372 S2370 1.610 1_556 S
N2372 C2373 1.351 . S
C2373 C2367 1.428 . S
C2373 N2372 1.351 . S
C2373 C2374 1.434 1_556 S
C2374 C2365 1.429 . S
C2374 N2371 1.350 . S
C2374 C2373 1.434 1_554 S
C2375 C2376 1.369 . S
C2375 C2377 1.419 1_556 S
C2375 H2379 0.930 . S
C2376 C2375 1.369 . S
C2376 C2385 1.429 . S
C2377 C2375 1.419 1_554 S
C2377 C2378 1.363 . S
C2377 H2380 0.929 . S
C2378 C2377 1.363 . S
C2378 C2384 1.428 1_554 S
H2379 C2375 0.930 . S
H2380 C2377 0.929 . S
S2381 N2382 1.613 . S
S2381 N2383 1.610 . S
N2382 S2381 1.613 . S
N2382 C2385 1.350 . S
N2383 S2381 1.610 . S
N2383 C2384 1.351 . S
C2384 C2378 1.428 1_556 S
C2384 N2383 1.351 . S
C2384 C2385 1.434 . S
C2385 C2376 1.429 . S
C2385 N2382 1.350 . S
C2385 C2384 1.434 . S
C2386 C2387 1.369 . S
C2386 C2388 1.419 . S
C2386 H2390 0.930 . S
C2387 C2386 1.369 . S
C2387 C2396 1.429 . S
C2388 C2386 1.419 . S
C2388 C2389 1.363 1_556 S
C2388 H2391 0.929 . S
C2389 C2388 1.363 1_554 S
C2389 C2395 1.428 . S
H2390 C2386 0.930 . S
H2391 C2388 0.929 . S
S2392 N2393 1.615 1_554 S
S2392 N2394 1.610 . S
N2393 S2392 1.615 1_556 S
N2393 C2396 1.350 . S
N2394 S2392 1.610 . S
N2394 C2395 1.351 . S
C2395 C2389 1.428 . S
C2395 N2394 1.351 . S
C2395 C2396 1.434 1_554 S
C2396 C2387 1.429 . S
C2396 N2393 1.350 . S
C2396 C2395 1.434 1_556 S
C2397 C2398 1.369 . S
C2397 C2399 1.419 . S
C2397 H2401 0.930 . S
C2398 C2397 1.369 . S
C2398 C2407 1.429 . S
C2399 C2397 1.419 . S
C2399 C2400 1.363 . S
C2399 H2402 0.929 . S
C2400 C2399 1.363 . S
C2400 C2406 1.428 . S
H2401 C2397 0.930 . S
H2402 C2399 0.929 . S
S2403 N2404 1.613 . S
S2403 N2405 1.610 . S
N2404 S2403 1.613 . S
N2404 C2407 1.350 . S
N2405 S2403 1.610 . S
N2405 C2406 1.351 . S
C2406 C2400 1.428 . S
C2406 N2405 1.351 . S
C2406 C2407 1.434 . S
C2407 C2398 1.429 . S
C2407 N2404 1.350 . S
C2407 C2406 1.434 . S
C2408 C2409 1.369 . S
C2408 C2410 1.419 . S
C2408 H2412 0.930 . S
C2409 C2408 1.369 . S
C2409 C2418 1.429 . S
C2410 C2408 1.419 . S
C2410 C2411 1.363 . S
C2410 H2413 0.929 . S
C2411 C2410 1.363 . S
C2411 C2417 1.428 . S
H2412 C2408 0.930 . S
H2413 C2410 0.929 . S
S2414 N2415 1.613 . S
S2414 N2416 1.610 . S
N2415 S2414 1.613 . S
N2415 C2418 1.350 . S
N2416 S2414 1.610 . S
N2416 C2417 1.351 . S
C2417 C2411 1.428 . S
C2417 N2416 1.351 . S
C2417 C2418 1.434 . S
C2418 C2409 1.429 . S
C2418 N2415 1.350 . S
C2418 C2417 1.434 . S
C2419 C2420 1.369 . S
C2419 C2421 1.419 . S
C2419 H2423 0.930 . S
C2420 C2419 1.369 . S
C2420 C2429 1.429 . S
C2421 C2419 1.419 . S
C2421 C2422 1.363 . S
C2421 H2424 0.929 . S
C2422 C2421 1.363 . S
C2422 C2428 1.428 . S
H2423 C2419 0.930 . S
H2424 C2421 0.929 . S
S2425 N2426 1.613 . S
S2425 N2427 1.610 . S
N2426 S2425 1.613 . S
N2426 C2429 1.350 . S
N2427 S2425 1.610 . S
N2427 C2428 1.351 . S
C2428 C2422 1.428 . S
C2428 N2427 1.351 . S
C2428 C2429 1.434 . S
C2429 C2420 1.429 . S
C2429 N2426 1.350 . S
C2429 C2428 1.434 . S
C2430 C2431 1.369 . S
C2430 C2432 1.419 . S
C2430 H2434 0.930 . S
C2431 C2430 1.369 . S
C2431 C2440 1.429 1_455 S
C2432 C2430 1.419 . S
C2432 C2433 1.363 1_455 S
C2432 H2435 0.949 . S
C2433 C2432 1.363 1_655 S
C2433 C2439 1.428 . S
H2434 C2430 0.930 . S
H2435 C2432 0.949 . S
S2436 N2437 1.613 . S
S2436 N2438 1.610 . S
N2437 S2436 1.613 . S
N2437 C2440 1.350 . S
N2438 S2436 1.610 . S
N2438 C2439 1.351 . S
C2439 C2433 1.428 . S
C2439 N2438 1.351 . S
C2439 C2440 1.434 . S
C2440 C2431 1.429 1_655 S
C2440 N2437 1.350 . S
C2440 C2439 1.434 . S
C2441 C2442 1.369 . S
C2441 C2443 1.419 . S
C2441 H2445 0.930 . S
C2442 C2441 1.369 . S
C2442 C2451 1.429 . S
C2443 C2441 1.419 . S
C2443 C2444 1.363 . S
C2443 H2446 0.929 . S
C2444 C2443 1.363 . S
C2444 C2450 1.428 . S
H2445 C2441 0.930 . S
H2446 C2443 0.929 . S
S2447 N2448 1.613 . S
S2447 N2449 1.610 . S
N2448 S2447 1.613 . S
N2448 C2451 1.350 . S
N2449 S2447 1.610 . S
N2449 C2450 1.351 . S
C2450 C2444 1.428 . S
C2450 N2449 1.351 . S
C2450 C2451 1.434 . S
C2451 C2442 1.429 . S
C2451 N2448 1.350 . S
C2451 C2450 1.434 . S
C2452 C2453 1.369 . S
C2452 C2454 1.419 . S
C2452 H2456 0.930 . S
C2453 C2452 1.369 . S
C2453 C2462 1.429 1_545 S
C2454 C2452 1.419 . S
C2454 C2455 1.363 1_545 S
C2454 H2457 0.929 . S
C2455 C2454 1.363 1_565 S
C2455 C2461 1.428 . S
H2456 C2452 0.930 . S
H2457 C2454 0.929 . S
S2458 N2459 1.613 . S
S2458 N2460 1.610 1_556 S
N2459 S2458 1.613 . S
N2459 C2462 1.350 1_556 S
N2460 S2458 1.610 1_554 S
N2460 C2461 1.351 . S
C2461 C2455 1.428 . S
C2461 N2460 1.351 . S
C2461 C2462 1.434 . S
C2462 C2453 1.429 1_565 S
C2462 N2459 1.350 1_554 S
C2462 C2461 1.434 . S
C2463 C2464 1.369 . S
C2463 C2465 1.419 . S
C2463 H2467 0.930 . S
C2464 C2463 1.369 . S
C2464 C2473 1.429 1_565 S
C2465 C2463 1.419 . S
C2465 C2466 1.363 1_565 S
C2465 H2468 0.929 . S
C2466 C2465 1.363 1_545 S
C2466 C2472 1.428 . S
H2467 C2463 0.930 . S
H2468 C2465 0.929 . S
S2469 N2470 1.613 . S
S2469 N2471 1.610 . S
N2470 S2469 1.613 . S
N2470 C2473 1.350 . S
N2471 S2469 1.610 . S
N2471 C2472 1.351 . S
C2472 C2466 1.428 . S
C2472 N2471 1.351 . S
C2472 C2473 1.434 . S
C2473 C2464 1.429 1_545 S
C2473 N2470 1.350 . S
C2473 C2472 1.434 . S
C2474 C2475 1.369 . S
C2474 C2476 1.419 . S
C2474 H2478 0.930 . S
C2475 C2474 1.369 . S
C2475 C2484 1.429 1_655 S
C2476 C2474 1.419 . S
C2476 C2477 1.363 1_655 S
C2476 H2479 0.929 . S
C2477 C2476 1.363 1_455 S
C2477 C2483 1.428 . S
H2478 C2474 0.930 . S
H2479 C2476 0.929 . S
S2480 N2481 1.613 . S
S2480 N2482 1.610 . S
N2481 S2480 1.613 . S
N2481 C2484 1.350 . S
N2482 S2480 1.610 . S
N2482 C2483 1.351 . S
C2483 C2477 1.428 . S
C2483 N2482 1.351 . S
C2483 C2484 1.434 . S
C2484 C2475 1.429 1_455 S
C2484 N2481 1.350 . S
C2484 C2483 1.434 . S
C2485 C2486 1.369 . S
C2485 C2487 1.419 . S
C2485 H2489 0.930 . S
C2486 C2485 1.369 . S
C2486 C2495 1.429 . S
C2487 C2485 1.419 . S
C2487 C2488 1.363 . S
C2487 H2490 0.929 . S
C2488 C2487 1.363 . S
C2488 C2494 1.428 . S
H2489 C2485 0.930 . S
H2490 C2487 0.929 . S
S2491 N2492 1.613 . S
S2491 N2493 1.610 . S
N2492 S2491 1.613 . S
N2492 C2495 1.350 . S
N2493 S2491 1.610 . S
N2493 C2494 1.351 . S
C2494 C2488 1.428 . S
C2494 N2493 1.351 . S
C2494 C2495 1.434 . S
C2495 C2486 1.429 . S
C2495 N2492 1.350 . S
C2495 C2494 1.434 . S
C2496 C2497 1.369 . S
C2496 C2498 1.419 . S
C2496 H2500 0.930 . S
C2497 C2496 1.369 . S
C2497 C2506 1.429 . S
C2498 C2496 1.419 . S
C2498 C2499 1.363 . S
C2498 H2501 0.929 . S
C2499 C2498 1.363 . S
C2499 C2505 1.428 . S
H2500 C2496 0.930 . S
H2501 C2498 0.929 . S
S2502 N2503 1.613 . S
S2502 N2504 1.610 . S
N2503 S2502 1.613 . S
N2503 C2506 1.350 . S
N2504 S2502 1.610 . S
N2504 C2505 1.351 . S
C2505 C2499 1.428 . S
C2505 N2504 1.351 . S
C2505 C2506 1.434 . S
C2506 C2497 1.429 . S
C2506 N2503 1.350 . S
C2506 C2505 1.434 . S
C2507 C2508 1.369 . S
C2507 C2509 1.419 . S
C2507 H2511 0.930 . S
C2508 C2507 1.369 . S
C2508 C2517 1.429 . S
C2509 C2507 1.419 . S
C2509 C2510 1.363 . S
C2509 H2512 0.929 . S
C2510 C2509 1.363 . S
C2510 C2516 1.428 . S
H2511 C2507 0.930 . S
H2512 C2509 0.929 . S
S2513 N2514 1.613 . S
S2513 N2515 1.610 . S
N2514 S2513 1.613 . S
N2514 C2517 1.350 . S
N2515 S2513 1.610 . S
N2515 C2516 1.351 . S
C2516 C2510 1.428 . S
C2516 N2515 1.351 . S
C2516 C2517 1.434 . S
C2517 C2508 1.429 . S
C2517 N2514 1.350 . S
C2517 C2516 1.434 . S
C2518 C2519 1.369 . S
C2518 C2520 1.419 . S
C2518 H2522 0.930 . S
C2519 C2518 1.369 . S
C2519 C2528 1.429 . S
C2520 C2518 1.419 . S
C2520 C2521 1.363 . S
C2520 H2523 0.929 . S
C2521 C2520 1.363 . S
C2521 C2527 1.428 . S
H2522 C2518 0.930 . S
H2523 C2520 0.929 . S
S2524 N2525 1.613 . S
S2524 N2526 1.610 . S
N2525 S2524 1.613 . S
N2525 C2528 1.350 . S
N2526 S2524 1.610 . S
N2526 C2527 1.351 . S
C2527 C2521 1.428 . S
C2527 N2526 1.351 . S
C2527 C2528 1.434 . S
C2528 C2519 1.429 . S
C2528 N2525 1.350 . S
C2528 C2527 1.434 . S
C2529 C2530 1.369 . S
C2529 C2531 1.419 . S
C2529 H2533 0.930 . S
C2530 C2529 1.369 . S
C2530 C2539 1.429 . S
C2531 C2529 1.419 . S
C2531 C2532 1.363 . S
C2531 H2534 0.929 . S
C2532 C2531 1.363 . S
C2532 C2538 1.428 . S
H2533 C2529 0.930 . S
H2534 C2531 0.929 . S
S2535 N2536 1.613 . S
S2535 N2537 1.610 . S
N2536 S2535 1.613 . S
N2536 C2539 1.350 . S
N2537 S2535 1.610 . S
N2537 C2538 1.351 . S
C2538 C2532 1.428 . S
C2538 N2537 1.351 . S
C2538 C2539 1.434 . S
C2539 C2530 1.429 . S
C2539 N2536 1.350 . S
C2539 C2538 1.434 . S
C2540 C2541 1.369 . S
C2540 C2542 1.419 . S
C2540 H2544 0.930 . S
C2541 C2540 1.369 . S
C2541 C2550 1.429 . S
C2542 C2540 1.419 . S
C2542 C2543 1.363 . S
C2542 H2545 0.929 . S
C2543 C2542 1.363 . S
C2543 C2549 1.428 . S
H2544 C2540 0.930 . S
H2545 C2542 0.929 . S
S2546 N2547 1.613 . S
S2546 N2548 1.610 . S
N2547 S2546 1.613 . S
N2547 C2550 1.350 . S
N2548 S2546 1.610 . S
N2548 C2549 1.351 . S
C2549 C2543 1.428 . S
C2549 N2548 1.351 . S
C2549 C2550 1.434 . S
C2550 C2541 1.429 . S
C2550 N2547 1.350 . S
C2550 C2549 1.434 . S
C2551 C2552 1.369 . S
C2551 C2553 1.419 . S
C2551 H2555 0.930 . S
C2552 C2551 1.369 . S
C2552 C2561 1.429 . S
C2553 C2551 1.419 . S
C2553 C2554 1.363 . S
C2553 H2556 0.929 . S
C2554 C2553 1.363 . S
C2554 C2560 1.428 . S
H2555 C2551 0.930 . S
H2556 C2553 0.929 . S
S2557 N2558 1.613 . S
S2557 N2559 1.610 . S
N2558 S2557 1.613 . S
N2558 C2561 1.350 . S
N2559 S2557 1.610 . S
N2559 C2560 1.351 . S
C2560 C2554 1.428 . S
C2560 N2559 1.351 . S
C2560 C2561 1.434 . S
C2561 C2552 1.429 . S
C2561 N2558 1.350 . S
C2561 C2560 1.434 . S
C2562 C2563 1.369 . S
C2562 C2564 1.419 . S
C2562 H2566 0.930 . S
C2563 C2562 1.369 . S
C2563 C2572 1.429 . S
C2564 C2562 1.419 . S
C2564 C2565 1.363 . S
C2564 H2567 0.929 . S
C2565 C2564 1.363 . S
C2565 C2571 1.428 . S
H2566 C2562 0.930 . S
H2567 C2564 0.929 . S
S2568 N2569 1.613 . S
S2568 N2570 1.610 . S
N2569 S2568 1.613 . S
N2569 C2572 1.350 . S
N2570 S2568 1.610 . S
N2570 C2571 1.351 . S
C2571 C2565 1.428 . S
C2571 N2570 1.351 . S
C2571 C2572 1.434 . S
C2572 C2563 1.429 . S
C2572 N2569 1.350 . S
C2572 C2571 1.434 . S
C2573 C2574 1.369 . S
C2573 C2575 1.419 . S
C2573 H2577 0.930 . S
C2574 C2573 1.369 . S
C2574 C2583 1.429 . S
C2575 C2573 1.419 . S
C2575 C2576 1.363 . S
C2575 H2578 0.929 . S
C2576 C2575 1.363 . S
C2576 C2582 1.428 . S
H2577 C2573 0.930 . S
H2578 C2575 0.929 . S
S2579 N2580 1.613 . S
S2579 N2581 1.610 . S
N2580 S2579 1.613 . S
N2580 C2583 1.350 . S
N2581 S2579 1.610 . S
N2581 C2582 1.351 . S
C2582 C2576 1.428 . S
C2582 N2581 1.351 . S
C2582 C2583 1.434 . S
C2583 C2574 1.429 . S
C2583 N2580 1.350 . S
C2583 C2582 1.434 . S
C2584 C2585 1.369 . S
C2584 C2586 1.419 . S
C2584 H2588 0.930 . S
C2585 C2584 1.369 . S
C2585 C2594 1.429 . S
C2586 C2584 1.419 . S
C2586 C2587 1.363 . S
C2586 H2589 0.929 . S
C2587 C2586 1.363 . S
C2587 C2593 1.428 . S
H2588 C2584 0.930 . S
H2589 C2586 0.929 . S
S2590 N2591 1.613 . S
S2590 N2592 1.610 . S
N2591 S2590 1.613 . S
N2591 C2594 1.350 . S
N2592 S2590 1.610 . S
N2592 C2593 1.351 . S
C2593 C2587 1.428 . S
C2593 N2592 1.351 . S
C2593 C2594 1.434 . S
C2594 C2585 1.429 . S
C2594 N2591 1.350 . S
C2594 C2593 1.434 . S
C2595 C2596 1.369 . S
C2595 C2597 1.419 . S
C2595 H2599 0.930 . S
C2596 C2595 1.369 . S
C2596 C2605 1.429 . S
C2597 C2595 1.419 . S
C2597 C2598 1.363 . S
C2597 H2600 0.929 . S
C2598 C2597 1.363 . S
C2598 C2604 1.428 . S
H2599 C2595 0.930 . S
H2600 C2597 0.929 . S
S2601 N2602 1.613 . S
S2601 N2603 1.610 . S
N2602 S2601 1.613 . S
N2602 C2605 1.350 . S
N2603 S2601 1.610 . S
N2603 C2604 1.351 . S
C2604 C2598 1.428 . S
C2604 N2603 1.351 . S
C2604 C2605 1.434 . S
C2605 C2596 1.429 . S
C2605 N2602 1.350 . S
C2605 C2604 1.434 . S
C2606 C2607 1.369 . S
C2606 C2608 1.419 . S
C2606 H2610 0.930 . S
C2607 C2606 1.369 . S
C2607 C2616 1.429 . S
C2608 C2606 1.419 . S
C2608 C2609 1.363 . S
C2608 H2611 0.929 . S
C2609 C2608 1.363 . S
C2609 C2615 1.428 . S
H2610 C2606 0.930 . S
H2611 C2608 0.929 . S
S2612 N2613 1.613 . S
S2612 N2614 1.610 . S
N2613 S2612 1.613 . S
N2613 C2616 1.350 . S
N2614 S2612 1.610 . S
N2614 C2615 1.351 . S
C2615 C2609 1.428 . S
C2615 N2614 1.351 . S
C2615 C2616 1.434 . S
C2616 C2607 1.429 . S
C2616 N2613 1.350 . S
C2616 C2615 1.434 . S
C2617 C2618 1.369 . S
C2617 C2619 1.419 . S
C2617 H2621 0.930 . S
C2618 C2617 1.369 . S
C2618 C2627 1.429 . S
C2619 C2617 1.419 . S
C2619 C2620 1.363 . S
C2619 H2622 0.929 . S
C2620 C2619 1.363 . S
C2620 C2626 1.428 . S
H2621 C2617 0.930 . S
H2622 C2619 0.929 . S
S2623 N2624 1.613 . S
S2623 N2625 1.610 . S
N2624 S2623 1.613 . S
N2624 C2627 1.350 . S
N2625 S2623 1.610 . S
N2625 C2626 1.351 . S
C2626 C2620 1.428 . S
C2626 N2625 1.351 . S
C2626 C2627 1.434 . S
C2627 C2618 1.429 . S
C2627 N2624 1.350 . S
C2627 C2626 1.434 . S
C1441 C609 2.541 . S
C1443 C9 2.546 . S
C1452 C649 2.539 . S
C1454 C49 2.543 . S
C1463 C89 2.538 . S
C1465 C689 2.545 . S
C1474 C129 2.544 . S
C1476 C969 2.544 . S
C1485 C169 2.539 . S
C1487 C1009 2.543 . S
C1496 C209 2.538 . S
C1498 C1049 2.544 . S
C1507 C1338 2.543 . S
C1509 C258 2.544 . S
C1518 C1378 2.544 . S
C1520 C298 2.543 . S
C1529 C338 2.544 . S
C1531 C1418 2.540 . S
C1540 C738 2.539 . S
C1542 C378 2.543 . S
C1551 C418 2.547 . S
C1553 C778 2.539 . S
C1562 C458 2.539 . S
C1564 C818 2.543 . S
C1573 C1089 2.540 . S
C1575 C489 2.546 . S
C1584 C529 2.538 . S
C1586 C1129 2.544 . S
C1595 C1169 2.540 . S
C1597 C569 2.542 . S
C1606 C1218 2.544 . S
C1608 C858 2.539 . S
C1617 C1258 2.539 . S
C1619 C898 2.546 . S
C1628 C938 2.538 . S
C1630 C1298 2.545 . S
C1639 C15 0.405 . S
C1641 C175 0.427 . S
C1650 C55 0.419 . S
C1652 C215 0.429 . S
C1661 C95 0.404 . S
C1663 C135 0.425 . S
C1672 C246 0.428 . S
C1674 C406 0.422 . S
C1683 C286 0.405 . S
C1685 C446 0.423 . S
C1694 C326 0.419 . S
C1696 C366 0.428 . S
C1705 C495 0.417 . S
C1707 C655 0.409 . S
C1716 C695 0.406 . S
C1718 C535 0.428 . S
C1727 C575 0.427 . S
C1729 C615 0.425 . S
C1738 C726 0.429 . S
C1740 C886 0.407 . S
C1749 C766 0.404 . S
C1751 C926 0.427 . S
C1760 C846 0.408 . S
C1762 C806 0.430 . S
C1771 C975 0.408 . S
C1773 C1135 0.430 . S
C1782 C1175 0.428 . S
C1784 C1015 0.408 . S
C1793 C1055 0.422 . S
C1795 C1095 0.428 . S
C1804 C1206 0.404 . S
C1806 C1366 0.426 . S
C1815 C1246 0.413 . S
C1817 C1406 0.430 . S
C1826 C1286 0.404 . S
C1828 C1326 0.425 . S
C1837 C415 1.688 . S
C1839 C19 1.783 1_556 S
C1848 C59 1.779 1_556 S
C1850 C455 1.686 . S
C1859 C99 1.785 1_556 S
C1861 C375 1.680 . S
C1870 C139 1.783 . S
C1872 C335 1.687 . S
C1881 C179 1.782 . S
C1883 C255 1.688 . S
C1892 C295 1.681 . S
C1894 C219 1.785 . S
C1903 C250 1.780 . S
C1905 C166 1.688 . S
C1914 C206 1.688 . S
C1916 C290 1.780 . S
C1925 C330 1.783 . S
C1927 C126 1.688 . S
C1936 C370 1.780 . S
C1938 C86 1.688 . S
C1947 C6 1.680 . S
C1949 C410 1.785 . S
C1958 C46 1.690 . S
C1960 C450 1.781 . S
C1969 C895 1.679 . S
C1971 C499 1.784 . S
C1980 C935 1.679 . S
C1982 C539 1.784 . S
C1991 C855 1.686 . S
C1993 C579 1.780 . S
C2002 C815 1.690 . S
C2004 C619 1.781 . S
C2013 C659 1.782 . S
C2015 C735 1.688 . S
C2024 C775 1.689 . S
C2026 C699 1.783 . S
C2035 C646 1.679 . S
C2037 C730 1.784 . S
C2046 C770 1.784 . S
C2048 C686 1.686 . S
C2057 C810 1.780 . S
C2059 C606 1.688 . S
C2068 C566 1.683 . S
C2070 C850 1.780 . S
C2079 C890 1.780 . S
C2081 C486 1.688 . S
C2090 C930 1.780 . S
C2092 C526 1.685 . S
C2101 C979 1.786 . S
C2103 C1375 1.682 . S
C2112 C1019 1.786 . S
C2114 C1415 1.682 . S
C2123 C1335 1.688 . S
C2125 C1059 1.780 . S
C2134 C1295 1.679 . S
C2136 C1099 1.785 . S
C2145 C1139 1.781 . S
C2147 C1215 1.682 . S
C2156 C1255 1.687 . S
C2158 C1179 1.780 . S
C2167 C1210 1.786 . S
C2169 C1126 1.684 . S
C2178 C1166 1.680 . S
C2180 C1250 1.785 . S
C2189 C1290 1.779 . S
C2191 C1086 1.686 . S
C2200 C1330 1.779 . S
C2202 C1046 1.687 . S
C2211 C966 1.682 . S
C2213 C1370 1.785 . S
C2222 C1006 1.679 . S
C2224 C1410 1.784 . S
C2233 C10 3.296 . S
C2235 C170 3.297 . S
C2244 C210 3.296 . S
C2246 C50 3.298 . S
C2255 C90 3.296 . S
C2257 C130 3.298 . S
C2266 C259 3.296 . S
C2268 C419 3.298 . S
C2277 C459 3.298 . S
C2279 C299 3.297 . S
C2288 C339 3.296 . S
C2290 C379 3.296 . S
C2299 C650 3.296 . S
C2301 C490 3.298 . S
C2310 C690 3.298 . S
C2312 C530 3.297 . S
C2321 C610 3.298 . S
C2323 C570 3.296 . S
C2332 C899 3.298 . S
C2334 C739 3.297 . S
C2343 C779 3.296 . S
C2345 C939 3.298 . S
C2354 C859 3.298 . S
C2356 C819 3.296 . S
C2365 C1130 3.297 . S
C2367 C970 3.298 . S
C2376 C1010 3.296 . S
C2378 C1170 3.298 . S
C2387 C1050 3.298 . S
C2389 C1090 3.296 . S
C2398 C1379 3.296 . S
C2400 C1219 3.297 . S
C2409 C1259 3.297 . S
C2411 C1419 3.298 . S
C2420 C1299 3.298 . S
C2422 C1339 3.296 . S
C2431 C18 1.354 . S
C2433 C249 1.350 . S
C2442 C58 1.358 . S
C2444 C289 1.348 . S
C2453 C329 1.359 . S
C2455 C98 1.347 . S
C2464 C369 1.349 . S
C2466 C138 1.355 . S
C2475 C178 1.358 . S
C2477 C409 1.347 . S
C2486 C218 1.343 . S
C2488 C449 1.359 . S
C2497 C729 1.357 . S
C2499 C498 1.348 . S
C2508 C538 1.344 . S
C2510 C769 1.358 . S
C2519 C809 1.345 . S
C2521 C578 1.358 . S
C2530 C849 1.357 . S
C2532 C618 1.347 . S
C2541 C889 1.352 . S
C2543 C658 1.351 . S
C2552 C929 1.360 . S
C2554 C698 1.346 . S
C2563 C1209 1.342 . S
C2565 C978 1.359 . S
C2574 C1018 1.357 . S
C2576 C1249 1.349 . S
C2585 C1289 1.361 . S
C2587 C1058 1.345 . S
C2596 C1329 1.348 . S
C2598 C1098 1.355 . S
C2607 C1369 1.347 . S
C2609 C1138 1.355 . S
C2618 C1178 1.361 . S
C2620 C1409 1.345 . S
