# Generated by pormake.
# Topology npo, (4)-cn, num edge types: 1
# Building blocks:
#     Node 0, Type 0, BuildingBlock: KUFVIS_clean_sbu_0, # of connection points: 4
#     Node 1, Type 0, BuildingBlock: KUFVIS_clean_sbu_0, # of connection points: 4
#     Node 2, Type 0, BuildingBlock: KUFVIS_clean_sbu_0, # of connection points: 4
#     Node 3, Type 0, BuildingBlock: KUFVIS_clean_sbu_0, # of connection points: 4
#     Node 4, Type 0, BuildingBlock: KUFVIS_clean_sbu_0, # of connection points: 4
#     Node 5, Type 0, BuildingBlock: KUFVIS_clean_sbu_0, # of connection points: 4
#     Edge 6, Type (0, 0), BuildingBlock: AJUNOK_clean_linker_0, # of connection points: 2
#     Edge 7, Type (0, 0), BuildingBlock: AJUNOK_clean_linker_0, # of connection points: 2
#     Edge 8, Type (0, 0), BuildingBlock: AJUNOK_clean_linker_0, # of connection points: 2
#     Edge 9, Type (0, 0), BuildingBlock: AJUNOK_clean_linker_0, # of connection points: 2
#     Edge 10, Type (0, 0), BuildingBlock: AJUNOK_clean_linker_0, # of connection points: 2
#     Edge 11, Type (0, 0), BuildingBlock: AJUNOK_clean_linker_0, # of connection points: 2
#     Edge 12, Type (0, 0), BuildingBlock: AJUNOK_clean_linker_0, # of connection points: 2
#     Edge 13, Type (0, 0), BuildingBlock: AJUNOK_clean_linker_0, # of connection points: 2
#     Edge 14, Type (0, 0), BuildingBlock: AJUNOK_clean_linker_0, # of connection points: 2
#     Edge 15, Type (0, 0), BuildingBlock: AJUNOK_clean_linker_0, # of connection points: 2
#     Edge 16, Type (0, 0), BuildingBlock: AJUNOK_clean_linker_0, # of connection points: 2
#     Edge 17, Type (0, 0), BuildingBlock: AJUNOK_clean_linker_0, # of connection points: 2
# Relax obj value: 0.272
# Max RMSD: 0.241
# Mean RMSD: 0.233
data_MOF--net-npo--node1-KUFVIS_clean_sbu_0--edge1-AJUNOK_clean_linker_0
_symmetry_space_group_name_H-M    P1
_symmetry_Int_Tables_number       1
_symmetry_cell_setting            triclinic
loop_
_symmetry_equiv_pos_as_xyz
'x, y, z'
_cell_length_a     31.372474
_cell_length_b     32.986113
_cell_length_c     17.128848
_cell_angle_alpha  90.078928
_cell_angle_beta   92.320206
_cell_angle_gamma 121.74898
loop_
_atom_site_label
_atom_site_type_symbol
_atom_site_fract_x
_atom_site_fract_y
_atom_site_fract_z
_atom_type_partial_charge
Mn0 Mn 0.59283 0.14968 0.30482 0.0
Mn1 Mn 0.65529 0.0935 0.28342 0.0
C2 C 0.67944 0.19016 0.33341 0.0
C3 C 0.56295 0.19845 0.26781 0.0
C4 C 0.58583 0.07358 0.41492 0.0
O5 O 0.54671 0.09592 0.22584 0.0
O6 O 0.59325 0.06247 0.21452 0.0
C7 C 0.68318 0.11204 0.11838 0.0
N8 N 0.69689 0.11594 0.19583 0.0
C9 C 0.78262 0.14508 0.1672 0.0
C10 C 0.76965 0.14222 0.08719 0.0
C11 C 0.71977 0.12591 0.06272 0.0
C12 C 0.74495 0.13244 0.22002 0.0
H13 H 0.64464 0.09831 0.09922 0.0
C14 C 0.55492 0.06528 0.19551 0.0
O15 O 0.54197 0.167 0.32106 0.0
O16 O 0.5991 0.19929 0.2318 0.0
N17 N 0.71633 0.12121 0.34601 0.0
C18 C 0.72274 0.12263 0.42534 0.0
C19 C 0.77033 0.13752 0.45941 0.0
C20 C 0.81043 0.14968 0.41152 0.0
C21 C 0.80297 0.14849 0.33005 0.0
C22 C 0.75512 0.13482 0.29954 0.0
H23 H 0.6916 0.11169 0.46234 0.0
O24 O 0.65116 0.20136 0.36923 0.0
O25 O 0.65535 0.15313 0.28643 0.0
O26 O 0.57427 0.10357 0.39404 0.0
O27 O 0.61515 0.0663 0.37663 0.0
C28 C 0.84067 0.15876 0.27787 0.0
C29 C 0.83095 0.15823 0.19658 0.0
H30 H 0.79754 0.15186 0.04402 0.0
H31 H 0.70937 0.12324 1.00106 0.0
H32 H 0.7758 0.13845 0.52233 0.0
H33 H 0.84662 0.15947 0.43798 0.0
H34 H 0.8771 0.16655 0.29986 0.0
H35 H 0.86059 0.16699 0.15714 0.0
Mn36 Mn 0.40373 0.55543 0.7364 0.0
Mn37 Mn 0.33942 0.43676 0.7575 0.0
C38 C 0.31739 0.50994 0.70538 0.0
C39 C 0.43423 0.6342 0.77376 0.0
C40 C 0.41026 0.48552 0.62731 0.0
O41 O 0.44878 0.54696 0.81621 0.0
O42 O 0.4007 0.46706 0.8281 0.0
C43 C 0.30933 0.42986 0.92103 0.0
N44 N 0.29674 0.41865 0.84359 0.0
C45 C 0.21031 0.36329 0.87005 0.0
C46 C 0.22222 0.37435 0.95011 0.0
C47 C 0.27188 0.40814 0.97562 0.0
C48 C 0.24886 0.38728 0.81827 0.0
H49 H 0.34768 0.45489 0.94098 0.0
C50 C 0.43952 0.50794 0.84711 0.0
O51 O 0.45541 0.62353 0.72103 0.0
O52 O 0.39762 0.59898 0.80918 0.0
N53 N 0.27903 0.40401 0.69322 0.0
C54 C 0.2734 0.39932 0.6138 0.0
C55 C 0.22584 0.3675 0.57856 0.0
C56 C 0.18497 0.34009 0.6254 0.0
C57 C 0.19173 0.34595 0.70698 0.0
C58 C 0.23958 0.37929 0.73865 0.0
H59 H 0.30505 0.4192 0.57762 0.0
O60 O 0.34632 0.54969 0.67072 0.0
O61 O 0.34061 0.49677 0.75345 0.0
O62 O 0.42211 0.52727 0.64778 0.0
O63 O 0.38055 0.44905 0.66558 0.0
C64 C 0.15321 0.31916 0.7582 0.0
C65 C 0.16208 0.32851 0.83961 0.0
H66 H 0.19364 0.35693 0.99251 0.0
H67 H 0.28141 0.41676 0.03732 0.0
H68 H 0.22093 0.36331 0.51556 0.0
H69 H 0.14865 0.3146 0.59807 0.0
H70 H 0.11675 0.29101 0.73532 0.0
H71 H 0.13174 0.3083 0.87827 0.0
Mn72 Mn 0.87079 0.45564 0.27017 0.0
Mn73 Mn 0.94786 0.41995 0.33775 0.0
C74 C 0.84382 0.3747 0.269 0.0
C75 C 0.81102 0.47679 0.27434 0.0
C76 C 0.95765 0.46488 0.18093 0.0
O77 O 0.92012 0.51177 0.34137 0.0
O78 O 0.97007 0.4847 0.38053 0.0
C79 C 0.93129 0.41438 0.50774 0.0
N80 N 0.9311 0.39328 0.43924 0.0
C81 C 0.9241 0.32621 0.50672 0.0
C82 C 0.92414 0.34722 0.57796 0.0
C83 C 0.92725 0.39129 0.57836 0.0
C84 C 0.9267 0.35025 0.43811 0.0
H85 H 0.93568 0.449 0.50871 0.0
C86 C 0.95728 0.51578 0.38169 0.0
O87 O 0.84421 0.49246 0.22204 0.0
O88 O 0.81299 0.44921 0.32695 0.0
N89 N 0.93033 0.35781 0.30336 0.0
C90 C 0.92944 0.34196 0.22957 0.0
C91 C 0.9287 0.29948 0.21875 0.0
C92 C 0.92899 0.27398 0.28403 0.0
C93 C 0.92635 0.28926 0.35914 0.0
C94 C 0.92693 0.33176 0.36611 0.0
H95 H 0.93022 0.36209 0.17967 0.0
O96 O 0.82531 0.39169 0.21888 0.0
O97 O 0.87883 0.4058 0.31763 0.0
O98 O 0.92236 0.47206 0.18942 0.0
O99 O 0.97047 0.44509 0.2324 0.0
C100 C 0.92508 0.26504 0.42752 0.0
C101 C 0.92326 0.28315 0.50121 0.0
H102 H 0.92242 0.33014 0.63271 0.0
H103 H 0.92789 0.40803 0.63315 0.0
H104 H 0.92953 0.28723 0.1605 0.0
H105 H 0.93216 0.24328 0.2756 0.0
H106 H 0.92581 0.23265 0.42409 0.0
H107 H 0.92216 0.26414 0.55336 0.0
Mn108 Mn 0.44964 0.88144 0.79442 0.0
Mn109 Mn 0.38639 0.93666 0.76565 0.0
C110 C 0.36596 0.84416 0.82034 0.0
C111 C 0.46828 0.82443 0.76147 0.0
C112 C 0.45835 0.95874 0.90513 0.0
O113 O 0.49306 0.93193 0.71677 0.0
O114 O 0.44903 0.9684 0.70636 0.0
C115 C 0.3596 0.91372 0.59659 0.0
N116 N 0.34524 0.9106 0.67148 0.0
C117 C 0.2581 0.86025 0.63009 0.0
C118 C 0.27201 0.86306 0.55261 0.0
C119 C 0.32298 0.88999 0.5358 0.0
C120 C 0.29623 0.88512 0.68818 0.0
H121 H 0.3987 0.93389 0.58321 0.0
C122 C 0.4857 0.96376 0.68817 0.0
O123 O 0.49617 0.85776 0.81347 0.0
O124 O 0.43515 0.82884 0.72138 0.0
N125 N 0.32455 0.90679 0.81808 0.0
C126 C 0.31741 0.90613 0.89614 0.0
C127 C 0.26848 0.88019 0.92273 0.0
C128 C 0.22745 0.85502 0.86894 0.0
C129 C 0.23571 0.85624 0.78891 0.0
C130 C 0.28527 0.88319 0.76572 0.0
H131 H 0.34882 0.92483 0.93792 0.0
O132 O 0.39508 0.83374 0.85917 0.0
O133 O 0.38786 0.87872 0.77219 0.0
O134 O 0.47281 0.93128 0.88251 0.0
O135 O 0.42631 0.96421 0.86577 0.0
C136 C 0.19677 0.83109 0.73141 0.0
C137 C 0.20796 0.8331 0.65206 0.0
H138 H 0.24391 0.8444 0.50564 0.0
H139 H 0.33403 0.89216 0.47618 0.0
H140 H 0.26243 0.87924 0.98462 0.0
H141 H 0.18981 0.83461 0.88977 0.0
H142 H 0.1581 0.80979 0.74764 0.0
H143 H 0.17772 0.81333 0.60845 0.0
Mn144 Mn 0.54662 0.42998 0.2469 0.0
Mn145 Mn 0.6085 0.54847 0.27624 0.0
C146 C 0.63039 0.47733 0.22188 0.0
C147 C 0.52876 0.35452 0.27921 0.0
C148 C 0.53685 0.49803 0.13661 0.0
O149 O 0.50266 0.43628 0.32466 0.0
O150 O 0.54579 0.51686 0.33524 0.0
C151 C 0.63517 0.55273 0.44538 0.0
N152 N 0.64958 0.56401 0.37054 0.0
C153 C 0.73676 0.60175 0.41224 0.0
C154 C 0.72279 0.59059 0.48967 0.0
C155 C 0.67178 0.56607 0.50629 0.0
C156 C 0.69864 0.58804 0.35402 0.0
H157 H 0.59604 0.53344 0.45863 0.0
C158 C 0.5095 0.47532 0.35333 0.0
O159 O 0.50074 0.35969 0.22725 0.0
O160 O 0.56163 0.39215 0.31955 0.0
N161 N 0.6704 0.58106 0.22404 0.0
C162 C 0.67762 0.58755 0.14602 0.0
C163 C 0.72661 0.61103 0.1196 0.0
C164 C 0.76762 0.62735 0.17354 0.0
C165 C 0.75928 0.62027 0.25352 0.0
C166 C 0.70966 0.59715 0.27653 0.0
H167 H 0.64622 0.57449 0.10414 0.0
O168 O 0.60182 0.43782 0.18246 0.0
O169 O 0.60783 0.48947 0.26964 0.0
O170 O 0.52297 0.45623 0.15903 0.0
O171 O 0.56861 0.5357 0.17606 0.0
C172 C 0.79822 0.63452 0.31115 0.0
C173 C 0.78697 0.62528 0.39045 0.0
H174 H 0.75089 0.60038 0.53674 0.0
H175 H 0.66069 0.55714 0.56588 0.0
H176 H 0.73272 0.61616 0.05774 0.0
H177 H 0.80532 0.64497 0.15284 0.0
H178 H 0.83694 0.6523 0.29506 0.0
H179 H 0.81721 0.63611 0.43417 0.0
Mn180 Mn 0.12587 0.58078 0.7815 0.0
Mn181 Mn 0.04548 0.46837 0.71393 0.0
C182 C 0.15159 0.5259 0.77654 0.0
C183 C 0.18595 0.66161 0.7758 0.0
C184 C 0.03971 0.50448 0.873 0.0
O185 O 0.07553 0.58854 0.71492 0.0
O186 O 0.02465 0.5121 0.67271 0.0
C187 C 0.05906 0.47787 0.54305 0.0
N188 N 0.06006 0.45728 0.61141 0.0
C189 C 0.06598 0.39677 0.54291 0.0
C190 C 0.06544 0.41762 0.47189 0.0
C191 C 0.06241 0.45861 0.47206 0.0
C192 C 0.06415 0.41847 0.61192 0.0
H193 H 0.05473 0.50811 0.54252 0.0
C194 C 0.03827 0.55621 0.67344 0.0
O195 O 0.15446 0.64431 0.83053 0.0
O196 O 0.18236 0.6318 0.72201 0.0
N197 N 0.06203 0.42291 0.74696 0.0
C198 C 0.06314 0.40787 0.82051 0.0
C199 C 0.06303 0.36568 0.83068 0.0
C200 C 0.06188 0.33961 0.76501 0.0
C201 C 0.06449 0.35766 0.69008 0.0
C202 C 0.06447 0.39989 0.68373 0.0
H203 H 0.06305 0.42742 0.87074 0.0
O204 O 0.17177 0.56118 0.82742 0.0
O205 O 0.1154 0.52253 0.73155 0.0
O206 O 0.07642 0.54629 0.86495 0.0
O207 O 0.02455 0.47198 0.82033 0.0
C208 C 0.06523 0.33458 0.62132 0.0
C209 C 0.06668 0.35447 0.54784 0.0
H210 H 0.06666 0.40211 0.41688 0.0
H211 H 0.06137 0.47462 0.41747 0.0
H212 H 0.06228 0.35251 0.88877 0.0
H213 H 0.05822 0.30548 0.77308 0.0
H214 H 0.06448 0.30143 0.62426 0.0
H215 H 0.06734 0.33646 0.4954 0.0
C216 C 0.50436 0.22858 0.27213 0.0
C217 C 0.55268 0.23715 0.26057 0.0
C218 C 0.49591 0.26642 0.27687 0.0
C219 C 0.536 0.31391 0.27367 0.0
H220 H 0.47307 0.19244 0.27846 0.0
H221 H 0.45832 0.25863 0.28537 0.0
S222 S 0.66937 0.35527 0.24318 0.0
N223 N 0.64054 0.29659 0.24369 0.0
N224 N 0.62531 0.36738 0.25591 0.0
C225 C 0.58426 0.32275 0.26136 0.0
C226 C 0.59247 0.28444 0.25397 0.0
C227 C 0.24803 0.49052 0.7939 0.0
C228 C 0.26479 0.49634 0.71724 0.0
C229 C 0.20732 0.49504 0.81172 0.0
C230 C 0.18147 0.50507 0.75355 0.0
H231 H 0.26952 0.4874 0.84195 0.0
H232 H 0.19858 0.49445 0.87242 0.0
S233 S 0.2063 0.51711 0.54216 0.0
N234 N 0.24873 0.50709 0.58159 0.0
N235 N 0.17288 0.51627 0.61484 0.0
C236 C 0.19487 0.50644 0.67565 0.0
C237 C 0.2364 0.50195 0.65761 0.0
C238 C 0.76184 0.26207 0.37857 0.0
C239 C 0.73123 0.22971 0.31779 0.0
C240 C 0.80275 0.30776 0.36263 0.0
C241 C 0.8141 0.3229 0.28524 0.0
H242 H 0.75173 0.25344 0.43867 0.0
H243 H 0.82237 0.33278 0.41113 0.0
S244 S 0.74944 0.25041 0.1053 0.0
N245 N 0.71816 0.21526 0.17709 0.0
N246 N 0.79525 0.30023 0.14782 0.0
C247 C 0.78671 0.28947 0.22439 0.0
C248 C 0.74522 0.24308 0.24044 0.0
C249 C 0.50129 0.7693 0.7642 0.0
C250 C 0.46116 0.77663 0.76716 0.0
C251 C 0.49288 0.72301 0.76911 0.0
C252 C 0.44455 0.68323 0.78063 0.0
H253 H 0.53889 0.79914 0.75576 0.0
H254 H 0.5242 0.71821 0.763 0.0
S255 S 0.32776 0.68448 0.79731 0.0
N256 N 0.37181 0.74066 0.78459 0.0
N257 N 0.35665 0.65472 0.79709 0.0
C258 C 0.40473 0.69067 0.78694 0.0
C259 C 0.4129 0.73715 0.77938 0.0
C260 C 0.71364 0.49749 0.17942 0.0
C261 C 0.68212 0.48999 0.24038 0.0
C262 C 0.75728 0.49637 0.19272 0.0
C263 C 0.76987 0.48603 0.26693 0.0
H264 H 0.70318 0.50185 0.12038 0.0
H265 H 0.77946 0.50054 0.14309 0.0
S266 S 0.70114 0.46717 0.44717 0.0
N267 N 0.66788 0.47531 0.37888 0.0
N268 N 0.74949 0.47205 0.40331 0.0
C269 C 0.74004 0.481 0.32928 0.0
C270 C 0.69617 0.48324 0.3161 0.0
C271 C 0.28377 0.78126 0.86606 0.0
C272 C 0.31409 0.80482 0.80371 0.0
C273 C 0.2404 0.73609 0.85477 0.0
C274 C 0.22682 0.71225 0.78117 0.0
H275 H 0.29507 0.79678 0.92467 0.0
H276 H 0.21924 0.71855 0.90547 0.0
S277 S 0.29208 0.76062 0.59777 0.0
N278 N 0.32609 0.80296 0.66457 0.0
N279 N 0.24483 0.71733 0.64378 0.0
C280 C 0.25532 0.73658 0.71739 0.0
C281 C 0.29898 0.78311 0.7286 0.0
C282 C 0.48054 0.02643 1.00028 0.0
C283 C 0.47833 0.98357 0.98274 0.0
C284 C 0.50233 0.05143 0.07186 0.0
C285 C 0.52236 0.03426 0.12856 0.0
H286 H 0.46709 0.04171 0.95733 0.0
H287 H 0.50581 0.08557 0.08106 0.0
S288 S 0.51782 0.91968 0.11734 0.0
N289 N 0.49241 0.92226 0.03272 0.0
N290 N 0.53298 0.969 0.16615 0.0
C291 C 0.51731 0.98997 0.11373 0.0
C292 C 0.49545 0.96472 0.04119 0.0
C293 C 0.4806 0.51643 0.4397 0.0
C294 C 0.47775 0.47397 0.41704 0.0
C295 C 0.45815 0.51927 0.50666 0.0
C296 C 0.43147 0.47976 0.55459 0.0
H297 H 0.50158 0.54849 0.40653 0.0
H298 H 0.46253 0.55326 0.5213 0.0
S299 S 0.40948 0.35889 0.51888 0.0
N300 N 0.44373 0.39048 0.44614 0.0
N301 N 0.401 0.39568 0.57193 0.0
C302 C 0.42636 0.43635 0.53108 0.0
C303 C 0.44948 0.43347 0.46245 0.0
C304 C 0.00686 0.45249 0.98919 0.0
C305 C 0.01624 0.49346 0.94946 0.0
C306 C 0.99078 0.44484 0.06598 0.0
C307 C 0.98144 0.47685 0.10465 0.0
H308 H 0.01301 0.4266 0.96183 0.0
H309 H 0.98461 0.41305 0.09421 0.0
S310 S -0.00075 0.58913 0.02557 0.0
N311 N 0.01564 0.56677 0.95473 0.0
N312 N 0.98264 0.55102 0.09728 0.0
C313 C 0.99003 0.51763 0.06511 0.0
C314 C 0.00796 0.52619 0.98799 0.0
C315 C 0.53553 0.05812 0.53327 0.0
C316 C 0.56434 0.04673 0.4876 0.0
C317 C 0.51272 0.03269 0.59992 0.0
C318 C 0.51735 0.99438 0.62455 0.0
H319 H 0.52969 0.08662 0.51698 0.0
H320 H 0.49011 0.04262 0.63125 0.0
S321 S 0.59159 0.9518 0.52923 0.0
N322 N 0.5987 0.99598 0.47466 0.0
N323 N 0.55538 0.94785 0.59983 0.0
C324 C 0.54769 0.98364 0.58142 0.0
C325 C 0.57114 0.00976 0.5131 0.0
C326 C 0.49277 0.54669 0.97035 0.0
C327 C 0.47176 0.5091 0.91413 0.0
C328 C 0.5148 0.54355 0.04161 0.0
C329 C 0.51636 0.50259 0.05932 0.0
H330 H 0.48999 0.57771 0.96097 0.0
H331 H 0.52908 0.57267 0.08416 0.0
S332 S 0.47393 0.39786 0.92584 0.0
N333 N 0.45928 0.43232 0.87713 0.0
N334 N 0.50035 0.42627 1.00992 0.0
C335 C 0.49812 0.46611 1.00134 0.0
C336 C 0.47596 0.46942 0.92914 0.0
C337 C 0.9673 0.54755 0.59014 0.0
C338 C 0.01935 0.57049 0.60539 0.0
C339 C 0.94694 0.53831 0.513 0.0
C340 C 0.978 0.54936 0.44936 0.0
H341 H 0.94207 0.53158 0.63742 0.0
H342 H 0.90656 0.5156 0.50387 0.0
S343 S 0.11676 0.61853 0.45854 0.0
N344 N 0.10167 0.61338 0.55082 0.0
N345 N 0.0631 0.59168 0.40616 0.0
C346 C 0.03003 0.57798 0.46377 0.0
C347 C 0.0508 0.58971 0.54211 0.0
loop_
_geom_bond_atom_site_label_1
_geom_bond_atom_site_label_2
_geom_bond_distance
_geom_bond_site_symmetry_2
_ccdc_geom_bond_type
Mn0 O5 2.095 . S
Mn0 O15 2.162 . S
Mn0 O16 2.297 . S
Mn0 O24 2.385 . S
Mn0 O25 2.209 . S
Mn0 O26 2.094 . S
Mn1 O6 2.121 . S
Mn1 N8 2.257 . S
Mn1 N17 2.282 . S
Mn1 O25 2.215 . S
Mn1 O27 2.117 . S
C2 O24 1.234 . S
C2 O25 1.283 . S
C3 O15 1.281 . S
C3 O16 1.236 . S
C4 O26 1.240 . S
C4 O27 1.264 . S
O5 Mn0 2.095 . S
O5 C14 1.250 . S
O6 Mn1 2.121 . S
O6 C14 1.258 . S
C7 N8 1.326 . S
C7 C11 1.460 . S
C7 H13 0.929 . S
N8 Mn1 2.257 . S
N8 C7 1.326 . S
N8 C12 1.362 . S
C9 C10 1.258 . S
C9 C12 1.431 . S
C9 C29 1.449 . S
C10 C9 1.258 . S
C10 C11 1.477 . S
C10 H30 0.931 . S
C11 C7 1.460 . S
C11 C10 1.477 . S
C11 H31 0.930 . S
C12 N8 1.362 . S
C12 C9 1.431 . S
C12 C22 1.476 . S
H13 C7 0.929 . S
C14 O5 1.250 . S
C14 O6 1.258 . S
O15 Mn0 2.162 . S
O15 C3 1.281 . S
O16 Mn0 2.297 . S
O16 C3 1.236 . S
N17 Mn1 2.282 . S
N17 C18 1.328 . S
N17 C22 1.318 . S
C18 N17 1.328 . S
C18 C19 1.457 . S
C18 H23 0.929 . S
C19 C18 1.457 . S
C19 C20 1.291 . S
C19 H32 0.931 . S
C20 C19 1.291 . S
C20 C21 1.373 . S
C20 H33 0.929 . S
C21 C20 1.373 . S
C21 C22 1.396 . S
C21 C28 1.403 . S
C22 C12 1.476 . S
C22 N17 1.318 . S
C22 C21 1.396 . S
H23 C18 0.929 . S
O24 Mn0 2.385 . S
O24 C2 1.234 . S
O25 Mn0 2.209 . S
O25 Mn1 2.215 . S
O25 C2 1.283 . S
O26 Mn0 2.094 . S
O26 C4 1.240 . S
O27 Mn1 2.117 . S
O27 C4 1.264 . S
C28 C21 1.403 . S
C28 C29 1.399 . S
C28 H34 0.929 . S
C29 C9 1.449 . S
C29 C28 1.399 . S
C29 H35 0.930 . S
H30 C10 0.931 . S
H31 C11 0.930 . S
H32 C19 0.931 . S
H33 C20 0.929 . S
H34 C28 0.929 . S
H35 C29 0.930 . S
Mn36 O41 2.095 . S
Mn36 O51 2.162 . S
Mn36 O52 2.297 . S
Mn36 O60 2.385 . S
Mn36 O61 2.209 . S
Mn36 O62 2.094 . S
Mn37 O42 2.121 . S
Mn37 N44 2.257 . S
Mn37 N53 2.282 . S
Mn37 O61 2.215 . S
Mn37 O63 2.117 . S
C38 O60 1.234 . S
C38 O61 1.283 . S
C39 O51 1.281 . S
C39 O52 1.236 . S
C40 O62 1.240 . S
C40 O63 1.264 . S
O41 Mn36 2.095 . S
O41 C50 1.250 . S
O42 Mn37 2.121 . S
O42 C50 1.258 . S
C43 N44 1.326 . S
C43 C47 1.460 . S
C43 H49 0.929 . S
N44 Mn37 2.257 . S
N44 C43 1.326 . S
N44 C48 1.362 . S
C45 C46 1.258 . S
C45 C48 1.431 . S
C45 C65 1.449 . S
C46 C45 1.258 . S
C46 C47 1.477 . S
C46 H66 0.931 . S
C47 C43 1.460 . S
C47 C46 1.477 . S
C47 H67 0.930 . S
C48 N44 1.362 . S
C48 C45 1.431 . S
C48 C58 1.476 . S
H49 C43 0.929 . S
C50 O41 1.250 . S
C50 O42 1.258 . S
O51 Mn36 2.162 . S
O51 C39 1.281 . S
O52 Mn36 2.297 . S
O52 C39 1.236 . S
N53 Mn37 2.282 . S
N53 C54 1.328 . S
N53 C58 1.318 . S
C54 N53 1.328 . S
C54 C55 1.457 . S
C54 H59 0.929 . S
C55 C54 1.457 . S
C55 C56 1.291 . S
C55 H68 0.931 . S
C56 C55 1.291 . S
C56 C57 1.373 . S
C56 H69 0.929 . S
C57 C56 1.373 . S
C57 C58 1.396 . S
C57 C64 1.403 . S
C58 C48 1.476 . S
C58 N53 1.318 . S
C58 C57 1.396 . S
H59 C54 0.929 . S
O60 Mn36 2.385 . S
O60 C38 1.234 . S
O61 Mn36 2.209 . S
O61 Mn37 2.215 . S
O61 C38 1.283 . S
O62 Mn36 2.094 . S
O62 C40 1.240 . S
O63 Mn37 2.117 . S
O63 C40 1.264 . S
C64 C57 1.403 . S
C64 C65 1.399 . S
C64 H70 0.929 . S
C65 C45 1.449 . S
C65 C64 1.399 . S
C65 H71 0.930 . S
H66 C46 0.931 . S
H67 C47 0.930 . S
H68 C55 0.931 . S
H69 C56 0.929 . S
H70 C64 0.929 . S
H71 C65 0.930 . S
Mn72 O77 2.095 . S
Mn72 O87 2.162 . S
Mn72 O88 2.297 . S
Mn72 O96 2.385 . S
Mn72 O97 2.209 . S
Mn72 O98 2.094 . S
Mn73 O78 2.121 . S
Mn73 N80 2.257 . S
Mn73 N89 2.282 . S
Mn73 O97 2.215 . S
Mn73 O99 2.117 . S
C74 O96 1.234 . S
C74 O97 1.283 . S
C75 O87 1.281 . S
C75 O88 1.236 . S
C76 O98 1.240 . S
C76 O99 1.264 . S
O77 Mn72 2.095 . S
O77 C86 1.250 . S
O78 Mn73 2.121 . S
O78 C86 1.258 . S
C79 N80 1.326 . S
C79 C83 1.460 . S
C79 H85 0.929 . S
N80 Mn73 2.257 . S
N80 C79 1.326 . S
N80 C84 1.362 . S
C81 C82 1.258 . S
C81 C84 1.431 . S
C81 C101 1.449 . S
C82 C81 1.258 . S
C82 C83 1.477 . S
C82 H102 0.931 . S
C83 C79 1.460 . S
C83 C82 1.477 . S
C83 H103 0.930 . S
C84 N80 1.362 . S
C84 C81 1.431 . S
C84 C94 1.476 . S
H85 C79 0.929 . S
C86 O77 1.250 . S
C86 O78 1.258 . S
O87 Mn72 2.162 . S
O87 C75 1.281 . S
O88 Mn72 2.297 . S
O88 C75 1.236 . S
N89 Mn73 2.282 . S
N89 C90 1.328 . S
N89 C94 1.318 . S
C90 N89 1.328 . S
C90 C91 1.457 . S
C90 H95 0.929 . S
C91 C90 1.457 . S
C91 C92 1.291 . S
C91 H104 0.931 . S
C92 C91 1.291 . S
C92 C93 1.373 . S
C92 H105 0.929 . S
C93 C92 1.373 . S
C93 C94 1.396 . S
C93 C100 1.403 . S
C94 C84 1.476 . S
C94 N89 1.318 . S
C94 C93 1.396 . S
H95 C90 0.929 . S
O96 Mn72 2.385 . S
O96 C74 1.234 . S
O97 Mn72 2.209 . S
O97 Mn73 2.215 . S
O97 C74 1.283 . S
O98 Mn72 2.094 . S
O98 C76 1.240 . S
O99 Mn73 2.117 . S
O99 C76 1.264 . S
C100 C93 1.403 . S
C100 C101 1.399 . S
C100 H106 0.929 . S
C101 C81 1.449 . S
C101 C100 1.399 . S
C101 H107 0.930 . S
H102 C82 0.931 . S
H103 C83 0.930 . S
H104 C91 0.931 . S
H105 C92 0.929 . S
H106 C100 0.929 . S
H107 C101 0.930 . S
Mn108 O113 2.095 . S
Mn108 O123 2.162 . S
Mn108 O124 2.297 . S
Mn108 O132 2.385 . S
Mn108 O133 2.209 . S
Mn108 O134 2.094 . S
Mn109 O114 2.121 . S
Mn109 N116 2.257 . S
Mn109 N125 2.282 . S
Mn109 O133 2.215 . S
Mn109 O135 2.117 . S
C110 O132 1.234 . S
C110 O133 1.283 . S
C111 O123 1.281 . S
C111 O124 1.236 . S
C112 O134 1.240 . S
C112 O135 1.264 . S
O113 Mn108 2.095 . S
O113 C122 1.250 . S
O114 Mn109 2.121 . S
O114 C122 1.258 . S
C115 N116 1.326 . S
C115 C119 1.460 . S
C115 H121 0.929 . S
N116 Mn109 2.257 . S
N116 C115 1.326 . S
N116 C120 1.362 . S
C117 C118 1.258 . S
C117 C120 1.431 . S
C117 C137 1.449 . S
C118 C117 1.258 . S
C118 C119 1.477 . S
C118 H138 0.931 . S
C119 C115 1.460 . S
C119 C118 1.477 . S
C119 H139 0.930 . S
C120 N116 1.362 . S
C120 C117 1.431 . S
C120 C130 1.476 . S
H121 C115 0.929 . S
C122 O113 1.250 . S
C122 O114 1.258 . S
O123 Mn108 2.162 . S
O123 C111 1.281 . S
O124 Mn108 2.297 . S
O124 C111 1.236 . S
N125 Mn109 2.282 . S
N125 C126 1.328 . S
N125 C130 1.318 . S
C126 N125 1.328 . S
C126 C127 1.457 . S
C126 H131 0.929 . S
C127 C126 1.457 . S
C127 C128 1.291 . S
C127 H140 0.931 . S
C128 C127 1.291 . S
C128 C129 1.373 . S
C128 H141 0.929 . S
C129 C128 1.373 . S
C129 C130 1.396 . S
C129 C136 1.403 . S
C130 C120 1.476 . S
C130 N125 1.318 . S
C130 C129 1.396 . S
H131 C126 0.929 . S
O132 Mn108 2.385 . S
O132 C110 1.234 . S
O133 Mn108 2.209 . S
O133 Mn109 2.215 . S
O133 C110 1.283 . S
O134 Mn108 2.094 . S
O134 C112 1.240 . S
O135 Mn109 2.117 . S
O135 C112 1.264 . S
C136 C129 1.403 . S
C136 C137 1.399 . S
C136 H142 0.929 . S
C137 C117 1.449 . S
C137 C136 1.399 . S
C137 H143 0.930 . S
H138 C118 0.931 . S
H139 C119 0.930 . S
H140 C127 0.931 . S
H141 C128 0.929 . S
H142 C136 0.929 . S
H143 C137 0.930 . S
Mn144 O149 2.095 . S
Mn144 O159 2.162 . S
Mn144 O160 2.297 . S
Mn144 O168 2.385 . S
Mn144 O169 2.209 . S
Mn144 O170 2.094 . S
Mn145 O150 2.121 . S
Mn145 N152 2.257 . S
Mn145 N161 2.282 . S
Mn145 O169 2.215 . S
Mn145 O171 2.117 . S
C146 O168 1.234 . S
C146 O169 1.283 . S
C147 O159 1.281 . S
C147 O160 1.236 . S
C148 O170 1.240 . S
C148 O171 1.264 . S
O149 Mn144 2.095 . S
O149 C158 1.250 . S
O150 Mn145 2.121 . S
O150 C158 1.258 . S
C151 N152 1.326 . S
C151 C155 1.460 . S
C151 H157 0.929 . S
N152 Mn145 2.257 . S
N152 C151 1.326 . S
N152 C156 1.362 . S
C153 C154 1.258 . S
C153 C156 1.431 . S
C153 C173 1.449 . S
C154 C153 1.258 . S
C154 C155 1.477 . S
C154 H174 0.931 . S
C155 C151 1.460 . S
C155 C154 1.477 . S
C155 H175 0.930 . S
C156 N152 1.362 . S
C156 C153 1.431 . S
C156 C166 1.476 . S
H157 C151 0.929 . S
C158 O149 1.250 . S
C158 O150 1.258 . S
O159 Mn144 2.162 . S
O159 C147 1.281 . S
O160 Mn144 2.297 . S
O160 C147 1.236 . S
N161 Mn145 2.282 . S
N161 C162 1.328 . S
N161 C166 1.318 . S
C162 N161 1.328 . S
C162 C163 1.457 . S
C162 H167 0.929 . S
C163 C162 1.457 . S
C163 C164 1.291 . S
C163 H176 0.931 . S
C164 C163 1.291 . S
C164 C165 1.373 . S
C164 H177 0.929 . S
C165 C164 1.373 . S
C165 C166 1.396 . S
C165 C172 1.403 . S
C166 C156 1.476 . S
C166 N161 1.318 . S
C166 C165 1.396 . S
H167 C162 0.929 . S
O168 Mn144 2.385 . S
O168 C146 1.234 . S
O169 Mn144 2.209 . S
O169 Mn145 2.215 . S
O169 C146 1.283 . S
O170 Mn144 2.094 . S
O170 C148 1.240 . S
O171 Mn145 2.117 . S
O171 C148 1.264 . S
C172 C165 1.403 . S
C172 C173 1.399 . S
C172 H178 0.929 . S
C173 C153 1.449 . S
C173 C172 1.399 . S
C173 H179 0.930 . S
H174 C154 0.931 . S
H175 C155 0.930 . S
H176 C163 0.931 . S
H177 C164 0.929 . S
H178 C172 0.929 . S
H179 C173 0.930 . S
Mn180 O185 2.095 . S
Mn180 O195 2.162 . S
Mn180 O196 2.297 . S
Mn180 O204 2.385 . S
Mn180 O205 2.209 . S
Mn180 O206 2.094 . S
Mn181 O186 2.121 . S
Mn181 N188 2.257 . S
Mn181 N197 2.282 . S
Mn181 O205 2.215 . S
Mn181 O207 2.117 . S
C182 O204 1.234 . S
C182 O205 1.283 . S
C183 O195 1.281 . S
C183 O196 1.236 . S
C184 O206 1.240 . S
C184 O207 1.264 . S
O185 Mn180 2.095 . S
O185 C194 1.250 . S
O186 Mn181 2.121 . S
O186 C194 1.258 . S
C187 N188 1.326 . S
C187 C191 1.460 . S
C187 H193 0.929 . S
N188 Mn181 2.257 . S
N188 C187 1.326 . S
N188 C192 1.362 . S
C189 C190 1.258 . S
C189 C192 1.431 . S
C189 C209 1.449 . S
C190 C189 1.258 . S
C190 C191 1.477 . S
C190 H210 0.931 . S
C191 C187 1.460 . S
C191 C190 1.477 . S
C191 H211 0.930 . S
C192 N188 1.362 . S
C192 C189 1.431 . S
C192 C202 1.476 . S
H193 C187 0.929 . S
C194 O185 1.250 . S
C194 O186 1.258 . S
O195 Mn180 2.162 . S
O195 C183 1.281 . S
O196 Mn180 2.297 . S
O196 C183 1.236 . S
N197 Mn181 2.282 . S
N197 C198 1.328 . S
N197 C202 1.318 . S
C198 N197 1.328 . S
C198 C199 1.457 . S
C198 H203 0.929 . S
C199 C198 1.457 . S
C199 C200 1.291 . S
C199 H212 0.931 . S
C200 C199 1.291 . S
C200 C201 1.373 . S
C200 H213 0.929 . S
C201 C200 1.373 . S
C201 C202 1.396 . S
C201 C208 1.403 . S
C202 C192 1.476 . S
C202 N197 1.318 . S
C202 C201 1.396 . S
H203 C198 0.929 . S
O204 Mn180 2.385 . S
O204 C182 1.234 . S
O205 Mn180 2.209 . S
O205 Mn181 2.215 . S
O205 C182 1.283 . S
O206 Mn180 2.094 . S
O206 C184 1.240 . S
O207 Mn181 2.117 . S
O207 C184 1.264 . S
C208 C201 1.403 . S
C208 C209 1.399 . S
C208 H214 0.929 . S
C209 C189 1.449 . S
C209 C208 1.399 . S
C209 H215 0.930 . S
H210 C190 0.931 . S
H211 C191 0.930 . S
H212 C199 0.931 . S
H213 C200 0.929 . S
H214 C208 0.929 . S
H215 C209 0.930 . S
C216 C217 1.369 . S
C216 C218 1.419 . S
C216 H220 0.930 . S
C217 C216 1.369 . S
C217 C226 1.429 . S
C218 C216 1.419 . S
C218 C219 1.363 . S
C218 H221 0.929 . S
C219 C218 1.363 . S
C219 C225 1.428 . S
H220 C216 0.930 . S
H221 C218 0.929 . S
S222 N223 1.613 . S
S222 N224 1.610 . S
N223 S222 1.613 . S
N223 C226 1.350 . S
N224 S222 1.610 . S
N224 C225 1.351 . S
C225 C219 1.428 . S
C225 N224 1.351 . S
C225 C226 1.434 . S
C226 C217 1.429 . S
C226 N223 1.350 . S
C226 C225 1.434 . S
C227 C228 1.369 . S
C227 C229 1.419 . S
C227 H231 0.930 . S
C228 C227 1.369 . S
C228 C237 1.429 . S
C229 C227 1.419 . S
C229 C230 1.363 . S
C229 H232 0.929 . S
C230 C229 1.363 . S
C230 C236 1.428 . S
H231 C227 0.930 . S
H232 C229 0.929 . S
S233 N234 1.613 . S
S233 N235 1.610 . S
N234 S233 1.613 . S
N234 C237 1.350 . S
N235 S233 1.610 . S
N235 C236 1.351 . S
C236 C230 1.428 . S
C236 N235 1.351 . S
C236 C237 1.434 . S
C237 C228 1.429 . S
C237 N234 1.350 . S
C237 C236 1.434 . S
C238 C239 1.369 . S
C238 C240 1.419 . S
C238 H242 0.930 . S
C239 C238 1.369 . S
C239 C248 1.429 . S
C240 C238 1.419 . S
C240 C241 1.363 . S
C240 H243 0.929 . S
C241 C240 1.363 . S
C241 C247 1.428 . S
H242 C238 0.930 . S
H243 C240 0.929 . S
S244 N245 1.613 . S
S244 N246 1.610 . S
N245 S244 1.613 . S
N245 C248 1.350 . S
N246 S244 1.610 . S
N246 C247 1.351 . S
C247 C241 1.428 . S
C247 N246 1.351 . S
C247 C248 1.434 . S
C248 C239 1.429 . S
C248 N245 1.350 . S
C248 C247 1.434 . S
C249 C250 1.369 . S
C249 C251 1.419 . S
C249 H253 0.930 . S
C250 C249 1.369 . S
C250 C259 1.429 . S
C251 C249 1.419 . S
C251 C252 1.363 . S
C251 H254 0.929 . S
C252 C251 1.363 . S
C252 C258 1.428 . S
H253 C249 0.930 . S
H254 C251 0.929 . S
S255 N256 1.613 . S
S255 N257 1.610 . S
N256 S255 1.613 . S
N256 C259 1.350 . S
N257 S255 1.610 . S
N257 C258 1.351 . S
C258 C252 1.428 . S
C258 N257 1.351 . S
C258 C259 1.434 . S
C259 C250 1.429 . S
C259 N256 1.350 . S
C259 C258 1.434 . S
C260 C261 1.369 . S
C260 C262 1.419 . S
C260 H264 0.930 . S
C261 C260 1.369 . S
C261 C270 1.429 . S
C262 C260 1.419 . S
C262 C263 1.363 . S
C262 H265 0.929 . S
C263 C262 1.363 . S
C263 C269 1.428 . S
H264 C260 0.930 . S
H265 C262 0.929 . S
S266 N267 1.613 . S
S266 N268 1.610 . S
N267 S266 1.613 . S
N267 C270 1.350 . S
N268 S266 1.610 . S
N268 C269 1.351 . S
C269 C263 1.428 . S
C269 N268 1.351 . S
C269 C270 1.434 . S
C270 C261 1.429 . S
C270 N267 1.350 . S
C270 C269 1.434 . S
C271 C272 1.369 . S
C271 C273 1.419 . S
C271 H275 0.930 . S
C272 C271 1.369 . S
C272 C281 1.429 . S
C273 C271 1.419 . S
C273 C274 1.363 . S
C273 H276 0.929 . S
C274 C273 1.363 . S
C274 C280 1.428 . S
H275 C271 0.930 . S
H276 C273 0.929 . S
S277 N278 1.613 . S
S277 N279 1.610 . S
N278 S277 1.613 . S
N278 C281 1.350 . S
N279 S277 1.610 . S
N279 C280 1.351 . S
C280 C274 1.428 . S
C280 N279 1.351 . S
C280 C281 1.434 . S
C281 C272 1.429 . S
C281 N278 1.350 . S
C281 C280 1.434 . S
C282 C283 1.369 1_545 S
C282 C284 1.419 1_556 S
C282 H286 0.930 . S
C283 C282 1.369 1_565 S
C283 C292 1.429 1_556 S
C284 C282 1.419 1_554 S
C284 C285 1.363 . S
C284 H287 0.929 . S
C285 C284 1.363 . S
C285 C291 1.428 1_545 S
H286 C282 0.930 . S
H287 C284 0.929 . S
S288 N289 1.613 . S
S288 N290 1.610 . S
N289 S288 1.613 . S
N289 C292 1.350 . S
N290 S288 1.610 . S
N290 C291 1.351 . S
C291 C285 1.428 1_565 S
C291 N290 1.351 . S
C291 C292 1.434 . S
C292 C283 1.429 1_554 S
C292 N289 1.350 . S
C292 C291 1.434 . S
C293 C294 1.369 . S
C293 C295 1.419 . S
C293 H297 0.930 . S
C294 C293 1.369 . S
C294 C303 1.429 . S
C295 C293 1.419 . S
C295 C296 1.363 . S
C295 H298 0.929 . S
C296 C295 1.363 . S
C296 C302 1.428 . S
H297 C293 0.930 . S
H298 C295 0.929 . S
S299 N300 1.613 . S
S299 N301 1.610 . S
N300 S299 1.613 . S
N300 C303 1.350 . S
N301 S299 1.610 . S
N301 C302 1.351 . S
C302 C296 1.428 . S
C302 N301 1.351 . S
C302 C303 1.434 . S
C303 C294 1.429 . S
C303 N300 1.350 . S
C303 C302 1.434 . S
C304 C305 1.369 . S
C304 C306 1.420 1_456 S
C304 H308 0.929 1_455 S
C305 C304 1.369 . S
C305 C314 1.429 . S
C306 C304 1.420 1_654 S
C306 C307 1.363 . S
C306 H309 0.929 . S
C307 C306 1.363 . S
C307 C313 1.428 1_655 S
H308 C304 0.929 1_655 S
H309 C306 0.929 . S
S310 N311 1.613 1_554 S
S310 N312 1.610 . S
N311 S310 1.613 1_556 S
N311 C314 1.350 . S
N312 S310 1.610 . S
N312 C313 1.351 . S
C313 C307 1.428 1_455 S
C313 N312 1.351 . S
C313 C314 1.434 1_554 S
C314 C305 1.429 . S
C314 N311 1.350 . S
C314 C313 1.434 1_556 S
C315 C316 1.369 . S
C315 C317 1.419 1_545 S
C315 H319 0.930 . S
C316 C315 1.369 . S
C316 C325 1.429 . S
C317 C315 1.419 1_565 S
C317 C318 1.363 . S
C317 H320 0.929 . S
C318 C317 1.363 . S
C318 C324 1.428 . S
H319 C315 0.930 . S
H320 C317 0.929 . S
S321 N322 1.613 1_565 S
S321 N323 1.610 . S
N322 S321 1.613 1_545 S
N322 C325 1.350 . S
N323 S321 1.610 . S
N323 C324 1.351 . S
C324 C318 1.428 . S
C324 N323 1.351 . S
C324 C325 1.434 1_565 S
C325 C316 1.429 . S
C325 N322 1.350 . S
C325 C324 1.434 1_545 S
C326 C327 1.369 . S
C326 C328 1.419 1_556 S
C326 H330 0.930 . S
C327 C326 1.369 . S
C327 C336 1.429 . S
C328 C326 1.419 1_554 S
C328 C329 1.363 . S
C328 H331 0.929 . S
C329 C328 1.363 . S
C329 C335 1.428 1_554 S
H330 C326 0.930 . S
H331 C328 0.929 . S
S332 N333 1.613 . S
S332 N334 1.610 . S
N333 S332 1.613 . S
N333 C336 1.350 . S
N334 S332 1.610 . S
N334 C335 1.351 . S
C335 C329 1.428 1_556 S
C335 N334 1.351 . S
C335 C336 1.434 . S
C336 C327 1.429 . S
C336 N333 1.350 . S
C336 C335 1.434 . S
C337 C338 1.369 1_655 S
C337 C339 1.419 . S
C337 H341 0.930 . S
C338 C337 1.369 1_455 S
C338 C347 1.429 . S
C339 C337 1.419 . S
C339 C340 1.363 . S
C339 H342 0.929 . S
C340 C339 1.363 . S
C340 C346 1.428 1_655 S
H341 C337 0.930 . S
H342 C339 0.929 . S
S343 N344 1.613 . S
S343 N345 1.610 . S
N344 S343 1.613 . S
N344 C347 1.350 . S
N345 S343 1.610 . S
N345 C346 1.351 . S
C346 C340 1.428 1_455 S
C346 N345 1.351 . S
C346 C347 1.434 . S
C347 C338 1.429 . S
C347 N344 1.350 . S
C347 C346 1.434 . S
C217 C3 1.249 . S
C219 C147 1.229 . S
C228 C38 1.250 . S
C230 C182 1.252 . S
C239 C2 1.255 . S
C241 C74 1.258 . S
C250 C111 1.223 . S
C252 C39 1.253 . S
C261 C146 1.254 . S
C263 C75 1.239 . S
C272 C110 1.251 . S
C274 C183 1.238 . S
C283 C112 1.420 . S
C285 C14 1.364 . S
C294 C158 1.369 . S
C296 C40 1.437 . S
C305 C184 1.453 . S
C307 C76 1.454 . S
C316 C4 1.437 . S
C318 C122 1.370 . S
C327 C50 1.357 . S
C329 C148 1.424 . S
C338 C194 1.374 . S
C340 C86 1.370 . S
