# Generated by pormake.
# Topology smu, (6)-cn, num edge types: 1
# Building blocks:
#     Node 0, Type 0, BuildingBlock: UKALOJ_clean_sbu_0, # of connection points: 6
#     Node 1, Type 0, BuildingBlock: UKALOJ_clean_sbu_0, # of connection points: 6
#     Node 2, Type 0, BuildingBlock: UKALOJ_clean_sbu_0, # of connection points: 6
#     Node 3, Type 0, BuildingBlock: UKALOJ_clean_sbu_0, # of connection points: 6
#     Node 4, Type 0, BuildingBlock: UKALOJ_clean_sbu_0, # of connection points: 6
#     Node 5, Type 0, BuildingBlock: UKALOJ_clean_sbu_0, # of connection points: 6
#     Edge 6, Type (0, 0), BuildingBlock: TEMPAE_clean_linker_10, # of connection points: 2
#     Edge 7, Type (0, 0), BuildingBlock: TEMPAE_clean_linker_10, # of connection points: 2
#     Edge 8, Type (0, 0), BuildingBlock: TEMPAE_clean_linker_10, # of connection points: 2
#     Edge 9, Type (0, 0), BuildingBlock: TEMPAE_clean_linker_10, # of connection points: 2
#     Edge 10, Type (0, 0), BuildingBlock: TEMPAE_clean_linker_10, # of connection points: 2
#     Edge 11, Type (0, 0), BuildingBlock: TEMPAE_clean_linker_10, # of connection points: 2
#     Edge 12, Type (0, 0), BuildingBlock: TEMPAE_clean_linker_10, # of connection points: 2
#     Edge 13, Type (0, 0), BuildingBlock: TEMPAE_clean_linker_10, # of connection points: 2
#     Edge 14, Type (0, 0), BuildingBlock: TEMPAE_clean_linker_10, # of connection points: 2
#     Edge 15, Type (0, 0), BuildingBlock: TEMPAE_clean_linker_10, # of connection points: 2
#     Edge 16, Type (0, 0), BuildingBlock: TEMPAE_clean_linker_10, # of connection points: 2
#     Edge 17, Type (0, 0), BuildingBlock: TEMPAE_clean_linker_10, # of connection points: 2
#     Edge 18, Type (0, 0), BuildingBlock: TEMPAE_clean_linker_10, # of connection points: 2
#     Edge 19, Type (0, 0), BuildingBlock: TEMPAE_clean_linker_10, # of connection points: 2
#     Edge 20, Type (0, 0), BuildingBlock: TEMPAE_clean_linker_10, # of connection points: 2
#     Edge 21, Type (0, 0), BuildingBlock: TEMPAE_clean_linker_10, # of connection points: 2
#     Edge 22, Type (0, 0), BuildingBlock: TEMPAE_clean_linker_10, # of connection points: 2
#     Edge 23, Type (0, 0), BuildingBlock: TEMPAE_clean_linker_10, # of connection points: 2
# Relax obj value: 0.183
# Max RMSD: 0.229
# Mean RMSD: 0.229
data_MOF--net-smu--node1-UKALOJ_clean_sbu_0--edge1-TEMPAE_clean_linker_10
_symmetry_space_group_name_H-M    P1
_symmetry_Int_Tables_number       1
_symmetry_cell_setting            triclinic
loop_
_symmetry_equiv_pos_as_xyz
'x, y, z'
_cell_length_a     27.957832
_cell_length_b     27.751526
_cell_length_c     40.313094
_cell_angle_alpha  89.942639
_cell_angle_beta   89.823579
_cell_angle_gamma 120.17638
loop_
_atom_site_label
_atom_site_type_symbol
_atom_site_fract_x
_atom_site_fract_y
_atom_site_fract_z
_atom_type_partial_charge
Zn0 Zn 0.33793 0.0717 0.29488 0.0
O1 O 0.28277 0.1002 0.30317 0.0
C2 C 0.24644 0.95706 0.27931 0.0
Zn3 Zn 0.31444 0.06017 0.2412 0.0
C4 C 0.25155 0.10016 0.2804 0.0
O5 O 0.25259 0.08116 0.25186 0.0
C6 C 0.40698 0.03973 0.25605 0.0
O7 O 0.36935 0.14467 0.23323 0.0
O8 O 0.39926 0.15549 0.28473 0.0
N9 N 0.29154 0.04895 0.19194 0.0
C10 C 0.31901 0.05385 0.16335 0.0
C11 C 0.23516 0.02574 0.15066 0.0
N12 N 0.23948 0.03161 0.18387 0.0
N13 N 0.28446 0.03919 0.13714 0.0
C14 C 0.32756 0.05912 0.37214 0.0
C15 C 0.41116 0.10728 0.38807 0.0
N16 N 0.35881 0.08155 0.34465 0.0
N17 N 0.41077 0.11177 0.35471 0.0
N18 N 0.35935 0.0742 0.39954 0.0
H19 H 0.24722 0.03062 0.35014 0.0
H20 H 0.24882 0.03381 0.39492 0.0
H21 H 0.25433 0.97971 0.37434 0.0
C22 C 0.26581 0.02408 0.37264 0.0
C23 C 0.37997 0.07596 0.16097 0.0
H24 H 0.40198 0.10725 0.18065 0.0
H25 H 0.39619 0.09534 0.13635 0.0
H26 H 0.38801 0.04096 0.16422 0.0
O27 O 0.37864 0.04232 0.23221 0.0
O28 O 0.39543 0.04615 0.28563 0.0
C29 C 0.40044 0.17585 0.2562 0.0
O30 O 0.27448 0.98817 0.30325 0.0
O31 O 0.25759 0.97601 0.24991 0.0
Zn32 Zn 0.7402 0.67712 0.24673 0.0
O33 O 0.76975 0.62304 0.23583 0.0
C34 C 0.62685 0.58385 0.25876 0.0
Zn35 Zn 0.72749 0.64714 0.29926 0.0
C36 C 0.76717 0.58771 0.25695 0.0
O37 O 0.7462 0.5846 0.28558 0.0
C38 C 0.70769 0.74161 0.28944 0.0
O39 O 0.81136 0.69919 0.30766 0.0
O40 O 0.82242 0.73826 0.25862 0.0
N41 N 0.71251 0.62115 0.34858 0.0
C42 C 0.73398 0.64877 0.37733 0.0
C43 C 0.66279 0.57125 0.38983 0.0
N44 N 0.6685 0.57289 0.35657 0.0
N45 N 0.70294 0.61859 0.40366 0.0
C46 C 0.73453 0.6833 0.16862 0.0
C47 C 0.77883 0.77119 0.16126 0.0
N48 N 0.75236 0.70715 0.19869 0.0
N49 N 0.77996 0.76172 0.1939 0.0
N50 N 0.7503 0.72281 0.14456 0.0
H51 H 0.71326 0.59999 0.18302 0.0
H52 H 0.71527 0.61142 0.13876 0.0
H53 H 0.65889 0.60596 0.1636 0.0
C54 C 0.70402 0.62159 0.16313 0.0
C55 C 0.78776 0.70283 0.37943 0.0
H56 H 0.8208 0.69767 0.36772 0.0
H57 H 0.80087 0.71598 0.4053 0.0
H58 H 0.78458 0.73582 0.36579 0.0
O59 O 0.71209 0.71176 0.31175 0.0
O60 O 0.7128 0.73239 0.25919 0.0
C61 C 0.84248 0.73434 0.28607 0.0
O62 O 0.65913 0.61396 0.23566 0.0
O63 O 0.64361 0.59277 0.28859 0.0
Zn64 Zn 0.91571 0.2638 0.29704 0.0
O65 O 0.88673 0.18068 0.30824 0.0
C66 C 0.02936 0.28483 0.28341 0.0
Zn67 Zn 0.92809 0.24737 0.24447 0.0
C68 C 0.88869 0.14779 0.28722 0.0
O69 O 0.90886 0.16565 0.25848 0.0
C70 C 0.94733 0.36181 0.25459 0.0
O71 O 0.84394 0.21525 0.23604 0.0
O72 O 0.83289 0.24134 0.28572 0.0
N73 N 0.94111 0.23207 0.19624 0.0
C74 C 0.93266 0.24861 0.16637 0.0
C75 C 0.97256 0.20157 0.15768 0.0
N76 N 0.96577 0.20276 0.19067 0.0
N77 N 0.95246 0.23027 0.14164 0.0
C78 C 0.92701 0.27261 0.37422 0.0
C79 C 0.87566 0.30581 0.38776 0.0
N80 N 0.90487 0.27884 0.34595 0.0
N81 N 0.87275 0.29927 0.3545 0.0
N82 N 0.90968 0.28955 0.40067 0.0
H83 H 0.95287 0.21589 0.35669 0.0
H84 H 0.95905 0.22748 0.40087 0.0
H85 H 0.00711 0.28088 0.37322 0.0
C86 C 0.96337 0.24744 0.37632 0.0
C87 C 0.90273 0.28022 0.16168 0.0
H88 H 0.8734 0.27189 0.18236 0.0
H89 H 0.87984 0.26875 0.13789 0.0
H90 H 0.93327 0.32551 0.16135 0.0
O91 O 0.94407 0.32832 0.23197 0.0
O92 O 0.94215 0.3468 0.2848 0.0
C93 C 0.81283 0.2183 0.25793 0.0
O94 O -0.00218 0.28288 0.30677 0.0
O95 O 0.01187 0.27697 0.2538 0.0
Zn96 Zn 0.05319 0.32 0.7953 0.0
O97 O 0.13815 0.37232 0.79644 0.0
C98 C 0.03853 0.41448 0.77832 0.0
Zn99 Zn 0.05492 0.33182 0.74032 0.0
C100 C 0.1659 0.39614 0.77056 0.0
O101 O 0.14145 0.39021 0.74301 0.0
C102 C 0.9436 0.24814 0.76607 0.0
O103 O 0.07543 0.27127 0.73111 0.0
O104 O 0.06852 0.25375 0.7847 0.0
N105 N 0.05567 0.3483 0.69039 0.0
C106 C 0.03154 0.31695 0.66319 0.0
C107 C 0.07177 0.40207 0.6481 0.0
N108 N 0.08095 0.40105 0.68075 0.0
N109 N 0.04076 0.34991 0.63625 0.0
C110 C 0.0278 0.31006 0.87209 0.0
C111 C 0.07704 0.27625 0.889 0.0
N112 N 0.05375 0.30441 0.8453 0.0
N113 N 0.08419 0.28335 0.85597 0.0
N114 N 0.04171 0.29246 0.89989 0.0
H115 H 0.02131 0.38295 0.86649 0.0
H116 H 0.97097 0.33316 0.89436 0.0
H117 H 0.96396 0.32076 0.85002 0.0
C118 C -0.00645 0.33772 0.87094 0.0
C119 C -0.00241 0.25453 0.66345 0.0
H120 H 0.98817 0.23753 0.68891 0.0
H121 H 0.02136 0.23732 0.65128 0.0
H122 H 0.95863 0.24036 0.64948 0.0
O123 O 0.9694 0.27137 0.7394 0.0
O124 O 0.96837 0.2647 0.79365 0.0
C125 C 0.07999 0.24508 0.75554 0.0
O126 O 0.04236 0.38976 0.80391 0.0
O127 O 0.0378 0.39486 0.74982 0.0
Zn128 Zn 0.25865 0.94298 0.79156 0.0
O129 O 0.23368 0.85865 0.79889 0.0
C130 C 0.35649 0.95349 0.76416 0.0
Zn131 Zn 0.24618 0.93276 0.73674 0.0
C132 C 0.21155 0.82634 0.77436 0.0
O133 O 0.21083 0.8462 0.74602 0.0
C134 C 0.28658 0.04831 0.75509 0.0
O135 O 0.16644 0.92016 0.7347 0.0
O136 O 0.17387 0.91875 0.78892 0.0
N137 N 0.247 0.91888 0.6864 0.0
C138 C 0.24455 0.94569 0.65901 0.0
C139 C 0.2667 0.88632 0.64312 0.0
N140 N 0.26009 0.88156 0.67629 0.0
N141 N 0.25718 0.92627 0.63153 0.0
C142 C 0.28494 0.95798 0.86904 0.0
C143 C 0.21527 0.96336 0.88565 0.0
N144 N 0.25484 0.95412 0.84193 0.0
N145 N 0.21184 0.9577 0.85252 0.0
N146 N 0.26074 0.96369 0.89674 0.0
H147 H 0.32926 0.91824 0.85205 0.0
H148 H 0.34703 0.94632 0.89366 0.0
H149 H 0.37072 0.9922 0.85803 0.0
C150 C 0.3359 0.9532 0.86841 0.0
C151 C 0.23533 0.9943 0.65972 0.0
H152 H 0.21266 0.99341 0.68252 0.0
H153 H 0.2112 0.99424 0.63803 0.0
H154 H 0.27609 0.03325 0.65877 0.0
O155 O 0.27919 0.01837 0.72966 0.0
O156 O 0.28152 0.02712 0.78377 0.0
C157 C 0.14471 0.91168 0.76332 0.0
O158 O 0.34183 0.9626 0.79229 0.0
O159 O 0.32489 0.9429 0.73937 0.0
Zn160 Zn 0.65031 0.72241 0.74491 0.0
O161 O 0.70836 0.8075 0.7369 0.0
C162 C 0.73644 0.70921 0.7763 0.0
Zn163 Zn 0.64894 0.73269 0.80019 0.0
C164 C 0.7218 0.83878 0.76224 0.0
O165 O 0.70377 0.81794 0.79077 0.0
C166 C 0.5711 0.61827 0.7826 0.0
O167 O 0.58409 0.7491 0.79766 0.0
O168 O 0.5883 0.74447 0.74324 0.0
N169 N 0.65741 0.74893 0.85066 0.0
C170 C 0.65743 0.71925 0.8773 0.0
C171 C 0.67629 0.79934 0.89472 0.0
N172 N 0.66906 0.79858 0.86167 0.0
N173 N 0.66961 0.75022 0.90532 0.0
C174 C 0.67465 0.71384 0.66861 0.0
C175 C 0.59204 0.6662 0.65103 0.0
N176 N 0.64048 0.70496 0.69467 0.0
N177 N 0.58931 0.67537 0.6835 0.0
N178 N 0.64506 0.68956 0.64062 0.0
H179 H 0.74928 0.77483 0.69309 0.0
H180 H 0.75412 0.77381 0.64841 0.0
H181 H 0.75333 0.71927 0.67341 0.0
C182 C 0.73641 0.7477 0.67095 0.0
C183 C 0.64052 0.65872 0.87581 0.0
H184 H 0.59638 0.63433 0.8686 0.0
H185 H 0.6443 0.64191 0.89989 0.0
H186 H 0.66526 0.65226 0.85662 0.0
O187 O 0.59196 0.64898 0.80785 0.0
O188 O 0.58969 0.63805 0.75393 0.0
C189 C 0.56841 0.75438 0.76905 0.0
O190 O 0.71454 0.70428 0.74797 0.0
O191 O 0.71517 0.71846 0.80165 0.0
C192 C 0.238 0.93476 0.95468 0.0
C193 C 0.2767 0.96966 0.931 0.0
C194 C 0.24712 0.94631 0.98867 0.0
C195 C 0.29579 0.99476 0.99925 0.0
C196 C 0.33654 0.02856 0.97548 0.0
C197 C 0.32653 0.01544 0.94152 0.0
C198 C 0.20288 0.90856 1.01305 0.0
C199 C 0.38882 0.08063 0.98566 0.0
C200 C 0.27245 0.05414 0.07843 0.0
C201 C 0.29431 0.03438 0.10254 0.0
C202 C 0.27565 0.04429 0.04458 0.0
C203 C 0.30038 0.01282 0.03456 0.0
C204 C 0.32415 0.99423 0.05878 0.0
C205 C 0.32088 0.00532 0.09253 0.0
C206 C 0.25028 0.06546 0.01965 0.0
C207 C 0.35029 0.96006 0.04926 0.0
H208 H 0.19939 0.89959 0.94633 0.0
H209 H 0.35593 0.04285 0.92307 0.0
H210 H 0.22143 0.89761 0.03393 0.0
H211 H 0.18249 0.93061 0.02363 0.0
H212 H 0.17072 0.86946 1.00126 0.0
H213 H 0.41949 0.09791 0.96509 0.0
H214 H 0.37861 0.11279 0.99341 0.0
H215 H 0.40806 0.07212 1.00722 0.0
H216 H 0.25184 0.07648 0.08628 0.0
H217 H 0.33669 0.98894 0.11122 0.0
H218 H 0.21336 0.0297 1.00836 0.0
H219 H 0.28008 0.08824 0.99932 0.0
H220 H 0.23743 0.09362 0.03109 0.0
H221 H 0.31765 0.91819 0.04096 0.0
H222 H 0.37284 0.95476 0.07029 0.0
H223 H 0.37946 0.97978 0.02821 0.0
C224 C 0.71132 0.6888 0.59874 0.0
C225 C 0.66101 0.68614 0.6067 0.0
C226 C 0.72425 0.68221 0.56579 0.0
C227 C 0.68487 0.66959 0.54032 0.0
C228 C 0.63385 0.66606 0.54819 0.0
C229 C 0.62312 0.67532 0.5809 0.0
C230 C 0.77981 0.6879 0.55833 0.0
C231 C 0.58967 0.65083 0.52222 0.0
C232 C 0.71782 0.68736 0.44774 0.0
C233 C 0.70463 0.63336 0.43828 0.0
C234 C 0.71528 0.70061 0.48116 0.0
C235 C 0.69564 0.65811 0.50562 0.0
C236 C 0.68155 0.60334 0.49619 0.0
C237 C 0.68687 0.5919 0.46282 0.0
C238 C 0.73196 0.75982 0.49009 0.0
C239 C 0.65823 0.55614 0.52105 0.0
H240 H 0.7402 0.69427 0.61805 0.0
H241 H 0.58401 0.67282 0.58647 0.0
H242 H 0.77429 0.64673 0.55148 0.0
H243 H 0.79955 0.71628 0.53687 0.0
H244 H 0.80824 0.70422 0.57987 0.0
H245 H 0.5515 0.64804 0.5326 0.0
H246 H 0.60543 0.68226 0.50201 0.0
H247 H 0.57867 0.61009 0.51095 0.0
H248 H 0.72829 0.71902 0.42893 0.0
H249 H 0.67553 0.54987 0.45562 0.0
H250 H 0.75907 0.77339 0.51225 0.0
H251 H 0.69466 0.76237 0.49636 0.0
H252 H 0.75409 0.7893 0.46939 0.0
H253 H 0.68683 0.56645 0.54228 0.0
H254 H 0.65077 0.51631 0.50998 0.0
H255 H 0.61849 0.54994 0.53107 0.0
C256 C 0.9673 0.29099 0.09269 0.0
C257 C 0.95598 0.23961 0.10618 0.0
C258 C 0.97631 0.30168 0.05842 0.0
C259 C 0.976 0.26083 0.03723 0.0
C260 C 0.96388 0.20867 0.05061 0.0
C261 C 0.95369 0.19867 0.08477 0.0
C262 C 0.98828 0.35752 0.04509 0.0
C263 C 0.96415 0.16424 0.02914 0.0
C264 C 0.96911 0.26611 0.9429 0.0
C265 C 0.02506 0.29009 0.93404 0.0
C266 C 0.95264 0.25886 0.97644 0.0
C267 C -0.00712 0.27394 1.00167 0.0
C268 C 0.04943 0.29827 0.99277 0.0
C269 C 0.06473 0.30624 0.95915 0.0
C270 C 0.89205 0.23347 0.98484 0.0
C271 C 0.09367 0.31388 1.01872 0.0
H272 H 0.97154 0.32385 0.10893 0.0
H273 H 0.94533 0.15905 0.09502 0.0
H274 H 0.0323 0.38216 0.03735 0.0
H275 H 0.9627 0.35188 0.02285 0.0
H276 H 0.98013 0.38187 0.06384 0.0
H277 H 0.95155 0.12507 0.04308 0.0
H278 H 0.93582 0.15461 1.00781 0.0
H279 H 0.00631 0.17973 1.01888 0.0
H280 H 0.93804 0.25117 0.92363 0.0
H281 H 0.10788 0.324 0.95229 0.0
H282 H 0.88616 0.25888 1.0039 0.0
H283 H 0.87618 0.19121 0.99545 0.0
H284 H 0.86689 0.23 0.96273 0.0
H285 H 0.09212 0.34289 0.03701 0.0
H286 H 0.13588 0.33389 1.00774 0.0
H287 H 0.08614 0.27602 0.03248 0.0
C288 C 0.35779 0.09216 0.45929 0.0
C289 C 0.34345 0.05447 0.43304 0.0
C290 C 0.34238 0.07314 0.49212 0.0
C291 C 0.31299 0.01506 0.49878 0.0
C292 C 0.29893 0.97694 0.47222 0.0
C293 C 0.31424 -0.00285 0.43969 0.0
C294 C 0.35767 0.1151 0.51967 0.0
C295 C 0.26864 0.91477 0.4782 0.0
C296 C 0.32239 0.96387 0.58473 0.0
C297 C 0.271 0.9499 0.59864 0.0
C298 C 0.33678 0.98567 0.55246 0.0
C299 C 0.29887 0.99397 0.53359 0.0
C300 C 0.24685 0.98003 0.54756 0.0
C301 C 0.23326 0.95747 0.5798 0.0
C302 C 0.39229 -0.00092 0.53842 0.0
C303 C 0.2053 0.98827 0.52828 0.0
H304 H 0.38052 0.13646 0.45398 0.0
H305 H 0.30449 0.96816 0.4194 0.0
H306 H 0.32002 0.10679 0.53367 0.0
H307 H 0.3857 0.11105 0.53742 0.0
H308 H 0.3785 0.15864 0.51023 0.0
H309 H 0.25973 0.89075 0.45477 0.0
H310 H 0.29377 0.90376 0.49439 0.0
H311 H 0.22899 0.90161 0.4913 0.0
H312 H 0.35139 0.95763 0.59927 0.0
H313 H 0.19272 0.94464 0.59001 0.0
H314 H 0.41616 0.04357 0.53094 0.0
H315 H 0.3863 0.97386 0.51584 0.0
H316 H 0.41724 0.99073 0.55645 0.0
H317 H 0.2246 0.03201 0.51942 0.0
H318 H 0.16813 0.97848 0.54334 0.0
H319 H 0.19193 0.96113 0.50604 0.0
C320 C 0.70764 0.71203 0.94661 0.0
C321 C 0.67695 0.73802 0.93917 0.0
C322 C 0.71778 0.70349 0.97967 0.0
C323 C 0.69926 0.72397 1.00597 0.0
C324 C 0.66904 0.75106 0.99856 0.0
C325 C 0.65794 0.75731 0.96535 0.0
C326 C 0.74937 0.67363 0.98642 0.0
C327 C 0.64998 0.77517 0.02565 0.0
C328 C 0.6892 0.6766 0.09593 0.0
C329 C 0.73916 0.71889 0.10926 0.0
C330 C 0.6769 0.67613 0.06202 0.0
C331 C 0.71422 0.72029 0.04111 0.0
C332 C 0.76465 0.76301 0.05435 0.0
C333 C 0.77667 0.7614 0.088 0.0
C334 C 0.62316 0.62917 0.04879 0.0
C335 C 0.80506 0.81177 0.0333 0.0
H336 H 0.72511 0.69976 0.92657 0.0
H337 H 0.63514 0.77835 0.95968 0.0
H338 H 0.79053 0.70324 0.99686 0.0
H339 H 0.72708 0.64014 1.0051 0.0
H340 H 0.75551 0.65492 0.96361 0.0
H341 H 0.62649 0.79453 1.01578 0.0
H342 H 0.62334 0.74217 0.04365 0.0
H343 H 0.68631 0.80728 0.0395 0.0
H344 H 0.65854 0.64495 0.11201 0.0
H345 H 0.81515 0.79448 0.09802 0.0
H346 H 0.63076 0.61211 0.02576 0.0
H347 H 0.59506 0.6451 0.04236 0.0
H348 H 0.60185 0.59477 0.06709 0.0
H349 H 0.8175 0.7968 1.01123 0.0
H350 H 0.84292 0.84107 0.04719 0.0
H351 H 0.78495 0.83499 0.02418 0.0
C352 C 0.88742 0.2717 0.4602 0.0
C353 C 0.92679 0.29441 0.43472 0.0
C354 C 0.90377 0.27663 0.49358 0.0
C355 C 0.96083 0.30622 0.50159 0.0
C356 C 0.00068 0.3295 0.47579 0.0
C357 C 0.98313 0.32303 0.44268 0.0
C358 C 0.86005 0.25052 0.52029 0.0
C359 C 0.06184 0.36243 0.48319 0.0
C360 C 0.00396 0.37221 0.58685 0.0
C361 C 0.01836 0.33652 0.60306 0.0
C362 C 0.9847 0.36249 0.55407 0.0
C363 C 0.97898 0.31541 0.53694 0.0
C364 C -0.00728 0.2787 0.55319 0.0
C365 C 0.01304 0.29014 0.58587 0.0
C366 C 0.9715 0.40331 0.53757 0.0
C367 C 0.98689 0.22785 0.53584 0.0
H368 H 0.84389 0.24962 0.45387 0.0
H369 H 0.0134 0.34149 0.42289 0.0
H370 H 0.86799 0.22241 0.53597 0.0
H371 H 0.86179 0.28342 0.5367 0.0
H372 H 0.81769 0.22631 0.50986 0.0
H373 H 0.08747 0.37669 0.46027 0.0
H374 H 0.07108 0.39949 0.49831 0.0
H375 H 0.07428 0.33679 0.49794 0.0
H376 H 0.00814 0.40824 0.59991 0.0
H377 H 0.02617 0.26362 0.59743 0.0
H378 H 0.92795 0.38146 0.52901 0.0
H379 H -0.00185 0.42169 0.51534 0.0
H380 H 0.97779 0.43766 0.55441 0.0
H381 H 0.94451 0.20255 0.52569 0.0
H382 H -0.00475 0.20121 0.55265 0.0
H383 H 0.01613 0.24084 0.5146 0.0
C384 C 0.48849 0.03397 0.27515 0.0
C385 C 0.46097 0.04419 0.24951 0.0
C386 C 0.54576 0.05532 0.27358 0.0
C387 C 0.57595 0.08844 0.24602 0.0
C388 C 0.54761 0.09413 0.21868 0.0
C389 C 0.49019 0.07125 0.2206 0.0
C390 C 0.57443 0.04664 0.30271 0.0
C391 C 0.57833 0.12935 0.1889 0.0
C392 C 0.71951 0.20736 0.26608 0.0
C393 C 0.75274 0.1877 0.25288 0.0
C394 C 0.66177 0.17593 0.26315 0.0
C395 C 0.63705 0.12286 0.24773 0.0
C396 C 0.67061 0.10285 0.23447 0.0
C397 C 0.72822 0.13598 0.23677 0.0
C398 C 0.62722 0.19923 0.27687 0.0
C399 C 0.64571 0.04585 0.21884 0.0
H400 H 0.46593 0.01267 0.29745 0.0
H401 H 0.46937 0.07959 0.20077 0.0
H402 H 0.6064 0.03694 0.29414 0.0
H403 H 0.59563 0.08553 0.31749 0.0
H404 H 0.54479 0.01244 0.31921 0.0
H405 H 0.55007 0.1231 0.16795 0.0
H406 H 0.59977 0.17402 0.19599 0.0
H407 H 0.61036 0.11983 0.18027 0.0
H408 H 0.73871 0.24733 0.27857 0.0
H409 H 0.75411 0.12037 0.22714 0.0
H410 H 0.60077 0.17242 0.29745 0.0
H411 H 0.59933 0.19933 0.25737 0.0
H412 H 0.65302 0.2424 0.28632 0.0
H413 H 0.62083 0.01343 0.23759 0.0
H414 H 0.67773 0.03731 0.20875 0.0
H415 H 0.6173 0.04176 0.1985 0.0
C416 C 0.57811 0.50224 0.22186 0.0
C417 C 0.57759 0.53008 0.25075 0.0
C418 C 0.54393 0.44443 0.21908 0.0
C419 C 0.50737 0.41441 0.24539 0.0
C420 C 0.50172 0.44332 0.27264 0.0
C421 C 0.53754 0.50098 0.27522 0.0
C422 C 0.55158 0.41509 0.18976 0.0
C423 C 0.4615 0.41284 0.30054 0.0
C424 C 0.4047 0.26086 0.23374 0.0
C425 C 0.43038 0.23642 0.25126 0.0
C426 C 0.42905 0.31887 0.23169 0.0
C427 C 0.48104 0.35292 0.24666 0.0
C428 C 0.50801 0.3283 0.26345 0.0
C429 C 0.48173 0.27011 0.26611 0.0
C430 C 0.3983 0.34361 0.21459 0.0
C431 C 0.56428 0.36341 0.27898 0.0
H432 H 0.60923 0.52442 0.20296 0.0
H433 H 0.53688 0.52254 0.29749 0.0
H434 H 0.57451 0.39409 0.19782 0.0
H435 H 0.5111 0.3825 0.17997 0.0
H436 H 0.57529 0.44454 0.16935 0.0
H437 H 0.45507 0.4417 0.31653 0.0
H438 H 0.42091 0.38051 0.29067 0.0
H439 H 0.4778 0.39145 0.31619 0.0
H440 H 0.36429 0.23454 0.22286 0.0
H441 H 0.50126 0.25092 0.27971 0.0
H442 H 0.42469 0.37372 0.19518 0.0
H443 H 0.38806 0.36697 0.23286 0.0
H444 H 0.3593 0.31126 0.20296 0.0
H445 H 0.59399 0.39271 0.26033 0.0
H446 H 0.58103 0.3377 0.28919 0.0
H447 H 0.5616 0.3888 0.29936 0.0
C448 C 0.91187 0.40845 0.21785 0.0
C449 C 0.94181 0.41048 0.24618 0.0
C450 C 0.88817 0.44236 0.21515 0.0
C451 C 0.89586 0.47992 0.24104 0.0
C452 C 0.93174 0.48697 0.26764 0.0
C453 C 0.95391 0.45165 0.27008 0.0
C454 C 0.85017 0.43359 0.18639 0.0
C455 C 0.94258 0.52811 0.29513 0.0
C456 C 0.84537 0.58289 0.23128 0.0
C457 C 0.79634 0.55707 0.25003 0.0
C458 C 0.87819 0.55819 0.22782 0.0
C459 C 0.86068 0.50582 0.24279 0.0
C460 C 0.80997 0.47853 0.26063 0.0
C461 C 0.77879 0.505 0.2645 0.0
C462 C 0.93266 0.58926 0.20949 0.0
C463 C 0.78928 0.42194 0.2763 0.0
H464 H 0.90207 0.37652 0.19938 0.0
H465 H 0.97737 0.45357 0.29191 0.0
H466 H 0.8066 0.41025 0.19516 0.0
H467 H 0.85774 0.47403 0.17631 0.0
H468 H 0.85522 0.4095 0.16604 0.0
H469 H 0.9782 0.53514 0.31074 0.0
H470 H 0.95087 0.56872 0.28485 0.0
H471 H 0.90539 0.51198 0.31125 0.0
H472 H 0.85952 0.62379 0.22061 0.0
H473 H 0.74092 0.48521 0.27901 0.0
H474 H 0.93643 0.56186 0.19094 0.0
H475 H 0.96717 0.60236 0.22731 0.0
H476 H 0.93771 0.62699 0.19664 0.0
H477 H 0.78803 0.39207 0.25755 0.0
H478 H 0.7473 0.4048 0.28727 0.0
H479 H 0.81808 0.42499 0.29614 0.0
C480 C 0.04434 0.49543 0.80995 0.0
C481 C 0.04949 0.47229 0.78021 0.0
C482 C 0.06449 0.5531 0.81236 0.0
C483 C 0.09264 0.58812 0.78493 0.0
C484 C 0.09657 0.56458 0.75471 0.0
C485 C 0.07373 0.50701 0.75251 0.0
C486 C 0.05722 0.57664 0.84445 0.0
C487 C 0.12757 0.60039 0.72508 0.0
C488 C 0.12535 0.73555 0.76945 0.0
C489 C 0.18062 0.76594 0.77951 0.0
C490 C 0.09438 0.67777 0.77409 0.0
C491 C 0.1204 0.64966 0.78747 0.0
C492 C 0.17618 0.68052 0.79817 0.0
C493 C 0.20532 0.73876 0.79478 0.0
C494 C 0.03438 0.64662 0.76376 0.0
C495 C 0.20616 0.65187 0.81113 0.0
H496 H 0.02567 0.46876 0.8314 0.0
H497 H 0.07843 0.48973 0.72945 0.0
H498 H 0.09719 0.59821 0.85782 0.0
H499 H 0.0443 0.60781 0.83954 0.0
H500 H 0.02607 0.54353 0.86092 0.0
H501 H 0.12842 0.57541 0.70381 0.0
H502 H 0.10817 0.62465 0.7167 0.0
H503 H 0.17087 0.6307 0.7321 0.0
H504 H 0.1063 0.7571 0.75802 0.0
H505 H 0.24813 0.76277 0.80258 0.0
H506 H 0.00816 0.62218 0.7851 0.0
H507 H 0.02798 0.61662 0.74374 0.0
H508 H 0.02 0.67504 0.75476 0.0
H509 H 0.1827 0.62353 0.83192 0.0
H510 H 0.24858 0.68201 0.81981 0.0
H511 H 0.20926 0.62599 0.79119 0.0
C512 C 0.39662 0.90327 0.73575 0.0
C513 C 0.4005 0.93923 0.76145 0.0
C514 C 0.42673 0.87574 0.73662 0.0
C515 C 0.46429 0.88697 0.76278 0.0
C516 C 0.47264 0.92732 0.78709 0.0
C517 C 0.43942 0.95208 0.78666 0.0
C518 C 0.41488 0.83134 0.71098 0.0
C519 C 0.5149 0.94255 0.8142 0.0
C520 C 0.49234 0.77113 0.78567 0.0
C521 C 0.53841 0.78462 0.76579 0.0
C522 C 0.4676 0.80428 0.78496 0.0
C523 C 0.49187 0.85357 0.76544 0.0
C524 C 0.53947 0.86801 0.74609 0.0
C525 C 0.56111 0.83228 0.74569 0.0
C526 C 0.41504 0.78604 0.80453 0.0
C527 C 0.5677 0.92122 0.72596 0.0
H528 H 0.3665 0.89276 0.71616 0.0
H529 H 0.44263 0.97991 0.80648 0.0
H530 H 0.45341 0.84016 0.69796 0.0
H531 H 0.39828 0.79027 0.72344 0.0
H532 H 0.38444 0.828 0.69215 0.0
H533 H 0.52248 0.9806 0.82774 0.0
H534 H 0.50018 0.90775 0.83226 0.0
H535 H 0.55467 0.94957 0.8037 0.0
H536 H 0.47542 0.73441 0.80139 0.0
H537 H 0.59752 0.84301 0.73079 0.0
H538 H 0.38171 0.78166 0.78771 0.0
H539 H 0.42164 0.81806 0.82321 0.0
H540 H 0.40066 0.7457 0.81752 0.0
H541 H 0.54169 0.91795 0.70443 0.0
H542 H 0.60881 0.93033 0.71653 0.0
H543 H 0.57319 0.95697 0.74116 0.0
C544 C 0.2611 0.47372 0.75776 0.0
C545 C 0.22613 0.42154 0.77183 0.0
C546 C 0.31871 0.4981 0.76045 0.0
C547 C 0.34119 0.46825 0.77637 0.0
C548 C 0.3057 0.41427 0.78912 0.0
C549 C 0.24846 0.39202 0.78729 0.0
C550 C 0.35543 0.55642 0.74725 0.0
C551 C 0.32807 0.38037 0.80505 0.0
C552 C 0.4937 0.53192 0.75803 0.0
C553 C 0.51658 0.56719 0.78545 0.0
C554 C 0.43644 0.49532 0.75598 0.0
C555 C 0.40169 0.49539 0.78154 0.0
C556 C 0.42511 0.52678 0.81067 0.0
C557 C 0.48252 0.56157 0.81254 0.0
C558 C 0.41293 0.46017 0.72528 0.0
C559 C 0.38943 0.5284 0.83838 0.0
H560 H 0.24339 0.4961 0.74574 0.0
H561 H 0.22095 0.35099 0.79759 0.0
H562 H 0.38052 0.58435 0.76773 0.0
H563 H 0.38464 0.55655 0.72852 0.0
H564 H 0.33136 0.57387 0.73568 0.0
H565 H 0.2949 0.337 0.81058 0.0
H566 H 0.35916 0.37892 0.78855 0.0
H567 H 0.34928 0.40025 0.82855 0.0
H568 H 0.51998 0.53569 0.73718 0.0
H569 H 0.49988 0.58858 0.83388 0.0
H570 H 0.39459 0.479 0.70912 0.0
H571 H 0.37951 0.41752 0.73192 0.0
H572 H 0.4452 0.45712 0.71083 0.0
H573 H 0.36777 0.5503 0.8296 0.0
H574 H 0.41405 0.55042 0.86064 0.0
H575 H 0.3573 0.48567 0.84576 0.0
C576 C 0.17189 0.11462 0.26952 0.0
C577 C 0.22192 0.13075 0.28556 0.0
C578 C 0.14612 0.14665 0.27255 0.0
C579 C 0.1723 0.19688 0.29104 0.0
C580 C 0.22307 0.21342 0.30709 0.0
C581 C 0.24686 0.17963 0.30457 0.0
C582 C 0.0911 0.12694 0.25582 0.0
C583 C 0.25297 0.26748 0.32608 0.0
C584 C 0.11844 0.29222 0.26646 0.0
C585 C 0.07772 0.27893 0.29077 0.0
C586 C 0.15337 0.26959 0.26783 0.0
C587 C 0.14597 0.23165 0.29355 0.0
C588 C 0.10834 0.22211 0.31968 0.0
C589 C 0.07524 0.24666 0.3182 0.0
C590 C 0.19477 0.28254 0.24025 0.0
C591 C 0.09857 0.18128 0.34729 0.0
H592 H 0.15292 0.07694 0.25473 0.0
H593 H 0.2863 0.1927 0.31641 0.0
H594 H 0.06011 0.12408 0.27419 0.0
H595 H 0.09533 0.15747 0.23658 0.0
H596 H 0.07502 0.08558 0.24389 0.0
H597 H 0.29192 0.27394 0.33743 0.0
H598 H 0.26311 0.30298 0.30919 0.0
H599 H 0.22596 0.26836 0.34599 0.0
H600 H 0.12045 0.31719 0.24522 0.0
H601 H 0.04339 0.23549 0.33679 0.0
H602 H 0.17894 0.24648 0.22314 0.0
H603 H 0.23473 0.28974 0.25031 0.0
H604 H 0.20233 0.31978 0.22572 0.0
H605 H 0.07639 0.13826 0.33725 0.0
H606 H 0.07335 0.18401 0.36777 0.0
H607 H 0.13832 0.18842 0.35762 0.0
C608 C 0.93678 0.81639 0.27889 0.0
C609 C 0.90252 0.76198 0.29022 0.0
C610 C -0.00557 0.84065 0.28008 0.0
C611 C 0.01779 0.80868 0.29164 0.0
C612 C 0.98313 0.75353 0.30299 0.0
C613 C 0.92574 0.7311 0.30262 0.0
C614 C 0.0303 0.90022 0.26856 0.0
C615 C 0.00643 0.71757 0.31428 0.0
C616 C 0.16347 0.87069 0.25934 0.0
C617 C 0.19321 0.90573 0.28576 0.0
C618 C 0.1063 0.8341 0.26202 0.0
C619 C 0.07863 0.83358 0.29159 0.0
C620 C 0.1094 0.86398 0.3195 0.0
C621 C 0.1666 0.89916 0.31633 0.0
C622 C 0.07496 0.80033 0.23216 0.0
C623 C 0.08144 0.86459 0.35149 0.0
H624 H 0.91845 0.83982 0.26912 0.0
H625 H 0.89885 0.68837 0.31062 0.0
H626 H 0.06028 0.92523 0.28821 0.0
H627 H 0.05451 0.90153 0.24638 0.0
H628 H 0.00562 0.92018 0.26215 0.0
H629 H 0.97391 0.67672 0.32427 0.0
H630 H 0.027 0.70981 0.29305 0.0
H631 H 0.03828 0.73922 0.33363 0.0
H632 H 0.18397 0.87491 0.23574 0.0
H633 H 0.18914 0.92561 0.33688 0.0
H634 H 0.05426 0.8207 0.21984 0.0
H635 H 0.04237 0.75779 0.23963 0.0
H636 H 0.10285 0.79693 0.21381 0.0
H637 H 0.06064 0.88932 0.34785 0.0
H638 H 0.11143 0.88344 0.37216 0.0
H639 H 0.04922 0.82184 0.3588 0.0
C640 C 0.81041 0.06484 0.31339 0.0
C641 C 0.85918 0.08783 0.29442 0.0
C642 C 0.77705 0.00709 0.31716 0.0
C643 C 0.79383 0.97187 0.30233 0.0
C644 C 0.84439 0.99506 0.28439 0.0
C645 C 0.87609 0.05297 0.28015 0.0
C646 C 0.72269 0.98386 0.33555 0.0
C647 C 0.8643 0.95865 0.26894 0.0
C648 C 0.7409 0.82252 0.32705 0.0
C649 C 0.71203 0.79505 0.29829 0.0
C650 C 0.76472 0.88035 0.33004 0.0
C651 C 0.7578 0.91059 0.30408 0.0
C652 C 0.72225 0.88194 0.27726 0.0
C653 C 0.70017 0.82431 0.27448 0.0
C654 C 0.80236 0.90943 0.35903 0.0
C655 C 0.71205 0.9127 0.2498 0.0
H656 H 0.79684 0.09193 0.32393 0.0
H657 H 0.91381 0.07098 0.2655 0.0
H658 H 0.6881 0.96304 0.31768 0.0
H659 H 0.71802 0.95196 0.3539 0.0
H660 H 0.71864 0.01685 0.34863 0.0
H661 H 0.9065 0.98344 0.25815 0.0
H662 H 0.86468 0.92964 0.28777 0.0
H663 H 0.83553 0.93298 0.24898 0.0
H664 H 0.75004 0.80003 0.34561 0.0
H665 H 0.67726 0.80294 0.25241 0.0
H666 H 0.7957 0.94294 0.36881 0.0
H667 H 0.84606 0.92918 0.3506 0.0
H668 H 0.79609 0.87997 0.37951 0.0
H669 H 0.70445 0.94532 0.2601 0.0
H670 H 0.67622 0.88408 0.23421 0.0
H671 H 0.74925 0.93373 0.23365 0.0
C672 C 0.17134 0.25823 0.74236 0.0
C673 C 0.11633 0.22184 0.75175 0.0
C674 C 0.21027 0.24072 0.74224 0.0
C675 C 0.19286 0.18474 0.75025 0.0
C676 C 0.13672 0.14729 0.75887 0.0
C677 C 0.09918 0.16682 0.76032 0.0
C678 C 0.26999 0.28232 0.7342 0.0
C679 C 0.11644 0.08677 0.76669 0.0
C680 C 0.26799 0.11175 0.72121 0.0
C681 C 0.28398 0.09995 0.75168 0.0
C682 C 0.24101 0.14261 0.71987 0.0
C683 C 0.2329 0.16471 0.74953 0.0
C684 C 0.25744 0.16102 0.77935 0.0
C685 C 0.28236 0.12806 0.78018 0.0
C686 C 0.21532 0.14535 0.68753 0.0
C687 C 0.25248 0.18703 0.81108 0.0
H688 H 0.1844 0.30122 0.73632 0.0
H689 H 0.05663 0.13925 0.76789 0.0
H690 H 0.29737 0.2821 0.754 0.0
H691 H 0.28232 0.27057 0.71078 0.0
H692 H 0.27737 0.32538 0.73147 0.0
H693 H 0.07099 0.06254 0.77085 0.0
H694 H 0.12705 0.06732 0.74605 0.0
H695 H 0.13728 0.08363 0.78928 0.0
H696 H 0.27091 0.09192 0.69888 0.0
H697 H 0.29598 0.1204 0.80374 0.0
H698 H 0.22199 0.18771 0.68309 0.0
H699 H 0.16996 0.11626 0.68875 0.0
H700 H 0.23212 0.13341 0.66605 0.0
H701 H 0.2587 0.2292 0.80633 0.0
H702 H 0.2829 0.19029 0.82991 0.0
H703 H 0.21032 0.16099 0.82158 0.0
C704 C 0.05004 0.89424 0.75093 0.0
C705 C 0.08466 0.87881 0.76673 0.0
C706 C -0.00761 0.86018 0.75346 0.0
C707 C 0.96981 0.80853 0.7706 0.0
C708 C 0.00506 0.79221 0.78557 0.0
C709 C 0.06214 0.82842 0.78424 0.0
C710 C 0.95575 0.87986 0.73842 0.0
C711 C 0.98259 0.73658 0.80286 0.0
C712 C 0.82621 0.75216 0.80524 0.0
C713 C 0.79361 0.7203 0.77853 0.0
C714 C 0.88385 0.78001 0.80333 0.0
C715 C 0.9093 0.77337 0.77475 0.0
C716 C 0.87669 0.73609 0.74942 0.0
C717 C 0.81891 0.71064 0.7513 0.0
C718 C 0.9172 0.82048 0.83051 0.0
C719 C 0.90278 0.72578 0.71946 0.0
H720 H 0.06801 0.93323 0.73729 0.0
H721 H 0.08945 0.8165 0.79609 0.0
H722 H 0.92893 0.85012 0.71916 0.0
H723 H 0.92817 0.88129 0.75778 0.0
H724 H 0.97998 0.9219 0.72699 0.0
H725 H 0.01595 0.72838 0.81062 0.0
H726 H 0.95865 0.73507 0.8252 0.0
H727 H 0.95383 0.7025 0.78621 0.0
H728 H 0.80701 0.75982 0.82644 0.0
H729 H 0.79382 0.68573 0.73072 0.0
H730 H 0.93852 0.86358 0.8204 0.0
H731 H 0.9496 0.81209 0.83976 0.0
H732 H 0.89104 0.81858 0.85183 0.0
H733 H 0.92058 0.76288 0.70298 0.0
H734 H 0.87223 0.68914 0.705 0.0
H735 H 0.93707 0.71898 0.72705 0.0
C736 C 0.86919 0.16899 0.734 0.0
C737 C 0.89258 0.193 0.76468 0.0
C738 C 0.83373 0.11118 0.73115 0.0
C739 C 0.82271 0.07695 0.75948 0.0
C740 C 0.84188 0.10154 0.79095 0.0
C741 C 0.87564 0.15941 0.79325 0.0
C742 C 0.81149 0.08648 0.6975 0.0
C743 C 0.83099 0.06648 0.82182 0.0
C744 C 0.71535 0.92382 0.76439 0.0
C745 C 0.74751 0.89913 0.75824 0.0
C746 C 0.7385 0.98169 0.76288 0.0
C747 C 0.79567 0.01553 0.75618 0.0
C748 C 0.82826 0.99051 0.74953 0.0
C749 C 0.80341 0.93217 0.75014 0.0
C750 C 0.70195 0.00649 0.76894 0.0
C751 C 0.88981 0.02537 0.74342 0.0
H752 H 0.88148 0.19472 0.71185 0.0
H753 H 0.89289 0.17758 0.81716 0.0
H754 H 0.83441 0.06642 0.68781 0.0
H755 H 0.76718 0.05384 0.69932 0.0
H756 H 0.8159 0.11867 0.67937 0.0
H757 H 0.84652 0.09222 0.84461 0.0
H758 H 0.78604 0.03697 0.82489 0.0
H759 H 0.85161 0.04134 0.81943 0.0
H760 H 0.67205 0.89769 0.77081 0.0
H761 H 0.82798 0.91254 0.74568 0.0
H762 H 0.69863 0.02603 0.74569 0.0
H763 H 0.7201 0.03968 0.78798 0.0
H764 H 0.65967 0.97465 0.77713 0.0
H765 H 0.89826 0.05418 0.72227 0.0
H766 H 0.90891 -0.00054 0.73804 0.0
H767 H 0.91023 0.05131 0.76556 0.0
loop_
_geom_bond_atom_site_label_1
_geom_bond_atom_site_label_2
_geom_bond_distance
_geom_bond_site_symmetry_2
_ccdc_geom_bond_type
Zn0 O1 2.055 . S
Zn0 O8 2.046 . S
Zn0 N16 2.036 . S
Zn0 O28 2.053 . S
Zn0 O30 2.066 . S
O1 Zn0 2.055 . S
O1 C4 1.259 . S
C2 O30 1.256 . S
C2 O31 1.244 . S
Zn3 O5 2.046 . S
Zn3 O7 2.055 . S
Zn3 N9 2.036 . S
Zn3 O27 2.066 . S
Zn3 O31 2.053 . S
C4 O1 1.259 . S
C4 O5 1.254 . S
O5 Zn3 2.046 . S
O5 C4 1.254 . S
C6 O27 1.256 . S
C6 O28 1.244 . S
O7 Zn3 2.055 . S
O7 C29 1.259 . S
O8 Zn0 2.046 . S
O8 C29 1.254 . S
N9 Zn3 2.036 . S
N9 C10 1.298 . S
N9 N12 1.398 . S
C10 N9 1.298 . S
C10 N13 1.367 . S
C10 C23 1.481 . S
C11 N12 1.299 . S
C11 N13 1.379 . S
N12 N9 1.398 . S
N12 C11 1.299 . S
N13 C10 1.367 . S
N13 C11 1.379 . S
C14 N16 1.298 . S
C14 N18 1.367 . S
C14 C22 1.481 . S
C15 N17 1.299 . S
C15 N18 1.379 . S
N16 Zn0 2.036 . S
N16 C14 1.298 . S
N16 N17 1.398 . S
N17 C15 1.299 . S
N17 N16 1.398 . S
N18 C14 1.367 . S
N18 C15 1.379 . S
H19 C22 0.980 . S
H20 C22 0.981 . S
H21 C22 0.981 . S
C22 C14 1.481 . S
C22 H19 0.980 . S
C22 H20 0.981 . S
C22 H21 0.981 . S
C23 C10 1.481 . S
C23 H24 0.980 . S
C23 H25 0.981 . S
C23 H26 0.981 . S
H24 C23 0.980 . S
H25 C23 0.981 . S
H26 C23 0.981 . S
O27 Zn3 2.066 . S
O27 C6 1.256 . S
O28 Zn0 2.053 . S
O28 C6 1.244 . S
C29 O7 1.259 . S
C29 O8 1.254 . S
O30 Zn0 2.066 . S
O30 C2 1.256 . S
O31 C2 1.244 . S
O31 Zn3 2.053 . S
Zn32 O33 2.055 . S
Zn32 O40 2.046 . S
Zn32 N48 2.036 . S
Zn32 O60 2.053 . S
Zn32 O62 2.066 . S
O33 Zn32 2.055 . S
O33 C36 1.259 . S
C34 O62 1.256 . S
C34 O63 1.244 . S
Zn35 O37 2.046 . S
Zn35 O39 2.055 . S
Zn35 N41 2.036 . S
Zn35 O59 2.066 . S
Zn35 O63 2.053 . S
C36 O33 1.259 . S
C36 O37 1.254 . S
O37 Zn35 2.046 . S
O37 C36 1.254 . S
C38 O59 1.256 . S
C38 O60 1.244 . S
O39 Zn35 2.055 . S
O39 C61 1.259 . S
O40 Zn32 2.046 . S
O40 C61 1.254 . S
N41 Zn35 2.036 . S
N41 C42 1.298 . S
N41 N44 1.398 . S
C42 N41 1.298 . S
C42 N45 1.367 . S
C42 C55 1.481 . S
C43 N44 1.299 . S
C43 N45 1.379 . S
N44 N41 1.398 . S
N44 C43 1.299 . S
N45 C42 1.367 . S
N45 C43 1.379 . S
C46 N48 1.298 . S
C46 N50 1.367 . S
C46 C54 1.481 . S
C47 N49 1.299 . S
C47 N50 1.379 . S
N48 Zn32 2.036 . S
N48 C46 1.298 . S
N48 N49 1.398 . S
N49 C47 1.299 . S
N49 N48 1.398 . S
N50 C46 1.367 . S
N50 C47 1.379 . S
H51 C54 0.980 . S
H52 C54 0.981 . S
H53 C54 0.981 . S
C54 C46 1.481 . S
C54 H51 0.980 . S
C54 H52 0.981 . S
C54 H53 0.981 . S
C55 C42 1.481 . S
C55 H56 0.980 . S
C55 H57 0.981 . S
C55 H58 0.981 . S
H56 C55 0.980 . S
H57 C55 0.981 . S
H58 C55 0.981 . S
O59 Zn35 2.066 . S
O59 C38 1.256 . S
O60 Zn32 2.053 . S
O60 C38 1.244 . S
C61 O39 1.259 . S
C61 O40 1.254 . S
O62 Zn32 2.066 . S
O62 C34 1.256 . S
O63 C34 1.244 . S
O63 Zn35 2.053 . S
Zn64 O65 2.055 . S
Zn64 O72 2.046 . S
Zn64 N80 2.036 . S
Zn64 O92 2.053 . S
Zn64 O94 2.066 . S
O65 Zn64 2.055 . S
O65 C68 1.259 . S
C66 O94 1.256 . S
C66 O95 1.244 . S
Zn67 O69 2.046 . S
Zn67 O71 2.055 . S
Zn67 N73 2.036 . S
Zn67 O91 2.066 . S
Zn67 O95 2.053 . S
C68 O65 1.259 . S
C68 O69 1.254 . S
O69 Zn67 2.046 . S
O69 C68 1.254 . S
C70 O91 1.256 . S
C70 O92 1.244 . S
O71 Zn67 2.055 . S
O71 C93 1.259 . S
O72 Zn64 2.046 . S
O72 C93 1.254 . S
N73 Zn67 2.036 . S
N73 C74 1.298 . S
N73 N76 1.398 . S
C74 N73 1.298 . S
C74 N77 1.367 . S
C74 C87 1.481 . S
C75 N76 1.299 . S
C75 N77 1.379 . S
N76 N73 1.398 . S
N76 C75 1.299 . S
N77 C74 1.367 . S
N77 C75 1.379 . S
C78 N80 1.298 . S
C78 N82 1.367 . S
C78 C86 1.481 . S
C79 N81 1.299 . S
C79 N82 1.379 . S
N80 Zn64 2.036 . S
N80 C78 1.298 . S
N80 N81 1.398 . S
N81 C79 1.299 . S
N81 N80 1.398 . S
N82 C78 1.367 . S
N82 C79 1.379 . S
H83 C86 0.980 . S
H84 C86 0.981 . S
H85 C86 0.981 . S
C86 C78 1.481 . S
C86 H83 0.980 . S
C86 H84 0.981 . S
C86 H85 0.981 . S
C87 C74 1.481 . S
C87 H88 0.980 . S
C87 H89 0.981 . S
C87 H90 0.981 . S
H88 C87 0.980 . S
H89 C87 0.981 . S
H90 C87 0.981 . S
O91 Zn67 2.066 . S
O91 C70 1.256 . S
O92 Zn64 2.053 . S
O92 C70 1.244 . S
C93 O71 1.259 . S
C93 O72 1.254 . S
O94 Zn64 2.066 . S
O94 C66 1.256 . S
O95 C66 1.244 . S
O95 Zn67 2.053 . S
Zn96 O97 2.055 . S
Zn96 O104 2.046 . S
Zn96 N112 2.036 . S
Zn96 O124 2.053 . S
Zn96 O126 2.066 . S
O97 Zn96 2.055 . S
O97 C100 1.259 . S
C98 O126 1.256 . S
C98 O127 1.244 . S
Zn99 O101 2.046 . S
Zn99 O103 2.055 . S
Zn99 N105 2.036 . S
Zn99 O123 2.066 . S
Zn99 O127 2.053 . S
C100 O97 1.259 . S
C100 O101 1.254 . S
O101 Zn99 2.046 . S
O101 C100 1.254 . S
C102 O123 1.256 . S
C102 O124 1.244 . S
O103 Zn99 2.055 . S
O103 C125 1.259 . S
O104 Zn96 2.046 . S
O104 C125 1.254 . S
N105 Zn99 2.036 . S
N105 C106 1.298 . S
N105 N108 1.398 . S
C106 N105 1.298 . S
C106 N109 1.367 . S
C106 C119 1.481 . S
C107 N108 1.299 . S
C107 N109 1.379 . S
N108 N105 1.398 . S
N108 C107 1.299 . S
N109 C106 1.367 . S
N109 C107 1.379 . S
C110 N112 1.298 . S
C110 N114 1.367 . S
C110 C118 1.481 . S
C111 N113 1.299 . S
C111 N114 1.379 . S
N112 Zn96 2.036 . S
N112 C110 1.298 . S
N112 N113 1.398 . S
N113 C111 1.299 . S
N113 N112 1.398 . S
N114 C110 1.367 . S
N114 C111 1.379 . S
H115 C118 0.980 . S
H116 C118 0.981 . S
H117 C118 0.981 . S
C118 C110 1.481 . S
C118 H115 0.980 . S
C118 H116 0.981 . S
C118 H117 0.981 . S
C119 C106 1.481 . S
C119 H120 0.980 . S
C119 H121 0.981 . S
C119 H122 0.981 . S
H120 C119 0.980 . S
H121 C119 0.981 . S
H122 C119 0.981 . S
O123 Zn99 2.066 . S
O123 C102 1.256 . S
O124 Zn96 2.053 . S
O124 C102 1.244 . S
C125 O103 1.259 . S
C125 O104 1.254 . S
O126 Zn96 2.066 . S
O126 C98 1.256 . S
O127 C98 1.244 . S
O127 Zn99 2.053 . S
Zn128 O129 2.055 . S
Zn128 O136 2.046 . S
Zn128 N144 2.036 . S
Zn128 O156 2.053 . S
Zn128 O158 2.066 . S
O129 Zn128 2.055 . S
O129 C132 1.259 . S
C130 O158 1.256 . S
C130 O159 1.244 . S
Zn131 O133 2.046 . S
Zn131 O135 2.055 . S
Zn131 N137 2.036 . S
Zn131 O155 2.066 . S
Zn131 O159 2.053 . S
C132 O129 1.259 . S
C132 O133 1.254 . S
O133 Zn131 2.046 . S
O133 C132 1.254 . S
C134 O155 1.256 . S
C134 O156 1.244 . S
O135 Zn131 2.055 . S
O135 C157 1.259 . S
O136 Zn128 2.046 . S
O136 C157 1.254 . S
N137 Zn131 2.036 . S
N137 C138 1.298 . S
N137 N140 1.398 . S
C138 N137 1.298 . S
C138 N141 1.367 . S
C138 C151 1.481 . S
C139 N140 1.299 . S
C139 N141 1.379 . S
N140 N137 1.398 . S
N140 C139 1.299 . S
N141 C138 1.367 . S
N141 C139 1.379 . S
C142 N144 1.298 . S
C142 N146 1.367 . S
C142 C150 1.481 . S
C143 N145 1.299 . S
C143 N146 1.379 . S
N144 Zn128 2.036 . S
N144 C142 1.298 . S
N144 N145 1.398 . S
N145 C143 1.299 . S
N145 N144 1.398 . S
N146 C142 1.367 . S
N146 C143 1.379 . S
H147 C150 0.980 . S
H148 C150 0.981 . S
H149 C150 0.981 . S
C150 C142 1.481 . S
C150 H147 0.980 . S
C150 H148 0.981 . S
C150 H149 0.981 . S
C151 C138 1.481 . S
C151 H152 0.980 . S
C151 H153 0.981 . S
C151 H154 0.981 . S
H152 C151 0.980 . S
H153 C151 0.981 . S
H154 C151 0.981 . S
O155 Zn131 2.066 . S
O155 C134 1.256 . S
O156 Zn128 2.053 . S
O156 C134 1.244 . S
C157 O135 1.259 . S
C157 O136 1.254 . S
O158 Zn128 2.066 . S
O158 C130 1.256 . S
O159 C130 1.244 . S
O159 Zn131 2.053 . S
Zn160 O161 2.055 . S
Zn160 O168 2.046 . S
Zn160 N176 2.036 . S
Zn160 O188 2.053 . S
Zn160 O190 2.066 . S
O161 Zn160 2.055 . S
O161 C164 1.259 . S
C162 O190 1.256 . S
C162 O191 1.244 . S
Zn163 O165 2.046 . S
Zn163 O167 2.055 . S
Zn163 N169 2.036 . S
Zn163 O187 2.066 . S
Zn163 O191 2.053 . S
C164 O161 1.259 . S
C164 O165 1.254 . S
O165 Zn163 2.046 . S
O165 C164 1.254 . S
C166 O187 1.256 . S
C166 O188 1.244 . S
O167 Zn163 2.055 . S
O167 C189 1.259 . S
O168 Zn160 2.046 . S
O168 C189 1.254 . S
N169 Zn163 2.036 . S
N169 C170 1.298 . S
N169 N172 1.398 . S
C170 N169 1.298 . S
C170 N173 1.367 . S
C170 C183 1.481 . S
C171 N172 1.299 . S
C171 N173 1.379 . S
N172 N169 1.398 . S
N172 C171 1.299 . S
N173 C170 1.367 . S
N173 C171 1.379 . S
C174 N176 1.298 . S
C174 N178 1.367 . S
C174 C182 1.481 . S
C175 N177 1.299 . S
C175 N178 1.379 . S
N176 Zn160 2.036 . S
N176 C174 1.298 . S
N176 N177 1.398 . S
N177 C175 1.299 . S
N177 N176 1.398 . S
N178 C174 1.367 . S
N178 C175 1.379 . S
H179 C182 0.980 . S
H180 C182 0.981 . S
H181 C182 0.981 . S
C182 C174 1.481 . S
C182 H179 0.980 . S
C182 H180 0.981 . S
C182 H181 0.981 . S
C183 C170 1.481 . S
C183 H184 0.980 . S
C183 H185 0.981 . S
C183 H186 0.981 . S
H184 C183 0.980 . S
H185 C183 0.981 . S
H186 C183 0.981 . S
O187 Zn163 2.066 . S
O187 C166 1.256 . S
O188 Zn160 2.053 . S
O188 C166 1.244 . S
C189 O167 1.259 . S
C189 O168 1.254 . S
O190 Zn160 2.066 . S
O190 C162 1.256 . S
O191 C162 1.244 . S
O191 Zn163 2.053 . S
C192 C193 1.391 . S
C192 C194 1.394 . S
C192 H208 0.931 . S
C193 C192 1.391 . S
C193 C197 1.376 . S
C194 C192 1.394 . S
C194 C195 1.369 . S
C194 C198 1.531 1_556 S
C195 C194 1.369 . S
C195 C196 1.410 . S
C195 C203 1.503 1_566 S
C196 C195 1.410 . S
C196 C197 1.392 . S
C196 C199 1.511 1_565 S
C197 C193 1.376 . S
C197 C196 1.392 . S
C197 H209 0.929 . S
C198 C194 1.531 1_554 S
C198 H210 0.960 . S
C198 H211 0.962 . S
C198 H212 0.960 . S
C199 C196 1.511 1_545 S
C199 H213 0.961 . S
C199 H214 0.961 . S
C199 H215 0.961 . S
C200 C201 1.370 . S
C200 C202 1.363 . S
C200 H216 0.931 . S
C201 C200 1.370 . S
C201 C205 1.408 . S
C202 C200 1.363 . S
C202 C203 1.370 . S
C202 C206 1.524 1_554 S
C203 C195 1.503 1_544 S
C203 C202 1.370 . S
C203 C204 1.403 1_545 S
C204 C203 1.403 1_565 S
C204 C205 1.404 1_565 S
C204 C207 1.539 . S
C205 C201 1.408 . S
C205 C204 1.404 1_545 S
C205 H217 0.930 . S
C206 C202 1.524 1_556 S
C206 H218 0.956 . S
C206 H219 0.961 . S
C206 H220 0.964 . S
C207 C204 1.539 . S
C207 H221 0.958 . S
C207 H222 0.961 . S
C207 H223 0.960 . S
H208 C192 0.931 . S
H209 C197 0.929 . S
H210 C198 0.960 . S
H211 C198 0.962 . S
H212 C198 0.960 . S
H213 C199 0.961 . S
H214 C199 0.961 . S
H215 C199 0.961 . S
H216 C200 0.931 . S
H217 C205 0.930 . S
H218 C206 0.956 . S
H219 C206 0.961 . S
H220 C206 0.964 . S
H221 C207 0.958 . S
H222 C207 0.961 . S
H223 C207 0.960 . S
C224 C225 1.391 . S
C224 C226 1.394 . S
C224 H240 0.931 . S
C225 C224 1.391 . S
C225 C229 1.376 . S
C226 C224 1.394 . S
C226 C227 1.369 . S
C226 C230 1.531 . S
C227 C226 1.369 . S
C227 C228 1.410 . S
C227 C235 1.503 . S
C228 C227 1.410 . S
C228 C229 1.392 . S
C228 C231 1.511 . S
C229 C225 1.376 . S
C229 C228 1.392 . S
C229 H241 0.929 . S
C230 C226 1.531 . S
C230 H242 0.960 . S
C230 H243 0.962 . S
C230 H244 0.960 . S
C231 C228 1.511 . S
C231 H245 0.961 . S
C231 H246 0.961 . S
C231 H247 0.961 . S
C232 C233 1.370 . S
C232 C234 1.363 . S
C232 H248 0.931 . S
C233 C232 1.370 . S
C233 C237 1.408 . S
C234 C232 1.363 . S
C234 C235 1.370 . S
C234 C238 1.524 . S
C235 C227 1.503 . S
C235 C234 1.370 . S
C235 C236 1.403 . S
C236 C235 1.403 . S
C236 C237 1.404 . S
C236 C239 1.539 . S
C237 C233 1.408 . S
C237 C236 1.404 . S
C237 H249 0.930 . S
C238 C234 1.524 . S
C238 H250 0.956 . S
C238 H251 0.961 . S
C238 H252 0.961 . S
C239 C236 1.539 . S
C239 H253 0.958 . S
C239 H254 0.961 . S
C239 H255 0.960 . S
H240 C224 0.931 . S
H241 C229 0.929 . S
H242 C230 0.960 . S
H243 C230 0.962 . S
H244 C230 0.960 . S
H245 C231 0.961 . S
H246 C231 0.961 . S
H247 C231 0.961 . S
H248 C232 0.931 . S
H249 C237 0.930 . S
H250 C238 0.956 . S
H251 C238 0.961 . S
H252 C238 0.961 . S
H253 C239 0.958 . S
H254 C239 0.961 . S
H255 C239 0.960 . S
C256 C257 1.391 . S
C256 C258 1.394 . S
C256 H272 0.931 . S
C257 C256 1.391 . S
C257 C261 1.376 . S
C258 C256 1.394 . S
C258 C259 1.369 . S
C258 C262 1.531 1_655 S
C259 C258 1.369 . S
C259 C260 1.410 . S
C259 C267 1.503 1_654 S
C260 C259 1.410 . S
C260 C261 1.392 . S
C260 C263 1.511 . S
C261 C257 1.376 . S
C261 C260 1.392 . S
C261 H273 0.929 . S
C262 C258 1.531 1_455 S
C262 H274 0.960 . S
C262 H275 0.962 . S
C262 H276 0.960 . S
C263 C260 1.511 . S
C263 H277 0.961 . S
C263 H278 0.961 1_554 S
C263 H279 0.961 . S
C264 C265 1.370 . S
C264 C266 1.363 1_455 S
C264 H280 0.931 1_455 S
C265 C264 1.370 . S
C265 C269 1.408 . S
C266 C264 1.363 1_655 S
C266 C267 1.370 1_655 S
C266 C270 1.524 . S
C267 C259 1.503 1_456 S
C267 C266 1.370 1_455 S
C267 C268 1.403 . S
C268 C267 1.403 . S
C268 C269 1.404 . S
C268 C271 1.539 1_556 S
C269 C265 1.408 . S
C269 C268 1.404 . S
C269 H281 0.930 . S
C270 C266 1.524 . S
C270 H282 0.956 . S
C270 H283 0.961 . S
C270 H284 0.961 . S
C271 C268 1.539 1_554 S
C271 H285 0.958 . S
C271 H286 0.961 . S
C271 H287 0.960 . S
H272 C256 0.931 . S
H273 C261 0.929 . S
H274 C262 0.960 . S
H275 C262 0.962 . S
H276 C262 0.960 . S
H277 C263 0.961 . S
H278 C263 0.961 1_556 S
H279 C263 0.961 . S
H280 C264 0.931 1_655 S
H281 C269 0.930 . S
H282 C270 0.956 . S
H283 C270 0.961 . S
H284 C270 0.961 . S
H285 C271 0.958 . S
H286 C271 0.961 . S
H287 C271 0.960 . S
C288 C289 1.391 . S
C288 C290 1.394 . S
C288 H304 0.931 . S
C289 C288 1.391 . S
C289 C293 1.392 . S
C290 C288 1.394 . S
C290 C291 1.369 . S
C290 C294 1.531 . S
C291 C290 1.369 . S
C291 C292 1.410 1_545 S
C291 C299 1.503 1_545 S
C292 C291 1.410 1_565 S
C292 C293 1.386 1_565 S
C292 C295 1.511 . S
C293 C289 1.392 . S
C293 C292 1.386 1_545 S
C293 H305 0.919 1_545 S
C294 C290 1.531 . S
C294 H306 0.960 . S
C294 H307 0.962 . S
C294 H308 0.960 . S
C295 C292 1.511 . S
C295 H309 0.961 . S
C295 H310 0.961 . S
C295 H311 0.961 . S
C296 C297 1.370 . S
C296 C298 1.363 . S
C296 H312 0.931 . S
C297 C296 1.370 . S
C297 C301 1.408 . S
C298 C296 1.363 . S
C298 C299 1.370 . S
C298 C302 1.524 . S
C299 C291 1.503 1_565 S
C299 C298 1.370 . S
C299 C300 1.403 . S
C300 C299 1.403 . S
C300 C301 1.404 . S
C300 C303 1.539 1_565 S
C301 C297 1.408 . S
C301 C300 1.404 . S
C301 H313 0.930 . S
C302 C298 1.524 . S
C302 H314 0.956 1_565 S
C302 H315 0.961 . S
C302 H316 0.961 . S
C303 C300 1.539 1_545 S
C303 H317 0.958 . S
C303 H318 0.961 1_545 S
C303 H319 0.960 1_545 S
H304 C288 0.931 . S
H305 C293 0.919 1_565 S
H306 C294 0.960 . S
H307 C294 0.962 . S
H308 C294 0.960 . S
H309 C295 0.961 . S
H310 C295 0.961 . S
H311 C295 0.961 . S
H312 C296 0.931 . S
H313 C301 0.930 . S
H314 C302 0.956 1_545 S
H315 C302 0.961 . S
H316 C302 0.961 . S
H317 C303 0.958 . S
H318 C303 0.961 1_565 S
H319 C303 0.960 1_565 S
C320 C321 1.391 . S
C320 C322 1.394 . S
C320 H336 0.931 . S
C321 C320 1.391 . S
C321 C325 1.376 . S
C322 C320 1.394 . S
C322 C323 1.369 . S
C322 C326 1.531 . S
C323 C322 1.369 . S
C323 C324 1.410 . S
C323 C331 1.503 1_556 S
C324 C323 1.410 . S
C324 C325 1.392 . S
C324 C327 1.511 1_556 S
C325 C321 1.376 . S
C325 C324 1.392 . S
C325 H337 0.929 . S
C326 C322 1.531 . S
C326 H338 0.960 . S
C326 H339 0.962 . S
C326 H340 0.960 . S
C327 C324 1.511 1_554 S
C327 H341 0.961 . S
C327 H342 0.961 . S
C327 H343 0.961 . S
C328 C329 1.370 . S
C328 C330 1.363 . S
C328 H344 0.931 . S
C329 C328 1.370 . S
C329 C333 1.408 . S
C330 C328 1.363 . S
C330 C331 1.370 . S
C330 C334 1.524 . S
C331 C323 1.503 1_554 S
C331 C330 1.370 . S
C331 C332 1.403 . S
C332 C331 1.403 . S
C332 C333 1.404 . S
C332 C335 1.539 . S
C333 C329 1.408 . S
C333 C332 1.404 . S
C333 H345 0.930 . S
C334 C330 1.524 . S
C334 H346 0.956 1_554 S
C334 H347 0.961 . S
C334 H348 0.961 . S
C335 C332 1.539 . S
C335 H349 0.958 . S
C335 H350 0.961 . S
C335 H351 0.960 . S
H336 C320 0.931 . S
H337 C325 0.929 . S
H338 C326 0.960 . S
H339 C326 0.962 . S
H340 C326 0.960 . S
H341 C327 0.961 . S
H342 C327 0.961 . S
H343 C327 0.961 . S
H344 C328 0.931 . S
H345 C333 0.930 . S
H346 C334 0.956 1_556 S
H347 C334 0.961 . S
H348 C334 0.961 . S
H349 C335 0.958 . S
H350 C335 0.961 . S
H351 C335 0.960 . S
C352 C353 1.391 . S
C352 C354 1.394 . S
C352 H368 0.931 . S
C353 C352 1.391 . S
C353 C357 1.376 1_655 S
C354 C352 1.394 . S
C354 C355 1.369 . S
C354 C358 1.531 . S
C355 C354 1.369 . S
C355 C356 1.410 1_655 S
C355 C363 1.503 1_655 S
C356 C355 1.410 1_455 S
C356 C357 1.392 . S
C356 C359 1.511 . S
C357 C353 1.376 1_455 S
C357 C356 1.392 . S
C357 H369 0.929 . S
C358 C354 1.531 . S
C358 H370 0.960 . S
C358 H371 0.962 . S
C358 H372 0.960 . S
C359 C356 1.511 . S
C359 H373 0.961 . S
C359 H374 0.961 . S
C359 H375 0.961 . S
C360 C361 1.370 . S
C360 C362 1.363 . S
C360 H376 0.931 . S
C361 C360 1.370 . S
C361 C365 1.408 . S
C362 C360 1.363 . S
C362 C363 1.370 . S
C362 C366 1.524 . S
C363 C355 1.503 1_455 S
C363 C362 1.370 . S
C363 C364 1.403 . S
C364 C363 1.403 . S
C364 C365 1.404 . S
C364 C367 1.539 . S
C365 C361 1.408 . S
C365 C364 1.404 . S
C365 H377 0.930 . S
C366 C362 1.524 . S
C366 H378 0.956 1_455 S
C366 H379 0.961 . S
C366 H380 0.961 . S
C367 C364 1.539 . S
C367 H381 0.958 1_455 S
C367 H382 0.961 . S
C367 H383 0.960 . S
H368 C352 0.931 . S
H369 C357 0.929 . S
H370 C358 0.960 . S
H371 C358 0.962 . S
H372 C358 0.960 . S
H373 C359 0.961 . S
H374 C359 0.961 . S
H375 C359 0.961 . S
H376 C360 0.931 . S
H377 C365 0.930 . S
H378 C366 0.956 1_655 S
H379 C366 0.961 . S
H380 C366 0.961 . S
H381 C367 0.958 1_655 S
H382 C367 0.961 . S
H383 C367 0.960 . S
C384 C385 1.391 . S
C384 C386 1.394 . S
C384 H400 0.931 . S
C385 C384 1.391 . S
C385 C389 1.376 . S
C386 C384 1.394 . S
C386 C387 1.369 . S
C386 C390 1.531 . S
C387 C386 1.369 . S
C387 C388 1.410 . S
C387 C395 1.503 . S
C388 C387 1.410 . S
C388 C389 1.392 . S
C388 C391 1.511 . S
C389 C385 1.376 . S
C389 C388 1.392 . S
C389 H401 0.929 . S
C390 C386 1.531 . S
C390 H402 0.960 . S
C390 H403 0.962 . S
C390 H404 0.960 . S
C391 C388 1.511 . S
C391 H405 0.961 . S
C391 H406 0.961 . S
C391 H407 0.961 . S
C392 C393 1.370 . S
C392 C394 1.363 . S
C392 H408 0.931 . S
C393 C392 1.370 . S
C393 C397 1.408 . S
C394 C392 1.363 . S
C394 C395 1.370 . S
C394 C398 1.524 . S
C395 C387 1.503 . S
C395 C394 1.370 . S
C395 C396 1.403 . S
C396 C395 1.403 . S
C396 C397 1.404 . S
C396 C399 1.539 . S
C397 C393 1.408 . S
C397 C396 1.404 . S
C397 H409 0.930 . S
C398 C394 1.524 . S
C398 H410 0.956 . S
C398 H411 0.961 . S
C398 H412 0.961 . S
C399 C396 1.539 . S
C399 H413 0.958 . S
C399 H414 0.961 . S
C399 H415 0.960 . S
H400 C384 0.931 . S
H401 C389 0.929 . S
H402 C390 0.960 . S
H403 C390 0.962 . S
H404 C390 0.960 . S
H405 C391 0.961 . S
H406 C391 0.961 . S
H407 C391 0.961 . S
H408 C392 0.931 . S
H409 C397 0.930 . S
H410 C398 0.956 . S
H411 C398 0.961 . S
H412 C398 0.961 . S
H413 C399 0.958 . S
H414 C399 0.961 . S
H415 C399 0.960 . S
C416 C417 1.391 . S
C416 C418 1.394 . S
C416 H432 0.931 . S
C417 C416 1.391 . S
C417 C421 1.376 . S
C418 C416 1.394 . S
C418 C419 1.369 . S
C418 C422 1.531 . S
C419 C418 1.369 . S
C419 C420 1.410 . S
C419 C427 1.503 . S
C420 C419 1.410 . S
C420 C421 1.392 . S
C420 C423 1.511 . S
C421 C417 1.376 . S
C421 C420 1.392 . S
C421 H433 0.929 . S
C422 C418 1.531 . S
C422 H434 0.960 . S
C422 H435 0.962 . S
C422 H436 0.960 . S
C423 C420 1.511 . S
C423 H437 0.961 . S
C423 H438 0.961 . S
C423 H439 0.961 . S
C424 C425 1.370 . S
C424 C426 1.363 . S
C424 H440 0.931 . S
C425 C424 1.370 . S
C425 C429 1.408 . S
C426 C424 1.363 . S
C426 C427 1.370 . S
C426 C430 1.524 . S
C427 C419 1.503 . S
C427 C426 1.370 . S
C427 C428 1.403 . S
C428 C427 1.403 . S
C428 C429 1.404 . S
C428 C431 1.539 . S
C429 C425 1.408 . S
C429 C428 1.404 . S
C429 H441 0.930 . S
C430 C426 1.524 . S
C430 H442 0.956 . S
C430 H443 0.961 . S
C430 H444 0.961 . S
C431 C428 1.539 . S
C431 H445 0.958 . S
C431 H446 0.961 . S
C431 H447 0.960 . S
H432 C416 0.931 . S
H433 C421 0.929 . S
H434 C422 0.960 . S
H435 C422 0.962 . S
H436 C422 0.960 . S
H437 C423 0.961 . S
H438 C423 0.961 . S
H439 C423 0.961 . S
H440 C424 0.931 . S
H441 C429 0.930 . S
H442 C430 0.956 . S
H443 C430 0.961 . S
H444 C430 0.961 . S
H445 C431 0.958 . S
H446 C431 0.961 . S
H447 C431 0.960 . S
C448 C449 1.391 . S
C448 C450 1.394 . S
C448 H464 0.931 . S
C449 C448 1.391 . S
C449 C453 1.376 . S
C450 C448 1.394 . S
C450 C451 1.369 . S
C450 C454 1.531 . S
C451 C450 1.369 . S
C451 C452 1.410 . S
C451 C459 1.503 . S
C452 C451 1.410 . S
C452 C453 1.392 . S
C452 C455 1.511 . S
C453 C449 1.376 . S
C453 C452 1.392 . S
C453 H465 0.929 . S
C454 C450 1.531 . S
C454 H466 0.960 . S
C454 H467 0.962 . S
C454 H468 0.960 . S
C455 C452 1.511 . S
C455 H469 0.961 1_655 S
C455 H470 0.961 . S
C455 H471 0.961 . S
C456 C457 1.370 . S
C456 C458 1.363 . S
C456 H472 0.931 . S
C457 C456 1.370 . S
C457 C461 1.408 . S
C458 C456 1.363 . S
C458 C459 1.370 . S
C458 C462 1.524 . S
C459 C451 1.503 . S
C459 C458 1.370 . S
C459 C460 1.403 . S
C460 C459 1.403 . S
C460 C461 1.404 . S
C460 C463 1.539 . S
C461 C457 1.408 . S
C461 C460 1.404 . S
C461 H473 0.930 . S
C462 C458 1.524 . S
C462 H474 0.956 . S
C462 H475 0.961 . S
C462 H476 0.961 . S
C463 C460 1.539 . S
C463 H477 0.958 . S
C463 H478 0.961 . S
C463 H479 0.960 . S
H464 C448 0.931 . S
H465 C453 0.929 . S
H466 C454 0.960 . S
H467 C454 0.962 . S
H468 C454 0.960 . S
H469 C455 0.961 1_455 S
H470 C455 0.961 . S
H471 C455 0.961 . S
H472 C456 0.931 . S
H473 C461 0.930 . S
H474 C462 0.956 . S
H475 C462 0.961 . S
H476 C462 0.961 . S
H477 C463 0.958 . S
H478 C463 0.961 . S
H479 C463 0.960 . S
C480 C481 1.391 . S
C480 C482 1.394 . S
C480 H496 0.931 . S
C481 C480 1.391 . S
C481 C485 1.376 . S
C482 C480 1.394 . S
C482 C483 1.369 . S
C482 C486 1.531 . S
C483 C482 1.369 . S
C483 C484 1.410 . S
C483 C491 1.503 . S
C484 C483 1.410 . S
C484 C485 1.392 . S
C484 C487 1.511 . S
C485 C481 1.376 . S
C485 C484 1.392 . S
C485 H497 0.929 . S
C486 C482 1.531 . S
C486 H498 0.960 . S
C486 H499 0.962 . S
C486 H500 0.960 . S
C487 C484 1.511 . S
C487 H501 0.961 . S
C487 H502 0.961 . S
C487 H503 0.961 . S
C488 C489 1.370 . S
C488 C490 1.363 . S
C488 H504 0.931 . S
C489 C488 1.370 . S
C489 C493 1.408 . S
C490 C488 1.363 . S
C490 C491 1.370 . S
C490 C494 1.524 . S
C491 C483 1.503 . S
C491 C490 1.370 . S
C491 C492 1.403 . S
C492 C491 1.403 . S
C492 C493 1.404 . S
C492 C495 1.539 . S
C493 C489 1.408 . S
C493 C492 1.404 . S
C493 H505 0.930 . S
C494 C490 1.524 . S
C494 H506 0.956 . S
C494 H507 0.961 . S
C494 H508 0.961 . S
C495 C492 1.539 . S
C495 H509 0.958 . S
C495 H510 0.961 . S
C495 H511 0.960 . S
H496 C480 0.931 . S
H497 C485 0.929 . S
H498 C486 0.960 . S
H499 C486 0.962 . S
H500 C486 0.960 . S
H501 C487 0.961 . S
H502 C487 0.961 . S
H503 C487 0.961 . S
H504 C488 0.931 . S
H505 C493 0.930 . S
H506 C494 0.956 . S
H507 C494 0.961 . S
H508 C494 0.961 . S
H509 C495 0.958 . S
H510 C495 0.961 . S
H511 C495 0.960 . S
C512 C513 1.391 . S
C512 C514 1.394 . S
C512 H528 0.931 . S
C513 C512 1.391 . S
C513 C517 1.376 . S
C514 C512 1.394 . S
C514 C515 1.369 . S
C514 C518 1.531 . S
C515 C514 1.369 . S
C515 C516 1.410 . S
C515 C523 1.503 . S
C516 C515 1.410 . S
C516 C517 1.392 . S
C516 C519 1.511 . S
C517 C513 1.376 . S
C517 C516 1.392 . S
C517 H529 0.929 . S
C518 C514 1.531 . S
C518 H530 0.960 . S
C518 H531 0.962 . S
C518 H532 0.960 . S
C519 C516 1.511 . S
C519 H533 0.961 . S
C519 H534 0.961 . S
C519 H535 0.961 . S
C520 C521 1.370 . S
C520 C522 1.363 . S
C520 H536 0.931 . S
C521 C520 1.370 . S
C521 C525 1.408 . S
C522 C520 1.363 . S
C522 C523 1.370 . S
C522 C526 1.524 . S
C523 C515 1.503 . S
C523 C522 1.370 . S
C523 C524 1.403 . S
C524 C523 1.403 . S
C524 C525 1.404 . S
C524 C527 1.539 . S
C525 C521 1.408 . S
C525 C524 1.404 . S
C525 H537 0.930 . S
C526 C522 1.524 . S
C526 H538 0.956 . S
C526 H539 0.961 . S
C526 H540 0.961 . S
C527 C524 1.539 . S
C527 H541 0.958 . S
C527 H542 0.961 . S
C527 H543 0.960 . S
H528 C512 0.931 . S
H529 C517 0.929 . S
H530 C518 0.960 . S
H531 C518 0.962 . S
H532 C518 0.960 . S
H533 C519 0.961 . S
H534 C519 0.961 . S
H535 C519 0.961 . S
H536 C520 0.931 . S
H537 C525 0.930 . S
H538 C526 0.956 . S
H539 C526 0.961 . S
H540 C526 0.961 . S
H541 C527 0.958 . S
H542 C527 0.961 . S
H543 C527 0.960 . S
C544 C545 1.391 . S
C544 C546 1.394 . S
C544 H560 0.931 . S
C545 C544 1.391 . S
C545 C549 1.376 . S
C546 C544 1.394 . S
C546 C547 1.369 . S
C546 C550 1.531 . S
C547 C546 1.369 . S
C547 C548 1.410 . S
C547 C555 1.503 . S
C548 C547 1.410 . S
C548 C549 1.392 . S
C548 C551 1.511 . S
C549 C545 1.376 . S
C549 C548 1.392 . S
C549 H561 0.929 . S
C550 C546 1.531 . S
C550 H562 0.960 . S
C550 H563 0.962 . S
C550 H564 0.960 . S
C551 C548 1.511 . S
C551 H565 0.961 . S
C551 H566 0.961 . S
C551 H567 0.961 . S
C552 C553 1.370 . S
C552 C554 1.363 . S
C552 H568 0.931 . S
C553 C552 1.370 . S
C553 C557 1.408 . S
C554 C552 1.363 . S
C554 C555 1.370 . S
C554 C558 1.524 . S
C555 C547 1.503 . S
C555 C554 1.370 . S
C555 C556 1.403 . S
C556 C555 1.403 . S
C556 C557 1.404 . S
C556 C559 1.539 . S
C557 C553 1.408 . S
C557 C556 1.404 . S
C557 H569 0.930 . S
C558 C554 1.524 . S
C558 H570 0.956 . S
C558 H571 0.961 . S
C558 H572 0.961 . S
C559 C556 1.539 . S
C559 H573 0.958 . S
C559 H574 0.961 . S
C559 H575 0.960 . S
H560 C544 0.931 . S
H561 C549 0.929 . S
H562 C550 0.960 . S
H563 C550 0.962 . S
H564 C550 0.960 . S
H565 C551 0.961 . S
H566 C551 0.961 . S
H567 C551 0.961 . S
H568 C552 0.931 . S
H569 C557 0.930 . S
H570 C558 0.956 . S
H571 C558 0.961 . S
H572 C558 0.961 . S
H573 C559 0.958 . S
H574 C559 0.961 . S
H575 C559 0.960 . S
C576 C577 1.391 . S
C576 C578 1.394 . S
C576 H592 0.931 . S
C577 C576 1.391 . S
C577 C581 1.376 . S
C578 C576 1.394 . S
C578 C579 1.369 . S
C578 C582 1.531 . S
C579 C578 1.369 . S
C579 C580 1.410 . S
C579 C587 1.503 . S
C580 C579 1.410 . S
C580 C581 1.392 . S
C580 C583 1.511 . S
C581 C577 1.376 . S
C581 C580 1.392 . S
C581 H593 0.929 . S
C582 C578 1.531 . S
C582 H594 0.960 . S
C582 H595 0.962 . S
C582 H596 0.960 . S
C583 C580 1.511 . S
C583 H597 0.961 . S
C583 H598 0.961 . S
C583 H599 0.961 . S
C584 C585 1.370 . S
C584 C586 1.363 . S
C584 H600 0.931 . S
C585 C584 1.370 . S
C585 C589 1.408 . S
C586 C584 1.363 . S
C586 C587 1.370 . S
C586 C590 1.524 . S
C587 C579 1.503 . S
C587 C586 1.370 . S
C587 C588 1.403 . S
C588 C587 1.403 . S
C588 C589 1.407 . S
C588 C591 1.539 . S
C589 C585 1.408 . S
C589 C588 1.407 . S
C589 H601 0.927 1_455 S
C590 C586 1.524 . S
C590 H602 0.956 . S
C590 H603 0.961 . S
C590 H604 0.961 . S
C591 C588 1.539 . S
C591 H605 0.958 . S
C591 H606 0.961 1_455 S
C591 H607 0.960 . S
H592 C576 0.931 . S
H593 C581 0.929 . S
H594 C582 0.960 . S
H595 C582 0.962 . S
H596 C582 0.960 . S
H597 C583 0.961 . S
H598 C583 0.961 . S
H599 C583 0.961 . S
H600 C584 0.931 . S
H601 C589 0.927 1_655 S
H602 C590 0.956 . S
H603 C590 0.961 . S
H604 C590 0.961 . S
H605 C591 0.958 . S
H606 C591 0.961 1_655 S
H607 C591 0.960 . S
C608 C609 1.391 . S
C608 C610 1.387 1_655 S
C608 H624 0.931 . S
C609 C608 1.391 . S
C609 C613 1.376 . S
C610 C608 1.387 1_455 S
C610 C611 1.377 . S
C610 C614 1.529 . S
C611 C610 1.377 . S
C611 C612 1.410 . S
C611 C619 1.503 . S
C612 C611 1.410 . S
C612 C613 1.392 1_455 S
C612 C615 1.511 . S
C613 C609 1.376 . S
C613 C612 1.392 1_655 S
C613 H625 0.929 . S
C614 C610 1.529 . S
C614 H626 0.960 . S
C614 H627 0.962 . S
C614 H628 0.960 1_455 S
C615 C612 1.511 . S
C615 H629 0.961 . S
C615 H630 0.961 . S
C615 H631 0.961 . S
C616 C617 1.370 . S
C616 C618 1.363 . S
C616 H632 0.931 . S
C617 C616 1.370 . S
C617 C621 1.408 . S
C618 C616 1.363 . S
C618 C619 1.370 . S
C618 C622 1.524 . S
C619 C611 1.503 . S
C619 C618 1.370 . S
C619 C620 1.403 . S
C620 C619 1.403 . S
C620 C621 1.404 . S
C620 C623 1.539 . S
C621 C617 1.408 . S
C621 C620 1.404 . S
C621 H633 0.930 . S
C622 C618 1.524 . S
C622 H634 0.956 . S
C622 H635 0.961 . S
C622 H636 0.961 . S
C623 C620 1.539 . S
C623 H637 0.958 . S
C623 H638 0.961 . S
C623 H639 0.960 . S
H624 C608 0.931 . S
H625 C613 0.929 . S
H626 C614 0.960 . S
H627 C614 0.962 . S
H628 C614 0.960 1_655 S
H629 C615 0.961 . S
H630 C615 0.961 . S
H631 C615 0.961 . S
H632 C616 0.931 . S
H633 C621 0.930 . S
H634 C622 0.956 . S
H635 C622 0.961 . S
H636 C622 0.961 . S
H637 C623 0.958 . S
H638 C623 0.961 . S
H639 C623 0.960 . S
C640 C641 1.391 . S
C640 C642 1.394 1_545 S
C640 H656 0.931 . S
C641 C640 1.391 . S
C641 C645 1.376 . S
C642 C640 1.394 1_565 S
C642 C643 1.369 . S
C642 C646 1.531 . S
C643 C642 1.369 . S
C643 C644 1.410 1_565 S
C643 C651 1.503 . S
C644 C643 1.410 1_545 S
C644 C645 1.392 . S
C644 C647 1.511 1_545 S
C645 C641 1.376 . S
C645 C644 1.392 . S
C645 H657 0.929 . S
C646 C642 1.531 . S
C646 H658 0.960 . S
C646 H659 0.962 . S
C646 H660 0.960 . S
C647 C644 1.511 1_565 S
C647 H661 0.961 1_565 S
C647 H662 0.961 . S
C647 H663 0.961 . S
C648 C649 1.370 . S
C648 C650 1.363 . S
C648 H664 0.931 . S
C649 C648 1.370 . S
C649 C653 1.408 . S
C650 C648 1.363 . S
C650 C651 1.370 . S
C650 C654 1.524 . S
C651 C643 1.503 . S
C651 C650 1.370 . S
C651 C652 1.403 . S
C652 C651 1.403 . S
C652 C653 1.404 . S
C652 C655 1.539 . S
C653 C649 1.408 . S
C653 C652 1.404 . S
C653 H665 0.930 . S
C654 C650 1.524 . S
C654 H666 0.956 . S
C654 H667 0.961 . S
C654 H668 0.961 . S
C655 C652 1.539 . S
C655 H669 0.958 . S
C655 H670 0.961 . S
C655 H671 0.960 . S
H656 C640 0.931 . S
H657 C645 0.929 . S
H658 C646 0.960 . S
H659 C646 0.962 . S
H660 C646 0.960 . S
H661 C647 0.961 1_545 S
H662 C647 0.961 . S
H663 C647 0.961 . S
H664 C648 0.931 . S
H665 C653 0.930 . S
H666 C654 0.956 . S
H667 C654 0.961 . S
H668 C654 0.961 . S
H669 C655 0.958 . S
H670 C655 0.961 . S
H671 C655 0.960 . S
C672 C673 1.391 . S
C672 C674 1.394 . S
C672 H688 0.931 . S
C673 C672 1.391 . S
C673 C677 1.376 . S
C674 C672 1.394 . S
C674 C675 1.369 . S
C674 C678 1.531 . S
C675 C674 1.369 . S
C675 C676 1.410 . S
C675 C683 1.503 . S
C676 C675 1.410 . S
C676 C677 1.392 . S
C676 C679 1.511 . S
C677 C673 1.376 . S
C677 C676 1.392 . S
C677 H689 0.929 . S
C678 C674 1.531 . S
C678 H690 0.960 . S
C678 H691 0.962 . S
C678 H692 0.960 . S
C679 C676 1.511 . S
C679 H693 0.961 . S
C679 H694 0.961 . S
C679 H695 0.961 . S
C680 C681 1.370 . S
C680 C682 1.363 . S
C680 H696 0.931 . S
C681 C680 1.370 . S
C681 C685 1.408 . S
C682 C680 1.363 . S
C682 C683 1.370 . S
C682 C686 1.524 . S
C683 C675 1.503 . S
C683 C682 1.370 . S
C683 C684 1.403 . S
C684 C683 1.403 . S
C684 C685 1.404 . S
C684 C687 1.539 . S
C685 C681 1.408 . S
C685 C684 1.404 . S
C685 H697 0.930 . S
C686 C682 1.524 . S
C686 H698 0.956 . S
C686 H699 0.961 . S
C686 H700 0.961 . S
C687 C684 1.539 . S
C687 H701 0.958 . S
C687 H702 0.961 . S
C687 H703 0.960 . S
H688 C672 0.931 . S
H689 C677 0.929 . S
H690 C678 0.960 . S
H691 C678 0.962 . S
H692 C678 0.960 . S
H693 C679 0.961 . S
H694 C679 0.961 . S
H695 C679 0.961 . S
H696 C680 0.931 . S
H697 C685 0.930 . S
H698 C686 0.956 . S
H699 C686 0.961 . S
H700 C686 0.961 . S
H701 C687 0.958 . S
H702 C687 0.961 . S
H703 C687 0.960 . S
C704 C705 1.391 . S
C704 C706 1.394 1_455 S
C704 H720 0.931 . S
C705 C704 1.391 . S
C705 C709 1.376 . S
C706 C704 1.394 1_655 S
C706 C707 1.369 . S
C706 C710 1.531 . S
C707 C706 1.369 . S
C707 C708 1.410 . S
C707 C715 1.503 . S
C708 C707 1.410 . S
C708 C709 1.392 1_655 S
C708 C711 1.511 . S
C709 C705 1.376 . S
C709 C708 1.392 1_455 S
C709 H721 0.929 . S
C710 C706 1.531 . S
C710 H722 0.960 . S
C710 H723 0.962 . S
C710 H724 0.960 . S
C711 C708 1.511 . S
C711 H725 0.961 . S
C711 H726 0.961 . S
C711 H727 0.961 . S
C712 C713 1.370 . S
C712 C714 1.363 . S
C712 H728 0.931 . S
C713 C712 1.370 . S
C713 C717 1.408 . S
C714 C712 1.363 . S
C714 C715 1.370 . S
C714 C718 1.524 . S
C715 C707 1.503 . S
C715 C714 1.370 . S
C715 C716 1.403 . S
C716 C715 1.403 . S
C716 C717 1.404 . S
C716 C719 1.539 . S
C717 C713 1.408 . S
C717 C716 1.404 . S
C717 H729 0.930 . S
C718 C714 1.524 . S
C718 H730 0.956 . S
C718 H731 0.961 . S
C718 H732 0.961 . S
C719 C716 1.539 . S
C719 H733 0.958 . S
C719 H734 0.961 . S
C719 H735 0.960 . S
H720 C704 0.931 . S
H721 C709 0.929 . S
H722 C710 0.960 . S
H723 C710 0.962 . S
H724 C710 0.960 . S
H725 C711 0.961 . S
H726 C711 0.961 . S
H727 C711 0.961 . S
H728 C712 0.931 . S
H729 C717 0.930 . S
H730 C718 0.956 . S
H731 C718 0.961 . S
H732 C718 0.961 . S
H733 C719 0.958 . S
H734 C719 0.961 . S
H735 C719 0.960 . S
C736 C737 1.391 . S
C736 C738 1.394 . S
C736 H752 0.931 . S
C737 C736 1.391 . S
C737 C741 1.376 . S
C738 C736 1.394 . S
C738 C739 1.369 . S
C738 C742 1.531 . S
C739 C738 1.369 . S
C739 C740 1.410 . S
C739 C747 1.503 . S
C740 C739 1.410 . S
C740 C741 1.392 . S
C740 C743 1.511 . S
C741 C737 1.376 . S
C741 C740 1.392 . S
C741 H753 0.929 1_655 S
C742 C738 1.531 . S
C742 H754 0.960 . S
C742 H755 0.962 . S
C742 H756 0.960 . S
C743 C740 1.511 . S
C743 H757 0.961 . S
C743 H758 0.961 . S
C743 H759 0.961 . S
C744 C745 1.370 . S
C744 C746 1.363 1_565 S
C744 H760 0.931 . S
C745 C744 1.370 . S
C745 C749 1.408 . S
C746 C744 1.363 1_545 S
C746 C747 1.370 . S
C746 C750 1.524 . S
C747 C739 1.503 . S
C747 C746 1.370 . S
C747 C748 1.403 1_545 S
C748 C747 1.403 1_565 S
C748 C749 1.404 . S
C748 C751 1.539 1_565 S
C749 C745 1.408 . S
C749 C748 1.404 . S
C749 H761 0.930 . S
C750 C746 1.524 . S
C750 H762 0.956 . S
C750 H763 0.961 . S
C750 H764 0.961 . S
C751 C748 1.539 1_545 S
C751 H765 0.958 . S
C751 H766 0.961 1_545 S
C751 H767 0.960 . S
H752 C736 0.931 . S
H753 C741 0.929 1_455 S
H754 C742 0.960 . S
H755 C742 0.962 . S
H756 C742 0.960 . S
H757 C743 0.961 . S
H758 C743 0.961 . S
H759 C743 0.961 . S
H760 C744 0.931 . S
H761 C749 0.930 . S
H762 C750 0.956 . S
H763 C750 0.961 . S
H764 C750 0.961 . S
H765 C751 0.958 . S
H766 C751 0.961 1_565 S
H767 C751 0.960 . S
C193 N146 1.897 . S
C201 N13 1.869 . S
C225 N178 1.712 . S
C233 N45 1.727 . S
C257 N77 1.827 . S
C265 N114 1.870 . S
C289 N18 1.752 . S
C297 N141 1.744 . S
C321 N173 1.837 . S
C329 N50 1.854 . S
C353 N82 1.752 . S
C361 N109 1.744 . S
C385 C6 1.311 . S
C393 C93 1.303 . S
C417 C34 1.258 . S
C425 C29 1.318 . S
C449 C70 1.281 . S
C457 C36 1.307 . S
C481 C98 1.269 . S
C489 C132 1.315 . S
C513 C130 1.296 . S
C521 C189 1.303 . S
C545 C100 1.327 . S
C553 C166 1.276 . S
C577 C4 0.908 . S
C585 C66 0.853 1_455 S
C609 C61 0.870 . S
C617 C2 0.883 1_565 S
C641 C68 0.890 . S
C649 C38 0.860 . S
C673 C125 0.872 . S
C681 C134 0.870 1_545 S
C705 C157 0.854 . S
C713 C162 0.890 . S
C737 C102 0.839 1_655 S
C745 C164 0.891 . S
