# Generated by pormake.
# Topology ech, (8)-cn, num edge types: 1
# Building blocks:
#     Node 0, Type 0, BuildingBlock: EBIMEJ_clean_sbu_0, # of connection points: 8
#     Node 1, Type 0, BuildingBlock: EBIMEJ_clean_sbu_0, # of connection points: 8
#     Node 2, Type 0, BuildingBlock: EBIMEJ_clean_sbu_0, # of connection points: 8
#     Node 3, Type 0, BuildingBlock: EBIMEJ_clean_sbu_0, # of connection points: 8
#     Node 4, Type 0, BuildingBlock: EBIMEJ_clean_sbu_0, # of connection points: 8
#     Node 5, Type 0, BuildingBlock: EBIMEJ_clean_sbu_0, # of connection points: 8
#     Node 6, Type 0, BuildingBlock: EBIMEJ_clean_sbu_0, # of connection points: 8
#     Node 7, Type 0, BuildingBlock: EBIMEJ_clean_sbu_0, # of connection points: 8
#     Node 8, Type 0, BuildingBlock: EBIMEJ_clean_sbu_0, # of connection points: 8
#     Node 9, Type 0, BuildingBlock: EBIMEJ_clean_sbu_0, # of connection points: 8
#     Node 10, Type 0, BuildingBlock: EBIMEJ_clean_sbu_0, # of connection points: 8
#     Node 11, Type 0, BuildingBlock: EBIMEJ_clean_sbu_0, # of connection points: 8
#     Node 12, Type 0, BuildingBlock: EBIMEJ_clean_sbu_0, # of connection points: 8
#     Node 13, Type 0, BuildingBlock: EBIMEJ_clean_sbu_0, # of connection points: 8
#     Node 14, Type 0, BuildingBlock: EBIMEJ_clean_sbu_0, # of connection points: 8
#     Node 15, Type 0, BuildingBlock: EBIMEJ_clean_sbu_0, # of connection points: 8
#     Node 16, Type 0, BuildingBlock: EBIMEJ_clean_sbu_0, # of connection points: 8
#     Node 17, Type 0, BuildingBlock: EBIMEJ_clean_sbu_0, # of connection points: 8
#     Node 18, Type 0, BuildingBlock: EBIMEJ_clean_sbu_0, # of connection points: 8
#     Node 19, Type 0, BuildingBlock: EBIMEJ_clean_sbu_0, # of connection points: 8
#     Node 20, Type 0, BuildingBlock: EBIMEJ_clean_sbu_0, # of connection points: 8
#     Node 21, Type 0, BuildingBlock: EBIMEJ_clean_sbu_0, # of connection points: 8
#     Node 22, Type 0, BuildingBlock: EBIMEJ_clean_sbu_0, # of connection points: 8
#     Node 23, Type 0, BuildingBlock: EBIMEJ_clean_sbu_0, # of connection points: 8
#     Edge 24, Type (0, 0), BuildingBlock: KIFKEQ_clean_linker_1, # of connection points: 2
#     Edge 25, Type (0, 0), BuildingBlock: KIFKEQ_clean_linker_1, # of connection points: 2
#     Edge 26, Type (0, 0), BuildingBlock: KIFKEQ_clean_linker_1, # of connection points: 2
#     Edge 27, Type (0, 0), BuildingBlock: KIFKEQ_clean_linker_1, # of connection points: 2
#     Edge 28, Type (0, 0), BuildingBlock: KIFKEQ_clean_linker_1, # of connection points: 2
#     Edge 29, Type (0, 0), BuildingBlock: KIFKEQ_clean_linker_1, # of connection points: 2
#     Edge 30, Type (0, 0), BuildingBlock: KIFKEQ_clean_linker_1, # of connection points: 2
#     Edge 31, Type (0, 0), BuildingBlock: KIFKEQ_clean_linker_1, # of connection points: 2
#     Edge 32, Type (0, 0), BuildingBlock: KIFKEQ_clean_linker_1, # of connection points: 2
#     Edge 33, Type (0, 0), BuildingBlock: KIFKEQ_clean_linker_1, # of connection points: 2
#     Edge 34, Type (0, 0), BuildingBlock: KIFKEQ_clean_linker_1, # of connection points: 2
#     Edge 35, Type (0, 0), BuildingBlock: KIFKEQ_clean_linker_1, # of connection points: 2
#     Edge 36, Type (0, 0), BuildingBlock: KIFKEQ_clean_linker_1, # of connection points: 2
#     Edge 37, Type (0, 0), BuildingBlock: KIFKEQ_clean_linker_1, # of connection points: 2
#     Edge 38, Type (0, 0), BuildingBlock: KIFKEQ_clean_linker_1, # of connection points: 2
#     Edge 39, Type (0, 0), BuildingBlock: KIFKEQ_clean_linker_1, # of connection points: 2
#     Edge 40, Type (0, 0), BuildingBlock: KIFKEQ_clean_linker_1, # of connection points: 2
#     Edge 41, Type (0, 0), BuildingBlock: KIFKEQ_clean_linker_1, # of connection points: 2
#     Edge 42, Type (0, 0), BuildingBlock: KIFKEQ_clean_linker_1, # of connection points: 2
#     Edge 43, Type (0, 0), BuildingBlock: KIFKEQ_clean_linker_1, # of connection points: 2
#     Edge 44, Type (0, 0), BuildingBlock: KIFKEQ_clean_linker_1, # of connection points: 2
#     Edge 45, Type (0, 0), BuildingBlock: KIFKEQ_clean_linker_1, # of connection points: 2
#     Edge 46, Type (0, 0), BuildingBlock: KIFKEQ_clean_linker_1, # of connection points: 2
#     Edge 47, Type (0, 0), BuildingBlock: KIFKEQ_clean_linker_1, # of connection points: 2
#     Edge 48, Type (0, 0), BuildingBlock: KIFKEQ_clean_linker_1, # of connection points: 2
#     Edge 49, Type (0, 0), BuildingBlock: KIFKEQ_clean_linker_1, # of connection points: 2
#     Edge 50, Type (0, 0), BuildingBlock: KIFKEQ_clean_linker_1, # of connection points: 2
#     Edge 51, Type (0, 0), BuildingBlock: KIFKEQ_clean_linker_1, # of connection points: 2
#     Edge 52, Type (0, 0), BuildingBlock: KIFKEQ_clean_linker_1, # of connection points: 2
#     Edge 53, Type (0, 0), BuildingBlock: KIFKEQ_clean_linker_1, # of connection points: 2
#     Edge 54, Type (0, 0), BuildingBlock: KIFKEQ_clean_linker_1, # of connection points: 2
#     Edge 55, Type (0, 0), BuildingBlock: KIFKEQ_clean_linker_1, # of connection points: 2
#     Edge 56, Type (0, 0), BuildingBlock: KIFKEQ_clean_linker_1, # of connection points: 2
#     Edge 57, Type (0, 0), BuildingBlock: KIFKEQ_clean_linker_1, # of connection points: 2
#     Edge 58, Type (0, 0), BuildingBlock: KIFKEQ_clean_linker_1, # of connection points: 2
#     Edge 59, Type (0, 0), BuildingBlock: KIFKEQ_clean_linker_1, # of connection points: 2
#     Edge 60, Type (0, 0), BuildingBlock: KIFKEQ_clean_linker_1, # of connection points: 2
#     Edge 61, Type (0, 0), BuildingBlock: KIFKEQ_clean_linker_1, # of connection points: 2
#     Edge 62, Type (0, 0), BuildingBlock: KIFKEQ_clean_linker_1, # of connection points: 2
#     Edge 63, Type (0, 0), BuildingBlock: KIFKEQ_clean_linker_1, # of connection points: 2
#     Edge 64, Type (0, 0), BuildingBlock: KIFKEQ_clean_linker_1, # of connection points: 2
#     Edge 65, Type (0, 0), BuildingBlock: KIFKEQ_clean_linker_1, # of connection points: 2
#     Edge 66, Type (0, 0), BuildingBlock: KIFKEQ_clean_linker_1, # of connection points: 2
#     Edge 67, Type (0, 0), BuildingBlock: KIFKEQ_clean_linker_1, # of connection points: 2
#     Edge 68, Type (0, 0), BuildingBlock: KIFKEQ_clean_linker_1, # of connection points: 2
#     Edge 69, Type (0, 0), BuildingBlock: KIFKEQ_clean_linker_1, # of connection points: 2
#     Edge 70, Type (0, 0), BuildingBlock: KIFKEQ_clean_linker_1, # of connection points: 2
#     Edge 71, Type (0, 0), BuildingBlock: KIFKEQ_clean_linker_1, # of connection points: 2
#     Edge 72, Type (0, 0), BuildingBlock: KIFKEQ_clean_linker_1, # of connection points: 2
#     Edge 73, Type (0, 0), BuildingBlock: KIFKEQ_clean_linker_1, # of connection points: 2
#     Edge 74, Type (0, 0), BuildingBlock: KIFKEQ_clean_linker_1, # of connection points: 2
#     Edge 75, Type (0, 0), BuildingBlock: KIFKEQ_clean_linker_1, # of connection points: 2
#     Edge 76, Type (0, 0), BuildingBlock: KIFKEQ_clean_linker_1, # of connection points: 2
#     Edge 77, Type (0, 0), BuildingBlock: KIFKEQ_clean_linker_1, # of connection points: 2
#     Edge 78, Type (0, 0), BuildingBlock: KIFKEQ_clean_linker_1, # of connection points: 2
#     Edge 79, Type (0, 0), BuildingBlock: KIFKEQ_clean_linker_1, # of connection points: 2
#     Edge 80, Type (0, 0), BuildingBlock: KIFKEQ_clean_linker_1, # of connection points: 2
#     Edge 81, Type (0, 0), BuildingBlock: KIFKEQ_clean_linker_1, # of connection points: 2
#     Edge 82, Type (0, 0), BuildingBlock: KIFKEQ_clean_linker_1, # of connection points: 2
#     Edge 83, Type (0, 0), BuildingBlock: KIFKEQ_clean_linker_1, # of connection points: 2
#     Edge 84, Type (0, 0), BuildingBlock: KIFKEQ_clean_linker_1, # of connection points: 2
#     Edge 85, Type (0, 0), BuildingBlock: KIFKEQ_clean_linker_1, # of connection points: 2
#     Edge 86, Type (0, 0), BuildingBlock: KIFKEQ_clean_linker_1, # of connection points: 2
#     Edge 87, Type (0, 0), BuildingBlock: KIFKEQ_clean_linker_1, # of connection points: 2
#     Edge 88, Type (0, 0), BuildingBlock: KIFKEQ_clean_linker_1, # of connection points: 2
#     Edge 89, Type (0, 0), BuildingBlock: KIFKEQ_clean_linker_1, # of connection points: 2
#     Edge 90, Type (0, 0), BuildingBlock: KIFKEQ_clean_linker_1, # of connection points: 2
#     Edge 91, Type (0, 0), BuildingBlock: KIFKEQ_clean_linker_1, # of connection points: 2
#     Edge 92, Type (0, 0), BuildingBlock: KIFKEQ_clean_linker_1, # of connection points: 2
#     Edge 93, Type (0, 0), BuildingBlock: KIFKEQ_clean_linker_1, # of connection points: 2
#     Edge 94, Type (0, 0), BuildingBlock: KIFKEQ_clean_linker_1, # of connection points: 2
#     Edge 95, Type (0, 0), BuildingBlock: KIFKEQ_clean_linker_1, # of connection points: 2
#     Edge 96, Type (0, 0), BuildingBlock: KIFKEQ_clean_linker_1, # of connection points: 2
#     Edge 97, Type (0, 0), BuildingBlock: KIFKEQ_clean_linker_1, # of connection points: 2
#     Edge 98, Type (0, 0), BuildingBlock: KIFKEQ_clean_linker_1, # of connection points: 2
#     Edge 99, Type (0, 0), BuildingBlock: KIFKEQ_clean_linker_1, # of connection points: 2
#     Edge 100, Type (0, 0), BuildingBlock: KIFKEQ_clean_linker_1, # of connection points: 2
#     Edge 101, Type (0, 0), BuildingBlock: KIFKEQ_clean_linker_1, # of connection points: 2
#     Edge 102, Type (0, 0), BuildingBlock: KIFKEQ_clean_linker_1, # of connection points: 2
#     Edge 103, Type (0, 0), BuildingBlock: KIFKEQ_clean_linker_1, # of connection points: 2
#     Edge 104, Type (0, 0), BuildingBlock: KIFKEQ_clean_linker_1, # of connection points: 2
#     Edge 105, Type (0, 0), BuildingBlock: KIFKEQ_clean_linker_1, # of connection points: 2
#     Edge 106, Type (0, 0), BuildingBlock: KIFKEQ_clean_linker_1, # of connection points: 2
#     Edge 107, Type (0, 0), BuildingBlock: KIFKEQ_clean_linker_1, # of connection points: 2
#     Edge 108, Type (0, 0), BuildingBlock: KIFKEQ_clean_linker_1, # of connection points: 2
#     Edge 109, Type (0, 0), BuildingBlock: KIFKEQ_clean_linker_1, # of connection points: 2
#     Edge 110, Type (0, 0), BuildingBlock: KIFKEQ_clean_linker_1, # of connection points: 2
#     Edge 111, Type (0, 0), BuildingBlock: KIFKEQ_clean_linker_1, # of connection points: 2
#     Edge 112, Type (0, 0), BuildingBlock: KIFKEQ_clean_linker_1, # of connection points: 2
#     Edge 113, Type (0, 0), BuildingBlock: KIFKEQ_clean_linker_1, # of connection points: 2
#     Edge 114, Type (0, 0), BuildingBlock: KIFKEQ_clean_linker_1, # of connection points: 2
#     Edge 115, Type (0, 0), BuildingBlock: KIFKEQ_clean_linker_1, # of connection points: 2
#     Edge 116, Type (0, 0), BuildingBlock: KIFKEQ_clean_linker_1, # of connection points: 2
#     Edge 117, Type (0, 0), BuildingBlock: KIFKEQ_clean_linker_1, # of connection points: 2
#     Edge 118, Type (0, 0), BuildingBlock: KIFKEQ_clean_linker_1, # of connection points: 2
#     Edge 119, Type (0, 0), BuildingBlock: KIFKEQ_clean_linker_1, # of connection points: 2
# Relax obj value: 0.216
# Max RMSD: 0.238
# Mean RMSD: 0.238
data_MOF--net-ech--node1-EBIMEJ_clean_sbu_0--edge1-KIFKEQ_clean_linker_1
_symmetry_space_group_name_H-M    P1
_symmetry_Int_Tables_number       1
_symmetry_cell_setting            triclinic
loop_
_symmetry_equiv_pos_as_xyz
'x, y, z'
_cell_length_a     50.12058
_cell_length_b     50.038806
_cell_length_c     50.097227
_cell_angle_alpha  89.986646
_cell_angle_beta   90.040958
_cell_angle_gamma 89.993972
loop_
_atom_site_label
_atom_site_type_symbol
_atom_site_fract_x
_atom_site_fract_y
_atom_site_fract_z
_atom_type_partial_charge
Co0 Co 0.17547 0.27285 0.42646 0.0
Co1 Co 0.14292 0.29814 0.48062 0.0
Co2 Co 0.13967 0.32551 0.42746 0.0
H3 H 0.1588 0.30121 0.43441 0.0
O4 O 0.16654 0.30407 0.44953 0.0
H5 H 0.12141 0.3188 0.47084 0.0
O6 O 0.11488 0.3146 0.45551 0.0
Co7 Co 0.10171 0.34582 0.47471 0.0
O8 O 0.09656 0.33347 0.51245 0.0
O9 O 0.11847 0.29417 0.51289 0.0
O10 O 0.11193 0.37609 0.45007 0.0
O11 O 0.11492 0.35282 0.41235 0.0
O12 O 0.19317 0.25355 0.39449 0.0
O13 O 0.21412 0.25851 0.42979 0.0
O14 O 0.13307 0.36605 0.48872 0.0
O15 O 0.15986 0.33134 0.49747 0.0
C16 C 0.17952 0.31914 0.38517 0.0
C17 C 0.18314 0.25635 0.48756 0.0
C18 C 0.05274 0.35082 0.46903 0.0
C19 C 0.1222 0.27278 0.40129 0.0
C20 C 0.10285 0.31154 0.52368 0.0
C21 C 0.11182 0.37495 0.42464 0.0
C22 C 0.21496 0.24974 0.40629 0.0
C23 C 0.15452 0.35647 0.49829 0.0
O24 O 0.18344 0.2946 0.39172 0.0
O25 O 0.16537 0.33481 0.39934 0.0
O26 O 0.17058 0.27604 0.49812 0.0
O27 O 0.18389 0.25204 0.46206 0.0
O28 O 0.06522 0.35697 0.48988 0.0
O29 O 0.06805 0.34178 0.45141 0.0
O30 O 0.13993 0.25852 0.41276 0.0
O31 O 0.12221 0.29826 0.40333 0.0
Co32 Co 0.35446 0.75886 0.92672 0.0
Co33 Co 0.38877 0.73475 0.98094 0.0
Co34 Co 0.39211 0.70719 0.92789 0.0
H35 H 0.37243 0.73118 0.93477 0.0
O36 O 0.365 0.7283 0.95004 0.0
H37 H 0.41009 0.71386 0.97142 0.0
O38 O 0.4167 0.71798 0.95614 0.0
Co39 Co 0.42956 0.68675 0.97554 0.0
O40 O 0.43435 0.69924 1.01332 0.0
O41 O 0.41331 0.73901 1.01307 0.0
O42 O 0.41961 0.65674 0.95051 0.0
O43 O 0.4172 0.68021 0.91285 0.0
O44 O 0.33345 0.79249 0.91413 0.0
O45 O 0.3163 0.75492 0.91181 0.0
O46 O 0.39792 0.66682 0.98927 0.0
O47 O 0.37174 0.70189 0.99825 0.0
C48 C 0.35272 0.71335 0.88481 0.0
C49 C 0.34758 0.77594 0.98789 0.0
C50 C 0.47844 0.68114 0.97021 0.0
C51 C 0.40809 0.76027 0.9012 0.0
C52 C 0.42845 0.72144 0.02423 0.0
C53 C 0.42009 0.65801 0.9251 0.0
C54 C 0.31318 0.77936 0.90717 0.0
C55 C 0.37669 0.67669 0.99897 0.0
O56 O 0.34818 0.73774 0.89141 0.0
O57 O 0.36682 0.69786 0.89924 0.0
O58 O 0.36143 0.75709 0.99832 0.0
O59 O 0.34541 0.7794 0.96232 0.0
O60 O 0.46541 0.67298 0.99 0.0
O61 O 0.46373 0.69255 0.95345 0.0
O62 O 0.38882 0.77385 0.9109 0.0
O63 O 0.40981 0.73502 0.90476 0.0
Co64 Co 0.67632 0.25926 0.60482 0.0
Co65 Co 0.64248 0.23451 0.5505 0.0
Co66 Co 0.6392 0.20717 0.60374 0.0
H67 H 0.6587 0.23132 0.59679 0.0
O68 O 0.66622 0.22844 0.58157 0.0
H69 H 0.62145 0.21322 0.56005 0.0
O70 O 0.61465 0.21745 0.57523 0.0
Co71 Co 0.6026 0.18557 0.55633 0.0
O72 O 0.59607 0.19907 0.51914 0.0
O73 O 0.61795 0.2384 0.51836 0.0
O74 O 0.61331 0.15606 0.58162 0.0
O75 O 0.61425 0.18007 0.61891 0.0
O76 O 0.69416 0.27786 0.63711 0.0
O77 O 0.71467 0.27445 0.6014 0.0
O78 O 0.63406 0.16649 0.54126 0.0
O79 O 0.66005 0.20192 0.53321 0.0
C80 C 0.67916 0.21352 0.64649 0.0
C81 C 0.68365 0.27585 0.54346 0.0
C82 C 0.55501 0.17494 0.56447 0.0
C83 C 0.62264 0.26021 0.6302 0.0
C84 C 0.60212 0.22106 0.50785 0.0
C85 C 0.61186 0.15765 0.60697 0.0
C86 C 0.71571 0.28247 0.62517 0.0
C87 C 0.65525 0.17673 0.53189 0.0
O88 O 0.6839 0.23781 0.63967 0.0
O89 O 0.66447 0.19819 0.63251 0.0
O90 O 0.66957 0.25716 0.53307 0.0
O91 O 0.68594 0.27925 0.56902 0.0
O92 O 0.57227 0.15811 0.55761 0.0
O93 O 0.56468 0.198 0.56642 0.0
O94 O 0.64181 0.27392 0.62052 0.0
O95 O 0.62112 0.23494 0.62667 0.0
Co96 Co 0.85477 0.77343 0.10511 0.0
Co97 Co 0.8889 0.79826 0.05112 0.0
Co98 Co 0.89123 0.82569 0.10431 0.0
H99 H 0.8721 0.80145 0.09712 0.0
O100 O 0.86472 0.80419 0.0818 0.0
H101 H 0.90978 0.81954 0.06103 0.0
O102 O 0.91635 0.81534 0.07634 0.0
Co103 Co 0.92852 0.84728 0.05755 0.0
O104 O 0.93589 0.83372 0.02054 0.0
O105 O 0.91383 0.79452 0.01923 0.0
O106 O 0.9172 0.87685 0.08258 0.0
O107 O 0.91574 0.8529 0.1199 0.0
O108 O 0.83393 0.73948 0.11721 0.0
O109 O 0.81698 0.77701 0.12092 0.0
O110 O 0.89698 0.86638 0.0427 0.0
O111 O 0.87142 0.83088 0.03365 0.0
C112 C 0.85166 0.81915 0.14685 0.0
C113 C 0.84796 0.75673 0.04375 0.0
C114 C 0.97604 0.85798 0.06567 0.0
C115 C 0.90806 0.77274 0.13059 0.0
C116 C 0.92993 0.81182 1.00906 0.0
C117 C 0.91803 0.87531 0.10797 0.0
C118 C 0.81385 0.75247 0.1249 0.0
C119 C 0.87603 0.85614 0.03282 0.0
O120 O 0.848 0.7945 0.14056 0.0
O121 O 0.86524 0.83485 0.1322 0.0
O122 O 0.86205 0.77547 0.03342 0.0
O123 O 0.84558 0.75329 0.06931 0.0
O124 O 0.95807 0.87513 0.0624 0.0
O125 O 0.96714 0.8346 0.06393 0.0
O126 O 0.89003 0.75868 0.1193 0.0
O127 O 0.90853 0.79819 0.12829 0.0
Co128 Co 0.42617 0.17741 0.27399 0.0
Co129 Co 0.48038 0.14306 0.29773 0.0
Co130 Co 0.42753 0.1396 0.32556 0.0
H131 H 0.43426 0.15935 0.30158 0.0
O132 O 0.44953 0.16678 0.30443 0.0
H133 H 0.47084 0.12127 0.3182 0.0
O134 O 0.45545 0.11488 0.31409 0.0
Co135 Co 0.47494 0.10103 0.34478 0.0
O136 O 0.51246 0.0959 0.33195 0.0
O137 O 0.51273 0.11884 0.29328 0.0
O138 O 0.45058 0.11068 0.37535 0.0
O139 O 0.4126 0.11441 0.35264 0.0
O140 O 0.41546 0.19878 0.23994 0.0
O141 O 0.40922 0.21474 0.27755 0.0
O142 O 0.48906 0.13226 0.3652 0.0
O143 O 0.49747 0.15961 0.33087 0.0
C144 C 0.38491 0.17956 0.32016 0.0
C145 C 0.4873 0.18461 0.25699 0.0
C146 C 0.46923 0.05207 0.34987 0.0
C147 C 0.40039 0.12387 0.27271 0.0
C148 C 0.5236 0.10279 0.3102 0.0
C149 C 0.42516 0.1107 0.37455 0.0
C150 C 0.40652 0.21836 0.25293 0.0
C151 C 0.49846 0.15391 0.35586 0.0
O152 O 0.39123 0.18405 0.29569 0.0
O153 O 0.39935 0.16518 0.33539 0.0
O154 O 0.49773 0.17079 0.27585 0.0
O155 O 0.46174 0.18663 0.25346 0.0
O156 O 0.49004 0.06456 0.35615 0.0
O157 O 0.4517 0.06735 0.34059 0.0
O158 O 0.41042 0.14296 0.25909 0.0
O159 O 0.4038 0.12227 0.29797 0.0
Co160 Co 0.10438 0.85615 0.77295 0.0
Co161 Co 0.0506 0.88982 0.79763 0.0
Co162 Co 0.10404 0.89349 0.82474 0.0
H163 H 0.09676 0.87369 0.80099 0.0
O164 O 0.08161 0.86613 0.8041 0.0
H165 H 0.0604 0.91154 0.81799 0.0
O166 O 0.07571 0.91806 0.8137 0.0
Co167 Co 0.05639 0.93159 0.84467 0.0
O168 O 0.01841 0.93576 0.83268 0.0
O169 O 0.01839 0.91429 0.79324 0.0
O170 O 0.08333 0.9279 0.87426 0.0
O171 O 0.12018 0.91925 0.8507 0.0
O172 O 0.13492 0.83918 0.75081 0.0
O173 O 0.10232 0.81633 0.7619 0.0
O174 O 0.04239 0.90041 0.86507 0.0
O175 O 0.03367 0.87309 0.83089 0.0
C176 C 0.14608 0.85302 0.81888 0.0
C177 C 0.04311 0.84835 0.75687 0.0
C178 C 0.06194 0.97994 0.85317 0.0
C179 C 0.12979 0.90944 0.77129 0.0
C180 C 1.0073 0.92957 0.81069 0.0
C181 C 0.10863 0.92763 0.87185 0.0
C182 C 0.12447 0.81636 0.75015 0.0
C183 C 0.03288 0.87877 0.85589 0.0
O184 O 0.13913 0.84831 0.79462 0.0
O185 O 0.13233 0.86793 0.83422 0.0
O186 O 0.03292 0.86214 0.77586 0.0
O187 O 0.06862 0.84646 0.753 0.0
O188 O 0.05007 0.96411 0.86856 0.0
O189 O 0.07051 0.96835 0.83266 0.0
O190 O 0.11839 0.89125 0.75754 0.0
O191 O 0.12766 0.9102 0.7967 0.0
Co192 Co 0.92608 0.35629 0.75879 0.0
Co193 Co 0.981 0.38863 0.734 0.0
Co194 Co 0.9278 0.39364 0.70696 0.0
H195 H 0.93432 0.3738 0.73093 0.0
O196 O 0.94928 0.36585 0.72786 0.0
H197 H 0.97171 0.41068 0.71367 0.0
O198 O 0.9566 0.41754 0.71804 0.0
Co199 Co 0.97583 0.43071 0.68693 0.0
O200 O 1.01353 0.4353 0.69951 0.0
O201 O 1.01407 0.41201 0.73799 0.0
O202 O 0.95091 0.42138 0.6567 0.0
O203 O 0.91324 0.4192 0.68001 0.0
O204 O 0.89372 0.33864 0.7774 0.0
O205 O 0.9293 0.31788 0.77396 0.0
O206 O 0.98996 0.39955 0.66647 0.0
O207 O 0.99726 0.37167 0.70064 0.0
C208 C 0.88507 0.35349 0.71227 0.0
C209 C 0.98716 0.3478 0.77524 0.0
C210 C 0.97019 0.47957 0.68103 0.0
C211 C 0.90088 0.41007 0.75981 0.0
C212 C 0.02492 0.42806 0.72104 0.0
C213 C 0.92553 0.42232 0.65789 0.0
C214 C 0.90555 0.31699 0.78199 0.0
C215 C 0.99871 0.37759 0.67572 0.0
O216 O 0.89178 0.34835 0.73651 0.0
O217 O 0.89888 0.3688 0.69739 0.0
O218 O 0.99785 0.36026 0.7556 0.0
O219 O 0.96165 0.34739 0.77956 0.0
O220 O 0.98967 0.46645 0.6723 0.0
O221 O 0.95392 0.46497 0.69325 0.0
O222 O 0.91036 0.39077 0.77351 0.0
O223 O 0.90469 0.4117 0.73462 0.0
Co224 Co 0.60494 0.6772 0.25877 0.0
Co225 Co 0.55066 0.64356 0.23418 0.0
Co226 Co 0.60395 0.6394 0.20727 0.0
H227 H 0.59703 0.65925 0.23108 0.0
O228 O 0.58191 0.66689 0.22797 0.0
H229 H 0.56017 0.62192 0.21343 0.0
O230 O 0.5753 0.61515 0.2179 0.0
Co231 Co 0.55663 0.6023 0.18625 0.0
O232 O 0.52003 0.59489 0.20071 0.0
O233 O 0.51814 0.61965 0.23821 0.0
O234 O 0.58172 0.6132 0.15668 0.0
O235 O 0.61903 0.61403 0.18055 0.0
O236 O 0.61634 0.69856 0.29254 0.0
O237 O 0.62035 0.71514 0.25485 0.0
O238 O 0.54104 0.63326 0.16662 0.0
O239 O 0.53382 0.66067 0.20115 0.0
C240 C 0.64708 0.67876 0.21345 0.0
C241 C 0.54378 0.68474 0.2754 0.0
C242 C 0.56494 0.55485 0.17502 0.0
C243 C 0.63055 0.62349 0.26044 0.0
C244 C 0.50826 0.60235 0.22196 0.0
C245 C 0.60706 0.61176 0.15817 0.0
C246 C 0.62401 0.71857 0.27938 0.0
C247 C 0.53211 0.65497 0.1762 0.0
O248 O 0.64029 0.68357 0.23772 0.0
O249 O 0.63283 0.66442 0.19805 0.0
O250 O 0.53342 0.67128 0.25623 0.0
O251 O 0.56932 0.68642 0.27922 0.0
O252 O 0.55997 0.57274 0.15818 0.0
O253 O 0.56482 0.56377 0.19844 0.0
O254 O 0.62106 0.64296 0.27391 0.0
O255 O 0.62675 0.62157 0.23527 0.0
Co256 Co 0.27338 0.42737 0.17689 0.0
Co257 Co 0.29724 0.48202 0.14317 0.0
Co258 Co 0.32505 0.42908 0.13922 0.0
H259 H 0.30102 0.43565 0.15898 0.0
O260 O 0.30386 0.45085 0.16658 0.0
H261 H 0.31844 0.473 0.12184 0.0
O262 O 0.3144 0.45777 0.11499 0.0
Co263 Co 0.34558 0.47762 0.1025 0.0
O264 O 0.3312 0.51442 0.09595 0.0
O265 O 0.29263 0.51452 0.11901 0.0
O266 O 0.37522 0.45227 0.11311 0.0
O267 O 0.35202 0.41445 0.11394 0.0
O268 O 0.23974 0.41551 0.19822 0.0
O269 O 0.27746 0.41123 0.21456 0.0
O270 O 0.3616 0.50204 0.12963 0.0
O271 O 0.32971 0.49937 0.16077 0.0
C272 C 0.31901 0.38555 0.17827 0.0
C273 C 0.25579 0.48834 0.18423 0.0
C274 C 0.35723 0.46684 0.05574 0.0
C275 C 0.27214 0.40213 0.12303 0.0
C276 C 0.30929 0.52535 0.10267 0.0
C277 C 0.37412 0.42687 0.11129 0.0
C278 C 0.25296 0.40746 0.21803 0.0
C279 C 0.35268 0.50736 0.15274 0.0
O280 O 0.29467 0.39211 0.18294 0.0
O281 O 0.33438 0.40007 0.16416 0.0
O282 O 0.27467 0.49892 0.17059 0.0
O283 O 0.25242 0.46272 0.18617 0.0
O284 O 0.3736 0.47507 0.07285 0.0
O285 O 0.33412 0.46474 0.06515 0.0
O286 O 0.25858 0.41147 0.14249 0.0
O287 O 0.29729 0.40609 0.12116 0.0
Co288 Co 0.77296 0.10566 0.85514 0.0
Co289 Co 0.79706 0.05144 0.88893 0.0
Co290 Co 0.82455 0.10463 0.89268 0.0
H291 H 0.80078 0.09762 0.87284 0.0
O292 O 0.80374 0.08242 0.8653 0.0
H293 H 0.81786 0.06093 0.91044 0.0
O294 O 0.81365 0.0762 0.91712 0.0
Co295 Co 0.84493 0.05677 0.92998 0.0
O296 O 0.83261 0.01872 0.93378 0.0
O297 O 0.79261 0.01926 0.91336 0.0
O298 O 0.87451 0.08384 0.92618 0.0
O299 O 0.85045 0.12059 0.91847 0.0
O300 O 0.73925 0.11766 0.83393 0.0
O301 O 0.7769 0.12173 0.81746 0.0
O302 O 0.86473 0.04314 0.89824 0.0
O303 O 0.82987 0.03403 0.87192 0.0
C304 C 0.81884 0.14737 0.85296 0.0
C305 C 0.75591 0.04457 0.84761 0.0
C306 C 0.8542 0.06199 0.97823 0.0
C307 C 0.77124 0.13091 0.90852 0.0
C308 C 0.81036 1.00786 0.92808 0.0
C309 C 0.8719 0.10918 0.92626 0.0
C310 C 0.75241 0.12557 0.81404 0.0
C311 C 0.85501 0.03338 0.87696 0.0
O312 O 0.7944 0.14089 0.84854 0.0
O313 O 0.83418 0.13299 0.86726 0.0
O314 O 0.7748 0.03411 0.86139 0.0
O315 O 0.75236 0.07017 0.8457 0.0
O316 O 0.86933 0.05019 0.96211 0.0
O317 O 0.83355 0.07067 0.96699 0.0
O318 O 0.75747 0.11999 0.89006 0.0
O319 O 0.79659 0.12825 0.90952 0.0
Co320 Co 0.75779 0.92706 0.3554 0.0
Co321 Co 0.73419 0.98163 0.38885 0.0
Co322 Co 0.70628 0.92871 0.39336 0.0
H323 H 0.73009 0.93528 0.37329 0.0
O324 O 0.72712 0.95043 0.36562 0.0
H325 H 0.7136 0.97261 0.41073 0.0
O326 O 0.71762 0.95728 0.41739 0.0
Co327 Co 0.68732 0.9776 0.43115 0.0
O328 O 0.70012 1.01535 0.43475 0.0
O329 O 0.73929 1.01416 0.41286 0.0
O330 O 0.65716 0.95116 0.42649 0.0
O331 O 0.68009 0.91358 0.41935 0.0
O332 O 0.77655 0.89463 0.33792 0.0
O333 O 0.77249 0.93002 0.31684 0.0
O334 O 0.66924 0.99933 0.403 0.0
O335 O 0.70133 0.99896 0.37195 0.0
C336 C 0.71145 0.88596 0.35324 0.0
C337 C 0.77479 0.98807 0.34699 0.0
C338 C 0.68085 0.97141 0.47972 0.0
C339 C 0.75935 0.90171 0.40909 0.0
C340 C 0.72226 0.02586 0.42816 0.0
C341 C 0.65888 0.92573 0.42671 0.0
C342 C 0.78077 0.9063 0.31613 0.0
C343 C 0.67789 1.00547 0.37998 0.0
O344 O 0.73559 0.89273 0.34797 0.0
O345 O 0.69653 0.89982 0.36846 0.0
O346 O 0.75617 0.99864 0.36095 0.0
O347 O 0.7782 0.96245 0.34516 0.0
O348 O 0.67073 0.99008 0.46637 0.0
O349 O 0.69464 0.95609 0.46546 0.0
O350 O 0.77289 0.91124 0.38972 0.0
O351 O 0.7342 0.90554 0.4109 0.0
Co352 Co 0.25848 0.60588 0.67639 0.0
Co353 Co 0.23431 0.55183 0.6424 0.0
Co354 Co 0.20671 0.60499 0.63918 0.0
H355 H 0.2306 0.59789 0.65882 0.0
O356 O 0.2277 0.58263 0.66627 0.0
H357 H 0.21339 0.56143 0.62095 0.0
O358 O 0.21756 0.5768 0.61446 0.0
Co359 Co 0.18651 0.55722 0.60109 0.0
O360 O 0.19989 0.51989 0.59539 0.0
O361 O 0.23885 0.51966 0.61776 0.0
O362 O 0.15678 0.58391 0.60698 0.0
O363 O 0.18063 0.62093 0.61369 0.0
O364 O 0.29232 0.61812 0.69724 0.0
O365 O 0.25483 0.62153 0.71425 0.0
O366 O 0.16943 0.53385 0.62849 0.0
O367 O 0.20162 0.53424 0.65945 0.0
C368 C 0.21239 0.64734 0.6793 0.0
C369 C 0.2755 0.54473 0.68374 0.0
C370 C 0.17606 0.56591 0.55364 0.0
C371 C 0.25991 0.6314 0.62313 0.0
C372 C 0.22182 0.50883 0.60179 0.0
C373 C 0.1591 0.60928 0.60658 0.0
C374 C 0.27932 0.62565 0.71737 0.0
C375 C 0.17828 0.52739 0.65135 0.0
O376 O 0.23695 0.64103 0.68335 0.0
O377 O 0.19706 0.63302 0.66494 0.0
O378 O 0.25671 0.53435 0.66978 0.0
O379 O 0.279 0.57032 0.68585 0.0
O380 O 0.16134 0.55288 0.56919 0.0
O381 O 0.19679 0.57417 0.56506 0.0
O382 O 0.27377 0.62022 0.64138 0.0
O383 O 0.23452 0.62892 0.62235 0.0
Co384 Co 0.93211 0.68961 0.55603 0.0
Co385 Co 0.89282 0.70719 0.60418 0.0
Co386 Co 0.8882 0.73505 0.55126 0.0
H387 H 0.91064 0.71517 0.56059 0.0
O388 O 0.91692 0.71933 0.57601 0.0
H389 H 0.87247 0.73077 0.59748 0.0
O390 O 0.86496 0.72765 0.58231 0.0
Co391 Co 0.85408 0.75822 0.60548 0.0
O392 O 0.84774 0.73623 0.6402 0.0
O393 O 0.86781 0.69693 0.63276 0.0
O394 O 0.84451 0.77895 0.57008 0.0
O395 O 0.85985 0.7563 0.53409 0.0
O396 O 0.9686 0.67726 0.54229 0.0
O397 O 0.96538 0.69545 0.57948 0.0
O398 O 0.88809 0.77378 0.62166 0.0
O399 O 0.90967 0.73527 0.62763 0.0
C400 C 0.92875 0.72434 0.50762 0.0
C401 C 0.92616 0.65991 0.60686 0.0
C402 C 0.81292 0.77889 0.62508 0.0
C403 C 0.88133 0.67826 0.52792 0.0
C404 C 0.85293 0.71198 0.64687 0.0
C405 C 0.84617 0.77526 0.54452 0.0
C406 C 0.98081 0.68503 0.56274 0.0
C407 C 0.90753 0.76045 0.63139 0.0
O408 O 0.93662 0.70285 0.51864 0.0
O409 O 0.91201 0.74046 0.51865 0.0
O410 O 0.919 0.68107 0.61929 0.0
O411 O 0.92628 0.6588 0.58143 0.0
O412 O 0.83287 0.79202 0.61728 0.0
O413 O 0.81628 0.75434 0.62127 0.0
O414 O 0.90449 0.67041 0.53466 0.0
O415 O 0.87245 0.70156 0.53401 0.0
Co416 Co 0.60117 0.34354 0.05428 0.0
Co417 Co 0.63821 0.32425 0.10371 0.0
Co418 Co 0.64463 0.29731 0.05046 0.0
H419 H 0.62204 0.31743 0.05918 0.0
O420 O 0.61509 0.31299 0.07425 0.0
H421 H 0.65861 0.30065 0.09731 0.0
O422 O 0.66673 0.30403 0.08252 0.0
Co423 Co 0.67637 0.27282 0.10545 0.0
O424 O 0.68412 0.29531 0.13959 0.0
O425 O 0.66231 0.3339 0.13334 0.0
O426 O 0.68521 0.25144 0.07023 0.0
O427 O 0.67355 0.27607 0.03411 0.0
O428 O 0.56915 0.3684 0.0492 0.0
O429 O 0.56477 0.33281 0.07022 0.0
O430 O 0.64228 0.25741 0.12136 0.0
O431 O 0.62044 0.29592 0.12614 0.0
C432 C 0.60502 0.30844 1.00593 0.0
C433 C 0.6044 0.37129 0.10645 0.0
C434 C 0.71599 0.25008 0.1258 0.0
C435 C 0.65234 0.35344 0.02638 0.0
C436 C 0.67818 0.31923 0.1468 0.0
C437 C 0.68544 0.25606 0.04477 0.0
C438 C 0.55338 0.3535 0.06174 0.0
C439 C 0.62257 0.27082 0.13036 0.0
O440 O 0.59672 0.32969 0.01707 0.0
O441 O 0.62194 0.29247 0.01695 0.0
O442 O 0.61161 0.34999 0.11854 0.0
O443 O 0.60542 0.37341 0.08111 0.0
O444 O 0.69421 0.25394 0.13759 0.0
O445 O 0.71506 0.25858 0.10219 0.0
O446 O 0.62866 0.36109 0.03125 0.0
O447 O 0.66135 0.33078 0.03431 0.0
Co448 Co 0.43097 0.84431 0.47705 0.0
Co449 Co 0.3931 0.82537 0.42813 0.0
Co450 Co 0.38751 0.79812 0.48129 0.0
H451 H 0.40994 0.81832 0.4723 0.0
O452 O 0.41664 0.81396 0.45711 0.0
H453 H 0.37268 0.80185 0.43476 0.0
O454 O 0.36484 0.80516 0.44973 0.0
Co455 Co 0.35464 0.77419 0.42669 0.0
O456 O 0.34821 0.796 0.39181 0.0
O457 O 0.36864 0.83517 0.39891 0.0
O458 O 0.34607 0.75262 0.46185 0.0
O459 O 0.35886 0.77667 0.498 0.0
O460 O 0.46659 0.85963 0.49027 0.0
O461 O 0.46509 0.83773 0.45503 0.0
O462 O 0.38863 0.7585 0.41072 0.0
O463 O 0.41048 0.79695 0.40547 0.0
C464 C 0.42686 0.80969 0.52561 0.0
C465 C 0.42737 0.87227 0.42472 0.0
C466 C 0.31343 0.75379 0.40687 0.0
C467 C 0.37972 0.85479 0.50466 0.0
C468 C 0.35363 0.82014 0.3849 0.0
C469 C 0.34643 0.75696 0.48736 0.0
C470 C 0.47966 0.85044 0.47098 0.0
C471 C 0.40829 0.77181 0.40146 0.0
O472 O 0.43417 0.8315 0.51481 0.0
O473 O 0.41104 0.79294 0.51413 0.0
O474 O 0.41956 0.85102 0.41291 0.0
O475 O 0.42752 0.8743 0.45011 0.0
O476 O 0.33338 0.74055 0.41454 0.0
O477 O 0.31681 0.77829 0.41096 0.0
O478 O 0.40298 0.86287 0.49861 0.0
O479 O 0.37113 0.83151 0.49812 0.0
Co480 Co 0.09921 0.19043 0.97446 0.0
Co481 Co 0.13897 0.20884 0.92713 0.0
Co482 Co 0.14255 0.2363 0.98019 0.0
H483 H 0.12035 0.21635 0.97036 0.0
O484 O 0.11423 0.2206 0.95489 0.0
H485 H 0.1586 0.23277 0.93408 0.0
O486 O 0.16617 0.22974 0.94925 0.0
Co487 Co 0.17597 0.26075 0.92624 0.0
O488 O 0.18359 0.23872 0.89167 0.0
O489 O 0.16466 0.19887 0.8992 0.0
O490 O 0.18601 0.28052 0.96203 0.0
O491 O 0.17052 0.25763 0.99784 0.0
O492 O 0.06265 0.17904 0.98879 0.0
O493 O 0.06612 0.19415 0.95028 0.0
O494 O 0.14074 0.27571 0.91214 0.0
O495 O 0.12237 0.23629 0.90273 0.0
C496 C 0.10139 0.22483 0.02319 0.0
C497 C 0.10944 0.1604 0.92461 0.0
C498 C 0.21539 0.28383 0.90599 0.0
C499 C 0.1497 0.17926 1.00303 0.0
C500 C 0.17919 0.21427 0.8851 0.0
C501 C 0.18433 0.27658 0.98756 0.0
C502 C 0.05057 0.18508 0.96769 0.0
C503 C 0.12283 0.26173 0.90059 0.0
O504 O 0.09344 0.20363 1.0117 0.0
O505 O 0.11849 0.24094 1.0127 0.0
O506 O 0.11367 0.18216 0.912 0.0
O507 O 0.10899 0.15974 0.95006 0.0
O508 O 0.19331 0.28074 0.8945 0.0
O509 O 0.21486 0.27437 0.92923 0.0
O510 O 0.12664 0.17131 0.9961 0.0
O511 O 0.15851 0.20265 0.9971 0.0
Co512 Co 0.55432 0.92936 0.68573 0.0
Co513 Co 0.60281 0.8935 0.70668 0.0
Co514 Co 0.54966 0.88911 0.73416 0.0
H515 H 0.55878 0.9104 0.71309 0.0
O516 O 0.57388 0.91747 0.71722 0.0
H517 H 0.59607 0.87355 0.73057 0.0
O518 O 0.58096 0.86582 0.72758 0.0
Co519 Co 0.60415 0.85579 0.75843 0.0
O520 O 0.63865 0.84804 0.7366 0.0
O521 O 0.63201 0.86872 0.69751 0.0
O522 O 0.56873 0.84588 0.77883 0.0
O523 O 0.53266 0.86162 0.75658 0.0
O524 O 0.55151 0.9609 0.65987 0.0
O525 O 0.5667 0.96659 0.69812 0.0
O526 O 0.62026 0.89004 0.77337 0.0
O527 O 0.62548 0.91156 0.73474 0.0
C528 C 0.50602 0.92835 0.72107 0.0
C529 C 0.60585 0.92477 0.65828 0.0
C530 C 0.62427 0.81651 0.78195 0.0
C531 C 0.53067 0.87643 0.67652 0.0
C532 C 0.64569 0.85341 0.71254 0.0
C533 C 0.54316 0.84779 0.77536 0.0
C534 C 0.5612 0.97733 0.67614 0.0
C535 C 0.62953 0.90959 0.75987 0.0
O536 O 0.51671 0.93412 0.69876 0.0
O537 O 0.51735 0.91332 0.7386 0.0
O538 O 0.61784 0.91931 0.68017 0.0
O539 O 0.58062 0.92259 0.65609 0.0
O540 O 0.63601 0.83834 0.77808 0.0
O541 O 0.60083 0.81718 0.77299 0.0
O542 O 0.5398 0.89778 0.66635 0.0
O543 O 0.53218 0.87156 0.70166 0.0
Co544 Co 0.97755 0.10351 0.18675 0.0
Co545 Co 0.92875 0.13971 0.20701 0.0
Co546 Co 0.98172 0.14511 0.23437 0.0
H547 H 0.97288 0.1232 0.21366 0.0
O548 O 0.95784 0.1161 0.21791 0.0
H549 H 0.93504 0.15953 0.23104 0.0
O550 O 0.94991 0.16766 0.22802 0.0
Co551 Co 0.92659 0.17673 0.25899 0.0
O552 O 0.89227 0.18449 0.23675 0.0
O553 O 0.89953 0.16428 0.19755 0.0
O554 O 0.96181 0.18596 0.2801 0.0
O555 O 0.9982 0.17343 0.25632 0.0
O556 O 0.97502 0.07329 0.1593 0.0
O557 O 0.96376 0.06663 0.19873 0.0
O558 O 0.91077 0.14223 0.27351 0.0
O559 O 0.90575 0.12123 0.23458 0.0
C560 C 0.02544 0.10487 0.22276 0.0
C561 C 0.92707 0.11164 0.15788 0.0
C562 C 0.90608 0.21577 0.28242 0.0
C563 C 1.00683 0.15391 0.17869 0.0
C564 C 0.88561 0.17942 0.2125 0.0
C565 C 0.98733 0.18579 0.27591 0.0
C566 C 0.96613 0.05669 0.17585 0.0
C567 C 0.90158 0.12286 0.25972 0.0
O568 O 1.01435 0.0974 0.20116 0.0
O569 O 1.0147 0.12167 0.23903 0.0
O570 O 0.91462 0.11411 0.17998 0.0
O571 O 0.95241 0.1138 0.15686 0.0
O572 O 0.89408 0.19435 0.27726 0.0
O573 O 0.92997 0.21479 0.27484 0.0
O574 O 1.00196 0.13043 0.17044 0.0
O575 O 0.99841 0.1625 0.20135 0.0
Co576 Co 0.05518 0.60352 0.34513 0.0
Co577 Co 0.10361 0.6403 0.32393 0.0
Co578 Co 0.05006 0.64556 0.29761 0.0
H579 H 0.05931 0.62362 0.31831 0.0
O580 O 0.07431 0.61666 0.31371 0.0
H581 H 0.09662 0.66039 0.30035 0.0
O582 O 0.08174 0.66837 0.30371 0.0
Co583 Co 0.10454 0.67777 0.27233 0.0
O584 O 0.13922 0.68571 0.29399 0.0
O585 O 0.13301 0.66477 0.33295 0.0
O586 O 0.06904 0.68659 0.25155 0.0
O587 O 0.03308 0.67377 0.27578 0.0
O588 O 0.05413 0.5724 0.37164 0.0
O589 O 0.06849 0.56645 0.33312 0.0
O590 O 0.12006 0.64354 0.25682 0.0
O591 O 0.1257 0.62229 0.29547 0.0
C592 C 1.00647 0.60572 0.31019 0.0
C593 C 0.10826 0.60746 0.37118 0.0
C594 C 0.1252 0.7168 0.24895 0.0
C595 C 0.0264 0.65442 0.3539 0.0
C596 C 0.14652 0.6802 0.31795 0.0
C597 C 0.04358 0.68615 0.256 0.0
C598 C 0.0636 0.55588 0.35532 0.0
C599 C 0.1294 0.62404 0.2703 0.0
O600 O 0.01768 0.59877 0.33191 0.0
O601 O 0.01729 0.62182 0.29329 0.0
O602 O 0.11938 0.61421 0.34934 0.0
O603 O 0.08301 0.60774 0.37427 0.0
O604 O 0.13692 0.69509 0.25358 0.0
O605 O 0.10148 0.71614 0.25708 0.0
O606 O 0.0322 0.63121 0.36237 0.0
O607 O 0.03353 0.66276 0.33072 0.0
Co608 Co 0.47675 0.42939 0.84559 0.0
Co609 Co 0.42836 0.39302 0.82486 0.0
Co610 Co 0.48129 0.3886 0.79738 0.0
H611 H 0.47225 0.41007 0.81843 0.0
O612 O 0.45713 0.41705 0.81424 0.0
H613 H 0.4349 0.37314 0.80093 0.0
O614 O 0.45 0.36539 0.8039 0.0
Co615 Co 0.42653 0.35529 0.7733 0.0
O616 O 0.3914 0.34903 0.79473 0.0
O617 O 0.39942 0.36815 0.83428 0.0
O618 O 0.46188 0.34565 0.7526 0.0
O619 O 0.49807 0.36097 0.77499 0.0
O620 O 0.47496 0.4596 0.87307 0.0
O621 O 0.46249 0.46617 0.83396 0.0
O622 O 0.41059 0.38967 0.75834 0.0
O623 O 0.40541 0.41115 0.797 0.0
C624 C 0.52447 0.42918 0.80933 0.0
C625 C 0.42613 0.42052 0.87397 0.0
C626 C 0.40641 0.31452 0.75241 0.0
C627 C 0.50687 0.37938 0.85292 0.0
C628 C 0.38498 0.35375 0.81911 0.0
C629 C 0.48746 0.34736 0.7561 0.0
C630 C 0.46558 0.47616 0.85673 0.0
C631 C 0.40134 0.40922 0.77185 0.0
O632 O 0.51347 0.43604 0.83117 0.0
O633 O 0.51378 0.41265 0.79275 0.0
O634 O 0.41384 0.41847 0.85174 0.0
O635 O 0.45147 0.41859 0.87521 0.0
O636 O 0.41469 0.33436 0.73938 0.0
O637 O 0.41006 0.31776 0.77697 0.0
O638 O 0.50135 0.40253 0.8617 0.0
O639 O 0.49874 0.37111 0.83002 0.0
Co640 Co 0.68596 0.55583 0.92998 0.0
Co641 Co 0.70593 0.60425 0.89354 0.0
Co642 Co 0.73353 0.55116 0.88854 0.0
H643 H 0.71288 0.5602 0.91034 0.0
O644 O 0.71712 0.57534 0.91729 0.0
H645 H 0.72953 0.59763 0.87327 0.0
O646 O 0.72646 0.58253 0.86556 0.0
Co647 Co 0.75702 0.60581 0.85505 0.0
O648 O 0.73525 0.64072 0.84857 0.0
O649 O 0.69615 0.63327 0.86884 0.0
O650 O 0.77792 0.57057 0.84535 0.0
O651 O 0.7555 0.53435 0.86055 0.0
O652 O 0.66072 0.55181 0.96181 0.0
O653 O 0.69826 0.56881 0.967 0.0
O654 O 0.77252 0.62178 0.88911 0.0
O655 O 0.73417 0.62712 0.91101 0.0
C656 C 0.72148 0.50748 0.92817 0.0
C657 C 0.65817 0.60745 0.92613 0.0
C658 C 0.77794 0.62528 0.81407 0.0
C659 C 0.67574 0.53239 0.877 0.0
C660 C 0.71105 0.64739 0.85384 0.0
C661 C 0.77438 0.54497 0.84695 0.0
C662 C 0.67674 0.56226 0.97801 0.0
C663 C 0.75927 0.63111 0.90877 0.0
O664 O 0.69958 0.51844 0.9349 0.0
O665 O 0.73834 0.5185 0.91222 0.0
O666 O 0.67983 0.61939 0.91976 0.0
O667 O 0.65596 0.58213 0.92459 0.0
O668 O 0.79099 0.61633 0.8336 0.0
O669 O 0.75333 0.6227 0.81775 0.0
O670 O 0.66609 0.54139 0.89862 0.0
O671 O 0.70073 0.53389 0.87154 0.0
Co672 Co 0.18479 0.97607 0.10305 0.0
Co673 Co 0.20721 0.92858 0.13855 0.0
Co674 Co 0.23359 0.98217 0.14304 0.0
H675 H 0.21254 0.97264 0.12174 0.0
O676 O 0.21714 0.95769 0.11461 0.0
H677 H 0.23089 0.93557 0.15854 0.0
O678 O 0.22772 0.95067 0.16621 0.0
Co679 Co 0.25848 0.92757 0.17671 0.0
O680 O 0.2375 0.89216 0.18318 0.0
O681 O 0.19821 0.89948 0.1633 0.0
O682 O 0.27854 0.96333 0.18617 0.0
O683 O 0.25592 0.99934 0.17057 0.0
O684 O 0.15743 0.97307 0.07283 0.0
O685 O 0.19776 0.96712 0.06504 0.0
O686 O 0.27393 0.91152 0.14266 0.0
O687 O 0.23556 0.9063 0.1207 0.0
C688 C 0.219 0.02562 0.10422 0.0
C689 C 0.15828 0.9244 0.11065 0.0
C690 C 0.27927 0.90818 0.21789 0.0
C691 C 0.17574 1.0004 0.15578 0.0
C692 C 0.21332 0.88535 0.17805 0.0
C693 C 0.27485 0.98891 0.1843 0.0
C694 C 0.1746 0.96747 0.05549 0.0
C695 C 0.26066 0.90234 0.12292 0.0
O696 O 0.19714 1.01405 0.09828 0.0
O697 O 0.23692 1.0149 0.11924 0.0
O698 O 0.181 0.91314 0.1129 0.0
O699 O 0.15578 0.94966 0.11267 0.0
O700 O 0.29236 0.91648 0.19811 0.0
O701 O 0.2547 0.91138 0.21434 0.0
O702 O 0.16561 0.99134 0.13438 0.0
O703 O 0.20084 0.99885 0.16077 0.0
Co704 Co 0.34448 0.057 0.60325 0.0
Co705 Co 0.32353 0.10489 0.63942 0.0
Co706 Co 0.29654 0.05157 0.64422 0.0
H707 H 0.3172 0.0609 0.62251 0.0
O708 O 0.3128 0.07597 0.61548 0.0
H709 H 0.29952 0.09819 0.65905 0.0
O710 O 0.30259 0.08322 0.66704 0.0
Co711 Co 0.27146 0.1062 0.67625 0.0
O712 O 0.29282 0.14151 0.68267 0.0
O713 O 0.33281 0.13378 0.66431 0.0
O714 O 0.25017 0.07083 0.6847 0.0
O715 O 0.27452 0.03471 0.67229 0.0
O716 O 0.36904 0.05165 0.57106 0.0
O717 O 0.33326 0.07231 0.56675 0.0
O718 O 0.25654 0.12033 0.64106 0.0
O719 O 0.29581 0.12829 0.62171 0.0
C720 C 0.30969 1.00804 0.60459 0.0
C721 C 0.37281 0.1076 0.61149 0.0
C722 C 0.2512 0.12602 0.71747 0.0
C723 C 0.35458 0.03352 0.6562 0.0
C724 C 0.31722 0.14818 0.67828 0.0
C725 C 0.25465 0.04531 0.68445 0.0
C726 C 0.35395 0.06403 0.55532 0.0
C727 C 0.27045 0.13103 0.62258 0.0
O728 O 0.33126 0.01955 0.59768 0.0
O729 O 0.29268 0.01861 0.62071 0.0
O730 O 0.35049 0.11968 0.61399 0.0
O731 O 0.37432 0.08223 0.61309 0.0
O732 O 0.23798 0.11901 0.69726 0.0
O733 O 0.27557 0.12131 0.7143 0.0
O734 O 0.36426 0.0424 0.63454 0.0
O735 O 0.32956 0.03501 0.66162 0.0
Co736 Co 0.84609 0.47677 0.42945 0.0
Co737 Co 0.82535 0.42827 0.3933 0.0
Co738 Co 0.79822 0.4816 0.38835 0.0
H739 H 0.819 0.47245 0.41 0.0
O740 O 0.81469 0.45736 0.41704 0.0
H741 H 0.80176 0.43509 0.37301 0.0
O742 O 0.80493 0.45019 0.36533 0.0
Co743 Co 0.77418 0.42709 0.3547 0.0
O744 O 0.79557 0.39198 0.34828 0.0
O745 O 0.83469 0.39911 0.36865 0.0
O746 O 0.75338 0.46249 0.34537 0.0
O747 O 0.77612 0.49855 0.3605 0.0
O748 O 0.87027 0.4828 0.46183 0.0
O749 O 0.83388 0.46333 0.46635 0.0
O750 O 0.75858 0.41103 0.3887 0.0
O751 O 0.79686 0.40584 0.41082 0.0
C752 C 0.81195 0.52595 0.42618 0.0
C753 C 0.87269 0.42406 0.42718 0.0
C754 C 0.75341 0.40762 0.31349 0.0
C755 C 0.85605 0.49993 0.3763 0.0
C756 C 0.81968 0.3851 0.35366 0.0
C757 C 0.75705 0.48808 0.34705 0.0
C758 C 0.85461 0.4715 0.47781 0.0
C759 C 0.77178 0.40182 0.40848 0.0
O760 O 0.83418 0.51505 0.43191 0.0
O761 O 0.79392 0.51431 0.41202 0.0
O762 O 0.85115 0.41263 0.41958 0.0
O763 O 0.87548 0.44937 0.42648 0.0
O764 O 0.74037 0.41547 0.33347 0.0
O765 O 0.77794 0.41132 0.31685 0.0
O766 O 0.86587 0.49071 0.39777 0.0
O767 O 0.83098 0.49871 0.37112 0.0
H768 H 0.08381 0.51657 0.32295 0.0
H769 H 0.05883 0.53273 0.40387 0.0
H770 H 0.09776 0.47142 0.3364 0.0
H771 H 0.07262 0.48812 0.41714 0.0
H772 H 0.12805 0.42365 0.44075 0.0
H773 H 0.11769 0.46663 0.42081 0.0
H774 H 0.07769 0.42698 0.35551 0.0
H775 H 0.0886 0.38335 0.37548 0.0
C776 C 0.08112 0.51039 0.34349 0.0
C777 C 0.07034 0.52811 0.36242 0.0
C778 C 0.08902 0.48462 0.35113 0.0
C779 C 0.08655 0.47646 0.37784 0.0
C780 C 0.07515 0.49404 0.39649 0.0
C781 C 0.06707 0.51952 0.38886 0.0
C782 C 0.11724 0.42402 0.422 0.0
C783 C 0.10859 0.40024 0.40992 0.0
C784 C 0.1113 0.44863 0.41062 0.0
C785 C 0.09633 0.4501 0.387 0.0
C786 C 0.08919 0.42633 0.37382 0.0
C787 C 0.09536 0.40145 0.38521 0.0
H788 H 0.40105 0.61013 0.9403 0.0
H789 H 0.44459 0.64881 0.87674 0.0
H790 H 0.41014 0.56679 0.9206 0.0
H791 H 0.45431 0.60477 0.85705 0.0
H792 H 0.44755 0.5161 0.82383 0.0
H793 H 0.43402 0.56145 0.83694 0.0
H794 H 0.45372 0.54314 0.91888 0.0
H795 H 0.46692 0.49826 0.90597 0.0
C796 C 0.41248 0.60932 0.92197 0.0
C797 C 0.42264 0.63271 0.91032 0.0
C798 C 0.41771 0.5845 0.91072 0.0
C799 C 0.43349 0.58241 0.88771 0.0
C800 C 0.44216 0.60589 0.87489 0.0
C801 C 0.43667 0.63099 0.88612 0.0
C802 C 0.44899 0.52192 0.84461 0.0
C803 C 0.45816 0.50371 0.86395 0.0
C804 C 0.44137 0.54781 0.85204 0.0
C805 C 0.44255 0.55566 0.87894 0.0
C806 C 0.45215 0.53749 0.89806 0.0
C807 C 0.45986 0.51183 0.89066 0.0
H808 H 0.55687 1.00046 0.62753 0.0
H809 H 0.58059 0.01681 0.70882 0.0
H810 H 0.5707 0.04514 0.61444 0.0
H811 H 0.59463 0.06198 0.69554 0.0
H812 H 0.58699 0.15004 0.65549 0.0
H813 H 0.57493 0.1067 0.6755 0.0
H814 H 0.61644 0.06596 0.61191 0.0
H815 H 0.62805 0.10859 0.59199 0.0
C816 C 0.56481 1.01373 0.64266 0.0
C817 C 0.56773 1.00518 0.66915 0.0
C818 C 0.57289 0.03925 0.63514 0.0
C819 C 0.58401 0.05687 0.65394 0.0
C820 C 0.58609 0.04875 0.6807 0.0
C821 C 0.57815 0.02297 0.68824 0.0
C822 C 0.59385 0.13176 0.64617 0.0
C823 C 0.60792 0.13258 0.62192 0.0
C824 C 0.58699 0.10706 0.65757 0.0
C825 C 0.59425 0.08307 0.64484 0.0
C826 C 0.60998 0.08414 0.62173 0.0
C827 C 0.61664 0.10856 0.61037 0.0
H828 H 0.89743 0.92303 0.09439 0.0
H829 H 0.9448 0.88428 0.15514 0.0
H830 H 0.90711 0.96632 0.11404 0.0
H831 H 0.95515 0.92821 0.17471 0.0
H832 H 0.95033 1.01622 0.20925 0.0
H833 H 0.93608 0.97102 0.19639 0.0
H834 H 0.95016 0.9906 0.11361 0.0
H835 H 0.96409 0.03533 0.1263 0.0
C836 C 0.90979 0.92382 0.11214 0.0
C837 C 0.9208 0.90044 0.123 0.0
C838 C 0.91538 0.94861 0.12334 0.0
C839 C 0.93241 0.95067 0.14548 0.0
C840 C 0.942 0.92715 0.15758 0.0
C841 C 0.93613 0.90209 0.14642 0.0
C842 C 0.95038 1.01072 0.18834 0.0
C843 C 0.95825 0.02923 0.16873 0.0
C844 C 0.94234 0.9849 0.18104 0.0
C845 C 0.94175 0.97743 0.15401 0.0
C846 C 0.94997 0.99594 0.13457 0.0
C847 C 0.95813 0.02151 0.14184 0.0
H848 H 0.39914 0.04967 0.52951 0.0
H849 H 0.32456 0.09142 0.51802 0.0
H850 H 0.41298 0.06204 0.48467 0.0
H851 H 0.33863 0.10397 0.47271 0.0
H852 H 0.37329 0.0937 0.38273 0.0
H853 H 0.35275 0.0824 0.42597 0.0
H854 H 0.42431 0.10812 0.46649 0.0
H855 H 0.44466 0.11912 0.42407 0.0
C856 C 0.3856 0.0613 0.51729 0.0
C857 C 0.36089 0.06976 0.5273 0.0
C858 C 0.39355 0.06846 0.49165 0.0
C859 C 0.37698 0.08421 0.47539 0.0
C860 C 0.35172 0.09178 0.48488 0.0
C861 C 0.34377 0.0847 0.51076 0.0
C862 C 0.3844 0.09718 0.40096 0.0
C863 C 0.4108 0.10666 0.39999 0.0
C864 C 0.37267 0.09077 0.42561 0.0
C865 C 0.38725 0.09384 0.44942 0.0
C866 C 0.41291 0.10489 0.44838 0.0
C867 C 0.42454 0.11118 0.42403 0.0
H868 H 0.20889 0.95944 1.01353 0.0
H869 H 0.1253 0.96165 0.03433 0.0
H870 H 0.19689 0.95143 0.96662 0.0
H871 H 0.11344 0.95326 0.98808 0.0
H872 H 0.09665 0.96915 0.90378 0.0
H873 H 0.11599 0.97972 0.94694 0.0
H874 H 0.17445 0.91718 0.93628 0.0
H875 H 0.15524 0.90702 0.89223 0.0
C876 C 0.18801 0.95814 1.00807 0.0
C877 C 0.16798 0.96161 0.02741 0.0
C878 C 0.18118 0.95346 0.98132 0.0
C879 C 0.15424 0.95226 0.97362 0.0
C880 C 0.13437 0.95484 0.99325 0.0
C881 C 0.14115 0.95954 0.01978 0.0
C882 C 0.11397 0.95799 0.91038 0.0
C883 C 0.12425 0.93703 0.89492 0.0
C884 C 0.12494 0.96393 0.93517 0.0
C885 C 0.14624 0.94878 0.94531 0.0
C886 C 0.15795 0.9291 0.92899 0.0
C887 C 0.14703 0.92331 0.90383 0.0
H888 H 0.82384 0.44678 0.51579 0.0
H889 H 0.90095 0.48315 0.50296 0.0
H890 H 0.83771 0.43362 0.56102 0.0
H891 H 0.9146 0.47012 0.54769 0.0
H892 H 0.94324 0.41143 0.60824 0.0
H893 H 0.92283 0.42321 0.56598 0.0
H894 H 0.85422 0.45478 0.60739 0.0
H895 H 0.87481 0.44267 0.65042 0.0
C896 C 0.84356 0.45224 0.52276 0.0
C897 C 0.86141 0.46585 0.50588 0.0
C898 C 0.85141 0.4448 0.54858 0.0
C899 C 0.87729 0.45062 0.55764 0.0
C900 C 0.89465 0.46508 0.54104 0.0
C901 C 0.88679 0.47265 0.51548 0.0
C902 C 0.92374 0.42079 0.60849 0.0
C903 C 0.91088 0.42672 0.63268 0.0
C904 C 0.91208 0.42752 0.58425 0.0
C905 C 0.88728 0.44046 0.58351 0.0
C906 C 0.87346 0.44493 0.60753 0.0
C907 C 0.88521 0.43806 0.63205 0.0
H908 H 0.62881 0.55535 1.00178 0.0
H909 H 0.70885 0.5836 0.01692 0.0
H910 H 0.61556 0.5689 0.04645 0.0
H911 H 0.6954 0.5973 0.06209 0.0
H912 H 0.6564 0.58848 0.15055 0.0
H913 H 0.67659 0.57668 0.1073 0.0
H914 H 0.61117 0.61523 0.06648 0.0
H915 H 0.59111 0.62663 0.109 0.0
C916 C 0.64365 0.56421 1.01478 0.0
C917 C 0.66981 0.56851 1.00589 0.0
C918 C 0.63603 0.5721 0.0403 0.0
C919 C 0.65441 0.58439 0.05756 0.0
C920 C 0.6809 0.58783 0.04913 0.0
C921 C 0.68853 0.58008 0.02335 0.0
C922 C 0.64668 0.59474 0.13227 0.0
C923 C 0.62192 0.6079 0.13307 0.0
C924 C 0.6582 0.58803 0.10762 0.0
C925 C 0.64505 0.59453 0.08366 0.0
C926 C 0.62134 0.60936 0.08466 0.0
C927 C 0.60989 0.6159 0.10903 0.0
H928 H 0.38147 0.37545 0.09249 0.0
H929 H 0.42403 0.44556 0.11956 0.0
H930 H 0.42428 0.35453 0.08036 0.0
H931 H 0.46603 0.42481 0.10777 0.0
H932 H 0.5285 0.39967 0.04871 0.0
H933 H 0.48404 0.4142 0.06157 0.0
H934 H 0.47067 0.33896 0.10159 0.0
H935 H 0.51564 0.32422 0.0886 0.0
C936 C 0.39987 0.3862 0.09615 0.0
C937 C 0.39935 0.41235 0.10645 0.0
C938 C 0.42427 0.37425 0.08928 0.0
C939 C 0.44832 0.38834 0.09265 0.0
C940 C 0.44774 0.41378 0.10434 0.0
C941 C 0.42362 0.42564 0.1111 0.0
C942 C 0.51604 0.38607 0.06001 0.0
C943 C 0.52556 0.3609 0.06781 0.0
C944 C 0.49063 0.39443 0.06745 0.0
C945 C 0.47408 0.37779 0.08279 0.0
C946 C 0.48307 0.35212 0.08972 0.0
C947 C 0.50875 0.34377 0.08239 0.0
H948 H 0.02229 0.18977 0.92122 0.0
H949 H 1.01415 0.1695 1.00462 0.0
H950 H 0.97602 0.17619 0.91342 0.0
H951 H 0.96792 0.15642 0.99697 0.0
H952 H 0.90997 0.09397 0.96136 0.0
H953 H 0.95076 0.11727 0.97296 0.0
H954 H 0.92715 0.18396 0.92348 0.0
H955 H 0.88582 0.16029 0.91168 0.0
C956 C 1.01044 0.18291 0.93795 0.0
C957 C 0.02186 0.18027 0.96344 0.0
C958 C 0.98392 0.17532 0.93353 0.0
C959 C 0.96845 0.16499 0.95454 0.0
C960 C 0.9795 0.16391 0.98031 0.0
C961 C 1.00594 0.17141 0.9847 0.0
C962 C 0.91328 0.11372 0.95314 0.0
C963 C 0.89484 0.12522 0.93542 0.0
C964 C 0.93658 0.12719 0.95998 0.0
C965 C 0.94217 0.15246 0.94915 0.0
C966 C 0.92338 0.16443 0.93202 0.0
C967 C 0.89972 0.151 0.9254 0.0
H968 H 0.64492 0.87365 0.41537 0.0
H969 H 0.61936 0.94374 0.45875 0.0
H970 H 0.60334 0.85089 0.42798 0.0
H971 H 0.57825 0.92145 0.47087 0.0
H972 H 0.5148 0.87181 0.50627 0.0
H973 H 0.56074 0.88539 0.4979 0.0
H974 H 0.55482 0.85573 0.41712 0.0
H975 H 0.50892 0.84148 0.4258 0.0
C976 C 0.63062 0.88404 0.4278 0.0
C977 C 0.6353 0.91053 0.4359 0.0
C978 C 0.60679 0.87111 0.43487 0.0
C979 C 0.58752 0.88435 0.45048 0.0
C980 C 0.59277 0.9105 0.45918 0.0
C981 C 0.61628 0.9234 0.45198 0.0
C982 C 0.52344 0.86787 0.48685 0.0
C983 C 0.50825 0.8559 0.4666 0.0
C984 C 0.54971 0.87569 0.48202 0.0
C985 C 0.56132 0.87196 0.45674 0.0
C986 C 0.54654 0.85872 0.43686 0.0
C987 C 0.52022 0.85071 0.44177 0.0
H988 H 0.01743 0.66822 0.52658 0.0
H989 H 1.00875 0.69121 0.6092 0.0
H990 H 0.0635 0.65507 0.53505 0.0
H991 H 0.05483 0.67747 0.61787 0.0
H992 H 0.14509 0.66057 0.62055 0.0
H993 H 0.10389 0.68421 0.60816 0.0
H994 H 0.07988 0.6165 0.56032 0.0
H995 H 0.12053 0.59326 0.57243 0.0
C996 C 0.02549 0.67071 0.54649 0.0
C997 C 1.00948 0.68036 0.56732 0.0
C998 C 0.05184 0.66317 0.55135 0.0
C999 C 0.06265 0.66492 0.57719 0.0
C1000 C 0.0471 0.67606 0.59772 0.0
C1001 C 0.0207 0.68376 0.5928 0.0
C1002 C 0.13112 0.65103 0.60707 0.0
C1003 C 0.13589 0.62504 0.59757 0.0
C1004 C 0.10753 0.66445 0.60013 0.0
C1005 C 0.08872 0.65223 0.58321 0.0
C1006 C 0.09411 0.62664 0.57307 0.0
C1007 C 0.11733 0.6132 0.58023 0.0
H1008 H 1.0046 0.51397 0.6571 0.0
H1009 H 0.92627 0.50987 0.69273 0.0
H1010 H 0.99608 0.55994 0.64353 0.0
H1011 H 0.91748 0.55591 0.67862 0.0
H1012 H 0.91756 0.64669 0.65973 0.0
H1013 H 0.93009 0.60474 0.68207 0.0
H1014 H 0.9663 0.57691 0.60896 0.0
H1015 H 0.95436 0.61825 0.58706 0.0
C1016 C 0.98565 0.52301 0.66225 0.0
C1017 C 0.96598 0.50827 0.67565 0.0
C1018 C 0.98073 0.54931 0.65444 0.0
C1019 C 0.95597 0.56144 0.65969 0.0
C1020 C 0.93679 0.54718 0.6744 0.0
C1021 C 0.94177 0.52079 0.68232 0.0
C1022 C 0.92848 0.63168 0.64864 0.0
C1023 C 0.93488 0.63578 0.62161 0.0
C1024 C 0.93551 0.60766 0.66135 0.0
C1025 C 0.94935 0.5876 0.64732 0.0
C1026 C 0.9561 0.59209 0.62051 0.0
C1027 C 0.94899 0.61579 0.60786 0.0
H1028 H 0.57241 0.53515 0.12534 0.0
H1029 H 0.5709 0.51159 0.20825 0.0
H1030 H 0.58072 0.48919 0.11233 0.0
H1031 H 0.57868 0.46493 0.1951 0.0
H1032 H 0.62249 0.39037 0.15465 0.0
H1033 H 0.61243 0.43434 0.1741 0.0
H1034 H 0.55477 0.44844 0.11148 0.0
H1035 H 0.56549 0.40548 0.09183 0.0
C1036 C 0.57366 0.52005 0.14079 0.0
C1037 C 0.57062 0.52685 0.16775 0.0
C1038 C 0.57829 0.49365 0.13335 0.0
C1039 C 0.57978 0.47329 0.15265 0.0
C1040 C 0.57754 0.48016 0.17977 0.0
C1041 C 0.57299 0.50679 0.18728 0.0
C1042 C 0.60734 0.40277 0.14547 0.0
C1043 C 0.59508 0.39481 0.12152 0.0
C1044 C 0.60158 0.42789 0.15655 0.0
C1045 C 0.58331 0.44514 0.1439 0.0
C1046 C 0.56957 0.43602 0.12122 0.0
C1047 C 0.57556 0.4113 0.11005 0.0
H1048 H 0.50614 1.0158 0.36647 0.0
H1049 H 0.42314 0.02344 0.34458 0.0
H1050 H 0.49846 0.96947 0.37961 0.0
H1051 H 0.4153 0.97718 0.35824 0.0
H1052 H 0.41311 0.88706 0.3738 0.0
H1053 H 0.42517 0.92865 0.35072 0.0
H1054 H 0.47433 0.95131 0.41789 0.0
H1055 H 0.46248 0.91017 0.44061 0.0
C1056 C 0.48631 1.00747 0.36424 0.0
C1057 C 0.46517 0.02328 0.35484 0.0
C1058 C 0.48189 0.98098 0.3718 0.0
C1059 C 0.45621 0.96975 0.37025 0.0
C1060 C 0.43535 0.98516 0.35948 0.0
C1061 C 0.4398 1.01169 0.35183 0.0
C1062 C 0.4268 0.9008 0.38334 0.0
C1063 C 0.43665 0.89552 0.40908 0.0
C1064 C 0.43358 0.92464 0.37024 0.0
C1065 C 0.45069 0.94328 0.3825 0.0
C1066 C 0.46136 0.93729 0.40773 0.0
C1067 C 0.45436 0.91379 0.42088 0.0
H1068 H 0.1192 0.11086 0.94352 0.0
H1069 H 0.0913 0.15241 0.8732 0.0
H1070 H 0.10833 0.06835 0.92303 0.0
H1071 H 0.07997 0.10919 0.85258 0.0
H1072 H 0.08773 0.01774 0.823 0.0
H1073 H 0.10086 0.06291 0.83719 0.0
H1074 H 0.06239 0.04981 0.91317 0.0
H1075 H 0.04942 1.00516 0.8992 0.0
C1076 C 0.11075 0.11091 0.92361 0.0
C1077 C 0.1055 0.13499 0.91019 0.0
C1078 C 0.10454 0.08653 0.91189 0.0
C1079 C 0.09274 0.08557 0.88653 0.0
C1080 C 0.08895 0.10948 0.87225 0.0
C1081 C 0.09536 0.13412 0.88403 0.0
C1082 C 0.08186 0.02475 0.84259 0.0
C1083 C 0.06768 1.00797 0.86009 0.0
C1084 C 0.0893 0.05053 0.85063 0.0
C1085 C 0.0829 0.05963 0.87636 0.0
C1086 C 0.06791 0.04312 0.89336 0.0
C1087 C 0.06035 0.01761 0.88531 0.0
H1088 H 0.655 1.00485 0.51351 0.0
H1089 H 0.69436 0.92814 0.51033 0.0
H1090 H 0.64136 0.99598 0.55931 0.0
H1091 H 0.68017 0.91896 0.55624 0.0
H1092 H 0.65951 0.91925 0.64685 0.0
H1093 H 0.68222 0.93262 0.60538 0.0
H1094 H 0.60785 0.96399 0.57504 0.0
H1095 H 0.58558 0.95113 0.61576 0.0
C1096 C 0.66095 0.98619 0.52273 0.0
C1097 C 0.6754 0.96704 0.50831 0.0
C1098 C 0.65314 0.98109 0.54893 0.0
C1099 C 0.65942 0.95663 0.56124 0.0
C1100 C 0.67518 0.93804 0.54733 0.0
C1101 C 0.68313 0.94321 0.52103 0.0
C1102 C 0.64822 0.92929 0.63138 0.0
C1103 C 0.62075 0.93405 0.63456 0.0
C1104 C 0.66114 0.93679 0.60766 0.0
C1105 C 0.64683 0.94953 0.58707 0.0
C1106 C 0.61956 0.95467 0.59066 0.0
C1107 C 0.60673 0.94704 0.61401 0.0
H1108 H 0.94598 0.11908 0.10791 0.0
H1109 H 0.87575 0.09271 0.1505 0.0
H1110 H 0.92538 0.10683 0.06595 0.0
H1111 H 0.85498 0.0801 0.10775 0.0
H1112 H 0.82475 0.08804 0.01638 0.0
H1113 H 0.83945 0.10073 0.06145 0.0
H1114 H 0.91465 0.06094 0.04778 0.0
H1115 H 0.90019 0.04845 1.00314 0.0
C1116 C 0.92607 0.11064 0.10835 0.0
C1117 C 0.9127 0.10637 0.13262 0.0
C1118 C 0.91431 0.1036 0.08424 0.0
C1119 C 0.88887 0.09198 0.08367 0.0
C1120 C 0.87471 0.08892 0.10772 0.0
C1121 C 0.88658 0.09608 0.13211 0.0
C1122 C 0.84427 0.08177 0.02323 0.0
C1123 C 0.86143 0.06741 1.00626 0.0
C1124 C 0.8526 0.08893 0.04898 0.0
C1125 C 0.87827 0.08205 0.05791 0.0
C1126 C 0.89489 0.06682 0.04124 0.0
C1127 C 0.88657 0.05957 1.01573 0.0
H1128 H 0.20541 0.59327 0.51649 0.0
H1129 H 0.13112 0.551 0.52758 0.0
H1130 H 0.19352 0.60182 0.4698 0.0
H1131 H 0.11897 0.55999 0.48155 0.0
H1132 H 0.11005 0.55891 0.39437 0.0
H1133 H 0.13044 0.54747 0.43707 0.0
H1134 H 0.16214 0.62764 0.4431 0.0
H1135 H 0.14246 0.63847 0.3996 0.0
C1136 C 0.18658 0.5858 0.50892 0.0
C1137 C 0.16925 0.57131 0.52553 0.0
C1138 C 0.17974 0.59077 0.48226 0.0
C1139 C 0.15545 0.58129 0.47182 0.0
C1140 C 0.13814 0.56699 0.48867 0.0
C1141 C 0.14498 0.56201 0.51516 0.0
C1142 C 0.12185 0.5738 0.40465 0.0
C1143 C 0.12468 0.5995 0.39403 0.0
C1144 C 0.13337 0.5674 0.42916 0.0
C1145 C 0.14741 0.58683 0.44381 0.0
C1146 C 0.15156 0.61217 0.4323 0.0
C1147 C 0.14033 0.61842 0.40748 0.0
H1148 H 0.40709 0.46484 0.03516 0.0
H1149 H 0.32438 0.45231 1.01438 0.0
H1150 H 0.42036 0.45193 0.99035 0.0
H1151 H 0.3378 0.43901 0.96913 0.0
H1152 H 0.37932 0.44787 0.88319 0.0
H1153 H 0.3598 0.45815 0.92709 0.0
H1154 H 0.42039 0.40987 0.96503 0.0
H1155 H 0.44 0.40031 0.9218 0.0
C1156 C 0.39173 0.45935 0.02095 0.0
C1157 C 0.36473 0.45952 0.02824 0.0
C1158 C 0.39933 0.45177 0.99532 0.0
C1159 C 0.38013 0.44417 0.97631 0.0
C1160 C 0.353 0.44481 0.98337 0.0
C1161 C 0.34536 0.4523 1.00923 0.0
C1162 C 0.38809 0.43921 0.90097 0.0
C1163 C 0.41144 0.42377 0.89925 0.0
C1164 C 0.37695 0.44503 0.92601 0.0
C1165 C 0.38898 0.43529 0.94949 0.0
C1166 C 0.41115 0.41829 0.94738 0.0
C1167 C 0.42233 0.41277 0.9226 0.0
H1168 H 0.61781 0.5885 0.95649 0.0
H1169 H 0.64506 0.66029 0.91706 0.0
H1170 H 0.57683 0.61065 0.96898 0.0
H1171 H 0.60344 0.68291 0.93001 0.0
H1172 H 0.50859 0.69198 0.92603 0.0
H1173 H 0.55479 0.67843 0.91779 0.0
H1174 H 0.55936 0.64595 0.99756 0.0
H1175 H 0.51318 0.65897 1.00555 0.0
C1176 C 0.61517 0.6092 0.95072 0.0
C1177 C 0.63466 0.62259 0.93564 0.0
C1178 C 0.59169 0.622 0.95812 0.0
C1179 C 0.58689 0.64859 0.95062 0.0
C1180 C 0.60658 0.66235 0.936 0.0
C1181 C 0.63042 0.6495 0.92875 0.0
C1182 C 0.51964 0.68227 0.9419 0.0
C1183 C 0.50721 0.67613 0.96629 0.0
C1184 C 0.54614 0.6747 0.93725 0.0
C1185 C 0.56063 0.66086 0.95692 0.0
C1186 C 0.54858 0.65618 0.98185 0.0
C1187 C 0.52215 0.66367 0.98645 0.0
H1188 H 0.99532 0.90682 0.07838 0.0
H1189 H 0.01934 0.82453 0.06844 0.0
H1190 H 0.04057 0.91866 0.09107 0.0
H1191 H 0.0651 0.83644 0.08149 0.0
H1192 H 0.1484 0.88364 0.07538 0.0
H1193 H 0.10445 0.8642 0.06522 0.0
H1194 H 0.06975 0.91021 0.12939 0.0
H1195 H 0.11309 0.93004 0.13875 0.0
C1196 C 1.01035 0.89126 0.07884 0.0
C1197 C 1.00385 0.86478 0.07244 0.0
C1198 C 0.03624 0.89798 0.08635 0.0
C1199 C 0.05632 0.8784 0.08761 0.0
C1200 C 0.05001 0.85192 0.0807 0.0
C1201 C 0.02388 0.84512 0.07333 0.0
C1202 C 0.13139 0.88901 0.08758 0.0
C1203 C 0.13384 0.90851 0.10756 0.0
C1204 C 0.10631 0.87795 0.08181 0.0
C1205 C 0.08359 0.88617 0.09615 0.0
C1206 C 0.08673 0.90406 0.11751 0.0
C1207 C 0.11152 0.91529 0.12298 0.0
H1208 H 0.38182 0.15422 0.58349 0.0
H1209 H 0.42066 0.09431 0.63189 0.0
H1210 H 0.4257 0.17351 0.57253 0.0
H1211 H 0.46384 0.11367 0.62161 0.0
H1212 H 0.53357 0.12532 0.56622 0.0
H1213 H 0.48859 0.11267 0.57911 0.0
H1214 H 0.4683 0.19571 0.59101 0.0
H1215 H 0.51375 0.20852 0.57775 0.0
C1216 C 0.39964 0.1456 0.59221 0.0
C1217 C 0.39798 0.1225 0.60807 0.0
C1218 C 0.42468 0.15659 0.58598 0.0
C1219 C 0.44821 0.14465 0.59571 0.0
C1220 C 0.44615 0.12282 0.61317 0.0
C1221 C 0.4214 0.11179 0.61913 0.0
C1222 C 0.51952 0.14093 0.57141 0.0
C1223 C 0.52718 0.16788 0.57106 0.0
C1224 C 0.49379 0.13369 0.57898 0.0
C1225 C 0.475 0.15319 0.5864 0.0
C1226 C 0.48236 0.18028 0.58537 0.0
C1227 C 0.50833 0.18757 0.57789 0.0
H1228 H 0.88768 0.37315 0.41274 0.0
H1229 H 0.90969 0.43946 0.46332 0.0
H1230 H 0.92932 0.35024 0.42496 0.0
H1231 H 0.95081 0.41695 0.47532 0.0
H1232 H 0.01638 0.36654 0.50619 0.0
H1233 H 0.96984 0.37888 0.49879 0.0
H1234 H 0.97758 0.35846 0.41537 0.0
H1235 H 0.02404 0.34559 0.42294 0.0
C1236 C 0.90115 0.38257 0.42679 0.0
C1237 C 0.89558 0.40816 0.4369 0.0
C1238 C 0.92502 0.36958 0.43364 0.0
C1239 C 0.94341 0.3818 0.45108 0.0
C1240 C 0.93703 0.4068 0.4621 0.0
C1241 C 0.91351 0.41983 0.45503 0.0
C1242 C 1.00803 0.36436 0.48636 0.0
C1243 C 0.02389 0.35545 0.46508 0.0
C1244 C 0.9814 0.37145 0.4821 0.0
C1245 C 0.97009 0.36992 0.45644 0.0
C1246 C 0.9856 0.35965 0.43542 0.0
C1247 C 1.01226 0.35247 0.43971 0.0
H1248 H 0.28039 0.3815 0.25729 0.0
H1249 H 0.20039 0.40081 0.2319 0.0
H1250 H 0.26262 0.35803 0.29618 0.0
H1251 H 0.18252 0.3773 0.2709 0.0
H1252 H 0.16483 0.36528 0.36029 0.0
H1253 H 0.18203 0.38464 0.31947 0.0
H1254 H 0.23595 0.31799 0.31044 0.0
H1255 H 0.21858 0.29827 0.35189 0.0
C1256 C 0.25897 0.38072 0.26001 0.0
C1257 C 0.24179 0.39325 0.24161 0.0
C1258 C 0.24878 0.36703 0.28221 0.0
C1259 C 0.22113 0.36575 0.28677 0.0
C1260 C 0.20394 0.37809 0.26817 0.0
C1261 C 0.21414 0.39155 0.2458 0.0
C1262 C 0.18038 0.35458 0.34976 0.0
C1263 C 0.19041 0.33018 0.35968 0.0
C1264 C 0.19008 0.36567 0.32608 0.0
C1265 C 0.21033 0.35292 0.31152 0.0
C1266 C 0.22044 0.32845 0.32126 0.0
C1267 C 0.21044 0.31709 0.34496 0.0
H1268 H 0.36862 0.66788 0.8594 0.0
H1269 H 0.31314 0.73357 0.8519 0.0
H1270 H 0.35153 0.64846 0.81844 0.0
H1271 H 0.29592 0.71386 0.81045 0.0
H1272 H 0.25208 0.65065 0.75724 0.0
H1273 H 0.27001 0.67369 0.7963 0.0
H1274 H 0.35006 0.65594 0.76988 0.0
H1275 H 0.33202 0.63277 0.73073 0.0
C1276 C 0.35274 0.67827 0.84902 0.0
C1277 C 0.34216 0.7023 0.85921 0.0
C1278 C 0.34309 0.66716 0.8253 0.0
C1279 C 0.32237 0.67955 0.81103 0.0
C1280 C 0.31178 0.70367 0.82104 0.0
C1281 C 0.32171 0.71504 0.84475 0.0
C1282 C 0.27353 0.65164 0.75977 0.0
C1283 C 0.29064 0.63964 0.741 0.0
C1284 C 0.28381 0.66509 0.78206 0.0
C1285 C 0.31149 0.6667 0.78633 0.0
C1286 C 0.32862 0.65487 0.76738 0.0
C1287 C 0.31832 0.64163 0.74491 0.0
H1288 H 0.66401 0.16757 0.67152 0.0
H1289 H 0.7185 0.23403 0.67964 0.0
H1290 H 0.68114 0.14818 0.71243 0.0
H1291 H 0.73573 0.21432 0.72114 0.0
H1292 H 0.7798 0.15129 0.7747 0.0
H1293 H 0.76204 0.17446 0.73561 0.0
H1294 H 0.68193 0.15542 0.76091 0.0
H1295 H 0.6998 0.13216 0.80009 0.0
C1296 C 0.67969 0.17815 0.68201 0.0
C1297 C 0.68996 0.2024 0.672 0.0
C1298 C 0.68935 0.16704 0.70573 0.0
C1299 C 0.70977 0.17964 0.72022 0.0
C1300 C 0.7201 0.20396 0.71038 0.0
C1301 C 0.71017 0.21532 0.68664 0.0
C1302 C 0.75838 0.15204 0.77192 0.0
C1303 C 0.7412 0.13964 0.79039 0.0
C1304 C 0.74819 0.16556 0.74962 0.0
C1305 C 0.72055 0.16683 0.74501 0.0
C1306 C 0.70335 0.15463 0.76366 0.0
C1307 C 0.71355 0.14132 0.78615 0.0
H1308 H 0.81695 0.79612 0.18356 0.0
H1309 H 0.862 0.86815 0.16817 0.0
H1310 H 0.79945 0.81639 0.22465 0.0
H1311 H 0.84523 0.88776 0.20884 0.0
H1312 H 0.78978 0.92834 0.2671 0.0
H1313 H 0.80541 0.90623 0.22669 0.0
H1314 H 0.81153 0.83159 0.26962 0.0
H1315 H 0.79521 0.85378 0.31002 0.0
C1316 C 0.82318 0.81616 0.18887 0.0
C1317 C 0.8407 0.83049 0.17222 0.0
C1318 C 0.81326 0.82776 0.21252 0.0
C1319 C 0.82064 0.85394 0.22004 0.0
C1320 C 0.83849 0.8679 0.20353 0.0
C1321 C 0.84826 0.85645 0.18009 0.0
C1322 C 0.79455 0.90725 0.26796 0.0
C1323 C 0.79146 0.89292 0.29185 0.0
C1324 C 0.80362 0.89451 0.24477 0.0
C1325 C 0.80995 0.86704 0.24477 0.0
C1326 C 0.80666 0.85266 0.26871 0.0
C1327 C 0.79756 0.86545 0.29196 0.0
H1328 H 0.34774 0.21358 0.297 0.0
H1329 H 0.36442 0.17014 0.36971 0.0
H1330 H 0.30656 0.23086 0.31713 0.0
H1331 H 0.32359 0.18674 0.38926 0.0
H1332 H 0.2641 0.2421 0.42856 0.0
H1333 H 0.30479 0.22666 0.40687 0.0
H1334 H 0.262 0.21794 0.3325 0.0
H1335 H 0.22132 0.23405 0.35423 0.0
C1336 C 0.34271 0.20769 0.31718 0.0
C1337 C 0.35969 0.1906 0.3317 0.0
C1338 C 0.31899 0.21746 0.3287 0.0
C1339 C 0.31174 0.21042 0.35499 0.0
C1340 C 0.32866 0.19315 0.36924 0.0
C1341 C 0.35218 0.18347 0.35786 0.0
C1342 C 0.26333 0.23678 0.40761 0.0
C1343 C 0.2394 0.23909 0.39322 0.0
C1344 C 0.28669 0.22783 0.39513 0.0
C1345 C 0.28681 0.22086 0.36786 0.0
C1346 C 0.26282 0.22333 0.35341 0.0
C1347 C 0.23941 0.23231 0.36595 0.0
H1348 H 0.17234 0.86945 0.86355 0.0
H1349 H 0.1779 0.81204 0.7994 0.0
H1350 H 0.21309 0.85211 0.883 0.0
H1351 H 0.21927 0.7945 0.81918 0.0
H1352 H 0.27254 0.75174 0.88366 0.0
H1353 H 0.23359 0.76947 0.86022 0.0
H1354 H 0.26144 0.8498 0.8748 0.0
H1355 H 0.30047 0.83199 0.89828 0.0
C1356 C 0.18223 0.85307 0.85351 0.0
C1357 C 0.17155 0.84206 0.82991 0.0
C1358 C 0.20586 0.84326 0.86463 0.0
C1359 C 0.2196 0.82194 0.8527 0.0
C1360 C 0.20909 0.81086 0.82901 0.0
C1361 C 0.18544 0.82096 0.8176 0.0
C1362 C 0.27036 0.77321 0.88187 0.0
C1363 C 0.2895 0.79048 0.89308 0.0
C1364 C 0.24813 0.78335 0.86819 0.0
C1365 C 0.24428 0.81107 0.86559 0.0
C1366 C 0.2636 0.82834 0.87663 0.0
C1367 C 0.286 0.81817 0.89008 0.0
H1368 H 0.76425 0.29264 0.60255 0.0
H1369 H 0.72254 0.29583 0.67779 0.0
H1370 H 0.80486 0.30821 0.62439 0.0
H1371 H 0.76309 0.31206 0.6997 0.0
H1372 H 0.84908 0.31751 0.7344 0.0
H1373 H 0.80812 0.29998 0.71398 0.0
H1374 H 0.82299 0.34758 0.64363 0.0
H1375 H 0.8636 0.36442 0.66342 0.0
C1376 C 0.7637 0.29691 0.62374 0.0
C1377 C 0.74009 0.2932 0.63834 0.0
C1378 C 0.787 0.30594 0.63632 0.0
C1379 C 0.78739 0.31158 0.66391 0.0
C1380 C 0.76372 0.30771 0.67854 0.0
C1381 C 0.74037 0.29867 0.66591 0.0
C1382 C 0.84362 0.32412 0.71454 0.0
C1383 C 0.85996 0.34225 0.70059 0.0
C1384 C 0.82003 0.31418 0.70286 0.0
C1385 C 0.81223 0.32213 0.67695 0.0
C1386 C 0.82849 0.34045 0.66329 0.0
C1387 C 0.8519 0.35027 0.67483 0.0
H1388 H 0.68038 0.71803 0.23384 0.0
H1389 H 0.67204 0.6633 0.16763 0.0
H1390 H 0.7217 0.73531 0.21395 0.0
H1391 H 0.7128 0.68048 0.14804 0.0
H1392 H 0.80026 0.69968 0.1315 0.0
H1393 H 0.76134 0.68157 0.15492 0.0
H1394 H 0.73567 0.76167 0.17406 0.0
H1395 H 0.77448 0.77967 0.15073 0.0
C1396 C 0.68731 0.70964 0.21516 0.0
C1397 C 0.67265 0.68937 0.20235 0.0
C1398 C 0.71095 0.7196 0.2037 0.0
C1399 C 0.72067 0.70925 0.17937 0.0
C1400 C 0.70619 0.68872 0.1669 0.0
C1401 C 0.68257 0.67903 0.17812 0.0
C1402 C 0.7863 0.71338 0.14071 0.0
C1403 C 0.79035 0.7411 0.13903 0.0
C1404 C 0.76396 0.70304 0.15411 0.0
C1405 C 0.74528 0.72016 0.16641 0.0
C1406 C 0.7497 0.74788 0.1651 0.0
C1407 C 0.77185 0.7582 0.15148 0.0
H1408 H 0.37883 0.25688 0.2795 0.0
H1409 H 0.40246 0.23298 0.20021 0.0
H1410 H 0.35598 0.29586 0.26114 0.0
H1411 H 0.37947 0.27206 0.18171 0.0
H1412 H 0.36594 0.3616 0.1644 0.0
H1413 H 0.38543 0.32073 0.18168 0.0
H1414 H 0.31739 0.30985 0.23334 0.0
H1415 H 0.29765 0.35124 0.21601 0.0
C1416 C 0.37914 0.25996 0.2581 0.0
C1417 C 0.39267 0.24194 0.24132 0.0
C1418 C 0.3658 0.2822 0.24755 0.0
C1419 C 0.36585 0.2872 0.21993 0.0
C1420 C 0.37923 0.26901 0.20311 0.0
C1421 C 0.39237 0.24657 0.21367 0.0
C1422 C 0.35498 0.35061 0.17945 0.0
C1423 C 0.3302 0.35999 0.18891 0.0
C1424 C 0.36614 0.32693 0.18921 0.0
C1425 C 0.35303 0.31187 0.20889 0.0
C1426 C 0.32816 0.32107 0.21833 0.0
C1427 C 0.31678 0.34476 0.20833 0.0
H1428 H 0.79622 0.18377 0.81766 0.0
H1429 H 0.86764 0.16887 0.86371 0.0
H1430 H 0.81647 0.22489 0.80017 0.0
H1431 H 0.88723 0.20966 0.847 0.0
H1432 H 0.92794 0.26821 0.79175 0.0
H1433 H 0.90606 0.22766 0.80744 0.0
H1434 H 0.83107 0.26996 0.8122 0.0
H1435 H 0.85303 0.31049 0.79583 0.0
C1436 C 0.81612 0.1892 0.82412 0.0
C1437 C 0.83027 0.1727 0.84197 0.0
C1438 C 0.82771 0.21288 0.81421 0.0
C1439 C 0.85369 0.22059 0.82193 0.0
C1440 C 0.86751 0.20421 0.84003 0.0
C1441 C 0.85608 0.18072 0.84979 0.0
C1442 C 0.90682 0.2689 0.79625 0.0
C1443 C 0.89232 0.29266 0.79276 0.0
C1444 C 0.89421 0.24563 0.80535 0.0
C1445 C 0.86671 0.24541 0.81129 0.0
C1446 C 0.85217 0.26921 0.80762 0.0
C1447 C 0.86483 0.29254 0.7985 0.0
H1448 H 0.64902 0.75844 0.25207 0.0
H1449 H 0.63052 0.73228 0.33204 0.0
H1450 H 0.67191 0.7976 0.26999 0.0
H1451 H 0.65348 0.77158 0.35006 0.0
H1452 H 0.66535 0.86115 0.36822 0.0
H1453 H 0.64589 0.82028 0.35096 0.0
H1454 H 0.71193 0.81161 0.29638 0.0
H1455 H 0.73169 0.85299 0.31375 0.0
C1456 C 0.64983 0.76107 0.27352 0.0
C1457 C 0.63774 0.74236 0.29065 0.0
C1458 C 0.66319 0.78341 0.28379 0.0
C1459 C 0.66456 0.78781 0.31147 0.0
C1460 C 0.65259 0.76896 0.32862 0.0
C1461 C 0.63946 0.74642 0.31833 0.0
C1462 C 0.67587 0.85066 0.35252 0.0
C1463 C 0.70012 0.86062 0.34231 0.0
C1464 C 0.66474 0.82699 0.34278 0.0
C1465 C 0.67732 0.81254 0.32233 0.0
C1466 C 0.70161 0.82235 0.31203 0.0
C1467 C 0.71298 0.84603 0.32204 0.0
H1468 H 0.17402 0.8122 0.72716 0.0
H1469 H 0.10564 0.76521 0.75023 0.0
H1470 H 0.19644 0.77166 0.71128 0.0
H1471 H 0.12808 0.7248 0.73496 0.0
H1472 H 0.16064 0.66393 0.67656 0.0
H1473 H 0.1408 0.7045 0.69353 0.0
H1474 H 0.21697 0.72883 0.72564 0.0
H1475 H 0.23733 0.68773 0.7081 0.0
C1476 C 0.16376 0.79322 0.7288 0.0
C1477 C 0.1379 0.79198 0.73969 0.0
C1478 C 0.17673 0.76994 0.71995 0.0
C1479 C 0.16411 0.74485 0.72171 0.0
C1480 C 0.13831 0.74374 0.73283 0.0
C1481 C 0.1254 0.76694 0.74166 0.0
C1482 C 0.17337 0.67772 0.6873 0.0
C1483 C 0.20073 0.67229 0.69094 0.0
C1484 C 0.16182 0.70109 0.69722 0.0
C1485 C 0.17712 0.72 0.71119 0.0
C1486 C 0.20457 0.71479 0.71484 0.0
C1487 C 0.21622 0.69114 0.70494 0.0
H1488 H 0.83065 0.62949 0.79967 0.0
H1489 H 0.75131 0.65234 0.77512 0.0
H1490 H 0.84913 0.65214 0.76045 0.0
H1491 H 0.76965 0.6748 0.73597 0.0
H1492 H 0.81447 0.73301 0.68043 0.0
H1493 H 0.79704 0.71341 0.72174 0.0
H1494 H 0.84957 0.64574 0.71195 0.0
H1495 H 0.86699 0.66514 0.67112 0.0
C1496 C 0.81718 0.63932 0.7859 0.0
C1497 C 0.78952 0.63891 0.79039 0.0
C1498 C 0.82772 0.65225 0.76338 0.0
C1499 C 0.81088 0.66531 0.74496 0.0
C1500 C 0.78325 0.66523 0.7498 0.0
C1501 C 0.77272 0.65212 0.77214 0.0
C1502 C 0.82231 0.71398 0.68712 0.0
C1503 C 0.84205 0.70066 0.67222 0.0
C1504 C 0.81226 0.70268 0.71077 0.0
C1505 C 0.82193 0.67797 0.72026 0.0
C1506 C 0.84187 0.66492 0.70551 0.0
C1507 C 0.8517 0.67602 0.68186 0.0
H1508 H 0.66242 0.36474 0.17239 0.0
H1509 H 0.71892 0.29983 0.17887 0.0
H1510 H 0.68008 0.38449 0.21292 0.0
H1511 H 0.73667 0.31984 0.21995 0.0
H1512 H 0.78044 0.38283 0.27326 0.0
H1513 H 0.76229 0.35986 0.23425 0.0
H1514 H 0.6824 0.37745 0.26123 0.0
H1515 H 0.70066 0.40058 0.30028 0.0
C1516 C 0.67864 0.35458 0.18244 0.0
C1517 C 0.68929 0.33065 0.17208 0.0
C1518 C 0.68863 0.36589 0.20594 0.0
C1519 C 0.70978 0.35381 0.21986 0.0
C1520 C 0.72049 0.32982 0.20964 0.0
C1521 C 0.71025 0.31827 0.18614 0.0
C1522 C 0.75899 0.38184 0.27086 0.0
C1523 C 0.74199 0.39378 0.28978 0.0
C1524 C 0.74857 0.36842 0.24859 0.0
C1525 C 0.72086 0.36676 0.24447 0.0
C1526 C 0.70386 0.37856 0.26356 0.0
C1527 C 0.71429 0.39179 0.28599 0.0
H1528 H 0.25229 0.88173 0.25702 0.0
H1529 H 0.33195 0.90276 0.23205 0.0
H1530 H 0.27039 0.85873 0.29602 0.0
H1531 H 0.35018 0.87964 0.27115 0.0
H1532 H 0.36814 0.86669 0.36047 0.0
H1533 H 0.35083 0.88627 0.31971 0.0
H1534 H 0.29731 0.81936 0.31014 0.0
H1535 H 0.31474 0.7995 0.35141 0.0
C1536 C 0.27371 0.88145 0.25988 0.0
C1537 C 0.29068 0.8943 0.24155 0.0
C1538 C 0.2841 0.86802 0.28213 0.0
C1539 C 0.31176 0.8673 0.28683 0.0
C1540 C 0.32875 0.88001 0.26833 0.0
C1541 C 0.31835 0.89323 0.24589 0.0
C1542 C 0.3527 0.85598 0.34979 0.0
C1543 C 0.3428 0.83146 0.35949 0.0
C1544 C 0.34291 0.8672 0.32617 0.0
C1545 C 0.32271 0.85444 0.3115 0.0
C1546 C 0.31275 0.82986 0.32104 0.0
C1547 C 0.3228 0.81841 0.34467 0.0
H1548 H 0.1629 0.16914 0.85941 0.0
H1549 H 0.21939 0.23404 0.85263 0.0
H1550 H 0.17979 0.14976 0.81841 0.0
H1551 H 0.23646 0.21429 0.81109 0.0
H1552 H 0.27906 0.14978 0.75774 0.0
H1553 H 0.26167 0.17319 0.79683 0.0
H1554 H 0.18125 0.15816 0.76981 0.0
H1555 H 0.19872 0.13474 0.73059 0.0
C1556 C 0.179 0.17935 0.8492 0.0
C1557 C 0.1899 0.20315 0.8596 0.0
C1558 C 0.18852 0.16826 0.82545 0.0
C1559 C 0.20944 0.18042 0.81133 0.0
C1560 C 0.22041 0.2043 0.82156 0.0
C1561 C 0.21059 0.21567 0.84532 0.0
C1562 C 0.25765 0.15148 0.76013 0.0
C1563 C 0.24025 0.14016 0.74116 0.0
C1564 C 0.24769 0.16513 0.78243 0.0
C1565 C 0.22006 0.16758 0.78654 0.0
C1566 C 0.20265 0.15645 0.76741 0.0
C1567 C 0.21263 0.14303 0.74492 0.0
H1568 H 0.77267 0.75165 0.6496 0.0
H1569 H 0.79967 0.83168 0.63231 0.0
H1570 H 0.7336 0.76968 0.67248 0.0
H1571 H 0.76053 0.84981 0.6553 0.0
H1572 H 0.67144 0.86931 0.66725 0.0
H1573 H 0.71217 0.85186 0.64782 0.0
H1574 H 0.71918 0.79535 0.71257 0.0
H1575 H 0.67791 0.81292 0.73229 0.0
C1576 C 0.77026 0.77314 0.65069 0.0
C1577 C 0.7892 0.79024 0.63891 0.0
C1578 C 0.74795 0.78348 0.66405 0.0
C1579 C 0.7438 0.81122 0.66577 0.0
C1580 C 0.7629 0.82833 0.65414 0.0
C1581 C 0.78538 0.81797 0.64098 0.0
C1582 C 0.68153 0.85314 0.6775 0.0
C1583 C 0.6711 0.84245 0.70136 0.0
C1584 C 0.70514 0.84328 0.66638 0.0
C1585 C 0.71911 0.82221 0.67857 0.0
C1586 C 0.70884 0.81147 0.70251 0.0
C1587 C 0.68522 0.8216 0.71388 0.0
H1588 H 0.76497 0.24171 0.10348 0.0
H1589 H 0.72251 0.23529 0.1781 0.0
H1590 H 0.80563 0.22622 0.12529 0.0
H1591 H 0.76315 0.21917 0.19996 0.0
H1592 H 0.84901 0.21435 0.23522 0.0
H1593 H 0.80796 0.23184 0.21494 0.0
H1594 H 0.82401 0.18632 0.14351 0.0
H1595 H 0.86471 0.16949 0.16318 0.0
C1596 C 0.76427 0.23675 0.12452 0.0
C1597 C 0.74043 0.23951 0.13896 0.0
C1598 C 0.7876 0.22778 0.13708 0.0
C1599 C 0.7878 0.22125 0.16446 0.0
C1600 C 0.76391 0.22421 0.17895 0.0
C1601 C 0.74052 0.23319 0.16635 0.0
C1602 C 0.84379 0.20819 0.21515 0.0
C1603 C 0.86047 0.19063 0.20087 0.0
C1604 C 0.82015 0.2181 0.20356 0.0
C1605 C 0.81266 0.21072 0.17741 0.0
C1606 C 0.82928 0.19299 0.16339 0.0
C1607 C 0.85272 0.18318 0.17486 0.0
H1608 H 0.17885 0.72075 0.29837 0.0
H1609 H 0.17228 0.66404 0.36312 0.0
H1610 H 0.22013 0.73818 0.31834 0.0
H1611 H 0.21291 0.68137 0.38278 0.0
H1612 H 0.30016 0.70113 0.39902 0.0
H1613 H 0.2612 0.68328 0.37547 0.0
H1614 H 0.23452 0.76361 0.35876 0.0
H1615 H 0.27343 0.78136 0.38222 0.0
C1616 C 0.18614 0.71197 0.31675 0.0
C1617 C 0.17198 0.69108 0.32913 0.0
C1618 C 0.20975 0.72202 0.32827 0.0
C1619 C 0.21995 0.71114 0.35219 0.0
C1620 C 0.20595 0.69004 0.36422 0.0
C1621 C 0.18237 0.68025 0.35296 0.0
C1622 C 0.28596 0.71494 0.39033 0.0
C1623 C 0.28979 0.74264 0.39273 0.0
C1624 C 0.26359 0.70475 0.37685 0.0
C1625 C 0.24461 0.722 0.36519 0.0
C1626 C 0.24878 0.74972 0.36721 0.0
C1627 C 0.27099 0.75989 0.3809 0.0
H1628 H 0.2651 0.2896 0.92747 0.0
H1629 H 0.221 0.3013 0.85439 0.0
H1630 H 0.30567 0.30497 0.90551 0.0
H1631 H 0.2616 0.31733 0.8324 0.0
H1632 H 0.34696 0.32096 0.79555 0.0
H1633 H 0.3058 0.30377 0.81581 0.0
H1634 H 0.32462 0.34544 0.88891 0.0
H1635 H 0.36538 0.36201 0.86921 0.0
C1636 C 0.26402 0.29571 0.90675 0.0
C1637 C 0.23976 0.29444 0.89278 0.0
C1638 C 0.28731 0.30461 0.89411 0.0
C1639 C 0.28702 0.31257 0.86712 0.0
C1640 C 0.26271 0.31114 0.85309 0.0
C1641 C 0.23936 0.30222 0.86578 0.0
C1642 C 0.34231 0.32635 0.81596 0.0
C1643 C 0.35976 0.34278 0.83068 0.0
C1644 C 0.31862 0.31662 0.82756 0.0
C1645 C 0.31188 0.323 0.85415 0.0
C1646 C 0.32928 0.33958 0.86863 0.0
C1647 C 0.35275 0.34925 0.85715 0.0
H1648 H 0.60209 0.76738 0.79032 0.0
H1649 H 0.67626 0.8105 0.79781 0.0
H1650 H 0.62391 0.72688 0.80637 0.0
H1651 H 0.69812 0.77004 0.81447 0.0
H1652 H 0.73377 0.68421 0.81921 0.0
H1653 H 0.71343 0.72522 0.80165 0.0
H1654 H 0.64186 0.70877 0.8467 0.0
H1655 H 0.66165 0.66809 0.86366 0.0
C1656 C 0.62303 0.76826 0.79563 0.0
C1657 C 0.63736 0.79222 0.79297 0.0
C1658 C 0.63558 0.74503 0.80493 0.0
C1659 C 0.66285 0.74508 0.81187 0.0
C1660 C 0.67721 0.7691 0.80908 0.0
C1661 C 0.66461 0.79238 0.79979 0.0
C1662 C 0.71368 0.68934 0.82528 0.0
C1663 C 0.6994 0.67257 0.84275 0.0
C1664 C 0.70204 0.71295 0.81533 0.0
C1665 C 0.67583 0.7203 0.82255 0.0
C1666 C 0.6618 0.7036 0.84019 0.0
C1667 C 0.67333 0.68019 0.85008 0.0
H1668 H 0.16502 0.86344 0.16608 0.0
H1669 H 0.23522 0.8495 0.21432 0.0
H1670 H 0.14505 0.82293 0.18299 0.0
H1671 H 0.2146 0.80857 0.23186 0.0
H1672 H 0.17785 0.72288 0.23568 0.0
H1673 H 0.20023 0.76319 0.21939 0.0
H1674 H 0.12544 0.80595 0.22299 0.0
H1675 H 0.10312 0.76561 0.23869 0.0
C1676 C 0.17624 0.85186 0.18051 0.0
C1677 C 0.2018 0.86006 0.18893 0.0
C1678 C 0.16459 0.82853 0.19035 0.0
C1679 C 0.17796 0.81251 0.20908 0.0
C1680 C 0.20373 0.82035 0.21735 0.0
C1681 C 0.21552 0.84389 0.2074 0.0
C1682 C 0.16619 0.74088 0.23278 0.0
C1683 C 0.13863 0.74098 0.2382 0.0
C1684 C 0.17908 0.76407 0.22371 0.0
C1685 C 0.1647 0.78791 0.21975 0.0
C1686 C 0.13714 0.78791 0.22536 0.0
C1687 C 0.1243 0.76478 0.23444 0.0
H1688 H 0.29663 0.18163 0.71729 0.0
H1689 H 0.36312 0.17305 0.66308 0.0
H1690 H 0.31657 0.22296 0.73469 0.0
H1691 H 0.38277 0.21377 0.68037 0.0
H1692 H 0.40001 0.30099 0.69968 0.0
H1693 H 0.37625 0.2623 0.68142 0.0
H1694 H 0.3563 0.23678 0.7613 0.0
H1695 H 0.3799 0.27543 0.77944 0.0
C1696 C 0.31537 0.18852 0.70904 0.0
C1697 C 0.32826 0.17379 0.6889 0.0
C1698 C 0.32687 0.21214 0.71906 0.0
C1699 C 0.3513 0.22177 0.70889 0.0
C1700 C 0.36383 0.20724 0.68847 0.0
C1701 C 0.35257 0.18363 0.67872 0.0
C1702 C 0.39054 0.28711 0.71329 0.0
C1703 C 0.39208 0.29114 0.74099 0.0
C1704 C 0.37695 0.2649 0.70287 0.0
C1705 C 0.36435 0.24633 0.71989 0.0
C1706 C 0.3655 0.25074 0.74758 0.0
C1707 C 0.37928 0.27278 0.75799 0.0
H1708 H 0.86766 0.3626 0.366 0.0
H1709 H 0.79784 0.34978 0.31696 0.0
H1710 H 0.88725 0.32181 0.34923 0.0
H1711 H 0.81806 0.30867 0.29949 0.0
H1712 H 0.85334 0.22265 0.29502 0.0
H1713 H 0.83148 0.26314 0.31156 0.0
H1714 H 0.90712 0.3045 0.30967 0.0
H1715 H 0.92889 0.26397 0.29377 0.0
C1716 C 0.85646 0.3512 0.35144 0.0
C1717 C 0.83111 0.35977 0.34277 0.0
C1718 C 0.86788 0.32772 0.34166 0.0
C1719 C 0.85448 0.31195 0.32273 0.0
C1720 C 0.82894 0.32022 0.31419 0.0
C1721 C 0.81738 0.34387 0.32409 0.0
C1722 C 0.86529 0.24038 0.29836 0.0
C1723 C 0.89292 0.24003 0.29335 0.0
C1724 C 0.8527 0.26368 0.30758 0.0
C1725 C 0.86747 0.28719 0.31208 0.0
C1726 C 0.89511 0.28673 0.3069 0.0
C1727 C 0.90765 0.26349 0.29769 0.0
H1728 H 0.1881 0.34761 0.54119 0.0
H1729 H 0.16149 0.40909 0.48695 0.0
H1730 H 0.2126 0.38142 0.56712 0.0
H1731 H 0.18571 0.44249 0.51247 0.0
H1732 H 0.23969 0.49879 0.55193 0.0
H1733 H 0.22972 0.4588 0.52576 0.0
H1734 H 0.19952 0.42008 0.59656 0.0
H1735 H 0.20985 0.46017 0.62265 0.0
C1736 C 0.18796 0.36817 0.53446 0.0
C1737 C 0.17282 0.3756 0.51198 0.0
C1738 C 0.20181 0.38759 0.54943 0.0
C1739 C 0.20126 0.41476 0.54191 0.0
C1740 C 0.18702 0.42181 0.51874 0.0
C1741 C 0.17294 0.4026 0.50413 0.0
C1742 C 0.2323 0.48119 0.56214 0.0
C1743 C 0.22632 0.48234 0.58949 0.0
C1744 C 0.22609 0.45841 0.54706 0.0
C1745 C 0.21345 0.43623 0.55892 0.0
C1746 C 0.20947 0.43659 0.58676 0.0
C1747 C 0.21565 0.45948 0.60183 0.0
H1748 H 0.32158 0.57384 0.12351 0.0
H1749 H 0.29036 0.53553 0.05318 0.0
H1750 H 0.33172 0.6139 0.09734 0.0
H1751 H 0.3001 0.57553 0.02693 0.0
H1752 H 0.36876 0.62424 0.98756 0.0
H1753 H 0.34419 0.59123 1.0132 0.0
H1754 H 0.31874 0.65266 0.06808 0.0
H1755 H 0.34361 0.68609 0.04204 0.0
C1756 C 0.31542 0.57461 0.10278 0.0
C1757 C 0.30449 0.55183 0.09054 0.0
C1758 C 0.32148 0.59749 0.08767 0.0
C1759 C 0.31707 0.5979 0.05989 0.0
C1760 C 0.30407 0.57585 0.04819 0.0
C1761 C 0.298 0.55307 0.06331 0.0
C1762 C 0.35755 0.63089 1.00482 0.0
C1763 C 0.3582 0.65786 1.01272 0.0
C1764 C 0.34325 0.61192 0.01948 0.0
C1765 C 0.32933 0.61919 0.04276 0.0
C1766 C 0.32927 0.64634 0.0503 0.0
C1767 C 0.34334 0.66553 0.03528 0.0
H1768 H 0.66451 0.12463 0.54363 0.0
H1769 H 0.68742 0.18655 0.48825 0.0
H1770 H 0.68918 0.09188 0.51772 0.0
H1771 H 0.71233 0.15338 0.46189 0.0
H1772 H 0.70842 0.07387 0.40725 0.0
H1773 H 0.69864 0.11406 0.43333 0.0
H1774 H 0.73348 0.07698 0.50291 0.0
H1775 H 0.74299 0.03687 0.47673 0.0
C1776 C 0.67528 0.13136 0.52612 0.0
C1777 C 0.67398 0.15825 0.51803 0.0
C1778 C 0.68962 0.11255 0.5113 0.0
C1779 C 0.70289 0.11991 0.48768 0.0
C1780 C 0.70232 0.14701 0.47995 0.0
C1781 C 0.68824 0.16605 0.49514 0.0
C1782 C 0.71537 0.07499 0.42771 0.0
C1783 C 0.72717 0.05254 0.43976 0.0
C1784 C 0.70952 0.09793 0.44278 0.0
C1785 C 0.71497 0.09871 0.47035 0.0
C1786 C 0.72877 0.07702 0.48181 0.0
C1787 C 0.7347 0.05418 0.46671 0.0
H1788 H 0.84427 0.84683 0.98866 0.0
H1789 H 0.86666 0.90811 0.04496 0.0
H1790 H 0.81992 0.88037 0.96222 0.0
H1791 H 0.84266 0.94124 0.01893 0.0
H1792 H 0.79038 0.99731 0.97709 0.0
H1793 H 0.79939 0.95717 1.00345 0.0
H1794 H 0.83369 0.91938 0.93402 0.0
H1795 H 0.82431 0.95957 0.90775 0.0
C1796 C 0.84345 0.86726 0.99573 0.0
C1797 C 0.85743 0.87477 0.01891 0.0
C1798 C 0.8297 0.88654 0.98048 0.0
C1799 C 0.82922 0.91359 0.9884 0.0
C1800 C 0.84215 0.92064 1.01232 0.0
C1801 C 0.85612 0.90159 0.02722 0.0
C1802 C 0.79853 0.97988 0.96717 0.0
C1803 C 0.80597 0.9813 0.9402 0.0
C1804 C 0.80415 0.95701 0.98237 0.0
C1805 C 0.8176 0.93506 0.971 0.0
C1806 C 0.82308 0.9357 0.94343 0.0
C1807 C 0.81751 0.95867 0.92826 0.0
H1808 H 0.55174 0.2378 0.49869 0.0
H1809 H 0.62269 0.21032 0.45883 0.0
H1810 H 0.52539 0.22815 0.45878 0.0
H1811 H 0.5964 0.20019 0.41883 0.0
H1812 H 0.54056 0.18843 0.34701 0.0
H1813 H 0.56628 0.2131 0.38083 0.0
H1814 H 0.51297 0.18415 0.44202 0.0
H1815 H 0.48762 0.15982 0.40862 0.0
C1816 C 0.5619 0.23094 0.48088 0.0
C1817 C 0.58936 0.22547 0.48163 0.0
C1818 C 0.54676 0.22494 0.45813 0.0
C1819 C 0.55866 0.21299 0.43564 0.0
C1820 C 0.58657 0.20959 0.43563 0.0
C1821 C 0.60173 0.21561 0.45847 0.0
C1822 C 0.53408 0.18787 0.36763 0.0
C1823 C 0.51205 0.17212 0.3751 0.0
C1824 C 0.54892 0.20183 0.38703 0.0
C1825 C 0.54171 0.20074 0.41422 0.0
C1826 C 0.51897 0.18588 0.42133 0.0
C1827 C 0.50448 0.17171 0.40213 0.0
H1828 H 0.98132 0.79804 1.00096 0.0
H1829 H 0.90931 0.8196 0.95928 0.0
H1830 H 1.00748 0.80759 0.96101 0.0
H1831 H 0.93546 0.82977 0.91918 0.0
H1832 H 0.99201 0.84235 0.84756 0.0
H1833 H 0.96672 0.81786 0.88188 0.0
H1834 H 0.01793 0.85104 0.94277 0.0
H1835 H 0.04289 0.87497 0.90899 0.0
C1836 C 0.97096 0.80361 0.98279 0.0
C1837 C 0.94321 0.80743 0.98305 0.0
C1838 C 0.98599 0.80957 0.95998 0.0
C1839 C 0.9737 0.81993 0.93689 0.0
C1840 C 0.94563 0.82166 0.93645 0.0
C1841 C 0.93056 0.81561 0.95937 0.0
C1842 C 0.99813 0.84389 0.86824 0.0
C1843 C 0.0195 0.86068 0.87546 0.0
C1844 C 0.98352 0.83004 0.88794 0.0
C1845 C 0.99027 0.83231 0.91519 0.0
C1846 C 1.01231 0.84831 0.92208 0.0
C1847 C 0.02658 0.86227 0.9026 0.0
H1848 H 0.12329 0.32246 0.5728 0.0
H1849 H 0.05264 0.29438 0.53272 0.0
H1850 H 0.09685 0.33227 0.61275 0.0
H1851 H 0.02615 0.30379 0.57255 0.0
H1852 H 0.98785 0.37179 0.62294 0.0
H1853 H 1.01339 0.34777 0.58947 0.0
H1854 H 0.06671 0.31871 0.65067 0.0
H1855 H 0.04077 0.34302 0.68455 0.0
C1856 C 0.10238 0.31697 0.5731 0.0
C1857 C 0.09015 0.30699 0.5499 0.0
C1858 C 0.08713 0.32282 0.59591 0.0
C1859 C 0.05925 0.31916 0.59583 0.0
C1860 C 0.04748 0.30716 0.57327 0.0
C1861 C 0.06272 0.30129 0.55057 0.0
C1862 C 1.00472 0.35989 0.62942 0.0
C1863 C 1.01222 0.35934 0.65648 0.0
C1864 C 0.01933 0.34592 0.61018 0.0
C1865 C 0.04216 0.33115 0.61727 0.0
C1866 C 0.04929 0.32991 0.64448 0.0
C1867 C 0.03431 0.34365 0.66393 0.0
H1868 H 0.48954 0.68888 0.18526 0.0
H1869 H 0.54331 0.66181 0.1237 0.0
H1870 H 0.4636 0.71347 0.15151 0.0
H1871 H 0.51779 0.68608 0.09038 0.0
H1872 H 0.47829 0.73945 0.03392 0.0
H1873 H 0.50457 0.73011 0.07396 0.0
H1874 H 0.434 0.69998 0.11311 0.0
H1875 H 0.40779 0.70973 0.07298 0.0
C1876 C 0.49617 0.68868 0.16469 0.0
C1877 C 0.51849 0.67337 0.15719 0.0
C1878 C 0.48121 0.70258 0.14532 0.0
C1879 C 0.48859 0.70189 0.11816 0.0
C1880 C 0.51164 0.68751 0.11106 0.0
C1881 C 0.52624 0.67339 0.13021 0.0
C1882 C 0.46817 0.73219 0.0516 0.0
C1883 C 0.44087 0.726 0.05059 0.0
C1884 C 0.48329 0.72638 0.07442 0.0
C1885 C 0.47152 0.71393 0.09673 0.0
C1886 C 0.44372 0.70979 0.09648 0.0
C1887 C 0.4286 0.71558 0.07356 0.0
H1888 H 0.49496 0.55099 0.23265 0.0
H1889 H 0.46116 0.62833 0.21583 0.0
H1890 H 0.45232 0.52976 0.22189 0.0
H1891 H 0.41849 0.60715 0.20457 0.0
H1892 H 0.37754 0.553 0.13855 0.0
H1893 H 0.41094 0.5781 0.16351 0.0
H1894 H 0.40142 0.52448 0.23033 0.0
H1895 H 0.36722 0.4995 0.20523 0.0
C1896 C 0.47796 0.56353 0.22798 0.0
C1897 C 0.48116 0.59135 0.2257 0.0
C1898 C 0.45356 0.55137 0.22162 0.0
C1899 C 0.43203 0.56673 0.21217 0.0
C1900 C 0.43471 0.59476 0.21174 0.0
C1901 C 0.459 0.60695 0.21856 0.0
C1902 C 0.38212 0.54693 0.15881 0.0
C1903 C 0.36973 0.52437 0.16999 0.0
C1904 C 0.40117 0.56141 0.17319 0.0
C1905 C 0.4088 0.55341 0.19899 0.0
C1906 C 0.3959 0.53119 0.21053 0.0
C1907 C 0.37625 0.517 0.19627 0.0
H1908 H 0.90741 0.0449 0.86964 0.0
H1909 H 0.84612 0.99022 0.84362 0.0
H1910 H 0.94076 0.01928 0.84563 0.0
H1911 H 0.87991 0.96419 0.81924 0.0
H1912 H 0.95864 0.90877 0.82269 0.0
H1913 H 0.91848 0.9349 0.83248 0.0
H1914 H 0.95724 1.00563 0.80198 0.0
H1915 H 0.9973 0.97943 0.7926 0.0
C1916 C 0.90095 0.02761 0.85834 0.0
C1917 C 0.87402 0.01966 0.85861 0.0
C1918 C 0.92013 1.01294 0.84435 0.0
C1919 C 0.91314 0.9896 0.83033 0.0
C1920 C 0.88604 0.98201 0.82987 0.0
C1921 C 0.86663 0.99703 0.84365 0.0
C1922 C 0.95798 0.92959 0.81678 0.0
C1923 C 0.98085 0.94192 0.80623 0.0
C1924 C 0.93503 0.94468 0.8226 0.0
C1925 C 0.93465 0.97252 0.81837 0.0
C1926 C 0.95687 0.98433 0.80582 0.0
C1927 C 0.97971 0.96925 0.79997 0.0
H1928 H 0.53806 0.05279 0.29509 0.0
H1929 H 0.56985 0.12841 0.32102 0.0
H1930 H 0.58027 0.03091 0.30655 0.0
H1931 H 0.61198 0.10661 0.33285 0.0
H1932 H 0.64954 0.04818 0.39641 0.0
H1933 H 0.61668 0.0741 0.37168 0.0
H1934 H 0.63226 0.02695 0.30125 0.0
H1935 H 0.66599 1.00109 0.32622 0.0
C1936 C 0.55462 0.06496 0.30185 0.0
C1937 C 0.55094 0.09243 0.30647 0.0
C1938 C 0.57874 0.0524 0.30865 0.0
C1939 C 0.59944 0.06696 0.32082 0.0
C1940 C 0.59641 0.09482 0.32356 0.0
C1941 C 0.57244 0.10741 0.31641 0.0
C1942 C 0.64631 0.04359 0.37551 0.0
C1943 C 0.66033 0.02259 0.36326 0.0
C1944 C 0.62759 0.05859 0.36126 0.0
C1945 C 0.62191 0.05274 0.33441 0.0
C1946 C 0.63627 0.032 0.32189 0.0
C1947 C 0.65561 0.01729 0.3361 0.0
H1948 H 0.14934 0.48542 0.63401 0.0
H1949 H 0.16739 0.52992 0.70549 0.0
H1950 H 0.11678 0.45887 0.65835 0.0
H1951 H 0.13398 0.50336 0.73013 0.0
H1952 H 0.04015 0.47724 0.73811 0.0
H1953 H 0.08208 0.4995 0.72636 0.0
H1954 H 0.11252 0.42499 0.69556 0.0
H1955 H 0.07067 0.40285 0.7076 0.0
C1956 C 0.14654 0.4893 0.65511 0.0
C1957 C 0.16095 0.50977 0.66782 0.0
C1958 C 0.12797 0.47392 0.66913 0.0
C1959 C 0.12282 0.47882 0.69627 0.0
C1960 C 0.13755 0.49903 0.70925 0.0
C1961 C 0.15674 0.51414 0.69523 0.0
C1962 C 0.05641 0.46535 0.73026 0.0
C1963 C 0.05243 0.43814 0.72447 0.0
C1964 C 0.08037 0.47814 0.72329 0.0
C1965 C 0.10061 0.4641 0.7098 0.0
C1966 C 0.09732 0.43642 0.70585 0.0
C1967 C 0.07352 0.42359 0.71313 0.0
H1968 H 0.83176 0.56997 0.4027 0.0
H1969 H 0.78909 0.54339 0.47241 0.0
H1970 H 0.84393 0.61125 0.42572 0.0
H1971 H 0.80112 0.58494 0.4956 0.0
H1972 H 0.82633 0.67211 0.52422 0.0
H1973 H 0.80196 0.63911 0.49678 0.0
H1974 H 0.87677 0.61048 0.46524 0.0
H1975 H 0.90076 0.64254 0.49249 0.0
C1976 C 0.82369 0.57367 0.42243 0.0
C1977 C 0.80894 0.55377 0.43552 0.0
C1978 C 0.83097 0.59715 0.43578 0.0
C1979 C 0.8237 0.60127 0.46259 0.0
C1980 C 0.80682 0.58248 0.4749 0.0
C1981 C 0.79971 0.55879 0.46155 0.0
C1982 C 0.83743 0.65886 0.51124 0.0
C1983 C 0.8655 0.65988 0.51068 0.0
C1984 C 0.82352 0.63996 0.49562 0.0
C1985 C 0.83743 0.62236 0.47862 0.0
C1986 C 0.86538 0.62396 0.47776 0.0
C1987 C 0.87917 0.64225 0.49362 0.0
H1988 H 0.71113 0.46083 0.903 0.0
H1989 H 0.73685 0.49362 0.97821 0.0
H1990 H 0.69949 0.41884 0.92524 0.0
H1991 H 0.72553 0.45158 1.00054 0.0
H1992 H 0.63594 0.38163 0.98347 0.0
H1993 H 0.66063 0.41443 0.95749 0.0
H1994 H 0.73079 0.39968 1.00529 0.0
H1995 H 0.70586 0.36602 0.03126 0.0
C1996 C 0.71574 0.45849 0.92402 0.0
C1997 C 0.72552 0.48024 0.93875 0.0
C1998 C 0.70869 0.4346 0.93686 0.0
C1999 C 0.71136 0.43192 0.96473 0.0
C2000 C 0.72346 0.45284 0.97905 0.0
C2001 C 0.73018 0.47687 0.96623 0.0
C2002 C 0.65676 0.38506 0.98824 0.0
C2003 C 0.66894 0.37129 1.00946 0.0
C2004 C 0.67099 0.40373 0.97319 0.0
C2005 C 0.69777 0.40959 0.97915 0.0
C2006 C 0.71021 0.39553 1.00015 0.0
C2007 C 0.69602 0.37623 1.01493 0.0
H2008 H 0.32367 0.96212 0.62919 0.0
H2009 H 0.2923 0.99316 0.55539 0.0
H2010 H 0.3359 0.92053 0.60659 0.0
H2011 H 0.30421 0.95143 0.53269 0.0
H2012 H 0.32547 0.86533 0.50255 0.0
H2013 H 0.30078 0.89877 0.52908 0.0
H2014 H 0.37306 0.91776 0.57194 0.0
H2015 H 0.39746 0.88524 0.54541 0.0
C2016 C 0.31799 0.95942 0.60849 0.0
C2017 C 0.30638 0.9806 0.59423 0.0
C2018 C 0.32537 0.93577 0.59541 0.0
C2019 C 0.32122 0.93272 0.56777 0.0
C2020 C 0.30743 0.95299 0.55402 0.0
C2021 C 0.30038 0.97682 0.56706 0.0
C2022 C 0.33587 0.87647 0.51789 0.0
C2023 C 0.36342 0.87275 0.5218 0.0
C2024 C 0.32181 0.89564 0.53299 0.0
C2025 C 0.3349 0.91078 0.5528 0.0
C2026 C 0.36222 0.90623 0.55718 0.0
C2027 C 0.37628 0.88771 0.54179 0.0
H2028 H 0.19959 0.06985 0.12772 0.0
H2029 H 0.24033 0.04269 0.05709 0.0
H2030 H 0.18733 0.11125 0.10488 0.0
H2031 H 0.22828 0.08436 0.0341 0.0
H2032 H 0.2046 0.17172 1.00566 0.0
H2033 H 0.22864 0.13814 0.03273 0.0
H2034 H 0.15381 0.11203 0.06633 0.0
H2035 H 0.13014 0.14467 0.03945 0.0
C2036 C 0.20719 0.07342 0.10778 0.0
C2037 C 0.2215 0.05336 0.09442 0.0
C2038 C 0.19986 0.09697 0.09454 0.0
C2039 C 0.20665 0.10104 0.06759 0.0
C2040 C 0.22297 0.08198 0.05492 0.0
C2041 C 0.23007 0.05821 0.06814 0.0
C2042 C 0.19345 0.15893 0.01905 0.0
C2043 C 0.16545 0.16081 0.02029 0.0
C2044 C 0.20716 0.13968 0.03444 0.0
C2045 C 0.19315 0.12257 0.05188 0.0
C2046 C 0.16529 0.12509 0.05347 0.0
C2047 C 0.15168 0.14373 0.03783 0.0
H2048 H 0.48683 0.8445 0.68633 0.0
H2049 H 0.54237 0.86701 0.62453 0.0
H2050 H 0.46027 0.81975 0.65318 0.0
H2051 H 0.51629 0.84247 0.5918 0.0
H2052 H 0.4751 0.78853 0.53701 0.0
H2053 H 0.5012 0.79801 0.57714 0.0
H2054 H 0.43187 0.83376 0.61365 0.0
H2055 H 0.40585 0.82403 0.57341 0.0
C2056 C 0.49372 0.84361 0.66586 0.0
C2057 C 0.51673 0.85771 0.65809 0.0
C2058 C 0.47842 0.82962 0.64683 0.0
C2059 C 0.48614 0.82899 0.61978 0.0
C2060 C 0.50986 0.84209 0.61244 0.0
C2061 C 0.52479 0.85634 0.63124 0.0
C2062 C 0.46509 0.79702 0.5542 0.0
C2063 C 0.43824 0.80481 0.55237 0.0
C2064 C 0.48015 0.80292 0.57705 0.0
C2065 C 0.46876 0.81696 0.59858 0.0
C2066 C 0.44126 0.82269 0.59764 0.0
C2067 C 0.42622 0.81686 0.57467 0.0
H2068 H 1.0018 0.20766 0.16667 0.0
H2069 H 0.04991 0.13804 0.15055 0.0
H2070 H 0.02709 0.23281 0.1327 0.0
H2071 H 0.07517 0.16292 0.11736 0.0
H2072 H 0.12784 0.21383 0.06895 0.0
H2073 H 0.10692 0.20165 0.1114 0.0
H2074 H 0.03064 0.22782 0.08116 0.0
H2075 H 0.05165 0.23962 0.03864 0.0
C2076 C 0.01812 0.19796 0.15635 0.0
C2077 C 0.02385 0.17088 0.16124 0.0
C2078 C 0.03249 0.21226 0.13683 0.0
C2079 C 0.0533 0.19995 0.12241 0.0
C2080 C 0.05962 0.17322 0.1283 0.0
C2081 C 0.04499 0.15887 0.14723 0.0
C2082 C 0.10691 0.21837 0.07194 0.0
C2083 C 0.09153 0.22839 0.05076 0.0
C2084 C 0.0948 0.21098 0.09609 0.0
C2085 C 0.06704 0.21359 0.09965 0.0
C2086 C 0.05207 0.22582 0.07925 0.0
C2087 C 0.06414 0.23282 0.05495 0.0
H2088 H 0.02994 0.70849 0.36515 0.0
H2089 H 0.98421 0.63764 0.3828 0.0
H2090 H 1.00378 0.7335 0.39857 0.0
H2091 H 0.95805 0.66237 0.41538 0.0
H2092 H 0.90305 0.7123 0.46175 0.0
H2093 H 0.92488 0.70027 0.41974 0.0
H2094 H 0.99984 0.72951 0.45043 0.0
H2095 H 0.97791 0.74122 0.49251 0.0
C2096 C 1.01399 0.69845 0.37574 0.0
C2097 C 1.00918 0.6711 0.37142 0.0
C2098 C 0.9991 0.71269 0.39492 0.0
C2099 C 0.97865 0.7 0.40952 0.0
C2100 C 0.97331 0.67293 0.40427 0.0
C2101 C 0.98847 0.65868 0.38571 0.0
C2102 C 0.92383 0.71757 0.45892 0.0
C2103 C 0.9386 0.7284 0.48013 0.0
C2104 C 0.93647 0.71026 0.43502 0.0
C2105 C 0.96418 0.71372 0.43177 0.0
C2106 C 0.97846 0.72682 0.45211 0.0
C2107 C 0.96585 0.73379 0.47615 0.0
H2108 H 0.54936 0.39607 0.88152 0.0
H2109 H 0.50395 0.32511 0.86348 0.0
H2110 H 0.57581 0.37125 0.91379 0.0
H2111 H 0.5305 0.29995 0.89651 0.0
H2112 H 0.55648 0.29059 0.9899 0.0
H2113 H 0.53465 0.30266 0.94786 0.0
H2114 H 0.60916 0.3343 0.91856 0.0
H2115 H 0.63086 0.32201 0.96058 0.0
C2116 C 0.54527 0.37497 0.88423 0.0
C2117 C 0.52453 0.36257 0.86994 0.0
C2118 C 0.56061 0.36065 0.90264 0.0
C2119 C 0.55546 0.33351 0.9077 0.0
C2120 C 0.53503 0.32082 0.89303 0.0
C2121 C 0.51992 0.33515 0.87404 0.0
C2122 C 0.5685 0.29865 0.97384 0.0
C2123 C 0.59556 0.30463 0.97824 0.0
C2124 C 0.55593 0.30583 0.9498 0.0
C2125 C 0.57006 0.31971 0.92988 0.0
C2126 C 0.59765 0.32375 0.93352 0.0
C2127 C 0.61025 0.31628 0.95741 0.0
H2128 H 0.53452 0.47887 0.79089 0.0
H2129 H 0.57297 0.40811 0.82111 0.0
H2130 H 0.57453 0.50501 0.80063 0.0
H2131 H 0.61307 0.43419 0.83126 0.0
H2132 H 0.68514 0.48981 0.8432 0.0
H2133 H 0.6517 0.46388 0.81821 0.0
H2134 H 0.59025 0.51802 0.84506 0.0
H2135 H 0.62326 0.54351 0.86978 0.0
C2136 C 0.55209 0.46864 0.7983 0.0
C2137 C 0.55089 0.44132 0.80454 0.0
C2138 C 0.57488 0.48369 0.80436 0.0
C2139 C 0.59697 0.47183 0.8171 0.0
C2140 C 0.5966 0.44398 0.82122 0.0
C2141 C 0.57371 0.42892 0.81516 0.0
C2142 C 0.66457 0.49642 0.84321 0.0
C2143 C 0.65688 0.51873 0.85849 0.0
C2144 C 0.64538 0.48147 0.82907 0.0
C2145 C 0.61823 0.48886 0.82948 0.0
C2146 C 0.61094 0.51188 0.84385 0.0
C2147 C 0.62991 0.52646 0.85823 0.0
H2148 H 0.07355 0.12568 0.20931 0.0
H2149 H 0.03613 0.05603 0.24311 0.0
H2150 H 0.11356 0.09941 0.19944 0.0
H2151 H 0.07609 0.02969 0.23362 0.0
H2152 H 0.12366 0.98885 0.16488 0.0
H2153 H 0.09102 1.01493 0.18948 0.0
H2154 H 0.15261 0.07057 0.21282 0.0
H2155 H 0.18565 0.04404 0.18796 0.0
C2156 C 0.07453 0.10513 0.21609 0.0
C2157 C 0.05201 0.09308 0.22765 0.0
C2158 C 0.09738 0.08995 0.21019 0.0
C2159 C 0.09799 0.06229 0.21541 0.0
C2160 C 0.07624 0.05085 0.22905 0.0
C2161 C 0.05349 0.06603 0.23496 0.0
C2162 C 0.13042 1.00635 0.17568 0.0
C2163 C 0.1573 1.01432 0.17447 0.0
C2164 C 0.11168 0.02128 0.18998 0.0
C2165 C 0.1191 0.0449 0.20329 0.0
C2166 C 0.14619 0.05251 0.20279 0.0
C2167 C 0.16515 0.03722 0.18875 0.0
H2168 H 0.49663 0.97798 0.74008 0.0
H2169 H 0.45718 0.90821 0.70889 0.0
H2170 H 0.45673 1.0047 0.73129 0.0
H2171 H 0.41721 0.93485 0.69975 0.0
H2172 H 0.34538 0.99056 0.68956 0.0
H2173 H 0.37903 0.96422 0.71384 0.0
H2174 H 0.44019 0.01904 0.68769 0.0
H2175 H 0.40695 0.04496 0.6637 0.0
C2176 C 0.4789 0.96809 0.73261 0.0
C2177 C 0.47976 0.94088 0.72584 0.0
C2178 C 0.45616 0.98347 0.72712 0.0
C2179 C 0.43378 0.97206 0.71446 0.0
C2180 C 0.43389 0.9443 0.70973 0.0
C2181 C 0.45673 0.92893 0.71518 0.0
C2182 C 0.36593 0.99726 0.6896 0.0
C2183 C 0.37347 0.01986 0.67469 0.0
C2184 C 0.38524 0.98207 0.70331 0.0
C2185 C 0.41239 0.98948 0.70282 0.0
C2186 C 0.41952 1.01285 0.68894 0.0
C2187 C 0.40042 0.02769 0.675 0.0
H2188 H 0.99606 0.55679 0.29001 0.0
H2189 H 0.95824 0.62603 0.32419 0.0
H2190 H 0.95632 0.53012 0.29953 0.0
H2191 H 0.91839 0.59944 0.33397 0.0
H2192 H 0.84635 0.5436 0.3441 0.0
H2193 H 0.87953 0.57042 0.31977 0.0
H2194 H 0.94118 0.51515 0.34379 0.0
H2195 H 0.90839 0.48877 0.36793 0.0
C2196 C 0.97866 0.56663 0.29826 0.0
C2197 C 0.97995 0.59367 0.30562 0.0
C2198 C 0.95604 0.55125 0.30418 0.0
C2199 C 0.93419 0.56251 0.31783 0.0
C2200 C 0.93465 0.59014 0.3232 0.0
C2201 C 0.95739 0.6055 0.31735 0.0
C2202 C 0.86689 0.53691 0.34359 0.0
C2203 C 0.8747 0.51401 0.35792 0.0
C2204 C 0.88594 0.55238 0.32985 0.0
C2205 C 0.91308 0.54495 0.3297 0.0
C2206 C 0.92049 0.52135 0.34305 0.0
C2207 C 0.90166 0.50625 0.35707 0.0
H2208 H 0.2931 0.17167 0.59394 0.0
H2209 H 0.21817 0.13054 0.60465 0.0
H2210 H 0.27228 0.20127 0.56113 0.0
H2211 H 0.19757 0.15982 0.57093 0.0
H2212 H 0.18761 0.20158 0.48373 0.0
H2213 H 0.20776 0.1706 0.51621 0.0
H2214 H 0.23058 0.23735 0.56556 0.0
H2215 H 0.20956 0.26815 0.53383 0.0
C2216 C 0.27223 0.16873 0.58916 0.0
C2217 C 0.25738 0.14857 0.60206 0.0
C2218 C 0.26029 0.1858 0.57036 0.0
C2219 C 0.23331 0.18286 0.56331 0.0
C2220 C 0.21846 0.16249 0.5758 0.0
C2221 C 0.23024 0.14579 0.5952 0.0
C2222 C 0.19702 0.20963 0.50146 0.0
C2223 C 0.19699 0.2374 0.50611 0.0
C2224 C 0.20838 0.19188 0.52014 0.0
C2225 C 0.22072 0.2015 0.54351 0.0
C2226 C 0.22124 0.22928 0.54779 0.0
C2227 C 0.20919 0.24692 0.52958 0.0
H2228 H 0.24002 0.88397 0.07548 0.0
H2229 H 0.31198 0.88205 0.12289 0.0
H2230 H 0.26068 0.85458 0.0427 0.0
H2231 H 0.33279 0.85284 0.08981 0.0
H2232 H 0.35028 0.77646 0.0426 0.0
H2233 H 0.33011 0.80751 0.0738 0.0
H2234 H 0.2946 0.85071 1.0082 0.0
H2235 H 0.3147 0.81919 0.97662 0.0
C2236 C 0.26035 0.87748 0.0789 0.0
C2237 C 0.27421 0.88551 0.10209 0.0
C2238 C 0.2723 0.86065 0.05988 0.0
C2239 C 0.29848 0.85109 0.06343 0.0
C2240 C 0.31249 0.85942 0.08643 0.0
C2241 C 0.30059 0.8764 0.1054 0.0
C2242 C 0.33817 0.7925 0.0346 0.0
C2243 C 0.33426 0.79511 1.00681 0.0
C2244 C 0.32671 0.81057 0.05267 0.0
C2245 C 0.31079 0.83193 0.04374 0.0
C2246 C 0.30657 0.83446 1.01597 0.0
C2247 C 0.3182 0.81639 0.99777 0.0
H2248 H 0.68079 0.27658 0.48874 0.0
H2249 H 0.71726 0.31857 0.55467 0.0
H2250 H 0.70133 0.3074 0.45753 0.0
H2251 H 0.7377 0.34988 0.52311 0.0
H2252 H 0.7923 0.38308 0.45587 0.0
H2253 H 0.77144 0.35373 0.48859 0.0
H2254 H 0.69932 0.35264 0.44146 0.0
H2255 H 0.72034 0.38179 0.40845 0.0
C2256 C 0.69317 0.29242 0.49673 0.0
C2257 C 0.6972 0.29487 0.52452 0.0
C2258 C 0.70484 0.31036 0.47865 0.0
C2259 C 0.72111 0.33147 0.48757 0.0
C2260 C 0.72546 0.33384 0.51533 0.0
C2261 C 0.71362 0.31588 0.53353 0.0
C2262 C 0.77193 0.37673 0.45243 0.0
C2263 C 0.75814 0.38494 0.42925 0.0
C2264 C 0.75986 0.35993 0.47141 0.0
C2265 C 0.73361 0.35055 0.46786 0.0
C2266 C 0.71968 0.35904 0.44486 0.0
C2267 C 0.7317 0.376 0.42592 0.0
H2268 H 0.81079 0.65084 0.90883 0.0
H2269 H 0.73869 0.65029 0.95594 0.0
H2270 H 0.83195 0.67994 0.94179 0.0
H2271 H 0.75971 0.67959 0.98864 0.0
H2272 H 0.8142 0.71415 0.05487 0.0
H2273 H 0.79354 0.68302 0.02326 0.0
H2274 H 0.83027 0.72526 0.95777 0.0
H2275 H 0.85102 0.75593 0.98903 0.0
C2276 C 0.79943 0.65679 0.92622 0.0
C2277 C 0.77291 0.64806 0.92949 0.0
C2278 C 0.81154 0.67371 0.94513 0.0
C2279 C 0.79762 0.68238 0.96805 0.0
C2280 C 0.77128 0.67324 0.97152 0.0
C2281 C 0.75912 0.65647 0.95256 0.0
C2282 C 0.81787 0.71683 0.03374 0.0
C2283 C 0.83444 0.73773 0.02476 0.0
C2284 C 0.8059 0.69898 1.01552 0.0
C2285 C 0.81027 0.70135 0.98776 0.0
C2286 C 0.82672 0.72232 0.97889 0.0
C2287 C 0.83852 0.74017 0.99699 0.0
H2288 H 0.54198 0.18193 0.25651 0.0
H2289 H 0.47608 0.21752 0.21371 0.0
H2290 H 0.57319 0.20199 0.22544 0.0
H2291 H 0.50769 0.23752 0.18216 0.0
H2292 H 0.57522 0.29178 0.14854 0.0
H2293 H 0.54234 0.27137 0.17801 0.0
H2294 H 0.58914 0.19899 0.18021 0.0
H2295 H 0.6223 0.21955 0.15094 0.0
C2296 C 0.534 0.19403 0.24045 0.0
C2297 C 0.50622 0.19796 0.23784 0.0
C2298 C 0.55208 0.20542 0.22237 0.0
C2299 C 0.54318 0.2213 0.20096 0.0
C2300 C 0.51543 0.22557 0.19843 0.0
C2301 C 0.49722 0.214 0.21653 0.0
C2302 C 0.57855 0.27144 0.15516 0.0
C2303 C 0.60168 0.25744 0.14724 0.0
C2304 C 0.55948 0.25964 0.17202 0.0
C2305 C 0.56291 0.23347 0.18175 0.0
C2306 C 0.58585 0.2193 0.17352 0.0
C2307 C 0.60487 0.23106 0.1565 0.0
H2308 H 0.95464 0.73967 0.6504 0.0
H2309 H 0.90764 0.81198 0.65141 0.0
H2310 H 0.98744 0.76048 0.67968 0.0
H2311 H 0.94074 0.83295 0.68054 0.0
H2312 H 0.98841 0.85135 0.75648 0.0
H2313 H 0.95695 0.83087 0.72584 0.0
H2314 H 0.02213 0.79429 0.68306 0.0
H2315 H 0.05394 0.81469 0.71414 0.0
C2316 C 0.95129 0.76011 0.6567 0.0
C2317 C 0.92822 0.77402 0.64841 0.0
C2318 C 0.97033 0.77214 0.67345 0.0
C2319 C 0.96694 0.79849 0.68271 0.0
C2320 C 0.94401 0.81253 0.6742 0.0
C2321 C 0.92502 0.80054 0.65727 0.0
C2322 C 0.99626 0.83892 0.74063 0.0
C2323 C 0.024 0.83482 0.738 0.0
C2324 C 0.97804 0.82729 0.72279 0.0
C2325 C 0.98677 0.81097 0.70166 0.0
C2326 C 1.0145 0.80656 0.69913 0.0
C2327 C 0.03283 0.81837 0.71695 0.0
H2328 H 0.98195 0.34064 0.82967 0.0
H2329 H 0.03484 0.32392 0.76384 0.0
H2330 H 1.01459 0.32085 0.8607 0.0
H2331 H 0.06677 0.3034 0.79462 0.0
H2332 H 0.09697 0.23975 0.85791 0.0
H2333 H 0.06385 0.26017 0.82843 0.0
H2334 H 0.06831 0.33329 0.87364 0.0
H2335 H 0.10237 0.31312 0.90286 0.0
C2336 C 1.00032 0.33246 0.82176 0.0
C2337 C 1.00568 0.33387 0.79419 0.0
C2338 C 0.0191 0.32133 0.83956 0.0
C2339 C 0.04334 0.31064 0.83014 0.0
C2340 C 0.04834 0.31145 0.80254 0.0
C2341 C 0.02998 0.32321 0.78489 0.0
C2342 C 0.09097 0.2602 0.86167 0.0
C2343 C 0.10247 0.27474 0.88287 0.0
C2344 C 0.07198 0.2719 0.84469 0.0
C2345 C 0.06331 0.2983 0.84874 0.0
C2346 C 0.07444 0.31284 0.87011 0.0
C2347 C 0.09406 0.30133 0.88675 0.0
H2348 H 0.48908 0.68198 0.27581 0.0
H2349 H 0.55483 0.71773 0.31865 0.0
H2350 H 0.45776 0.7022 0.30669 0.0
H2351 H 0.52313 0.7379 0.34998 0.0
H2352 H 0.4557 0.79251 0.38311 0.0
H2353 H 0.48856 0.77185 0.35381 0.0
H2354 H 0.44152 0.69964 0.35188 0.0
H2355 H 0.40838 0.72045 0.38102 0.0
C2356 C 0.49701 0.69415 0.29183 0.0
C2357 C 0.52478 0.69807 0.29451 0.0
C2358 C 0.47886 0.70563 0.30981 0.0
C2359 C 0.48768 0.72164 0.33116 0.0
C2360 C 0.51543 0.72587 0.33376 0.0
C2361 C 0.53371 0.71419 0.31578 0.0
C2362 C 0.4523 0.77216 0.37659 0.0
C2363 C 0.42912 0.75828 0.38457 0.0
C2364 C 0.47137 0.76021 0.35982 0.0
C2365 C 0.46789 0.73399 0.35022 0.0
C2366 C 0.44487 0.71997 0.35847 0.0
C2367 C 0.42586 0.73187 0.37542 0.0
H2368 H 0.14958 0.62347 0.21896 0.0
H2369 H 0.14764 0.57664 0.29134 0.0
H2370 H 0.17868 0.59013 0.19841 0.0
H2371 H 0.17692 0.54355 0.27091 0.0
H2372 H 0.21253 0.47702 0.21709 0.0
H2373 H 0.18095 0.50866 0.23708 0.0
H2374 H 0.22398 0.57429 0.20144 0.0
H2375 H 0.25506 0.54308 0.18143 0.0
C2376 C 0.15519 0.60604 0.2305 0.0
C2377 C 0.14613 0.60299 0.25692 0.0
C2378 C 0.17211 0.58692 0.21875 0.0
C2379 C 0.18043 0.564 0.23295 0.0
C2380 C 0.17087 0.56068 0.25916 0.0
C2381 C 0.15412 0.57987 0.27097 0.0
C2382 C 0.21528 0.49819 0.21353 0.0
C2383 C 0.23653 0.50723 0.19749 0.0
C2384 C 0.19717 0.51642 0.22509 0.0
C2385 C 0.19962 0.54422 0.22079 0.0
C2386 C 0.22096 0.55314 0.20489 0.0
C2387 C 0.23905 0.53505 0.19353 0.0
H2388 H 0.64996 0.90962 0.81111 0.0
H2389 H 0.64812 0.95703 0.73912 0.0
H2390 H 0.67922 0.94263 0.83195 0.0
H2391 H 0.67757 0.98985 0.75985 0.0
H2392 H 0.71285 0.05595 0.81452 0.0
H2393 H 0.68151 0.02441 0.79401 0.0
H2394 H 0.7245 0.95859 0.8294 0.0
H2395 H 0.75538 0.98976 0.84996 0.0
C2396 C 0.65564 0.92711 0.79971 0.0
C2397 C 0.64652 0.93043 0.77331 0.0
C2398 C 0.67267 0.94605 0.81163 0.0
C2399 C 0.68104 0.96907 0.79765 0.0
C2400 C 0.67148 0.97263 0.77145 0.0
C2401 C 0.65462 0.95361 0.75946 0.0
C2402 C 0.71565 0.03476 0.81791 0.0
C2403 C 0.73683 0.02566 0.83406 0.0
C2404 C 0.69768 1.01659 0.80603 0.0
C2405 C 0.70018 0.98876 0.81009 0.0
C2406 C 0.72145 0.97976 0.8261 0.0
C2407 C 0.73942 0.99781 0.83779 0.0
H2408 H 0.7758 0.04282 0.3496 0.0
H2409 H 0.81716 0.97652 0.31306 0.0
H2410 H 0.80669 0.07385 0.32895 0.0
H2411 H 0.84854 1.00795 0.29243 0.0
H2412 H 0.88231 0.07595 0.23823 0.0
H2413 H 0.85266 0.04308 0.25865 0.0
H2414 H 0.85218 0.08907 0.33152 0.0
H2415 H 0.88158 0.12209 0.31104 0.0
C2416 C 0.79149 0.03471 0.33715 0.0
C2417 C 0.79378 1.00687 0.33319 0.0
C2418 C 0.80948 0.05268 0.32541 0.0
C2419 C 0.83046 0.04363 0.3091 0.0
C2420 C 0.83261 1.01582 0.30472 0.0
C2421 C 0.81462 0.99771 0.31666 0.0
C2422 C 0.87602 0.07908 0.25867 0.0
C2423 C 0.88448 0.10193 0.27286 0.0
C2424 C 0.85904 0.06003 0.27047 0.0
C2425 C 0.84974 0.06326 0.29681 0.0
C2426 C 0.8585 0.08594 0.3111 0.0
C2427 C 0.87562 0.10488 0.29937 0.0
H2428 H 0.31808 0.55587 0.71756 0.0
H2429 H 0.27632 0.48994 0.68077 0.0
H2430 H 0.34922 0.5242 0.7382 0.0
H2431 H 0.307 0.45865 0.70146 0.0
H2432 H 0.38137 0.40962 0.72042 0.0
H2433 H 0.35224 0.44272 0.69953 0.0
H2434 H 0.35298 0.48934 0.77199 0.0
H2435 H 0.38232 0.45644 0.79278 0.0
C2436 C 0.3154 0.53471 0.71389 0.0
C2437 C 0.29449 0.52573 0.69733 0.0
C2438 C 0.33326 0.51645 0.72585 0.0
C2439 C 0.33092 0.48866 0.72147 0.0
C2440 C 0.30993 0.47979 0.70504 0.0
C2441 C 0.29207 0.49792 0.69327 0.0
C2442 C 0.37551 0.42698 0.7319 0.0
C2443 C 0.38436 0.43011 0.75841 0.0
C2444 C 0.35855 0.44598 0.71994 0.0
C2445 C 0.34997 0.46888 0.73399 0.0
C2446 C 0.35924 0.47224 0.76033 0.0
C2447 C 0.37604 0.45316 0.77235 0.0
H2448 H 0.84904 0.77596 0.48984 0.0
H2449 H 0.81276 0.81817 0.55569 0.0
H2450 H 0.82878 0.80694 0.45858 0.0
H2451 H 0.79251 0.8496 0.52403 0.0
H2452 H 0.73821 0.88275 0.4561 0.0
H2453 H 0.75873 0.85334 0.48905 0.0
H2454 H 0.8314 0.85245 0.44289 0.0
H2455 H 0.81076 0.88169 0.40969 0.0
C2456 C 0.83673 0.79186 0.4978 0.0
C2457 C 0.83268 0.79434 0.52558 0.0
C2458 C 0.82522 0.80989 0.4797 0.0
C2459 C 0.80907 0.8311 0.48856 0.0
C2460 C 0.80467 0.83349 0.51631 0.0
C2461 C 0.81639 0.81546 0.53455 0.0
C2462 C 0.75863 0.87643 0.45292 0.0
C2463 C 0.7727 0.88472 0.42997 0.0
C2464 C 0.77049 0.85959 0.47204 0.0
C2465 C 0.79679 0.85026 0.4688 0.0
C2466 C 0.811 0.85883 0.44603 0.0
C2467 C 0.79919 0.87584 0.42698 0.0
H2468 H 0.69025 0.20119 0.0487 0.0
H2469 H 0.71147 0.26779 0.99833 0.0
H2470 H 0.70987 0.17024 1.01588 0.0
H2471 H 0.73182 0.23706 0.96624 0.0
H2472 H 0.79369 0.17233 0.93606 0.0
H2473 H 0.77331 0.20168 0.96926 0.0
H2474 H 0.69909 0.15889 0.96169 0.0
H2475 H 0.71927 0.12979 0.92753 0.0
C2476 C 0.69941 0.20926 0.03086 0.0
C2477 C 0.69932 0.23705 0.02627 0.0
C2478 C 0.71043 0.19152 1.01195 0.0
C2479 C 0.72233 0.20116 0.98836 0.0
C2480 C 0.72282 0.22895 0.98415 0.0
C2481 C 0.71117 0.24657 1.0026 0.0
C2482 C 0.773 0.16905 0.94138 0.0
C2483 C 0.75819 0.14855 0.92897 0.0
C2484 C 0.76132 0.18598 0.96043 0.0
C2485 C 0.73461 0.18259 0.96827 0.0
C2486 C 0.71978 0.16191 0.95623 0.0
C2487 C 0.7313 0.14533 0.93655 0.0
H2488 H 0.31153 0.62957 0.60332 0.0
H2489 H 0.23788 0.67371 0.59649 0.0
H2490 H 0.33184 0.65878 0.56933 0.0
H2491 H 0.25844 0.70323 0.56346 0.0
H2492 H 0.32239 0.76837 0.53502 0.0
H2493 H 0.30177 0.73759 0.56692 0.0
H2494 H 0.31962 0.67134 0.51498 0.0
H2495 H 0.33947 0.70236 0.48236 0.0
C2496 C 0.2997 0.64549 0.59471 0.0
C2497 C 0.27298 0.64912 0.60272 0.0
C2498 C 0.3113 0.66214 0.57512 0.0
C2499 C 0.29674 0.68332 0.5636 0.0
C2500 C 0.27021 0.68713 0.57187 0.0
C2501 C 0.25842 0.67011 0.59082 0.0
C2502 C 0.32175 0.74727 0.5302 0.0
C2503 C 0.33253 0.73795 0.50594 0.0
C2504 C 0.30993 0.72962 0.54855 0.0
C2505 C 0.30918 0.70196 0.54363 0.0
C2506 C 0.32002 0.69251 0.51946 0.0
C2507 C 0.3312 0.71031 0.50068 0.0
H2508 H 0.22081 0.38205 0.12261 0.0
H2509 H 0.29318 0.38325 0.07592 0.0
H2510 H 0.20007 0.35284 0.08949 0.0
H2511 H 0.27254 0.35385 0.04302 0.0
H2512 H 0.21796 0.31928 0.97651 0.0
H2513 H 0.23858 0.35036 1.00822 0.0
H2514 H 0.20257 0.30739 0.07363 0.0
H2515 H 0.1819 0.27675 0.04229 0.0
C2516 C 0.23231 0.37623 0.10527 0.0
C2517 C 0.25878 0.38516 0.10216 0.0
C2518 C 0.22045 0.35924 0.08627 0.0
C2519 C 0.23456 0.35072 0.06344 0.0
C2520 C 0.26085 0.36007 0.06009 0.0
C2521 C 0.27278 0.3769 0.07916 0.0
C2522 C 0.21447 0.31642 0.99764 0.0
C2523 C 0.1981 0.29534 1.00659 0.0
C2524 C 0.2264 0.33424 1.01591 0.0
C2525 C 0.22216 0.33167 0.04367 0.0
C2526 C 0.20599 0.31047 0.05251 0.0
C2527 C 0.19425 0.29264 0.03437 0.0
H2528 H 0.48852 0.85056 0.77608 0.0
H2529 H 0.5545 0.81424 0.81814 0.0
H2530 H 0.45738 0.83009 0.80693 0.0
H2531 H 0.52294 0.7938 0.84948 0.0
H2532 H 0.45512 0.73918 0.8823 0.0
H2533 H 0.48804 0.75988 0.85305 0.0
H2534 H 0.44179 0.83265 0.85239 0.0
H2535 H 0.40863 0.81183 0.88146 0.0
C2536 C 0.49654 0.83821 0.79193 0.0
C2537 C 0.52432 0.83422 0.79441 0.0
C2538 C 0.4785 0.82658 0.80988 0.0
C2539 C 0.48744 0.81038 0.83102 0.0
C2540 C 0.51519 0.80602 0.83341 0.0
C2541 C 0.53337 0.81784 0.81544 0.0
C2542 C 0.45192 0.75966 0.87605 0.0
C2543 C 0.42896 0.77371 0.88434 0.0
C2544 C 0.47101 0.77162 0.85933 0.0
C2545 C 0.46773 0.798 0.85011 0.0
C2546 C 0.44495 0.81219 0.8587 0.0
C2547 C 0.42593 0.80028 0.87559 0.0
H2548 H 0.98168 0.1932 0.33024 0.0
H2549 H 0.03486 0.21002 0.26467 0.0
H2550 H 1.01391 0.21349 0.36136 0.0
H2551 H 0.06638 0.23104 0.29554 0.0
H2552 H 0.09565 0.29511 0.3591 0.0
H2553 H 0.06259 0.27459 0.32959 0.0
H2554 H 0.06798 0.20115 0.37419 0.0
H2555 H 0.10194 0.22138 0.40341 0.0
C2556 C 1.00003 0.20151 0.32241 0.0
C2557 C 1.0056 0.19996 0.29489 0.0
C2558 C 0.01857 0.21294 0.34026 0.0
C2559 C 0.04275 0.2238 0.33092 0.0
C2560 C 0.04797 0.22287 0.30337 0.0
C2561 C 0.02986 0.21081 0.28568 0.0
C2562 C 0.08983 0.27458 0.36275 0.0
C2563 C 0.10158 0.25995 0.38375 0.0
C2564 C 0.07089 0.26282 0.34574 0.0
C2565 C 0.06254 0.23629 0.3496 0.0
C2566 C 0.07386 0.2217 0.37083 0.0
C2567 C 0.09341 0.23326 0.38747 0.0
H2568 H 0.04887 0.69368 0.20163 0.0
H2569 H 0.99561 0.70959 0.26736 0.0
H2570 H 0.01632 0.71364 0.17063 0.0
H2571 H 0.96375 0.73031 0.23659 0.0
H2572 H 0.93398 0.79464 0.17334 0.0
H2573 H 0.96695 0.77404 0.20292 0.0
H2574 H 0.96252 0.70108 0.15746 0.0
H2575 H 0.9286 0.7214 0.12819 0.0
C2576 C 0.03042 0.7017 0.20953 0.0
C2577 C 0.02496 0.70002 0.23707 0.0
C2578 C 1.0117 0.71295 0.19174 0.0
C2579 C 0.98739 0.72349 0.20113 0.0
C2580 C 0.98225 0.72238 0.2287 0.0
C2581 C 1.00056 0.7105 0.24633 0.0
C2582 C 0.93997 0.77419 0.16954 0.0
C2583 C 0.92851 0.75974 0.14826 0.0
C2584 C 0.95886 0.76238 0.18658 0.0
C2585 C 0.96749 0.73597 0.1825 0.0
C2586 C 0.95642 0.72153 0.16103 0.0
C2587 C 0.93689 0.73314 0.14435 0.0
H2588 H 0.47604 0.31407 0.71313 0.0
H2589 H 0.54209 0.35002 0.75539 0.0
H2590 H 0.50759 0.29364 0.68176 0.0
H2591 H 0.57319 0.3296 0.7245 0.0
H2592 H 0.6219 0.31173 0.64992 0.0
H2593 H 0.58867 0.33244 0.67895 0.0
H2594 H 0.54261 0.25957 0.67827 0.0
H2595 H 0.57564 0.23894 0.64905 0.0
C2596 C 0.49718 0.3176 0.71586 0.0
C2597 C 0.50626 0.33385 0.73697 0.0
C2598 C 0.51536 0.30578 0.69787 0.0
C2599 C 0.54311 0.31006 0.70031 0.0
C2600 C 0.55207 0.32616 0.72151 0.0
C2601 C 0.53404 0.33776 0.73949 0.0
C2602 C 0.60462 0.30013 0.65576 0.0
C2603 C 0.60169 0.27355 0.64702 0.0
C2604 C 0.58556 0.31198 0.67264 0.0
C2605 C 0.56282 0.29773 0.68121 0.0
C2606 C 0.55961 0.27135 0.672 0.0
C2607 C 0.57876 0.25943 0.65529 0.0
H2608 H 0.81728 0.55656 0.81373 0.0
H2609 H 0.77516 0.49021 0.84935 0.0
H2610 H 0.84873 0.52509 0.79325 0.0
H2611 H 0.80614 0.45918 0.82887 0.0
H2612 H 0.88091 0.41063 0.81115 0.0
H2613 H 0.85168 0.44376 0.83178 0.0
H2614 H 0.85254 0.49014 0.75914 0.0
H2615 H 0.88197 0.45719 0.73858 0.0
C2616 C 0.81459 0.53536 0.81717 0.0
C2617 C 0.79351 0.52618 0.83336 0.0
C2618 C 0.83263 0.51724 0.80532 0.0
C2619 C 0.83026 0.48941 0.80949 0.0
C2620 C 0.80907 0.48035 0.82551 0.0
C2621 C 0.79104 0.49833 0.83715 0.0
C2622 C 0.87506 0.42796 0.79958 0.0
C2623 C 0.88392 0.431 0.77308 0.0
C2624 C 0.85806 0.44696 0.81138 0.0
C2625 C 0.84947 0.46976 0.79718 0.0
C2626 C 0.85881 0.47308 0.77088 0.0
C2627 C 0.87564 0.45399 0.759 0.0
H2628 H 0.2766 0.04354 0.18013 0.0
H2629 H 0.31642 0.97772 0.21925 0.0
H2630 H 0.30727 0.07476 0.20091 0.0
H2631 H 0.34753 1.00931 0.24001 0.0
H2632 H 0.37958 0.07778 0.29425 0.0
H2633 H 0.35032 0.04495 0.27331 0.0
H2634 H 0.35312 0.08958 0.19963 0.0
H2635 H 0.38219 0.12265 0.22066 0.0
C2636 C 0.29191 0.03559 0.19317 0.0
C2637 C 0.29382 1.00784 0.19787 0.0
C2638 C 0.30976 0.05365 0.20498 0.0
C2639 C 0.33018 0.04475 0.22209 0.0
C2640 C 0.33201 0.01704 0.2271 0.0
C2641 C 0.31419 0.99884 0.21508 0.0
C2642 C 0.37409 0.08064 0.27353 0.0
C2643 C 0.38336 0.10312 0.25927 0.0
C2644 C 0.35736 0.0616 0.26144 0.0
C2645 C 0.34913 0.06445 0.23471 0.0
C2646 C 0.35865 0.08677 0.22034 0.0
C2647 C 0.37554 0.10573 0.23239 0.0
H2648 H 0.20017 0.05037 0.69152 0.0
H2649 H 0.26611 0.99749 0.70821 0.0
H2650 H 0.16927 0.01767 0.71141 0.0
H2651 H 0.23546 0.96551 0.7288 0.0
H2652 H 0.17285 0.93514 0.7927 0.0
H2653 H 0.20216 0.96821 0.77198 0.0
H2654 H 0.15597 0.96408 0.69952 0.0
H2655 H 0.12691 0.93004 0.71999 0.0
C2656 C 0.20813 0.03198 0.69969 0.0
C2657 C 0.23571 0.02667 0.69825 0.0
C2658 C 0.1904 1.01316 0.71089 0.0
C2659 C 0.19988 0.98891 0.72162 0.0
C2660 C 0.22748 0.98394 0.72073 0.0
C2661 C 0.24505 1.00233 0.70891 0.0
C2662 C 0.16883 0.9412 0.77233 0.0
C2663 C 0.1474 0.9298 0.75807 0.0
C2664 C 0.18572 0.96016 0.76045 0.0
C2665 C 0.18137 0.96893 0.73414 0.0
C2666 C 0.15975 0.95789 0.71989 0.0
C2667 C 0.1432 0.93828 0.73157 0.0
H2668 H 0.65074 0.62313 0.31181 0.0
H2669 H 0.64918 0.57625 0.23948 0.0
H2670 H 0.67997 0.58993 0.3325 0.0
H2671 H 0.67856 0.54331 0.26004 0.0
H2672 H 0.71383 0.47682 0.31412 0.0
H2673 H 0.68233 0.50848 0.294 0.0
H2674 H 0.72538 0.57409 0.32966 0.0
H2675 H 0.75643 0.54283 0.3498 0.0
C2676 C 0.65647 0.60573 0.30031 0.0
C2677 C 0.64747 0.6026 0.27387 0.0
C2678 C 0.67346 0.58669 0.31214 0.0
C2679 C 0.68188 0.56378 0.298 0.0
C2680 C 0.67241 0.56042 0.27175 0.0
C2681 C 0.65561 0.57953 0.25987 0.0
C2682 C 0.71661 0.49799 0.31765 0.0
C2683 C 0.73786 0.50701 0.33372 0.0
C2684 C 0.69854 0.51623 0.30601 0.0
C2685 C 0.70103 0.54403 0.31027 0.0
C2686 C 0.72236 0.55294 0.32622 0.0
C2687 C 0.74042 0.53483 0.33765 0.0
loop_
_geom_bond_atom_site_label_1
_geom_bond_atom_site_label_2
_geom_bond_distance
_geom_bond_site_symmetry_2
_ccdc_geom_bond_type
Co0 H3 2.400 . S
Co0 O4 2.009 . S
Co0 O12 2.115 . S
Co0 O13 2.315 . S
Co0 O24 2.053 . S
Co0 O27 2.094 . S
Co0 O30 2.122 . S
Co1 O4 2.126 . S
Co1 H5 2.388 . S
Co1 O6 2.053 . S
Co1 O9 2.047 . S
Co1 O15 2.113 . S
Co1 O26 2.063 . S
Co2 H3 2.388 . S
Co2 O4 2.053 . S
Co2 O6 2.126 . S
Co2 O11 2.063 . S
Co2 O25 2.047 . S
Co2 O31 2.113 . S
H3 Co0 2.400 . S
H3 Co2 2.388 . S
H3 O4 0.760 . S
O4 Co0 2.009 . S
O4 Co1 2.126 . S
O4 Co2 2.053 . S
O4 H3 0.760 . S
H5 Co1 2.388 . S
H5 O6 0.760 . S
H5 Co7 2.400 . S
O6 Co1 2.053 . S
O6 Co2 2.126 . S
O6 H5 0.760 . S
O6 Co7 2.009 . S
Co7 H5 2.400 . S
Co7 O6 2.009 . S
Co7 O8 2.053 . S
Co7 O10 2.094 . S
Co7 O14 2.122 . S
Co7 O28 2.115 . S
Co7 O29 2.315 . S
O8 Co7 2.053 . S
O8 C20 1.259 . S
O9 Co1 2.047 . S
O9 C20 1.257 . S
O10 Co7 2.094 . S
O10 C21 1.253 . S
O11 Co2 2.063 . S
O11 C21 1.268 . S
O12 Co0 2.115 . S
O12 C22 1.281 . S
O13 Co0 2.315 . S
O13 C22 1.252 . S
O14 Co7 2.122 . S
O14 C23 1.272 . S
O15 Co1 2.113 . S
O15 C23 1.245 . S
C16 O24 1.259 . S
C16 O25 1.257 . S
C17 O26 1.268 . S
C17 O27 1.253 . S
C18 O28 1.281 . S
C18 O29 1.252 . S
C19 O30 1.272 . S
C19 O31 1.245 . S
C20 O8 1.259 . S
C20 O9 1.257 . S
C21 O10 1.253 . S
C21 O11 1.268 . S
C22 O12 1.281 . S
C22 O13 1.252 . S
C23 O14 1.272 . S
C23 O15 1.245 . S
O24 Co0 2.053 . S
O24 C16 1.259 . S
O25 Co2 2.047 . S
O25 C16 1.257 . S
O26 Co1 2.063 . S
O26 C17 1.268 . S
O27 Co0 2.094 . S
O27 C17 1.253 . S
O28 Co7 2.115 . S
O28 C18 1.281 . S
O29 Co7 2.315 . S
O29 C18 1.252 . S
O30 Co0 2.122 . S
O30 C19 1.272 . S
O31 Co2 2.113 . S
O31 C19 1.245 . S
Co32 H35 2.400 . S
Co32 O36 2.009 . S
Co32 O44 2.115 . S
Co32 O45 2.315 . S
Co32 O56 2.053 . S
Co32 O59 2.094 . S
Co32 O62 2.122 . S
Co33 O36 2.126 . S
Co33 H37 2.388 . S
Co33 O38 2.053 . S
Co33 O41 2.047 . S
Co33 O47 2.113 . S
Co33 O58 2.063 . S
Co34 H35 2.388 . S
Co34 O36 2.053 . S
Co34 O38 2.126 . S
Co34 O43 2.063 . S
Co34 O57 2.047 . S
Co34 O63 2.113 . S
H35 Co32 2.400 . S
H35 Co34 2.388 . S
H35 O36 0.760 . S
O36 Co32 2.009 . S
O36 Co33 2.126 . S
O36 Co34 2.053 . S
O36 H35 0.760 . S
H37 Co33 2.388 . S
H37 O38 0.760 . S
H37 Co39 2.400 . S
O38 Co33 2.053 . S
O38 Co34 2.126 . S
O38 H37 0.760 . S
O38 Co39 2.009 . S
Co39 H37 2.400 . S
Co39 O38 2.009 . S
Co39 O40 2.053 . S
Co39 O42 2.094 . S
Co39 O46 2.122 . S
Co39 O60 2.115 . S
Co39 O61 2.315 . S
O40 Co39 2.053 . S
O40 C52 1.259 1_556 S
O41 Co33 2.047 . S
O41 C52 1.257 1_556 S
O42 Co39 2.094 . S
O42 C53 1.253 . S
O43 Co34 2.063 . S
O43 C53 1.268 . S
O44 Co32 2.115 . S
O44 C54 1.281 . S
O45 Co32 2.315 . S
O45 C54 1.252 . S
O46 Co39 2.122 . S
O46 C55 1.272 . S
O47 Co33 2.113 . S
O47 C55 1.245 . S
C48 O56 1.259 . S
C48 O57 1.257 . S
C49 O58 1.268 . S
C49 O59 1.253 . S
C50 O60 1.281 . S
C50 O61 1.252 . S
C51 O62 1.272 . S
C51 O63 1.245 . S
C52 O40 1.259 1_554 S
C52 O41 1.257 1_554 S
C53 O42 1.253 . S
C53 O43 1.268 . S
C54 O44 1.281 . S
C54 O45 1.252 . S
C55 O46 1.272 . S
C55 O47 1.245 . S
O56 Co32 2.053 . S
O56 C48 1.259 . S
O57 Co34 2.047 . S
O57 C48 1.257 . S
O58 Co33 2.063 . S
O58 C49 1.268 . S
O59 Co32 2.094 . S
O59 C49 1.253 . S
O60 Co39 2.115 . S
O60 C50 1.281 . S
O61 Co39 2.315 . S
O61 C50 1.252 . S
O62 Co32 2.122 . S
O62 C51 1.272 . S
O63 Co34 2.113 . S
O63 C51 1.245 . S
Co64 H67 2.400 . S
Co64 O68 2.009 . S
Co64 O76 2.115 . S
Co64 O77 2.315 . S
Co64 O88 2.053 . S
Co64 O91 2.094 . S
Co64 O94 2.122 . S
Co65 O68 2.126 . S
Co65 H69 2.388 . S
Co65 O70 2.053 . S
Co65 O73 2.047 . S
Co65 O79 2.113 . S
Co65 O90 2.063 . S
Co66 H67 2.388 . S
Co66 O68 2.053 . S
Co66 O70 2.126 . S
Co66 O75 2.063 . S
Co66 O89 2.047 . S
Co66 O95 2.113 . S
H67 Co64 2.400 . S
H67 Co66 2.388 . S
H67 O68 0.760 . S
O68 Co64 2.009 . S
O68 Co65 2.126 . S
O68 Co66 2.053 . S
O68 H67 0.760 . S
H69 Co65 2.388 . S
H69 O70 0.760 . S
H69 Co71 2.400 . S
O70 Co65 2.053 . S
O70 Co66 2.126 . S
O70 H69 0.760 . S
O70 Co71 2.009 . S
Co71 H69 2.400 . S
Co71 O70 2.009 . S
Co71 O72 2.053 . S
Co71 O74 2.094 . S
Co71 O78 2.122 . S
Co71 O92 2.115 . S
Co71 O93 2.315 . S
O72 Co71 2.053 . S
O72 C84 1.259 . S
O73 Co65 2.047 . S
O73 C84 1.257 . S
O74 Co71 2.094 . S
O74 C85 1.253 . S
O75 Co66 2.063 . S
O75 C85 1.268 . S
O76 Co64 2.115 . S
O76 C86 1.281 . S
O77 Co64 2.315 . S
O77 C86 1.252 . S
O78 Co71 2.122 . S
O78 C87 1.272 . S
O79 Co65 2.113 . S
O79 C87 1.245 . S
C80 O88 1.259 . S
C80 O89 1.257 . S
C81 O90 1.268 . S
C81 O91 1.253 . S
C82 O92 1.281 . S
C82 O93 1.252 . S
C83 O94 1.272 . S
C83 O95 1.245 . S
C84 O72 1.259 . S
C84 O73 1.257 . S
C85 O74 1.253 . S
C85 O75 1.268 . S
C86 O76 1.281 . S
C86 O77 1.252 . S
C87 O78 1.272 . S
C87 O79 1.245 . S
O88 Co64 2.053 . S
O88 C80 1.259 . S
O89 Co66 2.047 . S
O89 C80 1.257 . S
O90 Co65 2.063 . S
O90 C81 1.268 . S
O91 Co64 2.094 . S
O91 C81 1.253 . S
O92 Co71 2.115 . S
O92 C82 1.281 . S
O93 Co71 2.315 . S
O93 C82 1.252 . S
O94 Co64 2.122 . S
O94 C83 1.272 . S
O95 Co66 2.113 . S
O95 C83 1.245 . S
Co96 H99 2.400 . S
Co96 O100 2.009 . S
Co96 O108 2.115 . S
Co96 O109 2.315 . S
Co96 O120 2.053 . S
Co96 O123 2.094 . S
Co96 O126 2.122 . S
Co97 O100 2.126 . S
Co97 H101 2.388 . S
Co97 O102 2.053 . S
Co97 O105 2.047 . S
Co97 O111 2.113 . S
Co97 O122 2.063 . S
Co98 H99 2.388 . S
Co98 O100 2.053 . S
Co98 O102 2.126 . S
Co98 O107 2.063 . S
Co98 O121 2.047 . S
Co98 O127 2.113 . S
H99 Co96 2.400 . S
H99 Co98 2.388 . S
H99 O100 0.760 . S
O100 Co96 2.009 . S
O100 Co97 2.126 . S
O100 Co98 2.053 . S
O100 H99 0.760 . S
H101 Co97 2.388 . S
H101 O102 0.760 . S
H101 Co103 2.400 . S
O102 Co97 2.053 . S
O102 Co98 2.126 . S
O102 H101 0.760 . S
O102 Co103 2.009 . S
Co103 H101 2.400 . S
Co103 O102 2.009 . S
Co103 O104 2.053 . S
Co103 O106 2.094 . S
Co103 O110 2.122 . S
Co103 O124 2.115 . S
Co103 O125 2.315 . S
O104 Co103 2.053 . S
O104 C116 1.259 1_554 S
O105 Co97 2.047 . S
O105 C116 1.257 1_554 S
O106 Co103 2.094 . S
O106 C117 1.253 . S
O107 Co98 2.063 . S
O107 C117 1.268 . S
O108 Co96 2.115 . S
O108 C118 1.281 . S
O109 Co96 2.315 . S
O109 C118 1.252 . S
O110 Co103 2.122 . S
O110 C119 1.272 . S
O111 Co97 2.113 . S
O111 C119 1.245 . S
C112 O120 1.259 . S
C112 O121 1.257 . S
C113 O122 1.268 . S
C113 O123 1.253 . S
C114 O124 1.281 . S
C114 O125 1.252 . S
C115 O126 1.272 . S
C115 O127 1.245 . S
C116 O104 1.259 1_556 S
C116 O105 1.257 1_556 S
C117 O106 1.253 . S
C117 O107 1.268 . S
C118 O108 1.281 . S
C118 O109 1.252 . S
C119 O110 1.272 . S
C119 O111 1.245 . S
O120 Co96 2.053 . S
O120 C112 1.259 . S
O121 Co98 2.047 . S
O121 C112 1.257 . S
O122 Co97 2.063 . S
O122 C113 1.268 . S
O123 Co96 2.094 . S
O123 C113 1.253 . S
O124 Co103 2.115 . S
O124 C114 1.281 . S
O125 Co103 2.315 . S
O125 C114 1.252 . S
O126 Co96 2.122 . S
O126 C115 1.272 . S
O127 Co98 2.113 . S
O127 C115 1.245 . S
Co128 H131 2.400 . S
Co128 O132 2.009 . S
Co128 O140 2.115 . S
Co128 O141 2.315 . S
Co128 O152 2.053 . S
Co128 O155 2.094 . S
Co128 O158 2.122 . S
Co129 O132 2.126 . S
Co129 H133 2.388 . S
Co129 O134 2.053 . S
Co129 O137 2.047 . S
Co129 O143 2.113 . S
Co129 O154 2.063 . S
Co130 H131 2.388 . S
Co130 O132 2.053 . S
Co130 O134 2.126 . S
Co130 O139 2.063 . S
Co130 O153 2.047 . S
Co130 O159 2.113 . S
H131 Co128 2.400 . S
H131 Co130 2.388 . S
H131 O132 0.760 . S
O132 Co128 2.009 . S
O132 Co129 2.126 . S
O132 Co130 2.053 . S
O132 H131 0.760 . S
H133 Co129 2.388 . S
H133 O134 0.760 . S
H133 Co135 2.400 . S
O134 Co129 2.053 . S
O134 Co130 2.126 . S
O134 H133 0.760 . S
O134 Co135 2.009 . S
Co135 H133 2.400 . S
Co135 O134 2.009 . S
Co135 O136 2.053 . S
Co135 O138 2.094 . S
Co135 O142 2.122 . S
Co135 O156 2.115 . S
Co135 O157 2.315 . S
O136 Co135 2.053 . S
O136 C148 1.259 . S
O137 Co129 2.047 . S
O137 C148 1.257 . S
O138 Co135 2.094 . S
O138 C149 1.253 . S
O139 Co130 2.063 . S
O139 C149 1.268 . S
O140 Co128 2.115 . S
O140 C150 1.281 . S
O141 Co128 2.315 . S
O141 C150 1.252 . S
O142 Co135 2.122 . S
O142 C151 1.272 . S
O143 Co129 2.113 . S
O143 C151 1.245 . S
C144 O152 1.259 . S
C144 O153 1.257 . S
C145 O154 1.268 . S
C145 O155 1.253 . S
C146 O156 1.281 . S
C146 O157 1.252 . S
C147 O158 1.272 . S
C147 O159 1.245 . S
C148 O136 1.259 . S
C148 O137 1.257 . S
C149 O138 1.253 . S
C149 O139 1.268 . S
C150 O140 1.281 . S
C150 O141 1.252 . S
C151 O142 1.272 . S
C151 O143 1.245 . S
O152 Co128 2.053 . S
O152 C144 1.259 . S
O153 Co130 2.047 . S
O153 C144 1.257 . S
O154 Co129 2.063 . S
O154 C145 1.268 . S
O155 Co128 2.094 . S
O155 C145 1.253 . S
O156 Co135 2.115 . S
O156 C146 1.281 . S
O157 Co135 2.315 . S
O157 C146 1.252 . S
O158 Co128 2.122 . S
O158 C147 1.272 . S
O159 Co130 2.113 . S
O159 C147 1.245 . S
Co160 H163 2.400 . S
Co160 O164 2.009 . S
Co160 O172 2.115 . S
Co160 O173 2.315 . S
Co160 O184 2.053 . S
Co160 O187 2.094 . S
Co160 O190 2.122 . S
Co161 O164 2.126 . S
Co161 H165 2.388 . S
Co161 O166 2.053 . S
Co161 O169 2.047 . S
Co161 O175 2.113 . S
Co161 O186 2.063 . S
Co162 H163 2.388 . S
Co162 O164 2.053 . S
Co162 O166 2.126 . S
Co162 O171 2.063 . S
Co162 O185 2.047 . S
Co162 O191 2.113 . S
H163 Co160 2.400 . S
H163 Co162 2.388 . S
H163 O164 0.760 . S
O164 Co160 2.009 . S
O164 Co161 2.126 . S
O164 Co162 2.053 . S
O164 H163 0.760 . S
H165 Co161 2.388 . S
H165 O166 0.760 . S
H165 Co167 2.400 . S
O166 Co161 2.053 . S
O166 Co162 2.126 . S
O166 H165 0.760 . S
O166 Co167 2.009 . S
Co167 H165 2.400 . S
Co167 O166 2.009 . S
Co167 O168 2.053 . S
Co167 O170 2.094 . S
Co167 O174 2.122 . S
Co167 O188 2.115 . S
Co167 O189 2.315 . S
O168 Co167 2.053 . S
O168 C180 1.259 1_455 S
O169 Co161 2.047 . S
O169 C180 1.257 1_455 S
O170 Co167 2.094 . S
O170 C181 1.253 . S
O171 Co162 2.063 . S
O171 C181 1.268 . S
O172 Co160 2.115 . S
O172 C182 1.281 . S
O173 Co160 2.315 . S
O173 C182 1.252 . S
O174 Co167 2.122 . S
O174 C183 1.272 . S
O175 Co161 2.113 . S
O175 C183 1.245 . S
C176 O184 1.259 . S
C176 O185 1.257 . S
C177 O186 1.268 . S
C177 O187 1.253 . S
C178 O188 1.281 . S
C178 O189 1.252 . S
C179 O190 1.272 . S
C179 O191 1.245 . S
C180 O168 1.259 1_655 S
C180 O169 1.257 1_655 S
C181 O170 1.253 . S
C181 O171 1.268 . S
C182 O172 1.281 . S
C182 O173 1.252 . S
C183 O174 1.272 . S
C183 O175 1.245 . S
O184 Co160 2.053 . S
O184 C176 1.259 . S
O185 Co162 2.047 . S
O185 C176 1.257 . S
O186 Co161 2.063 . S
O186 C177 1.268 . S
O187 Co160 2.094 . S
O187 C177 1.253 . S
O188 Co167 2.115 . S
O188 C178 1.281 . S
O189 Co167 2.315 . S
O189 C178 1.252 . S
O190 Co160 2.122 . S
O190 C179 1.272 . S
O191 Co162 2.113 . S
O191 C179 1.245 . S
Co192 H195 2.400 . S
Co192 O196 2.009 . S
Co192 O204 2.115 . S
Co192 O205 2.315 . S
Co192 O216 2.053 . S
Co192 O219 2.094 . S
Co192 O222 2.122 . S
Co193 O196 2.126 . S
Co193 H197 2.388 . S
Co193 O198 2.053 . S
Co193 O201 2.047 . S
Co193 O207 2.113 . S
Co193 O218 2.063 . S
Co194 H195 2.388 . S
Co194 O196 2.053 . S
Co194 O198 2.126 . S
Co194 O203 2.063 . S
Co194 O217 2.047 . S
Co194 O223 2.113 . S
H195 Co192 2.400 . S
H195 Co194 2.388 . S
H195 O196 0.760 . S
O196 Co192 2.009 . S
O196 Co193 2.126 . S
O196 Co194 2.053 . S
O196 H195 0.760 . S
H197 Co193 2.388 . S
H197 O198 0.760 . S
H197 Co199 2.400 . S
O198 Co193 2.053 . S
O198 Co194 2.126 . S
O198 H197 0.760 . S
O198 Co199 2.009 . S
Co199 H197 2.400 . S
Co199 O198 2.009 . S
Co199 O200 2.053 . S
Co199 O202 2.094 . S
Co199 O206 2.122 . S
Co199 O220 2.115 . S
Co199 O221 2.315 . S
O200 Co199 2.053 . S
O200 C212 1.259 1_655 S
O201 Co193 2.047 . S
O201 C212 1.257 1_655 S
O202 Co199 2.094 . S
O202 C213 1.253 . S
O203 Co194 2.063 . S
O203 C213 1.268 . S
O204 Co192 2.115 . S
O204 C214 1.281 . S
O205 Co192 2.315 . S
O205 C214 1.252 . S
O206 Co199 2.122 . S
O206 C215 1.272 . S
O207 Co193 2.113 . S
O207 C215 1.245 . S
C208 O216 1.259 . S
C208 O217 1.257 . S
C209 O218 1.268 . S
C209 O219 1.253 . S
C210 O220 1.281 . S
C210 O221 1.252 . S
C211 O222 1.272 . S
C211 O223 1.245 . S
C212 O200 1.259 1_455 S
C212 O201 1.257 1_455 S
C213 O202 1.253 . S
C213 O203 1.268 . S
C214 O204 1.281 . S
C214 O205 1.252 . S
C215 O206 1.272 . S
C215 O207 1.245 . S
O216 Co192 2.053 . S
O216 C208 1.259 . S
O217 Co194 2.047 . S
O217 C208 1.257 . S
O218 Co193 2.063 . S
O218 C209 1.268 . S
O219 Co192 2.094 . S
O219 C209 1.253 . S
O220 Co199 2.115 . S
O220 C210 1.281 . S
O221 Co199 2.315 . S
O221 C210 1.252 . S
O222 Co192 2.122 . S
O222 C211 1.272 . S
O223 Co194 2.113 . S
O223 C211 1.245 . S
Co224 H227 2.400 . S
Co224 O228 2.009 . S
Co224 O236 2.115 . S
Co224 O237 2.315 . S
Co224 O248 2.053 . S
Co224 O251 2.094 . S
Co224 O254 2.122 . S
Co225 O228 2.126 . S
Co225 H229 2.388 . S
Co225 O230 2.053 . S
Co225 O233 2.047 . S
Co225 O239 2.113 . S
Co225 O250 2.063 . S
Co226 H227 2.388 . S
Co226 O228 2.053 . S
Co226 O230 2.126 . S
Co226 O235 2.063 . S
Co226 O249 2.047 . S
Co226 O255 2.113 . S
H227 Co224 2.400 . S
H227 Co226 2.388 . S
H227 O228 0.760 . S
O228 Co224 2.009 . S
O228 Co225 2.126 . S
O228 Co226 2.053 . S
O228 H227 0.760 . S
H229 Co225 2.388 . S
H229 O230 0.760 . S
H229 Co231 2.400 . S
O230 Co225 2.053 . S
O230 Co226 2.126 . S
O230 H229 0.760 . S
O230 Co231 2.009 . S
Co231 H229 2.400 . S
Co231 O230 2.009 . S
Co231 O232 2.053 . S
Co231 O234 2.094 . S
Co231 O238 2.122 . S
Co231 O252 2.115 . S
Co231 O253 2.315 . S
O232 Co231 2.053 . S
O232 C244 1.259 . S
O233 Co225 2.047 . S
O233 C244 1.257 . S
O234 Co231 2.094 . S
O234 C245 1.253 . S
O235 Co226 2.063 . S
O235 C245 1.268 . S
O236 Co224 2.115 . S
O236 C246 1.281 . S
O237 Co224 2.315 . S
O237 C246 1.252 . S
O238 Co231 2.122 . S
O238 C247 1.272 . S
O239 Co225 2.113 . S
O239 C247 1.245 . S
C240 O248 1.259 . S
C240 O249 1.257 . S
C241 O250 1.268 . S
C241 O251 1.253 . S
C242 O252 1.281 . S
C242 O253 1.252 . S
C243 O254 1.272 . S
C243 O255 1.245 . S
C244 O232 1.259 . S
C244 O233 1.257 . S
C245 O234 1.253 . S
C245 O235 1.268 . S
C246 O236 1.281 . S
C246 O237 1.252 . S
C247 O238 1.272 . S
C247 O239 1.245 . S
O248 Co224 2.053 . S
O248 C240 1.259 . S
O249 Co226 2.047 . S
O249 C240 1.257 . S
O250 Co225 2.063 . S
O250 C241 1.268 . S
O251 Co224 2.094 . S
O251 C241 1.253 . S
O252 Co231 2.115 . S
O252 C242 1.281 . S
O253 Co231 2.315 . S
O253 C242 1.252 . S
O254 Co224 2.122 . S
O254 C243 1.272 . S
O255 Co226 2.113 . S
O255 C243 1.245 . S
Co256 H259 2.400 . S
Co256 O260 2.009 . S
Co256 O268 2.115 . S
Co256 O269 2.315 . S
Co256 O280 2.053 . S
Co256 O283 2.094 . S
Co256 O286 2.122 . S
Co257 O260 2.126 . S
Co257 H261 2.388 . S
Co257 O262 2.053 . S
Co257 O265 2.047 . S
Co257 O271 2.113 . S
Co257 O282 2.063 . S
Co258 H259 2.388 . S
Co258 O260 2.053 . S
Co258 O262 2.126 . S
Co258 O267 2.063 . S
Co258 O281 2.047 . S
Co258 O287 2.113 . S
H259 Co256 2.400 . S
H259 Co258 2.388 . S
H259 O260 0.760 . S
O260 Co256 2.009 . S
O260 Co257 2.126 . S
O260 Co258 2.053 . S
O260 H259 0.760 . S
H261 Co257 2.388 . S
H261 O262 0.760 . S
H261 Co263 2.400 . S
O262 Co257 2.053 . S
O262 Co258 2.126 . S
O262 H261 0.760 . S
O262 Co263 2.009 . S
Co263 H261 2.400 . S
Co263 O262 2.009 . S
Co263 O264 2.053 . S
Co263 O266 2.094 . S
Co263 O270 2.122 . S
Co263 O284 2.115 . S
Co263 O285 2.315 . S
O264 Co263 2.053 . S
O264 C276 1.259 . S
O265 Co257 2.047 . S
O265 C276 1.257 . S
O266 Co263 2.094 . S
O266 C277 1.253 . S
O267 Co258 2.063 . S
O267 C277 1.268 . S
O268 Co256 2.115 . S
O268 C278 1.281 . S
O269 Co256 2.315 . S
O269 C278 1.252 . S
O270 Co263 2.122 . S
O270 C279 1.272 . S
O271 Co257 2.113 . S
O271 C279 1.245 . S
C272 O280 1.259 . S
C272 O281 1.257 . S
C273 O282 1.268 . S
C273 O283 1.253 . S
C274 O284 1.281 . S
C274 O285 1.252 . S
C275 O286 1.272 . S
C275 O287 1.245 . S
C276 O264 1.259 . S
C276 O265 1.257 . S
C277 O266 1.253 . S
C277 O267 1.268 . S
C278 O268 1.281 . S
C278 O269 1.252 . S
C279 O270 1.272 . S
C279 O271 1.245 . S
O280 Co256 2.053 . S
O280 C272 1.259 . S
O281 Co258 2.047 . S
O281 C272 1.257 . S
O282 Co257 2.063 . S
O282 C273 1.268 . S
O283 Co256 2.094 . S
O283 C273 1.253 . S
O284 Co263 2.115 . S
O284 C274 1.281 . S
O285 Co263 2.315 . S
O285 C274 1.252 . S
O286 Co256 2.122 . S
O286 C275 1.272 . S
O287 Co258 2.113 . S
O287 C275 1.245 . S
Co288 H291 2.400 . S
Co288 O292 2.009 . S
Co288 O300 2.115 . S
Co288 O301 2.315 . S
Co288 O312 2.053 . S
Co288 O315 2.094 . S
Co288 O318 2.122 . S
Co289 O292 2.126 . S
Co289 H293 2.388 . S
Co289 O294 2.053 . S
Co289 O297 2.047 . S
Co289 O303 2.113 . S
Co289 O314 2.063 . S
Co290 H291 2.388 . S
Co290 O292 2.053 . S
Co290 O294 2.126 . S
Co290 O299 2.063 . S
Co290 O313 2.047 . S
Co290 O319 2.113 . S
H291 Co288 2.400 . S
H291 Co290 2.388 . S
H291 O292 0.760 . S
O292 Co288 2.009 . S
O292 Co289 2.126 . S
O292 Co290 2.053 . S
O292 H291 0.760 . S
H293 Co289 2.388 . S
H293 O294 0.760 . S
H293 Co295 2.400 . S
O294 Co289 2.053 . S
O294 Co290 2.126 . S
O294 H293 0.760 . S
O294 Co295 2.009 . S
Co295 H293 2.400 . S
Co295 O294 2.009 . S
Co295 O296 2.053 . S
Co295 O298 2.094 . S
Co295 O302 2.122 . S
Co295 O316 2.115 . S
Co295 O317 2.315 . S
O296 Co295 2.053 . S
O296 C308 1.259 1_545 S
O297 Co289 2.047 . S
O297 C308 1.257 1_545 S
O298 Co295 2.094 . S
O298 C309 1.253 . S
O299 Co290 2.063 . S
O299 C309 1.268 . S
O300 Co288 2.115 . S
O300 C310 1.281 . S
O301 Co288 2.315 . S
O301 C310 1.252 . S
O302 Co295 2.122 . S
O302 C311 1.272 . S
O303 Co289 2.113 . S
O303 C311 1.245 . S
C304 O312 1.259 . S
C304 O313 1.257 . S
C305 O314 1.268 . S
C305 O315 1.253 . S
C306 O316 1.281 . S
C306 O317 1.252 . S
C307 O318 1.272 . S
C307 O319 1.245 . S
C308 O296 1.259 1_565 S
C308 O297 1.257 1_565 S
C309 O298 1.253 . S
C309 O299 1.268 . S
C310 O300 1.281 . S
C310 O301 1.252 . S
C311 O302 1.272 . S
C311 O303 1.245 . S
O312 Co288 2.053 . S
O312 C304 1.259 . S
O313 Co290 2.047 . S
O313 C304 1.257 . S
O314 Co289 2.063 . S
O314 C305 1.268 . S
O315 Co288 2.094 . S
O315 C305 1.253 . S
O316 Co295 2.115 . S
O316 C306 1.281 . S
O317 Co295 2.315 . S
O317 C306 1.252 . S
O318 Co288 2.122 . S
O318 C307 1.272 . S
O319 Co290 2.113 . S
O319 C307 1.245 . S
Co320 H323 2.400 . S
Co320 O324 2.009 . S
Co320 O332 2.115 . S
Co320 O333 2.315 . S
Co320 O344 2.053 . S
Co320 O347 2.094 . S
Co320 O350 2.122 . S
Co321 O324 2.126 . S
Co321 H325 2.388 . S
Co321 O326 2.053 . S
Co321 O329 2.047 . S
Co321 O335 2.113 . S
Co321 O346 2.063 . S
Co322 H323 2.388 . S
Co322 O324 2.053 . S
Co322 O326 2.126 . S
Co322 O331 2.063 . S
Co322 O345 2.047 . S
Co322 O351 2.113 . S
H323 Co320 2.400 . S
H323 Co322 2.388 . S
H323 O324 0.760 . S
O324 Co320 2.009 . S
O324 Co321 2.126 . S
O324 Co322 2.053 . S
O324 H323 0.760 . S
H325 Co321 2.388 . S
H325 O326 0.760 . S
H325 Co327 2.400 . S
O326 Co321 2.053 . S
O326 Co322 2.126 . S
O326 H325 0.760 . S
O326 Co327 2.009 . S
Co327 H325 2.400 . S
Co327 O326 2.009 . S
Co327 O328 2.053 . S
Co327 O330 2.094 . S
Co327 O334 2.122 . S
Co327 O348 2.115 . S
Co327 O349 2.315 . S
O328 Co327 2.053 . S
O328 C340 1.259 1_565 S
O329 Co321 2.047 . S
O329 C340 1.257 1_565 S
O330 Co327 2.094 . S
O330 C341 1.253 . S
O331 Co322 2.063 . S
O331 C341 1.268 . S
O332 Co320 2.115 . S
O332 C342 1.281 . S
O333 Co320 2.315 . S
O333 C342 1.252 . S
O334 Co327 2.122 . S
O334 C343 1.272 . S
O335 Co321 2.113 . S
O335 C343 1.245 . S
C336 O344 1.259 . S
C336 O345 1.257 . S
C337 O346 1.268 . S
C337 O347 1.253 . S
C338 O348 1.281 . S
C338 O349 1.252 . S
C339 O350 1.272 . S
C339 O351 1.245 . S
C340 O328 1.259 1_545 S
C340 O329 1.257 1_545 S
C341 O330 1.253 . S
C341 O331 1.268 . S
C342 O332 1.281 . S
C342 O333 1.252 . S
C343 O334 1.272 . S
C343 O335 1.245 . S
O344 Co320 2.053 . S
O344 C336 1.259 . S
O345 Co322 2.047 . S
O345 C336 1.257 . S
O346 Co321 2.063 . S
O346 C337 1.268 . S
O347 Co320 2.094 . S
O347 C337 1.253 . S
O348 Co327 2.115 . S
O348 C338 1.281 . S
O349 Co327 2.315 . S
O349 C338 1.252 . S
O350 Co320 2.122 . S
O350 C339 1.272 . S
O351 Co322 2.113 . S
O351 C339 1.245 . S
Co352 H355 2.400 . S
Co352 O356 2.009 . S
Co352 O364 2.115 . S
Co352 O365 2.315 . S
Co352 O376 2.053 . S
Co352 O379 2.094 . S
Co352 O382 2.122 . S
Co353 O356 2.126 . S
Co353 H357 2.388 . S
Co353 O358 2.053 . S
Co353 O361 2.047 . S
Co353 O367 2.113 . S
Co353 O378 2.063 . S
Co354 H355 2.388 . S
Co354 O356 2.053 . S
Co354 O358 2.126 . S
Co354 O363 2.063 . S
Co354 O377 2.047 . S
Co354 O383 2.113 . S
H355 Co352 2.400 . S
H355 Co354 2.388 . S
H355 O356 0.760 . S
O356 Co352 2.009 . S
O356 Co353 2.126 . S
O356 Co354 2.053 . S
O356 H355 0.760 . S
H357 Co353 2.388 . S
H357 O358 0.760 . S
H357 Co359 2.400 . S
O358 Co353 2.053 . S
O358 Co354 2.126 . S
O358 H357 0.760 . S
O358 Co359 2.009 . S
Co359 H357 2.400 . S
Co359 O358 2.009 . S
Co359 O360 2.053 . S
Co359 O362 2.094 . S
Co359 O366 2.122 . S
Co359 O380 2.115 . S
Co359 O381 2.315 . S
O360 Co359 2.053 . S
O360 C372 1.259 . S
O361 Co353 2.047 . S
O361 C372 1.257 . S
O362 Co359 2.094 . S
O362 C373 1.253 . S
O363 Co354 2.063 . S
O363 C373 1.268 . S
O364 Co352 2.115 . S
O364 C374 1.281 . S
O365 Co352 2.315 . S
O365 C374 1.252 . S
O366 Co359 2.122 . S
O366 C375 1.272 . S
O367 Co353 2.113 . S
O367 C375 1.245 . S
C368 O376 1.259 . S
C368 O377 1.257 . S
C369 O378 1.268 . S
C369 O379 1.253 . S
C370 O380 1.281 . S
C370 O381 1.252 . S
C371 O382 1.272 . S
C371 O383 1.245 . S
C372 O360 1.259 . S
C372 O361 1.257 . S
C373 O362 1.253 . S
C373 O363 1.268 . S
C374 O364 1.281 . S
C374 O365 1.252 . S
C375 O366 1.272 . S
C375 O367 1.245 . S
O376 Co352 2.053 . S
O376 C368 1.259 . S
O377 Co354 2.047 . S
O377 C368 1.257 . S
O378 Co353 2.063 . S
O378 C369 1.268 . S
O379 Co352 2.094 . S
O379 C369 1.253 . S
O380 Co359 2.115 . S
O380 C370 1.281 . S
O381 Co359 2.315 . S
O381 C370 1.252 . S
O382 Co352 2.122 . S
O382 C371 1.272 . S
O383 Co354 2.113 . S
O383 C371 1.245 . S
Co384 H387 2.400 . S
Co384 O388 2.009 . S
Co384 O396 2.115 . S
Co384 O397 2.315 . S
Co384 O408 2.053 . S
Co384 O411 2.094 . S
Co384 O414 2.122 . S
Co385 O388 2.126 . S
Co385 H389 2.388 . S
Co385 O390 2.053 . S
Co385 O393 2.047 . S
Co385 O399 2.113 . S
Co385 O410 2.063 . S
Co386 H387 2.388 . S
Co386 O388 2.053 . S
Co386 O390 2.126 . S
Co386 O395 2.063 . S
Co386 O409 2.047 . S
Co386 O415 2.113 . S
H387 Co384 2.400 . S
H387 Co386 2.388 . S
H387 O388 0.760 . S
O388 Co384 2.009 . S
O388 Co385 2.126 . S
O388 Co386 2.053 . S
O388 H387 0.760 . S
H389 Co385 2.388 . S
H389 O390 0.760 . S
H389 Co391 2.400 . S
O390 Co385 2.053 . S
O390 Co386 2.126 . S
O390 H389 0.760 . S
O390 Co391 2.009 . S
Co391 H389 2.400 . S
Co391 O390 2.009 . S
Co391 O392 2.053 . S
Co391 O394 2.094 . S
Co391 O398 2.122 . S
Co391 O412 2.115 . S
Co391 O413 2.315 . S
O392 Co391 2.053 . S
O392 C404 1.259 . S
O393 Co385 2.047 . S
O393 C404 1.257 . S
O394 Co391 2.094 . S
O394 C405 1.253 . S
O395 Co386 2.063 . S
O395 C405 1.268 . S
O396 Co384 2.115 . S
O396 C406 1.281 . S
O397 Co384 2.315 . S
O397 C406 1.252 . S
O398 Co391 2.122 . S
O398 C407 1.272 . S
O399 Co385 2.113 . S
O399 C407 1.245 . S
C400 O408 1.259 . S
C400 O409 1.257 . S
C401 O410 1.268 . S
C401 O411 1.253 . S
C402 O412 1.281 . S
C402 O413 1.252 . S
C403 O414 1.272 . S
C403 O415 1.245 . S
C404 O392 1.259 . S
C404 O393 1.257 . S
C405 O394 1.253 . S
C405 O395 1.268 . S
C406 O396 1.281 . S
C406 O397 1.252 . S
C407 O398 1.272 . S
C407 O399 1.245 . S
O408 Co384 2.053 . S
O408 C400 1.259 . S
O409 Co386 2.047 . S
O409 C400 1.257 . S
O410 Co385 2.063 . S
O410 C401 1.268 . S
O411 Co384 2.094 . S
O411 C401 1.253 . S
O412 Co391 2.115 . S
O412 C402 1.281 . S
O413 Co391 2.315 . S
O413 C402 1.252 . S
O414 Co384 2.122 . S
O414 C403 1.272 . S
O415 Co386 2.113 . S
O415 C403 1.245 . S
Co416 H419 2.400 . S
Co416 O420 2.009 . S
Co416 O428 2.115 . S
Co416 O429 2.315 . S
Co416 O440 2.053 . S
Co416 O443 2.094 . S
Co416 O446 2.122 . S
Co417 O420 2.126 . S
Co417 H421 2.388 . S
Co417 O422 2.053 . S
Co417 O425 2.047 . S
Co417 O431 2.113 . S
Co417 O442 2.063 . S
Co418 H419 2.388 . S
Co418 O420 2.053 . S
Co418 O422 2.126 . S
Co418 O427 2.063 . S
Co418 O441 2.047 . S
Co418 O447 2.113 . S
H419 Co416 2.400 . S
H419 Co418 2.388 . S
H419 O420 0.760 . S
O420 Co416 2.009 . S
O420 Co417 2.126 . S
O420 Co418 2.053 . S
O420 H419 0.760 . S
H421 Co417 2.388 . S
H421 O422 0.760 . S
H421 Co423 2.400 . S
O422 Co417 2.053 . S
O422 Co418 2.126 . S
O422 H421 0.760 . S
O422 Co423 2.009 . S
Co423 H421 2.400 . S
Co423 O422 2.009 . S
Co423 O424 2.053 . S
Co423 O426 2.094 . S
Co423 O430 2.122 . S
Co423 O444 2.115 . S
Co423 O445 2.315 . S
O424 Co423 2.053 . S
O424 C436 1.259 . S
O425 Co417 2.047 . S
O425 C436 1.257 . S
O426 Co423 2.094 . S
O426 C437 1.253 . S
O427 Co418 2.063 . S
O427 C437 1.268 . S
O428 Co416 2.115 . S
O428 C438 1.281 . S
O429 Co416 2.315 . S
O429 C438 1.252 . S
O430 Co423 2.122 . S
O430 C439 1.272 . S
O431 Co417 2.113 . S
O431 C439 1.245 . S
C432 O440 1.259 1_556 S
C432 O441 1.257 1_556 S
C433 O442 1.268 . S
C433 O443 1.253 . S
C434 O444 1.281 . S
C434 O445 1.252 . S
C435 O446 1.272 . S
C435 O447 1.245 . S
C436 O424 1.259 . S
C436 O425 1.257 . S
C437 O426 1.253 . S
C437 O427 1.268 . S
C438 O428 1.281 . S
C438 O429 1.252 . S
C439 O430 1.272 . S
C439 O431 1.245 . S
O440 Co416 2.053 . S
O440 C432 1.259 1_554 S
O441 Co418 2.047 . S
O441 C432 1.257 1_554 S
O442 Co417 2.063 . S
O442 C433 1.268 . S
O443 Co416 2.094 . S
O443 C433 1.253 . S
O444 Co423 2.115 . S
O444 C434 1.281 . S
O445 Co423 2.315 . S
O445 C434 1.252 . S
O446 Co416 2.122 . S
O446 C435 1.272 . S
O447 Co418 2.113 . S
O447 C435 1.245 . S
Co448 H451 2.400 . S
Co448 O452 2.009 . S
Co448 O460 2.115 . S
Co448 O461 2.315 . S
Co448 O472 2.053 . S
Co448 O475 2.094 . S
Co448 O478 2.122 . S
Co449 O452 2.126 . S
Co449 H453 2.388 . S
Co449 O454 2.053 . S
Co449 O457 2.047 . S
Co449 O463 2.113 . S
Co449 O474 2.063 . S
Co450 H451 2.388 . S
Co450 O452 2.053 . S
Co450 O454 2.126 . S
Co450 O459 2.063 . S
Co450 O473 2.047 . S
Co450 O479 2.113 . S
H451 Co448 2.400 . S
H451 Co450 2.388 . S
H451 O452 0.760 . S
O452 Co448 2.009 . S
O452 Co449 2.126 . S
O452 Co450 2.053 . S
O452 H451 0.760 . S
H453 Co449 2.388 . S
H453 O454 0.760 . S
H453 Co455 2.400 . S
O454 Co449 2.053 . S
O454 Co450 2.126 . S
O454 H453 0.760 . S
O454 Co455 2.009 . S
Co455 H453 2.400 . S
Co455 O454 2.009 . S
Co455 O456 2.053 . S
Co455 O458 2.094 . S
Co455 O462 2.122 . S
Co455 O476 2.115 . S
Co455 O477 2.315 . S
O456 Co455 2.053 . S
O456 C468 1.259 . S
O457 Co449 2.047 . S
O457 C468 1.257 . S
O458 Co455 2.094 . S
O458 C469 1.253 . S
O459 Co450 2.063 . S
O459 C469 1.268 . S
O460 Co448 2.115 . S
O460 C470 1.281 . S
O461 Co448 2.315 . S
O461 C470 1.252 . S
O462 Co455 2.122 . S
O462 C471 1.272 . S
O463 Co449 2.113 . S
O463 C471 1.245 . S
C464 O472 1.259 . S
C464 O473 1.257 . S
C465 O474 1.268 . S
C465 O475 1.253 . S
C466 O476 1.281 . S
C466 O477 1.252 . S
C467 O478 1.272 . S
C467 O479 1.245 . S
C468 O456 1.259 . S
C468 O457 1.257 . S
C469 O458 1.253 . S
C469 O459 1.268 . S
C470 O460 1.281 . S
C470 O461 1.252 . S
C471 O462 1.272 . S
C471 O463 1.245 . S
O472 Co448 2.053 . S
O472 C464 1.259 . S
O473 Co450 2.047 . S
O473 C464 1.257 . S
O474 Co449 2.063 . S
O474 C465 1.268 . S
O475 Co448 2.094 . S
O475 C465 1.253 . S
O476 Co455 2.115 . S
O476 C466 1.281 . S
O477 Co455 2.315 . S
O477 C466 1.252 . S
O478 Co448 2.122 . S
O478 C467 1.272 . S
O479 Co450 2.113 . S
O479 C467 1.245 . S
Co480 H483 2.400 . S
Co480 O484 2.009 . S
Co480 O492 2.115 . S
Co480 O493 2.315 . S
Co480 O504 2.053 . S
Co480 O507 2.094 . S
Co480 O510 2.122 . S
Co481 O484 2.126 . S
Co481 H485 2.388 . S
Co481 O486 2.053 . S
Co481 O489 2.047 . S
Co481 O495 2.113 . S
Co481 O506 2.063 . S
Co482 H483 2.388 . S
Co482 O484 2.053 . S
Co482 O486 2.126 . S
Co482 O491 2.063 . S
Co482 O505 2.047 . S
Co482 O511 2.113 . S
H483 Co480 2.400 . S
H483 Co482 2.388 . S
H483 O484 0.760 . S
O484 Co480 2.009 . S
O484 Co481 2.126 . S
O484 Co482 2.053 . S
O484 H483 0.760 . S
H485 Co481 2.388 . S
H485 O486 0.760 . S
H485 Co487 2.400 . S
O486 Co481 2.053 . S
O486 Co482 2.126 . S
O486 H485 0.760 . S
O486 Co487 2.009 . S
Co487 H485 2.400 . S
Co487 O486 2.009 . S
Co487 O488 2.053 . S
Co487 O490 2.094 . S
Co487 O494 2.122 . S
Co487 O508 2.115 . S
Co487 O509 2.315 . S
O488 Co487 2.053 . S
O488 C500 1.259 . S
O489 Co481 2.047 . S
O489 C500 1.257 . S
O490 Co487 2.094 . S
O490 C501 1.253 . S
O491 Co482 2.063 . S
O491 C501 1.268 . S
O492 Co480 2.115 . S
O492 C502 1.281 . S
O493 Co480 2.315 . S
O493 C502 1.252 . S
O494 Co487 2.122 . S
O494 C503 1.272 . S
O495 Co481 2.113 . S
O495 C503 1.245 . S
C496 O504 1.259 1_554 S
C496 O505 1.257 1_554 S
C497 O506 1.268 . S
C497 O507 1.253 . S
C498 O508 1.281 . S
C498 O509 1.252 . S
C499 O510 1.272 . S
C499 O511 1.245 . S
C500 O488 1.259 . S
C500 O489 1.257 . S
C501 O490 1.253 . S
C501 O491 1.268 . S
C502 O492 1.281 . S
C502 O493 1.252 . S
C503 O494 1.272 . S
C503 O495 1.245 . S
O504 Co480 2.053 . S
O504 C496 1.259 1_556 S
O505 Co482 2.047 . S
O505 C496 1.257 1_556 S
O506 Co481 2.063 . S
O506 C497 1.268 . S
O507 Co480 2.094 . S
O507 C497 1.253 . S
O508 Co487 2.115 . S
O508 C498 1.281 . S
O509 Co487 2.315 . S
O509 C498 1.252 . S
O510 Co480 2.122 . S
O510 C499 1.272 . S
O511 Co482 2.113 . S
O511 C499 1.245 . S
Co512 H515 2.400 . S
Co512 O516 2.009 . S
Co512 O524 2.115 . S
Co512 O525 2.315 . S
Co512 O536 2.053 . S
Co512 O539 2.094 . S
Co512 O542 2.122 . S
Co513 O516 2.126 . S
Co513 H517 2.388 . S
Co513 O518 2.053 . S
Co513 O521 2.047 . S
Co513 O527 2.113 . S
Co513 O538 2.063 . S
Co514 H515 2.388 . S
Co514 O516 2.053 . S
Co514 O518 2.126 . S
Co514 O523 2.063 . S
Co514 O537 2.047 . S
Co514 O543 2.113 . S
H515 Co512 2.400 . S
H515 Co514 2.388 . S
H515 O516 0.760 . S
O516 Co512 2.009 . S
O516 Co513 2.126 . S
O516 Co514 2.053 . S
O516 H515 0.760 . S
H517 Co513 2.388 . S
H517 O518 0.760 . S
H517 Co519 2.400 . S
O518 Co513 2.053 . S
O518 Co514 2.126 . S
O518 H517 0.760 . S
O518 Co519 2.009 . S
Co519 H517 2.400 . S
Co519 O518 2.009 . S
Co519 O520 2.053 . S
Co519 O522 2.094 . S
Co519 O526 2.122 . S
Co519 O540 2.115 . S
Co519 O541 2.315 . S
O520 Co519 2.053 . S
O520 C532 1.259 . S
O521 Co513 2.047 . S
O521 C532 1.257 . S
O522 Co519 2.094 . S
O522 C533 1.253 . S
O523 Co514 2.063 . S
O523 C533 1.268 . S
O524 Co512 2.115 . S
O524 C534 1.281 . S
O525 Co512 2.315 . S
O525 C534 1.252 . S
O526 Co519 2.122 . S
O526 C535 1.272 . S
O527 Co513 2.113 . S
O527 C535 1.245 . S
C528 O536 1.259 . S
C528 O537 1.257 . S
C529 O538 1.268 . S
C529 O539 1.253 . S
C530 O540 1.281 . S
C530 O541 1.252 . S
C531 O542 1.272 . S
C531 O543 1.245 . S
C532 O520 1.259 . S
C532 O521 1.257 . S
C533 O522 1.253 . S
C533 O523 1.268 . S
C534 O524 1.281 . S
C534 O525 1.252 . S
C535 O526 1.272 . S
C535 O527 1.245 . S
O536 Co512 2.053 . S
O536 C528 1.259 . S
O537 Co514 2.047 . S
O537 C528 1.257 . S
O538 Co513 2.063 . S
O538 C529 1.268 . S
O539 Co512 2.094 . S
O539 C529 1.253 . S
O540 Co519 2.115 . S
O540 C530 1.281 . S
O541 Co519 2.315 . S
O541 C530 1.252 . S
O542 Co512 2.122 . S
O542 C531 1.272 . S
O543 Co514 2.113 . S
O543 C531 1.245 . S
Co544 H547 2.400 . S
Co544 O548 2.009 . S
Co544 O556 2.115 . S
Co544 O557 2.315 . S
Co544 O568 2.053 . S
Co544 O571 2.094 . S
Co544 O574 2.122 . S
Co545 O548 2.126 . S
Co545 H549 2.388 . S
Co545 O550 2.053 . S
Co545 O553 2.047 . S
Co545 O559 2.113 . S
Co545 O570 2.063 . S
Co546 H547 2.388 . S
Co546 O548 2.053 . S
Co546 O550 2.126 . S
Co546 O555 2.063 . S
Co546 O569 2.047 . S
Co546 O575 2.113 . S
H547 Co544 2.400 . S
H547 Co546 2.388 . S
H547 O548 0.760 . S
O548 Co544 2.009 . S
O548 Co545 2.126 . S
O548 Co546 2.053 . S
O548 H547 0.760 . S
H549 Co545 2.388 . S
H549 O550 0.760 . S
H549 Co551 2.400 . S
O550 Co545 2.053 . S
O550 Co546 2.126 . S
O550 H549 0.760 . S
O550 Co551 2.009 . S
Co551 H549 2.400 . S
Co551 O550 2.009 . S
Co551 O552 2.053 . S
Co551 O554 2.094 . S
Co551 O558 2.122 . S
Co551 O572 2.115 . S
Co551 O573 2.315 . S
O552 Co551 2.053 . S
O552 C564 1.259 . S
O553 Co545 2.047 . S
O553 C564 1.257 . S
O554 Co551 2.094 . S
O554 C565 1.253 . S
O555 Co546 2.063 . S
O555 C565 1.268 . S
O556 Co544 2.115 . S
O556 C566 1.281 . S
O557 Co544 2.315 . S
O557 C566 1.252 . S
O558 Co551 2.122 . S
O558 C567 1.272 . S
O559 Co545 2.113 . S
O559 C567 1.245 . S
C560 O568 1.259 1_455 S
C560 O569 1.257 1_455 S
C561 O570 1.268 . S
C561 O571 1.253 . S
C562 O572 1.281 . S
C562 O573 1.252 . S
C563 O574 1.272 . S
C563 O575 1.245 . S
C564 O552 1.259 . S
C564 O553 1.257 . S
C565 O554 1.253 . S
C565 O555 1.268 . S
C566 O556 1.281 . S
C566 O557 1.252 . S
C567 O558 1.272 . S
C567 O559 1.245 . S
O568 Co544 2.053 . S
O568 C560 1.259 1_655 S
O569 Co546 2.047 . S
O569 C560 1.257 1_655 S
O570 Co545 2.063 . S
O570 C561 1.268 . S
O571 Co544 2.094 . S
O571 C561 1.253 . S
O572 Co551 2.115 . S
O572 C562 1.281 . S
O573 Co551 2.315 . S
O573 C562 1.252 . S
O574 Co544 2.122 . S
O574 C563 1.272 . S
O575 Co546 2.113 . S
O575 C563 1.245 . S
Co576 H579 2.400 . S
Co576 O580 2.009 . S
Co576 O588 2.115 . S
Co576 O589 2.315 . S
Co576 O600 2.053 . S
Co576 O603 2.094 . S
Co576 O606 2.122 . S
Co577 O580 2.126 . S
Co577 H581 2.388 . S
Co577 O582 2.053 . S
Co577 O585 2.047 . S
Co577 O591 2.113 . S
Co577 O602 2.063 . S
Co578 H579 2.388 . S
Co578 O580 2.053 . S
Co578 O582 2.126 . S
Co578 O587 2.063 . S
Co578 O601 2.047 . S
Co578 O607 2.113 . S
H579 Co576 2.400 . S
H579 Co578 2.388 . S
H579 O580 0.760 . S
O580 Co576 2.009 . S
O580 Co577 2.126 . S
O580 Co578 2.053 . S
O580 H579 0.760 . S
H581 Co577 2.388 . S
H581 O582 0.760 . S
H581 Co583 2.400 . S
O582 Co577 2.053 . S
O582 Co578 2.126 . S
O582 H581 0.760 . S
O582 Co583 2.009 . S
Co583 H581 2.400 . S
Co583 O582 2.009 . S
Co583 O584 2.053 . S
Co583 O586 2.094 . S
Co583 O590 2.122 . S
Co583 O604 2.115 . S
Co583 O605 2.315 . S
O584 Co583 2.053 . S
O584 C596 1.259 . S
O585 Co577 2.047 . S
O585 C596 1.257 . S
O586 Co583 2.094 . S
O586 C597 1.253 . S
O587 Co578 2.063 . S
O587 C597 1.268 . S
O588 Co576 2.115 . S
O588 C598 1.281 . S
O589 Co576 2.315 . S
O589 C598 1.252 . S
O590 Co583 2.122 . S
O590 C599 1.272 . S
O591 Co577 2.113 . S
O591 C599 1.245 . S
C592 O600 1.259 1_655 S
C592 O601 1.257 1_655 S
C593 O602 1.268 . S
C593 O603 1.253 . S
C594 O604 1.281 . S
C594 O605 1.252 . S
C595 O606 1.272 . S
C595 O607 1.245 . S
C596 O584 1.259 . S
C596 O585 1.257 . S
C597 O586 1.253 . S
C597 O587 1.268 . S
C598 O588 1.281 . S
C598 O589 1.252 . S
C599 O590 1.272 . S
C599 O591 1.245 . S
O600 Co576 2.053 . S
O600 C592 1.259 1_455 S
O601 Co578 2.047 . S
O601 C592 1.257 1_455 S
O602 Co577 2.063 . S
O602 C593 1.268 . S
O603 Co576 2.094 . S
O603 C593 1.253 . S
O604 Co583 2.115 . S
O604 C594 1.281 . S
O605 Co583 2.315 . S
O605 C594 1.252 . S
O606 Co576 2.122 . S
O606 C595 1.272 . S
O607 Co578 2.113 . S
O607 C595 1.245 . S
Co608 H611 2.400 . S
Co608 O612 2.009 . S
Co608 O620 2.115 . S
Co608 O621 2.315 . S
Co608 O632 2.053 . S
Co608 O635 2.094 . S
Co608 O638 2.122 . S
Co609 O612 2.126 . S
Co609 H613 2.388 . S
Co609 O614 2.053 . S
Co609 O617 2.047 . S
Co609 O623 2.113 . S
Co609 O634 2.063 . S
Co610 H611 2.388 . S
Co610 O612 2.053 . S
Co610 O614 2.126 . S
Co610 O619 2.063 . S
Co610 O633 2.047 . S
Co610 O639 2.113 . S
H611 Co608 2.400 . S
H611 Co610 2.388 . S
H611 O612 0.760 . S
O612 Co608 2.009 . S
O612 Co609 2.126 . S
O612 Co610 2.053 . S
O612 H611 0.760 . S
H613 Co609 2.388 . S
H613 O614 0.760 . S
H613 Co615 2.400 . S
O614 Co609 2.053 . S
O614 Co610 2.126 . S
O614 H613 0.760 . S
O614 Co615 2.009 . S
Co615 H613 2.400 . S
Co615 O614 2.009 . S
Co615 O616 2.053 . S
Co615 O618 2.094 . S
Co615 O622 2.122 . S
Co615 O636 2.115 . S
Co615 O637 2.315 . S
O616 Co615 2.053 . S
O616 C628 1.259 . S
O617 Co609 2.047 . S
O617 C628 1.257 . S
O618 Co615 2.094 . S
O618 C629 1.253 . S
O619 Co610 2.063 . S
O619 C629 1.268 . S
O620 Co608 2.115 . S
O620 C630 1.281 . S
O621 Co608 2.315 . S
O621 C630 1.252 . S
O622 Co615 2.122 . S
O622 C631 1.272 . S
O623 Co609 2.113 . S
O623 C631 1.245 . S
C624 O632 1.259 . S
C624 O633 1.257 . S
C625 O634 1.268 . S
C625 O635 1.253 . S
C626 O636 1.281 . S
C626 O637 1.252 . S
C627 O638 1.272 . S
C627 O639 1.245 . S
C628 O616 1.259 . S
C628 O617 1.257 . S
C629 O618 1.253 . S
C629 O619 1.268 . S
C630 O620 1.281 . S
C630 O621 1.252 . S
C631 O622 1.272 . S
C631 O623 1.245 . S
O632 Co608 2.053 . S
O632 C624 1.259 . S
O633 Co610 2.047 . S
O633 C624 1.257 . S
O634 Co609 2.063 . S
O634 C625 1.268 . S
O635 Co608 2.094 . S
O635 C625 1.253 . S
O636 Co615 2.115 . S
O636 C626 1.281 . S
O637 Co615 2.315 . S
O637 C626 1.252 . S
O638 Co608 2.122 . S
O638 C627 1.272 . S
O639 Co610 2.113 . S
O639 C627 1.245 . S
Co640 H643 2.400 . S
Co640 O644 2.009 . S
Co640 O652 2.115 . S
Co640 O653 2.315 . S
Co640 O664 2.053 . S
Co640 O667 2.094 . S
Co640 O670 2.122 . S
Co641 O644 2.126 . S
Co641 H645 2.388 . S
Co641 O646 2.053 . S
Co641 O649 2.047 . S
Co641 O655 2.113 . S
Co641 O666 2.063 . S
Co642 H643 2.388 . S
Co642 O644 2.053 . S
Co642 O646 2.126 . S
Co642 O651 2.063 . S
Co642 O665 2.047 . S
Co642 O671 2.113 . S
H643 Co640 2.400 . S
H643 Co642 2.388 . S
H643 O644 0.760 . S
O644 Co640 2.009 . S
O644 Co641 2.126 . S
O644 Co642 2.053 . S
O644 H643 0.760 . S
H645 Co641 2.388 . S
H645 O646 0.760 . S
H645 Co647 2.400 . S
O646 Co641 2.053 . S
O646 Co642 2.126 . S
O646 H645 0.760 . S
O646 Co647 2.009 . S
Co647 H645 2.400 . S
Co647 O646 2.009 . S
Co647 O648 2.053 . S
Co647 O650 2.094 . S
Co647 O654 2.122 . S
Co647 O668 2.115 . S
Co647 O669 2.315 . S
O648 Co647 2.053 . S
O648 C660 1.259 . S
O649 Co641 2.047 . S
O649 C660 1.257 . S
O650 Co647 2.094 . S
O650 C661 1.253 . S
O651 Co642 2.063 . S
O651 C661 1.268 . S
O652 Co640 2.115 . S
O652 C662 1.281 . S
O653 Co640 2.315 . S
O653 C662 1.252 . S
O654 Co647 2.122 . S
O654 C663 1.272 . S
O655 Co641 2.113 . S
O655 C663 1.245 . S
C656 O664 1.259 . S
C656 O665 1.257 . S
C657 O666 1.268 . S
C657 O667 1.253 . S
C658 O668 1.281 . S
C658 O669 1.252 . S
C659 O670 1.272 . S
C659 O671 1.245 . S
C660 O648 1.259 . S
C660 O649 1.257 . S
C661 O650 1.253 . S
C661 O651 1.268 . S
C662 O652 1.281 . S
C662 O653 1.252 . S
C663 O654 1.272 . S
C663 O655 1.245 . S
O664 Co640 2.053 . S
O664 C656 1.259 . S
O665 Co642 2.047 . S
O665 C656 1.257 . S
O666 Co641 2.063 . S
O666 C657 1.268 . S
O667 Co640 2.094 . S
O667 C657 1.253 . S
O668 Co647 2.115 . S
O668 C658 1.281 . S
O669 Co647 2.315 . S
O669 C658 1.252 . S
O670 Co640 2.122 . S
O670 C659 1.272 . S
O671 Co642 2.113 . S
O671 C659 1.245 . S
Co672 H675 2.400 . S
Co672 O676 2.009 . S
Co672 O684 2.115 . S
Co672 O685 2.315 . S
Co672 O696 2.053 . S
Co672 O699 2.094 . S
Co672 O702 2.122 . S
Co673 O676 2.126 . S
Co673 H677 2.388 . S
Co673 O678 2.053 . S
Co673 O681 2.047 . S
Co673 O687 2.113 . S
Co673 O698 2.063 . S
Co674 H675 2.388 . S
Co674 O676 2.053 . S
Co674 O678 2.126 . S
Co674 O683 2.063 . S
Co674 O697 2.047 . S
Co674 O703 2.113 . S
H675 Co672 2.400 . S
H675 Co674 2.388 . S
H675 O676 0.760 . S
O676 Co672 2.009 . S
O676 Co673 2.126 . S
O676 Co674 2.053 . S
O676 H675 0.760 . S
H677 Co673 2.388 . S
H677 O678 0.760 . S
H677 Co679 2.400 . S
O678 Co673 2.053 . S
O678 Co674 2.126 . S
O678 H677 0.760 . S
O678 Co679 2.009 . S
Co679 H677 2.400 . S
Co679 O678 2.009 . S
Co679 O680 2.053 . S
Co679 O682 2.094 . S
Co679 O686 2.122 . S
Co679 O700 2.115 . S
Co679 O701 2.315 . S
O680 Co679 2.053 . S
O680 C692 1.259 . S
O681 Co673 2.047 . S
O681 C692 1.257 . S
O682 Co679 2.094 . S
O682 C693 1.253 . S
O683 Co674 2.063 . S
O683 C693 1.268 . S
O684 Co672 2.115 . S
O684 C694 1.281 . S
O685 Co672 2.315 . S
O685 C694 1.252 . S
O686 Co679 2.122 . S
O686 C695 1.272 . S
O687 Co673 2.113 . S
O687 C695 1.245 . S
C688 O696 1.259 1_545 S
C688 O697 1.257 1_545 S
C689 O698 1.268 . S
C689 O699 1.253 . S
C690 O700 1.281 . S
C690 O701 1.252 . S
C691 O702 1.272 . S
C691 O703 1.245 . S
C692 O680 1.259 . S
C692 O681 1.257 . S
C693 O682 1.253 . S
C693 O683 1.268 . S
C694 O684 1.281 . S
C694 O685 1.252 . S
C695 O686 1.272 . S
C695 O687 1.245 . S
O696 Co672 2.053 . S
O696 C688 1.259 1_565 S
O697 Co674 2.047 . S
O697 C688 1.257 1_565 S
O698 Co673 2.063 . S
O698 C689 1.268 . S
O699 Co672 2.094 . S
O699 C689 1.253 . S
O700 Co679 2.115 . S
O700 C690 1.281 . S
O701 Co679 2.315 . S
O701 C690 1.252 . S
O702 Co672 2.122 . S
O702 C691 1.272 . S
O703 Co674 2.113 . S
O703 C691 1.245 . S
Co704 H707 2.400 . S
Co704 O708 2.009 . S
Co704 O716 2.115 . S
Co704 O717 2.315 . S
Co704 O728 2.053 . S
Co704 O731 2.094 . S
Co704 O734 2.122 . S
Co705 O708 2.126 . S
Co705 H709 2.388 . S
Co705 O710 2.053 . S
Co705 O713 2.047 . S
Co705 O719 2.113 . S
Co705 O730 2.063 . S
Co706 H707 2.388 . S
Co706 O708 2.053 . S
Co706 O710 2.126 . S
Co706 O715 2.063 . S
Co706 O729 2.047 . S
Co706 O735 2.113 . S
H707 Co704 2.400 . S
H707 Co706 2.388 . S
H707 O708 0.760 . S
O708 Co704 2.009 . S
O708 Co705 2.126 . S
O708 Co706 2.053 . S
O708 H707 0.760 . S
H709 Co705 2.388 . S
H709 O710 0.760 . S
H709 Co711 2.400 . S
O710 Co705 2.053 . S
O710 Co706 2.126 . S
O710 H709 0.760 . S
O710 Co711 2.009 . S
Co711 H709 2.400 . S
Co711 O710 2.009 . S
Co711 O712 2.053 . S
Co711 O714 2.094 . S
Co711 O718 2.122 . S
Co711 O732 2.115 . S
Co711 O733 2.315 . S
O712 Co711 2.053 . S
O712 C724 1.259 . S
O713 Co705 2.047 . S
O713 C724 1.257 . S
O714 Co711 2.094 . S
O714 C725 1.253 . S
O715 Co706 2.063 . S
O715 C725 1.268 . S
O716 Co704 2.115 . S
O716 C726 1.281 . S
O717 Co704 2.315 . S
O717 C726 1.252 . S
O718 Co711 2.122 . S
O718 C727 1.272 . S
O719 Co705 2.113 . S
O719 C727 1.245 . S
C720 O728 1.259 1_565 S
C720 O729 1.257 1_565 S
C721 O730 1.268 . S
C721 O731 1.253 . S
C722 O732 1.281 . S
C722 O733 1.252 . S
C723 O734 1.272 . S
C723 O735 1.245 . S
C724 O712 1.259 . S
C724 O713 1.257 . S
C725 O714 1.253 . S
C725 O715 1.268 . S
C726 O716 1.281 . S
C726 O717 1.252 . S
C727 O718 1.272 . S
C727 O719 1.245 . S
O728 Co704 2.053 . S
O728 C720 1.259 1_545 S
O729 Co706 2.047 . S
O729 C720 1.257 1_545 S
O730 Co705 2.063 . S
O730 C721 1.268 . S
O731 Co704 2.094 . S
O731 C721 1.253 . S
O732 Co711 2.115 . S
O732 C722 1.281 . S
O733 Co711 2.315 . S
O733 C722 1.252 . S
O734 Co704 2.122 . S
O734 C723 1.272 . S
O735 Co706 2.113 . S
O735 C723 1.245 . S
Co736 H739 2.400 . S
Co736 O740 2.009 . S
Co736 O748 2.115 . S
Co736 O749 2.315 . S
Co736 O760 2.053 . S
Co736 O763 2.094 . S
Co736 O766 2.122 . S
Co737 O740 2.126 . S
Co737 H741 2.388 . S
Co737 O742 2.053 . S
Co737 O745 2.047 . S
Co737 O751 2.113 . S
Co737 O762 2.063 . S
Co738 H739 2.388 . S
Co738 O740 2.053 . S
Co738 O742 2.126 . S
Co738 O747 2.063 . S
Co738 O761 2.047 . S
Co738 O767 2.113 . S
H739 Co736 2.400 . S
H739 Co738 2.388 . S
H739 O740 0.760 . S
O740 Co736 2.009 . S
O740 Co737 2.126 . S
O740 Co738 2.053 . S
O740 H739 0.760 . S
H741 Co737 2.388 . S
H741 O742 0.760 . S
H741 Co743 2.400 . S
O742 Co737 2.053 . S
O742 Co738 2.126 . S
O742 H741 0.760 . S
O742 Co743 2.009 . S
Co743 H741 2.400 . S
Co743 O742 2.009 . S
Co743 O744 2.053 . S
Co743 O746 2.094 . S
Co743 O750 2.122 . S
Co743 O764 2.115 . S
Co743 O765 2.315 . S
O744 Co743 2.053 . S
O744 C756 1.259 . S
O745 Co737 2.047 . S
O745 C756 1.257 . S
O746 Co743 2.094 . S
O746 C757 1.253 . S
O747 Co738 2.063 . S
O747 C757 1.268 . S
O748 Co736 2.115 . S
O748 C758 1.281 . S
O749 Co736 2.315 . S
O749 C758 1.252 . S
O750 Co743 2.122 . S
O750 C759 1.272 . S
O751 Co737 2.113 . S
O751 C759 1.245 . S
C752 O760 1.259 . S
C752 O761 1.257 . S
C753 O762 1.268 . S
C753 O763 1.253 . S
C754 O764 1.281 . S
C754 O765 1.252 . S
C755 O766 1.272 . S
C755 O767 1.245 . S
C756 O744 1.259 . S
C756 O745 1.257 . S
C757 O746 1.253 . S
C757 O747 1.268 . S
C758 O748 1.281 . S
C758 O749 1.252 . S
C759 O750 1.272 . S
C759 O751 1.245 . S
O760 Co736 2.053 . S
O760 C752 1.259 . S
O761 Co738 2.047 . S
O761 C752 1.257 . S
O762 Co737 2.063 . S
O762 C753 1.268 . S
O763 Co736 2.094 . S
O763 C753 1.253 . S
O764 Co743 2.115 . S
O764 C754 1.281 . S
O765 Co743 2.315 . S
O765 C754 1.252 . S
O766 Co736 2.122 . S
O766 C755 1.272 . S
O767 Co738 2.113 . S
O767 C755 1.245 . S
H768 C776 0.950 . S
H769 C781 0.950 . S
H770 C778 0.950 . S
H771 C780 0.950 . S
H772 C782 0.950 . S
H773 C784 0.950 . S
H774 C786 0.950 . S
H775 C787 0.950 . S
C776 H768 0.950 . S
C776 C777 1.386 . S
C776 C778 1.391 . S
C777 C776 1.386 . S
C777 C781 1.393 . S
C778 H770 0.950 . S
C778 C776 1.391 . S
C778 C779 1.400 . S
C779 C778 1.400 . S
C779 C780 1.398 . S
C779 C785 1.491 . S
C780 H771 0.950 . S
C780 C779 1.398 . S
C780 C781 1.391 . S
C781 H769 0.950 . S
C781 C777 1.393 . S
C781 C780 1.391 . S
C782 H772 0.950 . S
C782 C783 1.386 . S
C782 C784 1.391 . S
C783 C782 1.386 . S
C783 C787 1.393 . S
C784 H773 0.950 . S
C784 C782 1.391 . S
C784 C785 1.400 . S
C785 C779 1.491 . S
C785 C784 1.400 . S
C785 C786 1.398 . S
C786 H774 0.950 . S
C786 C785 1.398 . S
C786 C787 1.391 . S
C787 H775 0.950 . S
C787 C783 1.393 . S
C787 C786 1.391 . S
H788 C796 0.950 . S
H789 C801 0.950 . S
H790 C798 0.950 . S
H791 C800 0.950 . S
H792 C802 0.950 . S
H793 C804 0.950 . S
H794 C806 0.950 . S
H795 C807 0.950 . S
C796 H788 0.950 . S
C796 C797 1.386 . S
C796 C798 1.391 . S
C797 C796 1.386 . S
C797 C801 1.393 . S
C798 H790 0.950 . S
C798 C796 1.391 . S
C798 C799 1.400 . S
C799 C798 1.400 . S
C799 C800 1.398 . S
C799 C805 1.491 . S
C800 H791 0.950 . S
C800 C799 1.398 . S
C800 C801 1.391 . S
C801 H789 0.950 . S
C801 C797 1.393 . S
C801 C800 1.391 . S
C802 H792 0.950 . S
C802 C803 1.386 . S
C802 C804 1.391 . S
C803 C802 1.386 . S
C803 C807 1.393 . S
C804 H793 0.950 . S
C804 C802 1.391 . S
C804 C805 1.400 . S
C805 C799 1.491 . S
C805 C804 1.400 . S
C805 C806 1.398 . S
C806 H794 0.950 . S
C806 C805 1.398 . S
C806 C807 1.391 . S
C807 H795 0.950 . S
C807 C803 1.393 . S
C807 C806 1.391 . S
H808 C816 0.950 . S
H809 C821 0.945 1_565 S
H810 C818 0.950 . S
H811 C820 0.950 . S
H812 C822 0.950 . S
H813 C824 0.950 . S
H814 C826 0.950 . S
H815 C827 0.950 . S
C816 H808 0.950 . S
C816 C817 1.386 . S
C816 C818 1.391 1_565 S
C817 C816 1.386 . S
C817 C821 1.381 1_565 S
C818 H810 0.950 . S
C818 C816 1.391 1_545 S
C818 C819 1.400 . S
C819 C818 1.400 . S
C819 C820 1.398 . S
C819 C825 1.491 . S
C820 H811 0.950 . S
C820 C819 1.398 . S
C820 C821 1.408 . S
C821 H809 0.945 1_545 S
C821 C817 1.381 1_545 S
C821 C820 1.408 . S
C822 H812 0.950 . S
C822 C823 1.386 . S
C822 C824 1.391 . S
C823 C822 1.386 . S
C823 C827 1.393 . S
C824 H813 0.950 . S
C824 C822 1.391 . S
C824 C825 1.400 . S
C825 C819 1.491 . S
C825 C824 1.400 . S
C825 C826 1.398 . S
C826 H814 0.950 . S
C826 C825 1.398 . S
C826 C827 1.391 . S
C827 H815 0.950 . S
C827 C823 1.393 . S
C827 C826 1.391 . S
H828 C836 0.950 . S
H829 C841 0.950 . S
H830 C838 0.950 . S
H831 C840 0.950 . S
H832 C842 0.950 1_545 S
H833 C844 0.950 . S
H834 C846 0.950 . S
H835 C847 0.950 . S
C836 H828 0.950 . S
C836 C837 1.386 . S
C836 C838 1.391 . S
C837 C836 1.386 . S
C837 C841 1.393 . S
C838 H830 0.950 . S
C838 C836 1.391 . S
C838 C839 1.400 . S
C839 C838 1.400 . S
C839 C840 1.398 . S
C839 C845 1.491 . S
C840 H831 0.950 . S
C840 C839 1.398 . S
C840 C841 1.391 . S
C841 H829 0.950 . S
C841 C837 1.393 . S
C841 C840 1.391 . S
C842 H832 0.950 1_565 S
C842 C843 1.386 1_565 S
C842 C844 1.391 . S
C843 C842 1.386 1_545 S
C843 C847 1.393 . S
C844 H833 0.950 . S
C844 C842 1.391 . S
C844 C845 1.400 . S
C845 C839 1.491 . S
C845 C844 1.400 . S
C845 C846 1.398 . S
C846 H834 0.950 . S
C846 C845 1.398 . S
C846 C847 1.391 1_565 S
C847 H835 0.950 . S
C847 C843 1.393 . S
C847 C846 1.391 1_545 S
H848 C856 0.950 . S
H849 C861 0.950 . S
H850 C858 0.950 . S
H851 C860 0.950 . S
H852 C862 0.950 . S
H853 C864 0.950 . S
H854 C866 0.950 . S
H855 C867 0.950 . S
C856 H848 0.950 . S
C856 C857 1.386 . S
C856 C858 1.391 . S
C857 C856 1.386 . S
C857 C861 1.393 . S
C858 H850 0.950 . S
C858 C856 1.391 . S
C858 C859 1.400 . S
C859 C858 1.400 . S
C859 C860 1.398 . S
C859 C865 1.491 . S
C860 H851 0.950 . S
C860 C859 1.398 . S
C860 C861 1.391 . S
C861 H849 0.950 . S
C861 C857 1.393 . S
C861 C860 1.391 . S
C862 H852 0.950 . S
C862 C863 1.386 . S
C862 C864 1.391 . S
C863 C862 1.386 . S
C863 C867 1.393 . S
C864 H853 0.950 . S
C864 C862 1.391 . S
C864 C865 1.400 . S
C865 C859 1.491 . S
C865 C864 1.400 . S
C865 C866 1.398 . S
C866 H854 0.950 . S
C866 C865 1.398 . S
C866 C867 1.391 . S
C867 H855 0.950 . S
C867 C863 1.393 . S
C867 C866 1.391 . S
H868 C876 0.950 . S
H869 C881 0.950 . S
H870 C878 0.950 . S
H871 C880 0.950 . S
H872 C882 0.950 . S
H873 C884 0.950 . S
H874 C886 0.950 . S
H875 C887 0.950 . S
C876 H868 0.950 . S
C876 C877 1.386 . S
C876 C878 1.391 1_554 S
C877 C876 1.386 . S
C877 C881 1.393 . S
C878 H870 0.950 . S
C878 C876 1.391 1_556 S
C878 C879 1.400 . S
C879 C878 1.400 . S
C879 C880 1.398 . S
C879 C885 1.491 . S
C880 H871 0.950 . S
C880 C879 1.398 . S
C880 C881 1.391 1_556 S
C881 H869 0.950 . S
C881 C877 1.393 . S
C881 C880 1.391 1_554 S
C882 H872 0.950 . S
C882 C883 1.386 . S
C882 C884 1.391 . S
C883 C882 1.386 . S
C883 C887 1.393 . S
C884 H873 0.950 . S
C884 C882 1.391 . S
C884 C885 1.400 . S
C885 C879 1.491 . S
C885 C884 1.400 . S
C885 C886 1.398 . S
C886 H874 0.950 . S
C886 C885 1.398 . S
C886 C887 1.391 . S
C887 H875 0.950 . S
C887 C883 1.393 . S
C887 C886 1.391 . S
H888 C896 0.950 . S
H889 C901 0.950 . S
H890 C898 0.950 . S
H891 C900 0.950 . S
H892 C902 0.950 . S
H893 C904 0.950 . S
H894 C906 0.950 . S
H895 C907 0.950 . S
C896 H888 0.950 . S
C896 C897 1.386 . S
C896 C898 1.391 . S
C897 C896 1.386 . S
C897 C901 1.393 . S
C898 H890 0.950 . S
C898 C896 1.391 . S
C898 C899 1.400 . S
C899 C898 1.400 . S
C899 C900 1.398 . S
C899 C905 1.491 . S
C900 H891 0.950 . S
C900 C899 1.398 . S
C900 C901 1.391 . S
C901 H889 0.950 . S
C901 C897 1.393 . S
C901 C900 1.391 . S
C902 H892 0.950 . S
C902 C903 1.386 . S
C902 C904 1.391 . S
C903 C902 1.386 . S
C903 C907 1.393 . S
C904 H893 0.950 . S
C904 C902 1.391 . S
C904 C905 1.400 . S
C905 C899 1.491 . S
C905 C904 1.400 . S
C905 C906 1.398 . S
C906 H894 0.950 . S
C906 C905 1.398 . S
C906 C907 1.391 . S
C907 H895 0.950 . S
C907 C903 1.393 . S
C907 C906 1.391 . S
H908 C916 0.950 . S
H909 C921 0.955 . S
H910 C918 0.950 . S
H911 C920 0.950 . S
H912 C922 0.950 . S
H913 C924 0.950 . S
H914 C926 0.950 . S
H915 C927 0.950 . S
C916 H908 0.950 . S
C916 C917 1.386 . S
C916 C918 1.391 1_556 S
C917 C916 1.386 . S
C917 C921 1.403 . S
C918 H910 0.950 . S
C918 C916 1.391 1_554 S
C918 C919 1.400 . S
C919 C918 1.400 . S
C919 C920 1.398 . S
C919 C925 1.491 . S
C920 H911 0.950 . S
C920 C919 1.398 . S
C920 C921 1.376 1_554 S
C921 H909 0.955 . S
C921 C917 1.403 . S
C921 C920 1.376 1_556 S
C922 H912 0.950 . S
C922 C923 1.386 . S
C922 C924 1.391 . S
C923 C922 1.386 . S
C923 C927 1.393 . S
C924 H913 0.950 . S
C924 C922 1.391 . S
C924 C925 1.400 . S
C925 C919 1.491 . S
C925 C924 1.400 . S
C925 C926 1.398 . S
C926 H914 0.950 . S
C926 C925 1.398 . S
C926 C927 1.391 . S
C927 H915 0.950 . S
C927 C923 1.393 . S
C927 C926 1.391 . S
H928 C936 0.950 . S
H929 C941 0.950 . S
H930 C938 0.950 . S
H931 C940 0.950 . S
H932 C942 0.950 . S
H933 C944 0.950 . S
H934 C946 0.950 . S
H935 C947 0.950 . S
C936 H928 0.950 . S
C936 C937 1.386 . S
C936 C938 1.391 . S
C937 C936 1.386 . S
C937 C941 1.393 . S
C938 H930 0.950 . S
C938 C936 1.391 . S
C938 C939 1.400 . S
C939 C938 1.400 . S
C939 C940 1.398 . S
C939 C945 1.491 . S
C940 H931 0.950 . S
C940 C939 1.398 . S
C940 C941 1.391 . S
C941 H929 0.950 . S
C941 C937 1.393 . S
C941 C940 1.391 . S
C942 H932 0.950 . S
C942 C943 1.386 . S
C942 C944 1.391 . S
C943 C942 1.386 . S
C943 C947 1.393 . S
C944 H933 0.950 . S
C944 C942 1.391 . S
C944 C945 1.400 . S
C945 C939 1.491 . S
C945 C944 1.400 . S
C945 C946 1.398 . S
C946 H934 0.950 . S
C946 C945 1.398 . S
C946 C947 1.391 . S
C947 H935 0.950 . S
C947 C943 1.393 . S
C947 C946 1.391 . S
H948 C956 0.950 . S
H949 C961 0.958 . S
H950 C958 0.950 . S
H951 C960 0.950 . S
H952 C962 0.950 . S
H953 C964 0.950 . S
H954 C966 0.950 . S
H955 C967 0.950 . S
C956 H948 0.950 . S
C956 C957 1.386 . S
C956 C958 1.391 1_455 S
C957 C956 1.386 . S
C957 C961 1.411 . S
C958 H950 0.950 . S
C958 C956 1.391 1_655 S
C958 C959 1.400 . S
C959 C958 1.400 . S
C959 C960 1.398 . S
C959 C965 1.491 . S
C960 H951 0.950 . S
C960 C959 1.398 . S
C960 C961 1.365 1_655 S
C961 H949 0.958 . S
C961 C957 1.411 . S
C961 C960 1.365 1_455 S
C962 H952 0.950 . S
C962 C963 1.386 . S
C962 C964 1.391 . S
C963 C962 1.386 . S
C963 C967 1.393 . S
C964 H953 0.950 . S
C964 C962 1.391 . S
C964 C965 1.400 . S
C965 C959 1.491 . S
C965 C964 1.400 . S
C965 C966 1.398 . S
C966 H954 0.950 . S
C966 C965 1.398 . S
C966 C967 1.391 . S
C967 H955 0.950 . S
C967 C963 1.393 . S
C967 C966 1.391 . S
H968 C976 0.950 . S
H969 C981 0.950 . S
H970 C978 0.950 . S
H971 C980 0.950 . S
H972 C982 0.950 . S
H973 C984 0.950 . S
H974 C986 0.950 . S
H975 C987 0.950 . S
C976 H968 0.950 . S
C976 C977 1.386 . S
C976 C978 1.391 . S
C977 C976 1.386 . S
C977 C981 1.393 . S
C978 H970 0.950 . S
C978 C976 1.391 . S
C978 C979 1.400 . S
C979 C978 1.400 . S
C979 C980 1.398 . S
C979 C985 1.491 . S
C980 H971 0.950 . S
C980 C979 1.398 . S
C980 C981 1.391 . S
C981 H969 0.950 . S
C981 C977 1.393 . S
C981 C980 1.391 . S
C982 H972 0.950 . S
C982 C983 1.386 . S
C982 C984 1.391 . S
C983 C982 1.386 . S
C983 C987 1.393 . S
C984 H973 0.950 . S
C984 C982 1.391 . S
C984 C985 1.400 . S
C985 C979 1.491 . S
C985 C984 1.400 . S
C985 C986 1.398 . S
C986 H974 0.950 . S
C986 C985 1.398 . S
C986 C987 1.391 . S
C987 H975 0.950 . S
C987 C983 1.393 . S
C987 C986 1.391 . S
H988 C996 0.950 1_655 S
H989 C1001 0.950 . S
H990 C998 0.950 . S
H991 C1000 0.950 . S
H992 C1002 0.950 . S
H993 C1004 0.950 . S
H994 C1006 0.950 . S
H995 C1007 0.950 . S
C996 H988 0.950 1_455 S
C996 C997 1.386 1_455 S
C996 C998 1.391 . S
C997 C996 1.386 1_655 S
C997 C1001 1.393 . S
C998 H990 0.950 . S
C998 C996 1.391 . S
C998 C999 1.400 . S
C999 C998 1.400 . S
C999 C1000 1.398 . S
C999 C1005 1.491 . S
C1000 H991 0.950 . S
C1000 C999 1.398 . S
C1000 C1001 1.391 1_455 S
C1001 H989 0.950 . S
C1001 C997 1.393 . S
C1001 C1000 1.391 1_655 S
C1002 H992 0.950 . S
C1002 C1003 1.386 . S
C1002 C1004 1.391 . S
C1003 C1002 1.386 . S
C1003 C1007 1.393 . S
C1004 H993 0.950 . S
C1004 C1002 1.391 . S
C1004 C1005 1.400 . S
C1005 C999 1.491 . S
C1005 C1004 1.400 . S
C1005 C1006 1.398 . S
C1006 H994 0.950 . S
C1006 C1005 1.398 . S
C1006 C1007 1.391 . S
C1007 H995 0.950 . S
C1007 C1003 1.393 . S
C1007 C1006 1.391 . S
H1008 C1016 0.950 . S
H1009 C1021 0.950 . S
H1010 C1018 0.950 . S
H1011 C1020 0.950 . S
H1012 C1022 0.950 . S
H1013 C1024 0.950 . S
H1014 C1026 0.950 . S
H1015 C1027 0.950 . S
C1016 H1008 0.950 . S
C1016 C1017 1.386 . S
C1016 C1018 1.391 . S
C1017 C1016 1.386 . S
C1017 C1021 1.393 . S
C1018 H1010 0.950 . S
C1018 C1016 1.391 . S
C1018 C1019 1.400 . S
C1019 C1018 1.400 . S
C1019 C1020 1.398 . S
C1019 C1025 1.491 . S
C1020 H1011 0.950 . S
C1020 C1019 1.398 . S
C1020 C1021 1.391 . S
C1021 H1009 0.950 . S
C1021 C1017 1.393 . S
C1021 C1020 1.391 . S
C1022 H1012 0.950 . S
C1022 C1023 1.386 . S
C1022 C1024 1.391 . S
C1023 C1022 1.386 . S
C1023 C1027 1.393 . S
C1024 H1013 0.950 . S
C1024 C1022 1.391 . S
C1024 C1025 1.400 . S
C1025 C1019 1.491 . S
C1025 C1024 1.400 . S
C1025 C1026 1.398 . S
C1026 H1014 0.950 . S
C1026 C1025 1.398 . S
C1026 C1027 1.391 . S
C1027 H1015 0.950 . S
C1027 C1023 1.393 . S
C1027 C1026 1.391 . S
H1028 C1036 0.950 . S
H1029 C1041 0.950 . S
H1030 C1038 0.950 . S
H1031 C1040 0.950 . S
H1032 C1042 0.950 . S
H1033 C1044 0.950 . S
H1034 C1046 0.950 . S
H1035 C1047 0.950 . S
C1036 H1028 0.950 . S
C1036 C1037 1.386 . S
C1036 C1038 1.391 . S
C1037 C1036 1.386 . S
C1037 C1041 1.393 . S
C1038 H1030 0.950 . S
C1038 C1036 1.391 . S
C1038 C1039 1.400 . S
C1039 C1038 1.400 . S
C1039 C1040 1.398 . S
C1039 C1045 1.491 . S
C1040 H1031 0.950 . S
C1040 C1039 1.398 . S
C1040 C1041 1.391 . S
C1041 H1029 0.950 . S
C1041 C1037 1.393 . S
C1041 C1040 1.391 . S
C1042 H1032 0.950 . S
C1042 C1043 1.386 . S
C1042 C1044 1.391 . S
C1043 C1042 1.386 . S
C1043 C1047 1.393 . S
C1044 H1033 0.950 . S
C1044 C1042 1.391 . S
C1044 C1045 1.400 . S
C1045 C1039 1.491 . S
C1045 C1044 1.400 . S
C1045 C1046 1.398 . S
C1046 H1034 0.950 . S
C1046 C1045 1.398 . S
C1046 C1047 1.391 . S
C1047 H1035 0.950 . S
C1047 C1043 1.393 . S
C1047 C1046 1.391 . S
H1048 C1056 0.950 1_545 S
H1049 C1061 0.950 . S
H1050 C1058 0.950 . S
H1051 C1060 0.950 . S
H1052 C1062 0.950 . S
H1053 C1064 0.950 . S
H1054 C1066 0.950 . S
H1055 C1067 0.950 . S
C1056 H1048 0.950 1_565 S
C1056 C1057 1.386 1_565 S
C1056 C1058 1.391 . S
C1057 C1056 1.386 1_545 S
C1057 C1061 1.393 . S
C1058 H1050 0.950 . S
C1058 C1056 1.391 . S
C1058 C1059 1.400 . S
C1059 C1058 1.400 . S
C1059 C1060 1.398 . S
C1059 C1065 1.491 . S
C1060 H1051 0.950 . S
C1060 C1059 1.398 . S
C1060 C1061 1.391 1_565 S
C1061 H1049 0.950 . S
C1061 C1057 1.393 . S
C1061 C1060 1.391 1_545 S
C1062 H1052 0.950 . S
C1062 C1063 1.386 . S
C1062 C1064 1.391 . S
C1063 C1062 1.386 . S
C1063 C1067 1.393 . S
C1064 H1053 0.950 . S
C1064 C1062 1.391 . S
C1064 C1065 1.400 . S
C1065 C1059 1.491 . S
C1065 C1064 1.400 . S
C1065 C1066 1.398 . S
C1066 H1054 0.950 . S
C1066 C1065 1.398 . S
C1066 C1067 1.391 . S
C1067 H1055 0.950 . S
C1067 C1063 1.393 . S
C1067 C1066 1.391 . S
H1068 C1076 0.950 . S
H1069 C1081 0.950 . S
H1070 C1078 0.950 . S
H1071 C1080 0.950 . S
H1072 C1082 0.950 1_565 S
H1073 C1084 0.950 . S
H1074 C1086 0.950 . S
H1075 C1087 0.950 . S
C1076 H1068 0.950 . S
C1076 C1077 1.386 . S
C1076 C1078 1.391 . S
C1077 C1076 1.386 . S
C1077 C1081 1.393 . S
C1078 H1070 0.950 . S
C1078 C1076 1.391 . S
C1078 C1079 1.400 . S
C1079 C1078 1.400 . S
C1079 C1080 1.398 . S
C1079 C1085 1.491 . S
C1080 H1071 0.950 . S
C1080 C1079 1.398 . S
C1080 C1081 1.391 . S
C1081 H1069 0.950 . S
C1081 C1077 1.393 . S
C1081 C1080 1.391 . S
C1082 H1072 0.950 1_545 S
C1082 C1083 1.386 1_545 S
C1082 C1084 1.391 . S
C1083 C1082 1.386 1_565 S
C1083 C1087 1.393 . S
C1084 H1073 0.950 . S
C1084 C1082 1.391 . S
C1084 C1085 1.400 . S
C1085 C1079 1.491 . S
C1085 C1084 1.400 . S
C1085 C1086 1.398 . S
C1086 H1074 0.950 . S
C1086 C1085 1.398 . S
C1086 C1087 1.391 1_545 S
C1087 H1075 0.950 . S
C1087 C1083 1.393 . S
C1087 C1086 1.391 1_565 S
H1088 C1096 0.950 . S
H1089 C1101 0.950 . S
H1090 C1098 0.950 . S
H1091 C1100 0.950 . S
H1092 C1102 0.950 . S
H1093 C1104 0.950 . S
H1094 C1106 0.950 . S
H1095 C1107 0.950 . S
C1096 H1088 0.950 . S
C1096 C1097 1.386 . S
C1096 C1098 1.391 . S
C1097 C1096 1.386 . S
C1097 C1101 1.393 . S
C1098 H1090 0.950 . S
C1098 C1096 1.391 . S
C1098 C1099 1.400 . S
C1099 C1098 1.400 . S
C1099 C1100 1.398 . S
C1099 C1105 1.491 . S
C1100 H1091 0.950 . S
C1100 C1099 1.398 . S
C1100 C1101 1.391 . S
C1101 H1089 0.950 . S
C1101 C1097 1.393 . S
C1101 C1100 1.391 . S
C1102 H1092 0.950 . S
C1102 C1103 1.386 . S
C1102 C1104 1.391 . S
C1103 C1102 1.386 . S
C1103 C1107 1.393 . S
C1104 H1093 0.950 . S
C1104 C1102 1.391 . S
C1104 C1105 1.400 . S
C1105 C1099 1.491 . S
C1105 C1104 1.400 . S
C1105 C1106 1.398 . S
C1106 H1094 0.950 . S
C1106 C1105 1.398 . S
C1106 C1107 1.391 . S
C1107 H1095 0.950 . S
C1107 C1103 1.393 . S
C1107 C1106 1.391 . S
H1108 C1116 0.950 . S
H1109 C1121 0.950 . S
H1110 C1118 0.950 . S
H1111 C1120 0.950 . S
H1112 C1122 0.961 . S
H1113 C1124 0.950 . S
H1114 C1126 0.950 . S
H1115 C1127 0.950 . S
C1116 H1108 0.950 . S
C1116 C1117 1.386 . S
C1116 C1118 1.391 . S
C1117 C1116 1.386 . S
C1117 C1121 1.393 . S
C1118 H1110 0.950 . S
C1118 C1116 1.391 . S
C1118 C1119 1.400 . S
C1119 C1118 1.400 . S
C1119 C1120 1.398 . S
C1119 C1125 1.491 . S
C1120 H1111 0.950 . S
C1120 C1119 1.398 . S
C1120 C1121 1.391 . S
C1121 H1109 0.950 . S
C1121 C1117 1.393 . S
C1121 C1120 1.391 . S
C1122 H1112 0.961 . S
C1122 C1123 1.409 . S
C1122 C1124 1.357 1_556 S
C1123 C1122 1.409 . S
C1123 C1127 1.393 . S
C1124 H1113 0.950 . S
C1124 C1122 1.357 1_554 S
C1124 C1125 1.400 . S
C1125 C1119 1.491 . S
C1125 C1124 1.400 . S
C1125 C1126 1.398 . S
C1126 H1114 0.950 . S
C1126 C1125 1.398 . S
C1126 C1127 1.391 1_554 S
C1127 H1115 0.950 . S
C1127 C1123 1.393 . S
C1127 C1126 1.391 1_556 S
H1128 C1136 0.950 . S
H1129 C1141 0.950 . S
H1130 C1138 0.950 . S
H1131 C1140 0.950 . S
H1132 C1142 0.950 . S
H1133 C1144 0.950 . S
H1134 C1146 0.950 . S
H1135 C1147 0.950 . S
C1136 H1128 0.950 . S
C1136 C1137 1.386 . S
C1136 C1138 1.391 . S
C1137 C1136 1.386 . S
C1137 C1141 1.393 . S
C1138 H1130 0.950 . S
C1138 C1136 1.391 . S
C1138 C1139 1.400 . S
C1139 C1138 1.400 . S
C1139 C1140 1.398 . S
C1139 C1145 1.491 . S
C1140 H1131 0.950 . S
C1140 C1139 1.398 . S
C1140 C1141 1.391 . S
C1141 H1129 0.950 . S
C1141 C1137 1.393 . S
C1141 C1140 1.391 . S
C1142 H1132 0.950 . S
C1142 C1143 1.386 . S
C1142 C1144 1.391 . S
C1143 C1142 1.386 . S
C1143 C1147 1.393 . S
C1144 H1133 0.950 . S
C1144 C1142 1.391 . S
C1144 C1145 1.400 . S
C1145 C1139 1.491 . S
C1145 C1144 1.400 . S
C1145 C1146 1.398 . S
C1146 H1134 0.950 . S
C1146 C1145 1.398 . S
C1146 C1147 1.391 . S
C1147 H1135 0.950 . S
C1147 C1143 1.393 . S
C1147 C1146 1.391 . S
H1148 C1156 0.950 . S
H1149 C1161 0.950 1_554 S
H1150 C1158 0.950 . S
H1151 C1160 0.950 . S
H1152 C1162 0.950 . S
H1153 C1164 0.950 . S
H1154 C1166 0.950 . S
H1155 C1167 0.950 . S
C1156 H1148 0.950 . S
C1156 C1157 1.386 . S
C1156 C1158 1.391 1_554 S
C1157 C1156 1.386 . S
C1157 C1161 1.393 1_554 S
C1158 H1150 0.950 . S
C1158 C1156 1.391 1_556 S
C1158 C1159 1.400 . S
C1159 C1158 1.400 . S
C1159 C1160 1.398 . S
C1159 C1165 1.491 . S
C1160 H1151 0.950 . S
C1160 C1159 1.398 . S
C1160 C1161 1.391 . S
C1161 H1149 0.950 1_556 S
C1161 C1157 1.393 1_556 S
C1161 C1160 1.391 . S
C1162 H1152 0.950 . S
C1162 C1163 1.386 . S
C1162 C1164 1.391 . S
C1163 C1162 1.386 . S
C1163 C1167 1.393 . S
C1164 H1153 0.950 . S
C1164 C1162 1.391 . S
C1164 C1165 1.400 . S
C1165 C1159 1.491 . S
C1165 C1164 1.400 . S
C1165 C1166 1.398 . S
C1166 H1154 0.950 . S
C1166 C1165 1.398 . S
C1166 C1167 1.391 . S
C1167 H1155 0.950 . S
C1167 C1163 1.393 . S
C1167 C1166 1.391 . S
H1168 C1176 0.950 . S
H1169 C1181 0.950 . S
H1170 C1178 0.950 . S
H1171 C1180 0.950 . S
H1172 C1182 0.950 . S
H1173 C1184 0.950 . S
H1174 C1186 0.950 . S
H1175 C1187 0.950 . S
C1176 H1168 0.950 . S
C1176 C1177 1.386 . S
C1176 C1178 1.391 . S
C1177 C1176 1.386 . S
C1177 C1181 1.393 . S
C1178 H1170 0.950 . S
C1178 C1176 1.391 . S
C1178 C1179 1.400 . S
C1179 C1178 1.400 . S
C1179 C1180 1.398 . S
C1179 C1185 1.491 . S
C1180 H1171 0.950 . S
C1180 C1179 1.398 . S
C1180 C1181 1.391 . S
C1181 H1169 0.950 . S
C1181 C1177 1.393 . S
C1181 C1180 1.391 . S
C1182 H1172 0.950 . S
C1182 C1183 1.386 . S
C1182 C1184 1.391 . S
C1183 C1182 1.386 . S
C1183 C1187 1.393 . S
C1184 H1173 0.950 . S
C1184 C1182 1.391 . S
C1184 C1185 1.400 . S
C1185 C1179 1.491 . S
C1185 C1184 1.400 . S
C1185 C1186 1.398 . S
C1186 H1174 0.950 . S
C1186 C1185 1.398 . S
C1186 C1187 1.391 . S
C1187 H1175 0.950 . S
C1187 C1183 1.393 . S
C1187 C1186 1.391 . S
H1188 C1196 0.950 . S
H1189 C1201 0.950 1_655 S
H1190 C1198 0.950 . S
H1191 C1200 0.950 . S
H1192 C1202 0.950 . S
H1193 C1204 0.950 . S
H1194 C1206 0.950 . S
H1195 C1207 0.950 . S
C1196 H1188 0.950 . S
C1196 C1197 1.386 . S
C1196 C1198 1.391 1_655 S
C1197 C1196 1.386 . S
C1197 C1201 1.393 1_655 S
C1198 H1190 0.950 . S
C1198 C1196 1.391 1_455 S
C1198 C1199 1.400 . S
C1199 C1198 1.400 . S
C1199 C1200 1.398 . S
C1199 C1205 1.491 . S
C1200 H1191 0.950 . S
C1200 C1199 1.398 . S
C1200 C1201 1.391 . S
C1201 H1189 0.950 1_455 S
C1201 C1197 1.393 1_455 S
C1201 C1200 1.391 . S
C1202 H1192 0.950 . S
C1202 C1203 1.386 . S
C1202 C1204 1.391 . S
C1203 C1202 1.386 . S
C1203 C1207 1.393 . S
C1204 H1193 0.950 . S
C1204 C1202 1.391 . S
C1204 C1205 1.400 . S
C1205 C1199 1.491 . S
C1205 C1204 1.400 . S
C1205 C1206 1.398 . S
C1206 H1194 0.950 . S
C1206 C1205 1.398 . S
C1206 C1207 1.391 . S
C1207 H1195 0.950 . S
C1207 C1203 1.393 . S
C1207 C1206 1.391 . S
H1208 C1216 0.950 . S
H1209 C1221 0.950 . S
H1210 C1218 0.950 . S
H1211 C1220 0.950 . S
H1212 C1222 0.950 . S
H1213 C1224 0.950 . S
H1214 C1226 0.950 . S
H1215 C1227 0.950 . S
C1216 H1208 0.950 . S
C1216 C1217 1.386 . S
C1216 C1218 1.391 . S
C1217 C1216 1.386 . S
C1217 C1221 1.393 . S
C1218 H1210 0.950 . S
C1218 C1216 1.391 . S
C1218 C1219 1.400 . S
C1219 C1218 1.400 . S
C1219 C1220 1.398 . S
C1219 C1225 1.491 . S
C1220 H1211 0.950 . S
C1220 C1219 1.398 . S
C1220 C1221 1.391 . S
C1221 H1209 0.950 . S
C1221 C1217 1.393 . S
C1221 C1220 1.391 . S
C1222 H1212 0.950 . S
C1222 C1223 1.386 . S
C1222 C1224 1.391 . S
C1223 C1222 1.386 . S
C1223 C1227 1.393 . S
C1224 H1213 0.950 . S
C1224 C1222 1.391 . S
C1224 C1225 1.400 . S
C1225 C1219 1.491 . S
C1225 C1224 1.400 . S
C1225 C1226 1.398 . S
C1226 H1214 0.950 . S
C1226 C1225 1.398 . S
C1226 C1227 1.391 . S
C1227 H1215 0.950 . S
C1227 C1223 1.393 . S
C1227 C1226 1.391 . S
H1228 C1236 0.950 . S
H1229 C1241 0.950 . S
H1230 C1238 0.950 . S
H1231 C1240 0.950 . S
H1232 C1242 0.950 1_455 S
H1233 C1244 0.950 . S
H1234 C1246 0.950 . S
H1235 C1247 0.950 . S
C1236 H1228 0.950 . S
C1236 C1237 1.386 . S
C1236 C1238 1.391 . S
C1237 C1236 1.386 . S
C1237 C1241 1.393 . S
C1238 H1230 0.950 . S
C1238 C1236 1.391 . S
C1238 C1239 1.400 . S
C1239 C1238 1.400 . S
C1239 C1240 1.398 . S
C1239 C1245 1.491 . S
C1240 H1231 0.950 . S
C1240 C1239 1.398 . S
C1240 C1241 1.391 . S
C1241 H1229 0.950 . S
C1241 C1237 1.393 . S
C1241 C1240 1.391 . S
C1242 H1232 0.950 1_655 S
C1242 C1243 1.386 1_655 S
C1242 C1244 1.391 . S
C1243 C1242 1.386 1_455 S
C1243 C1247 1.393 . S
C1244 H1233 0.950 . S
C1244 C1242 1.391 . S
C1244 C1245 1.400 . S
C1245 C1239 1.491 . S
C1245 C1244 1.400 . S
C1245 C1246 1.398 . S
C1246 H1234 0.950 . S
C1246 C1245 1.398 . S
C1246 C1247 1.391 1_655 S
C1247 H1235 0.950 . S
C1247 C1243 1.393 . S
C1247 C1246 1.391 1_455 S
H1248 C1256 0.950 . S
H1249 C1261 0.950 . S
H1250 C1258 0.950 . S
H1251 C1260 0.950 . S
H1252 C1262 0.950 . S
H1253 C1264 0.950 . S
H1254 C1266 0.950 . S
H1255 C1267 0.950 . S
C1256 H1248 0.950 . S
C1256 C1257 1.386 . S
C1256 C1258 1.391 . S
C1257 C1256 1.386 . S
C1257 C1261 1.393 . S
C1258 H1250 0.950 . S
C1258 C1256 1.391 . S
C1258 C1259 1.400 . S
C1259 C1258 1.400 . S
C1259 C1260 1.398 . S
C1259 C1265 1.491 . S
C1260 H1251 0.950 . S
C1260 C1259 1.398 . S
C1260 C1261 1.391 . S
C1261 H1249 0.950 . S
C1261 C1257 1.393 . S
C1261 C1260 1.391 . S
C1262 H1252 0.950 . S
C1262 C1263 1.386 . S
C1262 C1264 1.391 . S
C1263 C1262 1.386 . S
C1263 C1267 1.393 . S
C1264 H1253 0.950 . S
C1264 C1262 1.391 . S
C1264 C1265 1.400 . S
C1265 C1259 1.491 . S
C1265 C1264 1.400 . S
C1265 C1266 1.398 . S
C1266 H1254 0.950 . S
C1266 C1265 1.398 . S
C1266 C1267 1.391 . S
C1267 H1255 0.950 . S
C1267 C1263 1.393 . S
C1267 C1266 1.391 . S
H1268 C1276 0.950 . S
H1269 C1281 0.950 . S
H1270 C1278 0.950 . S
H1271 C1280 0.950 . S
H1272 C1282 0.950 . S
H1273 C1284 0.950 . S
H1274 C1286 0.950 . S
H1275 C1287 0.950 . S
C1276 H1268 0.950 . S
C1276 C1277 1.386 . S
C1276 C1278 1.391 . S
C1277 C1276 1.386 . S
C1277 C1281 1.393 . S
C1278 H1270 0.950 . S
C1278 C1276 1.391 . S
C1278 C1279 1.400 . S
C1279 C1278 1.400 . S
C1279 C1280 1.398 . S
C1279 C1285 1.491 . S
C1280 H1271 0.950 . S
C1280 C1279 1.398 . S
C1280 C1281 1.391 . S
C1281 H1269 0.950 . S
C1281 C1277 1.393 . S
C1281 C1280 1.391 . S
C1282 H1272 0.950 . S
C1282 C1283 1.386 . S
C1282 C1284 1.391 . S
C1283 C1282 1.386 . S
C1283 C1287 1.393 . S
C1284 H1273 0.950 . S
C1284 C1282 1.391 . S
C1284 C1285 1.400 . S
C1285 C1279 1.491 . S
C1285 C1284 1.400 . S
C1285 C1286 1.398 . S
C1286 H1274 0.950 . S
C1286 C1285 1.398 . S
C1286 C1287 1.391 . S
C1287 H1275 0.950 . S
C1287 C1283 1.393 . S
C1287 C1286 1.391 . S
H1288 C1296 0.950 . S
H1289 C1301 0.950 . S
H1290 C1298 0.950 . S
H1291 C1300 0.950 . S
H1292 C1302 0.950 . S
H1293 C1304 0.950 . S
H1294 C1306 0.950 . S
H1295 C1307 0.950 . S
C1296 H1288 0.950 . S
C1296 C1297 1.386 . S
C1296 C1298 1.391 . S
C1297 C1296 1.386 . S
C1297 C1301 1.393 . S
C1298 H1290 0.950 . S
C1298 C1296 1.391 . S
C1298 C1299 1.400 . S
C1299 C1298 1.400 . S
C1299 C1300 1.398 . S
C1299 C1305 1.491 . S
C1300 H1291 0.950 . S
C1300 C1299 1.398 . S
C1300 C1301 1.391 . S
C1301 H1289 0.950 . S
C1301 C1297 1.393 . S
C1301 C1300 1.391 . S
C1302 H1292 0.950 . S
C1302 C1303 1.386 . S
C1302 C1304 1.391 . S
C1303 C1302 1.386 . S
C1303 C1307 1.393 . S
C1304 H1293 0.950 . S
C1304 C1302 1.391 . S
C1304 C1305 1.400 . S
C1305 C1299 1.491 . S
C1305 C1304 1.400 . S
C1305 C1306 1.398 . S
C1306 H1294 0.950 . S
C1306 C1305 1.398 . S
C1306 C1307 1.391 . S
C1307 H1295 0.950 . S
C1307 C1303 1.393 . S
C1307 C1306 1.391 . S
H1308 C1316 0.950 . S
H1309 C1321 0.950 . S
H1310 C1318 0.950 . S
H1311 C1320 0.950 . S
H1312 C1322 0.950 . S
H1313 C1324 0.950 . S
H1314 C1326 0.950 . S
H1315 C1327 0.950 . S
C1316 H1308 0.950 . S
C1316 C1317 1.386 . S
C1316 C1318 1.391 . S
C1317 C1316 1.386 . S
C1317 C1321 1.393 . S
C1318 H1310 0.950 . S
C1318 C1316 1.391 . S
C1318 C1319 1.400 . S
C1319 C1318 1.400 . S
C1319 C1320 1.398 . S
C1319 C1325 1.491 . S
C1320 H1311 0.950 . S
C1320 C1319 1.398 . S
C1320 C1321 1.391 . S
C1321 H1309 0.950 . S
C1321 C1317 1.393 . S
C1321 C1320 1.391 . S
C1322 H1312 0.950 . S
C1322 C1323 1.386 . S
C1322 C1324 1.391 . S
C1323 C1322 1.386 . S
C1323 C1327 1.393 . S
C1324 H1313 0.950 . S
C1324 C1322 1.391 . S
C1324 C1325 1.400 . S
C1325 C1319 1.491 . S
C1325 C1324 1.400 . S
C1325 C1326 1.398 . S
C1326 H1314 0.950 . S
C1326 C1325 1.398 . S
C1326 C1327 1.391 . S
C1327 H1315 0.950 . S
C1327 C1323 1.393 . S
C1327 C1326 1.391 . S
H1328 C1336 0.950 . S
H1329 C1341 0.950 . S
H1330 C1338 0.950 . S
H1331 C1340 0.950 . S
H1332 C1342 0.950 . S
H1333 C1344 0.950 . S
H1334 C1346 0.950 . S
H1335 C1347 0.950 . S
C1336 H1328 0.950 . S
C1336 C1337 1.386 . S
C1336 C1338 1.391 . S
C1337 C1336 1.386 . S
C1337 C1341 1.393 . S
C1338 H1330 0.950 . S
C1338 C1336 1.391 . S
C1338 C1339 1.400 . S
C1339 C1338 1.400 . S
C1339 C1340 1.398 . S
C1339 C1345 1.491 . S
C1340 H1331 0.950 . S
C1340 C1339 1.398 . S
C1340 C1341 1.391 . S
C1341 H1329 0.950 . S
C1341 C1337 1.393 . S
C1341 C1340 1.391 . S
C1342 H1332 0.950 . S
C1342 C1343 1.386 . S
C1342 C1344 1.391 . S
C1343 C1342 1.386 . S
C1343 C1347 1.393 . S
C1344 H1333 0.950 . S
C1344 C1342 1.391 . S
C1344 C1345 1.400 . S
C1345 C1339 1.491 . S
C1345 C1344 1.400 . S
C1345 C1346 1.398 . S
C1346 H1334 0.950 . S
C1346 C1345 1.398 . S
C1346 C1347 1.391 . S
C1347 H1335 0.950 . S
C1347 C1343 1.393 . S
C1347 C1346 1.391 . S
H1348 C1356 0.950 . S
H1349 C1361 0.950 . S
H1350 C1358 0.950 . S
H1351 C1360 0.950 . S
H1352 C1362 0.950 . S
H1353 C1364 0.950 . S
H1354 C1366 0.950 . S
H1355 C1367 0.950 . S
C1356 H1348 0.950 . S
C1356 C1357 1.386 . S
C1356 C1358 1.391 . S
C1357 C1356 1.386 . S
C1357 C1361 1.393 . S
C1358 H1350 0.950 . S
C1358 C1356 1.391 . S
C1358 C1359 1.400 . S
C1359 C1358 1.400 . S
C1359 C1360 1.398 . S
C1359 C1365 1.491 . S
C1360 H1351 0.950 . S
C1360 C1359 1.398 . S
C1360 C1361 1.391 . S
C1361 H1349 0.950 . S
C1361 C1357 1.393 . S
C1361 C1360 1.391 . S
C1362 H1352 0.950 . S
C1362 C1363 1.386 . S
C1362 C1364 1.391 . S
C1363 C1362 1.386 . S
C1363 C1367 1.393 . S
C1364 H1353 0.950 . S
C1364 C1362 1.391 . S
C1364 C1365 1.400 . S
C1365 C1359 1.491 . S
C1365 C1364 1.400 . S
C1365 C1366 1.398 . S
C1366 H1354 0.950 . S
C1366 C1365 1.398 . S
C1366 C1367 1.391 . S
C1367 H1355 0.950 . S
C1367 C1363 1.393 . S
C1367 C1366 1.391 . S
H1368 C1376 0.950 . S
H1369 C1381 0.950 . S
H1370 C1378 0.950 . S
H1371 C1380 0.950 . S
H1372 C1382 0.950 . S
H1373 C1384 0.950 . S
H1374 C1386 0.950 . S
H1375 C1387 0.950 . S
C1376 H1368 0.950 . S
C1376 C1377 1.386 . S
C1376 C1378 1.391 . S
C1377 C1376 1.386 . S
C1377 C1381 1.393 . S
C1378 H1370 0.950 . S
C1378 C1376 1.391 . S
C1378 C1379 1.400 . S
C1379 C1378 1.400 . S
C1379 C1380 1.398 . S
C1379 C1385 1.491 . S
C1380 H1371 0.950 . S
C1380 C1379 1.398 . S
C1380 C1381 1.391 . S
C1381 H1369 0.950 . S
C1381 C1377 1.393 . S
C1381 C1380 1.391 . S
C1382 H1372 0.950 . S
C1382 C1383 1.386 . S
C1382 C1384 1.391 . S
C1383 C1382 1.386 . S
C1383 C1387 1.393 . S
C1384 H1373 0.950 . S
C1384 C1382 1.391 . S
C1384 C1385 1.400 . S
C1385 C1379 1.491 . S
C1385 C1384 1.400 . S
C1385 C1386 1.398 . S
C1386 H1374 0.950 . S
C1386 C1385 1.398 . S
C1386 C1387 1.391 . S
C1387 H1375 0.950 . S
C1387 C1383 1.393 . S
C1387 C1386 1.391 . S
H1388 C1396 0.950 . S
H1389 C1401 0.950 . S
H1390 C1398 0.950 . S
H1391 C1400 0.950 . S
H1392 C1402 0.950 . S
H1393 C1404 0.950 . S
H1394 C1406 0.950 . S
H1395 C1407 0.950 . S
C1396 H1388 0.950 . S
C1396 C1397 1.386 . S
C1396 C1398 1.391 . S
C1397 C1396 1.386 . S
C1397 C1401 1.393 . S
C1398 H1390 0.950 . S
C1398 C1396 1.391 . S
C1398 C1399 1.400 . S
C1399 C1398 1.400 . S
C1399 C1400 1.398 . S
C1399 C1405 1.491 . S
C1400 H1391 0.950 . S
C1400 C1399 1.398 . S
C1400 C1401 1.391 . S
C1401 H1389 0.950 . S
C1401 C1397 1.393 . S
C1401 C1400 1.391 . S
C1402 H1392 0.950 . S
C1402 C1403 1.386 . S
C1402 C1404 1.391 . S
C1403 C1402 1.386 . S
C1403 C1407 1.393 . S
C1404 H1393 0.950 . S
C1404 C1402 1.391 . S
C1404 C1405 1.400 . S
C1405 C1399 1.491 . S
C1405 C1404 1.400 . S
C1405 C1406 1.398 . S
C1406 H1394 0.950 . S
C1406 C1405 1.398 . S
C1406 C1407 1.391 . S
C1407 H1395 0.950 . S
C1407 C1403 1.393 . S
C1407 C1406 1.391 . S
H1408 C1416 0.950 . S
H1409 C1421 0.950 . S
H1410 C1418 0.950 . S
H1411 C1420 0.950 . S
H1412 C1422 0.950 . S
H1413 C1424 0.950 . S
H1414 C1426 0.950 . S
H1415 C1427 0.950 . S
C1416 H1408 0.950 . S
C1416 C1417 1.386 . S
C1416 C1418 1.391 . S
C1417 C1416 1.386 . S
C1417 C1421 1.393 . S
C1418 H1410 0.950 . S
C1418 C1416 1.391 . S
C1418 C1419 1.400 . S
C1419 C1418 1.400 . S
C1419 C1420 1.398 . S
C1419 C1425 1.491 . S
C1420 H1411 0.950 . S
C1420 C1419 1.398 . S
C1420 C1421 1.391 . S
C1421 H1409 0.950 . S
C1421 C1417 1.393 . S
C1421 C1420 1.391 . S
C1422 H1412 0.950 . S
C1422 C1423 1.386 . S
C1422 C1424 1.391 . S
C1423 C1422 1.386 . S
C1423 C1427 1.393 . S
C1424 H1413 0.950 . S
C1424 C1422 1.391 . S
C1424 C1425 1.400 . S
C1425 C1419 1.491 . S
C1425 C1424 1.400 . S
C1425 C1426 1.398 . S
C1426 H1414 0.950 . S
C1426 C1425 1.398 . S
C1426 C1427 1.391 . S
C1427 H1415 0.950 . S
C1427 C1423 1.393 . S
C1427 C1426 1.391 . S
H1428 C1436 0.950 . S
H1429 C1441 0.950 . S
H1430 C1438 0.950 . S
H1431 C1440 0.950 . S
H1432 C1442 0.950 . S
H1433 C1444 0.950 . S
H1434 C1446 0.950 . S
H1435 C1447 0.950 . S
C1436 H1428 0.950 . S
C1436 C1437 1.386 . S
C1436 C1438 1.391 . S
C1437 C1436 1.386 . S
C1437 C1441 1.393 . S
C1438 H1430 0.950 . S
C1438 C1436 1.391 . S
C1438 C1439 1.400 . S
C1439 C1438 1.400 . S
C1439 C1440 1.398 . S
C1439 C1445 1.491 . S
C1440 H1431 0.950 . S
C1440 C1439 1.398 . S
C1440 C1441 1.391 . S
C1441 H1429 0.950 . S
C1441 C1437 1.393 . S
C1441 C1440 1.391 . S
C1442 H1432 0.950 . S
C1442 C1443 1.386 . S
C1442 C1444 1.391 . S
C1443 C1442 1.386 . S
C1443 C1447 1.393 . S
C1444 H1433 0.950 . S
C1444 C1442 1.391 . S
C1444 C1445 1.400 . S
C1445 C1439 1.491 . S
C1445 C1444 1.400 . S
C1445 C1446 1.398 . S
C1446 H1434 0.950 . S
C1446 C1445 1.398 . S
C1446 C1447 1.391 . S
C1447 H1435 0.950 . S
C1447 C1443 1.393 . S
C1447 C1446 1.391 . S
H1448 C1456 0.950 . S
H1449 C1461 0.950 . S
H1450 C1458 0.950 . S
H1451 C1460 0.950 . S
H1452 C1462 0.950 . S
H1453 C1464 0.950 . S
H1454 C1466 0.950 . S
H1455 C1467 0.950 . S
C1456 H1448 0.950 . S
C1456 C1457 1.386 . S
C1456 C1458 1.391 . S
C1457 C1456 1.386 . S
C1457 C1461 1.393 . S
C1458 H1450 0.950 . S
C1458 C1456 1.391 . S
C1458 C1459 1.400 . S
C1459 C1458 1.400 . S
C1459 C1460 1.398 . S
C1459 C1465 1.491 . S
C1460 H1451 0.950 . S
C1460 C1459 1.398 . S
C1460 C1461 1.391 . S
C1461 H1449 0.950 . S
C1461 C1457 1.393 . S
C1461 C1460 1.391 . S
C1462 H1452 0.950 . S
C1462 C1463 1.386 . S
C1462 C1464 1.391 . S
C1463 C1462 1.386 . S
C1463 C1467 1.393 . S
C1464 H1453 0.950 . S
C1464 C1462 1.391 . S
C1464 C1465 1.400 . S
C1465 C1459 1.491 . S
C1465 C1464 1.400 . S
C1465 C1466 1.398 . S
C1466 H1454 0.950 . S
C1466 C1465 1.398 . S
C1466 C1467 1.391 . S
C1467 H1455 0.950 . S
C1467 C1463 1.393 . S
C1467 C1466 1.391 . S
H1468 C1476 0.950 . S
H1469 C1481 0.950 . S
H1470 C1478 0.950 . S
H1471 C1480 0.950 . S
H1472 C1482 0.950 . S
H1473 C1484 0.950 . S
H1474 C1486 0.950 . S
H1475 C1487 0.950 . S
C1476 H1468 0.950 . S
C1476 C1477 1.386 . S
C1476 C1478 1.391 . S
C1477 C1476 1.386 . S
C1477 C1481 1.393 . S
C1478 H1470 0.950 . S
C1478 C1476 1.391 . S
C1478 C1479 1.400 . S
C1479 C1478 1.400 . S
C1479 C1480 1.398 . S
C1479 C1485 1.491 . S
C1480 H1471 0.950 . S
C1480 C1479 1.398 . S
C1480 C1481 1.391 . S
C1481 H1469 0.950 . S
C1481 C1477 1.393 . S
C1481 C1480 1.391 . S
C1482 H1472 0.950 . S
C1482 C1483 1.386 . S
C1482 C1484 1.391 . S
C1483 C1482 1.386 . S
C1483 C1487 1.393 . S
C1484 H1473 0.950 . S
C1484 C1482 1.391 . S
C1484 C1485 1.400 . S
C1485 C1479 1.491 . S
C1485 C1484 1.400 . S
C1485 C1486 1.398 . S
C1486 H1474 0.950 . S
C1486 C1485 1.398 . S
C1486 C1487 1.391 . S
C1487 H1475 0.950 . S
C1487 C1483 1.393 . S
C1487 C1486 1.391 . S
H1488 C1496 0.950 . S
H1489 C1501 0.950 . S
H1490 C1498 0.950 . S
H1491 C1500 0.950 . S
H1492 C1502 0.950 . S
H1493 C1504 0.950 . S
H1494 C1506 0.950 . S
H1495 C1507 0.950 . S
C1496 H1488 0.950 . S
C1496 C1497 1.386 . S
C1496 C1498 1.391 . S
C1497 C1496 1.386 . S
C1497 C1501 1.393 . S
C1498 H1490 0.950 . S
C1498 C1496 1.391 . S
C1498 C1499 1.400 . S
C1499 C1498 1.400 . S
C1499 C1500 1.398 . S
C1499 C1505 1.491 . S
C1500 H1491 0.950 . S
C1500 C1499 1.398 . S
C1500 C1501 1.391 . S
C1501 H1489 0.950 . S
C1501 C1497 1.393 . S
C1501 C1500 1.391 . S
C1502 H1492 0.950 . S
C1502 C1503 1.386 . S
C1502 C1504 1.391 . S
C1503 C1502 1.386 . S
C1503 C1507 1.393 . S
C1504 H1493 0.950 . S
C1504 C1502 1.391 . S
C1504 C1505 1.400 . S
C1505 C1499 1.491 . S
C1505 C1504 1.400 . S
C1505 C1506 1.398 . S
C1506 H1494 0.950 . S
C1506 C1505 1.398 . S
C1506 C1507 1.391 . S
C1507 H1495 0.950 . S
C1507 C1503 1.393 . S
C1507 C1506 1.391 . S
H1508 C1516 0.950 . S
H1509 C1521 0.950 . S
H1510 C1518 0.950 . S
H1511 C1520 0.950 . S
H1512 C1522 0.950 . S
H1513 C1524 0.950 . S
H1514 C1526 0.950 . S
H1515 C1527 0.950 . S
C1516 H1508 0.950 . S
C1516 C1517 1.386 . S
C1516 C1518 1.391 . S
C1517 C1516 1.386 . S
C1517 C1521 1.393 . S
C1518 H1510 0.950 . S
C1518 C1516 1.391 . S
C1518 C1519 1.400 . S
C1519 C1518 1.400 . S
C1519 C1520 1.398 . S
C1519 C1525 1.491 . S
C1520 H1511 0.950 . S
C1520 C1519 1.398 . S
C1520 C1521 1.391 . S
C1521 H1509 0.950 . S
C1521 C1517 1.393 . S
C1521 C1520 1.391 . S
C1522 H1512 0.950 . S
C1522 C1523 1.386 . S
C1522 C1524 1.391 . S
C1523 C1522 1.386 . S
C1523 C1527 1.393 . S
C1524 H1513 0.950 . S
C1524 C1522 1.391 . S
C1524 C1525 1.400 . S
C1525 C1519 1.491 . S
C1525 C1524 1.400 . S
C1525 C1526 1.398 . S
C1526 H1514 0.950 . S
C1526 C1525 1.398 . S
C1526 C1527 1.391 . S
C1527 H1515 0.950 . S
C1527 C1523 1.393 . S
C1527 C1526 1.391 . S
H1528 C1536 0.950 . S
H1529 C1541 0.950 . S
H1530 C1538 0.950 . S
H1531 C1540 0.950 . S
H1532 C1542 0.950 . S
H1533 C1544 0.950 . S
H1534 C1546 0.950 . S
H1535 C1547 0.950 . S
C1536 H1528 0.950 . S
C1536 C1537 1.386 . S
C1536 C1538 1.391 . S
C1537 C1536 1.386 . S
C1537 C1541 1.393 . S
C1538 H1530 0.950 . S
C1538 C1536 1.391 . S
C1538 C1539 1.400 . S
C1539 C1538 1.400 . S
C1539 C1540 1.398 . S
C1539 C1545 1.491 . S
C1540 H1531 0.950 . S
C1540 C1539 1.398 . S
C1540 C1541 1.391 . S
C1541 H1529 0.950 . S
C1541 C1537 1.393 . S
C1541 C1540 1.391 . S
C1542 H1532 0.950 . S
C1542 C1543 1.386 . S
C1542 C1544 1.391 . S
C1543 C1542 1.386 . S
C1543 C1547 1.393 . S
C1544 H1533 0.950 . S
C1544 C1542 1.391 . S
C1544 C1545 1.400 . S
C1545 C1539 1.491 . S
C1545 C1544 1.400 . S
C1545 C1546 1.398 . S
C1546 H1534 0.950 . S
C1546 C1545 1.398 . S
C1546 C1547 1.391 . S
C1547 H1535 0.950 . S
C1547 C1543 1.393 . S
C1547 C1546 1.391 . S
H1548 C1556 0.950 . S
H1549 C1561 0.950 . S
H1550 C1558 0.950 . S
H1551 C1560 0.950 . S
H1552 C1562 0.950 . S
H1553 C1564 0.950 . S
H1554 C1566 0.950 . S
H1555 C1567 0.950 . S
C1556 H1548 0.950 . S
C1556 C1557 1.386 . S
C1556 C1558 1.391 . S
C1557 C1556 1.386 . S
C1557 C1561 1.393 . S
C1558 H1550 0.950 . S
C1558 C1556 1.391 . S
C1558 C1559 1.400 . S
C1559 C1558 1.400 . S
C1559 C1560 1.398 . S
C1559 C1565 1.491 . S
C1560 H1551 0.950 . S
C1560 C1559 1.398 . S
C1560 C1561 1.391 . S
C1561 H1549 0.950 . S
C1561 C1557 1.393 . S
C1561 C1560 1.391 . S
C1562 H1552 0.950 . S
C1562 C1563 1.386 . S
C1562 C1564 1.391 . S
C1563 C1562 1.386 . S
C1563 C1567 1.393 . S
C1564 H1553 0.950 . S
C1564 C1562 1.391 . S
C1564 C1565 1.400 . S
C1565 C1559 1.491 . S
C1565 C1564 1.400 . S
C1565 C1566 1.398 . S
C1566 H1554 0.950 . S
C1566 C1565 1.398 . S
C1566 C1567 1.391 . S
C1567 H1555 0.950 . S
C1567 C1563 1.393 . S
C1567 C1566 1.391 . S
H1568 C1576 0.950 . S
H1569 C1581 0.950 . S
H1570 C1578 0.950 . S
H1571 C1580 0.950 . S
H1572 C1582 0.950 . S
H1573 C1584 0.950 . S
H1574 C1586 0.950 . S
H1575 C1587 0.950 . S
C1576 H1568 0.950 . S
C1576 C1577 1.386 . S
C1576 C1578 1.391 . S
C1577 C1576 1.386 . S
C1577 C1581 1.393 . S
C1578 H1570 0.950 . S
C1578 C1576 1.391 . S
C1578 C1579 1.400 . S
C1579 C1578 1.400 . S
C1579 C1580 1.398 . S
C1579 C1585 1.491 . S
C1580 H1571 0.950 . S
C1580 C1579 1.398 . S
C1580 C1581 1.391 . S
C1581 H1569 0.950 . S
C1581 C1577 1.393 . S
C1581 C1580 1.391 . S
C1582 H1572 0.950 . S
C1582 C1583 1.386 . S
C1582 C1584 1.391 . S
C1583 C1582 1.386 . S
C1583 C1587 1.393 . S
C1584 H1573 0.950 . S
C1584 C1582 1.391 . S
C1584 C1585 1.400 . S
C1585 C1579 1.491 . S
C1585 C1584 1.400 . S
C1585 C1586 1.398 . S
C1586 H1574 0.950 . S
C1586 C1585 1.398 . S
C1586 C1587 1.391 . S
C1587 H1575 0.950 . S
C1587 C1583 1.393 . S
C1587 C1586 1.391 . S
H1588 C1596 0.950 . S
H1589 C1601 0.950 . S
H1590 C1598 0.950 . S
H1591 C1600 0.950 . S
H1592 C1602 0.950 . S
H1593 C1604 0.950 . S
H1594 C1606 0.950 . S
H1595 C1607 0.950 . S
C1596 H1588 0.950 . S
C1596 C1597 1.386 . S
C1596 C1598 1.391 . S
C1597 C1596 1.386 . S
C1597 C1601 1.393 . S
C1598 H1590 0.950 . S
C1598 C1596 1.391 . S
C1598 C1599 1.400 . S
C1599 C1598 1.400 . S
C1599 C1600 1.398 . S
C1599 C1605 1.491 . S
C1600 H1591 0.950 . S
C1600 C1599 1.398 . S
C1600 C1601 1.391 . S
C1601 H1589 0.950 . S
C1601 C1597 1.393 . S
C1601 C1600 1.391 . S
C1602 H1592 0.950 . S
C1602 C1603 1.386 . S
C1602 C1604 1.391 . S
C1603 C1602 1.386 . S
C1603 C1607 1.393 . S
C1604 H1593 0.950 . S
C1604 C1602 1.391 . S
C1604 C1605 1.400 . S
C1605 C1599 1.491 . S
C1605 C1604 1.400 . S
C1605 C1606 1.398 . S
C1606 H1594 0.950 . S
C1606 C1605 1.398 . S
C1606 C1607 1.391 . S
C1607 H1595 0.950 . S
C1607 C1603 1.393 . S
C1607 C1606 1.391 . S
H1608 C1616 0.950 . S
H1609 C1621 0.950 . S
H1610 C1618 0.950 . S
H1611 C1620 0.950 . S
H1612 C1622 0.950 . S
H1613 C1624 0.950 . S
H1614 C1626 0.950 . S
H1615 C1627 0.950 . S
C1616 H1608 0.950 . S
C1616 C1617 1.386 . S
C1616 C1618 1.391 . S
C1617 C1616 1.386 . S
C1617 C1621 1.393 . S
C1618 H1610 0.950 . S
C1618 C1616 1.391 . S
C1618 C1619 1.400 . S
C1619 C1618 1.400 . S
C1619 C1620 1.398 . S
C1619 C1625 1.491 . S
C1620 H1611 0.950 . S
C1620 C1619 1.398 . S
C1620 C1621 1.391 . S
C1621 H1609 0.950 . S
C1621 C1617 1.393 . S
C1621 C1620 1.391 . S
C1622 H1612 0.950 . S
C1622 C1623 1.386 . S
C1622 C1624 1.391 . S
C1623 C1622 1.386 . S
C1623 C1627 1.393 . S
C1624 H1613 0.950 . S
C1624 C1622 1.391 . S
C1624 C1625 1.400 . S
C1625 C1619 1.491 . S
C1625 C1624 1.400 . S
C1625 C1626 1.398 . S
C1626 H1614 0.950 . S
C1626 C1625 1.398 . S
C1626 C1627 1.391 . S
C1627 H1615 0.950 . S
C1627 C1623 1.393 . S
C1627 C1626 1.391 . S
H1628 C1636 0.950 . S
H1629 C1641 0.950 . S
H1630 C1638 0.950 . S
H1631 C1640 0.950 . S
H1632 C1642 0.950 . S
H1633 C1644 0.950 . S
H1634 C1646 0.950 . S
H1635 C1647 0.950 . S
C1636 H1628 0.950 . S
C1636 C1637 1.386 . S
C1636 C1638 1.391 . S
C1637 C1636 1.386 . S
C1637 C1641 1.393 . S
C1638 H1630 0.950 . S
C1638 C1636 1.391 . S
C1638 C1639 1.400 . S
C1639 C1638 1.400 . S
C1639 C1640 1.398 . S
C1639 C1645 1.491 . S
C1640 H1631 0.950 . S
C1640 C1639 1.398 . S
C1640 C1641 1.391 . S
C1641 H1629 0.950 . S
C1641 C1637 1.393 . S
C1641 C1640 1.391 . S
C1642 H1632 0.950 . S
C1642 C1643 1.386 . S
C1642 C1644 1.391 . S
C1643 C1642 1.386 . S
C1643 C1647 1.393 . S
C1644 H1633 0.950 . S
C1644 C1642 1.391 . S
C1644 C1645 1.400 . S
C1645 C1639 1.491 . S
C1645 C1644 1.400 . S
C1645 C1646 1.398 . S
C1646 H1634 0.950 . S
C1646 C1645 1.398 . S
C1646 C1647 1.391 . S
C1647 H1635 0.950 . S
C1647 C1643 1.393 . S
C1647 C1646 1.391 . S
H1648 C1656 0.950 . S
H1649 C1661 0.950 . S
H1650 C1658 0.950 . S
H1651 C1660 0.950 . S
H1652 C1662 0.950 . S
H1653 C1664 0.950 . S
H1654 C1666 0.950 . S
H1655 C1667 0.950 . S
C1656 H1648 0.950 . S
C1656 C1657 1.386 . S
C1656 C1658 1.391 . S
C1657 C1656 1.386 . S
C1657 C1661 1.393 . S
C1658 H1650 0.950 . S
C1658 C1656 1.391 . S
C1658 C1659 1.400 . S
C1659 C1658 1.400 . S
C1659 C1660 1.398 . S
C1659 C1665 1.491 . S
C1660 H1651 0.950 . S
C1660 C1659 1.398 . S
C1660 C1661 1.391 . S
C1661 H1649 0.950 . S
C1661 C1657 1.393 . S
C1661 C1660 1.391 . S
C1662 H1652 0.950 . S
C1662 C1663 1.386 . S
C1662 C1664 1.391 . S
C1663 C1662 1.386 . S
C1663 C1667 1.393 . S
C1664 H1653 0.950 . S
C1664 C1662 1.391 . S
C1664 C1665 1.400 . S
C1665 C1659 1.491 . S
C1665 C1664 1.400 . S
C1665 C1666 1.398 . S
C1666 H1654 0.950 . S
C1666 C1665 1.398 . S
C1666 C1667 1.391 . S
C1667 H1655 0.950 . S
C1667 C1663 1.393 . S
C1667 C1666 1.391 . S
H1668 C1676 0.950 . S
H1669 C1681 0.950 . S
H1670 C1678 0.950 . S
H1671 C1680 0.950 . S
H1672 C1682 0.950 . S
H1673 C1684 0.950 . S
H1674 C1686 0.950 . S
H1675 C1687 0.950 . S
C1676 H1668 0.950 . S
C1676 C1677 1.386 . S
C1676 C1678 1.391 . S
C1677 C1676 1.386 . S
C1677 C1681 1.393 . S
C1678 H1670 0.950 . S
C1678 C1676 1.391 . S
C1678 C1679 1.400 . S
C1679 C1678 1.400 . S
C1679 C1680 1.398 . S
C1679 C1685 1.491 . S
C1680 H1671 0.950 . S
C1680 C1679 1.398 . S
C1680 C1681 1.391 . S
C1681 H1669 0.950 . S
C1681 C1677 1.393 . S
C1681 C1680 1.391 . S
C1682 H1672 0.950 . S
C1682 C1683 1.386 . S
C1682 C1684 1.391 . S
C1683 C1682 1.386 . S
C1683 C1687 1.393 . S
C1684 H1673 0.950 . S
C1684 C1682 1.391 . S
C1684 C1685 1.400 . S
C1685 C1679 1.491 . S
C1685 C1684 1.400 . S
C1685 C1686 1.398 . S
C1686 H1674 0.950 . S
C1686 C1685 1.398 . S
C1686 C1687 1.391 . S
C1687 H1675 0.950 . S
C1687 C1683 1.393 . S
C1687 C1686 1.391 . S
H1688 C1696 0.950 . S
H1689 C1701 0.950 . S
H1690 C1698 0.950 . S
H1691 C1700 0.950 . S
H1692 C1702 0.950 . S
H1693 C1704 0.950 . S
H1694 C1706 0.950 . S
H1695 C1707 0.950 . S
C1696 H1688 0.950 . S
C1696 C1697 1.386 . S
C1696 C1698 1.391 . S
C1697 C1696 1.386 . S
C1697 C1701 1.393 . S
C1698 H1690 0.950 . S
C1698 C1696 1.391 . S
C1698 C1699 1.400 . S
C1699 C1698 1.400 . S
C1699 C1700 1.398 . S
C1699 C1705 1.491 . S
C1700 H1691 0.950 . S
C1700 C1699 1.398 . S
C1700 C1701 1.391 . S
C1701 H1689 0.950 . S
C1701 C1697 1.393 . S
C1701 C1700 1.391 . S
C1702 H1692 0.950 . S
C1702 C1703 1.386 . S
C1702 C1704 1.391 . S
C1703 C1702 1.386 . S
C1703 C1707 1.393 . S
C1704 H1693 0.950 . S
C1704 C1702 1.391 . S
C1704 C1705 1.400 . S
C1705 C1699 1.491 . S
C1705 C1704 1.400 . S
C1705 C1706 1.398 . S
C1706 H1694 0.950 . S
C1706 C1705 1.398 . S
C1706 C1707 1.391 . S
C1707 H1695 0.950 . S
C1707 C1703 1.393 . S
C1707 C1706 1.391 . S
H1708 C1716 0.950 . S
H1709 C1721 0.950 . S
H1710 C1718 0.950 . S
H1711 C1720 0.950 . S
H1712 C1722 0.950 . S
H1713 C1724 0.950 . S
H1714 C1726 0.950 . S
H1715 C1727 0.950 . S
C1716 H1708 0.950 . S
C1716 C1717 1.386 . S
C1716 C1718 1.391 . S
C1717 C1716 1.386 . S
C1717 C1721 1.393 . S
C1718 H1710 0.950 . S
C1718 C1716 1.391 . S
C1718 C1719 1.400 . S
C1719 C1718 1.400 . S
C1719 C1720 1.398 . S
C1719 C1725 1.491 . S
C1720 H1711 0.950 . S
C1720 C1719 1.398 . S
C1720 C1721 1.391 . S
C1721 H1709 0.950 . S
C1721 C1717 1.393 . S
C1721 C1720 1.391 . S
C1722 H1712 0.950 . S
C1722 C1723 1.386 . S
C1722 C1724 1.391 . S
C1723 C1722 1.386 . S
C1723 C1727 1.393 . S
C1724 H1713 0.950 . S
C1724 C1722 1.391 . S
C1724 C1725 1.400 . S
C1725 C1719 1.491 . S
C1725 C1724 1.400 . S
C1725 C1726 1.398 . S
C1726 H1714 0.950 . S
C1726 C1725 1.398 . S
C1726 C1727 1.391 . S
C1727 H1715 0.950 . S
C1727 C1723 1.393 . S
C1727 C1726 1.391 . S
H1728 C1736 0.950 . S
H1729 C1741 0.950 . S
H1730 C1738 0.950 . S
H1731 C1740 0.950 . S
H1732 C1742 0.950 . S
H1733 C1744 0.950 . S
H1734 C1746 0.950 . S
H1735 C1747 0.950 . S
C1736 H1728 0.950 . S
C1736 C1737 1.386 . S
C1736 C1738 1.391 . S
C1737 C1736 1.386 . S
C1737 C1741 1.393 . S
C1738 H1730 0.950 . S
C1738 C1736 1.391 . S
C1738 C1739 1.400 . S
C1739 C1738 1.400 . S
C1739 C1740 1.398 . S
C1739 C1745 1.491 . S
C1740 H1731 0.950 . S
C1740 C1739 1.398 . S
C1740 C1741 1.391 . S
C1741 H1729 0.950 . S
C1741 C1737 1.393 . S
C1741 C1740 1.391 . S
C1742 H1732 0.950 . S
C1742 C1743 1.386 . S
C1742 C1744 1.391 . S
C1743 C1742 1.386 . S
C1743 C1747 1.393 . S
C1744 H1733 0.950 . S
C1744 C1742 1.391 . S
C1744 C1745 1.400 . S
C1745 C1739 1.491 . S
C1745 C1744 1.400 . S
C1745 C1746 1.398 . S
C1746 H1734 0.950 . S
C1746 C1745 1.398 . S
C1746 C1747 1.391 . S
C1747 H1735 0.950 . S
C1747 C1743 1.393 . S
C1747 C1746 1.391 . S
H1748 C1756 0.950 . S
H1749 C1761 0.950 . S
H1750 C1758 0.950 . S
H1751 C1760 0.950 . S
H1752 C1762 0.950 . S
H1753 C1764 0.950 1_556 S
H1754 C1766 0.950 . S
H1755 C1767 0.950 . S
C1756 H1748 0.950 . S
C1756 C1757 1.386 . S
C1756 C1758 1.391 . S
C1757 C1756 1.386 . S
C1757 C1761 1.393 . S
C1758 H1750 0.950 . S
C1758 C1756 1.391 . S
C1758 C1759 1.400 . S
C1759 C1758 1.400 . S
C1759 C1760 1.398 . S
C1759 C1765 1.491 . S
C1760 H1751 0.950 . S
C1760 C1759 1.398 . S
C1760 C1761 1.391 . S
C1761 H1749 0.950 . S
C1761 C1757 1.393 . S
C1761 C1760 1.391 . S
C1762 H1752 0.950 . S
C1762 C1763 1.386 1_556 S
C1762 C1764 1.391 1_556 S
C1763 C1762 1.386 1_554 S
C1763 C1767 1.393 . S
C1764 H1753 0.950 1_554 S
C1764 C1762 1.391 1_554 S
C1764 C1765 1.400 . S
C1765 C1759 1.491 . S
C1765 C1764 1.400 . S
C1765 C1766 1.398 . S
C1766 H1754 0.950 . S
C1766 C1765 1.398 . S
C1766 C1767 1.391 . S
C1767 H1755 0.950 . S
C1767 C1763 1.393 . S
C1767 C1766 1.391 . S
H1768 C1776 0.950 . S
H1769 C1781 0.950 . S
H1770 C1778 0.950 . S
H1771 C1780 0.950 . S
H1772 C1782 0.950 . S
H1773 C1784 0.950 . S
H1774 C1786 0.950 . S
H1775 C1787 0.950 . S
C1776 H1768 0.950 . S
C1776 C1777 1.386 . S
C1776 C1778 1.391 . S
C1777 C1776 1.386 . S
C1777 C1781 1.393 . S
C1778 H1770 0.950 . S
C1778 C1776 1.391 . S
C1778 C1779 1.400 . S
C1779 C1778 1.400 . S
C1779 C1780 1.398 . S
C1779 C1785 1.491 . S
C1780 H1771 0.950 . S
C1780 C1779 1.398 . S
C1780 C1781 1.391 . S
C1781 H1769 0.950 . S
C1781 C1777 1.393 . S
C1781 C1780 1.391 . S
C1782 H1772 0.950 . S
C1782 C1783 1.386 . S
C1782 C1784 1.391 . S
C1783 C1782 1.386 . S
C1783 C1787 1.393 . S
C1784 H1773 0.950 . S
C1784 C1782 1.391 . S
C1784 C1785 1.400 . S
C1785 C1779 1.491 . S
C1785 C1784 1.400 . S
C1785 C1786 1.398 . S
C1786 H1774 0.950 . S
C1786 C1785 1.398 . S
C1786 C1787 1.391 . S
C1787 H1775 0.950 . S
C1787 C1783 1.393 . S
C1787 C1786 1.391 . S
H1788 C1796 0.950 . S
H1789 C1801 0.950 . S
H1790 C1798 0.950 . S
H1791 C1800 0.950 1_554 S
H1792 C1802 0.950 . S
H1793 C1804 0.950 . S
H1794 C1806 0.950 . S
H1795 C1807 0.950 . S
C1796 H1788 0.950 . S
C1796 C1797 1.386 . S
C1796 C1798 1.391 . S
C1797 C1796 1.386 . S
C1797 C1801 1.393 1_556 S
C1798 H1790 0.950 . S
C1798 C1796 1.391 . S
C1798 C1799 1.400 . S
C1799 C1798 1.400 . S
C1799 C1800 1.398 . S
C1799 C1805 1.491 . S
C1800 H1791 0.950 1_556 S
C1800 C1799 1.398 . S
C1800 C1801 1.391 1_556 S
C1801 H1789 0.950 . S
C1801 C1797 1.393 1_554 S
C1801 C1800 1.391 1_554 S
C1802 H1792 0.950 . S
C1802 C1803 1.386 . S
C1802 C1804 1.391 . S
C1803 C1802 1.386 . S
C1803 C1807 1.393 . S
C1804 H1793 0.950 . S
C1804 C1802 1.391 . S
C1804 C1805 1.400 . S
C1805 C1799 1.491 . S
C1805 C1804 1.400 . S
C1805 C1806 1.398 . S
C1806 H1794 0.950 . S
C1806 C1805 1.398 . S
C1806 C1807 1.391 . S
C1807 H1795 0.950 . S
C1807 C1803 1.393 . S
C1807 C1806 1.391 . S
H1808 C1816 0.950 . S
H1809 C1821 0.950 . S
H1810 C1818 0.950 . S
H1811 C1820 0.950 . S
H1812 C1822 0.950 . S
H1813 C1824 0.950 . S
H1814 C1826 0.950 . S
H1815 C1827 0.950 . S
C1816 H1808 0.950 . S
C1816 C1817 1.386 . S
C1816 C1818 1.391 . S
C1817 C1816 1.386 . S
C1817 C1821 1.393 . S
C1818 H1810 0.950 . S
C1818 C1816 1.391 . S
C1818 C1819 1.400 . S
C1819 C1818 1.400 . S
C1819 C1820 1.398 . S
C1819 C1825 1.491 . S
C1820 H1811 0.950 . S
C1820 C1819 1.398 . S
C1820 C1821 1.391 . S
C1821 H1809 0.950 . S
C1821 C1817 1.393 . S
C1821 C1820 1.391 . S
C1822 H1812 0.950 . S
C1822 C1823 1.386 . S
C1822 C1824 1.391 . S
C1823 C1822 1.386 . S
C1823 C1827 1.393 . S
C1824 H1813 0.950 . S
C1824 C1822 1.391 . S
C1824 C1825 1.400 . S
C1825 C1819 1.491 . S
C1825 C1824 1.400 . S
C1825 C1826 1.398 . S
C1826 H1814 0.950 . S
C1826 C1825 1.398 . S
C1826 C1827 1.391 . S
C1827 H1815 0.950 . S
C1827 C1823 1.393 . S
C1827 C1826 1.391 . S
H1828 C1836 0.950 . S
H1829 C1841 0.950 . S
H1830 C1838 0.950 . S
H1831 C1840 0.950 . S
H1832 C1842 0.950 . S
H1833 C1844 0.950 . S
H1834 C1846 0.950 . S
H1835 C1847 0.950 . S
C1836 H1828 0.950 . S
C1836 C1837 1.386 . S
C1836 C1838 1.391 . S
C1837 C1836 1.386 . S
C1837 C1841 1.393 . S
C1838 H1830 0.950 . S
C1838 C1836 1.391 . S
C1838 C1839 1.400 . S
C1839 C1838 1.400 . S
C1839 C1840 1.398 . S
C1839 C1845 1.491 . S
C1840 H1831 0.950 . S
C1840 C1839 1.398 . S
C1840 C1841 1.391 . S
C1841 H1829 0.950 . S
C1841 C1837 1.393 . S
C1841 C1840 1.391 . S
C1842 H1832 0.950 . S
C1842 C1843 1.386 . S
C1842 C1844 1.391 . S
C1843 C1842 1.386 . S
C1843 C1847 1.393 . S
C1844 H1833 0.950 . S
C1844 C1842 1.391 . S
C1844 C1845 1.400 . S
C1845 C1839 1.491 . S
C1845 C1844 1.400 . S
C1845 C1846 1.398 . S
C1846 H1834 0.950 . S
C1846 C1845 1.398 . S
C1846 C1847 1.391 . S
C1847 H1835 0.950 . S
C1847 C1843 1.393 . S
C1847 C1846 1.391 . S
H1848 C1856 0.950 . S
H1849 C1861 0.950 . S
H1850 C1858 0.950 . S
H1851 C1860 0.950 . S
H1852 C1862 0.950 . S
H1853 C1864 0.950 . S
H1854 C1866 0.950 . S
H1855 C1867 0.950 . S
C1856 H1848 0.950 . S
C1856 C1857 1.386 . S
C1856 C1858 1.391 . S
C1857 C1856 1.386 . S
C1857 C1861 1.393 . S
C1858 H1850 0.950 . S
C1858 C1856 1.391 . S
C1858 C1859 1.400 . S
C1859 C1858 1.400 . S
C1859 C1860 1.398 . S
C1859 C1865 1.491 . S
C1860 H1851 0.950 . S
C1860 C1859 1.398 . S
C1860 C1861 1.391 . S
C1861 H1849 0.950 . S
C1861 C1857 1.393 . S
C1861 C1860 1.391 . S
C1862 H1852 0.950 . S
C1862 C1863 1.386 1_655 S
C1862 C1864 1.391 1_655 S
C1863 C1862 1.386 1_455 S
C1863 C1867 1.393 . S
C1864 H1853 0.950 . S
C1864 C1862 1.391 1_455 S
C1864 C1865 1.400 . S
C1865 C1859 1.491 . S
C1865 C1864 1.400 . S
C1865 C1866 1.398 . S
C1866 H1854 0.950 . S
C1866 C1865 1.398 . S
C1866 C1867 1.391 . S
C1867 H1855 0.950 . S
C1867 C1863 1.393 . S
C1867 C1866 1.391 . S
H1868 C1876 0.950 . S
H1869 C1881 0.950 . S
H1870 C1878 0.950 . S
H1871 C1880 0.950 . S
H1872 C1882 0.950 . S
H1873 C1884 0.950 . S
H1874 C1886 0.950 . S
H1875 C1887 0.950 . S
C1876 H1868 0.950 . S
C1876 C1877 1.386 . S
C1876 C1878 1.391 . S
C1877 C1876 1.386 . S
C1877 C1881 1.393 . S
C1878 H1870 0.950 . S
C1878 C1876 1.391 . S
C1878 C1879 1.400 . S
C1879 C1878 1.400 . S
C1879 C1880 1.398 . S
C1879 C1885 1.491 . S
C1880 H1871 0.950 . S
C1880 C1879 1.398 . S
C1880 C1881 1.391 . S
C1881 H1869 0.950 . S
C1881 C1877 1.393 . S
C1881 C1880 1.391 . S
C1882 H1872 0.950 . S
C1882 C1883 1.386 . S
C1882 C1884 1.391 . S
C1883 C1882 1.386 . S
C1883 C1887 1.393 . S
C1884 H1873 0.950 . S
C1884 C1882 1.391 . S
C1884 C1885 1.400 . S
C1885 C1879 1.491 . S
C1885 C1884 1.400 . S
C1885 C1886 1.398 . S
C1886 H1874 0.950 . S
C1886 C1885 1.398 . S
C1886 C1887 1.391 . S
C1887 H1875 0.950 . S
C1887 C1883 1.393 . S
C1887 C1886 1.391 . S
H1888 C1896 0.950 . S
H1889 C1901 0.950 . S
H1890 C1898 0.950 . S
H1891 C1900 0.950 . S
H1892 C1902 0.950 . S
H1893 C1904 0.950 . S
H1894 C1906 0.950 . S
H1895 C1907 0.950 . S
C1896 H1888 0.950 . S
C1896 C1897 1.386 . S
C1896 C1898 1.391 . S
C1897 C1896 1.386 . S
C1897 C1901 1.393 . S
C1898 H1890 0.950 . S
C1898 C1896 1.391 . S
C1898 C1899 1.400 . S
C1899 C1898 1.400 . S
C1899 C1900 1.398 . S
C1899 C1905 1.491 . S
C1900 H1891 0.950 . S
C1900 C1899 1.398 . S
C1900 C1901 1.391 . S
C1901 H1889 0.950 . S
C1901 C1897 1.393 . S
C1901 C1900 1.391 . S
C1902 H1892 0.950 . S
C1902 C1903 1.386 . S
C1902 C1904 1.391 . S
C1903 C1902 1.386 . S
C1903 C1907 1.393 . S
C1904 H1893 0.950 . S
C1904 C1902 1.391 . S
C1904 C1905 1.400 . S
C1905 C1899 1.491 . S
C1905 C1904 1.400 . S
C1905 C1906 1.398 . S
C1906 H1894 0.950 . S
C1906 C1905 1.398 . S
C1906 C1907 1.391 . S
C1907 H1895 0.950 . S
C1907 C1903 1.393 . S
C1907 C1906 1.391 . S
H1908 C1916 0.950 1_545 S
H1909 C1921 0.950 . S
H1910 C1918 0.950 . S
H1911 C1920 0.950 . S
H1912 C1922 0.950 . S
H1913 C1924 0.950 . S
H1914 C1926 0.950 . S
H1915 C1927 0.950 . S
C1916 H1908 0.950 1_565 S
C1916 C1917 1.386 . S
C1916 C1918 1.391 . S
C1917 C1916 1.386 . S
C1917 C1921 1.393 . S
C1918 H1910 0.950 . S
C1918 C1916 1.391 . S
C1918 C1919 1.400 . S
C1919 C1918 1.400 . S
C1919 C1920 1.398 . S
C1919 C1925 1.491 . S
C1920 H1911 0.950 . S
C1920 C1919 1.398 . S
C1920 C1921 1.391 . S
C1921 H1909 0.950 . S
C1921 C1917 1.393 . S
C1921 C1920 1.391 . S
C1922 H1912 0.950 . S
C1922 C1923 1.386 . S
C1922 C1924 1.391 . S
C1923 C1922 1.386 . S
C1923 C1927 1.393 . S
C1924 H1913 0.950 . S
C1924 C1922 1.391 . S
C1924 C1925 1.400 . S
C1925 C1919 1.491 . S
C1925 C1924 1.400 . S
C1925 C1926 1.398 . S
C1926 H1914 0.950 . S
C1926 C1925 1.398 . S
C1926 C1927 1.391 . S
C1927 H1915 0.950 . S
C1927 C1923 1.393 . S
C1927 C1926 1.391 . S
H1928 C1936 0.950 . S
H1929 C1941 0.950 . S
H1930 C1938 0.950 . S
H1931 C1940 0.950 . S
H1932 C1942 0.950 . S
H1933 C1944 0.950 . S
H1934 C1946 0.950 . S
H1935 C1947 0.950 . S
C1936 H1928 0.950 . S
C1936 C1937 1.386 . S
C1936 C1938 1.391 . S
C1937 C1936 1.386 . S
C1937 C1941 1.393 . S
C1938 H1930 0.950 . S
C1938 C1936 1.391 . S
C1938 C1939 1.400 . S
C1939 C1938 1.400 . S
C1939 C1940 1.398 . S
C1939 C1945 1.491 . S
C1940 H1931 0.950 . S
C1940 C1939 1.398 . S
C1940 C1941 1.391 . S
C1941 H1929 0.950 . S
C1941 C1937 1.393 . S
C1941 C1940 1.391 . S
C1942 H1932 0.950 . S
C1942 C1943 1.416 . S
C1942 C1944 1.391 . S
C1943 C1942 1.416 . S
C1943 C1947 1.384 1_545 S
C1944 H1933 0.950 . S
C1944 C1942 1.391 . S
C1944 C1945 1.400 . S
C1945 C1939 1.491 . S
C1945 C1944 1.400 . S
C1945 C1946 1.398 . S
C1946 H1934 0.950 . S
C1946 C1945 1.398 . S
C1946 C1947 1.391 1_545 S
C1947 H1935 0.950 . S
C1947 C1943 1.384 1_565 S
C1947 C1946 1.391 1_565 S
H1948 C1956 0.950 . S
H1949 C1961 0.950 . S
H1950 C1958 0.950 . S
H1951 C1960 0.950 . S
H1952 C1962 0.950 . S
H1953 C1964 0.950 . S
H1954 C1966 0.950 . S
H1955 C1967 0.950 . S
C1956 H1948 0.950 . S
C1956 C1957 1.386 . S
C1956 C1958 1.391 . S
C1957 C1956 1.386 . S
C1957 C1961 1.393 . S
C1958 H1950 0.950 . S
C1958 C1956 1.391 . S
C1958 C1959 1.400 . S
C1959 C1958 1.400 . S
C1959 C1960 1.398 . S
C1959 C1965 1.491 . S
C1960 H1951 0.950 . S
C1960 C1959 1.398 . S
C1960 C1961 1.391 . S
C1961 H1949 0.950 . S
C1961 C1957 1.393 . S
C1961 C1960 1.391 . S
C1962 H1952 0.950 . S
C1962 C1963 1.386 . S
C1962 C1964 1.391 . S
C1963 C1962 1.386 . S
C1963 C1967 1.393 . S
C1964 H1953 0.950 . S
C1964 C1962 1.391 . S
C1964 C1965 1.400 . S
C1965 C1959 1.491 . S
C1965 C1964 1.400 . S
C1965 C1966 1.398 . S
C1966 H1954 0.950 . S
C1966 C1965 1.398 . S
C1966 C1967 1.391 . S
C1967 H1955 0.950 . S
C1967 C1963 1.393 . S
C1967 C1966 1.391 . S
H1968 C1976 0.950 . S
H1969 C1981 0.950 . S
H1970 C1978 0.950 . S
H1971 C1980 0.950 . S
H1972 C1982 0.950 . S
H1973 C1984 0.950 . S
H1974 C1986 0.950 . S
H1975 C1987 0.950 . S
C1976 H1968 0.950 . S
C1976 C1977 1.386 . S
C1976 C1978 1.391 . S
C1977 C1976 1.386 . S
C1977 C1981 1.393 . S
C1978 H1970 0.950 . S
C1978 C1976 1.391 . S
C1978 C1979 1.400 . S
C1979 C1978 1.400 . S
C1979 C1980 1.398 . S
C1979 C1985 1.491 . S
C1980 H1971 0.950 . S
C1980 C1979 1.398 . S
C1980 C1981 1.391 . S
C1981 H1969 0.950 . S
C1981 C1977 1.393 . S
C1981 C1980 1.391 . S
C1982 H1972 0.950 . S
C1982 C1983 1.386 . S
C1982 C1984 1.391 . S
C1983 C1982 1.386 . S
C1983 C1987 1.393 . S
C1984 H1973 0.950 . S
C1984 C1982 1.391 . S
C1984 C1985 1.400 . S
C1985 C1979 1.491 . S
C1985 C1984 1.400 . S
C1985 C1986 1.398 . S
C1986 H1974 0.950 . S
C1986 C1985 1.398 . S
C1986 C1987 1.391 . S
C1987 H1975 0.950 . S
C1987 C1983 1.393 . S
C1987 C1986 1.391 . S
H1988 C1996 0.950 . S
H1989 C2001 0.950 . S
H1990 C1998 0.950 . S
H1991 C2000 0.950 . S
H1992 C2002 0.950 . S
H1993 C2004 0.950 . S
H1994 C2006 0.950 . S
H1995 C2007 0.950 . S
C1996 H1988 0.950 . S
C1996 C1997 1.386 . S
C1996 C1998 1.391 . S
C1997 C1996 1.386 . S
C1997 C2001 1.393 . S
C1998 H1990 0.950 . S
C1998 C1996 1.391 . S
C1998 C1999 1.400 . S
C1999 C1998 1.400 . S
C1999 C2000 1.398 . S
C1999 C2005 1.491 . S
C2000 H1991 0.950 . S
C2000 C1999 1.398 . S
C2000 C2001 1.391 . S
C2001 H1989 0.950 . S
C2001 C1997 1.393 . S
C2001 C2000 1.391 . S
C2002 H1992 0.950 . S
C2002 C2003 1.386 . S
C2002 C2004 1.391 . S
C2003 C2002 1.386 . S
C2003 C2007 1.393 . S
C2004 H1993 0.950 . S
C2004 C2002 1.391 . S
C2004 C2005 1.400 . S
C2005 C1999 1.491 . S
C2005 C2004 1.400 . S
C2005 C2006 1.398 . S
C2006 H1994 0.950 . S
C2006 C2005 1.398 . S
C2006 C2007 1.391 . S
C2007 H1995 0.950 . S
C2007 C2003 1.393 . S
C2007 C2006 1.391 . S
H2008 C2016 0.950 . S
H2009 C2021 0.950 . S
H2010 C2018 0.950 . S
H2011 C2020 0.950 . S
H2012 C2022 0.950 . S
H2013 C2024 0.950 . S
H2014 C2026 0.950 . S
H2015 C2027 0.950 . S
C2016 H2008 0.950 . S
C2016 C2017 1.386 . S
C2016 C2018 1.391 . S
C2017 C2016 1.386 . S
C2017 C2021 1.393 . S
C2018 H2010 0.950 . S
C2018 C2016 1.391 . S
C2018 C2019 1.400 . S
C2019 C2018 1.400 . S
C2019 C2020 1.398 . S
C2019 C2025 1.491 . S
C2020 H2011 0.950 . S
C2020 C2019 1.398 . S
C2020 C2021 1.391 . S
C2021 H2009 0.950 . S
C2021 C2017 1.393 . S
C2021 C2020 1.391 . S
C2022 H2012 0.950 . S
C2022 C2023 1.386 . S
C2022 C2024 1.391 . S
C2023 C2022 1.386 . S
C2023 C2027 1.393 . S
C2024 H2013 0.950 . S
C2024 C2022 1.391 . S
C2024 C2025 1.400 . S
C2025 C2019 1.491 . S
C2025 C2024 1.400 . S
C2025 C2026 1.398 . S
C2026 H2014 0.950 . S
C2026 C2025 1.398 . S
C2026 C2027 1.391 . S
C2027 H2015 0.950 . S
C2027 C2023 1.393 . S
C2027 C2026 1.391 . S
H2028 C2036 0.950 . S
H2029 C2041 0.950 . S
H2030 C2038 0.950 . S
H2031 C2040 0.950 . S
H2032 C2042 0.947 1_556 S
H2033 C2044 0.950 . S
H2034 C2046 0.950 . S
H2035 C2047 0.950 . S
C2036 H2028 0.950 . S
C2036 C2037 1.386 . S
C2036 C2038 1.391 . S
C2037 C2036 1.386 . S
C2037 C2041 1.393 . S
C2038 H2030 0.950 . S
C2038 C2036 1.391 . S
C2038 C2039 1.400 . S
C2039 C2038 1.400 . S
C2039 C2040 1.398 . S
C2039 C2045 1.491 . S
C2040 H2031 0.950 . S
C2040 C2039 1.398 . S
C2040 C2041 1.391 . S
C2041 H2029 0.950 . S
C2041 C2037 1.393 . S
C2041 C2040 1.391 . S
C2042 H2032 0.947 1_554 S
C2042 C2043 1.393 . S
C2042 C2044 1.391 . S
C2043 C2042 1.393 . S
C2043 C2047 1.404 . S
C2044 H2033 0.950 . S
C2044 C2042 1.391 . S
C2044 C2045 1.400 . S
C2045 C2039 1.491 . S
C2045 C2044 1.400 . S
C2045 C2046 1.398 . S
C2046 H2034 0.950 . S
C2046 C2045 1.398 . S
C2046 C2047 1.391 . S
C2047 H2035 0.950 . S
C2047 C2043 1.404 . S
C2047 C2046 1.391 . S
H2048 C2056 0.950 . S
H2049 C2061 0.950 . S
H2050 C2058 0.950 . S
H2051 C2060 0.950 . S
H2052 C2062 0.950 . S
H2053 C2064 0.950 . S
H2054 C2066 0.950 . S
H2055 C2067 0.950 . S
C2056 H2048 0.950 . S
C2056 C2057 1.386 . S
C2056 C2058 1.391 . S
C2057 C2056 1.386 . S
C2057 C2061 1.393 . S
C2058 H2050 0.950 . S
C2058 C2056 1.391 . S
C2058 C2059 1.400 . S
C2059 C2058 1.400 . S
C2059 C2060 1.398 . S
C2059 C2065 1.491 . S
C2060 H2051 0.950 . S
C2060 C2059 1.398 . S
C2060 C2061 1.391 . S
C2061 H2049 0.950 . S
C2061 C2057 1.393 . S
C2061 C2060 1.391 . S
C2062 H2052 0.950 . S
C2062 C2063 1.386 . S
C2062 C2064 1.391 . S
C2063 C2062 1.386 . S
C2063 C2067 1.393 . S
C2064 H2053 0.950 . S
C2064 C2062 1.391 . S
C2064 C2065 1.400 . S
C2065 C2059 1.491 . S
C2065 C2064 1.400 . S
C2065 C2066 1.398 . S
C2066 H2054 0.950 . S
C2066 C2065 1.398 . S
C2066 C2067 1.391 . S
C2067 H2055 0.950 . S
C2067 C2063 1.393 . S
C2067 C2066 1.391 . S
H2068 C2076 0.950 1_655 S
H2069 C2081 0.950 . S
H2070 C2078 0.950 . S
H2071 C2080 0.950 . S
H2072 C2082 0.950 . S
H2073 C2084 0.950 . S
H2074 C2086 0.950 . S
H2075 C2087 0.950 . S
C2076 H2068 0.950 1_455 S
C2076 C2077 1.386 . S
C2076 C2078 1.391 . S
C2077 C2076 1.386 . S
C2077 C2081 1.393 . S
C2078 H2070 0.950 . S
C2078 C2076 1.391 . S
C2078 C2079 1.400 . S
C2079 C2078 1.400 . S
C2079 C2080 1.398 . S
C2079 C2085 1.491 . S
C2080 H2071 0.950 . S
C2080 C2079 1.398 . S
C2080 C2081 1.391 . S
C2081 H2069 0.950 . S
C2081 C2077 1.393 . S
C2081 C2080 1.391 . S
C2082 H2072 0.950 . S
C2082 C2083 1.386 . S
C2082 C2084 1.391 . S
C2083 C2082 1.386 . S
C2083 C2087 1.393 . S
C2084 H2073 0.950 . S
C2084 C2082 1.391 . S
C2084 C2085 1.400 . S
C2085 C2079 1.491 . S
C2085 C2084 1.400 . S
C2085 C2086 1.398 . S
C2086 H2074 0.950 . S
C2086 C2085 1.398 . S
C2086 C2087 1.391 . S
C2087 H2075 0.950 . S
C2087 C2083 1.393 . S
C2087 C2086 1.391 . S
H2088 C2096 0.950 . S
H2089 C2101 0.950 . S
H2090 C2098 0.950 . S
H2091 C2100 0.950 . S
H2092 C2102 0.950 . S
H2093 C2104 0.950 . S
H2094 C2106 0.950 . S
H2095 C2107 0.950 . S
C2096 H2088 0.950 . S
C2096 C2097 1.386 1_455 S
C2096 C2098 1.391 1_455 S
C2097 C2096 1.386 1_655 S
C2097 C2101 1.393 . S
C2098 H2090 0.950 . S
C2098 C2096 1.391 1_655 S
C2098 C2099 1.400 . S
C2099 C2098 1.400 . S
C2099 C2100 1.398 . S
C2099 C2105 1.491 . S
C2100 H2091 0.950 . S
C2100 C2099 1.398 . S
C2100 C2101 1.391 . S
C2101 H2089 0.950 . S
C2101 C2097 1.393 . S
C2101 C2100 1.391 . S
C2102 H2092 0.950 . S
C2102 C2103 1.386 . S
C2102 C2104 1.391 . S
C2103 C2102 1.386 . S
C2103 C2107 1.393 . S
C2104 H2093 0.950 . S
C2104 C2102 1.391 . S
C2104 C2105 1.400 . S
C2105 C2099 1.491 . S
C2105 C2104 1.400 . S
C2105 C2106 1.398 . S
C2106 H2094 0.950 . S
C2106 C2105 1.398 . S
C2106 C2107 1.391 . S
C2107 H2095 0.950 . S
C2107 C2103 1.393 . S
C2107 C2106 1.391 . S
H2108 C2116 0.950 . S
H2109 C2121 0.950 . S
H2110 C2118 0.950 . S
H2111 C2120 0.950 . S
H2112 C2122 0.950 . S
H2113 C2124 0.950 . S
H2114 C2126 0.950 . S
H2115 C2127 0.950 . S
C2116 H2108 0.950 . S
C2116 C2117 1.386 . S
C2116 C2118 1.391 . S
C2117 C2116 1.386 . S
C2117 C2121 1.393 . S
C2118 H2110 0.950 . S
C2118 C2116 1.391 . S
C2118 C2119 1.400 . S
C2119 C2118 1.400 . S
C2119 C2120 1.398 . S
C2119 C2125 1.491 . S
C2120 H2111 0.950 . S
C2120 C2119 1.398 . S
C2120 C2121 1.391 . S
C2121 H2109 0.950 . S
C2121 C2117 1.393 . S
C2121 C2120 1.391 . S
C2122 H2112 0.950 . S
C2122 C2123 1.386 . S
C2122 C2124 1.391 . S
C2123 C2122 1.386 . S
C2123 C2127 1.393 . S
C2124 H2113 0.950 . S
C2124 C2122 1.391 . S
C2124 C2125 1.400 . S
C2125 C2119 1.491 . S
C2125 C2124 1.400 . S
C2125 C2126 1.398 . S
C2126 H2114 0.950 . S
C2126 C2125 1.398 . S
C2126 C2127 1.391 . S
C2127 H2115 0.950 . S
C2127 C2123 1.393 . S
C2127 C2126 1.391 . S
H2128 C2136 0.950 . S
H2129 C2141 0.950 . S
H2130 C2138 0.950 . S
H2131 C2140 0.950 . S
H2132 C2142 0.950 . S
H2133 C2144 0.950 . S
H2134 C2146 0.950 . S
H2135 C2147 0.950 . S
C2136 H2128 0.950 . S
C2136 C2137 1.386 . S
C2136 C2138 1.391 . S
C2137 C2136 1.386 . S
C2137 C2141 1.393 . S
C2138 H2130 0.950 . S
C2138 C2136 1.391 . S
C2138 C2139 1.400 . S
C2139 C2138 1.400 . S
C2139 C2140 1.398 . S
C2139 C2145 1.491 . S
C2140 H2131 0.950 . S
C2140 C2139 1.398 . S
C2140 C2141 1.391 . S
C2141 H2129 0.950 . S
C2141 C2137 1.393 . S
C2141 C2140 1.391 . S
C2142 H2132 0.950 . S
C2142 C2143 1.386 . S
C2142 C2144 1.391 . S
C2143 C2142 1.386 . S
C2143 C2147 1.393 . S
C2144 H2133 0.950 . S
C2144 C2142 1.391 . S
C2144 C2145 1.400 . S
C2145 C2139 1.491 . S
C2145 C2144 1.400 . S
C2145 C2146 1.398 . S
C2146 H2134 0.950 . S
C2146 C2145 1.398 . S
C2146 C2147 1.391 . S
C2147 H2135 0.950 . S
C2147 C2143 1.393 . S
C2147 C2146 1.391 . S
H2148 C2156 0.950 . S
H2149 C2161 0.950 . S
H2150 C2158 0.950 . S
H2151 C2160 0.950 . S
H2152 C2162 0.950 . S
H2153 C2164 0.950 1_565 S
H2154 C2166 0.950 . S
H2155 C2167 0.950 . S
C2156 H2148 0.950 . S
C2156 C2157 1.386 . S
C2156 C2158 1.391 . S
C2157 C2156 1.386 . S
C2157 C2161 1.393 . S
C2158 H2150 0.950 . S
C2158 C2156 1.391 . S
C2158 C2159 1.400 . S
C2159 C2158 1.400 . S
C2159 C2160 1.398 . S
C2159 C2165 1.491 . S
C2160 H2151 0.950 . S
C2160 C2159 1.398 . S
C2160 C2161 1.391 . S
C2161 H2149 0.950 . S
C2161 C2157 1.393 . S
C2161 C2160 1.391 . S
C2162 H2152 0.950 . S
C2162 C2163 1.386 1_565 S
C2162 C2164 1.391 1_565 S
C2163 C2162 1.386 1_545 S
C2163 C2167 1.393 . S
C2164 H2153 0.950 1_545 S
C2164 C2162 1.391 1_545 S
C2164 C2165 1.400 . S
C2165 C2159 1.491 . S
C2165 C2164 1.400 . S
C2165 C2166 1.398 . S
C2166 H2154 0.950 . S
C2166 C2165 1.398 . S
C2166 C2167 1.391 . S
C2167 H2155 0.950 . S
C2167 C2163 1.393 . S
C2167 C2166 1.391 . S
H2168 C2176 0.950 . S
H2169 C2181 0.950 . S
H2170 C2178 0.950 . S
H2171 C2180 0.950 . S
H2172 C2182 0.950 . S
H2173 C2184 0.950 . S
H2174 C2186 0.950 1_545 S
H2175 C2187 0.950 . S
C2176 H2168 0.950 . S
C2176 C2177 1.386 . S
C2176 C2178 1.391 . S
C2177 C2176 1.386 . S
C2177 C2181 1.393 . S
C2178 H2170 0.950 . S
C2178 C2176 1.391 . S
C2178 C2179 1.400 . S
C2179 C2178 1.400 . S
C2179 C2180 1.398 . S
C2179 C2185 1.491 . S
C2180 H2171 0.950 . S
C2180 C2179 1.398 . S
C2180 C2181 1.391 . S
C2181 H2169 0.950 . S
C2181 C2177 1.393 . S
C2181 C2180 1.391 . S
C2182 H2172 0.950 . S
C2182 C2183 1.386 . S
C2182 C2184 1.391 . S
C2183 C2182 1.386 . S
C2183 C2187 1.393 1_565 S
C2184 H2173 0.950 . S
C2184 C2182 1.391 . S
C2184 C2185 1.400 . S
C2185 C2179 1.491 . S
C2185 C2184 1.400 . S
C2185 C2186 1.398 . S
C2186 H2174 0.950 1_565 S
C2186 C2185 1.398 . S
C2186 C2187 1.391 1_565 S
C2187 H2175 0.950 . S
C2187 C2183 1.393 1_545 S
C2187 C2186 1.391 1_545 S
H2188 C2196 0.950 . S
H2189 C2201 0.950 . S
H2190 C2198 0.950 . S
H2191 C2200 0.950 . S
H2192 C2202 0.950 . S
H2193 C2204 0.950 . S
H2194 C2206 0.950 . S
H2195 C2207 0.950 . S
C2196 H2188 0.950 . S
C2196 C2197 1.386 . S
C2196 C2198 1.391 . S
C2197 C2196 1.386 . S
C2197 C2201 1.393 . S
C2198 H2190 0.950 . S
C2198 C2196 1.391 . S
C2198 C2199 1.400 . S
C2199 C2198 1.400 . S
C2199 C2200 1.398 . S
C2199 C2205 1.491 . S
C2200 H2191 0.950 . S
C2200 C2199 1.398 . S
C2200 C2201 1.391 . S
C2201 H2189 0.950 . S
C2201 C2197 1.393 . S
C2201 C2200 1.391 . S
C2202 H2192 0.950 . S
C2202 C2203 1.386 . S
C2202 C2204 1.391 . S
C2203 C2202 1.386 . S
C2203 C2207 1.393 . S
C2204 H2193 0.950 . S
C2204 C2202 1.391 . S
C2204 C2205 1.400 . S
C2205 C2199 1.491 . S
C2205 C2204 1.400 . S
C2205 C2206 1.398 . S
C2206 H2194 0.950 . S
C2206 C2205 1.398 . S
C2206 C2207 1.391 . S
C2207 H2195 0.950 . S
C2207 C2203 1.393 . S
C2207 C2206 1.391 . S
H2208 C2216 0.950 . S
H2209 C2221 0.950 . S
H2210 C2218 0.950 . S
H2211 C2220 0.950 . S
H2212 C2222 0.950 . S
H2213 C2224 0.950 . S
H2214 C2226 0.950 . S
H2215 C2227 0.950 . S
C2216 H2208 0.950 . S
C2216 C2217 1.386 . S
C2216 C2218 1.391 . S
C2217 C2216 1.386 . S
C2217 C2221 1.393 . S
C2218 H2210 0.950 . S
C2218 C2216 1.391 . S
C2218 C2219 1.400 . S
C2219 C2218 1.400 . S
C2219 C2220 1.398 . S
C2219 C2225 1.491 . S
C2220 H2211 0.950 . S
C2220 C2219 1.398 . S
C2220 C2221 1.391 . S
C2221 H2209 0.950 . S
C2221 C2217 1.393 . S
C2221 C2220 1.391 . S
C2222 H2212 0.950 . S
C2222 C2223 1.386 . S
C2222 C2224 1.391 . S
C2223 C2222 1.386 . S
C2223 C2227 1.393 . S
C2224 H2213 0.950 . S
C2224 C2222 1.391 . S
C2224 C2225 1.400 . S
C2225 C2219 1.491 . S
C2225 C2224 1.400 . S
C2225 C2226 1.398 . S
C2226 H2214 0.950 . S
C2226 C2225 1.398 . S
C2226 C2227 1.391 . S
C2227 H2215 0.950 . S
C2227 C2223 1.393 . S
C2227 C2226 1.391 . S
H2228 C2236 0.950 . S
H2229 C2241 0.950 . S
H2230 C2238 0.950 . S
H2231 C2240 0.950 . S
H2232 C2242 0.950 . S
H2233 C2244 0.950 . S
H2234 C2246 0.952 1_556 S
H2235 C2247 0.950 . S
C2236 H2228 0.950 . S
C2236 C2237 1.386 . S
C2236 C2238 1.391 . S
C2237 C2236 1.386 . S
C2237 C2241 1.393 . S
C2238 H2230 0.950 . S
C2238 C2236 1.391 . S
C2238 C2239 1.400 . S
C2239 C2238 1.400 . S
C2239 C2240 1.398 . S
C2239 C2245 1.491 . S
C2240 H2231 0.950 . S
C2240 C2239 1.398 . S
C2240 C2241 1.391 . S
C2241 H2229 0.950 . S
C2241 C2237 1.393 . S
C2241 C2240 1.391 . S
C2242 H2232 0.950 . S
C2242 C2243 1.386 . S
C2242 C2244 1.391 . S
C2243 C2242 1.386 . S
C2243 C2247 1.393 1_554 S
C2244 H2233 0.950 . S
C2244 C2242 1.391 . S
C2244 C2245 1.400 . S
C2245 C2239 1.491 . S
C2245 C2244 1.400 . S
C2245 C2246 1.398 . S
C2246 H2234 0.952 1_554 S
C2246 C2245 1.398 . S
C2246 C2247 1.391 1_554 S
C2247 H2235 0.950 . S
C2247 C2243 1.393 1_556 S
C2247 C2246 1.391 1_556 S
H2248 C2256 0.950 . S
H2249 C2261 0.950 . S
H2250 C2258 0.950 . S
H2251 C2260 0.950 . S
H2252 C2262 0.950 . S
H2253 C2264 0.950 . S
H2254 C2266 0.950 . S
H2255 C2267 0.950 . S
C2256 H2248 0.950 . S
C2256 C2257 1.386 . S
C2256 C2258 1.391 . S
C2257 C2256 1.386 . S
C2257 C2261 1.393 . S
C2258 H2250 0.950 . S
C2258 C2256 1.391 . S
C2258 C2259 1.400 . S
C2259 C2258 1.400 . S
C2259 C2260 1.398 . S
C2259 C2265 1.491 . S
C2260 H2251 0.950 . S
C2260 C2259 1.398 . S
C2260 C2261 1.391 . S
C2261 H2249 0.950 . S
C2261 C2257 1.393 . S
C2261 C2260 1.391 . S
C2262 H2252 0.950 . S
C2262 C2263 1.386 . S
C2262 C2264 1.391 . S
C2263 C2262 1.386 . S
C2263 C2267 1.393 . S
C2264 H2253 0.950 . S
C2264 C2262 1.391 . S
C2264 C2265 1.400 . S
C2265 C2259 1.491 . S
C2265 C2264 1.400 . S
C2265 C2266 1.398 . S
C2266 H2254 0.950 . S
C2266 C2265 1.398 . S
C2266 C2267 1.391 . S
C2267 H2255 0.950 . S
C2267 C2263 1.393 . S
C2267 C2266 1.391 . S
H2268 C2276 0.950 . S
H2269 C2281 0.950 . S
H2270 C2278 0.950 . S
H2271 C2280 0.950 . S
H2272 C2282 0.950 . S
H2273 C2284 0.938 1_554 S
H2274 C2286 0.950 . S
H2275 C2287 0.950 . S
C2276 H2268 0.950 . S
C2276 C2277 1.386 . S
C2276 C2278 1.391 . S
C2277 C2276 1.386 . S
C2277 C2281 1.393 . S
C2278 H2270 0.950 . S
C2278 C2276 1.391 . S
C2278 C2279 1.400 . S
C2279 C2278 1.400 . S
C2279 C2280 1.398 . S
C2279 C2285 1.491 . S
C2280 H2271 0.950 . S
C2280 C2279 1.398 . S
C2280 C2281 1.391 . S
C2281 H2269 0.950 . S
C2281 C2277 1.393 . S
C2281 C2280 1.391 . S
C2282 H2272 0.950 . S
C2282 C2283 1.386 1_554 S
C2282 C2284 1.391 1_554 S
C2283 C2282 1.386 1_556 S
C2283 C2287 1.393 . S
C2284 H2273 0.938 1_556 S
C2284 C2282 1.391 1_556 S
C2284 C2285 1.400 . S
C2285 C2279 1.491 . S
C2285 C2284 1.400 . S
C2285 C2286 1.398 . S
C2286 H2274 0.950 . S
C2286 C2285 1.398 . S
C2286 C2287 1.391 . S
C2287 H2275 0.950 . S
C2287 C2283 1.393 . S
C2287 C2286 1.391 . S
H2288 C2296 0.950 . S
H2289 C2301 0.950 . S
H2290 C2298 0.950 . S
H2291 C2300 0.950 . S
H2292 C2302 0.950 . S
H2293 C2304 0.950 . S
H2294 C2306 0.950 . S
H2295 C2307 0.950 . S
C2296 H2288 0.950 . S
C2296 C2297 1.386 . S
C2296 C2298 1.391 . S
C2297 C2296 1.386 . S
C2297 C2301 1.393 . S
C2298 H2290 0.950 . S
C2298 C2296 1.391 . S
C2298 C2299 1.400 . S
C2299 C2298 1.400 . S
C2299 C2300 1.398 . S
C2299 C2305 1.491 . S
C2300 H2291 0.950 . S
C2300 C2299 1.398 . S
C2300 C2301 1.391 . S
C2301 H2289 0.950 . S
C2301 C2297 1.393 . S
C2301 C2300 1.391 . S
C2302 H2292 0.950 . S
C2302 C2303 1.386 . S
C2302 C2304 1.391 . S
C2303 C2302 1.386 . S
C2303 C2307 1.393 . S
C2304 H2293 0.950 . S
C2304 C2302 1.391 . S
C2304 C2305 1.400 . S
C2305 C2299 1.491 . S
C2305 C2304 1.400 . S
C2305 C2306 1.398 . S
C2306 H2294 0.950 . S
C2306 C2305 1.398 . S
C2306 C2307 1.391 . S
C2307 H2295 0.950 . S
C2307 C2303 1.393 . S
C2307 C2306 1.391 . S
H2308 C2316 0.950 . S
H2309 C2321 0.950 . S
H2310 C2318 0.950 . S
H2311 C2320 0.950 . S
H2312 C2322 0.950 . S
H2313 C2324 0.950 . S
H2314 C2326 0.950 . S
H2315 C2327 0.950 1_455 S
C2316 H2308 0.950 . S
C2316 C2317 1.386 . S
C2316 C2318 1.391 . S
C2317 C2316 1.386 . S
C2317 C2321 1.393 . S
C2318 H2310 0.950 . S
C2318 C2316 1.391 . S
C2318 C2319 1.400 . S
C2319 C2318 1.400 . S
C2319 C2320 1.398 . S
C2319 C2325 1.491 . S
C2320 H2311 0.950 . S
C2320 C2319 1.398 . S
C2320 C2321 1.391 . S
C2321 H2309 0.950 . S
C2321 C2317 1.393 . S
C2321 C2320 1.391 . S
C2322 H2312 0.950 . S
C2322 C2323 1.386 . S
C2322 C2324 1.391 . S
C2323 C2322 1.386 . S
C2323 C2327 1.393 . S
C2324 H2313 0.950 . S
C2324 C2322 1.391 . S
C2324 C2325 1.400 . S
C2325 C2319 1.491 . S
C2325 C2324 1.400 . S
C2325 C2326 1.398 . S
C2326 H2314 0.950 . S
C2326 C2325 1.398 . S
C2326 C2327 1.391 . S
C2327 H2315 0.950 1_655 S
C2327 C2323 1.393 . S
C2327 C2326 1.391 . S
H2328 C2336 0.948 . S
H2329 C2341 0.950 . S
H2330 C2338 0.950 . S
H2331 C2340 0.950 . S
H2332 C2342 0.950 . S
H2333 C2344 0.950 . S
H2334 C2346 0.950 . S
H2335 C2347 0.950 . S
C2336 H2328 0.948 . S
C2336 C2337 1.386 1_655 S
C2336 C2338 1.392 1_655 S
C2337 C2336 1.386 1_455 S
C2337 C2341 1.393 . S
C2338 H2330 0.950 . S
C2338 C2336 1.392 1_455 S
C2338 C2339 1.400 . S
C2339 C2338 1.400 . S
C2339 C2340 1.398 . S
C2339 C2345 1.491 . S
C2340 H2331 0.950 . S
C2340 C2339 1.398 . S
C2340 C2341 1.391 . S
C2341 H2329 0.950 . S
C2341 C2337 1.393 . S
C2341 C2340 1.391 . S
C2342 H2332 0.950 . S
C2342 C2343 1.386 . S
C2342 C2344 1.391 . S
C2343 C2342 1.386 . S
C2343 C2347 1.393 . S
C2344 H2333 0.950 . S
C2344 C2342 1.391 . S
C2344 C2345 1.400 . S
C2345 C2339 1.491 . S
C2345 C2344 1.400 . S
C2345 C2346 1.398 . S
C2346 H2334 0.950 . S
C2346 C2345 1.398 . S
C2346 C2347 1.391 . S
C2347 H2335 0.950 . S
C2347 C2343 1.393 . S
C2347 C2346 1.391 . S
H2348 C2356 0.950 . S
H2349 C2361 0.950 . S
H2350 C2358 0.950 . S
H2351 C2360 0.950 . S
H2352 C2362 0.950 . S
H2353 C2364 0.950 . S
H2354 C2366 0.950 . S
H2355 C2367 0.950 . S
C2356 H2348 0.950 . S
C2356 C2357 1.386 . S
C2356 C2358 1.391 . S
C2357 C2356 1.386 . S
C2357 C2361 1.393 . S
C2358 H2350 0.950 . S
C2358 C2356 1.391 . S
C2358 C2359 1.400 . S
C2359 C2358 1.400 . S
C2359 C2360 1.398 . S
C2359 C2365 1.491 . S
C2360 H2351 0.950 . S
C2360 C2359 1.398 . S
C2360 C2361 1.391 . S
C2361 H2349 0.950 . S
C2361 C2357 1.393 . S
C2361 C2360 1.391 . S
C2362 H2352 0.950 . S
C2362 C2363 1.386 . S
C2362 C2364 1.391 . S
C2363 C2362 1.386 . S
C2363 C2367 1.393 . S
C2364 H2353 0.950 . S
C2364 C2362 1.391 . S
C2364 C2365 1.400 . S
C2365 C2359 1.491 . S
C2365 C2364 1.400 . S
C2365 C2366 1.398 . S
C2366 H2354 0.950 . S
C2366 C2365 1.398 . S
C2366 C2367 1.391 . S
C2367 H2355 0.950 . S
C2367 C2363 1.393 . S
C2367 C2366 1.391 . S
H2368 C2376 0.950 . S
H2369 C2381 0.950 . S
H2370 C2378 0.950 . S
H2371 C2380 0.950 . S
H2372 C2382 0.950 . S
H2373 C2384 0.950 . S
H2374 C2386 0.950 . S
H2375 C2387 0.950 . S
C2376 H2368 0.950 . S
C2376 C2377 1.386 . S
C2376 C2378 1.391 . S
C2377 C2376 1.386 . S
C2377 C2381 1.393 . S
C2378 H2370 0.950 . S
C2378 C2376 1.391 . S
C2378 C2379 1.400 . S
C2379 C2378 1.400 . S
C2379 C2380 1.398 . S
C2379 C2385 1.491 . S
C2380 H2371 0.950 . S
C2380 C2379 1.398 . S
C2380 C2381 1.391 . S
C2381 H2369 0.950 . S
C2381 C2377 1.393 . S
C2381 C2380 1.391 . S
C2382 H2372 0.950 . S
C2382 C2383 1.386 . S
C2382 C2384 1.391 . S
C2383 C2382 1.386 . S
C2383 C2387 1.393 . S
C2384 H2373 0.950 . S
C2384 C2382 1.391 . S
C2384 C2385 1.400 . S
C2385 C2379 1.491 . S
C2385 C2384 1.400 . S
C2385 C2386 1.398 . S
C2386 H2374 0.950 . S
C2386 C2385 1.398 . S
C2386 C2387 1.391 . S
C2387 H2375 0.950 . S
C2387 C2383 1.393 . S
C2387 C2386 1.391 . S
H2388 C2396 0.950 . S
H2389 C2401 0.950 . S
H2390 C2398 0.950 . S
H2391 C2400 0.950 . S
H2392 C2402 0.950 . S
H2393 C2404 0.950 . S
H2394 C2406 0.950 . S
H2395 C2407 0.950 . S
C2396 H2388 0.950 . S
C2396 C2397 1.386 . S
C2396 C2398 1.391 . S
C2397 C2396 1.386 . S
C2397 C2401 1.393 . S
C2398 H2390 0.950 . S
C2398 C2396 1.391 . S
C2398 C2399 1.400 . S
C2399 C2398 1.400 . S
C2399 C2400 1.398 . S
C2399 C2405 1.491 . S
C2400 H2391 0.950 . S
C2400 C2399 1.398 . S
C2400 C2401 1.391 . S
C2401 H2389 0.950 . S
C2401 C2397 1.393 . S
C2401 C2400 1.391 . S
C2402 H2392 0.950 . S
C2402 C2403 1.386 1_545 S
C2402 C2404 1.391 1_545 S
C2403 C2402 1.386 1_565 S
C2403 C2407 1.393 . S
C2404 H2393 0.950 . S
C2404 C2402 1.391 1_565 S
C2404 C2405 1.400 . S
C2405 C2399 1.491 . S
C2405 C2404 1.400 . S
C2405 C2406 1.398 . S
C2406 H2394 0.950 . S
C2406 C2405 1.398 . S
C2406 C2407 1.391 . S
C2407 H2395 0.950 . S
C2407 C2403 1.393 . S
C2407 C2406 1.391 . S
H2408 C2416 0.950 . S
H2409 C2421 0.950 1_565 S
H2410 C2418 0.950 . S
H2411 C2420 0.950 . S
H2412 C2422 0.950 . S
H2413 C2424 0.950 . S
H2414 C2426 0.950 . S
H2415 C2427 0.950 . S
C2416 H2408 0.950 . S
C2416 C2417 1.386 . S
C2416 C2418 1.391 . S
C2417 C2416 1.386 . S
C2417 C2421 1.393 . S
C2418 H2410 0.950 . S
C2418 C2416 1.391 . S
C2418 C2419 1.400 . S
C2419 C2418 1.400 . S
C2419 C2420 1.398 . S
C2419 C2425 1.491 . S
C2420 H2411 0.950 . S
C2420 C2419 1.398 . S
C2420 C2421 1.391 . S
C2421 H2409 0.950 1_545 S
C2421 C2417 1.393 . S
C2421 C2420 1.391 . S
C2422 H2412 0.950 . S
C2422 C2423 1.386 . S
C2422 C2424 1.391 . S
C2423 C2422 1.386 . S
C2423 C2427 1.393 . S
C2424 H2413 0.950 . S
C2424 C2422 1.391 . S
C2424 C2425 1.400 . S
C2425 C2419 1.491 . S
C2425 C2424 1.400 . S
C2425 C2426 1.398 . S
C2426 H2414 0.950 . S
C2426 C2425 1.398 . S
C2426 C2427 1.391 . S
C2427 H2415 0.950 . S
C2427 C2423 1.393 . S
C2427 C2426 1.391 . S
H2428 C2436 0.950 . S
H2429 C2441 0.950 . S
H2430 C2438 0.950 . S
H2431 C2440 0.950 . S
H2432 C2442 0.950 . S
H2433 C2444 0.950 . S
H2434 C2446 0.950 . S
H2435 C2447 0.950 . S
C2436 H2428 0.950 . S
C2436 C2437 1.386 . S
C2436 C2438 1.391 . S
C2437 C2436 1.386 . S
C2437 C2441 1.393 . S
C2438 H2430 0.950 . S
C2438 C2436 1.391 . S
C2438 C2439 1.400 . S
C2439 C2438 1.400 . S
C2439 C2440 1.398 . S
C2439 C2445 1.491 . S
C2440 H2431 0.950 . S
C2440 C2439 1.398 . S
C2440 C2441 1.391 . S
C2441 H2429 0.950 . S
C2441 C2437 1.393 . S
C2441 C2440 1.391 . S
C2442 H2432 0.950 . S
C2442 C2443 1.386 . S
C2442 C2444 1.391 . S
C2443 C2442 1.386 . S
C2443 C2447 1.393 . S
C2444 H2433 0.950 . S
C2444 C2442 1.391 . S
C2444 C2445 1.400 . S
C2445 C2439 1.491 . S
C2445 C2444 1.400 . S
C2445 C2446 1.398 . S
C2446 H2434 0.950 . S
C2446 C2445 1.398 . S
C2446 C2447 1.391 . S
C2447 H2435 0.950 . S
C2447 C2443 1.393 . S
C2447 C2446 1.391 . S
H2448 C2456 0.950 . S
H2449 C2461 0.950 . S
H2450 C2458 0.950 . S
H2451 C2460 0.950 . S
H2452 C2462 0.950 . S
H2453 C2464 0.950 . S
H2454 C2466 0.950 . S
H2455 C2467 0.950 . S
C2456 H2448 0.950 . S
C2456 C2457 1.386 . S
C2456 C2458 1.391 . S
C2457 C2456 1.386 . S
C2457 C2461 1.393 . S
C2458 H2450 0.950 . S
C2458 C2456 1.391 . S
C2458 C2459 1.400 . S
C2459 C2458 1.400 . S
C2459 C2460 1.398 . S
C2459 C2465 1.491 . S
C2460 H2451 0.950 . S
C2460 C2459 1.398 . S
C2460 C2461 1.391 . S
C2461 H2449 0.950 . S
C2461 C2457 1.393 . S
C2461 C2460 1.391 . S
C2462 H2452 0.950 . S
C2462 C2463 1.386 . S
C2462 C2464 1.391 . S
C2463 C2462 1.386 . S
C2463 C2467 1.393 . S
C2464 H2453 0.950 . S
C2464 C2462 1.391 . S
C2464 C2465 1.400 . S
C2465 C2459 1.491 . S
C2465 C2464 1.400 . S
C2465 C2466 1.398 . S
C2466 H2454 0.950 . S
C2466 C2465 1.398 . S
C2466 C2467 1.391 . S
C2467 H2455 0.950 . S
C2467 C2463 1.393 . S
C2467 C2466 1.391 . S
H2468 C2476 0.950 . S
H2469 C2481 0.950 . S
H2470 C2478 0.950 . S
H2471 C2480 0.950 . S
H2472 C2482 0.950 . S
H2473 C2484 0.950 . S
H2474 C2486 0.950 . S
H2475 C2487 0.950 . S
C2476 H2468 0.950 . S
C2476 C2477 1.386 . S
C2476 C2478 1.391 . S
C2477 C2476 1.386 . S
C2477 C2481 1.393 . S
C2478 H2470 0.950 . S
C2478 C2476 1.391 . S
C2478 C2479 1.400 . S
C2479 C2478 1.400 . S
C2479 C2480 1.398 . S
C2479 C2485 1.491 . S
C2480 H2471 0.950 . S
C2480 C2479 1.398 . S
C2480 C2481 1.391 . S
C2481 H2469 0.950 . S
C2481 C2477 1.393 . S
C2481 C2480 1.391 . S
C2482 H2472 0.950 . S
C2482 C2483 1.386 . S
C2482 C2484 1.391 . S
C2483 C2482 1.386 . S
C2483 C2487 1.393 . S
C2484 H2473 0.950 . S
C2484 C2482 1.391 . S
C2484 C2485 1.400 . S
C2485 C2479 1.491 . S
C2485 C2484 1.400 . S
C2485 C2486 1.398 . S
C2486 H2474 0.950 . S
C2486 C2485 1.398 . S
C2486 C2487 1.391 . S
C2487 H2475 0.950 . S
C2487 C2483 1.393 . S
C2487 C2486 1.391 . S
H2488 C2496 0.950 . S
H2489 C2501 0.950 . S
H2490 C2498 0.950 . S
H2491 C2500 0.950 . S
H2492 C2502 0.950 . S
H2493 C2504 0.950 . S
H2494 C2506 0.950 . S
H2495 C2507 0.950 . S
C2496 H2488 0.950 . S
C2496 C2497 1.386 . S
C2496 C2498 1.391 . S
C2497 C2496 1.386 . S
C2497 C2501 1.393 . S
C2498 H2490 0.950 . S
C2498 C2496 1.391 . S
C2498 C2499 1.400 . S
C2499 C2498 1.400 . S
C2499 C2500 1.398 . S
C2499 C2505 1.491 . S
C2500 H2491 0.950 . S
C2500 C2499 1.398 . S
C2500 C2501 1.391 . S
C2501 H2489 0.950 . S
C2501 C2497 1.393 . S
C2501 C2500 1.391 . S
C2502 H2492 0.950 . S
C2502 C2503 1.386 . S
C2502 C2504 1.391 . S
C2503 C2502 1.386 . S
C2503 C2507 1.393 . S
C2504 H2493 0.950 . S
C2504 C2502 1.391 . S
C2504 C2505 1.400 . S
C2505 C2499 1.491 . S
C2505 C2504 1.400 . S
C2505 C2506 1.398 . S
C2506 H2494 0.950 . S
C2506 C2505 1.398 . S
C2506 C2507 1.391 . S
C2507 H2495 0.950 . S
C2507 C2503 1.393 . S
C2507 C2506 1.391 . S
H2508 C2516 0.950 . S
H2509 C2521 0.950 . S
H2510 C2518 0.950 . S
H2511 C2520 0.950 . S
H2512 C2522 0.934 1_556 S
H2513 C2524 0.950 . S
H2514 C2526 0.950 . S
H2515 C2527 0.950 . S
C2516 H2508 0.950 . S
C2516 C2517 1.386 . S
C2516 C2518 1.391 . S
C2517 C2516 1.386 . S
C2517 C2521 1.393 . S
C2518 H2510 0.950 . S
C2518 C2516 1.391 . S
C2518 C2519 1.400 . S
C2519 C2518 1.400 . S
C2519 C2520 1.398 . S
C2519 C2525 1.491 . S
C2520 H2511 0.950 . S
C2520 C2519 1.398 . S
C2520 C2521 1.391 . S
C2521 H2509 0.950 . S
C2521 C2517 1.393 . S
C2521 C2520 1.391 . S
C2522 H2512 0.934 1_554 S
C2522 C2523 1.386 . S
C2522 C2524 1.391 . S
C2523 C2522 1.386 . S
C2523 C2527 1.393 . S
C2524 H2513 0.950 . S
C2524 C2522 1.391 . S
C2524 C2525 1.400 . S
C2525 C2519 1.491 . S
C2525 C2524 1.400 . S
C2525 C2526 1.398 . S
C2526 H2514 0.950 . S
C2526 C2525 1.398 . S
C2526 C2527 1.391 . S
C2527 H2515 0.950 . S
C2527 C2523 1.393 . S
C2527 C2526 1.391 . S
H2528 C2536 0.950 . S
H2529 C2541 0.950 . S
H2530 C2538 0.950 . S
H2531 C2540 0.950 . S
H2532 C2542 0.950 . S
H2533 C2544 0.950 . S
H2534 C2546 0.950 . S
H2535 C2547 0.950 . S
C2536 H2528 0.950 . S
C2536 C2537 1.386 . S
C2536 C2538 1.391 . S
C2537 C2536 1.386 . S
C2537 C2541 1.393 . S
C2538 H2530 0.950 . S
C2538 C2536 1.391 . S
C2538 C2539 1.400 . S
C2539 C2538 1.400 . S
C2539 C2540 1.398 . S
C2539 C2545 1.491 . S
C2540 H2531 0.950 . S
C2540 C2539 1.398 . S
C2540 C2541 1.391 . S
C2541 H2529 0.950 . S
C2541 C2537 1.393 . S
C2541 C2540 1.391 . S
C2542 H2532 0.950 . S
C2542 C2543 1.386 . S
C2542 C2544 1.391 . S
C2543 C2542 1.386 . S
C2543 C2547 1.393 . S
C2544 H2533 0.950 . S
C2544 C2542 1.391 . S
C2544 C2545 1.400 . S
C2545 C2539 1.491 . S
C2545 C2544 1.400 . S
C2545 C2546 1.398 . S
C2546 H2534 0.950 . S
C2546 C2545 1.398 . S
C2546 C2547 1.391 . S
C2547 H2535 0.950 . S
C2547 C2543 1.393 . S
C2547 C2546 1.391 . S
H2548 C2556 0.950 1_655 S
H2549 C2561 0.950 . S
H2550 C2558 0.950 . S
H2551 C2560 0.950 . S
H2552 C2562 0.950 . S
H2553 C2564 0.950 . S
H2554 C2566 0.950 . S
H2555 C2567 0.950 . S
C2556 H2548 0.950 1_455 S
C2556 C2557 1.386 . S
C2556 C2558 1.391 . S
C2557 C2556 1.386 . S
C2557 C2561 1.393 . S
C2558 H2550 0.950 . S
C2558 C2556 1.391 . S
C2558 C2559 1.400 . S
C2559 C2558 1.400 . S
C2559 C2560 1.398 . S
C2559 C2565 1.491 . S
C2560 H2551 0.950 . S
C2560 C2559 1.398 . S
C2560 C2561 1.391 . S
C2561 H2549 0.950 . S
C2561 C2557 1.393 . S
C2561 C2560 1.391 . S
C2562 H2552 0.950 . S
C2562 C2563 1.386 . S
C2562 C2564 1.391 . S
C2563 C2562 1.386 . S
C2563 C2567 1.393 . S
C2564 H2553 0.950 . S
C2564 C2562 1.391 . S
C2564 C2565 1.400 . S
C2565 C2559 1.491 . S
C2565 C2564 1.400 . S
C2565 C2566 1.398 . S
C2566 H2554 0.950 . S
C2566 C2565 1.398 . S
C2566 C2567 1.391 . S
C2567 H2555 0.950 . S
C2567 C2563 1.393 . S
C2567 C2566 1.391 . S
H2568 C2576 0.924 1_455 S
H2569 C2581 0.950 . S
H2570 C2578 0.950 . S
H2571 C2580 0.950 . S
H2572 C2582 0.950 . S
H2573 C2584 0.950 . S
H2574 C2586 0.950 . S
H2575 C2587 0.950 . S
C2576 H2568 0.924 1_655 S
C2576 C2577 1.389 . S
C2576 C2578 1.415 . S
C2577 C2576 1.389 . S
C2577 C2581 1.393 . S
C2578 H2570 0.950 . S
C2578 C2576 1.415 . S
C2578 C2579 1.400 . S
C2579 C2578 1.400 . S
C2579 C2580 1.398 . S
C2579 C2585 1.491 . S
C2580 H2571 0.950 . S
C2580 C2579 1.398 . S
C2580 C2581 1.391 . S
C2581 H2569 0.950 . S
C2581 C2577 1.393 . S
C2581 C2580 1.391 . S
C2582 H2572 0.950 . S
C2582 C2583 1.386 . S
C2582 C2584 1.391 . S
C2583 C2582 1.386 . S
C2583 C2587 1.393 . S
C2584 H2573 0.950 . S
C2584 C2582 1.391 . S
C2584 C2585 1.400 . S
C2585 C2579 1.491 . S
C2585 C2584 1.400 . S
C2585 C2586 1.398 . S
C2586 H2574 0.950 . S
C2586 C2585 1.398 . S
C2586 C2587 1.391 . S
C2587 H2575 0.950 . S
C2587 C2583 1.393 . S
C2587 C2586 1.391 . S
H2588 C2596 0.950 . S
H2589 C2601 0.950 . S
H2590 C2598 0.950 . S
H2591 C2600 0.950 . S
H2592 C2602 0.950 . S
H2593 C2604 0.950 . S
H2594 C2606 0.950 . S
H2595 C2607 0.950 . S
C2596 H2588 0.950 . S
C2596 C2597 1.386 . S
C2596 C2598 1.391 . S
C2597 C2596 1.386 . S
C2597 C2601 1.393 . S
C2598 H2590 0.950 . S
C2598 C2596 1.391 . S
C2598 C2599 1.400 . S
C2599 C2598 1.400 . S
C2599 C2600 1.398 . S
C2599 C2605 1.491 . S
C2600 H2591 0.950 . S
C2600 C2599 1.398 . S
C2600 C2601 1.391 . S
C2601 H2589 0.950 . S
C2601 C2597 1.393 . S
C2601 C2600 1.391 . S
C2602 H2592 0.950 . S
C2602 C2603 1.386 . S
C2602 C2604 1.391 . S
C2603 C2602 1.386 . S
C2603 C2607 1.393 . S
C2604 H2593 0.950 . S
C2604 C2602 1.391 . S
C2604 C2605 1.400 . S
C2605 C2599 1.491 . S
C2605 C2604 1.400 . S
C2605 C2606 1.398 . S
C2606 H2594 0.950 . S
C2606 C2605 1.398 . S
C2606 C2607 1.391 . S
C2607 H2595 0.950 . S
C2607 C2603 1.393 . S
C2607 C2606 1.391 . S
H2608 C2616 0.950 . S
H2609 C2621 0.950 . S
H2610 C2618 0.950 . S
H2611 C2620 0.950 . S
H2612 C2622 0.950 . S
H2613 C2624 0.950 . S
H2614 C2626 0.950 . S
H2615 C2627 0.950 . S
C2616 H2608 0.950 . S
C2616 C2617 1.386 . S
C2616 C2618 1.391 . S
C2617 C2616 1.386 . S
C2617 C2621 1.393 . S
C2618 H2610 0.950 . S
C2618 C2616 1.391 . S
C2618 C2619 1.400 . S
C2619 C2618 1.400 . S
C2619 C2620 1.398 . S
C2619 C2625 1.491 . S
C2620 H2611 0.950 . S
C2620 C2619 1.398 . S
C2620 C2621 1.391 . S
C2621 H2609 0.950 . S
C2621 C2617 1.393 . S
C2621 C2620 1.391 . S
C2622 H2612 0.950 . S
C2622 C2623 1.386 . S
C2622 C2624 1.391 . S
C2623 C2622 1.386 . S
C2623 C2627 1.393 . S
C2624 H2613 0.950 . S
C2624 C2622 1.391 . S
C2624 C2625 1.400 . S
C2625 C2619 1.491 . S
C2625 C2624 1.400 . S
C2625 C2626 1.398 . S
C2626 H2614 0.950 . S
C2626 C2625 1.398 . S
C2626 C2627 1.391 . S
C2627 H2615 0.950 . S
C2627 C2623 1.393 . S
C2627 C2626 1.391 . S
H2628 C2636 0.950 . S
H2629 C2641 0.950 . S
H2630 C2638 0.950 . S
H2631 C2640 0.950 . S
H2632 C2642 0.950 . S
H2633 C2644 0.950 . S
H2634 C2646 0.950 . S
H2635 C2647 0.950 . S
C2636 H2628 0.950 . S
C2636 C2637 1.386 . S
C2636 C2638 1.391 . S
C2637 C2636 1.386 . S
C2637 C2641 1.393 . S
C2638 H2630 0.950 . S
C2638 C2636 1.391 . S
C2638 C2639 1.400 . S
C2639 C2638 1.400 . S
C2639 C2640 1.398 . S
C2639 C2645 1.491 . S
C2640 H2631 0.950 . S
C2640 C2639 1.398 . S
C2640 C2641 1.391 . S
C2641 H2629 0.950 . S
C2641 C2637 1.393 . S
C2641 C2640 1.391 . S
C2642 H2632 0.950 . S
C2642 C2643 1.386 . S
C2642 C2644 1.391 . S
C2643 C2642 1.386 . S
C2643 C2647 1.393 . S
C2644 H2633 0.950 . S
C2644 C2642 1.391 . S
C2644 C2645 1.400 . S
C2645 C2639 1.491 . S
C2645 C2644 1.400 . S
C2645 C2646 1.398 . S
C2646 H2634 0.950 . S
C2646 C2645 1.398 . S
C2646 C2647 1.391 . S
C2647 H2635 0.950 . S
C2647 C2643 1.393 . S
C2647 C2646 1.391 . S
H2648 C2656 0.934 1_545 S
H2649 C2661 0.950 . S
H2650 C2658 0.950 . S
H2651 C2660 0.950 . S
H2652 C2662 0.950 . S
H2653 C2664 0.950 . S
H2654 C2666 0.950 . S
H2655 C2667 0.950 . S
C2656 H2648 0.934 1_565 S
C2656 C2657 1.388 . S
C2656 C2658 1.405 . S
C2657 C2656 1.388 . S
C2657 C2661 1.393 . S
C2658 H2650 0.950 . S
C2658 C2656 1.405 . S
C2658 C2659 1.400 . S
C2659 C2658 1.400 . S
C2659 C2660 1.398 . S
C2659 C2665 1.491 . S
C2660 H2651 0.950 . S
C2660 C2659 1.398 . S
C2660 C2661 1.391 . S
C2661 H2649 0.950 . S
C2661 C2657 1.393 . S
C2661 C2660 1.391 . S
C2662 H2652 0.950 . S
C2662 C2663 1.386 . S
C2662 C2664 1.391 . S
C2663 C2662 1.386 . S
C2663 C2667 1.393 . S
C2664 H2653 0.950 . S
C2664 C2662 1.391 . S
C2664 C2665 1.400 . S
C2665 C2659 1.491 . S
C2665 C2664 1.400 . S
C2665 C2666 1.398 . S
C2666 H2654 0.950 . S
C2666 C2665 1.398 . S
C2666 C2667 1.391 . S
C2667 H2655 0.950 . S
C2667 C2663 1.393 . S
C2667 C2666 1.391 . S
H2668 C2676 0.950 . S
H2669 C2681 0.950 . S
H2670 C2678 0.950 . S
H2671 C2680 0.950 . S
H2672 C2682 0.950 . S
H2673 C2684 0.950 . S
H2674 C2686 0.950 . S
H2675 C2687 0.950 . S
C2676 H2668 0.950 . S
C2676 C2677 1.386 . S
C2676 C2678 1.391 . S
C2677 C2676 1.386 . S
C2677 C2681 1.393 . S
C2678 H2670 0.950 . S
C2678 C2676 1.391 . S
C2678 C2679 1.400 . S
C2679 C2678 1.400 . S
C2679 C2680 1.398 . S
C2679 C2685 1.491 . S
C2680 H2671 0.950 . S
C2680 C2679 1.398 . S
C2680 C2681 1.391 . S
C2681 H2669 0.950 . S
C2681 C2677 1.393 . S
C2681 C2680 1.391 . S
C2682 H2672 0.950 . S
C2682 C2683 1.386 . S
C2682 C2684 1.391 . S
C2683 C2682 1.386 . S
C2683 C2687 1.393 . S
C2684 H2673 0.950 . S
C2684 C2682 1.391 . S
C2684 C2685 1.400 . S
C2685 C2679 1.491 . S
C2685 C2684 1.400 . S
C2685 C2686 1.398 . S
C2686 H2674 0.950 . S
C2686 C2685 1.398 . S
C2686 C2687 1.391 . S
C2687 H2675 0.950 . S
C2687 C2683 1.393 . S
C2687 C2686 1.391 . S
C777 C598 0.994 . S
C783 C21 0.986 . S
C797 C53 0.997 . S
C803 C630 1.019 . S
C817 C534 1.020 . S
C823 C85 0.998 . S
C837 C117 1.011 . S
C843 C566 1.027 . S
C857 C726 1.006 . S
C863 C149 0.983 . S
C877 C694 1.009 . S
C883 C181 1.009 . S
C897 C758 1.001 . S
C903 C213 0.999 . S
C917 C662 1.017 . S
C923 C245 0.994 . S
C937 C277 0.992 . S
C943 C438 0.997 . S
C957 C502 1.027 . S
C963 C309 1.019 . S
C977 C341 1.019 . S
C983 C470 1.025 . S
C997 C406 0.994 . S
C1003 C373 0.986 . S
C1017 C210 1.013 . S
C1023 C401 1.012 . S
C1037 C242 1.003 . S
C1043 C433 1.002 . S
C1057 C146 1.028 . S
C1063 C465 1.014 . S
C1077 C497 0.990 . S
C1083 C178 0.996 . S
C1097 C338 1.014 . S
C1103 C529 1.013 . S
C1117 C561 1.002 . S
C1123 C306 1.004 . S
C1137 C370 0.998 . S
C1143 C593 0.977 . S
C1157 C274 0.993 . S
C1163 C625 0.984 . S
C1177 C657 1.016 . S
C1183 C50 1.018 . S
C1197 C114 0.994 . S
C1203 C689 0.978 . S
C1217 C721 1.008 . S
C1223 C82 1.026 . S
C1237 C753 0.981 . S
C1243 C18 0.993 . S
C1257 C278 2.097 . S
C1263 C16 2.185 . S
C1277 C48 2.173 . S
C1283 C374 2.077 . S
C1297 C80 2.173 . S
C1303 C310 2.079 . S
C1317 C112 2.177 . S
C1323 C342 2.082 . S
C1337 C144 2.175 . S
C1343 C22 2.079 . S
C1357 C176 2.173 . S
C1363 C54 2.077 . S
C1377 C86 2.091 . S
C1383 C208 2.178 . S
C1397 C240 2.185 . S
C1403 C118 2.097 . S
C1417 C150 2.095 . S
C1423 C272 2.184 . S
C1437 C304 2.179 . S
C1443 C214 2.084 . S
C1457 C246 2.096 . S
C1463 C336 2.184 . S
C1477 C182 2.077 . S
C1483 C368 2.174 . S
C1497 C658 2.094 . S
C1503 C404 2.184 . S
C1517 C436 2.184 . S
C1523 C754 2.100 . S
C1537 C690 2.081 . S
C1543 C468 2.174 . S
C1557 C500 2.185 . S
C1563 C722 2.100 . S
C1577 C402 2.077 . S
C1583 C532 2.173 . S
C1597 C434 2.080 . S
C1603 C564 2.176 . S
C1617 C596 2.174 . S
C1623 C466 2.081 . S
C1637 C498 2.077 . S
C1643 C628 2.173 . S
C1657 C530 2.077 . S
C1663 C660 2.174 . S
C1677 C692 2.180 . S
C1683 C594 2.086 . S
C1697 C724 2.173 . S
C1703 C626 2.079 . S
C1717 C756 2.182 . S
C1723 C562 2.090 . S
C1737 C23 1.040 . S
C1743 C372 1.004 . S
C1757 C276 1.003 . S
C1763 C55 1.042 1_554 S
C1777 C87 1.024 . S
C1783 C340 1.036 . S
C1797 C119 1.039 1_556 S
C1803 C308 1.005 . S
C1817 C84 1.041 . S
C1823 C151 1.016 . S
C1837 C116 1.026 . S
C1843 C183 1.034 1_655 S
C1857 C20 1.009 . S
C1863 C215 1.034 1_455 S
C1877 C247 1.042 . S
C1883 C52 1.003 . S
C1897 C244 1.040 . S
C1903 C279 1.013 . S
C1917 C311 1.036 1_565 S
C1923 C180 1.024 . S
C1937 C148 1.032 . S
C1943 C343 0.992 1_545 S
C1957 C375 1.046 . S
C1963 C212 1.008 . S
C1977 C752 1.025 . S
C1983 C403 1.020 . S
C1997 C656 1.020 . S
C2003 C435 1.039 1_556 S
C2017 C720 1.037 . S
C2023 C467 1.013 . S
C2037 C688 1.026 . S
C2043 C499 0.999 1_554 S
C2057 C531 1.016 . S
C2063 C464 1.041 . S
C2077 C563 1.041 1_455 S
C2083 C496 1.018 . S
C2097 C595 1.045 1_655 S
C2103 C400 1.012 . S
C2117 C627 1.017 . S
C2123 C432 1.028 . S
C2137 C624 1.014 . S
C2143 C659 1.029 . S
C2157 C560 1.040 . S
C2163 C691 1.018 1_545 S
C2177 C528 1.005 . S
C2183 C723 1.040 1_565 S
C2197 C592 1.006 . S
C2203 C755 1.038 . S
C2217 C727 2.387 . S
C2223 C17 2.385 . S
C2237 C695 2.385 . S
C2243 C49 2.383 1_554 S
C2257 C81 2.386 . S
C2263 C759 2.386 . S
C2277 C663 2.386 . S
C2283 C113 2.386 1_556 S
C2297 C145 2.384 . S
C2303 C439 2.384 . S
C2317 C407 2.386 . S
C2323 C177 2.385 1_655 S
C2337 C209 2.383 1_455 S
C2343 C503 2.384 . S
C2357 C241 2.384 . S
C2363 C471 2.384 . S
C2377 C599 2.386 . S
C2383 C273 2.386 . S
C2397 C535 2.385 . S
C2403 C305 2.385 1_565 S
C2417 C337 2.385 1_545 S
C2423 C567 2.384 . S
C2437 C369 2.385 . S
C2443 C631 2.386 . S
C2457 C405 2.385 . S
C2463 C339 2.387 . S
C2477 C437 2.385 1_556 S
C2483 C307 2.387 . S
C2497 C371 2.387 . S
C2503 C469 2.386 . S
C2517 C275 2.387 . S
C2523 C501 2.385 1_554 S
C2537 C533 2.383 . S
C2543 C51 2.384 . S
C2557 C565 2.386 1_455 S
C2563 C19 2.387 . S
C2577 C597 2.386 1_655 S
C2583 C115 2.387 . S
C2597 C629 2.386 . S
C2603 C83 2.387 . S
C2617 C661 2.386 . S
C2623 C211 2.387 . S
C2637 C693 2.385 1_545 S
C2643 C147 2.386 . S
C2657 C725 2.386 1_565 S
C2663 C179 2.387 . S
C2677 C243 2.386 . S
C2683 C757 2.384 . S
