# Generated by pormake.
# Topology umz, (4)-cn, num edge types: 1
# Building blocks:
#     Node 0, Type 0, BuildingBlock: QUQFOY_clean_sbu_3, # of connection points: 4
#     Node 1, Type 0, BuildingBlock: QUQFOY_clean_sbu_3, # of connection points: 4
#     Node 2, Type 0, BuildingBlock: QUQFOY_clean_sbu_3, # of connection points: 4
#     Node 3, Type 0, BuildingBlock: QUQFOY_clean_sbu_3, # of connection points: 4
#     Node 4, Type 0, BuildingBlock: QUQFOY_clean_sbu_3, # of connection points: 4
#     Node 5, Type 0, BuildingBlock: QUQFOY_clean_sbu_3, # of connection points: 4
#     Node 6, Type 0, BuildingBlock: QUQFOY_clean_sbu_3, # of connection points: 4
#     Node 7, Type 0, BuildingBlock: QUQFOY_clean_sbu_3, # of connection points: 4
#     Node 8, Type 0, BuildingBlock: QUQFOY_clean_sbu_3, # of connection points: 4
#     Node 9, Type 0, BuildingBlock: QUQFOY_clean_sbu_3, # of connection points: 4
#     Node 10, Type 0, BuildingBlock: QUQFOY_clean_sbu_3, # of connection points: 4
#     Node 11, Type 0, BuildingBlock: QUQFOY_clean_sbu_3, # of connection points: 4
#     Node 12, Type 0, BuildingBlock: QUQFOY_clean_sbu_3, # of connection points: 4
#     Node 13, Type 0, BuildingBlock: QUQFOY_clean_sbu_3, # of connection points: 4
#     Node 14, Type 0, BuildingBlock: QUQFOY_clean_sbu_3, # of connection points: 4
#     Node 15, Type 0, BuildingBlock: QUQFOY_clean_sbu_3, # of connection points: 4
#     Edge 16, Type (0, 0), BuildingBlock: AJUNOK_clean_linker_0, # of connection points: 2
#     Edge 17, Type (0, 0), BuildingBlock: AJUNOK_clean_linker_0, # of connection points: 2
#     Edge 18, Type (0, 0), BuildingBlock: AJUNOK_clean_linker_0, # of connection points: 2
#     Edge 19, Type (0, 0), BuildingBlock: AJUNOK_clean_linker_0, # of connection points: 2
#     Edge 20, Type (0, 0), BuildingBlock: AJUNOK_clean_linker_0, # of connection points: 2
#     Edge 21, Type (0, 0), BuildingBlock: AJUNOK_clean_linker_0, # of connection points: 2
#     Edge 22, Type (0, 0), BuildingBlock: AJUNOK_clean_linker_0, # of connection points: 2
#     Edge 23, Type (0, 0), BuildingBlock: AJUNOK_clean_linker_0, # of connection points: 2
#     Edge 24, Type (0, 0), BuildingBlock: AJUNOK_clean_linker_0, # of connection points: 2
#     Edge 25, Type (0, 0), BuildingBlock: AJUNOK_clean_linker_0, # of connection points: 2
#     Edge 26, Type (0, 0), BuildingBlock: AJUNOK_clean_linker_0, # of connection points: 2
#     Edge 27, Type (0, 0), BuildingBlock: AJUNOK_clean_linker_0, # of connection points: 2
#     Edge 28, Type (0, 0), BuildingBlock: AJUNOK_clean_linker_0, # of connection points: 2
#     Edge 29, Type (0, 0), BuildingBlock: AJUNOK_clean_linker_0, # of connection points: 2
#     Edge 30, Type (0, 0), BuildingBlock: AJUNOK_clean_linker_0, # of connection points: 2
#     Edge 31, Type (0, 0), BuildingBlock: AJUNOK_clean_linker_0, # of connection points: 2
#     Edge 32, Type (0, 0), BuildingBlock: AJUNOK_clean_linker_0, # of connection points: 2
#     Edge 33, Type (0, 0), BuildingBlock: AJUNOK_clean_linker_0, # of connection points: 2
#     Edge 34, Type (0, 0), BuildingBlock: AJUNOK_clean_linker_0, # of connection points: 2
#     Edge 35, Type (0, 0), BuildingBlock: AJUNOK_clean_linker_0, # of connection points: 2
#     Edge 36, Type (0, 0), BuildingBlock: AJUNOK_clean_linker_0, # of connection points: 2
#     Edge 37, Type (0, 0), BuildingBlock: AJUNOK_clean_linker_0, # of connection points: 2
#     Edge 38, Type (0, 0), BuildingBlock: AJUNOK_clean_linker_0, # of connection points: 2
#     Edge 39, Type (0, 0), BuildingBlock: AJUNOK_clean_linker_0, # of connection points: 2
#     Edge 40, Type (0, 0), BuildingBlock: AJUNOK_clean_linker_0, # of connection points: 2
#     Edge 41, Type (0, 0), BuildingBlock: AJUNOK_clean_linker_0, # of connection points: 2
#     Edge 42, Type (0, 0), BuildingBlock: AJUNOK_clean_linker_0, # of connection points: 2
#     Edge 43, Type (0, 0), BuildingBlock: AJUNOK_clean_linker_0, # of connection points: 2
#     Edge 44, Type (0, 0), BuildingBlock: AJUNOK_clean_linker_0, # of connection points: 2
#     Edge 45, Type (0, 0), BuildingBlock: AJUNOK_clean_linker_0, # of connection points: 2
#     Edge 46, Type (0, 0), BuildingBlock: AJUNOK_clean_linker_0, # of connection points: 2
#     Edge 47, Type (0, 0), BuildingBlock: AJUNOK_clean_linker_0, # of connection points: 2
# Relax obj value: 0.248
# Max RMSD: 0.163
# Mean RMSD: 0.163
data_MOF--net-umz--node1-QUQFOY_clean_sbu_3--edge1-AJUNOK_clean_linker_0
_symmetry_space_group_name_H-M    P1
_symmetry_Int_Tables_number       1
_symmetry_cell_setting            triclinic
loop_
_symmetry_equiv_pos_as_xyz
'x, y, z'
_cell_length_a     45.495142
_cell_length_b     45.452335
_cell_length_c     16.892013
_cell_angle_alpha  90.128961
_cell_angle_beta   89.796453
_cell_angle_gamma 89.995523
loop_
_atom_site_label
_atom_site_type_symbol
_atom_site_fract_x
_atom_site_fract_y
_atom_site_fract_z
_atom_type_partial_charge
C0 C 0.93449 0.57666 0.07557 0.0
O1 O 0.93163 0.55716 0.02212 0.0
Cd2 Cd 0.96962 0.54962 0.92325 0.0
O3 O 0.95448 0.59608 0.06939 0.0
Cd4 Cd -0.00749 0.61378 0.97792 0.0
C5 C 0.02678 0.55487 0.05626 0.0
O6 O 0.98052 0.59324 0.84958 0.0
O7 O 0.02523 0.60808 0.86778 0.0
O8 O 0.96778 0.66047 0.97229 0.0
C9 C 0.00639 0.59666 0.82189 0.0
O10 O 0.01079 0.53899 0.01142 0.0
C11 C 0.98982 0.6755 -0.00551 0.0
O12 O 0.02434 0.58283 0.05699 0.0
O13 O 0.01338 0.66157 0.0099 0.0
C14 C 0.90047 0.93509 0.59421 0.0
O15 O 0.92263 0.93237 0.54873 0.0
Cd16 Cd 0.9357 0.97001 0.45308 0.0
O17 O 0.88152 0.95503 0.58126 0.0
Cd18 Cd 0.87045 -0.0072 0.48211 0.0
C19 C 0.92488 0.02773 0.58084 0.0
O20 O 0.89744 0.98125 0.36097 0.0
O21 O 0.88336 0.02633 0.37948 0.0
O22 O 0.82326 0.97075 0.45372 0.0
C23 C 0.89592 0.00756 0.33522 0.0
O24 O 0.943 0.01229 0.54069 0.0
C25 C 0.80834 -0.00665 0.47261 0.0
O26 O 0.89723 0.02424 0.57298 0.0
O27 O 0.82251 0.01571 0.4971 0.0
C28 C 0.53211 0.903 0.09836 0.0
O29 O 0.53271 0.92256 0.04474 0.0
Cd30 Cd 0.49399 0.92617 0.94765 0.0
O31 O 0.51419 0.88162 0.0934 0.0
Cd32 Cd 0.47727 0.86109 0.00275 0.0
C33 C 0.43737 0.91655 0.08133 0.0
O34 O 0.48805 0.88179 0.8729 0.0
O35 O 0.44415 0.86524 0.89365 0.0
O36 O 0.50375 0.81508 -0.00524 0.0
C37 C 0.46249 0.87649 0.84587 0.0
O38 O 0.45171 0.93363 0.03554 0.0
C39 C 0.48221 0.79925 0.01675 0.0
O40 O 0.44284 0.88905 0.0832 0.0
O41 O 0.45839 0.81245 0.03421 0.0
C42 C 0.58289 0.54679 0.5851 0.0
O43 O 0.56513 0.55257 0.52942 0.0
Cd44 Cd 0.55586 0.51516 0.43002 0.0
O45 O 0.60015 0.52496 0.57871 0.0
Cd46 Cd 0.61531 0.48723 0.48396 0.0
C47 C 0.55389 0.45799 0.56177 0.0
O48 O 0.59714 0.49882 0.35184 0.0
O49 O 0.60558 0.45317 0.38144 0.0
O50 O 0.6641 0.50728 0.475 0.0
C51 C 0.59786 0.47191 0.33005 0.0
O52 O 0.53973 0.47528 0.51649 0.0
C53 C 0.67695 0.48396 0.49771 0.0
O54 O 0.58191 0.45805 0.56334 0.0
O55 O 0.6608 0.46216 0.51625 0.0
C56 C 0.92649 0.89684 0.90763 0.0
O57 O 0.92101 0.91505 0.96288 0.0
Cd58 Cd 0.96025 0.92462 0.05682 0.0
O59 O 0.94829 0.87964 0.91412 0.0
Cd60 Cd 0.98582 0.86507 0.00903 0.0
C61 C 0.01612 0.92362 0.92097 0.0
O62 O 0.97815 0.88602 0.14192 0.0
O63 O 0.02249 0.87621 0.10208 0.0
O64 O 0.96417 0.81729 0.02823 0.0
C65 C 0.00566 0.88514 0.15704 0.0
O66 O -0.00035 0.93875 0.96663 0.0
C67 C 0.98626 0.80303 0.00245 0.0
O68 O 0.01526 0.89557 0.92167 0.0
O69 O 0.0083 0.81791 0.97885 0.0
C70 C 0.57613 0.94659 0.39438 0.0
O71 O 0.55707 0.94695 0.44954 0.0
Cd72 Cd 0.55442 0.98633 0.54536 0.0
O73 O 0.59767 0.96444 0.39571 0.0
Cd74 Cd 0.61937 0.00236 0.48225 0.0
C75 C 0.56286 0.04204 0.40904 0.0
O76 O 0.59996 -0.00779 0.61379 0.0
O77 O 0.61702 0.03581 0.59213 0.0
O78 O 0.66558 0.97607 0.4843 0.0
C79 C 0.60574 0.01776 0.64053 0.0
O80 O 0.54612 0.02798 0.45638 0.0
C81 C 0.68096 -0.00224 0.46112 0.0
O82 O 0.5903 0.03647 0.40492 0.0
O83 O 0.66742 0.02153 0.44566 0.0
C84 C 0.54273 0.5751 0.89735 0.0
O85 O 0.54363 0.55282 0.94264 0.0
Cd86 Cd 0.50754 0.54332 0.0455 0.0
O87 O 0.52465 0.59578 0.91131 0.0
Cd88 Cd 0.48733 0.60937 0.00977 0.0
C89 C 0.44833 0.55356 0.92549 0.0
O90 O 0.50132 0.58462 0.13205 0.0
O91 O 0.45686 0.60125 0.12265 0.0
O92 O 0.51005 0.6571 0.02593 0.0
C93 C 0.47623 0.58851 0.164 0.0
O94 O 0.4635 0.53561 0.96623 0.0
C95 C 0.48716 0.67163 0.00804 0.0
O96 O 0.45345 0.58115 0.92828 0.0
O97 O 0.46438 0.65696 0.98942 0.0
C98 C 0.89933 0.53967 0.38511 0.0
O99 O 0.91984 0.54245 0.43536 0.0
Cd100 Cd 0.92877 0.50322 0.52896 0.0
O101 O 0.8801 0.51974 0.39451 0.0
Cd102 Cd 0.8663 0.48198 0.49086 0.0
C103 C 0.92143 0.44707 0.3967 0.0
O104 O 0.88953 0.49152 0.61905 0.0
O105 O 0.87771 0.4467 0.5892 0.0
O106 O 0.81872 0.50396 0.51295 0.0
C107 C 0.88757 0.46465 0.64011 0.0
O108 O 0.93869 0.46187 0.44067 0.0
C109 C 0.80431 0.48127 0.49226 0.0
O110 O 0.89374 0.45097 0.40058 0.0
O111 O 0.81896 0.45903 0.46902 0.0
C112 C 0.05215 0.40278 0.89104 0.0
O113 O 0.05117 0.42395 0.9402 0.0
Cd114 Cd 0.01118 0.42954 0.03437 0.0
O115 O 0.03449 0.38132 0.89817 0.0
Cd116 Cd -0.00481 0.36468 0.98581 0.0
C117 C 0.95627 0.41966 0.9005 0.0
O118 O 0.00022 0.38763 0.11561 0.0
O119 O 0.95715 0.37232 0.07962 0.0
O120 O 0.01426 0.31713 0.02319 0.0
C121 C 0.97316 0.38371 0.13277 0.0
O122 O 0.96963 0.43752 0.94614 0.0
C123 C -0.00364 0.30274 0.98054 0.0
O124 O 0.9625 0.39231 0.90068 0.0
O125 O 0.97814 0.31722 0.93913 0.0
C126 C 0.08086 0.04425 0.39988 0.0
O127 O 0.05861 0.04772 0.44465 0.0
Cd128 Cd 0.04463 0.0109 0.54205 0.0
O129 O 0.0993 0.024 0.41418 0.0
Cd130 Cd 0.1089 0.98691 0.51584 0.0
C131 C 0.05395 0.9518 0.41909 0.0
O132 O 0.08207 -0.00036 0.63715 0.0
O133 O 0.09564 0.95432 0.61944 0.0
O134 O 0.15689 0.008 0.54101 0.0
C135 C 0.08351 0.9734 0.66355 0.0
O136 O 0.036 0.9679 0.45785 0.0
C137 C 0.1709 0.98449 0.52539 0.0
O138 O 0.08162 0.95513 0.42693 0.0
O139 O 0.15595 0.96226 0.50372 0.0
C140 C 0.44761 0.07972 0.88806 0.0
O141 O 0.44639 0.06035 0.94212 0.0
Cd142 Cd 0.48483 0.05628 0.04005 0.0
O143 O 0.46591 0.10076 0.89316 0.0
Cd144 Cd 0.50268 0.12098 0.98484 0.0
C145 C 0.54199 0.06487 0.90768 0.0
O146 O 0.49148 0.10057 0.11488 0.0
O147 O 0.53556 0.11671 0.09433 0.0
O148 O 0.4765 0.16715 -0.00848 0.0
C149 C 0.51707 0.10568 0.14204 0.0
O150 O 0.52719 0.04804 0.95304 0.0
C151 C 0.49821 0.18281 0.96991 0.0
O152 O 0.53702 0.09247 0.90559 0.0
O153 O 0.52203 0.16945 0.95337 0.0
C154 C 0.39884 0.43556 0.40359 0.0
O155 O 0.41658 0.42989 0.45941 0.0
Cd156 Cd 0.42535 0.46752 0.55861 0.0
O157 O 0.38142 0.45727 0.40985 0.0
Cd158 Cd 0.3654 0.49497 0.50363 0.0
C159 C 0.42668 0.52458 0.42595 0.0
O160 O 0.3836 0.48343 0.63548 0.0
O161 O 0.37408 0.52899 0.60713 0.0
O162 O 0.31749 0.47326 0.51139 0.0
C163 C 0.38239 0.51025 0.65788 0.0
O164 O 0.44091 0.50741 0.47141 0.0
C165 C 0.30379 0.49588 0.4874 0.0
O166 O 0.39865 0.52439 0.42434 0.0
O167 O 0.31904 0.51846 0.47 0.0
C168 C 0.05621 0.0815 0.08552 0.0
O169 O 0.0599 0.06196 0.03254 0.0
Cd170 Cd 0.01996 0.05281 0.94031 0.0
O171 O 0.03534 0.09979 0.07862 0.0
Cd172 Cd -0.00362 0.11414 0.98829 0.0
C173 C 0.96484 0.05646 0.07855 0.0
O174 O 0.00197 0.09183 0.8572 0.0
O175 O 0.95814 0.10277 0.89945 0.0
O176 O 0.01486 0.16146 0.94851 0.0
C177 C 0.97433 0.09296 0.84408 0.0
O178 O 0.98069 0.04071 0.03283 0.0
C179 C -0.00383 0.17603 0.98851 0.0
O180 O 0.96645 0.08448 0.07699 0.0
O181 O 0.9777 0.1618 0.03016 0.0
C182 C 0.4033 0.03607 0.59236 0.0
O183 O 0.42249 0.035 0.53756 0.0
Cd184 Cd 0.42488 -0.00445 0.4419 0.0
O185 O 0.38147 0.01856 0.59154 0.0
Cd186 Cd 0.36002 0.97993 0.50671 0.0
C187 C 0.41685 0.94027 0.5789 0.0
O188 O 0.37913 0.98942 0.37442 0.0
O189 O 0.3625 0.94582 0.39815 0.0
O190 O 0.31239 0.00386 0.50293 0.0
C191 C 0.37354 0.96367 0.34881 0.0
O192 O 0.4336 0.95394 0.53075 0.0
C193 C 0.29836 0.98188 0.53014 0.0
O194 O 0.38953 0.94623 0.58364 0.0
O195 O 0.31336 0.95938 0.54895 0.0
C196 C 0.43837 0.40691 0.09081 0.0
O197 O 0.43727 0.42915 0.04542 0.0
Cd198 Cd 0.47314 0.43879 0.94211 0.0
O199 O 0.45647 0.38627 0.07658 0.0
Cd200 Cd 0.49351 0.37272 0.97725 0.0
C201 C 0.53252 0.42853 0.06153 0.0
O202 O 0.47934 0.39757 0.85529 0.0
O203 O 0.52385 0.38102 0.86426 0.0
O204 O 0.47076 0.32505 0.96045 0.0
C205 C 0.50441 0.39375 0.82313 0.0
O206 O 0.51725 0.44649 0.02104 0.0
C207 C 0.49362 0.31045 0.9782 0.0
O208 O 0.52748 0.40093 0.05857 0.0
O209 O 0.5164 0.32505 -0.00286 0.0
C210 C 0.08385 0.44077 0.5809 0.0
O211 O 0.06376 0.43558 0.53066 0.0
Cd212 Cd 0.05168 0.47197 0.43102 0.0
O213 O 0.10141 0.46209 0.57001 0.0
Cd214 Cd 0.11445 0.49974 0.47293 0.0
C215 C 0.0553 0.53144 0.5583 0.0
O216 O 0.09249 0.48479 0.34833 0.0
O217 O 0.10488 0.5306 0.36202 0.0
O218 O 0.16129 0.47637 0.45905 0.0
C219 C 0.09403 0.51052 0.31879 0.0
O220 O 0.04 0.51377 0.51669 0.0
C221 C 0.17636 0.49872 0.47863 0.0
O222 O 0.08333 0.53082 0.55548 0.0
O223 O 0.16235 0.52212 0.49619 0.0
C224 C 0.01429 0.72459 -0.00568 0.0
C225 C 0.98835 0.70788 -0.00072 0.0
C226 C 0.01336 0.75538 -0.00535 0.0
C227 C 0.98651 0.77055 0.00124 0.0
H228 H 0.03545 0.71385 0.98868 0.0
H229 H 0.03389 0.76735 0.99023 0.0
S230 S 0.9124 0.73691 0.01846 0.0
N231 N 0.93508 0.70865 0.01232 0.0
N232 N 0.93335 0.76651 0.01405 0.0
C233 C 0.96043 0.75407 0.00744 0.0
C234 C 0.96135 0.72274 0.00613 0.0
C235 C 0.73012 0.0219 0.46484 0.0
C236 C 0.71335 -0.00396 0.45794 0.0
C237 C 0.76082 0.02077 0.46941 0.0
C238 C 0.77593 -0.00621 0.46603 0.0
H239 H 0.71945 0.04315 0.46904 0.0
H240 H 0.77276 0.04125 0.4759 0.0
S241 S 0.7422 0.91988 0.4428 0.0
N242 N 0.71404 0.94277 0.44462 0.0
N243 N 0.77179 0.94062 0.45195 0.0
C244 C 0.75945 0.96781 0.45669 0.0
C245 C 0.72815 0.96895 0.45301 0.0
C246 C 0.45843 0.74981 0.01662 0.0
C247 C 0.48426 0.7668 0.01776 0.0
C248 C 0.45963 0.71907 0.0127 0.0
C249 C 0.4867 0.70413 0.0109 0.0
H250 H 0.43706 0.76031 0.01728 0.0
H251 H 0.43913 0.70695 0.01156 0.0
S252 S 0.56076 0.73839 0.01504 0.0
N253 N 0.53774 0.76645 0.01807 0.0
N254 N 0.54001 0.70863 0.01172 0.0
C255 C 0.51273 0.72082 0.0132 0.0
C256 C 0.5115 0.75217 0.01634 0.0
C257 C 0.72582 0.50848 0.49944 0.0
C258 C 0.70932 0.48232 0.49988 0.0
C259 C 0.75653 0.50784 0.49775 0.0
C260 C 0.7719 0.48103 0.49517 0.0
H261 H 0.71496 0.52969 0.50033 0.0
H262 H 0.76826 0.52858 0.49724 0.0
S263 S 0.73906 0.40629 0.4967 0.0
N264 N 0.71058 0.4288 0.49914 0.0
N265 N 0.76844 0.4276 0.4949 0.0
C266 C 0.75572 0.45467 0.49612 0.0
C267 C 0.72439 0.45531 0.49889 0.0
C268 C -0.00264 0.25543 0.05356 0.0
C269 C -0.0038 0.27051 0.98109 0.0
C270 C -0.00337 0.22465 0.05578 0.0
C271 C -0.00423 0.2082 0.98545 0.0
H272 H -0.00164 0.26753 0.10885 0.0
H273 H -0.00267 0.21365 0.11259 0.0
S274 S -0.00702 0.23729 0.78095 0.0
N275 N -0.00624 0.26691 0.83778 0.0
N276 N -0.00608 0.20888 0.84175 0.0
C277 C -0.00502 0.22299 0.9127 0.0
C278 C -0.00523 0.25428 0.91055 0.0
C279 C 0.2505 0.00867 0.52525 0.0
C280 C 0.26589 0.98209 0.53524 0.0
C281 C 0.21975 0.0093 0.52381 0.0
C282 C 0.20324 0.9833 0.53102 0.0
H283 H 0.26228 0.02919 0.51758 0.0
H284 H 0.20888 0.03024 0.51499 0.0
S285 S 0.23266 0.90819 0.56341 0.0
N286 N 0.26212 0.92924 0.55664 0.0
N287 N 0.2043 0.93045 0.55268 0.0
C288 C 0.21824 0.95665 0.54281 0.0
C289 C 0.24957 0.95604 0.54538 0.0
C290 C 0.52218 0.23215 0.97173 0.0
C291 C 0.49632 0.21525 0.96841 0.0
C292 C 0.52103 0.2629 0.97553 0.0
C293 C 0.49401 0.27794 0.97505 0.0
H294 H 0.54351 0.22157 0.973 0.0
H295 H 0.54155 0.27494 0.97853 0.0
S296 S 0.41994 0.24389 0.96392 0.0
N297 N 0.44289 0.21577 0.96307 0.0
N298 N 0.44072 0.27359 0.96923 0.0
C299 C 0.46797 0.26132 0.97035 0.0
C300 C 0.46914 0.22998 0.96731 0.0
C301 C 0.25608 0.52297 0.48273 0.0
C302 C 0.27141 0.4961 0.48248 0.0
C303 C 0.2253 0.52364 0.48213 0.0
C304 C 0.2088 0.49749 0.48012 0.0
H305 H 0.26789 0.54364 0.48479 0.0
H306 H 0.2144 0.54483 0.48283 0.0
S307 S 0.23856 0.42138 0.4763 0.0
N308 N 0.26789 0.4427 0.47866 0.0
N309 N 0.21013 0.44393 0.4768 0.0
C310 C 0.22391 0.47047 0.47874 0.0
C311 C 0.2552 0.46979 0.48013 0.0
C312 C 0.04465 0.58901 0.71804 0.0
C313 C 0.01613 0.58314 0.74649 0.0
C314 C 0.05659 0.57319 0.65453 0.0
C315 C 0.04046 0.5509 0.61661 0.0
H316 H 0.05838 0.60526 0.74691 0.0
H317 H 0.07902 0.57786 0.63687 0.0
S318 S 0.96382 0.52874 0.66413 0.0
N319 N 0.97128 0.55496 0.72857 0.0
N320 N -0.00644 0.52516 0.6088 0.0
C321 C 0.01123 0.54598 0.64143 0.0
C322 C -0.0009 0.56213 0.70642 0.0
C323 C 0.92208 0.05766 0.17122 0.0
C324 C 0.94566 0.04203 0.13766 0.0
C325 C 0.90531 0.0456 0.23261 0.0
C326 C 0.91156 0.01751 0.26326 0.0
H327 H 0.91681 0.07963 0.15095 0.0
H328 H 0.88774 0.05881 0.25761 0.0
S329 S 0.97093 0.96753 0.19546 0.0
N330 N 0.97416 -0.00327 0.13833 0.0
N331 N 0.94268 0.97414 0.2544 0.0
C332 C 0.9345 0.00122 0.22863 0.0
C333 C 0.95155 0.01347 0.1657 0.0
C334 C 0.47014 0.90841 0.72709 0.0
C335 C 0.45247 0.88834 0.76903 0.0
C336 C 0.45904 0.9238 0.66191 0.0
C337 C 0.42984 0.91977 0.63679 0.0
H338 H 0.49219 0.91342 0.74703 0.0
H339 H 0.47291 0.94019 0.63411 0.0
S340 S 0.37642 0.86582 0.71704 0.0
N341 N 0.40572 0.86223 0.77354 0.0
N342 N 0.38485 0.89148 0.65184 0.0
C343 C 0.41273 0.89817 0.67433 0.0
C344 C 0.42407 0.88235 0.74022 0.0
C345 C 0.56454 0.42077 0.17872 0.0
C346 C 0.55359 0.44 0.12084 0.0
C347 C 0.58009 0.43133 0.24386 0.0
C348 C 0.58539 0.46161 0.25416 0.0
H349 H 0.55992 0.39741 0.17609 0.0
H350 H 0.58683 0.41557 0.28826 0.0
S351 S 0.56693 0.5206 0.11176 0.0
N352 N 0.55294 0.49046 0.07212 0.0
N353 N 0.58237 0.51024 0.19545 0.0
C354 C 0.57671 0.4809 0.19382 0.0
C355 C 0.56076 0.47012 0.12699 0.0
C356 C 0.01194 0.92589 0.35277 0.0
C357 C 0.04243 0.931 0.35885 0.0
C358 C 0.0002 0.90956 0.28976 0.0
C359 C 0.01845 0.8981 0.22989 0.0
H360 H -0.00315 0.93534 0.39557 0.0
H361 H 0.97657 0.907 0.28627 0.0
S362 S 0.10012 0.90226 0.22296 0.0
N363 N 0.09082 0.92079 0.30322 0.0
N364 N 0.0689 0.89051 0.185 0.0
C365 C 0.04912 0.90148 0.23798 0.0
C366 C 0.06106 0.91788 0.30226 0.0
C367 C 0.55836 0.02235 0.82473 0.0
C368 C 0.56249 0.05167 0.84948 0.0
C369 C 0.57376 0.01087 0.7597 0.0
C370 C 0.59395 0.02824 0.71736 0.0
H371 H 0.5419 0.00863 0.85279 0.0
H372 H 0.56865 0.98874 0.74019 0.0
S373 S 0.61683 0.10445 0.76795 0.0
N374 N 0.59106 0.09647 0.83347 0.0
N375 N 0.62031 0.07485 0.71189 0.0
C376 C 0.60006 0.05677 0.74566 0.0
C377 C 0.58423 0.0685 0.81151 0.0
C378 C 0.4297 0.56907 0.34117 0.0
C379 C 0.44274 0.54307 0.36874 0.0
C380 C 0.44196 0.58465 0.27801 0.0
C381 C 0.4676 0.5747 0.23956 0.0
H382 H 0.40929 0.57693 0.36686 0.0
H383 H 0.43053 0.60402 0.25706 0.0
S384 S 0.5108 0.50828 0.29093 0.0
N385 N 0.48342 0.5086 0.35534 0.0
N386 N 0.50638 0.53788 0.23575 0.0
C387 C 0.48177 0.54955 0.26908 0.0
C388 C 0.46932 0.53371 0.33392 0.0
C389 C 0.93385 0.46158 0.82599 0.0
C390 C 0.93504 0.43118 0.84196 0.0
C391 C 0.91702 0.47256 0.76331 0.0
C392 C 0.90096 0.45356 0.71402 0.0
H393 H 0.94691 0.47698 0.85998 0.0
H394 H 0.91748 0.49596 0.75177 0.0
S395 S 0.89245 0.37277 0.73974 0.0
N396 N 0.9155 0.38277 0.80999 0.0
N397 N 0.88409 0.40329 0.69222 0.0
C398 C 0.90018 0.4234 0.73316 0.0
C399 C 0.91723 0.41224 0.79698 0.0
C400 C 0.9773 0.40938 0.26343 0.0
C401 C 0.95964 0.39629 0.20513 0.0
C402 C 0.96475 0.42467 0.32721 0.0
C403 C 0.93401 0.42732 0.33535 0.0
H404 H 0.00104 0.40858 0.25864 0.0
H405 H 0.97936 0.43527 0.36895 0.0
S406 S 0.87792 0.39402 0.20327 0.0
N407 N 0.90971 0.38478 0.16319 0.0
N408 N 0.8862 0.41329 0.28294 0.0
C409 C 0.91608 0.41282 0.27988 0.0
C410 C 0.92886 0.39733 0.21489 0.0
C411 C 0.05965 0.92409 0.83126 0.0
C412 C 0.03507 0.93873 0.86269 0.0
C413 C 0.07608 0.93642 0.76968 0.0
C414 C 0.06848 0.96379 0.73669 0.0
H415 H 0.0659 0.9026 0.85315 0.0
H416 H 0.0944 0.92389 0.7461 0.0
S417 S 0.00623 0.01119 0.79874 0.0
N418 N 0.00426 0.98245 0.85796 0.0
N419 N 0.03513 0.00555 0.74132 0.0
C420 C 0.04462 0.97924 0.7695 0.0
C421 C 0.0279 0.96671 0.83268 0.0
C422 C 0.52072 0.0579 0.32504 0.0
C423 C 0.54972 0.06246 0.35117 0.0
C424 C 0.50954 0.07328 0.25993 0.0
C425 C 0.52695 0.09386 0.21905 0.0
H426 H 0.50709 0.04111 0.35198 0.0
H427 H 0.48771 0.06785 0.23912 0.0
S428 S 0.60222 0.11792 0.27413 0.0
N429 N 0.59412 0.0918 0.33833 0.0
N430 N 0.5731 0.12106 0.21676 0.0
C431 C 0.55509 0.10038 0.24893 0.0
C432 C 0.5665 0.08457 0.31475 0.0
C433 C 0.40049 0.55081 0.74363 0.0
C434 C 0.39508 0.52055 0.73349 0.0
C435 C 0.4162 0.56135 0.80852 0.0
C436 C 0.42721 0.54211 0.86629 0.0
H437 H 0.3937 0.56657 0.69928 0.0
H438 H 0.42088 0.5847 0.81105 0.0
S439 S 0.4137 0.46154 0.87567 0.0
N440 N 0.39812 0.47192 0.7922 0.0
N441 N 0.42784 0.49165 0.91507 0.0
C442 C 0.41996 0.512 0.86028 0.0
C443 C 0.40386 0.50125 0.7937 0.0
C444 C 0.96644 0.05496 0.64492 0.0
C445 C 0.9363 0.04783 0.64278 0.0
C446 C 0.97845 0.07076 0.70847 0.0
C447 C 0.96085 0.0797 0.77269 0.0
H448 H 0.9811 0.04762 0.59821 0.0
H449 H 0.00187 0.07506 0.70852 0.0
S450 S 0.88021 0.06834 0.79344 0.0
N451 N 0.88882 0.05257 0.70848 0.0
N452 N 0.91129 0.08186 0.82782 0.0
C453 C 0.93042 0.07392 0.76949 0.0
C454 C 0.91818 0.05804 0.70465 0.0
C455 C 0.40455 0.97058 0.22778 0.0
C456 C 0.38536 0.95284 0.27232 0.0
C457 C 0.41995 0.95911 0.16273 0.0
C458 C 0.41684 0.92942 0.14008 0.0
H459 H 0.40886 -0.00691 0.24543 0.0
H460 H 0.4356 0.97324 0.13285 0.0
S461 S 0.36538 0.87524 0.22835 0.0
N462 N 0.36106 0.90521 0.28249 0.0
N463 N 0.39029 0.88365 0.16084 0.0
C464 C 0.3961 0.91209 0.18043 0.0
C465 C 0.38026 0.9238 0.24633 0.0
C466 C 0.53843 0.39762 0.70865 0.0
C467 C 0.51293 0.40765 0.74762 0.0
C468 C 0.55069 0.41328 0.64561 0.0
C469 C 0.53777 0.43943 0.61872 0.0
H470 H 0.54978 0.37812 0.72912 0.0
H471 H 0.571 0.40535 0.61953 0.0
S472 S 0.47009 0.47448 0.69804 0.0
N473 N 0.47441 0.44471 0.75261 0.0
N474 N 0.49735 0.47414 0.63325 0.0
C475 C 0.51131 0.44888 0.65402 0.0
C476 C 0.49887 0.43295 0.71872 0.0
C477 C 0.08678 0.54557 0.20793 0.0
C478 C 0.07976 0.51848 0.24345 0.0
C479 C 0.07042 0.55649 0.1446 0.0
C480 C 0.04649 0.54067 0.11401 0.0
H481 H 0.10442 0.55905 0.23115 0.0
H482 H 0.076 0.57795 0.12113 0.0
S483 S 0.01978 0.46801 0.18374 0.0
N484 N 0.04804 0.47546 0.24137 0.0
N485 N 0.01725 0.4959 0.12175 0.0
C486 C 0.04016 0.51279 0.14613 0.0
C487 C 0.05682 0.5017 0.21101 0.0
C488 C 0.92286 0.57711 0.29699 0.0
C489 C 0.9015 0.5551 0.30774 0.0
C490 C 0.93133 0.58615 0.22104 0.0
C491 C 0.91908 0.57326 0.15269 0.0
H492 H 0.93458 0.58604 0.34731 0.0
H493 H 0.94932 0.60167 0.21625 0.0
S494 S 0.85769 0.51961 0.14838 0.0
N495 N 0.86454 0.52448 0.2434 0.0
N496 N 0.88102 0.54113 0.10087 0.0
C497 C 0.89553 0.5536 0.16263 0.0
C498 C 0.88658 0.54464 0.24009 0.0
C499 C 0.88735 0.93362 0.73774 0.0
C500 C 0.90004 0.9196 0.67141 0.0
C501 C 0.89353 0.92423 0.81493 0.0
C502 C 0.91243 0.90028 0.82871 0.0
H503 H 0.87457 0.95355 0.73062 0.0
H504 H 0.88528 0.93731 0.86388 0.0
S505 S 0.94458 0.85136 0.67425 0.0
N506 N 0.92769 0.87741 0.62388 0.0
N507 N 0.93873 0.85909 0.76854 0.0
C508 C 0.92209 0.88383 0.7625 0.0
C509 C 0.91612 0.8937 0.68395 0.0
C510 C 0.57077 0.92938 0.176 0.0
C511 C 0.54836 0.90809 0.17331 0.0
C512 C 0.58163 0.93978 0.24836 0.0
C513 C 0.57017 0.92966 0.32097 0.0
H514 H 0.57886 0.93931 0.12192 0.0
H515 H 0.59757 0.95748 0.24701 0.0
S516 S 0.51495 0.87041 0.34687 0.0
N517 N 0.518 0.87428 0.25005 0.0
N518 N 0.53811 0.89432 0.38575 0.0
C519 C 0.54964 0.90658 0.3192 0.0
C520 C 0.53883 0.89565 0.24547 0.0
C521 C 0.59057 0.54625 0.73134 0.0
C522 C 0.57894 0.56056 0.66434 0.0
C523 C 0.58052 0.55283 0.80778 0.0
C524 C 0.55879 0.57432 0.8206 0.0
H525 H 0.60584 0.52813 0.72465 0.0
H526 H 0.58853 0.53966 0.85654 0.0
S527 S 0.52641 0.62296 0.66715 0.0
N528 N 0.54827 0.60058 0.6172 0.0
N529 N 0.52973 0.61347 0.76096 0.0
C530 C 0.54959 0.59122 0.75518 0.0
C531 C 0.55958 0.58421 0.67703 0.0
C532 C 0.06467 0.40145 0.67063 0.0
C533 C 0.08327 0.42576 0.65901 0.0
C534 C 0.05735 0.39187 0.74694 0.0
C535 C 0.06795 0.40658 0.81471 0.0
H536 H 0.05407 0.39095 0.62068 0.0
H537 H 0.0412 0.37448 0.75237 0.0
S538 S 0.1228 0.46686 0.8168 0.0
N539 N 0.11657 0.46072 0.72198 0.0
N540 N 0.10207 0.44309 0.86523 0.0
C541 C 0.08912 0.42869 0.80397 0.0
C542 C 0.09698 0.43819 0.72614 0.0
C543 C 0.08848 0.05368 0.17891 0.0
C544 C 0.07061 0.07831 0.16408 0.0
C545 C 0.0942 0.04444 0.25649 0.0
C546 C 0.08201 0.05931 0.32215 0.0
H547 H 0.09615 0.03997 0.13054 0.0
H548 H 0.10609 0.02402 0.26448 0.0
S549 S 0.04057 0.12943 0.3165 0.0
N550 N 0.04617 0.12099 0.22254 0.0
N551 N 0.05622 0.1029 0.36796 0.0
C552 C 0.06712 0.08583 0.30856 0.0
C553 C 0.0617 0.09557 0.2296 0.0
C554 C 0.39732 0.04403 0.7379 0.0
C555 C 0.40949 0.05328 0.66523 0.0
C556 C 0.40832 0.05438 0.81019 0.0
C557 C 0.43156 0.07476 0.81275 0.0
H558 H 0.38067 0.02701 0.73946 0.0
H559 H 0.39959 0.04511 0.86443 0.0
S560 S 0.46733 0.10996 0.63882 0.0
N561 N 0.44331 0.08687 0.60014 0.0
N562 N 0.46368 0.10678 0.73568 0.0
C563 C 0.4419 0.08637 0.74042 0.0
C564 C 0.43096 0.0755 0.66677 0.0
C565 C 0.40069 0.42904 0.1809 0.0
C566 C 0.42257 0.40774 0.16794 0.0
C567 C 0.39083 0.43572 0.25746 0.0
C568 C 0.40281 0.42171 0.32444 0.0
H569 H 0.39238 0.44201 0.13209 0.0
H570 H 0.37537 0.4537 0.26416 0.0
S571 S 0.45598 0.35984 0.3215 0.0
N572 N 0.45225 0.36906 0.2276 0.0
N573 N 0.43406 0.38212 0.37157 0.0
C574 C 0.42238 0.39822 0.31172 0.0
C575 C 0.43217 0.39111 0.23346 0.0
loop_
_geom_bond_atom_site_label_1
_geom_bond_atom_site_label_2
_geom_bond_distance
_geom_bond_site_symmetry_2
_ccdc_geom_bond_type
C0 O1 1.306 . S
C0 O3 1.160 . S
O1 C0 1.306 . S
O1 Cd2 2.228 1_655 S
Cd2 O1 2.228 1_455 S
Cd2 O6 2.273 . S
Cd2 O10 2.277 . S
O3 C0 1.160 . S
O3 Cd4 2.203 1_655 S
Cd4 O3 2.203 1_455 S
Cd4 O6 2.411 . S
Cd4 O7 2.333 . S
Cd4 O8 2.352 1_455 S
Cd4 O12 2.277 . S
Cd4 O13 2.356 . S
C5 O10 1.209 . S
C5 O12 1.226 . S
O6 Cd2 2.273 . S
O6 Cd4 2.411 . S
O6 C9 1.320 1_554 S
O7 Cd4 2.333 . S
O7 C9 1.214 1_554 S
O8 Cd4 2.352 1_655 S
O8 C11 1.258 1_655 S
C9 O6 1.320 1_556 S
C9 O7 1.214 1_556 S
O10 Cd2 2.277 . S
O10 C5 1.209 . S
C11 O8 1.258 1_455 S
C11 O13 1.282 . S
O12 Cd4 2.277 . S
O12 C5 1.226 . S
O13 Cd4 2.356 . S
O13 C11 1.282 . S
C14 O15 1.306 . S
C14 O17 1.160 . S
O15 C14 1.306 . S
O15 Cd16 2.228 1_565 S
Cd16 O15 2.228 1_545 S
Cd16 O20 2.273 . S
Cd16 O24 2.277 . S
O17 C14 1.160 . S
O17 Cd18 2.203 1_565 S
Cd18 O17 2.203 1_545 S
Cd18 O20 2.411 . S
Cd18 O21 2.333 . S
Cd18 O22 2.352 1_545 S
Cd18 O26 2.277 . S
Cd18 O27 2.356 . S
C19 O24 1.209 . S
C19 O26 1.226 . S
O20 Cd16 2.273 . S
O20 Cd18 2.411 . S
O20 C23 1.320 . S
O21 Cd18 2.333 . S
O21 C23 1.214 . S
O22 Cd18 2.352 1_565 S
O22 C25 1.258 1_565 S
C23 O20 1.320 . S
C23 O21 1.214 . S
O24 Cd16 2.277 . S
O24 C19 1.209 . S
C25 O22 1.258 1_545 S
C25 O27 1.282 . S
O26 Cd18 2.277 . S
O26 C19 1.226 . S
O27 Cd18 2.356 . S
O27 C25 1.282 . S
C28 O29 1.306 . S
C28 O31 1.160 . S
O29 C28 1.306 . S
O29 Cd30 2.228 . S
Cd30 O29 2.228 . S
Cd30 O34 2.273 . S
Cd30 O38 2.277 . S
O31 C28 1.160 . S
O31 Cd32 2.203 . S
Cd32 O31 2.203 . S
Cd32 O34 2.411 . S
Cd32 O35 2.333 . S
Cd32 O36 2.352 . S
Cd32 O40 2.277 . S
Cd32 O41 2.356 . S
C33 O38 1.209 . S
C33 O40 1.226 . S
O34 Cd30 2.273 . S
O34 Cd32 2.411 . S
O34 C37 1.320 1_554 S
O35 Cd32 2.333 . S
O35 C37 1.214 1_554 S
O36 Cd32 2.352 . S
O36 C39 1.258 . S
C37 O34 1.320 1_556 S
C37 O35 1.214 1_556 S
O38 Cd30 2.277 . S
O38 C33 1.209 . S
C39 O36 1.258 . S
C39 O41 1.282 . S
O40 Cd32 2.277 . S
O40 C33 1.226 . S
O41 Cd32 2.356 . S
O41 C39 1.282 . S
C42 O43 1.306 . S
C42 O45 1.160 . S
O43 C42 1.306 . S
O43 Cd44 2.228 . S
Cd44 O43 2.228 . S
Cd44 O48 2.273 . S
Cd44 O52 2.277 . S
O45 C42 1.160 . S
O45 Cd46 2.203 . S
Cd46 O45 2.203 . S
Cd46 O48 2.411 . S
Cd46 O49 2.333 . S
Cd46 O50 2.352 . S
Cd46 O54 2.277 . S
Cd46 O55 2.356 . S
C47 O52 1.209 . S
C47 O54 1.226 . S
O48 Cd44 2.273 . S
O48 Cd46 2.411 . S
O48 C51 1.320 . S
O49 Cd46 2.333 . S
O49 C51 1.214 . S
O50 Cd46 2.352 . S
O50 C53 1.258 . S
C51 O48 1.320 . S
C51 O49 1.214 . S
O52 Cd44 2.277 . S
O52 C47 1.209 . S
C53 O50 1.258 . S
C53 O55 1.282 . S
O54 Cd46 2.277 . S
O54 C47 1.226 . S
O55 Cd46 2.356 . S
O55 C53 1.282 . S
C56 O57 1.306 . S
C56 O59 1.160 . S
O57 C56 1.306 . S
O57 Cd58 2.228 1_655 S
Cd58 O57 2.228 1_455 S
Cd58 O62 2.273 . S
Cd58 O66 2.277 . S
O59 C56 1.160 . S
O59 Cd60 2.203 1_655 S
Cd60 O59 2.203 1_455 S
Cd60 O62 2.411 . S
Cd60 O63 2.333 . S
Cd60 O64 2.352 1_455 S
Cd60 O68 2.277 . S
Cd60 O69 2.356 . S
C61 O66 1.209 . S
C61 O68 1.226 . S
O62 Cd58 2.273 . S
O62 Cd60 2.411 . S
O62 C65 1.320 1_556 S
O63 Cd60 2.333 . S
O63 C65 1.214 1_556 S
O64 Cd60 2.352 1_655 S
O64 C67 1.258 1_655 S
C65 O62 1.320 1_554 S
C65 O63 1.214 1_554 S
O66 Cd58 2.277 . S
O66 C61 1.209 . S
C67 O64 1.258 1_455 S
C67 O69 1.282 . S
O68 Cd60 2.277 . S
O68 C61 1.226 . S
O69 Cd60 2.356 . S
O69 C67 1.282 . S
C70 O71 1.306 . S
C70 O73 1.160 . S
O71 C70 1.306 . S
O71 Cd72 2.228 1_565 S
Cd72 O71 2.228 1_545 S
Cd72 O76 2.273 . S
Cd72 O80 2.277 . S
O73 C70 1.160 . S
O73 Cd74 2.203 1_565 S
Cd74 O73 2.203 1_545 S
Cd74 O76 2.411 . S
Cd74 O77 2.333 . S
Cd74 O78 2.352 1_545 S
Cd74 O82 2.277 . S
Cd74 O83 2.356 . S
C75 O80 1.209 . S
C75 O82 1.226 . S
O76 Cd72 2.273 . S
O76 Cd74 2.411 . S
O76 C79 1.320 . S
O77 Cd74 2.333 . S
O77 C79 1.214 . S
O78 Cd74 2.352 1_565 S
O78 C81 1.258 1_565 S
C79 O76 1.320 . S
C79 O77 1.214 . S
O80 Cd72 2.277 . S
O80 C75 1.209 . S
C81 O78 1.258 1_545 S
C81 O83 1.282 . S
O82 Cd74 2.277 . S
O82 C75 1.226 . S
O83 Cd74 2.356 . S
O83 C81 1.282 . S
C84 O85 1.306 . S
C84 O87 1.160 . S
O85 C84 1.306 . S
O85 Cd86 2.228 . S
Cd86 O85 2.228 . S
Cd86 O90 2.273 . S
Cd86 O94 2.277 . S
O87 C84 1.160 . S
O87 Cd88 2.203 . S
Cd88 O87 2.203 . S
Cd88 O90 2.411 . S
Cd88 O91 2.333 . S
Cd88 O92 2.352 . S
Cd88 O96 2.277 . S
Cd88 O97 2.356 . S
C89 O94 1.209 . S
C89 O96 1.226 . S
O90 Cd86 2.273 . S
O90 Cd88 2.411 . S
O90 C93 1.320 1_556 S
O91 Cd88 2.333 . S
O91 C93 1.214 1_556 S
O92 Cd88 2.352 . S
O92 C95 1.258 . S
C93 O90 1.320 1_554 S
C93 O91 1.214 1_554 S
O94 Cd86 2.277 . S
O94 C89 1.209 . S
C95 O92 1.258 . S
C95 O97 1.282 . S
O96 Cd88 2.277 . S
O96 C89 1.226 . S
O97 Cd88 2.356 . S
O97 C95 1.282 . S
C98 O99 1.306 . S
C98 O101 1.160 . S
O99 C98 1.306 . S
O99 Cd100 2.228 . S
Cd100 O99 2.228 . S
Cd100 O104 2.273 . S
Cd100 O108 2.277 . S
O101 C98 1.160 . S
O101 Cd102 2.203 . S
Cd102 O101 2.203 . S
Cd102 O104 2.411 . S
Cd102 O105 2.333 . S
Cd102 O106 2.352 . S
Cd102 O110 2.277 . S
Cd102 O111 2.356 . S
C103 O108 1.209 . S
C103 O110 1.226 . S
O104 Cd100 2.273 . S
O104 Cd102 2.411 . S
O104 C107 1.320 . S
O105 Cd102 2.333 . S
O105 C107 1.214 . S
O106 Cd102 2.352 . S
O106 C109 1.258 . S
C107 O104 1.320 . S
C107 O105 1.214 . S
O108 Cd100 2.277 . S
O108 C103 1.209 . S
C109 O106 1.258 . S
C109 O111 1.282 . S
O110 Cd102 2.277 . S
O110 C103 1.226 . S
O111 Cd102 2.356 . S
O111 C109 1.282 . S
C112 O113 1.306 . S
C112 O115 1.160 . S
O113 C112 1.306 . S
O113 Cd114 2.228 1_455 S
Cd114 O113 2.228 1_655 S
Cd114 O118 2.273 . S
Cd114 O122 2.277 . S
O115 C112 1.160 . S
O115 Cd116 2.203 1_455 S
Cd116 O115 2.203 1_655 S
Cd116 O118 2.411 . S
Cd116 O119 2.333 . S
Cd116 O120 2.352 1_655 S
Cd116 O124 2.277 . S
Cd116 O125 2.356 . S
C117 O122 1.209 . S
C117 O124 1.226 . S
O118 Cd114 2.273 . S
O118 Cd116 2.411 . S
O118 C121 1.320 1_556 S
O119 Cd116 2.333 . S
O119 C121 1.214 1_556 S
O120 Cd116 2.352 1_455 S
O120 C123 1.258 1_455 S
C121 O118 1.320 1_554 S
C121 O119 1.214 1_554 S
O122 Cd114 2.277 . S
O122 C117 1.209 . S
C123 O120 1.258 1_655 S
C123 O125 1.282 . S
O124 Cd116 2.277 . S
O124 C117 1.226 . S
O125 Cd116 2.356 . S
O125 C123 1.282 . S
C126 O127 1.306 . S
C126 O129 1.160 . S
O127 C126 1.306 . S
O127 Cd128 2.228 1_545 S
Cd128 O127 2.228 1_565 S
Cd128 O132 2.273 . S
Cd128 O136 2.277 . S
O129 C126 1.160 . S
O129 Cd130 2.203 1_545 S
Cd130 O129 2.203 1_565 S
Cd130 O132 2.411 . S
Cd130 O133 2.333 . S
Cd130 O134 2.352 1_565 S
Cd130 O138 2.277 . S
Cd130 O139 2.356 . S
C131 O136 1.209 . S
C131 O138 1.226 . S
O132 Cd128 2.273 . S
O132 Cd130 2.411 . S
O132 C135 1.320 . S
O133 Cd130 2.333 . S
O133 C135 1.214 . S
O134 Cd130 2.352 1_545 S
O134 C137 1.258 1_545 S
C135 O132 1.320 . S
C135 O133 1.214 . S
O136 Cd128 2.277 . S
O136 C131 1.209 . S
C137 O134 1.258 1_565 S
C137 O139 1.282 . S
O138 Cd130 2.277 . S
O138 C131 1.226 . S
O139 Cd130 2.356 . S
O139 C137 1.282 . S
C140 O141 1.306 . S
C140 O143 1.160 . S
O141 C140 1.306 . S
O141 Cd142 2.228 . S
Cd142 O141 2.228 . S
Cd142 O146 2.273 . S
Cd142 O150 2.277 . S
O143 C140 1.160 . S
O143 Cd144 2.203 . S
Cd144 O143 2.203 . S
Cd144 O146 2.411 . S
Cd144 O147 2.333 . S
Cd144 O148 2.352 . S
Cd144 O152 2.277 . S
Cd144 O153 2.356 . S
C145 O150 1.209 . S
C145 O152 1.226 . S
O146 Cd142 2.273 . S
O146 Cd144 2.411 . S
O146 C149 1.320 1_556 S
O147 Cd144 2.333 . S
O147 C149 1.214 1_556 S
O148 Cd144 2.352 . S
O148 C151 1.258 . S
C149 O146 1.320 1_554 S
C149 O147 1.214 1_554 S
O150 Cd142 2.277 . S
O150 C145 1.209 . S
C151 O148 1.258 . S
C151 O153 1.282 . S
O152 Cd144 2.277 . S
O152 C145 1.226 . S
O153 Cd144 2.356 . S
O153 C151 1.282 . S
C154 O155 1.306 . S
C154 O157 1.160 . S
O155 C154 1.306 . S
O155 Cd156 2.228 . S
Cd156 O155 2.228 . S
Cd156 O160 2.273 . S
Cd156 O164 2.277 . S
O157 C154 1.160 . S
O157 Cd158 2.203 . S
Cd158 O157 2.203 . S
Cd158 O160 2.411 . S
Cd158 O161 2.333 . S
Cd158 O162 2.352 . S
Cd158 O166 2.277 . S
Cd158 O167 2.356 . S
C159 O164 1.209 . S
C159 O166 1.226 . S
O160 Cd156 2.273 . S
O160 Cd158 2.411 . S
O160 C163 1.320 . S
O161 Cd158 2.333 . S
O161 C163 1.214 . S
O162 Cd158 2.352 . S
O162 C165 1.258 . S
C163 O160 1.320 . S
C163 O161 1.214 . S
O164 Cd156 2.277 . S
O164 C159 1.209 . S
C165 O162 1.258 . S
C165 O167 1.282 . S
O166 Cd158 2.277 . S
O166 C159 1.226 . S
O167 Cd158 2.356 . S
O167 C165 1.282 . S
C168 O169 1.306 . S
C168 O171 1.160 . S
O169 C168 1.306 . S
O169 Cd170 2.228 1_455 S
Cd170 O169 2.228 1_655 S
Cd170 O174 2.273 . S
Cd170 O178 2.277 . S
O171 C168 1.160 . S
O171 Cd172 2.203 1_455 S
Cd172 O171 2.203 1_655 S
Cd172 O174 2.411 . S
Cd172 O175 2.333 . S
Cd172 O176 2.352 1_655 S
Cd172 O180 2.277 . S
Cd172 O181 2.356 . S
C173 O178 1.209 . S
C173 O180 1.226 . S
O174 Cd170 2.273 . S
O174 Cd172 2.411 . S
O174 C177 1.320 1_554 S
O175 Cd172 2.333 . S
O175 C177 1.214 1_554 S
O176 Cd172 2.352 1_455 S
O176 C179 1.258 1_455 S
C177 O174 1.320 1_556 S
C177 O175 1.214 1_556 S
O178 Cd170 2.277 . S
O178 C173 1.209 . S
C179 O176 1.258 1_655 S
C179 O181 1.282 . S
O180 Cd172 2.277 . S
O180 C173 1.226 . S
O181 Cd172 2.356 . S
O181 C179 1.282 . S
C182 O183 1.306 . S
C182 O185 1.160 . S
O183 C182 1.306 . S
O183 Cd184 2.228 1_545 S
Cd184 O183 2.228 1_565 S
Cd184 O188 2.273 . S
Cd184 O192 2.277 . S
O185 C182 1.160 . S
O185 Cd186 2.203 1_545 S
Cd186 O185 2.203 1_565 S
Cd186 O188 2.411 . S
Cd186 O189 2.333 . S
Cd186 O190 2.352 1_565 S
Cd186 O194 2.277 . S
Cd186 O195 2.356 . S
C187 O192 1.209 . S
C187 O194 1.226 . S
O188 Cd184 2.273 . S
O188 Cd186 2.411 . S
O188 C191 1.320 . S
O189 Cd186 2.333 . S
O189 C191 1.214 . S
O190 Cd186 2.352 1_545 S
O190 C193 1.258 1_545 S
C191 O188 1.320 . S
C191 O189 1.214 . S
O192 Cd184 2.277 . S
O192 C187 1.209 . S
C193 O190 1.258 1_565 S
C193 O195 1.282 . S
O194 Cd186 2.277 . S
O194 C187 1.226 . S
O195 Cd186 2.356 . S
O195 C193 1.282 . S
C196 O197 1.306 . S
C196 O199 1.160 . S
O197 C196 1.306 . S
O197 Cd198 2.228 . S
Cd198 O197 2.228 . S
Cd198 O202 2.273 . S
Cd198 O206 2.277 . S
O199 C196 1.160 . S
O199 Cd200 2.203 . S
Cd200 O199 2.203 . S
Cd200 O202 2.411 . S
Cd200 O203 2.333 . S
Cd200 O204 2.352 . S
Cd200 O208 2.277 . S
Cd200 O209 2.356 . S
C201 O206 1.209 . S
C201 O208 1.226 . S
O202 Cd198 2.273 . S
O202 Cd200 2.411 . S
O202 C205 1.320 1_554 S
O203 Cd200 2.333 . S
O203 C205 1.214 1_554 S
O204 Cd200 2.352 . S
O204 C207 1.258 . S
C205 O202 1.320 1_556 S
C205 O203 1.214 1_556 S
O206 Cd198 2.277 . S
O206 C201 1.209 . S
C207 O204 1.258 . S
C207 O209 1.282 . S
O208 Cd200 2.277 . S
O208 C201 1.226 . S
O209 Cd200 2.356 . S
O209 C207 1.282 . S
C210 O211 1.306 . S
C210 O213 1.160 . S
O211 C210 1.306 . S
O211 Cd212 2.228 . S
Cd212 O211 2.228 . S
Cd212 O216 2.273 . S
Cd212 O220 2.277 . S
O213 C210 1.160 . S
O213 Cd214 2.203 . S
Cd214 O213 2.203 . S
Cd214 O216 2.411 . S
Cd214 O217 2.333 . S
Cd214 O218 2.352 . S
Cd214 O222 2.277 . S
Cd214 O223 2.356 . S
C215 O220 1.209 . S
C215 O222 1.226 . S
O216 Cd212 2.273 . S
O216 Cd214 2.411 . S
O216 C219 1.320 . S
O217 Cd214 2.333 . S
O217 C219 1.214 . S
O218 Cd214 2.352 . S
O218 C221 1.258 . S
C219 O216 1.320 . S
C219 O217 1.214 . S
O220 Cd212 2.277 . S
O220 C215 1.209 . S
C221 O218 1.258 . S
C221 O223 1.282 . S
O222 Cd214 2.277 . S
O222 C215 1.226 . S
O223 Cd214 2.356 . S
O223 C221 1.282 . S
C224 C225 1.369 1_456 S
C224 C226 1.419 . S
C224 H228 0.930 . S
C225 C224 1.369 1_654 S
C225 C234 1.429 . S
C226 C224 1.419 . S
C226 C227 1.363 1_455 S
C226 H229 0.929 . S
C227 C226 1.363 1_655 S
C227 C233 1.428 1_556 S
H228 C224 0.930 . S
H229 C226 0.929 . S
S230 N231 1.613 . S
S230 N232 1.610 . S
N231 S230 1.613 . S
N231 C234 1.350 . S
N232 S230 1.610 . S
N232 C233 1.351 . S
C233 C227 1.428 1_554 S
C233 N232 1.351 . S
C233 C234 1.434 . S
C234 C225 1.429 . S
C234 N231 1.350 . S
C234 C233 1.434 . S
C235 C236 1.369 1_545 S
C235 C237 1.419 . S
C235 H239 0.930 . S
C236 C235 1.369 1_565 S
C236 C245 1.429 . S
C237 C235 1.419 . S
C237 C238 1.363 1_545 S
C237 H240 0.929 . S
C238 C237 1.363 1_565 S
C238 C244 1.428 . S
H239 C235 0.930 . S
H240 C237 0.929 . S
S241 N242 1.613 . S
S241 N243 1.610 . S
N242 S241 1.613 . S
N242 C245 1.350 . S
N243 S241 1.610 . S
N243 C244 1.351 . S
C244 C238 1.428 . S
C244 N243 1.351 . S
C244 C245 1.434 . S
C245 C236 1.429 . S
C245 N242 1.350 . S
C245 C244 1.434 . S
C246 C247 1.369 . S
C246 C248 1.419 1_554 S
C246 H250 0.930 . S
C247 C246 1.369 . S
C247 C256 1.429 . S
C248 C246 1.419 1_556 S
C248 C249 1.363 . S
C248 H251 0.929 . S
C249 C248 1.363 . S
C249 C255 1.428 . S
H250 C246 0.930 . S
H251 C248 0.929 . S
S252 N253 1.613 1_556 S
S252 N254 1.610 . S
N253 S252 1.613 1_554 S
N253 C256 1.350 . S
N254 S252 1.610 . S
N254 C255 1.351 . S
C255 C249 1.428 . S
C255 N254 1.351 . S
C255 C256 1.434 1_556 S
C256 C247 1.429 . S
C256 N253 1.350 . S
C256 C255 1.434 1_554 S
C257 C258 1.369 . S
C257 C259 1.419 . S
C257 H261 0.930 . S
C258 C257 1.369 . S
C258 C267 1.429 . S
C259 C257 1.419 . S
C259 C260 1.363 . S
C259 H262 0.929 . S
C260 C259 1.363 . S
C260 C266 1.428 . S
H261 C257 0.930 . S
H262 C259 0.929 . S
S263 N264 1.613 . S
S263 N265 1.610 . S
N264 S263 1.613 . S
N264 C267 1.350 . S
N265 S263 1.610 . S
N265 C266 1.351 . S
C266 C260 1.428 . S
C266 N265 1.351 . S
C266 C267 1.434 . S
C267 C258 1.429 . S
C267 N264 1.350 . S
C267 C266 1.434 . S
C268 C269 1.369 1_654 S
C268 C270 1.419 . S
C268 H272 0.930 . S
C269 C268 1.369 1_456 S
C269 C278 1.429 . S
C270 C268 1.419 . S
C270 C271 1.363 1_655 S
C270 H273 0.929 . S
C271 C270 1.363 1_455 S
C271 C277 1.428 1_554 S
H272 C268 0.930 . S
H273 C270 0.929 . S
S274 N275 1.613 . S
S274 N276 1.610 . S
N275 S274 1.613 . S
N275 C278 1.350 . S
N276 S274 1.610 . S
N276 C277 1.351 . S
C277 C271 1.428 1_556 S
C277 N276 1.351 . S
C277 C278 1.434 . S
C278 C269 1.429 . S
C278 N275 1.350 . S
C278 C277 1.434 . S
C279 C280 1.369 1_565 S
C279 C281 1.419 . S
C279 H283 0.930 . S
C280 C279 1.369 1_545 S
C280 C289 1.429 . S
C281 C279 1.419 . S
C281 C282 1.363 1_565 S
C281 H284 0.929 . S
C282 C281 1.363 1_545 S
C282 C288 1.428 . S
H283 C279 0.930 . S
H284 C281 0.929 . S
S285 N286 1.613 . S
S285 N287 1.610 . S
N286 S285 1.613 . S
N286 C289 1.350 . S
N287 S285 1.610 . S
N287 C288 1.351 . S
C288 C282 1.428 . S
C288 N287 1.351 . S
C288 C289 1.434 . S
C289 C280 1.429 . S
C289 N286 1.350 . S
C289 C288 1.434 . S
C290 C291 1.369 . S
C290 C292 1.419 . S
C290 H294 0.930 . S
C291 C290 1.369 . S
C291 C300 1.429 1_556 S
C292 C290 1.419 . S
C292 C293 1.363 1_556 S
C292 H295 0.929 . S
C293 C292 1.363 1_554 S
C293 C299 1.428 . S
H294 C290 0.930 . S
H295 C292 0.929 . S
S296 N297 1.613 . S
S296 N298 1.610 . S
N297 S296 1.613 . S
N297 C300 1.350 . S
N298 S296 1.610 . S
N298 C299 1.351 . S
C299 C293 1.428 . S
C299 N298 1.351 . S
C299 C300 1.434 . S
C300 C291 1.429 1_554 S
C300 N297 1.350 . S
C300 C299 1.434 . S
C301 C302 1.369 . S
C301 C303 1.419 . S
C301 H305 0.930 . S
C302 C301 1.369 . S
C302 C311 1.429 . S
C303 C301 1.419 . S
C303 C304 1.363 . S
C303 H306 0.929 . S
C304 C303 1.363 . S
C304 C310 1.428 . S
H305 C301 0.930 . S
H306 C303 0.929 . S
S307 N308 1.613 . S
S307 N309 1.610 . S
N308 S307 1.613 . S
N308 C311 1.350 . S
N309 S307 1.610 . S
N309 C310 1.351 . S
C310 C304 1.428 . S
C310 N309 1.351 . S
C310 C311 1.434 . S
C311 C302 1.429 . S
C311 N308 1.350 . S
C311 C310 1.434 . S
C312 C313 1.369 . S
C312 C314 1.419 . S
C312 H316 0.930 . S
C313 C312 1.369 . S
C313 C322 1.429 . S
C314 C312 1.419 . S
C314 C315 1.363 . S
C314 H317 0.929 . S
C315 C314 1.363 . S
C315 C321 1.428 . S
H316 C312 0.930 . S
H317 C314 0.929 . S
S318 N319 1.613 . S
S318 N320 1.610 . S
N319 S318 1.613 . S
N319 C322 1.350 . S
N320 S318 1.610 . S
N320 C321 1.351 . S
C321 C315 1.428 . S
C321 N320 1.351 . S
C321 C322 1.434 . S
C322 C313 1.429 . S
C322 N319 1.350 . S
C322 C321 1.434 . S
C323 C324 1.369 . S
C323 C325 1.419 . S
C323 H327 0.930 . S
C324 C323 1.369 . S
C324 C333 1.429 . S
C325 C323 1.419 . S
C325 C326 1.363 . S
C325 H328 0.929 . S
C326 C325 1.363 . S
C326 C332 1.428 . S
H327 C323 0.930 . S
H328 C325 0.929 . S
S329 N330 1.613 . S
S329 N331 1.610 . S
N330 S329 1.613 . S
N330 C333 1.350 . S
N331 S329 1.610 . S
N331 C332 1.351 . S
C332 C326 1.428 . S
C332 N331 1.351 . S
C332 C333 1.434 . S
C333 C324 1.429 . S
C333 N330 1.350 . S
C333 C332 1.434 . S
C334 C335 1.369 . S
C334 C336 1.419 . S
C334 H338 0.930 . S
C335 C334 1.369 . S
C335 C344 1.429 . S
C336 C334 1.419 . S
C336 C337 1.363 . S
C336 H339 0.929 . S
C337 C336 1.363 . S
C337 C343 1.428 . S
H338 C334 0.930 . S
H339 C336 0.929 . S
S340 N341 1.613 1_556 S
S340 N342 1.610 . S
N341 S340 1.613 1_554 S
N341 C344 1.350 1_554 S
N342 S340 1.610 . S
N342 C343 1.351 . S
C343 C337 1.428 . S
C343 N342 1.351 . S
C343 C344 1.434 . S
C344 C335 1.429 . S
C344 N341 1.350 1_556 S
C344 C343 1.434 . S
C345 C346 1.369 . S
C345 C347 1.419 . S
C345 H349 0.930 . S
C346 C345 1.369 . S
C346 C355 1.429 . S
C347 C345 1.419 . S
C347 C348 1.363 . S
C347 H350 0.929 . S
C348 C347 1.363 . S
C348 C354 1.428 . S
H349 C345 0.930 . S
H350 C347 0.929 . S
S351 N352 1.613 . S
S351 N353 1.610 . S
N352 S351 1.613 . S
N352 C355 1.350 . S
N353 S351 1.610 . S
N353 C354 1.351 . S
C354 C348 1.428 . S
C354 N353 1.351 . S
C354 C355 1.434 . S
C355 C346 1.429 . S
C355 N352 1.350 . S
C355 C354 1.434 . S
C356 C357 1.369 . S
C356 C358 1.419 . S
C356 H360 0.930 . S
C357 C356 1.369 . S
C357 C366 1.429 . S
C358 C356 1.419 . S
C358 C359 1.363 . S
C358 H361 0.929 . S
C359 C358 1.363 . S
C359 C365 1.428 . S
H360 C356 0.930 . S
H361 C358 0.929 . S
S362 N363 1.613 1_556 S
S362 N364 1.610 . S
N363 S362 1.613 1_554 S
N363 C366 1.350 . S
N364 S362 1.610 . S
N364 C365 1.351 1_556 S
C365 C359 1.428 . S
C365 N364 1.351 1_554 S
C365 C366 1.434 . S
C366 C357 1.429 . S
C366 N363 1.350 . S
C366 C365 1.434 . S
C367 C368 1.369 . S
C367 C369 1.419 . S
C367 H371 0.930 . S
C368 C367 1.369 . S
C368 C377 1.429 . S
C369 C367 1.419 . S
C369 C370 1.363 . S
C369 H372 0.929 . S
C370 C369 1.363 . S
C370 C376 1.428 . S
H371 C367 0.930 . S
H372 C369 0.929 . S
S373 N374 1.613 . S
S373 N375 1.610 . S
N374 S373 1.613 . S
N374 C377 1.350 . S
N375 S373 1.610 . S
N375 C376 1.351 . S
C376 C370 1.428 . S
C376 N375 1.351 . S
C376 C377 1.434 . S
C377 C368 1.429 . S
C377 N374 1.350 . S
C377 C376 1.434 . S
C378 C379 1.369 . S
C378 C380 1.419 . S
C378 H382 0.930 . S
C379 C378 1.369 . S
C379 C388 1.429 . S
C380 C378 1.419 . S
C380 C381 1.363 . S
C380 H383 0.929 . S
C381 C380 1.363 . S
C381 C387 1.428 . S
H382 C378 0.930 . S
H383 C380 0.929 . S
S384 N385 1.613 . S
S384 N386 1.610 . S
N385 S384 1.613 . S
N385 C388 1.350 . S
N386 S384 1.610 . S
N386 C387 1.351 . S
C387 C381 1.428 . S
C387 N386 1.351 . S
C387 C388 1.434 . S
C388 C379 1.429 . S
C388 N385 1.350 . S
C388 C387 1.434 . S
C389 C390 1.369 . S
C389 C391 1.419 . S
C389 H393 0.930 . S
C390 C389 1.369 . S
C390 C399 1.429 . S
C391 C389 1.419 . S
C391 C392 1.363 . S
C391 H394 0.929 . S
C392 C391 1.363 . S
C392 C398 1.428 . S
H393 C389 0.930 . S
H394 C391 0.929 . S
S395 N396 1.613 . S
S395 N397 1.610 . S
N396 S395 1.613 . S
N396 C399 1.350 . S
N397 S395 1.610 . S
N397 C398 1.351 . S
C398 C392 1.428 . S
C398 N397 1.351 . S
C398 C399 1.434 . S
C399 C390 1.429 . S
C399 N396 1.350 . S
C399 C398 1.434 . S
C400 C401 1.369 . S
C400 C402 1.419 . S
C400 H404 0.930 . S
C401 C400 1.369 . S
C401 C410 1.429 . S
C402 C400 1.419 . S
C402 C403 1.363 . S
C402 H405 0.929 . S
C403 C402 1.363 . S
C403 C409 1.428 . S
H404 C400 0.930 . S
H405 C402 0.929 . S
S406 N407 1.613 . S
S406 N408 1.610 . S
N407 S406 1.613 . S
N407 C410 1.350 . S
N408 S406 1.610 . S
N408 C409 1.351 . S
C409 C403 1.428 . S
C409 N408 1.351 . S
C409 C410 1.434 . S
C410 C401 1.429 . S
C410 N407 1.350 . S
C410 C409 1.434 . S
C411 C412 1.369 . S
C411 C413 1.419 . S
C411 H415 0.930 . S
C412 C411 1.369 . S
C412 C421 1.429 . S
C413 C411 1.419 . S
C413 C414 1.363 . S
C413 H416 0.929 . S
C414 C413 1.363 . S
C414 C420 1.428 . S
H415 C411 0.930 . S
H416 C413 0.929 . S
S417 N418 1.613 . S
S417 N419 1.610 . S
N418 S417 1.613 . S
N418 C421 1.350 . S
N419 S417 1.610 . S
N419 C420 1.351 . S
C420 C414 1.428 . S
C420 N419 1.351 . S
C420 C421 1.434 . S
C421 C412 1.429 . S
C421 N418 1.350 . S
C421 C420 1.434 . S
C422 C423 1.369 . S
C422 C424 1.419 . S
C422 H426 0.930 . S
C423 C422 1.369 . S
C423 C432 1.429 . S
C424 C422 1.419 . S
C424 C425 1.363 . S
C424 H427 0.929 . S
C425 C424 1.363 . S
C425 C431 1.428 . S
H426 C422 0.930 . S
H427 C424 0.929 . S
S428 N429 1.613 . S
S428 N430 1.610 . S
N429 S428 1.613 . S
N429 C432 1.350 . S
N430 S428 1.610 . S
N430 C431 1.351 . S
C431 C425 1.428 . S
C431 N430 1.351 . S
C431 C432 1.434 . S
C432 C423 1.429 . S
C432 N429 1.350 . S
C432 C431 1.434 . S
C433 C434 1.369 . S
C433 C435 1.419 . S
C433 H437 0.930 . S
C434 C433 1.369 . S
C434 C443 1.429 . S
C435 C433 1.419 . S
C435 C436 1.363 . S
C435 H438 0.929 . S
C436 C435 1.363 . S
C436 C442 1.428 . S
H437 C433 0.930 . S
H438 C435 0.929 . S
S439 N440 1.613 . S
S439 N441 1.610 . S
N440 S439 1.613 . S
N440 C443 1.350 . S
N441 S439 1.610 . S
N441 C442 1.351 . S
C442 C436 1.428 . S
C442 N441 1.351 . S
C442 C443 1.434 . S
C443 C434 1.429 . S
C443 N440 1.350 . S
C443 C442 1.434 . S
C444 C445 1.369 . S
C444 C446 1.419 . S
C444 H448 0.930 . S
C445 C444 1.369 . S
C445 C454 1.429 . S
C446 C444 1.419 . S
C446 C447 1.363 . S
C446 H449 0.929 . S
C447 C446 1.363 . S
C447 C453 1.428 . S
H448 C444 0.930 . S
H449 C446 0.929 . S
S450 N451 1.613 1_554 S
S450 N452 1.610 . S
N451 S450 1.613 1_556 S
N451 C454 1.350 . S
N452 S450 1.610 . S
N452 C453 1.351 1_554 S
C453 C447 1.428 . S
C453 N452 1.351 1_556 S
C453 C454 1.434 . S
C454 C445 1.429 . S
C454 N451 1.350 . S
C454 C453 1.434 . S
C455 C456 1.369 . S
C455 C457 1.419 . S
C455 H459 0.930 . S
C456 C455 1.369 . S
C456 C465 1.429 . S
C457 C455 1.419 . S
C457 C458 1.363 . S
C457 H460 0.929 . S
C458 C457 1.363 . S
C458 C464 1.428 . S
H459 C455 0.930 . S
H460 C457 0.929 . S
S461 N462 1.613 . S
S461 N463 1.610 . S
N462 S461 1.613 . S
N462 C465 1.350 . S
N463 S461 1.610 . S
N463 C464 1.351 . S
C464 C458 1.428 . S
C464 N463 1.351 . S
C464 C465 1.434 . S
C465 C456 1.429 . S
C465 N462 1.350 . S
C465 C464 1.434 . S
C466 C467 1.369 . S
C466 C468 1.419 . S
C466 H470 0.930 . S
C467 C466 1.369 . S
C467 C476 1.429 . S
C468 C466 1.419 . S
C468 C469 1.363 . S
C468 H471 0.929 . S
C469 C468 1.363 . S
C469 C475 1.428 . S
H470 C466 0.930 . S
H471 C468 0.929 . S
S472 N473 1.613 . S
S472 N474 1.610 . S
N473 S472 1.613 . S
N473 C476 1.350 . S
N474 S472 1.610 . S
N474 C475 1.351 . S
C475 C469 1.428 . S
C475 N474 1.351 . S
C475 C476 1.434 . S
C476 C467 1.429 . S
C476 N473 1.350 . S
C476 C475 1.434 . S
C477 C478 1.369 . S
C477 C479 1.419 . S
C477 H481 0.930 . S
C478 C477 1.369 . S
C478 C487 1.429 . S
C479 C477 1.419 . S
C479 C480 1.363 . S
C479 H482 0.929 . S
C480 C479 1.363 . S
C480 C486 1.428 . S
H481 C477 0.930 . S
H482 C479 0.929 . S
S483 N484 1.613 . S
S483 N485 1.610 . S
N484 S483 1.613 . S
N484 C487 1.350 . S
N485 S483 1.610 . S
N485 C486 1.351 . S
C486 C480 1.428 . S
C486 N485 1.351 . S
C486 C487 1.434 . S
C487 C478 1.429 . S
C487 N484 1.350 . S
C487 C486 1.434 . S
C488 C489 1.369 . S
C488 C490 1.419 . S
C488 H492 0.930 . S
C489 C488 1.369 . S
C489 C498 1.429 . S
C490 C488 1.419 . S
C490 C491 1.363 . S
C490 H493 0.929 . S
C491 C490 1.363 . S
C491 C497 1.428 . S
H492 C488 0.930 . S
H493 C490 0.929 . S
S494 N495 1.613 . S
S494 N496 1.610 . S
N495 S494 1.613 . S
N495 C498 1.350 . S
N496 S494 1.610 . S
N496 C497 1.351 . S
C497 C491 1.428 . S
C497 N496 1.351 . S
C497 C498 1.434 . S
C498 C489 1.429 . S
C498 N495 1.350 . S
C498 C497 1.434 . S
C499 C500 1.369 . S
C499 C501 1.419 . S
C499 H503 0.930 . S
C500 C499 1.369 . S
C500 C509 1.429 . S
C501 C499 1.419 . S
C501 C502 1.363 . S
C501 H504 0.929 . S
C502 C501 1.363 . S
C502 C508 1.428 . S
H503 C499 0.930 . S
H504 C501 0.929 . S
S505 N506 1.613 . S
S505 N507 1.610 . S
N506 S505 1.613 . S
N506 C509 1.350 . S
N507 S505 1.610 . S
N507 C508 1.351 . S
C508 C502 1.428 . S
C508 N507 1.351 . S
C508 C509 1.434 . S
C509 C500 1.429 . S
C509 N506 1.350 . S
C509 C508 1.434 . S
C510 C511 1.369 . S
C510 C512 1.419 . S
C510 H514 0.930 . S
C511 C510 1.369 . S
C511 C520 1.429 . S
C512 C510 1.419 . S
C512 C513 1.363 . S
C512 H515 0.929 . S
C513 C512 1.363 . S
C513 C519 1.428 . S
H514 C510 0.930 . S
H515 C512 0.929 . S
S516 N517 1.613 . S
S516 N518 1.610 . S
N517 S516 1.613 . S
N517 C520 1.350 . S
N518 S516 1.610 . S
N518 C519 1.351 . S
C519 C513 1.428 . S
C519 N518 1.351 . S
C519 C520 1.434 . S
C520 C511 1.429 . S
C520 N517 1.350 . S
C520 C519 1.434 . S
C521 C522 1.369 . S
C521 C523 1.419 . S
C521 H525 0.930 . S
C522 C521 1.369 . S
C522 C531 1.429 . S
C523 C521 1.419 . S
C523 C524 1.363 . S
C523 H526 0.929 . S
C524 C523 1.363 . S
C524 C530 1.428 . S
H525 C521 0.930 . S
H526 C523 0.929 . S
S527 N528 1.613 . S
S527 N529 1.610 . S
N528 S527 1.613 . S
N528 C531 1.350 . S
N529 S527 1.610 . S
N529 C530 1.351 . S
C530 C524 1.428 . S
C530 N529 1.351 . S
C530 C531 1.434 . S
C531 C522 1.429 . S
C531 N528 1.350 . S
C531 C530 1.434 . S
C532 C533 1.369 . S
C532 C534 1.419 . S
C532 H536 0.930 . S
C533 C532 1.369 . S
C533 C542 1.429 . S
C534 C532 1.419 . S
C534 C535 1.363 . S
C534 H537 0.929 . S
C535 C534 1.363 . S
C535 C541 1.428 . S
H536 C532 0.930 . S
H537 C534 0.929 . S
S538 N539 1.613 . S
S538 N540 1.610 . S
N539 S538 1.613 . S
N539 C542 1.350 . S
N540 S538 1.610 . S
N540 C541 1.351 . S
C541 C535 1.428 . S
C541 N540 1.351 . S
C541 C542 1.434 . S
C542 C533 1.429 . S
C542 N539 1.350 . S
C542 C541 1.434 . S
C543 C544 1.369 . S
C543 C545 1.419 . S
C543 H547 0.930 . S
C544 C543 1.369 . S
C544 C553 1.429 . S
C545 C543 1.419 . S
C545 C546 1.363 . S
C545 H548 0.929 . S
C546 C545 1.363 . S
C546 C552 1.428 . S
H547 C543 0.930 . S
H548 C545 0.929 . S
S549 N550 1.613 . S
S549 N551 1.610 . S
N550 S549 1.613 . S
N550 C553 1.350 . S
N551 S549 1.610 . S
N551 C552 1.351 . S
C552 C546 1.428 . S
C552 N551 1.351 . S
C552 C553 1.434 . S
C553 C544 1.429 . S
C553 N550 1.350 . S
C553 C552 1.434 . S
C554 C555 1.369 . S
C554 C556 1.419 . S
C554 H558 0.930 . S
C555 C554 1.369 . S
C555 C564 1.429 . S
C556 C554 1.419 . S
C556 C557 1.363 . S
C556 H559 0.929 . S
C557 C556 1.363 . S
C557 C563 1.428 . S
H558 C554 0.930 . S
H559 C556 0.929 . S
S560 N561 1.613 . S
S560 N562 1.610 . S
N561 S560 1.613 . S
N561 C564 1.350 . S
N562 S560 1.610 . S
N562 C563 1.351 . S
C563 C557 1.428 . S
C563 N562 1.351 . S
C563 C564 1.434 . S
C564 C555 1.429 . S
C564 N561 1.350 . S
C564 C563 1.434 . S
C565 C566 1.369 . S
C565 C567 1.419 . S
C565 H569 0.930 . S
C566 C565 1.369 . S
C566 C575 1.429 . S
C567 C565 1.419 . S
C567 C568 1.363 . S
C567 H570 0.929 . S
C568 C567 1.363 . S
C568 C574 1.428 . S
H569 C565 0.930 . S
H570 C567 0.929 . S
S571 N572 1.613 . S
S571 N573 1.610 . S
N572 S571 1.613 . S
N572 C575 1.350 . S
N573 S571 1.610 . S
N573 C574 1.351 . S
C574 C568 1.428 . S
C574 N573 1.351 . S
C574 C575 1.434 . S
C575 C566 1.429 . S
C575 N572 1.350 . S
C575 C574 1.434 . S
C225 C11 1.220 1_655 S
C227 C67 1.219 1_655 S
C236 C81 1.220 1_565 S
C238 C25 1.218 1_565 S
C247 C39 1.219 . S
C249 C95 1.219 . S
C258 C53 1.215 . S
C260 C109 1.215 . S
C269 C123 1.218 1_455 S
C271 C179 1.216 1_455 S
C280 C193 1.218 1_545 S
C282 C137 1.216 1_545 S
C291 C151 1.220 . S
C293 C207 1.219 . S
C302 C165 1.220 . S
C304 C221 1.219 . S
C313 C9 1.495 . S
C315 C215 1.484 . S
C324 C173 1.483 . S
C326 C23 1.494 . S
C335 C37 1.493 . S
C337 C187 1.487 . S
C346 C201 1.484 . S
C348 C51 1.494 . S
C357 C131 1.485 . S
C359 C65 1.493 . S
C368 C145 1.486 . S
C370 C79 1.494 . S
C379 C159 1.483 . S
C381 C93 1.494 . S
C390 C117 1.486 . S
C392 C107 1.493 . S
C401 C121 1.493 . S
C403 C103 1.487 . S
C412 C61 1.484 . S
C414 C135 1.494 . S
C423 C75 1.487 . S
C425 C149 1.494 . S
C434 C163 1.494 . S
C436 C89 1.484 . S
C445 C19 1.487 . S
C447 C177 1.493 . S
C456 C191 1.494 . S
C458 C33 1.485 . S
C467 C205 1.495 . S
C469 C47 1.484 . S
C478 C219 1.495 . S
C480 C5 1.484 . S
C489 C98 1.225 . S
C491 C0 1.228 . S
C500 C14 1.237 . S
C502 C56 1.236 . S
C511 C28 1.226 . S
C513 C70 1.228 . S
C522 C42 1.228 . S
C524 C84 1.228 . S
C533 C210 1.237 . S
C535 C112 1.236 . S
C544 C168 1.237 . S
C546 C126 1.236 . S
C555 C182 1.226 . S
C557 C140 1.227 . S
C566 C196 1.231 . S
C568 C154 1.232 . S
