# Generated by pormake.
# Topology uot, (4)-cn, num edge types: 1
# Building blocks:
#     Node 0, Type 0, BuildingBlock: CEKHIL_clean_sbu_0, # of connection points: 4
#     Node 1, Type 0, BuildingBlock: CEKHIL_clean_sbu_0, # of connection points: 4
#     Node 2, Type 0, BuildingBlock: CEKHIL_clean_sbu_0, # of connection points: 4
#     Node 3, Type 0, BuildingBlock: CEKHIL_clean_sbu_0, # of connection points: 4
#     Node 4, Type 0, BuildingBlock: CEKHIL_clean_sbu_0, # of connection points: 4
#     Node 5, Type 0, BuildingBlock: CEKHIL_clean_sbu_0, # of connection points: 4
#     Node 6, Type 0, BuildingBlock: CEKHIL_clean_sbu_0, # of connection points: 4
#     Node 7, Type 0, BuildingBlock: CEKHIL_clean_sbu_0, # of connection points: 4
#     Node 8, Type 0, BuildingBlock: CEKHIL_clean_sbu_0, # of connection points: 4
#     Node 9, Type 0, BuildingBlock: CEKHIL_clean_sbu_0, # of connection points: 4
#     Node 10, Type 0, BuildingBlock: CEKHIL_clean_sbu_0, # of connection points: 4
#     Node 11, Type 0, BuildingBlock: CEKHIL_clean_sbu_0, # of connection points: 4
#     Node 12, Type 0, BuildingBlock: CEKHIL_clean_sbu_0, # of connection points: 4
#     Node 13, Type 0, BuildingBlock: CEKHIL_clean_sbu_0, # of connection points: 4
#     Node 14, Type 0, BuildingBlock: CEKHIL_clean_sbu_0, # of connection points: 4
#     Node 15, Type 0, BuildingBlock: CEKHIL_clean_sbu_0, # of connection points: 4
#     Edge 16, Type (0, 0), BuildingBlock: UVAHIK_clean_linker_0, # of connection points: 2
#     Edge 17, Type (0, 0), BuildingBlock: UVAHIK_clean_linker_0, # of connection points: 2
#     Edge 18, Type (0, 0), BuildingBlock: UVAHIK_clean_linker_0, # of connection points: 2
#     Edge 19, Type (0, 0), BuildingBlock: UVAHIK_clean_linker_0, # of connection points: 2
#     Edge 20, Type (0, 0), BuildingBlock: UVAHIK_clean_linker_0, # of connection points: 2
#     Edge 21, Type (0, 0), BuildingBlock: UVAHIK_clean_linker_0, # of connection points: 2
#     Edge 22, Type (0, 0), BuildingBlock: UVAHIK_clean_linker_0, # of connection points: 2
#     Edge 23, Type (0, 0), BuildingBlock: UVAHIK_clean_linker_0, # of connection points: 2
#     Edge 24, Type (0, 0), BuildingBlock: UVAHIK_clean_linker_0, # of connection points: 2
#     Edge 25, Type (0, 0), BuildingBlock: UVAHIK_clean_linker_0, # of connection points: 2
#     Edge 26, Type (0, 0), BuildingBlock: UVAHIK_clean_linker_0, # of connection points: 2
#     Edge 27, Type (0, 0), BuildingBlock: UVAHIK_clean_linker_0, # of connection points: 2
#     Edge 28, Type (0, 0), BuildingBlock: UVAHIK_clean_linker_0, # of connection points: 2
#     Edge 29, Type (0, 0), BuildingBlock: UVAHIK_clean_linker_0, # of connection points: 2
#     Edge 30, Type (0, 0), BuildingBlock: UVAHIK_clean_linker_0, # of connection points: 2
#     Edge 31, Type (0, 0), BuildingBlock: UVAHIK_clean_linker_0, # of connection points: 2
#     Edge 32, Type (0, 0), BuildingBlock: UVAHIK_clean_linker_0, # of connection points: 2
#     Edge 33, Type (0, 0), BuildingBlock: UVAHIK_clean_linker_0, # of connection points: 2
#     Edge 34, Type (0, 0), BuildingBlock: UVAHIK_clean_linker_0, # of connection points: 2
#     Edge 35, Type (0, 0), BuildingBlock: UVAHIK_clean_linker_0, # of connection points: 2
#     Edge 36, Type (0, 0), BuildingBlock: UVAHIK_clean_linker_0, # of connection points: 2
#     Edge 37, Type (0, 0), BuildingBlock: UVAHIK_clean_linker_0, # of connection points: 2
#     Edge 38, Type (0, 0), BuildingBlock: UVAHIK_clean_linker_0, # of connection points: 2
#     Edge 39, Type (0, 0), BuildingBlock: UVAHIK_clean_linker_0, # of connection points: 2
#     Edge 40, Type (0, 0), BuildingBlock: UVAHIK_clean_linker_0, # of connection points: 2
#     Edge 41, Type (0, 0), BuildingBlock: UVAHIK_clean_linker_0, # of connection points: 2
#     Edge 42, Type (0, 0), BuildingBlock: UVAHIK_clean_linker_0, # of connection points: 2
#     Edge 43, Type (0, 0), BuildingBlock: UVAHIK_clean_linker_0, # of connection points: 2
#     Edge 44, Type (0, 0), BuildingBlock: UVAHIK_clean_linker_0, # of connection points: 2
#     Edge 45, Type (0, 0), BuildingBlock: UVAHIK_clean_linker_0, # of connection points: 2
#     Edge 46, Type (0, 0), BuildingBlock: UVAHIK_clean_linker_0, # of connection points: 2
#     Edge 47, Type (0, 0), BuildingBlock: UVAHIK_clean_linker_0, # of connection points: 2
# Relax obj value: 0.066
# Max RMSD: 0.081
# Mean RMSD: 0.081
data_MOF--net-uot--node1-CEKHIL_clean_sbu_0--edge1-UVAHIK_clean_linker_0
_symmetry_space_group_name_H-M    P1
_symmetry_Int_Tables_number       1
_symmetry_cell_setting            triclinic
loop_
_symmetry_equiv_pos_as_xyz
'x, y, z'
_cell_length_a     56.882627
_cell_length_b     56.878141
_cell_length_c     52.075777
_cell_angle_alpha  89.997799
_cell_angle_beta   89.98225
_cell_angle_gamma 89.967373
loop_
_atom_site_label
_atom_site_type_symbol
_atom_site_fract_x
_atom_site_fract_y
_atom_site_fract_z
_atom_type_partial_charge
Co0 Co 0.20432 0.42364 0.32637 0.0
O1 O 0.22276 0.39607 0.33299 0.0
O2 O 0.2363 0.42859 0.31475 0.0
C3 C 0.17304 0.40475 0.30975 0.0
O4 O 0.19007 0.45491 0.31535 0.0
Co5 Co 0.15687 0.43073 0.3552 0.0
O6 O 0.15387 0.45863 0.3325 0.0
C7 C 0.2014 0.43676 0.3827 0.0
C8 C 0.24021 0.4072 0.32255 0.0
C9 C 0.17049 0.46602 0.31817 0.0
O10 O 0.21254 0.43683 0.36121 0.0
O11 O 0.17954 0.43184 0.38472 0.0
O12 O 0.19136 0.40893 0.29555 0.0
O13 O 0.17524 0.40989 0.33377 0.0
Co14 Co 0.41658 0.79875 0.67328 0.0
O15 O 0.39054 0.77753 0.6702 0.0
O16 O 0.42616 0.76751 0.68366 0.0
C17 C 0.39671 0.82798 0.69288 0.0
O18 O 0.44724 0.81596 0.68036 0.0
Co19 Co 0.4162 0.84702 0.64536 0.0
O20 O 0.44381 0.85356 0.66759 0.0
C21 C 0.42564 0.80383 0.61582 0.0
C22 C 0.40459 0.76136 0.6788 0.0
C23 C 0.45496 0.83721 0.67909 0.0
O24 O 0.42655 0.79195 0.63683 0.0
O25 O 0.41976 0.82555 0.61499 0.0
O26 O 0.40436 0.81013 0.70604 0.0
O27 O 0.39919 0.82635 0.66829 0.0
Co28 Co 0.79797 0.57909 0.3252 0.0
O29 O 0.77813 0.6059 0.33069 0.0
O30 O 0.76573 0.57121 0.31676 0.0
C31 C 0.8268 0.59845 0.30424 0.0
O32 O 0.81355 0.54799 0.31591 0.0
Co33 Co 0.84775 0.57735 0.34998 0.0
O34 O 0.85111 0.548 0.32968 0.0
C35 C 0.8059 0.56948 0.38204 0.0
C36 C 0.76087 0.59288 0.32279 0.0
C37 C 0.83401 0.53844 0.3178 0.0
O38 O 0.79297 0.56827 0.36179 0.0
O39 O 0.82758 0.5755 0.38148 0.0
O40 O 0.80798 0.59186 0.29206 0.0
O41 O 0.82641 0.59528 0.32877 0.0
Co42 Co 0.57322 0.20602 0.67438 0.0
O43 O 0.60009 0.22598 0.66998 0.0
O44 O 0.56528 0.23795 0.68408 0.0
C45 C 0.59258 0.17655 0.69414 0.0
O46 O 0.542 0.19034 0.68285 0.0
Co47 Co 0.57096 0.15727 0.64781 0.0
O48 O 0.54193 0.15302 0.66846 0.0
C49 C 0.5637 0.20016 0.61722 0.0
C50 C 0.58698 0.24298 0.6784 0.0
C51 C 0.53241 0.16993 0.68074 0.0
O52 O 0.5628 0.21243 0.63796 0.0
O53 O 0.5691 0.17831 0.61694 0.0
O54 O 0.58565 0.1948 0.70711 0.0
O55 O 0.58949 0.17768 0.66961 0.0
Co56 Co 0.20955 0.57479 0.66601 0.0
O57 O 0.23233 0.59842 0.65773 0.0
O58 O 0.24029 0.56501 0.67796 0.0
C59 C 0.18186 0.59891 0.68232 0.0
O60 O 0.19036 0.54674 0.67825 0.0
Co61 Co 0.16147 0.57505 0.63753 0.0
O62 O 0.15403 0.54863 0.6611 0.0
C63 C 0.20399 0.55965 0.61036 0.0
C64 C 0.24776 0.58485 0.66858 0.0
C65 C 0.16924 0.53893 0.67566 0.0
O66 O 0.2152 0.5592 0.63179 0.0
O67 O 0.18315 0.56791 0.60808 0.0
O68 O 0.19955 0.59226 0.69633 0.0
O69 O 0.18304 0.59311 0.65837 0.0
Co70 Co 0.57216 0.79311 0.33808 0.0
O71 O 0.59601 0.7714 0.34902 0.0
O72 O 0.56437 0.7617 0.32656 0.0
C73 C 0.59658 0.8211 0.32285 0.0
O74 O 0.54429 0.81082 0.32277 0.0
Co75 Co 0.56852 0.84247 0.3636 0.0
O76 O 0.54578 0.84859 0.3355 0.0
C77 C 0.55311 0.8004 0.39199 0.0
C78 C 0.58384 0.75521 0.33757 0.0
C79 C 0.53683 0.83221 0.32194 0.0
O80 O 0.55462 0.78804 0.37136 0.0
O81 O 0.56003 0.82179 0.39341 0.0
O82 O 0.5915 0.80287 0.30889 0.0
O83 O 0.58887 0.82047 0.34615 0.0
Co84 Co 0.79191 0.42187 0.6635 0.0
O85 O 0.76938 0.39815 0.65456 0.0
O86 O 0.76046 0.43306 0.67085 0.0
C87 C 0.81701 0.39839 0.68509 0.0
O88 O 0.81046 0.45034 0.67579 0.0
Co89 Co 0.84296 0.41886 0.64236 0.0
O90 O 0.8488 0.44482 0.66704 0.0
C91 C 0.80451 0.43428 0.60827 0.0
C92 C 0.75338 0.41271 0.6625 0.0
C93 C 0.83219 0.45651 0.67745 0.0
O94 O 0.79034 0.43506 0.62753 0.0
O95 O 0.82551 0.42628 0.60986 0.0
O96 O 0.7983 0.40653 0.6963 0.0
O97 O 0.81846 0.40245 0.66074 0.0
Co98 Co 0.42737 0.20102 0.33367 0.0
O99 O 0.40232 0.22188 0.34324 0.0
O100 O 0.43459 0.23264 0.32241 0.0
C101 C 0.40476 0.17213 0.31721 0.0
O102 O 0.45649 0.18424 0.32 0.0
Co103 Co 0.43145 0.15203 0.35998 0.0
O104 O 0.45589 0.14663 0.33344 0.0
C105 C 0.44437 0.19474 0.38861 0.0
C106 C 0.41445 0.23847 0.33242 0.0
C107 C 0.46483 0.16316 0.32007 0.0
O108 O 0.44322 0.20686 0.36778 0.0
O109 O 0.43813 0.17315 0.38997 0.0
O110 O 0.40978 0.19054 0.30352 0.0
O111 O 0.41128 0.17308 0.34094 0.0
Co112 Co 0.69935 0.9217 0.82691 0.0
O113 O 0.71683 0.89375 0.83413 0.0
O114 O 0.73234 0.92655 0.81874 0.0
C115 C 0.66955 0.90397 0.80598 0.0
O116 O 0.6861 0.95358 0.8163 0.0
Co117 Co 0.64962 0.92722 0.85133 0.0
O118 O 0.64851 0.95602 0.8299 0.0
C119 C 0.69169 0.93277 0.88345 0.0
C120 C 0.73532 0.90488 0.82616 0.0
C121 C 0.66618 0.96432 0.81784 0.0
O122 O 0.70463 0.93309 0.86318 0.0
O123 O 0.66968 0.92809 0.88298 0.0
O124 O 0.68903 0.90874 0.79403 0.0
O125 O 0.66979 0.90771 0.83042 0.0
Co126 Co 0.92239 0.29935 0.16728 0.0
O127 O 0.89716 0.28122 0.15313 0.0
O128 O 0.92798 0.26617 0.17334 0.0
C129 C 0.89966 0.32624 0.18715 0.0
O130 O 0.95137 0.31271 0.18507 0.0
Co131 Co 0.92968 0.35151 0.15155 0.0
O132 O 0.94938 0.35216 0.18299 0.0
C133 C 0.94599 0.31345 0.11701 0.0
C134 C 0.90806 0.26275 0.16163 0.0
C135 C 0.95831 0.33333 0.19194 0.0
O136 O 0.9397 0.29782 0.1335 0.0
O137 O 0.9425 0.33553 0.12013 0.0
O138 O 0.9039 0.3061 0.19797 0.0
O139 O 0.90734 0.32857 0.16395 0.0
Co140 Co 0.29199 0.08148 0.82908 0.0
O141 O 0.27053 0.10613 0.83824 0.0
O142 O 0.26011 0.07212 0.82083 0.0
C143 C 0.31862 0.10419 0.80879 0.0
O144 O 0.30937 0.05236 0.81645 0.0
Co145 Co 0.34264 0.08146 0.85154 0.0
O146 O 0.34778 0.05612 0.8259 0.0
C147 C 0.30273 0.0677 0.88436 0.0
C148 C 0.25392 0.0926 0.82973 0.0
C149 C 0.33088 0.04538 0.81489 0.0
O150 O 0.28907 0.06766 0.86466 0.0
O151 O 0.32409 0.07476 0.88353 0.0
O152 O 0.29984 0.0972 0.79684 0.0
O153 O 0.31935 0.09946 0.83302 0.0
Co154 Co 0.07922 0.70251 0.16448 0.0
O155 O 0.1045 0.72308 0.15532 0.0
O156 O 0.07089 0.73478 0.17266 0.0
C157 C 0.10132 0.67528 0.18464 0.0
O158 O 0.04958 0.68592 0.17701 0.0
Co159 Co 0.07802 0.65199 0.14165 0.0
O160 O 0.05232 0.64752 0.16698 0.0
C161 C 0.06554 0.69243 0.10904 0.0
C162 C 0.09154 0.7402 0.16367 0.0
C163 C 0.04199 0.66459 0.17818 0.0
O164 O 0.06556 0.70591 0.12889 0.0
O165 O 0.07217 0.67091 0.10973 0.0
O166 O 0.09475 0.69418 0.19667 0.0
O167 O 0.09646 0.6747 0.16044 0.0
Co168 Co 0.70212 0.06725 0.17019 0.0
O169 O 0.71972 0.09265 0.15578 0.0
O170 O 0.73541 0.06273 0.17701 0.0
C171 C 0.67427 0.08977 0.18882 0.0
O172 O 0.68892 0.03827 0.18824 0.0
Co173 Co 0.65056 0.05906 0.1522 0.0
O174 O 0.64956 0.03887 0.18331 0.0
C175 C 0.69013 0.04638 0.11821 0.0
C176 C 0.73839 0.08245 0.16473 0.0
C177 C 0.66815 0.03073 0.19371 0.0
O178 O 0.7047 0.04958 0.13676 0.0
O179 O 0.66817 0.05119 0.11984 0.0
O180 O 0.69426 0.08628 0.20027 0.0
O181 O 0.67276 0.08148 0.16581 0.0
Co182 Co 0.07049 0.30104 0.82578 0.0
O183 O 0.0979 0.28188 0.83058 0.0
O184 O 0.06326 0.26855 0.81766 0.0
C185 C 0.08898 0.33007 0.80429 0.0
O186 O 0.03881 0.3158 0.81714 0.0
Co187 Co 0.06785 0.35103 0.84978 0.0
O188 O 0.03854 0.35378 0.8294 0.0
C189 C 0.06198 0.30931 0.88273 0.0
C190 C 0.08518 0.26427 0.82304 0.0
C191 C 0.02904 0.33621 0.81831 0.0
O192 O 0.06081 0.29599 0.86277 0.0
O193 O 0.06702 0.33122 0.88156 0.0
O194 O 0.08222 0.31123 0.79225 0.0
O195 O 0.08623 0.3298 0.82887 0.0
Co196 Co 0.29951 0.92445 0.16821 0.0
O197 O 0.27988 0.899 0.15706 0.0
O198 O 0.26697 0.93113 0.17659 0.0
C199 C 0.32745 0.9022 0.18707 0.0
O200 O 0.31474 0.95388 0.18314 0.0
Co201 Co 0.35039 0.92944 0.14687 0.0
O202 O 0.35375 0.95155 0.17619 0.0
C203 C 0.30988 0.94213 0.11423 0.0
C204 C 0.26228 0.91083 0.16627 0.0
C205 C 0.33595 0.961 0.18692 0.0
O206 O 0.29599 0.94008 0.13362 0.0
O207 O 0.33174 0.93674 0.11507 0.0
O208 O 0.30813 0.90716 0.19925 0.0
O209 O 0.3281 0.90873 0.16334 0.0
Co210 Co 0.9273 0.69724 0.82318 0.0
O211 O 0.90115 0.71588 0.83409 0.0
O212 O 0.93286 0.7301 0.81493 0.0
C213 C 0.90601 0.66875 0.80404 0.0
O214 O 0.95727 0.68274 0.80853 0.0
Co215 Co 0.93295 0.64669 0.8453 0.0
O216 O 0.95691 0.64406 0.81774 0.0
C217 C 0.94412 0.68768 0.87765 0.0
C218 C 0.91225 0.73396 0.825 0.0
C219 C 0.96572 0.6618 0.80623 0.0
O220 O 0.94248 0.70125 0.85796 0.0
O221 O 0.93884 0.66579 0.87707 0.0
O222 O 0.91059 0.68818 0.79191 0.0
O223 O 0.91227 0.66832 0.82785 0.0
C224 C 0.26383 0.37088 0.31696 0.0
C225 C 0.26311 0.39546 0.31919 0.0
C226 C 0.28526 0.3592 0.3146 0.0
C227 C 0.34363 0.35937 0.33636 0.0
H228 H 0.35461 0.31361 0.28238 0.0
C229 C 0.40984 0.27692 0.30953 0.0
C230 C 0.40495 0.26252 0.33078 0.0
C231 C 0.39784 0.29824 0.3063 0.0
C232 C 0.35211 0.32665 0.2973 0.0
H233 H 0.2841 0.42721 0.3206 0.0
H234 H 0.32204 0.40642 0.3176 0.0
H235 H 0.32231 0.3418 0.27827 0.0
H236 H 0.38508 0.25967 0.36615 0.0
H237 H 0.36473 0.29713 0.36092 0.0
H238 H 0.37217 0.34287 0.3564 0.0
C239 C 0.30585 0.39642 0.31713 0.0
C240 C 0.33362 0.34267 0.29498 0.0
C241 C 0.28425 0.40823 0.31882 0.0
C242 C 0.38909 0.27043 0.34954 0.0
C243 C 0.37758 0.29192 0.34664 0.0
C244 C 0.36186 0.34302 0.33892 0.0
C245 C 0.30643 0.37181 0.31497 0.0
C246 C 0.32882 0.35868 0.31482 0.0
C247 C 0.38133 0.3057 0.32466 0.0
C248 C 0.36578 0.32607 0.31974 0.0
H249 H 0.24779 0.36062 0.31706 0.0
H250 H 0.28532 0.34019 0.31324 0.0
H251 H 0.34008 0.37143 0.35199 0.0
H252 H 0.42193 0.27112 0.29475 0.0
H253 H 0.40093 0.30856 0.28914 0.0
C254 C 0.41092 0.71773 0.68166 0.0
C255 C 0.39593 0.73732 0.68334 0.0
C256 C 0.40183 0.69494 0.68433 0.0
C257 C 0.35179 0.66156 0.7098 0.0
H258 H 0.3541 0.62435 0.64747 0.0
C259 C 0.28169 0.60769 0.65212 0.0
C260 C 0.2724 0.59248 0.67073 0.0
C261 C 0.30361 0.61809 0.6557 0.0
C262 C 0.35372 0.63424 0.66524 0.0
H263 H 0.36011 0.74868 0.69032 0.0
H264 H 0.34447 0.70914 0.69565 0.0
H265 H 0.38053 0.658 0.65246 0.0
H266 H 0.27909 0.57518 0.70706 0.0
H267 H 0.31738 0.59422 0.71385 0.0
H268 H 0.32393 0.63887 0.72189 0.0
C269 C 0.36312 0.71127 0.69206 0.0
C270 C 0.36889 0.65339 0.66814 0.0
C271 C 0.37202 0.73387 0.68877 0.0
C272 C 0.28596 0.58682 0.6924 0.0
C273 C 0.30778 0.5977 0.69629 0.0
C274 C 0.33686 0.64225 0.70706 0.0
C275 C 0.37782 0.69159 0.6895 0.0
C276 C 0.36716 0.6679 0.68986 0.0
C277 C 0.31651 0.61386 0.67822 0.0
C278 C 0.33684 0.62918 0.68418 0.0
H279 H 0.42943 0.71999 0.67743 0.0
H280 H 0.41344 0.67997 0.6821 0.0
H281 H 0.35022 0.6725 0.72675 0.0
H282 H 0.2716 0.61223 0.63518 0.0
H283 H 0.30972 0.6307 0.6416 0.0
C284 C 0.58721 0.71635 0.31517 0.0
C285 C 0.59277 0.73089 0.33611 0.0
C286 C 0.59884 0.69484 0.31186 0.0
C287 C 0.64351 0.66598 0.30094 0.0
H288 H 0.66057 0.62379 0.35647 0.0
C289 C 0.73466 0.62703 0.31518 0.0
C290 C 0.73709 0.60289 0.3201 0.0
C291 C 0.71245 0.63723 0.31351 0.0
C292 C 0.65559 0.63507 0.34061 0.0
H293 H 0.61336 0.73371 0.37096 0.0
H294 H 0.63322 0.69608 0.36552 0.0
H295 H 0.62774 0.65127 0.36204 0.0
H296 H 0.71831 0.57037 0.32694 0.0
H297 H 0.67903 0.58865 0.32515 0.0
H298 H 0.67256 0.65113 0.28032 0.0
C299 C 0.62007 0.70125 0.35156 0.0
C300 C 0.63694 0.65084 0.34383 0.0
C301 C 0.60885 0.72288 0.35458 0.0
C302 C 0.71683 0.58902 0.32305 0.0
C303 C 0.69447 0.59941 0.32205 0.0
C304 C 0.66236 0.65049 0.29789 0.0
C305 C 0.61576 0.68735 0.32978 0.0
C306 C 0.63131 0.66703 0.32437 0.0
C307 C 0.69218 0.62362 0.31726 0.0
C308 C 0.66908 0.63553 0.31804 0.0
H309 H 0.5749 0.72217 0.30063 0.0
H310 H 0.59523 0.68444 0.29489 0.0
H311 H 0.63969 0.67838 0.28571 0.0
H312 H 0.74999 0.6381 0.31268 0.0
H313 H 0.71114 0.65598 0.31012 0.0
C314 C 0.58321 0.28697 0.67753 0.0
C315 C 0.59685 0.26672 0.68168 0.0
C316 C 0.59369 0.30929 0.67841 0.0
C317 C 0.64441 0.34185 0.70298 0.0
H318 H 0.64798 0.37296 0.63682 0.0
C319 C 0.72041 0.3885 0.64584 0.0
C320 C 0.72852 0.40547 0.66326 0.0
C321 C 0.69813 0.37865 0.64871 0.0
C322 C 0.64673 0.3648 0.65557 0.0
H323 H 0.63157 0.25377 0.6913 0.0
H324 H 0.64957 0.29257 0.6937 0.0
H325 H 0.61946 0.34126 0.64346 0.0
H326 H 0.71943 0.42634 0.69662 0.0
H327 H 0.68049 0.40835 0.70223 0.0
H328 H 0.67259 0.36435 0.71467 0.0
C329 C 0.63097 0.2913 0.68947 0.0
C330 C 0.63038 0.34678 0.6594 0.0
C331 C 0.62072 0.26912 0.6879 0.0
C332 C 0.71349 0.41333 0.68287 0.0
C333 C 0.69131 0.40304 0.68612 0.0
C334 C 0.66048 0.3601 0.6993 0.0
C335 C 0.61769 0.31155 0.68429 0.0
C336 C 0.62989 0.33444 0.68273 0.0
C337 C 0.68367 0.38523 0.66936 0.0
C338 C 0.66256 0.37096 0.67518 0.0
H339 H 0.56477 0.2855 0.6726 0.0
H340 H 0.58319 0.3247 0.67418 0.0
H341 H 0.64433 0.33253 0.72113 0.0
H342 H 0.73165 0.38221 0.63051 0.0
H343 H 0.69284 0.36476 0.6357 0.0
C344 C 0.77812 0.90283 0.8133 0.0
C345 C 0.75823 0.89262 0.82488 0.0
C346 C 0.79896 0.88979 0.8105 0.0
C347 C 0.81741 0.82883 0.80388 0.0
H348 H 0.87822 0.8455 0.83226 0.0
C349 C 0.88022 0.76043 0.83951 0.0
C350 C 0.90082 0.7573 0.82503 0.0
C351 C 0.86696 0.78085 0.83706 0.0
C352 C 0.86146 0.84093 0.82374 0.0
H353 H 0.74501 0.86123 0.84373 0.0
H354 H 0.78092 0.83879 0.83876 0.0
H355 H 0.84616 0.87475 0.83188 0.0
H356 H 0.92452 0.77379 0.79784 0.0
H357 H 0.90093 0.80998 0.79356 0.0
H358 H 0.83202 0.79475 0.79712 0.0
C359 C 0.78042 0.85665 0.83152 0.0
C360 C 0.84321 0.85757 0.82352 0.0
C361 C 0.75985 0.86958 0.83441 0.0
C362 C 0.9087 0.77575 0.80921 0.0
C363 C 0.8953 0.7964 0.80677 0.0
C364 C 0.83549 0.81236 0.80411 0.0
C365 C 0.79999 0.86637 0.81906 0.0
C366 C 0.82077 0.85125 0.81453 0.0
C367 C 0.87399 0.79868 0.82016 0.0
C368 C 0.85736 0.81798 0.81488 0.0
H369 H 0.77739 0.9206 0.80585 0.0
H370 H 0.81392 0.89766 0.80093 0.0
H371 H 0.80035 0.82364 0.79655 0.0
H372 H 0.87379 0.7467 0.8521 0.0
H373 H 0.85062 0.78236 0.84766 0.0
C374 C 0.77969 0.09047 0.1797 0.0
C375 C 0.76148 0.09393 0.16183 0.0
C376 C 0.79961 0.10506 0.17927 0.0
C377 C 0.81245 0.16528 0.16182 0.0
H378 H 0.8789 0.15027 0.16517 0.0
C379 C 0.87909 0.23607 0.14127 0.0
C380 C 0.89715 0.23933 0.15924 0.0
C381 C 0.86584 0.21552 0.14131 0.0
C382 C 0.86038 0.15464 0.16448 0.0
H383 H 0.75076 0.11354 0.12811 0.0
H384 H 0.78534 0.13854 0.12719 0.0
H385 H 0.84956 0.11836 0.16593 0.0
H386 H 0.91664 0.22302 0.19026 0.0
H387 H 0.89297 0.18686 0.19059 0.0
H388 H 0.82277 0.20126 0.16042 0.0
C389 C 0.78411 0.12509 0.14187 0.0
C390 C 0.84367 0.13645 0.16491 0.0
C391 C 0.76433 0.11075 0.14239 0.0
C392 C 0.90275 0.22093 0.17622 0.0
C393 C 0.88926 0.20027 0.17639 0.0
C394 C 0.82896 0.18327 0.16146 0.0
C395 C 0.80144 0.12311 0.16092 0.0
C396 C 0.81958 0.14169 0.16289 0.0
C397 C 0.87012 0.19781 0.15952 0.0
C398 C 0.85311 0.17819 0.16207 0.0
H399 H 0.77789 0.07758 0.19487 0.0
H400 H 0.8128 0.10318 0.19413 0.0
H401 H 0.79397 0.16986 0.16097 0.0
H402 H 0.87462 0.24978 0.12767 0.0
H403 H 0.85159 0.21385 0.12763 0.0
C404 C 0.11985 0.23922 0.81377 0.0
C405 C 0.09587 0.24083 0.81986 0.0
C406 C 0.13074 0.21738 0.8116 0.0
C407 C 0.13194 0.16071 0.83893 0.0
H408 H 0.17297 0.14578 0.78165 0.0
C409 C 0.21383 0.09433 0.8098 0.0
C410 C 0.22938 0.10092 0.82948 0.0
C411 C 0.19188 0.10537 0.80754 0.0
C412 C 0.16122 0.14932 0.79756 0.0
H413 H 0.06433 0.22094 0.82826 0.0
H414 H 0.08389 0.1823 0.8256 0.0
H415 H 0.14435 0.17767 0.77763 0.0
H416 H 0.23369 0.12277 0.86321 0.0
H417 H 0.19528 0.14149 0.85972 0.0
H418 H 0.15021 0.13367 0.85961 0.0
C419 C 0.09397 0.19811 0.82197 0.0
C420 C 0.14495 0.16761 0.79528 0.0
C421 C 0.08284 0.2201 0.82347 0.0
C422 C 0.22205 0.11746 0.8478 0.0
C423 C 0.2 0.12803 0.84591 0.0
C424 C 0.14851 0.14265 0.84136 0.0
C425 C 0.11803 0.19664 0.81601 0.0
C426 C 0.13077 0.17398 0.81625 0.0
C427 C 0.18498 0.12264 0.82535 0.0
C428 C 0.16387 0.13739 0.821 0.0
H429 H 0.13027 0.25492 0.81074 0.0
H430 H 0.14938 0.21671 0.8073 0.0
H431 H 0.12131 0.16544 0.85541 0.0
H432 H 0.21915 0.08168 0.79537 0.0
H433 H 0.18062 0.10098 0.79147 0.0
C434 C 0.23322 0.88302 0.1477 0.0
C435 C 0.23825 0.90106 0.16523 0.0
C436 C 0.2112 0.87234 0.14747 0.0
C437 C 0.15965 0.86037 0.14286 0.0
H438 H 0.14155 0.82941 0.20619 0.0
C439 C 0.09334 0.78158 0.18075 0.0
C440 C 0.10049 0.76453 0.16283 0.0
C441 C 0.1043 0.8037 0.18128 0.0
C442 C 0.14592 0.83842 0.1885 0.0
H443 H 0.22408 0.92234 0.19611 0.0
H444 H 0.18538 0.90301 0.19615 0.0
H445 H 0.17234 0.85948 0.20682 0.0
H446 H 0.12363 0.75754 0.13066 0.0
H447 H 0.14229 0.79587 0.13127 0.0
H448 H 0.13425 0.8385 0.12427 0.0
C449 C 0.19855 0.89746 0.1824 0.0
C450 C 0.16356 0.8556 0.18886 0.0
C451 C 0.2206 0.90853 0.18231 0.0
C452 C 0.11784 0.7703 0.14475 0.0
C453 C 0.1284 0.79236 0.14498 0.0
C454 C 0.14204 0.84332 0.14251 0.0
C455 C 0.19372 0.8792 0.16499 0.0
C456 C 0.17134 0.86587 0.16582 0.0
C457 C 0.1221 0.80919 0.16349 0.0
C458 C 0.13582 0.83133 0.1651 0.0
H459 H 0.24644 0.8769 0.13429 0.0
H460 H 0.20812 0.85806 0.13411 0.0
H461 H 0.16509 0.8683 0.12489 0.0
H462 H 0.08006 0.77749 0.19497 0.0
H463 H 0.09915 0.81634 0.19578 0.0
C464 C 0.17843 0.49296 0.281 0.0
C465 C 0.16697 0.48848 0.30441 0.0
C466 C 0.17405 0.51383 0.26755 0.0
C467 C 0.15461 0.5745 0.27514 0.0
H468 H 0.13075 0.56957 0.20564 0.0
C469 C 0.10984 0.65284 0.22483 0.0
C470 C 0.11172 0.65495 0.19807 0.0
C471 C 0.11876 0.63305 0.2374 0.0
C472 C 0.13785 0.57143 0.22481 0.0
H473 H 0.1426 0.50261 0.33252 0.0
H474 H 0.13549 0.53924 0.30935 0.0
H475 H 0.14348 0.53427 0.22822 0.0
H476 H 0.12496 0.63844 0.16348 0.0
H477 H 0.14147 0.6044 0.18541 0.0
H478 H 0.1495 0.61159 0.27181 0.0
C479 C 0.14761 0.52652 0.3013 0.0
C480 C 0.14504 0.55113 0.23775 0.0
C481 C 0.15158 0.5055 0.31444 0.0
C482 C 0.12313 0.63717 0.18414 0.0
C483 C 0.13243 0.61756 0.19674 0.0
C484 C 0.14783 0.59486 0.26206 0.0
C485 C 0.15859 0.53076 0.27762 0.0
C486 C 0.1531 0.55246 0.26316 0.0
C487 C 0.13015 0.61507 0.22353 0.0
C488 C 0.13895 0.59358 0.23686 0.0
H489 H 0.19032 0.48012 0.27278 0.0
H490 H 0.18274 0.51677 0.24932 0.0
H491 H 0.16097 0.57596 0.29468 0.0
H492 H 0.10094 0.66622 0.23602 0.0
H493 H 0.11618 0.63163 0.25793 0.0
C494 C 0.49135 0.82534 0.7032 0.0
C495 C 0.47779 0.84294 0.69131 0.0
C496 C 0.51278 0.83089 0.71484 0.0
C497 C 0.55919 0.87648 0.71634 0.0
H498 H 0.57453 0.84867 0.78222 0.0
C499 C 0.62724 0.8922 0.80594 0.0
C500 C 0.64828 0.89585 0.79241 0.0
C501 C 0.60702 0.88473 0.7931 0.0
C502 C 0.57045 0.85668 0.76389 0.0
H503 H 0.47624 0.88023 0.68245 0.0
H504 H 0.51335 0.88986 0.703 0.0
H505 H 0.53802 0.83785 0.76078 0.0
H506 H 0.66476 0.89439 0.75489 0.0
H507 H 0.62951 0.88109 0.7325 0.0
H508 H 0.59126 0.89585 0.71981 0.0
C509 C 0.50761 0.87171 0.70296 0.0
C510 C 0.54966 0.85026 0.75145 0.0
C511 C 0.48622 0.86618 0.69131 0.0
C512 C 0.64876 0.8918 0.76581 0.0
C513 C 0.62854 0.88429 0.75297 0.0
C514 C 0.57997 0.88291 0.72879 0.0
C515 C 0.52114 0.85415 0.71489 0.0
C516 C 0.5437 0.86023 0.72763 0.0
C517 C 0.60741 0.88072 0.76646 0.0
C518 C 0.58575 0.87322 0.7528 0.0
H519 H 0.48546 0.80724 0.7035 0.0
H520 H 0.52292 0.81691 0.72361 0.0
H521 H 0.55527 0.88427 0.69785 0.0
H522 H 0.62632 0.89524 0.82644 0.0
H523 H 0.59096 0.8825 0.80401 0.0
C524 C 0.87969 0.36531 0.18837 0.0
C525 C 0.88978 0.34626 0.20153 0.0
C526 C 0.87143 0.38488 0.20188 0.0
C527 C 0.88327 0.41933 0.25778 0.0
H528 H 0.81963 0.44323 0.25207 0.0
C529 C 0.85409 0.49947 0.31682 0.0
C530 C 0.83806 0.51527 0.3058 0.0
C531 C 0.85874 0.47787 0.30516 0.0
C532 C 0.83758 0.43707 0.2536 0.0
H533 H 0.89915 0.33261 0.23902 0.0
H534 H 0.8854 0.36728 0.26258 0.0
H535 H 0.83077 0.40742 0.22918 0.0
H536 H 0.8142 0.52093 0.27401 0.0
H537 H 0.82318 0.48377 0.25278 0.0
H538 H 0.89076 0.44931 0.2809 0.0
C539 C 0.88355 0.36681 0.24188 0.0
C540 C 0.84384 0.41645 0.24063 0.0
C541 C 0.89131 0.347 0.22843 0.0
C542 C 0.82655 0.50897 0.28299 0.0
C543 C 0.83162 0.48757 0.27094 0.0
C544 C 0.8772 0.44018 0.27026 0.0
C545 C 0.87363 0.38592 0.22869 0.0
C546 C 0.8667 0.40741 0.24272 0.0
C547 C 0.84795 0.47176 0.28176 0.0
C548 C 0.85424 0.44935 0.26848 0.0
H549 H 0.87832 0.36514 0.16762 0.0
H550 H 0.86398 0.39951 0.19133 0.0
H551 H 0.90111 0.41281 0.25935 0.0
H552 H 0.86297 0.50374 0.33463 0.0
H553 H 0.87086 0.466 0.31459 0.0
C554 C 0.50266 0.17869 0.71495 0.0
C555 C 0.50938 0.16578 0.69312 0.0
C556 C 0.48132 0.17396 0.72728 0.0
C557 C 0.42249 0.15079 0.71771 0.0
H558 H 0.42447 0.13314 0.78957 0.0
C559 C 0.34206 0.11009 0.76869 0.0
C560 C 0.33908 0.11402 0.79509 0.0
C561 C 0.36228 0.11802 0.75611 0.0
C562 C 0.42339 0.13851 0.76966 0.0
H563 H 0.49874 0.13835 0.66664 0.0
H564 H 0.46115 0.1306 0.68781 0.0
H565 H 0.46051 0.14488 0.76784 0.0
H566 H 0.35438 0.12998 0.82891 0.0
H567 H 0.38903 0.14494 0.80685 0.0
H568 H 0.3854 0.14514 0.71946 0.0
C569 C 0.47255 0.14414 0.69549 0.0
C570 C 0.44413 0.14509 0.75721 0.0
C571 C 0.49409 0.14849 0.6835 0.0
C572 C 0.35634 0.12658 0.80856 0.0
C573 C 0.37632 0.13496 0.7959 0.0
C574 C 0.40164 0.14467 0.73027 0.0
C575 C 0.46611 0.15664 0.71764 0.0
C576 C 0.4439 0.15102 0.73108 0.0
C577 C 0.37979 0.13048 0.76956 0.0
C578 C 0.40181 0.13816 0.75638 0.0
H579 H 0.51413 0.19206 0.72285 0.0
H580 H 0.47667 0.18385 0.74431 0.0
H581 H 0.42189 0.15548 0.69756 0.0
H582 H 0.32911 0.10023 0.7579 0.0
H583 H 0.36439 0.11377 0.73598 0.0
C584 C 0.17369 0.51043 0.71217 0.0
C585 C 0.16235 0.51724 0.68937 0.0
C586 C 0.16689 0.48988 0.72497 0.0
C587 C 0.14064 0.43243 0.71489 0.0
H588 H 0.12066 0.43576 0.78595 0.0
C589 C 0.09476 0.35416 0.76457 0.0
C590 C 0.09854 0.35082 0.79093 0.0
C591 C 0.10341 0.37424 0.75226 0.0
C592 C 0.1266 0.43432 0.76626 0.0
H593 H 0.13536 0.50765 0.66184 0.0
H594 H 0.12397 0.47155 0.68389 0.0
H595 H 0.13523 0.471 0.76461 0.0
H596 H 0.1148 0.36538 0.82501 0.0
H597 H 0.13082 0.39974 0.80348 0.0
H598 H 0.13273 0.39575 0.71648 0.0
C599 C 0.1379 0.48223 0.69195 0.0
C600 C 0.13483 0.45458 0.75405 0.0
C601 C 0.14433 0.50296 0.67947 0.0
C602 C 0.11144 0.36765 0.80469 0.0
C603 C 0.12047 0.38746 0.79233 0.0
C604 C 0.13283 0.41205 0.72721 0.0
C605 C 0.14903 0.47557 0.71485 0.0
C606 C 0.14168 0.45385 0.7282 0.0
C607 C 0.11641 0.39118 0.76598 0.0
C608 C 0.12545 0.41274 0.75301 0.0
H609 H 0.1876 0.52111 0.72026 0.0
H610 H 0.17574 0.48502 0.74261 0.0
H611 H 0.14602 0.43143 0.69496 0.0
H612 H 0.08471 0.34151 0.75356 0.0
H613 H 0.0995 0.37662 0.73209 0.0
C614 C 0.34768 0.8875 0.22663 0.0
C615 C 0.34827 0.89232 0.2002 0.0
C616 C 0.36776 0.87928 0.23925 0.0
C617 C 0.41633 0.87817 0.26322 0.0
H618 H 0.4584 0.83273 0.23196 0.0
C619 C 0.50867 0.86155 0.30347 0.0
C620 C 0.51623 0.83807 0.30567 0.0
C621 C 0.48835 0.86715 0.2898 0.0
C622 C 0.44674 0.8453 0.24101 0.0
H623 H 0.3702 0.89191 0.16613 0.0
H624 H 0.40528 0.87778 0.18817 0.0
H625 H 0.4219 0.84351 0.21014 0.0
H626 H 0.50857 0.80215 0.29439 0.0
H627 H 0.4729 0.812 0.27055 0.0
H628 H 0.44094 0.87984 0.29417 0.0
C629 C 0.38926 0.88009 0.19912 0.0
C630 C 0.42595 0.85164 0.22841 0.0
C631 C 0.36919 0.88833 0.18652 0.0
C632 C 0.50328 0.82041 0.29313 0.0
C633 C 0.48287 0.82605 0.27939 0.0
C634 C 0.43709 0.87189 0.27575 0.0
C635 C 0.38885 0.87569 0.22568 0.0
C636 C 0.41056 0.86824 0.23934 0.0
C637 C 0.47499 0.84945 0.27795 0.0
C638 C 0.45263 0.85552 0.26473 0.0
H639 H 0.33178 0.89033 0.23767 0.0
H640 H 0.36677 0.87577 0.25966 0.0
H641 H 0.40501 0.89118 0.27205 0.0
H642 H 0.51829 0.87569 0.31261 0.0
H643 H 0.48304 0.88541 0.28859 0.0
C644 C 0.82077 0.49247 0.70272 0.0
C645 C 0.83829 0.47852 0.69122 0.0
C646 C 0.82665 0.51361 0.71488 0.0
C647 C 0.87301 0.55895 0.71654 0.0
H648 H 0.84568 0.57569 0.78226 0.0
C649 C 0.89202 0.62711 0.80481 0.0
C650 C 0.89608 0.64794 0.79102 0.0
C651 C 0.88331 0.60716 0.7924 0.0
C652 C 0.85351 0.57121 0.76394 0.0
H653 H 0.87581 0.47579 0.68394 0.0
H654 H 0.88593 0.5124 0.70521 0.0
H655 H 0.83397 0.53911 0.76127 0.0
H656 H 0.89387 0.66438 0.75354 0.0
H657 H 0.87853 0.62955 0.73186 0.0
H658 H 0.89296 0.5907 0.71944 0.0
C659 C 0.86763 0.50719 0.70451 0.0
C660 C 0.84663 0.55039 0.75181 0.0
C661 C 0.8618 0.48608 0.69245 0.0
C662 C 0.89099 0.64854 0.76465 0.0
C663 C 0.88231 0.62857 0.75222 0.0
C664 C 0.87982 0.57977 0.72861 0.0
C665 C 0.85013 0.52129 0.7157 0.0
C666 C 0.85651 0.54391 0.72811 0.0
C667 C 0.87851 0.60761 0.76593 0.0
C668 C 0.87032 0.58604 0.75256 0.0
H669 H 0.80249 0.48721 0.70214 0.0
H670 H 0.81275 0.52417 0.7232 0.0
H671 H 0.88072 0.5546 0.69812 0.0
H672 H 0.8958 0.62611 0.82516 0.0
H673 H 0.88086 0.59122 0.80345 0.0
C674 C 0.65577 0.10825 0.22749 0.0
C675 C 0.654 0.10074 0.20188 0.0
C676 C 0.63626 0.11778 0.24008 0.0
C677 C 0.57724 0.14371 0.22906 0.0
H678 H 0.56478 0.1209 0.29789 0.0
C679 C 0.49553 0.13486 0.30487 0.0
C680 C 0.48633 0.15782 0.30501 0.0
C681 C 0.51647 0.12981 0.29212 0.0
C682 C 0.56798 0.12739 0.27865 0.0
H683 H 0.6306 0.09776 0.16917 0.0
H684 H 0.59651 0.11411 0.19121 0.0
H685 H 0.60063 0.10895 0.27595 0.0
H686 H 0.49183 0.1934 0.29116 0.0
H687 H 0.52858 0.18447 0.26878 0.0
H688 H 0.54413 0.1616 0.2316 0.0
C689 C 0.61301 0.11292 0.2015 0.0
C690 C 0.58867 0.12077 0.26619 0.0
C691 C 0.6325 0.10338 0.18894 0.0
C692 C 0.49839 0.17552 0.29148 0.0
C693 C 0.51941 0.17041 0.2786 0.0
C694 C 0.55652 0.1504 0.24159 0.0
C695 C 0.61459 0.12002 0.2273 0.0
C696 C 0.5934 0.12858 0.24112 0.0
C697 C 0.52882 0.14755 0.27911 0.0
C698 C 0.5515 0.14198 0.26636 0.0
H699 H 0.67216 0.10655 0.23792 0.0
H700 H 0.63813 0.12334 0.25987 0.0
H701 H 0.58051 0.15023 0.20986 0.0
H702 H 0.48669 0.12069 0.31487 0.0
H703 H 0.52299 0.11191 0.29241 0.0
C704 C 0.67534 0.99308 0.78263 0.0
C705 C 0.66332 0.98747 0.8054 0.0
C706 C 0.67096 0.01443 0.77008 0.0
C707 C 0.64928 0.07429 0.77981 0.0
H708 H 0.62628 0.07092 0.70986 0.0
C709 C 0.60065 0.15209 0.73305 0.0
C710 C 0.60298 0.15566 0.70652 0.0
C711 C 0.61031 0.13214 0.74464 0.0
C712 C 0.63312 0.07236 0.72919 0.0
H713 H 0.63812 0.00012 0.83346 0.0
H714 H 0.63101 0.03753 0.81195 0.0
H715 H 0.64067 0.03545 0.73091 0.0
H716 H 0.61761 0.14152 0.67134 0.0
H717 H 0.63528 0.10723 0.69161 0.0
H718 H 0.6421 0.11113 0.77823 0.0
C719 C 0.64357 0.02537 0.80366 0.0
C720 C 0.64131 0.05197 0.74123 0.0
C721 C 0.64754 0.00391 0.81586 0.0
C722 C 0.61539 0.1391 0.69183 0.0
C723 C 0.62539 0.11935 0.70347 0.0
C724 C 0.64148 0.09476 0.76766 0.0
C725 C 0.65495 0.03069 0.78049 0.0
C726 C 0.64903 0.05269 0.76679 0.0
C727 C 0.62287 0.11549 0.73003 0.0
C728 C 0.63282 0.09401 0.74235 0.0
H729 H 0.68753 0.98068 0.77412 0.0
H730 H 0.67995 0.01821 0.75221 0.0
H731 H 0.65533 0.07529 0.79951 0.0
H732 H 0.59102 0.16452 0.7448 0.0
H733 H 0.60752 0.12961 0.76502 0.0
C734 C 0.12959 0.39895 0.31157 0.0
C735 C 0.15111 0.39504 0.29913 0.0
C736 C 0.10877 0.38985 0.30144 0.0
C737 C 0.08398 0.36418 0.2412 0.0
H738 H 0.032 0.3485 0.2863 0.0
C739 C 0.998 0.32004 0.20644 0.0
C740 C 0.97895 0.33561 0.20884 0.0
C741 C 0.01903 0.32447 0.21947 0.0
C742 C 0.04649 0.35269 0.27358 0.0
H743 H 0.16797 0.37811 0.26677 0.0
H744 H 0.13194 0.36108 0.24976 0.0
H745 H 0.06931 0.36137 0.30471 0.0
H746 H 0.96628 0.36707 0.22785 0.0
H747 H 0.00283 0.37424 0.25144 0.0
H748 H 0.06108 0.35475 0.21018 0.0
C749 C 0.13079 0.37196 0.26677 0.0
C750 C 0.0678 0.36033 0.28403 0.0
C751 C 0.15153 0.38158 0.27658 0.0
C752 C 0.98076 0.35484 0.22565 0.0
C753 C 0.00156 0.35891 0.23917 0.0
C754 C 0.06288 0.356 0.23085 0.0
C755 C 0.10905 0.3761 0.27893 0.0
C756 C 0.08675 0.36657 0.26796 0.0
C757 C 0.02103 0.34412 0.23561 0.0
C758 C 0.04391 0.35051 0.24694 0.0
H759 H 0.12877 0.40944 0.32891 0.0
H760 H 0.09243 0.39398 0.3111 0.0
H761 H 0.09784 0.36924 0.22808 0.0
H762 H 0.99709 0.3052 0.19344 0.0
H763 H 0.03392 0.31289 0.21649 0.0
C764 C 0.35982 0.01638 0.79719 0.0
C765 C 0.33633 0.02343 0.80067 0.0
C766 C 0.36514 0.99514 0.78512 0.0
C767 C 0.37096 0.94323 0.77487 0.0
H768 H 0.33736 0.922 0.71442 0.0
C769 C 0.38596 0.85098 0.73212 0.0
C770 C 0.38775 0.84955 0.70527 0.0
C771 C 0.37828 0.87171 0.74385 0.0
C772 C 0.34698 0.92774 0.73122 0.0
H773 H 0.3 0.01377 0.79358 0.0
H774 H 0.30934 0.9765 0.77267 0.0
H775 H 0.32708 0.95964 0.734 0.0
H776 H 0.38261 0.86857 0.66962 0.0
H777 H 0.36953 0.90483 0.69008 0.0
H778 H 0.39127 0.91173 0.77177 0.0
C779 C 0.32363 0.98758 0.77915 0.0
C780 C 0.34092 0.94919 0.7426 0.0
C781 C 0.31828 0.00892 0.79122 0.0
C782 C 0.38139 0.86913 0.69036 0.0
C783 C 0.37374 0.88987 0.70209 0.0
C784 C 0.377 0.92183 0.76352 0.0
C785 C 0.34713 0.98033 0.77625 0.0
C786 C 0.35298 0.95726 0.76444 0.0
C787 C 0.37226 0.89146 0.72898 0.0
C788 C 0.36518 0.91387 0.74148 0.0
H789 H 0.37421 0.02718 0.80397 0.0
H790 H 0.38343 0.99032 0.78272 0.0
H791 H 0.38038 0.94876 0.7919 0.0
H792 H 0.39065 0.83614 0.74411 0.0
H793 H 0.37703 0.87224 0.7646 0.0
C794 C 0.84805 0.61018 0.2641 0.0
C795 C 0.84785 0.60753 0.29091 0.0
C796 C 0.86824 0.61825 0.25156 0.0
C797 C 0.92482 0.64914 0.26265 0.0
H798 H 0.94371 0.61747 0.20004 0.0
C799 C 0.01204 0.63617 0.19484 0.0
C800 C 0.01982 0.65951 0.19216 0.0
C801 C 0.99065 0.63118 0.20674 0.0
C802 C 0.93875 0.62643 0.21757 0.0
H803 H 0.8685 0.61147 0.32565 0.0
H804 H 0.90376 0.62519 0.30379 0.0
H805 H 0.90712 0.60638 0.22101 0.0
H806 H 0.01123 0.69592 0.20042 0.0
H807 H 0.97369 0.68714 0.22114 0.0
H808 H 0.95688 0.66869 0.25957 0.0
C809 C 0.88827 0.6214 0.29244 0.0
C810 C 0.9176 0.62027 0.22942 0.0
C811 C 0.8681 0.61335 0.30495 0.0
C812 C 0.00582 0.67774 0.20217 0.0
C813 C 0.98433 0.67271 0.21411 0.0
C814 C 0.946 0.65531 0.25077 0.0
C815 C 0.88864 0.62382 0.26557 0.0
C816 C 0.91049 0.63137 0.25225 0.0
C817 C 0.9764 0.64937 0.21627 0.0
C818 C 0.95334 0.64381 0.22827 0.0
H819 H 0.83267 0.60591 0.25278 0.0
H820 H 0.86785 0.62018 0.23087 0.0
H821 H 0.91971 0.65824 0.28004 0.0
H822 H 0.02239 0.62162 0.18759 0.0
H823 H 0.98532 0.61297 0.20857 0.0
C824 C 0.68012 0.99107 0.20982 0.0
C825 C 0.66537 0.01079 0.21149 0.0
C826 C 0.67499 0.97071 0.22387 0.0
C827 C 0.62424 0.94244 0.25719 0.0
H828 H 0.67136 0.89745 0.27923 0.0
C829 C 0.60637 0.86388 0.3249 0.0
C830 C 0.60782 0.84226 0.31193 0.0
C831 C 0.61539 0.8843 0.31375 0.0
C832 C 0.65811 0.90994 0.2731 0.0
H833 H 0.63485 0.02552 0.23038 0.0
H834 H 0.62676 0.99081 0.25615 0.0
H835 H 0.6837 0.9344 0.25919 0.0
H836 H 0.62075 0.82485 0.27767 0.0
H837 H 0.63721 0.86069 0.2585 0.0
H838 H 0.5988 0.91819 0.27202 0.0
C839 C 0.64156 0.99035 0.24309 0.0
C840 C 0.66509 0.93103 0.26149 0.0
C841 C 0.64632 0.01039 0.22857 0.0
C842 C 0.6193 0.84129 0.28804 0.0
C843 C 0.62879 0.86168 0.27713 0.0
C844 C 0.61736 0.92166 0.26924 0.0
C845 C 0.65529 0.96989 0.24028 0.0
C846 C 0.64822 0.94759 0.25332 0.0
C847 C 0.62653 0.88335 0.28975 0.0
C848 C 0.63421 0.90526 0.27719 0.0
H849 H 0.69482 0.99093 0.19658 0.0
H850 H 0.6859 0.95535 0.22094 0.0
H851 H 0.61062 0.95425 0.25054 0.0
H852 H 0.59767 0.8652 0.34333 0.0
H853 H 0.61345 0.90091 0.32371 0.0
C854 C 0.85489 0.37614 0.68724 0.0
C855 C 0.83693 0.38864 0.69979 0.0
C856 C 0.87454 0.36826 0.70091 0.0
C857 C 0.911 0.38391 0.7547 0.0
H858 H 0.9332 0.31945 0.75399 0.0
C859 C 0.99026 0.35663 0.816 0.0
C860 C 0.00582 0.33971 0.80618 0.0
C861 C 0.96878 0.36097 0.80395 0.0
C862 C 0.9275 0.33761 0.75411 0.0
H863 H 0.82529 0.40253 0.73642 0.0
H864 H 0.85999 0.38931 0.76013 0.0
H865 H 0.8974 0.32991 0.73067 0.0
H866 H 0.01106 0.31389 0.77616 0.0
H867 H 0.97405 0.32219 0.75429 0.0
H868 H 0.94135 0.39214 0.77693 0.0
C869 C 0.85867 0.38539 0.73982 0.0
C870 C 0.9069 0.34351 0.74088 0.0
C871 C 0.83881 0.39285 0.72628 0.0
C872 C 0.99931 0.32694 0.78423 0.0
C873 C 0.978 0.33165 0.7718 0.0
C874 C 0.93179 0.37816 0.76748 0.0
C875 C 0.87676 0.37318 0.72721 0.0
C876 C 0.89843 0.36668 0.74122 0.0
C877 C 0.96252 0.34892 0.78135 0.0
C878 C 0.94029 0.35489 0.76755 0.0
H879 H 0.85386 0.37268 0.66682 0.0
H880 H 0.88836 0.35899 0.69076 0.0
H881 H 0.90498 0.40199 0.7549 0.0
H882 H 0.99467 0.36652 0.83312 0.0
H883 H 0.95713 0.37387 0.81242 0.0
C884 C 0.38339 0.15161 0.28172 0.0
C885 C 0.39473 0.15065 0.30568 0.0
C886 C 0.37486 0.13107 0.27025 0.0
C887 C 0.388 0.07191 0.26017 0.0
H888 H 0.32191 0.05684 0.25247 0.0
C889 C 0.36023 0.98269 0.21885 0.0
C890 C 0.34009 0.98168 0.20338 0.0
C891 C 0.36538 0.00292 0.23293 0.0
C892 C 0.34044 0.06087 0.25405 0.0
H893 H 0.40583 0.12753 0.33652 0.0
H894 H 0.39168 0.09155 0.3159 0.0
H895 H 0.3335 0.09365 0.27319 0.0
H896 H 0.30933 0.00078 0.19061 0.0
H897 H 0.31886 0.03667 0.21405 0.0
H898 H 0.39533 0.04012 0.24007 0.0
C899 C 0.38909 0.10827 0.30634 0.0
C900 C 0.347 0.08187 0.2661 0.0
C901 C 0.39715 0.12884 0.31808 0.0
C902 C 0.32489 0.0011 0.2026 0.0
C903 C 0.33036 0.02163 0.21617 0.0
C904 C 0.38151 0.05121 0.24765 0.0
C905 C 0.37797 0.10926 0.28235 0.0
C906 C 0.37082 0.08739 0.26937 0.0
C907 C 0.35087 0.02295 0.23129 0.0
C908 C 0.35762 0.04523 0.24459 0.0
H909 H 0.38123 0.1682 0.27178 0.0
H910 H 0.3664 0.13211 0.25165 0.0
H911 H 0.40649 0.07604 0.26233 0.0
H912 H 0.37208 0.9678 0.22001 0.0
H913 H 0.3809 0.00283 0.24495 0.0
C914 C 0.14071 0.61439 0.67876 0.0
C915 C 0.16074 0.60985 0.69375 0.0
C916 C 0.12017 0.62306 0.69014 0.0
C917 C 0.09018 0.62341 0.7525 0.0
H918 H 0.04861 0.66891 0.72055 0.0
C919 C 0.00017 0.67679 0.78044 0.0
C920 C 0.9872 0.65789 0.79062 0.0
C921 C 0.02139 0.67273 0.76746 0.0
C922 C 0.06014 0.65632 0.72976 0.0
H923 H 0.17532 0.61176 0.73217 0.0
H924 H 0.13962 0.62702 0.75194 0.0
H925 H 0.08643 0.65954 0.7004 0.0
H926 H 0.98593 0.61981 0.79394 0.0
H927 H 0.02257 0.61289 0.77141 0.0
H928 H 0.0641 0.62011 0.7818 0.0
C929 C 0.13962 0.62355 0.73149 0.0
C930 C 0.08168 0.65081 0.71814 0.0
C931 C 0.16011 0.6149 0.72014 0.0
C932 C 0.99553 0.63486 0.78671 0.0
C933 C 0.01663 0.63085 0.77386 0.0
C934 C 0.06871 0.62881 0.76399 0.0
C935 C 0.11927 0.62732 0.71673 0.0
C936 C 0.09686 0.63418 0.72934 0.0
C937 C 0.03004 0.64971 0.76453 0.0
C938 C 0.05332 0.64511 0.75264 0.0
H939 H 0.1407 0.6107 0.65836 0.0
H940 H 0.10474 0.62559 0.67828 0.0
H941 H 0.1013 0.61032 0.76149 0.0
H942 H 0.99425 0.69473 0.78303 0.0
H943 H 0.03139 0.68761 0.76047 0.0
C944 C 0.22898 0.52821 0.59083 0.0
C945 C 0.2146 0.54814 0.58775 0.0
C946 C 0.2357 0.5149 0.56947 0.0
C947 C 0.24661 0.51122 0.50239 0.0
H948 H 0.20398 0.45828 0.49777 0.0
C949 C 0.22346 0.46774 0.40603 0.0
C950 C 0.21339 0.44528 0.40586 0.0
C951 C 0.23034 0.47806 0.4292 0.0
C952 C 0.21665 0.47242 0.49881 0.0
H953 H 0.1975 0.57079 0.55997 0.0
H954 H 0.20993 0.54783 0.52256 0.0
H955 H 0.20523 0.48151 0.53673 0.0
H956 H 0.20447 0.41499 0.42894 0.0
H957 H 0.21826 0.43202 0.46915 0.0
H958 H 0.25833 0.50222 0.46465 0.0
C959 C 0.21569 0.54246 0.54151 0.0
C960 C 0.21715 0.48585 0.5212 0.0
C961 C 0.20849 0.55546 0.56287 0.0
C962 C 0.21205 0.43246 0.42877 0.0
C963 C 0.21968 0.44242 0.45182 0.0
C964 C 0.24659 0.49741 0.48013 0.0
C965 C 0.22872 0.52175 0.54476 0.0
C966 C 0.23163 0.50566 0.52286 0.0
C967 C 0.22783 0.46583 0.4526 0.0
C968 C 0.23101 0.47824 0.47767 0.0
H969 H 0.23381 0.5221 0.60981 0.0
H970 H 0.24554 0.49879 0.57229 0.0
H971 H 0.25789 0.52654 0.50341 0.0
H972 H 0.22442 0.478 0.38852 0.0
H973 H 0.2362 0.49615 0.42876 0.0
C974 C 0.54614 0.79977 0.43929 0.0
C975 C 0.54166 0.79018 0.41492 0.0
C976 C 0.53349 0.79224 0.46069 0.0
C977 C 0.47571 0.77089 0.47735 0.0
H978 H 0.5029 0.76742 0.54554 0.0
C979 C 0.44805 0.77243 0.5923 0.0
C980 C 0.43383 0.79268 0.5917 0.0
C981 C 0.45904 0.76434 0.56993 0.0
C982 C 0.49496 0.76782 0.52664 0.0
H983 H 0.52105 0.76442 0.39406 0.0
H984 H 0.4985 0.75151 0.43163 0.0
H985 H 0.52851 0.76671 0.50799 0.0
H986 H 0.41847 0.81909 0.56674 0.0
H987 H 0.43753 0.80502 0.52792 0.0
H988 H 0.44222 0.77313 0.49606 0.0
C989 C 0.51195 0.76481 0.43404 0.0
C990 C 0.50966 0.76762 0.50515 0.0
C991 C 0.52491 0.77213 0.4126 0.0
C992 C 0.42948 0.80358 0.56795 0.0
C993 C 0.44026 0.79537 0.5456 0.0
C994 C 0.461 0.77124 0.49887 0.0
C995 C 0.51586 0.7751 0.45821 0.0
C996 C 0.50025 0.77006 0.48035 0.0
C997 C 0.45577 0.77615 0.54648 0.0
C998 C 0.47054 0.7706 0.52376 0.0
H999 H 0.55905 0.81359 0.44174 0.0
H1000 H 0.53673 0.80072 0.47897 0.0
H1001 H 0.46794 0.77289 0.45849 0.0
H1002 H 0.45172 0.76355 0.61027 0.0
H1003 H 0.47074 0.74935 0.57113 0.0
C1004 C 0.77948 0.543 0.40756 0.0
C1005 C 0.79657 0.56085 0.40682 0.0
C1006 C 0.77498 0.5309 0.43048 0.0
C1007 C 0.76601 0.5108 0.48491 0.0
H1008 H 0.82562 0.49442 0.51636 0.0
C1009 C 0.77834 0.46104 0.58249 0.0
C1010 C 0.79727 0.44512 0.58362 0.0
C1011 C 0.77432 0.47434 0.56026 0.0
C1012 C 0.80882 0.49868 0.50773 0.0
H1013 H 0.82026 0.58187 0.42996 0.0
H1014 H 0.81203 0.56121 0.46988 0.0
H1015 H 0.82492 0.52138 0.48035 0.0
H1016 H 0.82535 0.42907 0.56147 0.0
H1017 H 0.81819 0.45199 0.52287 0.0
H1018 H 0.7501 0.48756 0.51247 0.0
C1019 C 0.80266 0.55601 0.45268 0.0
C1020 C 0.80837 0.51444 0.48732 0.0
C1021 C 0.80731 0.56791 0.42984 0.0
C1022 C 0.81089 0.44147 0.56145 0.0
C1023 C 0.80684 0.45465 0.53933 0.0
C1024 C 0.76645 0.49504 0.50564 0.0
C1025 C 0.78739 0.5366 0.45298 0.0
C1026 C 0.78702 0.5207 0.4756 0.0
C1027 C 0.78913 0.47187 0.53882 0.0
C1028 C 0.78795 0.48864 0.51704 0.0
H1029 H 0.77091 0.53718 0.39011 0.0
H1030 H 0.76309 0.51603 0.43012 0.0
H1031 H 0.7493 0.51531 0.47624 0.0
H1032 H 0.76745 0.46421 0.5992 0.0
H1033 H 0.76052 0.48747 0.56039 0.0
C1034 C 0.45003 0.19583 0.43614 0.0
C1035 C 0.4546 0.20561 0.41188 0.0
C1036 C 0.46152 0.20425 0.45792 0.0
C1037 C 0.51716 0.22956 0.4766 0.0
H1038 H 0.48752 0.23182 0.54363 0.0
C1039 C 0.54089 0.23048 0.59258 0.0
C1040 C 0.55606 0.21094 0.59272 0.0
C1041 C 0.53032 0.23789 0.56968 0.0
C1042 C 0.49609 0.2318 0.52505 0.0
H1043 H 0.47415 0.23258 0.39159 0.0
H1044 H 0.49466 0.24706 0.42984 0.0
H1045 H 0.4632 0.23044 0.5051 0.0
H1046 H 0.57362 0.1852 0.56869 0.0
H1047 H 0.55536 0.19813 0.52895 0.0
H1048 H 0.55006 0.22972 0.49664 0.0
C1049 C 0.48205 0.23291 0.43187 0.0
C1050 C 0.48214 0.23079 0.50301 0.0
C1051 C 0.47025 0.22468 0.41004 0.0
C1052 C 0.56184 0.20016 0.56928 0.0
C1053 C 0.55151 0.20772 0.54642 0.0
C1054 C 0.53112 0.23041 0.49867 0.0
C1055 C 0.47805 0.2225 0.45596 0.0
C1056 C 0.49254 0.22875 0.47863 0.0
C1057 C 0.53501 0.22611 0.5465 0.0
C1058 C 0.52071 0.23062 0.52316 0.0
H1059 H 0.43796 0.18123 0.43825 0.0
H1060 H 0.45828 0.19566 0.47615 0.0
H1061 H 0.52568 0.22792 0.45808 0.0
H1062 H 0.53611 0.2392 0.61032 0.0
H1063 H 0.5178 0.25224 0.57026 0.0
C1064 C 0.68648 0.03976 0.07099 0.0
C1065 C 0.69886 0.03604 0.09397 0.0
C1066 C 0.6937 0.02889 0.04832 0.0
C1067 C 0.71954 0.01172 0.00069 0.0
H1068 H 0.72174 0.94363 0.00409 0.0
C1069 C 0.72123 0.95563 0.90897 0.0
C1070 C 0.70195 0.94017 0.90823 0.0
C1071 C 0.72824 0.96579 0.93222 0.0
C1072 C 0.72154 0.96264 0.0029 0.0
H1073 H 0.72883 0.01841 0.11111 0.0
H1074 H 0.74107 0.99881 0.07135 0.0
H1075 H 0.72026 0.96659 0.0438 0.0
H1076 H 0.67621 0.92175 0.93143 0.0
H1077 H 0.68862 0.93919 0.97189 0.0
H1078 H 0.71964 0.00781 0.95984 0.0
C1079 C 0.72594 0.01038 0.071 0.0
C1080 C 0.72083 0.97576 0.02559 0.0
C1081 C 0.71897 0.02163 0.09367 0.0
C1082 C 0.69099 0.93375 0.93137 0.0
C1083 C 0.69823 0.94359 0.95458 0.0
C1084 C 0.72054 0.99863 0.97804 0.0
C1085 C 0.71324 0.0138 0.04818 0.0
C1086 C 0.7189 0.00037 0.02463 0.0
C1087 C 0.7164 0.9603 0.95513 0.0
C1088 C 0.72064 0.97394 0.97892 0.0
H1089 H 0.67102 0.05088 0.07057 0.0
H1090 H 0.68342 0.03161 0.03105 0.0
H1091 H 0.71822 0.03069 -0.00051 0.0
H1092 H 0.73002 0.96092 0.89145 0.0
H1093 H 0.74237 0.97855 0.93216 0.0
C1094 C 0.0413 0.2796 0.91058 0.0
C1095 C 0.05543 0.29977 0.90822 0.0
C1096 C 0.03206 0.27314 0.93453 0.0
C1097 C 0.03625 0.28646 0.00475 0.0
H1098 H 0.96875 0.27679 0.00437 0.0
C1099 C 0.97473 0.32153 0.08199 0.0
C1100 C 0.95906 0.30586 0.0939 0.0
C1101 C 0.98788 0.31449 0.06076 0.0
C1102 C 0.98766 0.27898 0.00476 0.0
H1103 H 0.07234 0.32791 0.92943 0.0
H1104 H 0.05623 0.31694 0.97067 0.0
H1105 H 0.99073 0.27474 0.96405 0.0
H1106 H 0.94463 0.27058 0.09266 0.0
H1107 H 0.96721 0.25854 0.05453 0.0
H1108 H 0.03277 0.29254 0.04517 0.0
C1109 C 0.05227 0.30592 0.95428 0.0
C1110 C 0.0003 0.27773 0.98172 0.0
C1111 C 0.06135 0.31239 0.93048 0.0
C1112 C 0.95662 0.28301 0.08387 0.0
C1113 C 0.96946 0.27612 0.06215 0.0
C1114 C 0.02358 0.28802 0.02763 0.0
C1115 C 0.03699 0.28661 0.95656 0.0
C1116 C 0.0246 0.28244 0.98132 0.0
C1117 C 0.98537 0.29177 0.05064 0.0
C1118 C 0.99909 0.28515 0.02766 0.0
H1119 H 0.03643 0.26948 0.89378 0.0
H1120 H 0.02054 0.25802 0.93569 0.0
H1121 H 0.05502 0.28961 0.00522 0.0
H1122 H 0.97717 0.33918 0.08933 0.0
H1123 H -0.00014 0.32694 0.052 0.0
C1124 C 0.27594 0.04077 0.90889 0.0
C1125 C 0.29416 0.05749 0.90877 0.0
C1126 C 0.27027 0.02867 0.93147 0.0
C1127 C 0.27789 0.0287 0.00205 0.0
H1128 H 0.28235 0.96095 0.99511 0.0
C1129 C 0.3127 0.94873 0.06686 0.0
C1130 C 0.30067 0.95236 0.0901 0.0
C1131 C 0.30553 0.96016 0.04448 0.0
C1132 C 0.28079 0.97982 0.99731 0.0
H1133 H 0.31958 0.07574 0.93255 0.0
H1134 H 0.30949 0.0549 0.97186 0.0
H1135 H 0.28073 0.98555 0.95668 0.0
H1136 H 0.27111 0.97019 0.10786 0.0
H1137 H 0.25886 0.9906 0.06866 0.0
H1138 H 0.27902 0.02302 0.04269 0.0
C1139 C 0.29967 0.05104 0.95455 0.0
C1140 C 0.27967 0.99389 0.97534 0.0
C1141 C 0.30557 0.06286 0.93197 0.0
C1142 C 0.28075 0.96703 0.09025 0.0
C1143 C 0.27378 0.97878 0.06788 0.0
C1144 C 0.27874 0.01462 0.02403 0.0
C1145 C 0.28241 0.03338 0.9544 0.0
C1146 C 0.27902 0.01851 0.9775 0.0
C1147 C 0.28633 0.9757 0.04487 0.0
C1148 C 0.28101 0.99009 0.02185 0.0
H1149 H 0.26683 0.03622 0.89132 0.0
H1150 H 0.25681 0.01521 0.93087 0.0
H1151 H 0.27724 0.04763 0.00424 0.0
H1152 H 0.32801 0.93742 0.06606 0.0
H1153 H 0.31569 0.95762 0.0271 0.0
C1154 C 0.96872 0.71696 0.90172 0.0
C1155 C 0.95382 0.69723 0.90186 0.0
C1156 C 0.98012 0.72407 0.92425 0.0
C1157 C 0.97997 0.71763 0.99493 0.0
H1158 H 0.04793 0.71959 0.98913 0.0
C1159 C 0.06131 0.69019 0.06133 0.0
C1160 C 0.05586 0.70148 0.08458 0.0
C1161 C 0.05002 0.69667 0.03863 0.0
C1162 C 0.02896 0.71939 0.99101 0.0
H1163 H 0.93806 0.67043 0.92598 0.0
H1164 H 0.95766 0.68299 0.96517 0.0
H1165 H 0.02385 0.7184 0.95029 0.0
H1166 H 0.03505 0.72919 0.10203 0.0
H1167 H 0.01495 0.74023 0.06223 0.0
H1168 H 0.98511 0.71746 0.03565 0.0
C1169 C 0.96064 0.6929 0.94771 0.0
C1170 C 0.01518 0.71889 0.9688 0.0
C1171 C 0.94956 0.68559 0.9252 0.0
C1172 C 0.03964 0.72016 0.08441 0.0
C1173 C 0.02806 0.72642 0.0617 0.0
C1174 C 0.99374 0.71838 0.01714 0.0
C1175 C 0.97646 0.71185 0.94737 0.0
C1176 C 0.99059 0.71714 0.97057 0.0
C1177 C 0.03283 0.71441 0.03869 0.0
C1178 C 0.01839 0.71841 0.01539 0.0
H1179 H 0.97237 0.72628 0.88403 0.0
H1180 H 0.99218 0.73879 0.9235 0.0
H1181 H 0.96104 0.71647 0.99682 0.0
H1182 H 0.07384 0.67584 0.06079 0.0
H1183 H 0.0539 0.68693 0.02125 0.0
loop_
_geom_bond_atom_site_label_1
_geom_bond_atom_site_label_2
_geom_bond_distance
_geom_bond_site_symmetry_2
_ccdc_geom_bond_type
Co0 O1 2.216 . S
Co0 O2 2.091 . S
Co0 O4 2.004 . S
Co0 O10 2.021 . S
Co0 O12 2.137 . S
Co0 O13 2.244 . S
O1 Co0 2.216 . S
O1 C8 1.247 . S
O2 Co0 2.091 . S
O2 C8 1.261 . S
C3 O12 1.247 . S
C3 O13 1.272 . S
O4 Co0 2.004 . S
O4 C9 1.259 . S
Co5 O6 2.061 . S
Co5 O11 2.052 . S
Co5 O13 2.135 . S
O6 Co5 2.061 . S
O6 C9 1.235 . S
C7 O10 1.238 . S
C7 O11 1.241 . S
C8 O1 1.247 . S
C8 O2 1.261 . S
C9 O4 1.259 . S
C9 O6 1.235 . S
O10 Co0 2.021 . S
O10 C7 1.238 . S
O11 Co5 2.052 . S
O11 C7 1.241 . S
O12 Co0 2.137 . S
O12 C3 1.247 . S
O13 Co0 2.244 . S
O13 C3 1.272 . S
O13 Co5 2.135 . S
Co14 O15 2.216 . S
Co14 O16 2.091 . S
Co14 O18 2.004 . S
Co14 O24 2.021 . S
Co14 O26 2.137 . S
Co14 O27 2.244 . S
O15 Co14 2.216 . S
O15 C22 1.247 . S
O16 Co14 2.091 . S
O16 C22 1.261 . S
C17 O26 1.247 . S
C17 O27 1.272 . S
O18 Co14 2.004 . S
O18 C23 1.259 . S
Co19 O20 2.061 . S
Co19 O25 2.052 . S
Co19 O27 2.135 . S
O20 Co19 2.061 . S
O20 C23 1.235 . S
C21 O24 1.238 . S
C21 O25 1.241 . S
C22 O15 1.247 . S
C22 O16 1.261 . S
C23 O18 1.259 . S
C23 O20 1.235 . S
O24 Co14 2.021 . S
O24 C21 1.238 . S
O25 Co19 2.052 . S
O25 C21 1.241 . S
O26 Co14 2.137 . S
O26 C17 1.247 . S
O27 Co14 2.244 . S
O27 C17 1.272 . S
O27 Co19 2.135 . S
Co28 O29 2.216 . S
Co28 O30 2.091 . S
Co28 O32 2.004 . S
Co28 O38 2.021 . S
Co28 O40 2.137 . S
Co28 O41 2.244 . S
O29 Co28 2.216 . S
O29 C36 1.247 . S
O30 Co28 2.091 . S
O30 C36 1.261 . S
C31 O40 1.247 . S
C31 O41 1.272 . S
O32 Co28 2.004 . S
O32 C37 1.259 . S
Co33 O34 2.061 . S
Co33 O39 2.052 . S
Co33 O41 2.135 . S
O34 Co33 2.061 . S
O34 C37 1.235 . S
C35 O38 1.238 . S
C35 O39 1.241 . S
C36 O29 1.247 . S
C36 O30 1.261 . S
C37 O32 1.259 . S
C37 O34 1.235 . S
O38 Co28 2.021 . S
O38 C35 1.238 . S
O39 Co33 2.052 . S
O39 C35 1.241 . S
O40 Co28 2.137 . S
O40 C31 1.247 . S
O41 Co28 2.244 . S
O41 C31 1.272 . S
O41 Co33 2.135 . S
Co42 O43 2.216 . S
Co42 O44 2.091 . S
Co42 O46 2.004 . S
Co42 O52 2.021 . S
Co42 O54 2.137 . S
Co42 O55 2.244 . S
O43 Co42 2.216 . S
O43 C50 1.247 . S
O44 Co42 2.091 . S
O44 C50 1.261 . S
C45 O54 1.247 . S
C45 O55 1.272 . S
O46 Co42 2.004 . S
O46 C51 1.259 . S
Co47 O48 2.061 . S
Co47 O53 2.052 . S
Co47 O55 2.135 . S
O48 Co47 2.061 . S
O48 C51 1.235 . S
C49 O52 1.238 . S
C49 O53 1.241 . S
C50 O43 1.247 . S
C50 O44 1.261 . S
C51 O46 1.259 . S
C51 O48 1.235 . S
O52 Co42 2.021 . S
O52 C49 1.238 . S
O53 Co47 2.052 . S
O53 C49 1.241 . S
O54 Co42 2.137 . S
O54 C45 1.247 . S
O55 Co42 2.244 . S
O55 C45 1.272 . S
O55 Co47 2.135 . S
Co56 O57 2.216 . S
Co56 O58 2.091 . S
Co56 O60 2.004 . S
Co56 O66 2.021 . S
Co56 O68 2.137 . S
Co56 O69 2.244 . S
O57 Co56 2.216 . S
O57 C64 1.247 . S
O58 Co56 2.091 . S
O58 C64 1.261 . S
C59 O68 1.247 . S
C59 O69 1.272 . S
O60 Co56 2.004 . S
O60 C65 1.259 . S
Co61 O62 2.061 . S
Co61 O67 2.052 . S
Co61 O69 2.135 . S
O62 Co61 2.061 . S
O62 C65 1.235 . S
C63 O66 1.238 . S
C63 O67 1.241 . S
C64 O57 1.247 . S
C64 O58 1.261 . S
C65 O60 1.259 . S
C65 O62 1.235 . S
O66 Co56 2.021 . S
O66 C63 1.238 . S
O67 Co61 2.052 . S
O67 C63 1.241 . S
O68 Co56 2.137 . S
O68 C59 1.247 . S
O69 Co56 2.244 . S
O69 C59 1.272 . S
O69 Co61 2.135 . S
Co70 O71 2.216 . S
Co70 O72 2.091 . S
Co70 O74 2.004 . S
Co70 O80 2.021 . S
Co70 O82 2.137 . S
Co70 O83 2.244 . S
O71 Co70 2.216 . S
O71 C78 1.247 . S
O72 Co70 2.091 . S
O72 C78 1.261 . S
C73 O82 1.247 . S
C73 O83 1.272 . S
O74 Co70 2.004 . S
O74 C79 1.259 . S
Co75 O76 2.061 . S
Co75 O81 2.052 . S
Co75 O83 2.135 . S
O76 Co75 2.061 . S
O76 C79 1.235 . S
C77 O80 1.238 . S
C77 O81 1.241 . S
C78 O71 1.247 . S
C78 O72 1.261 . S
C79 O74 1.259 . S
C79 O76 1.235 . S
O80 Co70 2.021 . S
O80 C77 1.238 . S
O81 Co75 2.052 . S
O81 C77 1.241 . S
O82 Co70 2.137 . S
O82 C73 1.247 . S
O83 Co70 2.244 . S
O83 C73 1.272 . S
O83 Co75 2.135 . S
Co84 O85 2.216 . S
Co84 O86 2.091 . S
Co84 O88 2.004 . S
Co84 O94 2.021 . S
Co84 O96 2.137 . S
Co84 O97 2.244 . S
O85 Co84 2.216 . S
O85 C92 1.247 . S
O86 Co84 2.091 . S
O86 C92 1.261 . S
C87 O96 1.247 . S
C87 O97 1.272 . S
O88 Co84 2.004 . S
O88 C93 1.259 . S
Co89 O90 2.061 . S
Co89 O95 2.052 . S
Co89 O97 2.135 . S
O90 Co89 2.061 . S
O90 C93 1.235 . S
C91 O94 1.238 . S
C91 O95 1.241 . S
C92 O85 1.247 . S
C92 O86 1.261 . S
C93 O88 1.259 . S
C93 O90 1.235 . S
O94 Co84 2.021 . S
O94 C91 1.238 . S
O95 Co89 2.052 . S
O95 C91 1.241 . S
O96 Co84 2.137 . S
O96 C87 1.247 . S
O97 Co84 2.244 . S
O97 C87 1.272 . S
O97 Co89 2.135 . S
Co98 O99 2.216 . S
Co98 O100 2.091 . S
Co98 O102 2.004 . S
Co98 O108 2.021 . S
Co98 O110 2.137 . S
Co98 O111 2.244 . S
O99 Co98 2.216 . S
O99 C106 1.247 . S
O100 Co98 2.091 . S
O100 C106 1.261 . S
C101 O110 1.247 . S
C101 O111 1.272 . S
O102 Co98 2.004 . S
O102 C107 1.259 . S
Co103 O104 2.061 . S
Co103 O109 2.052 . S
Co103 O111 2.135 . S
O104 Co103 2.061 . S
O104 C107 1.235 . S
C105 O108 1.238 . S
C105 O109 1.241 . S
C106 O99 1.247 . S
C106 O100 1.261 . S
C107 O102 1.259 . S
C107 O104 1.235 . S
O108 Co98 2.021 . S
O108 C105 1.238 . S
O109 Co103 2.052 . S
O109 C105 1.241 . S
O110 Co98 2.137 . S
O110 C101 1.247 . S
O111 Co98 2.244 . S
O111 C101 1.272 . S
O111 Co103 2.135 . S
Co112 O113 2.216 . S
Co112 O114 2.091 . S
Co112 O116 2.004 . S
Co112 O122 2.021 . S
Co112 O124 2.137 . S
Co112 O125 2.244 . S
O113 Co112 2.216 . S
O113 C120 1.247 . S
O114 Co112 2.091 . S
O114 C120 1.261 . S
C115 O124 1.247 . S
C115 O125 1.272 . S
O116 Co112 2.004 . S
O116 C121 1.259 . S
Co117 O118 2.061 . S
Co117 O123 2.052 . S
Co117 O125 2.135 . S
O118 Co117 2.061 . S
O118 C121 1.235 . S
C119 O122 1.238 . S
C119 O123 1.241 . S
C120 O113 1.247 . S
C120 O114 1.261 . S
C121 O116 1.259 . S
C121 O118 1.235 . S
O122 Co112 2.021 . S
O122 C119 1.238 . S
O123 Co117 2.052 . S
O123 C119 1.241 . S
O124 Co112 2.137 . S
O124 C115 1.247 . S
O125 Co112 2.244 . S
O125 C115 1.272 . S
O125 Co117 2.135 . S
Co126 O127 2.216 . S
Co126 O128 2.091 . S
Co126 O130 2.004 . S
Co126 O136 2.021 . S
Co126 O138 2.137 . S
Co126 O139 2.244 . S
O127 Co126 2.216 . S
O127 C134 1.247 . S
O128 Co126 2.091 . S
O128 C134 1.261 . S
C129 O138 1.247 . S
C129 O139 1.272 . S
O130 Co126 2.004 . S
O130 C135 1.259 . S
Co131 O132 2.061 . S
Co131 O137 2.052 . S
Co131 O139 2.135 . S
O132 Co131 2.061 . S
O132 C135 1.235 . S
C133 O136 1.238 . S
C133 O137 1.241 . S
C134 O127 1.247 . S
C134 O128 1.261 . S
C135 O130 1.259 . S
C135 O132 1.235 . S
O136 Co126 2.021 . S
O136 C133 1.238 . S
O137 Co131 2.052 . S
O137 C133 1.241 . S
O138 Co126 2.137 . S
O138 C129 1.247 . S
O139 Co126 2.244 . S
O139 C129 1.272 . S
O139 Co131 2.135 . S
Co140 O141 2.216 . S
Co140 O142 2.091 . S
Co140 O144 2.004 . S
Co140 O150 2.021 . S
Co140 O152 2.137 . S
Co140 O153 2.244 . S
O141 Co140 2.216 . S
O141 C148 1.247 . S
O142 Co140 2.091 . S
O142 C148 1.261 . S
C143 O152 1.247 . S
C143 O153 1.272 . S
O144 Co140 2.004 . S
O144 C149 1.259 . S
Co145 O146 2.061 . S
Co145 O151 2.052 . S
Co145 O153 2.135 . S
O146 Co145 2.061 . S
O146 C149 1.235 . S
C147 O150 1.238 . S
C147 O151 1.241 . S
C148 O141 1.247 . S
C148 O142 1.261 . S
C149 O144 1.259 . S
C149 O146 1.235 . S
O150 Co140 2.021 . S
O150 C147 1.238 . S
O151 Co145 2.052 . S
O151 C147 1.241 . S
O152 Co140 2.137 . S
O152 C143 1.247 . S
O153 Co140 2.244 . S
O153 C143 1.272 . S
O153 Co145 2.135 . S
Co154 O155 2.216 . S
Co154 O156 2.091 . S
Co154 O158 2.004 . S
Co154 O164 2.021 . S
Co154 O166 2.137 . S
Co154 O167 2.244 . S
O155 Co154 2.216 . S
O155 C162 1.247 . S
O156 Co154 2.091 . S
O156 C162 1.261 . S
C157 O166 1.247 . S
C157 O167 1.272 . S
O158 Co154 2.004 . S
O158 C163 1.259 . S
Co159 O160 2.061 . S
Co159 O165 2.052 . S
Co159 O167 2.135 . S
O160 Co159 2.061 . S
O160 C163 1.235 . S
C161 O164 1.238 . S
C161 O165 1.241 . S
C162 O155 1.247 . S
C162 O156 1.261 . S
C163 O158 1.259 . S
C163 O160 1.235 . S
O164 Co154 2.021 . S
O164 C161 1.238 . S
O165 Co159 2.052 . S
O165 C161 1.241 . S
O166 Co154 2.137 . S
O166 C157 1.247 . S
O167 Co154 2.244 . S
O167 C157 1.272 . S
O167 Co159 2.135 . S
Co168 O169 2.216 . S
Co168 O170 2.091 . S
Co168 O172 2.004 . S
Co168 O178 2.021 . S
Co168 O180 2.137 . S
Co168 O181 2.244 . S
O169 Co168 2.216 . S
O169 C176 1.247 . S
O170 Co168 2.091 . S
O170 C176 1.261 . S
C171 O180 1.247 . S
C171 O181 1.272 . S
O172 Co168 2.004 . S
O172 C177 1.259 . S
Co173 O174 2.061 . S
Co173 O179 2.052 . S
Co173 O181 2.135 . S
O174 Co173 2.061 . S
O174 C177 1.235 . S
C175 O178 1.238 . S
C175 O179 1.241 . S
C176 O169 1.247 . S
C176 O170 1.261 . S
C177 O172 1.259 . S
C177 O174 1.235 . S
O178 Co168 2.021 . S
O178 C175 1.238 . S
O179 Co173 2.052 . S
O179 C175 1.241 . S
O180 Co168 2.137 . S
O180 C171 1.247 . S
O181 Co168 2.244 . S
O181 C171 1.272 . S
O181 Co173 2.135 . S
Co182 O183 2.216 . S
Co182 O184 2.091 . S
Co182 O186 2.004 . S
Co182 O192 2.021 . S
Co182 O194 2.137 . S
Co182 O195 2.244 . S
O183 Co182 2.216 . S
O183 C190 1.247 . S
O184 Co182 2.091 . S
O184 C190 1.261 . S
C185 O194 1.247 . S
C185 O195 1.272 . S
O186 Co182 2.004 . S
O186 C191 1.259 . S
Co187 O188 2.061 . S
Co187 O193 2.052 . S
Co187 O195 2.135 . S
O188 Co187 2.061 . S
O188 C191 1.235 . S
C189 O192 1.238 . S
C189 O193 1.241 . S
C190 O183 1.247 . S
C190 O184 1.261 . S
C191 O186 1.259 . S
C191 O188 1.235 . S
O192 Co182 2.021 . S
O192 C189 1.238 . S
O193 Co187 2.052 . S
O193 C189 1.241 . S
O194 Co182 2.137 . S
O194 C185 1.247 . S
O195 Co182 2.244 . S
O195 C185 1.272 . S
O195 Co187 2.135 . S
Co196 O197 2.216 . S
Co196 O198 2.091 . S
Co196 O200 2.004 . S
Co196 O206 2.021 . S
Co196 O208 2.137 . S
Co196 O209 2.244 . S
O197 Co196 2.216 . S
O197 C204 1.247 . S
O198 Co196 2.091 . S
O198 C204 1.261 . S
C199 O208 1.247 . S
C199 O209 1.272 . S
O200 Co196 2.004 . S
O200 C205 1.259 . S
Co201 O202 2.061 . S
Co201 O207 2.052 . S
Co201 O209 2.135 . S
O202 Co201 2.061 . S
O202 C205 1.235 . S
C203 O206 1.238 . S
C203 O207 1.241 . S
C204 O197 1.247 . S
C204 O198 1.261 . S
C205 O200 1.259 . S
C205 O202 1.235 . S
O206 Co196 2.021 . S
O206 C203 1.238 . S
O207 Co201 2.052 . S
O207 C203 1.241 . S
O208 Co196 2.137 . S
O208 C199 1.247 . S
O209 Co196 2.244 . S
O209 C199 1.272 . S
O209 Co201 2.135 . S
Co210 O211 2.216 . S
Co210 O212 2.091 . S
Co210 O214 2.004 . S
Co210 O220 2.021 . S
Co210 O222 2.137 . S
Co210 O223 2.244 . S
O211 Co210 2.216 . S
O211 C218 1.247 . S
O212 Co210 2.091 . S
O212 C218 1.261 . S
C213 O222 1.247 . S
C213 O223 1.272 . S
O214 Co210 2.004 . S
O214 C219 1.259 . S
Co215 O216 2.061 . S
Co215 O221 2.052 . S
Co215 O223 2.135 . S
O216 Co215 2.061 . S
O216 C219 1.235 . S
C217 O220 1.238 . S
C217 O221 1.241 . S
C218 O211 1.247 . S
C218 O212 1.261 . S
C219 O214 1.259 . S
C219 O216 1.235 . S
O220 Co210 2.021 . S
O220 C217 1.238 . S
O221 Co215 2.052 . S
O221 C217 1.241 . S
O222 Co210 2.137 . S
O222 C213 1.247 . S
O223 Co210 2.244 . S
O223 C213 1.272 . S
O223 Co215 2.135 . S
C224 C225 1.349 . S
C224 C226 1.327 . S
C224 H249 0.950 . S
C225 C224 1.349 . S
C225 C241 1.349 . S
C226 C224 1.327 . S
C226 C245 1.429 . S
C226 H250 0.950 . S
C227 C244 1.574 . S
C227 C246 1.368 . S
C227 H251 0.949 . S
H228 C232 0.949 . S
C229 C230 1.349 . S
C229 C231 1.327 . S
C229 H252 0.950 . S
C230 C229 1.349 . S
C230 C242 1.349 . S
C231 C229 1.327 . S
C231 C247 1.429 . S
C231 H253 0.950 . S
C232 H228 0.949 . S
C232 C240 1.574 . S
C232 C248 1.368 . S
H233 C241 0.950 . S
H234 C239 0.950 . S
H235 C240 0.949 . S
H236 C242 0.950 . S
H237 C243 0.950 . S
H238 C244 0.949 . S
C239 H234 0.950 . S
C239 C241 1.327 . S
C239 C245 1.429 . S
C240 C232 1.574 . S
C240 H235 0.949 . S
C240 C246 1.368 . S
C241 C225 1.349 . S
C241 H233 0.950 . S
C241 C239 1.327 . S
C242 C230 1.349 . S
C242 H236 0.950 . S
C242 C243 1.327 . S
C243 H237 0.950 . S
C243 C242 1.327 . S
C243 C247 1.429 . S
C244 C227 1.574 . S
C244 H238 0.949 . S
C244 C248 1.368 . S
C245 C226 1.429 . S
C245 C239 1.429 . S
C245 C246 1.523 . S
C246 C227 1.368 . S
C246 C240 1.368 . S
C246 C245 1.523 . S
C247 C231 1.429 . S
C247 C243 1.429 . S
C247 C248 1.523 . S
C248 C232 1.368 . S
C248 C244 1.368 . S
C248 C247 1.523 . S
H249 C224 0.950 . S
H250 C226 0.950 . S
H251 C227 0.949 . S
H252 C229 0.950 . S
H253 C231 0.950 . S
C254 C255 1.349 . S
C254 C256 1.327 . S
C254 H279 0.950 . S
C255 C254 1.349 . S
C255 C271 1.349 . S
C256 C254 1.327 . S
C256 C275 1.429 . S
C256 H280 0.950 . S
C257 C274 1.574 . S
C257 C276 1.368 . S
C257 H281 0.949 . S
H258 C262 0.949 . S
C259 C260 1.349 . S
C259 C261 1.327 . S
C259 H282 0.950 . S
C260 C259 1.349 . S
C260 C272 1.349 . S
C261 C259 1.327 . S
C261 C277 1.429 . S
C261 H283 0.950 . S
C262 H258 0.949 . S
C262 C270 1.574 . S
C262 C278 1.368 . S
H263 C271 0.950 . S
H264 C269 0.950 . S
H265 C270 0.949 . S
H266 C272 0.950 . S
H267 C273 0.950 . S
H268 C274 0.949 . S
C269 H264 0.950 . S
C269 C271 1.327 . S
C269 C275 1.429 . S
C270 C262 1.574 . S
C270 H265 0.949 . S
C270 C276 1.368 . S
C271 C255 1.349 . S
C271 H263 0.950 . S
C271 C269 1.327 . S
C272 C260 1.349 . S
C272 H266 0.950 . S
C272 C273 1.327 . S
C273 H267 0.950 . S
C273 C272 1.327 . S
C273 C277 1.429 . S
C274 C257 1.574 . S
C274 H268 0.949 . S
C274 C278 1.368 . S
C275 C256 1.429 . S
C275 C269 1.429 . S
C275 C276 1.523 . S
C276 C257 1.368 . S
C276 C270 1.368 . S
C276 C275 1.523 . S
C277 C261 1.429 . S
C277 C273 1.429 . S
C277 C278 1.523 . S
C278 C262 1.368 . S
C278 C274 1.368 . S
C278 C277 1.523 . S
H279 C254 0.950 . S
H280 C256 0.950 . S
H281 C257 0.949 . S
H282 C259 0.950 . S
H283 C261 0.950 . S
C284 C285 1.349 . S
C284 C286 1.327 . S
C284 H309 0.950 . S
C285 C284 1.349 . S
C285 C301 1.349 . S
C286 C284 1.327 . S
C286 C305 1.429 . S
C286 H310 0.950 . S
C287 C304 1.574 . S
C287 C306 1.368 . S
C287 H311 0.949 . S
H288 C292 0.949 . S
C289 C290 1.349 . S
C289 C291 1.327 . S
C289 H312 0.950 . S
C290 C289 1.349 . S
C290 C302 1.349 . S
C291 C289 1.327 . S
C291 C307 1.429 . S
C291 H313 0.950 . S
C292 H288 0.949 . S
C292 C300 1.574 . S
C292 C308 1.368 . S
H293 C301 0.950 . S
H294 C299 0.950 . S
H295 C300 0.949 . S
H296 C302 0.950 . S
H297 C303 0.950 . S
H298 C304 0.949 . S
C299 H294 0.950 . S
C299 C301 1.327 . S
C299 C305 1.429 . S
C300 C292 1.574 . S
C300 H295 0.949 . S
C300 C306 1.368 . S
C301 C285 1.349 . S
C301 H293 0.950 . S
C301 C299 1.327 . S
C302 C290 1.349 . S
C302 H296 0.950 . S
C302 C303 1.327 . S
C303 H297 0.950 . S
C303 C302 1.327 . S
C303 C307 1.429 . S
C304 C287 1.574 . S
C304 H298 0.949 . S
C304 C308 1.368 . S
C305 C286 1.429 . S
C305 C299 1.429 . S
C305 C306 1.523 . S
C306 C287 1.368 . S
C306 C300 1.368 . S
C306 C305 1.523 . S
C307 C291 1.429 . S
C307 C303 1.429 . S
C307 C308 1.523 . S
C308 C292 1.368 . S
C308 C304 1.368 . S
C308 C307 1.523 . S
H309 C284 0.950 . S
H310 C286 0.950 . S
H311 C287 0.949 . S
H312 C289 0.950 . S
H313 C291 0.950 . S
C314 C315 1.349 . S
C314 C316 1.327 . S
C314 H339 0.950 . S
C315 C314 1.349 . S
C315 C331 1.349 . S
C316 C314 1.327 . S
C316 C335 1.429 . S
C316 H340 0.950 . S
C317 C334 1.574 . S
C317 C336 1.368 . S
C317 H341 0.949 . S
H318 C322 0.949 . S
C319 C320 1.349 . S
C319 C321 1.327 . S
C319 H342 0.950 . S
C320 C319 1.349 . S
C320 C332 1.349 . S
C321 C319 1.327 . S
C321 C337 1.429 . S
C321 H343 0.950 . S
C322 H318 0.949 . S
C322 C330 1.574 . S
C322 C338 1.368 . S
H323 C331 0.950 . S
H324 C329 0.950 . S
H325 C330 0.949 . S
H326 C332 0.950 . S
H327 C333 0.950 . S
H328 C334 0.949 . S
C329 H324 0.950 . S
C329 C331 1.327 . S
C329 C335 1.429 . S
C330 C322 1.574 . S
C330 H325 0.949 . S
C330 C336 1.368 . S
C331 C315 1.349 . S
C331 H323 0.950 . S
C331 C329 1.327 . S
C332 C320 1.349 . S
C332 H326 0.950 . S
C332 C333 1.327 . S
C333 H327 0.950 . S
C333 C332 1.327 . S
C333 C337 1.429 . S
C334 C317 1.574 . S
C334 H328 0.949 . S
C334 C338 1.368 . S
C335 C316 1.429 . S
C335 C329 1.429 . S
C335 C336 1.523 . S
C336 C317 1.368 . S
C336 C330 1.368 . S
C336 C335 1.523 . S
C337 C321 1.429 . S
C337 C333 1.429 . S
C337 C338 1.523 . S
C338 C322 1.368 . S
C338 C334 1.368 . S
C338 C337 1.523 . S
H339 C314 0.950 . S
H340 C316 0.950 . S
H341 C317 0.949 . S
H342 C319 0.950 . S
H343 C321 0.950 . S
C344 C345 1.349 . S
C344 C346 1.327 . S
C344 H369 0.950 . S
C345 C344 1.349 . S
C345 C361 1.349 . S
C346 C344 1.327 . S
C346 C365 1.429 . S
C346 H370 0.950 . S
C347 C364 1.574 . S
C347 C366 1.368 . S
C347 H371 0.949 . S
H348 C352 0.949 . S
C349 C350 1.349 . S
C349 C351 1.327 . S
C349 H372 0.950 . S
C350 C349 1.349 . S
C350 C362 1.349 . S
C351 C349 1.327 . S
C351 C367 1.429 . S
C351 H373 0.950 . S
C352 H348 0.949 . S
C352 C360 1.574 . S
C352 C368 1.368 . S
H353 C361 0.950 . S
H354 C359 0.950 . S
H355 C360 0.949 . S
H356 C362 0.950 . S
H357 C363 0.950 . S
H358 C364 0.949 . S
C359 H354 0.950 . S
C359 C361 1.327 . S
C359 C365 1.429 . S
C360 C352 1.574 . S
C360 H355 0.949 . S
C360 C366 1.368 . S
C361 C345 1.349 . S
C361 H353 0.950 . S
C361 C359 1.327 . S
C362 C350 1.349 . S
C362 H356 0.950 . S
C362 C363 1.327 . S
C363 H357 0.950 . S
C363 C362 1.327 . S
C363 C367 1.429 . S
C364 C347 1.574 . S
C364 H358 0.949 . S
C364 C368 1.368 . S
C365 C346 1.429 . S
C365 C359 1.429 . S
C365 C366 1.523 . S
C366 C347 1.368 . S
C366 C360 1.368 . S
C366 C365 1.523 . S
C367 C351 1.429 . S
C367 C363 1.429 . S
C367 C368 1.523 . S
C368 C352 1.368 . S
C368 C364 1.368 . S
C368 C367 1.523 . S
H369 C344 0.950 . S
H370 C346 0.950 . S
H371 C347 0.949 . S
H372 C349 0.950 . S
H373 C351 0.950 . S
C374 C375 1.349 . S
C374 C376 1.327 . S
C374 H399 0.950 . S
C375 C374 1.349 . S
C375 C391 1.349 . S
C376 C374 1.327 . S
C376 C395 1.429 . S
C376 H400 0.950 . S
C377 C394 1.574 . S
C377 C396 1.368 . S
C377 H401 0.949 . S
H378 C382 0.949 . S
C379 C380 1.349 . S
C379 C381 1.327 . S
C379 H402 0.950 . S
C380 C379 1.349 . S
C380 C392 1.349 . S
C381 C379 1.327 . S
C381 C397 1.429 . S
C381 H403 0.950 . S
C382 H378 0.949 . S
C382 C390 1.574 . S
C382 C398 1.368 . S
H383 C391 0.950 . S
H384 C389 0.950 . S
H385 C390 0.949 . S
H386 C392 0.950 . S
H387 C393 0.950 . S
H388 C394 0.949 . S
C389 H384 0.950 . S
C389 C391 1.327 . S
C389 C395 1.429 . S
C390 C382 1.574 . S
C390 H385 0.949 . S
C390 C396 1.368 . S
C391 C375 1.349 . S
C391 H383 0.950 . S
C391 C389 1.327 . S
C392 C380 1.349 . S
C392 H386 0.950 . S
C392 C393 1.327 . S
C393 H387 0.950 . S
C393 C392 1.327 . S
C393 C397 1.429 . S
C394 C377 1.574 . S
C394 H388 0.949 . S
C394 C398 1.368 . S
C395 C376 1.429 . S
C395 C389 1.429 . S
C395 C396 1.523 . S
C396 C377 1.368 . S
C396 C390 1.368 . S
C396 C395 1.523 . S
C397 C381 1.429 . S
C397 C393 1.429 . S
C397 C398 1.523 . S
C398 C382 1.368 . S
C398 C394 1.368 . S
C398 C397 1.523 . S
H399 C374 0.950 . S
H400 C376 0.950 . S
H401 C377 0.949 . S
H402 C379 0.950 . S
H403 C381 0.950 . S
C404 C405 1.349 . S
C404 C406 1.327 . S
C404 H429 0.950 . S
C405 C404 1.349 . S
C405 C421 1.349 . S
C406 C404 1.327 . S
C406 C425 1.429 . S
C406 H430 0.950 . S
C407 C424 1.574 . S
C407 C426 1.368 . S
C407 H431 0.949 . S
H408 C412 0.949 . S
C409 C410 1.349 . S
C409 C411 1.327 . S
C409 H432 0.950 . S
C410 C409 1.349 . S
C410 C422 1.349 . S
C411 C409 1.327 . S
C411 C427 1.429 . S
C411 H433 0.950 . S
C412 H408 0.949 . S
C412 C420 1.574 . S
C412 C428 1.368 . S
H413 C421 0.950 . S
H414 C419 0.950 . S
H415 C420 0.949 . S
H416 C422 0.950 . S
H417 C423 0.950 . S
H418 C424 0.949 . S
C419 H414 0.950 . S
C419 C421 1.327 . S
C419 C425 1.429 . S
C420 C412 1.574 . S
C420 H415 0.949 . S
C420 C426 1.368 . S
C421 C405 1.349 . S
C421 H413 0.950 . S
C421 C419 1.327 . S
C422 C410 1.349 . S
C422 H416 0.950 . S
C422 C423 1.327 . S
C423 H417 0.950 . S
C423 C422 1.327 . S
C423 C427 1.429 . S
C424 C407 1.574 . S
C424 H418 0.949 . S
C424 C428 1.368 . S
C425 C406 1.429 . S
C425 C419 1.429 . S
C425 C426 1.523 . S
C426 C407 1.368 . S
C426 C420 1.368 . S
C426 C425 1.523 . S
C427 C411 1.429 . S
C427 C423 1.429 . S
C427 C428 1.523 . S
C428 C412 1.368 . S
C428 C424 1.368 . S
C428 C427 1.523 . S
H429 C404 0.950 . S
H430 C406 0.950 . S
H431 C407 0.949 . S
H432 C409 0.950 . S
H433 C411 0.950 . S
C434 C435 1.349 . S
C434 C436 1.327 . S
C434 H459 0.950 . S
C435 C434 1.349 . S
C435 C451 1.349 . S
C436 C434 1.327 . S
C436 C455 1.429 . S
C436 H460 0.950 . S
C437 C454 1.574 . S
C437 C456 1.368 . S
C437 H461 0.949 . S
H438 C442 0.949 . S
C439 C440 1.349 . S
C439 C441 1.327 . S
C439 H462 0.950 . S
C440 C439 1.349 . S
C440 C452 1.349 . S
C441 C439 1.327 . S
C441 C457 1.429 . S
C441 H463 0.950 . S
C442 H438 0.949 . S
C442 C450 1.574 . S
C442 C458 1.368 . S
H443 C451 0.950 . S
H444 C449 0.950 . S
H445 C450 0.949 . S
H446 C452 0.950 . S
H447 C453 0.950 . S
H448 C454 0.949 . S
C449 H444 0.950 . S
C449 C451 1.327 . S
C449 C455 1.429 . S
C450 C442 1.574 . S
C450 H445 0.949 . S
C450 C456 1.368 . S
C451 C435 1.349 . S
C451 H443 0.950 . S
C451 C449 1.327 . S
C452 C440 1.349 . S
C452 H446 0.950 . S
C452 C453 1.327 . S
C453 H447 0.950 . S
C453 C452 1.327 . S
C453 C457 1.429 . S
C454 C437 1.574 . S
C454 H448 0.949 . S
C454 C458 1.368 . S
C455 C436 1.429 . S
C455 C449 1.429 . S
C455 C456 1.523 . S
C456 C437 1.368 . S
C456 C450 1.368 . S
C456 C455 1.523 . S
C457 C441 1.429 . S
C457 C453 1.429 . S
C457 C458 1.523 . S
C458 C442 1.368 . S
C458 C454 1.368 . S
C458 C457 1.523 . S
H459 C434 0.950 . S
H460 C436 0.950 . S
H461 C437 0.949 . S
H462 C439 0.950 . S
H463 C441 0.950 . S
C464 C465 1.349 . S
C464 C466 1.327 . S
C464 H489 0.950 . S
C465 C464 1.349 . S
C465 C481 1.349 . S
C466 C464 1.327 . S
C466 C485 1.429 . S
C466 H490 0.950 . S
C467 C484 1.574 . S
C467 C486 1.368 . S
C467 H491 0.949 . S
H468 C472 0.949 . S
C469 C470 1.349 . S
C469 C471 1.327 . S
C469 H492 0.950 . S
C470 C469 1.349 . S
C470 C482 1.349 . S
C471 C469 1.327 . S
C471 C487 1.429 . S
C471 H493 0.950 . S
C472 H468 0.949 . S
C472 C480 1.574 . S
C472 C488 1.368 . S
H473 C481 0.950 . S
H474 C479 0.950 . S
H475 C480 0.949 . S
H476 C482 0.950 . S
H477 C483 0.950 . S
H478 C484 0.949 . S
C479 H474 0.950 . S
C479 C481 1.327 . S
C479 C485 1.429 . S
C480 C472 1.574 . S
C480 H475 0.949 . S
C480 C486 1.368 . S
C481 C465 1.349 . S
C481 H473 0.950 . S
C481 C479 1.327 . S
C482 C470 1.349 . S
C482 H476 0.950 . S
C482 C483 1.327 . S
C483 H477 0.950 . S
C483 C482 1.327 . S
C483 C487 1.429 . S
C484 C467 1.574 . S
C484 H478 0.949 . S
C484 C488 1.368 . S
C485 C466 1.429 . S
C485 C479 1.429 . S
C485 C486 1.523 . S
C486 C467 1.368 . S
C486 C480 1.368 . S
C486 C485 1.523 . S
C487 C471 1.429 . S
C487 C483 1.429 . S
C487 C488 1.523 . S
C488 C472 1.368 . S
C488 C484 1.368 . S
C488 C487 1.523 . S
H489 C464 0.950 . S
H490 C466 0.950 . S
H491 C467 0.949 . S
H492 C469 0.950 . S
H493 C471 0.950 . S
C494 C495 1.349 . S
C494 C496 1.327 . S
C494 H519 0.950 . S
C495 C494 1.349 . S
C495 C511 1.349 . S
C496 C494 1.327 . S
C496 C515 1.429 . S
C496 H520 0.950 . S
C497 C514 1.574 . S
C497 C516 1.368 . S
C497 H521 0.949 . S
H498 C502 0.949 . S
C499 C500 1.349 . S
C499 C501 1.327 . S
C499 H522 0.950 . S
C500 C499 1.349 . S
C500 C512 1.349 . S
C501 C499 1.327 . S
C501 C517 1.429 . S
C501 H523 0.950 . S
C502 H498 0.949 . S
C502 C510 1.574 . S
C502 C518 1.368 . S
H503 C511 0.950 . S
H504 C509 0.950 . S
H505 C510 0.949 . S
H506 C512 0.950 . S
H507 C513 0.950 . S
H508 C514 0.949 . S
C509 H504 0.950 . S
C509 C511 1.327 . S
C509 C515 1.429 . S
C510 C502 1.574 . S
C510 H505 0.949 . S
C510 C516 1.368 . S
C511 C495 1.349 . S
C511 H503 0.950 . S
C511 C509 1.327 . S
C512 C500 1.349 . S
C512 H506 0.950 . S
C512 C513 1.327 . S
C513 H507 0.950 . S
C513 C512 1.327 . S
C513 C517 1.429 . S
C514 C497 1.574 . S
C514 H508 0.949 . S
C514 C518 1.368 . S
C515 C496 1.429 . S
C515 C509 1.429 . S
C515 C516 1.523 . S
C516 C497 1.368 . S
C516 C510 1.368 . S
C516 C515 1.523 . S
C517 C501 1.429 . S
C517 C513 1.429 . S
C517 C518 1.523 . S
C518 C502 1.368 . S
C518 C514 1.368 . S
C518 C517 1.523 . S
H519 C494 0.950 . S
H520 C496 0.950 . S
H521 C497 0.949 . S
H522 C499 0.950 . S
H523 C501 0.950 . S
C524 C525 1.349 . S
C524 C526 1.327 . S
C524 H549 0.950 . S
C525 C524 1.349 . S
C525 C541 1.349 . S
C526 C524 1.327 . S
C526 C545 1.429 . S
C526 H550 0.950 . S
C527 C544 1.574 . S
C527 C546 1.368 . S
C527 H551 0.949 . S
H528 C532 0.949 . S
C529 C530 1.349 . S
C529 C531 1.327 . S
C529 H552 0.950 . S
C530 C529 1.349 . S
C530 C542 1.349 . S
C531 C529 1.327 . S
C531 C547 1.429 . S
C531 H553 0.950 . S
C532 H528 0.949 . S
C532 C540 1.574 . S
C532 C548 1.368 . S
H533 C541 0.950 . S
H534 C539 0.950 . S
H535 C540 0.949 . S
H536 C542 0.950 . S
H537 C543 0.950 . S
H538 C544 0.949 . S
C539 H534 0.950 . S
C539 C541 1.327 . S
C539 C545 1.429 . S
C540 C532 1.574 . S
C540 H535 0.949 . S
C540 C546 1.368 . S
C541 C525 1.349 . S
C541 H533 0.950 . S
C541 C539 1.327 . S
C542 C530 1.349 . S
C542 H536 0.950 . S
C542 C543 1.327 . S
C543 H537 0.950 . S
C543 C542 1.327 . S
C543 C547 1.429 . S
C544 C527 1.574 . S
C544 H538 0.949 . S
C544 C548 1.368 . S
C545 C526 1.429 . S
C545 C539 1.429 . S
C545 C546 1.523 . S
C546 C527 1.368 . S
C546 C540 1.368 . S
C546 C545 1.523 . S
C547 C531 1.429 . S
C547 C543 1.429 . S
C547 C548 1.523 . S
C548 C532 1.368 . S
C548 C544 1.368 . S
C548 C547 1.523 . S
H549 C524 0.950 . S
H550 C526 0.950 . S
H551 C527 0.949 . S
H552 C529 0.950 . S
H553 C531 0.950 . S
C554 C555 1.349 . S
C554 C556 1.327 . S
C554 H579 0.950 . S
C555 C554 1.349 . S
C555 C571 1.349 . S
C556 C554 1.327 . S
C556 C575 1.429 . S
C556 H580 0.950 . S
C557 C574 1.574 . S
C557 C576 1.368 . S
C557 H581 0.949 . S
H558 C562 0.949 . S
C559 C560 1.349 . S
C559 C561 1.327 . S
C559 H582 0.950 . S
C560 C559 1.349 . S
C560 C572 1.349 . S
C561 C559 1.327 . S
C561 C577 1.429 . S
C561 H583 0.950 . S
C562 H558 0.949 . S
C562 C570 1.574 . S
C562 C578 1.368 . S
H563 C571 0.950 . S
H564 C569 0.950 . S
H565 C570 0.949 . S
H566 C572 0.950 . S
H567 C573 0.950 . S
H568 C574 0.949 . S
C569 H564 0.950 . S
C569 C571 1.327 . S
C569 C575 1.429 . S
C570 C562 1.574 . S
C570 H565 0.949 . S
C570 C576 1.368 . S
C571 C555 1.349 . S
C571 H563 0.950 . S
C571 C569 1.327 . S
C572 C560 1.349 . S
C572 H566 0.950 . S
C572 C573 1.327 . S
C573 H567 0.950 . S
C573 C572 1.327 . S
C573 C577 1.429 . S
C574 C557 1.574 . S
C574 H568 0.949 . S
C574 C578 1.368 . S
C575 C556 1.429 . S
C575 C569 1.429 . S
C575 C576 1.523 . S
C576 C557 1.368 . S
C576 C570 1.368 . S
C576 C575 1.523 . S
C577 C561 1.429 . S
C577 C573 1.429 . S
C577 C578 1.523 . S
C578 C562 1.368 . S
C578 C574 1.368 . S
C578 C577 1.523 . S
H579 C554 0.950 . S
H580 C556 0.950 . S
H581 C557 0.949 . S
H582 C559 0.950 . S
H583 C561 0.950 . S
C584 C585 1.349 . S
C584 C586 1.327 . S
C584 H609 0.950 . S
C585 C584 1.349 . S
C585 C601 1.349 . S
C586 C584 1.327 . S
C586 C605 1.429 . S
C586 H610 0.950 . S
C587 C604 1.574 . S
C587 C606 1.368 . S
C587 H611 0.949 . S
H588 C592 0.949 . S
C589 C590 1.349 . S
C589 C591 1.327 . S
C589 H612 0.950 . S
C590 C589 1.349 . S
C590 C602 1.349 . S
C591 C589 1.327 . S
C591 C607 1.429 . S
C591 H613 0.950 . S
C592 H588 0.949 . S
C592 C600 1.574 . S
C592 C608 1.368 . S
H593 C601 0.950 . S
H594 C599 0.950 . S
H595 C600 0.949 . S
H596 C602 0.950 . S
H597 C603 0.950 . S
H598 C604 0.949 . S
C599 H594 0.950 . S
C599 C601 1.327 . S
C599 C605 1.429 . S
C600 C592 1.574 . S
C600 H595 0.949 . S
C600 C606 1.368 . S
C601 C585 1.349 . S
C601 H593 0.950 . S
C601 C599 1.327 . S
C602 C590 1.349 . S
C602 H596 0.950 . S
C602 C603 1.327 . S
C603 H597 0.950 . S
C603 C602 1.327 . S
C603 C607 1.429 . S
C604 C587 1.574 . S
C604 H598 0.949 . S
C604 C608 1.368 . S
C605 C586 1.429 . S
C605 C599 1.429 . S
C605 C606 1.523 . S
C606 C587 1.368 . S
C606 C600 1.368 . S
C606 C605 1.523 . S
C607 C591 1.429 . S
C607 C603 1.429 . S
C607 C608 1.523 . S
C608 C592 1.368 . S
C608 C604 1.368 . S
C608 C607 1.523 . S
H609 C584 0.950 . S
H610 C586 0.950 . S
H611 C587 0.949 . S
H612 C589 0.950 . S
H613 C591 0.950 . S
C614 C615 1.349 . S
C614 C616 1.327 . S
C614 H639 0.950 . S
C615 C614 1.349 . S
C615 C631 1.349 . S
C616 C614 1.327 . S
C616 C635 1.429 . S
C616 H640 0.950 . S
C617 C634 1.574 . S
C617 C636 1.368 . S
C617 H641 0.949 . S
H618 C622 0.949 . S
C619 C620 1.349 . S
C619 C621 1.327 . S
C619 H642 0.950 . S
C620 C619 1.349 . S
C620 C632 1.349 . S
C621 C619 1.327 . S
C621 C637 1.429 . S
C621 H643 0.950 . S
C622 H618 0.949 . S
C622 C630 1.574 . S
C622 C638 1.368 . S
H623 C631 0.950 . S
H624 C629 0.950 . S
H625 C630 0.949 . S
H626 C632 0.950 . S
H627 C633 0.950 . S
H628 C634 0.949 . S
C629 H624 0.950 . S
C629 C631 1.327 . S
C629 C635 1.429 . S
C630 C622 1.574 . S
C630 H625 0.949 . S
C630 C636 1.368 . S
C631 C615 1.349 . S
C631 H623 0.950 . S
C631 C629 1.327 . S
C632 C620 1.349 . S
C632 H626 0.950 . S
C632 C633 1.327 . S
C633 H627 0.950 . S
C633 C632 1.327 . S
C633 C637 1.429 . S
C634 C617 1.574 . S
C634 H628 0.949 . S
C634 C638 1.368 . S
C635 C616 1.429 . S
C635 C629 1.429 . S
C635 C636 1.523 . S
C636 C617 1.368 . S
C636 C630 1.368 . S
C636 C635 1.523 . S
C637 C621 1.429 . S
C637 C633 1.429 . S
C637 C638 1.523 . S
C638 C622 1.368 . S
C638 C634 1.368 . S
C638 C637 1.523 . S
H639 C614 0.950 . S
H640 C616 0.950 . S
H641 C617 0.949 . S
H642 C619 0.950 . S
H643 C621 0.950 . S
C644 C645 1.349 . S
C644 C646 1.327 . S
C644 H669 0.950 . S
C645 C644 1.349 . S
C645 C661 1.349 . S
C646 C644 1.327 . S
C646 C665 1.429 . S
C646 H670 0.950 . S
C647 C664 1.574 . S
C647 C666 1.368 . S
C647 H671 0.949 . S
H648 C652 0.949 . S
C649 C650 1.349 . S
C649 C651 1.327 . S
C649 H672 0.950 . S
C650 C649 1.349 . S
C650 C662 1.349 . S
C651 C649 1.327 . S
C651 C667 1.429 . S
C651 H673 0.950 . S
C652 H648 0.949 . S
C652 C660 1.574 . S
C652 C668 1.368 . S
H653 C661 0.950 . S
H654 C659 0.950 . S
H655 C660 0.949 . S
H656 C662 0.950 . S
H657 C663 0.950 . S
H658 C664 0.949 . S
C659 H654 0.950 . S
C659 C661 1.327 . S
C659 C665 1.429 . S
C660 C652 1.574 . S
C660 H655 0.949 . S
C660 C666 1.368 . S
C661 C645 1.349 . S
C661 H653 0.950 . S
C661 C659 1.327 . S
C662 C650 1.349 . S
C662 H656 0.950 . S
C662 C663 1.327 . S
C663 H657 0.950 . S
C663 C662 1.327 . S
C663 C667 1.429 . S
C664 C647 1.574 . S
C664 H658 0.949 . S
C664 C668 1.368 . S
C665 C646 1.429 . S
C665 C659 1.429 . S
C665 C666 1.523 . S
C666 C647 1.368 . S
C666 C660 1.368 . S
C666 C665 1.523 . S
C667 C651 1.429 . S
C667 C663 1.429 . S
C667 C668 1.523 . S
C668 C652 1.368 . S
C668 C664 1.368 . S
C668 C667 1.523 . S
H669 C644 0.950 . S
H670 C646 0.950 . S
H671 C647 0.949 . S
H672 C649 0.950 . S
H673 C651 0.950 . S
C674 C675 1.349 . S
C674 C676 1.327 . S
C674 H699 0.950 . S
C675 C674 1.349 . S
C675 C691 1.349 . S
C676 C674 1.327 . S
C676 C695 1.429 . S
C676 H700 0.950 . S
C677 C694 1.574 . S
C677 C696 1.368 . S
C677 H701 0.949 . S
H678 C682 0.949 . S
C679 C680 1.349 . S
C679 C681 1.327 . S
C679 H702 0.950 . S
C680 C679 1.349 . S
C680 C692 1.349 . S
C681 C679 1.327 . S
C681 C697 1.429 . S
C681 H703 0.950 . S
C682 H678 0.949 . S
C682 C690 1.574 . S
C682 C698 1.368 . S
H683 C691 0.950 . S
H684 C689 0.950 . S
H685 C690 0.949 . S
H686 C692 0.950 . S
H687 C693 0.950 . S
H688 C694 0.949 . S
C689 H684 0.950 . S
C689 C691 1.327 . S
C689 C695 1.429 . S
C690 C682 1.574 . S
C690 H685 0.949 . S
C690 C696 1.368 . S
C691 C675 1.349 . S
C691 H683 0.950 . S
C691 C689 1.327 . S
C692 C680 1.349 . S
C692 H686 0.950 . S
C692 C693 1.327 . S
C693 H687 0.950 . S
C693 C692 1.327 . S
C693 C697 1.429 . S
C694 C677 1.574 . S
C694 H688 0.949 . S
C694 C698 1.368 . S
C695 C676 1.429 . S
C695 C689 1.429 . S
C695 C696 1.523 . S
C696 C677 1.368 . S
C696 C690 1.368 . S
C696 C695 1.523 . S
C697 C681 1.429 . S
C697 C693 1.429 . S
C697 C698 1.523 . S
C698 C682 1.368 . S
C698 C694 1.368 . S
C698 C697 1.523 . S
H699 C674 0.950 . S
H700 C676 0.950 . S
H701 C677 0.949 . S
H702 C679 0.950 . S
H703 C681 0.950 . S
C704 C705 1.349 . S
C704 C706 1.327 . S
C704 H729 0.950 . S
C705 C704 1.349 . S
C705 C721 1.349 . S
C706 C704 1.327 . S
C706 C725 1.429 . S
C706 H730 0.950 . S
C707 C724 1.574 . S
C707 C726 1.368 . S
C707 H731 0.949 . S
H708 C712 0.949 . S
C709 C710 1.349 . S
C709 C711 1.327 . S
C709 H732 0.950 . S
C710 C709 1.349 . S
C710 C722 1.349 . S
C711 C709 1.327 . S
C711 C727 1.429 . S
C711 H733 0.950 . S
C712 H708 0.949 . S
C712 C720 1.574 . S
C712 C728 1.368 . S
H713 C721 0.950 . S
H714 C719 0.950 . S
H715 C720 0.949 . S
H716 C722 0.950 . S
H717 C723 0.950 . S
H718 C724 0.949 . S
C719 H714 0.950 . S
C719 C721 1.327 . S
C719 C725 1.429 . S
C720 C712 1.574 . S
C720 H715 0.949 . S
C720 C726 1.368 . S
C721 C705 1.349 . S
C721 H713 0.950 . S
C721 C719 1.327 . S
C722 C710 1.349 . S
C722 H716 0.950 . S
C722 C723 1.327 . S
C723 H717 0.950 . S
C723 C722 1.327 . S
C723 C727 1.429 . S
C724 C707 1.574 . S
C724 H718 0.949 . S
C724 C728 1.368 . S
C725 C706 1.429 . S
C725 C719 1.429 . S
C725 C726 1.523 . S
C726 C707 1.368 . S
C726 C720 1.368 . S
C726 C725 1.523 . S
C727 C711 1.429 . S
C727 C723 1.429 . S
C727 C728 1.523 . S
C728 C712 1.368 . S
C728 C724 1.368 . S
C728 C727 1.523 . S
H729 C704 0.950 . S
H730 C706 0.950 . S
H731 C707 0.949 . S
H732 C709 0.950 . S
H733 C711 0.950 . S
C734 C735 1.349 . S
C734 C736 1.327 . S
C734 H759 0.950 . S
C735 C734 1.349 . S
C735 C751 1.349 . S
C736 C734 1.327 . S
C736 C755 1.429 . S
C736 H760 0.950 . S
C737 C754 1.574 . S
C737 C756 1.368 . S
C737 H761 0.949 . S
H738 C742 0.949 . S
C739 C740 1.349 . S
C739 C741 1.327 . S
C739 H762 0.950 . S
C740 C739 1.349 . S
C740 C752 1.349 . S
C741 C739 1.327 . S
C741 C757 1.429 . S
C741 H763 0.950 . S
C742 H738 0.949 . S
C742 C750 1.574 . S
C742 C758 1.368 . S
H743 C751 0.950 . S
H744 C749 0.950 . S
H745 C750 0.949 . S
H746 C752 0.950 1_655 S
H747 C753 0.950 . S
H748 C754 0.949 . S
C749 H744 0.950 . S
C749 C751 1.327 . S
C749 C755 1.429 . S
C750 C742 1.574 . S
C750 H745 0.949 . S
C750 C756 1.368 . S
C751 C735 1.349 . S
C751 H743 0.950 . S
C751 C749 1.327 . S
C752 C740 1.349 . S
C752 H746 0.950 1_455 S
C752 C753 1.327 . S
C753 H747 0.950 . S
C753 C752 1.327 . S
C753 C757 1.429 . S
C754 C737 1.574 . S
C754 H748 0.949 . S
C754 C758 1.368 . S
C755 C736 1.429 . S
C755 C749 1.429 . S
C755 C756 1.523 . S
C756 C737 1.368 . S
C756 C750 1.368 . S
C756 C755 1.523 . S
C757 C741 1.429 . S
C757 C753 1.429 . S
C757 C758 1.523 . S
C758 C742 1.368 . S
C758 C754 1.368 . S
C758 C757 1.523 . S
H759 C734 0.950 . S
H760 C736 0.950 . S
H761 C737 0.949 . S
H762 C739 0.950 . S
H763 C741 0.950 . S
C764 C765 1.349 . S
C764 C766 1.327 . S
C764 H789 0.950 1_565 S
C765 C764 1.349 . S
C765 C781 1.349 . S
C766 C764 1.327 . S
C766 C785 1.429 . S
C766 H790 0.950 . S
C767 C784 1.574 . S
C767 C786 1.368 . S
C767 H791 0.949 . S
H768 C772 0.949 . S
C769 C770 1.349 . S
C769 C771 1.327 . S
C769 H792 0.950 . S
C770 C769 1.349 . S
C770 C782 1.349 . S
C771 C769 1.327 . S
C771 C787 1.429 . S
C771 H793 0.950 . S
C772 H768 0.949 . S
C772 C780 1.574 . S
C772 C788 1.368 . S
H773 C781 0.950 . S
H774 C779 0.950 . S
H775 C780 0.949 . S
H776 C782 0.950 . S
H777 C783 0.950 . S
H778 C784 0.949 . S
C779 H774 0.950 . S
C779 C781 1.327 . S
C779 C785 1.429 . S
C780 C772 1.574 . S
C780 H775 0.949 . S
C780 C786 1.368 . S
C781 C765 1.349 . S
C781 H773 0.950 . S
C781 C779 1.327 . S
C782 C770 1.349 . S
C782 H776 0.950 . S
C782 C783 1.327 . S
C783 H777 0.950 . S
C783 C782 1.327 . S
C783 C787 1.429 . S
C784 C767 1.574 . S
C784 H778 0.949 . S
C784 C788 1.368 . S
C785 C766 1.429 . S
C785 C779 1.429 . S
C785 C786 1.523 . S
C786 C767 1.368 . S
C786 C780 1.368 . S
C786 C785 1.523 . S
C787 C771 1.429 . S
C787 C783 1.429 . S
C787 C788 1.523 . S
C788 C772 1.368 . S
C788 C784 1.368 . S
C788 C787 1.523 . S
H789 C764 0.950 1_545 S
H790 C766 0.950 . S
H791 C767 0.949 . S
H792 C769 0.950 . S
H793 C771 0.950 . S
C794 C795 1.349 . S
C794 C796 1.327 . S
C794 H819 0.950 . S
C795 C794 1.349 . S
C795 C811 1.349 . S
C796 C794 1.327 . S
C796 C815 1.429 . S
C796 H820 0.950 . S
C797 C814 1.574 . S
C797 C816 1.368 . S
C797 H821 0.949 . S
H798 C802 0.949 . S
C799 C800 1.349 . S
C799 C801 1.327 . S
C799 H822 0.950 . S
C800 C799 1.349 . S
C800 C812 1.349 . S
C801 C799 1.327 . S
C801 C817 1.429 . S
C801 H823 0.950 . S
C802 H798 0.949 . S
C802 C810 1.574 . S
C802 C818 1.368 . S
H803 C811 0.950 . S
H804 C809 0.950 . S
H805 C810 0.949 . S
H806 C812 0.950 . S
H807 C813 0.950 . S
H808 C814 0.949 . S
C809 H804 0.950 . S
C809 C811 1.327 . S
C809 C815 1.429 . S
C810 C802 1.574 . S
C810 H805 0.949 . S
C810 C816 1.368 . S
C811 C795 1.349 . S
C811 H803 0.950 . S
C811 C809 1.327 . S
C812 C800 1.349 . S
C812 H806 0.950 . S
C812 C813 1.327 . S
C813 H807 0.950 . S
C813 C812 1.327 . S
C813 C817 1.429 . S
C814 C797 1.574 . S
C814 H808 0.949 . S
C814 C818 1.368 . S
C815 C796 1.429 . S
C815 C809 1.429 . S
C815 C816 1.523 . S
C816 C797 1.368 . S
C816 C810 1.368 . S
C816 C815 1.523 . S
C817 C801 1.429 . S
C817 C813 1.429 . S
C817 C818 1.523 . S
C818 C802 1.368 . S
C818 C814 1.368 . S
C818 C817 1.523 . S
H819 C794 0.950 . S
H820 C796 0.950 . S
H821 C797 0.949 . S
H822 C799 0.950 . S
H823 C801 0.950 . S
C824 C825 1.349 . S
C824 C826 1.327 . S
C824 H849 0.950 . S
C825 C824 1.349 . S
C825 C841 1.349 . S
C826 C824 1.327 . S
C826 C845 1.429 . S
C826 H850 0.950 . S
C827 C844 1.574 . S
C827 C846 1.368 . S
C827 H851 0.949 . S
H828 C832 0.949 . S
C829 C830 1.349 . S
C829 C831 1.327 . S
C829 H852 0.950 . S
C830 C829 1.349 . S
C830 C842 1.349 . S
C831 C829 1.327 . S
C831 C847 1.429 . S
C831 H853 0.950 . S
C832 H828 0.949 . S
C832 C840 1.574 . S
C832 C848 1.368 . S
H833 C841 0.950 1_545 S
H834 C839 0.950 . S
H835 C840 0.949 . S
H836 C842 0.950 . S
H837 C843 0.950 . S
H838 C844 0.949 . S
C839 H834 0.950 . S
C839 C841 1.327 . S
C839 C845 1.429 . S
C840 C832 1.574 . S
C840 H835 0.949 . S
C840 C846 1.368 . S
C841 C825 1.349 . S
C841 H833 0.950 1_565 S
C841 C839 1.327 . S
C842 C830 1.349 . S
C842 H836 0.950 . S
C842 C843 1.327 . S
C843 H837 0.950 . S
C843 C842 1.327 . S
C843 C847 1.429 . S
C844 C827 1.574 . S
C844 H838 0.949 . S
C844 C848 1.368 . S
C845 C826 1.429 . S
C845 C839 1.429 . S
C845 C846 1.523 . S
C846 C827 1.368 . S
C846 C840 1.368 . S
C846 C845 1.523 . S
C847 C831 1.429 . S
C847 C843 1.429 . S
C847 C848 1.523 . S
C848 C832 1.368 . S
C848 C844 1.368 . S
C848 C847 1.523 . S
H849 C824 0.950 . S
H850 C826 0.950 . S
H851 C827 0.949 . S
H852 C829 0.950 . S
H853 C831 0.950 . S
C854 C855 1.349 . S
C854 C856 1.327 . S
C854 H879 0.950 . S
C855 C854 1.349 . S
C855 C871 1.349 . S
C856 C854 1.327 . S
C856 C875 1.429 . S
C856 H880 0.950 . S
C857 C874 1.574 . S
C857 C876 1.368 . S
C857 H881 0.949 . S
H858 C862 0.949 . S
C859 C860 1.349 . S
C859 C861 1.327 . S
C859 H882 0.950 . S
C860 C859 1.349 . S
C860 C872 1.349 . S
C861 C859 1.327 . S
C861 C877 1.429 . S
C861 H883 0.950 . S
C862 H858 0.949 . S
C862 C870 1.574 . S
C862 C878 1.368 . S
H863 C871 0.950 . S
H864 C869 0.950 . S
H865 C870 0.949 . S
H866 C872 0.950 . S
H867 C873 0.950 . S
H868 C874 0.949 . S
C869 H864 0.950 . S
C869 C871 1.327 . S
C869 C875 1.429 . S
C870 C862 1.574 . S
C870 H865 0.949 . S
C870 C876 1.368 . S
C871 C855 1.349 . S
C871 H863 0.950 . S
C871 C869 1.327 . S
C872 C860 1.349 . S
C872 H866 0.950 . S
C872 C873 1.327 . S
C873 H867 0.950 . S
C873 C872 1.327 . S
C873 C877 1.429 . S
C874 C857 1.574 . S
C874 H868 0.949 . S
C874 C878 1.368 . S
C875 C856 1.429 . S
C875 C869 1.429 . S
C875 C876 1.523 . S
C876 C857 1.368 . S
C876 C870 1.368 . S
C876 C875 1.523 . S
C877 C861 1.429 . S
C877 C873 1.429 . S
C877 C878 1.523 . S
C878 C862 1.368 . S
C878 C874 1.368 . S
C878 C877 1.523 . S
H879 C854 0.950 . S
H880 C856 0.950 . S
H881 C857 0.949 . S
H882 C859 0.950 . S
H883 C861 0.950 . S
C884 C885 1.349 . S
C884 C886 1.327 . S
C884 H909 0.950 . S
C885 C884 1.349 . S
C885 C901 1.349 . S
C886 C884 1.327 . S
C886 C905 1.429 . S
C886 H910 0.950 . S
C887 C904 1.574 . S
C887 C906 1.368 . S
C887 H911 0.949 . S
H888 C892 0.949 . S
C889 C890 1.349 . S
C889 C891 1.327 . S
C889 H912 0.950 1_545 S
C890 C889 1.349 . S
C890 C902 1.349 . S
C891 C889 1.327 . S
C891 C907 1.429 . S
C891 H913 0.950 . S
C892 H888 0.949 . S
C892 C900 1.574 . S
C892 C908 1.368 . S
H893 C901 0.950 . S
H894 C899 0.950 . S
H895 C900 0.949 . S
H896 C902 0.950 . S
H897 C903 0.950 . S
H898 C904 0.949 . S
C899 H894 0.950 . S
C899 C901 1.327 . S
C899 C905 1.429 . S
C900 C892 1.574 . S
C900 H895 0.949 . S
C900 C906 1.368 . S
C901 C885 1.349 . S
C901 H893 0.950 . S
C901 C899 1.327 . S
C902 C890 1.349 . S
C902 H896 0.950 . S
C902 C903 1.327 . S
C903 H897 0.950 . S
C903 C902 1.327 . S
C903 C907 1.429 . S
C904 C887 1.574 . S
C904 H898 0.949 . S
C904 C908 1.368 . S
C905 C886 1.429 . S
C905 C899 1.429 . S
C905 C906 1.523 . S
C906 C887 1.368 . S
C906 C900 1.368 . S
C906 C905 1.523 . S
C907 C891 1.429 . S
C907 C903 1.429 . S
C907 C908 1.523 . S
C908 C892 1.368 . S
C908 C904 1.368 . S
C908 C907 1.523 . S
H909 C884 0.950 . S
H910 C886 0.950 . S
H911 C887 0.949 . S
H912 C889 0.950 1_565 S
H913 C891 0.950 . S
C914 C915 1.349 . S
C914 C916 1.327 . S
C914 H939 0.950 . S
C915 C914 1.349 . S
C915 C931 1.349 . S
C916 C914 1.327 . S
C916 C935 1.429 . S
C916 H940 0.950 . S
C917 C934 1.574 . S
C917 C936 1.368 . S
C917 H941 0.949 . S
H918 C922 0.949 . S
C919 C920 1.349 . S
C919 C921 1.327 . S
C919 H942 0.950 . S
C920 C919 1.349 . S
C920 C932 1.349 . S
C921 C919 1.327 . S
C921 C937 1.429 . S
C921 H943 0.950 . S
C922 H918 0.949 . S
C922 C930 1.574 . S
C922 C938 1.368 . S
H923 C931 0.950 . S
H924 C929 0.950 . S
H925 C930 0.949 . S
H926 C932 0.950 1_655 S
H927 C933 0.950 . S
H928 C934 0.949 . S
C929 H924 0.950 . S
C929 C931 1.327 . S
C929 C935 1.429 . S
C930 C922 1.574 . S
C930 H925 0.949 . S
C930 C936 1.368 . S
C931 C915 1.349 . S
C931 H923 0.950 . S
C931 C929 1.327 . S
C932 C920 1.349 . S
C932 H926 0.950 1_455 S
C932 C933 1.327 . S
C933 H927 0.950 . S
C933 C932 1.327 . S
C933 C937 1.429 . S
C934 C917 1.574 . S
C934 H928 0.949 . S
C934 C938 1.368 . S
C935 C916 1.429 . S
C935 C929 1.429 . S
C935 C936 1.523 . S
C936 C917 1.368 . S
C936 C930 1.368 . S
C936 C935 1.523 . S
C937 C921 1.429 . S
C937 C933 1.429 . S
C937 C938 1.523 . S
C938 C922 1.368 . S
C938 C934 1.368 . S
C938 C937 1.523 . S
H939 C914 0.950 . S
H940 C916 0.950 . S
H941 C917 0.949 . S
H942 C919 0.950 . S
H943 C921 0.950 . S
C944 C945 1.349 . S
C944 C946 1.327 . S
C944 H969 0.950 . S
C945 C944 1.349 . S
C945 C961 1.349 . S
C946 C944 1.327 . S
C946 C965 1.429 . S
C946 H970 0.950 . S
C947 C964 1.574 . S
C947 C966 1.368 . S
C947 H971 0.949 . S
H948 C952 0.949 . S
C949 C950 1.349 . S
C949 C951 1.327 . S
C949 H972 0.950 . S
C950 C949 1.349 . S
C950 C962 1.349 . S
C951 C949 1.327 . S
C951 C967 1.429 . S
C951 H973 0.950 . S
C952 H948 0.949 . S
C952 C960 1.574 . S
C952 C968 1.368 . S
H953 C961 0.950 . S
H954 C959 0.950 . S
H955 C960 0.949 . S
H956 C962 0.950 . S
H957 C963 0.950 . S
H958 C964 0.949 . S
C959 H954 0.950 . S
C959 C961 1.327 . S
C959 C965 1.429 . S
C960 C952 1.574 . S
C960 H955 0.949 . S
C960 C966 1.368 . S
C961 C945 1.349 . S
C961 H953 0.950 . S
C961 C959 1.327 . S
C962 C950 1.349 . S
C962 H956 0.950 . S
C962 C963 1.327 . S
C963 H957 0.950 . S
C963 C962 1.327 . S
C963 C967 1.429 . S
C964 C947 1.574 . S
C964 H958 0.949 . S
C964 C968 1.368 . S
C965 C946 1.429 . S
C965 C959 1.429 . S
C965 C966 1.523 . S
C966 C947 1.368 . S
C966 C960 1.368 . S
C966 C965 1.523 . S
C967 C951 1.429 . S
C967 C963 1.429 . S
C967 C968 1.523 . S
C968 C952 1.368 . S
C968 C964 1.368 . S
C968 C967 1.523 . S
H969 C944 0.950 . S
H970 C946 0.950 . S
H971 C947 0.949 . S
H972 C949 0.950 . S
H973 C951 0.950 . S
C974 C975 1.349 . S
C974 C976 1.327 . S
C974 H999 0.950 . S
C975 C974 1.349 . S
C975 C991 1.349 . S
C976 C974 1.327 . S
C976 C995 1.429 . S
C976 H1000 0.950 . S
C977 C994 1.574 . S
C977 C996 1.368 . S
C977 H1001 0.949 . S
H978 C982 0.949 . S
C979 C980 1.349 . S
C979 C981 1.327 . S
C979 H1002 0.950 . S
C980 C979 1.349 . S
C980 C992 1.349 . S
C981 C979 1.327 . S
C981 C997 1.429 . S
C981 H1003 0.950 . S
C982 H978 0.949 . S
C982 C990 1.574 . S
C982 C998 1.368 . S
H983 C991 0.950 . S
H984 C989 0.950 . S
H985 C990 0.949 . S
H986 C992 0.950 . S
H987 C993 0.950 . S
H988 C994 0.949 . S
C989 H984 0.950 . S
C989 C991 1.327 . S
C989 C995 1.429 . S
C990 C982 1.574 . S
C990 H985 0.949 . S
C990 C996 1.368 . S
C991 C975 1.349 . S
C991 H983 0.950 . S
C991 C989 1.327 . S
C992 C980 1.349 . S
C992 H986 0.950 . S
C992 C993 1.327 . S
C993 H987 0.950 . S
C993 C992 1.327 . S
C993 C997 1.429 . S
C994 C977 1.574 . S
C994 H988 0.949 . S
C994 C998 1.368 . S
C995 C976 1.429 . S
C995 C989 1.429 . S
C995 C996 1.523 . S
C996 C977 1.368 . S
C996 C990 1.368 . S
C996 C995 1.523 . S
C997 C981 1.429 . S
C997 C993 1.429 . S
C997 C998 1.523 . S
C998 C982 1.368 . S
C998 C994 1.368 . S
C998 C997 1.523 . S
H999 C974 0.950 . S
H1000 C976 0.950 . S
H1001 C977 0.949 . S
H1002 C979 0.950 . S
H1003 C981 0.950 . S
C1004 C1005 1.349 . S
C1004 C1006 1.327 . S
C1004 H1029 0.950 . S
C1005 C1004 1.349 . S
C1005 C1021 1.349 . S
C1006 C1004 1.327 . S
C1006 C1025 1.429 . S
C1006 H1030 0.950 . S
C1007 C1024 1.574 . S
C1007 C1026 1.368 . S
C1007 H1031 0.949 . S
H1008 C1012 0.949 . S
C1009 C1010 1.349 . S
C1009 C1011 1.327 . S
C1009 H1032 0.950 . S
C1010 C1009 1.349 . S
C1010 C1022 1.349 . S
C1011 C1009 1.327 . S
C1011 C1027 1.429 . S
C1011 H1033 0.950 . S
C1012 H1008 0.949 . S
C1012 C1020 1.574 . S
C1012 C1028 1.368 . S
H1013 C1021 0.950 . S
H1014 C1019 0.950 . S
H1015 C1020 0.949 . S
H1016 C1022 0.950 . S
H1017 C1023 0.950 . S
H1018 C1024 0.949 . S
C1019 H1014 0.950 . S
C1019 C1021 1.327 . S
C1019 C1025 1.429 . S
C1020 C1012 1.574 . S
C1020 H1015 0.949 . S
C1020 C1026 1.368 . S
C1021 C1005 1.349 . S
C1021 H1013 0.950 . S
C1021 C1019 1.327 . S
C1022 C1010 1.349 . S
C1022 H1016 0.950 . S
C1022 C1023 1.327 . S
C1023 H1017 0.950 . S
C1023 C1022 1.327 . S
C1023 C1027 1.429 . S
C1024 C1007 1.574 . S
C1024 H1018 0.949 . S
C1024 C1028 1.368 . S
C1025 C1006 1.429 . S
C1025 C1019 1.429 . S
C1025 C1026 1.523 . S
C1026 C1007 1.368 . S
C1026 C1020 1.368 . S
C1026 C1025 1.523 . S
C1027 C1011 1.429 . S
C1027 C1023 1.429 . S
C1027 C1028 1.523 . S
C1028 C1012 1.368 . S
C1028 C1024 1.368 . S
C1028 C1027 1.523 . S
H1029 C1004 0.950 . S
H1030 C1006 0.950 . S
H1031 C1007 0.949 . S
H1032 C1009 0.950 . S
H1033 C1011 0.950 . S
C1034 C1035 1.349 . S
C1034 C1036 1.327 . S
C1034 H1059 0.950 . S
C1035 C1034 1.349 . S
C1035 C1051 1.349 . S
C1036 C1034 1.327 . S
C1036 C1055 1.429 . S
C1036 H1060 0.950 . S
C1037 C1054 1.574 . S
C1037 C1056 1.368 . S
C1037 H1061 0.949 . S
H1038 C1042 0.949 . S
C1039 C1040 1.349 . S
C1039 C1041 1.327 . S
C1039 H1062 0.950 . S
C1040 C1039 1.349 . S
C1040 C1052 1.349 . S
C1041 C1039 1.327 . S
C1041 C1057 1.429 . S
C1041 H1063 0.950 . S
C1042 H1038 0.949 . S
C1042 C1050 1.574 . S
C1042 C1058 1.368 . S
H1043 C1051 0.950 . S
H1044 C1049 0.950 . S
H1045 C1050 0.949 . S
H1046 C1052 0.950 . S
H1047 C1053 0.950 . S
H1048 C1054 0.949 . S
C1049 H1044 0.950 . S
C1049 C1051 1.327 . S
C1049 C1055 1.429 . S
C1050 C1042 1.574 . S
C1050 H1045 0.949 . S
C1050 C1056 1.368 . S
C1051 C1035 1.349 . S
C1051 H1043 0.950 . S
C1051 C1049 1.327 . S
C1052 C1040 1.349 . S
C1052 H1046 0.950 . S
C1052 C1053 1.327 . S
C1053 H1047 0.950 . S
C1053 C1052 1.327 . S
C1053 C1057 1.429 . S
C1054 C1037 1.574 . S
C1054 H1048 0.949 . S
C1054 C1058 1.368 . S
C1055 C1036 1.429 . S
C1055 C1049 1.429 . S
C1055 C1056 1.523 . S
C1056 C1037 1.368 . S
C1056 C1050 1.368 . S
C1056 C1055 1.523 . S
C1057 C1041 1.429 . S
C1057 C1053 1.429 . S
C1057 C1058 1.523 . S
C1058 C1042 1.368 . S
C1058 C1054 1.368 . S
C1058 C1057 1.523 . S
H1059 C1034 0.950 . S
H1060 C1036 0.950 . S
H1061 C1037 0.949 . S
H1062 C1039 0.950 . S
H1063 C1041 0.950 . S
C1064 C1065 1.349 . S
C1064 C1066 1.327 . S
C1064 H1089 0.950 . S
C1065 C1064 1.349 . S
C1065 C1081 1.349 . S
C1066 C1064 1.327 . S
C1066 C1085 1.429 . S
C1066 H1090 0.950 . S
C1067 C1084 1.574 1_554 S
C1067 C1086 1.368 1_565 S
C1067 H1091 0.949 . S
H1068 C1072 0.949 . S
C1069 C1070 1.349 . S
C1069 C1071 1.327 . S
C1069 H1092 0.950 . S
C1070 C1069 1.349 . S
C1070 C1082 1.349 . S
C1071 C1069 1.327 . S
C1071 C1087 1.429 . S
C1071 H1093 0.950 . S
C1072 H1068 0.949 . S
C1072 C1080 1.574 1_556 S
C1072 C1088 1.368 1_545 S
H1073 C1081 0.950 . S
H1074 C1079 0.950 . S
H1075 C1080 0.949 . S
H1076 C1082 0.950 . S
H1077 C1083 0.950 . S
H1078 C1084 0.949 . S
C1079 H1074 0.950 . S
C1079 C1081 1.327 . S
C1079 C1085 1.429 . S
C1080 C1072 1.574 1_554 S
C1080 H1075 0.949 . S
C1080 C1086 1.368 . S
C1081 C1065 1.349 . S
C1081 H1073 0.950 . S
C1081 C1079 1.327 . S
C1082 C1070 1.349 . S
C1082 H1076 0.950 . S
C1082 C1083 1.327 . S
C1083 H1077 0.950 . S
C1083 C1082 1.327 . S
C1083 C1087 1.429 . S
C1084 C1067 1.574 1_556 S
C1084 H1078 0.949 . S
C1084 C1088 1.368 . S
C1085 C1066 1.429 . S
C1085 C1079 1.429 . S
C1085 C1086 1.523 . S
C1086 C1067 1.368 1_545 S
C1086 C1080 1.368 . S
C1086 C1085 1.523 . S
C1087 C1071 1.429 . S
C1087 C1083 1.429 . S
C1087 C1088 1.523 . S
C1088 C1072 1.368 1_565 S
C1088 C1084 1.368 . S
C1088 C1087 1.523 . S
H1089 C1064 0.950 . S
H1090 C1066 0.950 . S
H1091 C1067 0.949 . S
H1092 C1069 0.950 . S
H1093 C1071 0.950 . S
C1094 C1095 1.349 . S
C1094 C1096 1.327 . S
C1094 H1119 0.950 . S
C1095 C1094 1.349 . S
C1095 C1111 1.349 . S
C1096 C1094 1.327 . S
C1096 C1115 1.429 . S
C1096 H1120 0.950 . S
C1097 C1114 1.574 1_556 S
C1097 C1116 1.368 1_655 S
C1097 H1121 0.949 . S
H1098 C1102 0.949 . S
C1099 C1100 1.349 . S
C1099 C1101 1.327 . S
C1099 H1122 0.950 . S
C1100 C1099 1.349 . S
C1100 C1112 1.349 . S
C1101 C1099 1.327 . S
C1101 C1117 1.429 . S
C1101 H1123 0.950 . S
C1102 H1098 0.949 . S
C1102 C1110 1.574 1_554 S
C1102 C1118 1.368 1_455 S
H1103 C1111 0.950 . S
H1104 C1109 0.950 1_655 S
H1105 C1110 0.949 . S
H1106 C1112 0.950 . S
H1107 C1113 0.950 1_455 S
H1108 C1114 0.949 . S
C1109 H1104 0.950 1_455 S
C1109 C1111 1.327 . S
C1109 C1115 1.429 . S
C1110 C1102 1.574 1_556 S
C1110 H1105 0.949 . S
C1110 C1116 1.368 . S
C1111 C1095 1.349 . S
C1111 H1103 0.950 . S
C1111 C1109 1.327 . S
C1112 C1100 1.349 . S
C1112 H1106 0.950 . S
C1112 C1113 1.327 . S
C1113 H1107 0.950 1_655 S
C1113 C1112 1.327 . S
C1113 C1117 1.429 . S
C1114 C1097 1.574 1_554 S
C1114 H1108 0.949 . S
C1114 C1118 1.368 . S
C1115 C1096 1.429 . S
C1115 C1109 1.429 . S
C1115 C1116 1.523 . S
C1116 C1097 1.368 1_455 S
C1116 C1110 1.368 . S
C1116 C1115 1.523 . S
C1117 C1101 1.429 . S
C1117 C1113 1.429 . S
C1117 C1118 1.523 . S
C1118 C1102 1.368 1_655 S
C1118 C1114 1.368 . S
C1118 C1117 1.523 . S
H1119 C1094 0.950 . S
H1120 C1096 0.950 . S
H1121 C1097 0.949 . S
H1122 C1099 0.950 . S
H1123 C1101 0.950 . S
C1124 C1125 1.349 . S
C1124 C1126 1.327 . S
C1124 H1149 0.950 . S
C1125 C1124 1.349 . S
C1125 C1141 1.349 . S
C1126 C1124 1.327 . S
C1126 C1145 1.429 . S
C1126 H1150 0.950 . S
C1127 C1144 1.574 1_556 S
C1127 C1146 1.368 1_565 S
C1127 H1151 0.949 . S
H1128 C1132 0.949 . S
C1129 C1130 1.349 . S
C1129 C1131 1.327 . S
C1129 H1152 0.950 . S
C1130 C1129 1.349 . S
C1130 C1142 1.349 . S
C1131 C1129 1.327 . S
C1131 C1147 1.429 . S
C1131 H1153 0.950 . S
C1132 H1128 0.949 . S
C1132 C1140 1.574 1_554 S
C1132 C1148 1.368 1_545 S
H1133 C1141 0.950 . S
H1134 C1139 0.950 1_565 S
H1135 C1140 0.949 . S
H1136 C1142 0.950 . S
H1137 C1143 0.950 1_545 S
H1138 C1144 0.949 . S
C1139 H1134 0.950 1_545 S
C1139 C1141 1.327 . S
C1139 C1145 1.429 . S
C1140 C1132 1.574 1_556 S
C1140 H1135 0.949 . S
C1140 C1146 1.368 . S
C1141 C1125 1.349 . S
C1141 H1133 0.950 . S
C1141 C1139 1.327 . S
C1142 C1130 1.349 . S
C1142 H1136 0.950 . S
C1142 C1143 1.327 . S
C1143 H1137 0.950 1_565 S
C1143 C1142 1.327 . S
C1143 C1147 1.429 . S
C1144 C1127 1.574 1_554 S
C1144 H1138 0.949 . S
C1144 C1148 1.368 . S
C1145 C1126 1.429 . S
C1145 C1139 1.429 . S
C1145 C1146 1.523 . S
C1146 C1127 1.368 1_545 S
C1146 C1140 1.368 . S
C1146 C1145 1.523 . S
C1147 C1131 1.429 . S
C1147 C1143 1.429 . S
C1147 C1148 1.523 . S
C1148 C1132 1.368 1_565 S
C1148 C1144 1.368 . S
C1148 C1147 1.523 . S
H1149 C1124 0.950 . S
H1150 C1126 0.950 . S
H1151 C1127 0.949 . S
H1152 C1129 0.950 . S
H1153 C1131 0.950 . S
C1154 C1155 1.349 . S
C1154 C1156 1.327 . S
C1154 H1179 0.950 . S
C1155 C1154 1.349 . S
C1155 C1171 1.349 . S
C1156 C1154 1.327 . S
C1156 C1175 1.429 . S
C1156 H1180 0.950 . S
C1157 C1174 1.574 1_556 S
C1157 C1176 1.368 1_455 S
C1157 H1181 0.949 . S
H1158 C1162 0.949 . S
C1159 C1160 1.349 . S
C1159 C1161 1.327 . S
C1159 H1182 0.950 . S
C1160 C1159 1.349 . S
C1160 C1172 1.349 . S
C1161 C1159 1.327 . S
C1161 C1177 1.429 . S
C1161 H1183 0.950 . S
C1162 H1158 0.949 . S
C1162 C1170 1.574 1_554 S
C1162 C1178 1.368 1_655 S
H1163 C1171 0.950 . S
H1164 C1169 0.950 1_455 S
H1165 C1170 0.949 . S
H1166 C1172 0.950 . S
H1167 C1173 0.950 1_655 S
H1168 C1174 0.949 . S
C1169 H1164 0.950 1_655 S
C1169 C1171 1.327 . S
C1169 C1175 1.429 . S
C1170 C1162 1.574 1_556 S
C1170 H1165 0.949 . S
C1170 C1176 1.368 . S
C1171 C1155 1.349 . S
C1171 H1163 0.950 . S
C1171 C1169 1.327 . S
C1172 C1160 1.349 . S
C1172 H1166 0.950 . S
C1172 C1173 1.327 . S
C1173 H1167 0.950 1_455 S
C1173 C1172 1.327 . S
C1173 C1177 1.429 . S
C1174 C1157 1.574 1_554 S
C1174 H1168 0.949 . S
C1174 C1178 1.368 . S
C1175 C1156 1.429 . S
C1175 C1169 1.429 . S
C1175 C1176 1.523 . S
C1176 C1157 1.368 1_655 S
C1176 C1170 1.368 . S
C1176 C1175 1.523 . S
C1177 C1161 1.429 . S
C1177 C1173 1.429 . S
C1177 C1178 1.523 . S
C1178 C1162 1.368 1_455 S
C1178 C1174 1.368 . S
C1178 C1177 1.523 . S
H1179 C1154 0.950 . S
H1180 C1156 0.950 . S
H1181 C1157 0.949 . S
H1182 C1159 0.950 . S
H1183 C1161 0.950 . S
C225 C8 1.177 . S
C230 C106 1.177 . S
C255 C22 1.177 . S
C260 C64 1.177 . S
C285 C78 1.177 . S
C290 C36 1.177 . S
C315 C50 1.177 . S
C320 C92 1.177 . S
C345 C120 1.177 . S
C350 C218 1.177 . S
C375 C176 1.177 . S
C380 C134 1.177 . S
C405 C190 1.177 . S
C410 C148 1.177 . S
C435 C204 1.177 . S
C440 C162 1.177 . S
C465 C9 1.311 . S
C470 C157 1.366 . S
C495 C23 1.311 . S
C500 C115 1.366 . S
C525 C129 1.366 . S
C530 C37 1.311 . S
C555 C51 1.311 . S
C560 C143 1.366 . S
C585 C65 1.311 . S
C590 C185 1.366 . S
C615 C199 1.366 . S
C620 C79 1.311 . S
C645 C93 1.311 . S
C650 C213 1.366 . S
C675 C171 1.366 . S
C680 C107 1.311 . S
C705 C121 1.311 1_545 S
C710 C45 1.366 . S
C735 C3 1.366 . S
C740 C135 1.311 1_455 S
C765 C149 1.311 1_565 S
C770 C17 1.366 . S
C795 C31 1.366 . S
C800 C163 1.311 1_655 S
C825 C177 1.311 1_565 S
C830 C73 1.366 . S
C855 C87 1.366 . S
C860 C191 1.311 1_655 S
C885 C101 1.366 . S
C890 C205 1.311 1_545 S
C915 C59 1.366 . S
C920 C219 1.311 1_455 S
C945 C63 1.619 . S
C950 C7 1.619 . S
C975 C77 1.619 . S
C980 C21 1.619 . S
C1005 C35 1.619 . S
C1010 C91 1.619 . S
C1035 C105 1.619 . S
C1040 C49 1.619 . S
C1065 C175 1.619 . S
C1070 C119 1.619 . S
C1095 C189 1.619 . S
C1100 C133 1.619 . S
C1125 C147 1.619 . S
C1130 C203 1.619 . S
C1155 C217 1.619 . S
C1160 C161 1.619 . S
