# Generated by pormake.
# Topology wjm, (5)-cn, num edge types: 1
# Building blocks:
#     Node 0, Type 0, BuildingBlock: BEQFEK_clean_sbu_0, # of connection points: 5
#     Node 1, Type 0, BuildingBlock: BEQFEK_clean_sbu_0, # of connection points: 5
#     Node 2, Type 0, BuildingBlock: BEQFEK_clean_sbu_0, # of connection points: 5
#     Node 3, Type 0, BuildingBlock: BEQFEK_clean_sbu_0, # of connection points: 5
#     Node 4, Type 0, BuildingBlock: BEQFEK_clean_sbu_0, # of connection points: 5
#     Node 5, Type 0, BuildingBlock: BEQFEK_clean_sbu_0, # of connection points: 5
#     Node 6, Type 0, BuildingBlock: BEQFEK_clean_sbu_0, # of connection points: 5
#     Node 7, Type 0, BuildingBlock: BEQFEK_clean_sbu_0, # of connection points: 5
#     Node 8, Type 0, BuildingBlock: BEQFEK_clean_sbu_0, # of connection points: 5
#     Node 9, Type 0, BuildingBlock: BEQFEK_clean_sbu_0, # of connection points: 5
#     Node 10, Type 0, BuildingBlock: BEQFEK_clean_sbu_0, # of connection points: 5
#     Node 11, Type 0, BuildingBlock: BEQFEK_clean_sbu_0, # of connection points: 5
#     Edge 12, Type (0, 0), BuildingBlock: UVAHIK_clean_linker_0, # of connection points: 2
#     Edge 13, Type (0, 0), BuildingBlock: UVAHIK_clean_linker_0, # of connection points: 2
#     Edge 14, Type (0, 0), BuildingBlock: UVAHIK_clean_linker_0, # of connection points: 2
#     Edge 15, Type (0, 0), BuildingBlock: UVAHIK_clean_linker_0, # of connection points: 2
#     Edge 16, Type (0, 0), BuildingBlock: UVAHIK_clean_linker_0, # of connection points: 2
#     Edge 17, Type (0, 0), BuildingBlock: UVAHIK_clean_linker_0, # of connection points: 2
#     Edge 18, Type (0, 0), BuildingBlock: UVAHIK_clean_linker_0, # of connection points: 2
#     Edge 19, Type (0, 0), BuildingBlock: UVAHIK_clean_linker_0, # of connection points: 2
#     Edge 20, Type (0, 0), BuildingBlock: UVAHIK_clean_linker_0, # of connection points: 2
#     Edge 21, Type (0, 0), BuildingBlock: UVAHIK_clean_linker_0, # of connection points: 2
#     Edge 22, Type (0, 0), BuildingBlock: UVAHIK_clean_linker_0, # of connection points: 2
#     Edge 23, Type (0, 0), BuildingBlock: UVAHIK_clean_linker_0, # of connection points: 2
#     Edge 24, Type (0, 0), BuildingBlock: UVAHIK_clean_linker_0, # of connection points: 2
#     Edge 25, Type (0, 0), BuildingBlock: UVAHIK_clean_linker_0, # of connection points: 2
#     Edge 26, Type (0, 0), BuildingBlock: UVAHIK_clean_linker_0, # of connection points: 2
#     Edge 27, Type (0, 0), BuildingBlock: UVAHIK_clean_linker_0, # of connection points: 2
#     Edge 28, Type (0, 0), BuildingBlock: UVAHIK_clean_linker_0, # of connection points: 2
#     Edge 29, Type (0, 0), BuildingBlock: UVAHIK_clean_linker_0, # of connection points: 2
#     Edge 30, Type (0, 0), BuildingBlock: UVAHIK_clean_linker_0, # of connection points: 2
#     Edge 31, Type (0, 0), BuildingBlock: UVAHIK_clean_linker_0, # of connection points: 2
#     Edge 32, Type (0, 0), BuildingBlock: UVAHIK_clean_linker_0, # of connection points: 2
#     Edge 33, Type (0, 0), BuildingBlock: UVAHIK_clean_linker_0, # of connection points: 2
#     Edge 34, Type (0, 0), BuildingBlock: UVAHIK_clean_linker_0, # of connection points: 2
#     Edge 35, Type (0, 0), BuildingBlock: UVAHIK_clean_linker_0, # of connection points: 2
#     Edge 36, Type (0, 0), BuildingBlock: UVAHIK_clean_linker_0, # of connection points: 2
#     Edge 37, Type (0, 0), BuildingBlock: UVAHIK_clean_linker_0, # of connection points: 2
#     Edge 38, Type (0, 0), BuildingBlock: UVAHIK_clean_linker_0, # of connection points: 2
#     Edge 39, Type (0, 0), BuildingBlock: UVAHIK_clean_linker_0, # of connection points: 2
#     Edge 40, Type (0, 0), BuildingBlock: UVAHIK_clean_linker_0, # of connection points: 2
#     Edge 41, Type (0, 0), BuildingBlock: UVAHIK_clean_linker_0, # of connection points: 2
# Relax obj value: 0.655
# Max RMSD: 0.238
# Mean RMSD: 0.238
data_MOF--net-wjm--node1-BEQFEK_clean_sbu_0--edge1-UVAHIK_clean_linker_0
_symmetry_space_group_name_H-M    P1
_symmetry_Int_Tables_number       1
_symmetry_cell_setting            triclinic
loop_
_symmetry_equiv_pos_as_xyz
'x, y, z'
_cell_length_a     46.353084
_cell_length_b     46.383385
_cell_length_c     54.55823
_cell_angle_alpha  89.809524
_cell_angle_beta   90.136058
_cell_angle_gamma 120.0506
loop_
_atom_site_label
_atom_site_type_symbol
_atom_site_fract_x
_atom_site_fract_y
_atom_site_fract_z
_atom_type_partial_charge
Co0 Co 0.26366 0.42642 0.23953 0.0
Co1 Co 0.25052 0.39019 0.18836 0.0
C2 C 0.23083 0.35185 0.23621 0.0
O3 O 0.24055 0.37897 0.24772 0.0
O4 O 0.2326 0.35141 0.21277 0.0
C5 C 0.24882 0.45451 0.28329 0.0
O6 O 0.21722 0.43951 0.27704 0.0
C7 C 0.21834 0.35569 0.14034 0.0
C8 C 0.26291 0.38039 0.1167 0.0
C9 C 0.22906 0.3579 0.1161 0.0
N10 N 0.24482 0.37638 0.15433 0.0
N11 N 0.27126 0.39071 0.13992 0.0
C12 C 0.18416 0.33312 0.15026 0.0
H13 H 0.185 0.33111 0.1705 0.0
H14 H 0.16751 0.34307 0.14564 0.0
H15 H 0.17351 0.30811 0.14177 0.0
C16 C 0.23579 0.46267 0.21332 0.0
N17 N 0.24227 0.43745 0.21473 0.0
N18 N 0.23519 0.42171 0.19356 0.0
C19 C 0.22329 0.43637 0.17819 0.0
C20 C 0.22275 0.46238 0.19045 0.0
C21 C 0.24784 0.49057 0.23144 0.0
H22 H 0.27022 0.4938 0.24119 0.0
H23 H 0.22766 0.48509 0.2447 0.0
H24 H 0.2544 0.51443 0.2222 0.0
O25 O 0.30886 0.43903 0.22897 0.0
O26 O 0.3 0.4144 0.19278 0.0
H27 H 0.23696 0.43042 0.14195 0.0
H28 H 0.20533 0.44241 0.14292 0.0
C29 C 0.21467 0.42716 0.15188 0.0
H30 H 0.19507 0.40068 0.15076 0.0
H31 H 0.29512 0.40828 0.14579 0.0
O32 O 0.2697 0.45145 0.27014 0.0
C33 C 0.31972 0.43241 0.20968 0.0
Co34 Co 0.83673 0.26413 0.58003 0.0
Co35 Co 0.85802 0.25106 0.52834 0.0
C36 C 0.87689 0.23118 0.57708 0.0
O37 O 0.85948 0.24028 0.58917 0.0
O38 O 0.87899 0.23397 0.55368 0.0
C39 C 0.83874 0.28527 0.6284 0.0
O40 O 0.86775 0.28671 0.62744 0.0
C41 C 0.84964 0.21441 0.48072 0.0
C42 C 0.89185 0.25399 0.45997 0.0
C43 C 0.86518 0.22194 0.45785 0.0
N44 N 0.86622 0.24117 0.49545 0.0
N45 N 0.8916 0.26446 0.48287 0.0
C46 C 0.82131 0.18165 0.48899 0.0
H47 H 0.81478 0.18301 0.50835 0.0
H48 H 0.79923 0.174 0.47715 0.0
H49 H 0.82856 0.16228 0.48723 0.0
C50 C 0.77162 0.23448 0.55696 0.0
N51 N 0.80331 0.24103 0.5565 0.0
N52 N 0.81152 0.23765 0.53401 0.0
C53 C 0.7852 0.2304 0.51918 0.0
C54 C 0.75899 0.22782 0.53334 0.0
C55 C 0.75488 0.23759 0.5794 0.0
H56 H 0.76122 0.22704 0.59544 0.0
H57 H 0.7274 0.22441 0.57712 0.0
H58 H 0.76403 0.26433 0.58302 0.0
O59 O 0.86989 0.30865 0.56743 0.0
O60 O 0.88374 0.3003 0.53035 0.0
H61 H 0.77354 0.24548 0.48497 0.0
H62 H 0.77449 0.20746 0.48393 0.0
C63 C 0.787 0.23287 0.49181 0.0
H64 H 0.81318 0.24693 0.48551 0.0
H65 H 0.90854 0.28793 0.48979 0.0
O66 O 0.81936 0.27399 0.61001 0.0
C67 C 0.88628 0.31979 0.54763 0.0
Co68 Co 0.56845 0.83061 0.90586 0.0
Co69 Co 0.60529 0.86124 0.85644 0.0
C70 C 0.64005 0.87852 0.90714 0.0
O71 O 0.61361 0.85741 0.91806 0.0
O72 O 0.64049 0.88247 0.88383 0.0
C73 C 0.53515 0.81961 0.95151 0.0
O74 O 0.55614 0.85158 0.95444 0.0
C75 C 0.63798 0.85942 0.80953 0.0
C76 C 0.6398 0.90223 0.79024 0.0
C77 C 0.6464 0.87646 0.78719 0.0
N78 N 0.62629 0.87415 0.82469 0.0
N79 N 0.62795 0.89997 0.81305 0.0
C80 C 0.64253 0.83084 0.81688 0.0
H81 H 0.6435 0.82936 0.83716 0.0
H82 H 0.62134 0.8072 0.81016 0.0
H83 H 0.66569 0.83367 0.80866 0.0
C84 C 0.54171 0.76893 0.87891 0.0
N85 N 0.56493 0.80132 0.88066 0.0
N86 N 0.57571 0.81363 0.85865 0.0
C87 C 0.55724 0.78964 0.84202 0.0
C88 C 0.53542 0.76039 0.85442 0.0
C89 C 0.52202 0.74775 0.90014 0.0
H90 H 0.53828 0.7537 0.9165 0.0
H91 H 0.51088 0.7209 0.89574 0.0
H92 H 0.50155 0.75278 0.90433 0.0
O93 O 0.55223 0.86095 0.89437 0.0
O94 O 0.57707 0.88167 0.85874 0.0
H95 H 0.56811 0.82332 0.81146 0.0
H96 H 0.52743 0.78646 0.81087 0.0
C97 C 0.55406 0.79632 0.81557 0.0
H98 H 0.56317 0.78296 0.80395 0.0
H99 H 0.62003 0.91556 0.82046 0.0
O100 O 0.53784 0.80516 0.93269 0.0
C101 C 0.55711 0.87927 0.87561 0.0
Co102 Co 0.73221 0.5744 0.23923 0.0
Co103 Co 0.74088 0.60742 0.18758 0.0
C104 C 0.75985 0.64591 0.23694 0.0
O105 O 0.75456 0.62069 0.24962 0.0
O106 O 0.75501 0.64391 0.2137 0.0
C107 C 0.7286 0.53535 0.28676 0.0
O108 O 0.75916 0.55354 0.29505 0.0
C109 C 0.77758 0.63815 0.1406 0.0
C110 C 0.73626 0.63611 0.11899 0.0
C111 C 0.7693 0.64422 0.11721 0.0
N112 N 0.75034 0.62632 0.15503 0.0
N113 N 0.72601 0.62572 0.14198 0.0
C114 C 0.8109 0.64491 0.14961 0.0
H115 H 0.81228 0.6475 0.16986 0.0
H116 H 0.81474 0.62394 0.14474 0.0
H117 H 0.83103 0.66788 0.14094 0.0
C118 C 0.76437 0.54201 0.21493 0.0
N119 N 0.75613 0.56597 0.21505 0.0
N120 N 0.75689 0.57653 0.1925 0.0
C121 C 0.76363 0.55771 0.17714 0.0
C122 C 0.76903 0.53557 0.19098 0.0
C123 C 0.76424 0.52296 0.23713 0.0
H124 H 0.77642 0.54046 0.25252 0.0
H125 H 0.77772 0.50922 0.2337 0.0
H126 H 0.73813 0.50481 0.24225 0.0
O127 O 0.68708 0.56211 0.22689 0.0
O128 O 0.69199 0.58147 0.18912 0.0
H129 H 0.74395 0.56816 0.14452 0.0
H130 H 0.74265 0.52864 0.14458 0.0
C131 C 0.75749 0.55519 0.15008 0.0
H132 H 0.78163 0.56599 0.14027 0.0
H133 H 0.70197 0.61725 0.14856 0.0
O134 O 0.71969 0.54301 0.2669 0.0
C135 C 0.67403 0.56516 0.20723 0.0
Co136 Co 0.15589 0.73252 0.57161 0.0
Co137 Co 0.12826 0.74174 0.52162 0.0
C138 C 0.11325 0.76139 0.57257 0.0
O139 O 0.13377 0.75564 0.58398 0.0
O140 O 0.10858 0.75652 0.54941 0.0
C141 C 0.19403 0.72814 0.61705 0.0
O142 O 0.20701 0.75868 0.62539 0.0
C143 C 0.1328 0.77923 0.47535 0.0
C144 C 0.08875 0.7404 0.45573 0.0
C145 C 0.11575 0.77223 0.45307 0.0
N146 N 0.11686 0.75236 0.49012 0.0
N147 N 0.09032 0.72955 0.47829 0.0
C148 C 0.16247 0.81137 0.48305 0.0
H149 H 0.16476 0.81258 0.50333 0.0
H150 H 0.18546 0.81345 0.47527 0.0
H151 H 0.16027 0.83268 0.47602 0.0
C152 C 0.21876 0.76412 0.54492 0.0
N153 N 0.18668 0.75619 0.54642 0.0
N154 N 0.17535 0.75675 0.52437 0.0
C155 C 0.19971 0.76284 0.50794 0.0
C156 C 0.22815 0.76832 0.52056 0.0
C157 C 0.23903 0.76375 0.56615 0.0
H158 H 0.23492 0.77601 0.58206 0.0
H159 H 0.26601 0.77701 0.56167 0.0
H160 H 0.23117 0.7376 0.57103 0.0
O161 O 0.12143 0.68781 0.55976 0.0
O162 O 0.10435 0.6928 0.52292 0.0
H163 H 0.16732 0.7445 0.47632 0.0
H164 H 0.20276 0.73837 0.47562 0.0
C165 C 0.19402 0.75576 0.48108 0.0
H166 H 0.20904 0.77913 0.47059 0.0
H167 H 0.07367 0.70606 0.48539 0.0
O168 O 0.17616 0.71923 0.59783 0.0
C169 C 0.1037 0.67482 0.54075 0.0
Co170 Co 0.42166 0.15232 0.90296 0.0
Co171 Co 0.38046 0.12601 0.85424 0.0
C172 C 0.34888 0.11443 0.90586 0.0
O173 O 0.37682 0.13291 0.9162 0.0
O174 O 0.34673 0.10938 0.88264 0.0
C175 C 0.46382 0.19024 0.94747 0.0
O176 O 0.44544 0.20301 0.95432 0.0
C177 C 0.34567 0.1311 0.80914 0.0
C178 C 0.34417 0.09045 0.78719 0.0
C179 C 0.33708 0.11606 0.78613 0.0
N180 N 0.35797 0.11542 0.82284 0.0
N181 N 0.35633 0.09079 0.80964 0.0
C182 C 0.34014 0.15822 0.81854 0.0
H183 H 0.3539 0.16847 0.83595 0.0
H184 H 0.34755 0.17833 0.8048 0.0
H185 H 0.31313 0.14766 0.82208 0.0
C186 C 0.45368 0.21551 0.8757 0.0
N187 N 0.42977 0.18329 0.87761 0.0
N188 N 0.41483 0.17259 0.85627 0.0
C189 C 0.43041 0.19766 0.83974 0.0
C190 C 0.45482 0.22584 0.85175 0.0
C191 C 0.47793 0.23472 0.89565 0.0
H192 H 0.49219 0.22221 0.90061 0.0
H193 H 0.46403 0.23521 0.91198 0.0
H194 H 0.49587 0.26068 0.89012 0.0
O195 O 0.42815 0.11567 0.89124 0.0
O196 O 0.40257 0.09889 0.85547 0.0
H197 H 0.41443 0.16773 0.80705 0.0
H198 H 0.44857 0.20952 0.8026 0.0
C199 C 0.42492 0.19404 0.81262 0.0
H200 H 0.4077 0.20302 0.80729 0.0
H201 H 0.36471 0.07486 0.81562 0.0
O202 O 0.456 0.17171 0.92869 0.0
C203 C 0.42036 0.09706 0.87248 0.0
Co204 Co 0.56725 0.72955 0.42248 0.0
Co205 Co 0.60498 0.74163 0.47252 0.0
C206 C 0.63932 0.7597 0.42152 0.0
O207 O 0.61277 0.7529 0.41 0.0
O208 O 0.63938 0.75588 0.44481 0.0
C209 C 0.52516 0.72442 0.37692 0.0
O210 O 0.5431 0.7551 0.36879 0.0
C211 C 0.63919 0.78091 0.51782 0.0
C212 C 0.64065 0.74146 0.53966 0.0
C213 C 0.64793 0.77422 0.54075 0.0
N214 N 0.6267 0.75301 0.50412 0.0
N215 N 0.62819 0.72981 0.51727 0.0
C216 C 0.64504 0.81374 0.50839 0.0
H217 H 0.63522 0.8112 0.48946 0.0
H218 H 0.63327 0.82403 0.52047 0.0
H219 H 0.67222 0.83177 0.5084 0.0
C220 C 0.53626 0.76268 0.44812 0.0
N221 N 0.55975 0.75375 0.44703 0.0
N222 N 0.57283 0.75636 0.46894 0.0
C223 C 0.55627 0.76512 0.48497 0.0
C224 C 0.53323 0.77027 0.47213 0.0
C225 C 0.51357 0.759 0.42733 0.0
H226 H 0.49741 0.73219 0.42307 0.0
H227 H 0.52875 0.77186 0.41098 0.0
H228 H 0.49742 0.76961 0.43165 0.0
O229 O 0.55782 0.68551 0.43523 0.0
O230 O 0.58023 0.6926 0.47213 0.0
H231 H 0.56937 0.74814 0.51772 0.0
H232 H 0.53387 0.75392 0.52088 0.0
C233 C 0.55872 0.76391 0.51227 0.0
H234 H 0.57462 0.78952 0.51931 0.0
H235 H 0.61977 0.70556 0.51122 0.0
O236 O 0.53358 0.71516 0.39626 0.0
C237 C 0.56305 0.67367 0.4547 0.0
Co238 Co 0.82297 0.57391 0.7451 0.0
Co239 Co 0.85048 0.59512 0.79891 0.0
C240 C 0.87747 0.64301 0.75592 0.0
O241 O 0.8563 0.62099 0.74166 0.0
O242 O 0.87863 0.63697 0.77867 0.0
C243 C 0.79481 0.53981 0.69749 0.0
O244 O 0.78024 0.539 0.67662 0.0
C245 C 0.85439 0.62309 0.84877 0.0
C246 C 0.87501 0.59685 0.86989 0.0
C247 C 0.86318 0.61886 0.87252 0.0
N248 N 0.86029 0.60402 0.8333 0.0
N249 N 0.87291 0.58873 0.84609 0.0
C250 C 0.84158 0.64535 0.84041 0.0
H251 H 0.84645 0.6508 0.82054 0.0
H252 H 0.81424 0.63265 0.84329 0.0
H253 H 0.85349 0.66894 0.85098 0.0
C254 C 0.75923 0.54606 0.77067 0.0
N255 N 0.79247 0.56653 0.77065 0.0
N256 N 0.80328 0.57289 0.79342 0.0
C257 C 0.77722 0.55476 0.80858 0.0
C258 C 0.74839 0.5371 0.7946 0.0
C259 C 0.73838 0.53252 0.74806 0.0
H260 H 0.74594 0.55263 0.73426 0.0
H261 H 0.71152 0.52191 0.75233 0.0
H262 H 0.74194 0.5126 0.74012 0.0
O263 O 0.84728 0.54883 0.75137 0.0
O264 O 0.86483 0.56332 0.78974 0.0
H265 H 0.80231 0.54467 0.83753 0.0
H266 H 0.75806 0.52721 0.84252 0.0
C267 C 0.78094 0.54889 0.83511 0.0
H268 H 0.78603 0.57124 0.84576 0.0
H269 H 0.87947 0.57205 0.83863 0.0
O270 O 0.7991 0.56176 0.7132 0.0
C271 C 0.8623 0.54691 0.77041 0.0
Co272 Co 0.26187 0.83978 0.08714 0.0
Co273 Co 0.24877 0.86386 0.13749 0.0
C274 C 0.2294 0.88087 0.08817 0.0
O275 O 0.23833 0.86272 0.07687 0.0
O276 O 0.23199 0.88395 0.11153 0.0
C277 C 0.25457 0.80024 0.04177 0.0
O278 O 0.22189 0.78437 0.04285 0.0
C279 C 0.21185 0.86149 0.18357 0.0
C280 C 0.25447 0.896 0.20662 0.0
C281 C 0.22033 0.87501 0.20705 0.0
N282 N 0.23998 0.87366 0.17011 0.0
N283 N 0.26517 0.89458 0.18404 0.0
C284 C 0.1776 0.83959 0.17352 0.0
H285 H 0.17887 0.83015 0.15512 0.0
H286 H 0.1626 0.81849 0.18608 0.0
H287 H 0.16476 0.85429 0.17194 0.0
C288 C 0.2322 0.77546 0.11324 0.0
N289 N 0.2394 0.8074 0.11186 0.0
N290 N 0.23396 0.81682 0.13333 0.0
C291 C 0.22345 0.79081 0.14912 0.0
C292 C 0.22127 0.76362 0.13667 0.0
C293 C 0.24121 0.75834 0.09401 0.0
H294 H 0.26582 0.77597 0.08603 0.0
H295 H 0.22202 0.74907 0.07941 0.0
H296 H 0.24252 0.73679 0.10155 0.0
O297 O 0.30644 0.87309 0.09884 0.0
O298 O 0.29825 0.88878 0.13521 0.0
H299 H 0.23779 0.81705 0.18336 0.0
H300 H 0.2195 0.77245 0.18625 0.0
C301 C 0.21853 0.79264 0.17605 0.0
H302 H 0.19361 0.78968 0.17917 0.0
H303 H 0.28998 0.90742 0.17834 0.0
O304 O 0.27194 0.82161 0.05793 0.0
C305 C 0.3177 0.89032 0.11821 0.0
Co306 Co 0.42256 0.2628 0.42141 0.0
Co307 Co 0.38194 0.25063 0.47011 0.0
C308 C 0.34952 0.2329 0.41893 0.0
O309 O 0.37716 0.24082 0.40876 0.0
O310 O 0.3475 0.23546 0.44218 0.0
C311 C 0.45413 0.25449 0.37671 0.0
O312 O 0.43095 0.22303 0.37504 0.0
C313 C 0.34691 0.21275 0.51575 0.0
C314 C 0.34769 0.25341 0.53723 0.0
C315 C 0.3392 0.2203 0.53868 0.0
N316 N 0.36004 0.24046 0.5017 0.0
N317 N 0.35979 0.26439 0.51462 0.0
C318 C 0.33976 0.17936 0.50674 0.0
H319 H 0.35285 0.18183 0.48918 0.0
H320 H 0.34684 0.16646 0.52055 0.0
H321 H 0.31253 0.16363 0.50364 0.0
C322 C 0.45267 0.2303 0.44924 0.0
N323 N 0.42881 0.23859 0.44677 0.0
N324 N 0.41413 0.23549 0.46806 0.0
C325 C 0.42977 0.22668 0.48505 0.0
C326 C 0.45397 0.22218 0.47347 0.0
C327 C 0.47762 0.23565 0.42979 0.0
H328 H 0.49023 0.26198 0.42364 0.0
H329 H 0.46451 0.21936 0.41398 0.0
H330 H 0.4969 0.22996 0.4363 0.0
O331 O 0.43406 0.30758 0.4333 0.0
O332 O 0.40742 0.2999 0.46853 0.0
H333 H 0.4165 0.24472 0.51693 0.0
H334 H 0.4489 0.23467 0.52208 0.0
C335 C 0.42529 0.22722 0.51217 0.0
H336 H 0.40693 0.20183 0.5185 0.0
H337 H 0.36906 0.28873 0.50833 0.0
O338 O 0.45387 0.27251 0.39407 0.0
C339 C 0.42704 0.31913 0.45205 0.0
Co340 Co 0.14881 0.42511 0.75139 0.0
Co341 Co 0.1238 0.39029 0.80281 0.0
C342 C 0.11154 0.35102 0.7557 0.0
O343 O 0.12883 0.37785 0.74373 0.0
O344 O 0.10703 0.35137 0.77884 0.0
C345 C 0.19228 0.45335 0.70793 0.0
O346 O 0.20796 0.43739 0.71401 0.0
C347 C 0.12322 0.3568 0.85052 0.0
C348 C 0.0998 0.37773 0.87429 0.0
C349 C 0.1142 0.35781 0.87485 0.0
N350 N 0.11502 0.37583 0.83666 0.0
N351 N 0.10067 0.38782 0.85107 0.0
C352 C 0.13789 0.33708 0.8403 0.0
H353 H 0.13252 0.33282 0.82038 0.0
H354 H 0.16531 0.35094 0.84274 0.0
H355 H 0.12774 0.31288 0.85004 0.0
C356 C 0.21167 0.46418 0.77897 0.0
N357 N 0.18005 0.43871 0.77732 0.0
N358 N 0.17031 0.4242 0.79892 0.0
C359 C 0.19586 0.44036 0.81497 0.0
C360 C 0.22302 0.46566 0.80262 0.0
C361 C 0.22923 0.49004 0.75955 0.0
H362 H 0.21119 0.4943 0.74911 0.0
H363 H 0.24223 0.48154 0.74704 0.0
H364 H 0.24824 0.51412 0.76759 0.0
O365 O 0.11241 0.43367 0.75961 0.0
O366 O 0.09544 0.41078 0.79633 0.0
H367 H 0.17148 0.43321 0.84958 0.0
H368 H 0.21632 0.45234 0.85169 0.0
C369 C 0.19374 0.43348 0.8419 0.0
H370 H 0.19118 0.40874 0.84498 0.0
H371 H 0.0923 0.4038 0.84518 0.0
O372 O 0.16852 0.45078 0.72109 0.0
C373 C 0.09324 0.4267 0.77801 0.0
Co374 Co 0.72921 0.15944 0.09052 0.0
Co375 Co 0.74104 0.13173 0.13992 0.0
C376 C 0.75999 0.11701 0.0895 0.0
O377 O 0.75188 0.13637 0.07895 0.0
O378 O 0.75709 0.1125 0.11276 0.0
C379 C 0.74021 0.20047 0.04602 0.0
O380 O 0.77233 0.21131 0.04705 0.0
C381 C 0.77783 0.13463 0.18627 0.0
C382 C 0.73637 0.09535 0.20775 0.0
C383 C 0.76961 0.11964 0.20935 0.0
N384 N 0.75036 0.12021 0.17197 0.0
N385 N 0.72595 0.09636 0.18491 0.0
C386 C 0.81158 0.16046 0.1774 0.0
H387 H 0.80961 0.17137 0.15977 0.0
H388 H 0.82467 0.18028 0.19123 0.0
H389 H 0.82684 0.14847 0.17444 0.0
C390 C 0.76059 0.2223 0.118 0.0
N391 N 0.75254 0.19019 0.11586 0.0
N392 N 0.75598 0.17899 0.13728 0.0
C393 C 0.765 0.2037 0.15397 0.0
C394 C 0.76923 0.23213 0.14205 0.0
C395 C 0.75452 0.24152 0.09855 0.0
H396 H 0.72901 0.22626 0.09108 0.0
H397 H 0.77284 0.24767 0.08361 0.0
H398 H 0.75713 0.26512 0.10558 0.0
O399 O 0.68418 0.12584 0.10197 0.0
O400 O 0.69178 0.10756 0.13765 0.0
H401 H 0.74711 0.17307 0.18633 0.0
H402 H 0.75784 0.21578 0.19084 0.0
C403 C 0.76483 0.19921 0.18116 0.0
H404 H 0.79026 0.20608 0.18731 0.0
H405 H 0.70167 0.08147 0.17845 0.0
O406 O 0.72059 0.18044 0.06209 0.0
C407 C 0.67261 0.10745 0.12088 0.0
C408 C 0.61789 0.53834 0.22703 0.0
C409 C 0.63737 0.54967 0.20568 0.0
C410 C 0.58334 0.52415 0.22579 0.0
C411 C 0.51565 0.51781 0.18561 0.0
H412 H 0.46011 0.4473 0.23116 0.0
C413 C 0.37038 0.44604 0.18457 0.0
C414 C 0.3559 0.44506 0.20741 0.0
C415 C 0.4046 0.45772 0.18277 0.0
C416 C 0.47537 0.467 0.21835 0.0
H417 H 0.63579 0.55454 0.16622 0.0
H418 H 0.57531 0.52877 0.16395 0.0
H419 H 0.52002 0.46882 0.2306 0.0
H420 H 0.36592 0.45531 0.24626 0.0
H421 H 0.42536 0.47503 0.2431 0.0
H422 H 0.4705 0.51535 0.17321 0.0
C423 C 0.5868 0.5316 0.18175 0.0
C424 C 0.50972 0.47951 0.2181 0.0
C425 C 0.62148 0.54622 0.18302 0.0
C426 C 0.37628 0.45585 0.22837 0.0
C427 C 0.41027 0.46694 0.22663 0.0
C428 C 0.48115 0.50491 0.18563 0.0
C429 C 0.56728 0.52046 0.20314 0.0
C430 C 0.53042 0.50553 0.20206 0.0
C431 C 0.42474 0.46797 0.20384 0.0
C432 C 0.46083 0.47982 0.20232 0.0
H433 H 0.62935 0.54088 0.24481 0.0
H434 H 0.56931 0.51659 0.24273 0.0
H435 H 0.53077 0.53809 0.17321 0.0
H436 H 0.35533 0.43797 0.16809 0.0
H437 H 0.41524 0.45824 0.16501 0.0
C438 C 0.91943 0.37656 0.56585 0.0
C439 C 0.90915 0.35606 0.545 0.0
C440 C 0.94152 0.4107 0.56366 0.0
C441 C 0.97064 0.48116 0.5223 0.0
H442 H 0.04822 0.52186 0.5647 0.0
C443 C 0.06817 0.62205 0.51733 0.0
C444 C 0.08204 0.6382 0.53964 0.0
C445 C 0.04811 0.58734 0.51648 0.0
C446 C 0.02647 0.51104 0.55294 0.0
H447 H 0.91355 0.3554 0.50545 0.0
H448 H 0.95178 0.41552 0.50164 0.0
H449 H 0.0108 0.46183 0.56612 0.0
H450 H 0.08513 0.63068 0.57861 0.0
H451 H 0.0494 0.57066 0.57731 0.0
H452 H 0.98544 0.5304 0.50976 0.0
C453 C 0.94283 0.40489 0.51964 0.0
C454 C 0.00518 0.47662 0.55368 0.0
C455 C 0.92111 0.37054 0.52185 0.0
C456 C 0.07512 0.619 0.56107 0.0
C457 C 0.05478 0.58446 0.56028 0.0
C458 C 0.9917 0.51574 0.5218 0.0
C459 C 0.95342 0.42518 0.54057 0.0
C460 C 0.97691 0.46141 0.53856 0.0
C461 C 0.04118 0.5681 0.53796 0.0
C462 C 0.01969 0.53117 0.53735 0.0
H463 H 0.91075 0.3662 0.58395 0.0
H464 H 0.94909 0.42589 0.58005 0.0
H465 H 0.94885 0.46997 0.51057 0.0
H466 H 0.07317 0.63615 0.50047 0.0
H467 H 0.03842 0.57561 0.49892 0.0
C468 C 0.43336 0.0589 0.84835 0.0
C469 C 0.43181 0.07254 0.87095 0.0
C470 C 0.4448 0.03613 0.8472 0.0
C471 C 0.45316 0.97453 0.88345 0.0
H472 H 0.52747 0.99285 0.84108 0.0
C473 C 0.52589 0.90468 0.89449 0.0
C474 C 0.53982 0.89871 0.87365 0.0
C475 C 0.51076 0.92418 0.89285 0.0
C476 C 0.50627 0.98688 0.85268 0.0
H477 H 0.4404 0.07252 0.91008 0.0
H478 H 0.45956 0.0323 0.90806 0.0
H479 H 0.50378 0.02942 0.84 0.0
H480 H 0.54794 0.90768 0.83456 0.0
H481 H 0.52044 0.94059 0.83148 0.0
H482 H 0.45499 0.93177 0.89591 0.0
C483 C 0.45221 0.03943 0.89127 0.0
C484 C 0.49284 0.00797 0.85209 0.0
C485 C 0.44143 0.06259 0.89237 0.0
C486 C 0.53768 0.91208 0.85102 0.0
C487 C 0.52208 0.93116 0.84929 0.0
C488 C 0.46619 0.95313 0.88377 0.0
C489 C 0.45416 0.02611 0.86869 0.0
C490 C 0.46653 0.00227 0.86776 0.0
C491 C 0.50868 0.93776 0.87024 0.0
C492 C 0.49333 0.95931 0.86869 0.0
H493 H 0.42618 0.06615 0.83154 0.0
H494 H 0.44605 0.02611 0.82958 0.0
H495 H 0.43261 0.96943 0.89553 0.0
H496 H 0.52735 0.89495 0.91224 0.0
H497 H 0.50138 0.92919 0.9095 0.0
C498 C 0.54635 0.62195 0.47951 0.0
C499 C 0.54952 0.63733 0.45663 0.0
C500 C 0.53378 0.58756 0.48102 0.0
C501 C 0.52687 0.51788 0.44614 0.0
H502 H 0.45014 0.46113 0.48644 0.0
C503 C 0.45593 0.37625 0.43384 0.0
C504 C 0.44184 0.35561 0.4544 0.0
C505 C 0.4699 0.41066 0.43576 0.0
C506 C 0.47196 0.47662 0.47543 0.0
H507 H 0.54223 0.62877 0.41743 0.0
H508 H 0.5211 0.569 0.42012 0.0
H509 H 0.47361 0.52151 0.4873 0.0
H510 H 0.43154 0.35494 0.49321 0.0
H511 H 0.45699 0.41529 0.4968 0.0
H512 H 0.52598 0.47356 0.43453 0.0
C513 C 0.52808 0.58352 0.43683 0.0
C514 C 0.48527 0.51116 0.47589 0.0
C515 C 0.54001 0.61768 0.43534 0.0
C516 C 0.44209 0.37019 0.477 0.0
C517 C 0.45653 0.40478 0.47901 0.0
C518 C 0.51397 0.4835 0.44597 0.0
C519 C 0.52488 0.56817 0.45965 0.0
C520 C 0.51242 0.53197 0.46088 0.0
C521 C 0.47067 0.42548 0.4584 0.0
C522 C 0.48589 0.46231 0.4602 0.0
H523 H 0.55339 0.63644 0.49623 0.0
H524 H 0.53157 0.5762 0.49882 0.0
H525 H 0.54815 0.53352 0.43467 0.0
H526 H 0.4558 0.36579 0.41608 0.0
H527 H 0.47972 0.42559 0.41933 0.0
C528 C 0.049 0.43422 0.79865 0.0
C529 C 0.06705 0.43615 0.77744 0.0
C530 C 0.02404 0.4428 0.79777 0.0
C531 C 0.96679 0.45207 0.75572 0.0
H532 H 0.96775 0.51226 0.8052 0.0
C533 C 0.88948 0.51922 0.74826 0.0
C534 C 0.87871 0.52656 0.77021 0.0
C535 C 0.90927 0.50421 0.74883 0.0
C536 C 0.96659 0.49491 0.79147 0.0
H537 H 0.07263 0.44815 0.7386 0.0
H538 H 0.02905 0.46288 0.73715 0.0
H539 H 0.00829 0.49371 0.80725 0.0
H540 H 0.87767 0.52128 0.80977 0.0
H541 H 0.91095 0.49429 0.81072 0.0
H542 H 0.9249 0.45313 0.73998 0.0
C543 C 0.03417 0.4547 0.75441 0.0
C544 C 0.98999 0.48439 0.79264 0.0
C545 C 0.05935 0.44654 0.75533 0.0
C546 C 0.88616 0.51658 0.79255 0.0
C547 C 0.90548 0.50129 0.7931 0.0
C548 C 0.94308 0.46234 0.75467 0.0
C549 C 0.01633 0.45305 0.77562 0.0
C550 C 0.99048 0.46301 0.77474 0.0
C551 C 0.91835 0.49599 0.77136 0.0
C552 C 0.94274 0.48398 0.77253 0.0
H553 H 0.05423 0.42625 0.81595 0.0
H554 H 0.01055 0.44114 0.81439 0.0
H555 H 0.96644 0.43534 0.74176 0.0
H556 H 0.88404 0.52655 0.73076 0.0
H557 H 0.91872 0.50054 0.7317 0.0
C558 C 0.3689 0.92484 0.14367 0.0
C559 C 0.35411 0.91249 0.12071 0.0
C560 C 0.40355 0.94492 0.14576 0.0
C561 C 0.48167 0.96847 0.11136 0.0
H562 H 0.52113 0.04351 0.15597 0.0
C563 C 0.61604 0.07648 0.10192 0.0
C564 C 0.63622 0.08489 0.12295 0.0
C565 C 0.58182 0.05443 0.1035 0.0
C566 C 0.51037 0.02241 0.14363 0.0
H567 H 0.36392 0.91241 0.08185 0.0
H568 H 0.42375 0.94815 0.08531 0.0
H569 H 0.46059 0.007 0.15516 0.0
H570 H 0.63623 0.0773 0.16221 0.0
H571 H 0.5759 0.03917 0.16499 0.0
H572 H 0.53139 0.98481 0.09916 0.0
C573 C 0.40898 0.94149 0.1019 0.0
C574 C 0.47574 0.00142 0.14319 0.0
C575 C 0.37455 0.92114 0.09987 0.0
C576 C 0.62132 0.07119 0.14569 0.0
C577 C 0.58688 0.04953 0.14732 0.0
C578 C 0.51611 0.9897 0.11155 0.0
C579 C 0.42403 0.95334 0.12488 0.0
C580 C 0.46093 0.97447 0.12676 0.0
C581 C 0.56695 0.04074 0.12618 0.0
C582 C 0.53072 0.01707 0.12744 0.0
H583 H 0.35379 0.91849 0.16008 0.0
H584 H 0.41427 0.95335 0.16379 0.0
H585 H 0.47132 0.94745 0.09897 0.0
H586 H 0.62674 0.08652 0.08413 0.0
H587 H 0.56688 0.0482 0.08698 0.0
C588 C 0.17947 0.34176 0.08841 0.0
C589 C 0.21026 0.3437 0.09295 0.0
C590 C 0.16581 0.33522 0.06468 0.0
C591 C 0.19436 0.34719 0.0006 0.0
H592 H 0.10046 0.2953 0.98457 0.0
C593 C 0.1497 0.34234 0.90104 0.0
C594 C 0.12096 0.34494 0.89798 0.0
C595 C 0.1583 0.33566 0.92421 0.0
C596 C 0.12678 0.31012 0.98872 0.0
H597 H 0.2498 0.33835 0.07644 0.0
H598 H 0.22594 0.32664 0.03538 0.0
H599 H 0.1189 0.29553 0.02663 0.0
H600 H 0.07815 0.34127 0.91689 0.0
H601 H 0.09339 0.3305 0.95704 0.0
H602 H 0.20239 0.36289 0.96317 0.0
C603 C 0.21252 0.33065 0.04996 0.0
C604 C 0.13732 0.31017 0.01287 0.0
C605 C 0.22608 0.33713 0.07356 0.0
C606 C 0.10045 0.33939 0.9185 0.0
C607 C 0.1091 0.33293 0.94161 0.0
C608 C 0.18384 0.34737 0.97657 0.0
C609 C 0.18278 0.3307 0.045 0.0
C610 C 0.17125 0.3289 0.01915 0.0
C611 C 0.13859 0.33176 0.94498 0.0
C612 C 0.14986 0.3291 0.97025 0.0
H613 H 0.16701 0.34754 0.10267 0.0
H614 H 0.14298 0.33569 0.06148 0.0
H615 H 0.22063 0.3624 0.00482 0.0
H616 H 0.16662 0.3472 0.88598 0.0
H617 H 0.18095 0.33446 0.92592 0.0
C618 C 0.7868 0.10666 0.24942 0.0
C619 C 0.78802 0.13053 0.23288 0.0
C620 C 0.79797 0.11541 0.2736 0.0
C621 C 0.80641 0.17563 0.32056 0.0
H622 H 0.85601 0.14265 0.3569 0.0
C623 C 0.82197 0.19067 0.42557 0.0
C624 C 0.85461 0.20339 0.43438 0.0
C625 C 0.81386 0.17908 0.40142 0.0
C626 C 0.84215 0.15206 0.34699 0.0
H627 H 0.80148 0.18226 0.22888 0.0
H628 H 0.82157 0.19775 0.27088 0.0
H629 H 0.84479 0.12991 0.31318 0.0
H630 H 0.90414 0.21338 0.42501 0.0
H631 H 0.88991 0.19264 0.38303 0.0
H632 H 0.80374 0.1978 0.35422 0.0
C633 C 0.81228 0.17227 0.2651 0.0
C634 C 0.83561 0.14465 0.32198 0.0
C635 C 0.8014 0.16356 0.24086 0.0
C636 C 0.87865 0.20322 0.41882 0.0
C637 C 0.87048 0.19133 0.39477 0.0
C638 C 0.81262 0.18272 0.34557 0.0
C639 C 0.80999 0.14814 0.28194 0.0
C640 C 0.81779 0.15649 0.30842 0.0
C641 C 0.8382 0.1799 0.38556 0.0
C642 C 0.83061 0.17108 0.35912 0.0
H643 H 0.77598 0.08087 0.24388 0.0
H644 H 0.79554 0.09614 0.28611 0.0
H645 H 0.79221 0.18477 0.31079 0.0
H646 H 0.80319 0.19158 0.43675 0.0
H647 H 0.78871 0.17028 0.39495 0.0
C648 C 0.64157 0.83478 0.75551 0.0
C649 C 0.6558 0.86798 0.76338 0.0
C650 C 0.6463 0.82749 0.73144 0.0
C651 C 0.66568 0.8655 0.66952 0.0
H652 H 0.67182 0.78765 0.65273 0.0
C653 C 0.63922 0.80885 0.5719 0.0
C654 C 0.65736 0.79394 0.56368 0.0
C655 C 0.64368 0.82154 0.59575 0.0
C656 C 0.67057 0.80977 0.65704 0.0
H657 H 0.68704 0.91946 0.75233 0.0
H658 H 0.69585 0.90679 0.71061 0.0
H659 H 0.67208 0.80209 0.69566 0.0
H660 H 0.69479 0.78119 0.57378 0.0
H661 H 0.70319 0.80398 0.61517 0.0
H662 H 0.66427 0.87324 0.6309 0.0
C663 C 0.68059 0.88634 0.72286 0.0
C664 C 0.67029 0.8178 0.68173 0.0
C665 C 0.67577 0.89361 0.74686 0.0
C666 C 0.68075 0.7929 0.57954 0.0
C667 C 0.68527 0.80563 0.60334 0.0
C668 C 0.66594 0.85745 0.64484 0.0
C669 C 0.66529 0.85321 0.71463 0.0
C670 C 0.66754 0.84562 0.68833 0.0
C671 C 0.66619 0.81938 0.612 0.0
C672 C 0.66809 0.8293 0.63824 0.0
H673 H 0.62513 0.81443 0.76737 0.0
H674 H 0.6337 0.80169 0.7257 0.0
H675 H 0.66312 0.88688 0.67384 0.0
H676 H 0.61991 0.80865 0.56062 0.0
H677 H 0.6281 0.83137 0.60187 0.0
C678 C 0.77844 0.66706 0.07464 0.0
C679 C 0.78795 0.65286 0.0936 0.0
C680 C 0.7907 0.66979 0.05086 0.0
C681 C 0.85574 0.66891 0.01286 0.0
H682 H 0.78586 0.62911 0.96391 0.0
C683 C 0.87856 0.63191 0.91675 0.0
C684 C 0.85922 0.63153 0.89668 0.0
C685 C 0.8727 0.63948 0.94035 0.0
C686 C 0.80591 0.64104 0.97709 0.0
H687 H 0.81885 0.63119 0.10211 0.0
H688 H 0.84114 0.63711 0.0608 0.0
H689 H 0.77181 0.63437 0.00589 0.0
H690 H 0.81833 0.63922 0.88626 0.0
H691 H 0.80957 0.65443 0.92685 0.0
H692 H 0.88999 0.67604 0.98406 0.0
C693 C 0.82415 0.6462 0.06453 0.0
C694 C 0.79775 0.64386 0.00128 0.0
C695 C 0.81154 0.6431 0.08836 0.0
C696 C 0.8345 0.64007 0.90084 0.0
C697 C 0.82893 0.64812 0.92445 0.0
C698 C 0.86403 0.66658 0.98852 0.0
C699 C 0.81305 0.65863 0.04539 0.0
C700 C 0.82248 0.6575 0.0195 0.0
C701 C 0.84743 0.6472 0.94468 0.0
C702 C 0.83917 0.6522 0.9703 0.0
H703 H 0.76042 0.67498 0.07795 0.0
H704 H 0.782 0.67986 0.03657 0.0
H705 H 0.87536 0.67979 0.02648 0.0
H706 H 0.89779 0.62539 0.91437 0.0
H707 H 0.88724 0.63793 0.95532 0.0
C708 C 0.15832 0.80758 0.4213 0.0
C709 C 0.12515 0.7909 0.42953 0.0
C710 C 0.166 0.81994 0.39728 0.0
C711 C 0.12678 0.80576 0.33586 0.0
H712 H 0.20947 0.88533 0.3188 0.0
C713 C 0.18149 0.83292 0.23749 0.0
C714 C 0.20023 0.86622 0.22977 0.0
C715 C 0.16871 0.82522 0.26138 0.0
C716 C 0.186 0.86327 0.32317 0.0
H717 H 0.0742 0.77509 0.41926 0.0
H718 H 0.08759 0.79731 0.37767 0.0
H719 H 0.19504 0.87128 0.36174 0.0
H720 H 0.21949 0.91747 0.24063 0.0
H721 H 0.19635 0.90415 0.28199 0.0
H722 H 0.11764 0.7979 0.29728 0.0
C723 C 0.10769 0.80039 0.38955 0.0
C724 C 0.17794 0.85496 0.34788 0.0
C725 C 0.10003 0.78792 0.41348 0.0
C726 C 0.20481 0.89156 0.24605 0.0
C727 C 0.19189 0.8839 0.26984 0.0
C728 C 0.13481 0.8141 0.31114 0.0
C729 C 0.14068 0.81585 0.38089 0.0
C730 C 0.14838 0.82591 0.35459 0.0
C731 C 0.17452 0.85068 0.2781 0.0
C732 C 0.1647 0.84281 0.30442 0.0
H733 H 0.17816 0.80932 0.43278 0.0
H734 H 0.19162 0.83122 0.39122 0.0
H735 H 0.10399 0.78296 0.34024 0.0
H736 H 0.17871 0.81292 0.22574 0.0
H737 H 0.15595 0.79939 0.26713 0.0
C738 C 0.30536 0.10436 0.74688 0.0
C739 C 0.32937 0.12765 0.76298 0.0
C740 C 0.30246 0.11347 0.72288 0.0
C741 C 0.35404 0.17284 0.67509 0.0
H742 H 0.27037 0.1422 0.64072 0.0
C743 C 0.35045 0.18793 0.57038 0.0
C744 C 0.33096 0.20136 0.56202 0.0
C745 C 0.34735 0.17629 0.59451 0.0
C746 C 0.29394 0.15097 0.65007 0.0
H747 H 0.36958 0.17868 0.76634 0.0
H748 H 0.36408 0.19484 0.72472 0.0
H749 H 0.27007 0.12943 0.68435 0.0
H750 H 0.29271 0.21279 0.57222 0.0
H751 H 0.28683 0.19198 0.61425 0.0
H752 H 0.37796 0.19444 0.64097 0.0
C753 C 0.34723 0.16956 0.7307 0.0
C754 C 0.29376 0.14353 0.67504 0.0
C755 C 0.34993 0.1605 0.75477 0.0
C756 C 0.30758 0.20195 0.57805 0.0
C757 C 0.30425 0.19005 0.60212 0.0
C758 C 0.3542 0.17998 0.65013 0.0
C759 C 0.32399 0.14596 0.71428 0.0
C760 C 0.32384 0.15449 0.68788 0.0
C761 C 0.32473 0.1779 0.61086 0.0
C762 C 0.32418 0.16917 0.63728 0.0
H763 H 0.28966 0.07871 0.75259 0.0
H764 H 0.28454 0.09457 0.71069 0.0
H765 H 0.37766 0.18128 0.68428 0.0
H766 H 0.36962 0.18835 0.55885 0.0
H767 H 0.36338 0.16692 0.60059 0.0
C768 C 0.30038 0.23937 0.4075 0.0
C769 C 0.32144 0.22648 0.40228 0.0
C770 C 0.28099 0.24236 0.38887 0.0
C771 C 0.28414 0.25262 0.32141 0.0
H772 H 0.20038 0.25097 0.32989 0.0
C773 C 0.23399 0.29989 0.24379 0.0
C774 C 0.22389 0.32237 0.25147 0.0
C775 C 0.23768 0.2792 0.26089 0.0
C776 C 0.22384 0.25164 0.32717 0.0
H777 H 0.3361 0.20366 0.37403 0.0
H778 H 0.30163 0.20771 0.342 0.0
H779 H 0.22202 0.2315 0.36303 0.0
H780 H 0.20658 0.33826 0.28271 0.0
H781 H 0.21294 0.30263 0.31222 0.0
H782 H 0.28683 0.27387 0.28609 0.0
C783 C 0.30081 0.2166 0.36017 0.0
C784 C 0.23627 0.24046 0.34625 0.0
C785 C 0.3203 0.21389 0.37865 0.0
C786 C 0.21447 0.32128 0.27613 0.0
C787 C 0.21811 0.30068 0.29315 0.0
C788 C 0.27182 0.26386 0.30244 0.0
C789 C 0.2821 0.23233 0.36466 0.0
C790 C 0.26687 0.24123 0.34377 0.0
C791 C 0.23126 0.28046 0.28604 0.0
C792 C 0.24176 0.26411 0.30512 0.0
H793 H 0.30096 0.24967 0.4254 0.0
H794 H 0.26697 0.25464 0.39309 0.0
H795 H 0.3081 0.25431 0.31887 0.0
H796 H 0.24164 0.30018 0.225 0.0
H797 H 0.24713 0.2634 0.25457 0.0
C798 C 0.8911 0.21333 0.61628 0.0
C799 C 0.8993 0.22341 0.59169 0.0
C800 C 0.91535 0.21609 0.6329 0.0
C801 C 0.0062 0.26848 0.64146 0.0
H802 H 0.98787 0.2188 0.70229 0.0
C803 C 0.05723 0.29967 0.74597 0.0
C804 C 0.09125 0.32066 0.74081 0.0
C805 C 0.03533 0.27899 0.72764 0.0
C806 C 0.99342 0.23292 0.6854 0.0
H807 H 0.93888 0.24121 0.56482 0.0
H808 H 0.98118 0.24503 0.59367 0.0
H809 H 0.9469 0.19742 0.6691 0.0
H810 H 0.12952 0.33358 0.71335 0.0
H811 H 0.09178 0.29687 0.68186 0.0
H812 H 0.05222 0.30434 0.65784 0.0
C813 C 0.95605 0.23585 0.60028 0.0
C814 C 0.96989 0.2207 0.66632 0.0
C815 C 0.93166 0.23313 0.58358 0.0
C816 C 0.10342 0.31779 0.71789 0.0
C817 C 0.08167 0.29705 0.6997 0.0
C818 C 0.02973 0.28053 0.66041 0.0
C819 C 0.94859 0.2289 0.62544 0.0
C820 C 0.97558 0.23872 0.64426 0.0
C821 C 0.0471 0.27878 0.70387 0.0
C822 C 0.02344 0.26333 0.68285 0.0
H823 H 0.86637 0.20564 0.62317 0.0
H824 H 0.90838 0.21057 0.65199 0.0
H825 H 0.01143 0.28356 0.6251 0.0
H826 H 0.04698 0.30161 0.7633 0.0
H827 H 0.00889 0.26529 0.73156 0.0
C828 C 0.6693 0.89386 0.94767 0.0
C829 C 0.66835 0.90211 0.92292 0.0
C830 C 0.68975 0.91817 0.96461 0.0
C831 C 0.72751 0.00883 0.97371 0.0
H832 H 0.7604 0.99073 0.03387 0.0
C833 C 0.77967 0.10695 0.04961 0.0
C834 C 0.76672 0.09541 0.07319 0.0
C835 C 0.77667 0.08474 0.03116 0.0
C836 C 0.75132 -0.00381 0.0172 0.0
H837 H 0.69046 0.94215 0.89631 0.0
H838 H 0.72691 0.98458 0.92579 0.0
H839 H 0.73998 0.9497 0.00083 0.0
H840 H 0.74272 0.05159 0.09632 0.0
H841 H 0.73738 0.01263 0.06409 0.0
H842 H 0.73799 0.05483 0.99015 0.0
C843 C 0.71112 0.9593 0.93221 0.0
C844 C 0.73956 0.97264 -0.00181 0.0
C845 C 0.69056 0.93485 0.91518 0.0
C846 C 0.75333 0.06137 0.07846 0.0
C847 C 0.7501 0.03899 0.05987 0.0
C848 C 0.73935 0.03236 0.9926 0.0
C849 C 0.71 0.95156 0.95737 0.0
C850 C 0.72685 0.97832 0.97632 0.0
C851 C 0.76036 0.05025 0.03567 0.0
C852 C 0.75094 0.02622 0.01481 0.0
H853 H 0.65263 0.86888 0.95433 0.0
H854 H 0.68787 0.91103 0.98371 0.0
H855 H 0.71736 0.01402 0.95748 0.0
H856 H 0.79026 0.13305 0.04495 0.0
H857 H 0.78572 0.09449 0.01298 0.0
C858 C 0.67714 0.7851 0.38549 0.0
C859 C 0.66811 0.76491 0.4065 0.0
C860 C 0.69767 0.78304 0.36757 0.0
C861 C 0.74469 0.73771 0.35205 0.0
H862 H 0.72509 0.75291 0.28586 0.0
C863 C 0.74061 0.68564 0.24745 0.0
C864 C 0.76396 0.67516 0.25074 0.0
C865 C 0.73655 0.70496 0.26533 0.0
C866 C 0.73059 0.7479 0.30413 0.0
H867 H 0.67421 0.72741 0.42561 0.0
H868 H 0.70798 0.72211 0.39416 0.0
H869 H 0.70333 0.76892 0.31987 0.0
H870 H 0.8034 0.679 0.27416 0.0
H871 H 0.79896 0.71545 0.30404 0.0
H872 H 0.76887 0.71345 0.33638 0.0
C873 C 0.7009 0.74085 0.39156 0.0
C874 C 0.71862 0.75798 0.32398 0.0
C875 C 0.68137 0.74384 0.40984 0.0
C876 C 0.78529 0.68691 0.27111 0.0
C877 C 0.78209 0.70725 0.28858 0.0
C878 C 0.75567 0.72659 0.33223 0.0
C879 C 0.70854 0.7596 0.36964 0.0
C880 C 0.72483 0.75248 0.34839 0.0
C881 C 0.75643 0.71515 0.28674 0.0
C882 C 0.74826 0.73083 0.30783 0.0
H883 H 0.66711 0.80147 0.3824 0.0
H884 H 0.7038 0.79903 0.35167 0.0
H885 H 0.75127 0.73383 0.3703 0.0
H886 H 0.72329 0.67631 0.23221 0.0
H887 H 0.71617 0.70975 0.26292 0.0
C888 C 0.93761 0.67955 0.74629 0.0
C889 C 0.90472 0.67298 0.74404 0.0
C890 C 0.96176 0.6995 0.72893 0.0
C891 C 0.01232 0.74493 0.69145 0.0
H892 H 0.97716 0.73804 0.62592 0.0
C893 C 0.10159 0.78634 0.60907 0.0
C894 C 0.08996 0.76675 0.58783 0.0
C895 C 0.07939 0.78381 0.62747 0.0
C896 C 0.98763 0.74 0.64399 0.0
H897 H 0.87193 0.68442 0.72325 0.0
H898 H 0.91444 0.72156 0.69436 0.0
H899 H 0.93938 0.71697 0.66025 0.0
H900 H 0.04583 0.73021 0.56872 0.0
H901 H 0.00728 0.72444 0.60093 0.0
H902 H 0.06023 0.76499 0.67497 0.0
C903 C 0.92155 0.71001 0.70858 0.0
C904 C 0.96577 0.72844 0.66402 0.0
C905 C 0.89721 0.68927 0.72551 0.0
C906 C 0.05548 0.74613 0.58467 0.0
C907 C 0.0333 0.74282 0.60337 0.0
C908 C 0.03408 0.75568 0.67137 0.0
C909 C 0.95378 0.714 0.70915 0.0
C910 C 0.97763 0.7301 0.68812 0.0
C911 C 0.04499 0.76068 0.62554 0.0
C912 C 0.0221 0.75285 0.64718 0.0
H913 H 0.94391 0.66668 0.76004 0.0
H914 H 0.98593 0.70137 0.73019 0.0
H915 H 0.02286 0.74761 0.70958 0.0
H916 H 0.12811 0.80239 0.61202 0.0
H917 H 0.08955 0.79903 0.64366 0.0
C918 C 0.21309 0.89485 0.04811 0.0
C919 C 0.22223 0.90313 0.07282 0.0
C920 C 0.21608 0.91896 0.03124 0.0
C921 C 0.2686 0.00936 0.02244 0.0
H922 H 0.21878 0.99184 0.96181 0.0
C923 C 0.3193 0.10645 0.94566 0.0
C924 C 0.32016 0.09417 0.92231 0.0
C925 C 0.29903 0.085 0.96419 0.0
C926 C 0.23301 -0.00284 0.97861 0.0
H927 H 0.23868 0.9427 0.09956 0.0
H928 H 0.24324 0.98478 0.0702 0.0
H929 H 0.1971 0.95077 0.99496 0.0
H930 H 0.29842 0.05002 0.89961 0.0
H931 H 0.26327 0.01237 0.932 0.0
H932 H 0.30506 0.05502 0.00599 0.0
C933 C 0.23444 0.95967 0.06375 0.0
C934 C 0.22055 0.9736 -0.00232 0.0
C935 C 0.23135 0.93542 0.08071 0.0
C936 C 0.29807 0.06035 0.91731 0.0
C937 C 0.27798 0.03872 0.93599 0.0
C938 C 0.28099 0.03285 0.00346 0.0
C939 C 0.22833 0.95213 0.03857 0.0
C940 C 0.23855 0.97906 0.01969 0.0
C941 C 0.27938 0.05053 0.96001 0.0
C942 C 0.26375 0.02689 0.98106 0.0
H943 H 0.20585 0.87017 0.04139 0.0
H944 H 0.21119 0.91203 0.01211 0.0
H945 H 0.28362 0.01433 0.0388 0.0
H946 H 0.33591 0.13243 0.95007 0.0
H947 H 0.30009 0.09524 0.9822 0.0
C948 C 0.2874 0.48365 0.31751 0.0
C949 C 0.26234 0.48105 0.30172 0.0
C950 C 0.30735 0.51313 0.33017 0.0
C951 C 0.34632 0.60006 0.31871 0.0
H952 H 0.38214 0.60612 0.38395 0.0
C953 C 0.47284 0.71159 0.35394 0.0
C954 C 0.49254 0.7008 0.3661 0.0
C955 C 0.43977 0.68855 0.34757 0.0
C956 C 0.37228 0.60493 0.36572 0.0
H957 H 0.23697 0.50619 0.28768 0.0
H958 H 0.27289 0.55858 0.30935 0.0
H959 H 0.32929 0.55733 0.37269 0.0
H960 H 0.49403 0.6575 0.37958 0.0
H961 H 0.43719 0.61774 0.36819 0.0
H962 H 0.39063 0.64662 0.31121 0.0
C963 C 0.27658 0.53753 0.31223 0.0
C964 C 0.34197 0.57714 0.35938 0.0
C965 C 0.25596 0.50757 0.30002 0.0
C966 C 0.47931 0.66664 0.37056 0.0
C967 C 0.44661 0.64387 0.36425 0.0
C968 C 0.37687 0.62788 0.32503 0.0
C969 C 0.30311 0.54083 0.32677 0.0
C970 C 0.32948 0.57376 0.3355 0.0
C971 C 0.42614 0.65459 0.35337 0.0
C972 C 0.39085 0.6297 0.34822 0.0
H973 H 0.29292 0.46358 0.31884 0.0
H974 H 0.32784 0.5151 0.34105 0.0
H975 H 0.3373 0.5979 0.30009 0.0
H976 H 0.48243 0.73782 0.3504 0.0
H977 H 0.42455 0.69738 0.33895 0.0
C978 C 0.80334 0.30597 0.64727 0.0
C979 C 0.83187 0.3027 0.64821 0.0
C980 C 0.80027 0.32805 0.66292 0.0
C981 C 0.85523 0.40738 0.69171 0.0
H982 H 0.77178 0.3998 0.71255 0.0
C983 C 0.7965 0.49528 0.72237 0.0
C984 C 0.80655 0.51606 0.70163 0.0
C985 C 0.80346 0.46926 0.72413 0.0
C986 C 0.79544 0.40219 0.70738 0.0
H987 H 0.87791 0.31751 0.66794 0.0
H988 H 0.87244 0.356 0.69526 0.0
H989 H 0.77362 0.34965 0.70175 0.0
H990 H 0.83245 0.52691 0.66693 0.0
H991 H 0.84519 0.48197 0.67013 0.0
H992 H 0.87656 0.46008 0.696 0.0
C993 C 0.85276 0.3419 0.68215 0.0
C994 C 0.79641 0.37353 0.70098 0.0
C995 C 0.85582 0.31977 0.66653 0.0
C996 C 0.82475 0.51136 0.68319 0.0
C997 C 0.83218 0.4858 0.68512 0.0
C998 C 0.85418 0.436 0.69794 0.0
C999 C 0.82563 0.34728 0.67983 0.0
C1000 C 0.82601 0.37599 0.69209 0.0
C1001 C 0.82087 0.46397 0.70529 0.0
C1002 C 0.82397 0.43377 0.70481 0.0
H1003 H 0.78432 0.29301 0.63349 0.0
H1004 H 0.77914 0.33175 0.66052 0.0
H1005 H 0.87841 0.41022 0.68482 0.0
H1006 H 0.78238 0.49839 0.73681 0.0
H1007 H 0.79452 0.45278 0.73987 0.0
C1008 C 0.30267 0.81323 0.01537 0.0
C1009 C 0.27227 0.78912 0.02557 0.0
C1010 C 0.32499 0.80417 0.00623 0.0
C1011 C 0.35145 0.75795 0.97922 0.0
H1012 H 0.41502 0.77665 0.03183 0.0
C1013 C 0.47843 0.77087 0.95953 0.0
C1014 C 0.50431 0.80269 0.96629 0.0
C1015 C 0.44657 0.75814 0.96943 0.0
C1016 C 0.39725 0.77077 0.01707 0.0
H1017 H 0.24036 0.73652 0.03312 0.0
H1018 H 0.28012 0.72061 0.01721 0.0
H1019 H 0.36186 0.77382 0.04053 0.0
H1020 H 0.51797 0.84441 0.99068 0.0
H1021 H 0.4625 0.82208 0.00809 0.0
H1022 H 0.38761 0.75711 0.95539 0.0
C1023 C 0.28612 0.74634 0.01601 0.0
C1024 C 0.36687 0.76894 0.02208 0.0
C1025 C 0.26342 0.75539 0.02488 0.0
C1026 C 0.49853 0.81998 0.98493 0.0
C1027 C 0.46674 0.80709 0.99499 0.0
C1028 C 0.38175 0.75949 0.97422 0.0
C1029 C 0.31742 0.77093 0.00742 0.0
C1030 C 0.34437 0.76368 0.00304 0.0
C1031 C 0.44015 0.77674 0.98653 0.0
C1032 C 0.40549 0.76729 0.99294 0.0
H1033 H 0.3101 0.8394 0.01598 0.0
H1034 H 0.34916 0.82343 -0.00023 0.0
H1035 H 0.33455 0.75441 0.96429 0.0
H1036 H 0.48214 0.75664 0.94548 0.0
H1037 H 0.42659 0.73449 0.96285 0.0
C1038 C 0.71497 0.48389 0.31121 0.0
C1039 C 0.70461 0.50333 0.29819 0.0
C1040 C 0.69158 0.45115 0.31812 0.0
C1041 C 0.60877 0.38345 0.2995 0.0
H1042 H 0.5991 0.34993 0.36589 0.0
C1043 C 0.48443 0.29243 0.34255 0.0
C1044 C 0.48252 0.26933 0.35996 0.0
C1045 C 0.51474 0.31404 0.33132 0.0
C1046 C 0.60196 0.35854 0.3471 0.0
H1047 H 0.66171 0.50483 0.28375 0.0
H1048 H 0.62137 0.44852 0.296 0.0
H1049 H 0.64783 0.40339 0.35504 0.0
H1050 H 0.50985 0.24943 0.37886 0.0
H1051 H 0.56332 0.28756 0.35925 0.0
H1052 H 0.56215 0.33966 0.29182 0.0
C1053 C 0.64742 0.4579 0.30026 0.0
C1054 C 0.62979 0.38918 0.34095 0.0
C1055 C 0.67052 0.49028 0.29344 0.0
C1056 C 0.51081 0.26676 0.36509 0.0
C1057 C 0.54135 0.28871 0.35408 0.0
C1058 C 0.58103 0.35298 0.30563 0.0
C1059 C 0.65774 0.43763 0.31198 0.0
C1060 C 0.63261 0.40254 0.31738 0.0
C1061 C 0.54378 0.31328 0.3377 0.0
C1062 C 0.57663 0.3409 0.32974 0.0
H1063 H 0.74114 0.49335 0.315 0.0
H1064 H 0.70008 0.43605 0.32737 0.0
H1065 H 0.61076 0.39289 0.28102 0.0
H1066 H 0.46299 0.29525 0.33884 0.0
H1067 H 0.5159 0.33302 0.31906 0.0
C1068 C 0.18436 0.484 0.67399 0.0
C1069 C 0.2062 0.48027 0.68972 0.0
C1070 C 0.19489 0.51392 0.66158 0.0
C1071 C 0.24501 0.60039 0.67375 0.0
H1072 H 0.21604 0.60874 0.60875 0.0
C1073 C 0.23317 0.71426 0.63944 0.0
C1074 C 0.20254 0.70407 0.62767 0.0
C1075 C 0.24263 0.69072 0.64555 0.0
C1076 C 0.22455 0.60692 0.6269 0.0
H1077 H 0.25658 0.50382 0.70393 0.0
H1078 H 0.27485 0.55698 0.68269 0.0
H1079 H 0.21859 0.55896 0.61945 0.0
H1080 H 0.1569 0.66133 0.61468 0.0
H1081 H 0.17302 0.62072 0.62561 0.0
H1082 H 0.24858 0.64735 0.68172 0.0
C1083 C 0.24982 0.53648 0.67966 0.0
C1084 C 0.22619 0.57856 0.63293 0.0
C1085 C 0.23946 0.50608 0.69161 0.0
C1086 C 0.18089 0.67001 0.62339 0.0
C1087 C 0.19025 0.64675 0.62943 0.0
C1088 C 0.24319 0.6288 0.66774 0.0
C1089 C 0.22723 0.54092 0.66517 0.0
C1090 C 0.23492 0.57434 0.65674 0.0
C1091 C 0.22157 0.65687 0.63987 0.0
C1092 C 0.23131 0.63145 0.64464 0.0
H1093 H 0.15851 0.4645 0.67252 0.0
H1094 H 0.17685 0.51677 0.65075 0.0
H1095 H 0.25159 0.59759 0.69232 0.0
H1096 H 0.25034 0.74041 0.64285 0.0
H1097 H 0.26677 0.69906 0.65386 0.0
C1098 C 0.51474 0.23056 0.97142 0.0
C1099 C 0.49621 0.20005 0.95911 0.0
C1100 C 0.54763 0.2413 0.97881 0.0
C1101 C 0.6174 0.22825 0.96291 0.0
H1102 H 0.64785 0.25245 0.02986 0.0
C1103 C 0.70309 0.19257 0.0112 0.0
C1104 C 0.7264 0.21407 0.02832 0.0
C1105 C 0.68282 0.20197 -0.00127 0.0
C1106 C 0.64011 0.24667 0.01091 0.0
H1107 H 0.49658 0.15594 0.94639 0.0
H1108 H 0.55315 0.17435 0.95941 0.0
H1109 H 0.59475 0.24732 0.01724 0.0
H1110 H 0.74796 0.26249 0.04552 0.0
H1111 H 0.71177 0.27886 0.02393 0.0
H1112 H 0.66151 0.22539 0.95695 0.0
C1113 C 0.54292 0.19048 0.96275 0.0
C1114 C 0.60971 0.24365 0.00374 0.0
C1115 C 0.51039 0.17982 0.95549 0.0
C1116 C 0.73048 0.24583 0.03198 0.0
C1117 C 0.70967 0.25505 0.01983 0.0
C1118 C 0.64761 0.23115 0.97007 0.0
C1119 C 0.56223 0.22168 0.97383 0.0
C1120 C 0.59737 0.23279 0.98001 0.0
C1121 C 0.68501 0.23275 0.00364 0.0
C1122 C 0.65847 0.23883 0.99443 0.0
H1123 H 0.50441 0.24666 0.97437 0.0
H1124 H 0.56197 0.26532 0.98759 0.0
H1125 H 0.60873 0.22053 0.94432 0.0
H1126 H 0.69918 0.16771 0.00857 0.0
H1127 H 0.6637 0.18406 0.98664 0.0
C1128 C 0.23498 0.72811 0.16356 0.0
C1129 C 0.21413 0.73068 0.14607 0.0
C1130 C 0.23197 0.69712 0.16883 0.0
C1131 C 0.20443 0.61572 0.14004 0.0
H1132 H 0.21223 0.58798 0.20563 0.0
C1133 C 0.23093 0.5079 0.16118 0.0
C1134 C 0.21441 0.48753 0.18142 0.0
C1135 C 0.22754 0.53567 0.15584 0.0
C1136 C 0.20973 0.59521 0.1872 0.0
H1137 H 0.17357 0.70318 0.12069 0.0
H1138 H 0.16803 0.649 0.12999 0.0
H1139 H 0.21205 0.64008 0.19972 0.0
H1140 H 0.18047 0.47922 0.2113 0.0
H1141 H 0.17431 0.52739 0.20194 0.0
H1142 H 0.20234 0.57091 0.12752 0.0
C1143 C 0.18675 0.6708 0.1396 0.0
C1144 C 0.20995 0.62524 0.18381 0.0
C1145 C 0.18963 0.70169 0.13448 0.0
C1146 C 0.19339 0.49454 0.19554 0.0
C1147 C 0.19013 0.52227 0.19032 0.0
C1148 C 0.20451 0.58581 0.14341 0.0
C1149 C 0.20834 0.66822 0.15646 0.0
C1150 C 0.20729 0.63587 0.1602 0.0
C1151 C 0.20782 0.54369 0.1708 0.0
C1152 C 0.20712 0.57517 0.16704 0.0
H1153 H 0.25473 0.75024 0.17219 0.0
H1154 H 0.24923 0.69606 0.18172 0.0
H1155 H 0.20277 0.62339 0.12157 0.0
H1156 H 0.24783 0.50343 0.15032 0.0
H1157 H 0.24169 0.5518 0.14077 0.0
C1158 C 0.48387 0.19026 0.47777 0.0
C1159 C 0.48083 0.21782 0.48439 0.0
C1160 C 0.5125 0.18891 0.48398 0.0
C1161 C 0.58743 0.22696 0.52405 0.0
H1162 H 0.62626 0.1992 0.4729 0.0
C1163 C 0.72165 0.25217 0.53186 0.0
C1164 C 0.72801 0.22676 0.52493 0.0
C1165 C 0.69113 0.24989 0.52642 0.0
C1166 C 0.61558 0.20663 0.4875 0.0
H1167 H 0.50507 0.26558 0.50262 0.0
H1168 H 0.5549 0.26316 0.51392 0.0
H1169 H 0.57277 0.1962 0.46589 0.0
H1170 H 0.70831 0.17989 0.50579 0.0
H1171 H 0.65446 0.17559 0.49627 0.0
H1172 H 0.6302 0.23755 0.54563 0.0
C1173 C 0.53503 0.24225 0.50427 0.0
C1174 C 0.58485 0.20487 0.4835 0.0
C1175 C 0.50643 0.24361 0.49796 0.0
C1176 C 0.70387 0.19973 0.51137 0.0
C1177 C 0.67312 0.19735 0.50594 0.0
C1178 C 0.61808 0.22867 0.52805 0.0
C1179 C 0.53875 0.2152 0.49691 0.0
C1180 C 0.57052 0.2153 0.50166 0.0
C1181 C 0.66612 0.2221 0.51389 0.0
C1182 C 0.63278 0.21891 0.50974 0.0
H1183 H 0.46463 0.17036 0.46693 0.0
H1184 H 0.51433 0.16755 0.47827 0.0
H1185 H 0.57692 0.23468 0.53858 0.0
H1186 H 0.74019 0.27367 0.54184 0.0
H1187 H 0.68707 0.26989 0.53219 0.0
C1188 C 0.25866 0.51571 0.82852 0.0
C1189 C 0.25596 0.49136 0.81202 0.0
C1190 C 0.28984 0.54361 0.83353 0.0
C1191 C 0.37452 0.59296 0.80611 0.0
H1192 H 0.39625 0.63709 0.86918 0.0
C1193 C 0.50485 0.70647 0.83126 0.0
C1194 C 0.50426 0.73161 0.84508 0.0
C1195 C 0.47506 0.67682 0.82615 0.0
C1196 C 0.39045 0.62519 0.85138 0.0
H1197 H 0.28338 0.47628 0.78838 0.0
H1198 H 0.33794 0.52411 0.79779 0.0
H1199 H 0.34397 0.58492 0.86407 0.0
H1200 H 0.47238 0.74675 0.86301 0.0
H1201 H 0.4206 0.69531 0.85416 0.0
H1202 H 0.42135 0.63328 0.79359 0.0
C1203 C 0.31614 0.52232 0.8065 0.0
C1204 C 0.3604 0.59525 0.84844 0.0
C1205 C 0.28498 0.49465 0.80137 0.0
C1206 C 0.47345 0.72748 0.85257 0.0
C1207 C 0.44387 0.69796 0.84764 0.0
C1208 C 0.40475 0.6228 0.80914 0.0
C1209 C 0.31897 0.54767 0.82217 0.0
C1210 C 0.35181 0.57882 0.8257 0.0
C1211 C 0.44433 0.6719 0.83492 0.0
C1212 C 0.41289 0.63947 0.83173 0.0
H1213 H 0.2365 0.51404 0.8365 0.0
H1214 H 0.29084 0.56271 0.84543 0.0
H1215 H 0.36864 0.58146 0.78818 0.0
H1216 H 0.52838 0.70914 0.82538 0.0
H1217 H 0.47623 0.65722 0.81626 0.0
C1218 C 0.74266 0.47381 0.18974 0.0
C1219 C 0.76888 0.50515 0.18263 0.0
C1220 C 0.74432 0.44505 0.18538 0.0
C1221 C 0.78737 0.41012 0.14957 0.0
H1222 H 0.75836 0.34633 0.20307 0.0
C1223 C 0.80219 0.2939 0.14515 0.0
C1224 C 0.77441 0.26377 0.15248 0.0
C1225 C 0.80401 0.32429 0.15035 0.0
C1226 C 0.76634 0.36373 0.18788 0.0
H1227 H 0.81657 0.53111 0.16434 0.0
H1228 H 0.81968 0.48057 0.15657 0.0
H1229 H 0.75588 0.39728 0.20752 0.0
H1230 H 0.72683 0.24147 0.171 0.0
H1231 H 0.73 0.29449 0.18044 0.0
H1232 H 0.79754 0.37637 0.12985 0.0
C1233 C 0.79778 0.47822 0.16553 0.0
C1234 C 0.76486 0.39295 0.1904 0.0
C1235 C 0.79606 0.50713 0.16991 0.0
C1236 C 0.74895 0.26447 0.16582 0.0
C1237 C 0.75075 0.29486 0.17106 0.0
C1238 C 0.78883 0.38084 0.14704 0.0
C1239 C 0.77228 0.44692 0.1738 0.0
C1240 C 0.77501 0.41638 0.17119 0.0
C1241 C 0.77793 0.32513 0.16286 0.0
C1242 C 0.77809 0.35713 0.1661 0.0
H1243 H 0.72124 0.47168 0.19933 0.0
H1244 H 0.72384 0.42133 0.19142 0.0
H1245 H 0.79511 0.42744 0.13434 0.0
H1246 H 0.82181 0.29383 0.13445 0.0
H1247 H 0.8255 0.34709 0.14406 0.0
C1248 C 0.50356 0.8025 0.47541 0.0
C1249 C 0.50554 0.77418 0.48168 0.0
C1250 C 0.47451 0.80369 0.48013 0.0
C1251 C 0.39517 0.76262 0.51531 0.0
H1252 H 0.36323 0.79658 0.46316 0.0
C1253 C 0.26186 0.74045 0.51653 0.0
C1254 C 0.25765 0.76767 0.51097 0.0
C1255 C 0.29211 0.74182 0.51182 0.0
C1256 C 0.37195 0.78732 0.478 0.0
H1257 H 0.4791 0.72501 0.49785 0.0
H1258 H 0.42842 0.72705 0.50646 0.0
H1259 H 0.41694 0.79921 0.45895 0.0
H1260 H 0.28088 0.81702 0.49513 0.0
H1261 H 0.33417 0.81959 0.48667 0.0
H1262 H 0.35016 0.75053 0.5343 0.0
C1263 C 0.44939 0.74864 0.49825 0.0
C1264 C 0.40281 0.7889 0.47564 0.0
C1265 C 0.47844 0.74747 0.49346 0.0
C1266 C 0.28358 0.79566 0.49937 0.0
C1267 C 0.31402 0.79709 0.49463 0.0
C1268 C 0.36436 0.76101 0.51765 0.0
C1269 C 0.44677 0.77648 0.49116 0.0
C1270 C 0.41471 0.77635 0.4942 0.0
C1271 C 0.31894 0.77052 0.50147 0.0
C1272 C 0.35217 0.77304 0.49894 0.0
H1273 H 0.52404 0.82316 0.46595 0.0
H1274 H 0.47355 0.82568 0.47473 0.0
H1275 H 0.40375 0.75322 0.53014 0.0
H1276 H 0.24208 0.71854 0.52543 0.0
H1277 H 0.2947 0.7206 0.51677 0.0
C1278 C 0.71163 0.47562 0.79198 0.0
C1279 C 0.71763 0.50612 0.80168 0.0
C1280 C 0.68189 0.44629 0.79696 0.0
C1281 C 0.60962 0.40791 0.83917 0.0
H1282 H 0.56947 0.34441 0.78612 0.0
C1283 C 0.48188 0.28769 0.84986 0.0
C1284 C 0.48021 0.25832 0.84148 0.0
C1285 C 0.50903 0.31882 0.84378 0.0
C1286 C 0.58045 0.36177 0.80116 0.0
H1287 H 0.69801 0.53 0.8248 0.0
H1288 H 0.64537 0.47849 0.83348 0.0
H1289 H 0.6205 0.3971 0.7788 0.0
H1290 H 0.50528 0.23819 0.82016 0.0
H1291 H 0.55253 0.29256 0.80904 0.0
H1292 H 0.56946 0.3724 0.86152 0.0
C1293 C 0.66378 0.47722 0.82208 0.0
C1294 C 0.60979 0.39199 0.79701 0.0
C1295 C 0.69378 0.5067 0.81711 0.0
C1296 C 0.50559 0.26054 0.82628 0.0
C1297 C 0.5327 0.29168 0.82006 0.0
C1298 C 0.58015 0.37769 0.84329 0.0
C1299 C 0.65728 0.44669 0.81174 0.0
C1300 C 0.62503 0.4153 0.81603 0.0
C1301 C 0.5351 0.32119 0.82917 0.0
C1302 C 0.56539 0.3541 0.8244 0.0
H1303 H 0.72996 0.47453 0.78032 0.0
H1304 H 0.67825 0.42323 0.78922 0.0
H1305 H 0.6208 0.42504 0.85431 0.0
H1306 H 0.46272 0.28648 0.86188 0.0
H1307 H 0.50989 0.34102 0.85086 0.0
loop_
_geom_bond_atom_site_label_1
_geom_bond_atom_site_label_2
_geom_bond_distance
_geom_bond_site_symmetry_2
_ccdc_geom_bond_type
Co0 O3 1.970 . S
Co0 N17 1.989 . S
Co0 O25 1.967 . S
Co0 O32 1.920 . S
Co1 O4 1.966 . S
Co1 N10 2.022 . S
Co1 N18 1.993 . S
Co1 O26 1.941 . S
C2 O3 1.258 . S
C2 O4 1.263 . S
O3 Co0 1.970 . S
O3 C2 1.258 . S
O4 Co1 1.966 . S
O4 C2 1.263 . S
C5 O6 1.235 . S
C5 O32 1.289 . S
O6 C5 1.235 . S
C7 C9 1.400 . S
C7 N10 1.351 . S
C7 C12 1.501 . S
C8 C9 1.387 . S
C8 N11 1.341 . S
C9 C7 1.400 . S
C9 C8 1.387 . S
N10 Co1 2.022 . S
N10 C7 1.351 . S
N10 N11 1.365 . S
N11 C8 1.341 . S
N11 N10 1.365 . S
N11 H31 0.862 . S
C12 C7 1.501 . S
C12 H13 0.961 . S
C12 H14 0.961 . S
C12 H15 0.960 . S
H13 C12 0.961 . S
H14 C12 0.961 . S
H15 C12 0.960 . S
C16 N17 1.342 . S
C16 C20 1.401 . S
C16 C21 1.499 . S
N17 Co0 1.989 . S
N17 C16 1.342 . S
N17 N18 1.388 . S
N18 Co1 1.993 . S
N18 N17 1.388 . S
N18 C19 1.346 . S
C19 N18 1.346 . S
C19 C20 1.396 . S
C19 C29 1.510 . S
C20 C16 1.401 . S
C20 C19 1.396 . S
C21 C16 1.499 . S
C21 H22 0.959 . S
C21 H23 0.960 . S
C21 H24 0.961 . S
H22 C21 0.959 . S
H23 C21 0.960 . S
H24 C21 0.961 . S
O25 Co0 1.967 . S
O25 C33 1.258 . S
O26 Co1 1.941 . S
O26 C33 1.266 . S
H27 C29 0.959 . S
H28 C29 0.961 . S
C29 C19 1.510 . S
C29 H27 0.959 . S
C29 H28 0.961 . S
C29 H30 0.960 . S
H30 C29 0.960 . S
H31 N11 0.862 . S
O32 Co0 1.920 . S
O32 C5 1.289 . S
C33 O25 1.258 . S
C33 O26 1.266 . S
Co34 O37 1.970 . S
Co34 N51 1.989 . S
Co34 O59 1.967 . S
Co34 O66 1.920 . S
Co35 O38 1.966 . S
Co35 N44 2.022 . S
Co35 N52 1.993 . S
Co35 O60 1.941 . S
C36 O37 1.258 . S
C36 O38 1.263 . S
O37 Co34 1.970 . S
O37 C36 1.258 . S
O38 Co35 1.966 . S
O38 C36 1.263 . S
C39 O40 1.235 . S
C39 O66 1.289 . S
O40 C39 1.235 . S
C41 C43 1.400 . S
C41 N44 1.351 . S
C41 C46 1.501 . S
C42 C43 1.387 . S
C42 N45 1.341 . S
C43 C41 1.400 . S
C43 C42 1.387 . S
N44 Co35 2.022 . S
N44 C41 1.351 . S
N44 N45 1.365 . S
N45 C42 1.341 . S
N45 N44 1.365 . S
N45 H65 0.862 . S
C46 C41 1.501 . S
C46 H47 0.961 . S
C46 H48 0.961 . S
C46 H49 0.960 . S
H47 C46 0.961 . S
H48 C46 0.961 . S
H49 C46 0.960 . S
C50 N51 1.342 . S
C50 C54 1.401 . S
C50 C55 1.499 . S
N51 Co34 1.989 . S
N51 C50 1.342 . S
N51 N52 1.388 . S
N52 Co35 1.993 . S
N52 N51 1.388 . S
N52 C53 1.346 . S
C53 N52 1.346 . S
C53 C54 1.396 . S
C53 C63 1.510 . S
C54 C50 1.401 . S
C54 C53 1.396 . S
C55 C50 1.499 . S
C55 H56 0.959 . S
C55 H57 0.960 . S
C55 H58 0.961 . S
H56 C55 0.959 . S
H57 C55 0.960 . S
H58 C55 0.961 . S
O59 Co34 1.967 . S
O59 C67 1.258 . S
O60 Co35 1.941 . S
O60 C67 1.266 . S
H61 C63 0.959 . S
H62 C63 0.961 . S
C63 C53 1.510 . S
C63 H61 0.959 . S
C63 H62 0.961 . S
C63 H64 0.960 . S
H64 C63 0.960 . S
H65 N45 0.862 . S
O66 Co34 1.920 . S
O66 C39 1.289 . S
C67 O59 1.258 . S
C67 O60 1.266 . S
Co68 O71 1.970 . S
Co68 N85 1.989 . S
Co68 O93 1.967 . S
Co68 O100 1.920 . S
Co69 O72 1.966 . S
Co69 N78 2.022 . S
Co69 N86 1.993 . S
Co69 O94 1.941 . S
C70 O71 1.258 . S
C70 O72 1.263 . S
O71 Co68 1.970 . S
O71 C70 1.258 . S
O72 Co69 1.966 . S
O72 C70 1.263 . S
C73 O74 1.235 . S
C73 O100 1.289 . S
O74 C73 1.235 . S
C75 C77 1.400 . S
C75 N78 1.351 . S
C75 C80 1.501 . S
C76 C77 1.387 . S
C76 N79 1.341 . S
C77 C75 1.400 . S
C77 C76 1.387 . S
N78 Co69 2.022 . S
N78 C75 1.351 . S
N78 N79 1.365 . S
N79 C76 1.341 . S
N79 N78 1.365 . S
N79 H99 0.862 . S
C80 C75 1.501 . S
C80 H81 0.961 . S
C80 H82 0.961 . S
C80 H83 0.960 . S
H81 C80 0.961 . S
H82 C80 0.961 . S
H83 C80 0.960 . S
C84 N85 1.342 . S
C84 C88 1.401 . S
C84 C89 1.499 . S
N85 Co68 1.989 . S
N85 C84 1.342 . S
N85 N86 1.388 . S
N86 Co69 1.993 . S
N86 N85 1.388 . S
N86 C87 1.346 . S
C87 N86 1.346 . S
C87 C88 1.396 . S
C87 C97 1.510 . S
C88 C84 1.401 . S
C88 C87 1.396 . S
C89 C84 1.499 . S
C89 H90 0.959 . S
C89 H91 0.960 . S
C89 H92 0.961 . S
H90 C89 0.959 . S
H91 C89 0.960 . S
H92 C89 0.961 . S
O93 Co68 1.967 . S
O93 C101 1.258 . S
O94 Co69 1.941 . S
O94 C101 1.266 . S
H95 C97 0.959 . S
H96 C97 0.961 . S
C97 C87 1.510 . S
C97 H95 0.959 . S
C97 H96 0.961 . S
C97 H98 0.960 . S
H98 C97 0.960 . S
H99 N79 0.862 . S
O100 Co68 1.920 . S
O100 C73 1.289 . S
C101 O93 1.258 . S
C101 O94 1.266 . S
Co102 O105 1.970 . S
Co102 N119 1.989 . S
Co102 O127 1.967 . S
Co102 O134 1.920 . S
Co103 O106 1.966 . S
Co103 N112 2.022 . S
Co103 N120 1.993 . S
Co103 O128 1.941 . S
C104 O105 1.258 . S
C104 O106 1.263 . S
O105 Co102 1.970 . S
O105 C104 1.258 . S
O106 Co103 1.966 . S
O106 C104 1.263 . S
C107 O108 1.235 . S
C107 O134 1.289 . S
O108 C107 1.235 . S
C109 C111 1.400 . S
C109 N112 1.351 . S
C109 C114 1.501 . S
C110 C111 1.387 . S
C110 N113 1.341 . S
C111 C109 1.400 . S
C111 C110 1.387 . S
N112 Co103 2.022 . S
N112 C109 1.351 . S
N112 N113 1.365 . S
N113 C110 1.341 . S
N113 N112 1.365 . S
N113 H133 0.862 . S
C114 C109 1.501 . S
C114 H115 0.961 . S
C114 H116 0.961 . S
C114 H117 0.960 . S
H115 C114 0.961 . S
H116 C114 0.961 . S
H117 C114 0.960 . S
C118 N119 1.342 . S
C118 C122 1.401 . S
C118 C123 1.499 . S
N119 Co102 1.989 . S
N119 C118 1.342 . S
N119 N120 1.388 . S
N120 Co103 1.993 . S
N120 N119 1.388 . S
N120 C121 1.346 . S
C121 N120 1.346 . S
C121 C122 1.396 . S
C121 C131 1.510 . S
C122 C118 1.401 . S
C122 C121 1.396 . S
C123 C118 1.499 . S
C123 H124 0.959 . S
C123 H125 0.960 . S
C123 H126 0.961 . S
H124 C123 0.959 . S
H125 C123 0.960 . S
H126 C123 0.961 . S
O127 Co102 1.967 . S
O127 C135 1.258 . S
O128 Co103 1.941 . S
O128 C135 1.266 . S
H129 C131 0.959 . S
H130 C131 0.961 . S
C131 C121 1.510 . S
C131 H129 0.959 . S
C131 H130 0.961 . S
C131 H132 0.960 . S
H132 C131 0.960 . S
H133 N113 0.862 . S
O134 Co102 1.920 . S
O134 C107 1.289 . S
C135 O127 1.258 . S
C135 O128 1.266 . S
Co136 O139 1.970 . S
Co136 N153 1.989 . S
Co136 O161 1.967 . S
Co136 O168 1.920 . S
Co137 O140 1.966 . S
Co137 N146 2.022 . S
Co137 N154 1.993 . S
Co137 O162 1.941 . S
C138 O139 1.258 . S
C138 O140 1.263 . S
O139 Co136 1.970 . S
O139 C138 1.258 . S
O140 Co137 1.966 . S
O140 C138 1.263 . S
C141 O142 1.235 . S
C141 O168 1.289 . S
O142 C141 1.235 . S
C143 C145 1.400 . S
C143 N146 1.351 . S
C143 C148 1.501 . S
C144 C145 1.387 . S
C144 N147 1.341 . S
C145 C143 1.400 . S
C145 C144 1.387 . S
N146 Co137 2.022 . S
N146 C143 1.351 . S
N146 N147 1.365 . S
N147 C144 1.341 . S
N147 N146 1.365 . S
N147 H167 0.862 . S
C148 C143 1.501 . S
C148 H149 0.961 . S
C148 H150 0.961 . S
C148 H151 0.960 . S
H149 C148 0.961 . S
H150 C148 0.961 . S
H151 C148 0.960 . S
C152 N153 1.342 . S
C152 C156 1.401 . S
C152 C157 1.499 . S
N153 Co136 1.989 . S
N153 C152 1.342 . S
N153 N154 1.388 . S
N154 Co137 1.993 . S
N154 N153 1.388 . S
N154 C155 1.346 . S
C155 N154 1.346 . S
C155 C156 1.396 . S
C155 C165 1.510 . S
C156 C152 1.401 . S
C156 C155 1.396 . S
C157 C152 1.499 . S
C157 H158 0.959 . S
C157 H159 0.960 . S
C157 H160 0.961 . S
H158 C157 0.959 . S
H159 C157 0.960 . S
H160 C157 0.961 . S
O161 Co136 1.967 . S
O161 C169 1.258 . S
O162 Co137 1.941 . S
O162 C169 1.266 . S
H163 C165 0.959 . S
H164 C165 0.961 . S
C165 C155 1.510 . S
C165 H163 0.959 . S
C165 H164 0.961 . S
C165 H166 0.960 . S
H166 C165 0.960 . S
H167 N147 0.862 . S
O168 Co136 1.920 . S
O168 C141 1.289 . S
C169 O161 1.258 . S
C169 O162 1.266 . S
Co170 O173 1.970 . S
Co170 N187 1.989 . S
Co170 O195 1.967 . S
Co170 O202 1.920 . S
Co171 O174 1.966 . S
Co171 N180 2.022 . S
Co171 N188 1.993 . S
Co171 O196 1.941 . S
C172 O173 1.258 . S
C172 O174 1.263 . S
O173 Co170 1.970 . S
O173 C172 1.258 . S
O174 Co171 1.966 . S
O174 C172 1.263 . S
C175 O176 1.235 . S
C175 O202 1.289 . S
O176 C175 1.235 . S
C177 C179 1.400 . S
C177 N180 1.351 . S
C177 C182 1.501 . S
C178 C179 1.387 . S
C178 N181 1.341 . S
C179 C177 1.400 . S
C179 C178 1.387 . S
N180 Co171 2.022 . S
N180 C177 1.351 . S
N180 N181 1.365 . S
N181 C178 1.341 . S
N181 N180 1.365 . S
N181 H201 0.862 . S
C182 C177 1.501 . S
C182 H183 0.961 . S
C182 H184 0.961 . S
C182 H185 0.960 . S
H183 C182 0.961 . S
H184 C182 0.961 . S
H185 C182 0.960 . S
C186 N187 1.342 . S
C186 C190 1.401 . S
C186 C191 1.499 . S
N187 Co170 1.989 . S
N187 C186 1.342 . S
N187 N188 1.388 . S
N188 Co171 1.993 . S
N188 N187 1.388 . S
N188 C189 1.346 . S
C189 N188 1.346 . S
C189 C190 1.396 . S
C189 C199 1.510 . S
C190 C186 1.401 . S
C190 C189 1.396 . S
C191 C186 1.499 . S
C191 H192 0.959 . S
C191 H193 0.960 . S
C191 H194 0.961 . S
H192 C191 0.959 . S
H193 C191 0.960 . S
H194 C191 0.961 . S
O195 Co170 1.967 . S
O195 C203 1.258 . S
O196 Co171 1.941 . S
O196 C203 1.266 . S
H197 C199 0.959 . S
H198 C199 0.961 . S
C199 C189 1.510 . S
C199 H197 0.959 . S
C199 H198 0.961 . S
C199 H200 0.960 . S
H200 C199 0.960 . S
H201 N181 0.862 . S
O202 Co170 1.920 . S
O202 C175 1.289 . S
C203 O195 1.258 . S
C203 O196 1.266 . S
Co204 O207 1.970 . S
Co204 N221 1.989 . S
Co204 O229 1.967 . S
Co204 O236 1.920 . S
Co205 O208 1.966 . S
Co205 N214 2.022 . S
Co205 N222 1.993 . S
Co205 O230 1.941 . S
C206 O207 1.258 . S
C206 O208 1.263 . S
O207 Co204 1.970 . S
O207 C206 1.258 . S
O208 Co205 1.966 . S
O208 C206 1.263 . S
C209 O210 1.235 . S
C209 O236 1.289 . S
O210 C209 1.235 . S
C211 C213 1.400 . S
C211 N214 1.351 . S
C211 C216 1.501 . S
C212 C213 1.387 . S
C212 N215 1.341 . S
C213 C211 1.400 . S
C213 C212 1.387 . S
N214 Co205 2.022 . S
N214 C211 1.351 . S
N214 N215 1.365 . S
N215 C212 1.341 . S
N215 N214 1.365 . S
N215 H235 0.862 . S
C216 C211 1.501 . S
C216 H217 0.961 . S
C216 H218 0.961 . S
C216 H219 0.960 . S
H217 C216 0.961 . S
H218 C216 0.961 . S
H219 C216 0.960 . S
C220 N221 1.342 . S
C220 C224 1.401 . S
C220 C225 1.499 . S
N221 Co204 1.989 . S
N221 C220 1.342 . S
N221 N222 1.388 . S
N222 Co205 1.993 . S
N222 N221 1.388 . S
N222 C223 1.346 . S
C223 N222 1.346 . S
C223 C224 1.396 . S
C223 C233 1.510 . S
C224 C220 1.401 . S
C224 C223 1.396 . S
C225 C220 1.499 . S
C225 H226 0.959 . S
C225 H227 0.960 . S
C225 H228 0.961 . S
H226 C225 0.959 . S
H227 C225 0.960 . S
H228 C225 0.961 . S
O229 Co204 1.967 . S
O229 C237 1.258 . S
O230 Co205 1.941 . S
O230 C237 1.266 . S
H231 C233 0.959 . S
H232 C233 0.961 . S
C233 C223 1.510 . S
C233 H231 0.959 . S
C233 H232 0.961 . S
C233 H234 0.960 . S
H234 C233 0.960 . S
H235 N215 0.862 . S
O236 Co204 1.920 . S
O236 C209 1.289 . S
C237 O229 1.258 . S
C237 O230 1.266 . S
Co238 O241 1.970 . S
Co238 N255 1.989 . S
Co238 O263 1.967 . S
Co238 O270 1.920 . S
Co239 O242 1.966 . S
Co239 N248 2.022 . S
Co239 N256 1.993 . S
Co239 O264 1.941 . S
C240 O241 1.258 . S
C240 O242 1.263 . S
O241 Co238 1.970 . S
O241 C240 1.258 . S
O242 Co239 1.966 . S
O242 C240 1.263 . S
C243 O244 1.235 . S
C243 O270 1.289 . S
O244 C243 1.235 . S
C245 C247 1.400 . S
C245 N248 1.351 . S
C245 C250 1.501 . S
C246 C247 1.387 . S
C246 N249 1.341 . S
C247 C245 1.400 . S
C247 C246 1.387 . S
N248 Co239 2.022 . S
N248 C245 1.351 . S
N248 N249 1.365 . S
N249 C246 1.341 . S
N249 N248 1.365 . S
N249 H269 0.862 . S
C250 C245 1.501 . S
C250 H251 0.961 . S
C250 H252 0.961 . S
C250 H253 0.960 . S
H251 C250 0.961 . S
H252 C250 0.961 . S
H253 C250 0.960 . S
C254 N255 1.342 . S
C254 C258 1.401 . S
C254 C259 1.499 . S
N255 Co238 1.989 . S
N255 C254 1.342 . S
N255 N256 1.388 . S
N256 Co239 1.993 . S
N256 N255 1.388 . S
N256 C257 1.346 . S
C257 N256 1.346 . S
C257 C258 1.396 . S
C257 C267 1.510 . S
C258 C254 1.401 . S
C258 C257 1.396 . S
C259 C254 1.499 . S
C259 H260 0.959 . S
C259 H261 0.960 . S
C259 H262 0.961 . S
H260 C259 0.959 . S
H261 C259 0.960 . S
H262 C259 0.961 . S
O263 Co238 1.967 . S
O263 C271 1.258 . S
O264 Co239 1.941 . S
O264 C271 1.266 . S
H265 C267 0.959 . S
H266 C267 0.961 . S
C267 C257 1.510 . S
C267 H265 0.959 . S
C267 H266 0.961 . S
C267 H268 0.960 . S
H268 C267 0.960 . S
H269 N249 0.862 . S
O270 Co238 1.920 . S
O270 C243 1.289 . S
C271 O263 1.258 . S
C271 O264 1.266 . S
Co272 O275 1.970 . S
Co272 N289 1.989 . S
Co272 O297 1.967 . S
Co272 O304 1.920 . S
Co273 O276 1.966 . S
Co273 N282 2.022 . S
Co273 N290 1.993 . S
Co273 O298 1.941 . S
C274 O275 1.258 . S
C274 O276 1.263 . S
O275 Co272 1.970 . S
O275 C274 1.258 . S
O276 Co273 1.966 . S
O276 C274 1.263 . S
C277 O278 1.235 . S
C277 O304 1.289 . S
O278 C277 1.235 . S
C279 C281 1.400 . S
C279 N282 1.351 . S
C279 C284 1.501 . S
C280 C281 1.387 . S
C280 N283 1.341 . S
C281 C279 1.400 . S
C281 C280 1.387 . S
N282 Co273 2.022 . S
N282 C279 1.351 . S
N282 N283 1.365 . S
N283 C280 1.341 . S
N283 N282 1.365 . S
N283 H303 0.862 . S
C284 C279 1.501 . S
C284 H285 0.961 . S
C284 H286 0.961 . S
C284 H287 0.960 . S
H285 C284 0.961 . S
H286 C284 0.961 . S
H287 C284 0.960 . S
C288 N289 1.342 . S
C288 C292 1.401 . S
C288 C293 1.499 . S
N289 Co272 1.989 . S
N289 C288 1.342 . S
N289 N290 1.388 . S
N290 Co273 1.993 . S
N290 N289 1.388 . S
N290 C291 1.346 . S
C291 N290 1.346 . S
C291 C292 1.396 . S
C291 C301 1.510 . S
C292 C288 1.401 . S
C292 C291 1.396 . S
C293 C288 1.499 . S
C293 H294 0.959 . S
C293 H295 0.960 . S
C293 H296 0.961 . S
H294 C293 0.959 . S
H295 C293 0.960 . S
H296 C293 0.961 . S
O297 Co272 1.967 . S
O297 C305 1.258 . S
O298 Co273 1.941 . S
O298 C305 1.266 . S
H299 C301 0.959 . S
H300 C301 0.961 . S
C301 C291 1.510 . S
C301 H299 0.959 . S
C301 H300 0.961 . S
C301 H302 0.960 . S
H302 C301 0.960 . S
H303 N283 0.862 . S
O304 Co272 1.920 . S
O304 C277 1.289 . S
C305 O297 1.258 . S
C305 O298 1.266 . S
Co306 O309 1.970 . S
Co306 N323 1.989 . S
Co306 O331 1.967 . S
Co306 O338 1.920 . S
Co307 O310 1.966 . S
Co307 N316 2.022 . S
Co307 N324 1.993 . S
Co307 O332 1.941 . S
C308 O309 1.258 . S
C308 O310 1.263 . S
O309 Co306 1.970 . S
O309 C308 1.258 . S
O310 Co307 1.966 . S
O310 C308 1.263 . S
C311 O312 1.235 . S
C311 O338 1.289 . S
O312 C311 1.235 . S
C313 C315 1.400 . S
C313 N316 1.351 . S
C313 C318 1.501 . S
C314 C315 1.387 . S
C314 N317 1.341 . S
C315 C313 1.400 . S
C315 C314 1.387 . S
N316 Co307 2.022 . S
N316 C313 1.351 . S
N316 N317 1.365 . S
N317 C314 1.341 . S
N317 N316 1.365 . S
N317 H337 0.862 . S
C318 C313 1.501 . S
C318 H319 0.961 . S
C318 H320 0.961 . S
C318 H321 0.960 . S
H319 C318 0.961 . S
H320 C318 0.961 . S
H321 C318 0.960 . S
C322 N323 1.342 . S
C322 C326 1.401 . S
C322 C327 1.499 . S
N323 Co306 1.989 . S
N323 C322 1.342 . S
N323 N324 1.388 . S
N324 Co307 1.993 . S
N324 N323 1.388 . S
N324 C325 1.346 . S
C325 N324 1.346 . S
C325 C326 1.396 . S
C325 C335 1.510 . S
C326 C322 1.401 . S
C326 C325 1.396 . S
C327 C322 1.499 . S
C327 H328 0.959 . S
C327 H329 0.960 . S
C327 H330 0.961 . S
H328 C327 0.959 . S
H329 C327 0.960 . S
H330 C327 0.961 . S
O331 Co306 1.967 . S
O331 C339 1.258 . S
O332 Co307 1.941 . S
O332 C339 1.266 . S
H333 C335 0.959 . S
H334 C335 0.961 . S
C335 C325 1.510 . S
C335 H333 0.959 . S
C335 H334 0.961 . S
C335 H336 0.960 . S
H336 C335 0.960 . S
H337 N317 0.862 . S
O338 Co306 1.920 . S
O338 C311 1.289 . S
C339 O331 1.258 . S
C339 O332 1.266 . S
Co340 O343 1.970 . S
Co340 N357 1.989 . S
Co340 O365 1.967 . S
Co340 O372 1.920 . S
Co341 O344 1.966 . S
Co341 N350 2.022 . S
Co341 N358 1.993 . S
Co341 O366 1.941 . S
C342 O343 1.258 . S
C342 O344 1.263 . S
O343 Co340 1.970 . S
O343 C342 1.258 . S
O344 Co341 1.966 . S
O344 C342 1.263 . S
C345 O346 1.235 . S
C345 O372 1.289 . S
O346 C345 1.235 . S
C347 C349 1.400 . S
C347 N350 1.351 . S
C347 C352 1.501 . S
C348 C349 1.387 . S
C348 N351 1.341 . S
C349 C347 1.400 . S
C349 C348 1.387 . S
N350 Co341 2.022 . S
N350 C347 1.351 . S
N350 N351 1.365 . S
N351 C348 1.341 . S
N351 N350 1.365 . S
N351 H371 0.862 . S
C352 C347 1.501 . S
C352 H353 0.961 . S
C352 H354 0.961 . S
C352 H355 0.960 . S
H353 C352 0.961 . S
H354 C352 0.961 . S
H355 C352 0.960 . S
C356 N357 1.342 . S
C356 C360 1.401 . S
C356 C361 1.499 . S
N357 Co340 1.989 . S
N357 C356 1.342 . S
N357 N358 1.388 . S
N358 Co341 1.993 . S
N358 N357 1.388 . S
N358 C359 1.346 . S
C359 N358 1.346 . S
C359 C360 1.396 . S
C359 C369 1.510 . S
C360 C356 1.401 . S
C360 C359 1.396 . S
C361 C356 1.499 . S
C361 H362 0.959 . S
C361 H363 0.960 . S
C361 H364 0.961 . S
H362 C361 0.959 . S
H363 C361 0.960 . S
H364 C361 0.961 . S
O365 Co340 1.967 . S
O365 C373 1.258 . S
O366 Co341 1.941 . S
O366 C373 1.266 . S
H367 C369 0.959 . S
H368 C369 0.961 . S
C369 C359 1.510 . S
C369 H367 0.959 . S
C369 H368 0.961 . S
C369 H370 0.960 . S
H370 C369 0.960 . S
H371 N351 0.862 . S
O372 Co340 1.920 . S
O372 C345 1.289 . S
C373 O365 1.258 . S
C373 O366 1.266 . S
Co374 O377 1.970 . S
Co374 N391 1.989 . S
Co374 O399 1.967 . S
Co374 O406 1.920 . S
Co375 O378 1.966 . S
Co375 N384 2.022 . S
Co375 N392 1.993 . S
Co375 O400 1.941 . S
C376 O377 1.258 . S
C376 O378 1.263 . S
O377 Co374 1.970 . S
O377 C376 1.258 . S
O378 Co375 1.966 . S
O378 C376 1.263 . S
C379 O380 1.235 . S
C379 O406 1.289 . S
O380 C379 1.235 . S
C381 C383 1.400 . S
C381 N384 1.351 . S
C381 C386 1.501 . S
C382 C383 1.387 . S
C382 N385 1.341 . S
C383 C381 1.400 . S
C383 C382 1.387 . S
N384 Co375 2.022 . S
N384 C381 1.351 . S
N384 N385 1.365 . S
N385 C382 1.341 . S
N385 N384 1.365 . S
N385 H405 0.862 . S
C386 C381 1.501 . S
C386 H387 0.961 . S
C386 H388 0.961 . S
C386 H389 0.960 . S
H387 C386 0.961 . S
H388 C386 0.961 . S
H389 C386 0.960 . S
C390 N391 1.342 . S
C390 C394 1.401 . S
C390 C395 1.499 . S
N391 Co374 1.989 . S
N391 C390 1.342 . S
N391 N392 1.388 . S
N392 Co375 1.993 . S
N392 N391 1.388 . S
N392 C393 1.346 . S
C393 N392 1.346 . S
C393 C394 1.396 . S
C393 C403 1.510 . S
C394 C390 1.401 . S
C394 C393 1.396 . S
C395 C390 1.499 . S
C395 H396 0.959 . S
C395 H397 0.960 . S
C395 H398 0.961 . S
H396 C395 0.959 . S
H397 C395 0.960 . S
H398 C395 0.961 . S
O399 Co374 1.967 . S
O399 C407 1.258 . S
O400 Co375 1.941 . S
O400 C407 1.266 . S
H401 C403 0.959 . S
H402 C403 0.961 . S
C403 C393 1.510 . S
C403 H401 0.959 . S
C403 H402 0.961 . S
C403 H404 0.960 . S
H404 C403 0.960 . S
H405 N385 0.862 . S
O406 Co374 1.920 . S
O406 C379 1.289 . S
C407 O399 1.258 . S
C407 O400 1.266 . S
C408 C409 1.349 . S
C408 C410 1.327 . S
C408 H433 0.950 . S
C409 C408 1.349 . S
C409 C425 1.349 . S
C410 C408 1.327 . S
C410 C429 1.429 . S
C410 H434 0.950 . S
C411 C428 1.574 . S
C411 C430 1.368 . S
C411 H435 0.949 . S
H412 C416 0.949 . S
C413 C414 1.349 . S
C413 C415 1.327 . S
C413 H436 0.950 . S
C414 C413 1.349 . S
C414 C426 1.349 . S
C415 C413 1.327 . S
C415 C431 1.429 . S
C415 H437 0.950 . S
C416 H412 0.949 . S
C416 C424 1.574 . S
C416 C432 1.368 . S
H417 C425 0.950 . S
H418 C423 0.950 . S
H419 C424 0.949 . S
H420 C426 0.950 . S
H421 C427 0.950 . S
H422 C428 0.949 . S
C423 H418 0.950 . S
C423 C425 1.327 . S
C423 C429 1.429 . S
C424 C416 1.574 . S
C424 H419 0.949 . S
C424 C430 1.368 . S
C425 C409 1.349 . S
C425 H417 0.950 . S
C425 C423 1.327 . S
C426 C414 1.349 . S
C426 H420 0.950 . S
C426 C427 1.327 . S
C427 H421 0.950 . S
C427 C426 1.327 . S
C427 C431 1.429 . S
C428 C411 1.574 . S
C428 H422 0.949 . S
C428 C432 1.368 . S
C429 C410 1.429 . S
C429 C423 1.429 . S
C429 C430 1.523 . S
C430 C411 1.368 . S
C430 C424 1.368 . S
C430 C429 1.523 . S
C431 C415 1.429 . S
C431 C427 1.429 . S
C431 C432 1.523 . S
C432 C416 1.368 . S
C432 C428 1.368 . S
C432 C431 1.523 . S
H433 C408 0.950 . S
H434 C410 0.950 . S
H435 C411 0.949 . S
H436 C413 0.950 . S
H437 C415 0.950 . S
C438 C439 1.349 . S
C438 C440 1.327 . S
C438 H463 0.950 . S
C439 C438 1.349 . S
C439 C455 1.349 . S
C440 C438 1.327 . S
C440 C459 1.429 . S
C440 H464 0.950 . S
C441 C458 1.574 . S
C441 C460 1.368 . S
C441 H465 0.949 . S
H442 C446 0.949 . S
C443 C444 1.349 . S
C443 C445 1.327 . S
C443 H466 0.950 . S
C444 C443 1.349 . S
C444 C456 1.349 . S
C445 C443 1.327 . S
C445 C461 1.429 . S
C445 H467 0.950 . S
C446 H442 0.949 . S
C446 C454 1.574 . S
C446 C462 1.368 . S
H447 C455 0.950 . S
H448 C453 0.950 . S
H449 C454 0.949 . S
H450 C456 0.950 . S
H451 C457 0.950 . S
H452 C458 0.949 . S
C453 H448 0.950 . S
C453 C455 1.327 . S
C453 C459 1.429 . S
C454 C446 1.574 . S
C454 H449 0.949 . S
C454 C460 1.368 1_455 S
C455 C439 1.349 . S
C455 H447 0.950 . S
C455 C453 1.327 . S
C456 C444 1.349 . S
C456 H450 0.950 . S
C456 C457 1.327 . S
C457 H451 0.950 . S
C457 C456 1.327 . S
C457 C461 1.429 . S
C458 C441 1.574 . S
C458 H452 0.949 . S
C458 C462 1.368 1_655 S
C459 C440 1.429 . S
C459 C453 1.429 . S
C459 C460 1.523 . S
C460 C441 1.368 . S
C460 C454 1.368 1_655 S
C460 C459 1.523 . S
C461 C445 1.429 . S
C461 C457 1.429 . S
C461 C462 1.523 . S
C462 C446 1.368 . S
C462 C458 1.368 1_455 S
C462 C461 1.523 . S
H463 C438 0.950 . S
H464 C440 0.950 . S
H465 C441 0.949 . S
H466 C443 0.950 . S
H467 C445 0.950 . S
C468 C469 1.349 . S
C468 C470 1.327 . S
C468 H493 0.950 . S
C469 C468 1.349 . S
C469 C485 1.349 . S
C470 C468 1.327 . S
C470 C489 1.429 . S
C470 H494 0.950 . S
C471 C488 1.574 . S
C471 C490 1.368 1_565 S
C471 H495 0.949 . S
H472 C476 0.949 . S
C473 C474 1.349 . S
C473 C475 1.327 . S
C473 H496 0.950 . S
C474 C473 1.349 . S
C474 C486 1.349 . S
C475 C473 1.327 . S
C475 C491 1.429 . S
C475 H497 0.950 . S
C476 H472 0.949 . S
C476 C484 1.574 . S
C476 C492 1.368 1_545 S
H477 C485 0.950 . S
H478 C483 0.950 . S
H479 C484 0.949 . S
H480 C486 0.950 . S
H481 C487 0.950 . S
H482 C488 0.949 . S
C483 H478 0.950 . S
C483 C485 1.327 . S
C483 C489 1.429 . S
C484 C476 1.574 . S
C484 H479 0.949 . S
C484 C490 1.368 . S
C485 C469 1.349 . S
C485 H477 0.950 . S
C485 C483 1.327 . S
C486 C474 1.349 . S
C486 H480 0.950 . S
C486 C487 1.327 . S
C487 H481 0.950 . S
C487 C486 1.327 . S
C487 C491 1.429 . S
C488 C471 1.574 . S
C488 H482 0.949 . S
C488 C492 1.368 . S
C489 C470 1.429 . S
C489 C483 1.429 . S
C489 C490 1.523 . S
C490 C471 1.368 1_545 S
C490 C484 1.368 . S
C490 C489 1.523 . S
C491 C475 1.429 . S
C491 C487 1.429 . S
C491 C492 1.523 . S
C492 C476 1.368 1_565 S
C492 C488 1.368 . S
C492 C491 1.523 . S
H493 C468 0.950 . S
H494 C470 0.950 . S
H495 C471 0.949 . S
H496 C473 0.950 . S
H497 C475 0.950 . S
C498 C499 1.349 . S
C498 C500 1.327 . S
C498 H523 0.950 . S
C499 C498 1.349 . S
C499 C515 1.349 . S
C500 C498 1.327 . S
C500 C519 1.429 . S
C500 H524 0.950 . S
C501 C518 1.574 . S
C501 C520 1.368 . S
C501 H525 0.949 . S
H502 C506 0.949 . S
C503 C504 1.349 . S
C503 C505 1.327 . S
C503 H526 0.950 . S
C504 C503 1.349 . S
C504 C516 1.349 . S
C505 C503 1.327 . S
C505 C521 1.429 . S
C505 H527 0.950 . S
C506 H502 0.949 . S
C506 C514 1.574 . S
C506 C522 1.368 . S
H507 C515 0.950 . S
H508 C513 0.950 . S
H509 C514 0.949 . S
H510 C516 0.950 . S
H511 C517 0.950 . S
H512 C518 0.949 . S
C513 H508 0.950 . S
C513 C515 1.327 . S
C513 C519 1.429 . S
C514 C506 1.574 . S
C514 H509 0.949 . S
C514 C520 1.368 . S
C515 C499 1.349 . S
C515 H507 0.950 . S
C515 C513 1.327 . S
C516 C504 1.349 . S
C516 H510 0.950 . S
C516 C517 1.327 . S
C517 H511 0.950 . S
C517 C516 1.327 . S
C517 C521 1.429 . S
C518 C501 1.574 . S
C518 H512 0.949 . S
C518 C522 1.368 . S
C519 C500 1.429 . S
C519 C513 1.429 . S
C519 C520 1.523 . S
C520 C501 1.368 . S
C520 C514 1.368 . S
C520 C519 1.523 . S
C521 C505 1.429 . S
C521 C517 1.429 . S
C521 C522 1.523 . S
C522 C506 1.368 . S
C522 C518 1.368 . S
C522 C521 1.523 . S
H523 C498 0.950 . S
H524 C500 0.950 . S
H525 C501 0.949 . S
H526 C503 0.950 . S
H527 C505 0.950 . S
C528 C529 1.349 . S
C528 C530 1.327 . S
C528 H553 0.950 . S
C529 C528 1.349 . S
C529 C545 1.349 . S
C530 C528 1.327 . S
C530 C549 1.429 . S
C530 H554 0.950 . S
C531 C548 1.574 . S
C531 C550 1.368 1_655 S
C531 H555 0.949 . S
H532 C536 0.949 . S
C533 C534 1.349 . S
C533 C535 1.327 . S
C533 H556 0.950 . S
C534 C533 1.349 . S
C534 C546 1.349 . S
C535 C533 1.327 . S
C535 C551 1.429 . S
C535 H557 0.950 . S
C536 H532 0.949 . S
C536 C544 1.574 . S
C536 C552 1.368 1_455 S
H537 C545 0.950 . S
H538 C543 0.950 . S
H539 C544 0.949 . S
H540 C546 0.950 . S
H541 C547 0.950 . S
H542 C548 0.949 . S
C543 H538 0.950 . S
C543 C545 1.327 . S
C543 C549 1.429 . S
C544 C536 1.574 . S
C544 H539 0.949 . S
C544 C550 1.368 . S
C545 C529 1.349 . S
C545 H537 0.950 . S
C545 C543 1.327 . S
C546 C534 1.349 . S
C546 H540 0.950 . S
C546 C547 1.327 . S
C547 H541 0.950 . S
C547 C546 1.327 . S
C547 C551 1.429 . S
C548 C531 1.574 . S
C548 H542 0.949 . S
C548 C552 1.368 . S
C549 C530 1.429 . S
C549 C543 1.429 . S
C549 C550 1.523 . S
C550 C531 1.368 1_455 S
C550 C544 1.368 . S
C550 C549 1.523 . S
C551 C535 1.429 . S
C551 C547 1.429 . S
C551 C552 1.523 . S
C552 C536 1.368 1_655 S
C552 C548 1.368 . S
C552 C551 1.523 . S
H553 C528 0.950 . S
H554 C530 0.950 . S
H555 C531 0.949 . S
H556 C533 0.950 . S
H557 C535 0.950 . S
C558 C559 1.349 . S
C558 C560 1.327 . S
C558 H583 0.950 . S
C559 C558 1.349 . S
C559 C575 1.349 . S
C560 C558 1.327 . S
C560 C579 1.429 . S
C560 H584 0.950 . S
C561 C578 1.574 . S
C561 C580 1.368 1_545 S
C561 H585 0.949 . S
H562 C566 0.949 . S
C563 C564 1.349 . S
C563 C565 1.327 . S
C563 H586 0.950 . S
C564 C563 1.349 . S
C564 C576 1.349 . S
C565 C563 1.327 . S
C565 C581 1.429 . S
C565 H587 0.950 . S
C566 H562 0.949 . S
C566 C574 1.574 . S
C566 C582 1.368 1_565 S
H567 C575 0.950 . S
H568 C573 0.950 . S
H569 C574 0.949 . S
H570 C576 0.950 . S
H571 C577 0.950 . S
H572 C578 0.949 . S
C573 H568 0.950 . S
C573 C575 1.327 . S
C573 C579 1.429 . S
C574 C566 1.574 . S
C574 H569 0.949 . S
C574 C580 1.368 . S
C575 C559 1.349 . S
C575 H567 0.950 . S
C575 C573 1.327 . S
C576 C564 1.349 . S
C576 H570 0.950 . S
C576 C577 1.327 . S
C577 H571 0.950 . S
C577 C576 1.327 . S
C577 C581 1.429 . S
C578 C561 1.574 . S
C578 H572 0.949 . S
C578 C582 1.368 . S
C579 C560 1.429 . S
C579 C573 1.429 . S
C579 C580 1.523 . S
C580 C561 1.368 1_565 S
C580 C574 1.368 . S
C580 C579 1.523 . S
C581 C565 1.429 . S
C581 C577 1.429 . S
C581 C582 1.523 . S
C582 C566 1.368 1_545 S
C582 C578 1.368 . S
C582 C581 1.523 . S
H583 C558 0.950 . S
H584 C560 0.950 . S
H585 C561 0.949 . S
H586 C563 0.950 . S
H587 C565 0.950 . S
C588 C589 1.349 . S
C588 C590 1.327 . S
C588 H613 0.950 . S
C589 C588 1.349 . S
C589 C605 1.349 . S
C590 C588 1.327 . S
C590 C609 1.429 . S
C590 H614 0.950 . S
C591 C608 1.574 1_554 S
C591 C610 1.368 . S
C591 H615 0.949 . S
H592 C596 0.949 . S
C593 C594 1.349 . S
C593 C595 1.327 . S
C593 H616 0.950 . S
C594 C593 1.349 . S
C594 C606 1.349 . S
C595 C593 1.327 . S
C595 C611 1.429 . S
C595 H617 0.950 . S
C596 H592 0.949 . S
C596 C604 1.574 1_556 S
C596 C612 1.368 . S
H597 C605 0.950 . S
H598 C603 0.950 . S
H599 C604 0.949 . S
H600 C606 0.950 . S
H601 C607 0.950 . S
H602 C608 0.949 . S
C603 H598 0.950 . S
C603 C605 1.327 . S
C603 C609 1.429 . S
C604 C596 1.574 1_554 S
C604 H599 0.949 . S
C604 C610 1.368 . S
C605 C589 1.349 . S
C605 H597 0.950 . S
C605 C603 1.327 . S
C606 C594 1.349 . S
C606 H600 0.950 . S
C606 C607 1.327 . S
C607 H601 0.950 . S
C607 C606 1.327 . S
C607 C611 1.429 . S
C608 C591 1.574 1_556 S
C608 H602 0.949 . S
C608 C612 1.368 . S
C609 C590 1.429 . S
C609 C603 1.429 . S
C609 C610 1.523 . S
C610 C591 1.368 . S
C610 C604 1.368 . S
C610 C609 1.523 . S
C611 C595 1.429 . S
C611 C607 1.429 . S
C611 C612 1.523 . S
C612 C596 1.368 . S
C612 C608 1.368 . S
C612 C611 1.523 . S
H613 C588 0.950 . S
H614 C590 0.950 . S
H615 C591 0.949 . S
H616 C593 0.950 . S
H617 C595 0.950 . S
C618 C619 1.349 . S
C618 C620 1.327 . S
C618 H643 0.950 . S
C619 C618 1.349 . S
C619 C635 1.349 . S
C620 C618 1.327 . S
C620 C639 1.429 . S
C620 H644 0.950 . S
C621 C638 1.574 . S
C621 C640 1.368 . S
C621 H645 0.949 . S
H622 C626 0.949 . S
C623 C624 1.349 . S
C623 C625 1.327 . S
C623 H646 0.950 . S
C624 C623 1.349 . S
C624 C636 1.349 . S
C625 C623 1.327 . S
C625 C641 1.429 . S
C625 H647 0.950 . S
C626 H622 0.949 . S
C626 C634 1.574 . S
C626 C642 1.368 . S
H627 C635 0.950 . S
H628 C633 0.950 . S
H629 C634 0.949 . S
H630 C636 0.950 . S
H631 C637 0.950 . S
H632 C638 0.949 . S
C633 H628 0.950 . S
C633 C635 1.327 . S
C633 C639 1.429 . S
C634 C626 1.574 . S
C634 H629 0.949 . S
C634 C640 1.368 . S
C635 C619 1.349 . S
C635 H627 0.950 . S
C635 C633 1.327 . S
C636 C624 1.349 . S
C636 H630 0.950 . S
C636 C637 1.327 . S
C637 H631 0.950 . S
C637 C636 1.327 . S
C637 C641 1.429 . S
C638 C621 1.574 . S
C638 H632 0.949 . S
C638 C642 1.368 . S
C639 C620 1.429 . S
C639 C633 1.429 . S
C639 C640 1.523 . S
C640 C621 1.368 . S
C640 C634 1.368 . S
C640 C639 1.523 . S
C641 C625 1.429 . S
C641 C637 1.429 . S
C641 C642 1.523 . S
C642 C626 1.368 . S
C642 C638 1.368 . S
C642 C641 1.523 . S
H643 C618 0.950 . S
H644 C620 0.950 . S
H645 C621 0.949 . S
H646 C623 0.950 . S
H647 C625 0.950 . S
C648 C649 1.349 . S
C648 C650 1.327 . S
C648 H673 0.950 . S
C649 C648 1.349 . S
C649 C665 1.349 . S
C650 C648 1.327 . S
C650 C669 1.429 . S
C650 H674 0.950 . S
C651 C668 1.574 . S
C651 C670 1.368 . S
C651 H675 0.949 . S
H652 C656 0.949 . S
C653 C654 1.349 . S
C653 C655 1.327 . S
C653 H676 0.950 . S
C654 C653 1.349 . S
C654 C666 1.349 . S
C655 C653 1.327 . S
C655 C671 1.429 . S
C655 H677 0.950 . S
C656 H652 0.949 . S
C656 C664 1.574 . S
C656 C672 1.368 . S
H657 C665 0.950 . S
H658 C663 0.950 . S
H659 C664 0.949 . S
H660 C666 0.950 . S
H661 C667 0.950 . S
H662 C668 0.949 . S
C663 H658 0.950 . S
C663 C665 1.327 . S
C663 C669 1.429 . S
C664 C656 1.574 . S
C664 H659 0.949 . S
C664 C670 1.368 . S
C665 C649 1.349 . S
C665 H657 0.950 . S
C665 C663 1.327 . S
C666 C654 1.349 . S
C666 H660 0.950 . S
C666 C667 1.327 . S
C667 H661 0.950 . S
C667 C666 1.327 . S
C667 C671 1.429 . S
C668 C651 1.574 . S
C668 H662 0.949 . S
C668 C672 1.368 . S
C669 C650 1.429 . S
C669 C663 1.429 . S
C669 C670 1.523 . S
C670 C651 1.368 . S
C670 C664 1.368 . S
C670 C669 1.523 . S
C671 C655 1.429 . S
C671 C667 1.429 . S
C671 C672 1.523 . S
C672 C656 1.368 . S
C672 C668 1.368 . S
C672 C671 1.523 . S
H673 C648 0.950 . S
H674 C650 0.950 . S
H675 C651 0.949 . S
H676 C653 0.950 . S
H677 C655 0.950 . S
C678 C679 1.349 . S
C678 C680 1.327 . S
C678 H703 0.950 . S
C679 C678 1.349 . S
C679 C695 1.349 . S
C680 C678 1.327 . S
C680 C699 1.429 . S
C680 H704 0.950 . S
C681 C698 1.574 1_554 S
C681 C700 1.368 . S
C681 H705 0.949 . S
H682 C686 0.949 . S
C683 C684 1.349 . S
C683 C685 1.327 . S
C683 H706 0.950 . S
C684 C683 1.349 . S
C684 C696 1.349 . S
C685 C683 1.327 . S
C685 C701 1.429 . S
C685 H707 0.950 . S
C686 H682 0.949 . S
C686 C694 1.574 1_556 S
C686 C702 1.368 . S
H687 C695 0.950 . S
H688 C693 0.950 . S
H689 C694 0.949 . S
H690 C696 0.950 . S
H691 C697 0.950 . S
H692 C698 0.949 . S
C693 H688 0.950 . S
C693 C695 1.327 . S
C693 C699 1.429 . S
C694 C686 1.574 1_554 S
C694 H689 0.949 . S
C694 C700 1.368 . S
C695 C679 1.349 . S
C695 H687 0.950 . S
C695 C693 1.327 . S
C696 C684 1.349 . S
C696 H690 0.950 . S
C696 C697 1.327 . S
C697 H691 0.950 . S
C697 C696 1.327 . S
C697 C701 1.429 . S
C698 C681 1.574 1_556 S
C698 H692 0.949 . S
C698 C702 1.368 . S
C699 C680 1.429 . S
C699 C693 1.429 . S
C699 C700 1.523 . S
C700 C681 1.368 . S
C700 C694 1.368 . S
C700 C699 1.523 . S
C701 C685 1.429 . S
C701 C697 1.429 . S
C701 C702 1.523 . S
C702 C686 1.368 . S
C702 C698 1.368 . S
C702 C701 1.523 . S
H703 C678 0.950 . S
H704 C680 0.950 . S
H705 C681 0.949 . S
H706 C683 0.950 . S
H707 C685 0.950 . S
C708 C709 1.349 . S
C708 C710 1.327 . S
C708 H733 0.950 . S
C709 C708 1.349 . S
C709 C725 1.349 . S
C710 C708 1.327 . S
C710 C729 1.429 . S
C710 H734 0.950 . S
C711 C728 1.574 . S
C711 C730 1.368 . S
C711 H735 0.949 . S
H712 C716 0.949 . S
C713 C714 1.349 . S
C713 C715 1.327 . S
C713 H736 0.950 . S
C714 C713 1.349 . S
C714 C726 1.349 . S
C715 C713 1.327 . S
C715 C731 1.429 . S
C715 H737 0.950 . S
C716 H712 0.949 . S
C716 C724 1.574 . S
C716 C732 1.368 . S
H717 C725 0.950 . S
H718 C723 0.950 . S
H719 C724 0.949 . S
H720 C726 0.950 . S
H721 C727 0.950 . S
H722 C728 0.949 . S
C723 H718 0.950 . S
C723 C725 1.327 . S
C723 C729 1.429 . S
C724 C716 1.574 . S
C724 H719 0.949 . S
C724 C730 1.368 . S
C725 C709 1.349 . S
C725 H717 0.950 . S
C725 C723 1.327 . S
C726 C714 1.349 . S
C726 H720 0.950 . S
C726 C727 1.327 . S
C727 H721 0.950 . S
C727 C726 1.327 . S
C727 C731 1.429 . S
C728 C711 1.574 . S
C728 H722 0.949 . S
C728 C732 1.368 . S
C729 C710 1.429 . S
C729 C723 1.429 . S
C729 C730 1.523 . S
C730 C711 1.368 . S
C730 C724 1.368 . S
C730 C729 1.523 . S
C731 C715 1.429 . S
C731 C727 1.429 . S
C731 C732 1.523 . S
C732 C716 1.368 . S
C732 C728 1.368 . S
C732 C731 1.523 . S
H733 C708 0.950 . S
H734 C710 0.950 . S
H735 C711 0.949 . S
H736 C713 0.950 . S
H737 C715 0.950 . S
C738 C739 1.349 . S
C738 C740 1.327 . S
C738 H763 0.950 . S
C739 C738 1.349 . S
C739 C755 1.349 . S
C740 C738 1.327 . S
C740 C759 1.429 . S
C740 H764 0.950 . S
C741 C758 1.574 . S
C741 C760 1.368 . S
C741 H765 0.949 . S
H742 C746 0.949 . S
C743 C744 1.349 . S
C743 C745 1.327 . S
C743 H766 0.950 . S
C744 C743 1.349 . S
C744 C756 1.349 . S
C745 C743 1.327 . S
C745 C761 1.429 . S
C745 H767 0.950 . S
C746 H742 0.949 . S
C746 C754 1.574 . S
C746 C762 1.368 . S
H747 C755 0.950 . S
H748 C753 0.950 . S
H749 C754 0.949 . S
H750 C756 0.950 . S
H751 C757 0.950 . S
H752 C758 0.949 . S
C753 H748 0.950 . S
C753 C755 1.327 . S
C753 C759 1.429 . S
C754 C746 1.574 . S
C754 H749 0.949 . S
C754 C760 1.368 . S
C755 C739 1.349 . S
C755 H747 0.950 . S
C755 C753 1.327 . S
C756 C744 1.349 . S
C756 H750 0.950 . S
C756 C757 1.327 . S
C757 H751 0.950 . S
C757 C756 1.327 . S
C757 C761 1.429 . S
C758 C741 1.574 . S
C758 H752 0.949 . S
C758 C762 1.368 . S
C759 C740 1.429 . S
C759 C753 1.429 . S
C759 C760 1.523 . S
C760 C741 1.368 . S
C760 C754 1.368 . S
C760 C759 1.523 . S
C761 C745 1.429 . S
C761 C757 1.429 . S
C761 C762 1.523 . S
C762 C746 1.368 . S
C762 C758 1.368 . S
C762 C761 1.523 . S
H763 C738 0.950 . S
H764 C740 0.950 . S
H765 C741 0.949 . S
H766 C743 0.950 . S
H767 C745 0.950 . S
C768 C769 1.349 . S
C768 C770 1.327 . S
C768 H793 0.950 . S
C769 C768 1.349 . S
C769 C785 1.349 . S
C770 C768 1.327 . S
C770 C789 1.429 . S
C770 H794 0.950 . S
C771 C788 1.574 . S
C771 C790 1.368 . S
C771 H795 0.949 . S
H772 C776 0.949 . S
C773 C774 1.349 . S
C773 C775 1.327 . S
C773 H796 0.950 . S
C774 C773 1.349 . S
C774 C786 1.349 . S
C775 C773 1.327 . S
C775 C791 1.429 . S
C775 H797 0.950 . S
C776 H772 0.949 . S
C776 C784 1.574 . S
C776 C792 1.368 . S
H777 C785 0.950 . S
H778 C783 0.950 . S
H779 C784 0.949 . S
H780 C786 0.950 . S
H781 C787 0.950 . S
H782 C788 0.949 . S
C783 H778 0.950 . S
C783 C785 1.327 . S
C783 C789 1.429 . S
C784 C776 1.574 . S
C784 H779 0.949 . S
C784 C790 1.368 . S
C785 C769 1.349 . S
C785 H777 0.950 . S
C785 C783 1.327 . S
C786 C774 1.349 . S
C786 H780 0.950 . S
C786 C787 1.327 . S
C787 H781 0.950 . S
C787 C786 1.327 . S
C787 C791 1.429 . S
C788 C771 1.574 . S
C788 H782 0.949 . S
C788 C792 1.368 . S
C789 C770 1.429 . S
C789 C783 1.429 . S
C789 C790 1.523 . S
C790 C771 1.368 . S
C790 C784 1.368 . S
C790 C789 1.523 . S
C791 C775 1.429 . S
C791 C787 1.429 . S
C791 C792 1.523 . S
C792 C776 1.368 . S
C792 C788 1.368 . S
C792 C791 1.523 . S
H793 C768 0.950 . S
H794 C770 0.950 . S
H795 C771 0.949 . S
H796 C773 0.950 . S
H797 C775 0.950 . S
C798 C799 1.349 . S
C798 C800 1.327 . S
C798 H823 0.950 . S
C799 C798 1.349 . S
C799 C815 1.349 . S
C800 C798 1.327 . S
C800 C819 1.429 . S
C800 H824 0.950 . S
C801 C818 1.574 1_655 S
C801 C820 1.368 . S
C801 H825 0.949 . S
H802 C806 0.949 . S
C803 C804 1.349 . S
C803 C805 1.327 . S
C803 H826 0.950 . S
C804 C803 1.349 . S
C804 C816 1.349 . S
C805 C803 1.327 . S
C805 C821 1.429 . S
C805 H827 0.950 . S
C806 H802 0.949 . S
C806 C814 1.574 1_455 S
C806 C822 1.368 . S
H807 C815 0.950 . S
H808 C813 0.950 . S
H809 C814 0.949 . S
H810 C816 0.950 . S
H811 C817 0.950 . S
H812 C818 0.949 . S
C813 H808 0.950 . S
C813 C815 1.327 . S
C813 C819 1.429 . S
C814 C806 1.574 1_655 S
C814 H809 0.949 . S
C814 C820 1.368 . S
C815 C799 1.349 . S
C815 H807 0.950 . S
C815 C813 1.327 . S
C816 C804 1.349 . S
C816 H810 0.950 . S
C816 C817 1.327 . S
C817 H811 0.950 . S
C817 C816 1.327 . S
C817 C821 1.429 . S
C818 C801 1.574 1_455 S
C818 H812 0.949 . S
C818 C822 1.368 . S
C819 C800 1.429 . S
C819 C813 1.429 . S
C819 C820 1.523 . S
C820 C801 1.368 . S
C820 C814 1.368 . S
C820 C819 1.523 . S
C821 C805 1.429 . S
C821 C817 1.429 . S
C821 C822 1.523 . S
C822 C806 1.368 . S
C822 C818 1.368 . S
C822 C821 1.523 . S
H823 C798 0.950 . S
H824 C800 0.950 . S
H825 C801 0.949 . S
H826 C803 0.950 . S
H827 C805 0.950 . S
C828 C829 1.349 . S
C828 C830 1.327 . S
C828 H853 0.950 . S
C829 C828 1.349 . S
C829 C845 1.349 . S
C830 C828 1.327 . S
C830 C849 1.429 . S
C830 H854 0.950 . S
C831 C848 1.574 1_556 S
C831 C850 1.368 1_545 S
C831 H855 0.949 . S
H832 C836 0.949 . S
C833 C834 1.349 . S
C833 C835 1.327 . S
C833 H856 0.950 . S
C834 C833 1.349 . S
C834 C846 1.349 . S
C835 C833 1.327 . S
C835 C851 1.429 . S
C835 H857 0.950 . S
C836 H832 0.949 . S
C836 C844 1.574 1_554 S
C836 C852 1.368 1_565 S
H837 C845 0.950 . S
H838 C843 0.950 . S
H839 C844 0.949 . S
H840 C846 0.950 . S
H841 C847 0.950 . S
H842 C848 0.949 . S
C843 H838 0.950 . S
C843 C845 1.327 . S
C843 C849 1.429 . S
C844 C836 1.574 1_556 S
C844 H839 0.949 . S
C844 C850 1.368 . S
C845 C829 1.349 . S
C845 H837 0.950 . S
C845 C843 1.327 . S
C846 C834 1.349 . S
C846 H840 0.950 . S
C846 C847 1.327 . S
C847 H841 0.950 . S
C847 C846 1.327 . S
C847 C851 1.429 . S
C848 C831 1.574 1_554 S
C848 H842 0.949 . S
C848 C852 1.368 . S
C849 C830 1.429 . S
C849 C843 1.429 . S
C849 C850 1.523 . S
C850 C831 1.368 1_565 S
C850 C844 1.368 . S
C850 C849 1.523 . S
C851 C835 1.429 . S
C851 C847 1.429 . S
C851 C852 1.523 . S
C852 C836 1.368 1_545 S
C852 C848 1.368 . S
C852 C851 1.523 . S
H853 C828 0.950 . S
H854 C830 0.950 . S
H855 C831 0.949 . S
H856 C833 0.950 . S
H857 C835 0.950 . S
C858 C859 1.349 . S
C858 C860 1.327 . S
C858 H883 0.950 . S
C859 C858 1.349 . S
C859 C875 1.349 . S
C860 C858 1.327 . S
C860 C879 1.429 . S
C860 H884 0.950 . S
C861 C878 1.574 . S
C861 C880 1.368 . S
C861 H885 0.949 . S
H862 C866 0.949 . S
C863 C864 1.349 . S
C863 C865 1.327 . S
C863 H886 0.950 . S
C864 C863 1.349 . S
C864 C876 1.349 . S
C865 C863 1.327 . S
C865 C881 1.429 . S
C865 H887 0.950 . S
C866 H862 0.949 . S
C866 C874 1.574 . S
C866 C882 1.368 . S
H867 C875 0.950 . S
H868 C873 0.950 . S
H869 C874 0.949 . S
H870 C876 0.950 . S
H871 C877 0.950 . S
H872 C878 0.949 . S
C873 H868 0.950 . S
C873 C875 1.327 . S
C873 C879 1.429 . S
C874 C866 1.574 . S
C874 H869 0.949 . S
C874 C880 1.368 . S
C875 C859 1.349 . S
C875 H867 0.950 . S
C875 C873 1.327 . S
C876 C864 1.349 . S
C876 H870 0.950 . S
C876 C877 1.327 . S
C877 H871 0.950 . S
C877 C876 1.327 . S
C877 C881 1.429 . S
C878 C861 1.574 . S
C878 H872 0.949 . S
C878 C882 1.368 . S
C879 C860 1.429 . S
C879 C873 1.429 . S
C879 C880 1.523 . S
C880 C861 1.368 . S
C880 C874 1.368 . S
C880 C879 1.523 . S
C881 C865 1.429 . S
C881 C877 1.429 . S
C881 C882 1.523 . S
C882 C866 1.368 . S
C882 C878 1.368 . S
C882 C881 1.523 . S
H883 C858 0.950 . S
H884 C860 0.950 . S
H885 C861 0.949 . S
H886 C863 0.950 . S
H887 C865 0.950 . S
C888 C889 1.349 . S
C888 C890 1.327 . S
C888 H913 0.950 . S
C889 C888 1.349 . S
C889 C905 1.349 . S
C890 C888 1.327 . S
C890 C909 1.429 . S
C890 H914 0.950 . S
C891 C908 1.574 1_655 S
C891 C910 1.368 . S
C891 H915 0.949 . S
H892 C896 0.949 . S
C893 C894 1.349 . S
C893 C895 1.327 . S
C893 H916 0.950 . S
C894 C893 1.349 . S
C894 C906 1.349 . S
C895 C893 1.327 . S
C895 C911 1.429 . S
C895 H917 0.950 . S
C896 H892 0.949 . S
C896 C904 1.574 1_455 S
C896 C912 1.368 . S
H897 C905 0.950 . S
H898 C903 0.950 . S
H899 C904 0.949 . S
H900 C906 0.950 . S
H901 C907 0.950 . S
H902 C908 0.949 . S
C903 H898 0.950 . S
C903 C905 1.327 . S
C903 C909 1.429 . S
C904 C896 1.574 1_655 S
C904 H899 0.949 . S
C904 C910 1.368 . S
C905 C889 1.349 . S
C905 H897 0.950 . S
C905 C903 1.327 . S
C906 C894 1.349 . S
C906 H900 0.950 . S
C906 C907 1.327 . S
C907 H901 0.950 . S
C907 C906 1.327 . S
C907 C911 1.429 . S
C908 C891 1.574 1_455 S
C908 H902 0.949 . S
C908 C912 1.368 . S
C909 C890 1.429 . S
C909 C903 1.429 . S
C909 C910 1.523 . S
C910 C891 1.368 . S
C910 C904 1.368 . S
C910 C909 1.523 . S
C911 C895 1.429 . S
C911 C907 1.429 . S
C911 C912 1.523 . S
C912 C896 1.368 . S
C912 C908 1.368 . S
C912 C911 1.523 . S
H913 C888 0.950 . S
H914 C890 0.950 . S
H915 C891 0.949 . S
H916 C893 0.950 . S
H917 C895 0.950 . S
C918 C919 1.349 . S
C918 C920 1.327 . S
C918 H943 0.950 . S
C919 C918 1.349 . S
C919 C935 1.349 . S
C920 C918 1.327 . S
C920 C939 1.429 . S
C920 H944 0.950 . S
C921 C938 1.574 1_554 S
C921 C940 1.368 1_545 S
C921 H945 0.949 . S
H922 C926 0.949 . S
C923 C924 1.349 . S
C923 C925 1.327 . S
C923 H946 0.950 . S
C924 C923 1.349 . S
C924 C936 1.349 . S
C925 C923 1.327 . S
C925 C941 1.429 . S
C925 H947 0.950 . S
C926 H922 0.949 . S
C926 C934 1.574 1_556 S
C926 C942 1.368 1_565 S
H927 C935 0.950 . S
H928 C933 0.950 . S
H929 C934 0.949 . S
H930 C936 0.950 . S
H931 C937 0.950 . S
H932 C938 0.949 . S
C933 H928 0.950 . S
C933 C935 1.327 . S
C933 C939 1.429 . S
C934 C926 1.574 1_554 S
C934 H929 0.949 . S
C934 C940 1.368 . S
C935 C919 1.349 . S
C935 H927 0.950 . S
C935 C933 1.327 . S
C936 C924 1.349 . S
C936 H930 0.950 . S
C936 C937 1.327 . S
C937 H931 0.950 . S
C937 C936 1.327 . S
C937 C941 1.429 . S
C938 C921 1.574 1_556 S
C938 H932 0.949 . S
C938 C942 1.368 . S
C939 C920 1.429 . S
C939 C933 1.429 . S
C939 C940 1.523 . S
C940 C921 1.368 1_565 S
C940 C934 1.368 . S
C940 C939 1.523 . S
C941 C925 1.429 . S
C941 C937 1.429 . S
C941 C942 1.523 . S
C942 C926 1.368 1_545 S
C942 C938 1.368 . S
C942 C941 1.523 . S
H943 C918 0.950 . S
H944 C920 0.950 . S
H945 C921 0.949 . S
H946 C923 0.950 . S
H947 C925 0.950 . S
C948 C949 1.349 . S
C948 C950 1.327 . S
C948 H973 0.950 . S
C949 C948 1.349 . S
C949 C965 1.349 . S
C950 C948 1.327 . S
C950 C969 1.429 . S
C950 H974 0.950 . S
C951 C968 1.574 . S
C951 C970 1.368 . S
C951 H975 0.949 . S
H952 C956 0.949 . S
C953 C954 1.349 . S
C953 C955 1.327 . S
C953 H976 0.950 . S
C954 C953 1.349 . S
C954 C966 1.349 . S
C955 C953 1.327 . S
C955 C971 1.429 . S
C955 H977 0.950 . S
C956 H952 0.949 . S
C956 C964 1.574 . S
C956 C972 1.368 . S
H957 C965 0.950 . S
H958 C963 0.950 . S
H959 C964 0.949 . S
H960 C966 0.950 . S
H961 C967 0.950 . S
H962 C968 0.949 . S
C963 H958 0.950 . S
C963 C965 1.327 . S
C963 C969 1.429 . S
C964 C956 1.574 . S
C964 H959 0.949 . S
C964 C970 1.368 . S
C965 C949 1.349 . S
C965 H957 0.950 . S
C965 C963 1.327 . S
C966 C954 1.349 . S
C966 H960 0.950 . S
C966 C967 1.327 . S
C967 H961 0.950 . S
C967 C966 1.327 . S
C967 C971 1.429 . S
C968 C951 1.574 . S
C968 H962 0.949 . S
C968 C972 1.368 . S
C969 C950 1.429 . S
C969 C963 1.429 . S
C969 C970 1.523 . S
C970 C951 1.368 . S
C970 C964 1.368 . S
C970 C969 1.523 . S
C971 C955 1.429 . S
C971 C967 1.429 . S
C971 C972 1.523 . S
C972 C956 1.368 . S
C972 C968 1.368 . S
C972 C971 1.523 . S
H973 C948 0.950 . S
H974 C950 0.950 . S
H975 C951 0.949 . S
H976 C953 0.950 . S
H977 C955 0.950 . S
C978 C979 1.349 . S
C978 C980 1.327 . S
C978 H1003 0.950 . S
C979 C978 1.349 . S
C979 C995 1.349 . S
C980 C978 1.327 . S
C980 C999 1.429 . S
C980 H1004 0.950 . S
C981 C998 1.574 . S
C981 C1000 1.368 . S
C981 H1005 0.949 . S
H982 C986 0.949 . S
C983 C984 1.349 . S
C983 C985 1.327 . S
C983 H1006 0.950 . S
C984 C983 1.349 . S
C984 C996 1.349 . S
C985 C983 1.327 . S
C985 C1001 1.429 . S
C985 H1007 0.950 . S
C986 H982 0.949 . S
C986 C994 1.574 . S
C986 C1002 1.368 . S
H987 C995 0.950 . S
H988 C993 0.950 . S
H989 C994 0.949 . S
H990 C996 0.950 . S
H991 C997 0.950 . S
H992 C998 0.949 . S
C993 H988 0.950 . S
C993 C995 1.327 . S
C993 C999 1.429 . S
C994 C986 1.574 . S
C994 H989 0.949 . S
C994 C1000 1.368 . S
C995 C979 1.349 . S
C995 H987 0.950 . S
C995 C993 1.327 . S
C996 C984 1.349 . S
C996 H990 0.950 . S
C996 C997 1.327 . S
C997 H991 0.950 . S
C997 C996 1.327 . S
C997 C1001 1.429 . S
C998 C981 1.574 . S
C998 H992 0.949 . S
C998 C1002 1.368 . S
C999 C980 1.429 . S
C999 C993 1.429 . S
C999 C1000 1.523 . S
C1000 C981 1.368 . S
C1000 C994 1.368 . S
C1000 C999 1.523 . S
C1001 C985 1.429 . S
C1001 C997 1.429 . S
C1001 C1002 1.523 . S
C1002 C986 1.368 . S
C1002 C998 1.368 . S
C1002 C1001 1.523 . S
H1003 C978 0.950 . S
H1004 C980 0.950 . S
H1005 C981 0.949 . S
H1006 C983 0.950 . S
H1007 C985 0.950 . S
C1008 C1009 1.349 . S
C1008 C1010 1.327 . S
C1008 H1033 0.950 . S
C1009 C1008 1.349 . S
C1009 C1025 1.349 . S
C1010 C1008 1.327 . S
C1010 C1029 1.429 . S
C1010 H1034 0.950 . S
C1011 C1028 1.574 . S
C1011 C1030 1.368 1_556 S
C1011 H1035 0.949 . S
H1012 C1016 0.949 . S
C1013 C1014 1.349 . S
C1013 C1015 1.327 . S
C1013 H1036 0.950 . S
C1014 C1013 1.349 . S
C1014 C1026 1.349 . S
C1015 C1013 1.327 . S
C1015 C1031 1.429 . S
C1015 H1037 0.950 . S
C1016 H1012 0.949 . S
C1016 C1024 1.574 . S
C1016 C1032 1.368 1_554 S
H1017 C1025 0.950 . S
H1018 C1023 0.956 . S
H1019 C1024 0.949 . S
H1020 C1026 0.950 . S
H1021 C1027 0.956 . S
H1022 C1028 0.949 . S
C1023 H1018 0.956 . S
C1023 C1025 1.327 . S
C1023 C1029 1.429 . S
C1024 C1016 1.574 . S
C1024 H1019 0.949 . S
C1024 C1030 1.368 . S
C1025 C1009 1.349 . S
C1025 H1017 0.950 . S
C1025 C1023 1.327 . S
C1026 C1014 1.349 . S
C1026 H1020 0.950 . S
C1026 C1027 1.327 . S
C1027 H1021 0.956 . S
C1027 C1026 1.327 . S
C1027 C1031 1.429 . S
C1028 C1011 1.574 . S
C1028 H1022 0.949 . S
C1028 C1032 1.368 . S
C1029 C1010 1.429 . S
C1029 C1023 1.429 . S
C1029 C1030 1.523 . S
C1030 C1011 1.368 1_554 S
C1030 C1024 1.368 . S
C1030 C1029 1.523 . S
C1031 C1015 1.429 . S
C1031 C1027 1.429 . S
C1031 C1032 1.523 . S
C1032 C1016 1.368 1_556 S
C1032 C1028 1.368 . S
C1032 C1031 1.523 . S
H1033 C1008 0.950 . S
H1034 C1010 0.950 . S
H1035 C1011 0.949 . S
H1036 C1013 0.950 . S
H1037 C1015 0.950 . S
C1038 C1039 1.349 . S
C1038 C1040 1.327 . S
C1038 H1063 0.950 . S
C1039 C1038 1.349 . S
C1039 C1055 1.349 . S
C1040 C1038 1.327 . S
C1040 C1059 1.429 . S
C1040 H1064 0.950 . S
C1041 C1058 1.574 . S
C1041 C1060 1.368 . S
C1041 H1065 0.949 . S
H1042 C1046 0.949 . S
C1043 C1044 1.349 . S
C1043 C1045 1.327 . S
C1043 H1066 0.950 . S
C1044 C1043 1.349 . S
C1044 C1056 1.349 . S
C1045 C1043 1.327 . S
C1045 C1061 1.429 . S
C1045 H1067 0.950 . S
C1046 H1042 0.949 . S
C1046 C1054 1.574 . S
C1046 C1062 1.368 . S
H1047 C1055 0.950 . S
H1048 C1053 0.950 . S
H1049 C1054 0.949 . S
H1050 C1056 0.950 . S
H1051 C1057 0.950 . S
H1052 C1058 0.949 . S
C1053 H1048 0.950 . S
C1053 C1055 1.327 . S
C1053 C1059 1.429 . S
C1054 C1046 1.574 . S
C1054 H1049 0.949 . S
C1054 C1060 1.368 . S
C1055 C1039 1.349 . S
C1055 H1047 0.950 . S
C1055 C1053 1.327 . S
C1056 C1044 1.349 . S
C1056 H1050 0.950 . S
C1056 C1057 1.327 . S
C1057 H1051 0.950 . S
C1057 C1056 1.327 . S
C1057 C1061 1.429 . S
C1058 C1041 1.574 . S
C1058 H1052 0.949 . S
C1058 C1062 1.368 . S
C1059 C1040 1.429 . S
C1059 C1053 1.429 . S
C1059 C1060 1.523 . S
C1060 C1041 1.368 . S
C1060 C1054 1.368 . S
C1060 C1059 1.523 . S
C1061 C1045 1.429 . S
C1061 C1057 1.429 . S
C1061 C1062 1.523 . S
C1062 C1046 1.368 . S
C1062 C1058 1.368 . S
C1062 C1061 1.523 . S
H1063 C1038 0.950 . S
H1064 C1040 0.950 . S
H1065 C1041 0.949 . S
H1066 C1043 0.950 . S
H1067 C1045 0.950 . S
C1068 C1069 1.349 . S
C1068 C1070 1.327 . S
C1068 H1093 0.950 . S
C1069 C1068 1.349 . S
C1069 C1085 1.349 . S
C1070 C1068 1.327 . S
C1070 C1089 1.429 . S
C1070 H1094 0.950 . S
C1071 C1088 1.574 . S
C1071 C1090 1.368 . S
C1071 H1095 0.949 . S
H1072 C1076 0.949 . S
C1073 C1074 1.349 . S
C1073 C1075 1.327 . S
C1073 H1096 0.950 . S
C1074 C1073 1.349 . S
C1074 C1086 1.349 . S
C1075 C1073 1.327 . S
C1075 C1091 1.429 . S
C1075 H1097 0.950 . S
C1076 H1072 0.949 . S
C1076 C1084 1.574 . S
C1076 C1092 1.368 . S
H1077 C1085 0.950 . S
H1078 C1083 0.950 . S
H1079 C1084 0.949 . S
H1080 C1086 0.950 . S
H1081 C1087 0.950 . S
H1082 C1088 0.949 . S
C1083 H1078 0.950 . S
C1083 C1085 1.327 . S
C1083 C1089 1.429 . S
C1084 C1076 1.574 . S
C1084 H1079 0.949 . S
C1084 C1090 1.368 . S
C1085 C1069 1.349 . S
C1085 H1077 0.950 . S
C1085 C1083 1.327 . S
C1086 C1074 1.349 . S
C1086 H1080 0.950 . S
C1086 C1087 1.327 . S
C1087 H1081 0.950 . S
C1087 C1086 1.327 . S
C1087 C1091 1.429 . S
C1088 C1071 1.574 . S
C1088 H1082 0.949 . S
C1088 C1092 1.368 . S
C1089 C1070 1.429 . S
C1089 C1083 1.429 . S
C1089 C1090 1.523 . S
C1090 C1071 1.368 . S
C1090 C1084 1.368 . S
C1090 C1089 1.523 . S
C1091 C1075 1.429 . S
C1091 C1087 1.429 . S
C1091 C1092 1.523 . S
C1092 C1076 1.368 . S
C1092 C1088 1.368 . S
C1092 C1091 1.523 . S
H1093 C1068 0.950 . S
H1094 C1070 0.950 . S
H1095 C1071 0.949 . S
H1096 C1073 0.950 . S
H1097 C1075 0.950 . S
C1098 C1099 1.349 . S
C1098 C1100 1.327 . S
C1098 H1123 0.950 . S
C1099 C1098 1.349 . S
C1099 C1115 1.349 . S
C1100 C1098 1.327 . S
C1100 C1119 1.429 . S
C1100 H1124 0.955 . S
C1101 C1118 1.574 . S
C1101 C1120 1.368 . S
C1101 H1125 0.949 . S
H1102 C1106 0.949 . S
C1103 C1104 1.349 . S
C1103 C1105 1.327 . S
C1103 H1126 0.950 . S
C1104 C1103 1.349 . S
C1104 C1116 1.349 . S
C1105 C1103 1.327 . S
C1105 C1121 1.429 . S
C1105 H1127 0.955 . S
C1106 H1102 0.949 . S
C1106 C1114 1.574 . S
C1106 C1122 1.368 . S
H1107 C1115 0.950 . S
H1108 C1113 0.950 . S
H1109 C1114 0.949 . S
H1110 C1116 0.950 . S
H1111 C1117 0.950 . S
H1112 C1118 0.949 . S
C1113 H1108 0.950 . S
C1113 C1115 1.327 . S
C1113 C1119 1.429 . S
C1114 C1106 1.574 . S
C1114 H1109 0.949 . S
C1114 C1120 1.368 1_554 S
C1115 C1099 1.349 . S
C1115 H1107 0.950 . S
C1115 C1113 1.327 . S
C1116 C1104 1.349 . S
C1116 H1110 0.950 . S
C1116 C1117 1.327 . S
C1117 H1111 0.950 . S
C1117 C1116 1.327 . S
C1117 C1121 1.429 . S
C1118 C1101 1.574 . S
C1118 H1112 0.949 . S
C1118 C1122 1.368 1_556 S
C1119 C1100 1.429 . S
C1119 C1113 1.429 . S
C1119 C1120 1.523 . S
C1120 C1101 1.368 . S
C1120 C1114 1.368 1_556 S
C1120 C1119 1.523 . S
C1121 C1105 1.429 . S
C1121 C1117 1.429 . S
C1121 C1122 1.523 . S
C1122 C1106 1.368 . S
C1122 C1118 1.368 1_554 S
C1122 C1121 1.523 . S
H1123 C1098 0.950 . S
H1124 C1100 0.955 . S
H1125 C1101 0.949 . S
H1126 C1103 0.950 . S
H1127 C1105 0.955 . S
C1128 C1129 1.349 . S
C1128 C1130 1.327 . S
C1128 H1153 0.950 . S
C1129 C1128 1.349 . S
C1129 C1145 1.349 . S
C1130 C1128 1.327 . S
C1130 C1149 1.429 . S
C1130 H1154 0.950 . S
C1131 C1148 1.574 . S
C1131 C1150 1.368 . S
C1131 H1155 0.949 . S
H1132 C1136 0.949 . S
C1133 C1134 1.349 . S
C1133 C1135 1.327 . S
C1133 H1156 0.950 . S
C1134 C1133 1.349 . S
C1134 C1146 1.349 . S
C1135 C1133 1.327 . S
C1135 C1151 1.429 . S
C1135 H1157 0.950 . S
C1136 H1132 0.949 . S
C1136 C1144 1.574 . S
C1136 C1152 1.368 . S
H1137 C1145 0.950 . S
H1138 C1143 0.950 . S
H1139 C1144 0.949 . S
H1140 C1146 0.950 . S
H1141 C1147 0.950 . S
H1142 C1148 0.949 . S
C1143 H1138 0.950 . S
C1143 C1145 1.327 . S
C1143 C1149 1.429 . S
C1144 C1136 1.574 . S
C1144 H1139 0.949 . S
C1144 C1150 1.368 . S
C1145 C1129 1.349 . S
C1145 H1137 0.950 . S
C1145 C1143 1.327 . S
C1146 C1134 1.349 . S
C1146 H1140 0.950 . S
C1146 C1147 1.327 . S
C1147 H1141 0.950 . S
C1147 C1146 1.327 . S
C1147 C1151 1.429 . S
C1148 C1131 1.574 . S
C1148 H1142 0.949 . S
C1148 C1152 1.368 . S
C1149 C1130 1.429 . S
C1149 C1143 1.429 . S
C1149 C1150 1.523 . S
C1150 C1131 1.368 . S
C1150 C1144 1.368 . S
C1150 C1149 1.523 . S
C1151 C1135 1.429 . S
C1151 C1147 1.429 . S
C1151 C1152 1.523 . S
C1152 C1136 1.368 . S
C1152 C1148 1.368 . S
C1152 C1151 1.523 . S
H1153 C1128 0.950 . S
H1154 C1130 0.950 . S
H1155 C1131 0.949 . S
H1156 C1133 0.950 . S
H1157 C1135 0.950 . S
C1158 C1159 1.349 . S
C1158 C1160 1.327 . S
C1158 H1183 0.950 . S
C1159 C1158 1.349 . S
C1159 C1175 1.349 . S
C1160 C1158 1.327 . S
C1160 C1179 1.429 . S
C1160 H1184 0.950 . S
C1161 C1178 1.574 . S
C1161 C1180 1.368 . S
C1161 H1185 0.949 . S
H1162 C1166 0.949 . S
C1163 C1164 1.349 . S
C1163 C1165 1.327 . S
C1163 H1186 0.950 . S
C1164 C1163 1.349 . S
C1164 C1176 1.349 . S
C1165 C1163 1.327 . S
C1165 C1181 1.429 . S
C1165 H1187 0.950 . S
C1166 H1162 0.949 . S
C1166 C1174 1.574 . S
C1166 C1182 1.368 . S
H1167 C1175 0.950 . S
H1168 C1173 0.950 . S
H1169 C1174 0.949 . S
H1170 C1176 0.950 . S
H1171 C1177 0.950 . S
H1172 C1178 0.949 . S
C1173 H1168 0.950 . S
C1173 C1175 1.327 . S
C1173 C1179 1.429 . S
C1174 C1166 1.574 . S
C1174 H1169 0.949 . S
C1174 C1180 1.368 . S
C1175 C1159 1.349 . S
C1175 H1167 0.950 . S
C1175 C1173 1.327 . S
C1176 C1164 1.349 . S
C1176 H1170 0.950 . S
C1176 C1177 1.327 . S
C1177 H1171 0.950 . S
C1177 C1176 1.327 . S
C1177 C1181 1.429 . S
C1178 C1161 1.574 . S
C1178 H1172 0.949 . S
C1178 C1182 1.368 . S
C1179 C1160 1.429 . S
C1179 C1173 1.429 . S
C1179 C1180 1.523 . S
C1180 C1161 1.368 . S
C1180 C1174 1.368 . S
C1180 C1179 1.523 . S
C1181 C1165 1.429 . S
C1181 C1177 1.429 . S
C1181 C1182 1.523 . S
C1182 C1166 1.368 . S
C1182 C1178 1.368 . S
C1182 C1181 1.523 . S
H1183 C1158 0.950 . S
H1184 C1160 0.950 . S
H1185 C1161 0.949 . S
H1186 C1163 0.950 . S
H1187 C1165 0.950 . S
C1188 C1189 1.349 . S
C1188 C1190 1.327 . S
C1188 H1213 0.950 . S
C1189 C1188 1.349 . S
C1189 C1205 1.349 . S
C1190 C1188 1.327 . S
C1190 C1209 1.429 . S
C1190 H1214 0.950 . S
C1191 C1208 1.574 . S
C1191 C1210 1.368 . S
C1191 H1215 0.949 . S
H1192 C1196 0.949 . S
C1193 C1194 1.349 . S
C1193 C1195 1.327 . S
C1193 H1216 0.950 . S
C1194 C1193 1.349 . S
C1194 C1206 1.349 . S
C1195 C1193 1.327 . S
C1195 C1211 1.429 . S
C1195 H1217 0.950 . S
C1196 H1192 0.949 . S
C1196 C1204 1.574 . S
C1196 C1212 1.368 . S
H1197 C1205 0.950 . S
H1198 C1203 0.950 . S
H1199 C1204 0.949 . S
H1200 C1206 0.950 . S
H1201 C1207 0.950 . S
H1202 C1208 0.949 . S
C1203 H1198 0.950 . S
C1203 C1205 1.327 . S
C1203 C1209 1.429 . S
C1204 C1196 1.574 . S
C1204 H1199 0.949 . S
C1204 C1210 1.368 . S
C1205 C1189 1.349 . S
C1205 H1197 0.950 . S
C1205 C1203 1.327 . S
C1206 C1194 1.349 . S
C1206 H1200 0.950 . S
C1206 C1207 1.327 . S
C1207 H1201 0.950 . S
C1207 C1206 1.327 . S
C1207 C1211 1.429 . S
C1208 C1191 1.574 . S
C1208 H1202 0.949 . S
C1208 C1212 1.368 . S
C1209 C1190 1.429 . S
C1209 C1203 1.429 . S
C1209 C1210 1.523 . S
C1210 C1191 1.368 . S
C1210 C1204 1.368 . S
C1210 C1209 1.523 . S
C1211 C1195 1.429 . S
C1211 C1207 1.429 . S
C1211 C1212 1.523 . S
C1212 C1196 1.368 . S
C1212 C1208 1.368 . S
C1212 C1211 1.523 . S
H1213 C1188 0.950 . S
H1214 C1190 0.950 . S
H1215 C1191 0.949 . S
H1216 C1193 0.950 . S
H1217 C1195 0.950 . S
C1218 C1219 1.349 . S
C1218 C1220 1.327 . S
C1218 H1243 0.950 . S
C1219 C1218 1.349 . S
C1219 C1235 1.349 . S
C1220 C1218 1.327 . S
C1220 C1239 1.429 . S
C1220 H1244 0.950 . S
C1221 C1238 1.574 . S
C1221 C1240 1.368 . S
C1221 H1245 0.949 . S
H1222 C1226 0.949 . S
C1223 C1224 1.349 . S
C1223 C1225 1.327 . S
C1223 H1246 0.950 . S
C1224 C1223 1.349 . S
C1224 C1236 1.349 . S
C1225 C1223 1.327 . S
C1225 C1241 1.429 . S
C1225 H1247 0.950 . S
C1226 H1222 0.949 . S
C1226 C1234 1.574 . S
C1226 C1242 1.368 . S
H1227 C1235 0.950 . S
H1228 C1233 0.950 . S
H1229 C1234 0.949 . S
H1230 C1236 0.950 . S
H1231 C1237 0.950 . S
H1232 C1238 0.949 . S
C1233 H1228 0.950 . S
C1233 C1235 1.327 . S
C1233 C1239 1.429 . S
C1234 C1226 1.574 . S
C1234 H1229 0.949 . S
C1234 C1240 1.368 . S
C1235 C1219 1.349 . S
C1235 H1227 0.950 . S
C1235 C1233 1.327 . S
C1236 C1224 1.349 . S
C1236 H1230 0.950 . S
C1236 C1237 1.327 . S
C1237 H1231 0.950 . S
C1237 C1236 1.327 . S
C1237 C1241 1.429 . S
C1238 C1221 1.574 . S
C1238 H1232 0.949 . S
C1238 C1242 1.368 . S
C1239 C1220 1.429 . S
C1239 C1233 1.429 . S
C1239 C1240 1.523 . S
C1240 C1221 1.368 . S
C1240 C1234 1.368 . S
C1240 C1239 1.523 . S
C1241 C1225 1.429 . S
C1241 C1237 1.429 . S
C1241 C1242 1.523 . S
C1242 C1226 1.368 . S
C1242 C1238 1.368 . S
C1242 C1241 1.523 . S
H1243 C1218 0.950 . S
H1244 C1220 0.950 . S
H1245 C1221 0.949 . S
H1246 C1223 0.950 . S
H1247 C1225 0.950 . S
C1248 C1249 1.349 . S
C1248 C1250 1.327 . S
C1248 H1273 0.950 . S
C1249 C1248 1.349 . S
C1249 C1265 1.349 . S
C1250 C1248 1.327 . S
C1250 C1269 1.429 . S
C1250 H1274 0.950 . S
C1251 C1268 1.574 . S
C1251 C1270 1.368 . S
C1251 H1275 0.949 . S
H1252 C1256 0.949 . S
C1253 C1254 1.349 . S
C1253 C1255 1.327 . S
C1253 H1276 0.950 . S
C1254 C1253 1.349 . S
C1254 C1266 1.349 . S
C1255 C1253 1.327 . S
C1255 C1271 1.429 . S
C1255 H1277 0.950 . S
C1256 H1252 0.949 . S
C1256 C1264 1.574 . S
C1256 C1272 1.368 . S
H1257 C1265 0.950 . S
H1258 C1263 0.950 . S
H1259 C1264 0.949 . S
H1260 C1266 0.950 . S
H1261 C1267 0.950 . S
H1262 C1268 0.949 . S
C1263 H1258 0.950 . S
C1263 C1265 1.327 . S
C1263 C1269 1.429 . S
C1264 C1256 1.574 . S
C1264 H1259 0.949 . S
C1264 C1270 1.368 . S
C1265 C1249 1.349 . S
C1265 H1257 0.950 . S
C1265 C1263 1.327 . S
C1266 C1254 1.349 . S
C1266 H1260 0.950 . S
C1266 C1267 1.327 . S
C1267 H1261 0.950 . S
C1267 C1266 1.327 . S
C1267 C1271 1.429 . S
C1268 C1251 1.574 . S
C1268 H1262 0.949 . S
C1268 C1272 1.368 . S
C1269 C1250 1.429 . S
C1269 C1263 1.429 . S
C1269 C1270 1.523 . S
C1270 C1251 1.368 . S
C1270 C1264 1.368 . S
C1270 C1269 1.523 . S
C1271 C1255 1.429 . S
C1271 C1267 1.429 . S
C1271 C1272 1.523 . S
C1272 C1256 1.368 . S
C1272 C1268 1.368 . S
C1272 C1271 1.523 . S
H1273 C1248 0.950 . S
H1274 C1250 0.950 . S
H1275 C1251 0.949 . S
H1276 C1253 0.950 . S
H1277 C1255 0.950 . S
C1278 C1279 1.349 . S
C1278 C1280 1.327 . S
C1278 H1303 0.950 . S
C1279 C1278 1.349 . S
C1279 C1295 1.349 . S
C1280 C1278 1.327 . S
C1280 C1299 1.429 . S
C1280 H1304 0.950 . S
C1281 C1298 1.574 . S
C1281 C1300 1.368 . S
C1281 H1305 0.949 . S
H1282 C1286 0.949 . S
C1283 C1284 1.349 . S
C1283 C1285 1.327 . S
C1283 H1306 0.950 . S
C1284 C1283 1.349 . S
C1284 C1296 1.349 . S
C1285 C1283 1.327 . S
C1285 C1301 1.429 . S
C1285 H1307 0.950 . S
C1286 H1282 0.949 . S
C1286 C1294 1.574 . S
C1286 C1302 1.368 . S
H1287 C1295 0.950 . S
H1288 C1293 0.950 . S
H1289 C1294 0.949 . S
H1290 C1296 0.950 . S
H1291 C1297 0.950 . S
H1292 C1298 0.949 . S
C1293 H1288 0.950 . S
C1293 C1295 1.327 . S
C1293 C1299 1.429 . S
C1294 C1286 1.574 . S
C1294 H1289 0.949 . S
C1294 C1300 1.368 . S
C1295 C1279 1.349 . S
C1295 H1287 0.950 . S
C1295 C1293 1.327 . S
C1296 C1284 1.349 . S
C1296 H1290 0.950 . S
C1296 C1297 1.327 . S
C1297 H1291 0.950 . S
C1297 C1296 1.327 . S
C1297 C1301 1.429 . S
C1298 C1281 1.574 . S
C1298 H1292 0.949 . S
C1298 C1302 1.368 . S
C1299 C1280 1.429 . S
C1299 C1293 1.429 . S
C1299 C1300 1.523 . S
C1300 C1281 1.368 . S
C1300 C1294 1.368 . S
C1300 C1299 1.523 . S
C1301 C1285 1.429 . S
C1301 C1297 1.429 . S
C1301 C1302 1.523 . S
C1302 C1286 1.368 . S
C1302 C1298 1.368 . S
C1302 C1301 1.523 . S
H1303 C1278 0.950 . S
H1304 C1280 0.950 . S
H1305 C1281 0.949 . S
H1306 C1283 0.950 . S
H1307 C1285 0.950 . S
C409 C135 1.210 . S
C414 C33 1.210 . S
C439 C67 1.210 . S
C444 C169 1.210 . S
C469 C203 1.210 . S
C474 C101 1.210 . S
C499 C237 1.210 . S
C504 C339 1.210 . S
C529 C373 1.210 . S
C534 C271 1.210 . S
C559 C305 1.210 . S
C564 C407 1.210 . S
C589 C9 1.569 . S
C594 C349 1.569 . S
C619 C383 1.569 . S
C624 C43 1.569 . S
C649 C77 1.569 . S
C654 C213 1.569 . S
C679 C111 1.569 . S
C684 C247 1.569 . S
C709 C145 1.569 . S
C714 C281 1.569 . S
C739 C179 1.569 . S
C744 C315 1.569 . S
C769 C308 1.514 . S
C774 C2 1.514 . S
C799 C36 1.514 . S
C804 C342 1.514 . S
C829 C70 1.514 . S
C834 C376 1.514 . S
C859 C206 1.514 . S
C864 C104 1.514 . S
C889 C240 1.514 . S
C894 C138 1.514 . S
C919 C274 1.514 . S
C924 C172 1.514 . S
C949 C5 0.628 . S
C954 C209 0.628 . S
C979 C39 0.628 . S
C984 C243 0.628 . S
C1009 C277 0.628 . S
C1014 C73 0.628 . S
C1039 C107 0.628 . S
C1044 C311 0.628 . S
C1069 C345 0.628 . S
C1074 C141 0.628 . S
C1099 C175 0.628 . S
C1104 C379 0.628 . S
C1129 C292 1.086 . S
C1134 C20 1.086 . S
C1159 C326 1.086 . S
C1164 C54 1.086 . S
C1189 C360 1.086 . S
C1194 C88 1.086 . S
C1219 C122 1.086 . S
C1224 C394 1.086 . S
C1249 C224 1.086 . S
C1254 C156 1.086 . S
C1279 C258 1.086 . S
C1284 C190 1.086 . S
