# Generated by pormake.
# Topology fni, (5)-cn, num edge types: 1
# Building blocks:
#     Node 0, Type 0, BuildingBlock: XOMCOT_clean_sbu_0, # of connection points: 5
#     Node 1, Type 0, BuildingBlock: XOMCOT_clean_sbu_0, # of connection points: 5
#     Node 2, Type 0, BuildingBlock: XOMCOT_clean_sbu_0, # of connection points: 5
#     Node 3, Type 0, BuildingBlock: XOMCOT_clean_sbu_0, # of connection points: 5
#     Node 4, Type 0, BuildingBlock: XOMCOT_clean_sbu_0, # of connection points: 5
#     Node 5, Type 0, BuildingBlock: XOMCOT_clean_sbu_0, # of connection points: 5
#     Node 6, Type 0, BuildingBlock: XOMCOT_clean_sbu_0, # of connection points: 5
#     Node 7, Type 0, BuildingBlock: XOMCOT_clean_sbu_0, # of connection points: 5
#     Edge 8, Type (0, 0), BuildingBlock: TEMPAE_clean_linker_10, # of connection points: 2
#     Edge 9, Type (0, 0), BuildingBlock: TEMPAE_clean_linker_10, # of connection points: 2
#     Edge 10, Type (0, 0), BuildingBlock: TEMPAE_clean_linker_10, # of connection points: 2
#     Edge 11, Type (0, 0), BuildingBlock: TEMPAE_clean_linker_10, # of connection points: 2
#     Edge 12, Type (0, 0), BuildingBlock: TEMPAE_clean_linker_10, # of connection points: 2
#     Edge 13, Type (0, 0), BuildingBlock: TEMPAE_clean_linker_10, # of connection points: 2
#     Edge 14, Type (0, 0), BuildingBlock: TEMPAE_clean_linker_10, # of connection points: 2
#     Edge 15, Type (0, 0), BuildingBlock: TEMPAE_clean_linker_10, # of connection points: 2
#     Edge 16, Type (0, 0), BuildingBlock: TEMPAE_clean_linker_10, # of connection points: 2
#     Edge 17, Type (0, 0), BuildingBlock: TEMPAE_clean_linker_10, # of connection points: 2
#     Edge 18, Type (0, 0), BuildingBlock: TEMPAE_clean_linker_10, # of connection points: 2
#     Edge 19, Type (0, 0), BuildingBlock: TEMPAE_clean_linker_10, # of connection points: 2
#     Edge 20, Type (0, 0), BuildingBlock: TEMPAE_clean_linker_10, # of connection points: 2
#     Edge 21, Type (0, 0), BuildingBlock: TEMPAE_clean_linker_10, # of connection points: 2
#     Edge 22, Type (0, 0), BuildingBlock: TEMPAE_clean_linker_10, # of connection points: 2
#     Edge 23, Type (0, 0), BuildingBlock: TEMPAE_clean_linker_10, # of connection points: 2
#     Edge 24, Type (0, 0), BuildingBlock: TEMPAE_clean_linker_10, # of connection points: 2
#     Edge 25, Type (0, 0), BuildingBlock: TEMPAE_clean_linker_10, # of connection points: 2
#     Edge 26, Type (0, 0), BuildingBlock: TEMPAE_clean_linker_10, # of connection points: 2
#     Edge 27, Type (0, 0), BuildingBlock: TEMPAE_clean_linker_10, # of connection points: 2
# Relax obj value: 0.071
# Max RMSD: 0.155
# Mean RMSD: 0.154
data_MOF--net-fni--node1-XOMCOT_clean_sbu_0--edge1-TEMPAE_clean_linker_10
_symmetry_space_group_name_H-M    P1
_symmetry_Int_Tables_number       1
_symmetry_cell_setting            triclinic
loop_
_symmetry_equiv_pos_as_xyz
'x, y, z'
_cell_length_a     54.703435
_cell_length_b     55.120963
_cell_length_c     17.805813
_cell_angle_alpha  89.61329
_cell_angle_beta   90.358637
_cell_angle_gamma 89.928547
loop_
_atom_site_label
_atom_site_type_symbol
_atom_site_fract_x
_atom_site_fract_y
_atom_site_fract_z
_atom_type_partial_charge
Co0 Co 0.39689 0.35781 0.99245 0.0
C1 C 0.39287 0.36123 0.16051 0.0
C2 C 0.35927 0.35132 0.10638 0.0
C3 C 0.35575 0.35071 0.18273 0.0
N4 N 0.38248 0.35814 0.0921 0.0
N5 N 0.37689 0.35693 0.21665 0.0
H6 H 0.41186 0.3653 0.17012 0.0
H7 H 0.34593 0.34655 0.0639 0.0
C8 C 0.35625 0.39403 0.98522 0.0
O9 O 0.36372 0.40251 0.05022 0.0
N10 N 0.41072 0.35675 0.89326 0.0
C11 C 0.43459 0.35474 0.87642 0.0
C12 C 0.4369 0.3542 0.79948 0.0
C13 C 0.39879 0.35747 0.82679 0.0
N14 N 0.41438 0.35596 0.76846 0.0
C15 C 0.43673 0.38485 0.05718 0.0
C16 C 0.42881 0.4272 0.9768 0.0
C17 C 0.44898 0.42597 0.02566 0.0
C18 C 0.45282 0.40435 0.06613 0.0
C19 C 0.41316 0.40731 0.96971 0.0
N20 N 0.41661 0.3867 1.01169 0.0
H21 H 0.44102 0.36792 0.08503 0.0
H22 H 0.39899 0.40825 0.92743 0.0
H23 H 0.44928 0.35375 0.91728 0.0
H24 H 0.37911 0.35864 0.82122 0.0
O25 O 0.4195 0.33264 0.02585 0.0
O26 O 0.38277 0.3262 0.9772 0.0
O27 O 0.36834 0.37736 0.9524 0.0
C28 C 0.40271 0.31716 1.00595 0.0
H29 H 0.33902 0.34577 0.21112 0.0
H30 H 0.45385 0.35294 0.76872 0.0
H31 H 0.42566 0.44304 0.94174 0.0
H32 H 0.46835 0.40231 0.10366 0.0
Co33 Co 0.64735 0.89126 0.24993 0.0
C34 C 0.64746 0.88772 0.41767 0.0
C35 C 0.63836 0.8537 0.36775 0.0
C36 C 0.63838 0.85081 0.44454 0.0
N37 N 0.64316 0.87712 0.35034 0.0
N38 N 0.64411 0.87222 0.47579 0.0
H39 H 0.65344 0.90625 0.42455 0.0
H40 H 0.63615 0.83915 0.32827 0.0
C41 C 0.6113 0.8512 0.20918 0.0
O42 O 0.59432 0.86026 0.25265 0.0
N43 N 0.65216 0.90507 0.15088 0.0
C44 C 0.6523 0.92892 0.13381 0.0
C45 C 0.65339 0.93156 0.05697 0.0
C46 C 0.65352 0.89349 0.08441 0.0
N47 N 0.65409 0.90929 0.02602 0.0
C48 C 0.61256 0.92433 0.31433 0.0
C49 C 0.57921 0.9234 0.19721 0.0
C50 C 0.5748 0.93879 0.25805 0.0
C51 C 0.59176 0.93902 0.31725 0.0
C52 C 0.6001 0.90867 0.19713 0.0
N53 N 0.61632 0.90886 0.25597 0.0
H54 H 0.62612 0.92637 0.35762 0.0
H55 H 0.60351 0.89748 0.14871 0.0
H56 H 0.65076 0.94336 0.17434 0.0
H57 H 0.65299 0.87397 0.07855 0.0
O58 O 0.66917 0.91562 0.29117 0.0
O59 O 0.68046 0.87946 0.25006 0.0
O60 O 0.63203 0.86165 0.20269 0.0
C61 C 0.68672 0.90011 0.27938 0.0
H62 H 0.63537 0.83403 0.47503 0.0
H63 H 0.65327 0.94855 0.02615 0.0
H64 H 0.56671 0.92286 0.14983 0.0
H65 H 0.5895 0.95124 0.3641 0.0
Co66 Co 0.11381 0.14797 0.50858 0.0
C67 C 0.11678 0.14508 0.67484 0.0
C68 C 0.15195 0.14955 0.62352 0.0
C69 C 0.15496 0.15013 0.70017 0.0
N70 N 0.12807 0.14637 0.60775 0.0
N71 N 0.13287 0.14739 0.73232 0.0
H72 H 0.09717 0.14363 0.68133 0.0
H73 H 0.16607 0.15221 0.58207 0.0
C74 C 0.14557 0.11193 0.42305 0.0
O75 O 0.12666 0.10247 0.38807 0.0
N76 N 0.0999 0.15025 0.40782 0.0
C77 C 0.0763 0.15427 0.38863 0.0
C78 C 0.07444 0.15639 0.31183 0.0
C79 C 0.11214 0.15106 0.34211 0.0
N80 N 0.09697 0.15416 0.28271 0.0
C81 C 0.06967 0.12229 0.53975 0.0
C82 C 0.08933 0.07633 0.55346 0.0
C83 C 0.06381 0.07909 0.55434 0.0
C84 C 0.05415 0.10256 0.54984 0.0
C85 C 0.10429 0.09674 0.54287 0.0
N86 N 0.09425 0.1192 0.53111 0.0
H87 H 0.0617 0.14014 0.53907 0.0
H88 H 0.12385 0.09435 0.54427 0.0
H89 H 0.06135 0.15647 0.42706 0.0
H90 H 0.13182 0.15005 0.33763 0.0
O91 O 0.09135 0.17274 0.5423 0.0
O92 O 0.12799 0.17978 0.49489 0.0
O93 O 0.14264 0.12873 0.47122 0.0
C94 C 0.10798 0.18843 0.52341 0.0
H95 H 0.17205 0.15279 0.73 0.0
H96 H 0.05778 0.15926 0.27985 0.0
H97 H 0.09763 0.05857 0.55929 0.0
H98 H 0.03466 0.10571 0.55425 0.0
Co99 Co 0.87297 0.62091 0.78865 0.0
C100 C 0.86936 0.61589 0.6211 0.0
C101 C 0.83482 0.62271 0.67267 0.0
C102 C 0.83166 0.62353 0.59601 0.0
N103 N 0.8584 0.61748 0.68894 0.0
N104 N 0.85341 0.61926 0.56368 0.0
H105 H 0.88878 0.61442 0.61289 0.0
H106 H 0.82106 0.62708 0.71379 0.0
C107 C 0.82997 0.58795 0.81297 0.0
O108 O 0.83683 0.57486 0.75535 0.0
N109 N 0.887 0.6251 0.8878 0.0
C110 C 0.91088 0.62767 0.90485 0.0
C111 C 0.91338 0.62909 0.9818 0.0
C112 C 0.8753 0.6249 0.95435 0.0
N113 N 0.891 0.62722 0.01275 0.0
C114 C 0.9097 0.58836 0.73431 0.0
C115 C 0.90296 0.55263 0.84173 0.0
C116 C 0.92249 0.55054 0.79173 0.0
C117 C 0.92551 0.56847 0.73669 0.0
C118 C 0.88712 0.57255 0.8361 0.0
N119 N 0.89041 0.59009 0.78232 0.0
H120 H 0.91428 0.60319 0.69753 0.0
H121 H 0.87326 0.57459 0.87844 0.0
H122 H 0.92551 0.62799 0.86427 0.0
H123 H 0.85573 0.62308 0.9602 0.0
O124 O 0.89747 0.64227 0.74641 0.0
O125 O 0.86145 0.65393 0.78999 0.0
O126 O 0.84315 0.60566 0.835 0.0
C127 C 0.88204 0.65979 0.75867 0.0
H128 H 0.81484 0.62779 0.56638 0.0
H129 H 0.93041 0.63062 0.01271 0.0
H130 H 0.90046 0.53942 0.88634 0.0
H131 H 0.94099 0.56797 0.69907 0.0
Co132 Co 0.36241 0.1082 0.24706 0.0
C133 C 0.35907 0.11222 0.41354 0.0
C134 C 0.38095 0.14062 0.36616 0.0
C135 C 0.3803 0.14357 0.44266 0.0
N136 N 0.36748 0.12106 0.34748 0.0
N137 N 0.36649 0.12577 0.47257 0.0
H138 H 0.3477 0.09627 0.41851 0.0
H139 H 0.3911 0.1519 0.32772 0.0
C140 C 0.39455 0.14057 0.14763 0.0
O141 O 0.40183 0.12236 0.10608 0.0
N142 N 0.35717 0.09531 0.14684 0.0
C143 C 0.35811 0.07184 0.12584 0.0
C144 C 0.35479 0.07053 0.04938 0.0
C145 C 0.35208 0.10783 0.08301 0.0
N146 N 0.35096 0.09311 0.02288 0.0
C147 C 0.38852 0.06426 0.28108 0.0
C148 C 0.43523 0.08154 0.25843 0.0
C149 C 0.43207 0.05657 0.27154 0.0
C150 C 0.4083 0.04827 0.28575 0.0
C151 C 0.41487 0.09701 0.25536 0.0
N152 N 0.39167 0.08802 0.26117 0.0
H153 H 0.37048 0.0572 0.29163 0.0
H154 H 0.41809 0.11613 0.24858 0.0
H155 H 0.36132 0.05655 0.16257 0.0
H156 H 0.35049 0.12738 0.07986 0.0
O157 O 0.33745 0.08615 0.2846 0.0
O158 O 0.33062 0.12333 0.24214 0.0
O159 O 0.3808 0.1369 0.20436 0.0
C160 C 0.32179 0.1034 0.27021 0.0
H161 H 0.38987 0.15743 0.47394 0.0
H162 H 0.35597 0.05438 0.01533 0.0
H163 H 0.4532 0.08915 0.24911 0.0
H164 H 0.40487 0.02946 0.30009 0.0
Co165 Co 0.89067 0.87231 0.55213 0.0
C166 C 0.88821 0.8764 0.71799 0.0
C167 C 0.85269 0.8748 0.66611 0.0
C168 C 0.8498 0.87421 0.74273 0.0
N169 N 0.87671 0.87618 0.65063 0.0
N170 N 0.8721 0.87513 0.77525 0.0
H171 H 0.90788 0.87602 0.72485 0.0
H172 H 0.83832 0.873 0.62457 0.0
C173 C 0.8602 0.90804 0.45808 0.0
O174 O 0.87932 0.9163 0.42167 0.0
N175 N 0.90428 0.86772 0.45224 0.0
C176 C 0.92768 0.86267 0.43433 0.0
C177 C 0.9294 0.85988 0.35782 0.0
C178 C 0.89196 0.86676 0.3862 0.0
N179 N 0.90695 0.86271 0.32761 0.0
C180 C 0.936 0.89647 0.57943 0.0
C181 C 0.91852 0.94346 0.57986 0.0
C182 C 0.94391 0.93958 0.58184 0.0
C183 C 0.95246 0.91566 0.58436 0.0
C184 C 0.90261 0.92356 0.57485 0.0
N185 N 0.91157 0.90048 0.56931 0.0
H186 H 0.94313 0.8783 0.58338 0.0
H187 H 0.88319 0.92688 0.5751 0.0
H188 H 0.94261 0.86048 0.47353 0.0
H189 H 0.87234 0.86859 0.38084 0.0
O190 O 0.91192 0.84714 0.59183 0.0
O191 O 0.87492 0.84113 0.54419 0.0
O192 O 0.86268 0.89211 0.50998 0.0
C193 C 0.89442 0.83205 0.57577 0.0
H194 H 0.83265 0.87254 0.77231 0.0
H195 H 0.94596 0.85639 0.3267 0.0
H196 H 0.91104 0.96165 0.58026 0.0
H197 H 0.9718 0.91175 0.58988 0.0
Co198 Co 0.14159 0.39283 0.78977 0.0
C199 C 0.14003 0.39006 0.95583 0.0
C200 C 0.13692 0.35483 0.90602 0.0
C201 C 0.13647 0.35215 0.98296 0.0
N202 N 0.1389 0.3786 0.88906 0.0
N203 N 0.13854 0.37428 0.01412 0.0
H204 H 0.14202 0.40949 0.96162 0.0
H205 H 0.13651 0.34033 0.8656 0.0
C206 C 0.10875 0.36145 0.69193 0.0
O207 O 0.09999 0.38048 0.65592 0.0
N208 N 0.14477 0.40717 0.68985 0.0
C209 C 0.14315 0.43089 0.67125 0.0
C210 C 0.14461 0.43332 0.59457 0.0
C211 C 0.1486 0.39566 0.62396 0.0
N212 N 0.14776 0.41116 0.56477 0.0
C213 C 0.11327 0.43515 0.82592 0.0
C214 C 0.06771 0.41393 0.81547 0.0
C215 C 0.06906 0.43917 0.82528 0.0
C216 C 0.09237 0.4495 0.83379 0.0
C217 C 0.08915 0.40021 0.80972 0.0
N218 N 0.11156 0.41114 0.80848 0.0
H219 H 0.13092 0.44357 0.83289 0.0
H220 H 0.08743 0.3808 0.80624 0.0
H221 H 0.141 0.44566 0.70989 0.0
H222 H 0.15069 0.37621 0.61897 0.0
O223 O 0.16585 0.41553 0.82756 0.0
O224 O 0.1738 0.37917 0.78122 0.0
O225 O 0.12367 0.36401 0.74685 0.0
C226 C 0.18195 0.39894 0.81166 0.0
H227 H 0.13552 0.33517 0.01369 0.0
H228 H 0.14318 0.45012 0.56297 0.0
H229 H 0.05032 0.40473 0.81063 0.0
H230 H 0.09459 0.46857 0.84614 0.0
Co231 Co 0.61642 0.63834 0.01401 0.0
C232 C 0.62015 0.6341 0.1819 0.0
C233 C 0.65442 0.64192 0.12951 0.0
C234 C 0.6577 0.64267 0.20609 0.0
N235 N 0.63095 0.63621 0.11397 0.0
N236 N 0.63613 0.63777 0.23891 0.0
H237 H 0.60085 0.63167 0.19038 0.0
H238 H 0.66804 0.64628 0.08779 0.0
C239 C 0.65785 0.60319 0.99922 0.0
O240 O 0.64997 0.59214 0.06005 0.0
N241 N 0.60245 0.64119 0.91446 0.0
C242 C 0.57858 0.64369 0.89706 0.0
C243 C 0.57616 0.64476 0.82002 0.0
C244 C 0.61424 0.64068 0.84814 0.0
N245 N 0.59858 0.64278 0.78945 0.0
C246 C 0.57845 0.60775 0.07393 0.0
C247 C 0.58693 0.56853 0.98187 0.0
C248 C 0.56734 0.56743 0.03216 0.0
C249 C 0.56322 0.58744 0.07862 0.0
C250 C 0.60175 0.58917 0.97919 0.0
N251 N 0.59808 0.60817 0.02688 0.0
H252 H 0.57356 0.62363 0.10543 0.0
H253 H 0.61552 0.59014 0.93619 0.0
H254 H 0.56395 0.6444 0.93755 0.0
H255 H 0.63386 0.639 0.84281 0.0
O256 O 0.59265 0.6613 0.05205 0.0
O257 O 0.62886 0.67102 1.00533 0.0
O258 O 0.64585 0.62109 0.97153 0.0
C259 C 0.60851 0.67807 0.03562 0.0
H260 H 0.6745 0.64708 0.23533 0.0
H261 H 0.55917 0.64631 0.78886 0.0
H262 H 0.59059 0.55374 0.9438 0.0
H263 H 0.54767 0.58789 0.11592 0.0
C264 C 0.54265 0.53559 0.96565 0.0
C265 C 0.55045 0.5462 0.03312 0.0
C266 C 0.52632 0.51593 0.96549 0.0
C267 C 0.51751 0.50658 0.03447 0.0
C268 C 0.52539 0.51711 0.1028 0.0
C269 C 0.54171 0.5368 0.10131 0.0
C270 C 0.51827 0.50534 0.89135 0.0
C271 C 0.51654 0.50759 0.17752 0.0
C272 C 0.45807 0.47069 0.0301 0.0
C273 C 0.46654 0.44662 0.03095 0.0
C274 C 0.47442 0.49033 0.03189 0.0
C275 C 0.49992 0.48589 0.03492 0.0
C276 C 0.50859 0.46167 0.03683 0.0
C277 C 0.49184 0.44237 0.03465 0.0
C278 C 0.46441 0.51587 0.02975 0.0
C279 C 0.53562 0.45615 0.03996 0.0
H280 H 0.54896 0.54297 0.91264 0.0
H281 H 0.54781 0.54473 0.1537 0.0
H282 H 0.52278 0.48572 0.88972 0.0
H283 H 0.49815 0.507 0.8851 0.0
H284 H 0.52705 0.51447 0.8427 0.0
H285 H 0.52452 0.51765 0.22562 0.0
H286 H 0.49633 0.50897 0.18024 0.0
H287 H 0.52134 0.48811 0.18368 0.0
H288 H 0.43858 0.47419 0.02822 0.0
H289 H 0.49864 0.4239 0.03407 0.0
H290 H 0.47132 0.52558 0.9794 0.0
H291 H 0.47083 0.52602 0.07969 0.0
H292 H 0.4441 0.51627 0.02836 0.0
H293 H 0.54465 0.46348 0.98901 0.0
H294 H 0.5394 0.43637 0.04379 0.0
H295 H 0.54411 0.46517 0.08915 0.0
C296 C 0.44999 0.01566 0.24141 0.0
C297 C 0.45316 0.03922 0.2697 0.0
C298 C 0.46944 0.99901 0.23931 0.0
C299 C 0.49292 0.0061 0.2647 0.0
C300 C 0.49641 0.02988 0.29247 0.0
C301 C 0.47651 0.04605 0.29521 0.0
C302 C 0.46483 0.97377 0.20993 0.0
C303 C 0.52122 0.03825 0.31936 0.0
C304 C 0.53886 0.95738 0.32316 0.0
C305 C 0.55332 0.95541 0.2587 0.0
C306 C 0.51904 0.97361 0.32562 0.0
C307 C 0.51376 0.98856 0.26252 0.0
C308 C 0.52832 0.98665 0.19727 0.0
C309 C 0.54779 0.96996 0.19593 0.0
C310 C 0.50371 0.97472 0.39574 0.0
C311 C 0.52356 1.00249 0.12922 0.0
H312 H 0.43227 0.01022 0.2199 0.0
H313 H 0.47925 0.06399 0.31819 0.0
H314 H 0.47635 0.97043 0.16 0.0
H315 H 0.47004 0.96009 0.25318 0.0
H316 H 0.44539 0.97088 0.19403 0.0
H317 H 0.52112 0.05753 0.33711 0.0
H318 H 0.52738 0.02686 0.36749 0.0
H319 H 0.53485 0.03605 0.27401 0.0
H320 H 0.54297 0.94604 0.37161 0.0
H321 H 0.55911 0.96873 0.14634 0.0
H322 H 0.48432 0.97087 0.38172 0.0
H323 H 0.50442 0.99324 0.41965 0.0
H324 H 0.50993 0.96157 0.43941 0.0
H325 H 0.50474 0.99944 0.10779 0.0
H326 H 0.53665 0.99891 0.08314 0.0
H327 H 0.5249 0.02188 0.14498 0.0
C328 C 0.9582 0.98079 0.62379 0.0
C329 C 0.96162 0.96007 0.57979 0.0
C330 C 0.97518 0.99994 0.62234 0.0
C331 C 0.99593 0.99842 0.57526 0.0
C332 C 0.9994 0.97758 0.53059 0.0
C333 C 0.98225 0.95869 0.53348 0.0
C334 C 0.9709 0.02185 0.67096 0.0
C335 C 0.02106 0.97535 0.47889 0.0
C336 C 0.02631 0.057 0.51222 0.0
C337 C 0.047 0.05794 0.55912 0.0
C338 C 0.00959 0.03778 0.51702 0.0
C339 C 0.01355 0.019 0.57031 0.0
C340 C 0.0345 0.0197 0.61753 0.0
C341 C 0.05106 0.03912 0.61112 0.0
C342 C 0.98771 0.03758 0.46485 0.0
C343 C 0.0393 1.00004 0.67515 0.0
H344 H 0.94243 0.98187 0.66016 0.0
H345 H 0.98482 0.9429 0.49842 0.0
H346 H 0.9869 0.02479 0.70838 0.0
H347 H 0.96889 0.03829 0.63519 0.0
H348 H 0.95429 0.01994 0.70607 0.0
H349 H 0.02139 0.95771 0.44911 0.0
H350 H 0.02061 0.99018 0.43646 0.0
H351 H 0.03833 0.97726 0.5113 0.0
H352 H 0.02327 0.07131 0.47113 0.0
H353 H 0.06691 0.03985 0.64787 0.0
H354 H 0.9706 0.03734 0.49795 0.0
H355 H 0.9879 0.02088 0.43039 0.0
H356 H 0.98729 0.05357 0.42657 0.0
H357 H 0.0237 0.99881 0.71455 0.0
H358 H 0.05629 0.00333 0.708 0.0
H359 H 0.04087 0.98221 0.64704 0.0
C360 C 0.04721 0.4784 0.79588 0.0
C361 C 0.04652 0.45466 0.82522 0.0
C362 C 0.02624 0.49311 0.79373 0.0
C363 C 0.00369 0.48374 0.81941 0.0
C364 C 1.00269 0.45981 0.84858 0.0
C365 C 0.02413 0.44571 0.85212 0.0
C366 C 0.02822 0.51869 0.76338 0.0
C367 C 0.9789 0.44901 0.87528 0.0
C368 C 0.95451 0.5297 0.86909 0.0
C369 C 0.94133 0.53143 0.80154 0.0
C370 C 0.97456 0.51387 0.87632 0.0
C371 C 0.9812 0.49904 0.81501 0.0
C372 C 0.96721 0.49999 0.74778 0.0
C373 C 0.94766 0.51645 0.74147 0.0
C374 C 0.98933 0.5139 0.94823 0.0
C375 C 0.9733 0.48408 0.68177 0.0
H376 H 0.06409 0.48549 0.7732 0.0
H377 H 0.02325 0.42765 0.87626 0.0
H378 H 0.01686 0.52066 0.7119 0.0
H379 H 0.02115 0.53176 0.80512 0.0
H380 H 0.04734 0.5237 0.74952 0.0
H381 H 0.98105 0.42993 0.89478 0.0
H382 H 0.97147 0.4599 0.92205 0.0
H383 H 0.96518 0.44953 0.82912 0.0
H384 H 0.94981 0.54156 0.91515 0.0
H385 H 0.93743 0.51784 0.68924 0.0
H386 H 0.00807 0.52057 0.93659 0.0
H387 H 0.9911 0.4952 0.97099 0.0
H388 H 0.98105 0.52558 0.99187 0.0
H389 H 0.9912 0.48953 0.65814 0.0
H390 H 0.95928 0.48532 0.63649 0.0
H391 H 0.97495 0.46487 0.70018 0.0
C392 C 0.37016 0.34071 0.34435 0.0
C393 C 0.38179 0.35726 0.29628 0.0
C394 C 0.37498 0.34055 0.42189 0.0
C395 C 0.39162 0.35756 0.45232 0.0
C396 C 0.40321 0.37452 0.40419 0.0
C397 C 0.39828 0.37404 0.32666 0.0
C398 C 0.36253 0.32193 0.47107 0.0
C399 C 0.42084 0.39313 0.4346 0.0
C400 C 0.38862 0.36989 0.66219 0.0
C401 C 0.40841 0.35618 0.6895 0.0
C402 C 0.38302 0.37067 0.58507 0.0
C403 C 0.39738 0.35716 0.53422 0.0
C404 C 0.41721 0.34307 0.56167 0.0
C405 C 0.42256 0.34288 0.63886 0.0
C406 C 0.3619 0.38612 0.55794 0.0
C407 C 0.4327 0.32808 0.50954 0.0
H408 H 0.35767 0.32748 0.32101 0.0
H409 H 0.40708 0.38702 0.28976 0.0
H410 H 0.37646 0.31033 0.49931 0.0
H411 H 0.35199 0.33109 0.51573 0.0
H412 H 0.34992 0.3101 0.43874 0.0
H413 H 0.42775 0.40551 0.39007 0.0
H414 H 0.41178 0.40414 0.47837 0.0
H415 H 0.43666 0.3839 0.46163 0.0
H416 H 0.37782 0.3804 0.70105 0.0
H417 H 0.43765 0.332 0.65988 0.0
H418 H 0.34832 0.37473 0.52801 0.0
H419 H 0.36852 0.39993 0.51729 0.0
H420 H 0.35255 0.39555 0.60469 0.0
H421 H 0.42103 0.31496 0.47884 0.0
H422 H 0.44726 0.31787 0.53997 0.0
H423 H 0.4414 0.33998 0.46698 0.0
C424 C 0.66572 0.88342 0.91909 0.0
C425 C 0.65337 0.90373 0.94698 0.0
C426 C 0.6652 0.87798 0.842 0.0
C427 C 0.65162 0.89295 0.79187 0.0
C428 C 0.63894 0.91334 0.81997 0.0
C429 C 0.64013 0.91857 0.89697 0.0
C430 C 0.67924 0.85627 0.81415 0.0
C431 C 0.62382 0.92947 0.76885 0.0
C432 C 0.66452 0.89288 0.58175 0.0
C433 C 0.64632 0.87723 0.5549 0.0
C434 C 0.66683 0.89773 0.65893 0.0
C435 C 0.65021 0.88708 0.71023 0.0
C436 C 0.63174 0.87135 0.68321 0.0
C437 C 0.63019 0.86645 0.60603 0.0
C438 C 0.68705 0.91425 0.68557 0.0
C439 C 0.61334 0.86002 0.73565 0.0
H440 H 0.67611 0.87204 0.95752 0.0
H441 H 0.63023 0.93405 0.91845 0.0
H442 H 0.66651 0.84312 0.78794 0.0
H443 H 0.69237 0.86202 0.77024 0.0
H444 H 0.68949 0.84689 0.85995 0.0
H445 H 0.61495 0.94454 0.79961 0.0
H446 H 0.63549 0.93733 0.72418 0.0
H447 H 0.60941 0.91861 0.74071 0.0
H448 H 0.67719 0.90099 0.54241 0.0
H449 H 0.61596 0.85456 0.58522 0.0
H450 H 0.69835 0.90483 0.72877 0.0
H451 H 0.67911 0.93056 0.71228 0.0
H452 H 0.69911 0.9202 0.639 0.0
H453 H 0.62286 0.84908 0.77942 0.0
H454 H 0.60014 0.84816 0.70571 0.0
H455 H 0.60299 0.87444 0.76487 0.0
C456 C 0.10941 0.13397 0.84301 0.0
C457 C 0.12767 0.14853 0.81141 0.0
C458 C 0.10473 0.13451 0.92054 0.0
C459 C 0.11835 0.15035 0.96715 0.0
C460 C 0.13659 0.16532 0.93523 0.0
C461 C 0.14113 0.1641 0.8579 0.0
C462 C 0.08534 0.11805 0.95266 0.0
C463 C 0.15118 0.1828 0.98264 0.0
C464 C 0.09019 0.16861 0.15297 0.0
C465 C 0.10316 0.15402 0.20425 0.0
C466 C 0.09514 0.16778 0.07579 0.0
C467 C 0.11323 0.15165 0.04909 0.0
C468 C 0.1265 0.13695 0.10072 0.0
C469 C 0.12143 0.13847 0.1778 0.0
C470 C 0.08097 0.18414 0.02283 0.0
C471 C 0.14575 0.11933 0.07447 0.0
H472 H 0.09915 0.12179 0.8072 0.0
H473 H 0.15501 0.17565 0.83342 0.0
H474 H 0.09345 0.10622 0.99694 0.0
H475 H 0.07084 0.12902 0.97947 0.0
H476 H 0.07678 0.10641 0.90916 0.0
H477 H 0.1646 0.19329 0.94903 0.0
H478 H 0.13868 0.19572 1.01062 0.0
H479 H 0.16117 0.17277 0.02751 0.0
H480 H 0.07625 0.18082 0.17348 0.0
H481 H 0.13126 0.12696 0.2173 0.0
H482 H 0.07057 0.17306 0.98184 0.0
H483 H 0.09376 0.1957 0.99034 0.0
H484 H 0.06794 0.19606 0.05283 0.0
H485 H 0.13741 0.10604 0.03544 0.0
H486 H 0.15448 0.10928 0.12185 0.0
H487 H 0.16016 0.12914 0.04298 0.0
C488 C 0.89904 0.64015 0.14315 0.0
C489 C 0.88532 0.6265 0.09178 0.0
C490 C 0.89397 0.63934 0.22043 0.0
C491 C 0.87498 0.62421 0.24727 0.0
C492 C 0.86112 0.61032 0.19564 0.0
C493 C 0.86633 0.61179 0.11853 0.0
C494 C 0.90888 0.65479 0.27333 0.0
C495 C 0.84094 0.59371 0.22194 0.0
C496 C 0.87669 0.60532 0.45361 0.0
C497 C 0.85895 0.62058 0.4846 0.0
C498 C 0.88198 0.60617 0.37643 0.0
C499 C 0.86953 0.62299 0.32929 0.0
C500 C 0.85183 0.63868 0.36056 0.0
C501 C 0.84663 0.63715 0.43763 0.0
C502 C 0.90072 0.5889 0.34518 0.0
C503 C 0.83847 0.65719 0.31268 0.0
H504 H 0.91355 0.65173 0.12261 0.0
H505 H 0.8559 0.60097 0.0792 0.0
H506 H 0.89666 0.6671 0.30487 0.0
H507 H 0.91842 0.6431 0.31516 0.0
H508 H 0.92271 0.66591 0.24339 0.0
H509 H 0.83202 0.58396 0.17475 0.0
H510 H 0.84841 0.58014 0.26231 0.0
H511 H 0.82682 0.60429 0.25192 0.0
H512 H 0.88609 0.59239 0.48967 0.0
H513 H 0.83319 0.64925 0.46152 0.0
H514 H 0.91581 0.59924 0.31872 0.0
H515 H 0.89225 0.57759 0.30078 0.0
H516 H 0.90859 0.57674 0.3891 0.0
H517 H 0.8518 0.66943 0.28502 0.0
H518 H 0.82557 0.66835 0.34584 0.0
H519 H 0.82806 0.64794 0.26755 0.0
C520 C 0.37431 0.09968 0.90804 0.0
C521 C 0.35193 0.10015 0.94542 0.0
C522 C 0.37563 0.10461 0.83081 0.0
C523 C 0.35391 0.10987 0.79001 0.0
C524 C 0.33123 0.11069 0.82812 0.0
C525 C 0.33054 0.10586 0.90578 0.0
C526 C 0.4002 0.10382 0.79272 0.0
C527 C 0.30771 0.11614 0.7866 0.0
C528 C 0.36225 0.14146 0.6016 0.0
C529 C 0.36157 0.12191 0.55143 0.0
C530 C 0.35913 0.1379 0.6791 0.0
C531 C 0.35509 0.11421 0.70739 0.0
C532 C 0.35361 0.09448 0.65698 0.0
C533 C 0.35689 0.09856 0.57966 0.0
C534 C 0.36082 0.15943 0.7309 0.0
C535 C 0.34932 0.06893 0.68497 0.0
H536 H 0.39073 0.09515 0.93957 0.0
H537 H 0.31329 0.10596 0.93539 0.0
H538 H 0.40019 0.0895 0.74923 0.0
H539 H 0.40381 0.12134 0.76388 0.0
H540 H 0.41537 0.1001 0.83295 0.0
H541 H 0.29173 0.11675 0.82476 0.0
H542 H 0.30912 0.13381 0.75674 0.0
H543 H 0.30438 0.10206 0.74349 0.0
H544 H 0.36534 0.15963 0.58032 0.0
H545 H 0.35652 0.08331 0.54165 0.0
H546 H 0.37676 0.15722 0.76919 0.0
H547 H 0.34427 0.1605 0.76644 0.0
H548 H 0.36281 0.17683 0.69972 0.0
H549 H 0.36501 0.06299 0.72037 0.0
H550 H 0.34703 0.05585 0.63828 0.0
H551 H 0.33277 0.06829 0.72064 0.0
C552 C 0.88319 0.87959 0.22118 0.0
C553 C 0.90083 0.86328 0.24875 0.0
C554 C 0.87841 0.8817 0.14377 0.0
C555 C 0.89131 0.86684 0.09278 0.0
C556 C 0.9087 0.84991 0.12057 0.0
C557 C 0.9134 0.8485 0.19812 0.0
C558 C 0.85992 0.90016 0.1165 0.0
C559 C 0.9224 0.83333 0.06835 0.0
C560 C 0.86325 0.8573 0.89937 0.0
C561 C 0.87738 0.87277 0.85434 0.0
C562 C 0.86773 0.85503 0.9768 0.0
C563 C 0.88655 0.8689 1.01041 0.0
C564 C 0.9009 0.88458 0.96518 0.0
C565 C 0.8963 0.88612 0.88746 0.0
C566 C 0.85238 0.8377 0.02255 0.0
C567 C 0.9209 0.89993 0.99906 0.0
H568 H 0.87369 0.89126 0.26008 0.0
H569 H 0.92686 0.83572 0.21939 0.0
H570 H 0.86881 0.91326 0.07778 0.0
H571 H 0.84515 0.89105 0.08444 0.0
H572 H 0.85155 0.91038 0.16341 0.0
H573 H 0.93477 0.82066 0.09911 0.0
H574 H 0.90929 0.82255 0.03449 0.0
H575 H 0.93346 0.84423 0.02854 0.0
H576 H 0.84885 0.84667 0.87365 0.0
H577 H 0.9071 0.89819 0.85272 0.0
H578 H 0.84248 0.84774 0.06677 0.0
H579 H 0.86432 0.82421 0.0513 0.0
H580 H 0.8388 0.82785 0.98756 0.0
H581 H 0.91317 0.91182 0.04302 0.0
H582 H 0.93014 0.91147 0.95646 0.0
H583 H 0.93479 0.88815 0.02665 0.0
C584 C 0.16143 0.38665 0.45685 0.0
C585 C 0.14692 0.40528 0.48597 0.0
C586 C 0.16084 0.38119 0.37969 0.0
C587 C 0.14494 0.39431 0.33098 0.0
C588 C 0.12993 0.41282 0.36058 0.0
C589 C 0.13126 0.41819 0.43741 0.0
C590 C 0.17738 0.36156 0.35014 0.0
C591 C 0.11228 0.42685 0.31121 0.0
C592 C 0.15606 0.39732 0.12003 0.0
C593 C 0.14003 0.37951 0.09327 0.0
C594 C 0.15831 0.4019 0.19738 0.0
C595 C 0.14377 0.38871 0.24909 0.0
C596 C 0.12739 0.37083 0.22217 0.0
C597 C 0.12592 0.36629 0.14471 0.0
C598 C 0.17629 0.42081 0.22381 0.0
C599 C 0.11114 0.35677 0.27508 0.0
H600 H 0.17357 0.37671 0.49426 0.0
H601 H 0.11966 0.43227 0.45997 0.0
H602 H 0.16631 0.34701 0.32397 0.0
H603 H 0.18939 0.36914 0.30583 0.0
H604 H 0.18901 0.35337 0.39499 0.0
H605 H 0.1015 0.44032 0.3433 0.0
H606 H 0.12239 0.43656 0.26637 0.0
H607 H 0.09944 0.41418 0.28322 0.0
H608 H 0.16723 0.4073 0.08044 0.0
H609 H 0.11338 0.35264 0.12401 0.0
H610 H 0.18911 0.41271 0.26557 0.0
H611 H 0.16643 0.43573 0.2522 0.0
H612 H 0.18706 0.42865 0.17686 0.0
H613 H 0.1224 0.34694 0.31748 0.0
H614 H 0.09947 0.34342 0.24521 0.0
H615 H 0.09914 0.36946 0.30599 0.0
C616 C 0.59053 0.65592 0.65882 0.0
C617 C 0.60437 0.64228 0.71055 0.0
C618 C 0.59569 0.65538 0.58167 0.0
C619 C 0.61495 0.64056 0.55536 0.0
C620 C 0.62896 0.6267 0.60734 0.0
C621 C 0.62361 0.62787 0.68434 0.0
C622 C 0.5806 0.67077 0.52833 0.0
C623 C 0.64945 0.61044 0.58152 0.0
C624 C 0.6135 0.62262 0.34917 0.0
C625 C 0.63081 0.63842 0.3181 0.0
C626 C 0.60834 0.62291 0.42641 0.0
C627 C 0.62051 0.6397 0.47351 0.0
C628 C 0.63786 0.65586 0.44224 0.0
C629 C 0.64291 0.6549 0.36508 0.0
C630 C 0.58996 0.60517 0.4577 0.0
C631 C 0.65093 0.67431 0.49018 0.0
H632 H 0.57584 0.66729 0.67896 0.0
H633 H 0.63416 0.61708 0.724 0.0
H634 H 0.59265 0.68335 0.49681 0.0
H635 H 0.57133 0.65906 0.48651 0.0
H636 H 0.56652 0.68158 0.55789 0.0
H637 H 0.65848 0.6007 0.62897 0.0
H638 H 0.64226 0.59687 0.54132 0.0
H639 H 0.66341 0.62131 0.55147 0.0
H640 H 0.60429 0.60973 0.3131 0.0
H641 H 0.65603 0.6674 0.34113 0.0
H642 H 0.57462 0.61514 0.48387 0.0
H643 H 0.59864 0.59389 0.50233 0.0
H644 H 0.58241 0.593 0.41386 0.0
H645 H 0.63741 0.68635 0.51748 0.0
H646 H 0.66376 0.6857 0.45713 0.0
H647 H 0.66137 0.66501 0.53558 0.0
C648 C 0.2193 0.42406 0.83688 0.0
C649 C 0.20801 0.40131 0.83232 0.0
C650 C 0.24412 0.42605 0.85736 0.0
C651 C 0.25757 0.40484 0.8762 0.0
C652 C 0.24607 0.38187 0.87227 0.0
C653 C 0.22158 0.38039 0.84924 0.0
C654 C 0.25596 0.45075 0.85872 0.0
C655 C 0.25947 0.35885 0.89393 0.0
C656 C 0.32674 0.39922 0.87851 0.0
C657 C 0.33189 0.40085 0.95551 0.0
C658 C 0.30279 0.40233 0.85106 0.0
C659 C 0.28347 0.40635 0.90218 0.0
C660 C 0.28879 0.40897 0.97968 0.0
C661 C 0.313 0.40654 1.00524 0.0
C662 C 0.29802 0.40014 0.76779 0.0
C663 C 0.26871 0.41257 0.03639 0.0
H664 H 0.20882 0.44024 0.82342 0.0
H665 H 0.2128 0.36278 0.84654 0.0
H666 H 0.26192 0.45513 0.91669 0.0
H667 H 0.27253 0.45076 0.8231 0.0
H668 H 0.2434 0.46527 0.83847 0.0
H669 H 0.24766 0.34253 0.88966 0.0
H670 H 0.27553 0.3563 0.85713 0.0
H671 H 0.26638 0.36019 0.9525 0.0
H672 H 0.34136 0.39496 0.83989 0.0
H673 H 0.31689 0.40757 0.06492 0.0
H674 H 0.28584 0.415 0.74791 0.0
H675 H 0.2886 0.38275 0.7562 0.0
H676 H 0.3152 0.40064 0.73484 0.0
H677 H 0.25664 0.42782 0.01921 0.0
H678 H 0.27602 0.41625 0.09353 0.0
H679 H 0.25722 0.39601 0.03908 0.0
C680 C 0.58624 0.81815 0.15031 0.0
C681 C 0.60858 0.82636 0.17933 0.0
C682 C 0.58388 0.79436 0.1226 0.0
C683 C 0.60405 0.77821 0.12719 0.0
C684 C 0.62649 0.7864 0.15793 0.0
C685 C 0.62861 0.81047 0.18204 0.0
C686 C 0.55997 0.78661 0.08761 0.0
C687 C 0.64822 0.76963 0.16644 0.0
C688 C 0.59483 0.70977 0.12522 0.0
C689 C 0.60454 0.70373 0.05522 0.0
C690 C 0.59391 0.73405 0.14879 0.0
C691 C 0.60204 0.75274 0.09988 0.0
C692 C 0.61051 0.74671 0.02727 0.0
C693 C 0.61218 0.72221 1.00648 0.0
C694 C 0.58566 0.73952 0.22764 0.0
C695 C 0.61857 0.76607 0.97243 0.0
H696 H 0.57079 0.83047 0.14792 0.0
H697 H 0.64586 0.81668 0.20522 0.0
H698 H 0.56312 0.78025 0.02945 0.0
H699 H 0.55216 0.77117 0.1196 0.0
H700 H 0.54634 0.80156 0.08591 0.0
H701 H 0.66383 0.77842 0.19569 0.0
H702 H 0.64294 0.75315 0.19859 0.0
H703 H 0.65445 0.76361 0.11042 0.0
H704 H 0.58922 0.69538 0.16321 0.0
H705 H 0.61959 0.71748 0.95215 0.0
H706 H 0.57114 0.75356 0.22684 0.0
H707 H 0.60126 0.7469 0.26047 0.0
H708 H 0.57865 0.72315 0.25712 0.0
H709 H 0.60479 0.78084 0.96916 0.0
H710 H 0.6214 0.75872 0.91519 0.0
H711 H 0.63598 0.77421 0.99201 0.0
C712 C 0.27929 0.11999 0.26817 0.0
C713 C 0.29538 0.10105 0.2871 0.0
C714 C 0.25448 0.11896 0.28752 0.0
C715 C 0.24543 0.09848 0.32688 0.0
C716 C 0.26141 0.07893 0.34411 0.0
C717 C 0.28622 0.08046 0.32406 0.0
C718 C 0.23813 0.14024 0.26813 0.0
C719 C 0.25246 0.05677 0.38581 0.0
C720 C 0.1905 0.11224 0.44838 0.0
C721 C 0.17091 0.10521 0.40213 0.0
C722 C 0.21481 0.10914 0.42586 0.0
C723 C 0.21981 0.09867 0.35523 0.0
C724 C 0.20018 0.09042 0.30976 0.0
C725 C 0.17593 0.09378 0.33377 0.0
C726 C 0.23512 0.11822 0.47623 0.0
C727 C 0.20475 0.07907 0.23424 0.0
H728 H 0.28616 0.13592 0.23925 0.0
H729 H 0.29854 0.06573 0.33874 0.0
H730 H 0.22167 0.13398 0.23721 0.0
H731 H 0.23178 0.14898 0.32049 0.0
H732 H 0.2476 0.1541 0.23335 0.0
H733 H 0.26655 0.04226 0.38897 0.0
H734 H 0.24732 0.06182 0.44382 0.0
H735 H 0.23586 0.04941 0.35811 0.0
H736 H 0.18685 0.12084 0.50169 0.0
H737 H 0.16093 0.08836 0.29756 0.0
H738 H 0.24452 0.13369 0.44863 0.0
H739 H 0.24895 0.10377 0.48569 0.0
H740 H 0.22828 0.12432 0.53161 0.0
H741 H 0.21183 0.09303 0.19484 0.0
H742 H 0.18786 0.07116 0.2096 0.0
H743 H 0.21884 0.06465 0.23917 0.0
C744 C 0.90416 0.6898 0.67833 0.0
C745 C 0.88692 0.68496 0.73435 0.0
C746 C 0.90739 0.71346 0.65027 0.0
C747 C 0.89333 0.73269 0.68001 0.0
C748 C 0.87651 0.72796 0.73842 0.0
C749 C 0.87334 0.7041 0.76436 0.0
C750 C 0.92521 0.71774 0.58719 0.0
C751 C 0.86148 0.74804 0.7725 0.0
C752 C 0.91252 0.79834 0.65224 0.0
C753 C 0.8958 0.80617 0.59719 0.0
C754 C 0.91235 0.77427 0.6786 0.0
C755 C 0.89533 0.75762 0.64821 0.0
C756 C 0.87911 0.76522 0.59034 0.0
C757 C 0.8794 0.78948 0.56601 0.0
C758 C 0.92968 0.76694 0.74108 0.0
C759 C 0.86097 0.7479 0.55563 0.0
H760 H 0.91455 0.67498 0.65462 0.0
H761 H 0.86009 0.70041 0.80798 0.0
H762 H 0.91521 0.72422 0.53648 0.0
H763 H 0.93845 0.7321 0.60283 0.0
H764 H 0.93551 0.70106 0.57256 0.0
H765 H 0.85036 0.74157 0.82064 0.0
H766 H 0.87358 0.76287 0.79209 0.0
H767 H 0.84898 0.75586 0.72938 0.0
H768 H 0.92514 0.81124 0.67679 0.0
H769 H 0.86655 0.79545 0.52311 0.0
H770 H 0.94017 0.75056 0.72507 0.0
H771 H 0.9191 0.76222 0.79209 0.0
H772 H 0.94277 0.78162 0.75544 0.0
H773 H 0.87043 0.73127 0.53638 0.0
H774 H 0.85103 0.75614 0.50717 0.0
H775 H 0.84739 0.74225 0.59831 0.0
C776 C 0.81523 0.90863 0.47972 0.0
C777 C 0.83501 0.91402 0.43268 0.0
C778 C 0.79108 0.90969 0.45315 0.0
C779 C 0.78647 0.9165 0.3776 0.0
C780 C 0.80622 0.92362 0.33121 0.0
C781 C 0.83031 0.92226 0.35929 0.0
C782 C 0.77065 0.90192 0.50471 0.0
C783 C 0.8021 0.93121 0.25054 0.0
C784 C 0.73022 0.88696 0.29262 0.0
C785 C 0.7125 0.90518 0.30004 0.0
C786 C 0.7545 0.89076 0.31531 0.0
C787 C 0.76139 0.91343 0.34577 0.0
C788 C 0.74378 0.93221 0.35113 0.0
C789 C 0.71948 0.92782 0.32856 0.0
C790 C 0.77262 0.87016 0.30907 0.0
C791 C 0.7505 0.95671 0.38233 0.0
H792 H 0.81866 0.90258 0.53685 0.0
H793 H 0.84547 0.92643 0.32249 0.0
H794 H 0.75582 0.91566 0.50441 0.0
H795 H 0.76267 0.88465 0.48438 0.0
H796 H 0.77704 0.89916 0.5635 0.0
H797 H 0.81829 0.94066 0.22697 0.0
H798 H 0.79845 0.91489 0.21612 0.0
H799 H 0.78596 0.94333 0.24532 0.0
H800 H 0.72501 0.86942 0.27048 0.0
H801 H 0.70592 0.94203 0.33403 0.0
H802 H 0.77904 0.86467 0.36594 0.0
H803 H 0.78887 0.87613 0.27696 0.0
H804 H 0.76464 0.85404 0.28102 0.0
H805 H 0.75527 0.95488 0.44275 0.0
H806 H 0.73534 0.97004 0.37644 0.0
H807 H 0.76685 0.96397 0.35327 0.0
C808 C 0.08302 0.22348 0.5682 0.0
C809 C 0.10483 0.21466 0.53756 0.0
C810 C 0.08061 0.24798 0.58811 0.0
C811 C 0.10055 0.26396 0.57755 0.0
C812 C 0.12224 0.25536 0.54379 0.0
C813 C 0.1241 0.23082 0.52405 0.0
C814 C 0.05712 0.25651 0.62341 0.0
C815 C 0.14397 0.27179 0.53184 0.0
C816 C 0.09423 0.33258 0.59263 0.0
C817 C 0.10345 0.33658 0.6652 0.0
C818 C 0.09233 0.30893 0.56387 0.0
C819 C 0.09982 0.28893 0.60884 0.0
C820 C 0.10811 0.29285 0.6832 0.0
C821 C 0.10975 0.31657 0.7104 0.0
C822 C 0.08326 0.30544 0.48446 0.0
C823 C 0.11624 0.27205 0.73318 0.0
H824 H 0.06798 0.21112 0.57837 0.0
H825 H 0.14098 0.22415 0.50016 0.0
H826 H 0.06045 0.26077 0.68341 0.0
H827 H 0.05058 0.27339 0.59557 0.0
H828 H 0.04247 0.24261 0.62006 0.0
H829 H 0.15871 0.26283 0.49951 0.0
H830 H 0.1383 0.28854 0.50154 0.0
H831 H 0.15155 0.27735 0.58705 0.0
H832 H 0.08939 0.34795 0.55721 0.0
H833 H 0.11662 0.31943 0.76677 0.0
H834 H 0.0688 0.29136 0.4829 0.0
H835 H 0.09849 0.29901 0.44886 0.0
H836 H 0.07586 0.32249 0.45958 0.0
H837 H 0.10159 0.25822 0.73723 0.0
H838 H 0.12109 0.27808 0.79079 0.0
H839 H 0.13246 0.26308 0.70844 0.0
C840 C 0.69141 0.60971 0.90611 0.0
C841 C 0.68185 0.59646 0.96674 0.0
C842 C 0.71521 0.60546 0.8802 0.0
C843 C 0.72985 0.58742 0.91545 0.0
C844 C 0.71992 0.57318 0.97424 0.0
C845 C 0.69607 0.5779 0.99931 0.0
C846 C 0.72507 0.62106 0.81728 0.0
C847 C 0.73484 0.55362 0.01273 0.0
C848 C 0.78781 0.56982 0.81135 0.0
C849 C 0.8052 0.58496 0.84542 0.0
C850 C 0.76335 0.56965 0.83542 0.0
C851 C 0.75613 0.58501 0.89479 0.0
C852 C 0.77386 0.59941 0.9317 0.0
C853 C 0.79812 0.59917 0.90674 0.0
C854 C 0.74504 0.55383 0.7952 0.0
C855 C 0.767 0.61599 0.99545 0.0
H856 H 0.68058 0.62401 0.88022 0.0
H857 H 0.68884 0.56746 0.04591 0.0
H858 H 0.74017 0.63255 0.83893 0.0
H859 H 0.73273 0.60953 0.77234 0.0
H860 H 0.71083 0.63308 0.79225 0.0
H861 H 0.72369 0.54249 0.05188 0.0
H862 H 0.74321 0.54148 0.97058 0.0
H863 H 0.74998 0.56203 0.04505 0.0
H864 H 0.79306 0.55876 0.76401 0.0
H865 H 0.8114 0.61081 0.9339 0.0
H866 H 0.73205 0.5654 0.76295 0.0
H867 H 0.7342 0.54319 0.83627 0.0
H868 H 0.75396 0.5411 0.75572 0.0
H869 H 0.75441 0.63033 0.97441 0.0
H870 H 0.78321 0.62485 0.02128 0.0
H871 H 0.75721 0.60568 0.03969 0.0
C872 C 0.42593 0.28106 0.05588 0.0
C873 C 0.40532 0.29068 0.019 0.0
C874 C 0.4274 0.25618 0.07384 0.0
C875 C 0.40776 0.24062 0.05465 0.0
C876 C 0.38734 0.25012 0.01499 0.0
C877 C 0.38638 0.27498 0.99764 0.0
C878 C 0.44952 0.24674 0.11585 0.0
C879 C 0.36595 0.23423 0.99362 0.0
C880 C 0.41242 0.17156 0.05896 0.0
C881 C 0.4007 0.16601 0.12684 0.0
C882 C 0.41583 0.19582 0.0359 0.0
C883 C 0.4073 0.21494 0.08176 0.0
C884 C 0.39638 0.20942 0.15163 0.0
C885 C 0.3932 0.18513 0.17317 0.0
C886 C 0.42766 0.20097 0.96115 0.0
C887 C 0.387 0.22919 0.20237 0.0
H888 H 0.44066 0.29306 0.07242 0.0
H889 H 0.37042 0.28221 0.96886 0.0
H890 H 0.4442 0.24129 0.17356 0.0
H891 H 0.45688 0.23037 0.08792 0.0
H892 H 0.46426 0.26053 0.11982 0.0
H893 H 0.35226 0.24403 0.95843 0.0
H894 H 0.37238 0.21811 0.96241 0.0
H895 H 0.35677 0.22755 0.04516 0.0
H896 H 0.41827 0.15698 0.02268 0.0
H897 H 0.38413 0.18118 0.22572 0.0
H898 H 0.44231 0.21471 0.96753 0.0
H899 H 0.41386 0.20859 0.9216 0.0
H900 H 0.43558 0.18437 0.93588 0.0
H901 H 0.40153 0.24278 0.21306 0.0
H902 H 0.38057 0.22197 0.25718 0.0
H903 H 0.37156 0.23881 0.17444 0.0
loop_
_geom_bond_atom_site_label_1
_geom_bond_atom_site_label_2
_geom_bond_distance
_geom_bond_site_symmetry_2
_ccdc_geom_bond_type
Co0 N4 2.148 . S
Co0 N10 2.128 1_554 S
Co0 N20 2.194 . S
Co0 O25 2.351 . S
Co0 O26 2.155 . S
Co0 O27 2.096 1_554 S
C1 N4 1.301 . S
C1 N5 1.328 . S
C1 H6 0.930 . S
C2 C3 1.333 . S
C2 N4 1.317 . S
C2 H7 0.930 . S
C3 C2 1.333 . S
C3 N5 1.350 . S
C3 H29 0.931 . S
N4 Co0 2.148 . S
N4 C1 1.301 . S
N4 C2 1.317 . S
N5 C1 1.328 . S
N5 C3 1.350 . S
H6 C1 0.930 . S
H7 C2 0.930 . S
C8 O9 1.224 . S
C8 O27 1.247 . S
O9 C8 1.224 . S
N10 Co0 2.128 1_556 S
N10 C11 1.355 . S
N10 C13 1.311 . S
C11 N10 1.355 . S
C11 C12 1.363 . S
C11 H23 0.929 . S
C12 C11 1.363 . S
C12 N14 1.375 . S
C12 H30 0.931 . S
C13 N10 1.311 . S
C13 N14 1.347 . S
C13 H24 0.929 . S
N14 C12 1.375 . S
N14 C13 1.347 . S
C15 C18 1.365 . S
C15 N20 1.328 . S
C15 H21 0.929 . S
C16 C17 1.362 1_556 S
C16 C19 1.378 . S
C16 H31 0.929 . S
C17 C16 1.362 1_554 S
C17 C18 1.366 . S
C18 C15 1.365 . S
C18 C17 1.366 . S
C18 H32 0.930 . S
C19 C16 1.378 . S
C19 N20 1.315 1_556 S
C19 H22 0.930 . S
N20 Co0 2.194 . S
N20 C15 1.328 . S
N20 C19 1.315 1_554 S
H21 C15 0.929 . S
H22 C19 0.930 . S
H23 C11 0.929 . S
H24 C13 0.929 . S
O25 Co0 2.351 . S
O25 C28 1.244 . S
O26 Co0 2.155 . S
O26 C28 1.240 . S
O27 Co0 2.096 1_556 S
O27 C8 1.247 . S
C28 O25 1.244 . S
C28 O26 1.240 . S
H29 C3 0.931 . S
H30 C12 0.931 . S
H31 C16 0.929 . S
H32 C18 0.930 . S
Co33 N37 2.148 . S
Co33 N43 2.128 . S
Co33 N53 2.194 . S
Co33 O58 2.351 . S
Co33 O59 2.155 . S
Co33 O60 2.096 . S
C34 N37 1.301 . S
C34 N38 1.328 . S
C34 H39 0.930 . S
C35 C36 1.333 . S
C35 N37 1.317 . S
C35 H40 0.930 . S
C36 C35 1.333 . S
C36 N38 1.350 . S
C36 H62 0.931 . S
N37 Co33 2.148 . S
N37 C34 1.301 . S
N37 C35 1.317 . S
N38 C34 1.328 . S
N38 C36 1.350 . S
H39 C34 0.930 . S
H40 C35 0.930 . S
C41 O42 1.224 . S
C41 O60 1.247 . S
O42 C41 1.224 . S
N43 Co33 2.128 . S
N43 C44 1.355 . S
N43 C46 1.311 . S
C44 N43 1.355 . S
C44 C45 1.363 . S
C44 H56 0.929 . S
C45 C44 1.363 . S
C45 N47 1.375 . S
C45 H63 0.931 . S
C46 N43 1.311 . S
C46 N47 1.347 . S
C46 H57 0.929 . S
N47 C45 1.375 . S
N47 C46 1.347 . S
C48 C51 1.365 . S
C48 N53 1.328 . S
C48 H54 0.929 . S
C49 C50 1.362 . S
C49 C52 1.378 . S
C49 H64 0.929 . S
C50 C49 1.362 . S
C50 C51 1.366 . S
C51 C48 1.365 . S
C51 C50 1.366 . S
C51 H65 0.930 . S
C52 C49 1.378 . S
C52 N53 1.315 . S
C52 H55 0.930 . S
N53 Co33 2.194 . S
N53 C48 1.328 . S
N53 C52 1.315 . S
H54 C48 0.929 . S
H55 C52 0.930 . S
H56 C44 0.929 . S
H57 C46 0.929 . S
O58 Co33 2.351 . S
O58 C61 1.244 . S
O59 Co33 2.155 . S
O59 C61 1.240 . S
O60 Co33 2.096 . S
O60 C41 1.247 . S
C61 O58 1.244 . S
C61 O59 1.240 . S
H62 C36 0.931 . S
H63 C45 0.931 . S
H64 C49 0.929 . S
H65 C51 0.930 . S
Co66 N70 2.148 . S
Co66 N76 2.128 . S
Co66 N86 2.194 . S
Co66 O91 2.351 . S
Co66 O92 2.155 . S
Co66 O93 2.096 . S
C67 N70 1.301 . S
C67 N71 1.328 . S
C67 H72 0.930 . S
C68 C69 1.333 . S
C68 N70 1.317 . S
C68 H73 0.930 . S
C69 C68 1.333 . S
C69 N71 1.350 . S
C69 H95 0.931 . S
N70 Co66 2.148 . S
N70 C67 1.301 . S
N70 C68 1.317 . S
N71 C67 1.328 . S
N71 C69 1.350 . S
H72 C67 0.930 . S
H73 C68 0.930 . S
C74 O75 1.224 . S
C74 O93 1.247 . S
O75 C74 1.224 . S
N76 Co66 2.128 . S
N76 C77 1.355 . S
N76 C79 1.311 . S
C77 N76 1.355 . S
C77 C78 1.363 . S
C77 H89 0.929 . S
C78 C77 1.363 . S
C78 N80 1.375 . S
C78 H96 0.931 . S
C79 N76 1.311 . S
C79 N80 1.347 . S
C79 H90 0.929 . S
N80 C78 1.375 . S
N80 C79 1.347 . S
C81 C84 1.365 . S
C81 N86 1.328 . S
C81 H87 0.929 . S
C82 C83 1.362 . S
C82 C85 1.378 . S
C82 H97 0.929 . S
C83 C82 1.362 . S
C83 C84 1.366 . S
C84 C81 1.365 . S
C84 C83 1.366 . S
C84 H98 0.930 . S
C85 C82 1.378 . S
C85 N86 1.315 . S
C85 H88 0.930 . S
N86 Co66 2.194 . S
N86 C81 1.328 . S
N86 C85 1.315 . S
H87 C81 0.929 . S
H88 C85 0.930 . S
H89 C77 0.929 . S
H90 C79 0.929 . S
O91 Co66 2.351 . S
O91 C94 1.244 . S
O92 Co66 2.155 . S
O92 C94 1.240 . S
O93 Co66 2.096 . S
O93 C74 1.247 . S
C94 O91 1.244 . S
C94 O92 1.240 . S
H95 C69 0.931 . S
H96 C78 0.931 . S
H97 C82 0.929 . S
H98 C84 0.930 . S
Co99 N103 2.148 . S
Co99 N109 2.128 . S
Co99 N119 2.194 . S
Co99 O124 2.351 . S
Co99 O125 2.155 . S
Co99 O126 2.096 . S
C100 N103 1.301 . S
C100 N104 1.328 . S
C100 H105 0.930 . S
C101 C102 1.333 . S
C101 N103 1.317 . S
C101 H106 0.930 . S
C102 C101 1.333 . S
C102 N104 1.350 . S
C102 H128 0.931 . S
N103 Co99 2.148 . S
N103 C100 1.301 . S
N103 C101 1.317 . S
N104 C100 1.328 . S
N104 C102 1.350 . S
H105 C100 0.930 . S
H106 C101 0.930 . S
C107 O108 1.224 . S
C107 O126 1.247 . S
O108 C107 1.224 . S
N109 Co99 2.128 . S
N109 C110 1.355 . S
N109 C112 1.311 . S
C110 N109 1.355 . S
C110 C111 1.363 . S
C110 H122 0.929 . S
C111 C110 1.363 . S
C111 N113 1.375 . S
C111 H129 0.931 . S
C112 N109 1.311 . S
C112 N113 1.347 . S
C112 H123 0.929 . S
N113 C111 1.375 . S
N113 C112 1.347 . S
C114 C117 1.365 . S
C114 N119 1.328 . S
C114 H120 0.929 . S
C115 C116 1.362 . S
C115 C118 1.378 . S
C115 H130 0.929 . S
C116 C115 1.362 . S
C116 C117 1.366 . S
C117 C114 1.365 . S
C117 C116 1.366 . S
C117 H131 0.930 . S
C118 C115 1.378 . S
C118 N119 1.315 . S
C118 H121 0.930 . S
N119 Co99 2.194 . S
N119 C114 1.328 . S
N119 C118 1.315 . S
H120 C114 0.929 . S
H121 C118 0.930 . S
H122 C110 0.929 . S
H123 C112 0.929 . S
O124 Co99 2.351 . S
O124 C127 1.244 . S
O125 Co99 2.155 . S
O125 C127 1.240 . S
O126 Co99 2.096 . S
O126 C107 1.247 . S
C127 O124 1.244 . S
C127 O125 1.240 . S
H128 C102 0.931 . S
H129 C111 0.931 . S
H130 C115 0.929 . S
H131 C117 0.930 . S
Co132 N136 2.148 . S
Co132 N142 2.128 . S
Co132 N152 2.194 . S
Co132 O157 2.351 . S
Co132 O158 2.155 . S
Co132 O159 2.096 . S
C133 N136 1.301 . S
C133 N137 1.328 . S
C133 H138 0.930 . S
C134 C135 1.333 . S
C134 N136 1.317 . S
C134 H139 0.930 . S
C135 C134 1.333 . S
C135 N137 1.350 . S
C135 H161 0.931 . S
N136 Co132 2.148 . S
N136 C133 1.301 . S
N136 C134 1.317 . S
N137 C133 1.328 . S
N137 C135 1.350 . S
H138 C133 0.930 . S
H139 C134 0.930 . S
C140 O141 1.224 . S
C140 O159 1.247 . S
O141 C140 1.224 . S
N142 Co132 2.128 . S
N142 C143 1.355 . S
N142 C145 1.311 . S
C143 N142 1.355 . S
C143 C144 1.363 . S
C143 H155 0.929 . S
C144 C143 1.363 . S
C144 N146 1.375 . S
C144 H162 0.931 . S
C145 N142 1.311 . S
C145 N146 1.347 . S
C145 H156 0.929 . S
N146 C144 1.375 . S
N146 C145 1.347 . S
C147 C150 1.365 . S
C147 N152 1.328 . S
C147 H153 0.929 . S
C148 C149 1.362 . S
C148 C151 1.378 . S
C148 H163 0.929 . S
C149 C148 1.362 . S
C149 C150 1.366 . S
C150 C147 1.365 . S
C150 C149 1.366 . S
C150 H164 0.930 . S
C151 C148 1.378 . S
C151 N152 1.315 . S
C151 H154 0.930 . S
N152 Co132 2.194 . S
N152 C147 1.328 . S
N152 C151 1.315 . S
H153 C147 0.929 . S
H154 C151 0.930 . S
H155 C143 0.929 . S
H156 C145 0.929 . S
O157 Co132 2.351 . S
O157 C160 1.244 . S
O158 Co132 2.155 . S
O158 C160 1.240 . S
O159 Co132 2.096 . S
O159 C140 1.247 . S
C160 O157 1.244 . S
C160 O158 1.240 . S
H161 C135 0.931 . S
H162 C144 0.931 . S
H163 C148 0.929 . S
H164 C150 0.930 . S
Co165 N169 2.148 . S
Co165 N175 2.128 . S
Co165 N185 2.194 . S
Co165 O190 2.351 . S
Co165 O191 2.155 . S
Co165 O192 2.096 . S
C166 N169 1.301 . S
C166 N170 1.328 . S
C166 H171 0.930 . S
C167 C168 1.333 . S
C167 N169 1.317 . S
C167 H172 0.930 . S
C168 C167 1.333 . S
C168 N170 1.350 . S
C168 H194 0.931 . S
N169 Co165 2.148 . S
N169 C166 1.301 . S
N169 C167 1.317 . S
N170 C166 1.328 . S
N170 C168 1.350 . S
H171 C166 0.930 . S
H172 C167 0.930 . S
C173 O174 1.224 . S
C173 O192 1.247 . S
O174 C173 1.224 . S
N175 Co165 2.128 . S
N175 C176 1.355 . S
N175 C178 1.311 . S
C176 N175 1.355 . S
C176 C177 1.363 . S
C176 H188 0.929 . S
C177 C176 1.363 . S
C177 N179 1.375 . S
C177 H195 0.931 . S
C178 N175 1.311 . S
C178 N179 1.347 . S
C178 H189 0.929 . S
N179 C177 1.375 . S
N179 C178 1.347 . S
C180 C183 1.365 . S
C180 N185 1.328 . S
C180 H186 0.929 . S
C181 C182 1.362 . S
C181 C184 1.378 . S
C181 H196 0.929 . S
C182 C181 1.362 . S
C182 C183 1.366 . S
C183 C180 1.365 . S
C183 C182 1.366 . S
C183 H197 0.930 . S
C184 C181 1.378 . S
C184 N185 1.315 . S
C184 H187 0.930 . S
N185 Co165 2.194 . S
N185 C180 1.328 . S
N185 C184 1.315 . S
H186 C180 0.929 . S
H187 C184 0.930 . S
H188 C176 0.929 . S
H189 C178 0.929 . S
O190 Co165 2.351 . S
O190 C193 1.244 . S
O191 Co165 2.155 . S
O191 C193 1.240 . S
O192 Co165 2.096 . S
O192 C173 1.247 . S
C193 O190 1.244 . S
C193 O191 1.240 . S
H194 C168 0.931 . S
H195 C177 0.931 . S
H196 C181 0.929 . S
H197 C183 0.930 . S
Co198 N202 2.148 . S
Co198 N208 2.128 . S
Co198 N218 2.194 . S
Co198 O223 2.351 . S
Co198 O224 2.155 . S
Co198 O225 2.096 . S
C199 N202 1.301 . S
C199 N203 1.328 . S
C199 H204 0.930 . S
C200 C201 1.333 . S
C200 N202 1.317 . S
C200 H205 0.930 . S
C201 C200 1.333 . S
C201 N203 1.350 . S
C201 H227 0.931 . S
N202 Co198 2.148 . S
N202 C199 1.301 . S
N202 C200 1.317 . S
N203 C199 1.328 . S
N203 C201 1.350 . S
H204 C199 0.930 . S
H205 C200 0.930 . S
C206 O207 1.224 . S
C206 O225 1.247 . S
O207 C206 1.224 . S
N208 Co198 2.128 . S
N208 C209 1.355 . S
N208 C211 1.311 . S
C209 N208 1.355 . S
C209 C210 1.363 . S
C209 H221 0.929 . S
C210 C209 1.363 . S
C210 N212 1.375 . S
C210 H228 0.931 . S
C211 N208 1.311 . S
C211 N212 1.347 . S
C211 H222 0.929 . S
N212 C210 1.375 . S
N212 C211 1.347 . S
C213 C216 1.365 . S
C213 N218 1.328 . S
C213 H219 0.929 . S
C214 C215 1.362 . S
C214 C217 1.378 . S
C214 H229 0.929 . S
C215 C214 1.362 . S
C215 C216 1.366 . S
C216 C213 1.365 . S
C216 C215 1.366 . S
C216 H230 0.930 . S
C217 C214 1.378 . S
C217 N218 1.315 . S
C217 H220 0.930 . S
N218 Co198 2.194 . S
N218 C213 1.328 . S
N218 C217 1.315 . S
H219 C213 0.929 . S
H220 C217 0.930 . S
H221 C209 0.929 . S
H222 C211 0.929 . S
O223 Co198 2.351 . S
O223 C226 1.244 . S
O224 Co198 2.155 . S
O224 C226 1.240 . S
O225 Co198 2.096 . S
O225 C206 1.247 . S
C226 O223 1.244 . S
C226 O224 1.240 . S
H227 C201 0.931 . S
H228 C210 0.931 . S
H229 C214 0.929 . S
H230 C216 0.930 . S
Co231 N235 2.148 . S
Co231 N241 2.128 1_554 S
Co231 N251 2.194 . S
Co231 O256 2.351 . S
Co231 O257 2.155 . S
Co231 O258 2.096 1_554 S
C232 N235 1.301 . S
C232 N236 1.328 . S
C232 H237 0.930 . S
C233 C234 1.333 . S
C233 N235 1.317 . S
C233 H238 0.930 . S
C234 C233 1.333 . S
C234 N236 1.350 . S
C234 H260 0.931 . S
N235 Co231 2.148 . S
N235 C232 1.301 . S
N235 C233 1.317 . S
N236 C232 1.328 . S
N236 C234 1.350 . S
H237 C232 0.930 . S
H238 C233 0.930 . S
C239 O240 1.224 . S
C239 O258 1.247 . S
O240 C239 1.224 . S
N241 Co231 2.128 1_556 S
N241 C242 1.355 . S
N241 C244 1.311 . S
C242 N241 1.355 . S
C242 C243 1.363 . S
C242 H254 0.929 . S
C243 C242 1.363 . S
C243 N245 1.375 . S
C243 H261 0.931 . S
C244 N241 1.311 . S
C244 N245 1.347 . S
C244 H255 0.929 . S
N245 C243 1.375 . S
N245 C244 1.347 . S
C246 C249 1.365 . S
C246 N251 1.328 . S
C246 H252 0.929 . S
C247 C248 1.362 1_556 S
C247 C250 1.378 . S
C247 H262 0.929 . S
C248 C247 1.362 1_554 S
C248 C249 1.366 . S
C249 C246 1.365 . S
C249 C248 1.366 . S
C249 H263 0.930 . S
C250 C247 1.378 . S
C250 N251 1.312 1_556 S
C250 H253 0.933 . S
N251 Co231 2.194 . S
N251 C246 1.328 . S
N251 C250 1.312 1_554 S
H252 C246 0.929 . S
H253 C250 0.933 . S
H254 C242 0.929 . S
H255 C244 0.929 . S
O256 Co231 2.351 . S
O256 C259 1.244 . S
O257 Co231 2.155 . S
O257 C259 1.240 . S
O258 Co231 2.096 1_556 S
O258 C239 1.247 . S
C259 O256 1.244 . S
C259 O257 1.240 . S
H260 C234 0.931 . S
H261 C243 0.931 . S
H262 C247 0.929 . S
H263 C249 0.930 . S
C264 C265 1.391 1_556 S
C264 C266 1.394 . S
C264 H280 0.931 . S
C265 C264 1.391 1_554 S
C265 C269 1.376 . S
C266 C264 1.394 . S
C266 C267 1.369 1_556 S
C266 C270 1.531 . S
C267 C266 1.369 1_554 S
C267 C268 1.410 . S
C267 C275 1.503 . S
C268 C267 1.410 . S
C268 C269 1.392 . S
C268 C271 1.511 . S
C269 C265 1.376 . S
C269 C268 1.392 . S
C269 H281 0.929 . S
C270 C266 1.531 . S
C270 H282 0.960 . S
C270 H283 0.962 . S
C270 H284 0.960 . S
C271 C268 1.511 . S
C271 H285 0.961 . S
C271 H286 0.961 . S
C271 H287 0.961 . S
C272 C273 1.370 . S
C272 C274 1.363 . S
C272 H288 0.931 . S
C273 C272 1.370 . S
C273 C277 1.408 . S
C274 C272 1.363 . S
C274 C275 1.370 . S
C274 C278 1.524 . S
C275 C267 1.503 . S
C275 C274 1.370 . S
C275 C276 1.403 . S
C276 C275 1.403 . S
C276 C277 1.404 . S
C276 C279 1.539 . S
C277 C273 1.408 . S
C277 C276 1.404 . S
C277 H289 0.930 . S
C278 C274 1.524 . S
C278 H290 0.956 1_554 S
C278 H291 0.961 . S
C278 H292 0.961 . S
C279 C276 1.539 . S
C279 H293 0.958 1_554 S
C279 H294 0.961 . S
C279 H295 0.960 . S
H280 C264 0.931 . S
H281 C269 0.929 . S
H282 C270 0.960 . S
H283 C270 0.962 . S
H284 C270 0.960 . S
H285 C271 0.961 . S
H286 C271 0.961 . S
H287 C271 0.961 . S
H288 C272 0.931 . S
H289 C277 0.930 . S
H290 C278 0.956 1_556 S
H291 C278 0.961 . S
H292 C278 0.961 . S
H293 C279 0.958 1_556 S
H294 C279 0.961 . S
H295 C279 0.960 . S
C296 C297 1.391 . S
C296 C298 1.394 . S
C296 H312 0.931 . S
C297 C296 1.391 . S
C297 C301 1.376 . S
C298 C296 1.394 . S
C298 C299 1.369 . S
C298 C302 1.531 1_545 S
C299 C298 1.369 . S
C299 C300 1.410 . S
C299 C307 1.503 1_545 S
C300 C299 1.410 . S
C300 C301 1.392 . S
C300 C303 1.511 . S
C301 C297 1.376 . S
C301 C300 1.392 . S
C301 H313 0.929 . S
C302 C298 1.531 1_565 S
C302 H314 0.960 . S
C302 H315 0.962 . S
C302 H316 0.960 . S
C303 C300 1.511 . S
C303 H317 0.961 . S
C303 H318 0.961 . S
C303 H319 0.961 . S
C304 C305 1.370 . S
C304 C306 1.363 . S
C304 H320 0.931 . S
C305 C304 1.370 . S
C305 C309 1.408 . S
C306 C304 1.363 . S
C306 C307 1.370 . S
C306 C310 1.524 . S
C307 C299 1.503 1_565 S
C307 C306 1.370 . S
C307 C308 1.403 . S
C308 C307 1.403 . S
C308 C309 1.404 . S
C308 C311 1.539 1_565 S
C309 C305 1.408 . S
C309 C308 1.404 . S
C309 H321 0.930 . S
C310 C306 1.524 . S
C310 H322 0.956 . S
C310 H323 0.961 . S
C310 H324 0.961 . S
C311 C308 1.539 1_545 S
C311 H325 0.958 1_545 S
C311 H326 0.961 . S
C311 H327 0.961 . S
H312 C296 0.931 . S
H313 C301 0.929 . S
H314 C302 0.960 . S
H315 C302 0.962 . S
H316 C302 0.960 . S
H317 C303 0.961 . S
H318 C303 0.961 . S
H319 C303 0.961 . S
H320 C304 0.931 . S
H321 C309 0.930 . S
H322 C310 0.956 . S
H323 C310 0.961 . S
H324 C310 0.961 . S
H325 C311 0.958 1_565 S
H326 C311 0.961 . S
H327 C311 0.961 . S
C328 C329 1.391 . S
C328 C330 1.394 . S
C328 H344 0.931 . S
C329 C328 1.391 . S
C329 C333 1.376 . S
C330 C328 1.394 . S
C330 C331 1.369 . S
C330 C334 1.531 1_565 S
C331 C330 1.369 . S
C331 C332 1.410 . S
C331 C339 1.503 1_665 S
C332 C331 1.410 . S
C332 C333 1.392 . S
C332 C335 1.511 1_655 S
C333 C329 1.376 . S
C333 C332 1.392 . S
C333 H345 0.929 . S
C334 C330 1.531 1_545 S
C334 H346 0.960 . S
C334 H347 0.962 . S
C334 H348 0.960 . S
C335 C332 1.511 1_455 S
C335 H349 0.961 . S
C335 H350 0.961 . S
C335 H351 0.961 . S
C336 C337 1.370 . S
C336 C338 1.363 . S
C336 H352 0.931 . S
C337 C336 1.370 . S
C337 C341 1.408 . S
C338 C336 1.363 . S
C338 C339 1.370 . S
C338 C342 1.524 1_455 S
C339 C331 1.503 1_445 S
C339 C338 1.370 . S
C339 C340 1.403 . S
C340 C339 1.403 . S
C340 C341 1.404 . S
C340 C343 1.539 1_545 S
C341 C337 1.408 . S
C341 C340 1.404 . S
C341 H353 0.930 . S
C342 C338 1.524 1_655 S
C342 H354 0.956 . S
C342 H355 0.961 . S
C342 H356 0.961 . S
C343 C340 1.539 1_565 S
C343 H357 0.958 . S
C343 H358 0.961 . S
C343 H359 0.960 . S
H344 C328 0.931 . S
H345 C333 0.929 . S
H346 C334 0.960 . S
H347 C334 0.962 . S
H348 C334 0.960 . S
H349 C335 0.961 . S
H350 C335 0.961 . S
H351 C335 0.961 . S
H352 C336 0.931 . S
H353 C341 0.930 . S
H354 C342 0.956 . S
H355 C342 0.961 . S
H356 C342 0.961 . S
H357 C343 0.958 . S
H358 C343 0.961 . S
H359 C343 0.960 . S
C360 C361 1.391 . S
C360 C362 1.394 . S
C360 H376 0.931 . S
C361 C360 1.391 . S
C361 C365 1.376 . S
C362 C360 1.394 . S
C362 C363 1.369 . S
C362 C366 1.531 . S
C363 C362 1.369 . S
C363 C364 1.410 . S
C363 C371 1.503 1_455 S
C364 C363 1.410 . S
C364 C365 1.392 . S
C364 C367 1.511 1_455 S
C365 C361 1.376 . S
C365 C364 1.392 . S
C365 H377 0.929 . S
C366 C362 1.531 . S
C366 H378 0.960 . S
C366 H379 0.962 . S
C366 H380 0.960 . S
C367 C364 1.511 1_655 S
C367 H381 0.961 . S
C367 H382 0.961 . S
C367 H383 0.961 . S
C368 C369 1.370 . S
C368 C370 1.363 . S
C368 H384 0.931 . S
C369 C368 1.370 . S
C369 C373 1.408 . S
C370 C368 1.363 . S
C370 C371 1.370 . S
C370 C374 1.524 . S
C371 C363 1.503 1_655 S
C371 C370 1.370 . S
C371 C372 1.403 . S
C372 C371 1.403 . S
C372 C373 1.404 . S
C372 C375 1.540 1_655 S
C373 C369 1.408 . S
C373 C372 1.404 . S
C373 H385 0.930 . S
C374 C370 1.524 . S
C374 H386 0.966 . S
C374 H387 0.961 . S
C374 H388 0.961 . S
C375 C372 1.540 1_455 S
C375 H389 0.956 . S
C375 H390 0.963 1_455 S
C375 H391 0.959 . S
H376 C360 0.931 . S
H377 C365 0.929 . S
H378 C366 0.960 . S
H379 C366 0.962 . S
H380 C366 0.960 . S
H381 C367 0.961 . S
H382 C367 0.961 . S
H383 C367 0.961 . S
H384 C368 0.931 . S
H385 C373 0.930 . S
H386 C374 0.966 . S
H387 C374 0.961 . S
H388 C374 0.961 . S
H389 C375 0.956 . S
H390 C375 0.963 1_655 S
H391 C375 0.959 . S
C392 C393 1.391 . S
C392 C394 1.394 . S
C392 H408 0.931 . S
C393 C392 1.391 . S
C393 C397 1.376 . S
C394 C392 1.394 . S
C394 C395 1.369 . S
C394 C398 1.531 . S
C395 C394 1.369 . S
C395 C396 1.410 . S
C395 C403 1.503 . S
C396 C395 1.410 . S
C396 C397 1.392 . S
C396 C399 1.511 . S
C397 C393 1.376 . S
C397 C396 1.392 . S
C397 H409 0.929 . S
C398 C394 1.531 . S
C398 H410 0.960 . S
C398 H411 0.962 . S
C398 H412 0.960 . S
C399 C396 1.511 . S
C399 H413 0.961 . S
C399 H414 0.961 . S
C399 H415 0.961 . S
C400 C401 1.370 . S
C400 C402 1.363 . S
C400 H416 0.931 . S
C401 C400 1.370 . S
C401 C405 1.408 . S
C402 C400 1.363 . S
C402 C403 1.370 . S
C402 C406 1.524 . S
C403 C395 1.503 . S
C403 C402 1.370 . S
C403 C404 1.403 . S
C404 C403 1.403 . S
C404 C405 1.404 . S
C404 C407 1.539 . S
C405 C401 1.408 . S
C405 C404 1.404 . S
C405 H417 0.930 . S
C406 C402 1.524 . S
C406 H418 0.956 . S
C406 H419 0.961 . S
C406 H420 0.961 . S
C407 C404 1.539 . S
C407 H421 0.958 . S
C407 H422 0.961 . S
C407 H423 0.960 . S
H408 C392 0.931 . S
H409 C397 0.929 . S
H410 C398 0.960 . S
H411 C398 0.962 . S
H412 C398 0.960 . S
H413 C399 0.961 . S
H414 C399 0.961 . S
H415 C399 0.961 . S
H416 C400 0.931 . S
H417 C405 0.930 . S
H418 C406 0.956 . S
H419 C406 0.961 . S
H420 C406 0.961 . S
H421 C407 0.958 . S
H422 C407 0.961 . S
H423 C407 0.960 . S
C424 C425 1.391 . S
C424 C426 1.394 . S
C424 H440 0.931 . S
C425 C424 1.391 . S
C425 C429 1.376 . S
C426 C424 1.394 . S
C426 C427 1.369 . S
C426 C430 1.531 . S
C427 C426 1.369 . S
C427 C428 1.410 . S
C427 C435 1.503 . S
C428 C427 1.410 . S
C428 C429 1.392 . S
C428 C431 1.511 . S
C429 C425 1.376 . S
C429 C428 1.392 . S
C429 H441 0.929 . S
C430 C426 1.531 . S
C430 H442 0.960 . S
C430 H443 0.962 . S
C430 H444 0.960 . S
C431 C428 1.511 . S
C431 H445 0.961 . S
C431 H446 0.961 . S
C431 H447 0.961 . S
C432 C433 1.370 . S
C432 C434 1.363 . S
C432 H448 0.931 . S
C433 C432 1.370 . S
C433 C437 1.408 . S
C434 C432 1.363 . S
C434 C435 1.370 . S
C434 C438 1.524 . S
C435 C427 1.503 . S
C435 C434 1.370 . S
C435 C436 1.403 . S
C436 C435 1.403 . S
C436 C437 1.404 . S
C436 C439 1.539 . S
C437 C433 1.408 . S
C437 C436 1.404 . S
C437 H449 0.930 . S
C438 C434 1.524 . S
C438 H450 0.956 . S
C438 H451 0.961 . S
C438 H452 0.961 . S
C439 C436 1.539 . S
C439 H453 0.958 . S
C439 H454 0.961 . S
C439 H455 0.960 . S
H440 C424 0.931 . S
H441 C429 0.929 . S
H442 C430 0.960 . S
H443 C430 0.962 . S
H444 C430 0.960 . S
H445 C431 0.961 . S
H446 C431 0.961 . S
H447 C431 0.961 . S
H448 C432 0.931 . S
H449 C437 0.930 . S
H450 C438 0.956 . S
H451 C438 0.961 . S
H452 C438 0.961 . S
H453 C439 0.958 . S
H454 C439 0.961 . S
H455 C439 0.960 . S
C456 C457 1.391 . S
C456 C458 1.394 . S
C456 H472 0.931 . S
C457 C456 1.391 . S
C457 C461 1.376 . S
C458 C456 1.394 . S
C458 C459 1.369 . S
C458 C462 1.531 . S
C459 C458 1.369 . S
C459 C460 1.410 . S
C459 C467 1.503 1_556 S
C460 C459 1.410 . S
C460 C461 1.392 . S
C460 C463 1.511 . S
C461 C457 1.376 . S
C461 C460 1.392 . S
C461 H473 0.929 . S
C462 C458 1.531 . S
C462 H474 0.960 1_556 S
C462 H475 0.962 . S
C462 H476 0.960 . S
C463 C460 1.511 . S
C463 H477 0.961 . S
C463 H478 0.961 1_556 S
C463 H479 0.961 . S
C464 C465 1.370 . S
C464 C466 1.363 . S
C464 H480 0.931 . S
C465 C464 1.370 . S
C465 C469 1.408 . S
C466 C464 1.363 . S
C466 C467 1.370 . S
C466 C470 1.524 . S
C467 C459 1.503 1_554 S
C467 C466 1.370 . S
C467 C468 1.403 . S
C468 C467 1.403 . S
C468 C469 1.404 . S
C468 C471 1.539 . S
C469 C465 1.408 . S
C469 C468 1.404 . S
C469 H481 0.930 . S
C470 C466 1.524 . S
C470 H482 0.956 1_554 S
C470 H483 0.961 1_554 S
C470 H484 0.961 . S
C471 C468 1.539 . S
C471 H485 0.958 . S
C471 H486 0.961 . S
C471 H487 0.960 . S
H472 C456 0.931 . S
H473 C461 0.929 . S
H474 C462 0.960 1_554 S
H475 C462 0.962 . S
H476 C462 0.960 . S
H477 C463 0.961 . S
H478 C463 0.961 1_554 S
H479 C463 0.961 . S
H480 C464 0.931 . S
H481 C469 0.930 . S
H482 C470 0.956 1_556 S
H483 C470 0.961 1_556 S
H484 C470 0.961 . S
H485 C471 0.958 . S
H486 C471 0.961 . S
H487 C471 0.960 . S
C488 C489 1.391 . S
C488 C490 1.394 . S
C488 H504 0.931 . S
C489 C488 1.391 . S
C489 C493 1.376 . S
C490 C488 1.394 . S
C490 C491 1.369 . S
C490 C494 1.531 . S
C491 C490 1.369 . S
C491 C492 1.410 . S
C491 C499 1.503 . S
C492 C491 1.410 . S
C492 C493 1.392 . S
C492 C495 1.511 . S
C493 C489 1.376 . S
C493 C492 1.392 . S
C493 H505 0.929 . S
C494 C490 1.531 . S
C494 H506 0.960 . S
C494 H507 0.962 . S
C494 H508 0.960 . S
C495 C492 1.511 . S
C495 H509 0.961 . S
C495 H510 0.961 . S
C495 H511 0.961 . S
C496 C497 1.370 . S
C496 C498 1.363 . S
C496 H512 0.931 . S
C497 C496 1.370 . S
C497 C501 1.408 . S
C498 C496 1.363 . S
C498 C499 1.370 . S
C498 C502 1.524 . S
C499 C491 1.503 . S
C499 C498 1.370 . S
C499 C500 1.403 . S
C500 C499 1.403 . S
C500 C501 1.404 . S
C500 C503 1.539 . S
C501 C497 1.408 . S
C501 C500 1.404 . S
C501 H513 0.930 . S
C502 C498 1.524 . S
C502 H514 0.956 . S
C502 H515 0.961 . S
C502 H516 0.961 . S
C503 C500 1.539 . S
C503 H517 0.958 . S
C503 H518 0.961 . S
C503 H519 0.960 . S
H504 C488 0.931 . S
H505 C493 0.929 . S
H506 C494 0.960 . S
H507 C494 0.962 . S
H508 C494 0.960 . S
H509 C495 0.961 . S
H510 C495 0.961 . S
H511 C495 0.961 . S
H512 C496 0.931 . S
H513 C501 0.930 . S
H514 C502 0.956 . S
H515 C502 0.961 . S
H516 C502 0.961 . S
H517 C503 0.958 . S
H518 C503 0.961 . S
H519 C503 0.960 . S
C520 C521 1.391 . S
C520 C522 1.394 . S
C520 H536 0.931 . S
C521 C520 1.391 . S
C521 C525 1.376 . S
C522 C520 1.394 . S
C522 C523 1.369 . S
C522 C526 1.531 . S
C523 C522 1.369 . S
C523 C524 1.410 . S
C523 C531 1.503 . S
C524 C523 1.410 . S
C524 C525 1.392 . S
C524 C527 1.511 . S
C525 C521 1.376 . S
C525 C524 1.392 . S
C525 H537 0.929 . S
C526 C522 1.531 . S
C526 H538 0.960 . S
C526 H539 0.962 . S
C526 H540 0.960 . S
C527 C524 1.511 . S
C527 H541 0.961 . S
C527 H542 0.961 . S
C527 H543 0.961 . S
C528 C529 1.370 . S
C528 C530 1.363 . S
C528 H544 0.931 . S
C529 C528 1.370 . S
C529 C533 1.408 . S
C530 C528 1.363 . S
C530 C531 1.370 . S
C530 C534 1.524 . S
C531 C523 1.503 . S
C531 C530 1.370 . S
C531 C532 1.403 . S
C532 C531 1.403 . S
C532 C533 1.404 . S
C532 C535 1.539 . S
C533 C529 1.408 . S
C533 C532 1.404 . S
C533 H545 0.930 . S
C534 C530 1.524 . S
C534 H546 0.956 . S
C534 H547 0.961 . S
C534 H548 0.961 . S
C535 C532 1.539 . S
C535 H549 0.958 . S
C535 H550 0.961 . S
C535 H551 0.960 . S
H536 C520 0.931 . S
H537 C525 0.929 . S
H538 C526 0.960 . S
H539 C526 0.962 . S
H540 C526 0.960 . S
H541 C527 0.961 . S
H542 C527 0.961 . S
H543 C527 0.961 . S
H544 C528 0.931 . S
H545 C533 0.930 . S
H546 C534 0.956 . S
H547 C534 0.961 . S
H548 C534 0.961 . S
H549 C535 0.958 . S
H550 C535 0.961 . S
H551 C535 0.960 . S
C552 C553 1.391 . S
C552 C554 1.394 . S
C552 H568 0.931 . S
C553 C552 1.391 . S
C553 C557 1.376 . S
C554 C552 1.394 . S
C554 C555 1.369 . S
C554 C558 1.531 . S
C555 C554 1.369 . S
C555 C556 1.410 . S
C555 C563 1.503 1_554 S
C556 C555 1.410 . S
C556 C557 1.392 . S
C556 C559 1.511 . S
C557 C553 1.376 . S
C557 C556 1.392 . S
C557 H569 0.929 . S
C558 C554 1.531 . S
C558 H570 0.960 . S
C558 H571 0.962 . S
C558 H572 0.960 . S
C559 C556 1.511 . S
C559 H573 0.961 . S
C559 H574 0.961 1_554 S
C559 H575 0.961 . S
C560 C561 1.370 . S
C560 C562 1.363 . S
C560 H576 0.931 . S
C561 C560 1.370 . S
C561 C565 1.408 . S
C562 C560 1.363 . S
C562 C563 1.370 . S
C562 C566 1.524 . S
C563 C555 1.503 1_556 S
C563 C562 1.370 . S
C563 C564 1.403 . S
C564 C563 1.403 . S
C564 C565 1.404 . S
C564 C567 1.539 . S
C565 C561 1.408 . S
C565 C564 1.404 . S
C565 H577 0.930 . S
C566 C562 1.524 . S
C566 H578 0.956 1_556 S
C566 H579 0.961 1_556 S
C566 H580 0.961 . S
C567 C564 1.539 . S
C567 H581 0.958 . S
C567 H582 0.961 . S
C567 H583 0.960 1_556 S
H568 C552 0.931 . S
H569 C557 0.929 . S
H570 C558 0.960 . S
H571 C558 0.962 . S
H572 C558 0.960 . S
H573 C559 0.961 . S
H574 C559 0.961 1_556 S
H575 C559 0.961 . S
H576 C560 0.931 . S
H577 C565 0.930 . S
H578 C566 0.956 1_554 S
H579 C566 0.961 1_554 S
H580 C566 0.961 . S
H581 C567 0.958 . S
H582 C567 0.961 . S
H583 C567 0.960 1_554 S
C584 C585 1.391 . S
C584 C586 1.394 . S
C584 H600 0.931 . S
C585 C584 1.391 . S
C585 C589 1.376 . S
C586 C584 1.394 . S
C586 C587 1.369 . S
C586 C590 1.531 . S
C587 C586 1.369 . S
C587 C588 1.410 . S
C587 C595 1.503 . S
C588 C587 1.410 . S
C588 C589 1.392 . S
C588 C591 1.511 . S
C589 C585 1.376 . S
C589 C588 1.392 . S
C589 H601 0.929 . S
C590 C586 1.531 . S
C590 H602 0.960 . S
C590 H603 0.962 . S
C590 H604 0.960 . S
C591 C588 1.511 . S
C591 H605 0.961 . S
C591 H606 0.961 . S
C591 H607 0.961 . S
C592 C593 1.370 . S
C592 C594 1.363 . S
C592 H608 0.931 . S
C593 C592 1.370 . S
C593 C597 1.408 . S
C594 C592 1.363 . S
C594 C595 1.370 . S
C594 C598 1.524 . S
C595 C587 1.503 . S
C595 C594 1.370 . S
C595 C596 1.403 . S
C596 C595 1.403 . S
C596 C597 1.404 . S
C596 C599 1.539 . S
C597 C593 1.408 . S
C597 C596 1.404 . S
C597 H609 0.930 . S
C598 C594 1.524 . S
C598 H610 0.956 . S
C598 H611 0.961 . S
C598 H612 0.961 . S
C599 C596 1.539 . S
C599 H613 0.958 . S
C599 H614 0.961 . S
C599 H615 0.960 . S
H600 C584 0.931 . S
H601 C589 0.929 . S
H602 C590 0.960 . S
H603 C590 0.962 . S
H604 C590 0.960 . S
H605 C591 0.961 . S
H606 C591 0.961 . S
H607 C591 0.961 . S
H608 C592 0.931 . S
H609 C597 0.930 . S
H610 C598 0.956 . S
H611 C598 0.961 . S
H612 C598 0.961 . S
H613 C599 0.958 . S
H614 C599 0.961 . S
H615 C599 0.960 . S
C616 C617 1.391 . S
C616 C618 1.394 . S
C616 H632 0.931 . S
C617 C616 1.391 . S
C617 C621 1.376 . S
C618 C616 1.394 . S
C618 C619 1.369 . S
C618 C622 1.531 . S
C619 C618 1.369 . S
C619 C620 1.410 . S
C619 C627 1.503 . S
C620 C619 1.410 . S
C620 C621 1.392 . S
C620 C623 1.511 . S
C621 C617 1.376 . S
C621 C620 1.392 . S
C621 H633 0.929 . S
C622 C618 1.531 . S
C622 H634 0.960 . S
C622 H635 0.962 . S
C622 H636 0.960 . S
C623 C620 1.511 . S
C623 H637 0.961 . S
C623 H638 0.961 . S
C623 H639 0.961 . S
C624 C625 1.370 . S
C624 C626 1.363 . S
C624 H640 0.931 . S
C625 C624 1.370 . S
C625 C629 1.408 . S
C626 C624 1.363 . S
C626 C627 1.370 . S
C626 C630 1.524 . S
C627 C619 1.503 . S
C627 C626 1.370 . S
C627 C628 1.403 . S
C628 C627 1.403 . S
C628 C629 1.404 . S
C628 C631 1.539 . S
C629 C625 1.408 . S
C629 C628 1.404 . S
C629 H641 0.930 . S
C630 C626 1.524 . S
C630 H642 0.956 . S
C630 H643 0.961 . S
C630 H644 0.961 . S
C631 C628 1.539 . S
C631 H645 0.958 . S
C631 H646 0.961 . S
C631 H647 0.960 . S
H632 C616 0.931 . S
H633 C621 0.929 . S
H634 C622 0.960 . S
H635 C622 0.962 . S
H636 C622 0.960 . S
H637 C623 0.961 . S
H638 C623 0.961 . S
H639 C623 0.961 . S
H640 C624 0.931 . S
H641 C629 0.930 . S
H642 C630 0.956 . S
H643 C630 0.961 . S
H644 C630 0.961 . S
H645 C631 0.958 . S
H646 C631 0.961 . S
H647 C631 0.960 . S
C648 C649 1.391 . S
C648 C650 1.394 . S
C648 H664 0.931 . S
C649 C648 1.391 . S
C649 C653 1.376 . S
C650 C648 1.394 . S
C650 C651 1.369 . S
C650 C654 1.531 . S
C651 C650 1.369 . S
C651 C652 1.410 . S
C651 C659 1.503 . S
C652 C651 1.410 . S
C652 C653 1.392 . S
C652 C655 1.511 . S
C653 C649 1.376 . S
C653 C652 1.392 . S
C653 H665 0.929 . S
C654 C650 1.531 . S
C654 H666 0.960 . S
C654 H667 0.962 . S
C654 H668 0.960 . S
C655 C652 1.511 . S
C655 H669 0.961 . S
C655 H670 0.961 . S
C655 H671 0.961 1_556 S
C656 C657 1.370 . S
C656 C658 1.363 . S
C656 H672 0.931 . S
C657 C656 1.370 . S
C657 C661 1.408 . S
C658 C656 1.363 . S
C658 C659 1.370 . S
C658 C662 1.524 . S
C659 C651 1.503 . S
C659 C658 1.370 . S
C659 C660 1.403 . S
C660 C659 1.403 . S
C660 C661 1.404 . S
C660 C663 1.539 . S
C661 C657 1.408 . S
C661 C660 1.404 . S
C661 H673 0.930 . S
C662 C658 1.524 . S
C662 H674 0.956 . S
C662 H675 0.961 . S
C662 H676 0.961 . S
C663 C660 1.539 . S
C663 H677 0.958 . S
C663 H678 0.961 1_556 S
C663 H679 0.960 . S
H664 C648 0.931 . S
H665 C653 0.929 . S
H666 C654 0.960 . S
H667 C654 0.962 . S
H668 C654 0.960 . S
H669 C655 0.961 . S
H670 C655 0.961 . S
H671 C655 0.961 1_554 S
H672 C656 0.931 . S
H673 C661 0.930 . S
H674 C662 0.956 . S
H675 C662 0.961 . S
H676 C662 0.961 . S
H677 C663 0.958 . S
H678 C663 0.961 1_554 S
H679 C663 0.960 . S
C680 C681 1.391 . S
C680 C682 1.394 . S
C680 H696 0.931 . S
C681 C680 1.391 . S
C681 C685 1.376 . S
C682 C680 1.394 . S
C682 C683 1.369 . S
C682 C686 1.531 . S
C683 C682 1.369 . S
C683 C684 1.410 . S
C683 C691 1.503 . S
C684 C683 1.410 . S
C684 C685 1.392 . S
C684 C687 1.511 . S
C685 C681 1.376 . S
C685 C684 1.392 . S
C685 H697 0.929 . S
C686 C682 1.531 . S
C686 H698 0.960 . S
C686 H699 0.962 . S
C686 H700 0.960 . S
C687 C684 1.511 . S
C687 H701 0.961 . S
C687 H702 0.961 . S
C687 H703 0.961 . S
C688 C689 1.370 . S
C688 C690 1.363 . S
C688 H704 0.931 . S
C689 C688 1.370 . S
C689 C693 1.408 . S
C690 C688 1.363 . S
C690 C691 1.370 . S
C690 C694 1.524 . S
C691 C683 1.503 . S
C691 C690 1.370 . S
C691 C692 1.403 . S
C692 C691 1.403 . S
C692 C693 1.404 . S
C692 C695 1.539 1_554 S
C693 C689 1.408 . S
C693 C692 1.404 . S
C693 H705 0.930 1_554 S
C694 C690 1.524 . S
C694 H706 0.956 . S
C694 H707 0.961 . S
C694 H708 0.961 . S
C695 C692 1.539 1_556 S
C695 H709 0.958 . S
C695 H710 0.961 . S
C695 H711 0.960 . S
H696 C680 0.931 . S
H697 C685 0.929 . S
H698 C686 0.960 . S
H699 C686 0.962 . S
H700 C686 0.960 . S
H701 C687 0.961 . S
H702 C687 0.961 . S
H703 C687 0.961 . S
H704 C688 0.931 . S
H705 C693 0.930 1_556 S
H706 C694 0.956 . S
H707 C694 0.961 . S
H708 C694 0.961 . S
H709 C695 0.958 . S
H710 C695 0.961 . S
H711 C695 0.960 . S
C712 C713 1.391 . S
C712 C714 1.394 . S
C712 H728 0.931 . S
C713 C712 1.391 . S
C713 C717 1.376 . S
C714 C712 1.394 . S
C714 C715 1.369 . S
C714 C718 1.531 . S
C715 C714 1.369 . S
C715 C716 1.410 . S
C715 C723 1.503 . S
C716 C715 1.410 . S
C716 C717 1.392 . S
C716 C719 1.511 . S
C717 C713 1.376 . S
C717 C716 1.392 . S
C717 H729 0.929 . S
C718 C714 1.531 . S
C718 H730 0.960 . S
C718 H731 0.962 . S
C718 H732 0.960 . S
C719 C716 1.511 . S
C719 H733 0.961 . S
C719 H734 0.961 . S
C719 H735 0.961 . S
C720 C721 1.370 . S
C720 C722 1.363 . S
C720 H736 0.931 . S
C721 C720 1.370 . S
C721 C725 1.408 . S
C722 C720 1.363 . S
C722 C723 1.370 . S
C722 C726 1.524 . S
C723 C715 1.503 . S
C723 C722 1.370 . S
C723 C724 1.403 . S
C724 C723 1.403 . S
C724 C725 1.404 . S
C724 C727 1.539 . S
C725 C721 1.408 . S
C725 C724 1.404 . S
C725 H737 0.930 . S
C726 C722 1.524 . S
C726 H738 0.956 . S
C726 H739 0.961 . S
C726 H740 0.961 . S
C727 C724 1.539 . S
C727 H741 0.958 . S
C727 H742 0.961 . S
C727 H743 0.960 . S
H728 C712 0.931 . S
H729 C717 0.929 . S
H730 C718 0.960 . S
H731 C718 0.962 . S
H732 C718 0.960 . S
H733 C719 0.961 . S
H734 C719 0.961 . S
H735 C719 0.961 . S
H736 C720 0.931 . S
H737 C725 0.930 . S
H738 C726 0.956 . S
H739 C726 0.961 . S
H740 C726 0.961 . S
H741 C727 0.958 . S
H742 C727 0.961 . S
H743 C727 0.960 . S
C744 C745 1.391 . S
C744 C746 1.394 . S
C744 H760 0.931 . S
C745 C744 1.391 . S
C745 C749 1.376 . S
C746 C744 1.394 . S
C746 C747 1.369 . S
C746 C750 1.531 . S
C747 C746 1.369 . S
C747 C748 1.410 . S
C747 C755 1.503 . S
C748 C747 1.410 . S
C748 C749 1.392 . S
C748 C751 1.511 . S
C749 C745 1.376 . S
C749 C748 1.392 . S
C749 H761 0.929 . S
C750 C746 1.531 . S
C750 H762 0.960 . S
C750 H763 0.962 . S
C750 H764 0.960 . S
C751 C748 1.511 . S
C751 H765 0.961 . S
C751 H766 0.961 . S
C751 H767 0.961 . S
C752 C753 1.370 . S
C752 C754 1.363 . S
C752 H768 0.931 . S
C753 C752 1.370 . S
C753 C757 1.408 . S
C754 C752 1.363 . S
C754 C755 1.370 . S
C754 C758 1.524 . S
C755 C747 1.503 . S
C755 C754 1.370 . S
C755 C756 1.403 . S
C756 C755 1.403 . S
C756 C757 1.404 . S
C756 C759 1.539 . S
C757 C753 1.408 . S
C757 C756 1.404 . S
C757 H769 0.930 . S
C758 C754 1.524 . S
C758 H770 0.956 . S
C758 H771 0.961 . S
C758 H772 0.961 . S
C759 C756 1.539 . S
C759 H773 0.958 . S
C759 H774 0.961 . S
C759 H775 0.960 . S
H760 C744 0.931 . S
H761 C749 0.929 . S
H762 C750 0.960 . S
H763 C750 0.962 . S
H764 C750 0.960 . S
H765 C751 0.961 . S
H766 C751 0.961 . S
H767 C751 0.961 . S
H768 C752 0.931 . S
H769 C757 0.930 . S
H770 C758 0.956 . S
H771 C758 0.961 . S
H772 C758 0.961 . S
H773 C759 0.958 . S
H774 C759 0.961 . S
H775 C759 0.960 . S
C776 C777 1.391 . S
C776 C778 1.394 . S
C776 H792 0.931 . S
C777 C776 1.391 . S
C777 C781 1.376 . S
C778 C776 1.394 . S
C778 C779 1.369 . S
C778 C782 1.531 . S
C779 C778 1.369 . S
C779 C780 1.410 . S
C779 C787 1.503 . S
C780 C779 1.410 . S
C780 C781 1.392 . S
C780 C783 1.511 . S
C781 C777 1.376 . S
C781 C780 1.392 . S
C781 H793 0.929 . S
C782 C778 1.531 . S
C782 H794 0.960 . S
C782 H795 0.962 . S
C782 H796 0.960 . S
C783 C780 1.511 . S
C783 H797 0.961 . S
C783 H798 0.961 . S
C783 H799 0.961 . S
C784 C785 1.370 . S
C784 C786 1.363 . S
C784 H800 0.931 . S
C785 C784 1.370 . S
C785 C789 1.408 . S
C786 C784 1.363 . S
C786 C787 1.370 . S
C786 C790 1.524 . S
C787 C779 1.503 . S
C787 C786 1.370 . S
C787 C788 1.403 . S
C788 C787 1.403 . S
C788 C789 1.404 . S
C788 C791 1.539 . S
C789 C785 1.408 . S
C789 C788 1.404 . S
C789 H801 0.930 . S
C790 C786 1.524 . S
C790 H802 0.956 . S
C790 H803 0.961 . S
C790 H804 0.961 . S
C791 C788 1.539 . S
C791 H805 0.958 . S
C791 H806 0.961 . S
C791 H807 0.960 . S
H792 C776 0.931 . S
H793 C781 0.929 . S
H794 C782 0.960 . S
H795 C782 0.962 . S
H796 C782 0.960 . S
H797 C783 0.961 . S
H798 C783 0.961 . S
H799 C783 0.961 . S
H800 C784 0.931 . S
H801 C789 0.930 . S
H802 C790 0.956 . S
H803 C790 0.961 . S
H804 C790 0.961 . S
H805 C791 0.958 . S
H806 C791 0.961 . S
H807 C791 0.960 . S
C808 C809 1.391 . S
C808 C810 1.394 . S
C808 H824 0.931 . S
C809 C808 1.391 . S
C809 C813 1.376 . S
C810 C808 1.394 . S
C810 C811 1.369 . S
C810 C814 1.531 . S
C811 C810 1.369 . S
C811 C812 1.410 . S
C811 C819 1.503 . S
C812 C811 1.410 . S
C812 C813 1.392 . S
C812 C815 1.511 . S
C813 C809 1.376 . S
C813 C812 1.392 . S
C813 H825 0.929 . S
C814 C810 1.531 . S
C814 H826 0.960 . S
C814 H827 0.962 . S
C814 H828 0.960 . S
C815 C812 1.511 . S
C815 H829 0.961 . S
C815 H830 0.961 . S
C815 H831 0.961 . S
C816 C817 1.370 . S
C816 C818 1.363 . S
C816 H832 0.931 . S
C817 C816 1.370 . S
C817 C821 1.408 . S
C818 C816 1.363 . S
C818 C819 1.370 . S
C818 C822 1.524 . S
C819 C811 1.503 . S
C819 C818 1.370 . S
C819 C820 1.403 . S
C820 C819 1.403 . S
C820 C821 1.404 . S
C820 C823 1.539 . S
C821 C817 1.408 . S
C821 C820 1.404 . S
C821 H833 0.930 . S
C822 C818 1.524 . S
C822 H834 0.956 . S
C822 H835 0.961 . S
C822 H836 0.961 . S
C823 C820 1.539 . S
C823 H837 0.958 . S
C823 H838 0.961 . S
C823 H839 0.960 . S
H824 C808 0.931 . S
H825 C813 0.929 . S
H826 C814 0.960 . S
H827 C814 0.962 . S
H828 C814 0.960 . S
H829 C815 0.961 . S
H830 C815 0.961 . S
H831 C815 0.961 . S
H832 C816 0.931 . S
H833 C821 0.930 . S
H834 C822 0.956 . S
H835 C822 0.961 . S
H836 C822 0.961 . S
H837 C823 0.958 . S
H838 C823 0.961 . S
H839 C823 0.960 . S
C840 C841 1.391 . S
C840 C842 1.394 . S
C840 H856 0.931 . S
C841 C840 1.391 . S
C841 C845 1.376 . S
C842 C840 1.394 . S
C842 C843 1.369 . S
C842 C846 1.531 . S
C843 C842 1.369 . S
C843 C844 1.410 . S
C843 C851 1.503 . S
C844 C843 1.410 . S
C844 C845 1.392 . S
C844 C847 1.510 1_556 S
C845 C841 1.376 . S
C845 C844 1.392 . S
C845 H857 0.929 1_556 S
C846 C842 1.531 . S
C846 H858 0.960 . S
C846 H859 0.962 . S
C846 H860 0.960 . S
C847 C844 1.510 1_554 S
C847 H861 0.962 . S
C847 H862 0.959 1_554 S
C847 H863 0.963 . S
C848 C849 1.370 . S
C848 C850 1.363 . S
C848 H864 0.931 . S
C849 C848 1.370 . S
C849 C853 1.408 . S
C850 C848 1.363 . S
C850 C851 1.370 . S
C850 C854 1.524 . S
C851 C843 1.503 . S
C851 C850 1.370 . S
C851 C852 1.403 . S
C852 C851 1.403 . S
C852 C853 1.404 . S
C852 C855 1.539 . S
C853 C849 1.408 . S
C853 C852 1.404 . S
C853 H865 0.930 . S
C854 C850 1.524 . S
C854 H866 0.956 . S
C854 H867 0.961 . S
C854 H868 0.961 . S
C855 C852 1.539 . S
C855 H869 0.958 . S
C855 H870 0.961 . S
C855 H871 0.960 . S
H856 C840 0.931 . S
H857 C845 0.929 1_554 S
H858 C846 0.960 . S
H859 C846 0.962 . S
H860 C846 0.960 . S
H861 C847 0.962 . S
H862 C847 0.959 1_556 S
H863 C847 0.963 . S
H864 C848 0.931 . S
H865 C853 0.930 . S
H866 C854 0.956 . S
H867 C854 0.961 . S
H868 C854 0.961 . S
H869 C855 0.958 . S
H870 C855 0.961 . S
H871 C855 0.960 . S
C872 C873 1.391 . S
C872 C874 1.394 . S
C872 H888 0.931 . S
C873 C872 1.391 . S
C873 C877 1.376 . S
C874 C872 1.394 . S
C874 C875 1.369 . S
C874 C878 1.531 . S
C875 C874 1.369 . S
C875 C876 1.410 . S
C875 C883 1.503 . S
C876 C875 1.410 . S
C876 C877 1.392 . S
C876 C879 1.511 . S
C877 C873 1.376 . S
C877 C876 1.392 . S
C877 H889 0.929 . S
C878 C874 1.531 . S
C878 H890 0.960 . S
C878 H891 0.962 . S
C878 H892 0.960 . S
C879 C876 1.511 . S
C879 H893 0.961 . S
C879 H894 0.961 . S
C879 H895 0.961 . S
C880 C881 1.370 . S
C880 C882 1.363 . S
C880 H896 0.931 . S
C881 C880 1.370 . S
C881 C885 1.408 . S
C882 C880 1.363 . S
C882 C883 1.370 . S
C882 C886 1.524 . S
C883 C875 1.503 . S
C883 C882 1.370 . S
C883 C884 1.403 . S
C884 C883 1.403 . S
C884 C885 1.404 . S
C884 C887 1.539 . S
C885 C881 1.408 . S
C885 C884 1.404 . S
C885 H897 0.930 . S
C886 C882 1.524 . S
C886 H898 0.956 . S
C886 H899 0.959 1_554 S
C886 H900 0.961 1_554 S
C887 C884 1.539 . S
C887 H901 0.958 . S
C887 H902 0.961 . S
C887 H903 0.960 . S
H888 C872 0.931 . S
H889 C877 0.929 . S
H890 C878 0.960 . S
H891 C878 0.962 . S
H892 C878 0.960 . S
H893 C879 0.961 . S
H894 C879 0.961 . S
H895 C879 0.961 . S
H896 C880 0.931 . S
H897 C885 0.930 . S
H898 C886 0.956 . S
H899 C886 0.959 1_556 S
H900 C886 0.961 1_556 S
H901 C887 0.958 . S
H902 C887 0.961 . S
H903 C887 0.960 . S
C265 C248 1.247 . S
C273 C17 1.249 . S
C297 C149 1.239 . S
C305 C50 1.238 . S
C329 C182 1.217 . S
C337 C83 1.221 . S
C361 C215 1.241 . S
C369 C116 1.232 . S
C393 N5 1.421 . S
C401 N14 1.412 . S
C425 N47 1.415 1_556 S
C433 N38 1.419 . S
C457 N71 1.401 . S
C465 N80 1.422 . S
C489 N113 1.427 1_554 S
C497 N104 1.414 . S
C521 N146 1.390 1_556 S
C529 N137 1.427 . S
C553 N179 1.387 . S
C561 N170 1.422 . S
C585 N212 1.429 . S
C593 N203 1.414 1_554 S
C617 N245 1.429 . S
C625 N236 1.420 . S
C649 C226 1.364 . S
C657 C8 1.365 . S
C681 C41 1.370 . S
C689 C259 1.373 . S
C713 C160 1.350 . S
C721 C74 1.351 . S
C745 C127 1.296 . S
C753 C193 1.307 . S
C777 C173 1.325 . S
C785 C61 1.317 . S
C809 C94 1.306 . S
C817 C206 1.332 . S
C841 C239 1.364 . S
C849 C107 1.365 . S
C873 C28 1.332 . S
C881 C140 1.352 . S
