# Generated by pormake.
# Topology bcg, (8)-cn, num edge types: 1
# Building blocks:
#     Node 0, Type 0, BuildingBlock: NUHRAL_clean_sbu_3, # of connection points: 8
#     Node 1, Type 0, BuildingBlock: NUHRAL_clean_sbu_3, # of connection points: 8
#     Node 2, Type 0, BuildingBlock: NUHRAL_clean_sbu_3, # of connection points: 8
#     Node 3, Type 0, BuildingBlock: NUHRAL_clean_sbu_3, # of connection points: 8
#     Edge 4, Type (0, 0), BuildingBlock: FUNLAD_clean_linker_1, # of connection points: 2
#     Edge 5, Type (0, 0), BuildingBlock: FUNLAD_clean_linker_1, # of connection points: 2
#     Edge 6, Type (0, 0), BuildingBlock: FUNLAD_clean_linker_1, # of connection points: 2
#     Edge 7, Type (0, 0), BuildingBlock: FUNLAD_clean_linker_1, # of connection points: 2
#     Edge 8, Type (0, 0), BuildingBlock: FUNLAD_clean_linker_1, # of connection points: 2
#     Edge 9, Type (0, 0), BuildingBlock: FUNLAD_clean_linker_1, # of connection points: 2
#     Edge 10, Type (0, 0), BuildingBlock: FUNLAD_clean_linker_1, # of connection points: 2
#     Edge 11, Type (0, 0), BuildingBlock: FUNLAD_clean_linker_1, # of connection points: 2
#     Edge 12, Type (0, 0), BuildingBlock: FUNLAD_clean_linker_1, # of connection points: 2
#     Edge 13, Type (0, 0), BuildingBlock: FUNLAD_clean_linker_1, # of connection points: 2
#     Edge 14, Type (0, 0), BuildingBlock: FUNLAD_clean_linker_1, # of connection points: 2
#     Edge 15, Type (0, 0), BuildingBlock: FUNLAD_clean_linker_1, # of connection points: 2
#     Edge 16, Type (0, 0), BuildingBlock: FUNLAD_clean_linker_1, # of connection points: 2
#     Edge 17, Type (0, 0), BuildingBlock: FUNLAD_clean_linker_1, # of connection points: 2
#     Edge 18, Type (0, 0), BuildingBlock: FUNLAD_clean_linker_1, # of connection points: 2
#     Edge 19, Type (0, 0), BuildingBlock: FUNLAD_clean_linker_1, # of connection points: 2
# Relax obj value: 0.163
# Max RMSD: 0.230
# Mean RMSD: 0.230
data_MOF--net-bcg--node1-NUHRAL_clean_sbu_3--edge1-FUNLAD_clean_linker_1
_symmetry_space_group_name_H-M    P1
_symmetry_Int_Tables_number       1
_symmetry_cell_setting            triclinic
loop_
_symmetry_equiv_pos_as_xyz
'x, y, z'
_cell_length_a     22.497926
_cell_length_b     18.584118
_cell_length_c     34.290064
_cell_angle_alpha  81.118173
_cell_angle_beta   89.977215
_cell_angle_gamma 91.224791
loop_
_atom_site_label
_atom_site_type_symbol
_atom_site_fract_x
_atom_site_fract_y
_atom_site_fract_z
_atom_type_partial_charge
C0 C 0.08344 0.36668 0.05627 0.0
C1 C 0.0372 0.33819 0.03547 0.0
C2 C 0.98339 0.31578 0.05461 0.0
C3 C 0.97554 0.32366 0.09436 0.0
C4 C 1.02077 0.35496 0.11506 0.0
C5 C 0.07507 0.375 0.09586 0.0
O6 O 0.23778 0.26338 0.97828 0.0
Tb7 Tb 0.19921 0.36968 0.97746 0.0
O8 O 0.14514 0.36092 0.92607 0.0
O9 O 0.2623 0.16282 0.01873 0.0
Eu10 Eu 0.35507 0.21702 0.01644 0.0
O11 O 0.14284 0.43413 0.00547 0.0
C12 C 0.41314 0.19198 0.95454 0.0
O13 O 0.1764 0.33018 0.036 0.0
O14 O 0.31311 0.32778 0.01114 0.0
O15 O 0.28413 0.42992 0.97395 0.0
C16 C 0.14169 0.38552 0.03788 0.0
C17 C 0.38189 0.1572 0.1039 0.0
O18 O 0.33199 0.12214 0.0986 0.0
C19 C 0.22016 0.20262 1.00005 0.0
C20 C 0.32834 0.39134 0.99074 0.0
O21 O 0.40588 0.20028 0.07376 0.0
C22 C 0.47228 0.17439 0.94079 0.0
C23 C 0.53698 0.15524 0.88614 0.0
C24 C 0.48059 0.16913 0.90066 0.0
C25 C 0.52071 0.1654 0.96673 0.0
C26 C 0.57751 0.15412 0.9523 0.0
C27 C 0.58539 0.14907 0.91225 0.0
C28 C 0.15494 0.40404 0.89256 0.0
O29 O 0.19446 0.45751 0.89106 0.0
O30 O 0.38505 0.14067 0.97886 0.0
O31 O 0.40716 0.25754 0.96386 0.0
H32 H 0.04349 0.33217 0.00479 0.0
H33 H 0.93383 0.30581 0.10876 0.0
H34 H 0.11096 0.39736 0.11174 0.0
H35 H 0.44309 0.17615 0.88066 0.0
H36 H 0.51469 0.17029 0.99759 0.0
H37 H 0.62988 0.14224 0.90155 0.0
C38 C 0.55277 0.90487 0.0713 0.0
C39 C 0.5033 0.86471 0.06047 0.0
C40 C 0.45405 0.84914 0.08604 0.0
C41 C 0.45605 0.87175 0.12331 0.0
C42 C 0.50559 0.91095 0.13491 0.0
C43 C 0.55316 0.92802 0.10839 0.0
O44 O 0.7143 0.77208 0.03497 0.0
Tb45 Tb 0.6882 0.88194 0.00913 0.0
O46 O 0.67521 0.86846 0.94782 0.0
O47 O 0.75663 0.68569 0.00365 0.0
Eu48 Eu 0.84885 0.73893 0.00462 0.0
O49 O 0.59849 0.90925 0.008 0.0
C50 C 0.91404 0.72719 0.94379 0.0
O51 O 0.65615 0.9278 0.05705 0.0
O52 O 0.80062 0.84365 0.99832 0.0
O53 O 0.76824 0.95174 0.00351 0.0
C54 C 0.60168 0.92933 0.04302 0.0
C55 C 0.92938 0.74246 0.0793 0.0
O56 O 0.94741 0.8053 0.05947 0.0
C57 C 0.70849 0.71603 0.01579 0.0
C58 C 0.81467 0.91141 1.00093 0.0
O59 O 0.89057 0.70184 0.06358 0.0
C60 C 0.97186 0.70379 0.93065 0.0
C61 C 0.02964 0.66509 0.87786 0.0
C62 C 0.97544 0.68449 0.89284 0.0
C63 C 1.02347 0.70488 0.95372 0.0
C64 C 0.07903 0.68742 0.93873 0.0
C65 C 0.08113 0.66638 0.90103 0.0
C66 C 0.64442 0.91287 0.92236 0.0
O67 O 0.62134 0.97151 0.93269 0.0
O68 O 0.87602 0.67585 0.95941 0.0
O69 O 0.914 0.78602 0.96088 0.0
H70 H 0.50308 0.84662 0.03198 0.0
H71 H 0.41754 0.86112 0.1424 0.0
H72 H 0.59059 0.9603 0.11653 0.0
H73 H 0.93582 0.68536 0.87474 0.0
H74 H 1.01975 0.72077 0.98263 0.0
H75 H 0.12369 0.65464 0.88888 0.0
C76 C 0.07777 0.66639 0.44041 0.0
C77 C 1.02482 0.6674 0.46194 0.0
C78 C 0.9705 0.68008 0.44202 0.0
C79 C 0.96954 0.6893 0.40048 0.0
C80 C 1.02234 0.68723 0.37873 0.0
C81 C 0.0762 0.67665 0.39908 0.0
O82 O 0.23587 0.75345 0.53328 0.0
Tb83 Tb 0.19219 0.65209 0.52286 0.0
O84 O 0.13953 0.62867 0.57645 0.0
O85 O 0.26584 0.86411 0.50306 0.0
Eu86 Eu 0.35603 0.81223 0.49889 0.0
O87 O 0.14452 0.59592 0.48409 0.0
C88 C 0.41427 0.80938 0.56427 0.0
O89 O 0.16056 0.71443 0.47132 0.0
O90 O 0.30706 0.70888 0.49043 0.0
O91 O 0.27707 0.5979 0.51858 0.0
C92 C 0.13608 0.65672 0.45953 0.0
C93 C 0.42295 0.90507 0.426 0.0
O94 O 0.40226 0.96113 0.44044 0.0
C95 C 0.22183 0.81987 0.51771 0.0
C96 C 0.32119 0.64189 0.50424 0.0
O97 O 0.41245 0.83869 0.44431 0.0
C98 C 0.47431 0.8176 0.58015 0.0
C99 C 0.53603 0.84829 0.63386 0.0
C100 C 0.47988 0.83902 0.61745 0.0
C101 C 0.52555 0.80595 0.55874 0.0
C102 C 0.5822 0.81709 0.57447 0.0
C103 C 0.58707 0.83865 0.61182 0.0
C104 C 0.13067 0.56202 0.59511 0.0
O105 O 0.14928 0.50653 0.57931 0.0
O106 O 0.39073 0.86887 0.54516 0.0
O107 O 0.40274 0.7507 0.54823 0.0
H108 H 0.0261 0.66021 0.49391 0.0
H109 H 0.92766 0.69887 0.38533 0.0
H110 H 0.11736 0.67624 0.38261 0.0
H111 H 0.44024 0.84775 0.63399 0.0
H112 H 0.5213 0.79031 0.52968 0.0
H113 H 0.63078 0.84815 0.62358 0.0
C114 C 0.6 0.17791 0.44692 0.0
C115 C 0.54748 0.18579 0.46827 0.0
C116 C 0.4927 0.19871 0.44857 0.0
C117 C 0.49168 0.20515 0.4071 0.0
C118 C 0.5434 0.19639 0.38548 0.0
C119 C 0.59743 0.18405 0.40557 0.0
O120 O 0.7123 0.28559 0.53958 0.0
Tb121 Tb 0.72181 0.17761 0.52403 0.0
O122 O 0.67923 0.13942 0.58058 0.0
O123 O 0.73718 0.35384 0.48055 0.0
Eu124 Eu 0.82693 0.30259 0.47848 0.0
O125 O 0.65573 0.11537 0.50102 0.0
C126 C 0.89716 0.33135 0.53448 0.0
O127 O 0.69919 0.20967 0.4645 0.0
O128 O 0.83922 0.18901 0.46554 0.0
O129 O 0.80811 0.1254 0.52475 0.0
C130 C 0.65748 0.15827 0.46661 0.0
C131 C 0.82734 0.35487 0.38809 0.0
O132 O 0.7704 0.34009 0.39383 0.0
C133 C 0.70458 0.34295 0.51281 0.0
C134 C 0.84345 0.13297 0.49365 0.0
O135 O 0.86338 0.34735 0.41848 0.0
C136 C 0.95566 0.31784 0.55356 0.0
C137 C 1.01849 0.3292 0.61025 0.0
C138 C 0.96336 0.33654 0.59133 0.0
C139 C 1.00422 0.29151 0.53433 0.0
C140 C 0.06067 0.28475 0.55254 0.0
C141 C 0.06688 0.30405 0.59059 0.0
C142 C 0.70683 0.09588 0.60826 0.0
O143 O 0.7581 0.06904 0.60024 0.0
O144 O 0.89653 0.37027 0.49903 0.0
O145 O 0.85695 0.27817 0.53957 0.0
H146 H 0.54906 0.18076 0.50017 0.0
H147 H 0.45105 0.21929 0.39119 0.0
H148 H 0.63746 0.1772 0.389 0.0
H149 H 0.9263 0.35783 0.60594 0.0
H150 H 0.99839 0.27815 0.50488 0.0
H151 H 0.10965 0.30309 0.6047 0.0
H152 H 0.63134 0.11186 0.00475 0.0
C153 C 0.62984 0.15233 0.97828 0.0
H154 H 0.67157 0.24101 0.94257 0.0
H155 H 0.83109 0.22326 0.10742 0.0
H156 H 0.73912 0.22891 0.14304 0.0
H157 H 0.64255 0.22555 0.10938 0.0
H158 H 0.63759 0.21536 0.04015 0.0
C159 C 0.67467 0.20095 0.96917 0.0
C160 C 0.73183 0.19869 0.99114 0.0
C161 C 0.73377 0.20712 0.0316 0.0
C162 C 0.78964 0.21181 0.05067 0.0
C163 C 0.79028 0.21958 0.09119 0.0
C164 C 0.73766 0.22322 0.1121 0.0
C165 C 0.68331 0.22114 0.09318 0.0
C166 C 0.68114 0.21418 0.05336 0.0
H167 H 0.92302 0.31958 0.00373 0.0
C168 C 0.93378 0.28873 0.03233 0.0
H169 H 0.91247 0.19888 0.07555 0.0
H170 H 0.74398 0.17468 0.91455 0.0
H171 H 0.83615 0.17082 0.87857 0.0
H172 H 0.93275 0.184 0.91096 0.0
H173 H 0.93764 0.19808 0.97992 0.0
C174 C 0.90059 0.22987 0.04725 0.0
C175 C 0.84328 0.21214 0.02873 0.0
C176 C 0.84128 0.2009 0.98875 0.0
C177 C 0.78555 0.19388 0.97003 0.0
C178 C 0.78493 0.18213 0.93011 0.0
C179 C 0.83757 0.17922 0.90911 0.0
C180 C 0.89192 0.18652 0.92736 0.0
C181 C 0.89405 0.19585 0.96685 0.0
H182 H 0.17679 0.68025 0.9451 0.0
C183 C 0.13674 0.69517 0.95949 0.0
H184 H 0.1059 0.74434 0.00734 0.0
H185 H 0.38961 0.67047 0.05344 0.0
H186 H 0.35869 0.543 0.06186 0.0
H187 H 0.25689 0.5069 0.04504 0.0
H188 H 0.185 0.59813 0.01995 0.0
C189 C 0.14367 0.72531 0.99253 0.0
C190 C 0.20416 0.74581 0.00573 0.0
C191 C 0.24531 0.69181 0.02102 0.0
C192 C 0.30383 0.71266 0.03146 0.0
C193 C 0.34438 0.65766 0.04575 0.0
C194 C 0.32727 0.58431 0.05059 0.0
C195 C 0.26992 0.56399 0.04109 0.0
C196 C 0.2292 0.61687 0.02651 0.0
H197 H 0.36702 0.79139 0.09786 0.0
C198 C 0.39854 0.81228 0.07456 0.0
H199 H 0.40992 0.8357 0.01254 0.0
H200 H 0.13628 0.86352 0.97802 0.0
H201 H 0.16656 0.99029 0.97173 0.0
H202 H 0.26694 0.02655 0.99098 0.0
H203 H 0.33826 0.93546 0.01662 0.0
C204 C 0.38219 0.81048 0.03695 0.0
C205 C 0.32078 0.78742 0.02718 0.0
C206 C 0.2793 0.84134 0.01269 0.0
C207 C 0.22101 0.82057 0.00202 0.0
C208 C 0.18093 0.87583 0.98707 0.0
C209 C 0.19769 0.9491 0.98322 0.0
C210 C 0.25429 0.96943 0.99403 0.0
C211 C 0.29481 0.91648 0.00862 0.0
H212 H 0.67378 0.84747 0.55459 0.0
C213 C 0.63735 0.80899 0.55223 0.0
H214 H 0.61013 0.71342 0.53081 0.0
H215 H 0.80036 0.71461 0.39692 0.0
H216 H 0.70748 0.71365 0.36145 0.0
H217 H 0.61205 0.72738 0.3946 0.0
H218 H 0.60885 0.74074 0.46363 0.0
C219 C 0.64617 0.75225 0.53306 0.0
C220 C 0.70416 0.74228 0.51349 0.0
C221 C 0.70529 0.73574 0.47283 0.0
C222 C 0.76058 0.7304 0.45335 0.0
C223 C 0.76003 0.72117 0.41306 0.0
C224 C 0.70691 0.7201 0.39229 0.0
C225 C 0.65318 0.72766 0.41097 0.0
C226 C 0.65206 0.73522 0.45074 0.0
H227 H 0.90969 0.64739 0.49283 0.0
C228 C 0.91489 0.6835 0.46487 0.0
H229 H 0.8782 0.76848 0.42505 0.0
H230 H 0.71869 0.73244 0.59375 0.0
H231 H 0.81144 0.74728 0.62793 0.0
H232 H 0.9064 0.76506 0.59127 0.0
H233 H 0.90936 0.76364 0.5208 0.0
C234 C 0.87238 0.7318 0.45268 0.0
C235 C 0.81491 0.73474 0.47411 0.0
C236 C 0.81371 0.74348 0.51451 0.0
C237 C 0.75841 0.74194 0.53479 0.0
C238 C 0.75897 0.74012 0.57625 0.0
C239 C 0.81198 0.74768 0.59633 0.0
C240 C 0.86545 0.75709 0.57576 0.0
C241 C 0.86659 0.75515 0.53533 0.0
H242 H 0.10531 0.25386 0.49976 0.0
C243 C 0.11274 0.26212 0.5301 0.0
H244 H 0.17831 0.25873 0.57498 0.0
H245 H 0.378 0.08238 0.5112 0.0
H246 H 0.3425 0.99728 0.56768 0.0
H247 H 0.25144 0.02118 0.60316 0.0
H248 H 0.19509 0.1302 0.58232 0.0
C249 C 0.16874 0.25467 0.5445 0.0
C250 C 0.22103 0.23796 0.52061 0.0
C251 C 0.25403 0.17423 0.53325 0.0
C252 C 0.30695 0.16059 0.51294 0.0
C253 C 0.3381 0.09588 0.52588 0.0
C254 C 0.31809 0.04641 0.55815 0.0
C255 C 0.2668 0.05987 0.57813 0.0
C256 C 0.23494 0.12279 0.56592 0.0
H257 H 0.44221 0.22191 0.50092 0.0
C258 C 0.43737 0.2071 0.47161 0.0
H259 H 0.3752 0.17955 0.4294 0.0
H260 H 0.17444 0.37096 0.49127 0.0
H261 H 0.20805 0.45302 0.43347 0.0
H262 H 0.29444 0.42382 0.39505 0.0
H263 H 0.3494 0.31327 0.41534 0.0
C264 C 0.38195 0.19647 0.45797 0.0
C265 C 0.32713 0.2107 0.47997 0.0
C266 C 0.29341 0.27336 0.46664 0.0
C267 C 0.24146 0.28824 0.4876 0.0
C268 C 0.21213 0.35465 0.47545 0.0
C269 C 0.23131 0.40279 0.44243 0.0
C270 C 0.28014 0.38649 0.42091 0.0
C271 C 0.31122 0.32288 0.43287 0.0
H272 H 0.61028 0.7139 0.01935 0.0
C273 C 0.64825 0.68614 0.00951 0.0
H274 H 0.67656 0.59507 0.98484 0.0
H275 H 0.43019 0.44054 0.05664 0.0
H276 H 0.49091 0.41025 0.11459 0.0
H277 H 0.59288 0.46074 0.11696 0.0
H278 H 0.63404 0.54335 0.06138 0.0
C279 C 0.63918 0.62436 0.9942 0.0
C280 C 0.57839 0.59142 0.99176 0.0
C281 C 0.5557 0.54056 0.02367 0.0
C282 C 0.49783 0.50856 0.02146 0.0
C283 C 0.47492 0.46293 0.05533 0.0
C284 C 0.50913 0.44578 0.0892 0.0
C285 C 0.56644 0.47439 0.09059 0.0
C286 C 0.58953 0.52164 0.05843 0.0
H287 H 0.42607 0.38149 0.99642 0.0
C288 C 0.39046 0.41965 0.98888 0.0
H289 H 0.3665 0.52965 0.97623 0.0
H290 H 0.60774 0.68855 0.92616 0.0
H291 H 0.5483 0.71797 0.86705 0.0
H292 H 0.4503 0.65837 0.86141 0.0
H293 H 0.41102 0.56927 0.91476 0.0
C294 C 0.40263 0.49194 0.98322 0.0
C295 C 0.46385 0.52432 0.98623 0.0
C296 C 0.48672 0.57574 0.9544 0.0
C297 C 0.5437 0.60957 0.95734 0.0
C298 C 0.56495 0.66109 0.92532 0.0
C299 C 0.53127 0.67853 0.89124 0.0
C300 C 0.47609 0.64501 0.88809 0.0
C301 C 0.45395 0.59407 0.9191 0.0
H302 H 0.6276 0.3754 0.54491 0.0
C303 C 0.65443 0.39009 0.51836 0.0
H304 H 0.66172 0.45809 0.46323 0.0
H305 H 0.38347 0.49407 0.44917 0.0
H306 H 0.4057 0.42797 0.39527 0.0
H307 H 0.50513 0.37889 0.38804 0.0
H308 H 0.58462 0.40014 0.43271 0.0
C309 C 0.63709 0.44472 0.49076 0.0
C310 C 0.57802 0.47799 0.49428 0.0
C311 C 0.53154 0.46319 0.46858 0.0
C312 C 0.47332 0.48847 0.47396 0.0
C313 C 0.42823 0.47478 0.44704 0.0
C314 C 0.44018 0.43657 0.41611 0.0
C315 C 0.49639 0.40947 0.41179 0.0
C316 C 0.54168 0.42228 0.43765 0.0
H317 H 0.41742 0.66065 0.49416 0.0
C318 C 0.38362 0.61922 0.50416 0.0
H319 H 0.3654 0.50671 0.5197 0.0
H320 H 0.65876 0.5245 0.54505 0.0
H321 H 0.63769 0.59221 0.59847 0.0
H322 H 0.53564 0.63014 0.61029 0.0
H323 H 0.4541 0.60048 0.56894 0.0
C324 C 0.39923 0.54925 0.51227 0.0
C325 C 0.4613 0.52715 0.50559 0.0
C326 C 0.50821 0.54368 0.53068 0.0
C327 C 0.56681 0.52003 0.52459 0.0
C328 C 0.61315 0.53903 0.54926 0.0
C329 C 0.6017 0.57807 0.57992 0.0
C330 C 0.54427 0.59965 0.58648 0.0
C331 C 0.4979 0.58269 0.56232 0.0
H332 H 0.1247 0.22118 0.98844 0.0
C333 C 0.15598 0.18201 0.0029 0.0
H334 H 0.16625 0.07521 0.03309 0.0
H335 H 0.89617 0.01864 0.08302 0.0
H336 H 0.93526 0.05134 0.14397 0.0
H337 H 0.03664 0.10341 0.14673 0.0
H338 H 0.09997 0.12257 0.0885 0.0
C339 C 0.13572 0.11507 0.01845 0.0
C340 C 0.07172 0.0921 0.01536 0.0
C341 C 0.03502 0.08115 0.04948 0.0
C342 C 0.97598 0.05226 0.04769 0.0
C343 C 0.94092 0.04128 0.0825 0.0
C344 C 0.96287 0.0596 0.11775 0.0
C345 C 1.02 0.08886 0.1193 0.0
C346 C 0.05592 0.0994 0.08571 0.0
H347 H 0.91249 0.9023 0.99839 0.0
C348 C 0.87687 0.93851 0.00303 0.0
H349 H 0.85507 0.04203 0.01598 0.0
H350 H 0.1277 0.11115 0.94334 0.0
H351 H 0.08703 0.08442 0.88178 0.0
H352 H 0.98493 0.0348 0.87864 0.0
H353 H 0.92278 1.01236 0.93697 0.0
C354 C 0.89043 1.00641 0.00988 0.0
C355 C 0.95333 0.03411 0.01172 0.0
C356 C 0.98943 0.04705 0.97723 0.0
C357 C 0.04836 0.07643 0.97899 0.0
C358 C 0.08275 0.08935 0.94389 0.0
C359 C 0.05998 0.07409 0.90825 0.0
C360 C 1.00259 0.04595 0.90651 0.0
C361 C 0.96751 0.0327 0.94041 0.0
H362 H 0.92252 0.09632 0.4654 0.0
C363 C 0.8934 0.08366 0.49098 0.0
H364 H 0.88062 0.0176 0.54624 0.0
H365 H 0.09293 0.86471 0.44826 0.0
H366 H 1.0159 0.84571 0.40124 0.0
H367 H 0.91479 0.89112 0.40807 0.0
H368 H 0.8896 0.95404 0.46257 0.0
C369 C 0.90765 0.02911 0.51965 0.0
C370 C 0.96595 0.99231 0.51841 0.0
C371 C 0.9789 0.95097 0.488 0.0
C372 C 0.03707 0.92367 0.48445 0.0
C373 C 0.04938 0.88564 0.45273 0.0
C374 C 1.00557 0.87436 0.4255 0.0
C375 C 0.94861 0.89982 0.42938 0.0
C376 C 0.93494 0.93674 0.46051 0.0
H377 H 0.12499 0.80151 0.52611 0.0
C378 C 0.15921 0.84257 0.5164 0.0
H379 H 0.17823 0.95469 0.49971 0.0
H380 H 0.9564 0.06819 0.58062 0.0
H381 H 0.03292 0.0852 0.6282 0.0
H382 H 0.13173 0.03187 0.62421 0.0
H383 H 0.1554 0.96355 0.57157 0.0
C384 C 0.14402 0.91259 0.50705 0.0
C385 C 0.0818 0.93614 0.51192 0.0
C386 C 0.06808 0.97452 0.54334 0.0
C387 C 1.01036 1.0031 0.54643 0.0
C388 C 0.99894 0.04382 0.57725 0.0
C389 C 0.04253 0.05415 0.60479 0.0
C390 C 0.09824 0.02436 0.60245 0.0
C391 C 0.11124 0.98533 0.57206 0.0
H392 H 0.57935 0.2255 0.32448 0.0
C393 C 0.54153 0.20098 0.34172 0.0
H394 H 0.45776 0.14886 0.34064 0.0
H395 H 0.36869 0.27398 0.17319 0.0
H396 H 0.30105 0.32717 0.21513 0.0
H397 H 0.31847 0.31655 0.28677 0.0
H398 H 0.4037 0.25314 0.3168 0.0
C399 C 0.49509 0.17408 0.32327 0.0
C400 C 0.4883 0.18403 0.27939 0.0
C401 C 0.43804 0.22136 0.26215 0.0
C402 C 0.42751 0.22672 0.22088 0.0
C403 C 0.37781 0.26605 0.2045 0.0
C404 C 0.33885 0.29752 0.2282 0.0
C405 C 0.34869 0.2916 0.2685 0.0
C406 C 0.39775 0.25454 0.28539 0.0
H407 H 0.37832 0.12308 0.16777 0.0
C408 C 0.4047 0.15435 0.14444 0.0
H409 H 0.47992 0.22431 0.13154 0.0
H410 H 0.58664 0.10349 0.30254 0.0
H411 H 0.65547 0.05362 0.26006 0.0
H412 H 0.63985 0.06895 0.18809 0.0
H413 H 0.55417 0.13285 0.15831 0.0
C414 C 0.45218 0.19286 0.15423 0.0
C415 C 0.46678 0.19394 0.19674 0.0
C416 C 0.51834 0.15938 0.21358 0.0
C417 C 0.52855 0.153 0.25504 0.0
C418 C 0.57811 0.11329 0.2712 0.0
C419 C 0.61779 0.08372 0.24713 0.0
C420 C 0.6089 0.09214 0.20663 0.0
C421 C 0.55957 0.12897 0.18992 0.0
H422 H 0.54031 0.98159 0.17656 0.0
C423 C 0.50815 0.93849 0.1735 0.0
H424 H 0.4425 0.86754 0.20375 0.0
H425 H 0.57 0.94547 0.36305 0.0
H426 H 0.65653 0.88373 0.34281 0.0
H427 H 0.66139 0.84755 0.27662 0.0
H428 H 0.58034 0.87309 0.23023 0.0
C429 C 0.47455 0.91146 0.20504 0.0
C430 C 0.47708 0.94233 0.24262 0.0
C431 C 0.52495 0.92651 0.26927 0.0
C432 C 0.5215 0.94538 0.30786 0.0
C433 C 0.56993 0.93 0.33388 0.0
C434 C 0.61987 0.89521 0.32252 0.0
C435 C 0.62264 0.87498 0.28521 0.0
C436 C 0.57581 0.8901 0.25881 0.0
H437 H 0.46008 0.8634 0.37507 0.0
C438 C 0.4503 0.91331 0.38651 0.0
H439 H 0.4458 0.02747 0.37344 0.0
H440 H 0.38173 0.98904 0.19706 0.0
H441 H 0.29844 0.05696 0.2164 0.0
H442 H 0.29375 0.09187 0.28283 0.0
H443 H 0.37117 0.05731 0.33071 0.0
C444 C 0.45729 0.97752 0.3628 0.0
C445 C 0.4698 0.97835 0.31998 0.0
C446 C 0.42516 1.00135 0.29198 0.0
C447 C 0.42835 0.98224 0.25345 0.0
C448 C 0.38156 1.00239 0.22669 0.0
C449 C 0.33358 0.04145 0.23738 0.0
C450 C 0.3309 0.06106 0.27478 0.0
C451 C 0.37572 0.04082 0.30201 0.0
H452 H 0.50497 0.90309 0.68259 0.0
C453 C 0.53998 0.86977 0.67368 0.0
H454 H 0.61636 0.80982 0.69187 0.0
H455 H 0.69538 0.98756 0.82569 0.0
H456 H 0.77828 1.00907 0.7801 0.0
H457 H 0.77464 0.96472 0.716 0.0
H458 H 0.68671 0.90231 0.69616 0.0
C459 C 0.58207 0.84512 0.69995 0.0
C460 C 0.58514 0.86724 0.73998 0.0
C461 C 0.63716 0.9035 0.75113 0.0
C462 C 0.64041 0.92638 0.7888 0.0
C463 C 0.69165 0.96576 0.7983 0.0
C464 C 0.73944 0.9791 0.77225 0.0
C465 C 0.73725 0.95438 0.73611 0.0
C466 C 0.68649 0.91819 0.7252 0.0
H467 H 0.66512 0.85418 0.87316 0.0
C468 C 0.63728 0.89597 0.88207 0.0
H469 H 0.56678 0.96741 0.86579 0.0
H470 H 0.48253 0.78818 0.73127 0.0
H471 H 0.40061 0.7655 0.77755 0.0
H472 H 0.40492 0.80985 0.84168 0.0
H473 H 0.49173 0.87624 0.86005 0.0
C474 C 0.5977 0.92924 0.8565 0.0
C475 C 0.59252 0.91075 0.81589 0.0
C476 C 0.5405 0.87473 0.80486 0.0
C477 C 0.53718 0.85155 0.76722 0.0
C478 C 0.48636 0.81075 0.75838 0.0
C479 C 0.43917 0.79647 0.78495 0.0
C480 C 0.44164 0.82129 0.82109 0.0
C481 C 0.49175 0.85948 0.83122 0.0
H482 H 0.51367 0.18015 0.8226 0.0
C483 C 0.54511 0.15186 0.84331 0.0
H484 H 0.62071 0.08549 0.84948 0.0
H485 H 0.53758 0.06215 0.66536 0.0
H486 H 0.44458 1.00922 0.69346 0.0
H487 H 0.42391 1.00105 0.76462 0.0
H488 H 0.4948 0.04831 0.80787 0.0
C489 C 0.58934 0.11501 0.82935 0.0
C490 C 0.60127 0.11776 0.78632 0.0
C491 C 0.5597 0.08851 0.76152 0.0
C492 C 0.57258 0.09093 0.72063 0.0
C493 C 0.53009 0.06183 0.69655 0.0
C494 C 0.47667 0.03096 0.71233 0.0
C495 C 0.46487 0.02668 0.75236 0.0
C496 C 0.50581 0.0547 0.77683 0.0
H497 H 0.71216 0.05166 0.67121 0.0
C498 C 0.68583 0.08552 0.64956 0.0
H499 H 0.61381 0.15729 0.64053 0.0
H500 H 0.69179 0.17624 0.82582 0.0
H501 H 0.78457 0.22882 0.7979 0.0
H502 H 0.8057 0.23614 0.72682 0.0
H503 H 0.73457 0.19007 0.68344 0.0
C504 C 0.64084 0.12308 0.66183 0.0
C505 C 0.62755 0.12087 0.70473 0.0
C506 C 0.66916 0.15011 0.72961 0.0
C507 C 0.65632 0.14757 0.77046 0.0
C508 C 0.69904 0.17642 0.79462 0.0
C509 C 0.75252 0.20715 0.77896 0.0
C510 C 0.76446 0.21114 0.73897 0.0
C511 C 0.7233 0.18366 0.71443 0.0
H512 H 0.06568 0.71705 0.3203 0.0
C513 C 1.02365 0.69959 0.33482 0.0
H514 H 0.93363 0.67096 0.32493 0.0
H515 H 0.93162 0.87685 0.15878 0.0
H516 H 0.88758 0.95748 0.19928 0.0
H517 H 0.8857 0.92611 0.27182 0.0
H518 H 0.92751 0.81335 0.30433 0.0
C519 C 0.97633 0.6898 0.31215 0.0
C520 C 0.97985 0.70907 0.26849 0.0
C521 C 0.95594 0.77554 0.24994 0.0
C522 C 0.9577 0.79392 0.20812 0.0
C523 C 0.93231 0.86021 0.19042 0.0
C524 C 0.90674 0.90713 0.21332 0.0
C525 C 0.9056 0.88943 0.25417 0.0
C526 C 0.92976 0.82449 0.27243 0.0
H527 H 0.92579 0.67033 0.13623 0.0
C528 C 0.94579 0.72044 0.12089 0.0
H529 H 0.99814 0.81381 0.12627 0.0
H530 H 0.02739 0.57621 0.29485 0.0
H531 H 0.07241 0.49523 0.25466 0.0
H532 H 0.07986 0.52942 0.18236 0.0
H533 H 0.04177 0.64439 0.14978 0.0
C534 C 0.97955 0.76231 0.14106 0.0
C535 C 0.98328 0.74552 0.18492 0.0
C536 C 1.00868 0.6798 0.20365 0.0
C537 C 1.0062 0.66114 0.24546 0.0
C538 C 0.02944 0.59379 0.26329 0.0
C539 C 0.05531 0.54678 0.24057 0.0
C540 C 0.05931 0.56592 0.19985 0.0
C541 C 0.03673 0.63178 0.18148 0.0
H542 H 0.81857 0.37382 0.32349 0.0
C543 C 0.85044 0.37152 0.34746 0.0
H544 H 0.94144 0.37243 0.36273 0.0
H545 H 1.00092 0.24328 0.20601 0.0
H546 H 0.02753 0.14444 0.25689 0.0
H547 H 1.011 0.15233 0.32719 0.0
H548 H 0.96709 0.25916 0.34684 0.0
C549 C 0.90887 0.3776 0.33913 0.0
C550 C 0.9299 0.38019 0.29775 0.0
C551 C 0.95849 0.31896 0.28686 0.0
C552 C 0.96949 0.31532 0.24635 0.0
C553 C 0.9938 0.25083 0.23625 0.0
C554 C 1.00881 0.19308 0.26522 0.0
C555 C 0.99938 0.19745 0.30478 0.0
C556 C 0.97419 0.25925 0.31564 0.0
H557 H 0.05325 0.36956 0.17451 0.0
C558 C 1.01341 0.36501 0.15702 0.0
H559 H 0.91949 0.3702 0.15704 0.0
H560 H 0.88381 0.51003 0.30951 0.0
H561 H 0.85644 0.60974 0.2588 0.0
H562 H 0.87283 0.60272 0.18854 0.0
H563 H 0.91915 0.49736 0.1683 0.0
C564 C 0.96 0.36853 0.17428 0.0
C565 C 0.95363 0.37424 0.21692 0.0
C566 C 0.92728 0.43675 0.22808 0.0
C567 C 0.91614 0.44006 0.26858 0.0
C568 C 0.89117 0.50375 0.27905 0.0
C569 C 0.87565 0.56152 0.25028 0.0
C570 C 0.88528 0.55773 0.21067 0.0
C571 C 0.91141 0.49665 0.19951 0.0
H572 H 0.10542 0.3325 0.85782 0.0
C573 C 0.12737 0.38553 0.85627 0.0
H574 H 0.15485 0.48196 0.82045 0.0
H575 H 0.16879 0.37142 0.6578 0.0
H576 H 0.26697 0.42337 0.665 0.0
H577 H 0.2961 0.46727 0.72667 0.0
H578 H 0.22758 0.4595 0.78131 0.0
C579 C 0.13142 0.43014 0.82158 0.0
C580 C 0.11178 0.40727 0.7836 0.0
C581 C 0.15322 0.41119 0.75202 0.0
C582 C 0.13684 0.38482 0.71666 0.0
C583 C 0.17905 0.38961 0.68557 0.0
C584 C 0.23559 0.41959 0.68921 0.0
C585 C 0.25193 0.44438 0.72388 0.0
C586 C 0.21171 0.43987 0.75507 0.0
H587 H 0.99952 0.39863 0.6558 0.0
C588 C 0.02604 0.35366 0.6493 0.0
H589 H 0.09082 0.277 0.6708 0.0
H590 H 1.01689 0.40678 0.83416 0.0
H591 H 0.91884 0.3544 0.82681 0.0
H592 H 0.89318 0.29998 0.76764 0.0
H593 H 0.96539 0.29832 0.71535 0.0
C594 C 0.06469 0.32277 0.67648 0.0
C595 C 0.07914 0.35463 0.71272 0.0
C596 C 0.03703 0.35279 0.74366 0.0
C597 C 0.05289 0.38068 0.77876 0.0
C598 C 1.00874 0.38201 0.8081 0.0
C599 C 0.95188 0.35306 0.80399 0.0
C600 C 0.93733 0.32283 0.77058 0.0
C601 C 0.97918 0.32259 0.74066 0.0
H602 H 0.10076 0.49475 0.65083 0.0
C603 C 0.10792 0.55015 0.63607 0.0
H604 H 0.1122 0.66124 0.64215 0.0
H605 H 0.96733 0.54739 0.80778 0.0
H606 H 0.88726 0.50946 0.76769 0.0
H607 H 0.90115 0.51043 0.69625 0.0
H608 H 0.9951 0.5499 0.66442 0.0
C609 C 0.1023 0.60591 0.65643 0.0
C610 C 0.09498 0.59482 0.70011 0.0
C611 C 0.03946 0.57292 0.71808 0.0
C612 C 0.03115 0.57373 0.75922 0.0
C613 C 0.97554 0.55028 0.77651 0.0
C614 C 0.92933 0.52776 0.75387 0.0
C615 C 0.9372 0.52808 0.71367 0.0
C616 C 0.99142 0.55071 0.69578 0.0
H617 H 1.00283 0.68036 0.81502 0.0
C618 C 0.03238 0.65052 0.83651 0.0
H619 H 0.09868 0.57181 0.84621 0.0
H620 H 0.20967 0.62731 0.67603 0.0
H621 H 0.29142 0.65965 0.71646 0.0
H622 H 0.27655 0.66519 0.78719 0.0
H623 H 0.18018 0.63792 0.81796 0.0
C624 C 0.06985 0.60272 0.82476 0.0
C625 C 0.07837 0.59698 0.78216 0.0
C626 C 0.13499 0.61434 0.76452 0.0
C627 C 0.1433 0.6128 0.72356 0.0
C628 C 0.20054 0.62927 0.70683 0.0
C629 C 0.24796 0.64756 0.72973 0.0
C630 C 0.23962 0.6505 0.76956 0.0
C631 C 0.18393 0.6345 0.78686 0.0
loop_
_geom_bond_atom_site_label_1
_geom_bond_atom_site_label_2
_geom_bond_distance
_geom_bond_site_symmetry_2
_ccdc_geom_bond_type
C0 C1 1.387 . S
C0 C5 1.380 . S
C0 C16 1.494 . S
C1 C0 1.387 . S
C1 C2 1.386 1_455 S
C1 H32 0.930 1_455 S
C2 C1 1.386 1_655 S
C2 C3 1.397 . S
C3 C2 1.397 . S
C3 C4 1.393 1_655 S
C3 H33 0.930 . S
C4 C3 1.393 1_455 S
C4 C5 1.395 . S
C5 C0 1.380 . S
C5 C4 1.395 . S
C5 H34 0.930 . S
O6 Tb7 2.295 . S
O6 C19 1.243 1_556 S
Tb7 O6 2.295 . S
Tb7 O8 2.312 . S
Tb7 O11 2.438 . S
Tb7 O13 2.472 1_556 S
Tb7 O15 2.308 . S
Tb7 C16 2.821 1_556 S
O8 Tb7 2.312 . S
O8 C28 1.264 . S
O9 Eu10 2.308 . S
O9 C19 1.242 . S
Eu10 O9 2.308 . S
Eu10 C12 2.821 1_554 S
Eu10 O14 2.295 . S
Eu10 O21 2.312 . S
Eu10 O30 2.438 . S
Eu10 O31 2.472 1_554 S
O11 Tb7 2.438 . S
O11 C16 1.263 1_556 S
C12 Eu10 2.821 1_556 S
C12 C22 1.494 . S
C12 O30 1.263 1_556 S
C12 O31 1.264 . S
O13 Tb7 2.472 1_554 S
O13 C16 1.264 . S
O14 Eu10 2.295 . S
O14 C20 1.242 . S
O15 Tb7 2.308 . S
O15 C20 1.243 1_556 S
C16 C0 1.494 . S
C16 Tb7 2.821 1_554 S
C16 O11 1.263 1_554 S
C16 O13 1.264 . S
C17 O18 1.260 . S
C17 O21 1.264 . S
O18 C17 1.260 . S
C19 O6 1.243 1_554 S
C19 O9 1.242 . S
C20 O14 1.242 . S
C20 O15 1.243 1_554 S
O21 Eu10 2.312 . S
O21 C17 1.264 . S
C22 C12 1.494 . S
C22 C24 1.380 . S
C22 C25 1.387 . S
C23 C24 1.395 . S
C23 C27 1.393 . S
C24 C22 1.380 . S
C24 C23 1.395 . S
C24 H35 0.930 . S
C25 C22 1.387 . S
C25 C26 1.386 . S
C25 H36 0.930 . S
C26 C25 1.386 . S
C26 C27 1.397 . S
C27 C23 1.393 . S
C27 C26 1.397 . S
C27 H37 0.930 . S
C28 O8 1.264 . S
C28 O29 1.260 . S
O29 C28 1.260 . S
O30 Eu10 2.438 . S
O30 C12 1.263 1_554 S
O31 Eu10 2.472 1_556 S
O31 C12 1.264 . S
H32 C1 0.930 1_655 S
H33 C3 0.930 . S
H34 C5 0.930 . S
H35 C24 0.930 . S
H36 C25 0.930 . S
H37 C27 0.930 . S
C38 C39 1.387 . S
C38 C43 1.380 . S
C38 C54 1.494 . S
C39 C38 1.387 . S
C39 C40 1.386 . S
C39 H70 0.930 . S
C40 C39 1.386 . S
C40 C41 1.397 . S
C41 C40 1.397 . S
C41 C42 1.393 . S
C41 H71 0.930 . S
C42 C41 1.393 . S
C42 C43 1.395 . S
C43 C38 1.380 . S
C43 C42 1.395 . S
C43 H72 0.930 . S
O44 Tb45 2.295 . S
O44 C57 1.243 1_556 S
Tb45 O44 2.295 . S
Tb45 O46 2.312 . S
Tb45 O49 2.438 . S
Tb45 O51 2.472 1_556 S
Tb45 O53 2.308 . S
Tb45 C54 2.821 1_556 S
O46 Tb45 2.312 . S
O46 C66 1.264 . S
O47 Eu48 2.308 . S
O47 C57 1.242 . S
Eu48 O47 2.308 . S
Eu48 C50 2.821 1_554 S
Eu48 O52 2.295 . S
Eu48 O59 2.312 . S
Eu48 O68 2.438 . S
Eu48 O69 2.472 1_554 S
O49 Tb45 2.438 . S
O49 C54 1.263 1_556 S
C50 Eu48 2.821 1_556 S
C50 C60 1.494 . S
C50 O68 1.263 1_556 S
C50 O69 1.264 . S
O51 Tb45 2.472 1_554 S
O51 C54 1.264 . S
O52 Eu48 2.295 . S
O52 C58 1.242 . S
O53 Tb45 2.308 . S
O53 C58 1.243 1_556 S
C54 C38 1.494 . S
C54 Tb45 2.821 1_554 S
C54 O49 1.263 1_554 S
C54 O51 1.264 . S
C55 O56 1.260 . S
C55 O59 1.264 . S
O56 C55 1.260 . S
C57 O44 1.243 1_554 S
C57 O47 1.242 . S
C58 O52 1.242 . S
C58 O53 1.243 1_554 S
O59 Eu48 2.312 . S
O59 C55 1.264 . S
C60 C50 1.494 . S
C60 C62 1.380 . S
C60 C63 1.387 . S
C61 C62 1.395 . S
C61 C65 1.393 1_655 S
C62 C60 1.380 . S
C62 C61 1.395 . S
C62 H73 0.930 . S
C63 C60 1.387 . S
C63 C64 1.386 1_655 S
C63 H74 0.930 1_655 S
C64 C63 1.386 1_455 S
C64 C65 1.397 . S
C65 C61 1.393 1_455 S
C65 C64 1.397 . S
C65 H75 0.930 . S
C66 O46 1.264 . S
C66 O67 1.260 . S
O67 C66 1.260 . S
O68 Eu48 2.438 . S
O68 C50 1.263 1_554 S
O69 Eu48 2.472 1_556 S
O69 C50 1.264 . S
H70 C39 0.930 . S
H71 C41 0.930 . S
H72 C43 0.930 . S
H73 C62 0.930 . S
H74 C63 0.930 1_455 S
H75 C65 0.930 . S
C76 C77 1.387 . S
C76 C81 1.380 . S
C76 C92 1.494 . S
C77 C76 1.387 . S
C77 C78 1.386 1_455 S
C77 H108 0.930 1_455 S
C78 C77 1.386 1_655 S
C78 C79 1.397 . S
C79 C78 1.397 . S
C79 C80 1.393 1_655 S
C79 H109 0.930 . S
C80 C79 1.393 1_455 S
C80 C81 1.395 . S
C81 C76 1.380 . S
C81 C80 1.395 . S
C81 H110 0.930 . S
O82 Tb83 2.295 . S
O82 C95 1.242 . S
Tb83 O82 2.295 . S
Tb83 O84 2.312 . S
Tb83 O87 2.438 . S
Tb83 O89 2.472 . S
Tb83 O91 2.308 . S
Tb83 C92 2.821 . S
O84 Tb83 2.312 . S
O84 C104 1.264 . S
O85 Eu86 2.308 . S
O85 C95 1.243 . S
Eu86 O85 2.308 . S
Eu86 C88 2.821 . S
Eu86 O90 2.295 . S
Eu86 O97 2.312 . S
Eu86 O106 2.438 . S
Eu86 O107 2.472 . S
O87 Tb83 2.438 . S
O87 C92 1.263 . S
C88 Eu86 2.821 . S
C88 C98 1.494 . S
C88 O106 1.263 . S
C88 O107 1.264 . S
O89 Tb83 2.472 . S
O89 C92 1.264 . S
O90 Eu86 2.295 . S
O90 C96 1.242 . S
O91 Tb83 2.308 . S
O91 C96 1.243 . S
C92 C76 1.494 . S
C92 Tb83 2.821 . S
C92 O87 1.263 . S
C92 O89 1.264 . S
C93 O94 1.260 . S
C93 O97 1.264 . S
O94 C93 1.260 . S
C95 O82 1.242 . S
C95 O85 1.243 . S
C96 O90 1.242 . S
C96 O91 1.243 . S
O97 Eu86 2.312 . S
O97 C93 1.264 . S
C98 C88 1.494 . S
C98 C100 1.380 . S
C98 C101 1.387 . S
C99 C100 1.395 . S
C99 C103 1.393 . S
C100 C98 1.380 . S
C100 C99 1.395 . S
C100 H111 0.930 . S
C101 C98 1.387 . S
C101 C102 1.386 . S
C101 H112 0.930 . S
C102 C101 1.386 . S
C102 C103 1.397 . S
C103 C99 1.393 . S
C103 C102 1.397 . S
C103 H113 0.930 . S
C104 O84 1.264 . S
C104 O105 1.260 . S
O105 C104 1.260 . S
O106 Eu86 2.438 . S
O106 C88 1.263 . S
O107 Eu86 2.472 . S
O107 C88 1.264 . S
H108 C77 0.930 1_655 S
H109 C79 0.930 . S
H110 C81 0.930 . S
H111 C100 0.930 . S
H112 C101 0.930 . S
H113 C103 0.930 . S
C114 C115 1.387 . S
C114 C119 1.380 . S
C114 C130 1.494 . S
C115 C114 1.387 . S
C115 C116 1.386 . S
C115 H146 0.930 . S
C116 C115 1.386 . S
C116 C117 1.397 . S
C117 C116 1.397 . S
C117 C118 1.393 . S
C117 H147 0.930 . S
C118 C117 1.393 . S
C118 C119 1.395 . S
C119 C114 1.380 . S
C119 C118 1.395 . S
C119 H148 0.930 . S
O120 Tb121 2.295 . S
O120 C133 1.242 . S
Tb121 O120 2.295 . S
Tb121 O122 2.312 . S
Tb121 O125 2.438 . S
Tb121 O127 2.472 . S
Tb121 O129 2.308 . S
Tb121 C130 2.821 . S
O122 Tb121 2.312 . S
O122 C142 1.264 . S
O123 Eu124 2.308 . S
O123 C133 1.243 . S
Eu124 O123 2.308 . S
Eu124 C126 2.821 . S
Eu124 O128 2.295 . S
Eu124 O135 2.312 . S
Eu124 O144 2.438 . S
Eu124 O145 2.472 . S
O125 Tb121 2.438 . S
O125 C130 1.263 . S
C126 Eu124 2.821 . S
C126 C136 1.494 . S
C126 O144 1.263 . S
C126 O145 1.264 . S
O127 Tb121 2.472 . S
O127 C130 1.264 . S
O128 Eu124 2.295 . S
O128 C134 1.242 . S
O129 Tb121 2.308 . S
O129 C134 1.243 . S
C130 C114 1.494 . S
C130 Tb121 2.821 . S
C130 O125 1.263 . S
C130 O127 1.264 . S
C131 O132 1.260 . S
C131 O135 1.264 . S
O132 C131 1.260 . S
C133 O120 1.242 . S
C133 O123 1.243 . S
C134 O128 1.242 . S
C134 O129 1.243 . S
O135 Eu124 2.312 . S
O135 C131 1.264 . S
C136 C126 1.494 . S
C136 C138 1.380 . S
C136 C139 1.387 . S
C137 C138 1.395 . S
C137 C141 1.393 1_655 S
C138 C136 1.380 . S
C138 C137 1.395 . S
C138 H149 0.930 . S
C139 C136 1.387 . S
C139 C140 1.386 1_655 S
C139 H150 0.930 1_655 S
C140 C139 1.386 1_455 S
C140 C141 1.397 . S
C141 C137 1.393 1_455 S
C141 C140 1.397 . S
C141 H151 0.930 . S
C142 O122 1.264 . S
C142 O143 1.260 . S
O143 C142 1.260 . S
O144 Eu124 2.438 . S
O144 C126 1.263 . S
O145 Eu124 2.472 . S
O145 C126 1.264 . S
H146 C115 0.930 . S
H147 C117 0.930 . S
H148 C119 0.930 . S
H149 C138 0.930 . S
H150 C139 0.930 1_455 S
H151 C141 0.930 . S
H152 C153 0.951 . S
C153 H152 0.951 . S
C153 C159 1.265 . S
H154 C159 0.950 1_554 S
H155 C163 0.949 . S
H156 C164 0.950 . S
H157 C165 0.951 . S
H158 C166 0.951 . S
C159 C153 1.265 . S
C159 H154 0.950 1_556 S
C159 C160 1.478 . S
C160 C159 1.478 . S
C160 C161 1.397 1_556 S
C160 C177 1.394 . S
C161 C160 1.397 1_554 S
C161 C162 1.438 . S
C161 C166 1.429 . S
C162 C161 1.438 . S
C162 C163 1.428 . S
C162 C175 1.394 . S
C163 H155 0.949 . S
C163 C162 1.428 . S
C163 C164 1.345 . S
C164 H156 0.950 . S
C164 C163 1.345 . S
C164 C165 1.424 . S
C165 H157 0.951 . S
C165 C164 1.424 . S
C165 C166 1.347 . S
C166 H158 0.951 . S
C166 C161 1.429 . S
C166 C165 1.347 . S
H167 C168 0.951 . S
C168 H167 0.951 . S
C168 C174 1.265 . S
H169 C174 0.958 . S
H170 C178 0.949 . S
H171 C179 0.950 . S
H172 C180 0.951 . S
H173 C181 0.951 . S
C174 C168 1.265 . S
C174 H169 0.958 . S
C174 C175 1.478 . S
C175 C162 1.394 . S
C175 C174 1.478 . S
C175 C176 1.397 1_554 S
C176 C175 1.397 1_556 S
C176 C177 1.438 . S
C176 C181 1.429 . S
C177 C160 1.394 . S
C177 C176 1.438 . S
C177 C178 1.428 . S
C178 H170 0.949 . S
C178 C177 1.428 . S
C178 C179 1.345 . S
C179 H171 0.950 . S
C179 C178 1.345 . S
C179 C180 1.424 . S
C180 H172 0.951 . S
C180 C179 1.424 . S
C180 C181 1.347 . S
C181 H173 0.951 . S
C181 C176 1.429 . S
C181 C180 1.347 . S
H182 C183 0.951 . S
C183 H182 0.951 . S
C183 C189 1.265 . S
H184 C189 0.950 1_554 S
H185 C193 0.949 . S
H186 C194 0.950 . S
H187 C195 0.951 . S
H188 C196 0.951 . S
C189 C183 1.265 . S
C189 H184 0.950 1_556 S
C189 C190 1.478 . S
C190 C189 1.478 . S
C190 C191 1.397 1_556 S
C190 C207 1.394 . S
C191 C190 1.397 1_554 S
C191 C192 1.438 . S
C191 C196 1.429 . S
C192 C191 1.438 . S
C192 C193 1.428 . S
C192 C205 1.394 . S
C193 H185 0.949 . S
C193 C192 1.428 . S
C193 C194 1.345 . S
C194 H186 0.950 . S
C194 C193 1.345 . S
C194 C195 1.424 . S
C195 H187 0.951 . S
C195 C194 1.424 . S
C195 C196 1.347 . S
C196 H188 0.951 . S
C196 C191 1.429 . S
C196 C195 1.347 . S
H197 C198 0.951 . S
C198 H197 0.951 . S
C198 C204 1.265 . S
H199 C204 0.950 1_556 S
H200 C208 0.949 . S
H201 C209 0.950 . S
H202 C210 0.951 . S
H203 C211 0.951 . S
C204 C198 1.265 . S
C204 H199 0.950 1_554 S
C204 C205 1.478 . S
C205 C192 1.394 . S
C205 C204 1.478 . S
C205 C206 1.397 1_554 S
C206 C205 1.397 1_556 S
C206 C207 1.438 . S
C206 C211 1.429 . S
C207 C190 1.394 . S
C207 C206 1.438 . S
C207 C208 1.428 . S
C208 H200 0.949 . S
C208 C207 1.428 . S
C208 C209 1.345 . S
C209 H201 0.950 . S
C209 C208 1.345 . S
C209 C210 1.424 . S
C210 H202 0.951 . S
C210 C209 1.424 . S
C210 C211 1.347 . S
C211 H203 0.951 . S
C211 C206 1.429 . S
C211 C210 1.347 . S
H212 C213 0.951 . S
C213 H212 0.951 . S
C213 C219 1.265 . S
H214 C219 0.950 . S
H215 C223 0.949 . S
H216 C224 0.950 . S
H217 C225 0.951 . S
H218 C226 0.951 . S
C219 C213 1.265 . S
C219 H214 0.950 . S
C219 C220 1.478 . S
C220 C219 1.478 . S
C220 C221 1.397 . S
C220 C237 1.394 . S
C221 C220 1.397 . S
C221 C222 1.438 . S
C221 C226 1.429 . S
C222 C221 1.438 . S
C222 C223 1.428 . S
C222 C235 1.394 . S
C223 H215 0.949 . S
C223 C222 1.428 . S
C223 C224 1.345 . S
C224 H216 0.950 . S
C224 C223 1.345 . S
C224 C225 1.424 . S
C225 H217 0.951 . S
C225 C224 1.424 . S
C225 C226 1.347 . S
C226 H218 0.951 . S
C226 C221 1.429 . S
C226 C225 1.347 . S
H227 C228 0.951 . S
C228 H227 0.951 . S
C228 C234 1.265 . S
H229 C234 0.950 . S
H230 C238 0.949 . S
H231 C239 0.950 . S
H232 C240 0.951 . S
H233 C241 0.951 . S
C234 C228 1.265 . S
C234 H229 0.950 . S
C234 C235 1.478 . S
C235 C222 1.394 . S
C235 C234 1.478 . S
C235 C236 1.397 . S
C236 C235 1.397 . S
C236 C237 1.438 . S
C236 C241 1.429 . S
C237 C220 1.394 . S
C237 C236 1.438 . S
C237 C238 1.428 . S
C238 H230 0.949 . S
C238 C237 1.428 . S
C238 C239 1.345 . S
C239 H231 0.950 . S
C239 C238 1.345 . S
C239 C240 1.424 . S
C240 H232 0.951 . S
C240 C239 1.424 . S
C240 C241 1.347 . S
C241 H233 0.951 . S
C241 C236 1.429 . S
C241 C240 1.347 . S
H242 C243 0.951 . S
C243 H242 0.951 . S
C243 C249 1.265 . S
H244 C249 0.950 . S
H245 C253 0.949 . S
H246 C254 0.950 . S
H247 C255 0.951 . S
H248 C256 0.951 . S
C249 C243 1.265 . S
C249 H244 0.950 . S
C249 C250 1.478 . S
C250 C249 1.478 . S
C250 C251 1.397 . S
C250 C267 1.394 . S
C251 C250 1.397 . S
C251 C252 1.438 . S
C251 C256 1.429 . S
C252 C251 1.438 . S
C252 C253 1.428 . S
C252 C265 1.394 . S
C253 H245 0.949 . S
C253 C252 1.428 . S
C253 C254 1.345 . S
C254 H246 0.950 . S
C254 C253 1.345 . S
C254 C255 1.424 . S
C255 H247 0.951 . S
C255 C254 1.424 . S
C255 C256 1.347 . S
C256 H248 0.951 . S
C256 C251 1.429 . S
C256 C255 1.347 . S
H257 C258 0.951 . S
C258 H257 0.951 . S
C258 C264 1.265 . S
H259 C264 0.950 . S
H260 C268 0.949 . S
H261 C269 0.950 . S
H262 C270 0.951 . S
H263 C271 0.951 . S
C264 C258 1.265 . S
C264 H259 0.950 . S
C264 C265 1.478 . S
C265 C252 1.394 . S
C265 C264 1.478 . S
C265 C266 1.397 . S
C266 C265 1.397 . S
C266 C267 1.438 . S
C266 C271 1.429 . S
C267 C250 1.394 . S
C267 C266 1.438 . S
C267 C268 1.428 . S
C268 H260 0.949 . S
C268 C267 1.428 . S
C268 C269 1.345 . S
C269 H261 0.950 . S
C269 C268 1.345 . S
C269 C270 1.424 . S
C270 H262 0.951 . S
C270 C269 1.424 . S
C270 C271 1.347 . S
C271 H263 0.951 . S
C271 C266 1.429 . S
C271 C270 1.347 . S
H272 C273 0.951 . S
C273 H272 0.951 . S
C273 C279 1.259 1_554 S
H274 C279 0.956 . S
H275 C283 0.949 . S
H276 C284 0.950 . S
H277 C285 0.951 . S
H278 C286 0.951 . S
C279 C273 1.259 1_556 S
C279 H274 0.956 . S
C279 C280 1.479 1_556 S
C280 C279 1.479 1_554 S
C280 C281 1.401 . S
C280 C297 1.390 1_554 S
C281 C280 1.401 . S
C281 C282 1.438 . S
C281 C286 1.429 . S
C282 C281 1.438 . S
C282 C283 1.428 . S
C282 C295 1.394 . S
C283 H275 0.949 . S
C283 C282 1.428 . S
C283 C284 1.345 . S
C284 H276 0.950 . S
C284 C283 1.345 . S
C284 C285 1.424 . S
C285 H277 0.951 . S
C285 C284 1.424 . S
C285 C286 1.347 . S
C286 H278 0.951 . S
C286 C281 1.429 . S
C286 C285 1.347 . S
H287 C288 0.955 . S
C288 H287 0.955 . S
C288 C294 1.265 . S
H289 C294 0.950 . S
H290 C298 0.949 . S
H291 C299 0.950 . S
H292 C300 0.951 . S
H293 C301 0.951 . S
C294 C288 1.265 . S
C294 H289 0.950 . S
C294 C295 1.478 . S
C295 C282 1.394 . S
C295 C294 1.478 . S
C295 C296 1.397 1_554 S
C296 C295 1.397 1_556 S
C296 C297 1.438 . S
C296 C301 1.429 . S
C297 C280 1.390 1_556 S
C297 C296 1.438 . S
C297 C298 1.428 . S
C298 H290 0.949 . S
C298 C297 1.428 . S
C298 C299 1.345 . S
C299 H291 0.950 . S
C299 C298 1.345 . S
C299 C300 1.424 . S
C300 H292 0.951 . S
C300 C299 1.424 . S
C300 C301 1.347 . S
C301 H293 0.951 . S
C301 C296 1.429 . S
C301 C300 1.347 . S
H302 C303 0.951 . S
C303 H302 0.951 . S
C303 C309 1.265 . S
H304 C309 0.950 . S
H305 C313 0.949 . S
H306 C314 0.950 . S
H307 C315 0.951 . S
H308 C316 0.951 . S
C309 C303 1.265 . S
C309 H304 0.950 . S
C309 C310 1.478 . S
C310 C309 1.478 . S
C310 C311 1.397 . S
C310 C327 1.394 . S
C311 C310 1.397 . S
C311 C312 1.438 . S
C311 C316 1.429 . S
C312 C311 1.438 . S
C312 C313 1.428 . S
C312 C325 1.394 . S
C313 H305 0.949 . S
C313 C312 1.428 . S
C313 C314 1.345 . S
C314 H306 0.950 . S
C314 C313 1.345 . S
C314 C315 1.424 . S
C315 H307 0.951 . S
C315 C314 1.424 . S
C315 C316 1.347 . S
C316 H308 0.951 . S
C316 C311 1.429 . S
C316 C315 1.347 . S
H317 C318 0.951 . S
C318 H317 0.951 . S
C318 C324 1.265 . S
H319 C324 0.950 . S
H320 C328 0.949 . S
H321 C329 0.950 . S
H322 C330 0.951 . S
H323 C331 0.951 . S
C324 C318 1.265 . S
C324 H319 0.950 . S
C324 C325 1.478 . S
C325 C312 1.394 . S
C325 C324 1.478 . S
C325 C326 1.397 . S
C326 C325 1.397 . S
C326 C327 1.438 . S
C326 C331 1.429 . S
C327 C310 1.394 . S
C327 C326 1.438 . S
C327 C328 1.428 . S
C328 H320 0.949 . S
C328 C327 1.428 . S
C328 C329 1.345 . S
C329 H321 0.950 . S
C329 C328 1.345 . S
C329 C330 1.424 . S
C330 H322 0.951 . S
C330 C329 1.424 . S
C330 C331 1.347 . S
C331 H323 0.951 . S
C331 C326 1.429 . S
C331 C330 1.347 . S
H332 C333 0.951 . S
C333 H332 0.951 . S
C333 C339 1.267 1_556 S
H334 C339 0.950 . S
H335 C343 0.949 . S
H336 C344 0.950 . S
H337 C345 0.951 . S
H338 C346 0.951 . S
C339 C333 1.267 1_554 S
C339 H334 0.950 . S
C339 C340 1.478 . S
C340 C339 1.478 . S
C340 C341 1.397 1_545 S
C340 C357 1.394 1_554 S
C341 C340 1.397 1_565 S
C341 C342 1.438 1_455 S
C341 C346 1.429 . S
C342 C341 1.438 1_655 S
C342 C343 1.428 . S
C342 C355 1.394 . S
C343 H335 0.949 . S
C343 C342 1.428 . S
C343 C344 1.345 . S
C344 H336 0.950 . S
C344 C343 1.345 . S
C344 C345 1.424 1_655 S
C345 H337 0.951 . S
C345 C344 1.424 1_455 S
C345 C346 1.347 . S
C346 H338 0.951 . S
C346 C341 1.429 . S
C346 C345 1.347 . S
H347 C348 0.951 . S
C348 H347 0.951 . S
C348 C354 1.264 . S
H349 C354 0.949 1_556 S
H350 C358 0.949 . S
H351 C359 0.950 . S
H352 C360 0.951 . S
H353 C361 0.951 . S
C354 C348 1.264 . S
C354 H349 0.949 1_554 S
C354 C355 1.479 . S
C355 C342 1.394 . S
C355 C354 1.479 . S
C355 C356 1.397 1_564 S
C356 C355 1.397 1_546 S
C356 C357 1.438 1_655 S
C356 C361 1.429 . S
C357 C340 1.394 1_556 S
C357 C356 1.438 1_455 S
C357 C358 1.428 . S
C358 H350 0.949 . S
C358 C357 1.428 . S
C358 C359 1.345 . S
C359 H351 0.950 . S
C359 C358 1.345 . S
C359 C360 1.424 1_455 S
C360 H352 0.951 . S
C360 C359 1.424 1_655 S
C360 C361 1.347 . S
C361 H353 0.951 . S
C361 C356 1.429 . S
C361 C360 1.347 . S
H362 C363 0.951 . S
C363 H362 0.951 . S
C363 C369 1.265 . S
H364 C369 0.950 . S
H365 C373 0.949 . S
H366 C374 0.950 . S
H367 C375 0.951 . S
H368 C376 0.951 1_545 S
C369 C363 1.265 . S
C369 H364 0.950 . S
C369 C370 1.478 . S
C370 C369 1.478 . S
C370 C371 1.397 1_545 S
C370 C387 1.394 . S
C371 C370 1.397 1_565 S
C371 C372 1.438 1_655 S
C371 C376 1.429 . S
C372 C371 1.438 1_455 S
C372 C373 1.428 . S
C372 C385 1.394 . S
C373 H365 0.949 . S
C373 C372 1.428 . S
C373 C374 1.345 . S
C374 H366 0.950 . S
C374 C373 1.345 . S
C374 C375 1.424 1_455 S
C375 H367 0.951 . S
C375 C374 1.424 1_655 S
C375 C376 1.347 . S
C376 H368 0.951 1_565 S
C376 C371 1.429 . S
C376 C375 1.347 . S
H377 C378 0.951 . S
C378 H377 0.951 . S
C378 C384 1.265 . S
H379 C384 0.950 . S
H380 C388 0.949 . S
H381 C389 0.950 . S
H382 C390 0.951 . S
H383 C391 0.951 1_565 S
C384 C378 1.265 . S
C384 H379 0.950 . S
C384 C385 1.478 . S
C385 C372 1.394 . S
C385 C384 1.478 . S
C385 C386 1.397 1_565 S
C386 C385 1.397 1_545 S
C386 C387 1.438 1_455 S
C386 C391 1.429 . S
C387 C370 1.394 . S
C387 C386 1.438 1_655 S
C387 C388 1.428 . S
C388 H380 0.949 . S
C388 C387 1.428 . S
C388 C389 1.345 . S
C389 H381 0.950 . S
C389 C388 1.345 . S
C389 C390 1.424 1_655 S
C390 H382 0.951 . S
C390 C389 1.424 1_455 S
C390 C391 1.347 . S
C391 H383 0.951 1_545 S
C391 C386 1.429 . S
C391 C390 1.347 . S
H392 C393 0.951 . S
C393 H392 0.951 . S
C393 C399 1.265 . S
H394 C399 0.950 . S
H395 C403 0.949 . S
H396 C404 0.950 . S
H397 C405 0.951 . S
H398 C406 0.951 . S
C399 C393 1.265 . S
C399 H394 0.950 . S
C399 C400 1.478 . S
C400 C399 1.478 . S
C400 C401 1.397 . S
C400 C417 1.394 . S
C401 C400 1.397 . S
C401 C402 1.438 . S
C401 C406 1.429 . S
C402 C401 1.438 . S
C402 C403 1.428 . S
C402 C415 1.394 . S
C403 H395 0.949 . S
C403 C402 1.428 . S
C403 C404 1.345 . S
C404 H396 0.950 . S
C404 C403 1.345 . S
C404 C405 1.424 . S
C405 H397 0.951 . S
C405 C404 1.424 . S
C405 C406 1.347 . S
C406 H398 0.951 . S
C406 C401 1.429 . S
C406 C405 1.347 . S
H407 C408 0.951 . S
C408 H407 0.951 . S
C408 C414 1.265 . S
H409 C414 0.950 . S
H410 C418 0.949 . S
H411 C419 0.950 1_565 S
H412 C420 0.946 1_565 S
H413 C421 0.951 . S
C414 C408 1.265 . S
C414 H409 0.950 . S
C414 C415 1.478 . S
C415 C402 1.394 . S
C415 C414 1.478 . S
C415 C416 1.397 . S
C416 C415 1.397 . S
C416 C417 1.438 . S
C416 C421 1.429 . S
C417 C400 1.394 . S
C417 C416 1.438 . S
C417 C418 1.428 . S
C418 H410 0.949 . S
C418 C417 1.428 . S
C418 C419 1.345 . S
C419 H411 0.950 1_545 S
C419 C418 1.345 . S
C419 C420 1.424 . S
C420 H412 0.946 1_545 S
C420 C419 1.424 . S
C420 C421 1.347 . S
C421 H413 0.951 . S
C421 C416 1.429 . S
C421 C420 1.347 . S
H422 C423 0.951 . S
C423 H422 0.951 . S
C423 C429 1.265 . S
H424 C429 0.950 . S
H425 C433 0.949 . S
H426 C434 0.950 . S
H427 C435 0.951 . S
H428 C436 0.951 . S
C429 C423 1.265 . S
C429 H424 0.950 . S
C429 C430 1.478 . S
C430 C429 1.478 . S
C430 C431 1.397 . S
C430 C447 1.394 . S
C431 C430 1.397 . S
C431 C432 1.438 . S
C431 C436 1.429 . S
C432 C431 1.438 . S
C432 C433 1.428 . S
C432 C445 1.394 . S
C433 H425 0.949 . S
C433 C432 1.428 . S
C433 C434 1.345 . S
C434 H426 0.950 . S
C434 C433 1.345 . S
C434 C435 1.424 . S
C435 H427 0.951 . S
C435 C434 1.424 . S
C435 C436 1.347 . S
C436 H428 0.951 . S
C436 C431 1.429 . S
C436 C435 1.347 . S
H437 C438 0.951 . S
C438 H437 0.951 . S
C438 C444 1.265 . S
H439 C444 0.950 . S
H440 C448 0.949 . S
H441 C449 0.950 . S
H442 C450 0.951 . S
H443 C451 0.951 . S
C444 C438 1.265 . S
C444 H439 0.950 . S
C444 C445 1.478 . S
C445 C432 1.394 . S
C445 C444 1.478 . S
C445 C446 1.397 . S
C446 C445 1.397 . S
C446 C447 1.438 . S
C446 C451 1.429 . S
C447 C430 1.394 . S
C447 C446 1.438 . S
C447 C448 1.428 . S
C448 H440 0.949 . S
C448 C447 1.428 . S
C448 C449 1.345 . S
C449 H441 0.950 . S
C449 C448 1.345 . S
C449 C450 1.424 . S
C450 H442 0.951 . S
C450 C449 1.424 . S
C450 C451 1.347 . S
C451 H443 0.951 . S
C451 C446 1.429 . S
C451 C450 1.347 . S
H452 C453 0.951 . S
C453 H452 0.951 . S
C453 C459 1.265 . S
H454 C459 0.950 . S
H455 C463 0.949 . S
H456 C464 0.950 . S
H457 C465 0.951 . S
H458 C466 0.951 . S
C459 C453 1.265 . S
C459 H454 0.950 . S
C459 C460 1.478 . S
C460 C459 1.478 . S
C460 C461 1.397 . S
C460 C477 1.394 . S
C461 C460 1.397 . S
C461 C462 1.438 . S
C461 C466 1.429 . S
C462 C461 1.438 . S
C462 C463 1.428 . S
C462 C475 1.394 . S
C463 H455 0.949 . S
C463 C462 1.428 . S
C463 C464 1.345 . S
C464 H456 0.950 . S
C464 C463 1.345 . S
C464 C465 1.424 . S
C465 H457 0.951 . S
C465 C464 1.424 . S
C465 C466 1.347 . S
C466 H458 0.951 . S
C466 C461 1.429 . S
C466 C465 1.347 . S
H467 C468 0.951 . S
C468 H467 0.951 . S
C468 C474 1.265 . S
H469 C474 0.950 . S
H470 C478 0.949 . S
H471 C479 0.950 . S
H472 C480 0.951 . S
H473 C481 0.951 . S
C474 C468 1.265 . S
C474 H469 0.950 . S
C474 C475 1.478 . S
C475 C462 1.394 . S
C475 C474 1.478 . S
C475 C476 1.397 . S
C476 C475 1.397 . S
C476 C477 1.438 . S
C476 C481 1.429 . S
C477 C460 1.394 . S
C477 C476 1.438 . S
C477 C478 1.428 . S
C478 H470 0.949 . S
C478 C477 1.428 . S
C478 C479 1.345 . S
C479 H471 0.950 . S
C479 C478 1.345 . S
C479 C480 1.424 . S
C480 H472 0.951 . S
C480 C479 1.424 . S
C480 C481 1.347 . S
C481 H473 0.951 . S
C481 C476 1.429 . S
C481 C480 1.347 . S
H482 C483 0.951 . S
C483 H482 0.951 . S
C483 C489 1.265 . S
H484 C489 0.950 . S
H485 C493 0.949 . S
H486 C494 0.950 1_565 S
H487 C495 0.951 1_565 S
H488 C496 0.951 . S
C489 C483 1.265 . S
C489 H484 0.950 . S
C489 C490 1.478 . S
C490 C489 1.478 . S
C490 C491 1.397 . S
C490 C507 1.394 . S
C491 C490 1.397 . S
C491 C492 1.438 . S
C491 C496 1.429 . S
C492 C491 1.438 . S
C492 C493 1.428 . S
C492 C505 1.394 . S
C493 H485 0.949 . S
C493 C492 1.428 . S
C493 C494 1.345 . S
C494 H486 0.950 1_545 S
C494 C493 1.345 . S
C494 C495 1.424 . S
C495 H487 0.951 1_545 S
C495 C494 1.424 . S
C495 C496 1.347 . S
C496 H488 0.951 . S
C496 C491 1.429 . S
C496 C495 1.347 . S
H497 C498 0.951 . S
C498 H497 0.951 . S
C498 C504 1.265 . S
H499 C504 0.950 . S
H500 C508 0.949 . S
H501 C509 0.950 . S
H502 C510 0.951 . S
H503 C511 0.951 . S
C504 C498 1.265 . S
C504 H499 0.950 . S
C504 C505 1.478 . S
C505 C492 1.394 . S
C505 C504 1.478 . S
C505 C506 1.397 . S
C506 C505 1.397 . S
C506 C507 1.438 . S
C506 C511 1.429 . S
C507 C490 1.394 . S
C507 C506 1.438 . S
C507 C508 1.428 . S
C508 H500 0.949 . S
C508 C507 1.428 . S
C508 C509 1.345 . S
C509 H501 0.950 . S
C509 C508 1.345 . S
C509 C510 1.424 . S
C510 H502 0.951 . S
C510 C509 1.424 . S
C510 C511 1.347 . S
C511 H503 0.951 . S
C511 C506 1.429 . S
C511 C510 1.347 . S
H512 C513 0.951 . S
C513 H512 0.951 . S
C513 C519 1.265 . S
H514 C519 0.950 . S
H515 C523 0.949 . S
H516 C524 0.950 . S
H517 C525 0.951 . S
H518 C526 0.951 . S
C519 C513 1.265 . S
C519 H514 0.950 . S
C519 C520 1.478 1_455 S
C520 C519 1.478 1_655 S
C520 C521 1.397 . S
C520 C537 1.394 1_655 S
C521 C520 1.397 . S
C521 C522 1.438 . S
C521 C526 1.429 . S
C522 C521 1.438 . S
C522 C523 1.428 . S
C522 C535 1.394 . S
C523 H515 0.949 . S
C523 C522 1.428 . S
C523 C524 1.345 . S
C524 H516 0.950 . S
C524 C523 1.345 . S
C524 C525 1.424 . S
C525 H517 0.951 . S
C525 C524 1.424 . S
C525 C526 1.347 . S
C526 H518 0.951 . S
C526 C521 1.429 . S
C526 C525 1.347 . S
H527 C528 0.951 . S
C528 H527 0.951 . S
C528 C534 1.265 . S
H529 C534 0.950 . S
H530 C538 0.949 . S
H531 C539 0.950 . S
H532 C540 0.951 . S
H533 C541 0.951 . S
C534 C528 1.265 . S
C534 H529 0.950 . S
C534 C535 1.478 . S
C535 C522 1.394 . S
C535 C534 1.478 . S
C535 C536 1.397 . S
C536 C535 1.397 . S
C536 C537 1.438 1_655 S
C536 C541 1.429 1_655 S
C537 C520 1.394 1_455 S
C537 C536 1.438 1_455 S
C537 C538 1.428 . S
C538 H530 0.949 . S
C538 C537 1.428 . S
C538 C539 1.345 . S
C539 H531 0.950 . S
C539 C538 1.345 . S
C539 C540 1.424 . S
C540 H532 0.951 . S
C540 C539 1.424 . S
C540 C541 1.347 . S
C541 H533 0.951 . S
C541 C536 1.429 1_455 S
C541 C540 1.347 . S
H542 C543 0.951 . S
C543 H542 0.951 . S
C543 C549 1.265 . S
H544 C549 0.950 . S
H545 C553 0.949 . S
H546 C554 0.950 . S
H547 C555 0.950 1_455 S
H548 C556 0.951 . S
C549 C543 1.265 . S
C549 H544 0.950 . S
C549 C550 1.478 . S
C550 C549 1.478 . S
C550 C551 1.397 . S
C550 C567 1.394 . S
C551 C550 1.397 . S
C551 C552 1.438 . S
C551 C556 1.429 . S
C552 C551 1.438 . S
C552 C553 1.428 1_655 S
C552 C565 1.394 . S
C553 H545 0.949 . S
C553 C552 1.428 1_455 S
C553 C554 1.345 . S
C554 H546 0.950 . S
C554 C553 1.345 . S
C554 C555 1.424 1_455 S
C555 H547 0.950 1_655 S
C555 C554 1.424 1_655 S
C555 C556 1.347 . S
C556 H548 0.951 . S
C556 C551 1.429 . S
C556 C555 1.347 . S
H557 C558 0.951 . S
C558 H557 0.951 . S
C558 C564 1.265 1_455 S
H559 C564 0.950 . S
H560 C568 0.949 . S
H561 C569 0.950 . S
H562 C570 0.951 . S
H563 C571 0.951 . S
C564 C558 1.265 1_655 S
C564 H559 0.950 . S
C564 C565 1.478 . S
C565 C552 1.394 . S
C565 C564 1.478 . S
C565 C566 1.397 . S
C566 C565 1.397 . S
C566 C567 1.438 . S
C566 C571 1.429 . S
C567 C550 1.394 . S
C567 C566 1.438 . S
C567 C568 1.428 . S
C568 H560 0.949 . S
C568 C567 1.428 . S
C568 C569 1.345 . S
C569 H561 0.950 . S
C569 C568 1.345 . S
C569 C570 1.424 . S
C570 H562 0.951 . S
C570 C569 1.424 . S
C570 C571 1.347 . S
C571 H563 0.951 . S
C571 C566 1.429 . S
C571 C570 1.347 . S
H572 C573 0.951 . S
C573 H572 0.951 . S
C573 C579 1.265 . S
H574 C579 0.950 . S
H575 C583 0.949 . S
H576 C584 0.950 . S
H577 C585 0.951 . S
H578 C586 0.951 . S
C579 C573 1.265 . S
C579 H574 0.950 . S
C579 C580 1.478 . S
C580 C579 1.478 . S
C580 C581 1.397 . S
C580 C597 1.394 . S
C581 C580 1.397 . S
C581 C582 1.438 . S
C581 C586 1.429 . S
C582 C581 1.438 . S
C582 C583 1.428 . S
C582 C595 1.394 1_455 S
C583 H575 0.949 . S
C583 C582 1.428 . S
C583 C584 1.345 . S
C584 H576 0.950 . S
C584 C583 1.345 . S
C584 C585 1.424 . S
C585 H577 0.951 . S
C585 C584 1.424 . S
C585 C586 1.347 . S
C586 H578 0.951 . S
C586 C581 1.429 . S
C586 C585 1.347 . S
H587 C588 0.951 1_455 S
C588 H587 0.951 1_655 S
C588 C594 1.265 . S
H589 C594 0.950 . S
H590 C598 0.949 . S
H591 C599 0.950 . S
H592 C600 0.951 . S
H593 C601 0.951 . S
C594 C588 1.265 . S
C594 H589 0.950 . S
C594 C595 1.478 . S
C595 C582 1.394 1_655 S
C595 C594 1.478 . S
C595 C596 1.397 1_655 S
C596 C595 1.397 1_455 S
C596 C597 1.438 . S
C596 C601 1.429 1_455 S
C597 C580 1.394 . S
C597 C596 1.438 . S
C597 C598 1.428 . S
C598 H590 0.949 . S
C598 C597 1.428 . S
C598 C599 1.345 . S
C599 H591 0.950 . S
C599 C598 1.345 . S
C599 C600 1.424 1_455 S
C600 H592 0.951 . S
C600 C599 1.424 1_655 S
C600 C601 1.347 . S
C601 H593 0.951 . S
C601 C596 1.429 1_655 S
C601 C600 1.347 . S
H602 C603 0.951 . S
C603 H602 0.951 . S
C603 C609 1.265 . S
H604 C609 0.950 . S
H605 C613 0.949 . S
H606 C614 0.950 . S
H607 C615 0.951 . S
H608 C616 0.951 . S
C609 C603 1.265 . S
C609 H604 0.950 . S
C609 C610 1.478 . S
C610 C609 1.478 . S
C610 C611 1.397 . S
C610 C627 1.394 . S
C611 C610 1.397 . S
C611 C612 1.438 . S
C611 C616 1.429 . S
C612 C611 1.438 . S
C612 C613 1.428 1_455 S
C612 C625 1.394 . S
C613 H605 0.949 . S
C613 C612 1.428 1_655 S
C613 C614 1.345 . S
C614 H606 0.950 . S
C614 C613 1.345 . S
C614 C615 1.424 . S
C615 H607 0.951 . S
C615 C614 1.424 . S
C615 C616 1.347 1_655 S
C616 H608 0.951 . S
C616 C611 1.429 . S
C616 C615 1.347 1_455 S
H617 C618 0.951 . S
C618 H617 0.951 . S
C618 C624 1.265 1_655 S
H619 C624 0.950 . S
H620 C628 0.949 . S
H621 C629 0.950 . S
H622 C630 0.951 . S
H623 C631 0.951 . S
C624 C618 1.265 1_455 S
C624 H619 0.950 . S
C624 C625 1.478 . S
C625 C612 1.394 . S
C625 C624 1.478 . S
C625 C626 1.397 . S
C626 C625 1.397 . S
C626 C627 1.438 . S
C626 C631 1.429 . S
C627 C610 1.394 . S
C627 C626 1.438 . S
C627 C628 1.428 . S
C628 H620 0.949 . S
C628 C627 1.428 . S
C628 C629 1.345 . S
C629 H621 0.950 . S
C629 C628 1.345 . S
C629 C630 1.424 . S
C630 H622 0.951 . S
C630 C629 1.424 . S
C630 C631 1.347 . S
C631 H623 0.951 . S
C631 C626 1.429 . S
C631 C630 1.347 . S
C153 C26 2.007 . S
C168 C2 2.007 . S
C183 C64 2.007 . S
C198 C40 2.007 . S
C213 C102 2.007 . S
C228 C78 2.007 . S
C243 C140 1.979 . S
C258 C116 1.979 . S
C273 C57 1.610 . S
C288 C20 1.610 . S
C303 C133 1.613 . S
C318 C96 1.613 . S
C333 C19 1.609 1_556 S
C348 C58 1.611 . S
C363 C134 1.611 . S
C378 C95 1.611 . S
C393 C118 1.242 . S
C408 C17 1.158 . S
C423 C42 1.160 . S
C438 C93 1.248 . S
C453 C99 1.167 . S
C468 C66 1.245 . S
C483 C23 1.242 . S
C498 C142 1.153 . S
C513 C80 1.168 . S
C528 C55 1.149 . S
C543 C131 1.151 . S
C558 C4 1.241 . S
C573 C28 1.239 . S
C588 C137 1.083 . S
C603 C104 1.163 . S
C618 C61 1.241 . S
