# Generated by pormake.
# Topology wiv, (6)-cn, num edge types: 1
# Building blocks:
#     Node 0, Type 0, BuildingBlock: FUNLAD_clean_sbu_0, # of connection points: 6
#     Node 1, Type 0, BuildingBlock: FUNLAD_clean_sbu_0, # of connection points: 6
#     Node 2, Type 0, BuildingBlock: FUNLAD_clean_sbu_0, # of connection points: 6
#     Node 3, Type 0, BuildingBlock: FUNLAD_clean_sbu_0, # of connection points: 6
#     Node 4, Type 0, BuildingBlock: FUNLAD_clean_sbu_0, # of connection points: 6
#     Node 5, Type 0, BuildingBlock: FUNLAD_clean_sbu_0, # of connection points: 6
#     Node 6, Type 0, BuildingBlock: FUNLAD_clean_sbu_0, # of connection points: 6
#     Node 7, Type 0, BuildingBlock: FUNLAD_clean_sbu_0, # of connection points: 6
#     Node 8, Type 0, BuildingBlock: FUNLAD_clean_sbu_0, # of connection points: 6
#     Node 9, Type 0, BuildingBlock: FUNLAD_clean_sbu_0, # of connection points: 6
#     Node 10, Type 0, BuildingBlock: FUNLAD_clean_sbu_0, # of connection points: 6
#     Node 11, Type 0, BuildingBlock: FUNLAD_clean_sbu_0, # of connection points: 6
#     Node 12, Type 0, BuildingBlock: FUNLAD_clean_sbu_0, # of connection points: 6
#     Node 13, Type 0, BuildingBlock: FUNLAD_clean_sbu_0, # of connection points: 6
#     Node 14, Type 0, BuildingBlock: FUNLAD_clean_sbu_0, # of connection points: 6
#     Node 15, Type 0, BuildingBlock: FUNLAD_clean_sbu_0, # of connection points: 6
#     Edge 16, Type (0, 0), BuildingBlock: AJUNOK_clean_linker_0, # of connection points: 2
#     Edge 17, Type (0, 0), BuildingBlock: AJUNOK_clean_linker_0, # of connection points: 2
#     Edge 18, Type (0, 0), BuildingBlock: AJUNOK_clean_linker_0, # of connection points: 2
#     Edge 19, Type (0, 0), BuildingBlock: AJUNOK_clean_linker_0, # of connection points: 2
#     Edge 20, Type (0, 0), BuildingBlock: AJUNOK_clean_linker_0, # of connection points: 2
#     Edge 21, Type (0, 0), BuildingBlock: AJUNOK_clean_linker_0, # of connection points: 2
#     Edge 22, Type (0, 0), BuildingBlock: AJUNOK_clean_linker_0, # of connection points: 2
#     Edge 23, Type (0, 0), BuildingBlock: AJUNOK_clean_linker_0, # of connection points: 2
#     Edge 24, Type (0, 0), BuildingBlock: AJUNOK_clean_linker_0, # of connection points: 2
#     Edge 25, Type (0, 0), BuildingBlock: AJUNOK_clean_linker_0, # of connection points: 2
#     Edge 26, Type (0, 0), BuildingBlock: AJUNOK_clean_linker_0, # of connection points: 2
#     Edge 27, Type (0, 0), BuildingBlock: AJUNOK_clean_linker_0, # of connection points: 2
#     Edge 28, Type (0, 0), BuildingBlock: AJUNOK_clean_linker_0, # of connection points: 2
#     Edge 29, Type (0, 0), BuildingBlock: AJUNOK_clean_linker_0, # of connection points: 2
#     Edge 30, Type (0, 0), BuildingBlock: AJUNOK_clean_linker_0, # of connection points: 2
#     Edge 31, Type (0, 0), BuildingBlock: AJUNOK_clean_linker_0, # of connection points: 2
#     Edge 32, Type (0, 0), BuildingBlock: AJUNOK_clean_linker_0, # of connection points: 2
#     Edge 33, Type (0, 0), BuildingBlock: AJUNOK_clean_linker_0, # of connection points: 2
#     Edge 34, Type (0, 0), BuildingBlock: AJUNOK_clean_linker_0, # of connection points: 2
#     Edge 35, Type (0, 0), BuildingBlock: AJUNOK_clean_linker_0, # of connection points: 2
#     Edge 36, Type (0, 0), BuildingBlock: AJUNOK_clean_linker_0, # of connection points: 2
#     Edge 37, Type (0, 0), BuildingBlock: AJUNOK_clean_linker_0, # of connection points: 2
#     Edge 38, Type (0, 0), BuildingBlock: AJUNOK_clean_linker_0, # of connection points: 2
#     Edge 39, Type (0, 0), BuildingBlock: AJUNOK_clean_linker_0, # of connection points: 2
#     Edge 40, Type (0, 0), BuildingBlock: AJUNOK_clean_linker_0, # of connection points: 2
#     Edge 41, Type (0, 0), BuildingBlock: AJUNOK_clean_linker_0, # of connection points: 2
#     Edge 42, Type (0, 0), BuildingBlock: AJUNOK_clean_linker_0, # of connection points: 2
#     Edge 43, Type (0, 0), BuildingBlock: AJUNOK_clean_linker_0, # of connection points: 2
#     Edge 44, Type (0, 0), BuildingBlock: AJUNOK_clean_linker_0, # of connection points: 2
#     Edge 45, Type (0, 0), BuildingBlock: AJUNOK_clean_linker_0, # of connection points: 2
#     Edge 46, Type (0, 0), BuildingBlock: AJUNOK_clean_linker_0, # of connection points: 2
#     Edge 47, Type (0, 0), BuildingBlock: AJUNOK_clean_linker_0, # of connection points: 2
#     Edge 48, Type (0, 0), BuildingBlock: AJUNOK_clean_linker_0, # of connection points: 2
#     Edge 49, Type (0, 0), BuildingBlock: AJUNOK_clean_linker_0, # of connection points: 2
#     Edge 50, Type (0, 0), BuildingBlock: AJUNOK_clean_linker_0, # of connection points: 2
#     Edge 51, Type (0, 0), BuildingBlock: AJUNOK_clean_linker_0, # of connection points: 2
#     Edge 52, Type (0, 0), BuildingBlock: AJUNOK_clean_linker_0, # of connection points: 2
#     Edge 53, Type (0, 0), BuildingBlock: AJUNOK_clean_linker_0, # of connection points: 2
#     Edge 54, Type (0, 0), BuildingBlock: AJUNOK_clean_linker_0, # of connection points: 2
#     Edge 55, Type (0, 0), BuildingBlock: AJUNOK_clean_linker_0, # of connection points: 2
#     Edge 56, Type (0, 0), BuildingBlock: AJUNOK_clean_linker_0, # of connection points: 2
#     Edge 57, Type (0, 0), BuildingBlock: AJUNOK_clean_linker_0, # of connection points: 2
#     Edge 58, Type (0, 0), BuildingBlock: AJUNOK_clean_linker_0, # of connection points: 2
#     Edge 59, Type (0, 0), BuildingBlock: AJUNOK_clean_linker_0, # of connection points: 2
#     Edge 60, Type (0, 0), BuildingBlock: AJUNOK_clean_linker_0, # of connection points: 2
#     Edge 61, Type (0, 0), BuildingBlock: AJUNOK_clean_linker_0, # of connection points: 2
#     Edge 62, Type (0, 0), BuildingBlock: AJUNOK_clean_linker_0, # of connection points: 2
#     Edge 63, Type (0, 0), BuildingBlock: AJUNOK_clean_linker_0, # of connection points: 2
# Relax obj value: 0.150
# Max RMSD: 0.148
# Mean RMSD: 0.147
data_MOF--net-wiv--node1-FUNLAD_clean_sbu_0--edge1-AJUNOK_clean_linker_0
_symmetry_space_group_name_H-M    P1
_symmetry_Int_Tables_number       1
_symmetry_cell_setting            triclinic
loop_
_symmetry_equiv_pos_as_xyz
'x, y, z'
_cell_length_a     54.84934
_cell_length_b     54.86658
_cell_length_c     11.014496
_cell_angle_alpha  89.972623
_cell_angle_beta   89.930598
_cell_angle_gamma 90.287861
loop_
_atom_site_label
_atom_site_type_symbol
_atom_site_fract_x
_atom_site_fract_y
_atom_site_fract_z
_atom_type_partial_charge
C0 C 0.37433 0.11198 0.79702 0.0
N1 N 0.3554 0.16862 0.03274 0.0
C2 C 0.37123 0.18331 -0.02871 0.0
C3 C 0.36872 0.20861 -0.02439 0.0
C4 C 0.34982 0.21888 0.04434 0.0
C5 C 0.33347 0.20334 0.10495 0.0
C6 C 0.33651 0.17812 0.09727 0.0
Zn7 Zn 0.36164 0.13185 0.03876 0.0
C8 C 0.31688 0.10363 -0.03222 0.0
N9 N 0.37544 0.05499 0.0561 0.0
C10 C 0.39709 0.04555 0.01838 0.0
C11 C 0.35971 0.04147 0.12441 0.0
C12 C 0.3659 1.01794 0.16152 0.0
C13 C 0.38838 1.00789 0.1268 0.0
C14 C 0.40392 0.02194 0.05269 0.0
Zn15 Zn 0.36843 0.09178 0.03916 0.0
O16 O 0.3696 0.13133 0.85532 0.0
C17 C 0.41318 0.12173 0.10186 0.0
O18 O 0.37642 0.09186 0.85346 0.0
H19 H 0.34282 0.04941 0.15568 0.0
H20 H 0.38627 0.17542 0.92161 0.0
H21 H 0.40954 0.0567 -0.0342 0.0
O22 O 0.39814 0.13885 0.08401 0.0
O23 O 0.40612 0.09979 0.08629 0.0
H24 H 0.32413 0.16614 0.14547 0.0
O25 O 0.36049 0.09246 0.22516 0.0
O26 O 0.35394 0.13176 0.22253 0.0
O27 O 0.33038 0.08514 -0.01232 0.0
O28 O 0.32523 0.12478 -0.00881 0.0
C29 C 0.35623 0.11211 0.28157 0.0
H30 H 0.38194 0.22004 0.92931 0.0
H31 H 0.31867 0.21064 0.1588 0.0
H32 H 0.35358 1.00815 0.22118 0.0
H33 H 0.42139 1.01492 0.02344 0.0
C34 C 0.11295 0.68828 0.62414 0.0
N35 N 0.05681 0.66662 0.85205 0.0
C36 C 0.04281 0.68175 0.78376 0.0
C37 C 1.01945 0.67463 0.74741 0.0
C38 C 1.01014 0.65174 0.78205 0.0
C39 C 0.02446 0.63705 0.85833 0.0
C40 C 0.04792 0.6448 0.89167 0.0
Zn41 Zn 0.0934 0.67503 0.86689 0.0
C42 C 0.12441 0.6314 0.80325 0.0
N43 N 0.16996 0.69111 0.86971 0.0
C44 C 0.17898 0.70938 0.79851 0.0
C45 C 0.18507 0.67683 0.93673 0.0
C46 C 0.21028 0.68042 0.93226 0.0
C47 C 0.22001 0.69856 0.8564 0.0
C48 C 0.20413 0.71323 0.78933 0.0
Zn49 Zn 0.13329 0.68335 0.86617 0.0
O50 O 0.0935 0.68301 0.68078 0.0
C51 C 0.10372 0.72667 0.94054 0.0
O52 O 0.13253 0.69124 0.68297 0.0
H53 H 0.17762 0.66221 -0.00852 0.0
H54 H 0.05025 0.6989 0.75194 0.0
H55 H 0.16672 0.72064 0.7464 0.0
O56 O 0.08566 0.71255 0.91897 0.0
O57 O 0.12519 0.71945 0.91631 0.0
H58 H 0.05937 0.63293 0.94514 0.0
O59 O 0.13332 0.67528 0.04913 0.0
O60 O 0.09404 0.66711 0.05268 0.0
O61 O 0.14126 0.647 0.8196 0.0
O62 O 0.10236 0.63782 0.8198 0.0
C63 C 0.11416 0.67002 0.1084 0.0
H64 H 1.00918 0.68658 0.68848 0.0
H65 H 1.01782 0.61958 0.89034 0.0
H66 H 0.22212 0.66865 -0.01557 0.0
H67 H 0.21111 0.72741 0.73006 0.0
C68 C 0.67199 0.92936 0.81448 0.0
N69 N 0.69214 0.874 0.05468 0.0
C70 C 0.67745 0.85916 -0.01239 0.0
C71 C 0.67992 0.83389 -0.00589 0.0
C72 C 0.69736 0.8238 0.07203 0.0
C73 C 0.71271 0.83942 0.13798 0.0
C74 C 0.70991 0.86464 0.12717 0.0
Zn75 Zn 0.68487 0.91064 0.05782 0.0
C76 C 0.72863 0.94044 -0.00923 0.0
N77 N 0.66768 0.98688 0.06823 0.0
C78 C 0.64565 0.99547 0.03111 0.0
C79 C 0.68327 1.00129 0.13248 0.0
C80 C 0.67665 0.02495 0.16528 0.0
C81 C 0.65381 0.03417 0.13083 0.0
C82 C 0.63833 1.01916 0.06159 0.0
Zn83 Zn 0.67597 0.95028 0.05464 0.0
O84 O 0.67806 0.91065 0.87455 0.0
C85 C 0.63253 0.91873 0.11758 0.0
O86 O 0.66792 0.94933 0.8694 0.0
H87 H 0.70047 0.99402 0.16342 0.0
H88 H 0.66323 0.86688 0.93184 0.0
H89 H 0.63333 0.98366 -0.01832 0.0
O90 O 0.6483 0.90237 0.09834 0.0
O91 O 0.63871 0.94099 0.10349 0.0
H92 H 0.72144 0.87671 0.17953 0.0
O93 O 0.68414 0.95053 0.24057 0.0
O94 O 0.69153 0.91139 0.24062 0.0
O95 O 0.71369 0.9581 0.00197 0.0
O96 O 0.72146 0.91896 0.01646 0.0
C97 C 0.68903 0.93115 0.29818 0.0
H98 H 0.66769 0.82232 0.94245 0.0
H99 H 0.72647 0.83218 0.19834 0.0
H100 H 0.68897 0.03557 0.22121 0.0
H101 H 0.62059 0.02554 0.03285 0.0
C102 C 0.93203 0.3575 0.62853 0.0
N103 N 0.98812 0.37734 0.8551 0.0
C104 C 1.00241 0.36154 0.79221 0.0
C105 C 0.02606 0.3682 0.75789 0.0
C106 C 0.03529 0.3913 0.78915 0.0
C107 C 1.02046 0.40695 0.85748 0.0
C108 C 0.99683 0.39956 0.88987 0.0
Zn109 Zn 0.95137 0.36971 0.86874 0.0
C110 C 0.9218 0.41469 0.80707 0.0
N111 N 0.8746 0.35678 0.87433 0.0
C112 C 0.86552 0.33762 0.8098 0.0
C113 C 0.85955 0.37286 0.93055 0.0
C114 C 0.83433 0.37067 0.91816 0.0
C115 C 0.82452 0.35182 0.84691 0.0
C116 C 0.84036 0.33473 0.79524 0.0
Zn117 Zn 0.91126 0.36355 0.87276 0.0
O118 O 0.95166 0.36035 0.6871 0.0
C119 C 0.93929 0.31866 0.94389 0.0
O120 O 0.91191 0.35713 0.68531 0.0
H121 H 0.86714 0.3879 -0.01828 0.0
H122 H 0.99504 0.34418 0.76321 0.0
H123 H 0.87783 0.32506 0.76577 0.0
O124 O 0.95793 0.3323 0.92714 0.0
O125 O 0.91831 0.32668 0.91575 0.0
H126 H 0.98511 0.41201 0.93838 0.0
O127 O 0.91141 0.37017 0.0581 0.0
O128 O 0.95058 0.37894 0.05214 0.0
O129 O 0.90427 0.4006 0.8346 0.0
O130 O 0.94354 0.40676 0.81247 0.0
C131 C 0.93108 0.37562 0.11266 0.0
H132 H 0.03666 0.35573 0.70317 0.0
H133 H 0.02691 0.42487 0.88382 0.0
H134 H 0.82262 0.3839 -0.0383 0.0
H135 H 0.83342 0.3199 0.7401 0.0
C136 C 0.37643 0.4301 0.3711 0.0
N137 N 0.35561 0.37408 0.13411 0.0
C138 C 0.37114 0.35899 0.19394 0.0
C139 C 0.36844 0.33373 0.18495 0.0
C140 C 0.34977 0.32394 0.11269 0.0
C141 C 0.33344 0.33987 0.05571 0.0
C142 C 0.33668 0.36502 0.0679 0.0
Zn143 Zn 0.36291 0.41071 0.12979 0.0
C144 C 0.31915 0.43973 0.19962 0.0
N145 N 0.3793 0.48721 0.113 0.0
C146 C 0.40142 0.49622 0.1475 0.0
C147 C 0.36333 0.50125 0.04988 0.0
C148 C 0.36962 0.52497 0.01559 0.0
C149 C 0.39253 0.53463 0.04729 0.0
C150 C 0.40843 0.51999 0.11539 0.0
Zn151 Zn 0.37128 0.45053 0.12865 0.0
O152 O 0.37049 0.41093 0.31365 0.0
C153 C 0.41458 0.41937 0.06349 0.0
O154 O 0.37961 0.45004 0.31401 0.0
H155 H 0.34606 0.49363 0.02096 0.0
H156 H 0.38617 0.36654 0.24535 0.0
H157 H 0.41402 0.48469 0.19609 0.0
O158 O 0.39894 0.40293 0.08621 0.0
O159 O 0.40868 0.44164 0.07795 0.0
H160 H 0.32451 0.37732 0.02128 0.0
O161 O 0.36299 0.45032 0.94292 0.0
O162 O 0.3557 0.41108 0.94581 0.0
O163 O 0.33342 0.45791 0.18269 0.0
O164 O 0.3268 0.41849 0.17455 0.0
C165 C 0.35844 0.43068 0.88664 0.0
H166 H 0.38141 0.32198 0.23004 0.0
H167 H 0.31859 0.33294 0.00071 0.0
H168 H 0.35699 0.53531 -0.03937 0.0
H169 H 0.42623 0.52672 0.14196 0.0
C170 C 0.43433 0.68748 0.0323 0.0
N171 N 0.48847 0.66522 0.79935 0.0
C172 C 0.50429 0.68191 0.84632 0.0
C173 C 0.52762 0.67491 0.88332 0.0
C174 C 0.5346 0.6503 0.87596 0.0
C175 C 0.5185 0.63383 0.81956 0.0
C176 C 0.49554 0.64173 0.78097 0.0
Zn177 Zn 0.45187 0.67401 0.78955 0.0
C178 C 0.42028 0.63065 0.8585 0.0
N179 N 0.37537 0.68998 0.79493 0.0
C180 C 0.36269 0.68106 0.8917 0.0
C181 C 0.36396 0.70289 0.70616 0.0
C182 C 0.33881 0.70719 0.71315 0.0
C183 C 0.32541 0.69815 0.81255 0.0
C184 C 0.3377 0.68477 0.90181 0.0
Zn185 Zn 0.41207 0.68239 0.79084 0.0
O186 O 0.45342 0.68298 -0.02811 0.0
C187 C 0.4416 0.72586 0.71496 0.0
O188 O 0.41421 0.68986 -0.02287 0.0
H189 H 0.37432 0.70979 0.62978 0.0
H190 H 0.49839 0.70044 0.8613 0.0
H191 H 0.37193 0.67079 -0.03867 0.0
O192 O 0.45962 0.71153 0.73102 0.0
O193 O 0.42029 0.7186 0.7436 0.0
H194 H 0.48287 0.62867 0.74287 0.0
O195 O 0.41109 0.67479 0.60477 0.0
O196 O 0.44997 0.6651 0.60719 0.0
O197 O 0.40381 0.64603 0.83491 0.0
O198 O 0.44249 0.63694 0.84483 0.0
C199 C 0.43041 0.66875 0.54837 0.0
H200 H 0.53974 0.68857 0.92094 0.0
H201 H 0.52305 0.61473 0.8107 0.0
H202 H 0.32996 0.71748 0.64197 0.0
H203 H 0.32802 0.67678 -0.02207 0.0
C204 C 0.66857 0.61162 0.36802 0.0
N205 N 0.68646 0.66802 0.1263 0.0
C206 C 0.70082 0.67903 0.21097 0.0
C207 C 0.70461 0.7043 0.20771 0.0
C208 C 0.6934 0.71829 0.11671 0.0
C209 C 0.6788 0.70637 0.03054 0.0
C210 C 0.67558 0.6812 0.0369 0.0
Zn211 Zn 0.68022 0.63107 0.12697 0.0
C212 C 0.72555 0.60334 0.19179 0.0
N213 N 0.66664 0.55402 0.1138 0.0
C214 C 0.64489 0.54497 0.15378 0.0
C215 C 0.68193 0.54004 0.04614 0.0
C216 C 0.67495 0.51661 0.00988 0.0
C217 C 0.65203 0.50725 0.04407 0.0
C218 C 0.63729 0.52148 0.12053 0.0
Zn219 Zn 0.67391 0.59092 0.12576 0.0
O220 O 0.67428 0.63109 0.31225 0.0
C221 C 0.62865 0.62013 0.07014 0.0
O222 O 0.66519 0.59199 0.30891 0.0
H223 H 0.69904 0.54757 0.01416 0.0
H224 H 0.70939 0.66823 0.28109 0.0
H225 H 0.63291 0.55638 0.20684 0.0
O226 O 0.64299 0.63756 0.09537 0.0
O227 O 0.63654 0.59835 0.07312 0.0
H228 H 0.66423 0.6722 -0.02969 0.0
O229 O 0.68267 0.59044 0.94426 0.0
O230 O 0.68595 0.63016 0.93944 0.0
O231 O 0.71156 0.58481 0.18038 0.0
O232 O 0.71737 0.62428 0.16367 0.0
C233 C 0.68528 0.6099 0.88421 0.0
H234 H 0.71634 0.71273 0.27475 0.0
H235 H 0.66965 0.71647 -0.04051 0.0
H236 H 0.68695 0.50637 0.95105 0.0
H237 H 0.61981 0.51476 0.15231 0.0
C238 C 0.61135 0.35417 0.02992 0.0
N239 N 0.55597 0.37566 0.80147 0.0
C240 C 0.54152 0.35991 0.86472 0.0
C241 C 0.518 0.36666 0.89964 0.0
C242 C 0.5091 0.38982 0.8688 0.0
C243 C 0.52408 0.40542 0.80005 0.0
C244 C 0.54754 0.39792 0.76686 0.0
Zn245 Zn 0.59259 0.36782 0.78824 0.0
C246 C 0.62299 0.41185 0.85252 0.0
N247 N 0.66927 0.35359 0.78669 0.0
C248 C 0.68218 0.3637 0.87964 0.0
C249 C 0.68064 0.34082 0.69711 0.0
C250 C 0.70606 0.33826 0.69808 0.0
C251 C 0.7196 0.34917 0.79145 0.0
C252 C 0.70744 0.36179 0.88341 0.0
Zn253 Zn 0.63244 0.35995 0.78708 0.0
O254 O 0.59218 0.35919 -0.02858 0.0
C255 C 0.60345 0.31621 0.71255 0.0
O256 O 0.63134 0.35194 -0.0268 0.0
H257 H 0.67009 0.33302 0.62385 0.0
H258 H 0.54868 0.34252 0.89373 0.0
H259 H 0.67294 0.37375 0.95022 0.0
O260 O 0.58538 0.33024 0.73285 0.0
O261 O 0.62489 0.32354 0.73807 0.0
H262 H 0.55939 0.41033 0.71801 0.0
O263 O 0.63268 0.36783 0.60132 0.0
O264 O 0.59351 0.37626 0.60506 0.0
O265 O 0.63978 0.39663 0.83185 0.0
O266 O 0.60093 0.40508 0.83913 0.0
C267 C 0.61308 0.37297 0.54552 0.0
H268 H 0.50728 0.35422 0.95465 0.0
H269 H 0.51788 0.4234 0.77409 0.0
H270 H 0.71506 0.32852 0.62538 0.0
H271 H 0.71747 0.37043 -0.04349 0.0
C272 C 0.87572 0.61361 0.28448 0.0
N273 N 0.85575 0.66935 0.52707 0.0
C274 C 0.87099 0.68484 0.46685 0.0
C275 C 0.86801 0.71005 0.47653 0.0
C276 C 0.84931 0.71941 0.54976 0.0
C277 C 0.83331 0.70304 0.60741 0.0
C278 C 0.83686 0.67795 0.59468 0.0
Zn279 Zn 0.86303 0.63266 0.52744 0.0
C280 C 0.81854 0.60373 0.45651 0.0
N281 N 0.87857 0.55581 0.53689 0.0
C282 C 0.90181 0.54838 0.51431 0.0
C283 C 0.86201 0.54025 0.58734 0.0
C284 C 0.86884 0.51666 0.62164 0.0
C285 C 0.89311 0.50897 0.60633 0.0
C286 C 0.90955 0.52516 0.54981 0.0
Zn287 Zn 0.8703 0.59262 0.52524 0.0
O288 O 0.86995 0.63293 0.34112 0.0
C289 C 0.91455 0.62352 0.59011 0.0
O290 O 0.8791 0.59394 0.34287 0.0
H291 H 0.84375 0.5465 0.60663 0.0
H292 H 0.88597 0.67765 0.41409 0.0
H293 H 0.91483 0.56092 0.47473 0.0
O294 O 0.8996 0.64051 0.56834 0.0
O295 O 0.90747 0.60151 0.57799 0.0
H296 H 0.82489 0.66535 0.64152 0.0
O297 O 0.86145 0.59174 0.70772 0.0
O298 O 0.85645 0.63129 0.71384 0.0
O299 O 0.83265 0.58544 0.46932 0.0
O300 O 0.82647 0.6248 0.48483 0.0
C301 C 0.85797 0.611 0.76844 0.0
H302 H 0.88075 0.72211 0.43086 0.0
H303 H 0.81842 0.70958 0.66307 0.0
H304 H 0.85536 0.50484 0.66329 0.0
H305 H 0.92857 0.52053 0.53843 0.0
C306 C 0.61118 0.18589 0.12896 0.0
N307 N 0.55598 0.16441 0.35884 0.0
C308 C 0.5417 0.17977 0.29323 0.0
C309 C 0.51832 0.17265 0.25718 0.0
C310 C 0.50927 0.14951 0.28928 0.0
C311 C 0.52388 0.13453 0.36269 0.0
C312 C 0.54734 0.14231 0.39594 0.0
Zn313 Zn 0.59259 0.17294 0.37309 0.0
C314 C 0.62415 0.13004 0.31037 0.0
N315 N 0.66878 0.19008 0.37176 0.0
C316 C 0.67828 0.20727 0.29584 0.0
C317 C 0.6835 0.17584 0.44091 0.0
C318 C 0.7088 0.17807 0.43252 0.0
C319 C 0.71918 0.19486 0.35083 0.0
C320 C 0.70353 0.20982 0.28306 0.0
Zn321 Zn 0.63212 0.18254 0.36893 0.0
O322 O 0.59218 0.18152 0.19044 0.0
C323 C 0.60244 0.2259 0.43456 0.0
O324 O 0.63145 0.18837 0.18265 0.0
H325 H 0.67566 0.16208 0.49966 0.0
H326 H 0.54893 0.19714 0.26324 0.0
H327 H 0.66629 0.21836 0.24123 0.0
O328 O 0.58491 0.21053 0.42745 0.0
O329 O 0.62385 0.21917 0.40596 0.0
H330 H 0.55899 0.13027 0.44731 0.0
O331 O 0.63176 0.17635 0.55554 0.0
O332 O 0.59344 0.16439 0.55498 0.0
O333 O 0.64035 0.14599 0.33239 0.0
O334 O 0.60179 0.1358 0.32225 0.0
C335 C 0.61288 0.16927 0.61272 0.0
H336 H 0.5078 0.18482 0.20049 0.0
H337 H 0.51744 0.11683 0.39255 0.0
H338 H 0.72015 0.16629 0.48725 0.0
H339 H 0.71062 0.22261 0.21687 0.0
C340 C 0.16948 0.43146 0.29526 0.0
N341 N 0.18914 0.37505 0.53185 0.0
C342 C 0.17459 0.36037 0.46334 0.0
C343 C 0.17691 0.33507 0.46939 0.0
C344 C 0.19408 0.32466 0.5483 0.0
C345 C 0.20919 0.34028 0.61609 0.0
C346 C 0.2066 0.36551 0.60538 0.0
Zn347 Zn 0.18232 0.41177 0.53662 0.0
C348 C 0.22673 0.44057 0.46964 0.0
N349 N 0.16698 0.48838 0.55312 0.0
C350 C 0.1453 0.49727 0.51283 0.0
C351 C 0.18223 0.50247 0.62102 0.0
C352 C 0.1754 0.52595 0.65608 0.0
C353 C 0.15263 0.53524 0.6208 0.0
C354 C 0.13783 0.5208 0.54503 0.0
Zn355 Zn 0.17469 0.45169 0.53767 0.0
O356 O 0.17525 0.41226 0.35244 0.0
C357 C 0.13072 0.42057 0.60016 0.0
O358 O 0.1665 0.45136 0.35243 0.0
H359 H 0.19927 0.49504 0.65326 0.0
H360 H 0.16062 0.36824 0.40655 0.0
H361 H 0.13334 0.48577 0.4596 0.0
O362 O 0.14609 0.40405 0.57718 0.0
O363 O 0.13707 0.44283 0.58727 0.0
H364 H 0.21796 0.37744 0.65943 0.0
O365 O 0.18281 0.4514 0.72335 0.0
O366 O 0.18897 0.41203 0.72086 0.0
O367 O 0.21274 0.4589 0.4848 0.0
O368 O 0.21862 0.41942 0.49493 0.0
C369 C 0.18676 0.43168 0.77977 0.0
H370 H 0.16497 0.32376 0.41481 0.0
H371 H 0.22224 0.33317 0.68053 0.0
H372 H 0.18743 0.53635 0.71449 0.0
H373 H 0.12046 0.52742 0.51255 0.0
C374 C 0.43081 0.85644 0.13458 0.0
N375 N 0.48711 0.87968 0.35319 0.0
C376 C 0.49158 0.89413 0.25481 0.0
C377 C 0.51527 0.90099 0.22374 0.0
C378 C 0.53493 0.89286 0.2935 0.0
C379 C 0.52999 0.87819 0.3958 0.0
C380 C 0.50579 0.87177 0.4242 0.0
Zn381 Zn 0.45074 0.86998 0.37681 0.0
C382 C 0.41786 0.91281 0.31827 0.0
N383 N 0.37449 0.85267 0.38732 0.0
C384 C 0.36417 0.83615 0.31049 0.0
C385 C 0.36049 0.86644 0.46256 0.0
C386 C 0.33514 0.86469 0.45855 0.0
C387 C 0.32394 0.84919 0.37369 0.0
C388 C 0.33879 0.83418 0.30181 0.0
Zn389 Zn 0.41106 0.86059 0.37708 0.0
O390 O 0.45004 0.86099 0.19381 0.0
C391 C 0.44167 0.81734 0.4409 0.0
O392 O 0.41066 0.85448 0.19027 0.0
H393 H 0.36891 0.8796 0.52244 0.0
H394 H 0.47675 0.90005 0.19766 0.0
H395 H 0.37556 0.82526 0.25177 0.0
O396 O 0.45936 0.83246 0.42921 0.0
O397 O 0.42019 0.82427 0.41456 0.0
H398 H 0.50199 0.86024 0.50171 0.0
O399 O 0.41258 0.86695 0.56335 0.0
O400 O 0.4511 0.87844 0.56018 0.0
O401 O 0.40185 0.89675 0.34092 0.0
O402 O 0.44025 0.90717 0.32905 0.0
C403 C 0.43174 0.8736 0.61915 0.0
H404 H 0.51821 0.91204 0.14346 0.0
H405 H 0.54466 0.87173 0.45292 0.0
H406 H 0.32441 0.87598 0.51879 0.0
H407 H 0.3309 0.82186 0.23565 0.0
C408 C 0.87531 0.93085 0.86938 0.0
N409 N 0.85456 0.87491 0.63197 0.0
C410 C 0.87004 0.86014 0.69402 0.0
C411 C 0.86731 0.83485 0.68892 0.0
C412 C 0.84856 0.82459 0.61868 0.0
C413 C 0.83256 0.84021 0.55727 0.0
C414 C 0.8358 0.86545 0.56584 0.0
Zn415 Zn 0.86176 0.91169 0.62747 0.0
C416 C 0.81831 0.94073 0.70572 0.0
N417 N 0.87816 0.98856 0.61255 0.0
C418 C 0.90144 0.99622 0.63364 0.0
C419 C 0.86163 1.00381 0.56098 0.0
C420 C 0.86852 0.0273 0.52421 0.0
C421 C 0.89282 0.03522 0.53803 0.0
C422 C 0.90924 1.01935 0.59562 0.0
Zn423 Zn 0.86968 0.95175 0.62762 0.0
O424 O 0.87007 0.91169 0.8103 0.0
C425 C 0.91335 0.92079 0.55983 0.0
O426 O 0.87823 0.95095 0.81327 0.0
H427 H 0.84334 0.99736 0.54275 0.0
H428 H 0.88504 0.86796 0.74466 0.0
H429 H 0.91446 0.98391 0.67397 0.0
O430 O 0.89795 0.9039 0.57894 0.0
O431 O 0.90683 0.9428 0.57588 0.0
H432 H 0.82371 0.87747 0.51698 0.0
O433 O 0.86099 0.9518 0.44196 0.0
O434 O 0.8536 0.91255 0.44433 0.0
O435 O 0.83216 0.95903 0.68421 0.0
O436 O 0.8257 0.91944 0.67922 0.0
C437 C 0.85611 0.93223 0.38537 0.0
H438 H 0.88031 0.82341 0.73576 0.0
H439 H 0.81789 0.83294 0.50213 0.0
H440 H 0.85505 0.03888 0.48182 0.0
H441 H 0.92829 0.02414 0.60594 0.0
C442 C 0.93175 0.18554 0.51194 0.0
N443 N 0.98851 0.16688 0.28853 0.0
C444 C 1.00229 0.18204 0.35846 0.0
C445 C 0.02535 0.17488 0.39858 0.0
C446 C 0.03459 0.15194 0.36581 0.0
C447 C 1.02061 0.13731 0.28715 0.0
C448 C 0.99745 0.14507 0.25023 0.0
Zn449 Zn 0.95177 0.17433 0.27106 0.0
C450 C 0.92178 0.12897 0.32849 0.0
N451 N 0.87492 0.18692 0.26278 0.0
C452 C 0.86549 0.20449 0.33607 0.0
C453 C 0.86019 0.17278 0.19243 0.0
C454 C 0.83491 0.17563 0.19653 0.0
C455 C 0.82459 0.19299 0.27488 0.0
C456 C 0.8403 0.20768 0.34446 0.0
Zn457 Zn 0.91163 0.18015 0.26813 0.0
O458 O 0.95139 0.18337 0.45288 0.0
C459 C 0.94013 0.22592 0.20751 0.0
O460 O 0.91159 0.18539 0.45586 0.0
H461 H 0.86801 0.15884 0.13521 0.0
H462 H 0.99485 0.19919 0.38911 0.0
H463 H 0.8775 0.21557 0.39126 0.0
O464 O 0.95858 0.21192 0.21615 0.0
O465 O 0.91912 0.21745 0.23366 0.0
H466 H 0.98619 0.13316 0.1955 0.0
O467 O 0.91264 0.17458 0.08237 0.0
O468 O 0.95164 0.16537 0.08773 0.0
O469 O 0.90428 0.14288 0.30003 0.0
O470 O 0.94353 0.1372 0.32499 0.0
C471 C 0.9322 0.16891 0.02773 0.0
H472 H 0.03538 0.18681 0.45904 0.0
H473 H 0.02724 0.11983 0.25627 0.0
H474 H 0.82351 0.16401 0.14071 0.0
H475 H 0.83324 0.22086 0.40842 0.0
C476 C 0.16858 0.11147 0.86788 0.0
N477 N 0.18801 0.16868 0.63222 0.0
C478 C 0.17369 0.18317 0.70239 0.0
C479 C 0.1763 0.20848 0.6982 0.0
C480 C 0.19355 0.21911 0.61964 0.0
C481 C 0.20845 0.20367 0.55028 0.0
C482 C 0.20554 0.17842 0.55902 0.0
Zn483 Zn 0.18098 0.13196 0.6257 0.0
C484 C 0.22526 0.1032 0.69293 0.0
N485 N 0.16551 0.05529 0.60791 0.0
C486 C 0.14353 0.04598 0.64298 0.0
C487 C 0.18138 0.04165 0.5419 0.0
C488 C 0.17505 1.01813 0.50456 0.0
C489 C 0.15228 1.00818 0.53684 0.0
C490 C 0.13654 0.02236 0.60841 0.0
Zn491 Zn 0.17315 0.09202 0.62566 0.0
O492 O 0.17431 0.13095 0.81205 0.0
C493 C 0.12907 0.12263 0.56485 0.0
O494 O 0.16468 0.09195 0.80884 0.0
H495 H 0.19855 0.04948 0.51269 0.0
H496 H 0.15971 0.17513 0.75923 0.0
H497 H 0.13098 0.05721 0.69376 0.0
O498 O 0.14434 0.13949 0.58688 0.0
O499 O 0.1358 0.10053 0.57572 0.0
H500 H 0.21674 0.16662 0.50385 0.0
O501 O 0.18181 0.09249 0.44215 0.0
O502 O 0.18746 0.13199 0.43917 0.0
O503 O 0.21085 0.08504 0.67961 0.0
O504 O 0.21763 0.12439 0.66603 0.0
C505 C 0.18596 0.11187 0.38319 0.0
H506 H 0.16453 0.21965 0.75395 0.0
H507 H 0.22156 0.21096 0.48612 0.0
H508 H 0.18754 1.00823 0.44679 0.0
H509 H 0.11884 1.01542 0.63566 0.0
C510 C 0.11067 0.85675 0.52552 0.0
N511 N 0.05526 0.87756 0.29707 0.0
C512 C 0.04102 0.86226 0.36414 0.0
C513 C 1.0177 0.86931 0.40089 0.0
C514 C 1.00871 0.89233 0.3679 0.0
C515 C 0.02325 0.90719 0.29267 0.0
C516 C 0.04663 0.8995 0.25886 0.0
Zn517 Zn 0.09189 0.86948 0.2818 0.0
C518 C 0.12334 0.91278 0.34448 0.0
N519 N 0.16812 0.85348 0.28047 0.0
C520 C 0.178 0.83663 0.35644 0.0
C521 C 0.18251 0.86772 0.20866 0.0
C522 C 0.20783 0.86601 0.21499 0.0
C523 C 0.21857 0.84998 0.2985 0.0
C524 C 0.20332 0.83463 0.36726 0.0
Zn525 Zn 0.13144 0.86047 0.28516 0.0
O526 O 0.09164 0.86079 0.46429 0.0
C527 C 0.10197 0.81671 0.22021 0.0
O528 O 0.13097 0.85465 0.47155 0.0
H529 H 0.17438 0.88108 0.14916 0.0
H530 H 0.04823 0.84501 0.39482 0.0
H531 H 0.16628 0.82536 0.41232 0.0
O532 O 0.08434 0.8318 0.22728 0.0
O533 O 0.12333 0.82378 0.24866 0.0
H534 H 0.05825 0.9115 0.20629 0.0
O535 O 0.13086 0.8666 0.0986 0.0
O536 O 0.09255 0.87816 0.09988 0.0
O537 O 0.13958 0.89709 0.32132 0.0
O538 O 0.101 0.90672 0.33322 0.0
C539 C 0.11197 0.87347 0.04175 0.0
H540 H 1.00723 0.85723 0.45891 0.0
H541 H 1.01684 0.92477 0.26197 0.0
H542 H 0.21888 0.8776 0.15711 0.0
H543 H 0.21084 0.82192 0.43231 0.0
C544 C 0.42652 0.95687 0.26675 0.0
C545 C 0.41016 0.93703 0.27037 0.0
C546 C 0.41949 0.97959 0.21899 0.0
C547 C 0.39588 0.98334 0.17198 0.0
H548 H 0.44483 0.95494 0.30199 0.0
H549 H 0.43254 0.99446 0.22077 0.0
S550 S 0.34689 0.93664 0.14868 0.0
N551 N 0.36958 0.9224 0.21599 0.0
N552 N 0.35679 0.96467 0.12428 0.0
C553 C 0.37958 0.96346 0.17228 0.0
C554 C 0.38661 0.94047 0.2218 0.0
C555 C 0.94359 0.65331 0.68398 0.0
C556 C 0.93922 0.62974 0.63787 0.0
C557 C 0.96628 0.65996 0.7324 0.0
C558 C 0.98581 0.64344 0.73626 0.0
H559 H 0.92926 0.66683 0.68403 0.0
H560 H 0.96848 0.67827 0.76758 0.0
S561 S 0.98431 0.57963 0.62333 0.0
N562 N 0.95648 0.58979 0.59847 0.0
N563 N 0.99941 0.60249 0.68611 0.0
C564 C 0.98176 0.61976 0.69034 0.0
C565 C 0.95846 0.61289 0.64191 0.0
C566 C 0.62274 0.06262 0.22246 0.0
C567 C 0.64601 0.05896 0.17108 0.0
C568 C 0.61566 0.08558 0.26716 0.0
C569 C 0.63164 0.10573 0.26307 0.0
H570 H 0.61007 0.04751 0.2305 0.0
H571 H 0.59768 0.08745 0.30676 0.0
S572 S 0.69359 0.10642 0.12508 0.0
N573 N 0.68414 0.07799 0.10949 0.0
N574 N 0.67124 0.12077 0.19492 0.0
C575 C 0.65474 0.10239 0.20904 0.0
C576 C 0.66181 0.07915 0.16283 0.0
C577 C 0.06338 0.42194 0.6895 0.0
C578 C 0.05995 0.39918 0.74684 0.0
C579 C 0.08628 0.42899 0.64277 0.0
C580 C 0.10654 0.41344 0.65093 0.0
H581 H 0.04812 0.43419 0.6783 0.0
H582 H 0.08801 0.44651 0.59813 0.0
S583 S 0.10787 0.35324 0.80635 0.0
N584 N 0.0793 0.3622 0.81885 0.0
N585 N 0.12202 0.37506 0.73054 0.0
C586 C 0.10345 0.39095 0.71155 0.0
C587 C 0.08027 0.38392 0.75947 0.0
C588 C 0.42289 0.5635 0.95067 0.0
C589 C 0.39994 0.55949 0.00531 0.0
C590 C 0.42951 0.58651 0.9038 0.0
C591 C 0.41334 0.60634 0.90887 0.0
H592 H 0.43566 0.54861 0.94162 0.0
H593 H 0.44723 0.58865 0.86156 0.0
S594 S 0.35223 0.60613 0.05572 0.0
N595 N 0.36202 0.57792 0.07147 0.0
N596 N 0.37402 0.62074 -0.01816 0.0
C597 C 0.39061 0.60267 -0.03363 0.0
C598 C 0.38402 0.57939 0.01486 0.0
C599 C 0.59474 0.61622 0.91929 0.0
C600 C 0.60363 0.62575 0.02916 0.0
C601 C 0.57244 0.62415 0.87048 0.0
C602 C 0.55804 0.64167 0.9306 0.0
H603 H 0.60557 0.60333 0.86816 0.0
H604 H 0.56679 0.61694 0.78339 0.0
S605 S 0.57204 0.66952 0.23045 0.0
N606 N 0.59586 0.65221 0.20094 0.0
N607 N 0.55343 0.66609 0.11395 0.0
C608 C 0.56636 0.65037 0.04387 0.0
C609 C 0.58925 0.64267 0.09188 0.0
C610 C 0.65995 0.4633 -0.00555 0.0
C611 C 0.64365 0.48301 -0.0026 0.0
C612 C 0.65307 0.44063 0.94654 0.0
C613 C 0.62949 0.43649 0.89979 0.0
H614 H 0.67824 0.46535 0.03019 0.0
H615 H 0.6664 0.42612 0.94751 0.0
S616 S 0.58006 0.48226 0.88124 0.0
N617 N 0.603 0.4971 0.94477 0.0
N618 N 0.58989 0.45425 0.85774 0.0
C619 C 0.61292 0.45597 0.90232 0.0
C620 C 0.62001 0.47923 0.95039 0.0
C621 C 0.45906 0.42757 0.01911 0.0
C622 C 0.43852 0.41218 0.01119 0.0
C623 C 0.48174 0.42047 -0.02912 0.0
C624 C 0.48466 0.39781 0.91227 0.0
H625 H 0.45773 0.445 0.06473 0.0
H626 H 0.49724 0.43258 -0.01806 0.0
S627 S 0.43585 0.35234 0.85278 0.0
N628 N 0.42222 0.3741 0.93036 0.0
N629 N 0.46455 0.36113 0.83938 0.0
C630 C 0.46406 0.38272 0.89985 0.0
C631 C 0.4411 0.38981 0.94925 0.0
C632 C 0.89955 0.45427 0.81913 0.0
C633 C 0.91643 0.43932 0.75925 0.0
C634 C 0.89246 0.47675 0.76977 0.0
C635 C 0.90139 0.48494 0.6565 0.0
H636 H 0.89176 0.44853 0.90504 0.0
H637 H 0.87985 0.48781 0.82135 0.0
S638 S 0.94435 0.45096 0.45818 0.0
N639 N 0.94131 0.43352 0.57954 0.0
N640 N 0.92714 0.47508 0.483 0.0
C641 C 0.91811 0.46982 0.59498 0.0
C642 C 0.92578 0.44719 0.64708 0.0
C643 C 0.46512 0.15758 0.24602 0.0
C644 C 0.48484 0.14129 0.24438 0.0
C645 C 0.44228 0.15102 0.19907 0.0
C646 C 0.43796 0.12778 0.14875 0.0
H647 H 0.46729 0.17563 0.28443 0.0
H648 H 0.4278 0.16435 0.20348 0.0
S649 S 0.48358 0.07842 0.11906 0.0
N650 N 0.49869 0.10095 0.18472 0.0
N651 N 0.45551 0.08841 0.09936 0.0
C652 C 0.45742 0.11116 0.14723 0.0
C653 C 0.48086 0.11794 0.19435 0.0
C654 C 0.15434 0.60223 0.7124 0.0
C655 C 0.13075 0.60658 0.7583 0.0
C656 C 0.16102 0.57935 0.66678 0.0
C657 C 0.14449 0.55966 0.66526 0.0
H658 H 0.16783 0.61671 0.71042 0.0
H659 H 0.17933 0.57715 0.63163 0.0
S660 S 0.08073 0.56095 0.7796 0.0
N661 N 0.09086 0.589 0.80096 0.0
N662 N 0.10358 0.54584 0.71801 0.0
C663 C 0.12083 0.56366 0.71135 0.0
C664 C 0.11395 0.58709 0.75721 0.0
C665 C 0.58964 0.92956 0.17898 0.0
C666 C 0.60776 0.91176 0.16276 0.0
C667 C 0.56638 0.92339 0.22363 0.0
C668 C 0.5603 0.8992 0.25522 0.0
H669 H 0.59336 0.94844 0.15656 0.0
H670 H 0.553 0.93771 0.23345 0.0
S671 S 0.60088 0.84558 0.23004 0.0
N672 N 0.61778 0.86868 0.18273 0.0
N673 N 0.57418 0.85732 0.26578 0.0
C674 C 0.57824 0.88126 0.24054 0.0
C675 C 0.60187 0.88746 0.1944 0.0
C676 C 0.89216 0.06686 0.37168 0.0
C677 C 0.90115 0.05911 0.48539 0.0
C678 C 0.89933 0.0892 0.32007 0.0
C679 C 0.91634 0.10444 0.37808 0.0
H680 H 0.87945 0.05556 0.32154 0.0
H681 H 0.8915 0.0946 0.23394 0.0
S682 S 0.94434 0.09405 0.67957 0.0
N683 N 0.92702 0.06975 0.65731 0.0
N684 N 0.94133 0.11102 0.55671 0.0
C685 C 0.92571 0.09701 0.49073 0.0
C686 C 0.91797 0.07454 0.54507 0.0
C687 C 0.10071 0.15292 0.47167 0.0
C688 C 0.10454 0.1292 0.517 0.0
C689 C 0.0783 0.15985 0.42177 0.0
C690 C 0.0585 0.1435 0.41542 0.0
H691 H 0.11529 0.16631 0.47299 0.0
H692 H 0.07656 0.17823 0.38691 0.0
S693 S 0.05841 0.07955 0.52716 0.0
N694 N 0.08637 0.08941 0.55431 0.0
N695 N 0.04396 0.10263 0.46379 0.0
C696 C 0.06195 0.11973 0.46132 0.0
C697 C 0.08496 0.11257 0.51132 0.0
C698 C 0.11455 0.95684 0.39376 0.0
C699 C 0.13078 0.93704 0.3935 0.0
C700 C 0.12146 0.97966 0.44163 0.0
C701 C 0.14479 0.98353 0.4921 0.0
H702 H 0.09647 0.9548 0.35548 0.0
H703 H 0.10855 0.9945 0.43707 0.0
S704 S 0.19316 0.93694 0.526 0.0
N705 N 0.17082 0.92255 0.45554 0.0
N706 N 0.18336 0.965 0.54732 0.0
C707 C 0.16089 0.96368 0.49555 0.0
C708 C 0.15401 0.94059 0.44595 0.0
C709 C 0.96458 0.88433 0.41537 0.0
C710 C 0.98447 0.90063 0.41419 0.0
C711 C 0.94191 0.89106 0.46332 0.0
C712 C 0.93795 0.91448 0.51189 0.0
H713 H 0.96649 0.86615 0.37833 0.0
H714 H 0.92727 0.87773 0.46111 0.0
S715 S 0.98418 0.96388 0.53469 0.0
N716 N 0.99889 0.94114 0.46982 0.0
N717 N 0.95605 0.95398 0.55701 0.0
C718 C 0.9576 0.93108 0.51084 0.0
C719 C 0.98085 0.92413 0.4627 0.0
C720 C 0.34764 0.25592 0.17607 0.0
C721 C 0.34812 0.24569 0.05896 0.0
C722 C 0.34782 0.28126 0.19279 0.0
C723 C 0.34813 0.29725 0.09299 0.0
H724 H 0.3478 0.24425 0.25543 0.0
H725 H 0.34787 0.28841 0.28448 0.0
S726 S 0.34863 0.27965 0.76783 0.0
N727 N 0.34825 0.25344 0.84174 0.0
N728 N 0.34859 0.30109 0.87305 0.0
C729 C 0.34807 0.28726 -0.02457 0.0
C730 C 0.34812 0.26147 -0.04155 0.0
C731 C 0.28354 0.69623 0.72105 0.0
C732 C 0.29855 0.70143 0.8215 0.0
C733 C 0.25803 0.69623 0.73186 0.0
C734 C 0.24671 0.70127 0.84357 0.0
H735 H 0.29154 0.69114 0.63481 0.0
H736 H 0.2471 0.69134 0.65361 0.0
S737 S 0.27741 0.7193 0.12914 0.0
N738 N 0.29995 0.71447 0.03268 0.0
N739 N 0.25205 0.71369 0.05315 0.0
C740 C 0.26137 0.70755 0.94301 0.0
C741 C 0.28727 0.70784 0.9319 0.0
C742 C 0.70217 0.78192 -0.01338 0.0
C743 C 0.69857 0.79704 0.08785 0.0
C744 C 0.70132 0.75648 -0.0022 0.0
C745 C 0.69655 0.74521 0.11042 0.0
H746 H 0.7054 0.78985 0.89789 0.0
H747 H 0.70407 0.74554 0.91715 0.0
S748 S 0.68493 0.77697 0.4021 0.0
N749 N 0.68989 0.79919 0.30376 0.0
N750 N 0.68775 0.75135 0.32475 0.0
C751 C 0.69321 0.7602 0.21267 0.0
C752 C 0.69431 0.78612 0.20134 0.0
C753 C 0.78472 0.32898 0.84329 0.0
C754 C 0.79794 0.35067 0.82291 0.0
C755 C 0.75929 0.32817 0.82793 0.0
C756 C 0.74646 0.349 0.79116 0.0
H757 H 0.79397 0.31278 0.87498 0.0
H758 H 0.74953 0.31147 0.84875 0.0
S759 S 0.77274 0.40926 0.71258 0.0
N760 N 0.79644 0.39274 0.75353 0.0
N761 N 0.74871 0.39121 0.72656 0.0
C762 C 0.75953 0.37042 0.76586 0.0
C763 C 0.78529 0.37126 0.78122 0.0
C764 C 0.84703 0.76215 0.46975 0.0
C765 C 0.84728 0.74612 0.56948 0.0
C766 C 0.84658 0.7875 0.48653 0.0
C767 C 0.84675 0.79775 0.60366 0.0
H768 H 0.84736 0.75503 0.37804 0.0
H769 H 0.84688 0.79919 0.40721 0.0
S770 S 0.84683 0.76375 0.89469 0.0
N771 N 0.84722 0.74232 0.78945 0.0
N772 N 0.84638 0.78994 0.82078 0.0
C773 C 0.84659 0.78193 0.70406 0.0
C774 C 0.84681 0.75613 0.68703 0.0
C775 C 0.78396 0.17269 0.30114 0.0
C776 C 0.79764 0.19435 0.29041 0.0
C777 C 0.75874 0.17314 0.3204 0.0
C778 C 0.74605 0.19529 0.3307 0.0
H779 H 0.79285 0.15512 0.29652 0.0
H780 H 0.74909 0.15591 0.32649 0.0
S781 S 0.77319 0.25724 0.30749 0.0
N782 N 0.79645 0.23867 0.28747 0.0
N783 N 0.74914 0.23954 0.32918 0.0
C784 C 0.75944 0.21714 0.31974 0.0
C785 C 0.78518 0.21667 0.2988 0.0
C786 C 0.17286 0.28453 0.57616 0.0
C787 C 0.19484 0.29773 0.56568 0.0
C788 C 0.17273 0.25929 0.5943 0.0
C789 C 0.19458 0.24608 0.60387 0.0
H790 H 0.1555 0.29381 0.57146 0.0
H791 H 0.15528 0.25002 0.59935 0.0
S792 S 0.25717 0.2719 0.58442 0.0
N793 N 0.23914 0.29557 0.56443 0.0
N794 N 0.2389 0.24824 0.60462 0.0
C795 C 0.21674 0.25903 0.59472 0.0
C796 C 0.21687 0.28479 0.57468 0.0
C797 C 0.28368 0.82782 0.34425 0.0
C798 C 0.29705 0.84967 0.35557 0.0
C799 C 0.25834 0.82801 0.32598 0.0
C800 C 0.24543 0.85007 0.31773 0.0
H801 H 0.29283 0.81042 0.35048 0.0
H802 H 0.24884 0.81076 0.31705 0.0
S803 S 0.27188 0.91234 0.3412 0.0
N804 N 0.29549 0.894 0.35392 0.0
N805 N 0.2479 0.89434 0.32588 0.0
C806 C 0.25858 0.87204 0.32961 0.0
C807 C 0.28435 0.87185 0.34706 0.0
C808 C 0.2641 0.12219 0.76522 0.0
C809 C 0.24952 0.10109 0.75456 0.0
C810 C 0.28529 0.12257 0.83575 0.0
C811 C 0.29342 0.1018 0.89892 0.0
H812 H 0.25891 0.13896 0.72048 0.0
H813 H 0.29551 0.1395 0.83952 0.0
S814 S 0.26262 0.04142 0.89979 0.0
N815 N 0.24503 0.05851 0.81306 0.0
N816 N 0.28548 0.0591 0.94326 0.0
C817 C 0.27952 0.08026 0.88698 0.0
C818 C 0.25751 0.07994 0.81561 0.0
C819 C 0.08322 0.7666 -0.00295 0.0
C820 C 0.101 0.74868 0.01844 0.0
C821 C 0.08238 0.78809 0.06803 0.0
C822 C 0.09908 0.79215 0.16364 0.0
H823 H 0.0706 0.76448 0.9222 0.0
H824 H 0.06942 0.8021 0.04393 0.0
S825 S 0.14591 0.74851 0.27067 0.0
N826 N 0.13342 0.73501 0.15206 0.0
N827 N 0.13169 0.77481 0.28469 0.0
C828 C 0.11569 0.77347 0.19066 0.0
C829 C 0.11668 0.75192 0.11838 0.0
C830 C 0.75711 0.96115 0.84087 0.0
C831 C 0.75309 0.9436 0.93286 0.0
C832 C 0.7785 0.96088 0.76871 0.0
C833 C 0.79638 0.94284 0.78523 0.0
H834 H 0.74315 0.97442 0.8205 0.0
H835 H 0.78057 0.97418 0.69671 0.0
S836 S 0.79661 0.89559 0.02709 0.0
N837 N 0.77041 0.90978 0.04544 0.0
N838 N 0.81003 0.90912 0.9109 0.0
C839 C 0.79317 0.92624 0.8817 0.0
C840 C 0.7717 0.92665 -0.04491 0.0
C841 C 0.96048 0.27934 0.00548 0.0
C842 C 0.94079 0.29561 0.01592 0.0
C843 C 0.96095 0.25727 0.07222 0.0
C844 C 0.94195 0.2509 0.15321 0.0
H845 H 0.97519 0.28329 0.9427 0.0
H846 H 0.97583 0.24474 0.05677 0.0
S847 S 0.88853 0.28941 0.22915 0.0
N848 N 0.90337 0.30507 0.12444 0.0
N849 N 0.90442 0.26429 0.24943 0.0
C850 C 0.92301 0.26782 0.16937 0.0
C851 C 0.9224 0.28995 0.10103 0.0
C852 C 0.28393 0.42017 0.30518 0.0
C853 C 0.29522 0.44181 0.26459 0.0
C854 C 0.26263 0.42042 0.37462 0.0
C855 C 0.25093 0.44231 0.40662 0.0
H856 H 0.29173 0.40254 0.28482 0.0
H857 H 0.25511 0.40294 0.40156 0.0
S858 S 0.27268 0.50438 0.32447 0.0
N859 N 0.29321 0.48609 0.26369 0.0
N860 N 0.2524 0.48654 0.39181 0.0
C861 C 0.26185 0.46427 0.36695 0.0
C862 C 0.28407 0.46402 0.29676 0.0
C863 C 0.42402 0.75553 0.56886 0.0
C864 C 0.44383 0.74884 0.64271 0.0
C865 C 0.4244 0.7768 0.49888 0.0
C866 C 0.44451 0.79287 0.4996 0.0
H867 H 0.40782 0.74417 0.56464 0.0
H868 H 0.4083 0.78096 0.44605 0.0
S869 S 0.50172 0.78348 0.67353 0.0
N870 N 0.48484 0.75938 0.70774 0.0
N871 N 0.48536 0.80005 0.57867 0.0
C872 C 0.4649 0.78612 0.57011 0.0
C873 C 0.46461 0.76401 0.64085 0.0
C874 C 0.761 0.62368 0.29262 0.0
C875 C 0.74977 0.60186 0.25424 0.0
C876 C 0.78251 0.62372 0.36074 0.0
C877 C 0.79437 0.60195 0.39353 0.0
H878 H 0.75293 0.64117 0.27174 0.0
H879 H 0.79003 0.64127 0.38632 0.0
S880 S 0.77296 0.53957 0.31566 0.0
N881 N 0.7522 0.5576 0.25521 0.0
N882 N 0.7932 0.5577 0.38096 0.0
C883 C 0.78355 0.57986 0.35548 0.0
C884 C 0.76121 0.57981 0.28666 0.0
C885 C 0.58276 0.25416 0.58753 0.0
C886 C 0.59933 0.25043 0.491 0.0
C887 C 0.58339 0.27574 0.65796 0.0
C888 C 0.60082 0.29411 0.63491 0.0
H889 H 0.57007 0.23983 0.61277 0.0
H890 H 0.57092 0.27759 0.73366 0.0
S891 S 0.64516 0.29519 0.37984 0.0
N892 N 0.63142 0.26848 0.36758 0.0
N893 N 0.63265 0.30852 0.49868 0.0
C894 C 0.61631 0.29118 0.53401 0.0
C895 C 0.61557 0.2695 0.4625 0.0
C896 C 0.36051 0.09078 0.47931 0.0
C897 C 0.35925 0.11278 0.41419 0.0
C898 C 0.36685 0.09054 0.60202 0.0
C899 C 0.37218 0.1123 0.66404 0.0
H900 H 0.35675 0.07353 0.43504 0.0
H901 H 0.3669 0.0732 0.64911 0.0
S902 S 0.37291 0.17472 0.53348 0.0
N903 N 0.36472 0.1569 0.4199 0.0
N904 N 0.37682 0.15638 0.65047 0.0
C905 C 0.37141 0.13442 0.59961 0.0
C906 C 0.36477 0.1347 0.4749 0.0
C907 C 0.09198 0.68115 0.4274 0.0
C908 C 0.11373 0.68566 0.49123 0.0
C909 C 0.09235 0.67475 0.30481 0.0
C910 C 0.11449 0.67259 0.24137 0.0
H911 H 0.07448 0.68225 0.47271 0.0
H912 H 0.07508 0.67199 0.25909 0.0
S913 S 0.17666 0.68207 0.36716 0.0
N914 N 0.15812 0.68743 0.48191 0.0
N915 N 0.15882 0.67503 0.2519 0.0
C916 C 0.13642 0.67688 0.30427 0.0
C917 C 0.13604 0.68364 0.42882 0.0
C918 C 0.67884 0.9516 0.49264 0.0
C919 C 0.68681 0.93064 0.43107 0.0
C920 C 0.67284 0.95075 0.61566 0.0
C921 C 0.6746 0.92891 0.68165 0.0
H922 H 0.67677 0.96877 0.44522 0.0
H923 H 0.66717 0.96746 0.65951 0.0
S924 S 0.69475 0.86882 0.56267 0.0
N925 N 0.69652 0.88744 0.44546 0.0
N926 N 0.6848 0.88567 0.67612 0.0
C927 C 0.68249 0.90774 0.62104 0.0
C928 C 0.68885 0.90869 0.49611 0.0
C929 C 0.91021 0.37047 0.31107 0.0
C930 C 0.93209 0.37292 0.24542 0.0
C931 C 0.91032 0.36412 0.43369 0.0
C932 C 0.93232 0.35999 0.49551 0.0
H933 H 0.89277 0.37321 0.26716 0.0
H934 H 0.89299 0.36299 0.48071 0.0
S935 S 0.99467 0.36306 0.36393 0.0
N936 N 0.97641 0.37011 0.25048 0.0
N937 N 0.97661 0.35807 0.48125 0.0
C938 C 0.95437 0.36209 0.43072 0.0
C939 C 0.95427 0.36872 0.30585 0.0
C940 C 0.36912 0.45184 0.56518 0.0
C941 C 0.37447 0.43002 0.50409 0.0
C942 C 0.36283 0.45176 0.68806 0.0
C943 C 0.36164 0.42986 0.75415 0.0
H944 H 0.36903 0.46908 0.51713 0.0
H945 H 0.35898 0.46902 0.73162 0.0
S946 S 0.37581 0.36792 0.63774 0.0
N947 N 0.37945 0.38608 0.5196 0.0
N948 N 0.36753 0.38582 0.75064 0.0
C949 C 0.36733 0.40791 0.69446 0.0
C950 C 0.37388 0.40804 0.56956 0.0
C951 C 0.4127 0.68732 0.23082 0.0
C952 C 0.4345 0.68443 0.16527 0.0
C953 C 0.41119 0.6809 0.35326 0.0
C954 C 0.43142 0.67132 0.41517 0.0
H955 H 0.39648 0.69428 0.18699 0.0
H956 H 0.39409 0.68396 0.40003 0.0
S957 S 0.49276 0.65963 0.2843 0.0
N958 N 0.47684 0.67111 0.17115 0.0
N959 N 0.4739 0.65881 0.40102 0.0
C960 C 0.45333 0.66812 0.35052 0.0
C961 C 0.45493 0.67486 0.22595 0.0
C962 C 0.68452 0.63113 0.68561 0.0
C963 C 0.68251 0.60934 0.75166 0.0
C964 C 0.67869 0.63193 0.56265 0.0
C965 C 0.67065 0.61093 0.50092 0.0
H966 H 0.69038 0.64786 0.72934 0.0
H967 H 0.68097 0.64911 0.51543 0.0
S968 S 0.6615 0.5493 0.63356 0.0
N969 N 0.67146 0.56619 0.74711 0.0
N970 N 0.66037 0.56777 0.51556 0.0
C971 C 0.66827 0.58902 0.56609 0.0
C972 C 0.67436 0.58815 0.69137 0.0
C973 C 0.63381 0.36627 0.34748 0.0
C974 C 0.61206 0.36973 0.41282 0.0
C975 C 0.63341 0.35973 0.22501 0.0
C976 C 0.61124 0.3564 0.16311 0.0
H977 H 0.65135 0.36841 0.3914 0.0
H978 H 0.65067 0.35793 0.17799 0.0
S979 S 0.54908 0.36171 0.29422 0.0
N980 N 0.56762 0.36837 0.40739 0.0
N981 N 0.56694 0.35589 0.17732 0.0
C982 C 0.58932 0.35927 0.22783 0.0
C983 C 0.58971 0.36611 0.35238 0.0
C984 C 0.8577 0.63208 -0.03223 0.0
C985 C 0.86094 0.61052 0.90113 0.0
C986 C 0.86384 0.63326 0.09045 0.0
C987 C 0.87342 0.61291 0.15141 0.0
H988 H 0.85063 0.64833 0.92468 0.0
H989 H 0.86052 0.6502 0.13814 0.0
S990 S 0.88625 0.55221 0.01704 0.0
N991 N 0.87484 0.56834 0.90443 0.0
N992 N 0.8865 0.57067 0.13522 0.0
C993 C 0.87703 0.59126 0.08563 0.0
C994 C 0.87062 0.58999 -0.03931 0.0
C995 C 0.63286 0.18093 0.80602 0.0
C996 C 0.61234 0.17139 0.74561 0.0
C997 C 0.63193 0.18671 0.92903 0.0
C998 C 0.61048 0.18312 -0.00356 0.0
H999 H 0.64974 0.18442 0.75774 0.0
H1000 H 0.6483 0.19377 -0.02828 0.0
S1001 S 0.55178 0.15792 0.88195 0.0
N1002 N 0.57003 0.15807 0.76284 0.0
N1003 N 0.56819 0.16907 -0.00551 0.0
C1004 C 0.58978 0.1735 0.93742 0.0
C1005 C 0.59078 0.16747 0.81209 0.0
C1006 C 0.1774 0.45307 0.10137 0.0
C1007 C 0.17124 0.4314 0.16243 0.0
C1008 C 0.18346 0.45285 -0.02173 0.0
C1009 C 0.1836 0.43094 0.91214 0.0
H1010 H 0.17831 0.47026 0.14962 0.0
H1011 H 0.188 0.46998 0.93462 0.0
S1012 S 0.16686 0.36949 0.02861 0.0
N1013 N 0.16427 0.38769 0.14703 0.0
N1014 N 0.17574 0.38714 0.91547 0.0
C1015 C 0.17704 0.40917 -0.02818 0.0
C1016 C 0.17073 0.40945 0.09693 0.0
C1017 C 0.4098 0.86427 0.93944 0.0
C1018 C 0.43137 0.85858 0.00179 0.0
C1019 C 0.4103 0.87033 0.8165 0.0
C1020 C 0.43237 0.87093 0.75157 0.0
H1021 H 0.39244 0.86472 -0.0136 0.0
H1022 H 0.39321 0.87442 0.77177 0.0
S1023 S 0.49372 0.8558 0.87107 0.0
N1024 N 0.47529 0.8528 -0.01129 0.0
N1025 N 0.47621 0.86417 0.75686 0.0
C1026 C 0.45406 0.86498 0.81234 0.0
C1027 C 0.45355 0.8587 0.93753 0.0
C1028 C 0.86382 0.95314 0.18832 0.0
C1029 C 0.85887 0.93146 0.2522 0.0
C1030 C 0.8705 0.95271 0.06589 0.0
C1031 C 0.8725 0.93057 0.00253 0.0
H1032 H 0.8629 0.97065 0.23351 0.0
H1033 H 0.87359 0.96994 0.02022 0.0
S1034 S 0.86176 0.86853 0.12819 0.0
N1035 N 0.85641 0.88712 0.24262 0.0
N1036 N 0.86935 0.88629 0.01327 0.0
C1037 C 0.86774 0.9087 0.06545 0.0
C1038 C 0.86068 0.90915 0.18976 0.0
C1039 C 0.91105 0.17126 0.82979 0.0
C1040 C 0.93302 0.17116 0.89518 0.0
C1041 C 0.91066 0.17716 0.70676 0.0
C1042 C 0.93226 0.18318 0.64465 0.0
H1043 H 0.89391 0.167 0.87429 0.0
H1044 H 0.89333 0.17648 0.65976 0.0
S1045 S 0.99455 0.18653 0.77578 0.0
N1046 N 0.97691 0.17816 0.89 0.0
N1047 N 0.97621 0.18932 0.65808 0.0
C1048 C 0.95439 0.18333 0.70913 0.0
C1049 C 0.95479 0.17717 0.83444 0.0
C1050 C 0.1717 0.13267 0.06587 0.0
C1051 C 0.17142 0.11072 0.00027 0.0
C1052 C 0.1778 0.13306 0.18874 0.0
C1053 C 0.18385 0.11149 0.25038 0.0
H1054 H 0.16732 0.14976 0.0218 0.0
H1055 H 0.17711 0.15033 0.23622 0.0
S1056 S 0.18766 0.04944 0.11776 0.0
N1057 N 0.17893 0.06698 0.00426 0.0
N1058 N 0.19039 0.06773 0.23586 0.0
C1059 C 0.1841 0.08944 0.18543 0.0
C1060 C 0.17778 0.08902 0.06033 0.0
C1061 C 0.13152 0.85692 0.72503 0.0
C1062 C 0.10992 0.85947 0.65809 0.0
C1063 C 0.13228 0.86276 0.84799 0.0
C1064 C 0.11144 0.87132 0.90887 0.0
H1065 H 0.14813 0.85067 0.682 0.0
H1066 H 0.14931 0.86012 0.89587 0.0
S1067 S 0.05033 0.88173 0.77407 0.0
N1068 N 0.06711 0.8714 0.66113 0.0
N1069 N 0.06864 0.88251 0.8927 0.0
C1070 C 0.08972 0.87417 0.84291 0.0
C1071 C 0.08889 0.86807 0.71762 0.0
loop_
_geom_bond_atom_site_label_1
_geom_bond_atom_site_label_2
_geom_bond_distance
_geom_bond_site_symmetry_2
_ccdc_geom_bond_type
C0 O16 1.251 . S
C0 O18 1.254 . S
N1 C2 1.333 . S
N1 C6 1.307 . S
N1 Zn7 2.020 . S
C2 N1 1.333 . S
C2 C3 1.379 . S
C2 H20 0.952 1_554 S
C3 C2 1.379 . S
C3 C4 1.390 . S
C3 H30 0.949 1_554 S
C4 C3 1.390 . S
C4 C5 1.357 . S
C5 C4 1.357 . S
C5 C6 1.370 . S
C5 H31 0.950 . S
C6 N1 1.307 . S
C6 C5 1.370 . S
C6 H24 0.948 . S
Zn7 N1 2.020 . S
Zn7 O16 2.039 1_554 S
Zn7 O22 2.034 . S
Zn7 O26 2.025 . S
Zn7 O28 2.024 . S
C8 O27 1.246 . S
C8 O28 1.249 . S
N9 C10 1.307 . S
N9 C11 1.333 . S
N9 Zn15 2.020 . S
C10 N9 1.307 . S
C10 C14 1.370 1_545 S
C10 H21 0.948 1_554 S
C11 N9 1.333 . S
C11 C12 1.344 1_545 S
C11 H19 0.952 . S
C12 C11 1.344 1_565 S
C12 C13 1.410 . S
C12 H32 0.965 . S
C13 C12 1.410 . S
C13 C14 1.357 . S
C14 C10 1.370 1_565 S
C14 C13 1.357 . S
C14 H33 0.950 . S
Zn15 N9 2.020 . S
Zn15 O18 2.025 1_554 S
Zn15 O23 2.024 . S
Zn15 O25 2.039 . S
Zn15 O27 2.034 . S
O16 C0 1.251 . S
O16 Zn7 2.039 1_556 S
C17 O22 1.246 . S
C17 O23 1.249 . S
O18 C0 1.254 . S
O18 Zn15 2.025 1_556 S
H19 C11 0.952 . S
H20 C2 0.952 1_556 S
H21 C10 0.948 1_556 S
O22 Zn7 2.034 . S
O22 C17 1.246 . S
O23 Zn15 2.024 . S
O23 C17 1.249 . S
H24 C6 0.948 . S
O25 Zn15 2.039 . S
O25 C29 1.251 . S
O26 Zn7 2.025 . S
O26 C29 1.254 . S
O27 C8 1.246 . S
O27 Zn15 2.034 . S
O28 Zn7 2.024 . S
O28 C8 1.249 . S
C29 O25 1.251 . S
C29 O26 1.254 . S
H30 C3 0.949 1_556 S
H31 C5 0.950 . S
H32 C12 0.965 . S
H33 C14 0.950 . S
C34 O50 1.251 . S
C34 O52 1.254 . S
N35 C36 1.333 . S
N35 C40 1.307 . S
N35 Zn41 2.020 . S
C36 N35 1.333 . S
C36 C37 1.344 1_455 S
C36 H54 0.952 . S
C37 C36 1.344 1_655 S
C37 C38 1.410 . S
C37 H64 0.965 . S
C38 C37 1.410 . S
C38 C39 1.357 . S
C39 C38 1.357 . S
C39 C40 1.370 1_655 S
C39 H65 0.950 . S
C40 N35 1.307 . S
C40 C39 1.370 1_455 S
C40 H58 0.948 1_556 S
Zn41 N35 2.020 . S
Zn41 O50 2.039 . S
Zn41 O56 2.034 . S
Zn41 O60 2.025 1_556 S
Zn41 O62 2.024 . S
C42 O61 1.246 . S
C42 O62 1.249 . S
N43 C44 1.307 . S
N43 C45 1.333 . S
N43 Zn49 2.020 . S
C44 N43 1.307 . S
C44 C48 1.370 . S
C44 H55 0.948 . S
C45 N43 1.333 . S
C45 C46 1.379 . S
C45 H53 0.952 1_556 S
C46 C45 1.379 . S
C46 C47 1.390 . S
C46 H66 0.949 1_556 S
C47 C46 1.390 . S
C47 C48 1.357 . S
C48 C44 1.370 . S
C48 C47 1.357 . S
C48 H67 0.950 . S
Zn49 N43 2.020 . S
Zn49 O52 2.025 . S
Zn49 O57 2.024 . S
Zn49 O59 2.039 1_556 S
Zn49 O61 2.034 . S
O50 C34 1.251 . S
O50 Zn41 2.039 . S
C51 O56 1.246 . S
C51 O57 1.249 . S
O52 C34 1.254 . S
O52 Zn49 2.025 . S
H53 C45 0.952 1_554 S
H54 C36 0.952 . S
H55 C44 0.948 . S
O56 Zn41 2.034 . S
O56 C51 1.246 . S
O57 Zn49 2.024 . S
O57 C51 1.249 . S
H58 C40 0.948 1_554 S
O59 Zn49 2.039 1_554 S
O59 C63 1.251 . S
O60 Zn41 2.025 1_554 S
O60 C63 1.254 . S
O61 C42 1.246 . S
O61 Zn49 2.034 . S
O62 Zn41 2.024 . S
O62 C42 1.249 . S
C63 O59 1.251 . S
C63 O60 1.254 . S
H64 C37 0.965 . S
H65 C39 0.950 . S
H66 C46 0.949 1_554 S
H67 C48 0.950 . S
C68 O84 1.251 . S
C68 O86 1.254 . S
N69 C70 1.333 . S
N69 C74 1.307 . S
N69 Zn75 2.020 . S
C70 N69 1.333 . S
C70 C71 1.379 . S
C70 H88 0.952 1_554 S
C71 C70 1.379 . S
C71 C72 1.390 . S
C71 H98 0.949 1_554 S
C72 C71 1.390 . S
C72 C73 1.357 . S
C73 C72 1.357 . S
C73 C74 1.370 . S
C73 H99 0.950 . S
C74 N69 1.307 . S
C74 C73 1.370 . S
C74 H92 0.948 . S
Zn75 N69 2.020 . S
Zn75 O84 2.039 1_554 S
Zn75 O90 2.034 . S
Zn75 O94 2.025 . S
Zn75 O96 2.024 . S
C76 O95 1.246 . S
C76 O96 1.249 . S
N77 C78 1.307 . S
N77 C79 1.333 . S
N77 Zn83 2.020 . S
C78 N77 1.307 . S
C78 C82 1.370 1_565 S
C78 H89 0.948 1_554 S
C79 N77 1.333 . S
C79 C80 1.344 1_565 S
C79 H87 0.952 . S
C80 C79 1.344 1_545 S
C80 C81 1.410 . S
C80 H100 0.965 . S
C81 C80 1.410 . S
C81 C82 1.357 . S
C82 C78 1.370 1_545 S
C82 C81 1.357 . S
C82 H101 0.950 . S
Zn83 N77 2.020 . S
Zn83 O86 2.025 1_554 S
Zn83 O91 2.024 . S
Zn83 O93 2.039 . S
Zn83 O95 2.034 . S
O84 C68 1.251 . S
O84 Zn75 2.039 1_556 S
C85 O90 1.246 . S
C85 O91 1.249 . S
O86 C68 1.254 . S
O86 Zn83 2.025 1_556 S
H87 C79 0.952 . S
H88 C70 0.952 1_556 S
H89 C78 0.948 1_556 S
O90 Zn75 2.034 . S
O90 C85 1.246 . S
O91 Zn83 2.024 . S
O91 C85 1.249 . S
H92 C74 0.948 . S
O93 Zn83 2.039 . S
O93 C97 1.251 . S
O94 Zn75 2.025 . S
O94 C97 1.254 . S
O95 C76 1.246 . S
O95 Zn83 2.034 . S
O96 Zn75 2.024 . S
O96 C76 1.249 . S
C97 O93 1.251 . S
C97 O94 1.254 . S
H98 C71 0.949 1_556 S
H99 C73 0.950 . S
H100 C80 0.965 . S
H101 C82 0.950 . S
C102 O118 1.251 . S
C102 O120 1.254 . S
N103 C104 1.333 . S
N103 C108 1.307 . S
N103 Zn109 2.020 . S
C104 N103 1.333 . S
C104 C105 1.344 1_655 S
C104 H122 0.952 . S
C105 C104 1.344 1_455 S
C105 C106 1.409 . S
C105 H132 0.965 . S
C106 C105 1.409 . S
C106 C107 1.357 . S
C107 C106 1.357 . S
C107 C108 1.370 1_455 S
C107 H133 0.950 . S
C108 N103 1.307 . S
C108 C107 1.370 1_655 S
C108 H126 0.948 1_556 S
Zn109 N103 2.020 . S
Zn109 O118 2.039 . S
Zn109 O124 2.034 . S
Zn109 O128 2.025 1_556 S
Zn109 O130 2.024 . S
C110 O129 1.246 . S
C110 O130 1.249 . S
N111 C112 1.307 . S
N111 C113 1.333 . S
N111 Zn117 2.020 . S
C112 N111 1.307 . S
C112 C116 1.370 . S
C112 H123 0.948 . S
C113 N111 1.333 . S
C113 C114 1.379 . S
C113 H121 0.952 1_556 S
C114 C113 1.379 . S
C114 C115 1.390 . S
C114 H134 0.949 1_556 S
C115 C114 1.390 . S
C115 C116 1.357 . S
C116 C112 1.370 . S
C116 C115 1.357 . S
C116 H135 0.950 . S
Zn117 N111 2.020 . S
Zn117 O120 2.025 . S
Zn117 O125 2.024 . S
Zn117 O127 2.039 1_556 S
Zn117 O129 2.034 . S
O118 C102 1.251 . S
O118 Zn109 2.039 . S
C119 O124 1.246 . S
C119 O125 1.249 . S
O120 C102 1.254 . S
O120 Zn117 2.025 . S
H121 C113 0.952 1_554 S
H122 C104 0.952 . S
H123 C112 0.948 . S
O124 Zn109 2.034 . S
O124 C119 1.246 . S
O125 Zn117 2.024 . S
O125 C119 1.249 . S
H126 C108 0.948 1_554 S
O127 Zn117 2.039 1_554 S
O127 C131 1.251 . S
O128 Zn109 2.025 1_554 S
O128 C131 1.254 . S
O129 C110 1.246 . S
O129 Zn117 2.034 . S
O130 Zn109 2.024 . S
O130 C110 1.249 . S
C131 O127 1.251 . S
C131 O128 1.254 . S
H132 C105 0.965 . S
H133 C107 0.950 . S
H134 C114 0.949 1_554 S
H135 C116 0.950 . S
C136 O152 1.251 . S
C136 O154 1.254 . S
N137 C138 1.333 . S
N137 C142 1.307 . S
N137 Zn143 2.020 . S
C138 N137 1.333 . S
C138 C139 1.379 . S
C138 H156 0.952 . S
C139 C138 1.379 . S
C139 C140 1.390 . S
C139 H166 0.949 . S
C140 C139 1.390 . S
C140 C141 1.357 . S
C141 C140 1.357 . S
C141 C142 1.370 . S
C141 H167 0.950 1_554 S
C142 N137 1.307 . S
C142 C141 1.370 . S
C142 H160 0.948 1_554 S
Zn143 N137 2.020 . S
Zn143 O152 2.039 . S
Zn143 O158 2.034 . S
Zn143 O162 2.025 1_554 S
Zn143 O164 2.024 . S
C144 O163 1.246 . S
C144 O164 1.249 . S
N145 C146 1.307 . S
N145 C147 1.333 . S
N145 Zn151 2.020 . S
C146 N145 1.307 . S
C146 C150 1.370 . S
C146 H157 0.948 . S
C147 N145 1.333 . S
C147 C148 1.379 1_554 S
C147 H155 0.952 1_554 S
C148 C147 1.379 1_556 S
C148 C149 1.390 1_556 S
C148 H168 0.949 . S
C149 C148 1.390 1_554 S
C149 C150 1.357 . S
C150 C146 1.370 . S
C150 C149 1.357 . S
C150 H169 0.950 . S
Zn151 N145 2.020 . S
Zn151 O154 2.025 . S
Zn151 O159 2.024 . S
Zn151 O161 2.039 1_554 S
Zn151 O163 2.034 . S
O152 C136 1.251 . S
O152 Zn143 2.039 . S
C153 O158 1.246 . S
C153 O159 1.249 . S
O154 C136 1.254 . S
O154 Zn151 2.025 . S
H155 C147 0.952 1_556 S
H156 C138 0.952 . S
H157 C146 0.948 . S
O158 Zn143 2.034 . S
O158 C153 1.246 . S
O159 Zn151 2.024 . S
O159 C153 1.249 . S
H160 C142 0.948 1_556 S
O161 Zn151 2.039 1_556 S
O161 C165 1.251 . S
O162 Zn143 2.025 1_556 S
O162 C165 1.254 . S
O163 C144 1.246 . S
O163 Zn151 2.034 . S
O164 Zn143 2.024 . S
O164 C144 1.249 . S
C165 O161 1.251 . S
C165 O162 1.254 . S
H166 C139 0.949 . S
H167 C141 0.950 1_556 S
H168 C148 0.949 . S
H169 C150 0.950 . S
C170 O186 1.251 . S
C170 O188 1.254 . S
N171 C172 1.333 . S
N171 C176 1.307 . S
N171 Zn177 2.020 . S
C172 N171 1.333 . S
C172 C173 1.379 1_556 S
C172 H190 0.952 1_556 S
C173 C172 1.379 1_554 S
C173 C174 1.390 1_554 S
C173 H200 0.949 . S
C174 C173 1.390 1_556 S
C174 C175 1.357 . S
C175 C174 1.357 . S
C175 C176 1.370 . S
C175 H201 0.950 . S
C176 N171 1.307 . S
C176 C175 1.370 . S
C176 H194 0.948 . S
Zn177 N171 2.020 . S
Zn177 O186 2.039 1_556 S
Zn177 O192 2.034 . S
Zn177 O196 2.025 . S
Zn177 O198 2.024 . S
C178 O197 1.246 . S
C178 O198 1.249 . S
N179 C180 1.307 . S
N179 C181 1.333 . S
N179 Zn185 2.020 . S
C180 N179 1.307 . S
C180 C184 1.370 . S
C180 H191 0.948 1_556 S
C181 N179 1.333 . S
C181 C182 1.379 . S
C181 H189 0.952 . S
C182 C181 1.379 . S
C182 C183 1.390 . S
C182 H202 0.949 . S
C183 C182 1.390 . S
C183 C184 1.357 . S
C184 C180 1.370 . S
C184 C183 1.357 . S
C184 H203 0.950 1_556 S
Zn185 N179 2.020 . S
Zn185 O188 2.025 1_556 S
Zn185 O193 2.024 . S
Zn185 O195 2.039 . S
Zn185 O197 2.034 . S
O186 C170 1.251 . S
O186 Zn177 2.039 1_554 S
C187 O192 1.246 . S
C187 O193 1.249 . S
O188 C170 1.254 . S
O188 Zn185 2.025 1_554 S
H189 C181 0.952 . S
H190 C172 0.952 1_554 S
H191 C180 0.948 1_554 S
O192 Zn177 2.034 . S
O192 C187 1.246 . S
O193 Zn185 2.024 . S
O193 C187 1.249 . S
H194 C176 0.948 . S
O195 Zn185 2.039 . S
O195 C199 1.251 . S
O196 Zn177 2.025 . S
O196 C199 1.254 . S
O197 C178 1.246 . S
O197 Zn185 2.034 . S
O198 Zn177 2.024 . S
O198 C178 1.249 . S
C199 O195 1.251 . S
C199 O196 1.254 . S
H200 C173 0.949 . S
H201 C175 0.950 . S
H202 C182 0.949 . S
H203 C184 0.950 1_554 S
C204 O220 1.251 . S
C204 O222 1.254 . S
N205 C206 1.333 . S
N205 C210 1.307 . S
N205 Zn211 2.020 . S
C206 N205 1.333 . S
C206 C207 1.379 . S
C206 H224 0.952 . S
C207 C206 1.379 . S
C207 C208 1.390 . S
C207 H234 0.949 . S
C208 C207 1.390 . S
C208 C209 1.357 . S
C209 C208 1.357 . S
C209 C210 1.370 . S
C209 H235 0.950 1_554 S
C210 N205 1.307 . S
C210 C209 1.370 . S
C210 H228 0.948 1_554 S
Zn211 N205 2.020 . S
Zn211 O220 2.039 . S
Zn211 O226 2.034 . S
Zn211 O230 2.025 1_554 S
Zn211 O232 2.024 . S
C212 O231 1.246 . S
C212 O232 1.249 . S
N213 C214 1.307 . S
N213 C215 1.333 . S
N213 Zn219 2.020 . S
C214 N213 1.307 . S
C214 C218 1.370 . S
C214 H225 0.948 . S
C215 N213 1.333 . S
C215 C216 1.379 1_554 S
C215 H223 0.952 1_554 S
C216 C215 1.379 1_556 S
C216 C217 1.390 1_556 S
C216 H236 0.949 . S
C217 C216 1.390 1_554 S
C217 C218 1.357 . S
C218 C214 1.370 . S
C218 C217 1.357 . S
C218 H237 0.950 . S
Zn219 N213 2.020 . S
Zn219 O222 2.025 . S
Zn219 O227 2.024 . S
Zn219 O229 2.039 1_554 S
Zn219 O231 2.034 . S
O220 C204 1.251 . S
O220 Zn211 2.039 . S
C221 O226 1.246 . S
C221 O227 1.249 . S
O222 C204 1.254 . S
O222 Zn219 2.025 . S
H223 C215 0.952 1_556 S
H224 C206 0.952 . S
H225 C214 0.948 . S
O226 Zn211 2.034 . S
O226 C221 1.246 . S
O227 Zn219 2.024 . S
O227 C221 1.249 . S
H228 C210 0.948 1_556 S
O229 Zn219 2.039 1_556 S
O229 C233 1.251 . S
O230 Zn211 2.025 1_556 S
O230 C233 1.254 . S
O231 C212 1.246 . S
O231 Zn219 2.034 . S
O232 Zn211 2.024 . S
O232 C212 1.249 . S
C233 O229 1.251 . S
C233 O230 1.254 . S
H234 C207 0.949 . S
H235 C209 0.950 1_556 S
H236 C216 0.949 . S
H237 C218 0.950 . S
C238 O254 1.251 . S
C238 O256 1.254 . S
N239 C240 1.333 . S
N239 C244 1.307 . S
N239 Zn245 2.020 . S
C240 N239 1.333 . S
C240 C241 1.379 1_556 S
C240 H258 0.952 1_556 S
C241 C240 1.379 1_554 S
C241 C242 1.390 1_554 S
C241 H268 0.949 . S
C242 C241 1.390 1_556 S
C242 C243 1.357 . S
C243 C242 1.357 . S
C243 C244 1.370 . S
C243 H269 0.950 . S
C244 N239 1.307 . S
C244 C243 1.370 . S
C244 H262 0.948 . S
Zn245 N239 2.020 . S
Zn245 O254 2.039 1_556 S
Zn245 O260 2.034 . S
Zn245 O264 2.025 . S
Zn245 O266 2.024 . S
C246 O265 1.246 . S
C246 O266 1.249 . S
N247 C248 1.307 . S
N247 C249 1.333 . S
N247 Zn253 2.020 . S
C248 N247 1.307 . S
C248 C252 1.370 . S
C248 H259 0.948 1_556 S
C249 N247 1.333 . S
C249 C250 1.379 . S
C249 H257 0.952 . S
C250 C249 1.379 . S
C250 C251 1.390 . S
C250 H270 0.949 . S
C251 C250 1.390 . S
C251 C252 1.357 . S
C252 C248 1.370 . S
C252 C251 1.357 . S
C252 H271 0.950 1_556 S
Zn253 N247 2.020 . S
Zn253 O256 2.025 1_556 S
Zn253 O261 2.024 . S
Zn253 O263 2.039 . S
Zn253 O265 2.034 . S
O254 C238 1.251 . S
O254 Zn245 2.039 1_554 S
C255 O260 1.246 . S
C255 O261 1.249 . S
O256 C238 1.254 . S
O256 Zn253 2.025 1_554 S
H257 C249 0.952 . S
H258 C240 0.952 1_554 S
H259 C248 0.948 1_554 S
O260 Zn245 2.034 . S
O260 C255 1.246 . S
O261 Zn253 2.024 . S
O261 C255 1.249 . S
H262 C244 0.948 . S
O263 Zn253 2.039 . S
O263 C267 1.251 . S
O264 Zn245 2.025 . S
O264 C267 1.254 . S
O265 C246 1.246 . S
O265 Zn253 2.034 . S
O266 Zn245 2.024 . S
O266 C246 1.249 . S
C267 O263 1.251 . S
C267 O264 1.254 . S
H268 C241 0.949 . S
H269 C243 0.950 . S
H270 C250 0.949 . S
H271 C252 0.950 1_554 S
C272 O288 1.251 . S
C272 O290 1.254 . S
N273 C274 1.333 . S
N273 C278 1.307 . S
N273 Zn279 2.020 . S
C274 N273 1.333 . S
C274 C275 1.379 . S
C274 H292 0.952 . S
C275 C274 1.379 . S
C275 C276 1.390 . S
C275 H302 0.949 . S
C276 C275 1.390 . S
C276 C277 1.357 . S
C277 C276 1.357 . S
C277 C278 1.370 . S
C277 H303 0.950 . S
C278 N273 1.307 . S
C278 C277 1.370 . S
C278 H296 0.948 . S
Zn279 N273 2.020 . S
Zn279 O288 2.039 . S
Zn279 O294 2.034 . S
Zn279 O298 2.025 . S
Zn279 O300 2.024 . S
C280 O299 1.246 . S
C280 O300 1.249 . S
N281 C282 1.307 . S
N281 C283 1.333 . S
N281 Zn287 2.020 . S
C282 N281 1.307 . S
C282 C286 1.370 . S
C282 H293 0.948 . S
C283 N281 1.333 . S
C283 C284 1.379 . S
C283 H291 0.952 . S
C284 C283 1.379 . S
C284 C285 1.390 . S
C284 H304 0.949 . S
C285 C284 1.390 . S
C285 C286 1.357 . S
C286 C282 1.370 . S
C286 C285 1.357 . S
C286 H305 0.950 . S
Zn287 N281 2.020 . S
Zn287 O290 2.025 . S
Zn287 O295 2.024 . S
Zn287 O297 2.039 . S
Zn287 O299 2.034 . S
O288 C272 1.251 . S
O288 Zn279 2.039 . S
C289 O294 1.246 . S
C289 O295 1.249 . S
O290 C272 1.254 . S
O290 Zn287 2.025 . S
H291 C283 0.952 . S
H292 C274 0.952 . S
H293 C282 0.948 . S
O294 Zn279 2.034 . S
O294 C289 1.246 . S
O295 Zn287 2.024 . S
O295 C289 1.249 . S
H296 C278 0.948 . S
O297 Zn287 2.039 . S
O297 C301 1.251 . S
O298 Zn279 2.025 . S
O298 C301 1.254 . S
O299 C280 1.246 . S
O299 Zn287 2.034 . S
O300 Zn279 2.024 . S
O300 C280 1.249 . S
C301 O297 1.251 . S
C301 O298 1.254 . S
H302 C275 0.949 . S
H303 C277 0.950 . S
H304 C284 0.949 . S
H305 C286 0.950 . S
C306 O322 1.251 . S
C306 O324 1.254 . S
N307 C308 1.333 . S
N307 C312 1.307 . S
N307 Zn313 2.020 . S
C308 N307 1.333 . S
C308 C309 1.379 . S
C308 H326 0.952 . S
C309 C308 1.379 . S
C309 C310 1.390 . S
C309 H336 0.949 . S
C310 C309 1.390 . S
C310 C311 1.357 . S
C311 C310 1.357 . S
C311 C312 1.370 . S
C311 H337 0.950 . S
C312 N307 1.307 . S
C312 C311 1.370 . S
C312 H330 0.948 . S
Zn313 N307 2.020 . S
Zn313 O322 2.039 . S
Zn313 O328 2.034 . S
Zn313 O332 2.025 . S
Zn313 O334 2.024 . S
C314 O333 1.246 . S
C314 O334 1.249 . S
N315 C316 1.307 . S
N315 C317 1.333 . S
N315 Zn321 2.020 . S
C316 N315 1.307 . S
C316 C320 1.370 . S
C316 H327 0.948 . S
C317 N315 1.333 . S
C317 C318 1.379 . S
C317 H325 0.952 . S
C318 C317 1.379 . S
C318 C319 1.390 . S
C318 H338 0.949 . S
C319 C318 1.390 . S
C319 C320 1.357 . S
C320 C316 1.370 . S
C320 C319 1.357 . S
C320 H339 0.950 . S
Zn321 N315 2.020 . S
Zn321 O324 2.025 . S
Zn321 O329 2.024 . S
Zn321 O331 2.039 . S
Zn321 O333 2.034 . S
O322 C306 1.251 . S
O322 Zn313 2.039 . S
C323 O328 1.246 . S
C323 O329 1.249 . S
O324 C306 1.254 . S
O324 Zn321 2.025 . S
H325 C317 0.952 . S
H326 C308 0.952 . S
H327 C316 0.948 . S
O328 Zn313 2.034 . S
O328 C323 1.246 . S
O329 Zn321 2.024 . S
O329 C323 1.249 . S
H330 C312 0.948 . S
O331 Zn321 2.039 . S
O331 C335 1.251 . S
O332 Zn313 2.025 . S
O332 C335 1.254 . S
O333 C314 1.246 . S
O333 Zn321 2.034 . S
O334 Zn313 2.024 . S
O334 C314 1.249 . S
C335 O331 1.251 . S
C335 O332 1.254 . S
H336 C309 0.949 . S
H337 C311 0.950 . S
H338 C318 0.949 . S
H339 C320 0.950 . S
C340 O356 1.251 . S
C340 O358 1.254 . S
N341 C342 1.333 . S
N341 C346 1.307 . S
N341 Zn347 2.020 . S
C342 N341 1.333 . S
C342 C343 1.379 . S
C342 H360 0.952 . S
C343 C342 1.379 . S
C343 C344 1.390 . S
C343 H370 0.949 . S
C344 C343 1.390 . S
C344 C345 1.357 . S
C345 C344 1.357 . S
C345 C346 1.370 . S
C345 H371 0.950 . S
C346 N341 1.307 . S
C346 C345 1.370 . S
C346 H364 0.948 . S
Zn347 N341 2.020 . S
Zn347 O356 2.039 . S
Zn347 O362 2.034 . S
Zn347 O366 2.025 . S
Zn347 O368 2.024 . S
C348 O367 1.246 . S
C348 O368 1.249 . S
N349 C350 1.307 . S
N349 C351 1.333 . S
N349 Zn355 2.020 . S
C350 N349 1.307 . S
C350 C354 1.370 . S
C350 H361 0.948 . S
C351 N349 1.333 . S
C351 C352 1.379 . S
C351 H359 0.952 . S
C352 C351 1.379 . S
C352 C353 1.390 . S
C352 H372 0.949 . S
C353 C352 1.390 . S
C353 C354 1.357 . S
C354 C350 1.370 . S
C354 C353 1.357 . S
C354 H373 0.950 . S
Zn355 N349 2.020 . S
Zn355 O358 2.025 . S
Zn355 O363 2.024 . S
Zn355 O365 2.039 . S
Zn355 O367 2.034 . S
O356 C340 1.251 . S
O356 Zn347 2.039 . S
C357 O362 1.246 . S
C357 O363 1.249 . S
O358 C340 1.254 . S
O358 Zn355 2.025 . S
H359 C351 0.952 . S
H360 C342 0.952 . S
H361 C350 0.948 . S
O362 Zn347 2.034 . S
O362 C357 1.246 . S
O363 Zn355 2.024 . S
O363 C357 1.249 . S
H364 C346 0.948 . S
O365 Zn355 2.039 . S
O365 C369 1.251 . S
O366 Zn347 2.025 . S
O366 C369 1.254 . S
O367 C348 1.246 . S
O367 Zn355 2.034 . S
O368 Zn347 2.024 . S
O368 C348 1.249 . S
C369 O365 1.251 . S
C369 O366 1.254 . S
H370 C343 0.949 . S
H371 C345 0.950 . S
H372 C352 0.949 . S
H373 C354 0.950 . S
C374 O390 1.251 . S
C374 O392 1.254 . S
N375 C376 1.333 . S
N375 C380 1.307 . S
N375 Zn381 2.020 . S
C376 N375 1.333 . S
C376 C377 1.379 . S
C376 H394 0.952 . S
C377 C376 1.379 . S
C377 C378 1.390 . S
C377 H404 0.949 . S
C378 C377 1.390 . S
C378 C379 1.357 . S
C379 C378 1.357 . S
C379 C380 1.370 . S
C379 H405 0.950 . S
C380 N375 1.307 . S
C380 C379 1.370 . S
C380 H398 0.948 . S
Zn381 N375 2.020 . S
Zn381 O390 2.039 . S
Zn381 O396 2.034 . S
Zn381 O400 2.025 . S
Zn381 O402 2.024 . S
C382 O401 1.246 . S
C382 O402 1.249 . S
N383 C384 1.307 . S
N383 C385 1.333 . S
N383 Zn389 2.020 . S
C384 N383 1.307 . S
C384 C388 1.370 . S
C384 H395 0.948 . S
C385 N383 1.333 . S
C385 C386 1.379 . S
C385 H393 0.952 . S
C386 C385 1.379 . S
C386 C387 1.390 . S
C386 H406 0.949 . S
C387 C386 1.390 . S
C387 C388 1.357 . S
C388 C384 1.370 . S
C388 C387 1.357 . S
C388 H407 0.950 . S
Zn389 N383 2.020 . S
Zn389 O392 2.025 . S
Zn389 O397 2.024 . S
Zn389 O399 2.039 . S
Zn389 O401 2.034 . S
O390 C374 1.251 . S
O390 Zn381 2.039 . S
C391 O396 1.246 . S
C391 O397 1.249 . S
O392 C374 1.254 . S
O392 Zn389 2.025 . S
H393 C385 0.952 . S
H394 C376 0.952 . S
H395 C384 0.948 . S
O396 Zn381 2.034 . S
O396 C391 1.246 . S
O397 Zn389 2.024 . S
O397 C391 1.249 . S
H398 C380 0.948 . S
O399 Zn389 2.039 . S
O399 C403 1.251 . S
O400 Zn381 2.025 . S
O400 C403 1.254 . S
O401 C382 1.246 . S
O401 Zn389 2.034 . S
O402 Zn381 2.024 . S
O402 C382 1.249 . S
C403 O399 1.251 . S
C403 O400 1.254 . S
H404 C377 0.949 . S
H405 C379 0.950 . S
H406 C386 0.949 . S
H407 C388 0.950 . S
C408 O424 1.251 . S
C408 O426 1.254 . S
N409 C410 1.333 . S
N409 C414 1.307 . S
N409 Zn415 2.020 . S
C410 N409 1.333 . S
C410 C411 1.379 . S
C410 H428 0.952 . S
C411 C410 1.379 . S
C411 C412 1.390 . S
C411 H438 0.949 . S
C412 C411 1.390 . S
C412 C413 1.357 . S
C413 C412 1.357 . S
C413 C414 1.370 . S
C413 H439 0.950 . S
C414 N409 1.307 . S
C414 C413 1.370 . S
C414 H432 0.948 . S
Zn415 N409 2.020 . S
Zn415 O424 2.039 . S
Zn415 O430 2.034 . S
Zn415 O434 2.025 . S
Zn415 O436 2.024 . S
C416 O435 1.246 . S
C416 O436 1.249 . S
N417 C418 1.307 . S
N417 C419 1.333 . S
N417 Zn423 2.020 . S
C418 N417 1.307 . S
C418 C422 1.370 1_565 S
C418 H429 0.948 . S
C419 N417 1.333 . S
C419 C420 1.344 1_565 S
C419 H427 0.952 . S
C420 C419 1.344 1_545 S
C420 C421 1.409 . S
C420 H440 0.965 . S
C421 C420 1.409 . S
C421 C422 1.357 . S
C422 C418 1.370 1_545 S
C422 C421 1.357 . S
C422 H441 0.950 . S
Zn423 N417 2.020 . S
Zn423 O426 2.025 . S
Zn423 O431 2.024 . S
Zn423 O433 2.039 . S
Zn423 O435 2.034 . S
O424 C408 1.251 . S
O424 Zn415 2.039 . S
C425 O430 1.246 . S
C425 O431 1.249 . S
O426 C408 1.254 . S
O426 Zn423 2.025 . S
H427 C419 0.952 . S
H428 C410 0.952 . S
H429 C418 0.948 . S
O430 Zn415 2.034 . S
O430 C425 1.246 . S
O431 Zn423 2.024 . S
O431 C425 1.249 . S
H432 C414 0.948 . S
O433 Zn423 2.039 . S
O433 C437 1.251 . S
O434 Zn415 2.025 . S
O434 C437 1.254 . S
O435 C416 1.246 . S
O435 Zn423 2.034 . S
O436 Zn415 2.024 . S
O436 C416 1.249 . S
C437 O433 1.251 . S
C437 O434 1.254 . S
H438 C411 0.949 . S
H439 C413 0.950 . S
H440 C420 0.965 . S
H441 C422 0.950 . S
C442 O458 1.251 . S
C442 O460 1.254 . S
N443 C444 1.333 . S
N443 C448 1.307 . S
N443 Zn449 2.020 . S
C444 N443 1.333 . S
C444 C445 1.344 1_655 S
C444 H462 0.952 . S
C445 C444 1.344 1_455 S
C445 C446 1.409 . S
C445 H472 0.965 . S
C446 C445 1.409 . S
C446 C447 1.357 . S
C447 C446 1.357 . S
C447 C448 1.370 1_455 S
C447 H473 0.950 . S
C448 N443 1.307 . S
C448 C447 1.370 1_655 S
C448 H466 0.948 . S
Zn449 N443 2.020 . S
Zn449 O458 2.039 . S
Zn449 O464 2.034 . S
Zn449 O468 2.025 . S
Zn449 O470 2.024 . S
C450 O469 1.246 . S
C450 O470 1.249 . S
N451 C452 1.307 . S
N451 C453 1.333 . S
N451 Zn457 2.020 . S
C452 N451 1.307 . S
C452 C456 1.370 . S
C452 H463 0.948 . S
C453 N451 1.333 . S
C453 C454 1.379 . S
C453 H461 0.952 . S
C454 C453 1.379 . S
C454 C455 1.390 . S
C454 H474 0.949 . S
C455 C454 1.390 . S
C455 C456 1.357 . S
C456 C452 1.370 . S
C456 C455 1.357 . S
C456 H475 0.950 . S
Zn457 N451 2.020 . S
Zn457 O460 2.025 . S
Zn457 O465 2.024 . S
Zn457 O467 2.039 . S
Zn457 O469 2.034 . S
O458 C442 1.251 . S
O458 Zn449 2.039 . S
C459 O464 1.246 . S
C459 O465 1.249 . S
O460 C442 1.254 . S
O460 Zn457 2.025 . S
H461 C453 0.952 . S
H462 C444 0.952 . S
H463 C452 0.948 . S
O464 Zn449 2.034 . S
O464 C459 1.246 . S
O465 Zn457 2.024 . S
O465 C459 1.249 . S
H466 C448 0.948 . S
O467 Zn457 2.039 . S
O467 C471 1.251 . S
O468 Zn449 2.025 . S
O468 C471 1.254 . S
O469 C450 1.246 . S
O469 Zn457 2.034 . S
O470 Zn449 2.024 . S
O470 C450 1.249 . S
C471 O467 1.251 . S
C471 O468 1.254 . S
H472 C445 0.965 . S
H473 C447 0.950 . S
H474 C454 0.949 . S
H475 C456 0.950 . S
C476 O492 1.251 . S
C476 O494 1.254 . S
N477 C478 1.333 . S
N477 C482 1.307 . S
N477 Zn483 2.020 . S
C478 N477 1.333 . S
C478 C479 1.379 . S
C478 H496 0.952 . S
C479 C478 1.379 . S
C479 C480 1.390 . S
C479 H506 0.949 . S
C480 C479 1.390 . S
C480 C481 1.357 . S
C481 C480 1.357 . S
C481 C482 1.370 . S
C481 H507 0.950 . S
C482 N477 1.307 . S
C482 C481 1.370 . S
C482 H500 0.948 . S
Zn483 N477 2.020 . S
Zn483 O492 2.039 . S
Zn483 O498 2.034 . S
Zn483 O502 2.025 . S
Zn483 O504 2.024 . S
C484 O503 1.246 . S
C484 O504 1.249 . S
N485 C486 1.307 . S
N485 C487 1.333 . S
N485 Zn491 2.020 . S
C486 N485 1.307 . S
C486 C490 1.370 1_545 S
C486 H497 0.948 . S
C487 N485 1.333 . S
C487 C488 1.345 1_545 S
C487 H495 0.952 . S
C488 C487 1.345 1_565 S
C488 C489 1.409 . S
C488 H508 0.965 . S
C489 C488 1.409 . S
C489 C490 1.357 . S
C490 C486 1.370 1_565 S
C490 C489 1.357 . S
C490 H509 0.950 . S
Zn491 N485 2.020 . S
Zn491 O494 2.025 . S
Zn491 O499 2.024 . S
Zn491 O501 2.039 . S
Zn491 O503 2.034 . S
O492 C476 1.251 . S
O492 Zn483 2.039 . S
C493 O498 1.246 . S
C493 O499 1.249 . S
O494 C476 1.254 . S
O494 Zn491 2.025 . S
H495 C487 0.952 . S
H496 C478 0.952 . S
H497 C486 0.948 . S
O498 Zn483 2.034 . S
O498 C493 1.246 . S
O499 Zn491 2.024 . S
O499 C493 1.249 . S
H500 C482 0.948 . S
O501 Zn491 2.039 . S
O501 C505 1.251 . S
O502 Zn483 2.025 . S
O502 C505 1.254 . S
O503 C484 1.246 . S
O503 Zn491 2.034 . S
O504 Zn483 2.024 . S
O504 C484 1.249 . S
C505 O501 1.251 . S
C505 O502 1.254 . S
H506 C479 0.949 . S
H507 C481 0.950 . S
H508 C488 0.965 . S
H509 C490 0.950 . S
C510 O526 1.251 . S
C510 O528 1.254 . S
N511 C512 1.333 . S
N511 C516 1.307 . S
N511 Zn517 2.020 . S
C512 N511 1.333 . S
C512 C513 1.345 1_455 S
C512 H530 0.952 . S
C513 C512 1.345 1_655 S
C513 C514 1.409 . S
C513 H540 0.965 . S
C514 C513 1.409 . S
C514 C515 1.357 . S
C515 C514 1.357 . S
C515 C516 1.370 1_655 S
C515 H541 0.950 . S
C516 N511 1.307 . S
C516 C515 1.370 1_455 S
C516 H534 0.948 . S
Zn517 N511 2.020 . S
Zn517 O526 2.039 . S
Zn517 O532 2.034 . S
Zn517 O536 2.025 . S
Zn517 O538 2.024 . S
C518 O537 1.246 . S
C518 O538 1.249 . S
N519 C520 1.307 . S
N519 C521 1.333 . S
N519 Zn525 2.020 . S
C520 N519 1.307 . S
C520 C524 1.370 . S
C520 H531 0.948 . S
C521 N519 1.333 . S
C521 C522 1.379 . S
C521 H529 0.952 . S
C522 C521 1.379 . S
C522 C523 1.390 . S
C522 H542 0.949 . S
C523 C522 1.390 . S
C523 C524 1.357 . S
C524 C520 1.370 . S
C524 C523 1.357 . S
C524 H543 0.950 . S
Zn525 N519 2.020 . S
Zn525 O528 2.025 . S
Zn525 O533 2.024 . S
Zn525 O535 2.039 . S
Zn525 O537 2.034 . S
O526 C510 1.251 . S
O526 Zn517 2.039 . S
C527 O532 1.246 . S
C527 O533 1.249 . S
O528 C510 1.254 . S
O528 Zn525 2.025 . S
H529 C521 0.952 . S
H530 C512 0.952 . S
H531 C520 0.948 . S
O532 Zn517 2.034 . S
O532 C527 1.246 . S
O533 Zn525 2.024 . S
O533 C527 1.249 . S
H534 C516 0.948 . S
O535 Zn525 2.039 . S
O535 C539 1.251 . S
O536 Zn517 2.025 . S
O536 C539 1.254 . S
O537 C518 1.246 . S
O537 Zn525 2.034 . S
O538 Zn517 2.024 . S
O538 C518 1.249 . S
C539 O535 1.251 . S
C539 O536 1.254 . S
H540 C513 0.965 . S
H541 C515 0.950 . S
H542 C522 0.949 . S
H543 C524 0.950 . S
C544 C545 1.369 . S
C544 C546 1.419 . S
C544 H548 0.930 . S
C545 C544 1.369 . S
C545 C554 1.429 . S
C546 C544 1.419 . S
C546 C547 1.363 . S
C546 H549 0.929 . S
C547 C546 1.363 . S
C547 C553 1.428 . S
H548 C544 0.930 . S
H549 C546 0.929 . S
S550 N551 1.613 . S
S550 N552 1.610 . S
N551 S550 1.613 . S
N551 C554 1.350 . S
N552 S550 1.610 . S
N552 C553 1.351 . S
C553 C547 1.428 . S
C553 N552 1.351 . S
C553 C554 1.434 . S
C554 C545 1.429 . S
C554 N551 1.350 . S
C554 C553 1.434 . S
C555 C556 1.369 . S
C555 C557 1.419 . S
C555 H559 0.930 . S
C556 C555 1.369 . S
C556 C565 1.429 . S
C557 C555 1.419 . S
C557 C558 1.363 . S
C557 H560 0.929 . S
C558 C557 1.363 . S
C558 C564 1.428 . S
H559 C555 0.930 . S
H560 C557 0.929 . S
S561 N562 1.613 . S
S561 N563 1.610 . S
N562 S561 1.613 . S
N562 C565 1.350 . S
N563 S561 1.610 . S
N563 C564 1.351 . S
C564 C558 1.428 . S
C564 N563 1.351 . S
C564 C565 1.434 . S
C565 C556 1.429 . S
C565 N562 1.350 . S
C565 C564 1.434 . S
C566 C567 1.369 . S
C566 C568 1.419 . S
C566 H570 0.930 . S
C567 C566 1.369 . S
C567 C576 1.429 . S
C568 C566 1.419 . S
C568 C569 1.363 . S
C568 H571 0.929 . S
C569 C568 1.363 . S
C569 C575 1.428 . S
H570 C566 0.930 . S
H571 C568 0.929 . S
S572 N573 1.613 . S
S572 N574 1.610 . S
N573 S572 1.613 . S
N573 C576 1.350 . S
N574 S572 1.610 . S
N574 C575 1.351 . S
C575 C569 1.428 . S
C575 N574 1.351 . S
C575 C576 1.434 . S
C576 C567 1.429 . S
C576 N573 1.350 . S
C576 C575 1.434 . S
C577 C578 1.369 . S
C577 C579 1.419 . S
C577 H581 0.930 . S
C578 C577 1.369 . S
C578 C587 1.429 . S
C579 C577 1.419 . S
C579 C580 1.363 . S
C579 H582 0.929 . S
C580 C579 1.363 . S
C580 C586 1.428 . S
H581 C577 0.930 . S
H582 C579 0.929 . S
S583 N584 1.613 . S
S583 N585 1.610 . S
N584 S583 1.613 . S
N584 C587 1.350 . S
N585 S583 1.610 . S
N585 C586 1.351 . S
C586 C580 1.428 . S
C586 N585 1.351 . S
C586 C587 1.434 . S
C587 C578 1.429 . S
C587 N584 1.350 . S
C587 C586 1.434 . S
C588 C589 1.369 1_556 S
C588 C590 1.419 . S
C588 H592 0.930 . S
C589 C588 1.369 1_554 S
C589 C598 1.429 . S
C590 C588 1.419 . S
C590 C591 1.363 . S
C590 H593 0.929 . S
C591 C590 1.363 . S
C591 C597 1.428 1_556 S
H592 C588 0.930 . S
H593 C590 0.929 . S
S594 N595 1.613 . S
S594 N596 1.610 . S
N595 S594 1.613 . S
N595 C598 1.350 . S
N596 S594 1.610 . S
N596 C597 1.351 . S
C597 C591 1.428 1_554 S
C597 N596 1.351 . S
C597 C598 1.434 . S
C598 C589 1.429 . S
C598 N595 1.350 . S
C598 C597 1.434 . S
C599 C600 1.369 1_556 S
C599 C601 1.419 . S
C599 H603 0.930 . S
C600 C599 1.369 1_554 S
C600 C609 1.429 . S
C601 C599 1.419 . S
C601 C602 1.363 . S
C601 H604 0.929 . S
C602 C601 1.363 . S
C602 C608 1.428 1_556 S
H603 C599 0.930 . S
H604 C601 0.929 . S
S605 N606 1.613 . S
S605 N607 1.610 . S
N606 S605 1.613 . S
N606 C609 1.350 . S
N607 S605 1.610 . S
N607 C608 1.351 . S
C608 C602 1.428 1_554 S
C608 N607 1.351 . S
C608 C609 1.434 . S
C609 C600 1.429 . S
C609 N606 1.350 . S
C609 C608 1.434 . S
C610 C611 1.369 1_556 S
C610 C612 1.419 . S
C610 H614 0.930 . S
C611 C610 1.369 1_554 S
C611 C620 1.429 . S
C612 C610 1.419 . S
C612 C613 1.363 . S
C612 H615 0.929 . S
C613 C612 1.363 . S
C613 C619 1.428 1_556 S
H614 C610 0.930 . S
H615 C612 0.929 . S
S616 N617 1.613 . S
S616 N618 1.610 . S
N617 S616 1.613 . S
N617 C620 1.350 . S
N618 S616 1.610 . S
N618 C619 1.351 . S
C619 C613 1.428 1_554 S
C619 N618 1.351 . S
C619 C620 1.434 . S
C620 C611 1.429 . S
C620 N617 1.350 . S
C620 C619 1.434 . S
C621 C622 1.369 1_556 S
C621 C623 1.419 . S
C621 H625 0.930 . S
C622 C621 1.369 1_554 S
C622 C631 1.429 . S
C623 C621 1.419 . S
C623 C624 1.363 . S
C623 H626 0.929 . S
C624 C623 1.363 . S
C624 C630 1.428 1_556 S
H625 C621 0.930 . S
H626 C623 0.929 . S
S627 N628 1.613 . S
S627 N629 1.610 . S
N628 S627 1.613 . S
N628 C631 1.350 . S
N629 S627 1.610 . S
N629 C630 1.351 . S
C630 C624 1.428 1_554 S
C630 N629 1.351 . S
C630 C631 1.434 . S
C631 C622 1.429 . S
C631 N628 1.350 . S
C631 C630 1.434 . S
C632 C633 1.369 . S
C632 C634 1.419 . S
C632 H636 0.930 . S
C633 C632 1.369 . S
C633 C642 1.429 . S
C634 C632 1.419 . S
C634 C635 1.363 . S
C634 H637 0.929 . S
C635 C634 1.363 . S
C635 C641 1.428 . S
H636 C632 0.930 . S
H637 C634 0.929 . S
S638 N639 1.613 . S
S638 N640 1.610 . S
N639 S638 1.613 . S
N639 C642 1.350 . S
N640 S638 1.610 . S
N640 C641 1.351 . S
C641 C635 1.428 . S
C641 N640 1.351 . S
C641 C642 1.434 . S
C642 C633 1.429 . S
C642 N639 1.350 . S
C642 C641 1.434 . S
C643 C644 1.369 . S
C643 C645 1.419 . S
C643 H647 0.930 . S
C644 C643 1.369 . S
C644 C653 1.429 . S
C645 C643 1.419 . S
C645 C646 1.363 . S
C645 H648 0.929 . S
C646 C645 1.363 . S
C646 C652 1.428 . S
H647 C643 0.930 . S
H648 C645 0.929 . S
S649 N650 1.613 1_556 S
S649 N651 1.610 1_556 S
N650 S649 1.613 1_554 S
N650 C653 1.350 . S
N651 S649 1.610 1_554 S
N651 C652 1.351 . S
C652 C646 1.428 . S
C652 N651 1.351 . S
C652 C653 1.434 . S
C653 C644 1.429 . S
C653 N650 1.350 . S
C653 C652 1.434 . S
C654 C655 1.369 . S
C654 C656 1.419 . S
C654 H658 0.930 . S
C655 C654 1.369 . S
C655 C664 1.429 . S
C656 C654 1.419 . S
C656 C657 1.363 . S
C656 H659 0.929 . S
C657 C656 1.363 . S
C657 C663 1.428 . S
H658 C654 0.930 . S
H659 C656 0.929 . S
S660 N661 1.613 . S
S660 N662 1.610 . S
N661 S660 1.613 . S
N661 C664 1.350 . S
N662 S660 1.610 . S
N662 C663 1.351 . S
C663 C657 1.428 . S
C663 N662 1.351 . S
C663 C664 1.434 . S
C664 C655 1.429 . S
C664 N661 1.350 . S
C664 C663 1.434 . S
C665 C666 1.369 . S
C665 C667 1.419 . S
C665 H669 0.930 . S
C666 C665 1.369 . S
C666 C675 1.429 . S
C667 C665 1.419 . S
C667 C668 1.363 . S
C667 H670 0.929 . S
C668 C667 1.363 . S
C668 C674 1.428 . S
H669 C665 0.930 . S
H670 C667 0.929 . S
S671 N672 1.613 . S
S671 N673 1.610 . S
N672 S671 1.613 . S
N672 C675 1.350 . S
N673 S671 1.610 . S
N673 C674 1.351 . S
C674 C668 1.428 . S
C674 N673 1.351 . S
C674 C675 1.434 . S
C675 C666 1.429 . S
C675 N672 1.350 . S
C675 C674 1.434 . S
C676 C677 1.369 . S
C676 C678 1.419 . S
C676 H680 0.930 . S
C677 C676 1.369 . S
C677 C686 1.429 . S
C678 C676 1.419 . S
C678 C679 1.363 . S
C678 H681 0.929 . S
C679 C678 1.363 . S
C679 C685 1.428 . S
H680 C676 0.930 . S
H681 C678 0.929 . S
S682 N683 1.613 . S
S682 N684 1.610 . S
N683 S682 1.613 . S
N683 C686 1.350 . S
N684 S682 1.610 . S
N684 C685 1.351 . S
C685 C679 1.428 . S
C685 N684 1.351 . S
C685 C686 1.434 . S
C686 C677 1.429 . S
C686 N683 1.350 . S
C686 C685 1.434 . S
C687 C688 1.369 . S
C687 C689 1.419 . S
C687 H691 0.930 . S
C688 C687 1.369 . S
C688 C697 1.429 . S
C689 C687 1.419 . S
C689 C690 1.363 . S
C689 H692 0.929 . S
C690 C689 1.363 . S
C690 C696 1.428 . S
H691 C687 0.930 . S
H692 C689 0.929 . S
S693 N694 1.613 . S
S693 N695 1.610 . S
N694 S693 1.613 . S
N694 C697 1.350 . S
N695 S693 1.610 . S
N695 C696 1.351 . S
C696 C690 1.428 . S
C696 N695 1.351 . S
C696 C697 1.434 . S
C697 C688 1.429 . S
C697 N694 1.350 . S
C697 C696 1.434 . S
C698 C699 1.369 . S
C698 C700 1.419 . S
C698 H702 0.930 . S
C699 C698 1.369 . S
C699 C708 1.429 . S
C700 C698 1.419 . S
C700 C701 1.363 . S
C700 H703 0.929 . S
C701 C700 1.363 . S
C701 C707 1.428 . S
H702 C698 0.930 . S
H703 C700 0.929 . S
S704 N705 1.613 . S
S704 N706 1.610 . S
N705 S704 1.613 . S
N705 C708 1.350 . S
N706 S704 1.610 . S
N706 C707 1.351 . S
C707 C701 1.428 . S
C707 N706 1.351 . S
C707 C708 1.434 . S
C708 C699 1.429 . S
C708 N705 1.350 . S
C708 C707 1.434 . S
C709 C710 1.369 . S
C709 C711 1.419 . S
C709 H713 0.930 . S
C710 C709 1.369 . S
C710 C719 1.429 . S
C711 C709 1.419 . S
C711 C712 1.363 . S
C711 H714 0.929 . S
C712 C711 1.363 . S
C712 C718 1.428 . S
H713 C709 0.930 . S
H714 C711 0.929 . S
S715 N716 1.613 . S
S715 N717 1.610 . S
N716 S715 1.613 . S
N716 C719 1.350 . S
N717 S715 1.610 . S
N717 C718 1.351 . S
C718 C712 1.428 . S
C718 N717 1.351 . S
C718 C719 1.434 . S
C719 C710 1.429 . S
C719 N716 1.350 . S
C719 C718 1.434 . S
C720 C721 1.369 . S
C720 C722 1.419 . S
C720 H724 0.930 . S
C721 C720 1.369 . S
C721 C730 1.429 1_554 S
C722 C720 1.419 . S
C722 C723 1.363 . S
C722 H725 0.929 . S
C723 C722 1.363 . S
C723 C729 1.428 . S
H724 C720 0.930 . S
H725 C722 0.929 . S
S726 N727 1.613 . S
S726 N728 1.610 . S
N727 S726 1.613 . S
N727 C730 1.350 . S
N728 S726 1.610 . S
N728 C729 1.351 1_556 S
C729 C723 1.428 . S
C729 N728 1.351 1_554 S
C729 C730 1.434 1_554 S
C730 C721 1.429 1_556 S
C730 N727 1.350 . S
C730 C729 1.434 1_556 S
C731 C732 1.369 . S
C731 C733 1.419 . S
C731 H735 0.930 . S
C732 C731 1.369 . S
C732 C741 1.429 . S
C733 C731 1.419 . S
C733 C734 1.363 . S
C733 H736 0.929 . S
C734 C733 1.363 . S
C734 C740 1.428 . S
H735 C731 0.930 . S
H736 C733 0.929 . S
S737 N738 1.613 . S
S737 N739 1.610 . S
N738 S737 1.613 . S
N738 C741 1.350 1_554 S
N739 S737 1.610 . S
N739 C740 1.351 1_554 S
C740 C734 1.428 . S
C740 N739 1.351 1_556 S
C740 C741 1.434 . S
C741 C732 1.429 . S
C741 N738 1.350 1_556 S
C741 C740 1.434 . S
C742 C743 1.369 . S
C742 C744 1.419 . S
C742 H746 0.930 1_554 S
C743 C742 1.369 . S
C743 C752 1.429 . S
C744 C742 1.419 . S
C744 C745 1.363 . S
C744 H747 0.929 . S
C745 C744 1.363 . S
C745 C751 1.428 . S
H746 C742 0.930 1_556 S
H747 C744 0.929 . S
S748 N749 1.613 . S
S748 N750 1.610 . S
N749 S748 1.613 . S
N749 C752 1.350 . S
N750 S748 1.610 . S
N750 C751 1.351 . S
C751 C745 1.428 . S
C751 N750 1.351 . S
C751 C752 1.434 . S
C752 C743 1.429 . S
C752 N749 1.350 . S
C752 C751 1.434 . S
C753 C754 1.369 . S
C753 C755 1.419 . S
C753 H757 0.930 1_556 S
C754 C753 1.369 . S
C754 C763 1.429 . S
C755 C753 1.419 . S
C755 C756 1.363 . S
C755 H758 0.929 . S
C756 C755 1.363 . S
C756 C762 1.428 . S
H757 C753 0.930 1_554 S
H758 C755 0.929 . S
S759 N760 1.613 . S
S759 N761 1.610 . S
N760 S759 1.613 . S
N760 C763 1.350 . S
N761 S759 1.610 . S
N761 C762 1.351 . S
C762 C756 1.428 . S
C762 N761 1.351 . S
C762 C763 1.434 . S
C763 C754 1.429 . S
C763 N760 1.350 . S
C763 C762 1.434 . S
C764 C765 1.369 . S
C764 C766 1.419 . S
C764 H768 0.930 . S
C765 C764 1.369 . S
C765 C774 1.429 . S
C766 C764 1.419 . S
C766 C767 1.363 . S
C766 H769 0.929 . S
C767 C766 1.363 . S
C767 C773 1.428 . S
H768 C764 0.930 . S
H769 C766 0.929 . S
S770 N771 1.613 . S
S770 N772 1.610 . S
N771 S770 1.613 . S
N771 C774 1.350 . S
N772 S770 1.610 . S
N772 C773 1.351 . S
C773 C767 1.428 . S
C773 N772 1.351 . S
C773 C774 1.434 . S
C774 C765 1.429 . S
C774 N771 1.350 . S
C774 C773 1.434 . S
C775 C776 1.369 . S
C775 C777 1.419 . S
C775 H779 0.930 . S
C776 C775 1.369 . S
C776 C785 1.429 . S
C777 C775 1.419 . S
C777 C778 1.363 . S
C777 H780 0.929 . S
C778 C777 1.363 . S
C778 C784 1.428 . S
H779 C775 0.930 . S
H780 C777 0.929 . S
S781 N782 1.613 . S
S781 N783 1.610 . S
N782 S781 1.613 . S
N782 C785 1.350 . S
N783 S781 1.610 . S
N783 C784 1.351 . S
C784 C778 1.428 . S
C784 N783 1.351 . S
C784 C785 1.434 . S
C785 C776 1.429 . S
C785 N782 1.350 . S
C785 C784 1.434 . S
C786 C787 1.369 . S
C786 C788 1.419 . S
C786 H790 0.930 . S
C787 C786 1.369 . S
C787 C796 1.429 . S
C788 C786 1.419 . S
C788 C789 1.363 . S
C788 H791 0.929 . S
C789 C788 1.363 . S
C789 C795 1.428 . S
H790 C786 0.930 . S
H791 C788 0.929 . S
S792 N793 1.613 . S
S792 N794 1.610 . S
N793 S792 1.613 . S
N793 C796 1.350 . S
N794 S792 1.610 . S
N794 C795 1.351 . S
C795 C789 1.428 . S
C795 N794 1.351 . S
C795 C796 1.434 . S
C796 C787 1.429 . S
C796 N793 1.350 . S
C796 C795 1.434 . S
C797 C798 1.369 . S
C797 C799 1.419 . S
C797 H801 0.930 . S
C798 C797 1.369 . S
C798 C807 1.429 . S
C799 C797 1.419 . S
C799 C800 1.363 . S
C799 H802 0.929 . S
C800 C799 1.363 . S
C800 C806 1.428 . S
H801 C797 0.930 . S
H802 C799 0.929 . S
S803 N804 1.613 . S
S803 N805 1.610 . S
N804 S803 1.613 . S
N804 C807 1.350 . S
N805 S803 1.610 . S
N805 C806 1.351 . S
C806 C800 1.428 . S
C806 N805 1.351 . S
C806 C807 1.434 . S
C807 C798 1.429 . S
C807 N804 1.350 . S
C807 C806 1.434 . S
C808 C809 1.369 . S
C808 C810 1.419 . S
C808 H812 0.930 . S
C809 C808 1.369 . S
C809 C818 1.429 . S
C810 C808 1.419 . S
C810 C811 1.363 . S
C810 H813 0.929 . S
C811 C810 1.363 . S
C811 C817 1.428 . S
H812 C808 0.930 . S
H813 C810 0.929 . S
S814 N815 1.613 1_554 S
S814 N816 1.610 . S
N815 S814 1.613 1_556 S
N815 C818 1.350 . S
N816 S814 1.610 . S
N816 C817 1.351 1_554 S
C817 C811 1.428 . S
C817 N816 1.351 1_556 S
C817 C818 1.434 . S
C818 C809 1.429 . S
C818 N815 1.350 . S
C818 C817 1.434 . S
C819 C820 1.369 . S
C819 C821 1.419 . S
C819 H823 0.930 . S
C820 C819 1.369 . S
C820 C829 1.429 . S
C821 C819 1.419 . S
C821 C822 1.363 . S
C821 H824 0.929 . S
C822 C821 1.363 . S
C822 C828 1.428 . S
H823 C819 0.930 . S
H824 C821 0.929 . S
S825 N826 1.613 . S
S825 N827 1.610 . S
N826 S825 1.613 . S
N826 C829 1.350 . S
N827 S825 1.610 . S
N827 C828 1.351 . S
C828 C822 1.428 . S
C828 N827 1.351 . S
C828 C829 1.434 . S
C829 C820 1.429 . S
C829 N826 1.350 . S
C829 C828 1.434 . S
C830 C831 1.369 . S
C830 C832 1.419 . S
C830 H834 0.930 . S
C831 C830 1.369 . S
C831 C840 1.429 1_556 S
C832 C830 1.419 . S
C832 C833 1.363 . S
C832 H835 0.929 . S
C833 C832 1.363 . S
C833 C839 1.428 . S
H834 C830 0.930 . S
H835 C832 0.929 . S
S836 N837 1.613 . S
S836 N838 1.610 1_554 S
N837 S836 1.613 . S
N837 C840 1.350 . S
N838 S836 1.610 1_556 S
N838 C839 1.351 . S
C839 C833 1.428 . S
C839 N838 1.351 . S
C839 C840 1.434 1_556 S
C840 C831 1.429 1_554 S
C840 N837 1.350 . S
C840 C839 1.434 1_554 S
C841 C842 1.369 . S
C841 C843 1.419 . S
C841 H845 0.930 1_554 S
C842 C841 1.369 . S
C842 C851 1.429 . S
C843 C841 1.419 . S
C843 C844 1.363 . S
C843 H846 0.929 . S
C844 C843 1.363 . S
C844 C850 1.428 . S
H845 C841 0.930 1_556 S
H846 C843 0.929 . S
S847 N848 1.613 . S
S847 N849 1.610 . S
N848 S847 1.613 . S
N848 C851 1.350 . S
N849 S847 1.610 . S
N849 C850 1.351 . S
C850 C844 1.428 . S
C850 N849 1.351 . S
C850 C851 1.434 . S
C851 C842 1.429 . S
C851 N848 1.350 . S
C851 C850 1.434 . S
C852 C853 1.369 . S
C852 C854 1.419 . S
C852 H856 0.930 . S
C853 C852 1.369 . S
C853 C862 1.429 . S
C854 C852 1.419 . S
C854 C855 1.363 . S
C854 H857 0.929 . S
C855 C854 1.363 . S
C855 C861 1.428 . S
H856 C852 0.930 . S
H857 C854 0.929 . S
S858 N859 1.613 . S
S858 N860 1.610 . S
N859 S858 1.613 . S
N859 C862 1.350 . S
N860 S858 1.610 . S
N860 C861 1.351 . S
C861 C855 1.428 . S
C861 N860 1.351 . S
C861 C862 1.434 . S
C862 C853 1.429 . S
C862 N859 1.350 . S
C862 C861 1.434 . S
C863 C864 1.369 . S
C863 C865 1.419 . S
C863 H867 0.930 . S
C864 C863 1.369 . S
C864 C873 1.429 . S
C865 C863 1.419 . S
C865 C866 1.363 . S
C865 H868 0.929 . S
C866 C865 1.363 . S
C866 C872 1.428 . S
H867 C863 0.930 . S
H868 C865 0.929 . S
S869 N870 1.613 . S
S869 N871 1.610 . S
N870 S869 1.613 . S
N870 C873 1.350 . S
N871 S869 1.610 . S
N871 C872 1.351 . S
C872 C866 1.428 . S
C872 N871 1.351 . S
C872 C873 1.434 . S
C873 C864 1.429 . S
C873 N870 1.350 . S
C873 C872 1.434 . S
C874 C875 1.369 . S
C874 C876 1.419 . S
C874 H878 0.930 . S
C875 C874 1.369 . S
C875 C884 1.429 . S
C876 C874 1.419 . S
C876 C877 1.363 . S
C876 H879 0.929 . S
C877 C876 1.363 . S
C877 C883 1.428 . S
H878 C874 0.930 . S
H879 C876 0.929 . S
S880 N881 1.613 . S
S880 N882 1.610 . S
N881 S880 1.613 . S
N881 C884 1.350 . S
N882 S880 1.610 . S
N882 C883 1.351 . S
C883 C877 1.428 . S
C883 N882 1.351 . S
C883 C884 1.434 . S
C884 C875 1.429 . S
C884 N881 1.350 . S
C884 C883 1.434 . S
C885 C886 1.369 . S
C885 C887 1.419 . S
C885 H889 0.930 . S
C886 C885 1.369 . S
C886 C895 1.429 . S
C887 C885 1.419 . S
C887 C888 1.363 . S
C887 H890 0.929 . S
C888 C887 1.363 . S
C888 C894 1.428 . S
H889 C885 0.930 . S
H890 C887 0.929 . S
S891 N892 1.613 . S
S891 N893 1.610 . S
N892 S891 1.613 . S
N892 C895 1.350 . S
N893 S891 1.610 . S
N893 C894 1.351 . S
C894 C888 1.428 . S
C894 N893 1.351 . S
C894 C895 1.434 . S
C895 C886 1.429 . S
C895 N892 1.350 . S
C895 C894 1.434 . S
C896 C897 1.369 . S
C896 C898 1.419 . S
C896 H900 0.930 . S
C897 C896 1.369 . S
C897 C906 1.429 . S
C898 C896 1.419 . S
C898 C899 1.363 . S
C898 H901 0.929 . S
C899 C898 1.363 . S
C899 C905 1.428 . S
H900 C896 0.930 . S
H901 C898 0.929 . S
S902 N903 1.613 . S
S902 N904 1.610 . S
N903 S902 1.613 . S
N903 C906 1.350 . S
N904 S902 1.610 . S
N904 C905 1.351 . S
C905 C899 1.428 . S
C905 N904 1.351 . S
C905 C906 1.434 . S
C906 C897 1.429 . S
C906 N903 1.350 . S
C906 C905 1.434 . S
C907 C908 1.369 . S
C907 C909 1.419 . S
C907 H911 0.930 . S
C908 C907 1.369 . S
C908 C917 1.429 . S
C909 C907 1.419 . S
C909 C910 1.363 . S
C909 H912 0.929 . S
C910 C909 1.363 . S
C910 C916 1.428 . S
H911 C907 0.930 . S
H912 C909 0.929 . S
S913 N914 1.613 . S
S913 N915 1.610 . S
N914 S913 1.613 . S
N914 C917 1.350 . S
N915 S913 1.610 . S
N915 C916 1.351 . S
C916 C910 1.428 . S
C916 N915 1.351 . S
C916 C917 1.434 . S
C917 C908 1.429 . S
C917 N914 1.350 . S
C917 C916 1.434 . S
C918 C919 1.369 . S
C918 C920 1.419 . S
C918 H922 0.930 . S
C919 C918 1.369 . S
C919 C928 1.429 . S
C920 C918 1.419 . S
C920 C921 1.363 . S
C920 H923 0.929 . S
C921 C920 1.363 . S
C921 C927 1.428 . S
H922 C918 0.930 . S
H923 C920 0.929 . S
S924 N925 1.613 . S
S924 N926 1.610 . S
N925 S924 1.613 . S
N925 C928 1.350 . S
N926 S924 1.610 . S
N926 C927 1.351 . S
C927 C921 1.428 . S
C927 N926 1.351 . S
C927 C928 1.434 . S
C928 C919 1.429 . S
C928 N925 1.350 . S
C928 C927 1.434 . S
C929 C930 1.369 . S
C929 C931 1.419 . S
C929 H933 0.930 . S
C930 C929 1.369 . S
C930 C939 1.429 . S
C931 C929 1.419 . S
C931 C932 1.363 . S
C931 H934 0.929 . S
C932 C931 1.363 . S
C932 C938 1.428 . S
H933 C929 0.930 . S
H934 C931 0.929 . S
S935 N936 1.613 . S
S935 N937 1.610 . S
N936 S935 1.613 . S
N936 C939 1.350 . S
N937 S935 1.610 . S
N937 C938 1.351 . S
C938 C932 1.428 . S
C938 N937 1.351 . S
C938 C939 1.434 . S
C939 C930 1.429 . S
C939 N936 1.350 . S
C939 C938 1.434 . S
C940 C941 1.369 . S
C940 C942 1.419 . S
C940 H944 0.930 . S
C941 C940 1.369 . S
C941 C950 1.429 . S
C942 C940 1.419 . S
C942 C943 1.363 . S
C942 H945 0.929 . S
C943 C942 1.363 . S
C943 C949 1.428 . S
H944 C940 0.930 . S
H945 C942 0.929 . S
S946 N947 1.613 . S
S946 N948 1.610 . S
N947 S946 1.613 . S
N947 C950 1.350 . S
N948 S946 1.610 . S
N948 C949 1.351 . S
C949 C943 1.428 . S
C949 N948 1.351 . S
C949 C950 1.434 . S
C950 C941 1.429 . S
C950 N947 1.350 . S
C950 C949 1.434 . S
C951 C952 1.369 . S
C951 C953 1.419 . S
C951 H955 0.930 . S
C952 C951 1.369 . S
C952 C961 1.429 . S
C953 C951 1.419 . S
C953 C954 1.363 . S
C953 H956 0.929 . S
C954 C953 1.363 . S
C954 C960 1.428 . S
H955 C951 0.930 . S
H956 C953 0.929 . S
S957 N958 1.613 . S
S957 N959 1.610 . S
N958 S957 1.613 . S
N958 C961 1.350 . S
N959 S957 1.610 . S
N959 C960 1.351 . S
C960 C954 1.428 . S
C960 N959 1.351 . S
C960 C961 1.434 . S
C961 C952 1.429 . S
C961 N958 1.350 . S
C961 C960 1.434 . S
C962 C963 1.369 . S
C962 C964 1.419 . S
C962 H966 0.930 . S
C963 C962 1.369 . S
C963 C972 1.429 . S
C964 C962 1.419 . S
C964 C965 1.363 . S
C964 H967 0.929 . S
C965 C964 1.363 . S
C965 C971 1.428 . S
H966 C962 0.930 . S
H967 C964 0.929 . S
S968 N969 1.613 . S
S968 N970 1.610 . S
N969 S968 1.613 . S
N969 C972 1.350 . S
N970 S968 1.610 . S
N970 C971 1.351 . S
C971 C965 1.428 . S
C971 N970 1.351 . S
C971 C972 1.434 . S
C972 C963 1.429 . S
C972 N969 1.350 . S
C972 C971 1.434 . S
C973 C974 1.369 . S
C973 C975 1.419 . S
C973 H977 0.930 . S
C974 C973 1.369 . S
C974 C983 1.429 . S
C975 C973 1.419 . S
C975 C976 1.363 . S
C975 H978 0.929 . S
C976 C975 1.363 . S
C976 C982 1.428 . S
H977 C973 0.930 . S
H978 C975 0.929 . S
S979 N980 1.613 . S
S979 N981 1.610 . S
N980 S979 1.613 . S
N980 C983 1.350 . S
N981 S979 1.610 . S
N981 C982 1.351 . S
C982 C976 1.428 . S
C982 N981 1.351 . S
C982 C983 1.434 . S
C983 C974 1.429 . S
C983 N980 1.350 . S
C983 C982 1.434 . S
C984 C985 1.369 1_554 S
C984 C986 1.419 . S
C984 H988 0.930 . S
C985 C984 1.369 1_556 S
C985 C994 1.429 1_556 S
C986 C984 1.419 . S
C986 C987 1.363 . S
C986 H989 0.929 . S
C987 C986 1.363 . S
C987 C993 1.428 . S
H988 C984 0.930 . S
H989 C986 0.929 . S
S990 N991 1.613 1_554 S
S990 N992 1.610 . S
N991 S990 1.613 1_556 S
N991 C994 1.350 1_556 S
N992 S990 1.610 . S
N992 C993 1.351 . S
C993 C987 1.428 . S
C993 N992 1.351 . S
C993 C994 1.434 . S
C994 C985 1.429 1_554 S
C994 N991 1.350 1_554 S
C994 C993 1.434 . S
C995 C996 1.369 . S
C995 C997 1.419 . S
C995 H999 0.930 . S
C996 C995 1.369 . S
C996 C1005 1.429 . S
C997 C995 1.419 . S
C997 C998 1.363 1_556 S
C997 H1000 0.929 . S
C998 C997 1.363 1_554 S
C998 C1004 1.428 1_554 S
H999 C995 0.930 . S
H1000 C997 0.929 . S
S1001 N1002 1.613 . S
S1001 N1003 1.610 1_556 S
N1002 S1001 1.613 . S
N1002 C1005 1.350 . S
N1003 S1001 1.610 1_554 S
N1003 C1004 1.351 1_554 S
C1004 C998 1.428 1_556 S
C1004 N1003 1.351 1_556 S
C1004 C1005 1.434 . S
C1005 C996 1.429 . S
C1005 N1002 1.350 . S
C1005 C1004 1.434 . S
C1006 C1007 1.369 . S
C1006 C1008 1.419 . S
C1006 H1010 0.930 . S
C1007 C1006 1.369 . S
C1007 C1016 1.429 . S
C1008 C1006 1.419 . S
C1008 C1009 1.363 1_554 S
C1008 H1011 0.929 . S
C1009 C1008 1.363 1_556 S
C1009 C1015 1.428 1_556 S
H1010 C1006 0.930 . S
H1011 C1008 0.929 . S
S1012 N1013 1.613 . S
S1012 N1014 1.612 . S
N1013 S1012 1.613 . S
N1013 C1016 1.350 . S
N1014 S1012 1.612 . S
N1014 C1015 1.352 . S
C1015 C1009 1.428 1_554 S
C1015 N1014 1.352 . S
C1015 C1016 1.434 . S
C1016 C1007 1.429 . S
C1016 N1013 1.350 . S
C1016 C1015 1.434 . S
C1017 C1018 1.369 1_556 S
C1017 C1019 1.419 . S
C1017 H1021 0.930 1_556 S
C1018 C1017 1.369 1_554 S
C1018 C1027 1.429 1_554 S
C1019 C1017 1.419 . S
C1019 C1020 1.363 . S
C1019 H1022 0.929 . S
C1020 C1019 1.363 . S
C1020 C1026 1.428 . S
H1021 C1017 0.930 1_554 S
H1022 C1019 0.929 . S
S1023 N1024 1.613 . S
S1023 N1025 1.610 . S
N1024 S1023 1.613 . S
N1024 C1027 1.350 . S
N1025 S1023 1.610 . S
N1025 C1026 1.351 . S
C1026 C1020 1.428 . S
C1026 N1025 1.351 . S
C1026 C1027 1.434 . S
C1027 C1018 1.429 1_556 S
C1027 N1024 1.350 . S
C1027 C1026 1.434 . S
C1028 C1029 1.369 . S
C1028 C1030 1.419 . S
C1028 H1032 0.930 . S
C1029 C1028 1.369 . S
C1029 C1038 1.429 . S
C1030 C1028 1.419 . S
C1030 C1031 1.363 1_554 S
C1030 H1033 0.929 1_554 S
C1031 C1030 1.363 1_556 S
C1031 C1037 1.428 1_556 S
H1032 C1028 0.930 . S
H1033 C1030 0.929 1_556 S
S1034 N1035 1.613 . S
S1034 N1036 1.610 . S
N1035 S1034 1.613 . S
N1035 C1038 1.350 . S
N1036 S1034 1.610 . S
N1036 C1037 1.351 . S
C1037 C1031 1.428 1_554 S
C1037 N1036 1.351 . S
C1037 C1038 1.434 . S
C1038 C1029 1.429 . S
C1038 N1035 1.350 . S
C1038 C1037 1.434 . S
C1039 C1040 1.369 1_556 S
C1039 C1041 1.419 . S
C1039 H1043 0.930 . S
C1040 C1039 1.369 1_554 S
C1040 C1049 1.429 1_554 S
C1041 C1039 1.419 . S
C1041 C1042 1.363 . S
C1041 H1044 0.929 . S
C1042 C1041 1.363 . S
C1042 C1048 1.428 . S
H1043 C1039 0.930 . S
H1044 C1041 0.929 . S
S1045 N1046 1.613 1_556 S
S1045 N1047 1.610 . S
N1046 S1045 1.613 1_554 S
N1046 C1049 1.350 1_554 S
N1047 S1045 1.610 . S
N1047 C1048 1.351 . S
C1048 C1042 1.428 . S
C1048 N1047 1.351 . S
C1048 C1049 1.434 . S
C1049 C1040 1.429 1_556 S
C1049 N1046 1.350 1_556 S
C1049 C1048 1.434 . S
C1050 C1051 1.369 1_554 S
C1050 C1052 1.419 . S
C1050 H1054 0.930 . S
C1051 C1050 1.369 1_556 S
C1051 C1060 1.429 1_556 S
C1052 C1050 1.419 . S
C1052 C1053 1.363 . S
C1052 H1055 0.929 . S
C1053 C1052 1.363 . S
C1053 C1059 1.428 . S
H1054 C1050 0.930 . S
H1055 C1052 0.929 . S
S1056 N1057 1.613 1_554 S
S1056 N1058 1.610 . S
N1057 S1056 1.613 1_556 S
N1057 C1060 1.350 1_556 S
N1058 S1056 1.610 . S
N1058 C1059 1.351 . S
C1059 C1053 1.428 . S
C1059 N1058 1.351 . S
C1059 C1060 1.434 . S
C1060 C1051 1.429 1_554 S
C1060 N1057 1.350 1_554 S
C1060 C1059 1.434 . S
C1061 C1062 1.369 . S
C1061 C1063 1.419 . S
C1061 H1065 0.930 . S
C1062 C1061 1.369 . S
C1062 C1071 1.429 . S
C1063 C1061 1.419 . S
C1063 C1064 1.363 1_556 S
C1063 H1066 0.929 1_556 S
C1064 C1063 1.363 1_554 S
C1064 C1070 1.428 1_554 S
H1065 C1061 0.930 . S
H1066 C1063 0.929 1_554 S
S1067 N1068 1.613 . S
S1067 N1069 1.610 . S
N1068 S1067 1.613 . S
N1068 C1071 1.350 . S
N1069 S1067 1.610 . S
N1069 C1070 1.351 . S
C1070 C1064 1.428 1_556 S
C1070 N1069 1.351 . S
C1070 C1071 1.434 . S
C1071 C1062 1.429 . S
C1071 N1068 1.350 . S
C1071 C1070 1.434 . S
C545 C382 1.693 . S
C547 C13 1.683 . S
C556 C289 1.697 . S
C558 C38 1.680 . S
C567 C81 1.682 . S
C569 C314 1.694 . S
C578 C106 1.684 . S
C580 C357 1.694 . S
C589 C149 1.684 . S
C591 C178 1.694 . S
C600 C221 1.695 . S
C602 C174 1.681 . S
C611 C217 1.680 . S
C613 C246 1.697 . S
C622 C153 1.694 . S
C624 C242 1.683 . S
C633 C110 1.696 . S
C635 C285 1.681 . S
C644 C310 1.680 . S
C646 C17 1.696 . S
C655 C42 1.698 . S
C657 C353 1.679 . S
C666 C85 1.694 . S
C668 C378 1.683 . S
C677 C421 1.683 . S
C679 C450 1.695 . S
C688 C493 1.697 . S
C690 C446 1.680 . S
C699 C518 1.693 . S
C701 C489 1.683 . S
C710 C514 1.678 . S
C712 C425 1.697 . S
C721 C4 1.284 . S
C723 C140 1.277 . S
C732 C183 1.276 . S
C734 C47 1.283 . S
C743 C72 1.276 . S
C745 C208 1.282 . S
C754 C115 1.277 . S
C756 C251 1.280 . S
C765 C276 1.275 . S
C767 C412 1.282 . S
C776 C455 1.281 . S
C778 C319 1.279 . S
C787 C344 1.281 . S
C789 C480 1.279 . S
C798 C387 1.282 . S
C800 C523 1.276 . S
C809 C484 2.226 . S
C811 C8 2.229 1_556 S
C820 C51 2.225 1_554 S
C822 C527 2.228 . S
C831 C76 2.230 1_556 S
C833 C416 2.226 . S
C842 C119 2.225 1_554 S
C844 C459 2.228 . S
C853 C144 2.226 . S
C855 C348 2.230 . S
C864 C187 2.226 . S
C866 C391 2.230 . S
C875 C212 2.227 . S
C877 C280 2.229 . S
C886 C323 2.229 . S
C888 C255 2.226 . S
C897 C29 1.018 . S
C899 C0 1.020 . S
C908 C34 1.016 . S
C910 C63 1.022 . S
C919 C97 1.020 . S
C921 C68 1.018 . S
C930 C131 1.017 . S
C932 C102 1.021 . S
C941 C136 1.021 . S
C943 C165 1.018 . S
C952 C170 1.016 . S
C954 C199 1.021 . S
C963 C233 1.019 . S
C965 C204 1.019 . S
C974 C267 1.016 . S
C976 C238 1.022 . S
C985 C301 1.019 . S
C987 C272 1.020 . S
C996 C335 1.021 . S
C998 C306 1.018 . S
C1007 C340 1.019 . S
C1009 C369 1.019 . S
C1018 C374 1.020 . S
C1020 C403 1.018 . S
C1029 C437 1.016 . S
C1031 C408 1.022 . S
C1040 C471 1.016 . S
C1042 C442 1.021 . S
C1051 C476 1.019 . S
C1053 C505 1.019 . S
C1062 C510 1.016 . S
C1064 C539 1.021 . S
