# Generated by pormake.
# Topology ecf, (8)-cn, num edge types: 1
# Building blocks:
#     Node 0, Type 0, BuildingBlock: GIZVER_clean_sbu_0, # of connection points: 8
#     Node 1, Type 0, BuildingBlock: GIZVER_clean_sbu_0, # of connection points: 8
#     Node 2, Type 0, BuildingBlock: GIZVER_clean_sbu_0, # of connection points: 8
#     Node 3, Type 0, BuildingBlock: GIZVER_clean_sbu_0, # of connection points: 8
#     Node 4, Type 0, BuildingBlock: GIZVER_clean_sbu_0, # of connection points: 8
#     Node 5, Type 0, BuildingBlock: GIZVER_clean_sbu_0, # of connection points: 8
#     Edge 6, Type (0, 0), BuildingBlock: UVAHIK_clean_linker_0, # of connection points: 2
#     Edge 7, Type (0, 0), BuildingBlock: UVAHIK_clean_linker_0, # of connection points: 2
#     Edge 8, Type (0, 0), BuildingBlock: UVAHIK_clean_linker_0, # of connection points: 2
#     Edge 9, Type (0, 0), BuildingBlock: UVAHIK_clean_linker_0, # of connection points: 2
#     Edge 10, Type (0, 0), BuildingBlock: UVAHIK_clean_linker_0, # of connection points: 2
#     Edge 11, Type (0, 0), BuildingBlock: UVAHIK_clean_linker_0, # of connection points: 2
#     Edge 12, Type (0, 0), BuildingBlock: UVAHIK_clean_linker_0, # of connection points: 2
#     Edge 13, Type (0, 0), BuildingBlock: UVAHIK_clean_linker_0, # of connection points: 2
#     Edge 14, Type (0, 0), BuildingBlock: UVAHIK_clean_linker_0, # of connection points: 2
#     Edge 15, Type (0, 0), BuildingBlock: UVAHIK_clean_linker_0, # of connection points: 2
#     Edge 16, Type (0, 0), BuildingBlock: UVAHIK_clean_linker_0, # of connection points: 2
#     Edge 17, Type (0, 0), BuildingBlock: UVAHIK_clean_linker_0, # of connection points: 2
#     Edge 18, Type (0, 0), BuildingBlock: UVAHIK_clean_linker_0, # of connection points: 2
#     Edge 19, Type (0, 0), BuildingBlock: UVAHIK_clean_linker_0, # of connection points: 2
#     Edge 20, Type (0, 0), BuildingBlock: UVAHIK_clean_linker_0, # of connection points: 2
#     Edge 21, Type (0, 0), BuildingBlock: UVAHIK_clean_linker_0, # of connection points: 2
#     Edge 22, Type (0, 0), BuildingBlock: UVAHIK_clean_linker_0, # of connection points: 2
#     Edge 23, Type (0, 0), BuildingBlock: UVAHIK_clean_linker_0, # of connection points: 2
#     Edge 24, Type (0, 0), BuildingBlock: UVAHIK_clean_linker_0, # of connection points: 2
#     Edge 25, Type (0, 0), BuildingBlock: UVAHIK_clean_linker_0, # of connection points: 2
#     Edge 26, Type (0, 0), BuildingBlock: UVAHIK_clean_linker_0, # of connection points: 2
#     Edge 27, Type (0, 0), BuildingBlock: UVAHIK_clean_linker_0, # of connection points: 2
#     Edge 28, Type (0, 0), BuildingBlock: UVAHIK_clean_linker_0, # of connection points: 2
#     Edge 29, Type (0, 0), BuildingBlock: UVAHIK_clean_linker_0, # of connection points: 2
# Relax obj value: 0.355
# Max RMSD: 0.255
# Mean RMSD: 0.255
data_MOF--net-ecf--node1-GIZVER_clean_sbu_0--edge1-UVAHIK_clean_linker_0
_symmetry_space_group_name_H-M    P1
_symmetry_Int_Tables_number       1
_symmetry_cell_setting            triclinic
loop_
_symmetry_equiv_pos_as_xyz
'x, y, z'
_cell_length_a     46.064085
_cell_length_b     46.263552
_cell_length_c     30.406782
_cell_angle_alpha  90.047321
_cell_angle_beta   89.662198
_cell_angle_gamma 120.04639
loop_
_atom_site_label
_atom_site_type_symbol
_atom_site_fract_x
_atom_site_fract_y
_atom_site_fract_z
_atom_type_partial_charge
Co0 Co 0.2325 0.41481 0.3568 0.0
Co1 Co 0.17377 0.40277 0.33285 0.0
Co2 Co 0.17387 0.33486 0.32495 0.0
O3 O 0.19915 0.38394 0.31523 0.0
H4 H 0.20633 0.38954 0.28497 0.0
O5 O 0.15039 0.28717 0.33801 0.0
Co6 Co 0.10292 0.26228 0.34624 0.0
Co7 Co 0.14284 0.26039 0.29303 0.0
H8 H 0.16162 0.28191 0.3607 0.0
O9 O 0.18059 0.43986 0.3043 0.0
O10 O 0.20475 0.43674 0.36769 0.0
O11 O 0.13246 0.37617 0.36487 0.0
O12 O 0.14359 0.33517 0.37448 0.0
O13 O 0.14076 0.33063 0.27856 0.0
O14 O 0.05985 0.23697 0.35927 0.0
O15 O 0.10451 0.2389 0.39218 0.0
O16 O 0.09518 0.28323 0.29811 0.0
O17 O 0.20223 0.33052 0.2753 0.0
O18 O 0.16581 0.28326 0.24029 0.0
O19 O 0.09959 0.22769 0.30386 0.0
O20 O 0.14722 0.22485 0.30818 0.0
C21 C 0.27485 0.46142 0.35288 0.0
C22 C 0.2148 0.35684 0.40427 0.0
C23 C 0.12636 0.34926 0.38366 0.0
C24 C 0.19991 0.45435 0.33781 0.0
C25 C 0.07216 0.22596 0.38907 0.0
C26 C 0.11009 0.30838 0.27288 0.0
C27 C 0.19375 0.31053 0.24191 0.0
C28 C 0.11476 0.21082 0.31167 0.0
O29 O 0.26484 0.44542 0.39003 0.0
O30 O 0.25764 0.44764 0.31725 0.0
O31 O 0.20752 0.33937 0.3694 0.0
O32 O 0.21228 0.38317 0.40518 0.0
Co33 Co 0.90021 0.12179 0.82839 0.0
Co34 Co 0.93626 0.18502 0.8056 0.0
Co35 Co 0.86309 0.16819 0.81183 0.0
O36 O 0.8928 0.15138 0.79508 0.0
H37 H 0.8913 0.14615 0.76408 0.0
O38 O 0.83301 0.18654 0.82433 0.0
Co39 Co 0.83302 0.22001 0.78462 0.0
Co40 Co 0.7898 0.15953 0.80512 0.0
H41 H 0.83321 0.19208 0.85499 0.0
O42 O 0.96777 0.18943 0.76752 0.0
O43 O 0.94928 0.15723 0.8294 0.0
O44 O 0.94543 0.2206 0.84483 0.0
O45 O 0.89166 0.19747 0.86344 0.0
O46 O 0.88895 0.20492 0.769 0.0
O47 O 0.83248 0.25217 0.75364 0.0
O48 O 0.82293 0.24202 0.82618 0.0
O49 O 0.84649 0.20332 0.73403 0.0
O50 O 0.83444 0.13687 0.76189 0.0
O51 O 0.78054 0.12155 0.77001 0.0
O52 O 0.78387 0.19012 0.77334 0.0
O53 O 0.75641 0.16121 0.83465 0.0
C54 C 0.91471 0.08787 0.81596 0.0
C55 C 0.85652 0.12543 0.88591 0.0
C56 C 0.92282 0.21802 0.87091 0.0
C57 C 0.96796 0.16725 0.79358 0.0
C58 C 0.82564 0.26016 0.79173 0.0
C59 C 0.87679 0.2094 0.73402 0.0
C60 C 0.80341 0.11813 0.75168 0.0
C61 C 0.76039 0.18201 0.80328 0.0
O62 O 0.90912 0.09354 0.85613 0.0
O63 O 0.9093 0.10271 0.78324 0.0
O64 O 0.83993 0.13133 0.85677 0.0
O65 O 0.88801 0.13645 0.88048 0.0
Co66 Co 0.63662 0.82592 0.35472 0.0
Co67 Co 0.65157 0.78081 0.33362 0.0
Co68 Co 0.71799 0.85048 0.32549 0.0
O69 O 0.66904 0.82433 0.31462 0.0
H70 H 0.66383 0.8251 0.28405 0.0
O71 O 0.76525 0.87754 0.33897 0.0
Co72 Co 0.79146 0.85773 0.35251 0.0
Co73 Co 0.79172 0.89267 0.29176 0.0
H74 H 0.76985 0.89584 0.35844 0.0
O75 O 0.6148 0.74856 0.30622 0.0
O76 O 0.61656 0.77684 0.3681 0.0
O77 O 0.6799 0.7689 0.36614 0.0
O78 O 0.71786 0.82207 0.37756 0.0
O79 O 0.72503 0.82123 0.28253 0.0
O80 O 0.81763 0.84214 0.37014 0.0
O81 O 0.81031 0.88254 0.40022 0.0
O82 O 0.77466 0.82878 0.30347 0.0
O83 O 0.72257 0.88102 0.2732 0.0
O84 O 0.76721 0.88474 0.23758 0.0
O85 O 0.82828 0.89137 0.3134 0.0
O86 O 0.82192 0.93612 0.29949 0.0
C87 C 0.58916 0.8193 0.34863 0.0
C88 C 0.69394 0.8693 0.40256 0.0
C89 C 0.70556 0.79088 0.38615 0.0
C90 C 0.59958 0.75312 0.33937 0.0
C91 C 0.825 0.86473 0.40031 0.0
C92 C 0.74944 0.8157 0.27812 0.0
C93 C 0.74146 0.88831 0.23844 0.0
C94 C 0.83932 0.92354 0.31548 0.0
O95 O 0.60443 0.82669 0.3863 0.0
O96 O 0.60409 0.81561 0.31416 0.0
O97 O 0.71082 0.8797 0.36703 0.0
O98 O 0.66782 0.84017 0.40397 0.0
Co99 Co 0.95601 0.7765 0.78652 0.0
Co100 Co 0.91668 0.77983 0.83884 0.0
Co101 Co 0.88687 0.70365 0.81365 0.0
O102 O 0.90908 0.7509 0.79678 0.0
H103 H 0.89718 0.75461 0.77344 0.0
O104 O 0.86214 0.65488 0.82612 0.0
Co105 Co 0.82806 0.62297 0.78566 0.0
Co106 Co 0.88757 0.63621 0.80822 0.0
H107 H 0.85565 0.65002 0.85668 0.0
O108 O 0.91095 0.8143 0.82175 0.0
O109 O 0.95922 0.81257 0.82544 0.0
O110 O 0.8994 0.75911 0.89446 0.0
O111 O 0.8614 0.70956 0.86606 0.0
O112 O 0.85069 0.69737 0.77224 0.0
O113 O 0.79537 0.59166 0.75363 0.0
O114 O 0.80386 0.59037 0.8262 0.0
O115 O 0.84672 0.65407 0.73626 0.0
O116 O 0.91445 0.70149 0.76193 0.0
O117 O 0.92873 0.66322 0.77589 0.0
O118 O 0.85631 0.60163 0.77417 0.0
O119 O 0.88154 0.59951 0.83707 0.0
C120 C 0.98536 0.81103 0.74079 0.0
C121 C 0.95252 0.73429 0.86279 0.0
C122 C 0.87252 0.73095 0.89803 0.0
C123 C 0.94336 0.82862 0.81678 0.0
C124 C 0.78608 0.57606 0.79111 0.0
C125 C 0.84337 0.67992 0.73735 0.0
C126 C 0.9331 0.68866 0.75468 0.0
C127 C 0.86186 0.58449 0.80405 0.0
O128 O 0.99865 0.80198 0.7717 0.0
O129 O 0.95287 0.79723 0.73839 0.0
O130 O 0.92284 0.70964 0.85726 0.0
O131 O 0.96506 0.75893 0.83654 0.0
Co132 Co 0.22519 0.81678 0.35462 0.0
Co133 Co 0.26903 0.8767 0.33204 0.0
Co134 Co 0.19659 0.86979 0.32595 0.0
O135 O 0.22525 0.84973 0.31412 0.0
H136 H 0.2245 0.84352 0.28363 0.0
O137 O 0.16888 0.88923 0.34199 0.0
Co138 Co 0.16248 0.91855 0.30635 0.0
Co139 Co 0.12491 0.85692 0.33386 0.0
H140 H 0.17126 0.89573 0.37256 0.0
O141 O 0.30162 0.87342 0.30266 0.0
O142 O 0.27457 0.84644 0.3652 0.0
O143 O 0.27994 0.91585 0.36587 0.0
O144 O 0.22644 0.90161 0.37471 0.0
O145 O 0.22034 0.90525 0.27961 0.0
O146 O 0.15469 0.94662 0.27628 0.0
O147 O 0.15521 0.94038 0.34978 0.0
O148 O 0.17266 0.9008 0.25578 0.0
O149 O 0.16627 0.83944 0.27568 0.0
O150 O 0.11361 0.81972 0.29741 0.0
O151 O 0.11294 0.88473 0.30762 0.0
O152 O 0.09485 0.85558 0.372 0.0
C153 C 0.23218 0.77637 0.34855 0.0
C154 C 0.18234 0.8292 0.4049 0.0
C155 C 0.25761 0.92008 0.38431 0.0
C156 C 0.29777 0.85353 0.33516 0.0
C157 C 0.14988 0.95422 0.31578 0.0
C158 C 0.20397 0.91107 0.25012 0.0
C159 C 0.13453 0.81999 0.27013 0.0
C160 C 0.09496 0.87689 0.34403 0.0
O161 O 0.2256 0.78489 0.38644 0.0
O162 O 0.23474 0.79405 0.31368 0.0
O163 O 0.17034 0.83447 0.37031 0.0
O164 O 0.21237 0.8345 0.4046 0.0
Co165 Co 0.26646 0.17472 0.78357 0.0
Co166 Co 0.26685 0.13847 0.84157 0.0
Co167 Co 0.34128 0.18526 0.81159 0.0
O168 O 0.29438 0.15682 0.796 0.0
H169 H 0.29112 0.13969 0.77512 0.0
O170 O 0.38996 0.21246 0.82401 0.0
Co171 Co 0.42342 0.21205 0.78446 0.0
Co172 Co 0.40705 0.256 0.80572 0.0
H173 H 0.39478 0.21146 0.8547 0.0
O174 O 0.23855 0.09501 0.83061 0.0
O175 O 0.22979 0.13871 0.82023 0.0
O176 O 0.28988 0.14681 0.89691 0.0
O177 O 0.33693 0.1546 0.86353 0.0
O178 O 0.35046 0.15731 0.77029 0.0
O179 O 0.45638 0.21232 0.75358 0.0
O180 O 0.45538 0.22229 0.82587 0.0
O181 O 0.39299 0.19788 0.73414 0.0
O182 O 0.3415 0.21394 0.75994 0.0
O183 O 0.37842 0.26724 0.773 0.0
O184 O 0.44304 0.26129 0.77217 0.0
O185 O 0.44296 0.28843 0.83432 0.0
C186 C 0.23361 0.1683 0.73509 0.0
C187 C 0.30594 0.21594 0.86 0.0
C188 C 0.31704 0.14578 0.8974 0.0
C189 C 0.22027 0.107 0.81579 0.0
C190 C 0.47103 0.21934 0.79166 0.0
C191 C 0.36738 0.16839 0.73493 0.0
C192 C 0.35325 0.24517 0.75227 0.0
C193 C 0.45913 0.28476 0.80158 0.0
O194 O 0.23936 0.18924 0.76701 0.0
O195 O 0.24913 0.15126 0.73405 0.0
O196 O 0.33214 0.21336 0.85458 0.0
O197 O 0.28103 0.20151 0.83431 0.0
C198 C 0.22445 0.50979 0.30162 0.0
C199 C 0.21599 0.4911 0.34071 0.0
C200 C 0.23395 0.54351 0.30226 0.0
C201 C 0.25733 0.6172 0.37398 0.0
H202 H 0.21253 0.63896 0.2831 0.0
C203 C 0.23576 0.72975 0.38485 0.0
C204 C 0.23723 0.74712 0.34615 0.0
C205 C 0.23883 0.70123 0.38326 0.0
C206 C 0.22577 0.63363 0.30823 0.0
H207 H 0.21319 0.49352 0.41155 0.0
H208 H 0.22905 0.55271 0.41285 0.0
H209 H 0.20845 0.5846 0.28321 0.0
H210 H 0.24442 0.74875 0.27552 0.0
H211 H 0.2498 0.69874 0.27267 0.0
H212 H 0.27385 0.6662 0.39956 0.0
C213 C 0.22864 0.54129 0.38159 0.0
C214 C 0.22344 0.60234 0.30835 0.0
C215 C 0.21952 0.5074 0.38095 0.0
C216 C 0.24285 0.73579 0.30586 0.0
C217 C 0.24584 0.70708 0.30426 0.0
C218 C 0.25961 0.64859 0.3739 0.0
C219 C 0.23473 0.55939 0.34201 0.0
C220 C 0.23899 0.59357 0.34134 0.0
C221 C 0.24343 0.68921 0.34293 0.0
C222 C 0.24358 0.65706 0.34122 0.0
H223 H 0.22261 0.49799 0.27015 0.0
H224 H 0.23954 0.55686 0.2713 0.0
H225 H 0.26991 0.61146 0.39958 0.0
H226 H 0.23164 0.7378 0.41656 0.0
H227 H 0.23644 0.68795 0.41361 0.0
C228 C 0.51973 0.22539 0.83617 0.0
C229 C 0.50527 0.22408 0.79513 0.0
C230 C 0.55094 0.22708 0.83863 0.0
C231 C 0.62709 0.24522 0.77372 0.0
H232 H 0.63057 0.18188 0.85362 0.0
C233 C 0.72851 0.20505 0.76317 0.0
C234 C 0.73762 0.19595 0.80257 0.0
C235 C 0.70334 0.21377 0.76318 0.0
C236 C 0.63046 0.20023 0.83165 0.0
H237 H 0.51314 0.22534 0.72451 0.0
H238 H 0.56719 0.2282 0.7289 0.0
H239 H 0.58143 0.18831 0.85332 0.0
H240 H 0.72997 0.19194 0.87322 0.0
H241 H 0.68741 0.20817 0.87349 0.0
H242 H 0.67616 0.2569 0.75181 0.0
C243 C 0.55457 0.22794 0.75918 0.0
C244 C 0.60214 0.20387 0.83152 0.0
C245 C 0.52336 0.226 0.75672 0.0
C246 C 0.7229 0.19803 0.84215 0.0
C247 C 0.6983 0.20717 0.84227 0.0
C248 C 0.65563 0.24173 0.77405 0.0
C249 C 0.56847 0.22784 0.80012 0.0
C250 C 0.59993 0.22619 0.80234 0.0
C251 C 0.68723 0.21397 0.8027 0.0
C252 C 0.65762 0.21902 0.80289 0.0
H253 H 0.50656 0.22418 0.86635 0.0
H254 H 0.56117 0.22737 0.87071 0.0
H255 H 0.62627 0.26283 0.75104 0.0
H256 H 0.7396 0.20384 0.73221 0.0
H257 H 0.69551 0.21886 0.73203 0.0
C258 C 0.3193 0.51141 0.39226 0.0
C259 C 0.30498 0.49535 0.35232 0.0
C260 C 0.3484 0.54271 0.39277 0.0
C261 C 0.4041 0.61636 0.32286 0.0
H262 H 0.47059 0.62958 0.41034 0.0
C263 C 0.54425 0.71409 0.306 0.0
C264 C 0.56284 0.73052 0.34363 0.0
C265 C 0.51051 0.68956 0.30935 0.0
C266 C 0.45209 0.62661 0.38623 0.0
H267 H 0.3096 0.50026 0.28142 0.0
H268 H 0.36105 0.55474 0.28216 0.0
H269 H 0.41661 0.57816 0.41065 0.0
H270 H 0.56004 0.73534 0.41413 0.0
H271 H 0.50069 0.69177 0.42024 0.0
H272 H 0.44031 0.66449 0.29759 0.0
C273 C 0.34945 0.54323 0.31323 0.0
C274 C 0.42103 0.59703 0.3863 0.0
C275 C 0.32005 0.51186 0.31274 0.0
C276 C 0.5464 0.723 0.38461 0.0
C277 C 0.51253 0.69796 0.38808 0.0
C278 C 0.43526 0.64589 0.32265 0.0
C279 C 0.36427 0.55888 0.35333 0.0
C280 C 0.39672 0.59127 0.3543 0.0
C281 C 0.4944 0.68051 0.35051 0.0
C282 C 0.45982 0.65118 0.35396 0.0
H283 H 0.30812 0.49973 0.42346 0.0
H284 H 0.35849 0.55421 0.42426 0.0
H285 H 0.38584 0.61317 0.29824 0.0
H286 H 0.55605 0.71957 0.27382 0.0
H287 H 0.4975 0.67656 0.2798 0.0
C288 C 0.81696 0.30164 0.83554 0.0
C289 C 0.82074 0.2895 0.79481 0.0
C290 C 0.81466 0.33073 0.83764 0.0
C291 C 0.79964 0.38923 0.7697 0.0
H292 H 0.85536 0.45415 0.85697 0.0
C293 C 0.84082 0.53081 0.76163 0.0
C294 C 0.84613 0.5477 0.80178 0.0
C295 C 0.83167 0.4969 0.76113 0.0
C296 C 0.83913 0.43618 0.83282 0.0
H297 H 0.82353 0.29769 0.7242 0.0
H298 H 0.81984 0.34813 0.72796 0.0
H299 H 0.85006 0.39926 0.85683 0.0
H300 H 0.84269 0.54173 0.87265 0.0
H301 H 0.82577 0.48289 0.87182 0.0
H302 H 0.78923 0.42661 0.74526 0.0
C303 C 0.81845 0.33526 0.75831 0.0
C304 C 0.83609 0.40458 0.8328 0.0
C305 C 0.82089 0.30638 0.75624 0.0
C306 C 0.83952 0.52954 0.84116 0.0
C307 C 0.83001 0.4958 0.84068 0.0
C308 C 0.80262 0.42093 0.76977 0.0
C309 C 0.81586 0.34817 0.79903 0.0
C310 C 0.81659 0.38076 0.80102 0.0
C311 C 0.82731 0.47931 0.8008 0.0
C312 C 0.82259 0.44492 0.80121 0.0
H313 H 0.81649 0.2891 0.86583 0.0
H314 H 0.81224 0.33976 0.86955 0.0
H315 H 0.78411 0.37136 0.74499 0.0
H316 H 0.84567 0.54422 0.7308 0.0
H317 H 0.82976 0.48501 0.72975 0.0
C318 C 0.33405 0.83532 0.29777 0.0
C319 C 0.32045 0.83952 0.33709 0.0
C320 C 0.35892 0.82654 0.29843 0.0
C321 C 0.4047 0.79709 0.36967 0.0
H322 H 0.47618 0.84671 0.28517 0.0
C323 C 0.53804 0.81497 0.38452 0.0
C324 C 0.55497 0.81485 0.34589 0.0
C325 C 0.50674 0.81287 0.38252 0.0
C326 C 0.45625 0.8322 0.30851 0.0
H327 H 0.32072 0.83577 0.408 0.0
H328 H 0.36525 0.82139 0.40946 0.0
H329 H 0.42645 0.85213 0.28443 0.0
H330 H 0.55152 0.81108 0.27487 0.0
H331 H 0.49676 0.80758 0.27129 0.0
H332 H 0.4354 0.77807 0.39451 0.0
C333 C 0.35633 0.8245 0.37794 0.0
C334 C 0.42758 0.83526 0.30812 0.0
C335 C 0.33089 0.83283 0.37721 0.0
C336 C 0.5393 0.81149 0.3052 0.0
C337 C 0.50799 0.80961 0.30318 0.0
C338 C 0.43359 0.79419 0.37022 0.0
C339 C 0.37139 0.82227 0.3385 0.0
C340 C 0.40138 0.81782 0.3387 0.0
C341 C 0.49155 0.81074 0.34181 0.0
C342 C 0.45978 0.81185 0.33973 0.0
H343 H 0.32595 0.83956 0.26625 0.0
H344 H 0.36897 0.82392 0.26736 0.0
H345 H 0.38494 0.78299 0.39339 0.0
H346 H 0.54922 0.81727 0.41651 0.0
H347 H 0.49499 0.81412 0.41287 0.0
C348 C 0.51351 0.31519 0.7585 0.0
C349 C 0.49589 0.3081 0.79859 0.0
C350 C 0.54739 0.34043 0.7561 0.0
C351 C 0.62272 0.39353 0.82452 0.0
H352 H 0.64503 0.45924 0.73237 0.0
C353 C 0.73996 0.52681 0.83229 0.0
C354 C 0.75594 0.54211 0.79251 0.0
C355 C 0.71016 0.49572 0.83223 0.0
C356 C 0.63959 0.44094 0.75797 0.0
H357 H 0.50068 0.32033 0.86808 0.0
H358 H 0.55916 0.36367 0.86393 0.0
H359 H 0.59059 0.40836 0.73221 0.0
H360 H 0.75409 0.53571 0.72166 0.0
H361 H 0.70314 0.48172 0.72166 0.0
H362 H 0.67161 0.42626 0.85056 0.0
C363 C 0.54707 0.35013 0.83424 0.0
C364 C 0.60825 0.41165 0.75778 0.0
C365 C 0.51333 0.32539 0.8365 0.0
C366 C 0.7422 0.52501 0.75294 0.0
C367 C 0.71274 0.49398 0.75289 0.0
C368 C 0.65417 0.42277 0.82459 0.0
C369 C 0.5644 0.35858 0.79391 0.0
C370 C 0.5992 0.38778 0.79139 0.0
C371 C 0.69585 0.47911 0.7924 0.0
C372 C 0.66293 0.44712 0.79159 0.0
H373 H 0.50083 0.30221 0.72877 0.0
H374 H 0.56015 0.34611 0.72457 0.0
H375 H 0.61669 0.37549 0.85069 0.0
H376 H 0.74992 0.53926 0.86333 0.0
H377 H 0.69782 0.48522 0.86335 0.0
C378 C 0.06399 0.15368 0.31222 0.0
C379 C 0.09586 0.17649 0.3284 0.0
C380 C 0.04952 0.11973 0.32256 0.0
C381 C 0.06258 0.0581 0.38555 0.0
H382 H 0.07191 0.02941 0.26939 0.0
C383 C 0.13606 0.99118 0.3601 0.0
C384 C 0.13262 0.97337 0.32143 0.0
C385 C 0.11698 1.00663 0.36653 0.0
C386 C 0.06802 0.03578 0.30228 0.0
H387 H 0.13523 0.18327 0.37309 0.0
H388 H 0.11013 0.12456 0.39135 0.0
H389 H 0.05766 0.07247 0.27667 0.0
H390 H 0.10535 0.95587 0.26025 0.0
H391 H 0.07069 0.98075 0.27247 0.0
H392 H 0.07341 0.02165 0.41123 0.0
C393 C 0.09633 0.13228 0.3703 0.0
C394 C 0.05966 0.06068 0.30638 0.0
C395 C 0.11107 0.16584 0.35917 0.0
C396 C 0.1093 0.9705 0.28977 0.0
C397 C 0.0893 0.98474 0.29692 0.0
C398 C 0.06973 0.03226 0.38152 0.0
C399 C 0.06655 0.10865 0.3499 0.0
C400 C 0.0595 0.07386 0.34785 0.0
C401 C 0.09321 1.00357 0.33503 0.0
C402 C 0.07534 0.02277 0.33976 0.0
H403 H 0.0516 0.16162 0.28904 0.0
H404 H 1.02645 0.1019 0.30658 0.0
H405 H 0.06268 0.06776 0.41801 0.0
H406 H 0.15364 0.99334 0.38519 0.0
H407 H 0.12158 0.02154 0.39584 0.0
C408 C 1.00758 0.14524 0.80071 0.0
C409 C 0.98408 0.1491 0.77635 0.0
C410 C 1.02564 0.13183 0.78059 0.0
C411 C 0.05842 0.13306 0.67236 0.0
H412 H 0.09933 0.08891 0.73276 0.0
C413 C 0.18866 0.12933 0.68427 0.0
C414 C 0.20609 0.16075 0.70449 0.0
C415 C 0.15544 0.11672 0.67118 0.0
C416 C 0.08739 0.1002 0.71453 0.0
H417 H 0.95883 0.13995 0.71364 0.0
H418 H 0.98971 0.11595 0.67901 0.0
H419 H 0.04742 0.08385 0.76161 0.0
H420 H 0.20604 0.20685 0.71705 0.0
H421 H 0.14919 0.18596 0.6914 0.0
H422 H 0.10059 0.15271 0.62852 0.0
C423 C 0.99477 0.1237 0.71307 0.0
C424 C 0.05794 0.09764 0.73138 0.0
C425 C 0.97727 0.13754 0.73282 0.0
C426 C 0.19269 0.18205 0.70293 0.0
C427 C 0.16019 0.17013 0.68798 0.0
C428 C 0.0881 0.13604 0.65599 0.0
C429 C 1.02007 0.12193 0.73611 0.0
C430 C 0.04438 0.11573 0.71193 0.0
C431 C 0.1405 0.13656 0.67544 0.0
C432 C 0.10389 0.12145 0.67868 0.0
H433 H 1.01308 0.15401 0.83432 0.0
H434 H 0.0453 0.1311 0.79905 0.0
H435 H 0.04863 0.14738 0.65662 0.0
H436 H 0.19944 0.11337 0.68252 0.0
H437 H 0.14074 0.09087 0.6611 0.0
C438 C 0.06188 0.17822 0.43782 0.0
C439 C 0.04943 0.196 0.41474 0.0
C440 C 0.04006 0.14562 0.45215 0.0
C441 C 0.99504 0.07228 0.43307 0.0
H442 H 0.90011 0.03963 0.44493 0.0
C443 C 0.89952 0.95798 0.33744 0.0
C444 C 0.86542 0.94457 0.3468 0.0
C445 C 0.9235 0.98351 0.36394 0.0
C446 C 0.92641 0.04734 0.44267 0.0
H447 H 1.00432 0.19546 0.39354 0.0
H448 H 0.96665 0.13902 0.41724 0.0
H449 H 0.9391 0.09548 0.46692 0.0
H450 H 0.82925 0.94549 0.39165 0.0
H451 H 0.87028 0.98575 0.44089 0.0
H452 H 0.98257 0.02385 0.40999 0.0
C453 C 0.99299 0.14973 0.42479 0.0
C454 C 0.94895 0.08003 0.45483 0.0
C455 C 1.0147 0.18218 0.41063 0.0
C456 C 0.85558 0.95527 0.38414 0.0
C457 C 0.87931 0.97917 0.41182 0.0
C458 C 0.97253 0.03906 0.42222 0.0
C459 C 1.00551 0.13042 0.44371 0.0
C460 C 0.98334 0.09366 0.44684 0.0
C461 C 0.9136 0.99521 0.40094 0.0
C462 C 0.93774 0.0268 0.42384 0.0
H463 H 0.08859 0.18847 0.44199 0.0
H464 H 0.05049 0.13171 0.46742 0.0
H465 H 1.0214 0.08187 0.42714 0.0
H466 H 0.9075 0.95045 0.30815 0.0
H467 H 0.94944 0.99525 0.35357 0.0
C468 C 0.92851 0.05222 0.76878 0.0
C469 C 0.93232 0.06927 0.80826 0.0
C470 C 0.94717 0.0365 0.76092 0.0
C471 C 0.99562 1.00539 0.82295 0.0
H472 H 0.996 0.97093 0.70702 0.0
C473 C 0.99489 0.88501 0.8118 0.0
C474 C 0.96176 0.86272 0.79912 0.0
C475 C 1.00984 0.91879 0.80038 0.0
C476 C 0.99742 0.98125 0.73943 0.0
H477 H 0.9601 0.08557 0.86915 0.0
H478 H 0.99437 0.06064 0.85429 0.0
H479 H 0.98791 1.01875 0.71438 0.0
H480 H 0.92018 0.85661 0.75938 0.0
H481 H 0.94618 0.91516 0.73925 0.0
H482 H 1.00491 0.96778 0.84786 0.0
C483 C 0.97558 0.05711 0.8304 0.0
C484 C 0.99181 1.00809 0.74388 0.0
C485 C 0.95586 0.07148 0.83905 0.0
C486 C 0.94538 0.87363 0.77065 0.0
C487 C 0.96056 0.90703 0.75839 0.0
C488 C 1.00257 0.97955 0.81834 0.0
C489 C 0.97098 0.03861 0.79173 0.0
C490 C 0.98785 1.01849 0.78594 0.0
C491 C 0.99203 0.93023 0.77534 0.0
C492 C 1.00078 0.96551 0.77691 0.0
H493 H 0.91074 0.05059 0.74434 0.0
H494 H 0.94203 0.02196 0.73116 0.0
H495 H 0.99308 1.01237 0.85607 0.0
H496 H 1.00821 0.87688 0.83308 0.0
H497 H 0.03417 0.93632 0.81376 0.0
C498 C 0.8692 0.85421 0.42901 0.0
C499 C 0.85356 0.87355 0.42964 0.0
C500 C 0.90215 0.86789 0.44312 0.0
C501 C 0.97414 0.90582 0.47718 0.0
H502 H 1.01272 0.95876 0.37147 0.0
C503 C 0.08727 0.90982 0.40176 0.0
C504 C 0.0797 0.89636 0.35919 0.0
C505 C 0.06959 0.92382 0.42052 0.0
C506 C 1.00279 0.94487 0.40178 0.0
H507 H 0.85709 0.91909 0.45444 0.0
H508 H 0.91638 0.94467 0.47451 0.0
H509 H 0.95912 0.94989 0.39976 0.0
H510 H 0.04955 0.88873 0.3015 0.0
H511 H 1.01712 0.91201 0.33506 0.0
H512 H 1.01597 0.89808 0.47721 0.0
C513 C 0.90307 0.91901 0.46331 0.0
C514 C 0.97235 0.9401 0.41827 0.0
C515 C 0.86947 0.90463 0.45103 0.0
C516 C 0.05563 0.89897 0.3344 0.0
C517 C 0.03743 0.91258 0.35352 0.0
C518 C 1.0048 0.91104 0.46122 0.0
C519 C 0.92001 0.90124 0.45714 0.0
C520 C 0.95675 0.91852 0.45411 0.0
C521 C 0.04337 0.92383 0.39745 0.0
C522 C 1.01815 0.92862 0.4216 0.0
H523 H 0.85718 0.82973 0.41392 0.0
H524 H 0.9148 0.85369 0.43821 0.0
H525 H 0.96234 0.8889 0.50463 0.0
H526 H 0.10618 0.90841 0.4212 0.0
H527 H 0.07493 0.93265 0.45414 0.0
C528 C 0.20431 0.07548 0.74682 0.0
C529 C 0.19441 0.08631 0.78397 0.0
C530 C 0.1806 0.05265 0.71804 0.0
C531 C 0.08661 0.99633 0.70466 0.0
H532 H 0.1171 0.9388 0.65547 0.0
C533 C 0.04197 0.85289 0.71391 0.0
C534 C 1.00725 0.83999 0.71299 0.0
C535 C 0.06367 0.88496 0.69848 0.0
C536 C 0.10805 0.95454 0.66893 0.0
H537 H 0.15234 0.08244 0.82059 0.0
H538 H 0.11027 0.03969 0.77326 0.0
H539 H 0.15748 0.99363 0.67888 0.0
H540 H 0.96771 0.8485 0.68976 0.0
H541 H 1.00573 0.90458 0.66192 0.0
H542 H 0.03707 0.95467 0.69955 0.0
C543 C 0.13632 0.05016 0.76401 0.0
C544 C 0.13145 0.98675 0.68199 0.0
C545 C 0.16036 0.0745 0.79173 0.0
C546 C 0.99448 0.85808 0.69144 0.0
C547 C 1.01627 0.89032 0.67578 0.0
C548 C 0.06324 0.96353 0.69305 0.0
C549 C 0.14609 0.03807 0.72726 0.0
C550 C 0.12122 1.00756 0.70274 0.0
C551 C 0.05112 0.90484 0.68144 0.0
C552 C 0.07388 0.94157 0.67803 0.0
H553 H 0.23065 0.08468 0.74005 0.0
H554 H 0.18981 0.04609 0.68916 0.0
H555 H 0.07727 1.01188 0.71781 0.0
H556 H 0.05253 0.83926 0.72968 0.0
H557 H 0.09021 0.89501 0.70385 0.0
C558 C 0.22733 0.33627 0.17259 0.0
C559 C 0.21877 0.31412 0.20821 0.0
C560 C 0.24441 0.33332 0.13575 0.0
C561 C 0.2888 0.28825 0.09408 0.0
H562 H 0.25656 0.29828 0.98105 0.0
C563 C 0.32792 0.24999 0.9303 0.0
C564 C 0.30264 0.2344 0.89848 0.0
C565 C 0.32301 0.2654 0.96743 0.0
C566 C 0.26577 0.29507 1.01229 0.0
H567 H 0.22187 0.27216 0.23374 0.0
H568 H 0.25119 0.26685 0.17041 0.0
H569 H 0.23926 0.31491 1.04741 0.0
H570 H 0.25234 0.22324 0.88132 0.0
H571 H 0.2437 0.24888 0.94537 0.0
H572 H 0.31369 0.26654 1.05906 0.0
C573 C 0.24571 0.28703 0.17056 0.0
C574 C 0.25623 0.30524 1.05058 0.0
C575 C 0.22879 0.29002 0.2071 0.0
C576 C 0.27264 0.23508 0.90468 0.0
C577 C 0.26771 0.25019 0.9416 0.0
C578 C 0.2981 0.27779 1.05577 0.0
C579 C 0.25306 0.308 0.13366 0.0
C580 C 0.26693 0.30131 0.0923 0.0
C581 C 0.29268 0.26556 0.9738 0.0
C582 C 0.28608 0.28026 1.01428 0.0
H583 H 0.21931 0.35463 0.1722 0.0
H584 H 0.24994 0.3503 0.1084 0.0
H585 H 0.29826 0.28539 0.1253 0.0
H586 H 0.35133 0.25 0.92682 0.0
H587 H 0.34306 0.27719 0.99112 0.0
C588 C 0.93466 0.24218 0.70171 0.0
C589 C 0.8997 0.22419 0.69508 0.0
C590 C 0.95713 0.25554 0.66628 0.0
C591 C 0.96925 0.24527 0.54977 0.0
H592 H 0.04063 0.3377 0.55542 0.0
C593 C 0.08978 0.30333 0.43774 0.0
C594 C 0.09918 0.33438 0.41804 0.0
C595 C 0.06378 0.28916 0.46924 0.0
C596 C 1.02083 0.31188 0.55317 0.0
H597 H 0.86122 0.20596 0.64519 0.0
H598 H 0.90085 0.22872 0.58266 0.0
H599 H 0.99801 0.31469 0.61358 0.0
H600 H 0.08857 0.37511 0.41746 0.0
H601 H 0.04435 0.35108 0.4733 0.0
H602 H 0.99284 0.24227 0.48993 0.0
C603 C 0.9106 0.23269 0.61579 0.0
C604 C 0.99642 0.29864 0.58663 0.0
C605 C 0.88789 0.21983 0.65159 0.0
C606 C 0.08215 0.35113 0.43156 0.0
C607 C 0.05673 0.33736 0.46373 0.0
C608 C 0.99415 0.25835 0.51668 0.0
C609 C 0.94555 0.25088 0.62279 0.0
C610 C 0.97029 0.26516 0.58548 0.0
C611 C 0.04704 0.30611 0.48293 0.0
C612 C 1.02029 0.29188 0.51792 0.0
H613 H 0.94486 0.24611 0.7346 0.0
H614 H 0.98378 0.26914 0.67295 0.0
H615 H 0.94966 0.21933 0.54803 0.0
H616 H 0.10266 0.29002 0.42895 0.0
H617 H 0.05731 0.26525 0.48364 0.0
C618 C 0.74676 0.90207 0.15821 0.0
C619 C 0.73852 0.90741 0.20095 0.0
C620 C 0.75283 0.92493 0.12422 0.0
C621 C 0.78515 1.01457 0.10768 0.0
H622 H 0.76041 0.98967 0.98603 0.0
C623 C 0.85736 0.1019 0.96039 0.0
C624 C 0.83893 0.10301 0.92427 0.0
C625 C 0.84149 0.07915 0.995 0.0
C626 C 0.76734 0.99717 1.01986 0.0
H627 H 0.72925 0.94068 0.24098 0.0
H628 H 0.74008 0.98089 0.18157 0.0
H629 H 0.73701 0.94693 1.04364 0.0
H630 H 0.78898 0.08102 0.89693 0.0
H631 H 0.76137 0.04098 0.95706 0.0
H632 H 0.81622 0.06464 0.08378 0.0
C633 C 0.74163 0.95877 0.17436 0.0
C634 C 0.75406 0.97258 1.05292 0.0
C635 C 0.73492 0.93548 0.2083 0.0
C636 C 0.80401 0.08102 0.92419 0.0
C637 C 0.78819 0.05787 0.95856 0.0
C638 C 0.7988 0.03908 0.07455 0.0
C639 C 0.75152 0.95423 0.1321 0.0
C640 C 0.76302 0.98084 0.0973 0.0
C641 C 0.80674 0.05644 0.99434 0.0
C642 C 0.79039 0.0307 1.03007 0.0
H643 H 0.75018 0.88094 0.15159 0.0
H644 H 0.76057 0.92059 0.09236 0.0
H645 H 0.79293 0.0219 0.14134 0.0
H646 H 0.88426 0.11841 0.96173 0.0
H647 H 0.8567 0.07868 1.0217 0.0
C648 C 0.8288 0.67819 0.65612 0.0
C649 C 0.82985 0.68997 0.69911 0.0
C650 C 0.81691 0.68921 0.62086 0.0
C651 C 0.79592 0.75634 0.59158 0.0
H652 H 0.75133 0.69881 0.49249 0.0
C653 C 0.74917 0.80314 0.44492 0.0
C654 C 0.72087 0.77993 0.42125 0.0
C655 C 0.76401 0.79261 0.47673 0.0
C656 C 0.76328 0.71524 0.52008 0.0
H657 H 0.81803 0.72194 0.73842 0.0
H658 H 0.79636 0.73969 0.6785 0.0
H659 H 0.77276 0.67921 0.55115 0.0
H660 H 0.68542 0.72701 0.41421 0.0
H661 H 0.70976 0.70885 0.47074 0.0
H662 H 0.78496 0.79166 0.56199 0.0
C663 C 0.80584 0.72305 0.67099 0.0
C664 C 0.77624 0.70408 0.55369 0.0
C665 C 0.8181 0.7125 0.70582 0.0
C666 C 0.70737 0.74581 0.43126 0.0
C667 C 0.72174 0.73528 0.46364 0.0
C668 C 0.78256 0.76729 0.55838 0.0
C669 C 0.80532 0.71202 0.62764 0.0
C670 C 0.79258 0.7243 0.59036 0.0
C671 C 0.75051 0.75841 0.48692 0.0
C672 C 0.76577 0.74693 0.522 0.0
H673 H 0.83773 0.66095 0.64956 0.0
H674 H 0.81739 0.6802 0.58817 0.0
H675 H 0.80895 0.7733 0.61834 0.0
H676 H 0.75993 0.82958 0.43886 0.0
H677 H 0.78632 0.81151 0.49299 0.0
C678 C 0.99761 0.76915 0.91663 0.0
C679 C 0.97257 0.7372 0.90298 0.0
C680 C 1.01658 0.77358 0.95437 0.0
C681 C 1.0201 0.73042 1.05747 0.0
H682 H 0.10763 0.81006 1.06486 0.0
C683 C 0.08555 0.77925 0.22497 0.0
C684 C 0.12034 0.80167 0.2278 0.0
C685 C 0.06984 0.76725 0.18441 0.0
C686 C 0.08358 0.7873 1.0636 0.0
H687 H 0.94808 0.68463 0.91926 0.0
H688 H 0.98232 0.69202 0.98445 0.0
H689 H 0.07701 0.7966 0.99667 0.0
H690 H 0.16609 0.82708 0.18932 0.0
H691 H 0.1391 0.80469 0.11851 0.0
H692 H 1.02756 0.7201 0.12366 0.0
C693 C 0.98678 0.71399 0.9663 0.0
C694 C 0.0654 0.77984 1.02424 0.0
C695 C 0.96715 0.70959 0.9286 0.0
C696 C 0.13931 0.80983 0.18867 0.0
C697 C 0.12355 0.79734 0.14779 0.0
C698 C 0.03861 0.73748 0.09659 0.0
C699 C 1.01195 0.74618 0.97988 0.0
C700 C 0.03282 0.75184 1.02073 0.0
C701 C 0.08829 0.77662 0.14475 0.0
C702 C 0.07034 0.76663 0.10096 0.0
H703 H 1.00223 0.79125 0.89855 0.0
H704 H 0.03449 0.79889 0.96385 0.0
H705 H 0.9953 0.70858 1.05676 0.0
H706 H 0.06985 0.77218 0.25416 0.0
H707 H 0.04281 0.75193 0.18443 0.0
C708 C 0.32983 0.11259 0.70004 0.0
C709 C 0.35673 0.14562 0.69572 0.0
C710 C 0.31926 0.0903 0.66465 0.0
C711 C 0.34574 0.07564 0.55392 0.0
H712 H 0.25213 1.00675 0.5484 0.0
C713 C 0.30077 0.96204 0.43635 0.0
C714 C 0.26819 0.94675 0.41872 0.0
C715 C 0.31121 0.9873 0.46814 0.0
C716 C 0.27832 0.02594 0.54877 0.0
H717 H 0.39332 0.1808 0.64957 0.0
H718 H 0.37441 0.14202 0.58715 0.0
H719 H 0.27052 0.04944 0.60462 0.0
H720 H 0.22121 0.94682 0.42099 0.0
H721 H 0.23954 0.99138 0.47534 0.0
H722 H 0.35326 0.05278 0.497 0.0
C723 C 0.36181 0.1332 0.61854 0.0
C724 C 0.2891 0.05037 0.58181 0.0
C725 C 0.37262 0.15564 0.65435 0.0
C726 C 0.24638 0.9577 0.43391 0.0
C727 C 0.25697 0.98331 0.46544 0.0
C728 C 0.33488 0.05135 0.52057 0.0
C729 C 0.33486 0.10007 0.62311 0.0
C730 C 0.32312 0.0754 0.58552 0.0
C731 C 0.28962 0.99861 0.48323 0.0
C732 C 0.30102 0.02572 0.51769 0.0
H733 H 0.31688 0.10357 0.73121 0.0
H734 H 0.29907 0.06504 0.67038 0.0
H735 H 0.37213 0.09416 0.55541 0.0
H736 H 0.31833 0.95426 0.42588 0.0
H737 H 0.33622 0.99757 0.48134 0.0
C738 C 0.81781 0.70949 0.94065 0.0
C739 C 0.85306 0.72582 0.93954 0.0
C740 C 0.80083 0.71134 0.97844 0.0
C741 C 0.81518 0.73767 0.09764 0.0
H742 H 0.73987 0.75181 0.08171 0.0
C743 C 0.76227 0.77325 0.24694 0.0
C744 C 0.75042 0.79559 0.24058 0.0
C745 C 0.76842 0.75799 0.21108 0.0
C746 C 0.76109 0.74826 0.08693 0.0
H747 H 0.89783 0.75526 0.97816 0.0
H748 H 0.86897 0.75888 1.04249 0.0
H749 H 0.76304 0.73743 1.01864 0.0
H750 H 0.73504 0.81896 0.19154 0.0
H751 H 0.74746 0.79396 0.12868 0.0
H752 H 0.81528 0.75081 0.16474 0.0
C753 C 0.85392 0.74425 1.01504 0.0
C754 C 0.77407 0.73937 1.05062 0.0
C755 C 0.87066 0.74237 0.97771 0.0
C756 C 0.7438 0.80152 0.19749 0.0
C757 C 0.75091 0.78699 0.16136 0.0
C758 C 0.80268 0.74709 0.13359 0.0
C759 C 0.81876 0.72939 1.01596 0.0
C760 C 0.80183 0.73461 1.05523 0.0
C761 C 0.76414 0.76554 0.16745 0.0
C762 C 0.77565 0.75301 0.12899 0.0
H763 H 0.80349 0.69678 0.91171 0.0
H764 H 0.77374 0.69917 0.97791 0.0
H765 H 0.836 0.73351 0.10315 0.0
H766 H 0.76741 0.76804 0.27982 0.0
H767 H 0.77727 0.74077 0.21786 0.0
C768 C 0.1712 0.81837 0.48716 0.0
C769 C 0.15941 0.81418 0.44368 0.0
C770 C 0.14847 0.80533 0.52288 0.0
C771 C 0.06345 0.73889 0.55235 0.0
H772 H 0.06457 0.79579 0.64684 0.0
C773 C 0.97833 0.6875 0.70829 0.0
C774 C 0.9598 0.70314 0.71971 0.0
C775 C 1.00367 0.70124 0.67603 0.0
C776 C 0.06399 0.77958 0.62072 0.0
H777 H 0.11432 0.79228 0.40402 0.0
H778 H 0.07533 0.76882 0.46561 0.0
H779 H 0.10803 0.81898 0.58907 0.0
H780 H 0.95335 0.7453 0.70484 0.0
H781 H 0.9987 0.77019 0.65014 0.0
H782 H 1.01973 0.69943 0.58396 0.0
C783 C 0.10198 0.78251 0.47229 0.0
C784 C 0.08903 0.7928 0.58786 0.0
C785 C 0.12447 0.79611 0.43694 0.0
C786 C 0.96748 0.73295 0.69773 0.0
C787 C 0.99344 0.74717 0.66623 0.0
C788 C 0.03895 0.72552 0.58565 0.0
C789 C 0.11355 0.78708 0.51576 0.0
C790 C 0.08883 0.77269 0.55295 0.0
C791 C 1.01177 0.73139 0.65478 0.0
C792 C 0.03863 0.74572 0.62005 0.0
H793 H 0.19787 0.8323 0.49361 0.0
H794 H 0.15816 0.80921 0.55604 0.0
H795 H 0.06254 0.72274 0.52593 0.0
H796 H 0.97322 0.66447 0.7242 0.0
H797 H 1.0173 0.68843 0.66808 0.0
C798 C 0.32622 0.10061 0.92852 0.0
C799 C 0.32091 0.12769 0.93529 0.0
C800 C 0.32019 0.0777 0.96266 0.0
C801 C 0.30662 0.0636 0.08371 0.0
H802 H 0.24622 0.9712 1.05242 0.0
C803 C 0.25672 0.95518 0.21222 0.0
C804 C 0.22179 0.93329 0.21179 0.0
C805 C 0.27277 0.97827 0.1779 0.0
C806 C 0.26318 0.99686 1.06173 0.0
H807 H 0.30705 0.15299 0.98376 0.0
H808 H 0.29788 0.11403 1.04347 0.0
H809 H 0.26949 1.01398 0.9949 0.0
H810 H 0.17668 0.91789 0.17386 0.0
H811 H 0.20467 0.9575 0.11387 0.0
H812 H 0.29979 0.04654 0.15065 0.0
C813 C 0.30641 0.11018 1.0119 0.0
C814 C 0.27681 0.02138 1.02866 0.0
C815 C 0.31178 0.13262 0.97767 0.0
C816 C 0.20358 0.93435 0.17541 0.0
C817 C 0.21968 0.95701 0.14083 0.0
C818 C 0.29339 0.03901 0.11672 0.0
C819 C 0.30934 0.08172 1.00451 0.0
C820 C 0.29823 0.0552 1.03924 0.0
C821 C 0.25442 0.97966 0.14186 0.0
C822 C 0.27096 1.00537 0.10629 0.0
H823 H 0.33261 0.09576 0.89606 0.0
H824 H 0.32294 0.0562 0.95591 0.0
H825 H 0.32311 0.08935 0.09308 0.0
H826 H 0.27156 0.9552 0.23973 0.0
H827 H 0.29958 0.99516 0.17965 0.0
C828 C 0.35111 0.29027 0.70788 0.0
C829 C 0.33782 0.25614 0.7175 0.0
C830 C 0.33648 0.30081 0.67595 0.0
C831 C 0.27537 0.26893 0.58181 0.0
H832 H 0.28459 0.35672 0.59041 0.0
C833 C 0.24028 0.32449 0.43544 0.0
C834 C 0.22814 0.34666 0.44243 0.0
C835 C 0.25245 0.31382 0.47016 0.0
C836 C 0.28127 0.33193 0.58753 0.0
H837 H 0.29894 0.20647 0.69974 0.0
H838 H 0.272 0.22453 0.64647 0.0
H839 H 0.30622 0.33693 0.6486 0.0
H840 H 0.21947 0.37498 0.49225 0.0
H841 H 0.23963 0.35543 0.55354 0.0
H842 H 0.2489 0.26314 0.52204 0.0
C843 C 0.29436 0.24343 0.66264 0.0
C844 C 0.29434 0.32068 0.62083 0.0
C845 C 0.3095 0.2329 0.69394 0.0
C846 C 0.2287 0.358 0.48554 0.0
C847 C 0.24048 0.34682 0.52071 0.0
C848 C 0.26186 0.27994 0.54897 0.0
C849 C 0.30764 0.27765 0.65287 0.0
C850 C 0.29211 0.28913 0.61831 0.0
C851 C 0.25243 0.32435 0.51362 0.0
C852 C 0.26506 0.3119 0.55069 0.0
H853 H 0.3731 0.30908 0.72489 0.0
H854 H 0.34829 0.32727 0.66907 0.0
H855 H 0.27318 0.24468 0.57781 0.0
H856 H 0.24076 0.31546 0.40271 0.0
H857 H 0.26228 0.2975 0.46249 0.0
C858 C 0.10628 0.31445 0.19122 0.0
C859 C 0.09161 0.30902 0.23322 0.0
C860 C 0.08682 0.30853 0.15321 0.0
C861 C 0.9959 0.26532 0.11705 0.0
H862 H 0.03693 0.30413 1.00493 0.0
C863 C 0.92323 0.21401 0.95306 0.0
C864 C 0.93428 0.23375 0.91484 0.0
C865 C 0.94052 0.22586 0.99294 0.0
C866 C 1.02452 0.29336 1.03587 0.0
H867 H 0.04541 0.29482 0.26834 0.0
H868 H 1.0122 0.28725 0.20297 0.0
H869 H 0.0705 0.32175 0.07058 0.0
H870 H 0.9709 0.28212 0.88915 0.0
H871 H 0.99909 0.304 0.95891 0.0
H872 H 0.94949 0.23851 0.0828 0.0
C873 C 0.03823 0.29431 0.19854 0.0
C874 C 0.04429 0.30307 0.07397 0.0
C875 C 0.05746 0.29925 0.23638 0.0
C876 C 0.96161 0.2664 0.91814 0.0
C877 C 0.97828 0.27865 0.95824 0.0
C878 C 0.97596 0.25627 0.07913 0.0
C879 C 0.05219 0.29777 0.15605 0.0
C880 C 0.03055 0.2889 0.11534 0.0
C881 C 0.969 0.25817 0.99611 0.0
C882 C 0.9899 0.26968 1.03755 0.0
H883 H 0.13238 0.32132 0.18766 0.0
H884 H 0.0989 0.31109 0.12171 0.0
H885 H 0.98391 0.25304 0.14756 0.0
H886 H 0.9028 0.18843 0.95139 0.0
H887 H 0.93242 0.20876 1.02049 0.0
C888 C 0.7612 0.07693 0.69835 0.0
C889 C 0.79349 0.09194 0.71681 0.0
C890 C 0.75109 0.05179 0.66652 0.0
C891 C 0.78422 1.01263 0.58734 0.0
H892 H 0.69029 0.94474 0.58049 0.0
C893 C 0.73235 0.92516 0.43674 0.0
C894 C 0.70513 0.89235 0.44141 0.0
C895 C 0.74321 0.94766 0.4719 0.0
C896 C 0.71672 0.96315 0.58206 0.0
H897 H 0.8404 0.09171 0.71583 0.0
H898 H 0.82259 0.04728 0.66126 0.0
H899 H 0.70915 0.98628 0.63857 0.0
H900 H 0.66837 0.85771 0.48785 0.0
H901 H 0.68781 0.89678 0.54982 0.0
H902 H 0.79202 0.98878 0.53188 0.0
C903 C 0.80516 0.05546 0.67065 0.0
C904 C 0.72756 0.98754 0.6152 0.0
C905 C 0.81544 0.08099 0.70225 0.0
C906 C 0.68929 0.88272 0.48283 0.0
C907 C 0.7004 0.90533 0.51837 0.0
C908 C 0.77344 0.98806 0.5545 0.0
C909 C 0.77271 0.04031 0.65224 0.0
C910 C 0.76144 1.01308 0.6181 0.0
C911 C 0.72758 0.93828 0.51347 0.0
C912 C 0.73938 0.96315 0.55075 0.0
H913 H 0.74358 0.08477 0.70828 0.0
H914 H 0.72627 0.04168 0.65273 0.0
H915 H 0.81043 0.03174 0.58783 0.0
H916 H 0.74527 0.93383 0.40548 0.0
H917 H 0.76362 0.97279 0.46596 0.0
loop_
_geom_bond_atom_site_label_1
_geom_bond_atom_site_label_2
_geom_bond_distance
_geom_bond_site_symmetry_2
_ccdc_geom_bond_type
Co0 O3 2.042 . S
Co0 O10 2.264 . S
Co0 O29 2.286 . S
Co0 O30 2.069 . S
Co0 O32 2.015 . S
Co1 O3 2.122 . S
Co1 O9 2.073 . S
Co1 O10 2.327 . S
Co1 O11 1.976 . S
Co2 O3 2.087 . S
Co2 O5 2.087 . S
Co2 O12 2.111 . S
Co2 O13 2.143 . S
Co2 O17 2.111 . S
Co2 O31 2.143 . S
O3 Co0 2.042 . S
O3 Co1 2.122 . S
O3 Co2 2.087 . S
O3 H4 0.980 . S
H4 O3 0.980 . S
O5 Co2 2.087 . S
O5 Co6 2.042 . S
O5 Co7 2.122 . S
O5 H8 0.980 . S
Co6 O5 2.042 . S
Co6 O14 2.286 . S
Co6 O15 2.069 . S
Co6 O16 2.015 . S
Co6 O19 2.264 . S
Co7 O5 2.122 . S
Co7 O18 1.976 . S
Co7 O19 2.327 . S
Co7 O20 2.073 . S
H8 O5 0.980 . S
O9 Co1 2.073 . S
O9 C24 1.245 . S
O10 Co0 2.264 . S
O10 Co1 2.327 . S
O10 C24 1.257 . S
O11 Co1 1.976 . S
O11 C23 1.251 . S
O12 Co2 2.111 . S
O12 C23 1.274 . S
O13 Co2 2.143 . S
O13 C26 1.246 . S
O14 Co6 2.286 . S
O14 C25 1.259 . S
O15 Co6 2.069 . S
O15 C25 1.289 . S
O16 Co6 2.015 . S
O16 C26 1.257 . S
O17 Co2 2.111 . S
O17 C27 1.274 . S
O18 Co7 1.976 . S
O18 C27 1.251 . S
O19 Co6 2.264 . S
O19 Co7 2.327 . S
O19 C28 1.257 . S
O20 Co7 2.073 . S
O20 C28 1.245 . S
C21 O29 1.259 . S
C21 O30 1.289 . S
C22 O31 1.246 . S
C22 O32 1.257 . S
C23 O11 1.251 . S
C23 O12 1.274 . S
C24 O9 1.245 . S
C24 O10 1.257 . S
C25 O14 1.259 . S
C25 O15 1.289 . S
C26 O13 1.246 . S
C26 O16 1.257 . S
C27 O17 1.274 . S
C27 O18 1.251 . S
C28 O19 1.257 . S
C28 O20 1.245 . S
O29 Co0 2.286 . S
O29 C21 1.259 . S
O30 Co0 2.069 . S
O30 C21 1.289 . S
O31 Co2 2.143 . S
O31 C22 1.246 . S
O32 Co0 2.015 . S
O32 C22 1.257 . S
Co33 O36 2.042 . S
Co33 O43 2.264 . S
Co33 O62 2.286 . S
Co33 O63 2.069 . S
Co33 O65 2.015 . S
Co34 O36 2.122 . S
Co34 O42 2.073 . S
Co34 O43 2.327 . S
Co34 O44 1.976 . S
Co35 O36 2.087 . S
Co35 O38 2.087 . S
Co35 O45 2.111 . S
Co35 O46 2.143 . S
Co35 O50 2.111 . S
Co35 O64 2.143 . S
O36 Co33 2.042 . S
O36 Co34 2.122 . S
O36 Co35 2.087 . S
O36 H37 0.980 . S
H37 O36 0.980 . S
O38 Co35 2.087 . S
O38 Co39 2.042 . S
O38 Co40 2.122 . S
O38 H41 0.980 . S
Co39 O38 2.042 . S
Co39 O47 2.286 . S
Co39 O48 2.069 . S
Co39 O49 2.015 . S
Co39 O52 2.264 . S
Co40 O38 2.122 . S
Co40 O51 1.976 . S
Co40 O52 2.327 . S
Co40 O53 2.073 . S
H41 O38 0.980 . S
O42 Co34 2.073 . S
O42 C57 1.245 . S
O43 Co33 2.264 . S
O43 Co34 2.327 . S
O43 C57 1.257 . S
O44 Co34 1.976 . S
O44 C56 1.251 . S
O45 Co35 2.111 . S
O45 C56 1.274 . S
O46 Co35 2.143 . S
O46 C59 1.246 . S
O47 Co39 2.286 . S
O47 C58 1.259 . S
O48 Co39 2.069 . S
O48 C58 1.289 . S
O49 Co39 2.015 . S
O49 C59 1.257 . S
O50 Co35 2.111 . S
O50 C60 1.274 . S
O51 Co40 1.976 . S
O51 C60 1.251 . S
O52 Co39 2.264 . S
O52 Co40 2.327 . S
O52 C61 1.257 . S
O53 Co40 2.073 . S
O53 C61 1.245 . S
C54 O62 1.259 . S
C54 O63 1.289 . S
C55 O64 1.246 . S
C55 O65 1.257 . S
C56 O44 1.251 . S
C56 O45 1.274 . S
C57 O42 1.245 . S
C57 O43 1.257 . S
C58 O47 1.259 . S
C58 O48 1.289 . S
C59 O46 1.246 . S
C59 O49 1.257 . S
C60 O50 1.274 . S
C60 O51 1.251 . S
C61 O52 1.257 . S
C61 O53 1.245 . S
O62 Co33 2.286 . S
O62 C54 1.259 . S
O63 Co33 2.069 . S
O63 C54 1.289 . S
O64 Co35 2.143 . S
O64 C55 1.246 . S
O65 Co33 2.015 . S
O65 C55 1.257 . S
Co66 O69 2.042 . S
Co66 O76 2.264 . S
Co66 O95 2.286 . S
Co66 O96 2.069 . S
Co66 O98 2.015 . S
Co67 O69 2.122 . S
Co67 O75 2.073 . S
Co67 O76 2.327 . S
Co67 O77 1.976 . S
Co68 O69 2.087 . S
Co68 O71 2.087 . S
Co68 O78 2.111 . S
Co68 O79 2.143 . S
Co68 O83 2.111 . S
Co68 O97 2.143 . S
O69 Co66 2.042 . S
O69 Co67 2.122 . S
O69 Co68 2.087 . S
O69 H70 0.980 . S
H70 O69 0.980 . S
O71 Co68 2.087 . S
O71 Co72 2.042 . S
O71 Co73 2.122 . S
O71 H74 0.980 . S
Co72 O71 2.042 . S
Co72 O80 2.286 . S
Co72 O81 2.069 . S
Co72 O82 2.015 . S
Co72 O85 2.264 . S
Co73 O71 2.122 . S
Co73 O84 1.976 . S
Co73 O85 2.327 . S
Co73 O86 2.073 . S
H74 O71 0.980 . S
O75 Co67 2.073 . S
O75 C90 1.245 . S
O76 Co66 2.264 . S
O76 Co67 2.327 . S
O76 C90 1.257 . S
O77 Co67 1.976 . S
O77 C89 1.251 . S
O78 Co68 2.111 . S
O78 C89 1.274 . S
O79 Co68 2.143 . S
O79 C92 1.246 . S
O80 Co72 2.286 . S
O80 C91 1.259 . S
O81 Co72 2.069 . S
O81 C91 1.289 . S
O82 Co72 2.015 . S
O82 C92 1.257 . S
O83 Co68 2.111 . S
O83 C93 1.274 . S
O84 Co73 1.976 . S
O84 C93 1.251 . S
O85 Co72 2.264 . S
O85 Co73 2.327 . S
O85 C94 1.257 . S
O86 Co73 2.073 . S
O86 C94 1.245 . S
C87 O95 1.259 . S
C87 O96 1.289 . S
C88 O97 1.246 . S
C88 O98 1.257 . S
C89 O77 1.251 . S
C89 O78 1.274 . S
C90 O75 1.245 . S
C90 O76 1.257 . S
C91 O80 1.259 . S
C91 O81 1.289 . S
C92 O79 1.246 . S
C92 O82 1.257 . S
C93 O83 1.274 . S
C93 O84 1.251 . S
C94 O85 1.257 . S
C94 O86 1.245 . S
O95 Co66 2.286 . S
O95 C87 1.259 . S
O96 Co66 2.069 . S
O96 C87 1.289 . S
O97 Co68 2.143 . S
O97 C88 1.246 . S
O98 Co66 2.015 . S
O98 C88 1.257 . S
Co99 O102 2.042 . S
Co99 O109 2.264 . S
Co99 O128 2.286 . S
Co99 O129 2.069 . S
Co99 O131 2.015 . S
Co100 O102 2.122 . S
Co100 O108 2.073 . S
Co100 O109 2.327 . S
Co100 O110 1.976 . S
Co101 O102 2.087 . S
Co101 O104 2.087 . S
Co101 O111 2.111 . S
Co101 O112 2.143 . S
Co101 O116 2.111 . S
Co101 O130 2.143 . S
O102 Co99 2.042 . S
O102 Co100 2.122 . S
O102 Co101 2.087 . S
O102 H103 0.980 . S
H103 O102 0.980 . S
O104 Co101 2.087 . S
O104 Co105 2.042 . S
O104 Co106 2.122 . S
O104 H107 0.980 . S
Co105 O104 2.042 . S
Co105 O113 2.286 . S
Co105 O114 2.069 . S
Co105 O115 2.015 . S
Co105 O118 2.264 . S
Co106 O104 2.122 . S
Co106 O117 1.976 . S
Co106 O118 2.327 . S
Co106 O119 2.073 . S
H107 O104 0.980 . S
O108 Co100 2.073 . S
O108 C123 1.245 . S
O109 Co99 2.264 . S
O109 Co100 2.327 . S
O109 C123 1.257 . S
O110 Co100 1.976 . S
O110 C122 1.251 . S
O111 Co101 2.111 . S
O111 C122 1.274 . S
O112 Co101 2.143 . S
O112 C125 1.246 . S
O113 Co105 2.286 . S
O113 C124 1.259 . S
O114 Co105 2.069 . S
O114 C124 1.289 . S
O115 Co105 2.015 . S
O115 C125 1.257 . S
O116 Co101 2.111 . S
O116 C126 1.274 . S
O117 Co106 1.976 . S
O117 C126 1.251 . S
O118 Co105 2.264 . S
O118 Co106 2.327 . S
O118 C127 1.257 . S
O119 Co106 2.073 . S
O119 C127 1.245 . S
C120 O128 1.259 . S
C120 O129 1.289 . S
C121 O130 1.246 . S
C121 O131 1.257 . S
C122 O110 1.251 . S
C122 O111 1.274 . S
C123 O108 1.245 . S
C123 O109 1.257 . S
C124 O113 1.259 . S
C124 O114 1.289 . S
C125 O112 1.246 . S
C125 O115 1.257 . S
C126 O116 1.274 . S
C126 O117 1.251 . S
C127 O118 1.257 . S
C127 O119 1.245 . S
O128 Co99 2.286 . S
O128 C120 1.259 . S
O129 Co99 2.069 . S
O129 C120 1.289 . S
O130 Co101 2.143 . S
O130 C121 1.246 . S
O131 Co99 2.015 . S
O131 C121 1.257 . S
Co132 O135 2.042 . S
Co132 O142 2.264 . S
Co132 O161 2.286 . S
Co132 O162 2.069 . S
Co132 O164 2.015 . S
Co133 O135 2.122 . S
Co133 O141 2.073 . S
Co133 O142 2.327 . S
Co133 O143 1.976 . S
Co134 O135 2.087 . S
Co134 O137 2.087 . S
Co134 O144 2.111 . S
Co134 O145 2.143 . S
Co134 O149 2.111 . S
Co134 O163 2.143 . S
O135 Co132 2.042 . S
O135 Co133 2.122 . S
O135 Co134 2.087 . S
O135 H136 0.980 . S
H136 O135 0.980 . S
O137 Co134 2.087 . S
O137 Co138 2.042 . S
O137 Co139 2.122 . S
O137 H140 0.980 . S
Co138 O137 2.042 . S
Co138 O146 2.286 . S
Co138 O147 2.069 . S
Co138 O148 2.015 . S
Co138 O151 2.264 . S
Co139 O137 2.122 . S
Co139 O150 1.976 . S
Co139 O151 2.327 . S
Co139 O152 2.073 . S
H140 O137 0.980 . S
O141 Co133 2.073 . S
O141 C156 1.245 . S
O142 Co132 2.264 . S
O142 Co133 2.327 . S
O142 C156 1.257 . S
O143 Co133 1.976 . S
O143 C155 1.251 . S
O144 Co134 2.111 . S
O144 C155 1.274 . S
O145 Co134 2.143 . S
O145 C158 1.246 . S
O146 Co138 2.286 . S
O146 C157 1.259 . S
O147 Co138 2.069 . S
O147 C157 1.289 . S
O148 Co138 2.015 . S
O148 C158 1.257 . S
O149 Co134 2.111 . S
O149 C159 1.274 . S
O150 Co139 1.976 . S
O150 C159 1.251 . S
O151 Co138 2.264 . S
O151 Co139 2.327 . S
O151 C160 1.257 . S
O152 Co139 2.073 . S
O152 C160 1.245 . S
C153 O161 1.259 . S
C153 O162 1.289 . S
C154 O163 1.246 . S
C154 O164 1.257 . S
C155 O143 1.251 . S
C155 O144 1.274 . S
C156 O141 1.245 . S
C156 O142 1.257 . S
C157 O146 1.259 . S
C157 O147 1.289 . S
C158 O145 1.246 . S
C158 O148 1.257 . S
C159 O149 1.274 . S
C159 O150 1.251 . S
C160 O151 1.257 . S
C160 O152 1.245 . S
O161 Co132 2.286 . S
O161 C153 1.259 . S
O162 Co132 2.069 . S
O162 C153 1.289 . S
O163 Co134 2.143 . S
O163 C154 1.246 . S
O164 Co132 2.015 . S
O164 C154 1.257 . S
Co165 O168 2.042 . S
Co165 O175 2.264 . S
Co165 O194 2.286 . S
Co165 O195 2.069 . S
Co165 O197 2.015 . S
Co166 O168 2.122 . S
Co166 O174 2.073 . S
Co166 O175 2.327 . S
Co166 O176 1.976 . S
Co167 O168 2.087 . S
Co167 O170 2.087 . S
Co167 O177 2.111 . S
Co167 O178 2.143 . S
Co167 O182 2.111 . S
Co167 O196 2.143 . S
O168 Co165 2.042 . S
O168 Co166 2.122 . S
O168 Co167 2.087 . S
O168 H169 0.980 . S
H169 O168 0.980 . S
O170 Co167 2.087 . S
O170 Co171 2.042 . S
O170 Co172 2.122 . S
O170 H173 0.980 . S
Co171 O170 2.042 . S
Co171 O179 2.286 . S
Co171 O180 2.069 . S
Co171 O181 2.015 . S
Co171 O184 2.264 . S
Co172 O170 2.122 . S
Co172 O183 1.976 . S
Co172 O184 2.327 . S
Co172 O185 2.073 . S
H173 O170 0.980 . S
O174 Co166 2.073 . S
O174 C189 1.245 . S
O175 Co165 2.264 . S
O175 Co166 2.327 . S
O175 C189 1.257 . S
O176 Co166 1.976 . S
O176 C188 1.251 . S
O177 Co167 2.111 . S
O177 C188 1.274 . S
O178 Co167 2.143 . S
O178 C191 1.246 . S
O179 Co171 2.286 . S
O179 C190 1.259 . S
O180 Co171 2.069 . S
O180 C190 1.289 . S
O181 Co171 2.015 . S
O181 C191 1.257 . S
O182 Co167 2.111 . S
O182 C192 1.274 . S
O183 Co172 1.976 . S
O183 C192 1.251 . S
O184 Co171 2.264 . S
O184 Co172 2.327 . S
O184 C193 1.257 . S
O185 Co172 2.073 . S
O185 C193 1.245 . S
C186 O194 1.259 . S
C186 O195 1.289 . S
C187 O196 1.246 . S
C187 O197 1.257 . S
C188 O176 1.251 . S
C188 O177 1.274 . S
C189 O174 1.245 . S
C189 O175 1.257 . S
C190 O179 1.259 . S
C190 O180 1.289 . S
C191 O178 1.246 . S
C191 O181 1.257 . S
C192 O182 1.274 . S
C192 O183 1.251 . S
C193 O184 1.257 . S
C193 O185 1.245 . S
O194 Co165 2.286 . S
O194 C186 1.259 . S
O195 Co165 2.069 . S
O195 C186 1.289 . S
O196 Co167 2.143 . S
O196 C187 1.246 . S
O197 Co165 2.015 . S
O197 C187 1.257 . S
C198 C199 1.349 . S
C198 C200 1.327 . S
C198 H223 0.950 . S
C199 C198 1.349 . S
C199 C215 1.349 . S
C200 C198 1.327 . S
C200 C219 1.429 . S
C200 H224 0.950 . S
C201 C218 1.574 . S
C201 C220 1.368 . S
C201 H225 0.949 . S
H202 C206 0.949 . S
C203 C204 1.349 . S
C203 C205 1.327 . S
C203 H226 0.950 . S
C204 C203 1.349 . S
C204 C216 1.349 . S
C205 C203 1.327 . S
C205 C221 1.429 . S
C205 H227 0.950 . S
C206 H202 0.949 . S
C206 C214 1.574 . S
C206 C222 1.368 . S
H207 C215 0.950 . S
H208 C213 0.950 . S
H209 C214 0.949 . S
H210 C216 0.950 . S
H211 C217 0.950 . S
H212 C218 0.949 . S
C213 H208 0.950 . S
C213 C215 1.327 . S
C213 C219 1.429 . S
C214 C206 1.574 . S
C214 H209 0.949 . S
C214 C220 1.368 . S
C215 C199 1.349 . S
C215 H207 0.950 . S
C215 C213 1.327 . S
C216 C204 1.349 . S
C216 H210 0.950 . S
C216 C217 1.327 . S
C217 H211 0.950 . S
C217 C216 1.327 . S
C217 C221 1.429 . S
C218 C201 1.574 . S
C218 H212 0.949 . S
C218 C222 1.368 . S
C219 C200 1.429 . S
C219 C213 1.429 . S
C219 C220 1.523 . S
C220 C201 1.368 . S
C220 C214 1.368 . S
C220 C219 1.523 . S
C221 C205 1.429 . S
C221 C217 1.429 . S
C221 C222 1.523 . S
C222 C206 1.368 . S
C222 C218 1.368 . S
C222 C221 1.523 . S
H223 C198 0.950 . S
H224 C200 0.950 . S
H225 C201 0.949 . S
H226 C203 0.950 . S
H227 C205 0.950 . S
C228 C229 1.349 . S
C228 C230 1.327 . S
C228 H253 0.950 . S
C229 C228 1.349 . S
C229 C245 1.349 . S
C230 C228 1.327 . S
C230 C249 1.429 . S
C230 H254 0.950 . S
C231 C248 1.574 . S
C231 C250 1.368 . S
C231 H255 0.949 . S
H232 C236 0.949 . S
C233 C234 1.349 . S
C233 C235 1.327 . S
C233 H256 0.950 . S
C234 C233 1.349 . S
C234 C246 1.349 . S
C235 C233 1.327 . S
C235 C251 1.429 . S
C235 H257 0.950 . S
C236 H232 0.949 . S
C236 C244 1.574 . S
C236 C252 1.368 . S
H237 C245 0.950 . S
H238 C243 0.950 . S
H239 C244 0.949 . S
H240 C246 0.950 . S
H241 C247 0.950 . S
H242 C248 0.949 . S
C243 H238 0.950 . S
C243 C245 1.327 . S
C243 C249 1.429 . S
C244 C236 1.574 . S
C244 H239 0.949 . S
C244 C250 1.368 . S
C245 C229 1.349 . S
C245 H237 0.950 . S
C245 C243 1.327 . S
C246 C234 1.349 . S
C246 H240 0.950 . S
C246 C247 1.327 . S
C247 H241 0.950 . S
C247 C246 1.327 . S
C247 C251 1.429 . S
C248 C231 1.574 . S
C248 H242 0.949 . S
C248 C252 1.368 . S
C249 C230 1.429 . S
C249 C243 1.429 . S
C249 C250 1.523 . S
C250 C231 1.368 . S
C250 C244 1.368 . S
C250 C249 1.523 . S
C251 C235 1.429 . S
C251 C247 1.429 . S
C251 C252 1.523 . S
C252 C236 1.368 . S
C252 C248 1.368 . S
C252 C251 1.523 . S
H253 C228 0.950 . S
H254 C230 0.950 . S
H255 C231 0.949 . S
H256 C233 0.950 . S
H257 C235 0.950 . S
C258 C259 1.349 . S
C258 C260 1.327 . S
C258 H283 0.950 . S
C259 C258 1.349 . S
C259 C275 1.349 . S
C260 C258 1.327 . S
C260 C279 1.429 . S
C260 H284 0.950 . S
C261 C278 1.574 . S
C261 C280 1.368 . S
C261 H285 0.949 . S
H262 C266 0.949 . S
C263 C264 1.349 . S
C263 C265 1.327 . S
C263 H286 0.950 . S
C264 C263 1.349 . S
C264 C276 1.349 . S
C265 C263 1.327 . S
C265 C281 1.429 . S
C265 H287 0.950 . S
C266 H262 0.949 . S
C266 C274 1.574 . S
C266 C282 1.368 . S
H267 C275 0.950 . S
H268 C273 0.950 . S
H269 C274 0.949 . S
H270 C276 0.950 . S
H271 C277 0.950 . S
H272 C278 0.949 . S
C273 H268 0.950 . S
C273 C275 1.327 . S
C273 C279 1.429 . S
C274 C266 1.574 . S
C274 H269 0.949 . S
C274 C280 1.368 . S
C275 C259 1.349 . S
C275 H267 0.950 . S
C275 C273 1.327 . S
C276 C264 1.349 . S
C276 H270 0.950 . S
C276 C277 1.327 . S
C277 H271 0.950 . S
C277 C276 1.327 . S
C277 C281 1.429 . S
C278 C261 1.574 . S
C278 H272 0.949 . S
C278 C282 1.368 . S
C279 C260 1.429 . S
C279 C273 1.429 . S
C279 C280 1.523 . S
C280 C261 1.368 . S
C280 C274 1.368 . S
C280 C279 1.523 . S
C281 C265 1.429 . S
C281 C277 1.429 . S
C281 C282 1.523 . S
C282 C266 1.368 . S
C282 C278 1.368 . S
C282 C281 1.523 . S
H283 C258 0.950 . S
H284 C260 0.950 . S
H285 C261 0.949 . S
H286 C263 0.950 . S
H287 C265 0.950 . S
C288 C289 1.349 . S
C288 C290 1.327 . S
C288 H313 0.950 . S
C289 C288 1.349 . S
C289 C305 1.349 . S
C290 C288 1.327 . S
C290 C309 1.429 . S
C290 H314 0.950 . S
C291 C308 1.574 . S
C291 C310 1.368 . S
C291 H315 0.949 . S
H292 C296 0.949 . S
C293 C294 1.349 . S
C293 C295 1.327 . S
C293 H316 0.950 . S
C294 C293 1.349 . S
C294 C306 1.349 . S
C295 C293 1.327 . S
C295 C311 1.429 . S
C295 H317 0.950 . S
C296 H292 0.949 . S
C296 C304 1.574 . S
C296 C312 1.368 . S
H297 C305 0.950 . S
H298 C303 0.950 . S
H299 C304 0.949 . S
H300 C306 0.950 . S
H301 C307 0.950 . S
H302 C308 0.949 . S
C303 H298 0.950 . S
C303 C305 1.327 . S
C303 C309 1.429 . S
C304 C296 1.574 . S
C304 H299 0.949 . S
C304 C310 1.368 . S
C305 C289 1.349 . S
C305 H297 0.950 . S
C305 C303 1.327 . S
C306 C294 1.349 . S
C306 H300 0.950 . S
C306 C307 1.327 . S
C307 H301 0.950 . S
C307 C306 1.327 . S
C307 C311 1.429 . S
C308 C291 1.574 . S
C308 H302 0.949 . S
C308 C312 1.368 . S
C309 C290 1.429 . S
C309 C303 1.429 . S
C309 C310 1.523 . S
C310 C291 1.368 . S
C310 C304 1.368 . S
C310 C309 1.523 . S
C311 C295 1.429 . S
C311 C307 1.429 . S
C311 C312 1.523 . S
C312 C296 1.368 . S
C312 C308 1.368 . S
C312 C311 1.523 . S
H313 C288 0.950 . S
H314 C290 0.950 . S
H315 C291 0.949 . S
H316 C293 0.950 . S
H317 C295 0.950 . S
C318 C319 1.349 . S
C318 C320 1.327 . S
C318 H343 0.950 . S
C319 C318 1.349 . S
C319 C335 1.349 . S
C320 C318 1.327 . S
C320 C339 1.429 . S
C320 H344 0.950 . S
C321 C338 1.574 . S
C321 C340 1.368 . S
C321 H345 0.949 . S
H322 C326 0.949 . S
C323 C324 1.349 . S
C323 C325 1.327 . S
C323 H346 0.950 . S
C324 C323 1.349 . S
C324 C336 1.349 . S
C325 C323 1.327 . S
C325 C341 1.429 . S
C325 H347 0.950 . S
C326 H322 0.949 . S
C326 C334 1.574 . S
C326 C342 1.368 . S
H327 C335 0.950 . S
H328 C333 0.950 . S
H329 C334 0.949 . S
H330 C336 0.950 . S
H331 C337 0.950 . S
H332 C338 0.949 . S
C333 H328 0.950 . S
C333 C335 1.327 . S
C333 C339 1.429 . S
C334 C326 1.574 . S
C334 H329 0.949 . S
C334 C340 1.368 . S
C335 C319 1.349 . S
C335 H327 0.950 . S
C335 C333 1.327 . S
C336 C324 1.349 . S
C336 H330 0.950 . S
C336 C337 1.327 . S
C337 H331 0.950 . S
C337 C336 1.327 . S
C337 C341 1.429 . S
C338 C321 1.574 . S
C338 H332 0.949 . S
C338 C342 1.368 . S
C339 C320 1.429 . S
C339 C333 1.429 . S
C339 C340 1.523 . S
C340 C321 1.368 . S
C340 C334 1.368 . S
C340 C339 1.523 . S
C341 C325 1.429 . S
C341 C337 1.429 . S
C341 C342 1.523 . S
C342 C326 1.368 . S
C342 C338 1.368 . S
C342 C341 1.523 . S
H343 C318 0.950 . S
H344 C320 0.950 . S
H345 C321 0.949 . S
H346 C323 0.950 . S
H347 C325 0.950 . S
C348 C349 1.349 . S
C348 C350 1.327 . S
C348 H373 0.950 . S
C349 C348 1.349 . S
C349 C365 1.349 . S
C350 C348 1.327 . S
C350 C369 1.429 . S
C350 H374 0.950 . S
C351 C368 1.574 . S
C351 C370 1.368 . S
C351 H375 0.949 . S
H352 C356 0.949 . S
C353 C354 1.349 . S
C353 C355 1.327 . S
C353 H376 0.950 . S
C354 C353 1.349 . S
C354 C366 1.349 . S
C355 C353 1.327 . S
C355 C371 1.429 . S
C355 H377 0.950 . S
C356 H352 0.949 . S
C356 C364 1.574 . S
C356 C372 1.368 . S
H357 C365 0.950 . S
H358 C363 0.950 . S
H359 C364 0.949 . S
H360 C366 0.950 . S
H361 C367 0.950 . S
H362 C368 0.949 . S
C363 H358 0.950 . S
C363 C365 1.327 . S
C363 C369 1.429 . S
C364 C356 1.574 . S
C364 H359 0.949 . S
C364 C370 1.368 . S
C365 C349 1.349 . S
C365 H357 0.950 . S
C365 C363 1.327 . S
C366 C354 1.349 . S
C366 H360 0.950 . S
C366 C367 1.327 . S
C367 H361 0.950 . S
C367 C366 1.327 . S
C367 C371 1.429 . S
C368 C351 1.574 . S
C368 H362 0.949 . S
C368 C372 1.368 . S
C369 C350 1.429 . S
C369 C363 1.429 . S
C369 C370 1.523 . S
C370 C351 1.368 . S
C370 C364 1.368 . S
C370 C369 1.523 . S
C371 C355 1.429 . S
C371 C367 1.429 . S
C371 C372 1.523 . S
C372 C356 1.368 . S
C372 C368 1.368 . S
C372 C371 1.523 . S
H373 C348 0.950 . S
H374 C350 0.950 . S
H375 C351 0.949 . S
H376 C353 0.950 . S
H377 C355 0.950 . S
C378 C379 1.349 . S
C378 C380 1.327 . S
C378 H403 0.950 . S
C379 C378 1.349 . S
C379 C395 1.349 . S
C380 C378 1.327 . S
C380 C399 1.429 . S
C380 H404 0.950 . S
C381 C398 1.574 . S
C381 C400 1.368 . S
C381 H405 0.949 . S
H382 C386 0.949 . S
C383 C384 1.349 . S
C383 C385 1.327 . S
C383 H406 0.950 . S
C384 C383 1.349 . S
C384 C396 1.349 . S
C385 C383 1.327 . S
C385 C401 1.429 1_565 S
C385 H407 0.950 . S
C386 H382 0.949 . S
C386 C394 1.574 . S
C386 C402 1.368 . S
H387 C395 0.950 . S
H388 C393 0.950 . S
H389 C394 0.949 . S
H390 C396 0.950 . S
H391 C397 0.950 . S
H392 C398 0.949 . S
C393 H388 0.950 . S
C393 C395 1.327 . S
C393 C399 1.429 . S
C394 C386 1.574 . S
C394 H389 0.949 . S
C394 C400 1.368 . S
C395 C379 1.349 . S
C395 H387 0.950 . S
C395 C393 1.327 . S
C396 C384 1.349 . S
C396 H390 0.950 . S
C396 C397 1.327 1_565 S
C397 H391 0.950 . S
C397 C396 1.327 1_545 S
C397 C401 1.429 . S
C398 C381 1.574 . S
C398 H392 0.949 . S
C398 C402 1.368 . S
C399 C380 1.429 . S
C399 C393 1.429 . S
C399 C400 1.523 . S
C400 C381 1.368 . S
C400 C394 1.368 . S
C400 C399 1.523 . S
C401 C385 1.429 1_545 S
C401 C397 1.429 . S
C401 C402 1.523 . S
C402 C386 1.368 . S
C402 C398 1.368 . S
C402 C401 1.523 . S
H403 C378 0.950 . S
H404 C380 0.950 . S
H405 C381 0.949 . S
H406 C383 0.950 . S
H407 C385 0.950 . S
C408 C409 1.349 . S
C408 C410 1.327 . S
C408 H433 0.950 . S
C409 C408 1.349 . S
C409 C425 1.349 . S
C410 C408 1.327 . S
C410 C429 1.429 . S
C410 H434 0.950 . S
C411 C428 1.574 . S
C411 C430 1.368 . S
C411 H435 0.949 . S
H412 C416 0.949 . S
C413 C414 1.349 . S
C413 C415 1.327 . S
C413 H436 0.950 . S
C414 C413 1.349 . S
C414 C426 1.349 . S
C415 C413 1.327 . S
C415 C431 1.429 . S
C415 H437 0.950 . S
C416 H412 0.949 . S
C416 C424 1.574 . S
C416 C432 1.368 . S
H417 C425 0.950 . S
H418 C423 0.950 . S
H419 C424 0.949 . S
H420 C426 0.950 . S
H421 C427 0.950 . S
H422 C428 0.949 . S
C423 H418 0.950 . S
C423 C425 1.327 . S
C423 C429 1.429 . S
C424 C416 1.574 . S
C424 H419 0.949 . S
C424 C430 1.368 . S
C425 C409 1.349 . S
C425 H417 0.950 . S
C425 C423 1.327 . S
C426 C414 1.349 . S
C426 H420 0.950 . S
C426 C427 1.327 . S
C427 H421 0.950 . S
C427 C426 1.327 . S
C427 C431 1.429 . S
C428 C411 1.574 . S
C428 H422 0.949 . S
C428 C432 1.368 . S
C429 C410 1.429 . S
C429 C423 1.429 . S
C429 C430 1.523 1_655 S
C430 C411 1.368 . S
C430 C424 1.368 . S
C430 C429 1.523 1_455 S
C431 C415 1.429 . S
C431 C427 1.429 . S
C431 C432 1.523 . S
C432 C416 1.368 . S
C432 C428 1.368 . S
C432 C431 1.523 . S
H433 C408 0.950 . S
H434 C410 0.950 . S
H435 C411 0.949 . S
H436 C413 0.950 . S
H437 C415 0.950 . S
C438 C439 1.349 . S
C438 C440 1.327 1_455 S
C438 H463 0.950 . S
C439 C438 1.349 . S
C439 C455 1.349 . S
C440 C438 1.327 1_655 S
C440 C459 1.429 . S
C440 H464 0.950 . S
C441 C458 1.574 . S
C441 C460 1.368 . S
C441 H465 0.949 . S
H442 C446 0.949 . S
C443 C444 1.349 . S
C443 C445 1.327 . S
C443 H466 0.950 . S
C444 C443 1.349 . S
C444 C456 1.349 . S
C445 C443 1.327 . S
C445 C461 1.429 . S
C445 H467 0.950 . S
C446 H442 0.949 . S
C446 C454 1.574 . S
C446 C462 1.368 . S
H447 C455 0.950 . S
H448 C453 0.950 . S
H449 C454 0.949 . S
H450 C456 0.950 . S
H451 C457 0.950 . S
H452 C458 0.949 . S
C453 H448 0.950 . S
C453 C455 1.327 . S
C453 C459 1.429 1_455 S
C454 C446 1.574 . S
C454 H449 0.949 . S
C454 C460 1.368 . S
C455 C439 1.349 . S
C455 H447 0.950 . S
C455 C453 1.327 . S
C456 C444 1.349 . S
C456 H450 0.950 . S
C456 C457 1.327 . S
C457 H451 0.950 . S
C457 C456 1.327 . S
C457 C461 1.429 . S
C458 C441 1.574 . S
C458 H452 0.949 . S
C458 C462 1.368 . S
C459 C440 1.429 . S
C459 C453 1.429 1_655 S
C459 C460 1.523 . S
C460 C441 1.368 . S
C460 C454 1.368 . S
C460 C459 1.523 . S
C461 C445 1.429 . S
C461 C457 1.429 . S
C461 C462 1.523 1_565 S
C462 C446 1.368 . S
C462 C458 1.368 . S
C462 C461 1.523 1_545 S
H463 C438 0.950 . S
H464 C440 0.950 . S
H465 C441 0.949 . S
H466 C443 0.950 . S
H467 C445 0.950 . S
C468 C469 1.349 . S
C468 C470 1.327 1_545 S
C468 H493 0.950 . S
C469 C468 1.349 . S
C469 C485 1.349 . S
C470 C468 1.327 1_565 S
C470 C489 1.429 . S
C470 H494 0.950 . S
C471 C488 1.574 . S
C471 C490 1.368 . S
C471 H495 0.949 . S
H472 C476 0.949 . S
C473 C474 1.349 . S
C473 C475 1.327 . S
C473 H496 0.950 . S
C474 C473 1.349 . S
C474 C486 1.349 . S
C475 C473 1.327 . S
C475 C491 1.429 . S
C475 H497 0.950 . S
C476 H472 0.949 . S
C476 C484 1.574 . S
C476 C492 1.368 . S
H477 C485 0.950 . S
H478 C483 0.950 . S
H479 C484 0.949 . S
H480 C486 0.950 . S
H481 C487 0.950 . S
H482 C488 0.949 . S
C483 H478 0.950 . S
C483 C485 1.327 1_565 S
C483 C489 1.429 . S
C484 C476 1.574 . S
C484 H479 0.949 . S
C484 C490 1.368 . S
C485 C469 1.349 . S
C485 H477 0.950 . S
C485 C483 1.327 1_545 S
C486 C474 1.349 . S
C486 H480 0.950 . S
C486 C487 1.327 . S
C487 H481 0.950 . S
C487 C486 1.327 . S
C487 C491 1.429 . S
C488 C471 1.574 . S
C488 H482 0.949 . S
C488 C492 1.368 . S
C489 C470 1.429 . S
C489 C483 1.429 . S
C489 C490 1.523 . S
C490 C471 1.368 . S
C490 C484 1.368 . S
C490 C489 1.523 . S
C491 C475 1.429 . S
C491 C487 1.429 . S
C491 C492 1.523 . S
C492 C476 1.368 . S
C492 C488 1.368 . S
C492 C491 1.523 . S
H493 C468 0.950 . S
H494 C470 0.950 . S
H495 C471 0.949 . S
H496 C473 0.950 . S
H497 C475 0.950 . S
C498 C499 1.349 . S
C498 C500 1.327 . S
C498 H523 0.950 . S
C499 C498 1.349 . S
C499 C515 1.349 . S
C500 C498 1.327 . S
C500 C519 1.429 . S
C500 H524 0.950 . S
C501 C518 1.574 . S
C501 C520 1.368 . S
C501 H525 0.949 . S
H502 C506 0.959 . S
C503 C504 1.349 . S
C503 C505 1.327 . S
C503 H526 0.950 . S
C504 C503 1.349 . S
C504 C516 1.349 . S
C505 C503 1.327 . S
C505 C521 1.429 . S
C505 H527 0.950 . S
C506 H502 0.959 . S
C506 C514 1.574 . S
C506 C522 1.368 . S
H507 C515 0.950 . S
H508 C513 0.950 . S
H509 C514 0.949 . S
H510 C516 0.950 . S
H511 C517 0.950 . S
H512 C518 0.949 . S
C513 H508 0.950 . S
C513 C515 1.327 . S
C513 C519 1.429 . S
C514 C506 1.574 . S
C514 H509 0.949 . S
C514 C520 1.368 . S
C515 C499 1.349 . S
C515 H507 0.950 . S
C515 C513 1.327 . S
C516 C504 1.349 . S
C516 H510 0.950 . S
C516 C517 1.327 . S
C517 H511 0.950 . S
C517 C516 1.327 . S
C517 C521 1.429 . S
C518 C501 1.574 . S
C518 H512 0.949 . S
C518 C522 1.368 . S
C519 C500 1.429 . S
C519 C513 1.429 . S
C519 C520 1.523 . S
C520 C501 1.368 . S
C520 C514 1.368 . S
C520 C519 1.523 . S
C521 C505 1.429 . S
C521 C517 1.429 . S
C521 C522 1.523 1_455 S
C522 C506 1.368 . S
C522 C518 1.368 . S
C522 C521 1.523 1_655 S
H523 C498 0.950 . S
H524 C500 0.950 . S
H525 C501 0.949 . S
H526 C503 0.950 . S
H527 C505 0.950 . S
C528 C529 1.349 . S
C528 C530 1.327 . S
C528 H553 0.950 . S
C529 C528 1.349 . S
C529 C545 1.349 . S
C530 C528 1.327 . S
C530 C549 1.429 . S
C530 H554 0.950 . S
C531 C548 1.574 . S
C531 C550 1.368 . S
C531 H555 0.949 . S
H532 C536 0.949 . S
C533 C534 1.349 . S
C533 C535 1.327 . S
C533 H556 0.950 . S
C534 C533 1.349 . S
C534 C546 1.349 . S
C535 C533 1.327 . S
C535 C551 1.429 1_655 S
C535 H557 0.950 . S
C536 H532 0.949 . S
C536 C544 1.574 . S
C536 C552 1.368 . S
H537 C545 0.950 . S
H538 C543 0.950 . S
H539 C544 0.949 . S
H540 C546 0.950 . S
H541 C547 0.950 . S
H542 C548 0.949 . S
C543 H538 0.950 . S
C543 C545 1.327 . S
C543 C549 1.429 . S
C544 C536 1.574 . S
C544 H539 0.949 . S
C544 C550 1.368 . S
C545 C529 1.349 . S
C545 H537 0.950 . S
C545 C543 1.327 . S
C546 C534 1.349 . S
C546 H540 0.950 . S
C546 C547 1.327 1_655 S
C547 H541 0.950 . S
C547 C546 1.327 1_455 S
C547 C551 1.429 . S
C548 C531 1.574 . S
C548 H542 0.949 . S
C548 C552 1.368 . S
C549 C530 1.429 . S
C549 C543 1.429 . S
C549 C550 1.523 1_545 S
C550 C531 1.368 . S
C550 C544 1.368 . S
C550 C549 1.523 1_565 S
C551 C535 1.429 1_455 S
C551 C547 1.429 . S
C551 C552 1.523 . S
C552 C536 1.368 . S
C552 C548 1.368 . S
C552 C551 1.523 . S
H553 C528 0.950 . S
H554 C530 0.950 . S
H555 C531 0.949 . S
H556 C533 0.950 . S
H557 C535 0.950 . S
C558 C559 1.349 . S
C558 C560 1.327 . S
C558 H583 0.950 . S
C559 C558 1.349 . S
C559 C575 1.349 . S
C560 C558 1.327 . S
C560 C579 1.429 . S
C560 H584 0.950 . S
C561 C578 1.574 1_554 S
C561 C580 1.368 . S
C561 H585 0.949 . S
H562 C566 0.949 . S
C563 C564 1.349 . S
C563 C565 1.327 . S
C563 H586 0.950 . S
C564 C563 1.349 . S
C564 C576 1.349 . S
C565 C563 1.327 . S
C565 C581 1.429 . S
C565 H587 0.950 . S
C566 H562 0.949 . S
C566 C574 1.574 1_556 S
C566 C582 1.368 . S
H567 C575 0.950 . S
H568 C573 0.950 . S
H569 C574 0.949 . S
H570 C576 0.950 . S
H571 C577 0.950 . S
H572 C578 0.949 . S
C573 H568 0.950 . S
C573 C575 1.327 . S
C573 C579 1.429 . S
C574 C566 1.574 1_554 S
C574 H569 0.949 . S
C574 C580 1.368 . S
C575 C559 1.349 . S
C575 H567 0.950 . S
C575 C573 1.327 . S
C576 C564 1.349 . S
C576 H570 0.950 . S
C576 C577 1.327 . S
C577 H571 0.950 . S
C577 C576 1.327 . S
C577 C581 1.429 . S
C578 C561 1.574 1_556 S
C578 H572 0.949 . S
C578 C582 1.368 . S
C579 C560 1.429 . S
C579 C573 1.429 . S
C579 C580 1.523 . S
C580 C561 1.368 . S
C580 C574 1.368 . S
C580 C579 1.523 . S
C581 C565 1.429 . S
C581 C577 1.429 . S
C581 C582 1.523 . S
C582 C566 1.368 . S
C582 C578 1.368 . S
C582 C581 1.523 . S
H583 C558 0.950 . S
H584 C560 0.950 . S
H585 C561 0.949 . S
H586 C563 0.950 . S
H587 C565 0.950 . S
C588 C589 1.349 . S
C588 C590 1.327 . S
C588 H613 0.950 . S
C589 C588 1.349 . S
C589 C605 1.349 . S
C590 C588 1.327 . S
C590 C609 1.429 . S
C590 H614 0.950 . S
C591 C608 1.574 . S
C591 C610 1.368 . S
C591 H615 0.949 . S
H592 C596 0.949 . S
C593 C594 1.349 . S
C593 C595 1.327 . S
C593 H616 0.950 . S
C594 C593 1.349 . S
C594 C606 1.349 . S
C595 C593 1.327 . S
C595 C611 1.429 . S
C595 H617 0.950 . S
C596 H592 0.949 . S
C596 C604 1.574 1_455 S
C596 C612 1.368 . S
H597 C605 0.950 . S
H598 C603 0.950 . S
H599 C604 0.949 . S
H600 C606 0.950 . S
H601 C607 0.950 . S
H602 C608 0.949 . S
C603 H598 0.950 . S
C603 C605 1.327 . S
C603 C609 1.429 . S
C604 C596 1.574 1_655 S
C604 H599 0.949 . S
C604 C610 1.368 . S
C605 C589 1.349 . S
C605 H597 0.950 . S
C605 C603 1.327 . S
C606 C594 1.349 . S
C606 H600 0.950 . S
C606 C607 1.327 . S
C607 H601 0.950 . S
C607 C606 1.327 . S
C607 C611 1.429 . S
C608 C591 1.574 . S
C608 H602 0.949 . S
C608 C612 1.368 1_655 S
C609 C590 1.429 . S
C609 C603 1.429 . S
C609 C610 1.523 . S
C610 C591 1.368 . S
C610 C604 1.368 . S
C610 C609 1.523 . S
C611 C595 1.429 . S
C611 C607 1.429 . S
C611 C612 1.523 . S
C612 C596 1.368 . S
C612 C608 1.368 1_455 S
C612 C611 1.523 . S
H613 C588 0.950 . S
H614 C590 0.950 . S
H615 C591 0.949 . S
H616 C593 0.950 . S
H617 C595 0.950 . S
C618 C619 1.349 . S
C618 C620 1.327 . S
C618 H643 0.950 . S
C619 C618 1.349 . S
C619 C635 1.349 . S
C620 C618 1.327 . S
C620 C639 1.429 . S
C620 H644 0.950 . S
C621 C638 1.574 1_565 S
C621 C640 1.368 . S
C621 H645 0.949 . S
H622 C626 0.949 . S
C623 C624 1.349 . S
C623 C625 1.327 . S
C623 H646 0.950 . S
C624 C623 1.349 . S
C624 C636 1.349 . S
C625 C623 1.327 . S
C625 C641 1.429 . S
C625 H647 0.950 . S
C626 H622 0.949 . S
C626 C634 1.571 . S
C626 C642 1.368 1_565 S
H627 C635 0.950 . S
H628 C633 0.950 . S
H629 C634 0.949 . S
H630 C636 0.950 . S
H631 C637 0.950 . S
H632 C638 0.949 . S
C633 H628 0.950 . S
C633 C635 1.327 . S
C633 C639 1.429 . S
C634 C626 1.571 . S
C634 H629 0.949 . S
C634 C640 1.371 1_556 S
C635 C619 1.349 . S
C635 H627 0.950 . S
C635 C633 1.327 . S
C636 C624 1.349 . S
C636 H630 0.950 . S
C636 C637 1.327 . S
C637 H631 0.950 . S
C637 C636 1.327 . S
C637 C641 1.429 . S
C638 C621 1.574 1_545 S
C638 H632 0.949 . S
C638 C642 1.368 1_554 S
C639 C620 1.429 . S
C639 C633 1.429 . S
C639 C640 1.523 . S
C640 C621 1.368 . S
C640 C634 1.371 1_554 S
C640 C639 1.523 . S
C641 C625 1.429 . S
C641 C637 1.429 . S
C641 C642 1.523 . S
C642 C626 1.368 1_545 S
C642 C638 1.368 1_556 S
C642 C641 1.523 . S
H643 C618 0.950 . S
H644 C620 0.950 . S
H645 C621 0.949 . S
H646 C623 0.950 . S
H647 C625 0.950 . S
C648 C649 1.349 . S
C648 C650 1.327 . S
C648 H673 0.950 . S
C649 C648 1.349 . S
C649 C665 1.349 . S
C650 C648 1.327 . S
C650 C669 1.429 . S
C650 H674 0.950 . S
C651 C668 1.574 . S
C651 C670 1.368 . S
C651 H675 0.949 . S
H652 C656 0.949 . S
C653 C654 1.349 . S
C653 C655 1.327 . S
C653 H676 0.950 . S
C654 C653 1.349 . S
C654 C666 1.349 . S
C655 C653 1.327 . S
C655 C671 1.429 . S
C655 H677 0.950 . S
C656 H652 0.949 . S
C656 C664 1.574 . S
C656 C672 1.368 . S
H657 C665 0.950 . S
H658 C663 0.950 . S
H659 C664 0.949 . S
H660 C666 0.950 . S
H661 C667 0.950 . S
H662 C668 0.949 . S
C663 H658 0.950 . S
C663 C665 1.327 . S
C663 C669 1.429 . S
C664 C656 1.574 . S
C664 H659 0.949 . S
C664 C670 1.368 . S
C665 C649 1.349 . S
C665 H657 0.950 . S
C665 C663 1.327 . S
C666 C654 1.349 . S
C666 H660 0.950 . S
C666 C667 1.327 . S
C667 H661 0.950 . S
C667 C666 1.327 . S
C667 C671 1.429 . S
C668 C651 1.574 . S
C668 H662 0.949 . S
C668 C672 1.368 . S
C669 C650 1.429 . S
C669 C663 1.429 . S
C669 C670 1.523 . S
C670 C651 1.368 . S
C670 C664 1.368 . S
C670 C669 1.523 . S
C671 C655 1.429 . S
C671 C667 1.429 . S
C671 C672 1.523 . S
C672 C656 1.368 . S
C672 C668 1.368 . S
C672 C671 1.523 . S
H673 C648 0.950 . S
H674 C650 0.950 . S
H675 C651 0.949 . S
H676 C653 0.950 . S
H677 C655 0.950 . S
C678 C679 1.349 . S
C678 C680 1.327 . S
C678 H703 0.950 . S
C679 C678 1.349 . S
C679 C695 1.349 . S
C680 C678 1.327 . S
C680 C699 1.429 . S
C680 H704 0.950 . S
C681 C698 1.574 1_556 S
C681 C700 1.368 1_455 S
C681 H705 0.949 . S
H682 C686 0.949 . S
C683 C684 1.349 . S
C683 C685 1.327 . S
C683 H706 0.950 . S
C684 C683 1.349 . S
C684 C696 1.349 . S
C685 C683 1.327 . S
C685 C701 1.429 . S
C685 H707 0.950 . S
C686 H682 0.949 . S
C686 C694 1.574 1_554 S
C686 C702 1.368 . S
H687 C695 0.950 . S
H688 C693 0.950 . S
H689 C694 0.949 1_655 S
H690 C696 0.950 . S
H691 C697 0.950 . S
H692 C698 0.949 . S
C693 H688 0.950 . S
C693 C695 1.327 . S
C693 C699 1.429 . S
C694 C686 1.574 1_556 S
C694 H689 0.949 1_455 S
C694 C700 1.368 1_455 S
C695 C679 1.349 . S
C695 H687 0.950 . S
C695 C693 1.327 . S
C696 C684 1.349 . S
C696 H690 0.950 . S
C696 C697 1.327 . S
C697 H691 0.950 . S
C697 C696 1.327 . S
C697 C701 1.429 . S
C698 C681 1.574 1_554 S
C698 H692 0.949 . S
C698 C702 1.368 . S
C699 C680 1.429 . S
C699 C693 1.429 . S
C699 C700 1.523 . S
C700 C681 1.368 1_655 S
C700 C694 1.368 1_655 S
C700 C699 1.523 . S
C701 C685 1.429 . S
C701 C697 1.429 . S
C701 C702 1.523 . S
C702 C686 1.368 . S
C702 C698 1.368 . S
C702 C701 1.523 . S
H703 C678 0.950 . S
H704 C680 0.950 . S
H705 C681 0.949 . S
H706 C683 0.950 . S
H707 C685 0.950 . S
C708 C709 1.349 . S
C708 C710 1.327 . S
C708 H733 0.950 . S
C709 C708 1.349 . S
C709 C725 1.349 . S
C710 C708 1.327 . S
C710 C729 1.429 . S
C710 H734 0.950 . S
C711 C728 1.574 . S
C711 C730 1.368 . S
C711 H735 0.949 . S
H712 C716 0.949 . S
C713 C714 1.349 . S
C713 C715 1.327 . S
C713 H736 0.950 . S
C714 C713 1.349 . S
C714 C726 1.349 . S
C715 C713 1.327 . S
C715 C731 1.429 . S
C715 H737 0.950 . S
C716 H712 0.949 . S
C716 C724 1.574 1_565 S
C716 C732 1.368 . S
H717 C725 0.950 . S
H718 C723 0.950 . S
H719 C724 0.949 . S
H720 C726 0.950 . S
H721 C727 0.950 . S
H722 C728 0.949 . S
C723 H718 0.950 . S
C723 C725 1.327 . S
C723 C729 1.429 . S
C724 C716 1.574 1_545 S
C724 H719 0.949 . S
C724 C730 1.368 . S
C725 C709 1.349 . S
C725 H717 0.950 . S
C725 C723 1.327 . S
C726 C714 1.349 . S
C726 H720 0.950 . S
C726 C727 1.327 . S
C727 H721 0.950 . S
C727 C726 1.327 . S
C727 C731 1.429 . S
C728 C711 1.574 . S
C728 H722 0.949 . S
C728 C732 1.368 1_545 S
C729 C710 1.429 . S
C729 C723 1.429 . S
C729 C730 1.523 . S
C730 C711 1.368 . S
C730 C724 1.368 . S
C730 C729 1.523 . S
C731 C715 1.429 . S
C731 C727 1.429 . S
C731 C732 1.523 . S
C732 C716 1.368 . S
C732 C728 1.368 1_565 S
C732 C731 1.523 . S
H733 C708 0.950 . S
H734 C710 0.950 . S
H735 C711 0.949 . S
H736 C713 0.950 . S
H737 C715 0.950 . S
C738 C739 1.349 . S
C738 C740 1.327 . S
C738 H763 0.950 . S
C739 C738 1.349 . S
C739 C755 1.349 . S
C740 C738 1.327 . S
C740 C759 1.429 . S
C740 H764 0.950 . S
C741 C758 1.574 1_556 S
C741 C760 1.368 . S
C741 H765 0.949 . S
H742 C746 0.948 1_554 S
C743 C744 1.349 . S
C743 C745 1.327 . S
C743 H766 0.950 . S
C744 C743 1.349 . S
C744 C756 1.349 . S
C745 C743 1.327 . S
C745 C761 1.429 . S
C745 H767 0.950 . S
C746 H742 0.948 1_556 S
C746 C754 1.589 . S
C746 C762 1.354 1_556 S
H747 C755 0.950 . S
H748 C753 0.950 . S
H749 C754 0.949 . S
H750 C756 0.950 . S
H751 C757 0.950 . S
H752 C758 0.949 . S
C753 H748 0.950 . S
C753 C755 1.327 . S
C753 C759 1.429 . S
C754 C746 1.589 . S
C754 H749 0.949 . S
C754 C760 1.368 . S
C755 C739 1.349 . S
C755 H747 0.950 . S
C755 C753 1.327 . S
C756 C744 1.349 . S
C756 H750 0.950 . S
C756 C757 1.327 . S
C757 H751 0.950 . S
C757 C756 1.327 . S
C757 C761 1.429 . S
C758 C741 1.574 1_554 S
C758 H752 0.949 . S
C758 C762 1.368 . S
C759 C740 1.429 . S
C759 C753 1.429 . S
C759 C760 1.523 . S
C760 C741 1.368 . S
C760 C754 1.368 . S
C760 C759 1.523 . S
C761 C745 1.429 . S
C761 C757 1.429 . S
C761 C762 1.523 . S
C762 C746 1.354 1_554 S
C762 C758 1.368 . S
C762 C761 1.523 . S
H763 C738 0.950 . S
H764 C740 0.950 . S
H765 C741 0.949 . S
H766 C743 0.950 . S
H767 C745 0.950 . S
C768 C769 1.349 . S
C768 C770 1.327 . S
C768 H793 0.950 . S
C769 C768 1.349 . S
C769 C785 1.349 . S
C770 C768 1.327 . S
C770 C789 1.429 . S
C770 H794 0.950 . S
C771 C788 1.574 1_455 S
C771 C790 1.368 . S
C771 H795 0.949 . S
H772 C776 0.949 . S
C773 C774 1.349 . S
C773 C775 1.327 . S
C773 H796 0.950 . S
C774 C773 1.349 . S
C774 C786 1.349 . S
C775 C773 1.327 . S
C775 C791 1.429 . S
C775 H797 0.950 . S
C776 H772 0.949 . S
C776 C784 1.574 . S
C776 C792 1.368 1_455 S
H777 C785 0.950 . S
H778 C783 0.950 . S
H779 C784 0.949 . S
H780 C786 0.950 . S
H781 C787 0.950 . S
H782 C788 0.949 . S
C783 H778 0.950 . S
C783 C785 1.327 . S
C783 C789 1.429 . S
C784 C776 1.574 . S
C784 H779 0.949 . S
C784 C790 1.368 . S
C785 C769 1.349 . S
C785 H777 0.950 . S
C785 C783 1.327 . S
C786 C774 1.349 . S
C786 H780 0.950 . S
C786 C787 1.327 . S
C787 H781 0.950 . S
C787 C786 1.327 . S
C787 C791 1.429 . S
C788 C771 1.574 1_655 S
C788 H782 0.949 . S
C788 C792 1.368 . S
C789 C770 1.429 . S
C789 C783 1.429 . S
C789 C790 1.523 . S
C790 C771 1.368 . S
C790 C784 1.368 . S
C790 C789 1.523 . S
C791 C775 1.429 . S
C791 C787 1.429 . S
C791 C792 1.523 . S
C792 C776 1.368 1_655 S
C792 C788 1.368 . S
C792 C791 1.523 . S
H793 C768 0.950 . S
H794 C770 0.950 . S
H795 C771 0.949 . S
H796 C773 0.950 . S
H797 C775 0.950 . S
C798 C799 1.349 . S
C798 C800 1.327 . S
C798 H823 0.950 . S
C799 C798 1.349 . S
C799 C815 1.349 . S
C800 C798 1.327 . S
C800 C819 1.429 . S
C800 H824 0.950 . S
C801 C818 1.574 . S
C801 C820 1.368 1_554 S
C801 H825 0.949 . S
H802 C806 0.949 . S
C803 C804 1.349 . S
C803 C805 1.327 . S
C803 H826 0.950 . S
C804 C803 1.349 . S
C804 C816 1.349 . S
C805 C803 1.327 . S
C805 C821 1.429 . S
C805 H827 0.914 1_565 S
C806 H802 0.949 . S
C806 C814 1.574 1_565 S
C806 C822 1.368 1_556 S
H807 C815 0.950 . S
H808 C813 0.950 . S
H809 C814 0.949 . S
H810 C816 0.950 . S
H811 C817 0.950 . S
H812 C818 0.949 . S
C813 H808 0.950 . S
C813 C815 1.327 . S
C813 C819 1.429 . S
C814 C806 1.574 1_545 S
C814 H809 0.949 . S
C814 C820 1.368 . S
C815 C799 1.349 . S
C815 H807 0.950 . S
C815 C813 1.327 . S
C816 C804 1.349 . S
C816 H810 0.950 . S
C816 C817 1.327 . S
C817 H811 0.950 . S
C817 C816 1.327 . S
C817 C821 1.429 . S
C818 C801 1.574 . S
C818 H812 0.949 . S
C818 C822 1.368 1_545 S
C819 C800 1.429 . S
C819 C813 1.429 . S
C819 C820 1.523 . S
C820 C801 1.368 1_556 S
C820 C814 1.368 . S
C820 C819 1.523 . S
C821 C805 1.429 . S
C821 C817 1.429 . S
C821 C822 1.523 . S
C822 C806 1.368 1_554 S
C822 C818 1.368 1_565 S
C822 C821 1.523 . S
H823 C798 0.950 . S
H824 C800 0.950 . S
H825 C801 0.949 . S
H826 C803 0.950 . S
H827 C805 0.914 1_545 S
C828 C829 1.349 . S
C828 C830 1.327 . S
C828 H853 0.950 . S
C829 C828 1.349 . S
C829 C845 1.349 . S
C830 C828 1.327 . S
C830 C849 1.429 . S
C830 H854 0.950 . S
C831 C848 1.574 . S
C831 C850 1.368 . S
C831 H855 0.949 . S
H832 C836 0.949 . S
C833 C834 1.349 . S
C833 C835 1.327 . S
C833 H856 0.950 . S
C834 C833 1.349 . S
C834 C846 1.349 . S
C835 C833 1.327 . S
C835 C851 1.429 . S
C835 H857 0.950 . S
C836 H832 0.949 . S
C836 C844 1.574 . S
C836 C852 1.368 . S
H837 C845 0.950 . S
H838 C843 0.950 . S
H839 C844 0.949 . S
H840 C846 0.950 . S
H841 C847 0.950 . S
H842 C848 0.949 . S
C843 H838 0.950 . S
C843 C845 1.327 . S
C843 C849 1.429 . S
C844 C836 1.574 . S
C844 H839 0.949 . S
C844 C850 1.368 . S
C845 C829 1.349 . S
C845 H837 0.950 . S
C845 C843 1.327 . S
C846 C834 1.349 . S
C846 H840 0.950 . S
C846 C847 1.327 . S
C847 H841 0.950 . S
C847 C846 1.327 . S
C847 C851 1.429 . S
C848 C831 1.574 . S
C848 H842 0.949 . S
C848 C852 1.368 . S
C849 C830 1.429 . S
C849 C843 1.429 . S
C849 C850 1.523 . S
C850 C831 1.368 . S
C850 C844 1.368 . S
C850 C849 1.523 . S
C851 C835 1.429 . S
C851 C847 1.429 . S
C851 C852 1.523 . S
C852 C836 1.368 . S
C852 C848 1.368 . S
C852 C851 1.523 . S
H853 C828 0.950 . S
H854 C830 0.950 . S
H855 C831 0.949 . S
H856 C833 0.950 . S
H857 C835 0.950 . S
C858 C859 1.349 . S
C858 C860 1.327 . S
C858 H883 0.950 . S
C859 C858 1.349 . S
C859 C875 1.349 . S
C860 C858 1.327 . S
C860 C879 1.429 . S
C860 H884 0.950 . S
C861 C878 1.581 . S
C861 C880 1.368 1_655 S
C861 H885 0.949 . S
H862 C866 0.949 . S
C863 C864 1.349 . S
C863 C865 1.327 . S
C863 H886 0.950 . S
C864 C863 1.349 . S
C864 C876 1.349 . S
C865 C863 1.327 . S
C865 C881 1.429 . S
C865 H887 0.950 . S
C866 H862 0.949 . S
C866 C874 1.574 1_655 S
C866 C882 1.368 . S
H867 C875 0.950 . S
H868 C873 0.950 . S
H869 C874 0.949 . S
H870 C876 0.950 . S
H871 C877 0.950 . S
H872 C878 0.949 . S
C873 H868 0.950 . S
C873 C875 1.327 . S
C873 C879 1.429 . S
C874 C866 1.574 1_455 S
C874 H869 0.949 . S
C874 C880 1.368 1_556 S
C875 C859 1.349 . S
C875 H867 0.950 . S
C875 C873 1.327 . S
C876 C864 1.349 . S
C876 H870 0.950 . S
C876 C877 1.327 . S
C877 H871 0.950 . S
C877 C876 1.327 . S
C877 C881 1.429 . S
C878 C861 1.581 . S
C878 H872 0.949 . S
C878 C882 1.361 1_554 S
C879 C860 1.429 . S
C879 C873 1.429 . S
C879 C880 1.523 . S
C880 C861 1.368 1_455 S
C880 C874 1.368 1_554 S
C880 C879 1.523 . S
C881 C865 1.429 . S
C881 C877 1.429 . S
C881 C882 1.523 . S
C882 C866 1.368 . S
C882 C878 1.361 1_556 S
C882 C881 1.523 . S
H883 C858 0.950 . S
H884 C860 0.950 . S
H885 C861 0.949 . S
H886 C863 0.950 . S
H887 C865 0.950 . S
C888 C889 1.349 . S
C888 C890 1.327 . S
C888 H913 0.950 . S
C889 C888 1.349 . S
C889 C905 1.349 . S
C890 C888 1.327 . S
C890 C909 1.429 . S
C890 H914 0.950 . S
C891 C908 1.574 1_545 S
C891 C910 1.368 . S
C891 H915 0.949 . S
H892 C896 0.949 . S
C893 C894 1.349 . S
C893 C895 1.327 . S
C893 H916 0.950 . S
C894 C893 1.349 . S
C894 C906 1.349 . S
C895 C893 1.327 . S
C895 C911 1.429 . S
C895 H917 0.950 . S
C896 H892 0.949 . S
C896 C904 1.574 . S
C896 C912 1.368 . S
H897 C905 0.950 . S
H898 C903 0.950 . S
H899 C904 0.949 . S
H900 C906 0.950 . S
H901 C907 0.950 . S
H902 C908 0.949 . S
C903 H898 0.950 . S
C903 C905 1.327 . S
C903 C909 1.429 . S
C904 C896 1.574 . S
C904 H899 0.949 . S
C904 C910 1.368 1_565 S
C905 C889 1.349 . S
C905 H897 0.950 . S
C905 C903 1.327 . S
C906 C894 1.349 . S
C906 H900 0.950 . S
C906 C907 1.327 . S
C907 H901 0.950 . S
C907 C906 1.327 . S
C907 C911 1.429 . S
C908 C891 1.574 1_565 S
C908 H902 0.949 . S
C908 C912 1.368 . S
C909 C890 1.429 . S
C909 C903 1.429 . S
C909 C910 1.523 . S
C910 C891 1.368 . S
C910 C904 1.368 1_545 S
C910 C909 1.523 . S
C911 C895 1.429 . S
C911 C907 1.429 . S
C911 C912 1.523 . S
C912 C896 1.368 . S
C912 C908 1.368 . S
C912 C911 1.523 . S
H913 C888 0.950 . S
H914 C890 0.950 . S
H915 C891 0.949 . S
H916 C893 0.950 . S
H917 C895 0.950 . S
C199 C24 2.044 . S
C204 C153 2.105 . S
C229 C190 2.105 . S
C234 C61 2.044 . S
C259 C21 2.105 . S
C264 C90 2.044 . S
C289 C58 2.105 . S
C294 C127 2.044 . S
C319 C156 2.044 . S
C324 C87 2.105 . S
C349 C193 2.044 . S
C354 C124 2.105 . S
C379 C28 0.615 . S
C384 C157 0.178 . S
C409 C57 0.615 . S
C414 C186 0.178 . S
C439 C25 0.178 . S
C444 C94 0.615 . S
C469 C54 0.178 . S
C474 C123 0.615 . S
C499 C91 0.178 . S
C504 C160 0.615 . S
C529 C189 0.615 . S
C534 C120 0.178 . S
C559 C27 2.044 . S
C564 C187 2.138 . S
C589 C59 2.506 . S
C594 C23 2.407 . S
C619 C93 2.044 . S
C624 C55 2.138 . S
C649 C125 2.506 . S
C654 C89 2.407 . S
C679 C121 2.138 . S
C684 C159 2.044 . S
C709 C191 2.506 . S
C714 C155 2.407 . S
C739 C122 2.044 . S
C744 C92 2.138 . S
C769 C154 2.506 . S
C774 C126 2.407 . S
C799 C188 2.044 . S
C804 C158 2.138 . S
C829 C192 2.407 . S
C834 C22 2.506 . S
C859 C26 2.138 . S
C864 C56 2.044 . S
C889 C60 2.407 . S
C894 C88 2.506 . S
