# Generated by pormake.
# Topology mmt, (4)-cn, num edge types: 1
# Building blocks:
#     Node 0, Type 0, BuildingBlock: UXUYUI_clean_sbu_0, # of connection points: 4
#     Node 1, Type 0, BuildingBlock: UXUYUI_clean_sbu_0, # of connection points: 4
#     Node 2, Type 0, BuildingBlock: UXUYUI_clean_sbu_0, # of connection points: 4
#     Node 3, Type 0, BuildingBlock: UXUYUI_clean_sbu_0, # of connection points: 4
#     Node 4, Type 0, BuildingBlock: UXUYUI_clean_sbu_0, # of connection points: 4
#     Node 5, Type 0, BuildingBlock: UXUYUI_clean_sbu_0, # of connection points: 4
#     Node 6, Type 0, BuildingBlock: UXUYUI_clean_sbu_0, # of connection points: 4
#     Node 7, Type 0, BuildingBlock: UXUYUI_clean_sbu_0, # of connection points: 4
#     Edge 8, Type (0, 0), BuildingBlock: ZUJKAS_clean_linker_0, # of connection points: 2
#     Edge 9, Type (0, 0), BuildingBlock: ZUJKAS_clean_linker_0, # of connection points: 2
#     Edge 10, Type (0, 0), BuildingBlock: ZUJKAS_clean_linker_0, # of connection points: 2
#     Edge 11, Type (0, 0), BuildingBlock: ZUJKAS_clean_linker_0, # of connection points: 2
#     Edge 12, Type (0, 0), BuildingBlock: ZUJKAS_clean_linker_0, # of connection points: 2
#     Edge 13, Type (0, 0), BuildingBlock: ZUJKAS_clean_linker_0, # of connection points: 2
#     Edge 14, Type (0, 0), BuildingBlock: ZUJKAS_clean_linker_0, # of connection points: 2
#     Edge 15, Type (0, 0), BuildingBlock: ZUJKAS_clean_linker_0, # of connection points: 2
#     Edge 16, Type (0, 0), BuildingBlock: ZUJKAS_clean_linker_0, # of connection points: 2
#     Edge 17, Type (0, 0), BuildingBlock: ZUJKAS_clean_linker_0, # of connection points: 2
#     Edge 18, Type (0, 0), BuildingBlock: ZUJKAS_clean_linker_0, # of connection points: 2
#     Edge 19, Type (0, 0), BuildingBlock: ZUJKAS_clean_linker_0, # of connection points: 2
#     Edge 20, Type (0, 0), BuildingBlock: ZUJKAS_clean_linker_0, # of connection points: 2
#     Edge 21, Type (0, 0), BuildingBlock: ZUJKAS_clean_linker_0, # of connection points: 2
#     Edge 22, Type (0, 0), BuildingBlock: ZUJKAS_clean_linker_0, # of connection points: 2
#     Edge 23, Type (0, 0), BuildingBlock: ZUJKAS_clean_linker_0, # of connection points: 2
# Relax obj value: 0.161
# Max RMSD: 0.176
# Mean RMSD: 0.176
data_MOF--net-mmt--node1-UXUYUI_clean_sbu_0--edge1-ZUJKAS_clean_linker_0
_symmetry_space_group_name_H-M    P1
_symmetry_Int_Tables_number       1
_symmetry_cell_setting            triclinic
loop_
_symmetry_equiv_pos_as_xyz
'x, y, z'
_cell_length_a     37.929252
_cell_length_b     68.917353
_cell_length_c     76.340213
_cell_angle_alpha  90.015275
_cell_angle_beta   90.019167
_cell_angle_gamma 89.987266
loop_
_atom_site_label
_atom_site_type_symbol
_atom_site_fract_x
_atom_site_fract_y
_atom_site_fract_z
_atom_type_partial_charge
Li0 Li 0.09728 0.56791 0.33549 0.0
Li1 Li 0.11631 0.56083 0.36573 0.0
Li2 Li 0.14046 0.58828 0.34971 0.0
Li3 Li 0.15532 0.55615 0.34143 0.0
C4 C 0.05682 0.58415 0.36304 0.0
N5 N 0.9886 0.58361 0.37572 0.0
C6 C 0.03651 0.56728 0.36176 0.0
C7 C 0.04245 0.60073 0.37078 0.0
C8 C 0.00208 0.5673 0.36824 0.0
C9 C 0.0079 0.60017 0.3771 0.0
C10 C 0.12025 0.52371 0.34579 0.0
C11 C 0.1516 0.49693 0.35889 0.0
N12 N 0.14333 0.48569 0.34483 0.0
C13 C 0.11195 0.51188 0.33151 0.0
C14 C 0.14017 0.51618 0.35963 0.0
C15 C 0.1239 0.4927 0.33126 0.0
C16 C 0.06751 0.55418 0.30504 0.0
N17 N 0.06057 0.56642 0.31854 0.0
C18 C 0.00336 0.57325 0.30694 0.0
C19 C 0.02971 0.57644 0.31941 0.0
C20 C 0.00914 0.55989 0.2933 0.0
C21 C 0.04212 0.55068 0.29223 0.0
H22 H 0.09281 0.54699 0.30435 0.0
H23 H 0.02522 0.58666 0.3299 0.0
C24 C 0.11222 0.56069 0.40268 0.0
N25 N 0.10116 0.5516 0.38788 0.0
C26 C 0.10089 0.55418 0.41908 0.0
C27 C 0.06701 0.52917 0.40459 0.0
C28 C 0.07902 0.53612 0.38852 0.0
C29 C 0.07796 0.53819 0.42017 0.0
H30 H 0.12984 0.57299 0.40173 0.0
H31 H 0.07048 0.52924 0.37652 0.0
C32 C 0.13457 0.59171 0.31364 0.0
N33 N 0.11967 0.62035 0.28942 0.0
C34 C 0.15267 0.59229 0.29771 0.0
C35 C 0.10882 0.60568 0.31724 0.0
C36 C 0.14478 0.6069 0.28564 0.0
C37 C 0.10169 0.62004 0.30483 0.0
C38 C 0.20097 0.57411 0.36534 0.0
C39 C 0.22007 0.57888 0.35029 0.0
C40 C 0.21739 0.57495 0.38171 0.0
C41 C 0.25535 0.58442 0.35187 0.0
C42 C 0.25273 0.58057 0.38275 0.0
N43 N 0.27081 0.58515 0.36794 0.0
C44 C 0.14646 0.62494 0.36599 0.0
C45 C 0.18116 0.62114 0.34039 0.0
C46 C 0.15891 0.64387 0.36822 0.0
N47 N 0.15764 0.61407 0.35221 0.0
C48 C 0.19415 0.63996 0.34208 0.0
C49 C 0.18298 0.65162 0.3561 0.0
H50 H 0.12786 0.61888 0.37523 0.0
H51 H 0.19002 0.61214 0.32967 0.0
C52 C 0.18749 0.53631 0.31419 0.0
N53 N 0.1903 0.53965 0.33167 0.0
C54 C 0.21162 0.52427 0.30575 0.0
C55 C 0.24115 0.51928 0.33347 0.0
C56 C 0.21622 0.53134 0.34143 0.0
C57 C 0.23899 0.51565 0.31539 0.0
H58 H 0.16641 0.54305 0.30683 0.0
H59 H 0.21749 0.53404 0.35537 0.0
O60 O 0.09082 0.58447 0.35706 0.0
O61 O 0.10971 0.54269 0.34608 0.0
O62 O 0.14215 0.57742 0.3255 0.0
O63 O 0.16631 0.56874 0.36423 0.0
H64 H 0.04704 0.55435 0.35569 0.0
H65 H 0.05787 0.61388 0.37192 0.0
H66 H 0.98606 0.55436 0.3673 0.0
H67 H 0.99644 0.6129 0.38313 0.0
H68 H 0.16722 0.49096 0.36945 0.0
H69 H 0.09651 0.51742 0.32071 0.0
H70 H 0.14726 0.52522 0.37068 0.0
H71 H 0.11776 0.4834 0.32026 0.0
H72 H 0.97839 0.58072 0.30829 0.0
H73 H 0.04818 0.54071 0.28168 0.0
H74 H 0.11026 0.56146 0.43076 0.0
H75 H 0.04891 0.51702 0.40477 0.0
H76 H 0.17265 0.58157 0.29473 0.0
H77 H 0.09448 0.60551 0.32946 0.0
H78 H 0.15862 0.60753 0.27326 0.0
H79 H 0.08186 0.63095 0.30745 0.0
H80 H 0.20787 0.5783 0.3375 0.0
H81 H 0.20294 0.57133 0.39349 0.0
H82 H 0.27042 0.58815 0.34033 0.0
H83 H 0.26577 0.58129 0.39534 0.0
H84 H 0.14945 0.65243 0.37916 0.0
H85 H 0.21312 0.64523 0.33261 0.0
H86 H 0.20927 0.52205 0.29175 0.0
H87 H 0.26168 0.51276 0.34138 0.0
Li88 Li 0.3395 0.94196 0.34297 0.0
Li89 Li 0.36067 0.90922 0.35066 0.0
Li90 Li 0.38254 0.93773 0.36603 0.0
Li91 Li 0.39839 0.9322 0.33646 0.0
C92 C 0.30011 0.92087 0.36812 0.0
N93 N 0.23296 0.90633 0.37307 0.0
C94 C 0.2805 0.91418 0.35383 0.0
C95 C 0.2856 0.92012 0.38492 0.0
C96 C 0.2466 0.90689 0.3566 0.0
C97 C 0.25159 0.91274 0.38716 0.0
C98 C 0.36602 0.91306 0.31178 0.0
C99 C 0.40009 0.88916 0.29608 0.0
N100 N 0.39244 0.89834 0.28077 0.0
C101 C 0.35838 0.92222 0.2959 0.0
C102 C 0.38698 0.89637 0.31189 0.0
C103 C 0.37203 0.91457 0.28036 0.0
C104 C 0.30858 0.966 0.31862 0.0
N105 N 0.30188 0.95751 0.33431 0.0
C106 C 0.2443 0.97158 0.33507 0.0
C107 C 0.27087 0.96049 0.34286 0.0
C108 C 0.25011 0.97998 0.31855 0.0
C109 C 0.28297 0.97732 0.31044 0.0
H110 H 0.3339 0.96386 0.31242 0.0
H111 H 0.2666 0.95425 0.35566 0.0
C112 C 0.35512 0.87304 0.36789 0.0
N113 N 0.34652 0.88298 0.35312 0.0
C114 C 0.34306 0.85405 0.37029 0.0
C115 C 0.31382 0.85598 0.34219 0.0
C116 C 0.32639 0.87487 0.34035 0.0
C117 C 0.32187 0.84534 0.35737 0.0
H118 H 0.37089 0.87998 0.3779 0.0
H119 H 0.3197 0.88318 0.32881 0.0
C120 C 0.37404 0.97497 0.35292 0.0
N121 N 0.35593 0.01132 0.36526 0.0
C122 C 0.39081 0.99148 0.34635 0.0
C123 C 0.34799 0.97695 0.36576 0.0
C124 C 0.38131 0.00973 0.35276 0.0
C125 C 0.33923 0.99545 0.37183 0.0
C126 C 0.44466 0.91729 0.36165 0.0
C127 C 0.46229 0.9349 0.35922 0.0
C128 C 0.46238 0.90167 0.36931 0.0
C129 C 0.49741 0.93658 0.36451 0.0
C130 C 0.49751 0.90393 0.37443 0.0
N131 N 0.51415 0.92119 0.37194 0.0
C132 C 0.38891 0.93724 0.40288 0.0
C133 C 0.42057 0.96248 0.38885 0.0
C134 C 0.40122 0.9433 0.41925 0.0
N135 N 0.39874 0.94686 0.38813 0.0
C136 C 0.43331 0.96909 0.4049 0.0
C137 C 0.42386 0.95942 0.4204 0.0
H138 H 0.37178 0.92474 0.40188 0.0
H139 H 0.42832 0.96979 0.37694 0.0
C140 C 0.43108 0.95225 0.30956 0.0
N141 N 0.43391 0.93576 0.3192 0.0
C142 C 0.45612 0.95657 0.29681 0.0
C143 C 0.48624 0.92663 0.30385 0.0
C144 C 0.46054 0.92289 0.31653 0.0
C145 C 0.48439 0.94379 0.29393 0.0
H146 H 0.40932 0.96207 0.31186 0.0
H147 H 0.46197 0.90981 0.32432 0.0
O148 O 0.33365 0.92771 0.36585 0.0
O149 O 0.35378 0.9206 0.3272 0.0
O150 O 0.38311 0.95705 0.34662 0.0
O151 O 0.41018 0.91523 0.35671 0.0
H152 H 0.29119 0.9147 0.34071 0.0
H153 H 0.30052 0.92517 0.39613 0.0
H154 H 0.23113 0.90169 0.34566 0.0
H155 H 0.24002 0.91209 0.40009 0.0
H156 H 0.41652 0.87633 0.29598 0.0
H157 H 0.34216 0.9351 0.29554 0.0
H158 H 0.39356 0.88924 0.32409 0.0
H159 H 0.36642 0.92154 0.26798 0.0
H160 H 0.21952 0.97359 0.34188 0.0
H161 H 0.2885 0.98348 0.29768 0.0
H162 H 0.34959 0.84646 0.38227 0.0
H163 H 0.29804 0.84977 0.33178 0.0
H164 H 0.411 0.99019 0.33639 0.0
H165 H 0.33466 0.9644 0.37104 0.0
H166 H 0.3941 0.02263 0.3478 0.0
H167 H 0.31915 0.9972 0.38177 0.0
H168 H 0.44909 0.94715 0.35331 0.0
H169 H 0.44907 0.88795 0.3713 0.0
H170 H 0.51135 0.95012 0.36271 0.0
H171 H 0.51155 0.89196 0.38038 0.0
H172 H 0.3936 0.93524 0.43082 0.0
H173 H 0.45022 0.98174 0.40513 0.0
H174 H 0.45334 0.96978 0.28925 0.0
H175 H 0.50771 0.91646 0.30212 0.0
Li176 Li 0.65336 0.44391 0.15696 0.0
Li177 Li 0.64169 0.41104 0.1486 0.0
Li178 Li 0.61382 0.43989 0.13272 0.0
Li179 Li 0.59723 0.43107 0.16376 0.0
C180 C 0.69679 0.43692 0.12922 0.0
N181 N 0.76415 0.44795 0.11983 0.0
C182 C 0.72581 0.42989 0.13854 0.0
C183 C 0.70196 0.4494 0.11503 0.0
C184 C 0.75967 0.4357 0.13363 0.0
C185 C 0.73626 0.45483 0.1105 0.0
C186 C 0.64007 0.40683 0.1843 0.0
C187 C 0.60905 0.37849 0.19457 0.0
N188 N 0.63349 0.37622 0.20745 0.0
C189 C 0.6649 0.40422 0.19762 0.0
C190 C 0.61196 0.39385 0.18273 0.0
C191 C 0.66111 0.38866 0.2092 0.0
C192 C 0.69145 0.45951 0.18455 0.0
N193 N 0.68855 0.46063 0.16683 0.0
C194 C 0.73263 0.48543 0.16584 0.0
C195 C 0.70821 0.47344 0.15742 0.0
C196 C 0.73615 0.48449 0.18412 0.0
C197 C 0.7151 0.47137 0.1935 0.0
H198 H 0.67497 0.44954 0.19177 0.0
H199 H 0.70457 0.47465 0.14344 0.0
C200 C 0.64525 0.37319 0.13404 0.0
N201 N 0.6602 0.3857 0.14562 0.0
C202 C 0.65851 0.35436 0.13224 0.0
C203 C 0.70264 0.36189 0.15408 0.0
C204 C 0.68851 0.3805 0.15546 0.0
C205 C 0.68749 0.34847 0.14243 0.0
H206 H 0.6229 0.37779 0.12628 0.0
H207 H 0.70008 0.39082 0.16445 0.0
C208 C 0.6146 0.47488 0.15915 0.0
N209 N 0.63272 0.51129 0.17133 0.0
C210 C 0.60981 0.47958 0.1768 0.0
C211 C 0.62842 0.48872 0.14767 0.0
C212 C 0.61921 0.49806 0.18271 0.0
C213 C 0.63743 0.50705 0.15408 0.0
C214 C 0.55901 0.40801 0.13801 0.0
C215 C 0.53374 0.41976 0.12993 0.0
C216 C 0.55101 0.38863 0.14167 0.0
C217 C 0.50066 0.41203 0.12594 0.0
C218 C 0.51762 0.38143 0.13748 0.0
N219 N 0.49334 0.39318 0.12978 0.0
C220 C 0.60257 0.43837 0.09624 0.0
C221 C 0.57867 0.46598 0.11045 0.0
C222 C 0.58924 0.44463 0.08014 0.0
N223 N 0.59702 0.44906 0.11092 0.0
C224 C 0.56506 0.47285 0.09465 0.0
C225 C 0.57008 0.46208 0.0792 0.0
H226 H 0.61702 0.42486 0.09709 0.0
H227 H 0.57427 0.47405 0.1224 0.0
C228 C 0.56827 0.43229 0.19787 0.0
N229 N 0.5598 0.43192 0.18056 0.0
C230 C 0.54209 0.43464 0.21053 0.0
C231 C 0.49882 0.43644 0.18736 0.0
C232 C 0.52586 0.43403 0.17516 0.0
C233 C 0.50682 0.43697 0.20533 0.0
H234 H 0.59553 0.43136 0.20189 0.0
H235 H 0.51983 0.43459 0.16138 0.0
O236 O 0.66344 0.43143 0.13378 0.0
O237 O 0.64391 0.4218 0.17267 0.0
O238 O 0.60643 0.45671 0.15323 0.0
O239 O 0.59184 0.41522 0.14169 0.0
H240 H 0.72217 0.42027 0.14958 0.0
H241 H 0.6797 0.4549 0.10766 0.0
H242 H 0.78239 0.4305 0.1408 0.0
H243 H 0.7407 0.46454 0.0996 0.0
H244 H 0.58735 0.36837 0.19352 0.0
H245 H 0.68702 0.41403 0.19893 0.0
H246 H 0.59247 0.39571 0.17259 0.0
H247 H 0.68016 0.38645 0.21956 0.0
H248 H 0.74811 0.49557 0.1582 0.0
H249 H 0.71719 0.47013 0.20761 0.0
H250 H 0.64583 0.34446 0.12321 0.0
H251 H 0.72537 0.35812 0.16195 0.0
H252 H 0.59932 0.469 0.18587 0.0
H253 H 0.63275 0.48522 0.13401 0.0
H254 H 0.61586 0.50186 0.19636 0.0
H255 H 0.64839 0.51786 0.14538 0.0
H256 H 0.53934 0.43479 0.12704 0.0
H257 H 0.57037 0.37917 0.14762 0.0
H258 H 0.48078 0.42102 0.11982 0.0
H259 H 0.51106 0.36648 0.14029 0.0
H260 H 0.59333 0.43571 0.06864 0.0
H261 H 0.55091 0.48649 0.09455 0.0
H262 H 0.54948 0.43494 0.22423 0.0
H263 H 0.47215 0.43868 0.18272 0.0
Li264 Li 0.83799 0.05548 0.15487 0.0
Li265 Li 0.85778 0.08894 0.14786 0.0
Li266 Li 0.88127 0.0601 0.13175 0.0
Li267 Li 0.89591 0.06583 0.1616 0.0
C268 C 0.79804 0.07672 0.12985 0.0
N269 N 0.73051 0.09073 0.12488 0.0
C270 C 0.77812 0.08306 0.14416 0.0
C271 C 0.78361 0.0775 0.11303 0.0
C272 C 0.74404 0.09009 0.14138 0.0
C273 C 0.74941 0.08463 0.11078 0.0
C274 C 0.863 0.08407 0.18665 0.0
C275 C 0.89418 0.10856 0.20308 0.0
N276 N 0.88846 0.09833 0.21804 0.0
C277 C 0.85731 0.07383 0.20219 0.0
C278 C 0.88154 0.1016 0.18708 0.0
C279 C 0.87045 0.08126 0.21792 0.0
C280 C 0.80814 0.03035 0.1786 0.0
N281 N 0.80088 0.03933 0.16319 0.0
C282 C 0.74368 0.0248 0.1623 0.0
C283 C 0.76978 0.03639 0.15471 0.0
C284 C 0.75002 0.01592 0.17857 0.0
C285 C 0.78299 0.01858 0.1866 0.0
H286 H 0.83355 0.03245 0.18473 0.0
H287 H 0.76506 0.04302 0.14212 0.0
C288 C 0.85458 0.12587 0.13179 0.0
N289 N 0.84352 0.11522 0.14571 0.0
C290 C 0.84382 0.14517 0.12995 0.0
C291 C 0.81042 0.14202 0.15677 0.0
C292 C 0.82183 0.12285 0.15809 0.0
C293 C 0.82145 0.15349 0.14257 0.0
H294 H 0.87179 0.11937 0.12214 0.0
H295 H 0.81323 0.11399 0.16897 0.0
C296 C 0.87383 0.02306 0.14416 0.0
N297 N 0.85742 0.98707 0.13039 0.0
C298 C 0.89205 0.00655 0.14973 0.0
C299 C 0.84727 0.02125 0.13155 0.0
C300 C 0.88337 0.98849 0.14262 0.0
C301 C 0.83936 0.00294 0.12476 0.0
C302 C 0.941 0.08824 0.14223 0.0
C303 C 0.96768 0.07446 0.14011 0.0
C304 C 0.9498 0.10763 0.14535 0.0
C305 C 0.00287 0.08029 0.14134 0.0
C306 C 0.98531 0.11288 0.14645 0.0
N307 N 0.01088 0.09922 0.14446 0.0
C308 C 0.88499 0.05805 0.09466 0.0
C309 C 0.92409 0.03729 0.11002 0.0
C310 C 0.89763 0.0512 0.07861 0.0
N311 N 0.89833 0.05099 0.1099 0.0
C312 C 0.93742 0.03002 0.09433 0.0
C313 C 0.92416 0.03694 0.07833 0.0
H314 H 0.86454 0.06898 0.09499 0.0
H315 H 0.93432 0.032 0.12235 0.0
C316 C 0.9315 0.04413 0.18636 0.0
N317 N 0.93179 0.06202 0.17892 0.0
C318 C 0.9564 0.03917 0.19901 0.0
C319 C 0.98106 0.07138 0.19656 0.0
C320 C 0.95549 0.07575 0.18398 0.0
C321 C 0.98198 0.05279 0.20411 0.0
H322 H 0.91172 0.03368 0.1825 0.0
H323 H 0.95465 0.09008 0.17832 0.0
O324 O 0.83171 0.07006 0.13216 0.0
O325 O 0.85109 0.07684 0.17103 0.0
O326 O 0.88227 0.04082 0.15106 0.0
O327 O 0.90641 0.08287 0.14111 0.0
H328 H 0.78869 0.08242 0.15729 0.0
H329 H 0.79869 0.07268 0.10181 0.0
H330 H 0.72833 0.09503 0.15233 0.0
H331 H 0.73791 0.08532 0.09783 0.0
H332 H 0.90876 0.12204 0.20358 0.0
H333 H 0.84297 0.06029 0.20214 0.0
H334 H 0.88672 0.10956 0.17515 0.0
H335 H 0.86633 0.07346 0.23004 0.0
H336 H 0.71885 0.02281 0.15553 0.0
H337 H 0.78897 0.01208 0.19917 0.0
H338 H 0.85322 0.15353 0.11889 0.0
H339 H 0.79273 0.14772 0.16665 0.0
H340 H 0.91279 0.00768 0.15942 0.0
H341 H 0.83287 0.03379 0.12698 0.0
H342 H 0.89729 0.9756 0.14682 0.0
H343 H 0.81887 0.00135 0.11501 0.0
H344 H 0.96127 0.05939 0.13782 0.0
H345 H 0.9294 0.11847 0.14699 0.0
H346 H 0.02381 0.06976 0.13985 0.0
H347 H 0.99253 0.12782 0.14893 0.0
H348 H 0.88646 0.05681 0.06657 0.0
H349 H 0.95825 0.01928 0.09474 0.0
H350 H 0.95549 0.02484 0.20479 0.0
H351 H 0.00026 0.08234 0.20008 0.0
Li352 Li 0.84122 0.44371 0.65547 0.0
Li353 Li 0.89868 0.42996 0.66308 0.0
Li354 Li 0.88404 0.43745 0.63175 0.0
Li355 Li 0.85842 0.40947 0.64695 0.0
C356 C 0.88699 0.47524 0.65137 0.0
N357 N 0.88392 0.51529 0.64992 0.0
C358 C 0.9018 0.48642 0.66478 0.0
C359 C 0.87114 0.48447 0.63711 0.0
C360 C 0.89982 0.50663 0.66385 0.0
C361 C 0.86972 0.50471 0.63663 0.0
C362 C 0.85619 0.41621 0.68785 0.0
C363 C 0.88008 0.39506 0.71005 0.0
N364 N 0.86744 0.40714 0.72267 0.0
C365 C 0.8431 0.4283 0.70103 0.0
C366 C 0.87452 0.39935 0.69238 0.0
C367 C 0.84918 0.4235 0.71856 0.0
C368 C 0.77104 0.45768 0.65795 0.0
N369 N 0.8046 0.46009 0.66379 0.0
C370 C 0.78613 0.48504 0.68348 0.0
C371 C 0.81252 0.47341 0.67631 0.0
C372 C 0.75112 0.48286 0.67779 0.0
C373 C 0.74377 0.46905 0.66473 0.0
H374 H 0.76535 0.44671 0.64822 0.0
H375 H 0.8392 0.47458 0.68115 0.0
C376 C 0.96466 0.42091 0.67904 0.0
N377 N 0.93423 0.4312 0.68054 0.0
C378 C 0.99107 0.42277 0.69171 0.0
C379 C 0.95402 0.44555 0.70725 0.0
C380 C 0.92849 0.44331 0.69429 0.0
C381 C 0.98597 0.43533 0.706 0.0
H382 H 0.96866 0.41152 0.66788 0.0
H383 H 0.90421 0.45149 0.69501 0.0
C384 C 0.81466 0.4331 0.61801 0.0
N385 N 0.77638 0.43989 0.5878 0.0
C386 C 0.80783 0.41795 0.6063 0.0
C387 C 0.80136 0.45161 0.6145 0.0
C388 C 0.78862 0.4217 0.59105 0.0
C389 C 0.78225 0.45478 0.59912 0.0
C390 C 0.92234 0.39755 0.63534 0.0
C391 C 0.92845 0.39536 0.61739 0.0
C392 C 0.9299 0.38221 0.64672 0.0
C393 C 0.94145 0.37772 0.61108 0.0
C394 C 0.94282 0.36479 0.6399 0.0
N395 N 0.94824 0.36292 0.62237 0.0
C396 C 0.92902 0.46072 0.61164 0.0
C397 C 0.89129 0.441 0.59447 0.0
C398 C 0.94385 0.46881 0.5966 0.0
N399 N 0.90289 0.4473 0.61034 0.0
C400 C 0.90553 0.44861 0.57907 0.0
C401 C 0.93204 0.4628 0.58003 0.0
H402 H 0.93838 0.46516 0.62441 0.0
H403 H 0.87133 0.4299 0.59372 0.0
C404 C 0.82232 0.37613 0.65802 0.0
N405 N 0.84095 0.38365 0.64441 0.0
C406 C 0.80896 0.3573 0.65711 0.0
C407 C 0.83364 0.35431 0.62806 0.0
C408 C 0.84651 0.37323 0.62953 0.0
C409 C 0.81467 0.34608 0.64201 0.0
H410 H 0.8176 0.38482 0.66956 0.0
H411 H 0.86086 0.3796 0.61876 0.0
O412 O 0.8885 0.45541 0.65215 0.0
O413 O 0.85103 0.42083 0.6706 0.0
O414 O 0.83332 0.42963 0.63304 0.0
O415 O 0.9095 0.41469 0.64174 0.0
H416 H 0.91458 0.47957 0.67582 0.0
H417 H 0.86047 0.4761 0.6264 0.0
H418 H 0.91097 0.51544 0.67419 0.0
H419 H 0.85747 0.51201 0.62566 0.0
H420 H 0.89442 0.38211 0.71374 0.0
H421 H 0.82857 0.4413 0.69779 0.0
H422 H 0.88438 0.3897 0.68237 0.0
H423 H 0.83941 0.4328 0.72889 0.0
H424 H 0.79292 0.49514 0.69381 0.0
H425 H 0.7172 0.46693 0.6599 0.0
H426 H 0.01525 0.41456 0.69029 0.0
H427 H 0.94921 0.45567 0.71784 0.0
H428 H 0.81749 0.40349 0.60887 0.0
H429 H 0.80531 0.46338 0.62364 0.0
H430 H 0.78342 0.41014 0.58182 0.0
H431 H 0.77193 0.46906 0.59623 0.0
H432 H 0.92305 0.4071 0.60841 0.0
H433 H 0.92581 0.38372 0.66065 0.0
H434 H 0.9461 0.3758 0.59721 0.0
H435 H 0.94857 0.35277 0.64855 0.0
H436 H 0.96471 0.47944 0.59792 0.0
H437 H 0.89564 0.44357 0.56656 0.0
H438 H 0.79388 0.3517 0.66804 0.0
H439 H 0.83885 0.34616 0.61621 0.0
Li440 Li 0.59751 0.06653 0.66371 0.0
Li441 Li 0.65615 0.05483 0.65564 0.0
Li442 Li 0.63724 0.08784 0.64857 0.0
Li443 Li 0.6129 0.05989 0.63322 0.0
C444 C 0.63868 0.07776 0.68942 0.0
N445 N 0.62522 0.07983 0.72496 0.0
C446 C 0.65283 0.06389 0.70079 0.0
C447 C 0.61783 0.09275 0.69616 0.0
C448 C 0.64572 0.06519 0.71871 0.0
C449 C 0.61126 0.09351 0.71415 0.0
C450 C 0.59209 0.0267 0.6458 0.0
C451 C 0.58847 0.9989 0.62668 0.0
N452 N 0.55307 0.9981 0.62944 0.0
C453 C 0.55569 0.02557 0.64848 0.0
C454 C 0.60867 0.01322 0.63486 0.0
C455 C 0.53644 0.011 0.64009 0.0
C456 C 0.53256 0.07519 0.68108 0.0
N457 N 0.56198 0.06393 0.68104 0.0
C458 C 0.54235 0.04688 0.70643 0.0
C459 C 0.56711 0.04986 0.69323 0.0
C460 C 0.51166 0.05825 0.70685 0.0
C461 C 0.50679 0.07253 0.69395 0.0
H462 H 0.52897 0.08609 0.67106 0.0
H463 H 0.59046 0.04087 0.69262 0.0
C464 C 0.7241 0.04848 0.66935 0.0
N465 N 0.69423 0.03944 0.66387 0.0
C466 C 0.75127 0.03781 0.67704 0.0
C467 C 0.71646 0.00872 0.67323 0.0
C468 C 0.69003 0.01995 0.66554 0.0
C469 C 0.74738 0.01769 0.67932 0.0
H470 H 0.72631 0.06408 0.66825 0.0
H471 H 0.66573 0.0132 0.66139 0.0
C472 C 0.57646 0.09991 0.63666 0.0
N473 N 0.55843 0.13601 0.62372 0.0
C474 C 0.57525 0.10309 0.61859 0.0
C475 C 0.56833 0.11505 0.64816 0.0
C476 C 0.56607 0.12145 0.61231 0.0
C477 C 0.55936 0.13321 0.64136 0.0
C478 C 0.69673 0.06551 0.6298 0.0
C479 C 0.72191 0.08 0.63259 0.0
C480 C 0.70749 0.04711 0.62422 0.0
C481 C 0.75751 0.0758 0.62979 0.0
C482 C 0.74335 0.04349 0.62161 0.0
N483 N 0.7674 0.05779 0.62443 0.0
C484 C 0.66013 0.12446 0.66066 0.0
C485 C 0.65645 0.12165 0.62977 0.0
C486 C 0.67169 0.1436 0.65922 0.0
N487 N 0.65259 0.11398 0.64606 0.0
C488 C 0.66796 0.14076 0.62771 0.0
C489 C 0.67574 0.15201 0.64257 0.0
H490 H 0.65757 0.1179 0.67343 0.0
H491 H 0.6507 0.11287 0.61838 0.0
C492 C 0.55877 0.05059 0.60958 0.0
N493 N 0.59434 0.05054 0.61169 0.0
C494 C 0.54371 0.04298 0.59438 0.0
C495 C 0.60224 0.03557 0.58376 0.0
C496 C 0.61615 0.04342 0.59914 0.0
C497 C 0.56551 0.03521 0.58125 0.0
H498 H 0.5421 0.05643 0.6198 0.0
H499 H 0.64432 0.04358 0.60116 0.0
O500 O 0.64478 0.07654 0.67179 0.0
O501 O 0.61126 0.04119 0.65349 0.0
O502 O 0.58605 0.08215 0.64308 0.0
O503 O 0.66179 0.06925 0.63269 0.0
H504 H 0.66881 0.05212 0.69584 0.0
H505 H 0.60634 0.10349 0.68755 0.0
H506 H 0.65637 0.05451 0.72764 0.0
H507 H 0.59495 0.10494 0.71951 0.0
H508 H 0.60091 0.98848 0.61807 0.0
H509 H 0.54236 0.03597 0.65678 0.0
H510 H 0.63675 0.01403 0.63247 0.0
H511 H 0.50823 0.01002 0.64197 0.0
H512 H 0.54674 0.03547 0.71594 0.0
H513 H 0.48339 0.08155 0.69384 0.0
H514 H 0.77437 0.04537 0.68184 0.0
H515 H 0.71249 0.99324 0.67467 0.0
H516 H 0.58174 0.09158 0.60951 0.0
H517 H 0.56937 0.11288 0.66218 0.0
H518 H 0.56518 0.12414 0.59836 0.0
H519 H 0.55324 0.1451 0.6501 0.0
H520 H 0.71414 0.09428 0.63701 0.0
H521 H 0.68845 0.03564 0.62226 0.0
H522 H 0.77728 0.08686 0.63195 0.0
H523 H 0.75206 0.02928 0.61743 0.0
H524 H 0.67807 0.1516 0.67101 0.0
H525 H 0.67051 0.1467 0.61463 0.0
H526 H 0.51533 0.04331 0.59291 0.0
H527 H 0.62005 0.02954 0.57411 0.0
Li528 Li 0.38323 0.55719 0.86381 0.0
Li529 Li 0.35944 0.58582 0.84992 0.0
Li530 Li 0.34411 0.55302 0.84015 0.0
Li531 Li 0.40202 0.56582 0.83407 0.0
C532 C 0.32345 0.56463 0.87999 0.0
N533 N 0.30623 0.5628 0.91513 0.0
C534 C 0.32312 0.5815 0.89017 0.0
C535 C 0.31458 0.54687 0.88765 0.0
C536 C 0.31442 0.58026 0.90791 0.0
C537 C 0.30611 0.54623 0.90545 0.0
C538 C 0.44379 0.58035 0.86149 0.0
C539 C 0.49629 0.59619 0.87217 0.0
N540 N 0.51317 0.57878 0.87251 0.0
C541 C 0.4617 0.5626 0.86194 0.0
C542 C 0.46121 0.59728 0.86666 0.0
C543 C 0.49674 0.56212 0.86756 0.0
C544 C 0.40858 0.52822 0.88706 0.0
N545 N 0.39941 0.54723 0.8857 0.0
C546 C 0.41611 0.55296 0.91544 0.0
C547 C 0.40321 0.55965 0.89941 0.0
C548 C 0.4258 0.5334 0.91722 0.0
C549 C 0.42189 0.52096 0.90278 0.0
H550 H 0.40615 0.51876 0.87586 0.0
H551 H 0.39664 0.57481 0.89781 0.0
C552 C 0.31151 0.61611 0.84448 0.0
N553 N 0.3423 0.61148 0.85254 0.0
C554 C 0.29807 0.63492 0.84565 0.0
C555 C 0.34819 0.64376 0.86354 0.0
C556 C 0.36072 0.62477 0.86197 0.0
C557 C 0.31648 0.64906 0.85526 0.0
H558 H 0.29758 0.6052 0.837 0.0
H559 H 0.38504 0.62059 0.86831 0.0
C560 C 0.38181 0.52145 0.83825 0.0
N561 N 0.36305 0.48468 0.82714 0.0
C562 C 0.39565 0.51392 0.8227 0.0
C563 C 0.35896 0.5101 0.84831 0.0
C564 C 0.38573 0.49535 0.81727 0.0
C565 C 0.34962 0.4916 0.84243 0.0
C566 C 0.36181 0.5906 0.81396 0.0
C567 C 0.34113 0.59195 0.79886 0.0
C568 C 0.38793 0.60448 0.81715 0.0
C569 C 0.34687 0.60723 0.78718 0.0
C570 C 0.39283 0.61954 0.80516 0.0
N571 N 0.37237 0.62059 0.79055 0.0
C572 C 0.28013 0.53117 0.83895 0.0
C573 C 0.3112 0.53464 0.81217 0.0
C574 C 0.25396 0.52027 0.83062 0.0
N575 N 0.30795 0.53806 0.82962 0.0
C576 C 0.28563 0.52392 0.80332 0.0
C577 C 0.25642 0.51667 0.81254 0.0
H578 H 0.27821 0.53421 0.8528 0.0
H579 H 0.33373 0.5403 0.80515 0.0
C580 C 0.47092 0.5725 0.81824 0.0
N581 N 0.4374 0.56582 0.81623 0.0
C582 C 0.49556 0.57016 0.80479 0.0
C583 C 0.45013 0.55538 0.78706 0.0
C584 C 0.42647 0.55798 0.80082 0.0
C585 C 0.48545 0.56104 0.7891 0.0
H586 H 0.47894 0.57932 0.8303 0.0
H587 H 0.39943 0.55324 0.79942 0.0
O588 O 0.33244 0.56552 0.86264 0.0
O589 O 0.40921 0.58124 0.8564 0.0
O590 O 0.39062 0.53979 0.84362 0.0
O591 O 0.3564 0.57568 0.82547 0.0
H592 H 0.32982 0.59537 0.8845 0.0
H593 H 0.31446 0.53369 0.88 0.0
H594 H 0.31429 0.59318 0.91596 0.0
H595 H 0.29946 0.53256 0.91156 0.0
H596 H 0.51009 0.60918 0.87619 0.0
H597 H 0.44889 0.54934 0.85793 0.0
H598 H 0.44779 0.61113 0.86642 0.0
H599 H 0.51089 0.54849 0.86796 0.0
H600 H 0.41927 0.56308 0.92618 0.0
H601 H 0.42898 0.50577 0.90364 0.0
H602 H 0.27385 0.63841 0.83883 0.0
H603 H 0.36301 0.6541 0.87127 0.0
H604 H 0.414 0.52224 0.81494 0.0
H605 H 0.34817 0.51561 0.86041 0.0
H606 H 0.39612 0.4894 0.80521 0.0
H607 H 0.33165 0.48277 0.85001 0.0
H608 H 0.32086 0.58128 0.79621 0.0
H609 H 0.40426 0.60367 0.82873 0.0
H610 H 0.33104 0.60846 0.77545 0.0
H611 H 0.41291 0.63039 0.80746 0.0
H612 H 0.23167 0.51511 0.83816 0.0
H613 H 0.28874 0.52128 0.78942 0.0
H614 H 0.5225 0.57479 0.80692 0.0
H615 H 0.44097 0.54872 0.77504 0.0
Li616 Li 0.11516 0.93755 0.86574 0.0
Li617 Li 0.13933 0.90745 0.84916 0.0
Li618 Li 0.15537 0.94072 0.84125 0.0
Li619 Li 0.09845 0.92985 0.83548 0.0
C620 C 0.1972 0.93337 0.86836 0.0
N621 N 0.26433 0.94615 0.87629 0.0
C622 C 0.2264 0.92509 0.86008 0.0
C623 C 0.20209 0.94804 0.88077 0.0
C624 C 0.26014 0.9318 0.86423 0.0
C625 C 0.23627 0.95432 0.88458 0.0
C626 C 0.05742 0.90677 0.85362 0.0
C627 C 0.0187 0.88225 0.84191 0.0
N628 N 0.99044 0.89356 0.84596 0.0
C629 C 0.02803 0.91811 0.85776 0.0
C630 C 0.0528 0.88868 0.84568 0.0
C631 C 0.99437 0.91119 0.85374 0.0
C632 C 0.07211 0.96046 0.88678 0.0
N633 N 0.09863 0.94723 0.88737 0.0
C634 C 0.09936 0.94832 0.91864 0.0
C635 C 0.11233 0.941 0.90282 0.0
C636 C 0.07208 0.96215 0.91845 0.0
C637 C 0.05844 0.96819 0.90223 0.0
H638 H 0.06158 0.96498 0.87426 0.0
H639 H 0.13333 0.93037 0.90285 0.0
C640 C 0.1841 0.87617 0.84215 0.0
N641 N 0.15582 0.88171 0.85184 0.0
C642 C 0.19748 0.85739 0.84363 0.0
C643 C 0.1525 0.8504 0.86517 0.0
C644 C 0.13998 0.86936 0.86326 0.0
C645 C 0.18167 0.8442 0.85527 0.0
H646 H 0.19604 0.88632 0.83312 0.0
H647 H 0.11766 0.87427 0.8709 0.0
C648 C 0.12006 0.97371 0.84195 0.0
N649 N 0.13917 0.01144 0.83424 0.0
C650 C 0.12205 0.97987 0.82453 0.0
C651 C 0.12744 0.98679 0.85546 0.0
C652 C 0.1319 0.99897 0.8209 0.0
C653 C 0.1371 0.0058 0.85129 0.0
C654 C 0.13334 0.91263 0.80946 0.0
C655 C 0.12908 0.92591 0.79577 0.0
C656 C 0.1281 0.89285 0.80633 0.0
C657 C 0.11931 0.91918 0.7792 0.0
C658 C 0.11845 0.88669 0.78956 0.0
N659 N 0.11425 0.89988 0.77647 0.0
C660 C 0.20606 0.95062 0.81612 0.0
C661 C 0.2074 0.97141 0.84082 0.0
C662 C 0.23205 0.96157 0.80786 0.0
N663 N 0.19376 0.95586 0.83215 0.0
C664 C 0.23373 0.98271 0.8331 0.0
C665 C 0.24591 0.97799 0.81627 0.0
H666 H 0.19549 0.93799 0.80963 0.0
H667 H 0.19749 0.97527 0.8536 0.0
C668 C 0.04274 0.94988 0.81994 0.0
N669 N 0.05867 0.93221 0.81998 0.0
C670 C 0.01462 0.95362 0.80871 0.0
C671 C 0.01879 0.92071 0.798 0.0
C672 C 0.04669 0.91754 0.80962 0.0
C673 C 0.00261 0.93902 0.79738 0.0
H674 H 0.05201 0.96119 0.82857 0.0
H675 H 0.05883 0.9034 0.81024 0.0
O676 O 0.16395 0.92718 0.86433 0.0
O677 O 0.09059 0.91348 0.85708 0.0
O678 O 0.11069 0.95502 0.84575 0.0
O679 O 0.14317 0.91893 0.82575 0.0
H680 H 0.22301 0.91377 0.85042 0.0
H681 H 0.17973 0.95467 0.88722 0.0
H682 H 0.28299 0.92562 0.85785 0.0
H683 H 0.24047 0.96574 0.89408 0.0
H684 H 0.0147 0.86832 0.83568 0.0
H685 H 0.03123 0.93219 0.86383 0.0
H686 H 0.07532 0.87981 0.84227 0.0
H687 H 0.97138 0.91985 0.85676 0.0
H688 H 0.1108 0.94339 0.93085 0.0
H689 H 0.03704 0.97857 0.90148 0.0
H690 H 0.21963 0.85316 0.83553 0.0
H691 H 0.13978 0.8408 0.87444 0.0
H692 H 0.1162 0.96996 0.81394 0.0
H693 H 0.12625 0.98225 0.86901 0.0
H694 H 0.13376 0.0039 0.80748 0.0
H695 H 0.14312 0.01605 0.8616 0.0
H696 H 0.13312 0.94125 0.79794 0.0
H697 H 0.13098 0.88236 0.81676 0.0
H698 H 0.11575 0.9293 0.76852 0.0
H699 H 0.11414 0.87144 0.78698 0.0
H700 H 0.24129 0.95721 0.79502 0.0
H701 H 0.24378 0.99527 0.84001 0.0
H702 H 0.00298 0.96797 0.80859 0.0
H703 H 0.0099 0.90898 0.78965 0.0
H704 H 0.2277 0.48763 0.29068 0.0
H705 H 0.27206 0.46973 0.27392 0.0
H706 H 0.35469 0.49859 0.30272 0.0
H707 H 0.3105 0.51643 0.31958 0.0
H708 H 0.32082 0.48623 0.25263 0.0
H709 H 0.38823 0.44274 0.30365 0.0
H710 H 0.34609 0.45425 0.3073 0.0
H711 H 0.38618 0.4681 0.30891 0.0
C712 C 0.25534 0.49002 0.29354 0.0
C713 C 0.26566 0.50346 0.30641 0.0
C714 C 0.28061 0.47972 0.28402 0.0
C715 C 0.31666 0.48263 0.28722 0.0
C716 C 0.32703 0.49574 0.30033 0.0
H717 H 0.51123 0.4606 0.23404 0.0
H718 H 0.4641 0.46951 0.2543 0.0
C719 C 0.30175 0.50597 0.30993 0.0
C720 C 0.34334 0.47337 0.27578 0.0
H721 H 0.41822 0.44584 0.27615 0.0
C722 C 0.34184 0.47717 0.25773 0.0
C723 C 0.37078 0.46161 0.2825 0.0
C724 C 0.37279 0.45626 0.30163 0.0
C725 C 0.36771 0.47009 0.24628 0.0
C726 C 0.39555 0.4587 0.25305 0.0
C727 C 0.39678 0.45459 0.27104 0.0
C728 C 0.42451 0.45177 0.2417 0.0
C729 C 0.36578 0.47545 0.22713 0.0
C730 C 0.41796 0.43847 0.22817 0.0
C731 C 0.4449 0.43325 0.2166 0.0
C732 C 0.47887 0.4412 0.21841 0.0
C733 C 0.48553 0.45401 0.23238 0.0
C734 C 0.4586 0.4592 0.24394 0.0
H735 H 0.34667 0.48736 0.22467 0.0
H736 H 0.39207 0.47999 0.22221 0.0
H737 H 0.35726 0.4626 0.21946 0.0
H738 H 0.39188 0.43237 0.22641 0.0
H739 H 0.43906 0.42311 0.20615 0.0
H740 H 0.01754 0.01843 0.20644 0.0
H741 H 0.06234 0.00914 0.22776 0.0
H742 H 0.05573 0.06576 0.2516 0.0
H743 H 0.00961 0.07496 0.23072 0.0
H744 H 0.12703 0.02544 0.23327 0.0
H745 H 0.04534 0.02953 0.29359 0.0
H746 H 0.02639 0.0297 0.2719 0.0
H747 H 0.04617 0.05131 0.28066 0.0
C748 C 0.02513 0.02884 0.21639 0.0
C749 C 0.00971 0.04739 0.21697 0.0
C750 C 0.05097 0.02354 0.22847 0.0
C751 C 0.06201 0.03666 0.2414 0.0
C752 C 0.0471 0.05529 0.24193 0.0
H753 H 0.25529 0.01436 0.30083 0.0
H754 H 0.20974 0.03017 0.28312 0.0
C755 C 0.02107 0.0606 0.22985 0.0
C756 C 0.08977 0.03078 0.25398 0.0
H757 H 0.10585 0.02235 0.29734 0.0
C758 C 0.12249 0.02485 0.2473 0.0
C759 C 0.08357 0.02986 0.27224 0.0
C760 C 0.04839 0.03527 0.28007 0.0
C761 C 0.14909 0.01775 0.25832 0.0
C762 C 0.14306 0.017 0.2766 0.0
C763 C 0.11046 0.02313 0.28333 0.0
C764 C 0.16955 0.00878 0.28877 0.0
C765 C 0.18288 0.01043 0.25022 0.0
C766 C 0.16153 0.99204 0.29845 0.0
C767 C 0.18738 0.98309 0.30867 0.0
C768 C 0.22172 0.99072 0.30937 0.0
C769 C 0.22922 0.00798 0.30029 0.0
C770 C 0.20327 0.017 0.29016 0.0
H771 H 0.17994 0.00773 0.23594 0.0
H772 H 0.20386 0.02147 0.25201 0.0
H773 H 0.19167 0.99678 0.25659 0.0
H774 H 0.13561 0.98551 0.29758 0.0
H775 H 0.18089 0.96974 0.31543 0.0
H776 H 0.72512 0.50604 0.21355 0.0
H777 H 0.76908 0.52369 0.23078 0.0
H778 H 0.84947 0.5077 0.19348 0.0
H779 H 0.80539 0.49039 0.17602 0.0
H780 H 0.82371 0.50763 0.24661 0.0
H781 H 0.873 0.56399 0.20121 0.0
H782 H 0.83304 0.55051 0.19709 0.0
H783 H 0.87533 0.54017 0.19181 0.0
C784 C 0.7521 0.50654 0.20893 0.0
C785 C 0.76194 0.49682 0.1935 0.0
C786 C 0.77714 0.51667 0.21873 0.0
C787 C 0.81251 0.51721 0.21333 0.0
C788 C 0.8222 0.50792 0.19767 0.0
H789 H 0.99333 0.5241 0.28008 0.0
H790 H 0.94537 0.51531 0.2604 0.0
C791 C 0.79705 0.49795 0.18775 0.0
C792 C 0.83972 0.52571 0.22499 0.0
H793 H 0.90964 0.55692 0.22616 0.0
C794 C 0.8422 0.51858 0.24217 0.0
C795 C 0.86361 0.54017 0.21931 0.0
C796 C 0.86091 0.5493 0.2014 0.0
C797 C 0.86859 0.52501 0.25363 0.0
C798 C 0.89377 0.53858 0.2476 0.0
C799 C 0.89058 0.54629 0.23066 0.0
C800 C 0.92417 0.54439 0.25858 0.0
C801 C 0.86922 0.51718 0.27209 0.0
C802 C 0.92899 0.56382 0.26353 0.0
C803 C 0.95688 0.56899 0.27459 0.0
C804 C 0.9805 0.55481 0.28081 0.0
C805 C 0.97597 0.53545 0.27541 0.0
C806 C 0.94826 0.53033 0.26433 0.0
H807 H 0.84287 0.51177 0.27615 0.0
H808 H 0.88797 0.50484 0.27279 0.0
H809 H 0.8779 0.52845 0.28156 0.0
H810 H 0.91081 0.5749 0.25909 0.0
H811 H 0.95992 0.58407 0.27827 0.0
H812 H 0.68027 0.02518 0.18164 0.0
H813 H 0.63576 0.00881 0.19948 0.0
H814 H 0.71187 0.9652 0.214 0.0
H815 H 0.7566 0.98147 0.19615 0.0
H816 H 0.60844 0.97035 0.20004 0.0
H817 H 0.68111 0.98923 0.26102 0.0
H818 H 0.69132 9e-05 0.24013 0.0
H819 H 0.70589 0.97588 0.24499 0.0
C820 C 0.68737 0.0119 0.18835 0.0
C821 C 0.72205 0.00472 0.18764 0.0
C822 C 0.66194 0.0026 0.19858 0.0
C823 C 0.67074 0.98601 0.20827 0.0
C824 C 0.70479 0.97822 0.20688 0.0
H825 H 0.51659 0.91971 0.27016 0.0
H826 H 0.56262 0.92825 0.24894 0.0
C827 C 0.73028 0.98753 0.1967 0.0
C828 C 0.64484 0.97764 0.22064 0.0
H829 H 0.62866 0.97136 0.26425 0.0
C830 C 0.61288 0.9704 0.21407 0.0
C831 C 0.6507 0.97798 0.23895 0.0
C832 C 0.68395 0.98634 0.24678 0.0
C833 C 0.58638 0.96364 0.22538 0.0
C834 C 0.59228 0.964 0.24367 0.0
C835 C 0.62441 0.971 0.2502 0.0
C836 C 0.56455 0.95854 0.25636 0.0
C837 C 0.55184 0.95683 0.21775 0.0
C838 C 0.551 0.97264 0.26775 0.0
C839 C 0.52504 0.96781 0.27992 0.0
C840 C 0.51218 0.94871 0.281 0.0
C841 C 0.52609 0.93452 0.26969 0.0
C842 C 0.55209 0.9394 0.25746 0.0
H843 H 0.54913 0.96082 0.20371 0.0
H844 H 0.55022 0.9408 0.21881 0.0
H845 H 0.52931 0.9631 0.22512 0.0
H846 H 0.56048 0.98746 0.26718 0.0
H847 H 0.51534 0.979 0.28864 0.0
H848 H 0.4911 0.52761 0.77018 0.0
H849 H 0.53611 0.51904 0.74872 0.0
H850 H 0.58509 0.57499 0.75559 0.0
H851 H 0.53984 0.5838 0.77712 0.0
H852 H 0.55584 0.53711 0.71702 0.0
H853 H 0.66526 0.53635 0.76566 0.0
H854 H 0.61949 0.53672 0.77211 0.0
H855 H 0.64027 0.55846 0.76429 0.0
C856 C 0.5111 0.53824 0.76696 0.0
C857 C 0.5119 0.5564 0.77538 0.0
C858 C 0.5369 0.53327 0.75474 0.0
C859 C 0.56412 0.54629 0.75073 0.0
C860 C 0.56462 0.56461 0.75875 0.0
H861 H 0.75185 0.52111 0.68777 0.0
H862 H 0.70608 0.53878 0.70382 0.0
C863 C 0.53879 0.56961 0.77104 0.0
C864 C 0.59229 0.54025 0.73847 0.0
H865 H 0.67949 0.52818 0.73663 0.0
C866 C 0.58295 0.53531 0.72124 0.0
C867 C 0.62763 0.53797 0.74403 0.0
C868 C 0.6389 0.5425 0.76255 0.0
C869 C 0.60791 0.52777 0.7095 0.0
C870 C 0.64294 0.52485 0.71526 0.0
C871 C 0.65258 0.53045 0.73227 0.0
C872 C 0.66943 0.51475 0.70432 0.0
C873 C 0.59653 0.52288 0.69109 0.0
C874 C 0.66395 0.49539 0.69933 0.0
C875 C 0.69009 0.48522 0.6903 0.0
C876 C 0.72234 0.49419 0.68616 0.0
C877 C 0.72748 0.51372 0.69093 0.0
C878 C 0.70131 0.52387 0.7 0.0
H879 H 0.57262 0.53116 0.68722 0.0
H880 H 0.61788 0.52595 0.68154 0.0
H881 H 0.5901 0.50719 0.69035 0.0
H882 H 0.63988 0.48794 0.70292 0.0
H883 H 0.6855 0.47011 0.68715 0.0
H884 H 0.73629 0.99014 0.70441 0.0
H885 H 0.7804 0.97397 0.72263 0.0
H886 H 0.86329 0.00374 0.69486 0.0
H887 H 0.81926 0.02003 0.67654 0.0
H888 H 0.83891 0.95024 0.71511 0.0
H889 H 0.87809 0.01999 0.74605 0.0
H890 H 0.83897 0.01761 0.73278 0.0
H891 H 0.88153 0.01957 0.72259 0.0
C892 C 0.76393 0.99299 0.70195 0.0
C893 C 0.77431 0.00647 0.68912 0.0
C894 C 0.78908 0.98378 0.71242 0.0
C895 C 0.82501 0.9879 0.71026 0.0
C896 C 0.8356 0.00067 0.69694 0.0
H897 H 0.00053 0.92987 0.76256 0.0
H898 H 0.95653 0.94018 0.74098 0.0
C899 C 0.81046 0.00995 0.68651 0.0
C900 C 0.85111 0.97961 0.72258 0.0
H901 H 0.91045 0.99218 0.75419 0.0
C902 C 0.85465 0.95936 0.72365 0.0
C903 C 0.87114 0.99159 0.73386 0.0
C904 C 0.86713 0.01339 0.73394 0.0
C905 C 0.87791 0.95076 0.73569 0.0
C906 C 0.89839 0.96278 0.74674 0.0
C907 C 0.89479 0.98301 0.74565 0.0
C908 C 0.92328 0.95483 0.75986 0.0
C909 C 0.8797 0.92893 0.73679 0.0
C910 C 0.9192 0.95966 0.7776 0.0
C911 C 0.94436 0.95393 0.78989 0.0
C912 C 0.97412 0.94325 0.78466 0.0
C913 C 0.97761 0.93787 0.76698 0.0
C914 C 0.95249 0.94373 0.75465 0.0
H915 H 0.85623 0.92198 0.73075 0.0
H916 H 0.90342 0.92377 0.72967 0.0
H917 H 0.8818 0.92405 0.75062 0.0
H918 H 0.89684 0.96822 0.78188 0.0
H919 H 0.94082 0.9581 0.80346 0.0
H920 H 0.22662 0.5257 0.78108 0.0
H921 H 0.17994 0.50827 0.76561 0.0
H922 H 0.17529 0.46619 0.80733 0.0
H923 H 0.22257 0.48344 0.82285 0.0
H924 H 0.17679 0.45055 0.7715 0.0
H925 H 0.07462 0.50713 0.78164 0.0
H926 H 0.1157 0.51607 0.77314 0.0
H927 H 0.11421 0.50575 0.79474 0.0
C928 C 0.21589 0.51265 0.78691 0.0
C929 C 0.22823 0.50594 0.80319 0.0
C930 C 0.18904 0.50281 0.77813 0.0
C931 C 0.174 0.4861 0.78545 0.0
C932 C 0.18651 0.47915 0.80156 0.0
H933 H 0.97958 0.43893 0.74158 0.0
H934 H 0.02536 0.44846 0.76248 0.0
C935 C 0.21331 0.48906 0.81043 0.0
C936 C 0.14519 0.47599 0.77613 0.0
H937 H 0.06201 0.48284 0.76037 0.0
C938 C 0.15151 0.45746 0.7692 0.0
C939 C 0.11217 0.48498 0.7734 0.0
C940 C 0.10351 0.50451 0.78125 0.0
C941 C 0.12604 0.44801 0.75892 0.0
C942 C 0.09371 0.45748 0.75541 0.0
C943 C 0.08691 0.47565 0.76298 0.0
C944 C 0.06715 0.44937 0.74321 0.0
C945 C 0.13401 0.42805 0.75184 0.0
C946 C 0.07558 0.44655 0.7255 0.0
C947 C 0.04947 0.4412 0.71352 0.0
C948 C 0.01438 0.43873 0.71903 0.0
C949 C 0.00628 0.44096 0.7369 0.0
C950 C 0.03241 0.44629 0.74886 0.0
H951 H 0.15455 0.42061 0.75975 0.0
H952 H 0.10995 0.41888 0.75157 0.0
H953 H 0.14403 0.4294 0.73824 0.0
H954 H 0.10204 0.44929 0.72078 0.0
H955 H 0.05647 0.43991 0.69982 0.0
H956 H 0.30755 0.99226 0.82975 0.0
H957 H 0.35334 0.01057 0.81413 0.0
H958 H 0.29045 0.009 0.76708 0.0
H959 H 0.24464 0.9909 0.78258 0.0
H960 H 0.38782 0.99602 0.78289 0.0
H961 H 0.3216 0.06673 0.77161 0.0
H962 H 0.30782 0.04999 0.7885 0.0
H963 H 0.29555 0.04583 0.76607 0.0
C964 C 0.30331 0.99612 0.81616 0.0
C965 C 0.27266 0.99011 0.80734 0.0
C966 C 0.32944 0.00651 0.80727 0.0
C967 C 0.325 0.0113 0.78954 0.0
C968 C 0.29409 0.0057 0.78084 0.0
H969 H 0.44076 0.05447 0.7019 0.0
H970 H 0.39658 0.04473 0.72356 0.0
C971 C 0.26814 0.99519 0.78965 0.0
C972 C 0.35376 0.02071 0.77962 0.0
H973 H 0.37308 0.06032 0.7546 0.0
C974 C 0.38493 0.0102 0.7769 0.0
C975 C 0.34961 0.03913 0.77177 0.0
C976 C 0.31697 0.05119 0.77472 0.0
C977 C 0.41156 0.01726 0.76587 0.0
C978 C 0.4072 0.03557 0.75773 0.0
C979 C 0.37637 0.04631 0.76086 0.0
C980 C 0.43347 0.04326 0.74516 0.0
C981 C 0.44327 0.00458 0.76236 0.0
C982 C 0.4686 0.04625 0.75026 0.0
C983 C 0.49389 0.05165 0.73789 0.0
C984 C 0.48434 0.05447 0.72028 0.0
C985 C 0.44881 0.05249 0.7154 0.0
C986 C 0.42359 0.04689 0.72774 0.0
H987 H 0.4384 0.98923 0.76607 0.0
H988 H 0.4508 0.00506 0.74832 0.0
H989 H 0.46591 0.00991 0.77022 0.0
H990 H 0.4766 0.04403 0.76373 0.0
H991 H 0.52102 0.0534 0.74204 0.0
H992 H 0.05727 0.55954 0.44868 0.0
H993 H 0.0351 0.54748 0.47675 0.0
H994 H 0.04619 0.48862 0.45838 0.0
H995 H 0.06959 0.50048 0.43059 0.0
H996 H 0.97573 0.52521 0.48251 0.0
H997 H 0.09512 0.48656 0.50573 0.0
H998 H 0.0962 0.50374 0.4879 0.0
H999 H 0.08138 0.47928 0.48421 0.0
C1000 C 0.0556 0.54402 0.45073 0.0
C1001 C 0.0653 0.53097 0.4374 0.0
C1002 C 0.0427 0.53717 0.46673 0.0
C1003 C 0.03948 0.51716 0.46973 0.0
C1004 C 0.04911 0.50411 0.45647 0.0
H1005 H 0.95163 0.44367 0.55018 0.0
H1006 H 0.97721 0.45758 0.52354 0.0
C1007 C 0.06206 0.51093 0.4405 0.0
C1008 C 0.0246 0.50991 0.48643 0.0
H1009 H 0.04166 0.48004 0.5211 0.0
C1010 C 0.99023 0.51548 0.49104 0.0
C1011 C 0.04362 0.49721 0.49751 0.0
C1012 C 0.08125 0.49148 0.4937 0.0
C1013 C 0.97399 0.50826 0.50622 0.0
C1014 C 0.99281 0.49532 0.51712 0.0
C1015 C 0.02729 0.48991 0.51263 0.0
C1016 C 0.97703 0.48709 0.53319 0.0
C1017 C 0.93652 0.51411 0.51024 0.0
C1018 C 0.96877 0.4991 0.54745 0.0
C1019 C 0.95412 0.49122 0.56265 0.0
C1020 C 0.9475 0.47118 0.56386 0.0
C1021 C 0.95597 0.45919 0.54955 0.0
C1022 C 0.97077 0.46708 0.53439 0.0
H1023 H 0.92333 0.52083 0.49875 0.0
H1024 H 0.92084 0.50137 0.51454 0.0
H1025 H 0.93655 0.52485 0.52108 0.0
H1026 H 0.97384 0.51455 0.54683 0.0
H1027 H 0.94765 0.50084 0.5734 0.0
H1028 H 0.38925 0.96107 0.45197 0.0
H1029 H 0.41212 0.97308 0.47997 0.0
H1030 H 0.51218 0.98537 0.45568 0.0
H1031 H 0.49012 0.97289 0.4278 0.0
H1032 H 0.48087 0.96001 0.49826 0.0
H1033 H 0.47383 0.03787 0.47919 0.0
H1034 H 0.44719 0.01941 0.46881 0.0
H1035 H 0.49317 0.02139 0.46361 0.0
C1036 C 0.41627 0.96608 0.45262 0.0
C1037 C 0.43776 0.96614 0.43758 0.0
C1038 C 0.42919 0.97302 0.4686 0.0
C1039 C 0.46363 0.98027 0.46976 0.0
C1040 C 0.48535 0.98005 0.45492 0.0
H1041 H 0.59019 0.03819 0.54762 0.0
H1042 H 0.56515 0.02391 0.52111 0.0
C1043 C 0.47259 0.97301 0.439 0.0
C1044 C 0.47701 0.98825 0.48643 0.0
H1045 H 0.50135 0.03059 0.50614 0.0
C1046 C 0.48519 0.97543 0.50009 0.0
C1047 C 0.48269 0.00835 0.48862 0.0
C1048 C 0.47361 0.02266 0.47436 0.0
C1049 C 0.49984 0.9822 0.51585 0.0
C1050 C 0.50556 0.00235 0.51807 0.0
C1051 C 0.49697 0.01515 0.50441 0.0
C1052 C 0.52096 0.01051 0.53433 0.0
C1053 C 0.5101 0.96764 0.52971 0.0
C1054 C 0.50428 0.00784 0.55055 0.0
C1055 C 0.5188 0.01576 0.56578 0.0
C1056 C 0.55007 0.02673 0.56506 0.0
C1057 C 0.56644 0.02956 0.54872 0.0
C1058 C 0.55202 0.02153 0.53353 0.0
H1059 H 0.51311 0.95283 0.52416 0.0
H1060 H 0.5352 0.97182 0.53618 0.0
H1061 H 0.48916 0.96706 0.53984 0.0
H1062 H 0.47989 -0.00026 0.55143 0.0
H1063 H 0.50565 0.01314 0.57815 0.0
H1064 H 0.50623 0.47964 0.07355 0.0
H1065 H 0.48228 0.49162 0.04586 0.0
H1066 H 0.57525 0.47174 0.01881 0.0
H1067 H 0.60002 0.46019 0.04652 0.0
H1068 H 0.51815 0.51952 0.02176 0.0
H1069 H 0.48779 0.44768 0.99203 0.0
H1070 H 0.49299 0.45099 0.01537 0.0
H1071 H 0.531 0.45069 0.0014 0.0
C1072 C 0.52181 0.47797 0.06176 0.0
C1073 C 0.55513 0.46897 0.06229 0.0
C1074 C 0.50795 0.48471 0.04595 0.0
C1075 C 0.52691 0.48239 0.03034 0.0
C1076 C 0.56006 0.4734 0.03073 0.0
H1077 H 0.48315 0.50997 0.92172 0.0
H1078 H 0.50793 0.49809 0.9493 0.0
C1079 C 0.57408 0.46675 0.04657 0.0
C1080 C 0.51227 0.48979 0.01369 0.0
H1081 H 0.47864 0.47531 0.97436 0.0
C1082 C 0.50941 0.5099 0.01138 0.0
C1083 C 0.50114 0.47714 0.00023 0.0
C1084 C 0.50307 0.45539 0.00231 0.0
C1085 C 0.49612 0.51778 0.99577 0.0
C1086 C 0.48452 0.50513 0.98233 0.0
C1087 C 0.48748 0.48498 0.98468 0.0
C1088 C 0.4694 0.51247 0.9657 0.0
C1089 C 0.49546 0.53955 0.99366 0.0
C1090 C 0.43925 0.52429 0.96575 0.0
C1091 C 0.42515 0.53117 0.95002 0.0
C1092 C 0.44063 0.52608 0.93393 0.0
C1093 C 0.47048 0.51399 0.93391 0.0
C1094 C 0.48472 0.50725 0.94964 0.0
H1095 H 0.51428 0.54678 0.00271 0.0
H1096 H 0.50202 0.54384 0.98002 0.0
H1097 H 0.46864 0.545 0.99674 0.0
H1098 H 0.42642 0.52807 0.97796 0.0
H1099 H 0.40181 0.54022 0.95041 0.0
H1100 H 0.05702 0.9426 0.94876 0.0
H1101 H 0.03154 0.95576 0.97573 0.0
H1102 H 0.029 0.01282 0.95259 0.0
H1103 H 0.05455 -0.00018 0.92562 0.0
H1104 H 0.05718 0.98508 0.99774 0.0
H1105 H 0.92737 0.00513 0.96932 0.0
H1106 H 0.95797 0.98924 0.95826 0.0
H1107 H 0.96464 0.01506 0.95793 0.0
C1108 C 0.05128 0.95797 0.94946 0.0
C1109 C 0.05759 0.97015 0.93501 0.0
C1110 C 0.03657 0.96544 0.96483 0.0
C1111 C 0.02782 0.98518 0.96602 0.0
C1112 C 0.03476 0.99745 0.95178 0.0
H1113 H 0.93977 0.05735 0.0485 0.0
H1114 H 0.965 0.04483 0.02122 0.0
C1115 C 0.04939 0.99 0.93639 0.0
C1116 C 0.01193 0.99299 0.98227 0.0
H1117 H 0.93867 0.0156 0.99839 0.0
C1118 C 0.03121 0.99169 0.99791 0.0
C1119 C 0.97809 0.00164 0.98241 0.0
C1120 C 0.95561 0.00273 0.96613 0.0
C1121 C 0.01775 0.99905 0.01369 0.0
C1122 C 0.98388 0.00764 0.01384 0.0
C1123 C 0.96465 0.00902 0.99819 0.0
C1124 C 0.96781 0.01509 0.03017 0.0
C1125 C 0.04013 0.99788 0.03 0.0
C1126 C 0.96036 0.00242 0.04406 0.0
C1127 C 0.94581 0.00949 0.05959 0.0
C1128 C 0.93826 0.02937 0.06151 0.0
C1129 C 0.94501 0.04195 0.0474 0.0
C1130 C 0.95958 0.03485 0.03184 0.0
H1131 H 0.06839 0.99545 0.02684 0.0
H1132 H 0.03779 0.01137 0.03789 0.0
H1133 H 0.03098 0.98557 0.03818 0.0
H1134 H 0.96576 0.98705 0.04286 0.0
H1135 H 0.94027 -0.00064 0.07008 0.0
H1136 H 0.20496 0.66998 0.38603 0.0
H1137 H 0.22916 0.70282 0.3887 0.0
H1138 H 0.21588 0.71138 0.33313 0.0
H1139 H 0.19173 0.67866 0.33035 0.0
H1140 H 0.28209 0.72193 0.34513 0.0
H1141 H 0.17645 0.75463 0.38605 0.0
H1142 H 0.19575 0.73285 0.39475 0.0
H1143 H 0.1709 0.73184 0.37473 0.0
C1144 C 0.20678 0.67897 0.37443 0.0
C1145 C 0.19647 0.67173 0.35797 0.0
C1146 C 0.22059 0.69771 0.37598 0.0
C1147 C 0.22398 0.70958 0.36114 0.0
C1148 C 0.21351 0.70243 0.34474 0.0
H1149 H 0.25602 0.83198 0.34924 0.0
H1150 H 0.23402 0.79876 0.35133 0.0
C1151 C 0.19984 0.68372 0.34317 0.0
C1152 C 0.23937 0.72928 0.36246 0.0
H1153 H 0.22616 0.77425 0.38006 0.0
C1154 C 0.26997 0.73337 0.35282 0.0
C1155 C 0.22329 0.74417 0.37241 0.0
C1156 C 0.18962 0.74079 0.38247 0.0
C1157 C 0.28477 0.75202 0.35268 0.0
C1158 C 0.26887 0.76688 0.36273 0.0
C1159 C 0.23844 0.76276 0.37251 0.0
C1160 C 0.28212 0.78709 0.36234 0.0
C1161 C 0.31658 0.75581 0.3413 0.0
C1162 C 0.31628 0.7916 0.36812 0.0
C1163 C 0.32912 0.81057 0.36676 0.0
C1164 C 0.3079 0.82536 0.35967 0.0
C1165 C 0.2733 0.82086 0.35442 0.0
C1166 C 0.26056 0.80192 0.35575 0.0
H1167 H 0.32064 0.74411 0.33148 0.0
H1168 H 0.31393 0.76985 0.33428 0.0
H1169 H 0.34046 0.75656 0.34966 0.0
H1170 H 0.33314 0.78041 0.37352 0.0
H1171 H 0.3559 0.81353 0.37088 0.0
H1172 H 0.8153 0.18045 0.16867 0.0
H1173 H 0.79321 0.21365 0.16638 0.0
H1174 H 0.77979 0.2064 0.11067 0.0
H1175 H 0.80074 0.17288 0.11292 0.0
H1176 H 0.81936 0.24461 0.14673 0.0
H1177 H 0.68271 0.22557 0.12666 0.0
H1178 H 0.71294 0.20793 0.1356 0.0
H1179 H 0.71702 0.21556 0.11319 0.0
C1180 C 0.8073 0.18583 0.15595 0.0
C1181 C 0.80947 0.17395 0.141 0.0
C1182 C 0.79492 0.20485 0.15465 0.0
C1183 C 0.78437 0.21237 0.1384 0.0
C1184 C 0.7872 0.20074 0.12338 0.0
H1185 H 0.69662 0.32639 0.11283 0.0
H1186 H 0.721 0.29353 0.11085 0.0
C1187 C 0.79956 0.18167 0.12467 0.0
C1188 C 0.77061 0.23245 0.13732 0.0
H1189 H 0.69682 0.25892 0.12796 0.0
C1190 C 0.7926 0.24775 0.14259 0.0
C1191 C 0.73572 0.23649 0.13185 0.0
C1192 C 0.71055 0.22054 0.12663 0.0
C1193 C 0.78057 0.267 0.14264 0.0
C1194 C 0.74548 0.27098 0.13752 0.0
C1195 C 0.72371 0.25577 0.13187 0.0
C1196 C 0.73046 0.29076 0.13868 0.0
C1197 C 0.80553 0.28293 0.14812 0.0
C1198 C 0.72711 0.29987 0.15502 0.0
C1199 C 0.71298 0.31853 0.15622 0.0
C1200 C 0.70181 0.32844 0.14109 0.0
C1201 C 0.70469 0.31911 0.12475 0.0
C1202 C 0.71878 0.3004 0.12357 0.0
H1203 H 0.8335 0.27826 0.14716 0.0
H1204 H 0.80177 0.2961 0.13994 0.0
H1205 H 0.80019 0.2869 0.16196 0.0
H1206 H 0.73522 0.29249 0.16688 0.0
H1207 H 0.71043 0.3251 0.16905 0.0
H1208 H 0.72337 0.16626 0.61885 0.0
H1209 H 0.74639 0.19936 0.61685 0.0
H1210 H 0.68144 0.21645 0.66056 0.0
H1211 H 0.65743 0.18358 0.66231 0.0
H1212 H 0.68097 0.24315 0.63283 0.0
H1213 H 0.81732 0.22239 0.65184 0.0
H1214 H 0.79969 0.20938 0.63342 0.0
H1215 H 0.78015 0.20635 0.65468 0.0
C1216 C 0.71365 0.17712 0.6279 0.0
C1217 C 0.68873 0.17225 0.64082 0.0
C1218 C 0.72711 0.19596 0.62685 0.0
C1219 C 0.71604 0.21024 0.63874 0.0
C1220 C 0.69051 0.20559 0.65134 0.0
H1221 H 0.8141 0.31832 0.6676 0.0
H1222 H 0.78952 0.28559 0.666 0.0
C1223 C 0.67702 0.18677 0.6524 0.0
C1224 C 0.73129 0.23001 0.63826 0.0
H1225 H 0.80805 0.25513 0.64382 0.0
C1226 C 0.70877 0.2458 0.63518 0.0
C1227 C 0.76749 0.23338 0.64154 0.0
C1228 C 0.7926 0.21703 0.64571 0.0
C1229 C 0.72149 0.26493 0.63528 0.0
C1230 C 0.75778 0.26827 0.63829 0.0
C1231 C 0.7803 0.25248 0.64138 0.0
C1232 C 0.77271 0.28811 0.63902 0.0
C1233 C 0.69582 0.28141 0.63264 0.0
C1234 C 0.77177 0.30029 0.6243 0.0
C1235 C 0.78555 0.31908 0.62521 0.0
C1236 C 0.80069 0.32598 0.64084 0.0
C1237 C 0.8021 0.31358 0.65546 0.0
C1238 C 0.78831 0.29483 0.65454 0.0
H1239 H 0.66809 0.2767 0.6346 0.0
H1240 H 0.70155 0.29354 0.64179 0.0
H1241 H 0.69836 0.28698 0.61906 0.0
H1242 H 0.76037 0.29526 0.6121 0.0
H1243 H 0.78385 0.32829 0.61375 0.0
H1244 H 0.248 0.66091 0.85936 0.0
H1245 H 0.22547 0.69415 0.86003 0.0
H1246 H 0.33147 0.71613 0.85529 0.0
H1247 H 0.35414 0.68297 0.85392 0.0
H1248 H 0.24007 0.72431 0.88319 0.0
H1249 H 0.27993 0.74352 0.81541 0.0
H1250 H 0.2794 0.71882 0.82325 0.0
H1251 H 0.31537 0.73467 0.82879 0.0
C1252 C 0.26651 0.6728 0.85826 0.0
C1253 C 0.30286 0.66925 0.85643 0.0
C1254 C 0.2536 0.69179 0.85878 0.0
C1255 C 0.27674 0.70759 0.85743 0.0
C1256 C 0.31309 0.70414 0.85602 0.0
H1257 H 0.25061 0.83245 0.85591 0.0
H1258 H 0.27324 0.79925 0.85725 0.0
C1259 C 0.32603 0.68516 0.85546 0.0
C1260 C 0.26282 0.72767 0.85752 0.0
H1261 H 0.25836 0.76914 0.83316 0.0
C1262 C 0.24393 0.73411 0.87224 0.0
C1263 C 0.26786 0.74038 0.84319 0.0
C1264 C 0.28645 0.73399 0.82669 0.0
C1265 C 0.23049 0.75307 0.87313 0.0
C1266 C 0.23572 0.76579 0.85884 0.0
C1267 C 0.25455 0.75935 0.84413 0.0
C1268 C 0.22177 0.78586 0.85878 0.0
C1269 C 0.21141 0.75947 0.88948 0.0
C1270 C 0.18531 0.78929 0.85913 0.0
C1271 C 0.17226 0.80824 0.85825 0.0
C1272 C 0.19547 0.8241 0.85691 0.0
C1273 C 0.23201 0.82056 0.8567 0.0
C1274 C 0.245 0.80162 0.85756 0.0
H1275 H 0.21699 0.74972 0.90074 0.0
H1276 H 0.21895 0.77451 0.89313 0.0
H1277 H 0.18258 0.75924 0.88702 0.0
H1278 H 0.16693 0.77728 0.85971 0.0
H1279 H 0.14399 0.81043 0.85816 0.0
loop_
_geom_bond_atom_site_label_1
_geom_bond_atom_site_label_2
_geom_bond_distance
_geom_bond_site_symmetry_2
_ccdc_geom_bond_type
Li0 N17 1.990 . S
Li0 O60 1.956 . S
Li0 O61 1.970 . S
Li0 O62 1.961 . S
Li1 N25 1.990 . S
Li1 O60 1.970 . S
Li1 O61 1.956 . S
Li1 O63 1.961 . S
Li2 N47 1.990 . S
Li2 O60 1.961 . S
Li2 O62 1.956 . S
Li2 O63 1.970 . S
Li3 N53 1.990 . S
Li3 O61 1.961 . S
Li3 O62 1.970 . S
Li3 O63 1.956 . S
C4 C6 1.348 . S
C4 C7 1.356 . S
C4 O60 1.325 . S
N5 C8 1.310 1_655 S
N5 C9 1.274 1_655 S
C6 C4 1.348 . S
C6 C8 1.353 . S
C6 H64 0.929 . S
C7 C4 1.356 . S
C7 C9 1.358 . S
C7 H65 0.930 . S
C8 N5 1.310 1_455 S
C8 C6 1.353 . S
C8 H66 0.930 . S
C9 N5 1.274 1_455 S
C9 C7 1.358 . S
C9 H67 0.930 . S
C10 C13 1.348 . S
C10 C14 1.356 . S
C10 O61 1.325 . S
C11 N12 1.279 . S
C11 C14 1.358 . S
C11 H68 0.930 . S
N12 C11 1.279 . S
N12 C15 1.314 . S
C13 C10 1.348 . S
C13 C15 1.353 . S
C13 H69 0.929 . S
C14 C10 1.356 . S
C14 C11 1.358 . S
C14 H70 0.930 . S
C15 N12 1.314 . S
C15 C13 1.353 . S
C15 H71 0.930 . S
C16 N17 1.314 . S
C16 C21 1.353 . S
C16 H22 0.930 . S
N17 Li0 1.990 . S
N17 C16 1.314 . S
N17 C19 1.279 . S
C18 C19 1.358 1_655 S
C18 C20 1.356 . S
C18 H72 0.930 . S
C19 N17 1.279 . S
C19 C18 1.358 1_455 S
C19 H23 0.930 . S
C20 C18 1.356 . S
C20 C21 1.348 1_655 S
C21 C16 1.353 . S
C21 C20 1.348 1_455 S
C21 H73 0.929 . S
H22 C16 0.930 . S
H23 C19 0.930 . S
C24 N25 1.314 . S
C24 C26 1.353 . S
C24 H30 0.930 . S
N25 Li1 1.990 . S
N25 C24 1.314 . S
N25 C28 1.279 . S
C26 C24 1.353 . S
C26 C29 1.348 . S
C26 H74 0.929 . S
C27 C28 1.358 . S
C27 C29 1.356 . S
C27 H75 0.930 . S
C28 N25 1.279 . S
C28 C27 1.358 . S
C28 H31 0.930 . S
C29 C26 1.348 . S
C29 C27 1.356 . S
H30 C24 0.930 . S
H31 C28 0.930 . S
C32 C34 1.348 . S
C32 C35 1.356 . S
C32 O62 1.325 . S
N33 C36 1.314 . S
N33 C37 1.279 . S
C34 C32 1.348 . S
C34 C36 1.353 . S
C34 H76 0.929 . S
C35 C32 1.356 . S
C35 C37 1.358 . S
C35 H77 0.930 . S
C36 N33 1.314 . S
C36 C34 1.353 . S
C36 H78 0.930 . S
C37 N33 1.279 . S
C37 C35 1.358 . S
C37 H79 0.930 . S
C38 C39 1.348 . S
C38 C40 1.356 . S
C38 O63 1.325 . S
C39 C38 1.348 . S
C39 C41 1.353 . S
C39 H80 0.929 . S
C40 C38 1.356 . S
C40 C42 1.358 . S
C40 H81 0.930 . S
C41 C39 1.353 . S
C41 N43 1.314 . S
C41 H82 0.930 . S
C42 C40 1.358 . S
C42 N43 1.279 . S
C42 H83 0.930 . S
N43 C41 1.314 . S
N43 C42 1.279 . S
C44 C46 1.353 . S
C44 N47 1.314 . S
C44 H50 0.930 . S
C45 N47 1.279 . S
C45 C48 1.358 . S
C45 H51 0.930 . S
C46 C44 1.353 . S
C46 C49 1.348 . S
C46 H84 0.929 . S
N47 Li2 1.990 . S
N47 C44 1.314 . S
N47 C45 1.279 . S
C48 C45 1.358 . S
C48 C49 1.356 . S
C48 H85 0.930 . S
C49 C46 1.348 . S
C49 C48 1.356 . S
H50 C44 0.930 . S
H51 C45 0.930 . S
C52 N53 1.314 . S
C52 C54 1.353 . S
C52 H58 0.930 . S
N53 Li3 1.990 . S
N53 C52 1.314 . S
N53 C56 1.279 . S
C54 C52 1.353 . S
C54 C57 1.348 . S
C54 H86 0.929 . S
C55 C56 1.358 . S
C55 C57 1.356 . S
C55 H87 0.930 . S
C56 N53 1.279 . S
C56 C55 1.358 . S
C56 H59 0.930 . S
C57 C54 1.348 . S
C57 C55 1.356 . S
H58 C52 0.930 . S
H59 C56 0.930 . S
O60 Li0 1.956 . S
O60 Li1 1.970 . S
O60 Li2 1.961 . S
O60 C4 1.325 . S
O61 Li0 1.970 . S
O61 Li1 1.956 . S
O61 Li3 1.961 . S
O61 C10 1.325 . S
O62 Li0 1.961 . S
O62 Li2 1.956 . S
O62 Li3 1.970 . S
O62 C32 1.325 . S
O63 Li1 1.961 . S
O63 Li2 1.970 . S
O63 Li3 1.956 . S
O63 C38 1.325 . S
H64 C6 0.929 . S
H65 C7 0.930 . S
H66 C8 0.930 . S
H67 C9 0.930 . S
H68 C11 0.930 . S
H69 C13 0.929 . S
H70 C14 0.930 . S
H71 C15 0.930 . S
H72 C18 0.930 . S
H73 C21 0.929 . S
H74 C26 0.929 . S
H75 C27 0.930 . S
H76 C34 0.929 . S
H77 C35 0.930 . S
H78 C36 0.930 . S
H79 C37 0.930 . S
H80 C39 0.929 . S
H81 C40 0.930 . S
H82 C41 0.930 . S
H83 C42 0.930 . S
H84 C46 0.929 . S
H85 C48 0.930 . S
H86 C54 0.929 . S
H87 C55 0.930 . S
Li88 N105 1.990 . S
Li88 O148 1.956 . S
Li88 O149 1.970 . S
Li88 O150 1.961 . S
Li89 N113 1.990 . S
Li89 O148 1.970 . S
Li89 O149 1.956 . S
Li89 O151 1.961 . S
Li90 N135 1.990 . S
Li90 O148 1.961 . S
Li90 O150 1.956 . S
Li90 O151 1.970 . S
Li91 N141 1.990 . S
Li91 O149 1.961 . S
Li91 O150 1.970 . S
Li91 O151 1.956 . S
C92 C94 1.348 . S
C92 C95 1.356 . S
C92 O148 1.325 . S
N93 C96 1.314 . S
N93 C97 1.279 . S
C94 C92 1.348 . S
C94 C96 1.353 . S
C94 H152 0.929 . S
C95 C92 1.356 . S
C95 C97 1.358 . S
C95 H153 0.930 . S
C96 N93 1.314 . S
C96 C94 1.353 . S
C96 H154 0.930 . S
C97 N93 1.279 . S
C97 C95 1.358 . S
C97 H155 0.930 . S
C98 C101 1.348 . S
C98 C102 1.356 . S
C98 O149 1.325 . S
C99 N100 1.279 . S
C99 C102 1.358 . S
C99 H156 0.930 . S
N100 C99 1.279 . S
N100 C103 1.314 . S
C101 C98 1.348 . S
C101 C103 1.353 . S
C101 H157 0.929 . S
C102 C98 1.356 . S
C102 C99 1.358 . S
C102 H158 0.930 . S
C103 N100 1.314 . S
C103 C101 1.353 . S
C103 H159 0.930 . S
C104 N105 1.314 . S
C104 C109 1.353 . S
C104 H110 0.930 . S
N105 Li88 1.990 . S
N105 C104 1.314 . S
N105 C107 1.279 . S
C106 C107 1.358 . S
C106 C108 1.356 . S
C106 H160 0.930 . S
C107 N105 1.279 . S
C107 C106 1.358 . S
C107 H111 0.930 . S
C108 C106 1.356 . S
C108 C109 1.348 . S
C109 C104 1.353 . S
C109 C108 1.348 . S
C109 H161 0.929 . S
H110 C104 0.930 . S
H111 C107 0.930 . S
C112 N113 1.314 . S
C112 C114 1.353 . S
C112 H118 0.930 . S
N113 Li89 1.990 . S
N113 C112 1.314 . S
N113 C116 1.279 . S
C114 C112 1.353 . S
C114 C117 1.348 . S
C114 H162 0.929 . S
C115 C116 1.358 . S
C115 C117 1.356 . S
C115 H163 0.930 . S
C116 N113 1.279 . S
C116 C115 1.358 . S
C116 H119 0.930 . S
C117 C114 1.348 . S
C117 C115 1.356 . S
H118 C112 0.930 . S
H119 C116 0.930 . S
C120 C122 1.348 . S
C120 C123 1.356 . S
C120 O150 1.325 . S
N121 C124 1.314 . S
N121 C125 1.279 . S
C122 C120 1.348 . S
C122 C124 1.353 1_565 S
C122 H164 0.929 . S
C123 C120 1.356 . S
C123 C125 1.358 1_565 S
C123 H165 0.930 . S
C124 N121 1.314 . S
C124 C122 1.353 1_545 S
C124 H166 0.930 . S
C125 N121 1.279 . S
C125 C123 1.358 1_545 S
C125 H167 0.930 . S
C126 C127 1.348 . S
C126 C128 1.356 . S
C126 O151 1.325 . S
C127 C126 1.348 . S
C127 C129 1.353 . S
C127 H168 0.929 . S
C128 C126 1.356 . S
C128 C130 1.358 . S
C128 H169 0.930 . S
C129 C127 1.353 . S
C129 N131 1.314 . S
C129 H170 0.930 . S
C130 C128 1.358 . S
C130 N131 1.279 . S
C130 H171 0.930 . S
N131 C129 1.314 . S
N131 C130 1.279 . S
C132 C134 1.353 . S
C132 N135 1.314 . S
C132 H138 0.930 . S
C133 N135 1.279 . S
C133 C136 1.358 . S
C133 H139 0.930 . S
C134 C132 1.353 . S
C134 C137 1.348 . S
C134 H172 0.929 . S
N135 Li90 1.990 . S
N135 C132 1.314 . S
N135 C133 1.279 . S
C136 C133 1.358 . S
C136 C137 1.356 . S
C136 H173 0.930 . S
C137 C134 1.348 . S
C137 C136 1.356 . S
H138 C132 0.930 . S
H139 C133 0.930 . S
C140 N141 1.314 . S
C140 C142 1.353 . S
C140 H146 0.930 . S
N141 Li91 1.990 . S
N141 C140 1.314 . S
N141 C144 1.279 . S
C142 C140 1.353 . S
C142 C145 1.348 . S
C142 H174 0.929 . S
C143 C144 1.358 . S
C143 C145 1.356 . S
C143 H175 0.930 . S
C144 N141 1.279 . S
C144 C143 1.358 . S
C144 H147 0.930 . S
C145 C142 1.348 . S
C145 C143 1.356 . S
H146 C140 0.930 . S
H147 C144 0.930 . S
O148 Li88 1.956 . S
O148 Li89 1.970 . S
O148 Li90 1.961 . S
O148 C92 1.325 . S
O149 Li88 1.970 . S
O149 Li89 1.956 . S
O149 Li91 1.961 . S
O149 C98 1.325 . S
O150 Li88 1.961 . S
O150 Li90 1.956 . S
O150 Li91 1.970 . S
O150 C120 1.325 . S
O151 Li89 1.961 . S
O151 Li90 1.970 . S
O151 Li91 1.956 . S
O151 C126 1.325 . S
H152 C94 0.929 . S
H153 C95 0.930 . S
H154 C96 0.930 . S
H155 C97 0.930 . S
H156 C99 0.930 . S
H157 C101 0.929 . S
H158 C102 0.930 . S
H159 C103 0.930 . S
H160 C106 0.930 . S
H161 C109 0.929 . S
H162 C114 0.929 . S
H163 C115 0.930 . S
H164 C122 0.929 . S
H165 C123 0.930 . S
H166 C124 0.930 . S
H167 C125 0.930 . S
H168 C127 0.929 . S
H169 C128 0.930 . S
H170 C129 0.930 . S
H171 C130 0.930 . S
H172 C134 0.929 . S
H173 C136 0.930 . S
H174 C142 0.929 . S
H175 C143 0.930 . S
Li176 N193 1.990 . S
Li176 O236 1.956 . S
Li176 O237 1.970 . S
Li176 O238 1.961 . S
Li177 N201 1.990 . S
Li177 O236 1.970 . S
Li177 O237 1.956 . S
Li177 O239 1.961 . S
Li178 N223 1.990 . S
Li178 O236 1.961 . S
Li178 O238 1.956 . S
Li178 O239 1.970 . S
Li179 N229 1.990 . S
Li179 O237 1.961 . S
Li179 O238 1.970 . S
Li179 O239 1.956 . S
C180 C182 1.348 . S
C180 C183 1.356 . S
C180 O236 1.325 . S
N181 C184 1.314 . S
N181 C185 1.279 . S
C182 C180 1.348 . S
C182 C184 1.353 . S
C182 H240 0.929 . S
C183 C180 1.356 . S
C183 C185 1.358 . S
C183 H241 0.930 . S
C184 N181 1.314 . S
C184 C182 1.353 . S
C184 H242 0.930 . S
C185 N181 1.279 . S
C185 C183 1.358 . S
C185 H243 0.930 . S
C186 C189 1.348 . S
C186 C190 1.356 . S
C186 O237 1.325 . S
C187 N188 1.279 . S
C187 C190 1.358 . S
C187 H244 0.930 . S
N188 C187 1.279 . S
N188 C191 1.314 . S
C189 C186 1.348 . S
C189 C191 1.353 . S
C189 H245 0.929 . S
C190 C186 1.356 . S
C190 C187 1.358 . S
C190 H246 0.930 . S
C191 N188 1.314 . S
C191 C189 1.353 . S
C191 H247 0.930 . S
C192 N193 1.314 . S
C192 C197 1.353 . S
C192 H198 0.930 . S
N193 Li176 1.990 . S
N193 C192 1.314 . S
N193 C195 1.279 . S
C194 C195 1.358 . S
C194 C196 1.356 . S
C194 H248 0.930 . S
C195 N193 1.279 . S
C195 C194 1.358 . S
C195 H199 0.930 . S
C196 C194 1.356 . S
C196 C197 1.348 . S
C197 C192 1.353 . S
C197 C196 1.348 . S
C197 H249 0.929 . S
H198 C192 0.930 . S
H199 C195 0.930 . S
C200 N201 1.314 . S
C200 C202 1.353 . S
C200 H206 0.930 . S
N201 Li177 1.990 . S
N201 C200 1.314 . S
N201 C204 1.279 . S
C202 C200 1.353 . S
C202 C205 1.348 . S
C202 H250 0.929 . S
C203 C204 1.358 . S
C203 C205 1.356 . S
C203 H251 0.930 . S
C204 N201 1.279 . S
C204 C203 1.358 . S
C204 H207 0.930 . S
C205 C202 1.348 . S
C205 C203 1.356 . S
H206 C200 0.930 . S
H207 C204 0.930 . S
C208 C210 1.348 . S
C208 C211 1.356 . S
C208 O238 1.325 . S
N209 C212 1.314 . S
N209 C213 1.279 . S
C210 C208 1.348 . S
C210 C212 1.353 . S
C210 H252 0.929 . S
C211 C208 1.356 . S
C211 C213 1.358 . S
C211 H253 0.930 . S
C212 N209 1.314 . S
C212 C210 1.353 . S
C212 H254 0.930 . S
C213 N209 1.279 . S
C213 C211 1.358 . S
C213 H255 0.930 . S
C214 C215 1.348 . S
C214 C216 1.356 . S
C214 O239 1.325 . S
C215 C214 1.348 . S
C215 C217 1.353 . S
C215 H256 0.929 . S
C216 C214 1.356 . S
C216 C218 1.358 . S
C216 H257 0.930 . S
C217 C215 1.353 . S
C217 N219 1.314 . S
C217 H258 0.930 . S
C218 C216 1.358 . S
C218 N219 1.279 . S
C218 H259 0.930 . S
N219 C217 1.314 . S
N219 C218 1.279 . S
C220 C222 1.353 . S
C220 N223 1.314 . S
C220 H226 0.930 . S
C221 N223 1.279 . S
C221 C224 1.358 . S
C221 H227 0.930 . S
C222 C220 1.353 . S
C222 C225 1.348 . S
C222 H260 0.929 . S
N223 Li178 1.990 . S
N223 C220 1.314 . S
N223 C221 1.279 . S
C224 C221 1.358 . S
C224 C225 1.356 . S
C224 H261 0.930 . S
C225 C222 1.348 . S
C225 C224 1.356 . S
H226 C220 0.930 . S
H227 C221 0.930 . S
C228 N229 1.314 . S
C228 C230 1.353 . S
C228 H234 0.930 . S
N229 Li179 1.990 . S
N229 C228 1.314 . S
N229 C232 1.279 . S
C230 C228 1.353 . S
C230 C233 1.348 . S
C230 H262 0.929 . S
C231 C232 1.358 . S
C231 C233 1.356 . S
C231 H263 0.930 . S
C232 N229 1.279 . S
C232 C231 1.358 . S
C232 H235 0.930 . S
C233 C230 1.348 . S
C233 C231 1.356 . S
H234 C228 0.930 . S
H235 C232 0.930 . S
O236 Li176 1.956 . S
O236 Li177 1.970 . S
O236 Li178 1.961 . S
O236 C180 1.325 . S
O237 Li176 1.970 . S
O237 Li177 1.956 . S
O237 Li179 1.961 . S
O237 C186 1.325 . S
O238 Li176 1.961 . S
O238 Li178 1.956 . S
O238 Li179 1.970 . S
O238 C208 1.325 . S
O239 Li177 1.961 . S
O239 Li178 1.970 . S
O239 Li179 1.956 . S
O239 C214 1.325 . S
H240 C182 0.929 . S
H241 C183 0.930 . S
H242 C184 0.930 . S
H243 C185 0.930 . S
H244 C187 0.930 . S
H245 C189 0.929 . S
H246 C190 0.930 . S
H247 C191 0.930 . S
H248 C194 0.930 . S
H249 C197 0.929 . S
H250 C202 0.929 . S
H251 C203 0.930 . S
H252 C210 0.929 . S
H253 C211 0.930 . S
H254 C212 0.930 . S
H255 C213 0.930 . S
H256 C215 0.929 . S
H257 C216 0.930 . S
H258 C217 0.930 . S
H259 C218 0.930 . S
H260 C222 0.929 . S
H261 C224 0.930 . S
H262 C230 0.929 . S
H263 C231 0.930 . S
Li264 N281 1.990 . S
Li264 O324 1.956 . S
Li264 O325 1.970 . S
Li264 O326 1.961 . S
Li265 N289 1.990 . S
Li265 O324 1.970 . S
Li265 O325 1.956 . S
Li265 O327 1.961 . S
Li266 N311 1.990 . S
Li266 O324 1.961 . S
Li266 O326 1.956 . S
Li266 O327 1.970 . S
Li267 N317 1.990 . S
Li267 O325 1.961 . S
Li267 O326 1.970 . S
Li267 O327 1.956 . S
C268 C270 1.348 . S
C268 C271 1.356 . S
C268 O324 1.325 . S
N269 C272 1.314 . S
N269 C273 1.279 . S
C270 C268 1.348 . S
C270 C272 1.353 . S
C270 H328 0.929 . S
C271 C268 1.356 . S
C271 C273 1.358 . S
C271 H329 0.930 . S
C272 N269 1.314 . S
C272 C270 1.353 . S
C272 H330 0.930 . S
C273 N269 1.279 . S
C273 C271 1.358 . S
C273 H331 0.930 . S
C274 C277 1.348 . S
C274 C278 1.356 . S
C274 O325 1.325 . S
C275 N276 1.279 . S
C275 C278 1.358 . S
C275 H332 0.930 . S
N276 C275 1.279 . S
N276 C279 1.314 . S
C277 C274 1.348 . S
C277 C279 1.353 . S
C277 H333 0.929 . S
C278 C274 1.356 . S
C278 C275 1.358 . S
C278 H334 0.930 . S
C279 N276 1.314 . S
C279 C277 1.353 . S
C279 H335 0.930 . S
C280 N281 1.314 . S
C280 C285 1.353 . S
C280 H286 0.930 . S
N281 Li264 1.990 . S
N281 C280 1.314 . S
N281 C283 1.279 . S
C282 C283 1.358 . S
C282 C284 1.356 . S
C282 H336 0.930 . S
C283 N281 1.279 . S
C283 C282 1.358 . S
C283 H287 0.930 . S
C284 C282 1.356 . S
C284 C285 1.348 . S
C285 C280 1.353 . S
C285 C284 1.348 . S
C285 H337 0.929 . S
H286 C280 0.930 . S
H287 C283 0.930 . S
C288 N289 1.314 . S
C288 C290 1.353 . S
C288 H294 0.930 . S
N289 Li265 1.990 . S
N289 C288 1.314 . S
N289 C292 1.279 . S
C290 C288 1.353 . S
C290 C293 1.348 . S
C290 H338 0.929 . S
C291 C292 1.358 . S
C291 C293 1.356 . S
C291 H339 0.930 . S
C292 N289 1.279 . S
C292 C291 1.358 . S
C292 H295 0.930 . S
C293 C290 1.348 . S
C293 C291 1.356 . S
H294 C288 0.930 . S
H295 C292 0.930 . S
C296 C298 1.348 . S
C296 C299 1.356 . S
C296 O326 1.325 . S
N297 C300 1.314 . S
N297 C301 1.279 . S
C298 C296 1.348 . S
C298 C300 1.353 1_545 S
C298 H340 0.929 . S
C299 C296 1.356 . S
C299 C301 1.358 1_545 S
C299 H341 0.930 . S
C300 N297 1.314 . S
C300 C298 1.353 1_565 S
C300 H342 0.930 . S
C301 N297 1.279 . S
C301 C299 1.358 1_565 S
C301 H343 0.930 . S
C302 C303 1.348 . S
C302 C304 1.356 . S
C302 O327 1.325 . S
C303 C302 1.348 . S
C303 C305 1.353 . S
C303 H344 0.929 . S
C304 C302 1.356 . S
C304 C306 1.358 . S
C304 H345 0.930 . S
C305 C303 1.353 . S
C305 N307 1.310 1_655 S
C305 H346 0.930 . S
C306 C304 1.358 . S
C306 N307 1.274 1_655 S
C306 H347 0.930 . S
N307 C305 1.310 1_455 S
N307 C306 1.274 1_455 S
C308 C310 1.353 . S
C308 N311 1.314 . S
C308 H314 0.930 . S
C309 N311 1.279 . S
C309 C312 1.358 . S
C309 H315 0.930 . S
C310 C308 1.353 . S
C310 C313 1.348 . S
C310 H348 0.929 . S
N311 Li266 1.990 . S
N311 C308 1.314 . S
N311 C309 1.279 . S
C312 C309 1.358 . S
C312 C313 1.356 . S
C312 H349 0.930 . S
C313 C310 1.348 . S
C313 C312 1.356 . S
H314 C308 0.930 . S
H315 C309 0.930 . S
C316 N317 1.314 . S
C316 C318 1.353 . S
C316 H322 0.930 . S
N317 Li267 1.990 . S
N317 C316 1.314 . S
N317 C320 1.279 . S
C318 C316 1.353 . S
C318 C321 1.348 1_655 S
C318 H350 0.929 . S
C319 C320 1.358 1_455 S
C319 C321 1.356 . S
C319 H351 0.930 . S
C320 N317 1.279 . S
C320 C319 1.358 1_655 S
C320 H323 0.930 . S
C321 C318 1.348 1_455 S
C321 C319 1.356 . S
H322 C316 0.930 . S
H323 C320 0.930 . S
O324 Li264 1.956 . S
O324 Li265 1.970 . S
O324 Li266 1.961 . S
O324 C268 1.325 . S
O325 Li264 1.970 . S
O325 Li265 1.956 . S
O325 Li267 1.961 . S
O325 C274 1.325 . S
O326 Li264 1.961 . S
O326 Li266 1.956 . S
O326 Li267 1.970 . S
O326 C296 1.325 . S
O327 Li265 1.961 . S
O327 Li266 1.970 . S
O327 Li267 1.956 . S
O327 C302 1.325 . S
H328 C270 0.929 . S
H329 C271 0.930 . S
H330 C272 0.930 . S
H331 C273 0.930 . S
H332 C275 0.930 . S
H333 C277 0.929 . S
H334 C278 0.930 . S
H335 C279 0.930 . S
H336 C282 0.930 . S
H337 C285 0.929 . S
H338 C290 0.929 . S
H339 C291 0.930 . S
H340 C298 0.929 . S
H341 C299 0.930 . S
H342 C300 0.930 . S
H343 C301 0.930 . S
H344 C303 0.929 . S
H345 C304 0.930 . S
H346 C305 0.930 . S
H347 C306 0.930 . S
H348 C310 0.929 . S
H349 C312 0.930 . S
H350 C318 0.929 . S
H351 C319 0.930 . S
Li352 N369 1.990 . S
Li352 O412 1.956 . S
Li352 O413 1.970 . S
Li352 O414 1.961 . S
Li353 N377 1.990 . S
Li353 O412 1.970 . S
Li353 O413 1.956 . S
Li353 O415 1.961 . S
Li354 N399 1.990 . S
Li354 O412 1.961 . S
Li354 O414 1.956 . S
Li354 O415 1.970 . S
Li355 N405 1.990 . S
Li355 O413 1.961 . S
Li355 O414 1.970 . S
Li355 O415 1.956 . S
C356 C358 1.348 . S
C356 C359 1.356 . S
C356 O412 1.325 . S
N357 C360 1.314 . S
N357 C361 1.279 . S
C358 C356 1.348 . S
C358 C360 1.353 . S
C358 H416 0.929 . S
C359 C356 1.356 . S
C359 C361 1.358 . S
C359 H417 0.930 . S
C360 N357 1.314 . S
C360 C358 1.353 . S
C360 H418 0.930 . S
C361 N357 1.279 . S
C361 C359 1.358 . S
C361 H419 0.930 . S
C362 C365 1.348 . S
C362 C366 1.356 . S
C362 O413 1.325 . S
C363 N364 1.279 . S
C363 C366 1.358 . S
C363 H420 0.930 . S
N364 C363 1.279 . S
N364 C367 1.314 . S
C365 C362 1.348 . S
C365 C367 1.353 . S
C365 H421 0.929 . S
C366 C362 1.356 . S
C366 C363 1.358 . S
C366 H422 0.930 . S
C367 N364 1.314 . S
C367 C365 1.353 . S
C367 H423 0.930 . S
C368 N369 1.314 . S
C368 C373 1.353 . S
C368 H374 0.930 . S
N369 Li352 1.990 . S
N369 C368 1.314 . S
N369 C371 1.279 . S
C370 C371 1.358 . S
C370 C372 1.356 . S
C370 H424 0.930 . S
C371 N369 1.279 . S
C371 C370 1.358 . S
C371 H375 0.930 . S
C372 C370 1.356 . S
C372 C373 1.348 . S
C373 C368 1.353 . S
C373 C372 1.348 . S
C373 H425 0.929 . S
H374 C368 0.930 . S
H375 C371 0.930 . S
C376 N377 1.314 . S
C376 C378 1.353 1_655 S
C376 H382 0.930 . S
N377 Li353 1.990 . S
N377 C376 1.314 . S
N377 C380 1.279 . S
C378 C376 1.353 1_455 S
C378 C381 1.348 . S
C378 H426 0.929 . S
C379 C380 1.358 . S
C379 C381 1.356 1_655 S
C379 H427 0.930 . S
C380 N377 1.279 . S
C380 C379 1.358 . S
C380 H383 0.930 . S
C381 C378 1.348 . S
C381 C379 1.356 1_455 S
H382 C376 0.930 . S
H383 C380 0.930 . S
C384 C386 1.348 . S
C384 C387 1.356 . S
C384 O414 1.325 . S
N385 C388 1.314 . S
N385 C389 1.279 . S
C386 C384 1.348 . S
C386 C388 1.353 . S
C386 H428 0.929 . S
C387 C384 1.356 . S
C387 C389 1.358 . S
C387 H429 0.930 . S
C388 N385 1.314 . S
C388 C386 1.353 . S
C388 H430 0.930 . S
C389 N385 1.279 . S
C389 C387 1.358 . S
C389 H431 0.930 . S
C390 C391 1.348 . S
C390 C392 1.356 . S
C390 O415 1.325 . S
C391 C390 1.348 . S
C391 C393 1.353 . S
C391 H432 0.929 . S
C392 C390 1.356 . S
C392 C394 1.358 . S
C392 H433 0.930 . S
C393 C391 1.353 . S
C393 N395 1.314 . S
C393 H434 0.930 . S
C394 C392 1.358 . S
C394 N395 1.279 . S
C394 H435 0.930 1_655 S
N395 C393 1.314 . S
N395 C394 1.279 . S
C396 C398 1.353 . S
C396 N399 1.314 . S
C396 H402 0.930 . S
C397 N399 1.279 . S
C397 C400 1.358 . S
C397 H403 0.930 . S
C398 C396 1.353 . S
C398 C401 1.348 . S
C398 H436 0.929 . S
N399 Li354 1.990 . S
N399 C396 1.314 . S
N399 C397 1.279 . S
C400 C397 1.358 . S
C400 C401 1.356 . S
C400 H437 0.930 . S
C401 C398 1.348 . S
C401 C400 1.356 . S
H402 C396 0.930 . S
H403 C397 0.930 . S
C404 N405 1.314 . S
C404 C406 1.353 . S
C404 H410 0.930 . S
N405 Li355 1.990 . S
N405 C404 1.314 . S
N405 C408 1.279 . S
C406 C404 1.353 . S
C406 C409 1.348 . S
C406 H438 0.929 . S
C407 C408 1.358 . S
C407 C409 1.356 . S
C407 H439 0.930 . S
C408 N405 1.279 . S
C408 C407 1.358 . S
C408 H411 0.930 . S
C409 C406 1.348 . S
C409 C407 1.356 . S
H410 C404 0.930 . S
H411 C408 0.930 . S
O412 Li352 1.956 . S
O412 Li353 1.970 . S
O412 Li354 1.961 . S
O412 C356 1.325 . S
O413 Li352 1.970 . S
O413 Li353 1.956 . S
O413 Li355 1.961 . S
O413 C362 1.325 . S
O414 Li352 1.961 . S
O414 Li354 1.956 . S
O414 Li355 1.970 . S
O414 C384 1.325 . S
O415 Li353 1.961 . S
O415 Li354 1.970 . S
O415 Li355 1.956 . S
O415 C390 1.325 . S
H416 C358 0.929 . S
H417 C359 0.930 . S
H418 C360 0.930 . S
H419 C361 0.930 . S
H420 C363 0.930 . S
H421 C365 0.929 . S
H422 C366 0.930 . S
H423 C367 0.930 . S
H424 C370 0.930 . S
H425 C373 0.929 . S
H426 C378 0.929 . S
H427 C379 0.930 . S
H428 C386 0.929 . S
H429 C387 0.930 . S
H430 C388 0.930 . S
H431 C389 0.930 . S
H432 C391 0.929 . S
H433 C392 0.930 . S
H434 C393 0.930 . S
H435 C394 0.930 1_455 S
H436 C398 0.929 . S
H437 C400 0.930 . S
H438 C406 0.929 . S
H439 C407 0.930 . S
Li440 N457 1.990 . S
Li440 O500 1.956 . S
Li440 O501 1.970 . S
Li440 O502 1.961 . S
Li441 N465 1.990 . S
Li441 O500 1.970 . S
Li441 O501 1.956 . S
Li441 O503 1.961 . S
Li442 N487 1.990 . S
Li442 O500 1.961 . S
Li442 O502 1.956 . S
Li442 O503 1.970 . S
Li443 N493 1.990 . S
Li443 O501 1.961 . S
Li443 O502 1.970 . S
Li443 O503 1.956 . S
C444 C446 1.348 . S
C444 C447 1.356 . S
C444 O500 1.325 . S
N445 C448 1.314 . S
N445 C449 1.279 . S
C446 C444 1.348 . S
C446 C448 1.353 . S
C446 H504 0.929 . S
C447 C444 1.356 . S
C447 C449 1.358 . S
C447 H505 0.930 . S
C448 N445 1.314 . S
C448 C446 1.353 . S
C448 H506 0.930 . S
C449 N445 1.279 . S
C449 C447 1.358 . S
C449 H507 0.930 . S
C450 C453 1.348 . S
C450 C454 1.356 . S
C450 O501 1.325 . S
C451 N452 1.279 . S
C451 C454 1.358 1_565 S
C451 H508 0.930 . S
N452 C451 1.279 . S
N452 C455 1.314 . S
C453 C450 1.348 . S
C453 C455 1.353 1_545 S
C453 H509 0.929 . S
C454 C450 1.356 . S
C454 C451 1.358 1_545 S
C454 H510 0.930 . S
C455 N452 1.314 . S
C455 C453 1.353 1_565 S
C455 H511 0.930 . S
C456 N457 1.314 . S
C456 C461 1.353 . S
C456 H462 0.930 . S
N457 Li440 1.990 . S
N457 C456 1.314 . S
N457 C459 1.279 . S
C458 C459 1.358 . S
C458 C460 1.356 . S
C458 H512 0.930 . S
C459 N457 1.279 . S
C459 C458 1.358 . S
C459 H463 0.930 . S
C460 C458 1.356 . S
C460 C461 1.348 . S
C461 C456 1.353 . S
C461 C460 1.348 . S
C461 H513 0.929 . S
H462 C456 0.930 . S
H463 C459 0.930 . S
C464 N465 1.314 . S
C464 C466 1.353 . S
C464 H470 0.930 . S
N465 Li441 1.990 . S
N465 C464 1.314 . S
N465 C468 1.279 . S
C466 C464 1.353 . S
C466 C469 1.348 . S
C466 H514 0.929 . S
C467 C468 1.358 . S
C467 C469 1.356 . S
C467 H515 0.890 1_545 S
C468 N465 1.279 . S
C468 C467 1.358 . S
C468 H471 0.930 . S
C469 C466 1.348 . S
C469 C467 1.356 . S
H470 C464 0.930 . S
H471 C468 0.930 . S
C472 C474 1.348 . S
C472 C475 1.356 . S
C472 O502 1.325 . S
N473 C476 1.314 . S
N473 C477 1.279 . S
C474 C472 1.348 . S
C474 C476 1.353 . S
C474 H516 0.929 . S
C475 C472 1.356 . S
C475 C477 1.358 . S
C475 H517 0.930 . S
C476 N473 1.314 . S
C476 C474 1.353 . S
C476 H518 0.930 . S
C477 N473 1.279 . S
C477 C475 1.358 . S
C477 H519 0.930 . S
C478 C479 1.348 . S
C478 C480 1.356 . S
C478 O503 1.325 . S
C479 C478 1.348 . S
C479 C481 1.353 . S
C479 H520 0.929 . S
C480 C478 1.356 . S
C480 C482 1.358 . S
C480 H521 0.930 . S
C481 C479 1.353 . S
C481 N483 1.314 . S
C481 H522 0.930 . S
C482 C480 1.358 . S
C482 N483 1.279 . S
C482 H523 0.930 . S
N483 C481 1.314 . S
N483 C482 1.279 . S
C484 C486 1.353 . S
C484 N487 1.314 . S
C484 H490 0.930 . S
C485 N487 1.279 . S
C485 C488 1.358 . S
C485 H491 0.930 . S
C486 C484 1.353 . S
C486 C489 1.348 . S
C486 H524 0.929 . S
N487 Li442 1.990 . S
N487 C484 1.314 . S
N487 C485 1.279 . S
C488 C485 1.358 . S
C488 C489 1.356 . S
C488 H525 0.930 . S
C489 C486 1.348 . S
C489 C488 1.356 . S
H490 C484 0.930 . S
H491 C485 0.930 . S
C492 N493 1.314 . S
C492 C494 1.353 . S
C492 H498 0.930 . S
N493 Li443 1.990 . S
N493 C492 1.314 . S
N493 C496 1.279 . S
C494 C492 1.353 . S
C494 C497 1.348 . S
C494 H526 0.929 . S
C495 C496 1.358 . S
C495 C497 1.356 . S
C495 H527 0.930 . S
C496 N493 1.279 . S
C496 C495 1.358 . S
C496 H499 0.930 . S
C497 C494 1.348 . S
C497 C495 1.356 . S
H498 C492 0.930 . S
H499 C496 0.930 . S
O500 Li440 1.956 . S
O500 Li441 1.970 . S
O500 Li442 1.961 . S
O500 C444 1.325 . S
O501 Li440 1.970 . S
O501 Li441 1.956 . S
O501 Li443 1.961 . S
O501 C450 1.325 . S
O502 Li440 1.961 . S
O502 Li442 1.956 . S
O502 Li443 1.970 . S
O502 C472 1.325 . S
O503 Li441 1.961 . S
O503 Li442 1.970 . S
O503 Li443 1.956 . S
O503 C478 1.325 . S
H504 C446 0.929 . S
H505 C447 0.930 . S
H506 C448 0.930 . S
H507 C449 0.930 . S
H508 C451 0.930 . S
H509 C453 0.929 . S
H510 C454 0.930 . S
H511 C455 0.930 . S
H512 C458 0.930 . S
H513 C461 0.929 . S
H514 C466 0.929 . S
H515 C467 0.890 1_565 S
H516 C474 0.929 . S
H517 C475 0.930 . S
H518 C476 0.930 . S
H519 C477 0.930 . S
H520 C479 0.929 . S
H521 C480 0.930 . S
H522 C481 0.930 . S
H523 C482 0.930 . S
H524 C486 0.929 . S
H525 C488 0.930 . S
H526 C494 0.929 . S
H527 C495 0.930 . S
Li528 N545 1.990 . S
Li528 O588 1.956 . S
Li528 O589 1.970 . S
Li528 O590 1.961 . S
Li529 N553 1.990 . S
Li529 O588 1.970 . S
Li529 O589 1.956 . S
Li529 O591 1.961 . S
Li530 N575 1.990 . S
Li530 O588 1.961 . S
Li530 O590 1.956 . S
Li530 O591 1.970 . S
Li531 N581 1.990 . S
Li531 O589 1.961 . S
Li531 O590 1.970 . S
Li531 O591 1.956 . S
C532 C534 1.348 . S
C532 C535 1.356 . S
C532 O588 1.325 . S
N533 C536 1.314 . S
N533 C537 1.279 . S
C534 C532 1.348 . S
C534 C536 1.353 . S
C534 H592 0.929 . S
C535 C532 1.356 . S
C535 C537 1.358 . S
C535 H593 0.930 . S
C536 N533 1.314 . S
C536 C534 1.353 . S
C536 H594 0.930 . S
C537 N533 1.279 . S
C537 C535 1.358 . S
C537 H595 0.930 . S
C538 C541 1.348 . S
C538 C542 1.356 . S
C538 O589 1.325 . S
C539 N540 1.279 . S
C539 C542 1.358 . S
C539 H596 0.930 . S
N540 C539 1.279 . S
N540 C543 1.314 . S
C541 C538 1.348 . S
C541 C543 1.353 . S
C541 H597 0.929 . S
C542 C538 1.356 . S
C542 C539 1.358 . S
C542 H598 0.930 . S
C543 N540 1.314 . S
C543 C541 1.353 . S
C543 H599 0.930 . S
C544 N545 1.314 . S
C544 C549 1.353 . S
C544 H550 0.930 . S
N545 Li528 1.990 . S
N545 C544 1.314 . S
N545 C547 1.279 . S
C546 C547 1.358 . S
C546 C548 1.356 . S
C546 H600 0.930 . S
C547 N545 1.279 . S
C547 C546 1.358 . S
C547 H551 0.930 . S
C548 C546 1.356 . S
C548 C549 1.348 . S
C549 C544 1.353 . S
C549 C548 1.348 . S
C549 H601 0.929 . S
H550 C544 0.930 . S
H551 C547 0.930 . S
C552 N553 1.314 . S
C552 C554 1.353 . S
C552 H558 0.930 . S
N553 Li529 1.990 . S
N553 C552 1.314 . S
N553 C556 1.279 . S
C554 C552 1.353 . S
C554 C557 1.348 . S
C554 H602 0.929 . S
C555 C556 1.358 . S
C555 C557 1.356 . S
C555 H603 0.930 . S
C556 N553 1.279 . S
C556 C555 1.358 . S
C556 H559 0.930 . S
C557 C554 1.348 . S
C557 C555 1.356 . S
H558 C552 0.930 . S
H559 C556 0.930 . S
C560 C562 1.348 . S
C560 C563 1.356 . S
C560 O590 1.325 . S
N561 C564 1.314 . S
N561 C565 1.279 . S
C562 C560 1.348 . S
C562 C564 1.353 . S
C562 H604 0.929 . S
C563 C560 1.356 . S
C563 C565 1.358 . S
C563 H605 0.930 . S
C564 N561 1.314 . S
C564 C562 1.353 . S
C564 H606 0.930 . S
C565 N561 1.279 . S
C565 C563 1.358 . S
C565 H607 0.930 . S
C566 C567 1.348 . S
C566 C568 1.356 . S
C566 O591 1.325 . S
C567 C566 1.348 . S
C567 C569 1.353 . S
C567 H608 0.929 . S
C568 C566 1.356 . S
C568 C570 1.358 . S
C568 H609 0.930 . S
C569 C567 1.353 . S
C569 N571 1.314 . S
C569 H610 0.930 . S
C570 C568 1.358 . S
C570 N571 1.279 . S
C570 H611 0.930 . S
N571 C569 1.314 . S
N571 C570 1.279 . S
C572 C574 1.353 . S
C572 N575 1.314 . S
C572 H578 0.930 . S
C573 N575 1.279 . S
C573 C576 1.358 . S
C573 H579 0.930 . S
C574 C572 1.353 . S
C574 C577 1.348 . S
C574 H612 0.929 . S
N575 Li530 1.990 . S
N575 C572 1.314 . S
N575 C573 1.279 . S
C576 C573 1.358 . S
C576 C577 1.356 . S
C576 H613 0.930 . S
C577 C574 1.348 . S
C577 C576 1.356 . S
H578 C572 0.930 . S
H579 C573 0.930 . S
C580 N581 1.314 . S
C580 C582 1.353 . S
C580 H586 0.930 . S
N581 Li531 1.990 . S
N581 C580 1.314 . S
N581 C584 1.279 . S
C582 C580 1.353 . S
C582 C585 1.348 . S
C582 H614 0.929 . S
C583 C584 1.358 . S
C583 C585 1.356 . S
C583 H615 0.930 . S
C584 N581 1.279 . S
C584 C583 1.358 . S
C584 H587 0.930 . S
C585 C582 1.348 . S
C585 C583 1.356 . S
H586 C580 0.930 . S
H587 C584 0.930 . S
O588 Li528 1.956 . S
O588 Li529 1.970 . S
O588 Li530 1.961 . S
O588 C532 1.325 . S
O589 Li528 1.970 . S
O589 Li529 1.956 . S
O589 Li531 1.961 . S
O589 C538 1.325 . S
O590 Li528 1.961 . S
O590 Li530 1.956 . S
O590 Li531 1.970 . S
O590 C560 1.325 . S
O591 Li529 1.961 . S
O591 Li530 1.970 . S
O591 Li531 1.956 . S
O591 C566 1.325 . S
H592 C534 0.929 . S
H593 C535 0.930 . S
H594 C536 0.930 . S
H595 C537 0.930 . S
H596 C539 0.930 . S
H597 C541 0.929 . S
H598 C542 0.930 . S
H599 C543 0.930 . S
H600 C546 0.930 . S
H601 C549 0.929 . S
H602 C554 0.929 . S
H603 C555 0.930 . S
H604 C562 0.929 . S
H605 C563 0.930 . S
H606 C564 0.930 . S
H607 C565 0.930 . S
H608 C567 0.929 . S
H609 C568 0.930 . S
H610 C569 0.930 . S
H611 C570 0.930 . S
H612 C574 0.929 . S
H613 C576 0.930 . S
H614 C582 0.929 . S
H615 C583 0.930 . S
Li616 N633 1.990 . S
Li616 O676 1.956 . S
Li616 O677 1.970 . S
Li616 O678 1.961 . S
Li617 N641 1.990 . S
Li617 O676 1.970 . S
Li617 O677 1.956 . S
Li617 O679 1.961 . S
Li618 N663 1.990 . S
Li618 O676 1.961 . S
Li618 O678 1.956 . S
Li618 O679 1.970 . S
Li619 N669 1.990 . S
Li619 O677 1.961 . S
Li619 O678 1.970 . S
Li619 O679 1.956 . S
C620 C622 1.348 . S
C620 C623 1.356 . S
C620 O676 1.325 . S
N621 C624 1.314 . S
N621 C625 1.279 . S
C622 C620 1.348 . S
C622 C624 1.353 . S
C622 H680 0.929 . S
C623 C620 1.356 . S
C623 C625 1.358 . S
C623 H681 0.930 . S
C624 N621 1.314 . S
C624 C622 1.353 . S
C624 H682 0.930 . S
C625 N621 1.279 . S
C625 C623 1.358 . S
C625 H683 0.930 . S
C626 C629 1.348 . S
C626 C630 1.356 . S
C626 O677 1.325 . S
C627 N628 1.279 . S
C627 C630 1.358 . S
C627 H684 0.930 1_455 S
N628 C627 1.279 . S
N628 C631 1.314 . S
C629 C626 1.348 . S
C629 C631 1.353 . S
C629 H685 0.929 . S
C630 C626 1.356 . S
C630 C627 1.358 . S
C630 H686 0.930 . S
C631 N628 1.314 . S
C631 C629 1.353 . S
C631 H687 0.930 . S
C632 N633 1.314 . S
C632 C637 1.353 . S
C632 H638 0.930 . S
N633 Li616 1.990 . S
N633 C632 1.314 . S
N633 C635 1.279 . S
C634 C635 1.358 . S
C634 C636 1.356 . S
C634 H688 0.930 . S
C635 N633 1.279 . S
C635 C634 1.358 . S
C635 H639 0.930 . S
C636 C634 1.356 . S
C636 C637 1.348 . S
C637 C632 1.353 . S
C637 C636 1.348 . S
C637 H689 0.929 . S
H638 C632 0.930 . S
H639 C635 0.930 . S
C640 N641 1.314 . S
C640 C642 1.353 . S
C640 H646 0.930 . S
N641 Li617 1.990 . S
N641 C640 1.314 . S
N641 C644 1.279 . S
C642 C640 1.353 . S
C642 C645 1.348 . S
C642 H690 0.929 . S
C643 C644 1.358 . S
C643 C645 1.356 . S
C643 H691 0.930 . S
C644 N641 1.279 . S
C644 C643 1.358 . S
C644 H647 0.930 . S
C645 C642 1.348 . S
C645 C643 1.356 . S
H646 C640 0.930 . S
H647 C644 0.930 . S
C648 C650 1.348 . S
C648 C651 1.356 . S
C648 O678 1.325 . S
N649 C652 1.314 . S
N649 C653 1.279 . S
C650 C648 1.348 . S
C650 C652 1.353 1_565 S
C650 H692 0.929 . S
C651 C648 1.356 . S
C651 C653 1.358 1_565 S
C651 H693 0.930 . S
C652 N649 1.314 . S
C652 C650 1.353 1_545 S
C652 H694 0.930 . S
C653 N649 1.279 . S
C653 C651 1.358 1_545 S
C653 H695 0.930 . S
C654 C655 1.348 . S
C654 C656 1.356 . S
C654 O679 1.325 . S
C655 C654 1.348 . S
C655 C657 1.353 . S
C655 H696 0.929 . S
C656 C654 1.356 . S
C656 C658 1.358 . S
C656 H697 0.930 . S
C657 C655 1.353 . S
C657 N659 1.314 . S
C657 H698 0.930 . S
C658 C656 1.358 . S
C658 N659 1.279 . S
C658 H699 0.930 . S
N659 C657 1.314 . S
N659 C658 1.279 . S
C660 C662 1.353 . S
C660 N663 1.314 . S
C660 H666 0.930 . S
C661 N663 1.279 . S
C661 C664 1.358 . S
C661 H667 0.930 . S
C662 C660 1.353 . S
C662 C665 1.348 . S
C662 H700 0.929 . S
N663 Li618 1.990 . S
N663 C660 1.314 . S
N663 C661 1.279 . S
C664 C661 1.358 . S
C664 C665 1.356 . S
C664 H701 0.890 1_565 S
C665 C662 1.348 . S
C665 C664 1.356 . S
H666 C660 0.930 . S
H667 C661 0.930 . S
C668 N669 1.314 . S
C668 C670 1.353 1_455 S
C668 H674 0.930 . S
N669 Li619 1.990 . S
N669 C668 1.314 . S
N669 C672 1.279 . S
C670 C668 1.353 1_655 S
C670 C673 1.348 . S
C670 H702 0.929 . S
C671 C672 1.358 . S
C671 C673 1.356 1_455 S
C671 H703 0.930 . S
C672 N669 1.279 . S
C672 C671 1.358 . S
C672 H675 0.930 . S
C673 C670 1.348 . S
C673 C671 1.356 1_655 S
H674 C668 0.930 . S
H675 C672 0.930 . S
O676 Li616 1.956 . S
O676 Li617 1.970 . S
O676 Li618 1.961 . S
O676 C620 1.325 . S
O677 Li616 1.970 . S
O677 Li617 1.956 . S
O677 Li619 1.961 . S
O677 C626 1.325 . S
O678 Li616 1.961 . S
O678 Li618 1.956 . S
O678 Li619 1.970 . S
O678 C648 1.325 . S
O679 Li617 1.961 . S
O679 Li618 1.970 . S
O679 Li619 1.956 . S
O679 C654 1.325 . S
H680 C622 0.929 . S
H681 C623 0.930 . S
H682 C624 0.930 . S
H683 C625 0.930 . S
H684 C627 0.930 1_655 S
H685 C629 0.929 . S
H686 C630 0.930 . S
H687 C631 0.930 . S
H688 C634 0.930 . S
H689 C637 0.929 . S
H690 C642 0.929 . S
H691 C643 0.930 . S
H692 C650 0.929 . S
H693 C651 0.930 . S
H694 C652 0.930 . S
H695 C653 0.930 . S
H696 C655 0.929 . S
H697 C656 0.930 . S
H698 C657 0.930 . S
H699 C658 0.930 . S
H700 C662 0.929 . S
H701 C664 0.890 1_545 S
H702 C670 0.929 . S
H703 C671 0.930 . S
H704 C712 0.929 . S
H705 C714 0.930 . S
H706 C716 0.930 . S
H707 C719 0.929 . S
H708 C722 0.930 . S
H709 C724 0.960 . S
H710 C724 0.960 . S
H711 C724 0.960 . S
C712 H704 0.929 . S
C712 C713 1.377 . S
C712 C714 1.384 . S
C713 C712 1.377 . S
C713 C719 1.390 . S
C714 H705 0.930 . S
C714 C712 1.384 . S
C714 C715 1.372 . S
C715 C714 1.372 . S
C715 C716 1.400 . S
C715 C720 1.490 . S
C716 H706 0.930 . S
C716 C715 1.400 . S
C716 C719 1.386 . S
H717 C733 0.930 . S
H718 C734 0.931 . S
C719 H707 0.929 . S
C719 C713 1.390 . S
C719 C716 1.386 . S
C720 C715 1.490 . S
C720 C722 1.395 . S
C720 C723 1.403 . S
H721 C727 0.930 . S
C722 H708 0.930 . S
C722 C720 1.395 . S
C722 C725 1.403 . S
C723 C720 1.403 . S
C723 C724 1.524 . S
C723 C727 1.400 . S
C724 H709 0.960 . S
C724 H710 0.960 . S
C724 H711 0.960 . S
C724 C723 1.524 . S
C725 C722 1.403 . S
C725 C726 1.392 . S
C725 C729 1.495 . S
C726 C725 1.392 . S
C726 C727 1.385 . S
C726 C728 1.478 . S
C727 H721 0.930 . S
C727 C723 1.400 . S
C727 C726 1.385 . S
C728 C726 1.478 . S
C728 C730 1.381 . S
C728 C734 1.383 . S
C729 C725 1.495 . S
C729 H735 0.959 . S
C729 H736 0.961 . S
C729 H737 0.960 . S
C730 C728 1.381 . S
C730 C731 1.394 . S
C730 H738 0.930 . S
C731 C730 1.394 . S
C731 C732 1.383 . S
C731 H739 0.929 . S
C732 C731 1.383 . S
C732 C733 1.377 . S
C733 H717 0.930 . S
C733 C732 1.377 . S
C733 C734 1.379 . S
C734 H718 0.931 . S
C734 C728 1.383 . S
C734 C733 1.379 . S
H735 C729 0.959 . S
H736 C729 0.961 . S
H737 C729 0.960 . S
H738 C730 0.930 . S
H739 C731 0.929 . S
H740 C748 0.929 . S
H741 C750 0.930 . S
H742 C752 0.930 . S
H743 C755 0.929 . S
H744 C758 0.930 . S
H745 C760 0.960 . S
H746 C760 0.960 . S
H747 C760 0.960 . S
C748 H740 0.929 . S
C748 C749 1.377 . S
C748 C750 1.384 . S
C749 C748 1.377 . S
C749 C755 1.390 . S
C750 H741 0.930 . S
C750 C748 1.384 . S
C750 C751 1.372 . S
C751 C750 1.372 . S
C751 C752 1.400 . S
C751 C756 1.490 . S
C752 H742 0.930 . S
C752 C751 1.400 . S
C752 C755 1.386 . S
H753 C769 0.930 . S
H754 C770 0.931 . S
C755 H743 0.929 . S
C755 C749 1.390 . S
C755 C752 1.386 . S
C756 C751 1.490 . S
C756 C758 1.395 . S
C756 C759 1.403 . S
H757 C763 0.930 . S
C758 H744 0.930 . S
C758 C756 1.395 . S
C758 C761 1.403 1_545 S
C759 C756 1.403 . S
C759 C760 1.524 . S
C759 C763 1.400 . S
C760 H745 0.960 . S
C760 H746 0.960 . S
C760 H747 0.960 . S
C760 C759 1.524 . S
C761 C758 1.403 1_565 S
C761 C762 1.392 1_565 S
C761 C765 1.495 . S
C762 C761 1.392 1_545 S
C762 C763 1.385 . S
C762 C764 1.478 1_545 S
C763 H757 0.930 . S
C763 C759 1.400 . S
C763 C762 1.385 . S
C764 C762 1.478 1_565 S
C764 C766 1.381 . S
C764 C770 1.383 1_565 S
C765 C761 1.495 . S
C765 H771 0.959 . S
C765 H772 0.961 . S
C765 H773 0.960 . S
C766 C764 1.381 . S
C766 C767 1.394 . S
C766 H774 0.930 . S
C767 C766 1.394 . S
C767 C768 1.383 . S
C767 H775 0.929 . S
C768 C767 1.383 . S
C768 C769 1.377 1_565 S
C769 H753 0.930 . S
C769 C768 1.377 1_545 S
C769 C770 1.379 . S
C770 H754 0.931 . S
C770 C764 1.383 1_545 S
C770 C769 1.379 . S
H771 C765 0.959 . S
H772 C765 0.961 . S
H773 C765 0.960 . S
H774 C766 0.930 . S
H775 C767 0.929 . S
H776 C784 0.929 . S
H777 C786 0.930 . S
H778 C788 0.930 . S
H779 C791 0.929 . S
H780 C794 0.930 . S
H781 C796 0.960 . S
H782 C796 0.960 . S
H783 C796 0.960 . S
C784 H776 0.929 . S
C784 C785 1.377 . S
C784 C786 1.384 . S
C785 C784 1.377 . S
C785 C791 1.390 . S
C786 H777 0.930 . S
C786 C784 1.384 . S
C786 C787 1.372 . S
C787 C786 1.372 . S
C787 C788 1.400 . S
C787 C792 1.490 . S
C788 H778 0.930 . S
C788 C787 1.400 . S
C788 C791 1.386 . S
H789 C805 0.930 1_455 S
H790 C806 0.931 . S
C791 H779 0.929 . S
C791 C785 1.390 . S
C791 C788 1.386 . S
C792 C787 1.490 . S
C792 C794 1.395 . S
C792 C795 1.403 . S
H793 C799 0.930 . S
C794 H780 0.930 . S
C794 C792 1.395 . S
C794 C797 1.403 . S
C795 C792 1.403 . S
C795 C796 1.524 . S
C795 C799 1.400 . S
C796 H781 0.960 . S
C796 H782 0.960 . S
C796 H783 0.960 . S
C796 C795 1.524 . S
C797 C794 1.403 . S
C797 C798 1.392 . S
C797 C801 1.495 . S
C798 C797 1.392 . S
C798 C799 1.385 . S
C798 C800 1.478 . S
C799 H793 0.930 . S
C799 C795 1.400 . S
C799 C798 1.385 . S
C800 C798 1.478 . S
C800 C802 1.381 . S
C800 C806 1.383 . S
C801 C797 1.495 . S
C801 H807 0.959 . S
C801 H808 0.961 . S
C801 H809 0.960 . S
C802 C800 1.381 . S
C802 C803 1.394 . S
C802 H810 0.930 . S
C803 C802 1.394 . S
C803 C804 1.383 . S
C803 H811 0.929 . S
C804 C803 1.383 . S
C804 C805 1.377 . S
C805 H789 0.930 1_655 S
C805 C804 1.377 . S
C805 C806 1.379 . S
C806 H790 0.931 . S
C806 C800 1.383 . S
C806 C805 1.379 . S
H807 C801 0.959 . S
H808 C801 0.961 . S
H809 C801 0.960 . S
H810 C802 0.930 . S
H811 C803 0.929 . S
H812 C820 0.929 . S
H813 C822 0.930 . S
H814 C824 0.930 . S
H815 C827 0.929 . S
H816 C830 0.939 . S
H817 C832 0.960 . S
H818 C832 0.960 . S
H819 C832 0.960 . S
C820 H812 0.929 . S
C820 C821 1.377 . S
C820 C822 1.384 . S
C821 C820 1.377 . S
C821 C827 1.390 1_545 S
C822 H813 0.930 . S
C822 C820 1.384 . S
C822 C823 1.372 . S
C823 C822 1.372 . S
C823 C824 1.400 1_545 S
C823 C828 1.490 1_545 S
C824 H814 0.930 . S
C824 C823 1.400 1_565 S
C824 C827 1.386 . S
H825 C841 0.930 . S
H826 C842 0.931 . S
C827 H815 0.929 . S
C827 C821 1.390 1_565 S
C827 C824 1.386 . S
C828 C823 1.490 1_565 S
C828 C830 1.395 . S
C828 C831 1.403 . S
H829 C835 0.930 . S
C830 H816 0.939 . S
C830 C828 1.395 . S
C830 C833 1.403 . S
C831 C828 1.403 . S
C831 C832 1.524 . S
C831 C835 1.400 . S
C832 H817 0.960 . S
C832 H818 0.960 . S
C832 H819 0.960 . S
C832 C831 1.524 . S
C833 C830 1.403 . S
C833 C834 1.392 . S
C833 C837 1.495 . S
C834 C833 1.392 . S
C834 C835 1.385 . S
C834 C836 1.478 . S
C835 H829 0.930 . S
C835 C831 1.400 . S
C835 C834 1.385 . S
C836 C834 1.478 . S
C836 C838 1.381 . S
C836 C842 1.383 . S
C837 C833 1.495 . S
C837 H843 0.959 . S
C837 H844 0.961 . S
C837 H845 0.960 . S
C838 C836 1.381 . S
C838 C839 1.394 . S
C838 H846 0.930 . S
C839 C838 1.394 . S
C839 C840 1.383 . S
C839 H847 0.929 . S
C840 C839 1.383 . S
C840 C841 1.377 . S
C841 H825 0.930 . S
C841 C840 1.377 . S
C841 C842 1.379 . S
C842 H826 0.931 . S
C842 C836 1.383 . S
C842 C841 1.379 . S
H843 C837 0.959 . S
H844 C837 0.961 . S
H845 C837 0.960 . S
H846 C838 0.930 . S
H847 C839 0.929 . S
H848 C856 0.929 . S
H849 C858 0.930 . S
H850 C860 0.930 . S
H851 C863 0.929 . S
H852 C866 0.930 . S
H853 C868 0.960 . S
H854 C868 0.960 . S
H855 C868 0.960 . S
C856 H848 0.929 . S
C856 C857 1.377 . S
C856 C858 1.384 . S
C857 C856 1.377 . S
C857 C863 1.390 . S
C858 H849 0.930 . S
C858 C856 1.384 . S
C858 C859 1.372 . S
C859 C858 1.372 . S
C859 C860 1.400 . S
C859 C864 1.490 . S
C860 H850 0.930 . S
C860 C859 1.400 . S
C860 C863 1.386 . S
H861 C877 0.930 . S
H862 C878 0.931 . S
C863 H851 0.929 . S
C863 C857 1.390 . S
C863 C860 1.386 . S
C864 C859 1.490 . S
C864 C866 1.395 . S
C864 C867 1.403 . S
H865 C871 0.930 . S
C866 H852 0.930 . S
C866 C864 1.395 . S
C866 C869 1.403 . S
C867 C864 1.403 . S
C867 C868 1.524 . S
C867 C871 1.400 . S
C868 H853 0.960 . S
C868 H854 0.960 . S
C868 H855 0.960 . S
C868 C867 1.524 . S
C869 C866 1.403 . S
C869 C870 1.392 . S
C869 C873 1.495 . S
C870 C869 1.392 . S
C870 C871 1.385 . S
C870 C872 1.478 . S
C871 H865 0.930 . S
C871 C867 1.400 . S
C871 C870 1.385 . S
C872 C870 1.478 . S
C872 C874 1.381 . S
C872 C878 1.383 . S
C873 C869 1.495 . S
C873 H879 0.959 . S
C873 H880 0.961 . S
C873 H881 0.960 . S
C874 C872 1.381 . S
C874 C875 1.394 . S
C874 H882 0.930 . S
C875 C874 1.394 . S
C875 C876 1.383 . S
C875 H883 0.929 . S
C876 C875 1.383 . S
C876 C877 1.377 . S
C877 H861 0.930 . S
C877 C876 1.377 . S
C877 C878 1.379 . S
C878 H862 0.931 . S
C878 C872 1.383 . S
C878 C877 1.379 . S
H879 C873 0.959 . S
H880 C873 0.961 . S
H881 C873 0.960 . S
H882 C874 0.930 . S
H883 C875 0.929 . S
H884 C892 0.930 1_565 S
H885 C894 0.930 . S
H886 C896 0.930 . S
H887 C899 0.929 . S
H888 C902 0.930 . S
H889 C904 0.960 . S
H890 C904 0.960 . S
H891 C904 0.960 . S
C892 H884 0.930 1_545 S
C892 C893 1.377 . S
C892 C894 1.384 1_545 S
C893 C892 1.377 . S
C893 C899 1.390 . S
C894 H885 0.930 . S
C894 C892 1.384 1_565 S
C894 C895 1.368 1_565 S
C895 C894 1.368 1_545 S
C895 C896 1.411 . S
C895 C900 1.483 1_545 S
C896 H886 0.930 . S
C896 C895 1.411 . S
C896 C899 1.386 . S
H897 C913 0.930 1_455 S
H898 C914 0.931 . S
C899 H887 0.929 . S
C899 C893 1.390 . S
C899 C896 1.386 . S
C900 C895 1.483 1_565 S
C900 C902 1.395 . S
C900 C903 1.403 1_565 S
H901 C907 0.911 1_545 S
C902 H888 0.930 . S
C902 C900 1.395 . S
C902 C905 1.403 . S
C903 C900 1.403 1_545 S
C903 C904 1.524 . S
C903 C907 1.400 1_545 S
C904 H889 0.960 . S
C904 H890 0.960 . S
C904 H891 0.960 . S
C904 C903 1.524 . S
C905 C902 1.403 . S
C905 C906 1.392 . S
C905 C909 1.495 . S
C906 C905 1.392 . S
C906 C907 1.385 . S
C906 C908 1.478 . S
C907 H901 0.911 1_565 S
C907 C903 1.400 1_565 S
C907 C906 1.385 . S
C908 C906 1.478 . S
C908 C910 1.381 . S
C908 C914 1.383 . S
C909 C905 1.495 . S
C909 H915 0.959 . S
C909 H916 0.961 . S
C909 H917 0.960 . S
C910 C908 1.381 . S
C910 C911 1.394 . S
C910 H918 0.930 . S
C911 C910 1.394 . S
C911 C912 1.383 . S
C911 H919 0.929 . S
C912 C911 1.383 . S
C912 C913 1.377 . S
C913 H897 0.930 1_655 S
C913 C912 1.377 . S
C913 C914 1.379 . S
C914 H898 0.931 . S
C914 C908 1.383 . S
C914 C913 1.379 . S
H915 C909 0.959 . S
H916 C909 0.961 . S
H917 C909 0.960 . S
H918 C910 0.930 . S
H919 C911 0.929 . S
H920 C928 0.929 . S
H921 C930 0.930 . S
H922 C932 0.930 . S
H923 C935 0.929 . S
H924 C938 0.930 . S
H925 C940 0.960 . S
H926 C940 0.960 . S
H927 C940 0.960 . S
C928 H920 0.929 . S
C928 C929 1.377 . S
C928 C930 1.384 . S
C929 C928 1.377 . S
C929 C935 1.390 . S
C930 H921 0.930 . S
C930 C928 1.384 . S
C930 C931 1.372 . S
C931 C930 1.372 . S
C931 C932 1.400 . S
C931 C936 1.490 . S
C932 H922 0.930 . S
C932 C931 1.400 . S
C932 C935 1.386 . S
H933 C949 0.930 . S
H934 C950 0.931 . S
C935 H923 0.929 . S
C935 C929 1.390 . S
C935 C932 1.386 . S
C936 C931 1.490 . S
C936 C938 1.395 . S
C936 C939 1.403 . S
H937 C943 0.930 . S
C938 H924 0.930 . S
C938 C936 1.395 . S
C938 C941 1.403 . S
C939 C936 1.403 . S
C939 C940 1.524 . S
C939 C943 1.400 . S
C940 H925 0.960 . S
C940 H926 0.960 . S
C940 H927 0.960 . S
C940 C939 1.524 . S
C941 C938 1.403 . S
C941 C942 1.392 . S
C941 C945 1.495 . S
C942 C941 1.392 . S
C942 C943 1.385 . S
C942 C944 1.478 . S
C943 H937 0.930 . S
C943 C939 1.400 . S
C943 C942 1.385 . S
C944 C942 1.478 . S
C944 C946 1.381 . S
C944 C950 1.383 . S
C945 C941 1.495 . S
C945 H951 0.959 . S
C945 H952 0.961 . S
C945 H953 0.960 . S
C946 C944 1.381 . S
C946 C947 1.394 . S
C946 H954 0.930 . S
C947 C946 1.394 . S
C947 C948 1.383 . S
C947 H955 0.929 . S
C948 C947 1.383 . S
C948 C949 1.377 . S
C949 H933 0.930 . S
C949 C948 1.377 . S
C949 C950 1.379 . S
C950 H934 0.931 . S
C950 C944 1.383 . S
C950 C949 1.379 . S
H951 C945 0.959 . S
H952 C945 0.961 . S
H953 C945 0.960 . S
H954 C946 0.930 . S
H955 C947 0.929 . S
H956 C964 0.941 . S
H957 C966 0.930 . S
H958 C968 0.930 . S
H959 C971 0.929 . S
H960 C974 0.930 . S
H961 C976 0.960 . S
H962 C976 0.960 . S
H963 C976 0.960 . S
C964 H956 0.941 . S
C964 C965 1.356 1_545 S
C964 C966 1.394 . S
C965 C964 1.356 1_565 S
C965 C971 1.390 . S
C966 H957 0.930 . S
C966 C964 1.394 . S
C966 C967 1.373 . S
C967 C966 1.373 . S
C967 C968 1.398 1_545 S
C967 C972 1.491 . S
C968 H958 0.930 . S
C968 C967 1.398 1_565 S
C968 C971 1.386 . S
H969 C985 0.930 . S
H970 C986 0.931 . S
C971 H959 0.929 . S
C971 C965 1.390 . S
C971 C968 1.386 . S
C972 C967 1.491 . S
C972 C974 1.395 . S
C972 C975 1.403 . S
H973 C979 0.930 . S
C974 H960 0.930 . S
C974 C972 1.395 . S
C974 C977 1.403 . S
C975 C972 1.403 . S
C975 C976 1.524 . S
C975 C979 1.400 . S
C976 H961 0.960 . S
C976 H962 0.960 . S
C976 H963 0.960 . S
C976 C975 1.524 . S
C977 C974 1.403 . S
C977 C978 1.392 . S
C977 C981 1.495 . S
C978 C977 1.392 . S
C978 C979 1.385 . S
C978 C980 1.478 . S
C979 H973 0.930 . S
C979 C975 1.400 . S
C979 C978 1.385 . S
C980 C978 1.478 . S
C980 C982 1.381 . S
C980 C986 1.383 . S
C981 C977 1.495 . S
C981 H987 0.959 . S
C981 H988 0.961 . S
C981 H989 0.960 . S
C982 C980 1.381 . S
C982 C983 1.394 . S
C982 H990 0.930 . S
C983 C982 1.394 . S
C983 C984 1.383 . S
C983 H991 0.929 . S
C984 C983 1.383 . S
C984 C985 1.377 . S
C985 H969 0.930 . S
C985 C984 1.377 . S
C985 C986 1.379 . S
C986 H970 0.931 . S
C986 C980 1.383 . S
C986 C985 1.379 . S
H987 C981 0.959 . S
H988 C981 0.961 . S
H989 C981 0.960 . S
H990 C982 0.930 . S
H991 C983 0.929 . S
H992 C1000 0.929 . S
H993 C1002 0.930 . S
H994 C1004 0.930 . S
H995 C1007 0.929 . S
H996 C1010 0.930 . S
H997 C1012 0.960 . S
H998 C1012 0.960 . S
H999 C1012 0.960 . S
C1000 H992 0.929 . S
C1000 C1001 1.377 . S
C1000 C1002 1.384 . S
C1001 C1000 1.377 . S
C1001 C1007 1.390 . S
C1002 H993 0.930 . S
C1002 C1000 1.384 . S
C1002 C1003 1.372 . S
C1003 C1002 1.372 . S
C1003 C1004 1.400 . S
C1003 C1008 1.490 . S
C1004 H994 0.930 . S
C1004 C1003 1.400 . S
C1004 C1007 1.386 . S
H1005 C1021 0.930 . S
H1006 C1022 0.931 . S
C1007 H995 0.929 . S
C1007 C1001 1.390 . S
C1007 C1004 1.386 . S
C1008 C1003 1.490 . S
C1008 C1010 1.395 1_455 S
C1008 C1011 1.403 . S
H1009 C1015 0.930 . S
C1010 H996 0.930 . S
C1010 C1008 1.395 1_655 S
C1010 C1013 1.403 . S
C1011 C1008 1.403 . S
C1011 C1012 1.524 . S
C1011 C1015 1.400 . S
C1012 H997 0.960 . S
C1012 H998 0.960 . S
C1012 H999 0.960 . S
C1012 C1011 1.524 . S
C1013 C1010 1.403 . S
C1013 C1014 1.392 . S
C1013 C1017 1.495 . S
C1014 C1013 1.392 . S
C1014 C1015 1.385 1_655 S
C1014 C1016 1.478 . S
C1015 H1009 0.930 . S
C1015 C1011 1.400 . S
C1015 C1014 1.385 1_455 S
C1016 C1014 1.478 . S
C1016 C1018 1.381 . S
C1016 C1022 1.383 . S
C1017 C1013 1.495 . S
C1017 H1023 0.959 . S
C1017 H1024 0.961 . S
C1017 H1025 0.960 . S
C1018 C1016 1.381 . S
C1018 C1019 1.394 . S
C1018 H1026 0.930 . S
C1019 C1018 1.394 . S
C1019 C1020 1.383 . S
C1019 H1027 0.929 . S
C1020 C1019 1.383 . S
C1020 C1021 1.377 . S
C1021 H1005 0.930 . S
C1021 C1020 1.377 . S
C1021 C1022 1.379 . S
C1022 H1006 0.931 . S
C1022 C1016 1.383 . S
C1022 C1021 1.379 . S
H1023 C1017 0.959 . S
H1024 C1017 0.961 . S
H1025 C1017 0.960 . S
H1026 C1018 0.930 . S
H1027 C1019 0.929 . S
H1028 C1036 0.929 . S
H1029 C1038 0.930 . S
H1030 C1040 0.930 1_545 S
H1031 C1043 0.929 . S
H1032 C1046 0.930 . S
H1033 C1048 0.960 . S
H1034 C1048 0.960 . S
H1035 C1048 0.960 . S
C1036 H1028 0.929 . S
C1036 C1037 1.377 . S
C1036 C1038 1.384 . S
C1037 C1036 1.377 . S
C1037 C1043 1.390 . S
C1038 H1029 0.930 . S
C1038 C1036 1.384 . S
C1038 C1039 1.372 . S
C1039 C1038 1.372 . S
C1039 C1040 1.400 . S
C1039 C1044 1.490 . S
C1040 H1030 0.930 1_565 S
C1040 C1039 1.400 . S
C1040 C1043 1.386 . S
H1041 C1057 0.930 . S
H1042 C1058 0.931 . S
C1043 H1031 0.929 . S
C1043 C1037 1.390 . S
C1043 C1040 1.386 . S
C1044 C1039 1.490 . S
C1044 C1046 1.395 . S
C1044 C1047 1.403 1_565 S
H1045 C1051 0.930 . S
C1046 H1032 0.930 . S
C1046 C1044 1.395 . S
C1046 C1049 1.403 . S
C1047 C1044 1.403 1_545 S
C1047 C1048 1.524 . S
C1047 C1051 1.400 . S
C1048 H1033 0.960 . S
C1048 H1034 0.960 . S
C1048 H1035 0.960 . S
C1048 C1047 1.524 . S
C1049 C1046 1.403 . S
C1049 C1050 1.392 1_565 S
C1049 C1053 1.495 . S
C1050 C1049 1.392 1_545 S
C1050 C1051 1.385 . S
C1050 C1052 1.478 . S
C1051 H1045 0.930 . S
C1051 C1047 1.400 . S
C1051 C1050 1.385 . S
C1052 C1050 1.478 . S
C1052 C1054 1.381 . S
C1052 C1058 1.383 . S
C1053 C1049 1.495 . S
C1053 H1059 0.959 . S
C1053 H1060 0.961 . S
C1053 H1061 0.960 . S
C1054 C1052 1.381 . S
C1054 C1055 1.394 . S
C1054 H1062 0.930 1_545 S
C1055 C1054 1.394 . S
C1055 C1056 1.383 . S
C1055 H1063 0.929 . S
C1056 C1055 1.383 . S
C1056 C1057 1.377 . S
C1057 H1041 0.930 . S
C1057 C1056 1.377 . S
C1057 C1058 1.379 . S
C1058 H1042 0.931 . S
C1058 C1052 1.383 . S
C1058 C1057 1.379 . S
H1059 C1053 0.959 . S
H1060 C1053 0.961 . S
H1061 C1053 0.960 . S
H1062 C1054 0.930 1_565 S
H1063 C1055 0.929 . S
H1064 C1072 0.929 . S
H1065 C1074 0.930 . S
H1066 C1076 0.930 . S
H1067 C1079 0.929 . S
H1068 C1082 0.930 . S
H1069 C1084 0.960 1_556 S
H1070 C1084 0.960 . S
H1071 C1084 0.960 . S
C1072 H1064 0.929 . S
C1072 C1073 1.377 . S
C1072 C1074 1.384 . S
C1073 C1072 1.377 . S
C1073 C1079 1.390 . S
C1074 H1065 0.930 . S
C1074 C1072 1.384 . S
C1074 C1075 1.372 . S
C1075 C1074 1.372 . S
C1075 C1076 1.400 . S
C1075 C1080 1.490 . S
C1076 H1066 0.930 . S
C1076 C1075 1.400 . S
C1076 C1079 1.386 . S
H1077 C1093 0.930 . S
H1078 C1094 0.931 . S
C1079 H1067 0.929 . S
C1079 C1073 1.390 . S
C1079 C1076 1.386 . S
C1080 C1075 1.490 . S
C1080 C1082 1.395 . S
C1080 C1083 1.403 . S
H1081 C1087 0.930 . S
C1082 H1068 0.930 . S
C1082 C1080 1.395 . S
C1082 C1085 1.403 1_554 S
C1083 C1080 1.403 . S
C1083 C1084 1.524 . S
C1083 C1087 1.400 1_554 S
C1084 H1069 0.960 1_554 S
C1084 H1070 0.960 . S
C1084 H1071 0.960 . S
C1084 C1083 1.524 . S
C1085 C1082 1.403 1_556 S
C1085 C1086 1.392 . S
C1085 C1089 1.495 . S
C1086 C1085 1.392 . S
C1086 C1087 1.385 . S
C1086 C1088 1.478 . S
C1087 H1081 0.930 . S
C1087 C1083 1.400 1_556 S
C1087 C1086 1.385 . S
C1088 C1086 1.478 . S
C1088 C1090 1.381 . S
C1088 C1094 1.383 . S
C1089 C1085 1.495 . S
C1089 H1095 0.959 1_556 S
C1089 H1096 0.961 . S
C1089 H1097 0.960 . S
C1090 C1088 1.381 . S
C1090 C1091 1.394 . S
C1090 H1098 0.930 . S
C1091 C1090 1.394 . S
C1091 C1092 1.383 . S
C1091 H1099 0.929 . S
C1092 C1091 1.383 . S
C1092 C1093 1.377 . S
C1093 H1077 0.930 . S
C1093 C1092 1.377 . S
C1093 C1094 1.379 . S
C1094 H1078 0.931 . S
C1094 C1088 1.383 . S
C1094 C1093 1.379 . S
H1095 C1089 0.959 1_554 S
H1096 C1089 0.961 . S
H1097 C1089 0.960 . S
H1098 C1090 0.930 . S
H1099 C1091 0.929 . S
H1100 C1108 0.929 . S
H1101 C1110 0.930 . S
H1102 C1112 0.902 1_545 S
H1103 C1115 0.929 1_545 S
H1104 C1118 0.930 . S
H1105 C1120 0.960 . S
H1106 C1120 0.960 1_565 S
H1107 C1120 0.960 . S
C1108 H1100 0.929 . S
C1108 C1109 1.377 . S
C1108 C1110 1.384 . S
C1109 C1108 1.377 . S
C1109 C1115 1.390 . S
C1110 H1101 0.930 . S
C1110 C1108 1.384 . S
C1110 C1111 1.372 . S
C1111 C1110 1.372 . S
C1111 C1112 1.419 . S
C1111 C1116 1.490 . S
C1112 H1102 0.902 1_565 S
C1112 C1111 1.419 . S
C1112 C1115 1.394 . S
H1113 C1129 0.930 . S
H1114 C1130 0.931 . S
C1115 H1103 0.929 1_565 S
C1115 C1109 1.390 . S
C1115 C1112 1.394 . S
C1116 C1111 1.490 . S
C1116 C1118 1.395 1_556 S
C1116 C1119 1.403 1_465 S
H1117 C1123 0.929 1_556 S
C1118 H1104 0.930 . S
C1118 C1116 1.395 1_554 S
C1118 C1121 1.403 . S
C1119 C1116 1.403 1_645 S
C1119 C1120 1.524 . S
C1119 C1123 1.390 1_556 S
C1120 H1105 0.960 . S
C1120 H1106 0.960 1_545 S
C1120 H1107 0.960 . S
C1120 C1119 1.524 . S
C1121 C1118 1.403 . S
C1121 C1122 1.392 1_465 S
C1121 C1125 1.495 . S
C1122 C1121 1.392 1_645 S
C1122 C1123 1.396 . S
C1122 C1124 1.478 . S
C1123 H1117 0.929 1_554 S
C1123 C1119 1.390 1_554 S
C1123 C1122 1.396 . S
C1124 C1122 1.478 . S
C1124 C1126 1.381 1_545 S
C1124 C1130 1.383 . S
C1125 C1121 1.495 . S
C1125 H1131 0.959 . S
C1125 H1132 0.961 . S
C1125 H1133 0.960 . S
C1126 C1124 1.381 1_565 S
C1126 C1127 1.394 1_565 S
C1126 H1134 0.930 . S
C1127 C1126 1.394 1_545 S
C1127 C1128 1.383 . S
C1127 H1135 0.929 1_545 S
C1128 C1127 1.383 . S
C1128 C1129 1.377 . S
C1129 H1113 0.930 . S
C1129 C1128 1.377 . S
C1129 C1130 1.379 . S
C1130 H1114 0.931 . S
C1130 C1124 1.383 . S
C1130 C1129 1.379 . S
H1131 C1125 0.959 . S
H1132 C1125 0.961 . S
H1133 C1125 0.960 . S
H1134 C1126 0.930 . S
H1135 C1127 0.929 1_565 S
H1136 C1144 0.929 . S
H1137 C1146 0.930 . S
H1138 C1148 0.930 . S
H1139 C1151 0.929 . S
H1140 C1154 0.930 . S
H1141 C1156 0.960 . S
H1142 C1156 0.960 . S
H1143 C1156 0.960 . S
C1144 H1136 0.929 . S
C1144 C1145 1.377 . S
C1144 C1146 1.384 . S
C1145 C1144 1.377 . S
C1145 C1151 1.390 . S
C1146 H1137 0.930 . S
C1146 C1144 1.384 . S
C1146 C1147 1.372 . S
C1147 C1146 1.372 . S
C1147 C1148 1.400 . S
C1147 C1152 1.490 . S
C1148 H1138 0.930 . S
C1148 C1147 1.400 . S
C1148 C1151 1.386 . S
H1149 C1165 0.930 . S
H1150 C1166 0.931 . S
C1151 H1139 0.929 . S
C1151 C1145 1.390 . S
C1151 C1148 1.386 . S
C1152 C1147 1.490 . S
C1152 C1154 1.395 . S
C1152 C1155 1.403 . S
H1153 C1159 0.930 . S
C1154 H1140 0.930 . S
C1154 C1152 1.395 . S
C1154 C1157 1.403 . S
C1155 C1152 1.403 . S
C1155 C1156 1.524 . S
C1155 C1159 1.400 . S
C1156 H1141 0.960 . S
C1156 H1142 0.960 . S
C1156 H1143 0.960 . S
C1156 C1155 1.524 . S
C1157 C1154 1.403 . S
C1157 C1158 1.392 . S
C1157 C1161 1.495 . S
C1158 C1157 1.392 . S
C1158 C1159 1.385 . S
C1158 C1160 1.478 . S
C1159 H1153 0.930 . S
C1159 C1155 1.400 . S
C1159 C1158 1.385 . S
C1160 C1158 1.478 . S
C1160 C1162 1.381 . S
C1160 C1166 1.383 . S
C1161 C1157 1.495 . S
C1161 H1167 0.959 . S
C1161 H1168 0.961 . S
C1161 H1169 0.960 . S
C1162 C1160 1.381 . S
C1162 C1163 1.394 . S
C1162 H1170 0.930 . S
C1163 C1162 1.394 . S
C1163 C1164 1.383 . S
C1163 H1171 0.929 . S
C1164 C1163 1.383 . S
C1164 C1165 1.377 . S
C1165 H1149 0.930 . S
C1165 C1164 1.377 . S
C1165 C1166 1.379 . S
C1166 H1150 0.931 . S
C1166 C1160 1.383 . S
C1166 C1165 1.379 . S
H1167 C1161 0.959 . S
H1168 C1161 0.961 . S
H1169 C1161 0.960 . S
H1170 C1162 0.930 . S
H1171 C1163 0.929 . S
H1172 C1180 0.929 . S
H1173 C1182 0.930 . S
H1174 C1184 0.930 . S
H1175 C1187 0.929 . S
H1176 C1190 0.930 . S
H1177 C1192 0.960 . S
H1178 C1192 0.960 . S
H1179 C1192 0.960 . S
C1180 H1172 0.929 . S
C1180 C1181 1.377 . S
C1180 C1182 1.384 . S
C1181 C1180 1.377 . S
C1181 C1187 1.390 . S
C1182 H1173 0.930 . S
C1182 C1180 1.384 . S
C1182 C1183 1.372 . S
C1183 C1182 1.372 . S
C1183 C1184 1.400 . S
C1183 C1188 1.490 . S
C1184 H1174 0.930 . S
C1184 C1183 1.400 . S
C1184 C1187 1.386 . S
H1185 C1201 0.930 . S
H1186 C1202 0.931 . S
C1187 H1175 0.929 . S
C1187 C1181 1.390 . S
C1187 C1184 1.386 . S
C1188 C1183 1.490 . S
C1188 C1190 1.395 . S
C1188 C1191 1.403 . S
H1189 C1195 0.930 . S
C1190 H1176 0.930 . S
C1190 C1188 1.395 . S
C1190 C1193 1.403 . S
C1191 C1188 1.403 . S
C1191 C1192 1.524 . S
C1191 C1195 1.400 . S
C1192 H1177 0.960 . S
C1192 H1178 0.960 . S
C1192 H1179 0.960 . S
C1192 C1191 1.524 . S
C1193 C1190 1.403 . S
C1193 C1194 1.392 . S
C1193 C1197 1.495 . S
C1194 C1193 1.392 . S
C1194 C1195 1.385 . S
C1194 C1196 1.478 . S
C1195 H1189 0.930 . S
C1195 C1191 1.400 . S
C1195 C1194 1.385 . S
C1196 C1194 1.478 . S
C1196 C1198 1.381 . S
C1196 C1202 1.383 . S
C1197 C1193 1.495 . S
C1197 H1203 0.959 . S
C1197 H1204 0.961 . S
C1197 H1205 0.960 . S
C1198 C1196 1.381 . S
C1198 C1199 1.394 . S
C1198 H1206 0.930 . S
C1199 C1198 1.394 . S
C1199 C1200 1.383 . S
C1199 H1207 0.929 . S
C1200 C1199 1.383 . S
C1200 C1201 1.377 . S
C1201 H1185 0.930 . S
C1201 C1200 1.377 . S
C1201 C1202 1.379 . S
C1202 H1186 0.931 . S
C1202 C1196 1.383 . S
C1202 C1201 1.379 . S
H1203 C1197 0.959 . S
H1204 C1197 0.961 . S
H1205 C1197 0.960 . S
H1206 C1198 0.930 . S
H1207 C1199 0.929 . S
H1208 C1216 0.929 . S
H1209 C1218 0.930 . S
H1210 C1220 0.930 . S
H1211 C1223 0.929 . S
H1212 C1226 0.930 . S
H1213 C1228 0.960 . S
H1214 C1228 0.960 . S
H1215 C1228 0.960 . S
C1216 H1208 0.929 . S
C1216 C1217 1.377 . S
C1216 C1218 1.384 . S
C1217 C1216 1.377 . S
C1217 C1223 1.390 . S
C1218 H1209 0.930 . S
C1218 C1216 1.384 . S
C1218 C1219 1.372 . S
C1219 C1218 1.372 . S
C1219 C1220 1.400 . S
C1219 C1224 1.490 . S
C1220 H1210 0.930 . S
C1220 C1219 1.400 . S
C1220 C1223 1.386 . S
H1221 C1237 0.930 . S
H1222 C1238 0.931 . S
C1223 H1211 0.929 . S
C1223 C1217 1.390 . S
C1223 C1220 1.386 . S
C1224 C1219 1.490 . S
C1224 C1226 1.395 . S
C1224 C1227 1.403 . S
H1225 C1231 0.930 . S
C1226 H1212 0.930 . S
C1226 C1224 1.395 . S
C1226 C1229 1.403 . S
C1227 C1224 1.403 . S
C1227 C1228 1.524 . S
C1227 C1231 1.400 . S
C1228 H1213 0.960 . S
C1228 H1214 0.960 . S
C1228 H1215 0.960 . S
C1228 C1227 1.524 . S
C1229 C1226 1.403 . S
C1229 C1230 1.392 . S
C1229 C1233 1.495 . S
C1230 C1229 1.392 . S
C1230 C1231 1.385 . S
C1230 C1232 1.478 . S
C1231 H1225 0.930 . S
C1231 C1227 1.400 . S
C1231 C1230 1.385 . S
C1232 C1230 1.478 . S
C1232 C1234 1.381 . S
C1232 C1238 1.383 . S
C1233 C1229 1.495 . S
C1233 H1239 0.959 . S
C1233 H1240 0.961 . S
C1233 H1241 0.960 . S
C1234 C1232 1.381 . S
C1234 C1235 1.394 . S
C1234 H1242 0.930 . S
C1235 C1234 1.394 . S
C1235 C1236 1.383 . S
C1235 H1243 0.929 . S
C1236 C1235 1.383 . S
C1236 C1237 1.377 . S
C1237 H1221 0.930 . S
C1237 C1236 1.377 . S
C1237 C1238 1.379 . S
C1238 H1222 0.931 . S
C1238 C1232 1.383 . S
C1238 C1237 1.379 . S
H1239 C1233 0.959 . S
H1240 C1233 0.961 . S
H1241 C1233 0.960 . S
H1242 C1234 0.930 . S
H1243 C1235 0.929 . S
H1244 C1252 0.929 . S
H1245 C1254 0.930 . S
H1246 C1256 0.930 . S
H1247 C1259 0.929 . S
H1248 C1262 0.930 . S
H1249 C1264 0.960 . S
H1250 C1264 0.960 . S
H1251 C1264 0.960 . S
C1252 H1244 0.929 . S
C1252 C1253 1.377 . S
C1252 C1254 1.384 . S
C1253 C1252 1.377 . S
C1253 C1259 1.390 . S
C1254 H1245 0.930 . S
C1254 C1252 1.384 . S
C1254 C1255 1.372 . S
C1255 C1254 1.372 . S
C1255 C1256 1.400 . S
C1255 C1260 1.490 . S
C1256 H1246 0.930 . S
C1256 C1255 1.400 . S
C1256 C1259 1.386 . S
H1257 C1273 0.930 . S
H1258 C1274 0.931 . S
C1259 H1247 0.929 . S
C1259 C1253 1.390 . S
C1259 C1256 1.386 . S
C1260 C1255 1.490 . S
C1260 C1262 1.395 . S
C1260 C1263 1.403 . S
H1261 C1267 0.930 . S
C1262 H1248 0.930 . S
C1262 C1260 1.395 . S
C1262 C1265 1.403 . S
C1263 C1260 1.403 . S
C1263 C1264 1.524 . S
C1263 C1267 1.400 . S
C1264 H1249 0.960 . S
C1264 H1250 0.960 . S
C1264 H1251 0.960 . S
C1264 C1263 1.524 . S
C1265 C1262 1.403 . S
C1265 C1266 1.392 . S
C1265 C1269 1.495 . S
C1266 C1265 1.392 . S
C1266 C1267 1.385 . S
C1266 C1268 1.478 . S
C1267 H1261 0.930 . S
C1267 C1263 1.400 . S
C1267 C1266 1.385 . S
C1268 C1266 1.478 . S
C1268 C1270 1.381 . S
C1268 C1274 1.383 . S
C1269 C1265 1.495 . S
C1269 H1275 0.959 . S
C1269 H1276 0.961 . S
C1269 H1277 0.960 . S
C1270 C1268 1.381 . S
C1270 C1271 1.394 . S
C1270 H1278 0.930 . S
C1271 C1270 1.394 . S
C1271 C1272 1.383 . S
C1271 H1279 0.929 . S
C1272 C1271 1.383 . S
C1272 C1273 1.377 . S
C1273 H1257 0.930 . S
C1273 C1272 1.377 . S
C1273 C1274 1.379 . S
C1274 H1258 0.931 . S
C1274 C1268 1.383 . S
C1274 C1273 1.379 . S
H1275 C1269 0.959 . S
H1276 C1269 0.961 . S
H1277 C1269 0.960 . S
H1278 C1270 0.930 . S
H1279 C1271 0.929 . S
C713 C57 0.790 . S
C732 C233 0.794 . S
C749 C321 0.784 . S
C768 C108 0.762 . S
C785 C196 0.790 . S
C804 C20 0.793 . S
C821 C284 0.783 . S
C840 C145 0.772 . S
C857 C585 0.777 . S
C876 C372 0.806 . S
C893 C469 0.773 . S
C912 C673 0.793 . S
C929 C577 0.776 . S
C948 C381 0.803 . S
C965 C665 0.779 . S
C984 C460 0.759 . S
C1001 C29 1.647 . S
C1020 C401 1.653 . S
C1037 C137 1.647 . S
C1056 C497 1.650 . S
C1073 C225 1.641 . S
C1092 C548 1.640 . S
C1109 C636 1.644 . S
C1128 C313 1.626 . S
C1145 C49 1.643 . S
C1164 C117 1.652 . S
C1181 C293 1.639 . S
C1200 C205 1.623 . S
C1217 C489 1.653 . S
C1236 C409 1.636 . S
C1253 C557 1.651 . S
C1272 C645 1.655 . S
