# Generated by pormake.
# Topology ure, (4)-cn, num edge types: 1
# Building blocks:
#     Node 0, Type 0, BuildingBlock: QUQFOY_clean_sbu_3, # of connection points: 4
#     Node 1, Type 0, BuildingBlock: QUQFOY_clean_sbu_3, # of connection points: 4
#     Node 2, Type 0, BuildingBlock: QUQFOY_clean_sbu_3, # of connection points: 4
#     Node 3, Type 0, BuildingBlock: QUQFOY_clean_sbu_3, # of connection points: 4
#     Node 4, Type 0, BuildingBlock: QUQFOY_clean_sbu_3, # of connection points: 4
#     Node 5, Type 0, BuildingBlock: QUQFOY_clean_sbu_3, # of connection points: 4
#     Node 6, Type 0, BuildingBlock: QUQFOY_clean_sbu_3, # of connection points: 4
#     Node 7, Type 0, BuildingBlock: QUQFOY_clean_sbu_3, # of connection points: 4
#     Node 8, Type 0, BuildingBlock: QUQFOY_clean_sbu_3, # of connection points: 4
#     Node 9, Type 0, BuildingBlock: QUQFOY_clean_sbu_3, # of connection points: 4
#     Node 10, Type 0, BuildingBlock: QUQFOY_clean_sbu_3, # of connection points: 4
#     Node 11, Type 0, BuildingBlock: QUQFOY_clean_sbu_3, # of connection points: 4
#     Node 12, Type 0, BuildingBlock: QUQFOY_clean_sbu_3, # of connection points: 4
#     Node 13, Type 0, BuildingBlock: QUQFOY_clean_sbu_3, # of connection points: 4
#     Node 14, Type 0, BuildingBlock: QUQFOY_clean_sbu_3, # of connection points: 4
#     Node 15, Type 0, BuildingBlock: QUQFOY_clean_sbu_3, # of connection points: 4
#     Edge 16, Type (0, 0), BuildingBlock: EYOCIG_clean_linker_4, # of connection points: 2
#     Edge 17, Type (0, 0), BuildingBlock: EYOCIG_clean_linker_4, # of connection points: 2
#     Edge 18, Type (0, 0), BuildingBlock: EYOCIG_clean_linker_4, # of connection points: 2
#     Edge 19, Type (0, 0), BuildingBlock: EYOCIG_clean_linker_4, # of connection points: 2
#     Edge 20, Type (0, 0), BuildingBlock: EYOCIG_clean_linker_4, # of connection points: 2
#     Edge 21, Type (0, 0), BuildingBlock: EYOCIG_clean_linker_4, # of connection points: 2
#     Edge 22, Type (0, 0), BuildingBlock: EYOCIG_clean_linker_4, # of connection points: 2
#     Edge 23, Type (0, 0), BuildingBlock: EYOCIG_clean_linker_4, # of connection points: 2
#     Edge 24, Type (0, 0), BuildingBlock: EYOCIG_clean_linker_4, # of connection points: 2
#     Edge 25, Type (0, 0), BuildingBlock: EYOCIG_clean_linker_4, # of connection points: 2
#     Edge 26, Type (0, 0), BuildingBlock: EYOCIG_clean_linker_4, # of connection points: 2
#     Edge 27, Type (0, 0), BuildingBlock: EYOCIG_clean_linker_4, # of connection points: 2
#     Edge 28, Type (0, 0), BuildingBlock: EYOCIG_clean_linker_4, # of connection points: 2
#     Edge 29, Type (0, 0), BuildingBlock: EYOCIG_clean_linker_4, # of connection points: 2
#     Edge 30, Type (0, 0), BuildingBlock: EYOCIG_clean_linker_4, # of connection points: 2
#     Edge 31, Type (0, 0), BuildingBlock: EYOCIG_clean_linker_4, # of connection points: 2
#     Edge 32, Type (0, 0), BuildingBlock: EYOCIG_clean_linker_4, # of connection points: 2
#     Edge 33, Type (0, 0), BuildingBlock: EYOCIG_clean_linker_4, # of connection points: 2
#     Edge 34, Type (0, 0), BuildingBlock: EYOCIG_clean_linker_4, # of connection points: 2
#     Edge 35, Type (0, 0), BuildingBlock: EYOCIG_clean_linker_4, # of connection points: 2
#     Edge 36, Type (0, 0), BuildingBlock: EYOCIG_clean_linker_4, # of connection points: 2
#     Edge 37, Type (0, 0), BuildingBlock: EYOCIG_clean_linker_4, # of connection points: 2
#     Edge 38, Type (0, 0), BuildingBlock: EYOCIG_clean_linker_4, # of connection points: 2
#     Edge 39, Type (0, 0), BuildingBlock: EYOCIG_clean_linker_4, # of connection points: 2
#     Edge 40, Type (0, 0), BuildingBlock: EYOCIG_clean_linker_4, # of connection points: 2
#     Edge 41, Type (0, 0), BuildingBlock: EYOCIG_clean_linker_4, # of connection points: 2
#     Edge 42, Type (0, 0), BuildingBlock: EYOCIG_clean_linker_4, # of connection points: 2
#     Edge 43, Type (0, 0), BuildingBlock: EYOCIG_clean_linker_4, # of connection points: 2
#     Edge 44, Type (0, 0), BuildingBlock: EYOCIG_clean_linker_4, # of connection points: 2
#     Edge 45, Type (0, 0), BuildingBlock: EYOCIG_clean_linker_4, # of connection points: 2
#     Edge 46, Type (0, 0), BuildingBlock: EYOCIG_clean_linker_4, # of connection points: 2
#     Edge 47, Type (0, 0), BuildingBlock: EYOCIG_clean_linker_4, # of connection points: 2
# Relax obj value: 0.233
# Max RMSD: 0.174
# Mean RMSD: 0.174
data_MOF--net-ure--node1-QUQFOY_clean_sbu_3--edge1-EYOCIG_clean_linker_4
_symmetry_space_group_name_H-M    P1
_symmetry_Int_Tables_number       1
_symmetry_cell_setting            triclinic
loop_
_symmetry_equiv_pos_as_xyz
'x, y, z'
_cell_length_a     27.24353
_cell_length_b     25.875434
_cell_length_c     25.876957
_cell_angle_alpha  89.99866
_cell_angle_beta   90.007057
_cell_angle_gamma 89.990687
loop_
_atom_site_label
_atom_site_type_symbol
_atom_site_fract_x
_atom_site_fract_y
_atom_site_fract_z
_atom_type_partial_charge
C0 C 0.36863 0.22934 0.21313 0.0
O1 O 0.38046 0.24031 0.25924 0.0
Cd2 Cd 0.32757 0.26089 0.32943 0.0
O3 O 0.324 0.2239 0.19961 0.0
Cd4 Cd 0.24321 0.2287 0.24473 0.0
C5 C 0.26735 0.35603 0.26208 0.0
O6 O 0.26483 0.19769 0.32963 0.0
O7 O 0.19573 0.23825 0.32521 0.0
O8 O 0.2155 0.14868 0.20448 0.0
C9 C 0.22646 0.21331 0.3522 0.0
O10 O 0.2953 0.34356 0.29948 0.0
C11 C 0.17773 0.16874 0.18395 0.0
O12 O 0.24583 0.32233 0.23429 0.0
O13 O 0.17053 0.21673 0.19085 0.0
C14 C 0.82883 0.96299 0.48024 0.0
O15 O 0.81696 0.009 0.49161 0.0
Cd16 Cd 0.8698 0.0792 0.51213 0.0
O17 O 0.87344 0.94963 0.47429 0.0
Cd18 Cd 0.95413 -0.00506 0.47852 0.0
C19 C 0.93104 0.01137 0.60624 0.0
O20 O 0.93172 0.07983 0.44804 0.0
O21 O 0.00142 0.07568 0.48744 0.0
O22 O -0.01908 0.9547 0.39811 0.0
C23 C 0.97021 0.10258 0.46309 0.0
O24 O 0.90284 0.04871 0.59426 0.0
C25 C 0.01899 0.9343 0.41766 0.0
O26 O 0.95243 -0.01608 0.57216 0.0
O27 O 0.02682 0.94134 0.46552 0.0
C28 C 0.07915 0.73173 0.71248 0.0
O29 O 0.06732 0.71963 0.75831 0.0
Cd30 Cd 0.12002 0.69915 0.82866 0.0
O31 O 0.12373 0.73832 0.6993 0.0
Cd32 Cd 0.20422 0.73396 0.74522 0.0
C33 C 0.18288 0.60597 0.76136 0.0
O34 O 0.1814 0.76379 0.83028 0.0
O35 O 0.25108 0.72435 0.82605 0.0
O36 O 0.2319 0.81471 0.70628 0.0
C37 C 0.21984 0.74857 0.85301 0.0
O38 O 0.15437 0.61749 0.79859 0.0
C39 C 0.26993 0.79507 0.6859 0.0
O40 O 0.20374 0.6404 0.73392 0.0
O41 O 0.27725 0.74704 0.69226 0.0
C42 C 0.61868 0.00114 0.98003 0.0
O43 O 0.63087 0.95527 -0.0084 0.0
Cd44 Cd 0.57869 0.8847 0.01268 0.0
O45 O 0.57396 0.01416 0.97416 0.0
Cd46 Cd 0.49369 0.96798 0.97905 0.0
C47 C 0.5171 0.95226 0.10668 0.0
O48 O 0.51629 0.88295 0.94916 0.0
O49 O 0.4472 0.8871 -0.01023 0.0
O50 O 0.46558 0.0064 0.89825 0.0
C51 C 0.47814 0.86017 0.96509 0.0
O52 O 0.54553 0.91508 0.09475 0.0
C53 C 0.42748 0.02666 0.91788 0.0
O54 O 0.49553 0.97953 0.07259 0.0
O55 O 0.42035 0.02057 0.96598 0.0
C56 C 0.36872 0.73567 0.25063 0.0
O57 O 0.38066 0.7234 0.20488 0.0
Cd58 Cd 0.32784 0.70068 0.13531 0.0
O59 O 0.32404 0.74113 0.26393 0.0
Cd60 Cd 0.24345 0.73409 0.21861 0.0
C61 C 0.26799 0.60657 0.2042 0.0
O62 O 0.2649 0.76378 0.13307 0.0
O63 O 0.19631 0.72234 0.1382 0.0
O64 O 0.21439 0.81451 0.25706 0.0
C65 C 0.22664 0.74737 0.11083 0.0
O66 O 0.29593 0.61836 0.16659 0.0
C67 C 0.17692 0.79424 0.27795 0.0
O68 O 0.24638 0.64078 0.23127 0.0
O69 O 0.17048 0.74601 0.27202 0.0
C70 C 0.6186 0.9629 0.48503 0.0
O71 O 0.63036 0.00878 0.47303 0.0
Cd72 Cd 0.57722 0.07834 0.45107 0.0
O73 O 0.57401 0.94942 0.49072 0.0
Cd74 Cd 0.49325 -0.00562 0.48492 0.0
C75 C 0.51674 0.00946 0.35726 0.0
O76 O 0.5147 0.07982 0.51454 0.0
O77 O 0.4456 0.07457 0.47403 0.0
O78 O 0.4658 0.95574 0.56582 0.0
C79 C 0.47621 0.10199 0.49865 0.0
O80 O 0.54472 0.04705 0.36902 0.0
C81 C 0.42807 0.93471 0.54624 0.0
O82 O 0.49539 -0.01783 0.39148 0.0
O83 O 0.42078 0.94061 0.49814 0.0
C84 C 0.07902 0.23062 0.74983 0.0
O85 O 0.06749 0.24321 0.70405 0.0
Cd86 Cd 0.12093 0.26396 0.63447 0.0
O87 O 0.1235 0.22355 0.76318 0.0
Cd88 Cd 0.20435 0.2275 0.71793 0.0
C89 C 0.1838 0.35582 0.70359 0.0
O90 O 0.18151 0.1984 0.63261 0.0
O91 O 0.25159 0.23697 0.63721 0.0
O92 O 0.23083 0.14624 0.75694 0.0
C93 C 0.22021 0.21314 0.61008 0.0
O94 O 0.15543 0.34496 0.66605 0.0
C95 C 0.26906 0.1653 0.77744 0.0
O96 O 0.20447 0.32091 0.73059 0.0
O97 O 0.27707 0.2132 0.77103 0.0
C98 C 0.82842 0.0012 -0.01553 0.0
O99 O 0.81636 0.95543 0.97237 0.0
Cd100 Cd 0.86892 0.8853 0.95067 0.0
O101 O 0.8731 0.01431 -0.0097 0.0
Cd102 Cd 0.95357 0.96866 -0.01562 0.0
C103 C 0.92994 0.95324 0.85666 0.0
O104 O 0.93116 0.88357 0.01451 0.0
O105 O 0.0005 0.88783 0.97444 0.0
O106 O -0.0181 0.00817 0.06459 0.0
C107 C 0.9695 0.86087 -0.00101 0.0
O108 O 0.90168 0.9159 0.86845 0.0
C109 C 0.01962 0.02867 0.04444 0.0
O110 O 0.95143 0.9804 0.89089 0.0
O111 O 0.02659 0.02195 -0.00359 0.0
C112 C 0.86835 0.23418 0.74986 0.0
O113 O 0.88009 0.2218 0.70409 0.0
Cd114 Cd 0.82706 0.19947 0.63461 0.0
O115 O 0.82375 0.24007 0.76328 0.0
Cd116 Cd 0.74305 0.23387 0.71806 0.0
C117 C 0.76643 0.1061 0.70389 0.0
O118 O 0.76471 0.26311 0.63251 0.0
O119 O 0.69582 0.22225 0.63772 0.0
O120 O 0.71488 0.31493 0.75586 0.0
C121 C 0.72634 0.24697 0.61031 0.0
O122 O 0.79443 0.11764 0.66626 0.0
C123 C 0.67705 0.2953 0.77664 0.0
O124 O 0.74509 0.1405 0.73096 0.0
O125 O 0.67011 0.2471 0.77112 0.0
C126 C 0.11865 0.46353 -0.01582 0.0
O127 O 0.1304 0.50941 0.97218 0.0
Cd128 Cd 0.07734 0.57911 0.95053 0.0
O129 O 0.07406 0.4501 -0.00995 0.0
Cd130 Cd -0.00661 0.49536 -0.01545 0.0
C131 C 0.01635 0.51075 0.85674 0.0
O132 O 0.01518 0.5807 0.01441 0.0
O133 O 0.94593 0.57574 0.97418 0.0
O134 O 0.96609 0.45664 0.06548 0.0
C135 C -0.02334 0.60301 -0.00121 0.0
O136 O 0.04446 0.54823 0.86849 0.0
C137 C 0.92817 0.43587 0.04603 0.0
O138 O -0.0049 0.48342 0.891 0.0
O139 O 0.92073 0.44188 -0.00203 0.0
C140 C 0.57894 0.73129 0.2509 0.0
O141 O 0.567 0.74256 0.20489 0.0
Cd142 Cd 0.61942 0.76202 0.13405 0.0
O143 O 0.62356 0.72502 0.26411 0.0
Cd144 Cd 0.70399 0.72881 0.21797 0.0
C145 C 0.68183 0.85647 0.19996 0.0
O146 O 0.68105 0.69761 0.13342 0.0
O147 O 0.75059 0.73736 0.13688 0.0
O148 O 0.73209 0.6488 0.25809 0.0
C149 C 0.71939 0.7126 0.11037 0.0
O150 O 0.65335 0.84431 0.16292 0.0
C151 C 0.77021 0.66882 0.27792 0.0
O152 O 0.70293 0.82254 0.22783 0.0
O153 O 0.77736 0.71677 0.27081 0.0
C154 C 0.11877 0.49956 0.47942 0.0
O155 O 0.13043 0.45366 0.49145 0.0
Cd156 Cd 0.07705 0.38413 0.51278 0.0
O157 O 0.07421 0.51305 0.47333 0.0
Cd158 Cd -0.0067 0.4682 0.47836 0.0
C159 C 0.01599 0.4529 0.60627 0.0
O160 O 0.01523 0.38289 0.44847 0.0
O161 O 0.94565 0.38775 0.48801 0.0
O162 O 0.96636 0.50786 0.39764 0.0
C163 C -0.02339 0.36052 0.46367 0.0
O164 O 0.04405 0.41533 0.59466 0.0
C165 C 0.92849 0.52866 0.41719 0.0
O166 O -0.00518 0.48018 0.5719 0.0
O167 O 0.92084 0.52206 0.46513 0.0
C168 C 0.32931 0.46355 0.98072 0.0
O169 O 0.31788 0.50939 -0.00679 0.0
Cd170 Cd 0.37162 0.57856 0.01465 0.0
O171 O 0.37377 0.44998 0.97406 0.0
Cd172 Cd 0.45474 0.4947 0.97858 0.0
C173 C 0.43347 0.50863 0.10672 0.0
O174 O 0.43296 0.58041 0.94993 0.0
O175 O 0.50263 0.57474 -0.01071 0.0
O176 O 0.481 0.45649 0.89697 0.0
C177 C 0.47173 0.60238 0.96533 0.0
O178 O 0.4054 0.54639 0.09576 0.0
C179 C 0.51901 0.43538 0.91588 0.0
O180 O 0.45421 0.48158 0.0719 0.0
O181 O 0.52696 0.44105 0.96389 0.0
C182 C 0.86884 0.72778 0.71293 0.0
O183 O 0.88071 0.73952 0.75884 0.0
Cd184 Cd 0.82773 0.76097 0.82871 0.0
O185 O 0.8242 0.72219 0.69956 0.0
Cd186 Cd 0.74363 0.72792 0.745 0.0
C187 C 0.76705 0.85551 0.76118 0.0
O188 O 0.76519 0.69743 0.83025 0.0
O189 O 0.69625 0.73829 0.82537 0.0
O190 O 0.71566 0.64741 0.70596 0.0
C191 C 0.72674 0.71325 0.85255 0.0
O192 O 0.79514 0.84341 0.79857 0.0
C193 C 0.67792 0.66729 0.68522 0.0
O194 O 0.7457 0.82151 0.73361 0.0
O195 O 0.67087 0.71539 0.69142 0.0
C196 C 0.579 0.2339 0.21232 0.0
O197 O 0.56727 0.22087 0.25792 0.0
Cd198 Cd 0.62025 0.1987 0.32745 0.0
O199 O 0.62357 0.24057 0.19912 0.0
Cd200 Cd 0.70422 0.2349 0.24456 0.0
C201 C 0.6823 0.10674 0.25766 0.0
O202 O 0.68157 0.2634 0.3301 0.0
O203 O 0.75115 0.22382 0.32524 0.0
O204 O 0.73197 0.31614 0.20666 0.0
C205 C 0.72003 0.24783 0.35254 0.0
O206 O 0.654 0.11757 0.29526 0.0
C207 C 0.76994 0.29668 0.18599 0.0
O208 O 0.70332 0.14166 0.231 0.0
O209 O 0.77722 0.24858 0.1918 0.0
C210 C 0.32919 0.49989 0.48322 0.0
O211 O 0.31734 0.45404 0.47122 0.0
Cd212 Cd 0.36996 0.38368 0.45052 0.0
O213 O 0.37378 0.51314 0.48953 0.0
Cd214 Cd 0.45435 0.46752 0.48484 0.0
C215 C 0.43234 0.45102 0.35697 0.0
O216 O 0.43166 0.38255 0.5148 0.0
O217 O 0.50139 0.38674 0.47547 0.0
O218 O 0.48188 0.50675 0.56547 0.0
C219 C 0.4701 0.3598 0.49963 0.0
O220 O 0.40389 0.4138 0.36869 0.0
C221 C 0.5198 0.52729 0.54579 0.0
O222 O 0.45337 0.47853 0.39123 0.0
O223 O 0.52717 0.52082 0.49779 0.0
C224 C 0.11554 0.11252 0.12964 0.0
C225 C 0.14402 0.13806 0.15446 0.0
C226 C 0.08197 0.08307 0.10039 0.0
C227 C 0.0534 0.0582 0.075 0.0
C228 C 0.08061 0.87979 0.36093 0.0
C229 C 0.05232 0.90472 0.3866 0.0
C230 C 0.11414 0.85037 0.33161 0.0
C231 C 0.14288 0.82486 0.30708 0.0
C232 C 0.36606 0.88107 0.60326 0.0
C233 C 0.39456 0.90562 0.5775 0.0
C234 C 0.33239 0.85181 0.63254 0.0
C235 C 0.3037 0.82616 0.65696 0.0
C236 C 0.36458 0.07915 0.86079 0.0
C237 C 0.39343 0.05514 0.88666 0.0
C238 C 0.33081 0.10808 0.83127 0.0
C239 C 0.30232 0.13377 0.8066 0.0
C240 C 0.61423 0.35245 0.8291 0.0
C241 C 0.64308 0.3266 0.80509 0.0
C242 C 0.58051 0.38186 0.85815 0.0
C243 C 0.55211 0.4064 0.88405 0.0
C244 C 0.86602 0.38271 0.10334 0.0
C245 C 0.89457 0.40704 0.07743 0.0
C246 C 0.83231 0.35363 0.13274 0.0
C247 C 0.8036 0.32798 0.15713 0.0
C248 C 0.86681 0.58317 0.3605 0.0
C249 C 0.89518 0.55821 0.38607 0.0
C250 C 0.83313 0.61263 0.33138 0.0
C251 C 0.80432 0.63816 0.30695 0.0
C252 C 0.58193 0.58121 0.60243 0.0
C253 C 0.55339 0.55654 0.57683 0.0
C254 C 0.61555 0.61062 0.63163 0.0
C255 C 0.64414 0.63632 0.65614 0.0
C256 C 0.22295 0.21228 0.45393 0.0
C257 C 0.22363 0.21328 0.40744 0.0
C258 C 0.22362 0.21226 0.50835 0.0
C259 C 0.22303 0.21318 0.55485 0.0
C260 C 0.93876 0.97657 0.75807 0.0
C261 C 0.93535 0.9667 0.80335 0.0
C262 C 0.9391 -0.01173 0.70495 0.0
C263 C 0.93609 -0.00204 0.6596 0.0
C264 C 0.22292 0.74873 0.95474 0.0
C265 C 0.22234 0.7482 0.90825 0.0
C266 C 0.22243 0.74834 0.00916 0.0
C267 C 0.22335 0.74731 0.05564 0.0
C268 C 0.50842 -0.01375 0.25861 0.0
C269 C 0.51152 -0.00406 0.30395 0.0
C270 C 0.50849 0.9749 0.20543 0.0
C271 C 0.51173 0.96543 0.16005 0.0
C272 C 0.44801 0.22986 0.15797 0.0
C273 C 0.40729 0.22746 0.17573 0.0
C274 C 0.49938 0.23516 0.15769 0.0
C275 C 0.54026 0.23712 0.1751 0.0
C276 C 0.97269 0.25879 0.46238 0.0
C277 C 0.97348 0.30529 0.46353 0.0
C278 C 0.97331 0.20435 0.4622 0.0
C279 C 0.97278 0.15784 0.46309 0.0
C280 C 0.94826 0.72682 0.65783 0.0
C281 C 0.9075 0.72499 0.67558 0.0
C282 C -0.00035 0.73189 0.65759 0.0
C283 C 0.04049 0.73417 0.6751 0.0
C284 C 0.47598 0.70404 0.96503 0.0
C285 C 0.47513 0.65756 0.96577 0.0
C286 C 0.47532 0.75845 0.96491 0.0
C287 C 0.47574 0.80493 0.96549 0.0
C288 C 0.49955 0.73225 0.30593 0.0
C289 C 0.54036 0.72957 0.28841 0.0
C290 C 0.44816 0.73746 0.30568 0.0
C291 C 0.40737 0.73903 0.28796 0.0
C292 C 0.47214 0.20366 0.49945 0.0
C293 C 0.47293 0.15718 0.49848 0.0
C294 C 0.47289 0.25807 0.49977 0.0
C295 C 0.47251 0.30456 0.49921 0.0
C296 C -0.00062 0.23047 0.80454 0.0
C297 C 0.0402 0.22814 0.787 0.0
C298 C 0.94799 0.23557 0.80455 0.0
C299 C 0.90713 0.23734 0.78705 0.0
C300 C 0.97291 0.75913 -9e-05 0.0
C301 C 0.9722 0.80562 -0.00099 0.0
C302 C 0.9725 0.7047 -0.00017 0.0
C303 C 0.97345 0.65822 -0.00118 0.0
C304 C 0.2597 0.45491 0.23961 0.0
C305 C 0.26261 0.40952 0.24912 0.0
C306 C 0.25986 0.50803 0.22794 0.0
C307 C 0.26295 0.55329 0.21791 0.0
C308 C 0.75817 0.00753 0.72748 0.0
C309 C 0.76118 0.05286 0.71768 0.0
C310 C 0.75838 0.95434 0.73881 0.0
C311 C 0.7617 0.90894 0.74819 0.0
C312 C 0.24961 0.40889 0.98017 0.0
C313 C 0.29041 0.42648 0.97806 0.0
C314 C 0.19823 0.40878 -0.01481 0.0
C315 C 0.15739 0.42629 -0.01294 0.0
C316 C 0.6915 0.00851 0.23316 0.0
C317 C 0.68813 0.05373 0.24329 0.0
C318 C 0.69129 0.95535 0.22167 0.0
C319 C 0.68757 0.90995 0.21253 0.0
C320 C 0.74917 0.05649 -0.01457 0.0
C321 C 0.78991 0.03872 -0.01264 0.0
C322 C 0.6978 0.05656 0.98016 0.0
C323 C 0.65707 0.03882 0.9778 0.0
C324 C 0.19306 0.50734 0.73889 0.0
C325 C 0.1891 0.55268 0.74826 0.0
C326 C 0.19339 0.45417 0.72748 0.0
C327 C 0.18986 0.40889 0.71766 0.0
C328 C 0.1983 0.5545 0.4787 0.0
C329 C 0.15754 0.53678 0.47673 0.0
C330 C 0.24969 0.55475 0.48374 0.0
C331 C 0.29053 0.53724 0.48584 0.0
C332 C 0.72218 0.71151 0.95421 0.0
C333 C 0.72336 0.71283 0.90774 0.0
C334 C 0.72241 0.71126 0.00863 0.0
C335 C 0.72173 0.71226 0.05511 0.0
C336 C 0.44216 0.47327 0.25826 0.0
C337 C 0.43835 0.46397 0.30362 0.0
C338 C 0.44253 0.48463 0.20509 0.0
C339 C 0.43924 0.4945 0.1598 0.0
C340 C 0.72321 0.24762 0.45424 0.0
C341 C 0.72275 0.24717 0.40776 0.0
C342 C 0.72247 0.2474 0.50864 0.0
C343 C 0.72319 0.24659 0.55512 0.0
C344 C 0.00745 0.47628 0.70488 0.0
C345 C 0.01063 0.46654 0.65955 0.0
C346 C 0.00757 0.48775 0.75806 0.0
C347 C 0.0109 0.49737 0.8034 0.0
C348 C 0.74947 0.9079 0.48072 0.0
C349 C 0.79023 0.92555 0.47826 0.0
C350 C 0.69811 0.90797 0.48599 0.0
C351 C 0.65733 0.92563 0.48788 0.0
loop_
_geom_bond_atom_site_label_1
_geom_bond_atom_site_label_2
_geom_bond_distance
_geom_bond_site_symmetry_2
_ccdc_geom_bond_type
C0 O1 1.306 . S
C0 O3 1.160 . S
O1 C0 1.306 . S
O1 Cd2 2.228 . S
Cd2 O1 2.228 . S
Cd2 O6 2.273 . S
Cd2 O10 2.277 . S
O3 C0 1.160 . S
O3 Cd4 2.203 . S
Cd4 O3 2.203 . S
Cd4 O6 2.411 . S
Cd4 O7 2.333 . S
Cd4 O8 2.352 . S
Cd4 O12 2.277 . S
Cd4 O13 2.356 . S
C5 O10 1.209 . S
C5 O12 1.226 . S
O6 Cd2 2.273 . S
O6 Cd4 2.411 . S
O6 C9 1.320 . S
O7 Cd4 2.333 . S
O7 C9 1.214 . S
O8 Cd4 2.352 . S
O8 C11 1.258 . S
C9 O6 1.320 . S
C9 O7 1.214 . S
O10 Cd2 2.277 . S
O10 C5 1.209 . S
C11 O8 1.258 . S
C11 O13 1.282 . S
O12 Cd4 2.277 . S
O12 C5 1.226 . S
O13 Cd4 2.356 . S
O13 C11 1.282 . S
C14 O15 1.306 1_565 S
C14 O17 1.160 . S
O15 C14 1.306 1_545 S
O15 Cd16 2.228 . S
Cd16 O15 2.228 . S
Cd16 O20 2.273 . S
Cd16 O24 2.277 . S
O17 C14 1.160 . S
O17 Cd18 2.203 1_565 S
Cd18 O17 2.203 1_545 S
Cd18 O20 2.411 . S
Cd18 O21 2.333 1_655 S
Cd18 O22 2.352 1_545 S
Cd18 O26 2.277 1_545 S
Cd18 O27 2.356 1_645 S
C19 O24 1.209 . S
C19 O26 1.226 1_545 S
O20 Cd16 2.273 . S
O20 Cd18 2.411 . S
O20 C23 1.299 1_655 S
O21 Cd18 2.333 1_455 S
O21 C23 1.228 . S
O22 Cd18 2.352 1_565 S
O22 C25 1.258 1_655 S
C23 O20 1.299 1_455 S
C23 O21 1.228 . S
O24 Cd16 2.277 . S
O24 C19 1.209 . S
C25 O22 1.258 1_455 S
C25 O27 1.282 . S
O26 Cd18 2.277 1_565 S
O26 C19 1.226 1_565 S
O27 Cd18 2.356 1_465 S
O27 C25 1.282 . S
C28 O29 1.306 . S
C28 O31 1.160 . S
O29 C28 1.306 . S
O29 Cd30 2.228 . S
Cd30 O29 2.228 . S
Cd30 O34 2.273 . S
Cd30 O38 2.277 . S
O31 C28 1.160 . S
O31 Cd32 2.203 . S
Cd32 O31 2.203 . S
Cd32 O34 2.411 . S
Cd32 O35 2.333 . S
Cd32 O36 2.352 . S
Cd32 O40 2.277 . S
Cd32 O41 2.356 . S
C33 O38 1.209 . S
C33 O40 1.226 . S
O34 Cd30 2.273 . S
O34 Cd32 2.411 . S
O34 C37 1.320 . S
O35 Cd32 2.333 . S
O35 C37 1.214 . S
O36 Cd32 2.352 . S
O36 C39 1.258 . S
C37 O34 1.320 . S
C37 O35 1.214 . S
O38 Cd30 2.277 . S
O38 C33 1.209 . S
C39 O36 1.258 . S
C39 O41 1.282 . S
O40 Cd32 2.277 . S
O40 C33 1.226 . S
O41 Cd32 2.356 . S
O41 C39 1.282 . S
C42 O43 1.306 1_546 S
C42 O45 1.160 . S
O43 C42 1.306 1_564 S
O43 Cd44 2.228 . S
Cd44 O43 2.228 . S
Cd44 O48 2.273 1_554 S
Cd44 O52 2.277 . S
O45 C42 1.160 . S
O45 Cd46 2.203 1_546 S
Cd46 O45 2.203 1_564 S
Cd46 O48 2.411 1_554 S
Cd46 O49 2.333 . S
Cd46 O50 2.352 1_564 S
Cd46 O54 2.277 1_565 S
Cd46 O55 2.356 1_564 S
C47 O52 1.209 . S
C47 O54 1.226 1_565 S
O48 Cd44 2.273 1_556 S
O48 Cd46 2.411 1_556 S
O48 C51 1.320 1_556 S
O49 Cd46 2.333 . S
O49 C51 1.214 . S
O50 Cd46 2.352 1_546 S
O50 C53 1.258 . S
C51 O48 1.320 1_554 S
C51 O49 1.214 . S
O52 Cd44 2.277 . S
O52 C47 1.209 . S
C53 O50 1.258 . S
C53 O55 1.282 . S
O54 Cd46 2.277 1_545 S
O54 C47 1.226 1_545 S
O55 Cd46 2.356 1_546 S
O55 C53 1.282 . S
C56 O57 1.306 . S
C56 O59 1.160 . S
O57 C56 1.306 . S
O57 Cd58 2.228 . S
Cd58 O57 2.228 . S
Cd58 O62 2.273 . S
Cd58 O66 2.277 . S
O59 C56 1.160 . S
O59 Cd60 2.203 . S
Cd60 O59 2.203 . S
Cd60 O62 2.411 . S
Cd60 O63 2.333 . S
Cd60 O64 2.352 . S
Cd60 O68 2.277 . S
Cd60 O69 2.356 . S
C61 O66 1.209 . S
C61 O68 1.226 . S
O62 Cd58 2.273 . S
O62 Cd60 2.411 . S
O62 C65 1.320 . S
O63 Cd60 2.333 . S
O63 C65 1.214 . S
O64 Cd60 2.352 . S
O64 C67 1.258 . S
C65 O62 1.320 . S
C65 O63 1.214 . S
O66 Cd58 2.277 . S
O66 C61 1.209 . S
C67 O64 1.258 . S
C67 O69 1.282 . S
O68 Cd60 2.277 . S
O68 C61 1.226 . S
O69 Cd60 2.356 . S
O69 C67 1.282 . S
C70 O71 1.306 1_565 S
C70 O73 1.160 . S
O71 C70 1.306 1_545 S
O71 Cd72 2.228 . S
Cd72 O71 2.228 . S
Cd72 O76 2.273 . S
Cd72 O80 2.277 . S
O73 C70 1.160 . S
O73 Cd74 2.203 1_565 S
Cd74 O73 2.203 1_545 S
Cd74 O76 2.411 . S
Cd74 O77 2.333 . S
Cd74 O78 2.352 1_545 S
Cd74 O82 2.277 1_545 S
Cd74 O83 2.356 1_545 S
C75 O80 1.209 . S
C75 O82 1.226 1_545 S
O76 Cd72 2.273 . S
O76 Cd74 2.411 . S
O76 C79 1.320 . S
O77 Cd74 2.333 . S
O77 C79 1.214 . S
O78 Cd74 2.352 1_565 S
O78 C81 1.258 . S
C79 O76 1.320 . S
C79 O77 1.214 . S
O80 Cd72 2.277 . S
O80 C75 1.209 . S
C81 O78 1.258 . S
C81 O83 1.282 . S
O82 Cd74 2.277 1_565 S
O82 C75 1.226 1_565 S
O83 Cd74 2.356 1_565 S
O83 C81 1.282 . S
C84 O85 1.306 . S
C84 O87 1.160 . S
O85 C84 1.306 . S
O85 Cd86 2.228 . S
Cd86 O85 2.228 . S
Cd86 O90 2.273 . S
Cd86 O94 2.277 . S
O87 C84 1.160 . S
O87 Cd88 2.203 . S
Cd88 O87 2.203 . S
Cd88 O90 2.411 . S
Cd88 O91 2.333 . S
Cd88 O92 2.352 . S
Cd88 O96 2.277 . S
Cd88 O97 2.356 . S
C89 O94 1.209 . S
C89 O96 1.226 . S
O90 Cd86 2.273 . S
O90 Cd88 2.411 . S
O90 C93 1.320 . S
O91 Cd88 2.333 . S
O91 C93 1.214 . S
O92 Cd88 2.352 . S
O92 C95 1.258 . S
C93 O90 1.320 . S
C93 O91 1.214 . S
O94 Cd86 2.277 . S
O94 C89 1.209 . S
C95 O92 1.258 . S
C95 O97 1.282 . S
O96 Cd88 2.277 . S
O96 C89 1.226 . S
O97 Cd88 2.356 . S
O97 C95 1.282 . S
C98 O99 1.306 1_544 S
C98 O101 1.160 . S
O99 C98 1.306 1_566 S
O99 Cd100 2.228 . S
Cd100 O99 2.228 . S
Cd100 O104 2.273 1_556 S
Cd100 O108 2.277 . S
O101 C98 1.160 . S
O101 Cd102 2.203 1_544 S
Cd102 O101 2.203 1_566 S
Cd102 O104 2.411 1_556 S
Cd102 O105 2.333 1_655 S
Cd102 O106 2.352 1_566 S
Cd102 O110 2.277 1_565 S
Cd102 O111 2.356 1_666 S
C103 O108 1.209 . S
C103 O110 1.226 1_565 S
O104 Cd100 2.273 1_554 S
O104 Cd102 2.411 1_554 S
O104 C107 1.299 1_654 S
O105 Cd102 2.333 1_455 S
O105 C107 1.228 . S
O106 Cd102 2.352 1_544 S
O106 C109 1.258 1_655 S
C107 O104 1.299 1_456 S
C107 O105 1.228 . S
O108 Cd100 2.277 . S
O108 C103 1.209 . S
C109 O106 1.258 1_455 S
C109 O111 1.282 . S
O110 Cd102 2.277 1_545 S
O110 C103 1.226 1_545 S
O111 Cd102 2.356 1_444 S
O111 C109 1.282 . S
C112 O113 1.306 . S
C112 O115 1.160 . S
O113 C112 1.306 . S
O113 Cd114 2.228 . S
Cd114 O113 2.228 . S
Cd114 O118 2.273 . S
Cd114 O122 2.277 . S
O115 C112 1.160 . S
O115 Cd116 2.203 . S
Cd116 O115 2.203 . S
Cd116 O118 2.411 . S
Cd116 O119 2.333 . S
Cd116 O120 2.352 . S
Cd116 O124 2.277 . S
Cd116 O125 2.356 . S
C117 O122 1.209 . S
C117 O124 1.226 . S
O118 Cd114 2.273 . S
O118 Cd116 2.411 . S
O118 C121 1.320 . S
O119 Cd116 2.333 . S
O119 C121 1.214 . S
O120 Cd116 2.352 . S
O120 C123 1.258 . S
C121 O118 1.320 . S
C121 O119 1.214 . S
O122 Cd114 2.277 . S
O122 C117 1.209 . S
C123 O120 1.258 . S
C123 O125 1.282 . S
O124 Cd116 2.277 . S
O124 C117 1.226 . S
O125 Cd116 2.356 . S
O125 C123 1.282 . S
C126 O127 1.306 1_554 S
C126 O129 1.160 . S
O127 C126 1.306 1_556 S
O127 Cd128 2.228 . S
Cd128 O127 2.228 . S
Cd128 O132 2.273 1_556 S
Cd128 O136 2.277 . S
O129 C126 1.160 . S
O129 Cd130 2.203 1_554 S
Cd130 O129 2.203 1_556 S
Cd130 O132 2.411 1_556 S
Cd130 O133 2.333 1_455 S
Cd130 O134 2.352 1_556 S
Cd130 O138 2.277 . S
Cd130 O139 2.356 1_456 S
C131 O136 1.209 . S
C131 O138 1.226 . S
O132 Cd128 2.273 1_554 S
O132 Cd130 2.411 1_554 S
O132 C135 1.299 1_454 S
O133 Cd130 2.333 1_655 S
O133 C135 1.228 . S
O134 Cd130 2.352 1_554 S
O134 C137 1.258 1_455 S
C135 O132 1.299 1_656 S
C135 O133 1.228 . S
O136 Cd128 2.277 . S
O136 C131 1.209 . S
C137 O134 1.258 1_655 S
C137 O139 1.282 . S
O138 Cd130 2.277 . S
O138 C131 1.226 . S
O139 Cd130 2.356 1_654 S
O139 C137 1.282 . S
C140 O141 1.306 . S
C140 O143 1.160 . S
O141 C140 1.306 . S
O141 Cd142 2.228 . S
Cd142 O141 2.228 . S
Cd142 O146 2.273 . S
Cd142 O150 2.277 . S
O143 C140 1.160 . S
O143 Cd144 2.203 . S
Cd144 O143 2.203 . S
Cd144 O146 2.411 . S
Cd144 O147 2.333 . S
Cd144 O148 2.352 . S
Cd144 O152 2.277 . S
Cd144 O153 2.356 . S
C145 O150 1.209 . S
C145 O152 1.226 . S
O146 Cd142 2.273 . S
O146 Cd144 2.411 . S
O146 C149 1.320 . S
O147 Cd144 2.333 . S
O147 C149 1.214 . S
O148 Cd144 2.352 . S
O148 C151 1.258 . S
C149 O146 1.320 . S
C149 O147 1.214 . S
O150 Cd142 2.277 . S
O150 C145 1.209 . S
C151 O148 1.258 . S
C151 O153 1.282 . S
O152 Cd144 2.277 . S
O152 C145 1.226 . S
O153 Cd144 2.356 . S
O153 C151 1.282 . S
C154 O155 1.306 . S
C154 O157 1.160 . S
O155 C154 1.306 . S
O155 Cd156 2.228 . S
Cd156 O155 2.228 . S
Cd156 O160 2.273 . S
Cd156 O164 2.277 . S
O157 C154 1.160 . S
O157 Cd158 2.203 . S
Cd158 O157 2.203 . S
Cd158 O160 2.411 . S
Cd158 O161 2.333 1_455 S
Cd158 O162 2.352 . S
Cd158 O166 2.277 . S
Cd158 O167 2.356 1_455 S
C159 O164 1.209 . S
C159 O166 1.226 . S
O160 Cd156 2.273 . S
O160 Cd158 2.411 . S
O160 C163 1.299 1_455 S
O161 Cd158 2.333 1_655 S
O161 C163 1.228 . S
O162 Cd158 2.352 . S
O162 C165 1.258 1_455 S
C163 O160 1.299 1_655 S
C163 O161 1.228 . S
O164 Cd156 2.277 . S
O164 C159 1.209 . S
C165 O162 1.258 1_655 S
C165 O167 1.282 . S
O166 Cd158 2.277 . S
O166 C159 1.226 . S
O167 Cd158 2.356 1_655 S
O167 C165 1.282 . S
C168 O169 1.306 1_556 S
C168 O171 1.160 . S
O169 C168 1.306 1_554 S
O169 Cd170 2.228 . S
Cd170 O169 2.228 . S
Cd170 O174 2.273 1_554 S
Cd170 O178 2.277 . S
O171 C168 1.160 . S
O171 Cd172 2.203 1_556 S
Cd172 O171 2.203 1_554 S
Cd172 O174 2.411 1_554 S
Cd172 O175 2.333 . S
Cd172 O176 2.352 1_554 S
Cd172 O180 2.277 . S
Cd172 O181 2.356 1_554 S
C173 O178 1.209 . S
C173 O180 1.226 . S
O174 Cd170 2.273 1_556 S
O174 Cd172 2.411 1_556 S
O174 C177 1.320 1_556 S
O175 Cd172 2.333 . S
O175 C177 1.214 . S
O176 Cd172 2.352 1_556 S
O176 C179 1.258 . S
C177 O174 1.320 1_554 S
C177 O175 1.214 . S
O178 Cd170 2.277 . S
O178 C173 1.209 . S
C179 O176 1.258 . S
C179 O181 1.282 . S
O180 Cd172 2.277 . S
O180 C173 1.226 . S
O181 Cd172 2.356 1_556 S
O181 C179 1.282 . S
C182 O183 1.306 . S
C182 O185 1.160 . S
O183 C182 1.306 . S
O183 Cd184 2.228 . S
Cd184 O183 2.228 . S
Cd184 O188 2.273 . S
Cd184 O192 2.277 . S
O185 C182 1.160 . S
O185 Cd186 2.203 . S
Cd186 O185 2.203 . S
Cd186 O188 2.411 . S
Cd186 O189 2.333 . S
Cd186 O190 2.352 . S
Cd186 O194 2.277 . S
Cd186 O195 2.356 . S
C187 O192 1.209 . S
C187 O194 1.226 . S
O188 Cd184 2.273 . S
O188 Cd186 2.411 . S
O188 C191 1.320 . S
O189 Cd186 2.333 . S
O189 C191 1.214 . S
O190 Cd186 2.352 . S
O190 C193 1.258 . S
C191 O188 1.320 . S
C191 O189 1.214 . S
O192 Cd184 2.277 . S
O192 C187 1.209 . S
C193 O190 1.258 . S
C193 O195 1.282 . S
O194 Cd186 2.277 . S
O194 C187 1.226 . S
O195 Cd186 2.356 . S
O195 C193 1.282 . S
C196 O197 1.306 . S
C196 O199 1.160 . S
O197 C196 1.306 . S
O197 Cd198 2.228 . S
Cd198 O197 2.228 . S
Cd198 O202 2.273 . S
Cd198 O206 2.277 . S
O199 C196 1.160 . S
O199 Cd200 2.203 . S
Cd200 O199 2.203 . S
Cd200 O202 2.411 . S
Cd200 O203 2.333 . S
Cd200 O204 2.352 . S
Cd200 O208 2.277 . S
Cd200 O209 2.356 . S
C201 O206 1.209 . S
C201 O208 1.226 . S
O202 Cd198 2.273 . S
O202 Cd200 2.411 . S
O202 C205 1.320 . S
O203 Cd200 2.333 . S
O203 C205 1.214 . S
O204 Cd200 2.352 . S
O204 C207 1.258 . S
C205 O202 1.320 . S
C205 O203 1.214 . S
O206 Cd198 2.277 . S
O206 C201 1.209 . S
C207 O204 1.258 . S
C207 O209 1.282 . S
O208 Cd200 2.277 . S
O208 C201 1.226 . S
O209 Cd200 2.356 . S
O209 C207 1.282 . S
C210 O211 1.306 . S
C210 O213 1.160 . S
O211 C210 1.306 . S
O211 Cd212 2.228 . S
Cd212 O211 2.228 . S
Cd212 O216 2.273 . S
Cd212 O220 2.277 . S
O213 C210 1.160 . S
O213 Cd214 2.203 . S
Cd214 O213 2.203 . S
Cd214 O216 2.411 . S
Cd214 O217 2.333 . S
Cd214 O218 2.352 . S
Cd214 O222 2.277 . S
Cd214 O223 2.356 . S
C215 O220 1.209 . S
C215 O222 1.226 . S
O216 Cd212 2.273 . S
O216 Cd214 2.411 . S
O216 C219 1.320 . S
O217 Cd214 2.333 . S
O217 C219 1.214 . S
O218 Cd214 2.352 . S
O218 C221 1.258 . S
C219 O216 1.320 . S
C219 O217 1.214 . S
O220 Cd212 2.277 . S
O220 C215 1.209 . S
C221 O218 1.258 . S
C221 O223 1.282 . S
O222 Cd214 2.277 . S
O222 C215 1.226 . S
O223 Cd214 2.356 . S
O223 C221 1.282 . S
C224 C225 1.170 . S
C224 C226 1.380 . S
C225 C224 1.170 . S
C226 C224 1.380 . S
C226 C227 1.170 . S
C227 C226 1.170 . S
C228 C229 1.170 . S
C228 C230 1.380 . S
C229 C228 1.170 . S
C230 C228 1.380 . S
C230 C231 1.170 . S
C231 C230 1.170 . S
C232 C233 1.170 . S
C232 C234 1.380 . S
C233 C232 1.170 . S
C234 C232 1.380 . S
C234 C235 1.170 . S
C235 C234 1.170 . S
C236 C237 1.170 . S
C236 C238 1.380 . S
C237 C236 1.170 . S
C238 C236 1.380 . S
C238 C239 1.170 . S
C239 C238 1.170 . S
C240 C241 1.170 . S
C240 C242 1.380 . S
C241 C240 1.170 . S
C242 C240 1.380 . S
C242 C243 1.170 . S
C243 C242 1.170 . S
C244 C245 1.170 . S
C244 C246 1.380 . S
C245 C244 1.170 . S
C246 C244 1.380 . S
C246 C247 1.170 . S
C247 C246 1.170 . S
C248 C249 1.170 . S
C248 C250 1.380 . S
C249 C248 1.170 . S
C250 C248 1.380 . S
C250 C251 1.170 . S
C251 C250 1.170 . S
C252 C253 1.170 . S
C252 C254 1.380 . S
C253 C252 1.170 . S
C254 C252 1.380 . S
C254 C255 1.170 . S
C255 C254 1.170 . S
C256 C257 1.170 . S
C256 C258 1.380 . S
C257 C256 1.170 . S
C258 C256 1.380 . S
C258 C259 1.170 . S
C259 C258 1.170 . S
C260 C261 1.170 . S
C260 C262 1.380 1_565 S
C261 C260 1.170 . S
C262 C260 1.380 1_545 S
C262 C263 1.170 . S
C263 C262 1.170 . S
C264 C265 1.170 . S
C264 C266 1.380 1_556 S
C265 C264 1.170 . S
C266 C264 1.380 1_554 S
C266 C267 1.170 . S
C267 C266 1.170 . S
C268 C269 1.170 . S
C268 C270 1.380 1_545 S
C269 C268 1.170 . S
C270 C268 1.380 1_565 S
C270 C271 1.170 . S
C271 C270 1.170 . S
C272 C273 1.170 . S
C272 C274 1.380 . S
C273 C272 1.170 . S
C274 C272 1.380 . S
C274 C275 1.170 . S
C275 C274 1.170 . S
C276 C277 1.170 . S
C276 C278 1.380 . S
C277 C276 1.170 . S
C278 C276 1.380 . S
C278 C279 1.170 1_655 S
C279 C278 1.170 1_455 S
C280 C281 1.170 . S
C280 C282 1.380 1_655 S
C281 C280 1.170 . S
C282 C280 1.380 1_455 S
C282 C283 1.170 . S
C283 C282 1.170 . S
C284 C285 1.170 . S
C284 C286 1.380 . S
C285 C284 1.170 . S
C286 C284 1.380 . S
C286 C287 1.170 . S
C287 C286 1.170 . S
C288 C289 1.170 . S
C288 C290 1.380 . S
C289 C288 1.170 . S
C290 C288 1.380 . S
C290 C291 1.170 . S
C291 C290 1.170 . S
C292 C293 1.170 . S
C292 C294 1.380 . S
C293 C292 1.170 . S
C294 C292 1.380 . S
C294 C295 1.170 . S
C295 C294 1.170 . S
C296 C297 1.170 . S
C296 C298 1.380 1_455 S
C297 C296 1.170 . S
C298 C296 1.380 1_655 S
C298 C299 1.170 . S
C299 C298 1.170 . S
C300 C301 1.168 1_654 S
C300 C302 1.382 . S
C301 C300 1.168 1_456 S
C302 C300 1.382 . S
C302 C303 1.170 . S
C303 C302 1.170 . S
C304 C305 1.170 . S
C304 C306 1.380 . S
C305 C304 1.170 . S
C306 C304 1.380 . S
C306 C307 1.170 . S
C307 C306 1.170 . S
C308 C309 1.170 . S
C308 C310 1.380 1_545 S
C309 C308 1.170 . S
C310 C308 1.380 1_565 S
C310 C311 1.170 . S
C311 C310 1.170 . S
C312 C313 1.170 . S
C312 C314 1.380 1_556 S
C313 C312 1.170 . S
C314 C312 1.380 1_554 S
C314 C315 1.170 . S
C315 C314 1.170 . S
C316 C317 1.170 . S
C316 C318 1.380 1_545 S
C317 C316 1.170 . S
C318 C316 1.380 1_565 S
C318 C319 1.170 . S
C319 C318 1.170 . S
C320 C321 1.170 . S
C320 C322 1.381 . S
C321 C320 1.170 . S
C322 C320 1.381 . S
C322 C323 1.170 1_554 S
C323 C322 1.170 1_556 S
C324 C325 1.170 . S
C324 C326 1.380 . S
C325 C324 1.170 . S
C326 C324 1.380 . S
C326 C327 1.170 . S
C327 C326 1.170 . S
C328 C329 1.170 . S
C328 C330 1.380 . S
C329 C328 1.170 . S
C330 C328 1.380 . S
C330 C331 1.170 . S
C331 C330 1.170 . S
C332 C333 1.170 . S
C332 C334 1.380 1_556 S
C333 C332 1.170 . S
C334 C332 1.380 1_554 S
C334 C335 1.170 . S
C335 C334 1.170 . S
C336 C337 1.170 . S
C336 C338 1.380 . S
C337 C336 1.170 . S
C338 C336 1.380 . S
C338 C339 1.170 . S
C339 C338 1.170 . S
C340 C341 1.170 . S
C340 C342 1.380 . S
C341 C340 1.170 . S
C342 C340 1.380 . S
C342 C343 1.170 . S
C343 C342 1.170 . S
C344 C345 1.170 . S
C344 C346 1.380 . S
C345 C344 1.170 . S
C346 C344 1.380 . S
C346 C347 1.170 . S
C347 C346 1.170 . S
C348 C349 1.170 . S
C348 C350 1.380 . S
C349 C348 1.170 . S
C350 C348 1.380 . S
C350 C351 1.170 . S
C351 C350 1.170 . S
C225 C11 1.763 . S
C227 C109 1.776 . S
C229 C25 1.781 . S
C231 C67 1.759 . S
C233 C81 1.784 . S
C235 C39 1.762 . S
C237 C53 1.760 . S
C239 C95 1.784 . S
C241 C123 1.760 . S
C243 C179 1.785 . S
C245 C137 1.777 . S
C247 C207 1.770 . S
C249 C165 1.783 . S
C251 C151 1.758 . S
C253 C221 1.774 . S
C255 C193 1.772 . S
C257 C9 1.645 . S
C259 C93 1.627 . S
C261 C103 1.342 . S
C263 C19 1.342 . S
C265 C37 1.629 . S
C267 C65 1.647 . S
C269 C75 1.342 . S
C271 C47 1.342 . S
C273 C0 0.999 . S
C275 C196 1.030 . S
C277 C163 1.645 . S
C279 C23 1.629 . S
C281 C182 1.045 . S
C283 C28 0.993 . S
C285 C177 1.646 . S
C287 C51 1.630 . S
C289 C140 0.997 . S
C291 C56 1.057 . S
C293 C79 1.646 . S
C295 C219 1.626 . S
C297 C84 1.008 . S
C299 C112 1.018 . S
C301 C107 1.630 . S
C303 C135 1.644 1_554 S
C305 C5 1.341 . S
C307 C61 1.343 . S
C309 C117 1.343 . S
C311 C187 1.340 . S
C313 C168 0.998 . S
C315 C126 1.033 . S
C317 C201 1.342 . S
C319 C145 1.339 . S
C321 C98 1.056 . S
C323 C42 0.996 . S
C325 C33 1.339 . S
C327 C89 1.341 . S
C329 C154 1.008 . S
C331 C210 1.018 . S
C333 C191 1.646 . S
C335 C149 1.626 . S
C337 C215 1.339 . S
C339 C173 1.342 . S
C341 C205 1.626 . S
C343 C121 1.648 . S
C345 C159 1.343 . S
C347 C131 1.341 . S
C349 C14 0.994 . S
C351 C70 1.041 . S
