# Generated by pormake.
# Topology atn, (4)-cn, num edge types: 1
# Building blocks:
#     Node 0, Type 0, BuildingBlock: KUFVIS_clean_sbu_0, # of connection points: 4
#     Node 1, Type 0, BuildingBlock: KUFVIS_clean_sbu_0, # of connection points: 4
#     Node 2, Type 0, BuildingBlock: KUFVIS_clean_sbu_0, # of connection points: 4
#     Node 3, Type 0, BuildingBlock: KUFVIS_clean_sbu_0, # of connection points: 4
#     Node 4, Type 0, BuildingBlock: KUFVIS_clean_sbu_0, # of connection points: 4
#     Node 5, Type 0, BuildingBlock: KUFVIS_clean_sbu_0, # of connection points: 4
#     Node 6, Type 0, BuildingBlock: KUFVIS_clean_sbu_0, # of connection points: 4
#     Node 7, Type 0, BuildingBlock: KUFVIS_clean_sbu_0, # of connection points: 4
#     Node 8, Type 0, BuildingBlock: KUFVIS_clean_sbu_0, # of connection points: 4
#     Node 9, Type 0, BuildingBlock: KUFVIS_clean_sbu_0, # of connection points: 4
#     Node 10, Type 0, BuildingBlock: KUFVIS_clean_sbu_0, # of connection points: 4
#     Node 11, Type 0, BuildingBlock: KUFVIS_clean_sbu_0, # of connection points: 4
#     Node 12, Type 0, BuildingBlock: KUFVIS_clean_sbu_0, # of connection points: 4
#     Node 13, Type 0, BuildingBlock: KUFVIS_clean_sbu_0, # of connection points: 4
#     Node 14, Type 0, BuildingBlock: KUFVIS_clean_sbu_0, # of connection points: 4
#     Node 15, Type 0, BuildingBlock: KUFVIS_clean_sbu_0, # of connection points: 4
#     Edge 16, Type (0, 0), BuildingBlock: ZUJKAS_clean_linker_0, # of connection points: 2
#     Edge 17, Type (0, 0), BuildingBlock: ZUJKAS_clean_linker_0, # of connection points: 2
#     Edge 18, Type (0, 0), BuildingBlock: ZUJKAS_clean_linker_0, # of connection points: 2
#     Edge 19, Type (0, 0), BuildingBlock: ZUJKAS_clean_linker_0, # of connection points: 2
#     Edge 20, Type (0, 0), BuildingBlock: ZUJKAS_clean_linker_0, # of connection points: 2
#     Edge 21, Type (0, 0), BuildingBlock: ZUJKAS_clean_linker_0, # of connection points: 2
#     Edge 22, Type (0, 0), BuildingBlock: ZUJKAS_clean_linker_0, # of connection points: 2
#     Edge 23, Type (0, 0), BuildingBlock: ZUJKAS_clean_linker_0, # of connection points: 2
#     Edge 24, Type (0, 0), BuildingBlock: ZUJKAS_clean_linker_0, # of connection points: 2
#     Edge 25, Type (0, 0), BuildingBlock: ZUJKAS_clean_linker_0, # of connection points: 2
#     Edge 26, Type (0, 0), BuildingBlock: ZUJKAS_clean_linker_0, # of connection points: 2
#     Edge 27, Type (0, 0), BuildingBlock: ZUJKAS_clean_linker_0, # of connection points: 2
#     Edge 28, Type (0, 0), BuildingBlock: ZUJKAS_clean_linker_0, # of connection points: 2
#     Edge 29, Type (0, 0), BuildingBlock: ZUJKAS_clean_linker_0, # of connection points: 2
#     Edge 30, Type (0, 0), BuildingBlock: ZUJKAS_clean_linker_0, # of connection points: 2
#     Edge 31, Type (0, 0), BuildingBlock: ZUJKAS_clean_linker_0, # of connection points: 2
#     Edge 32, Type (0, 0), BuildingBlock: ZUJKAS_clean_linker_0, # of connection points: 2
#     Edge 33, Type (0, 0), BuildingBlock: ZUJKAS_clean_linker_0, # of connection points: 2
#     Edge 34, Type (0, 0), BuildingBlock: ZUJKAS_clean_linker_0, # of connection points: 2
#     Edge 35, Type (0, 0), BuildingBlock: ZUJKAS_clean_linker_0, # of connection points: 2
#     Edge 36, Type (0, 0), BuildingBlock: ZUJKAS_clean_linker_0, # of connection points: 2
#     Edge 37, Type (0, 0), BuildingBlock: ZUJKAS_clean_linker_0, # of connection points: 2
#     Edge 38, Type (0, 0), BuildingBlock: ZUJKAS_clean_linker_0, # of connection points: 2
#     Edge 39, Type (0, 0), BuildingBlock: ZUJKAS_clean_linker_0, # of connection points: 2
#     Edge 40, Type (0, 0), BuildingBlock: ZUJKAS_clean_linker_0, # of connection points: 2
#     Edge 41, Type (0, 0), BuildingBlock: ZUJKAS_clean_linker_0, # of connection points: 2
#     Edge 42, Type (0, 0), BuildingBlock: ZUJKAS_clean_linker_0, # of connection points: 2
#     Edge 43, Type (0, 0), BuildingBlock: ZUJKAS_clean_linker_0, # of connection points: 2
#     Edge 44, Type (0, 0), BuildingBlock: ZUJKAS_clean_linker_0, # of connection points: 2
#     Edge 45, Type (0, 0), BuildingBlock: ZUJKAS_clean_linker_0, # of connection points: 2
#     Edge 46, Type (0, 0), BuildingBlock: ZUJKAS_clean_linker_0, # of connection points: 2
#     Edge 47, Type (0, 0), BuildingBlock: ZUJKAS_clean_linker_0, # of connection points: 2
# Relax obj value: 0.055
# Max RMSD: 0.082
# Mean RMSD: 0.082
data_MOF--net-atn--node1-KUFVIS_clean_sbu_0--edge1-ZUJKAS_clean_linker_0
_symmetry_space_group_name_H-M    P1
_symmetry_Int_Tables_number       1
_symmetry_cell_setting            triclinic
loop_
_symmetry_equiv_pos_as_xyz
'x, y, z'
_cell_length_a     78.761718
_cell_length_b     78.763686
_cell_length_c     34.489939
_cell_angle_alpha  90.007396
_cell_angle_beta   90.005482
_cell_angle_gamma 90.003418
loop_
_atom_site_label
_atom_site_type_symbol
_atom_site_fract_x
_atom_site_fract_y
_atom_site_fract_z
_atom_type_partial_charge
Mn0 Mn 0.20615 0.37605 0.0134 0.0
Mn1 Mn 0.16415 0.38396 0.02025 0.0
C2 C 0.19296 0.37577 0.07326 0.0
C3 C 0.2282 0.3567 0.00403 0.0
C4 C 0.19057 0.41157 0.00762 0.0
O5 O 0.19786 0.37285 0.95793 0.0
O6 O 0.16976 0.37658 0.96666 0.0
C7 C 0.15125 0.34903 0.00845 0.0
N8 N 0.15224 0.36331 0.03061 0.0
C9 C 0.13384 0.35123 0.07897 0.0
C10 C 0.13253 0.33643 0.05655 0.0
C11 C 0.14132 0.33531 0.0212 0.0
C12 C 0.14392 0.36448 0.06477 0.0
H13 H 0.15799 0.3481 0.98127 0.0
C14 C 0.18259 0.37287 0.94544 0.0
O15 O 0.23032 0.3728 0.99739 0.0
O16 O 0.21329 0.3519 0.0155 0.0
N17 N 0.15692 0.39089 0.07083 0.0
C18 C 0.1602 0.40568 0.08991 0.0
C19 C 0.15274 0.4086 0.12629 0.0
C20 C 0.14185 0.39638 0.14247 0.0
C21 C 0.13853 0.38133 0.12213 0.0
C22 C 0.14631 0.37913 0.08597 0.0
H23 H 0.1685 0.41515 0.07755 0.0
O24 O 0.20926 0.37792 0.07081 0.0
O25 O 0.18495 0.37375 0.04069 0.0
O26 O 0.2036 0.40193 0.00879 0.0
O27 O 0.17537 0.40602 0.01057 0.0
C28 C 0.12795 0.36834 0.13648 0.0
C29 C 0.12569 0.35326 0.11503 0.0
H30 H 0.12491 0.32581 0.06632 0.0
H31 H 0.14044 0.3239 0.00382 0.0
H32 H 0.15537 0.42025 0.14182 0.0
H33 H 0.13618 0.39865 0.17061 0.0
H34 H 0.1216 0.36974 0.16414 0.0
H35 H 0.11774 0.34326 0.12667 0.0
Mn36 Mn 0.62635 0.20384 0.01145 0.0
Mn37 Mn 0.61831 0.16182 0.01486 0.0
C38 C 0.62667 0.18982 0.07021 0.0
C39 C 0.64576 0.22593 0.00342 0.0
C40 C 0.59098 0.18855 0.00341 0.0
O41 O 0.62926 0.19627 0.95526 0.0
O42 O 0.62647 0.16795 0.96227 0.0
C43 C 0.65319 0.14854 0.00477 0.0
N44 N 0.63866 0.14956 0.02606 0.0
C45 C 0.64992 0.13063 0.07441 0.0
C46 C 0.66497 0.12931 0.05289 0.0
C47 C 0.66662 0.13834 0.01797 0.0
C48 C 0.63696 0.14097 0.05975 0.0
H49 H 0.65453 0.15547 0.97793 0.0
C50 C 0.62984 0.18114 0.94191 0.0
O51 O 0.62964 0.22819 0.99719 0.0
O52 O 0.65054 0.21082 0.01355 0.0
N53 N 0.61065 0.15426 0.06464 0.0
C54 C 0.59577 0.15776 0.08313 0.0
C55 C 0.59238 0.15019 0.11919 0.0
C56 C 0.60426 0.13901 0.13569 0.0
C57 C 0.61943 0.13552 0.11599 0.0
C58 C 0.6221 0.14341 0.08013 0.0
H59 H 0.58658 0.16632 0.07057 0.0
O60 O 0.62472 0.20617 0.06905 0.0
O61 O 0.62853 0.18227 0.03701 0.0
O62 O 0.60048 0.20154 0.00756 0.0
O63 O 0.59646 0.17328 0.0039 0.0
C64 C 0.63211 0.12468 0.13076 0.0
C65 C 0.64738 0.12231 0.1101 0.0
H66 H 0.67538 0.12149 0.06305 0.0
H67 H 0.67822 0.13744 0.00129 0.0
H68 H 0.58066 0.15298 0.13424 0.0
H69 H 0.60164 0.13328 0.16361 0.0
H70 H 0.63032 0.11822 0.15817 0.0
H71 H 0.65714 0.11417 0.12208 0.0
Mn72 Mn 0.79963 0.62662 0.00959 0.0
Mn73 Mn 0.84146 0.61747 0.00866 0.0
C74 C 0.81484 0.6263 0.067 0.0
C75 C 0.77766 0.64638 0.00424 0.0
C76 C 0.81385 0.59094 0.99894 0.0
O77 O 0.80626 0.62979 0.95275 0.0
O78 O 0.83459 0.62612 0.95705 0.0
C79 C 0.85559 0.65201 0.99853 0.0
N80 N 0.85456 0.63734 0.0193 0.0
C81 C 0.87502 0.64747 0.06565 0.0
C82 C 0.87637 0.66266 0.04468 0.0
C83 C 0.86657 0.66496 0.01104 0.0
C84 C 0.86387 0.63503 0.05179 0.0
H85 H 0.84809 0.65382 0.97264 0.0
C86 C 0.82116 0.62996 0.93802 0.0
O87 O 0.77514 0.63036 0.9975 0.0
O88 O 0.79298 0.65093 0.01335 0.0
N89 N 0.8497 0.60921 0.0573 0.0
C90 C 0.84613 0.59427 0.07546 0.0
C91 C 0.85461 0.59014 0.10999 0.0
C92 C 0.86675 0.60135 0.12532 0.0
C93 C 0.87014 0.61671 0.10624 0.0
C94 C 0.86136 0.62009 0.07182 0.0
H95 H 0.83691 0.58554 0.06365 0.0
O96 O 0.79844 0.62466 0.06741 0.0
O97 O 0.82174 0.62817 0.03309 0.0
O98 O 0.80122 0.60074 0.00464 0.0
O99 O 0.82923 0.59604 0.99808 0.0
C100 C 0.88178 0.62885 0.12017 0.0
C101 C 0.88414 0.64427 0.10004 0.0
H102 H 0.88479 0.67268 0.05427 0.0
H103 H 0.86749 0.67667 0.99478 0.0
H104 H 0.85186 0.57831 0.12466 0.0
H105 H 0.87331 0.59807 0.15187 0.0
H106 H 0.88885 0.62657 0.1466 0.0
H107 H 0.89291 0.65362 0.11139 0.0
Mn108 Mn 0.37682 0.80018 0.01035 0.0
Mn109 Mn 0.38581 0.84205 0.01031 0.0
C110 C 0.37696 0.81526 0.06807 0.0
C111 C 0.35721 0.77807 0.00469 0.0
C112 C 0.41262 0.81461 0.00094 0.0
O113 O 0.37362 0.80691 0.95361 0.0
O114 O 0.37759 0.83518 0.95824 0.0
C115 C 0.35123 0.85588 0.99877 0.0
N116 N 0.36574 0.85497 0.02013 0.0
C117 C 0.35507 0.87532 0.06611 0.0
C118 C 0.34003 0.87653 0.04451 0.0
C119 C 0.33809 0.86673 0.01076 0.0
C120 C 0.36771 0.86427 0.05276 0.0
H121 H 0.34969 0.84838 0.97279 0.0
C122 C 0.37363 0.82183 0.93901 0.0
O123 O 0.37327 0.77567 0.99818 0.0
O124 O 0.35254 0.79336 0.0138 0.0
N125 N 0.39361 0.85036 0.0593 0.0
C126 C 0.40848 0.84697 0.07798 0.0
C127 C 0.41228 0.85553 0.11261 0.0
C128 C 0.40084 0.86755 0.1275 0.0
C129 C 0.38557 0.87075 0.10788 0.0
C130 C 0.38252 0.86191 0.07338 0.0
H131 H 0.4174 0.83786 0.0665 0.0
O132 O 0.37876 0.79888 0.06818 0.0
O133 O 0.37508 0.82224 0.03425 0.0
O134 O 0.40271 0.80194 0.0053 0.0
O135 O 0.40744 0.82998 0.00085 0.0
C136 C 0.37321 0.88227 0.12133 0.0
C137 C 0.35792 0.88446 0.10061 0.0
H138 H 0.32986 0.88487 0.05369 0.0
H139 H 0.3265 0.86755 0.99401 0.0
H140 H 0.42405 0.85294 0.12769 0.0
H141 H 0.40389 0.87419 0.1541 0.0
H142 H 0.37524 0.88938 0.14781 0.0
H143 H 0.34841 0.89316 0.11158 0.0
Mn144 Mn 0.20659 0.62931 0.99192 0.0
Mn145 Mn 0.1646 0.62134 0.98432 0.0
C146 C 0.19349 0.62995 0.93192 0.0
C147 C 0.22865 0.64864 0.002 0.0
C148 C 0.19105 0.59367 0.99578 0.0
O149 O 0.19823 0.63207 0.04748 0.0
O150 O 0.17019 0.62817 0.03826 0.0
C151 C 0.15172 0.65615 0.99783 0.0
N152 N 0.15268 0.64207 0.97502 0.0
C153 C 0.1341 0.65451 0.9275 0.0
C154 C 0.13283 0.66911 0.95058 0.0
C155 C 0.14173 0.66995 0.98583 0.0
C156 C 0.14427 0.64117 0.94092 0.0
H157 H 0.15853 0.65686 0.02495 0.0
C158 C 0.18294 0.63176 0.05981 0.0
O159 O 0.23076 0.63249 0.00814 0.0
O160 O 0.21372 0.65349 0.99073 0.0
N161 N 0.15732 0.61486 0.93348 0.0
C162 C 0.16049 0.60019 0.91382 0.0
C163 C 0.15282 0.5975 0.87758 0.0
C164 C 0.14183 0.60981 0.86214 0.0
C165 C 0.13865 0.62475 0.88305 0.0
C166 C 0.14662 0.62671 0.91905 0.0
H167 H 0.16883 0.59063 0.92565 0.0
O168 O 0.20979 0.62785 0.93445 0.0
O169 O 0.18541 0.63175 0.96447 0.0
O170 O 0.20407 0.60335 0.99549 0.0
O171 O 0.17586 0.59923 0.99281 0.0
C172 C 0.12798 0.63782 0.86945 0.0
C173 C 0.1258 0.65274 0.89152 0.0
H174 H 0.12514 0.67979 0.94142 0.0
H175 H 0.14087 0.68121 0.00374 0.0
H176 H 0.15534 0.58594 0.86161 0.0
H177 H 0.13596 0.60769 0.83415 0.0
H178 H 0.1215 0.63662 0.84189 0.0
H179 H 0.11778 0.66281 0.88048 0.0
Mn180 Mn 0.37326 0.20279 0.98965 0.0
Mn181 Mn 0.38072 0.16062 0.98624 0.0
C182 C 0.37277 0.18874 0.93086 0.0
C183 C 0.3544 0.22536 0.9976 0.0
C184 C 0.40847 0.18695 0.99717 0.0
O185 O 0.37015 0.1953 0.04588 0.0
O186 O 0.3729 0.16698 0.03896 0.0
C187 C 0.34565 0.14799 0.99724 0.0
N188 N 0.36012 0.14868 0.97566 0.0
C189 C 0.34839 0.12971 0.92797 0.0
C190 C 0.3334 0.12872 0.94979 0.0
C191 C 0.33201 0.13794 0.98451 0.0
C192 C 0.36156 0.13991 0.94214 0.0
H193 H 0.34452 0.15506 0.02394 0.0
C194 C 0.36958 0.18019 0.05931 0.0
O195 O 0.37055 0.22719 0.0039 0.0
O196 O 0.34922 0.21037 0.98746 0.0
N197 N 0.38806 0.15277 0.93645 0.0
C198 C 0.40297 0.15587 0.91771 0.0
C199 C 0.40613 0.14804 0.88185 0.0
C200 C 0.39402 0.13698 0.86582 0.0
C201 C 0.37884 0.13386 0.8858 0.0
C202 C 0.37639 0.14202 0.92145 0.0
H203 H 0.41235 0.16432 0.92993 0.0
O204 O 0.37498 0.20506 0.93204 0.0
O205 O 0.37072 0.18122 0.96404 0.0
O206 O 0.39908 0.20004 0.99358 0.0
O207 O 0.40281 0.17175 0.9965 0.0
C208 C 0.36594 0.12316 0.87153 0.0
C209 C 0.35069 0.12116 0.89248 0.0
H210 H 0.32284 0.12102 0.94002 0.0
H211 H 0.32046 0.13731 0.00143 0.0
H212 H 0.41788 0.15052 0.86658 0.0
H213 H 0.39647 0.13103 0.83805 0.0
H214 H 0.36753 0.11651 0.84428 0.0
H215 H 0.34076 0.11311 0.88089 0.0
Mn216 Mn 0.79738 0.37333 0.98681 0.0
Mn217 Mn 0.83943 0.38133 0.98208 0.0
C218 C 0.81106 0.37305 0.92761 0.0
C219 C 0.77515 0.35417 0.9956 0.0
C220 C 0.81282 0.4087 0.99406 0.0
O221 O 0.80526 0.37035 0.04279 0.0
O222 O 0.83351 0.37343 0.03496 0.0
C223 C 0.85251 0.34639 0.99248 0.0
N224 N 0.85154 0.36088 0.97101 0.0
C225 C 0.87037 0.34943 0.92271 0.0
C226 C 0.87165 0.33443 0.9444 0.0
C227 C 0.86264 0.33289 0.97937 0.0
C228 C 0.86009 0.36246 0.93723 0.0
H229 H 0.84561 0.34516 0.01937 0.0
C230 C 0.82046 0.37001 0.05575 0.0
O231 O 0.77313 0.3703 0.00191 0.0
O232 O 0.79013 0.34919 0.98489 0.0
N233 N 0.84689 0.3888 0.93208 0.0
C234 C 0.84354 0.40372 0.91359 0.0
C235 C 0.85117 0.40704 0.87757 0.0
C236 C 0.86229 0.39508 0.86116 0.0
C237 C 0.86565 0.37989 0.88089 0.0
C238 C 0.85769 0.37729 0.9167 0.0
H239 H 0.83506 0.41298 0.92613 0.0
O240 O 0.79472 0.37502 0.92929 0.0
O241 O 0.81881 0.3711 0.96054 0.0
O242 O 0.79982 0.39917 0.9907 0.0
O243 O 0.82809 0.40325 0.99286 0.0
C244 C 0.87644 0.36713 0.86625 0.0
C245 C 0.87872 0.35188 0.88702 0.0
H246 H 0.87942 0.32397 0.93435 0.0
H247 H 0.86351 0.32132 0.9962 0.0
H248 H 0.8485 0.41878 0.8625 0.0
H249 H 0.86808 0.39765 0.83329 0.0
H250 H 0.88294 0.36885 0.83886 0.0
H251 H 0.88683 0.34206 0.87514 0.0
Mn252 Mn 0.62978 0.79789 0.99086 0.0
Mn253 Mn 0.62146 0.83987 0.98563 0.0
C254 C 0.62962 0.81146 0.93147 0.0
C255 C 0.64924 0.77578 0.99867 0.0
C256 C 0.59415 0.81316 0.99793 0.0
O257 O 0.63322 0.80586 0.04654 0.0
O258 O 0.62909 0.83395 0.03882 0.0
C259 C 0.65632 0.853 0.9972 0.0
N260 N 0.64197 0.85202 0.97528 0.0
C261 C 0.65368 0.8709 0.92742 0.0
C262 C 0.66855 0.87219 0.94958 0.0
C263 C 0.66989 0.86315 0.98456 0.0
C264 C 0.64058 0.86059 0.94148 0.0
H265 H 0.65742 0.84607 0.0241 0.0
C266 C 0.63304 0.82104 0.05955 0.0
O267 O 0.63321 0.77365 0.00611 0.0
O268 O 0.65393 0.79078 0.98756 0.0
N269 N 0.61427 0.84739 0.93547 0.0
C270 C 0.59944 0.8441 0.91655 0.0
C271 C 0.59631 0.85178 0.88051 0.0
C272 C 0.60837 0.86291 0.8645 0.0
C273 C 0.62346 0.86623 0.88468 0.0
C274 C 0.62587 0.85822 0.9205 0.0
H275 H 0.5901 0.83561 0.92878 0.0
O276 O 0.62759 0.79513 0.93341 0.0
O277 O 0.63176 0.81928 0.96424 0.0
O278 O 0.60391 0.80023 0.99615 0.0
O279 O 0.59952 0.82843 0.99541 0.0
C280 C 0.63629 0.87704 0.87048 0.0
C281 C 0.65143 0.87929 0.89171 0.0
H282 H 0.67906 0.87998 0.9399 0.0
H283 H 0.68136 0.86402 0.00176 0.0
H284 H 0.58464 0.84914 0.8651 0.0
H285 H 0.60594 0.86875 0.83662 0.0
H286 H 0.63472 0.88358 0.8431 0.0
H287 H 0.66131 0.88743 0.88019 0.0
Mn288 Mn 0.70333 0.87642 0.5118 0.0
Mn289 Mn 0.66161 0.88614 0.51213 0.0
C290 C 0.68841 0.87706 0.56967 0.0
C291 C 0.72519 0.85658 0.5063 0.0
C292 C 0.68948 0.91239 0.50172 0.0
O293 O 0.69637 0.87304 0.4553 0.0
O294 O 0.6682 0.87763 0.46012 0.0
C295 C 0.64714 0.85176 0.50145 0.0
N296 N 0.64836 0.86633 0.52251 0.0
C297 C 0.62794 0.85621 0.56895 0.0
C298 C 0.6264 0.84112 0.54767 0.0
C299 C 0.63608 0.83886 0.51384 0.0
C300 C 0.63917 0.8686 0.5552 0.0
H301 H 0.65454 0.84999 0.47541 0.0
C302 C 0.68143 0.87332 0.44084 0.0
O303 O 0.7277 0.87256 0.4991 0.0
O304 O 0.70991 0.8521 0.51601 0.0
N305 N 0.65358 0.89426 0.56106 0.0
C306 C 0.65729 0.90913 0.5794 0.0
C307 C 0.64887 0.91324 0.61402 0.0
C308 C 0.63667 0.90209 0.62927 0.0
C309 C 0.63316 0.88679 0.61003 0.0
C310 C 0.64187 0.88344 0.5755 0.0
H311 H 0.66654 0.91784 0.56764 0.0
O312 O 0.70482 0.87865 0.56955 0.0
O313 O 0.68131 0.87514 0.53599 0.0
O314 O 0.70196 0.90226 0.50602 0.0
O315 O 0.67402 0.90752 0.50207 0.0
C316 C 0.62146 0.87469 0.62389 0.0
C317 C 0.61894 0.85936 0.60351 0.0
H318 H 0.61791 0.83113 0.55716 0.0
H319 H 0.63501 0.82723 0.49734 0.0
H320 H 0.65171 0.92502 0.62882 0.0
H321 H 0.63014 0.90537 0.65586 0.0
H322 H 0.61447 0.87695 0.65043 0.0
H323 H 0.61011 0.85005 0.61479 0.0
Mn324 Mn 0.12599 0.70176 0.5116 0.0
Mn325 Mn 0.11715 0.65986 0.51347 0.0
C326 C 0.12623 0.68709 0.56988 0.0
C327 C 0.14565 0.72377 0.50483 0.0
C328 C 0.09016 0.68715 0.5042 0.0
O329 O 0.12889 0.69468 0.45505 0.0
O330 O 0.12484 0.66646 0.4608 0.0
C331 C 0.15172 0.64618 0.50075 0.0
N332 N 0.13738 0.6471 0.5227 0.0
C333 C 0.14851 0.62697 0.5686 0.0
C334 C 0.16338 0.62575 0.5464 0.0
C335 C 0.16501 0.63544 0.5124 0.0
C336 C 0.13573 0.63793 0.5556 0.0
H337 H 0.15301 0.65358 0.47456 0.0
C338 C 0.12868 0.67967 0.44095 0.0
O339 O 0.12957 0.72621 0.49859 0.0
O340 O 0.15029 0.70852 0.51424 0.0
N341 N 0.10983 0.65177 0.56299 0.0
C342 C 0.09507 0.65511 0.58216 0.0
C343 C 0.09153 0.64659 0.61696 0.0
C344 C 0.10313 0.63464 0.63153 0.0
C345 C 0.1183 0.63151 0.61146 0.0
C346 C 0.12108 0.6403 0.57679 0.0
H347 H 0.08603 0.66415 0.5709 0.0
O348 O 0.12436 0.70346 0.56944 0.0
O349 O 0.12794 0.67987 0.53627 0.0
O350 O 0.10005 0.69992 0.50718 0.0
O351 O 0.09543 0.67182 0.50484 0.0
C352 C 0.13081 0.62008 0.62459 0.0
C353 C 0.14596 0.61791 0.60333 0.0
H354 H 0.17366 0.61748 0.5553 0.0
H355 H 0.17646 0.6346 0.49519 0.0
H356 H 0.07984 0.64913 0.63239 0.0
H357 H 0.10026 0.628 0.65823 0.0
H358 H 0.129 0.61302 0.65122 0.0
H359 H 0.15559 0.60929 0.61404 0.0
Mn360 Mn 0.29727 0.12645 0.51065 0.0
Mn361 Mn 0.33875 0.11583 0.51029 0.0
C362 C 0.31228 0.1256 0.56838 0.0
C363 C 0.27611 0.1471 0.50457 0.0
C364 C 0.31021 0.09033 0.49969 0.0
O365 O 0.30422 0.12931 0.45387 0.0
O366 O 0.33246 0.12508 0.45883 0.0
C367 C 0.3543 0.14983 0.50162 0.0
N368 N 0.35258 0.13509 0.52189 0.0
C369 C 0.37321 0.1441 0.56904 0.0
C370 C 0.37526 0.15935 0.54859 0.0
C371 C 0.36573 0.16224 0.5148 0.0
C372 C 0.36164 0.13221 0.55451 0.0
H373 H 0.347 0.15209 0.47562 0.0
C374 C 0.3192 0.12928 0.43953 0.0
O375 O 0.27296 0.13115 0.49825 0.0
O376 O 0.29158 0.15104 0.51387 0.0
N377 N 0.34642 0.10695 0.55886 0.0
C378 C 0.34213 0.09208 0.5765 0.0
C379 C 0.35027 0.08742 0.61111 0.0
C380 C 0.36277 0.09803 0.62708 0.0
C381 C 0.36688 0.11334 0.60856 0.0
C382 C 0.35843 0.11726 0.574 0.0
H383 H 0.33263 0.0838 0.56421 0.0
O384 O 0.29583 0.12464 0.56848 0.0
O385 O 0.31935 0.12717 0.53457 0.0
O386 O 0.29792 0.1005 0.50593 0.0
O387 O 0.32575 0.09494 0.49868 0.0
C388 C 0.37892 0.12494 0.62319 0.0
C389 C 0.382 0.14035 0.60358 0.0
H390 H 0.38403 0.16898 0.55871 0.0
H391 H 0.36719 0.17401 0.49894 0.0
H392 H 0.34697 0.07563 0.62536 0.0
H393 H 0.36906 0.09433 0.6537 0.0
H394 H 0.38573 0.12223 0.64976 0.0
H395 H 0.39107 0.14928 0.61546 0.0
Mn396 Mn 0.87573 0.29957 0.50777 0.0
Mn397 Mn 0.88579 0.3412 0.50768 0.0
C398 C 0.87616 0.31465 0.56543 0.0
C399 C 0.85542 0.27812 0.50154 0.0
C400 C 0.91189 0.31305 0.49864 0.0
O401 O 0.87295 0.30633 0.451 0.0
O402 O 0.87744 0.33452 0.45561 0.0
C403 C 0.85157 0.35589 0.49601 0.0
N404 N 0.86605 0.35464 0.51739 0.0
C405 C 0.85592 0.37534 0.56317 0.0
C406 C 0.84092 0.37692 0.54155 0.0
C407 C 0.83872 0.36711 0.5079 0.0
C408 C 0.86826 0.36394 0.54994 0.0
H409 H 0.84984 0.34839 0.4701 0.0
C410 C 0.87329 0.32123 0.43636 0.0
O411 O 0.87143 0.27517 0.49549 0.0
O412 O 0.85124 0.29353 0.51072 0.0
N413 N 0.89378 0.34934 0.55664 0.0
C414 C 0.90856 0.3456 0.57534 0.0
C415 C 0.9126 0.35414 0.60986 0.0
C416 C 0.90148 0.36649 0.62461 0.0
C417 C 0.8863 0.37005 0.60498 0.0
C418 C 0.883 0.36121 0.5706 0.0
H419 H 0.91723 0.33624 0.56394 0.0
O420 O 0.87744 0.29822 0.56562 0.0
O421 O 0.87456 0.32167 0.53159 0.0
O422 O 0.90169 0.30062 0.50316 0.0
O423 O 0.90707 0.32854 0.49831 0.0
C424 C 0.87425 0.38193 0.6183 0.0
C425 C 0.85903 0.38449 0.59756 0.0
H426 H 0.83098 0.38554 0.55064 0.0
H427 H 0.82716 0.3682 0.49114 0.0
H428 H 0.9243 0.35127 0.62495 0.0
H429 H 0.90473 0.37311 0.65112 0.0
H430 H 0.87648 0.38905 0.64469 0.0
H431 H 0.84975 0.39346 0.60843 0.0
Mn432 Mn 0.70404 0.12928 0.49038 0.0
Mn433 Mn 0.66246 0.11897 0.49015 0.0
C434 C 0.68912 0.12845 0.43249 0.0
C435 C 0.72552 0.14958 0.49638 0.0
C436 C 0.69072 0.09314 0.50046 0.0
O437 O 0.69707 0.13234 0.54701 0.0
O438 O 0.66891 0.1277 0.54198 0.0
C439 C 0.64748 0.15317 0.50014 0.0
N440 N 0.64888 0.13851 0.47944 0.0
C441 C 0.62809 0.14801 0.43317 0.0
C442 C 0.62636 0.16319 0.45407 0.0
C443 C 0.63615 0.1658 0.48762 0.0
C444 C 0.63962 0.13592 0.44698 0.0
H445 H 0.65495 0.1552 0.52598 0.0
C446 C 0.68212 0.13195 0.56138 0.0
O447 O 0.72837 0.1336 0.50295 0.0
O448 O 0.71014 0.15377 0.48686 0.0
N449 N 0.65451 0.11052 0.44144 0.0
C450 C 0.65834 0.09557 0.42357 0.0
C451 C 0.64974 0.09105 0.38946 0.0
C452 C 0.63724 0.10187 0.37425 0.0
C453 C 0.63363 0.11727 0.39293 0.0
C454 C 0.6425 0.12103 0.42703 0.0
H455 H 0.66779 0.0871 0.43538 0.0
O456 O 0.70556 0.12728 0.43258 0.0
O457 O 0.68199 0.13022 0.46618 0.0
O458 O 0.7031 0.10337 0.49564 0.0
O459 O 0.67521 0.09787 0.50056 0.0
C460 C 0.62165 0.12908 0.379 0.0
C461 C 0.61897 0.14449 0.39894 0.0
H462 H 0.61764 0.17297 0.4445 0.0
H463 H 0.63493 0.1775 0.50382 0.0
H464 H 0.65265 0.07919 0.37508 0.0
H465 H 0.63053 0.09822 0.34814 0.0
H466 H 0.61455 0.12652 0.35274 0.0
H467 H 0.60992 0.15357 0.38761 0.0
Mn468 Mn 0.87297 0.70518 0.48859 0.0
Mn469 Mn 0.88054 0.66308 0.48253 0.0
C470 C 0.87326 0.69188 0.42888 0.0
C471 C 0.85375 0.72748 0.49643 0.0
C472 C 0.90829 0.68924 0.49616 0.0
O473 O 0.86908 0.69705 0.54391 0.0
O474 O 0.87282 0.66893 0.53573 0.0
C475 C 0.84537 0.65064 0.49309 0.0
N476 N 0.85984 0.65139 0.47151 0.0
C477 C 0.84793 0.63295 0.423 0.0
C478 C 0.83294 0.63189 0.44481 0.0
C479 C 0.83164 0.64082 0.47994 0.0
C480 C 0.86118 0.64293 0.43756 0.0
H481 H 0.84431 0.65748 0.52011 0.0
C482 C 0.86897 0.68182 0.55661 0.0
O483 O 0.86977 0.72939 0.50436 0.0
O484 O 0.84896 0.7126 0.48471 0.0
N485 N 0.88779 0.65559 0.43239 0.0
C486 C 0.9028 0.65858 0.41395 0.0
C487 C 0.90594 0.65091 0.37789 0.0
C488 C 0.89372 0.64011 0.36139 0.0
C489 C 0.87844 0.63709 0.38108 0.0
C490 C 0.87603 0.64506 0.41695 0.0
H491 H 0.91227 0.66681 0.42657 0.0
O492 O 0.87556 0.70816 0.43128 0.0
O493 O 0.87078 0.68395 0.46138 0.0
O494 O 0.89877 0.70236 0.49478 0.0
O495 O 0.90263 0.6741 0.49289 0.0
C496 C 0.86544 0.62662 0.36637 0.0
C497 C 0.85016 0.62464 0.38718 0.0
H498 H 0.82231 0.62436 0.43473 0.0
H499 H 0.82009 0.64014 0.49686 0.0
H500 H 0.91776 0.65331 0.36286 0.0
H501 H 0.89617 0.63427 0.33351 0.0
H502 H 0.86699 0.62014 0.3389 0.0
H503 H 0.84016 0.61676 0.37528 0.0
Mn504 Mn 0.29649 0.87248 0.4897 0.0
Mn505 Mn 0.33845 0.88092 0.48455 0.0
C506 C 0.31012 0.87221 0.43035 0.0
C507 C 0.27448 0.85301 0.49872 0.0
C508 C 0.31157 0.90812 0.49611 0.0
O509 O 0.30447 0.86968 0.54571 0.0
O510 O 0.33264 0.87316 0.53763 0.0
C511 C 0.35186 0.84615 0.49566 0.0
N512 N 0.35076 0.86054 0.47391 0.0
C513 C 0.36968 0.84908 0.42582 0.0
C514 C 0.3711 0.83417 0.44781 0.0
C515 C 0.36211 0.83269 0.48282 0.0
C516 C 0.35928 0.86207 0.44008 0.0
H517 H 0.34497 0.84495 0.52259 0.0
C518 C 0.31969 0.86957 0.55856 0.0
O519 O 0.27226 0.86913 0.5049 0.0
O520 O 0.28952 0.84823 0.48803 0.0
N521 N 0.34584 0.88827 0.43441 0.0
C522 C 0.3424 0.90311 0.41567 0.0
C523 C 0.35003 0.90638 0.37963 0.0
C524 C 0.36125 0.89445 0.36344 0.0
C525 C 0.36471 0.87935 0.38343 0.0
C526 C 0.35675 0.8768 0.41926 0.0
H527 H 0.33385 0.91235 0.42804 0.0
O528 O 0.29377 0.87401 0.43213 0.0
O529 O 0.31793 0.87042 0.46327 0.0
O530 O 0.29866 0.8984 0.49332 0.0
O531 O 0.32688 0.90278 0.49478 0.0
C532 C 0.37561 0.86663 0.36903 0.0
C533 C 0.37801 0.85147 0.39008 0.0
H534 H 0.37897 0.82375 0.43796 0.0
H535 H 0.36308 0.8212 0.49987 0.0
H536 H 0.34729 0.91806 0.36437 0.0
H537 H 0.36705 0.89699 0.33556 0.0
H538 H 0.3821 0.86831 0.34162 0.0
H539 H 0.38621 0.84168 0.3784 0.0
Mn540 Mn 0.12909 0.30038 0.49312 0.0
Mn541 Mn 0.11897 0.34201 0.49272 0.0
C542 C 0.12892 0.31544 0.43535 0.0
C543 C 0.14924 0.27877 0.49955 0.0
C544 C 0.09285 0.31386 0.50112 0.0
O545 O 0.13165 0.30719 0.55002 0.0
O546 O 0.12692 0.33532 0.54505 0.0
C547 C 0.15312 0.35668 0.50561 0.0
N548 N 0.13877 0.35545 0.48375 0.0
C549 C 0.14912 0.37631 0.43861 0.0
C550 C 0.16399 0.37785 0.46072 0.0
C551 C 0.16601 0.36795 0.49428 0.0
C552 C 0.13674 0.36482 0.45126 0.0
H553 H 0.1547 0.34912 0.53148 0.0
C554 C 0.13105 0.32211 0.56455 0.0
O555 O 0.1332 0.27597 0.50545 0.0
O556 O 0.15358 0.29417 0.49061 0.0
N557 N 0.1113 0.35019 0.44355 0.0
C558 C 0.0966 0.34653 0.42444 0.0
C559 C 0.09269 0.35522 0.39006 0.0
C560 C 0.10385 0.36767 0.37589 0.0
C561 C 0.11896 0.37113 0.39589 0.0
C562 C 0.12213 0.36213 0.43012 0.0
H563 H 0.08788 0.33712 0.43544 0.0
O564 O 0.12761 0.29902 0.43521 0.0
O565 O 0.13039 0.32249 0.46921 0.0
O566 O 0.10312 0.30145 0.49718 0.0
O567 O 0.09762 0.32936 0.5013 0.0
C568 C 0.13105 0.38309 0.38316 0.0
C569 C 0.14618 0.38558 0.40433 0.0
H570 H 0.17397 0.38653 0.45208 0.0
H571 H 0.17747 0.36902 0.51142 0.0
H572 H 0.08105 0.35243 0.37467 0.0
H573 H 0.10069 0.37444 0.34953 0.0
H574 H 0.12893 0.39032 0.3569 0.0
H575 H 0.15549 0.39461 0.39391 0.0
H576 H 0.16649 0.56913 0.99591 0.0
H577 H 0.17015 0.53845 0.99661 0.0
H578 H 0.22449 0.54467 0.00058 0.0
H579 H 0.22101 0.57561 0.00025 0.0
H580 H 0.18797 0.51896 0.94116 0.0
H581 H 0.21468 0.5108 0.08945 0.0
H582 H 0.20391 0.52997 0.07462 0.0
H583 H 0.22517 0.52586 0.05843 0.0
C584 C 0.17927 0.56408 0.99728 0.0
C585 C 0.19346 0.57495 0.99813 0.0
C586 C 0.18131 0.54647 0.99758 0.0
C587 C 0.19757 0.53925 0.99894 0.0
C588 C 0.21181 0.54997 0.00011 0.0
H589 H 0.22054 0.42967 0.00649 0.0
H590 H 0.22403 0.46055 0.0018 0.0
C591 C 0.20978 0.56767 -0.00023 0.0
C592 C 0.19936 0.52048 0.9978 0.0
H593 H 0.2107 0.48604 0.05223 0.0
C594 C 0.19306 0.51177 0.96533 0.0
C595 C 0.20613 0.51112 0.02922 0.0
C596 C 0.21278 0.51983 0.06509 0.0
C597 C 0.19296 0.49396 0.9638 0.0
C598 C 0.19905 0.48458 0.99588 0.0
C599 C 0.20599 0.49326 0.02773 0.0
C600 C 0.19714 0.46584 0.99802 0.0
C601 C 0.18619 0.48533 0.92792 0.0
C602 C 0.18087 0.4586 0.99785 0.0
C603 C 0.17881 0.44103 0.00055 0.0
C604 C 0.193 0.43023 0.00363 0.0
C605 C 0.20933 0.43755 0.00392 0.0
C606 C 0.21136 0.4552 0.00134 0.0
H607 H 0.18682 0.49383 0.90224 0.0
H608 H 0.19338 0.47353 0.92148 0.0
H609 H 0.17269 0.48189 0.93263 0.0
H610 H 0.1697 0.46659 0.99609 0.0
H611 H 0.16603 0.43596 0.00048 0.0
H612 H 0.42816 0.20955 0.95774 0.0
H613 H 0.45922 0.21115 0.95706 0.0
H614 H 0.46152 0.17196 0.04441 0.0
H615 H 0.43057 0.1695 0.04291 0.0
H616 H 0.48279 0.2189 0.00396 0.0
H617 H 0.49219 0.15122 0.96836 0.0
H618 H 0.47146 0.16085 0.96858 0.0
H619 H 0.48088 0.15333 0.0131 0.0
C620 C 0.43535 0.20132 0.97683 0.0
C621 C 0.42703 0.18928 9e-05 0.0
C622 C 0.4531 0.20222 0.97643 0.0
C623 C 0.46285 0.19132 -0.00016 0.0
C624 C 0.45441 0.18001 0.02484 0.0
H625 H 0.57046 0.20773 0.04918 0.0
H626 H 0.53942 0.20915 0.04749 0.0
C627 C 0.43671 0.17874 0.02434 0.0
C628 C 0.48177 0.19169 0.99785 0.0
H629 H 0.51668 0.16623 0.99024 0.0
C630 C 0.49019 0.20739 0.00056 0.0
C631 C 0.49154 0.17676 0.99243 0.0
C632 C 0.48353 0.15964 0.98499 0.0
C633 C 0.508 0.20854 0.99867 0.0
C634 C 0.51779 0.19347 0.99597 0.0
C635 C 0.50932 0.17782 0.99275 0.0
C636 C 0.53675 0.19346 0.99615 0.0
C637 C 0.51597 0.22596 0.99844 0.0
C638 C 0.54575 0.18372 0.96879 0.0
C639 C 0.56343 0.18235 0.97081 0.0
C640 C 0.57252 0.19107 -0.00047 0.0
C641 C 0.56369 0.20117 0.02627 0.0
C642 C 0.54594 0.20209 0.02508 0.0
H643 H 0.50711 0.2356 0.98643 0.0
H644 H 0.51897 0.22977 0.02865 0.0
H645 H 0.52783 0.2262 0.98108 0.0
H646 H 0.53907 0.17691 0.94616 0.0
H647 H 0.57 0.17442 0.94997 0.0
H648 H 0.82865 0.43009 0.04412 0.0
H649 H 0.82586 0.46098 0.04794 0.0
H650 H 0.78992 0.45985 0.95337 0.0
H651 H 0.79174 0.42884 0.95179 0.0
H652 H 0.83455 0.48326 0.00122 0.0
H653 H 0.7655 0.49206 0.01917 0.0
H654 H 0.77533 0.47148 0.02297 0.0
H655 H 0.76981 0.4801 0.97616 0.0
C656 C 0.81989 0.43648 0.02478 0.0
C657 C 0.81027 0.42716 0.99797 0.0
C658 C 0.81832 0.45413 0.02683 0.0
C659 C 0.80746 0.46289 0.00136 0.0
C660 C 0.7979 0.4535 0.97437 0.0
H661 H 0.82864 0.56896 0.94845 0.0
H662 H 0.82589 0.53802 0.94715 0.0
C663 C 0.79905 0.43577 0.97321 0.0
C664 C 0.80721 0.48184 0.00121 0.0
H665 H 0.78116 0.51653 0.99799 0.0
C666 C 0.82283 0.49048 0.001 0.0
C667 C 0.79198 0.49145 0.00147 0.0
C668 C 0.77474 0.48327 0.00541 0.0
C669 C 0.82369 0.50827 0.00078 0.0
C670 C 0.80849 0.51784 0.99832 0.0
C671 C 0.79284 0.50926 0.99907 0.0
C672 C 0.8086 0.53674 0.99595 0.0
C673 C 0.84094 0.51649 0.00449 0.0
C674 C 0.79878 0.5465 0.02174 0.0
C675 C 0.7998 0.56424 0.02134 0.0
C676 C 0.81086 0.57251 0.99562 0.0
C677 C 0.82016 0.56283 0.96886 0.0
C678 C 0.81875 0.54515 0.96845 0.0
H679 H 0.85011 0.50797 0.01933 0.0
H680 H 0.84605 0.51917 0.97514 0.0
H681 H 0.84026 0.52858 0.02099 0.0
H682 H 0.79074 0.54038 0.04305 0.0
H683 H 0.79256 0.57145 0.04239 0.0
H684 H 0.57008 0.8364 0.01898 0.0
H685 H 0.53929 0.83268 0.02053 0.0
H686 H 0.54501 0.7805 0.98534 0.0
H687 H 0.57597 0.784 0.98405 0.0
H688 H 0.5207 0.80382 0.93975 0.0
H689 H 0.5104 0.80179 0.09923 0.0
H690 H 0.52468 0.81787 0.08152 0.0
H691 H 0.53033 0.79589 0.077 0.0
C692 C 0.56486 0.82406 0.01189 0.0
C693 C 0.57554 0.81049 0.00143 0.0
C694 C 0.54725 0.82197 0.01291 0.0
C695 C 0.53992 0.80631 0.00325 0.0
C696 C 0.55047 0.79266 0.99308 0.0
H697 H 0.43041 0.78567 0.01913 0.0
H698 H 0.4613 0.78168 0.01804 0.0
C699 C 0.56815 0.79468 0.99249 0.0
C700 C 0.5212 0.80459 0.00212 0.0
H701 H 0.48593 0.80533 0.05971 0.0
C702 C 0.51308 0.80393 0.96594 0.0
C703 C 0.51135 0.80468 0.03636 0.0
C704 C 0.51956 0.80497 0.07585 0.0
C705 C 0.49528 0.80404 0.96312 0.0
C706 C 0.48543 0.80483 0.99732 0.0
C707 C 0.49355 0.80478 0.03354 0.0
C708 C 0.46673 0.8068 0.99603 0.0
C709 C 0.48708 0.80362 0.92362 0.0
C710 C 0.45961 0.82223 0.98399 0.0
C711 C 0.44203 0.82462 0.98487 0.0
C712 C 0.43117 0.81156 0.99759 0.0
C713 C 0.43836 0.79596 0.00892 0.0
C714 C 0.456 0.79366 0.00845 0.0
H715 H 0.49616 0.79963 0.90071 0.0
H716 H 0.47605 0.79483 0.92352 0.0
H717 H 0.48234 0.8165 0.91634 0.0
H718 H 0.4677 0.83258 0.97465 0.0
H719 H 0.43697 0.83679 0.97593 0.0
H720 H 0.66955 0.06863 0.52862 0.0
H721 H 0.67417 0.03799 0.52956 0.0
H722 H 0.72404 0.04497 0.48065 0.0
H723 H 0.71962 0.07583 0.47985 0.0
H724 H 0.70036 0.02048 0.44109 0.0
H725 H 0.70802 0.00928 0.59917 0.0
H726 H 0.69069 0.02294 0.58571 0.0
H727 H 0.71213 0.02963 0.57679 0.0
C728 C 0.6816 0.06372 0.51846 0.0
C729 C 0.69422 0.07471 0.50417 0.0
C730 C 0.68423 0.04619 0.51917 0.0
C731 C 0.69948 0.03926 0.50544 0.0
C732 C 0.71222 0.05013 0.49161 0.0
H733 H 0.71904 0.92946 0.51792 0.0
H734 H 0.72376 0.96023 0.51653 0.0
C735 C 0.70969 0.06774 0.4913 0.0
C736 C 0.70149 0.0206 0.50346 0.0
H737 H 0.70235 0.985 0.5599 0.0
C738 C 0.70106 0.01271 0.467 0.0
C739 C 0.70248 0.01054 0.53731 0.0
C740 C 0.7035 0.01847 0.57703 0.0
C741 C 0.70078 0.99494 0.46362 0.0
C742 C 0.7009 0.98488 0.49757 0.0
C743 C 0.70217 0.99277 0.53394 0.0
C744 C 0.69852 0.96625 0.49607 0.0
C745 C 0.7 0.98701 0.42386 0.0
C746 C 0.68277 0.9595 0.48503 0.0
C747 C 0.67997 0.942 0.48608 0.0
C748 C 0.69292 0.93085 0.49802 0.0
C749 C 0.70883 0.93765 0.50832 0.0
C750 C 0.71155 0.95522 0.50766 0.0
H751 H 0.70389 0.99609 0.40088 0.0
H752 H 0.70828 0.97561 0.42233 0.0
H753 H 0.68677 0.98292 0.41784 0.0
H754 H 0.67249 0.96784 0.47644 0.0
H755 H 0.66757 0.93723 0.47796 0.0
H756 H 0.93249 0.66447 0.50193 0.0
H757 H 0.96315 0.66787 0.50604 0.0
H758 H 0.95749 0.72229 0.50365 0.0
H759 H 0.92658 0.71907 0.49915 0.0
H760 H 0.98257 0.70973 0.45229 0.0
H761 H 0.99107 0.68331 0.59973 0.0
H762 H 0.97899 0.66959 0.56868 0.0
H763 H 0.97067 0.69011 0.58158 0.0
C764 C 0.93766 0.67722 0.5026 0.0
C765 C 0.92696 0.69151 0.50043 0.0
C766 C 0.95524 0.67912 0.50513 0.0
C767 C 0.9626 0.69533 0.50579 0.0
C768 C 0.95205 0.70966 0.50348 0.0
H769 H 0.07271 0.71752 0.5041 0.0
H770 H 0.04184 0.72161 0.50462 0.0
C771 C 0.93438 0.70778 0.50101 0.0
C772 C 0.98136 0.69707 0.50753 0.0
H773 H 0.01597 0.68451 0.55979 0.0
C774 C 0.98991 0.70449 0.47607 0.0
C775 C 0.99088 0.69029 0.53867 0.0
C776 C 0.98244 0.68303 0.57427 0.0
C777 C 0.00775 0.70444 0.47393 0.0
C778 C 0.01722 0.69692 0.50425 0.0
C779 C 0.00867 0.69016 0.53644 0.0
C780 C 0.03592 0.69481 0.50211 0.0
C781 C 0.01633 0.71167 0.4385 0.0
C782 C 0.04281 0.67842 0.50067 0.0
C783 C 0.06037 0.67602 0.50041 0.0
C784 C 0.07151 0.68999 0.50184 0.0
C785 C 0.06455 0.70647 0.50281 0.0
C786 C 0.04691 0.70885 0.50299 0.0
H787 H 0.00714 0.71451 0.41494 0.0
H788 H 0.02291 0.72363 0.44643 0.0
H789 H 0.02602 0.70268 0.42729 0.0
H790 H 0.03456 0.66741 0.50002 0.0
H791 H 0.06516 0.66314 0.49972 0.0
H792 H 0.32032 0.06947 0.44153 0.0
H793 H 0.31705 0.0386 0.43791 0.0
H794 H 0.29083 0.03906 0.54789 0.0
H795 H 0.29295 0.07006 0.54973 0.0
H796 H 0.33016 0.01629 0.47873 0.0
H797 H 0.26119 0.00656 0.49537 0.0
H798 H 0.27015 0.0273 0.48714 0.0
H799 H 0.2693 0.01852 0.53543 0.0
C800 C 0.31345 0.06294 0.4643 0.0
C801 C 0.30665 0.07206 0.49558 0.0
C802 C 0.31165 0.0453 0.46241 0.0
C803 C 0.30346 0.03633 0.49235 0.0
C804 C 0.29663 0.04556 0.52365 0.0
H805 H 0.33045 0.93098 0.53666 0.0
H806 H 0.32754 0.96188 0.53721 0.0
C807 C 0.29794 0.06329 0.52488 0.0
C808 C 0.30345 0.01736 0.49231 0.0
H809 H 0.27883 0.9823 0.50849 0.0
C810 C 0.31883 0.00892 0.48476 0.0
C811 C 0.2887 0.00753 0.49961 0.0
C812 C 0.27139 0.01547 0.50439 0.0
C813 C 0.31995 0.99114 0.48472 0.0
C814 C 0.3055 0.98135 0.49474 0.0
C815 C 0.29003 0.98973 0.50159 0.0
C816 C 0.30618 0.96246 0.49764 0.0
C817 C 0.33657 0.98312 0.4728 0.0
C818 C 0.2944 0.95232 0.47752 0.0
C819 C 0.29567 0.93458 0.47841 0.0
C820 C 0.30889 0.92667 0.49894 0.0
C821 C 0.32028 0.93677 0.52015 0.0
C822 C 0.31873 0.95445 0.52012 0.0
H823 H 0.34398 0.99168 0.45357 0.0
H824 H 0.34438 0.9807 0.499 0.0
H825 H 0.33454 0.97092 0.45733 0.0
H826 H 0.28451 0.95813 0.46021 0.0
H827 H 0.28674 0.9271 0.4617 0.0
H828 H 0.06791 0.33544 0.52567 0.0
H829 H 0.03729 0.33057 0.52605 0.0
H830 H 0.045 0.27987 0.48247 0.0
H831 H 0.07582 0.28454 0.48223 0.0
H832 H 0.02026 0.30217 0.44024 0.0
H833 H 0.00884 0.29797 0.5989 0.0
H834 H 0.02218 0.31525 0.58355 0.0
H835 H 0.02932 0.29378 0.57726 0.0
C836 C 0.06316 0.32317 0.51651 0.0
C837 C 0.07436 0.31037 0.50396 0.0
C838 C 0.04565 0.3204 0.51691 0.0
C839 C 0.03892 0.30483 0.50458 0.0
C840 C 0.04999 0.29194 0.49232 0.0
H841 H 0.92919 0.28399 0.51832 0.0
H842 H 0.96004 0.27957 0.51778 0.0
C843 C 0.06758 0.29462 0.49233 0.0
C844 C 0.02027 0.30252 0.50266 0.0
H845 H 0.98455 0.3023 0.55879 0.0
C846 C 0.01244 0.30194 0.46613 0.0
C847 C 0.01014 0.30212 0.53648 0.0
C848 C 0.018 0.30217 0.57635 0.0
C849 C 0.99467 0.3018 0.46256 0.0
C850 C 0.98453 0.30227 0.49637 0.0
C851 C 0.99237 0.30201 0.53291 0.0
C852 C 0.96585 0.30437 0.4944 0.0
C853 C 0.98682 0.30152 0.42269 0.0
C854 C 0.95896 0.31976 0.48144 0.0
C855 C 0.94143 0.32239 0.48201 0.0
C856 C 0.93037 0.30963 0.49538 0.0
C857 C 0.93731 0.29404 0.50758 0.0
C858 C 0.95493 0.2915 0.50742 0.0
H859 H 0.99601 0.29722 0.40031 0.0
H860 H 0.97555 0.29304 0.42206 0.0
H861 H 0.98255 0.31452 0.41499 0.0
H862 H 0.9672 0.32992 0.47172 0.0
H863 H 0.93656 0.33454 0.47239 0.0
H864 H 0.26214 0.36305 0.99343 0.0
H865 H 0.28525 0.34213 0.99026 0.0
H866 H 0.24893 0.30155 0.00263 0.0
H867 H 0.22586 0.32224 0.00608 0.0
H868 H 0.29194 0.31542 0.05114 0.0
H869 H 0.27865 0.28967 0.90422 0.0
H870 H 0.27156 0.31043 0.91959 0.0
H871 H 0.26057 0.29176 0.93571 0.0
C872 C 0.25908 0.34966 0.99515 0.0
C873 C 0.24218 0.34428 -5e-05 0.0
C874 C 0.27228 0.33776 0.99345 0.0
C875 C 0.26873 0.32033 0.99592 0.0
C876 C 0.25188 0.31495 0.00026 0.0
H877 H 0.31985 0.22427 0.99361 0.0
H878 H 0.30005 0.24814 0.99441 0.0
C879 C 0.23873 0.3268 0.00233 0.0
C880 C 0.28259 0.30765 0.99529 0.0
H881 H 0.29798 0.27417 0.9433 0.0
C882 C 0.29345 0.3065 0.02743 0.0
C883 C 0.28438 0.29602 0.96439 0.0
C884 C 0.27328 0.29703 0.92881 0.0
C885 C 0.30568 0.29355 0.03016 0.0
C886 C 0.30731 0.28173 -0.00056 0.0
C887 C 0.29669 0.2832 0.96688 0.0
C888 C 0.31949 0.26735 0.0009 0.0
C889 C 0.31622 0.29225 0.06657 0.0
C890 C 0.33703 0.2702 0.0044 0.0
C891 C 0.3484 0.25653 0.00434 0.0
C892 C 0.34243 0.2398 0.00021 0.0
C893 C 0.32486 0.237 0.99685 0.0
C894 C 0.31353 0.25064 0.99722 0.0
H895 H 0.31042 0.29937 0.09103 0.0
H896 H 0.31787 0.2788 0.07546 0.0
H897 H 0.32898 0.29772 0.06104 0.0
H898 H 0.34197 0.28299 0.00641 0.0
H899 H 0.36187 0.2591 0.00663 0.0
H900 H 0.77674 0.31963 0.99182 0.0
H901 H 0.75316 0.29945 0.99449 0.0
H902 H 0.71787 0.34077 0.00934 0.0
H903 H 0.74143 0.36113 0.00689 0.0
H904 H 0.72702 0.29669 0.05829 0.0
H905 H 0.70105 0.31185 0.91204 0.0
H906 H 0.72277 0.31648 0.92521 0.0
H907 H 0.70584 0.32923 0.94417 0.0
C908 C 0.76398 0.32445 0.99579 0.0
C909 C 0.76094 0.34198 0.99905 0.0
C910 C 0.75054 0.3129 0.99731 0.0
C911 C 0.73381 0.31866 0.00172 0.0
C912 C 0.73071 0.33612 0.00553 0.0
H913 H 0.63936 0.25992 0.99435 0.0
H914 H 0.66009 0.28318 0.9951 0.0
C915 C 0.74418 0.34771 0.00431 0.0
C916 C 0.71969 0.30629 0.00236 0.0
H917 H 0.68712 0.29055 0.9478 0.0
C918 C 0.71823 0.29537 0.03426 0.0
C919 C 0.70821 0.30475 0.97106 0.0
C920 C 0.70948 0.3161 0.93597 0.0
C921 C 0.70561 0.2828 0.03562 0.0
C922 C 0.69449 0.28081 0.00366 0.0
C923 C 0.6957 0.29204 0.97215 0.0
C924 C 0.68194 0.26678 0.0019 0.0
C925 C 0.70425 0.27189 0.07144 0.0
C926 C 0.68739 0.24985 0.00436 0.0
C927 C 0.67562 0.23661 0.00416 0.0
C928 C 0.65815 0.23999 0.00092 0.0
C929 C 0.65273 0.25691 0.99696 0.0
C930 C 0.66455 0.27021 0.99744 0.0
H931 H 0.7098 0.27832 0.09717 0.0
H932 H 0.69082 0.26864 0.0779 0.0
H933 H 0.71138 0.25991 0.06675 0.0
H934 H 0.70077 0.24688 0.00667 0.0
H935 H 0.68022 0.2237 0.00685 0.0
H936 H 0.77871 0.67973 0.02554 0.0
H937 H 0.75538 0.70021 0.0256 0.0
H938 H 0.72158 0.66202 0.98025 0.0
H939 H 0.74488 0.64134 0.98021 0.0
H940 H 0.721 0.69543 0.9415 0.0
H941 H 0.71359 0.69913 0.10153 0.0
H942 H 0.73495 0.70142 0.08382 0.0
H943 H 0.72405 0.68157 0.07769 0.0
C944 C 0.76633 0.67566 0.01552 0.0
C945 C 0.76363 0.65889 0.00296 0.0
C946 C 0.753 0.68736 0.01579 0.0
C947 C 0.73673 0.68255 0.00342 0.0
C948 C 0.73404 0.66592 0.99015 0.0
H949 H 0.64401 0.74344 0.02578 0.0
H950 H 0.6645 0.71994 0.02696 0.0
C951 C 0.74735 0.65414 0.99015 0.0
C952 C 0.72266 0.69502 0.00378 0.0
H953 H 0.69877 0.71974 0.0642 0.0
C954 C 0.71604 0.70066 0.96829 0.0
C955 C 0.71612 0.70168 0.03882 0.0
C956 C 0.72241 0.69558 0.07772 0.0
C957 C 0.70342 0.71324 0.96691 0.0
C958 C 0.69734 0.72036 0.00191 0.0
C959 C 0.70355 0.71431 0.03744 0.0
C960 C 0.68502 0.73456 0.00203 0.0
C961 C 0.69672 0.71893 0.92805 0.0
C962 C 0.68991 0.75058 0.9883 0.0
C963 C 0.67834 0.764 0.98787 0.0
C964 C 0.6616 0.76166 0.00107 0.0
C965 C 0.65679 0.74564 0.01535 0.0
C966 C 0.66846 0.73221 0.01604 0.0
H967 H 0.69992 0.70977 0.90467 0.0
H968 H 0.68272 0.72057 0.92907 0.0
H969 H 0.70244 0.73138 0.92053 0.0
H970 H 0.70271 0.75268 0.97785 0.0
H971 H 0.68247 0.77618 0.97673 0.0
H972 H 0.26259 0.64218 0.01212 0.0
H973 H 0.28579 0.66301 0.01493 0.0
H974 H 0.24958 0.70374 0.00353 0.0
H975 H 0.22642 0.68313 0.00048 0.0
H976 H 0.29255 0.68931 0.95429 0.0
H977 H 0.27967 0.716 0.1005 0.0
H978 H 0.27222 0.6953 0.08564 0.0
H979 H 0.26154 0.71409 0.0691 0.0
C980 C 0.25958 0.65558 0.01059 0.0
C981 C 0.24268 0.66102 0.00614 0.0
C982 C 0.27283 0.66744 0.01208 0.0
C983 C 0.26936 0.68488 0.00975 0.0
C984 C 0.2525 0.69033 0.00583 0.0
H985 H 0.3227 0.78016 0.00975 0.0
H986 H 0.30221 0.75686 0.00986 0.0
C987 C 0.23929 0.67853 0.00397 0.0
C988 C 0.2833 0.6975 0.00991 0.0
H989 H 0.29923 0.73101 0.06102 0.0
C990 C 0.29418 0.69834 0.97775 0.0
C991 C 0.28526 0.70928 0.04047 0.0
C992 C 0.27416 0.70862 0.07609 0.0
C993 C 0.30662 0.71107 0.9747 0.0
C994 C 0.30847 0.72301 0.00514 0.0
C995 C 0.29778 0.72191 0.03766 0.0
C996 C 0.32106 0.73706 0.00351 0.0
C997 C 0.31717 0.71201 0.93825 0.0
C998 C 0.33851 0.73371 -0.0001 0.0
C999 C 0.35026 0.74705 -0.00057 0.0
C1000 C 0.34479 0.76397 0.00314 0.0
C1001 C 0.32733 0.76727 0.00679 0.0
C1002 C 0.31559 0.75396 0.00695 0.0
H1003 H 0.31115 0.70502 0.91388 0.0
H1004 H 0.3192 0.72539 0.92921 0.0
H1005 H 0.32976 0.70617 0.94378 0.0
H1006 H 0.34308 0.72077 0.99811 0.0
H1007 H 0.36364 0.74408 0.99694 0.0
H1008 H 0.82057 0.72735 0.47428 0.0
H1009 H 0.80038 0.75086 0.47634 0.0
H1010 H 0.83866 0.78317 0.52669 0.0
H1011 H 0.85911 0.75964 0.52461 0.0
H1012 H 0.80446 0.78317 0.56401 0.0
H1013 H 0.80308 0.79421 0.40489 0.0
H1014 H 0.80053 0.77248 0.41984 0.0
H1015 H 0.82027 0.78319 0.42877 0.0
C1016 C 0.82474 0.73943 0.48587 0.0
C1017 C 0.84148 0.74165 0.49917 0.0
C1018 C 0.81319 0.75287 0.48685 0.0
C1019 C 0.81811 0.76877 0.50121 0.0
C1020 C 0.83468 0.77099 0.51528 0.0
H1021 H 0.75779 0.86165 0.48139 0.0
H1022 H 0.78114 0.84106 0.48096 0.0
C1023 C 0.84633 0.75755 0.51406 0.0
C1024 C 0.80578 0.78296 0.50169 0.0
H1025 H 0.78186 0.80809 0.4423 0.0
C1026 C 0.79961 0.78874 0.53746 0.0
C1027 C 0.79961 0.79025 0.46698 0.0
C1028 C 0.80628 0.78486 0.42787 0.0
C1029 C 0.78695 0.80128 0.53938 0.0
C1030 C 0.7803 0.8081 0.5046 0.0
C1031 C 0.7869 0.80273 0.46888 0.0
C1032 C 0.76618 0.82052 0.50472 0.0
C1033 C 0.78074 0.80713 0.57853 0.0
C1034 C 0.75 0.81567 0.51758 0.0
C1035 C 0.73663 0.82733 0.5176 0.0
C1036 C 0.73921 0.84409 0.50481 0.0
C1037 C 0.75541 0.84885 0.49151 0.0
C1038 C 0.76876 0.83713 0.49126 0.0
H1039 H 0.7897 0.8036 0.60207 0.0
H1040 H 0.77889 0.8211 0.57889 0.0
H1041 H 0.76831 0.80107 0.58476 0.0
H1042 H 0.74771 0.80282 0.52752 0.0
H1043 H 0.72431 0.82325 0.52798 0.0
H1044 H 0.27655 0.81848 0.49526 0.0
H1045 H 0.25327 0.79796 0.49782 0.0
H1046 H 0.21735 0.83877 0.51206 0.0
H1047 H 0.24062 0.85948 0.50973 0.0
H1048 H 0.22715 0.79454 0.56084 0.0
H1049 H 0.20094 0.80983 0.41493 0.0
H1050 H 0.22253 0.81489 0.42838 0.0
H1051 H 0.20529 0.82722 0.44734 0.0
C1052 C 0.26371 0.82312 0.49908 0.0
C1053 C 0.26042 0.84062 0.5022 0.0
C1054 C 0.25044 0.81137 0.50055 0.0
C1055 C 0.23361 0.81688 0.50472 0.0
C1056 C 0.23026 0.83431 0.50842 0.0
H1057 H 0.13946 0.75782 0.49632 0.0
H1058 H 0.16025 0.781 0.49756 0.0
C1059 C 0.24356 0.84609 0.50726 0.0
C1060 C 0.21965 0.80429 0.50517 0.0
H1061 H 0.18711 0.78844 0.45062 0.0
C1062 C 0.21834 0.79322 0.53686 0.0
C1063 C 0.20814 0.80273 0.47393 0.0
C1064 C 0.20924 0.8142 0.439 0.0
C1065 C 0.20582 0.78054 0.53811 0.0
C1066 C 0.19463 0.77857 0.50626 0.0
C1067 C 0.19573 0.78991 0.47491 0.0
C1068 C 0.18204 0.76454 0.5045 0.0
C1069 C 0.20459 0.76952 0.5738 0.0
C1070 C 0.18741 0.74758 0.50697 0.0
C1071 C 0.17559 0.73436 0.50651 0.0
C1072 C 0.15814 0.7378 0.50298 0.0
C1073 C 0.15281 0.75476 0.49915 0.0
C1074 C 0.16466 0.76801 0.49989 0.0
H1075 H 0.21017 0.77591 0.59955 0.0
H1076 H 0.1912 0.76619 0.58037 0.0
H1077 H 0.21178 0.7576 0.56885 0.0
H1078 H 0.20078 0.74455 0.5094 0.0
H1079 H 0.18013 0.72143 0.50914 0.0
H1080 H 0.27987 0.1815 0.50909 0.0
H1081 H 0.25757 0.20315 0.50767 0.0
H1082 H 0.21966 0.16414 0.49392 0.0
H1083 H 0.2419 0.14235 0.49514 0.0
H1084 H 0.23163 0.20828 0.44584 0.0
H1085 H 0.20464 0.19327 0.59102 0.0
H1086 H 0.22586 0.18706 0.57707 0.0
H1087 H 0.20787 0.17577 0.55828 0.0
C1088 C 0.26679 0.17751 0.50569 0.0
C1089 C 0.26265 0.1602 0.50234 0.0
C1090 C 0.25408 0.1899 0.50486 0.0
C1091 C 0.23698 0.18521 0.50111 0.0
C1092 C 0.23278 0.16798 0.49729 0.0
H1093 H 0.14355 0.24466 0.50759 0.0
H1094 H 0.16463 0.2218 0.50698 0.0
C1095 C 0.24551 0.15557 0.49782 0.0
C1096 C 0.22358 0.19843 0.50102 0.0
H1097 H 0.19098 0.21465 0.55478 0.0
C1098 C 0.22272 0.2097 0.46961 0.0
C1099 C 0.21195 0.20014 0.53198 0.0
C1100 C 0.21259 0.18852 0.56672 0.0
C1101 C 0.21043 0.22261 0.46817 0.0
C1102 C 0.199 0.2246 0.49957 0.0
C1103 C 0.19977 0.21318 0.5308 0.0
C1104 C 0.18626 0.23853 0.50069 0.0
C1105 C 0.20961 0.23375 0.43262 0.0
C1106 C 0.19141 0.25557 0.49825 0.0
C1107 C 0.17939 0.26863 0.4983 0.0
C1108 C 0.16197 0.26495 0.50142 0.0
C1109 C 0.15687 0.24792 0.50509 0.0
C1110 C 0.1689 0.23484 0.50473 0.0
H1111 H 0.21547 0.22746 0.40707 0.0
H1112 H 0.19629 0.23711 0.42533 0.0
H1113 H 0.21673 0.24566 0.43821 0.0
H1114 H 0.20475 0.25878 0.49624 0.0
H1115 H 0.18376 0.28163 0.49579 0.0
H1116 H 0.8606 0.24392 0.49317 0.0
H1117 H 0.83902 0.22146 0.49139 0.0
H1118 H 0.79957 0.25906 0.50271 0.0
H1119 H 0.82098 0.28155 0.50472 0.0
H1120 H 0.81253 0.21562 0.55209 0.0
H1121 H 0.78641 0.22929 0.4056 0.0
H1122 H 0.80732 0.23611 0.42051 0.0
H1123 H 0.78886 0.24724 0.43738 0.0
C1124 C 0.84732 0.24741 0.49504 0.0
C1125 C 0.84249 0.26451 0.499 0.0
C1126 C 0.83503 0.23457 0.49411 0.0
C1127 C 0.81772 0.23864 0.4966 0.0
C1128 C 0.81286 0.25569 0.50031 0.0
H1129 H 0.7225 0.18405 0.49144 0.0
H1130 H 0.74521 0.2052 0.49303 0.0
C1131 C 0.82512 0.26851 0.50157 0.0
C1132 C 0.80469 0.22507 0.49639 0.0
H1133 H 0.77151 0.20932 0.44387 0.0
C1134 C 0.80361 0.21413 0.52837 0.0
C1135 C 0.79305 0.22328 0.46549 0.0
C1136 C 0.79395 0.2345 0.43009 0.0
C1137 C 0.79088 0.20166 0.53074 0.0
C1138 C 0.7792 0.19984 0.49978 0.0
C1139 C 0.78043 0.21072 0.46762 0.0
C1140 C 0.76546 0.18689 0.50023 0.0
C1141 C 0.78973 0.19097 0.56696 0.0
C1142 C 0.76926 0.16953 0.50362 0.0
C1143 C 0.75626 0.15741 0.50309 0.0
C1144 C 0.73924 0.1624 0.49857 0.0
C1145 C 0.73547 0.17978 0.49501 0.0
C1146 C 0.74845 0.19189 0.49585 0.0
H1147 H 0.79626 0.19711 0.59185 0.0
H1148 H 0.77631 0.18857 0.5751 0.0
H1149 H 0.79599 0.17856 0.56166 0.0
H1150 H 0.7823 0.16531 0.50605 0.0
H1151 H 0.75959 0.14411 0.50553 0.0
H1152 H 0.15609 0.33568 0.42355 0.0
H1153 H 0.16545 0.34845 0.36254 0.0
H1154 H 0.12235 0.32638 0.30399 0.0
H1155 H 0.11267 0.31403 0.36563 0.0
H1156 H 0.17418 0.33002 0.29759 0.0
H1157 H 0.12208 0.37516 0.26294 0.0
H1158 H 0.12507 0.36619 0.31053 0.0
H1159 H 0.1154 0.35377 0.27297 0.0
C1160 C 0.14833 0.33405 0.39788 0.0
C1161 C 0.13337 0.32441 0.39935 0.0
C1162 C 0.15377 0.34119 0.363 0.0
C1163 C 0.14447 0.33859 0.3288 0.0
C1164 C 0.12949 0.32891 0.33019 0.0
H1165 H 0.17561 0.34719 0.09013 0.0
H1166 H 0.1639 0.33868 0.1531 0.0
C1167 C 0.12402 0.32179 0.36524 0.0
C1168 C 0.15132 0.34482 0.29136 0.0
H1169 H 0.14304 0.37096 0.21467 0.0
C1170 C 0.16735 0.33897 0.27948 0.0
C1171 C 0.14241 0.35649 0.2677 0.0
C1172 C 0.12532 0.3634 0.27914 0.0
C1173 C 0.17457 0.34431 0.24436 0.0
C1174 C 0.16559 0.35587 0.2208 0.0
C1175 C 0.14974 0.36195 0.23279 0.0
C1176 C 0.17231 0.36132 0.18291 0.0
C1177 C 0.19172 0.3376 0.23241 0.0
C1178 C 0.18083 0.37687 0.17913 0.0
C1179 C 0.18752 0.38174 0.14323 0.0
C1180 C 0.18532 0.37129 0.11068 0.0
C1181 C 0.17695 0.35566 0.11469 0.0
C1182 C 0.17039 0.35075 0.15054 0.0
H1183 H 0.19774 0.32985 0.25555 0.0
H1184 H 0.19029 0.32961 0.20608 0.0
H1185 H 0.20029 0.3483 0.22492 0.0
H1186 H 0.18247 0.38511 0.20401 0.0
H1187 H 0.19425 0.39368 0.14076 0.0
H1188 H 0.66858 0.1552 0.41894 0.0
H1189 H 0.65552 0.16353 0.35751 0.0
H1190 H 0.67841 0.1202 0.30154 0.0
H1191 H 0.69091 0.11146 0.36374 0.0
H1192 H 0.67284 0.17224 0.29291 0.0
H1193 H 0.63026 0.11789 0.25985 0.0
H1194 H 0.63943 0.12132 0.30707 0.0
H1195 H 0.65196 0.1121 0.26909 0.0
C1196 C 0.67031 0.14715 0.39377 0.0
C1197 C 0.68017 0.13236 0.39616 0.0
C1198 C 0.66302 0.15201 0.35863 0.0
C1199 C 0.66573 0.14234 0.32501 0.0
C1200 C 0.67573 0.12759 0.32729 0.0
H1201 H 0.65516 0.17204 0.08542 0.0
H1202 H 0.66406 0.16003 0.14781 0.0
C1203 C 0.68296 0.12267 0.36265 0.0
C1204 C 0.65926 0.1486 0.28723 0.0
H1205 H 0.63375 0.13855 0.21048 0.0
C1206 C 0.66427 0.16485 0.27495 0.0
C1207 C 0.64811 0.13896 0.26371 0.0
C1208 C 0.64199 0.12163 0.2756 0.0
C1209 C 0.65856 0.17162 0.23969 0.0
C1210 C 0.64752 0.16194 0.21631 0.0
C1211 C 0.64235 0.14581 0.22853 0.0
C1212 C 0.6416 0.16831 0.17852 0.0
C1213 C 0.66433 0.18907 0.2274 0.0
C1214 C 0.62601 0.1768 0.17544 0.0
C1215 C 0.6209 0.18362 0.13985 0.0
C1216 C 0.63118 0.18162 0.10696 0.0
C1217 C 0.6468 0.17319 0.11023 0.0
C1218 C 0.65193 0.16646 0.14575 0.0
H1219 H 0.67212 0.19543 0.25 0.0
H1220 H 0.67197 0.18806 0.20045 0.0
H1221 H 0.65314 0.19715 0.22083 0.0
H1222 H 0.61798 0.17842 0.20067 0.0
H1223 H 0.60897 0.19042 0.13796 0.0
H1224 H 0.89193 0.6927 0.3624 0.0
H1225 H 0.88396 0.68063 0.299 0.0
H1226 H 0.83676 0.66286 0.34763 0.0
H1227 H 0.84467 0.67485 0.41072 0.0
H1228 H 0.86981 0.64147 0.28807 0.0
H1229 H 0.82903 0.69602 0.24456 0.0
H1230 H 0.84709 0.69859 0.27639 0.0
H1231 H 0.82813 0.68868 0.29404 0.0
C1232 C 0.87994 0.68609 0.35938 0.0
C1233 C 0.8691 0.68419 0.39134 0.0
C1234 C 0.87543 0.67923 0.32341 0.0
C1235 C 0.85984 0.67083 0.31897 0.0
C1236 C 0.84887 0.66924 0.35072 0.0
H1237 H 0.8141 0.60988 0.13658 0.0
H1238 H 0.82635 0.61985 0.19811 0.0
C1239 C 0.85343 0.67597 0.38663 0.0
C1240 C 0.85472 0.66398 0.28099 0.0
H1241 H 0.82916 0.67213 0.2035 0.0
C1242 C 0.8609 0.64809 0.26953 0.0
C1243 C 0.84326 0.67283 0.25694 0.0
C1244 C 0.83646 0.69003 0.26827 0.0
C1245 C 0.85561 0.64058 0.23466 0.0
C1246 C 0.844 0.64934 0.21058 0.0
C1247 C 0.83808 0.66542 0.22193 0.0
C1248 C 0.83788 0.64232 0.17323 0.0
C1249 C 0.86258 0.62339 0.224 0.0
C1250 C 0.84011 0.65171 0.13905 0.0
C1251 C 0.83298 0.64614 0.1043 0.0
C1252 C 0.82379 0.63091 0.10288 0.0
C1253 C 0.82154 0.62144 0.13694 0.0
C1254 C 0.8286 0.62708 0.17191 0.0
H1255 H 0.87478 0.62074 0.23899 0.0
H1256 H 0.85333 0.61347 0.23271 0.0
H1257 H 0.86457 0.62242 0.19237 0.0
H1258 H 0.84705 0.66359 0.13945 0.0
H1259 H 0.83429 0.65399 0.07868 0.0
H1260 H 0.30911 0.89057 0.36353 0.0
H1261 H 0.32156 0.88267 0.30049 0.0
H1262 H 0.34053 0.83621 0.35042 0.0
H1263 H 0.32816 0.84406 0.41321 0.0
H1264 H 0.36111 0.86948 0.29 0.0
H1265 H 0.30756 0.82724 0.24718 0.0
H1266 H 0.3045 0.84538 0.27854 0.0
H1267 H 0.31492 0.82679 0.2967 0.0
C1268 C 0.31608 0.87877 0.36091 0.0
C1269 C 0.31819 0.86813 0.39315 0.0
C1270 C 0.32315 0.87429 0.32512 0.0
C1271 C 0.33198 0.85892 0.32111 0.0
C1272 C 0.33382 0.84816 0.35316 0.0
H1273 H 0.39336 0.81432 0.13768 0.0
H1274 H 0.3833 0.8262 0.1995 0.0
C1275 C 0.32688 0.85269 0.38891 0.0
C1276 C 0.33898 0.85382 0.2832 0.0
H1277 H 0.33124 0.82816 0.2056 0.0
C1278 C 0.35469 0.86039 0.27155 0.0
C1279 C 0.33036 0.84216 0.2592 0.0
C1280 C 0.31335 0.83495 0.2707 0.0
C1281 C 0.36223 0.85532 0.23654 0.0
C1282 C 0.35368 0.84354 0.21247 0.0
C1283 C 0.33779 0.8372 0.22402 0.0
C1284 C 0.36075 0.83768 0.17491 0.0
C1285 C 0.37917 0.86275 0.22552 0.0
C1286 C 0.35135 0.84004 0.14077 0.0
C1287 C 0.357 0.83316 0.1058 0.0
C1288 C 0.37229 0.82405 0.10416 0.0
C1289 C 0.38175 0.82169 0.1382 0.0
C1290 C 0.37606 0.82854 0.17335 0.0
H1291 H 0.38934 0.8535 0.23255 0.0
H1292 H 0.37965 0.86534 0.19405 0.0
H1293 H 0.38185 0.87471 0.24148 0.0
H1294 H 0.33943 0.84689 0.14135 0.0
H1295 H 0.34917 0.83456 0.08018 0.0
H1296 H 0.15413 0.66791 0.58169 0.0
H1297 H 0.16425 0.65593 0.6429 0.0
H1298 H 0.12077 0.677 0.70185 0.0
H1299 H 0.11032 0.68852 0.64002 0.0
H1300 H 0.17282 0.67487 0.7069 0.0
H1301 H 0.12215 0.62857 0.74428 0.0
H1302 H 0.12442 0.6376 0.69655 0.0
H1303 H 0.11479 0.64976 0.7346 0.0
C1304 C 0.14646 0.66947 0.60752 0.0
C1305 C 0.13116 0.67857 0.60611 0.0
C1306 C 0.15234 0.6628 0.6425 0.0
C1307 C 0.14315 0.66535 0.67686 0.0
C1308 C 0.12784 0.67451 0.67554 0.0
H1309 H 0.17592 0.6584 0.91496 0.0
H1310 H 0.1639 0.66666 0.85209 0.0
C1311 C 0.12193 0.68115 0.64038 0.0
C1312 C 0.15037 0.65956 0.7143 0.0
H1313 H 0.14322 0.63363 0.7919 0.0
C1314 C 0.16633 0.66586 0.72549 0.0
C1315 C 0.1419 0.6478 0.73856 0.0
C1316 C 0.1249 0.6404 0.72791 0.0
C1317 C 0.1739 0.66087 0.76049 0.0
C1318 C 0.16536 0.64922 0.78464 0.0
C1319 C 0.14958 0.64271 0.77335 0.0
C1320 C 0.17247 0.64405 0.82237 0.0
C1321 C 0.19097 0.66804 0.77166 0.0
C1322 C 0.18121 0.62862 0.82615 0.0
C1323 C 0.18808 0.62391 0.86198 0.0
C1324 C 0.18584 0.63438 0.89448 0.0
C1325 C 0.17731 0.64992 0.89043 0.0
C1326 C 0.17057 0.65468 0.85464 0.0
H1327 H 0.19664 0.67583 0.74815 0.0
H1328 H 0.18955 0.67608 0.79789 0.0
H1329 H 0.19985 0.65757 0.77902 0.0
H1330 H 0.18283 0.62034 0.80136 0.0
H1331 H 0.19493 0.61204 0.86448 0.0
H1332 H 0.33289 0.15236 0.58117 0.0
H1333 H 0.34592 0.16103 0.64238 0.0
H1334 H 0.32302 0.118 0.69951 0.0
H1335 H 0.31056 0.10891 0.63752 0.0
H1336 H 0.32875 0.17029 0.70597 0.0
H1337 H 0.37088 0.11609 0.74198 0.0
H1338 H 0.361 0.11847 0.69515 0.0
H1339 H 0.34908 0.11008 0.73513 0.0
C1340 C 0.33116 0.14444 0.60654 0.0
C1341 C 0.32131 0.12964 0.60453 0.0
C1342 C 0.33844 0.14949 0.64156 0.0
C1343 C 0.33569 0.14003 0.67547 0.0
C1344 C 0.32571 0.12525 0.67356 0.0
H1345 H 0.34433 0.17104 0.9144 0.0
H1346 H 0.33604 0.15878 0.85179 0.0
C1347 C 0.31852 0.12012 0.63831 0.0
C1348 C 0.34204 0.14656 0.71314 0.0
H1349 H 0.36677 0.13686 0.79145 0.0
C1350 C 0.33711 0.16296 0.72456 0.0
C1351 C 0.35291 0.137 0.73752 0.0
C1352 C 0.35891 0.11947 0.72675 0.0
C1353 C 0.34257 0.16995 0.75981 0.0
C1354 C 0.35328 0.16033 0.78411 0.0
C1355 C 0.35842 0.14407 0.77272 0.0
C1356 C 0.3588 0.16691 0.82207 0.0
C1357 C 0.33685 0.18754 0.77116 0.0
C1358 C 0.37435 0.17545 0.82578 0.0
C1359 C 0.37909 0.18242 0.86149 0.0
C1360 C 0.36851 0.18054 0.89392 0.0
C1361 C 0.35292 0.17211 0.88999 0.0
C1362 C 0.34814 0.16523 0.85434 0.0
H1363 H 0.32933 0.19379 0.74795 0.0
H1364 H 0.32896 0.18679 0.79778 0.0
H1365 H 0.34805 0.19556 0.77795 0.0
H1366 H 0.38263 0.17696 0.80095 0.0
H1367 H 0.39101 0.18921 0.86386 0.0
H1368 H 0.81026 0.39148 0.86091 0.0
H1369 H 0.82256 0.38344 0.79781 0.0
H1370 H 0.84105 0.33676 0.84765 0.0
H1371 H 0.82881 0.34475 0.91048 0.0
H1372 H 0.86204 0.36948 0.78715 0.0
H1373 H 0.80748 0.32848 0.74473 0.0
H1374 H 0.80486 0.34672 0.77597 0.0
H1375 H 0.81487 0.32793 0.79422 0.0
C1376 C 0.81711 0.37961 0.85825 0.0
C1377 C 0.81911 0.36893 0.89046 0.0
C1378 C 0.82409 0.37505 0.82245 0.0
C1379 C 0.83273 0.35958 0.81841 0.0
C1380 C 0.83449 0.34879 0.85044 0.0
H1381 H 0.89265 0.31336 0.63487 0.0
H1382 H 0.88303 0.32561 0.69667 0.0
C1383 C 0.82762 0.35339 0.8862 0.0
C1384 C 0.83954 0.35435 0.78046 0.0
H1385 H 0.8311 0.32888 0.70295 0.0
C1386 C 0.85539 0.36055 0.76873 0.0
C1387 C 0.83062 0.3429 0.75653 0.0
C1388 C 0.81346 0.33608 0.76817 0.0
C1389 C 0.86276 0.35531 0.73368 0.0
C1390 C 0.8539 0.34373 0.70968 0.0
C1391 C 0.83788 0.33777 0.72132 0.0
C1392 C 0.86078 0.33769 0.67213 0.0
C1393 C 0.87985 0.36233 0.72253 0.0
C1394 C 0.8514 0.34027 0.63805 0.0
C1395 C 0.8568 0.33317 0.60311 0.0
C1396 C 0.87181 0.32362 0.60145 0.0
C1397 C 0.88126 0.32106 0.63542 0.0
C1398 C 0.87583 0.32812 0.67055 0.0
H1399 H 0.88288 0.37418 0.7386 0.0
H1400 H 0.88981 0.35281 0.72927 0.0
H1401 H 0.8803 0.36499 0.69109 0.0
H1402 H 0.83967 0.34744 0.63867 0.0
H1403 H 0.84896 0.33474 0.57754 0.0
H1404 H 0.61145 0.81034 0.8643 0.0
H1405 H 0.61964 0.82259 0.80123 0.0
H1406 H 0.66601 0.84147 0.85182 0.0
H1407 H 0.6579 0.82927 0.91457 0.0
H1408 H 0.63397 0.86257 0.79164 0.0
H1409 H 0.67414 0.80756 0.74812 0.0
H1410 H 0.65565 0.80499 0.77859 0.0
H1411 H 0.67445 0.8146 0.79789 0.0
C1412 C 0.62329 0.81725 0.8618 0.0
C1413 C 0.63384 0.81938 0.8942 0.0
C1414 C 0.62794 0.82421 0.82602 0.0
C1415 C 0.64336 0.83296 0.82222 0.0
C1416 C 0.65402 0.83483 0.85443 0.0
H1417 H 0.68981 0.89337 0.63941 0.0
H1418 H 0.67771 0.88353 0.7012 0.0
C1419 C 0.64934 0.82798 0.89014 0.0
C1420 C 0.64866 0.83982 0.78437 0.0
H1421 H 0.67401 0.8313 0.70672 0.0
C1422 C 0.64277 0.85584 0.77305 0.0
C1423 C 0.65995 0.83081 0.76024 0.0
C1424 C 0.66646 0.81349 0.77149 0.0
C1425 C 0.64815 0.86328 0.73818 0.0
C1426 C 0.65958 0.85434 0.71397 0.0
C1427 C 0.66524 0.83816 0.72524 0.0
C1428 C 0.66571 0.86126 0.67651 0.0
C1429 C 0.6414 0.88055 0.7275 0.0
C1430 C 0.66319 0.85192 0.64236 0.0
C1431 C 0.67023 0.85742 0.60745 0.0
C1432 C 0.67964 0.87252 0.60585 0.0
C1433 C 0.68221 0.88191 0.6399 0.0
C1434 C 0.67522 0.87636 0.67503 0.0
H1435 H 0.62943 0.88353 0.74311 0.0
H1436 H 0.65094 0.89034 0.73533 0.0
H1437 H 0.63906 0.88136 0.69597 0.0
H1438 H 0.65606 0.84016 0.64287 0.0
H1439 H 0.66868 0.84961 0.58183 0.0
H1440 H 0.86817 0.65144 0.59478 0.0
H1441 H 0.85682 0.64551 0.65896 0.0
H1442 H 0.84476 0.69849 0.67409 0.0
H1443 H 0.85631 0.7047 0.60963 0.0
H1444 H 0.86027 0.68407 0.73844 0.0
H1445 H 0.80669 0.64411 0.68909 0.0
H1446 H 0.82663 0.63716 0.66959 0.0
H1447 H 0.81845 0.65773 0.65664 0.0
C1448 C 0.86316 0.66191 0.61161 0.0
C1449 C 0.86311 0.67856 0.59681 0.0
C1450 C 0.85652 0.65844 0.64824 0.0
C1451 C 0.84956 0.67148 0.67085 0.0
C1452 C 0.8499 0.68821 0.65683 0.0
H1453 H 0.79767 0.64482 0.88941 0.0
H1454 H 0.80284 0.65669 0.82464 0.0
C1455 C 0.85656 0.69173 0.62005 0.0
C1456 C 0.84251 0.66755 0.70964 0.0
H1457 H 0.8148 0.64112 0.7561 0.0
C1458 C 0.85015 0.67489 0.74232 0.0
C1459 C 0.82907 0.65581 0.71464 0.0
C1460 C 0.81961 0.64839 0.68059 0.0
C1461 C 0.84541 0.67001 0.77991 0.0
C1462 C 0.83292 0.65727 0.78482 0.0
C1463 C 0.82454 0.65071 0.75223 0.0
C1464 C 0.8294 0.6497 0.82328 0.0
C1465 C 0.85406 0.67831 0.81404 0.0
C1466 C 0.84246 0.64137 0.84324 0.0
C1467 C 0.83957 0.63457 0.87993 0.0
C1468 C 0.82348 0.63583 0.89749 0.0
C1469 C 0.8102 0.64363 0.87678 0.0
C1470 C 0.81314 0.65047 0.83987 0.0
H1471 H 0.85908 0.69105 0.80631 0.0
H1472 H 0.84522 0.67967 0.83894 0.0
H1473 H 0.86493 0.67034 0.82335 0.0
H1474 H 0.85498 0.64022 0.83049 0.0
H1475 H 0.85009 0.62851 0.89471 0.0
H1476 H 0.34991 0.86997 0.59732 0.0
H1477 H 0.3561 0.85879 0.66148 0.0
H1478 H 0.30353 0.84498 0.67616 0.0
H1479 H 0.29705 0.85633 0.61155 0.0
H1480 H 0.31782 0.86083 0.7413 0.0
H1481 H 0.35882 0.80839 0.68998 0.0
H1482 H 0.36511 0.82858 0.67061 0.0
H1483 H 0.3447 0.81988 0.65812 0.0
C1484 C 0.33957 0.86461 0.61404 0.0
C1485 C 0.32296 0.86398 0.59901 0.0
C1486 C 0.3432 0.85809 0.65068 0.0
C1487 C 0.33038 0.85067 0.67315 0.0
C1488 C 0.31366 0.85048 0.65901 0.0
H1489 H 0.35916 0.79835 0.88974 0.0
H1490 H 0.34692 0.80367 0.82542 0.0
C1491 C 0.30997 0.85704 0.62216 0.0
C1492 C 0.33458 0.84355 0.71175 0.0
H1493 H 0.36189 0.8163 0.75705 0.0
C1494 C 0.32725 0.85091 0.74477 0.0
C1495 C 0.34666 0.83038 0.71623 0.0
C1496 C 0.35415 0.82122 0.68182 0.0
C1497 C 0.33246 0.84617 0.78217 0.0
C1498 C 0.3455 0.83396 0.78654 0.0
C1499 C 0.35207 0.82584 0.75362 0.0
C1500 C 0.35331 0.83039 0.8248 0.0
C1501 C 0.32414 0.85451 0.81667 0.0
C1502 C 0.36143 0.8435 0.84506 0.0
C1503 C 0.36846 0.84052 0.88152 0.0
C1504 C 0.36764 0.8243 0.89857 0.0
C1505 C 0.36003 0.81099 0.87754 0.0
C1506 C 0.35297 0.81401 0.84087 0.0
H1507 H 0.31127 0.85931 0.80934 0.0
H1508 H 0.32308 0.84555 0.8414 0.0
H1509 H 0.33194 0.8655 0.82604 0.0
H1510 H 0.36224 0.85612 0.83272 0.0
H1511 H 0.37432 0.85107 0.89656 0.0
H1512 H 0.14571 0.29924 0.61507 0.0
H1513 H 0.15658 0.30508 0.68046 0.0
H1514 H 0.13936 0.35688 0.67141 0.0
H1515 H 0.12861 0.35132 0.60661 0.0
H1516 H 0.1738 0.35318 0.69506 0.0
H1517 H 0.12922 0.31362 0.78198 0.0
H1518 H 0.14 0.30342 0.74229 0.0
H1519 H 0.12472 0.31976 0.7326 0.0
C1520 C 0.14404 0.31181 0.62721 0.0
C1521 C 0.13629 0.32479 0.60544 0.0
C1522 C 0.15026 0.31512 0.66456 0.0
C1523 C 0.14874 0.33142 0.6807 0.0
C1524 C 0.14071 0.34424 0.65939 0.0
H1525 H 0.1525 0.37421 0.90618 0.0
H1526 H 0.14618 0.3631 0.84188 0.0
C1527 C 0.13453 0.34099 0.6223 0.0
C1528 C 0.15583 0.33554 0.71934 0.0
H1529 H 0.14951 0.32958 0.81626 0.0
C1530 C 0.16865 0.34789 0.72162 0.0
C1531 C 0.14898 0.32868 0.75379 0.0
C1532 C 0.13489 0.31571 0.75287 0.0
C1533 C 0.17446 0.35397 0.75751 0.0
C1534 C 0.1674 0.34733 0.792 0.0
C1535 C 0.15493 0.3346 0.78972 0.0
C1536 C 0.17174 0.35434 0.83063 0.0
C1537 C 0.18753 0.36798 0.75819 0.0
C1538 C 0.18828 0.35323 0.84558 0.0
C1539 C 0.19201 0.35971 0.88242 0.0
C1540 C 0.17921 0.36729 0.90507 0.0
C1541 C 0.1627 0.36848 0.88968 0.0
C1542 C 0.15902 0.36207 0.85293 0.0
H1543 H 0.18915 0.37398 0.72927 0.0
H1544 H 0.18393 0.37796 0.77941 0.0
H1545 H 0.19996 0.36266 0.76718 0.0
H1546 H 0.19823 0.34709 0.82904 0.0
H1547 H 0.20482 0.35841 0.89348 0.0
H1548 H 0.64149 0.2048 0.88941 0.0
H1549 H 0.65307 0.19939 0.82457 0.0
H1550 H 0.64331 0.14588 0.83851 0.0
H1551 H 0.63191 0.15102 0.90299 0.0
H1552 H 0.67652 0.15372 0.81181 0.0
H1553 H 0.62602 0.18601 0.72614 0.0
H1554 H 0.63597 0.19822 0.76393 0.0
H1555 H 0.62312 0.1802 0.77633 0.0
C1556 C 0.64165 0.1919 0.87854 0.0
C1557 C 0.6357 0.17837 0.9015 0.0
C1558 C 0.64827 0.18885 0.84149 0.0
C1559 C 0.64899 0.17224 0.82678 0.0
C1560 C 0.64292 0.15878 0.84941 0.0
H1561 H 0.65383 0.12723 0.60546 0.0
H1562 H 0.648 0.13832 0.66989 0.0
C1563 C 0.63632 0.16179 0.88627 0.0
C1564 C 0.65612 0.1686 0.78794 0.0
H1565 H 0.64786 0.1726 0.69129 0.0
C1566 C 0.67041 0.158 0.78537 0.0
C1567 C 0.64803 0.17417 0.75366 0.0
C1568 C 0.63237 0.18519 0.75485 0.0
C1569 C 0.6765 0.15231 0.74937 0.0
C1570 C 0.66816 0.15756 0.71512 0.0
C1571 C 0.65424 0.16866 0.71766 0.0
C1572 C 0.67249 0.15038 0.67668 0.0
C1573 C 0.69124 0.14009 0.74834 0.0
C1574 C 0.68834 0.15328 0.65926 0.0
C1575 C 0.69182 0.14682 0.62223 0.0
C1576 C 0.67941 0.13749 0.60199 0.0
C1577 C 0.66368 0.13441 0.62002 0.0
C1578 C 0.66028 0.14078 0.65688 0.0
H1579 H 0.69434 0.13503 0.77756 0.0
H1580 H 0.68845 0.12927 0.72871 0.0
H1581 H 0.70263 0.14673 0.737 0.0
H1582 H 0.69787 0.16084 0.67391 0.0
H1583 H 0.704 0.14955 0.60905 0.0
H1584 H 0.85834 0.29805 0.38718 0.0
H1585 H 0.84673 0.30349 0.32235 0.0
H1586 H 0.86347 0.35552 0.32931 0.0
H1587 H 0.87492 0.35036 0.39372 0.0
H1588 H 0.82913 0.35157 0.30663 0.0
H1589 H 0.87314 0.31127 0.21998 0.0
H1590 H 0.86246 0.30125 0.26001 0.0
H1591 H 0.87782 0.31759 0.26915 0.0
C1592 C 0.85974 0.31059 0.37471 0.0
C1593 C 0.86759 0.32375 0.39576 0.0
C1594 C 0.85309 0.31367 0.33768 0.0
C1595 C 0.85428 0.3299 0.32108 0.0
C1596 C 0.86236 0.34292 0.3417 0.0
H1597 H 0.85028 0.37144 0.09582 0.0
H1598 H 0.85627 0.36053 0.16034 0.0
C1599 C 0.86896 0.3399 0.37853 0.0
C1600 C 0.84691 0.33369 0.28254 0.0
H1601 H 0.85257 0.32685 0.18572 0.0
C1602 C 0.83408 0.34604 0.28014 0.0
C1603 C 0.85349 0.32647 0.24818 0.0
C1604 C 0.86756 0.31349 0.24914 0.0
C1605 C 0.82806 0.3518 0.24417 0.0
C1606 C 0.83491 0.34486 0.20978 0.0
C1607 C 0.84731 0.33209 0.21222 0.0
C1608 C 0.83067 0.3518 0.17106 0.0
C1609 C 0.81503 0.36585 0.24322 0.0
C1610 C 0.81418 0.35067 0.15576 0.0
C1611 C 0.81063 0.35703 0.11869 0.0
C1612 C 0.82356 0.36451 0.09627 0.0
C1613 C 0.83999 0.36576 0.11209 0.0
C1614 C 0.84348 0.35946 0.149 0.0
H1615 H 0.81329 0.37185 0.2721 0.0
H1616 H 0.81877 0.37581 0.22209 0.0
H1617 H 0.80263 0.36057 0.23385 0.0
H1618 H 0.80415 0.3446 0.17218 0.0
H1619 H 0.79788 0.35572 0.10729 0.0
H1620 H 0.63292 0.85127 0.09836 0.0
H1621 H 0.6441 0.8573 0.16265 0.0
H1622 H 0.65751 0.80461 0.17698 0.0
H1623 H 0.64616 0.7983 0.11234 0.0
H1624 H 0.64167 0.81876 0.24193 0.0
H1625 H 0.69442 0.85964 0.19177 0.0
H1626 H 0.67428 0.86613 0.17246 0.0
H1627 H 0.68288 0.84572 0.15955 0.0
C1628 C 0.63819 0.84088 0.11504 0.0
C1629 C 0.6387 0.82428 0.09993 0.0
C1630 C 0.64471 0.84441 0.15175 0.0
C1631 C 0.65201 0.83149 0.17415 0.0
C1632 C 0.6521 0.8148 0.15988 0.0
H1633 H 0.70466 0.85873 0.39119 0.0
H1634 H 0.69911 0.84683 0.32664 0.0
C1635 C 0.64555 0.81121 0.123 0.0
C1636 C 0.65909 0.83554 0.21286 0.0
H1637 H 0.68657 0.86237 0.2589 0.0
C1638 C 0.65166 0.8281 0.24566 0.0
C1639 C 0.67236 0.84749 0.21766 0.0
C1640 C 0.68158 0.85508 0.18346 0.0
C1641 C 0.65645 0.83305 0.28319 0.0
C1642 C 0.66879 0.84595 0.28792 0.0
C1643 C 0.67694 0.85265 0.25519 0.0
C1644 C 0.67246 0.85348 0.32639 0.0
C1645 C 0.64805 0.8246 0.31746 0.0
C1646 C 0.65945 0.86161 0.34695 0.0
C1647 C 0.66255 0.86843 0.38355 0.0
C1648 C 0.6788 0.8674 0.40042 0.0
C1649 C 0.692 0.85975 0.37913 0.0
C1650 C 0.68885 0.85289 0.34233 0.0
H1651 H 0.64312 0.81182 0.30976 0.0
H1652 H 0.65702 0.82331 0.34213 0.0
H1653 H 0.63714 0.83246 0.3271 0.0
H1654 H 0.64682 0.8626 0.33472 0.0
H1655 H 0.65208 0.87433 0.39881 0.0
H1656 H 0.14268 0.7028 0.39019 0.0
H1657 H 0.15399 0.6971 0.3252 0.0
H1658 H 0.13868 0.64472 0.33505 0.0
H1659 H 0.12753 0.65015 0.39962 0.0
H1660 H 0.17267 0.64925 0.31108 0.0
H1661 H 0.12733 0.6878 0.22396 0.0
H1662 H 0.13794 0.6985 0.26315 0.0
H1663 H 0.12309 0.68183 0.27356 0.0
C1664 C 0.14153 0.69012 0.37833 0.0
C1665 C 0.13417 0.67695 0.40024 0.0
C1666 C 0.14799 0.68689 0.34119 0.0
C1667 C 0.14712 0.67049 0.32534 0.0
C1668 C 0.13953 0.65745 0.34683 0.0
H1669 H 0.15287 0.62912 0.09868 0.0
H1670 H 0.1461 0.63943 0.16337 0.0
C1671 C 0.1331 0.66063 0.38377 0.0
C1672 C 0.15439 0.66656 0.28676 0.0
H1673 H 0.14847 0.6729 0.18983 0.0
C1674 C 0.16752 0.65453 0.28452 0.0
C1675 C 0.14755 0.67342 0.25228 0.0
C1676 C 0.13312 0.68602 0.25305 0.0
C1677 C 0.17368 0.64881 0.24863 0.0
C1678 C 0.16666 0.65548 0.21413 0.0
C1679 C 0.15386 0.66786 0.21639 0.0
C1680 C 0.17136 0.6488 0.17541 0.0
C1681 C 0.1871 0.63514 0.24791 0.0
C1682 C 0.18792 0.6505 0.1608 0.0
C1683 C 0.19192 0.64448 0.12368 0.0
C1684 C 0.17938 0.6368 0.10047 0.0
C1685 C 0.16288 0.63497 0.1156 0.0
C1686 C 0.15894 0.64092 0.15259 0.0
H1687 H 0.18876 0.62906 0.27673 0.0
H1688 H 0.18384 0.62517 0.22639 0.0
H1689 H 0.19943 0.64082 0.23929 0.0
H1690 H 0.19765 0.65676 0.17777 0.0
H1691 H 0.20471 0.64625 0.11284 0.0
H1692 H 0.34854 0.12827 0.39754 0.0
H1693 H 0.3539 0.14022 0.33376 0.0
H1694 H 0.30171 0.15633 0.32579 0.0
H1695 H 0.29606 0.14422 0.39012 0.0
H1696 H 0.3142 0.14095 0.25782 0.0
H1697 H 0.35801 0.191 0.3094 0.0
H1698 H 0.36385 0.17032 0.32671 0.0
H1699 H 0.34399 0.17957 0.3416 0.0
C1700 C 0.33811 0.1343 0.3824 0.0
C1701 C 0.32186 0.13537 0.39924 0.0
C1702 C 0.34127 0.14126 0.34596 0.0
C1703 C 0.32833 0.14954 0.32551 0.0
C1704 C 0.31193 0.15016 0.34141 0.0
H1705 H 0.35672 0.20361 0.11095 0.0
H1706 H 0.34481 0.19797 0.17543 0.0
C1707 C 0.30871 0.14317 0.37807 0.0
C1708 C 0.3321 0.15713 0.28715 0.0
H1709 H 0.35982 0.18385 0.2416 0.0
C1710 C 0.32396 0.15053 0.25427 0.0
C1711 C 0.34462 0.16987 0.28261 0.0
C1712 C 0.353 0.17824 0.31701 0.0
C1713 C 0.3288 0.15556 0.21682 0.0
C1714 C 0.34229 0.16727 0.21224 0.0
C1715 C 0.34965 0.17469 0.24515 0.0
C1716 C 0.34975 0.17096 0.1737 0.0
C1717 C 0.31963 0.14805 0.18246 0.0
C1718 C 0.35695 0.15775 0.15201 0.0
C1719 C 0.36379 0.1609 0.11544 0.0
C1720 C 0.36371 0.1774 0.09972 0.0
C1721 C 0.357 0.19076 0.12211 0.0
C1722 C 0.35013 0.18756 0.15888 0.0
H1723 H 0.30663 0.14381 0.19044 0.0
H1724 H 0.31868 0.15733 0.15832 0.0
H1725 H 0.32674 0.13679 0.17194 0.0
H1726 H 0.35722 0.14493 0.16336 0.0
H1727 H 0.36895 0.15029 0.09932 0.0
loop_
_geom_bond_atom_site_label_1
_geom_bond_atom_site_label_2
_geom_bond_distance
_geom_bond_site_symmetry_2
_ccdc_geom_bond_type
Mn0 O5 2.095 1_554 S
Mn0 O15 2.161 1_554 S
Mn0 O16 2.297 . S
Mn0 O24 2.385 . S
Mn0 O25 2.209 . S
Mn0 O26 2.094 . S
Mn1 O6 2.121 1_554 S
Mn1 N8 2.257 . S
Mn1 N17 2.282 . S
Mn1 O25 2.215 . S
Mn1 O27 2.117 . S
C2 O24 1.234 . S
C2 O25 1.283 . S
C3 O15 1.280 1_554 S
C3 O16 1.236 . S
C4 O26 1.240 . S
C4 O27 1.264 . S
O5 Mn0 2.095 1_556 S
O5 C14 1.250 . S
O6 Mn1 2.121 1_556 S
O6 C14 1.258 . S
C7 N8 1.326 1_556 S
C7 C11 1.460 1_556 S
C7 H13 0.929 . S
N8 Mn1 2.257 . S
N8 C7 1.326 1_554 S
N8 C12 1.362 . S
C9 C10 1.258 . S
C9 C12 1.431 . S
C9 C29 1.449 . S
C10 C9 1.258 . S
C10 C11 1.477 . S
C10 H30 0.931 . S
C11 C7 1.460 1_554 S
C11 C10 1.477 . S
C11 H31 0.930 1_554 S
C12 N8 1.362 . S
C12 C9 1.431 . S
C12 C22 1.476 . S
H13 C7 0.929 . S
C14 O5 1.250 . S
C14 O6 1.258 . S
O15 Mn0 2.161 1_556 S
O15 C3 1.280 1_556 S
O16 Mn0 2.297 . S
O16 C3 1.236 . S
N17 Mn1 2.282 . S
N17 C18 1.328 . S
N17 C22 1.318 . S
C18 N17 1.328 . S
C18 C19 1.457 . S
C18 H23 0.929 . S
C19 C18 1.457 . S
C19 C20 1.291 . S
C19 H32 0.931 . S
C20 C19 1.291 . S
C20 C21 1.373 . S
C20 H33 0.929 . S
C21 C20 1.373 . S
C21 C22 1.396 . S
C21 C28 1.403 . S
C22 C12 1.476 . S
C22 N17 1.318 . S
C22 C21 1.396 . S
H23 C18 0.929 . S
O24 Mn0 2.385 . S
O24 C2 1.234 . S
O25 Mn0 2.209 . S
O25 Mn1 2.215 . S
O25 C2 1.283 . S
O26 Mn0 2.094 . S
O26 C4 1.240 . S
O27 Mn1 2.117 . S
O27 C4 1.264 . S
C28 C21 1.403 . S
C28 C29 1.399 . S
C28 H34 0.929 . S
C29 C9 1.449 . S
C29 C28 1.399 . S
C29 H35 0.930 . S
H30 C10 0.931 . S
H31 C11 0.930 1_556 S
H32 C19 0.931 . S
H33 C20 0.929 . S
H34 C28 0.929 . S
H35 C29 0.930 . S
Mn36 O41 2.095 1_554 S
Mn36 O51 2.161 1_554 S
Mn36 O52 2.297 . S
Mn36 O60 2.385 . S
Mn36 O61 2.209 . S
Mn36 O62 2.094 . S
Mn37 O42 2.121 1_554 S
Mn37 N44 2.257 . S
Mn37 N53 2.282 . S
Mn37 O61 2.215 . S
Mn37 O63 2.117 . S
C38 O60 1.234 . S
C38 O61 1.283 . S
C39 O51 1.280 1_554 S
C39 O52 1.236 . S
C40 O62 1.240 . S
C40 O63 1.264 . S
O41 Mn36 2.095 1_556 S
O41 C50 1.250 . S
O42 Mn37 2.121 1_556 S
O42 C50 1.258 . S
C43 N44 1.326 1_556 S
C43 C47 1.460 1_556 S
C43 H49 0.929 . S
N44 Mn37 2.257 . S
N44 C43 1.326 1_554 S
N44 C48 1.362 . S
C45 C46 1.258 . S
C45 C48 1.431 . S
C45 C65 1.449 . S
C46 C45 1.258 . S
C46 C47 1.477 . S
C46 H66 0.931 . S
C47 C43 1.460 1_554 S
C47 C46 1.477 . S
C47 H67 0.930 1_554 S
C48 N44 1.362 . S
C48 C45 1.431 . S
C48 C58 1.476 . S
H49 C43 0.929 . S
C50 O41 1.250 . S
C50 O42 1.258 . S
O51 Mn36 2.161 1_556 S
O51 C39 1.280 1_556 S
O52 Mn36 2.297 . S
O52 C39 1.236 . S
N53 Mn37 2.282 . S
N53 C54 1.328 . S
N53 C58 1.318 . S
C54 N53 1.328 . S
C54 C55 1.457 . S
C54 H59 0.929 . S
C55 C54 1.457 . S
C55 C56 1.291 . S
C55 H68 0.931 . S
C56 C55 1.291 . S
C56 C57 1.373 . S
C56 H69 0.929 . S
C57 C56 1.373 . S
C57 C58 1.396 . S
C57 C64 1.403 . S
C58 C48 1.476 . S
C58 N53 1.318 . S
C58 C57 1.396 . S
H59 C54 0.929 . S
O60 Mn36 2.385 . S
O60 C38 1.234 . S
O61 Mn36 2.209 . S
O61 Mn37 2.215 . S
O61 C38 1.283 . S
O62 Mn36 2.094 . S
O62 C40 1.240 . S
O63 Mn37 2.117 . S
O63 C40 1.264 . S
C64 C57 1.403 . S
C64 C65 1.399 . S
C64 H70 0.929 . S
C65 C45 1.449 . S
C65 C64 1.399 . S
C65 H71 0.930 . S
H66 C46 0.931 . S
H67 C47 0.930 1_556 S
H68 C55 0.931 . S
H69 C56 0.929 . S
H70 C64 0.929 . S
H71 C65 0.930 . S
Mn72 O77 2.095 1_554 S
Mn72 O87 2.161 1_554 S
Mn72 O88 2.297 . S
Mn72 O96 2.385 . S
Mn72 O97 2.209 . S
Mn72 O98 2.094 . S
Mn73 O78 2.121 1_554 S
Mn73 N80 2.257 . S
Mn73 N89 2.282 . S
Mn73 O97 2.215 . S
Mn73 O99 2.117 . S
C74 O96 1.234 . S
C74 O97 1.283 . S
C75 O87 1.280 1_554 S
C75 O88 1.236 . S
C76 O98 1.240 . S
C76 O99 1.264 . S
O77 Mn72 2.095 1_556 S
O77 C86 1.250 . S
O78 Mn73 2.121 1_556 S
O78 C86 1.258 . S
C79 N80 1.326 1_556 S
C79 C83 1.460 1_556 S
C79 H85 0.929 . S
N80 Mn73 2.257 . S
N80 C79 1.326 1_554 S
N80 C84 1.362 . S
C81 C82 1.258 . S
C81 C84 1.431 . S
C81 C101 1.449 . S
C82 C81 1.258 . S
C82 C83 1.477 . S
C82 H102 0.931 . S
C83 C79 1.460 1_554 S
C83 C82 1.477 . S
C83 H103 0.930 1_554 S
C84 N80 1.362 . S
C84 C81 1.431 . S
C84 C94 1.476 . S
H85 C79 0.929 . S
C86 O77 1.250 . S
C86 O78 1.258 . S
O87 Mn72 2.161 1_556 S
O87 C75 1.280 1_556 S
O88 Mn72 2.297 . S
O88 C75 1.236 . S
N89 Mn73 2.282 . S
N89 C90 1.328 . S
N89 C94 1.318 . S
C90 N89 1.328 . S
C90 C91 1.457 . S
C90 H95 0.929 . S
C91 C90 1.457 . S
C91 C92 1.291 . S
C91 H104 0.931 . S
C92 C91 1.291 . S
C92 C93 1.373 . S
C92 H105 0.929 . S
C93 C92 1.373 . S
C93 C94 1.396 . S
C93 C100 1.403 . S
C94 C84 1.476 . S
C94 N89 1.318 . S
C94 C93 1.396 . S
H95 C90 0.929 . S
O96 Mn72 2.385 . S
O96 C74 1.234 . S
O97 Mn72 2.209 . S
O97 Mn73 2.215 . S
O97 C74 1.283 . S
O98 Mn72 2.094 . S
O98 C76 1.240 . S
O99 Mn73 2.117 . S
O99 C76 1.264 . S
C100 C93 1.403 . S
C100 C101 1.399 . S
C100 H106 0.929 . S
C101 C81 1.449 . S
C101 C100 1.399 . S
C101 H107 0.930 . S
H102 C82 0.931 . S
H103 C83 0.930 1_556 S
H104 C91 0.931 . S
H105 C92 0.929 . S
H106 C100 0.929 . S
H107 C101 0.930 . S
Mn108 O113 2.095 1_554 S
Mn108 O123 2.161 1_554 S
Mn108 O124 2.297 . S
Mn108 O132 2.385 . S
Mn108 O133 2.209 . S
Mn108 O134 2.094 . S
Mn109 O114 2.121 1_554 S
Mn109 N116 2.257 . S
Mn109 N125 2.282 . S
Mn109 O133 2.215 . S
Mn109 O135 2.117 . S
C110 O132 1.234 . S
C110 O133 1.283 . S
C111 O123 1.280 1_554 S
C111 O124 1.236 . S
C112 O134 1.240 . S
C112 O135 1.264 . S
O113 Mn108 2.095 1_556 S
O113 C122 1.250 . S
O114 Mn109 2.121 1_556 S
O114 C122 1.258 . S
C115 N116 1.326 1_556 S
C115 C119 1.460 1_556 S
C115 H121 0.929 . S
N116 Mn109 2.257 . S
N116 C115 1.326 1_554 S
N116 C120 1.362 . S
C117 C118 1.258 . S
C117 C120 1.431 . S
C117 C137 1.449 . S
C118 C117 1.258 . S
C118 C119 1.477 . S
C118 H138 0.931 . S
C119 C115 1.460 1_554 S
C119 C118 1.477 . S
C119 H139 0.930 1_554 S
C120 N116 1.362 . S
C120 C117 1.431 . S
C120 C130 1.476 . S
H121 C115 0.929 . S
C122 O113 1.250 . S
C122 O114 1.258 . S
O123 Mn108 2.161 1_556 S
O123 C111 1.280 1_556 S
O124 Mn108 2.297 . S
O124 C111 1.236 . S
N125 Mn109 2.282 . S
N125 C126 1.328 . S
N125 C130 1.318 . S
C126 N125 1.328 . S
C126 C127 1.457 . S
C126 H131 0.929 . S
C127 C126 1.457 . S
C127 C128 1.291 . S
C127 H140 0.931 . S
C128 C127 1.291 . S
C128 C129 1.373 . S
C128 H141 0.929 . S
C129 C128 1.373 . S
C129 C130 1.396 . S
C129 C136 1.403 . S
C130 C120 1.476 . S
C130 N125 1.318 . S
C130 C129 1.396 . S
H131 C126 0.929 . S
O132 Mn108 2.385 . S
O132 C110 1.234 . S
O133 Mn108 2.209 . S
O133 Mn109 2.215 . S
O133 C110 1.283 . S
O134 Mn108 2.094 . S
O134 C112 1.240 . S
O135 Mn109 2.117 . S
O135 C112 1.264 . S
C136 C129 1.403 . S
C136 C137 1.399 . S
C136 H142 0.929 . S
C137 C117 1.449 . S
C137 C136 1.399 . S
C137 H143 0.930 . S
H138 C118 0.931 . S
H139 C119 0.930 1_556 S
H140 C127 0.931 . S
H141 C128 0.929 . S
H142 C136 0.929 . S
H143 C137 0.930 . S
Mn144 O149 2.076 1_556 S
Mn144 O159 2.161 1_556 S
Mn144 O160 2.297 . S
Mn144 O168 2.406 . S
Mn144 O169 2.218 . S
Mn144 O170 2.094 . S
Mn145 O150 2.121 1_556 S
Mn145 N152 2.257 . S
Mn145 N161 2.282 . S
Mn145 O169 2.215 . S
Mn145 O171 2.117 . S
C146 O168 1.234 . S
C146 O169 1.283 . S
C147 O159 1.281 . S
C147 O160 1.235 1_554 S
C148 O170 1.240 . S
C148 O171 1.264 . S
O149 Mn144 2.076 1_554 S
O149 C158 1.250 . S
O150 Mn145 2.121 1_554 S
O150 C158 1.258 . S
C151 N152 1.326 1_554 S
C151 C155 1.460 1_554 S
C151 H157 0.929 . S
N152 Mn145 2.257 . S
N152 C151 1.326 1_556 S
N152 C156 1.362 . S
C153 C154 1.258 . S
C153 C156 1.431 . S
C153 C173 1.449 . S
C154 C153 1.258 . S
C154 C155 1.477 . S
C154 H174 0.931 . S
C155 C151 1.460 1_556 S
C155 C154 1.477 . S
C155 H175 0.930 1_556 S
C156 N152 1.362 . S
C156 C153 1.431 . S
C156 C166 1.476 . S
H157 C151 0.929 . S
C158 O149 1.250 . S
C158 O150 1.258 . S
O159 Mn144 2.161 1_554 S
O159 C147 1.281 . S
O160 Mn144 2.297 . S
O160 C147 1.235 1_556 S
N161 Mn145 2.282 . S
N161 C162 1.328 . S
N161 C166 1.318 . S
C162 N161 1.328 . S
C162 C163 1.457 . S
C162 H167 0.929 . S
C163 C162 1.457 . S
C163 C164 1.291 . S
C163 H176 0.931 . S
C164 C163 1.291 . S
C164 C165 1.373 . S
C164 H177 0.929 . S
C165 C164 1.373 . S
C165 C166 1.396 . S
C165 C172 1.403 . S
C166 C156 1.476 . S
C166 N161 1.318 . S
C166 C165 1.396 . S
H167 C162 0.929 . S
O168 Mn144 2.406 . S
O168 C146 1.234 . S
O169 Mn144 2.218 . S
O169 Mn145 2.215 . S
O169 C146 1.283 . S
O170 Mn144 2.094 . S
O170 C148 1.240 . S
O171 Mn145 2.117 . S
O171 C148 1.264 . S
C172 C165 1.403 . S
C172 C173 1.399 . S
C172 H178 0.929 . S
C173 C153 1.449 . S
C173 C172 1.399 . S
C173 H179 0.930 . S
H174 C154 0.931 . S
H175 C155 0.930 1_554 S
H176 C163 0.931 . S
H177 C164 0.929 . S
H178 C172 0.929 . S
H179 C173 0.930 . S
Mn180 O185 2.076 1_556 S
Mn180 O195 2.161 1_556 S
Mn180 O196 2.297 . S
Mn180 O204 2.406 . S
Mn180 O205 2.218 . S
Mn180 O206 2.094 . S
Mn181 O186 2.121 1_556 S
Mn181 N188 2.257 . S
Mn181 N197 2.282 . S
Mn181 O205 2.215 . S
Mn181 O207 2.117 . S
C182 O204 1.234 . S
C182 O205 1.283 . S
C183 O195 1.281 . S
C183 O196 1.235 1_554 S
C184 O206 1.240 . S
C184 O207 1.264 . S
O185 Mn180 2.076 1_554 S
O185 C194 1.250 . S
O186 Mn181 2.121 1_554 S
O186 C194 1.258 . S
C187 N188 1.326 1_554 S
C187 C191 1.460 1_554 S
C187 H193 0.929 . S
N188 Mn181 2.257 . S
N188 C187 1.326 1_556 S
N188 C192 1.362 . S
C189 C190 1.258 . S
C189 C192 1.431 . S
C189 C209 1.449 . S
C190 C189 1.258 . S
C190 C191 1.477 . S
C190 H210 0.931 . S
C191 C187 1.460 1_556 S
C191 C190 1.477 . S
C191 H211 0.930 1_556 S
C192 N188 1.362 . S
C192 C189 1.431 . S
C192 C202 1.476 . S
H193 C187 0.929 . S
C194 O185 1.250 . S
C194 O186 1.258 . S
O195 Mn180 2.161 1_554 S
O195 C183 1.281 . S
O196 Mn180 2.297 . S
O196 C183 1.235 1_556 S
N197 Mn181 2.282 . S
N197 C198 1.328 . S
N197 C202 1.318 . S
C198 N197 1.328 . S
C198 C199 1.457 . S
C198 H203 0.929 . S
C199 C198 1.457 . S
C199 C200 1.291 . S
C199 H212 0.931 . S
C200 C199 1.291 . S
C200 C201 1.373 . S
C200 H213 0.929 . S
C201 C200 1.373 . S
C201 C202 1.396 . S
C201 C208 1.403 . S
C202 C192 1.476 . S
C202 N197 1.318 . S
C202 C201 1.396 . S
H203 C198 0.929 . S
O204 Mn180 2.406 . S
O204 C182 1.234 . S
O205 Mn180 2.218 . S
O205 Mn181 2.215 . S
O205 C182 1.283 . S
O206 Mn180 2.094 . S
O206 C184 1.240 . S
O207 Mn181 2.117 . S
O207 C184 1.264 . S
C208 C201 1.403 . S
C208 C209 1.399 . S
C208 H214 0.929 . S
C209 C189 1.449 . S
C209 C208 1.399 . S
C209 H215 0.930 . S
H210 C190 0.931 . S
H211 C191 0.930 1_554 S
H212 C199 0.931 . S
H213 C200 0.929 . S
H214 C208 0.929 . S
H215 C209 0.930 . S
Mn216 O221 2.076 1_556 S
Mn216 O231 2.161 1_556 S
Mn216 O232 2.297 . S
Mn216 O240 2.406 . S
Mn216 O241 2.218 . S
Mn216 O242 2.094 . S
Mn217 O222 2.121 1_556 S
Mn217 N224 2.257 . S
Mn217 N233 2.282 . S
Mn217 O241 2.215 . S
Mn217 O243 2.117 . S
C218 O240 1.234 . S
C218 O241 1.283 . S
C219 O231 1.281 . S
C219 O232 1.235 1_554 S
C220 O242 1.240 . S
C220 O243 1.264 . S
O221 Mn216 2.076 1_554 S
O221 C230 1.250 . S
O222 Mn217 2.121 1_554 S
O222 C230 1.258 . S
C223 N224 1.326 1_554 S
C223 C227 1.460 1_554 S
C223 H229 0.929 . S
N224 Mn217 2.257 . S
N224 C223 1.326 1_556 S
N224 C228 1.362 . S
C225 C226 1.258 . S
C225 C228 1.431 . S
C225 C245 1.449 . S
C226 C225 1.258 . S
C226 C227 1.477 . S
C226 H246 0.931 . S
C227 C223 1.460 1_556 S
C227 C226 1.477 . S
C227 H247 0.930 1_556 S
C228 N224 1.362 . S
C228 C225 1.431 . S
C228 C238 1.476 . S
H229 C223 0.929 . S
C230 O221 1.250 . S
C230 O222 1.258 . S
O231 Mn216 2.161 1_554 S
O231 C219 1.281 . S
O232 Mn216 2.297 . S
O232 C219 1.235 1_556 S
N233 Mn217 2.282 . S
N233 C234 1.328 . S
N233 C238 1.318 . S
C234 N233 1.328 . S
C234 C235 1.457 . S
C234 H239 0.929 . S
C235 C234 1.457 . S
C235 C236 1.291 . S
C235 H248 0.931 . S
C236 C235 1.291 . S
C236 C237 1.373 . S
C236 H249 0.929 . S
C237 C236 1.373 . S
C237 C238 1.396 . S
C237 C244 1.403 . S
C238 C228 1.476 . S
C238 N233 1.318 . S
C238 C237 1.396 . S
H239 C234 0.929 . S
O240 Mn216 2.406 . S
O240 C218 1.234 . S
O241 Mn216 2.218 . S
O241 Mn217 2.215 . S
O241 C218 1.283 . S
O242 Mn216 2.094 . S
O242 C220 1.240 . S
O243 Mn217 2.117 . S
O243 C220 1.264 . S
C244 C237 1.403 . S
C244 C245 1.399 . S
C244 H250 0.929 . S
C245 C225 1.449 . S
C245 C244 1.399 . S
C245 H251 0.930 . S
H246 C226 0.931 . S
H247 C227 0.930 1_554 S
H248 C235 0.931 . S
H249 C236 0.929 . S
H250 C244 0.929 . S
H251 C245 0.930 . S
Mn252 O257 2.076 1_556 S
Mn252 O267 2.161 1_556 S
Mn252 O268 2.297 . S
Mn252 O276 2.406 . S
Mn252 O277 2.218 . S
Mn252 O278 2.094 . S
Mn253 O258 2.121 1_556 S
Mn253 N260 2.257 . S
Mn253 N269 2.282 . S
Mn253 O277 2.215 . S
Mn253 O279 2.117 . S
C254 O276 1.234 . S
C254 O277 1.283 . S
C255 O267 1.281 . S
C255 O268 1.235 1_554 S
C256 O278 1.240 . S
C256 O279 1.264 . S
O257 Mn252 2.076 1_554 S
O257 C266 1.250 . S
O258 Mn253 2.121 1_554 S
O258 C266 1.258 . S
C259 N260 1.326 1_554 S
C259 C263 1.460 1_554 S
C259 H265 0.929 . S
N260 Mn253 2.257 . S
N260 C259 1.326 1_556 S
N260 C264 1.362 . S
C261 C262 1.258 . S
C261 C264 1.431 . S
C261 C281 1.449 . S
C262 C261 1.258 . S
C262 C263 1.477 . S
C262 H282 0.931 . S
C263 C259 1.460 1_556 S
C263 C262 1.477 . S
C263 H283 0.930 1_556 S
C264 N260 1.362 . S
C264 C261 1.431 . S
C264 C274 1.476 . S
H265 C259 0.929 . S
C266 O257 1.250 . S
C266 O258 1.258 . S
O267 Mn252 2.161 1_554 S
O267 C255 1.281 . S
O268 Mn252 2.297 . S
O268 C255 1.235 1_556 S
N269 Mn253 2.282 . S
N269 C270 1.328 . S
N269 C274 1.318 . S
C270 N269 1.328 . S
C270 C271 1.457 . S
C270 H275 0.929 . S
C271 C270 1.457 . S
C271 C272 1.291 . S
C271 H284 0.931 . S
C272 C271 1.291 . S
C272 C273 1.373 . S
C272 H285 0.929 . S
C273 C272 1.373 . S
C273 C274 1.396 . S
C273 C280 1.403 . S
C274 C264 1.476 . S
C274 N269 1.318 . S
C274 C273 1.396 . S
H275 C270 0.929 . S
O276 Mn252 2.406 . S
O276 C254 1.234 . S
O277 Mn252 2.218 . S
O277 Mn253 2.215 . S
O277 C254 1.283 . S
O278 Mn252 2.094 . S
O278 C256 1.240 . S
O279 Mn253 2.117 . S
O279 C256 1.264 . S
C280 C273 1.403 . S
C280 C281 1.399 . S
C280 H286 0.929 . S
C281 C261 1.449 . S
C281 C280 1.399 . S
C281 H287 0.930 . S
H282 C262 0.931 . S
H283 C263 0.930 1_554 S
H284 C271 0.931 . S
H285 C272 0.929 . S
H286 C280 0.929 . S
H287 C281 0.930 . S
Mn288 O293 2.095 . S
Mn288 O303 2.162 . S
Mn288 O304 2.297 . S
Mn288 O312 2.385 . S
Mn288 O313 2.209 . S
Mn288 O314 2.094 . S
Mn289 O294 2.121 . S
Mn289 N296 2.257 . S
Mn289 N305 2.282 . S
Mn289 O313 2.215 . S
Mn289 O315 2.117 . S
C290 O312 1.234 . S
C290 O313 1.283 . S
C291 O303 1.281 . S
C291 O304 1.236 . S
C292 O314 1.240 . S
C292 O315 1.264 . S
O293 Mn288 2.095 . S
O293 C302 1.250 . S
O294 Mn289 2.121 . S
O294 C302 1.258 . S
C295 N296 1.326 . S
C295 C299 1.460 . S
C295 H301 0.929 . S
N296 Mn289 2.257 . S
N296 C295 1.326 . S
N296 C300 1.362 . S
C297 C298 1.258 . S
C297 C300 1.431 . S
C297 C317 1.449 . S
C298 C297 1.258 . S
C298 C299 1.477 . S
C298 H318 0.931 . S
C299 C295 1.460 . S
C299 C298 1.477 . S
C299 H319 0.930 . S
C300 N296 1.362 . S
C300 C297 1.431 . S
C300 C310 1.476 . S
H301 C295 0.929 . S
C302 O293 1.250 . S
C302 O294 1.258 . S
O303 Mn288 2.162 . S
O303 C291 1.281 . S
O304 Mn288 2.297 . S
O304 C291 1.236 . S
N305 Mn289 2.282 . S
N305 C306 1.328 . S
N305 C310 1.318 . S
C306 N305 1.328 . S
C306 C307 1.457 . S
C306 H311 0.929 . S
C307 C306 1.457 . S
C307 C308 1.291 . S
C307 H320 0.931 . S
C308 C307 1.291 . S
C308 C309 1.373 . S
C308 H321 0.929 . S
C309 C308 1.373 . S
C309 C310 1.396 . S
C309 C316 1.403 . S
C310 C300 1.476 . S
C310 N305 1.318 . S
C310 C309 1.396 . S
H311 C306 0.929 . S
O312 Mn288 2.385 . S
O312 C290 1.234 . S
O313 Mn288 2.209 . S
O313 Mn289 2.215 . S
O313 C290 1.283 . S
O314 Mn288 2.094 . S
O314 C292 1.240 . S
O315 Mn289 2.117 . S
O315 C292 1.264 . S
C316 C309 1.403 . S
C316 C317 1.399 . S
C316 H322 0.929 . S
C317 C297 1.449 . S
C317 C316 1.399 . S
C317 H323 0.930 . S
H318 C298 0.931 . S
H319 C299 0.930 . S
H320 C307 0.931 . S
H321 C308 0.929 . S
H322 C316 0.929 . S
H323 C317 0.930 . S
Mn324 O329 2.095 . S
Mn324 O339 2.162 . S
Mn324 O340 2.297 . S
Mn324 O348 2.385 . S
Mn324 O349 2.209 . S
Mn324 O350 2.094 . S
Mn325 O330 2.121 . S
Mn325 N332 2.257 . S
Mn325 N341 2.282 . S
Mn325 O349 2.215 . S
Mn325 O351 2.117 . S
C326 O348 1.234 . S
C326 O349 1.283 . S
C327 O339 1.281 . S
C327 O340 1.236 . S
C328 O350 1.240 . S
C328 O351 1.264 . S
O329 Mn324 2.095 . S
O329 C338 1.250 . S
O330 Mn325 2.121 . S
O330 C338 1.258 . S
C331 N332 1.326 . S
C331 C335 1.460 . S
C331 H337 0.929 . S
N332 Mn325 2.257 . S
N332 C331 1.326 . S
N332 C336 1.362 . S
C333 C334 1.258 . S
C333 C336 1.431 . S
C333 C353 1.449 . S
C334 C333 1.258 . S
C334 C335 1.477 . S
C334 H354 0.931 . S
C335 C331 1.460 . S
C335 C334 1.477 . S
C335 H355 0.930 . S
C336 N332 1.362 . S
C336 C333 1.431 . S
C336 C346 1.476 . S
H337 C331 0.929 . S
C338 O329 1.250 . S
C338 O330 1.258 . S
O339 Mn324 2.162 . S
O339 C327 1.281 . S
O340 Mn324 2.297 . S
O340 C327 1.236 . S
N341 Mn325 2.282 . S
N341 C342 1.328 . S
N341 C346 1.318 . S
C342 N341 1.328 . S
C342 C343 1.457 . S
C342 H347 0.929 . S
C343 C342 1.457 . S
C343 C344 1.291 . S
C343 H356 0.931 . S
C344 C343 1.291 . S
C344 C345 1.373 . S
C344 H357 0.929 . S
C345 C344 1.373 . S
C345 C346 1.396 . S
C345 C352 1.403 . S
C346 C336 1.476 . S
C346 N341 1.318 . S
C346 C345 1.396 . S
H347 C342 0.929 . S
O348 Mn324 2.385 . S
O348 C326 1.234 . S
O349 Mn324 2.209 . S
O349 Mn325 2.215 . S
O349 C326 1.283 . S
O350 Mn324 2.094 . S
O350 C328 1.240 . S
O351 Mn325 2.117 . S
O351 C328 1.264 . S
C352 C345 1.403 . S
C352 C353 1.399 . S
C352 H358 0.929 . S
C353 C333 1.449 . S
C353 C352 1.399 . S
C353 H359 0.930 . S
H354 C334 0.931 . S
H355 C335 0.930 . S
H356 C343 0.931 . S
H357 C344 0.929 . S
H358 C352 0.929 . S
H359 C353 0.930 . S
Mn360 O365 2.095 . S
Mn360 O375 2.162 . S
Mn360 O376 2.297 . S
Mn360 O384 2.385 . S
Mn360 O385 2.209 . S
Mn360 O386 2.094 . S
Mn361 O366 2.121 . S
Mn361 N368 2.257 . S
Mn361 N377 2.282 . S
Mn361 O385 2.215 . S
Mn361 O387 2.117 . S
C362 O384 1.234 . S
C362 O385 1.283 . S
C363 O375 1.281 . S
C363 O376 1.236 . S
C364 O386 1.240 . S
C364 O387 1.264 . S
O365 Mn360 2.095 . S
O365 C374 1.250 . S
O366 Mn361 2.121 . S
O366 C374 1.258 . S
C367 N368 1.326 . S
C367 C371 1.460 . S
C367 H373 0.929 . S
N368 Mn361 2.257 . S
N368 C367 1.326 . S
N368 C372 1.362 . S
C369 C370 1.258 . S
C369 C372 1.431 . S
C369 C389 1.449 . S
C370 C369 1.258 . S
C370 C371 1.477 . S
C370 H390 0.931 . S
C371 C367 1.460 . S
C371 C370 1.477 . S
C371 H391 0.930 . S
C372 N368 1.362 . S
C372 C369 1.431 . S
C372 C382 1.476 . S
H373 C367 0.929 . S
C374 O365 1.250 . S
C374 O366 1.258 . S
O375 Mn360 2.162 . S
O375 C363 1.281 . S
O376 Mn360 2.297 . S
O376 C363 1.236 . S
N377 Mn361 2.282 . S
N377 C378 1.328 . S
N377 C382 1.318 . S
C378 N377 1.328 . S
C378 C379 1.457 . S
C378 H383 0.929 . S
C379 C378 1.457 . S
C379 C380 1.291 . S
C379 H392 0.931 . S
C380 C379 1.291 . S
C380 C381 1.373 . S
C380 H393 0.929 . S
C381 C380 1.373 . S
C381 C382 1.396 . S
C381 C388 1.403 . S
C382 C372 1.476 . S
C382 N377 1.318 . S
C382 C381 1.396 . S
H383 C378 0.929 . S
O384 Mn360 2.385 . S
O384 C362 1.234 . S
O385 Mn360 2.209 . S
O385 Mn361 2.215 . S
O385 C362 1.283 . S
O386 Mn360 2.094 . S
O386 C364 1.240 . S
O387 Mn361 2.117 . S
O387 C364 1.264 . S
C388 C381 1.403 . S
C388 C389 1.399 . S
C388 H394 0.929 . S
C389 C369 1.449 . S
C389 C388 1.399 . S
C389 H395 0.930 . S
H390 C370 0.931 . S
H391 C371 0.930 . S
H392 C379 0.931 . S
H393 C380 0.929 . S
H394 C388 0.929 . S
H395 C389 0.930 . S
Mn396 O401 2.095 . S
Mn396 O411 2.162 . S
Mn396 O412 2.297 . S
Mn396 O420 2.385 . S
Mn396 O421 2.209 . S
Mn396 O422 2.094 . S
Mn397 O402 2.121 . S
Mn397 N404 2.257 . S
Mn397 N413 2.282 . S
Mn397 O421 2.215 . S
Mn397 O423 2.117 . S
C398 O420 1.234 . S
C398 O421 1.283 . S
C399 O411 1.281 . S
C399 O412 1.236 . S
C400 O422 1.240 . S
C400 O423 1.264 . S
O401 Mn396 2.095 . S
O401 C410 1.250 . S
O402 Mn397 2.121 . S
O402 C410 1.258 . S
C403 N404 1.326 . S
C403 C407 1.460 . S
C403 H409 0.929 . S
N404 Mn397 2.257 . S
N404 C403 1.326 . S
N404 C408 1.362 . S
C405 C406 1.258 . S
C405 C408 1.431 . S
C405 C425 1.449 . S
C406 C405 1.258 . S
C406 C407 1.477 . S
C406 H426 0.931 . S
C407 C403 1.460 . S
C407 C406 1.477 . S
C407 H427 0.930 . S
C408 N404 1.362 . S
C408 C405 1.431 . S
C408 C418 1.476 . S
H409 C403 0.929 . S
C410 O401 1.250 . S
C410 O402 1.258 . S
O411 Mn396 2.162 . S
O411 C399 1.281 . S
O412 Mn396 2.297 . S
O412 C399 1.236 . S
N413 Mn397 2.282 . S
N413 C414 1.328 . S
N413 C418 1.318 . S
C414 N413 1.328 . S
C414 C415 1.457 . S
C414 H419 0.929 . S
C415 C414 1.457 . S
C415 C416 1.291 . S
C415 H428 0.931 . S
C416 C415 1.291 . S
C416 C417 1.373 . S
C416 H429 0.929 . S
C417 C416 1.373 . S
C417 C418 1.396 . S
C417 C424 1.403 . S
C418 C408 1.476 . S
C418 N413 1.318 . S
C418 C417 1.396 . S
H419 C414 0.929 . S
O420 Mn396 2.385 . S
O420 C398 1.234 . S
O421 Mn396 2.209 . S
O421 Mn397 2.215 . S
O421 C398 1.283 . S
O422 Mn396 2.094 . S
O422 C400 1.240 . S
O423 Mn397 2.117 . S
O423 C400 1.264 . S
C424 C417 1.403 . S
C424 C425 1.399 . S
C424 H430 0.929 . S
C425 C405 1.449 . S
C425 C424 1.399 . S
C425 H431 0.930 . S
H426 C406 0.931 . S
H427 C407 0.930 . S
H428 C415 0.931 . S
H429 C416 0.929 . S
H430 C424 0.929 . S
H431 C425 0.930 . S
Mn432 O437 2.095 . S
Mn432 O447 2.162 . S
Mn432 O448 2.297 . S
Mn432 O456 2.385 . S
Mn432 O457 2.209 . S
Mn432 O458 2.094 . S
Mn433 O438 2.121 . S
Mn433 N440 2.257 . S
Mn433 N449 2.282 . S
Mn433 O457 2.215 . S
Mn433 O459 2.117 . S
C434 O456 1.234 . S
C434 O457 1.283 . S
C435 O447 1.281 . S
C435 O448 1.236 . S
C436 O458 1.240 . S
C436 O459 1.264 . S
O437 Mn432 2.095 . S
O437 C446 1.250 . S
O438 Mn433 2.121 . S
O438 C446 1.258 . S
C439 N440 1.326 . S
C439 C443 1.460 . S
C439 H445 0.929 . S
N440 Mn433 2.257 . S
N440 C439 1.326 . S
N440 C444 1.362 . S
C441 C442 1.258 . S
C441 C444 1.431 . S
C441 C461 1.449 . S
C442 C441 1.258 . S
C442 C443 1.477 . S
C442 H462 0.931 . S
C443 C439 1.460 . S
C443 C442 1.477 . S
C443 H463 0.930 . S
C444 N440 1.362 . S
C444 C441 1.431 . S
C444 C454 1.476 . S
H445 C439 0.929 . S
C446 O437 1.250 . S
C446 O438 1.258 . S
O447 Mn432 2.162 . S
O447 C435 1.281 . S
O448 Mn432 2.297 . S
O448 C435 1.236 . S
N449 Mn433 2.282 . S
N449 C450 1.328 . S
N449 C454 1.318 . S
C450 N449 1.328 . S
C450 C451 1.457 . S
C450 H455 0.929 . S
C451 C450 1.457 . S
C451 C452 1.291 . S
C451 H464 0.931 . S
C452 C451 1.291 . S
C452 C453 1.373 . S
C452 H465 0.929 . S
C453 C452 1.373 . S
C453 C454 1.396 . S
C453 C460 1.403 . S
C454 C444 1.476 . S
C454 N449 1.318 . S
C454 C453 1.396 . S
H455 C450 0.929 . S
O456 Mn432 2.385 . S
O456 C434 1.234 . S
O457 Mn432 2.209 . S
O457 Mn433 2.215 . S
O457 C434 1.283 . S
O458 Mn432 2.094 . S
O458 C436 1.240 . S
O459 Mn433 2.117 . S
O459 C436 1.264 . S
C460 C453 1.403 . S
C460 C461 1.399 . S
C460 H466 0.929 . S
C461 C441 1.449 . S
C461 C460 1.399 . S
C461 H467 0.930 . S
H462 C442 0.931 . S
H463 C443 0.930 . S
H464 C451 0.931 . S
H465 C452 0.929 . S
H466 C460 0.929 . S
H467 C461 0.930 . S
Mn468 O473 2.095 . S
Mn468 O483 2.162 . S
Mn468 O484 2.297 . S
Mn468 O492 2.385 . S
Mn468 O493 2.209 . S
Mn468 O494 2.094 . S
Mn469 O474 2.121 . S
Mn469 N476 2.257 . S
Mn469 N485 2.282 . S
Mn469 O493 2.215 . S
Mn469 O495 2.117 . S
C470 O492 1.234 . S
C470 O493 1.283 . S
C471 O483 1.281 . S
C471 O484 1.236 . S
C472 O494 1.240 . S
C472 O495 1.264 . S
O473 Mn468 2.095 . S
O473 C482 1.250 . S
O474 Mn469 2.121 . S
O474 C482 1.258 . S
C475 N476 1.326 . S
C475 C479 1.460 . S
C475 H481 0.929 . S
N476 Mn469 2.257 . S
N476 C475 1.326 . S
N476 C480 1.362 . S
C477 C478 1.258 . S
C477 C480 1.431 . S
C477 C497 1.449 . S
C478 C477 1.258 . S
C478 C479 1.477 . S
C478 H498 0.931 . S
C479 C475 1.460 . S
C479 C478 1.477 . S
C479 H499 0.930 . S
C480 N476 1.362 . S
C480 C477 1.431 . S
C480 C490 1.476 . S
H481 C475 0.929 . S
C482 O473 1.250 . S
C482 O474 1.258 . S
O483 Mn468 2.162 . S
O483 C471 1.281 . S
O484 Mn468 2.297 . S
O484 C471 1.236 . S
N485 Mn469 2.282 . S
N485 C486 1.328 . S
N485 C490 1.318 . S
C486 N485 1.328 . S
C486 C487 1.457 . S
C486 H491 0.929 . S
C487 C486 1.457 . S
C487 C488 1.291 . S
C487 H500 0.931 . S
C488 C487 1.291 . S
C488 C489 1.373 . S
C488 H501 0.929 . S
C489 C488 1.373 . S
C489 C490 1.396 . S
C489 C496 1.403 . S
C490 C480 1.476 . S
C490 N485 1.318 . S
C490 C489 1.396 . S
H491 C486 0.929 . S
O492 Mn468 2.385 . S
O492 C470 1.234 . S
O493 Mn468 2.209 . S
O493 Mn469 2.215 . S
O493 C470 1.283 . S
O494 Mn468 2.094 . S
O494 C472 1.240 . S
O495 Mn469 2.117 . S
O495 C472 1.264 . S
C496 C489 1.403 . S
C496 C497 1.399 . S
C496 H502 0.929 . S
C497 C477 1.449 . S
C497 C496 1.399 . S
C497 H503 0.930 . S
H498 C478 0.931 . S
H499 C479 0.930 . S
H500 C487 0.931 . S
H501 C488 0.929 . S
H502 C496 0.929 . S
H503 C497 0.930 . S
Mn504 O509 2.095 . S
Mn504 O519 2.162 . S
Mn504 O520 2.297 . S
Mn504 O528 2.385 . S
Mn504 O529 2.209 . S
Mn504 O530 2.094 . S
Mn505 O510 2.121 . S
Mn505 N512 2.257 . S
Mn505 N521 2.282 . S
Mn505 O529 2.215 . S
Mn505 O531 2.117 . S
C506 O528 1.234 . S
C506 O529 1.283 . S
C507 O519 1.281 . S
C507 O520 1.236 . S
C508 O530 1.240 . S
C508 O531 1.264 . S
O509 Mn504 2.095 . S
O509 C518 1.250 . S
O510 Mn505 2.121 . S
O510 C518 1.258 . S
C511 N512 1.326 . S
C511 C515 1.460 . S
C511 H517 0.929 . S
N512 Mn505 2.257 . S
N512 C511 1.326 . S
N512 C516 1.362 . S
C513 C514 1.258 . S
C513 C516 1.431 . S
C513 C533 1.449 . S
C514 C513 1.258 . S
C514 C515 1.477 . S
C514 H534 0.931 . S
C515 C511 1.460 . S
C515 C514 1.477 . S
C515 H535 0.930 . S
C516 N512 1.362 . S
C516 C513 1.431 . S
C516 C526 1.476 . S
H517 C511 0.929 . S
C518 O509 1.250 . S
C518 O510 1.258 . S
O519 Mn504 2.162 . S
O519 C507 1.281 . S
O520 Mn504 2.297 . S
O520 C507 1.236 . S
N521 Mn505 2.282 . S
N521 C522 1.328 . S
N521 C526 1.318 . S
C522 N521 1.328 . S
C522 C523 1.457 . S
C522 H527 0.929 . S
C523 C522 1.457 . S
C523 C524 1.291 . S
C523 H536 0.931 . S
C524 C523 1.291 . S
C524 C525 1.373 . S
C524 H537 0.929 . S
C525 C524 1.373 . S
C525 C526 1.396 . S
C525 C532 1.403 . S
C526 C516 1.476 . S
C526 N521 1.318 . S
C526 C525 1.396 . S
H527 C522 0.929 . S
O528 Mn504 2.385 . S
O528 C506 1.234 . S
O529 Mn504 2.209 . S
O529 Mn505 2.215 . S
O529 C506 1.283 . S
O530 Mn504 2.094 . S
O530 C508 1.240 . S
O531 Mn505 2.117 . S
O531 C508 1.264 . S
C532 C525 1.403 . S
C532 C533 1.399 . S
C532 H538 0.929 . S
C533 C513 1.449 . S
C533 C532 1.399 . S
C533 H539 0.930 . S
H534 C514 0.931 . S
H535 C515 0.930 . S
H536 C523 0.931 . S
H537 C524 0.929 . S
H538 C532 0.929 . S
H539 C533 0.930 . S
Mn540 O545 2.095 . S
Mn540 O555 2.162 . S
Mn540 O556 2.297 . S
Mn540 O564 2.385 . S
Mn540 O565 2.209 . S
Mn540 O566 2.094 . S
Mn541 O546 2.121 . S
Mn541 N548 2.257 . S
Mn541 N557 2.282 . S
Mn541 O565 2.215 . S
Mn541 O567 2.117 . S
C542 O564 1.234 . S
C542 O565 1.283 . S
C543 O555 1.281 . S
C543 O556 1.236 . S
C544 O566 1.240 . S
C544 O567 1.264 . S
O545 Mn540 2.095 . S
O545 C554 1.250 . S
O546 Mn541 2.121 . S
O546 C554 1.258 . S
C547 N548 1.326 . S
C547 C551 1.460 . S
C547 H553 0.929 . S
N548 Mn541 2.257 . S
N548 C547 1.326 . S
N548 C552 1.362 . S
C549 C550 1.258 . S
C549 C552 1.431 . S
C549 C569 1.449 . S
C550 C549 1.258 . S
C550 C551 1.477 . S
C550 H570 0.931 . S
C551 C547 1.460 . S
C551 C550 1.477 . S
C551 H571 0.930 . S
C552 N548 1.362 . S
C552 C549 1.431 . S
C552 C562 1.476 . S
H553 C547 0.929 . S
C554 O545 1.250 . S
C554 O546 1.258 . S
O555 Mn540 2.162 . S
O555 C543 1.281 . S
O556 Mn540 2.297 . S
O556 C543 1.236 . S
N557 Mn541 2.282 . S
N557 C558 1.328 . S
N557 C562 1.318 . S
C558 N557 1.328 . S
C558 C559 1.457 . S
C558 H563 0.929 . S
C559 C558 1.457 . S
C559 C560 1.291 . S
C559 H572 0.931 . S
C560 C559 1.291 . S
C560 C561 1.373 . S
C560 H573 0.929 . S
C561 C560 1.373 . S
C561 C562 1.396 . S
C561 C568 1.403 . S
C562 C552 1.476 . S
C562 N557 1.318 . S
C562 C561 1.396 . S
H563 C558 0.929 . S
O564 Mn540 2.385 . S
O564 C542 1.234 . S
O565 Mn540 2.209 . S
O565 Mn541 2.215 . S
O565 C542 1.283 . S
O566 Mn540 2.094 . S
O566 C544 1.240 . S
O567 Mn541 2.117 . S
O567 C544 1.264 . S
C568 C561 1.403 . S
C568 C569 1.399 . S
C568 H574 0.929 . S
C569 C549 1.449 . S
C569 C568 1.399 . S
C569 H575 0.930 . S
H570 C550 0.931 . S
H571 C551 0.930 . S
H572 C559 0.931 . S
H573 C560 0.929 . S
H574 C568 0.929 . S
H575 C569 0.930 . S
H576 C584 0.929 . S
H577 C586 0.930 . S
H578 C588 0.930 . S
H579 C591 0.929 . S
H580 C594 0.930 . S
H581 C596 0.960 . S
H582 C596 0.960 . S
H583 C596 0.960 . S
C584 H576 0.929 . S
C584 C585 1.377 . S
C584 C586 1.384 . S
C585 C584 1.377 . S
C585 C591 1.390 1_554 S
C586 H577 0.930 . S
C586 C584 1.384 . S
C586 C587 1.372 . S
C587 C586 1.372 . S
C587 C588 1.400 1_554 S
C587 C592 1.490 . S
C588 H578 0.930 . S
C588 C587 1.400 1_556 S
C588 C591 1.386 . S
H589 C605 0.930 . S
H590 C606 0.931 . S
C591 H579 0.929 . S
C591 C585 1.390 1_556 S
C591 C588 1.386 . S
C592 C587 1.490 . S
C592 C594 1.395 1_554 S
C592 C595 1.403 . S
H593 C599 0.930 . S
C594 H580 0.930 . S
C594 C592 1.395 1_556 S
C594 C597 1.403 . S
C595 C592 1.403 . S
C595 C596 1.524 . S
C595 C599 1.400 . S
C596 H581 0.960 . S
C596 H582 0.960 . S
C596 H583 0.960 . S
C596 C595 1.524 . S
C597 C594 1.403 . S
C597 C598 1.392 . S
C597 C601 1.495 . S
C598 C597 1.392 . S
C598 C599 1.385 1_556 S
C598 C600 1.478 . S
C599 H593 0.930 . S
C599 C595 1.400 . S
C599 C598 1.385 1_554 S
C600 C598 1.478 . S
C600 C602 1.381 1_556 S
C600 C606 1.383 . S
C601 C597 1.495 . S
C601 H607 0.959 . S
C601 H608 0.961 . S
C601 H609 0.960 . S
C602 C600 1.381 1_554 S
C602 C603 1.394 . S
C602 H610 0.930 . S
C603 C602 1.394 . S
C603 C604 1.373 1_554 S
C603 H611 0.929 . S
C604 C603 1.373 1_556 S
C604 C605 1.388 . S
C605 H589 0.930 . S
C605 C604 1.388 . S
C605 C606 1.379 . S
C606 H590 0.931 . S
C606 C600 1.383 . S
C606 C605 1.379 . S
H607 C601 0.959 . S
H608 C601 0.961 . S
H609 C601 0.960 . S
H610 C602 0.930 . S
H611 C603 0.929 . S
H612 C620 0.929 . S
H613 C622 0.930 . S
H614 C624 0.930 . S
H615 C627 0.929 . S
H616 C630 0.930 . S
H617 C632 0.960 . S
H618 C632 0.960 1_556 S
H619 C632 0.960 . S
C620 H612 0.929 . S
C620 C621 1.367 1_556 S
C620 C622 1.384 . S
C621 C620 1.367 1_554 S
C621 C627 1.400 . S
C622 H613 0.930 . S
C622 C620 1.384 . S
C622 C623 1.372 . S
C623 C622 1.372 . S
C623 C624 1.400 1_556 S
C623 C628 1.490 . S
C624 H614 0.930 . S
C624 C623 1.400 1_554 S
C624 C627 1.386 . S
H625 C641 0.930 . S
H626 C642 0.931 . S
C627 H615 0.929 . S
C627 C621 1.400 . S
C627 C624 1.386 . S
C628 C623 1.490 . S
C628 C630 1.395 . S
C628 C631 1.403 1_556 S
H629 C635 0.930 . S
C630 H616 0.930 . S
C630 C628 1.395 . S
C630 C633 1.403 . S
C631 C628 1.403 1_554 S
C631 C632 1.524 . S
C631 C635 1.400 . S
C632 H617 0.960 . S
C632 H618 0.960 1_554 S
C632 H619 0.960 . S
C632 C631 1.524 . S
C633 C630 1.403 . S
C633 C634 1.395 . S
C633 C637 1.495 . S
C634 C633 1.395 . S
C634 C635 1.384 1_556 S
C634 C636 1.477 1_556 S
C635 H629 0.930 . S
C635 C631 1.400 . S
C635 C634 1.384 1_554 S
C636 C634 1.477 1_554 S
C636 C638 1.376 1_554 S
C636 C642 1.388 . S
C637 C633 1.495 . S
C637 H643 0.959 . S
C637 H644 0.961 1_556 S
C637 H645 0.960 . S
C638 C636 1.376 1_556 S
C638 C639 1.394 . S
C638 H646 0.930 . S
C639 C638 1.394 . S
C639 C640 1.383 1_556 S
C639 H647 0.929 . S
C640 C639 1.383 1_554 S
C640 C641 1.377 . S
C641 H625 0.930 . S
C641 C640 1.377 . S
C641 C642 1.379 . S
C642 H626 0.931 . S
C642 C636 1.388 . S
C642 C641 1.379 . S
H643 C637 0.959 . S
H644 C637 0.961 1_554 S
H645 C637 0.960 . S
H646 C638 0.930 . S
H647 C639 0.929 . S
H648 C656 0.929 . S
H649 C658 0.930 . S
H650 C660 0.930 . S
H651 C663 0.929 . S
H652 C666 0.930 . S
H653 C668 0.960 1_556 S
H654 C668 0.960 . S
H655 C668 0.960 1_556 S
C656 H648 0.929 . S
C656 C657 1.377 . S
C656 C658 1.384 . S
C657 C656 1.377 . S
C657 C663 1.390 1_554 S
C658 H649 0.930 . S
C658 C656 1.384 . S
C658 C659 1.372 . S
C659 C658 1.372 . S
C659 C660 1.400 1_554 S
C659 C664 1.490 . S
C660 H650 0.930 . S
C660 C659 1.400 1_556 S
C660 C663 1.386 . S
H661 C677 0.930 . S
H662 C678 0.931 . S
C663 H651 0.929 . S
C663 C657 1.390 1_556 S
C663 C660 1.386 . S
C664 C659 1.490 . S
C664 C666 1.395 . S
C664 C667 1.403 . S
H665 C671 0.928 1_556 S
C666 H652 0.930 . S
C666 C664 1.395 . S
C666 C669 1.403 . S
C667 C664 1.403 . S
C667 C668 1.524 . S
C667 C671 1.401 . S
C668 H653 0.960 1_554 S
C668 H654 0.960 . S
C668 H655 0.960 1_554 S
C668 C667 1.524 . S
C669 C666 1.403 . S
C669 C670 1.392 . S
C669 C673 1.495 . S
C670 C669 1.392 . S
C670 C671 1.387 . S
C670 C672 1.478 . S
C671 H665 0.928 1_554 S
C671 C667 1.401 . S
C671 C670 1.387 . S
C672 C670 1.478 . S
C672 C674 1.381 . S
C672 C678 1.383 1_554 S
C673 C669 1.495 . S
C673 H679 0.959 . S
C673 H680 0.961 1_554 S
C673 H681 0.960 . S
C674 C672 1.381 . S
C674 C675 1.394 . S
C674 H682 0.930 . S
C675 C674 1.394 . S
C675 C676 1.383 . S
C675 H683 0.929 . S
C676 C675 1.383 . S
C676 C677 1.377 1_554 S
C677 H661 0.930 . S
C677 C676 1.377 1_556 S
C677 C678 1.379 . S
C678 H662 0.931 . S
C678 C672 1.383 1_556 S
C678 C677 1.379 . S
H679 C673 0.959 . S
H680 C673 0.961 1_556 S
H681 C673 0.960 . S
H682 C674 0.930 . S
H683 C675 0.929 . S
H684 C692 0.929 . S
H685 C694 0.930 . S
H686 C696 0.930 . S
H687 C699 0.929 . S
H688 C702 0.930 . S
H689 C704 0.960 . S
H690 C704 0.960 . S
H691 C704 0.960 . S
C692 H684 0.929 . S
C692 C693 1.377 1_556 S
C692 C694 1.384 . S
C693 C692 1.377 1_554 S
C693 C699 1.390 . S
C694 H685 0.930 . S
C694 C692 1.384 . S
C694 C695 1.370 1_556 S
C695 C694 1.370 1_554 S
C695 C696 1.402 . S
C695 C700 1.490 1_554 S
C696 H686 0.930 . S
C696 C695 1.402 . S
C696 C699 1.386 . S
H697 C713 0.930 . S
H698 C714 0.931 . S
C699 H687 0.929 . S
C699 C693 1.390 . S
C699 C696 1.386 . S
C700 C695 1.490 1_556 S
C700 C702 1.395 . S
C700 C703 1.403 1_556 S
H701 C707 0.930 . S
C702 H688 0.930 . S
C702 C700 1.395 . S
C702 C705 1.403 . S
C703 C700 1.403 1_554 S
C703 C704 1.524 . S
C703 C707 1.400 . S
C704 H689 0.960 . S
C704 H690 0.960 . S
C704 H691 0.960 . S
C704 C703 1.524 . S
C705 C702 1.403 . S
C705 C706 1.392 . S
C705 C709 1.495 . S
C706 C705 1.392 . S
C706 C707 1.385 1_556 S
C706 C708 1.478 . S
C707 H701 0.930 . S
C707 C703 1.400 . S
C707 C706 1.385 1_554 S
C708 C706 1.478 . S
C708 C710 1.381 . S
C708 C714 1.383 1_556 S
C709 C705 1.495 . S
C709 H715 0.959 . S
C709 H716 0.961 . S
C709 H717 0.960 . S
C710 C708 1.381 . S
C710 C711 1.394 . S
C710 H718 0.930 . S
C711 C710 1.394 . S
C711 C712 1.383 . S
C711 H719 0.929 . S
C712 C711 1.383 . S
C712 C713 1.377 1_556 S
C713 H697 0.930 . S
C713 C712 1.377 1_554 S
C713 C714 1.379 . S
C714 H698 0.931 . S
C714 C708 1.383 1_554 S
C714 C713 1.379 . S
H715 C709 0.959 . S
H716 C709 0.961 . S
H717 C709 0.960 . S
H718 C710 0.930 . S
H719 C711 0.929 . S
H720 C728 0.929 . S
H721 C730 0.930 . S
H722 C732 0.930 . S
H723 C735 0.929 . S
H724 C738 0.930 . S
H725 C740 0.960 . S
H726 C740 0.960 . S
H727 C740 0.960 . S
C728 H720 0.929 . S
C728 C729 1.377 . S
C728 C730 1.384 . S
C729 C728 1.377 . S
C729 C735 1.390 . S
C730 H721 0.930 . S
C730 C728 1.384 . S
C730 C731 1.372 . S
C731 C730 1.372 . S
C731 C732 1.400 . S
C731 C736 1.490 . S
C732 H722 0.930 . S
C732 C731 1.400 . S
C732 C735 1.386 . S
H733 C749 0.930 . S
H734 C750 0.931 . S
C735 H723 0.929 . S
C735 C729 1.390 . S
C735 C732 1.386 . S
C736 C731 1.490 . S
C736 C738 1.395 . S
C736 C739 1.403 . S
H737 C743 0.930 . S
C738 H724 0.930 . S
C738 C736 1.395 . S
C738 C741 1.403 1_545 S
C739 C736 1.403 . S
C739 C740 1.524 . S
C739 C743 1.400 1_545 S
C740 H725 0.960 . S
C740 H726 0.960 . S
C740 H727 0.960 . S
C740 C739 1.524 . S
C741 C738 1.403 1_565 S
C741 C742 1.392 . S
C741 C745 1.495 . S
C742 C741 1.392 . S
C742 C743 1.385 . S
C742 C744 1.478 . S
C743 H737 0.930 . S
C743 C739 1.400 1_565 S
C743 C742 1.385 . S
C744 C742 1.478 . S
C744 C746 1.381 . S
C744 C750 1.383 . S
C745 C741 1.495 . S
C745 H751 0.959 . S
C745 H752 0.961 . S
C745 H753 0.960 . S
C746 C744 1.381 . S
C746 C747 1.394 . S
C746 H754 0.930 . S
C747 C746 1.394 . S
C747 C748 1.383 . S
C747 H755 0.929 . S
C748 C747 1.383 . S
C748 C749 1.377 . S
C749 H733 0.930 . S
C749 C748 1.377 . S
C749 C750 1.379 . S
C750 H734 0.931 . S
C750 C744 1.383 . S
C750 C749 1.379 . S
H751 C745 0.959 . S
H752 C745 0.961 . S
H753 C745 0.960 . S
H754 C746 0.930 . S
H755 C747 0.929 . S
H756 C764 0.929 . S
H757 C766 0.930 . S
H758 C768 0.930 . S
H759 C771 0.929 . S
H760 C774 0.930 . S
H761 C776 0.960 . S
H762 C776 0.960 . S
H763 C776 0.960 . S
C764 H756 0.929 . S
C764 C765 1.377 . S
C764 C766 1.384 . S
C765 C764 1.377 . S
C765 C771 1.390 . S
C766 H757 0.930 . S
C766 C764 1.384 . S
C766 C767 1.372 . S
C767 C766 1.372 . S
C767 C768 1.400 . S
C767 C772 1.490 . S
C768 H758 0.930 . S
C768 C767 1.400 . S
C768 C771 1.386 . S
H769 C785 0.930 . S
H770 C786 0.931 . S
C771 H759 0.929 . S
C771 C765 1.390 . S
C771 C768 1.386 . S
C772 C767 1.490 . S
C772 C774 1.395 . S
C772 C775 1.403 . S
H773 C779 0.930 . S
C774 H760 0.930 . S
C774 C772 1.395 . S
C774 C777 1.403 1_655 S
C775 C772 1.403 . S
C775 C776 1.524 . S
C775 C779 1.400 1_655 S
C776 H761 0.960 . S
C776 H762 0.960 . S
C776 H763 0.960 . S
C776 C775 1.524 . S
C777 C774 1.403 1_455 S
C777 C778 1.392 . S
C777 C781 1.495 . S
C778 C777 1.392 . S
C778 C779 1.385 . S
C778 C780 1.478 . S
C779 H773 0.930 . S
C779 C775 1.400 1_455 S
C779 C778 1.385 . S
C780 C778 1.478 . S
C780 C782 1.381 . S
C780 C786 1.383 . S
C781 C777 1.495 . S
C781 H787 0.959 . S
C781 H788 0.961 . S
C781 H789 0.960 . S
C782 C780 1.381 . S
C782 C783 1.394 . S
C782 H790 0.930 . S
C783 C782 1.394 . S
C783 C784 1.383 . S
C783 H791 0.929 . S
C784 C783 1.383 . S
C784 C785 1.377 . S
C785 H769 0.930 . S
C785 C784 1.377 . S
C785 C786 1.379 . S
C786 H770 0.931 . S
C786 C780 1.383 . S
C786 C785 1.379 . S
H787 C781 0.959 . S
H788 C781 0.961 . S
H789 C781 0.960 . S
H790 C782 0.930 . S
H791 C783 0.929 . S
H792 C800 0.929 . S
H793 C802 0.930 . S
H794 C804 0.930 . S
H795 C807 0.929 . S
H796 C810 0.930 . S
H797 C812 0.960 . S
H798 C812 0.960 . S
H799 C812 0.960 . S
C800 H792 0.929 . S
C800 C801 1.377 . S
C800 C802 1.384 . S
C801 C800 1.377 . S
C801 C807 1.390 . S
C802 H793 0.930 . S
C802 C800 1.384 . S
C802 C803 1.372 . S
C803 C802 1.372 . S
C803 C804 1.400 . S
C803 C808 1.490 . S
C804 H794 0.930 . S
C804 C803 1.400 . S
C804 C807 1.386 . S
H805 C821 0.930 . S
H806 C822 0.931 . S
C807 H795 0.929 . S
C807 C801 1.390 . S
C807 C804 1.386 . S
C808 C803 1.490 . S
C808 C810 1.395 . S
C808 C811 1.403 . S
H809 C815 0.930 . S
C810 H796 0.930 . S
C810 C808 1.395 . S
C810 C813 1.403 1_545 S
C811 C808 1.403 . S
C811 C812 1.524 . S
C811 C815 1.400 1_545 S
C812 H797 0.960 . S
C812 H798 0.960 . S
C812 H799 0.960 . S
C812 C811 1.524 . S
C813 C810 1.403 1_565 S
C813 C814 1.392 . S
C813 C817 1.495 . S
C814 C813 1.392 . S
C814 C815 1.385 . S
C814 C816 1.478 . S
C815 H809 0.930 . S
C815 C811 1.400 1_565 S
C815 C814 1.385 . S
C816 C814 1.478 . S
C816 C818 1.381 . S
C816 C822 1.383 . S
C817 C813 1.495 . S
C817 H823 0.959 . S
C817 H824 0.961 . S
C817 H825 0.960 . S
C818 C816 1.381 . S
C818 C819 1.394 . S
C818 H826 0.930 . S
C819 C818 1.394 . S
C819 C820 1.383 . S
C819 H827 0.929 . S
C820 C819 1.383 . S
C820 C821 1.377 . S
C821 H805 0.930 . S
C821 C820 1.377 . S
C821 C822 1.379 . S
C822 H806 0.931 . S
C822 C816 1.383 . S
C822 C821 1.379 . S
H823 C817 0.959 . S
H824 C817 0.961 . S
H825 C817 0.960 . S
H826 C818 0.930 . S
H827 C819 0.929 . S
H828 C836 0.929 . S
H829 C838 0.930 . S
H830 C840 0.930 . S
H831 C843 0.929 . S
H832 C846 0.930 . S
H833 C848 0.960 . S
H834 C848 0.960 . S
H835 C848 0.960 . S
C836 H828 0.929 . S
C836 C837 1.377 . S
C836 C838 1.384 . S
C837 C836 1.377 . S
C837 C843 1.390 . S
C838 H829 0.930 . S
C838 C836 1.384 . S
C838 C839 1.372 . S
C839 C838 1.372 . S
C839 C840 1.400 . S
C839 C844 1.490 . S
C840 H830 0.930 . S
C840 C839 1.400 . S
C840 C843 1.386 . S
H841 C857 0.930 . S
H842 C858 0.931 . S
C843 H831 0.929 . S
C843 C837 1.390 . S
C843 C840 1.386 . S
C844 C839 1.490 . S
C844 C846 1.395 . S
C844 C847 1.403 . S
H845 C851 0.930 . S
C846 H832 0.930 . S
C846 C844 1.395 . S
C846 C849 1.403 1_455 S
C847 C844 1.403 . S
C847 C848 1.524 . S
C847 C851 1.400 1_455 S
C848 H833 0.960 . S
C848 H834 0.960 . S
C848 H835 0.960 . S
C848 C847 1.524 . S
C849 C846 1.403 1_655 S
C849 C850 1.392 . S
C849 C853 1.495 . S
C850 C849 1.392 . S
C850 C851 1.385 . S
C850 C852 1.478 . S
C851 H845 0.930 . S
C851 C847 1.400 1_655 S
C851 C850 1.385 . S
C852 C850 1.478 . S
C852 C854 1.381 . S
C852 C858 1.383 . S
C853 C849 1.495 . S
C853 H859 0.959 . S
C853 H860 0.961 . S
C853 H861 0.960 . S
C854 C852 1.381 . S
C854 C855 1.394 . S
C854 H862 0.930 . S
C855 C854 1.394 . S
C855 C856 1.383 . S
C855 H863 0.929 . S
C856 C855 1.383 . S
C856 C857 1.377 . S
C857 H841 0.930 . S
C857 C856 1.377 . S
C857 C858 1.379 . S
C858 H842 0.931 . S
C858 C852 1.383 . S
C858 C857 1.379 . S
H859 C853 0.959 . S
H860 C853 0.961 . S
H861 C853 0.960 . S
H862 C854 0.930 . S
H863 C855 0.929 . S
H864 C872 0.929 . S
H865 C874 0.930 . S
H866 C876 0.930 . S
H867 C879 0.929 . S
H868 C882 0.930 . S
H869 C884 0.960 . S
H870 C884 0.960 . S
H871 C884 0.960 . S
C872 H864 0.929 . S
C872 C873 1.377 1_556 S
C872 C874 1.384 . S
C873 C872 1.377 1_554 S
C873 C879 1.390 . S
C874 H865 0.930 . S
C874 C872 1.384 . S
C874 C875 1.361 1_556 S
C875 C874 1.361 1_554 S
C875 C876 1.411 . S
C875 C880 1.490 . S
C876 H866 0.930 . S
C876 C875 1.411 . S
C876 C879 1.386 . S
H877 C893 0.930 . S
H878 C894 0.931 . S
C879 H867 0.929 . S
C879 C873 1.390 . S
C879 C876 1.386 . S
C880 C875 1.490 . S
C880 C882 1.406 . S
C880 C883 1.392 1_554 S
H881 C887 0.930 . S
C882 H868 0.930 . S
C882 C880 1.406 . S
C882 C885 1.403 . S
C883 C880 1.392 1_556 S
C883 C884 1.524 . S
C883 C887 1.400 . S
C884 H869 0.960 . S
C884 H870 0.960 . S
C884 H871 0.960 . S
C884 C883 1.524 . S
C885 C882 1.403 . S
C885 C886 1.392 . S
C885 C889 1.495 . S
C886 C885 1.392 . S
C886 C887 1.385 1_554 S
C886 C888 1.478 . S
C887 H881 0.930 . S
C887 C883 1.400 . S
C887 C886 1.385 1_556 S
C888 C886 1.478 . S
C888 C890 1.381 1_554 S
C888 C894 1.383 . S
C889 C885 1.495 . S
C889 H895 0.959 . S
C889 H896 0.961 . S
C889 H897 0.960 . S
C890 C888 1.381 1_556 S
C890 C891 1.394 . S
C890 H898 0.930 . S
C891 C890 1.394 . S
C891 C892 1.379 1_556 S
C891 H899 0.929 . S
C892 C891 1.379 1_554 S
C892 C893 1.382 . S
C893 H877 0.930 . S
C893 C892 1.382 . S
C893 C894 1.379 . S
C894 H878 0.931 . S
C894 C888 1.383 . S
C894 C893 1.379 . S
H895 C889 0.959 . S
H896 C889 0.961 . S
H897 C889 0.960 . S
H898 C890 0.930 . S
H899 C891 0.929 . S
H900 C908 0.929 . S
H901 C910 0.930 . S
H902 C912 0.930 . S
H903 C915 0.929 . S
H904 C918 0.930 . S
H905 C920 0.960 . S
H906 C920 0.960 1_556 S
H907 C920 0.960 . S
C908 H900 0.929 . S
C908 C909 1.377 . S
C908 C910 1.384 . S
C909 C908 1.377 . S
C909 C915 1.390 1_556 S
C910 H901 0.930 . S
C910 C908 1.384 . S
C910 C911 1.372 . S
C911 C910 1.372 . S
C911 C912 1.400 1_556 S
C911 C916 1.490 . S
C912 H902 0.930 . S
C912 C911 1.400 1_554 S
C912 C915 1.386 . S
H913 C929 0.930 . S
H914 C930 0.931 . S
C915 H903 0.929 . S
C915 C909 1.390 1_554 S
C915 C912 1.386 . S
C916 C911 1.490 . S
C916 C918 1.395 . S
C916 C919 1.403 1_556 S
H917 C923 0.930 . S
C918 H904 0.930 . S
C918 C916 1.395 . S
C918 C921 1.403 . S
C919 C916 1.403 1_554 S
C919 C920 1.524 . S
C919 C923 1.400 . S
C920 H905 0.960 . S
C920 H906 0.960 1_554 S
C920 H907 0.960 . S
C920 C919 1.524 . S
C921 C918 1.403 . S
C921 C922 1.398 . S
C921 C925 1.495 . S
C922 C921 1.398 . S
C922 C923 1.381 1_556 S
C922 C924 1.477 1_556 S
C923 H917 0.930 . S
C923 C919 1.400 . S
C923 C922 1.381 1_554 S
C924 C922 1.477 1_554 S
C924 C926 1.364 1_554 S
C924 C930 1.400 . S
C925 C921 1.495 . S
C925 H931 0.959 . S
C925 H932 0.961 1_556 S
C925 H933 0.960 . S
C926 C924 1.364 1_556 S
C926 C927 1.394 . S
C926 H934 0.930 . S
C927 C926 1.394 . S
C927 C928 1.383 1_556 S
C927 H935 0.929 . S
C928 C927 1.383 1_554 S
C928 C929 1.377 . S
C929 H913 0.930 . S
C929 C928 1.377 . S
C929 C930 1.379 . S
C930 H914 0.931 . S
C930 C924 1.400 . S
C930 C929 1.379 . S
H931 C925 0.959 . S
H932 C925 0.961 1_554 S
H933 C925 0.960 . S
H934 C926 0.930 . S
H935 C927 0.929 . S
H936 C944 0.929 . S
H937 C946 0.930 . S
H938 C948 0.930 . S
H939 C951 0.929 . S
H940 C954 0.930 . S
H941 C956 0.960 . S
H942 C956 0.960 . S
H943 C956 0.960 . S
C944 H936 0.929 . S
C944 C945 1.377 1_556 S
C944 C946 1.384 . S
C945 C944 1.377 1_554 S
C945 C951 1.390 . S
C946 H937 0.930 . S
C946 C944 1.384 . S
C946 C947 1.372 1_556 S
C947 C946 1.372 1_554 S
C947 C948 1.400 . S
C947 C952 1.489 1_554 S
C948 H938 0.930 . S
C948 C947 1.400 . S
C948 C951 1.386 . S
H949 C965 0.930 . S
H950 C966 0.931 . S
C951 H939 0.929 . S
C951 C945 1.390 . S
C951 C948 1.386 . S
C952 C947 1.489 1_556 S
C952 C954 1.416 . S
C952 C955 1.383 1_556 S
H953 C959 0.930 . S
C954 H940 0.930 . S
C954 C952 1.416 . S
C954 C957 1.403 . S
C955 C952 1.383 1_554 S
C955 C956 1.524 . S
C955 C959 1.400 . S
C956 H941 0.960 . S
C956 H942 0.960 . S
C956 H943 0.960 . S
C956 C955 1.524 . S
C957 C954 1.403 . S
C957 C958 1.392 . S
C957 C961 1.495 . S
C958 C957 1.392 . S
C958 C959 1.385 1_556 S
C958 C960 1.478 . S
C959 H953 0.930 . S
C959 C955 1.400 . S
C959 C958 1.385 1_554 S
C960 C958 1.478 . S
C960 C962 1.381 . S
C960 C966 1.383 1_556 S
C961 C957 1.495 . S
C961 H967 0.959 . S
C961 H968 0.961 . S
C961 H969 0.960 . S
C962 C960 1.381 . S
C962 C963 1.394 . S
C962 H970 0.930 . S
C963 C962 1.394 . S
C963 C964 1.383 . S
C963 H971 0.929 . S
C964 C963 1.383 . S
C964 C965 1.377 1_556 S
C965 H949 0.930 . S
C965 C964 1.377 1_554 S
C965 C966 1.379 . S
C966 H950 0.931 . S
C966 C960 1.383 1_554 S
C966 C965 1.379 . S
H967 C961 0.959 . S
H968 C961 0.961 . S
H969 C961 0.960 . S
H970 C962 0.930 . S
H971 C963 0.929 . S
H972 C980 0.929 . S
H973 C982 0.930 . S
H974 C984 0.930 . S
H975 C987 0.929 . S
H976 C990 0.930 . S
H977 C992 0.960 . S
H978 C992 0.960 . S
H979 C992 0.960 1_556 S
C980 H972 0.929 . S
C980 C981 1.363 1_554 S
C980 C982 1.384 . S
C981 C980 1.363 1_556 S
C981 C987 1.404 . S
C982 H973 0.930 . S
C982 C980 1.384 . S
C982 C983 1.372 . S
C983 C982 1.372 . S
C983 C984 1.400 1_554 S
C983 C988 1.490 . S
C984 H974 0.930 . S
C984 C983 1.400 1_556 S
C984 C987 1.386 . S
H985 C1001 0.930 . S
H986 C1002 0.931 . S
C987 H975 0.929 . S
C987 C981 1.404 . S
C987 C984 1.386 . S
C988 C983 1.490 . S
C988 C990 1.395 1_554 S
C988 C991 1.403 . S
H989 C995 0.930 . S
C990 H976 0.930 . S
C990 C988 1.395 1_556 S
C990 C993 1.403 . S
C991 C988 1.403 . S
C991 C992 1.524 . S
C991 C995 1.400 . S
C992 H977 0.960 . S
C992 H978 0.960 . S
C992 H979 0.960 1_554 S
C992 C991 1.524 . S
C993 C990 1.403 . S
C993 C994 1.392 1_556 S
C993 C997 1.495 . S
C994 C993 1.392 1_554 S
C994 C995 1.385 . S
C994 C996 1.478 . S
C995 H989 0.930 . S
C995 C991 1.400 . S
C995 C994 1.385 . S
C996 C994 1.478 . S
C996 C998 1.381 . S
C996 C1002 1.383 1_554 S
C997 C993 1.495 . S
C997 H1003 0.959 . S
C997 H1004 0.961 . S
C997 H1005 0.960 1_556 S
C998 C996 1.381 . S
C998 C999 1.394 . S
C998 H1006 0.930 . S
C999 C998 1.394 . S
C999 C1000 1.383 . S
C999 H1007 0.929 . S
C1000 C999 1.383 . S
C1000 C1001 1.377 1_554 S
C1001 H985 0.930 . S
C1001 C1000 1.377 1_556 S
C1001 C1002 1.379 . S
C1002 H986 0.931 . S
C1002 C996 1.383 1_556 S
C1002 C1001 1.379 . S
H1003 C997 0.959 . S
H1004 C997 0.961 . S
H1005 C997 0.960 1_554 S
H1006 C998 0.930 . S
H1007 C999 0.929 . S
H1008 C1016 0.929 . S
H1009 C1018 0.930 . S
H1010 C1020 0.930 . S
H1011 C1023 0.929 . S
H1012 C1026 0.930 . S
H1013 C1028 0.960 . S
H1014 C1028 0.960 . S
H1015 C1028 0.960 . S
C1016 H1008 0.929 . S
C1016 C1017 1.377 . S
C1016 C1018 1.384 . S
C1017 C1016 1.377 . S
C1017 C1023 1.390 . S
C1018 H1009 0.930 . S
C1018 C1016 1.384 . S
C1018 C1019 1.372 . S
C1019 C1018 1.372 . S
C1019 C1020 1.400 . S
C1019 C1024 1.490 . S
C1020 H1010 0.930 . S
C1020 C1019 1.400 . S
C1020 C1023 1.386 . S
H1021 C1037 0.930 . S
H1022 C1038 0.931 . S
C1023 H1011 0.929 . S
C1023 C1017 1.390 . S
C1023 C1020 1.386 . S
C1024 C1019 1.490 . S
C1024 C1026 1.395 . S
C1024 C1027 1.403 . S
H1025 C1031 0.930 . S
C1026 H1012 0.930 . S
C1026 C1024 1.395 . S
C1026 C1029 1.403 . S
C1027 C1024 1.403 . S
C1027 C1028 1.524 . S
C1027 C1031 1.400 . S
C1028 H1013 0.960 . S
C1028 H1014 0.960 . S
C1028 H1015 0.960 . S
C1028 C1027 1.524 . S
C1029 C1026 1.403 . S
C1029 C1030 1.392 . S
C1029 C1033 1.495 . S
C1030 C1029 1.392 . S
C1030 C1031 1.385 . S
C1030 C1032 1.478 . S
C1031 H1025 0.930 . S
C1031 C1027 1.400 . S
C1031 C1030 1.385 . S
C1032 C1030 1.478 . S
C1032 C1034 1.381 . S
C1032 C1038 1.383 . S
C1033 C1029 1.495 . S
C1033 H1039 0.959 . S
C1033 H1040 0.961 . S
C1033 H1041 0.960 . S
C1034 C1032 1.381 . S
C1034 C1035 1.394 . S
C1034 H1042 0.930 . S
C1035 C1034 1.394 . S
C1035 C1036 1.383 . S
C1035 H1043 0.929 . S
C1036 C1035 1.383 . S
C1036 C1037 1.377 . S
C1037 H1021 0.930 . S
C1037 C1036 1.377 . S
C1037 C1038 1.379 . S
C1038 H1022 0.931 . S
C1038 C1032 1.383 . S
C1038 C1037 1.379 . S
H1039 C1033 0.959 . S
H1040 C1033 0.961 . S
H1041 C1033 0.960 . S
H1042 C1034 0.930 . S
H1043 C1035 0.929 . S
H1044 C1052 0.929 . S
H1045 C1054 0.930 . S
H1046 C1056 0.930 . S
H1047 C1059 0.929 . S
H1048 C1062 0.930 . S
H1049 C1064 0.960 . S
H1050 C1064 0.960 . S
H1051 C1064 0.960 . S
C1052 H1044 0.929 . S
C1052 C1053 1.377 . S
C1052 C1054 1.384 . S
C1053 C1052 1.377 . S
C1053 C1059 1.390 . S
C1054 H1045 0.930 . S
C1054 C1052 1.384 . S
C1054 C1055 1.372 . S
C1055 C1054 1.372 . S
C1055 C1056 1.400 . S
C1055 C1060 1.490 . S
C1056 H1046 0.930 . S
C1056 C1055 1.400 . S
C1056 C1059 1.386 . S
H1057 C1073 0.930 . S
H1058 C1074 0.931 . S
C1059 H1047 0.929 . S
C1059 C1053 1.390 . S
C1059 C1056 1.386 . S
C1060 C1055 1.490 . S
C1060 C1062 1.395 . S
C1060 C1063 1.403 . S
H1061 C1067 0.930 . S
C1062 H1048 0.930 . S
C1062 C1060 1.395 . S
C1062 C1065 1.403 . S
C1063 C1060 1.403 . S
C1063 C1064 1.524 . S
C1063 C1067 1.400 . S
C1064 H1049 0.960 . S
C1064 H1050 0.960 . S
C1064 H1051 0.960 . S
C1064 C1063 1.524 . S
C1065 C1062 1.403 . S
C1065 C1066 1.392 . S
C1065 C1069 1.495 . S
C1066 C1065 1.392 . S
C1066 C1067 1.385 . S
C1066 C1068 1.478 . S
C1067 H1061 0.930 . S
C1067 C1063 1.400 . S
C1067 C1066 1.385 . S
C1068 C1066 1.478 . S
C1068 C1070 1.381 . S
C1068 C1074 1.383 . S
C1069 C1065 1.495 . S
C1069 H1075 0.959 . S
C1069 H1076 0.961 . S
C1069 H1077 0.960 . S
C1070 C1068 1.381 . S
C1070 C1071 1.394 . S
C1070 H1078 0.930 . S
C1071 C1070 1.394 . S
C1071 C1072 1.383 . S
C1071 H1079 0.929 . S
C1072 C1071 1.383 . S
C1072 C1073 1.377 . S
C1073 H1057 0.930 . S
C1073 C1072 1.377 . S
C1073 C1074 1.379 . S
C1074 H1058 0.931 . S
C1074 C1068 1.383 . S
C1074 C1073 1.379 . S
H1075 C1069 0.959 . S
H1076 C1069 0.961 . S
H1077 C1069 0.960 . S
H1078 C1070 0.930 . S
H1079 C1071 0.929 . S
H1080 C1088 0.929 . S
H1081 C1090 0.930 . S
H1082 C1092 0.930 . S
H1083 C1095 0.929 . S
H1084 C1098 0.930 . S
H1085 C1100 0.960 . S
H1086 C1100 0.960 . S
H1087 C1100 0.960 . S
C1088 H1080 0.929 . S
C1088 C1089 1.377 . S
C1088 C1090 1.384 . S
C1089 C1088 1.377 . S
C1089 C1095 1.390 . S
C1090 H1081 0.930 . S
C1090 C1088 1.384 . S
C1090 C1091 1.372 . S
C1091 C1090 1.372 . S
C1091 C1092 1.400 . S
C1091 C1096 1.490 . S
C1092 H1082 0.930 . S
C1092 C1091 1.400 . S
C1092 C1095 1.386 . S
H1093 C1109 0.930 . S
H1094 C1110 0.931 . S
C1095 H1083 0.929 . S
C1095 C1089 1.390 . S
C1095 C1092 1.386 . S
C1096 C1091 1.490 . S
C1096 C1098 1.395 . S
C1096 C1099 1.403 . S
H1097 C1103 0.930 . S
C1098 H1084 0.930 . S
C1098 C1096 1.395 . S
C1098 C1101 1.403 . S
C1099 C1096 1.403 . S
C1099 C1100 1.524 . S
C1099 C1103 1.400 . S
C1100 H1085 0.960 . S
C1100 H1086 0.960 . S
C1100 H1087 0.960 . S
C1100 C1099 1.524 . S
C1101 C1098 1.403 . S
C1101 C1102 1.392 . S
C1101 C1105 1.495 . S
C1102 C1101 1.392 . S
C1102 C1103 1.385 . S
C1102 C1104 1.478 . S
C1103 H1097 0.930 . S
C1103 C1099 1.400 . S
C1103 C1102 1.385 . S
C1104 C1102 1.478 . S
C1104 C1106 1.381 . S
C1104 C1110 1.383 . S
C1105 C1101 1.495 . S
C1105 H1111 0.959 . S
C1105 H1112 0.961 . S
C1105 H1113 0.960 . S
C1106 C1104 1.381 . S
C1106 C1107 1.394 . S
C1106 H1114 0.930 . S
C1107 C1106 1.394 . S
C1107 C1108 1.383 . S
C1107 H1115 0.929 . S
C1108 C1107 1.383 . S
C1108 C1109 1.377 . S
C1109 H1093 0.930 . S
C1109 C1108 1.377 . S
C1109 C1110 1.379 . S
C1110 H1094 0.931 . S
C1110 C1104 1.383 . S
C1110 C1109 1.379 . S
H1111 C1105 0.959 . S
H1112 C1105 0.961 . S
H1113 C1105 0.960 . S
H1114 C1106 0.930 . S
H1115 C1107 0.929 . S
H1116 C1124 0.929 . S
H1117 C1126 0.930 . S
H1118 C1128 0.930 . S
H1119 C1131 0.929 . S
H1120 C1134 0.930 . S
H1121 C1136 0.960 . S
H1122 C1136 0.960 . S
H1123 C1136 0.960 . S
C1124 H1116 0.929 . S
C1124 C1125 1.377 . S
C1124 C1126 1.384 . S
C1125 C1124 1.377 . S
C1125 C1131 1.390 . S
C1126 H1117 0.930 . S
C1126 C1124 1.384 . S
C1126 C1127 1.372 . S
C1127 C1126 1.372 . S
C1127 C1128 1.400 . S
C1127 C1132 1.490 . S
C1128 H1118 0.930 . S
C1128 C1127 1.400 . S
C1128 C1131 1.386 . S
H1129 C1145 0.930 . S
H1130 C1146 0.931 . S
C1131 H1119 0.929 . S
C1131 C1125 1.390 . S
C1131 C1128 1.386 . S
C1132 C1127 1.490 . S
C1132 C1134 1.395 . S
C1132 C1135 1.403 . S
H1133 C1139 0.930 . S
C1134 H1120 0.930 . S
C1134 C1132 1.395 . S
C1134 C1137 1.403 . S
C1135 C1132 1.403 . S
C1135 C1136 1.524 . S
C1135 C1139 1.400 . S
C1136 H1121 0.960 . S
C1136 H1122 0.960 . S
C1136 H1123 0.960 . S
C1136 C1135 1.524 . S
C1137 C1134 1.403 . S
C1137 C1138 1.392 . S
C1137 C1141 1.495 . S
C1138 C1137 1.392 . S
C1138 C1139 1.385 . S
C1138 C1140 1.478 . S
C1139 H1133 0.930 . S
C1139 C1135 1.400 . S
C1139 C1138 1.385 . S
C1140 C1138 1.478 . S
C1140 C1142 1.381 . S
C1140 C1146 1.383 . S
C1141 C1137 1.495 . S
C1141 H1147 0.959 . S
C1141 H1148 0.961 . S
C1141 H1149 0.960 . S
C1142 C1140 1.381 . S
C1142 C1143 1.394 . S
C1142 H1150 0.930 . S
C1143 C1142 1.394 . S
C1143 C1144 1.383 . S
C1143 H1151 0.929 . S
C1144 C1143 1.383 . S
C1144 C1145 1.377 . S
C1145 H1129 0.930 . S
C1145 C1144 1.377 . S
C1145 C1146 1.379 . S
C1146 H1130 0.931 . S
C1146 C1140 1.383 . S
C1146 C1145 1.379 . S
H1147 C1141 0.959 . S
H1148 C1141 0.961 . S
H1149 C1141 0.960 . S
H1150 C1142 0.930 . S
H1151 C1143 0.929 . S
H1152 C1160 0.929 . S
H1153 C1162 0.930 . S
H1154 C1164 0.930 . S
H1155 C1167 0.929 . S
H1156 C1170 0.930 . S
H1157 C1172 0.960 . S
H1158 C1172 0.960 . S
H1159 C1172 0.960 . S
C1160 H1152 0.929 . S
C1160 C1161 1.377 . S
C1160 C1162 1.384 . S
C1161 C1160 1.377 . S
C1161 C1167 1.390 . S
C1162 H1153 0.930 . S
C1162 C1160 1.384 . S
C1162 C1163 1.372 . S
C1163 C1162 1.372 . S
C1163 C1164 1.400 . S
C1163 C1168 1.490 . S
C1164 H1154 0.930 . S
C1164 C1163 1.400 . S
C1164 C1167 1.386 . S
H1165 C1181 0.930 . S
H1166 C1182 0.931 . S
C1167 H1155 0.929 . S
C1167 C1161 1.390 . S
C1167 C1164 1.386 . S
C1168 C1163 1.490 . S
C1168 C1170 1.395 . S
C1168 C1171 1.403 . S
H1169 C1175 0.930 . S
C1170 H1156 0.930 . S
C1170 C1168 1.395 . S
C1170 C1173 1.403 . S
C1171 C1168 1.403 . S
C1171 C1172 1.524 . S
C1171 C1175 1.400 . S
C1172 H1157 0.960 . S
C1172 H1158 0.960 . S
C1172 H1159 0.960 . S
C1172 C1171 1.524 . S
C1173 C1170 1.403 . S
C1173 C1174 1.392 . S
C1173 C1177 1.495 . S
C1174 C1173 1.392 . S
C1174 C1175 1.385 . S
C1174 C1176 1.478 . S
C1175 H1169 0.930 . S
C1175 C1171 1.400 . S
C1175 C1174 1.385 . S
C1176 C1174 1.478 . S
C1176 C1178 1.381 . S
C1176 C1182 1.383 . S
C1177 C1173 1.495 . S
C1177 H1183 0.959 . S
C1177 H1184 0.961 . S
C1177 H1185 0.960 . S
C1178 C1176 1.381 . S
C1178 C1179 1.394 . S
C1178 H1186 0.930 . S
C1179 C1178 1.394 . S
C1179 C1180 1.383 . S
C1179 H1187 0.929 . S
C1180 C1179 1.383 . S
C1180 C1181 1.377 . S
C1181 H1165 0.930 . S
C1181 C1180 1.377 . S
C1181 C1182 1.379 . S
C1182 H1166 0.931 . S
C1182 C1176 1.383 . S
C1182 C1181 1.379 . S
H1183 C1177 0.959 . S
H1184 C1177 0.961 . S
H1185 C1177 0.960 . S
H1186 C1178 0.930 . S
H1187 C1179 0.929 . S
H1188 C1196 0.929 . S
H1189 C1198 0.930 . S
H1190 C1200 0.930 . S
H1191 C1203 0.929 . S
H1192 C1206 0.930 . S
H1193 C1208 0.960 . S
H1194 C1208 0.960 . S
H1195 C1208 0.960 . S
C1196 H1188 0.929 . S
C1196 C1197 1.377 . S
C1196 C1198 1.384 . S
C1197 C1196 1.377 . S
C1197 C1203 1.390 . S
C1198 H1189 0.930 . S
C1198 C1196 1.384 . S
C1198 C1199 1.372 . S
C1199 C1198 1.372 . S
C1199 C1200 1.400 . S
C1199 C1204 1.490 . S
C1200 H1190 0.930 . S
C1200 C1199 1.400 . S
C1200 C1203 1.386 . S
H1201 C1217 0.930 . S
H1202 C1218 0.931 . S
C1203 H1191 0.929 . S
C1203 C1197 1.390 . S
C1203 C1200 1.386 . S
C1204 C1199 1.490 . S
C1204 C1206 1.395 . S
C1204 C1207 1.403 . S
H1205 C1211 0.930 . S
C1206 H1192 0.930 . S
C1206 C1204 1.395 . S
C1206 C1209 1.403 . S
C1207 C1204 1.403 . S
C1207 C1208 1.524 . S
C1207 C1211 1.400 . S
C1208 H1193 0.960 . S
C1208 H1194 0.960 . S
C1208 H1195 0.960 . S
C1208 C1207 1.524 . S
C1209 C1206 1.403 . S
C1209 C1210 1.392 . S
C1209 C1213 1.495 . S
C1210 C1209 1.392 . S
C1210 C1211 1.385 . S
C1210 C1212 1.478 . S
C1211 H1205 0.930 . S
C1211 C1207 1.400 . S
C1211 C1210 1.385 . S
C1212 C1210 1.478 . S
C1212 C1214 1.381 . S
C1212 C1218 1.383 . S
C1213 C1209 1.495 . S
C1213 H1219 0.959 . S
C1213 H1220 0.961 . S
C1213 H1221 0.960 . S
C1214 C1212 1.381 . S
C1214 C1215 1.394 . S
C1214 H1222 0.930 . S
C1215 C1214 1.394 . S
C1215 C1216 1.383 . S
C1215 H1223 0.929 . S
C1216 C1215 1.383 . S
C1216 C1217 1.377 . S
C1217 H1201 0.930 . S
C1217 C1216 1.377 . S
C1217 C1218 1.379 . S
C1218 H1202 0.931 . S
C1218 C1212 1.383 . S
C1218 C1217 1.379 . S
H1219 C1213 0.959 . S
H1220 C1213 0.961 . S
H1221 C1213 0.960 . S
H1222 C1214 0.930 . S
H1223 C1215 0.929 . S
H1224 C1232 0.929 . S
H1225 C1234 0.930 . S
H1226 C1236 0.930 . S
H1227 C1239 0.929 . S
H1228 C1242 0.930 . S
H1229 C1244 0.960 . S
H1230 C1244 0.960 . S
H1231 C1244 0.960 . S
C1232 H1224 0.929 . S
C1232 C1233 1.377 . S
C1232 C1234 1.384 . S
C1233 C1232 1.377 . S
C1233 C1239 1.390 . S
C1234 H1225 0.930 . S
C1234 C1232 1.384 . S
C1234 C1235 1.372 . S
C1235 C1234 1.372 . S
C1235 C1236 1.400 . S
C1235 C1240 1.490 . S
C1236 H1226 0.930 . S
C1236 C1235 1.400 . S
C1236 C1239 1.386 . S
H1237 C1253 0.930 . S
H1238 C1254 0.931 . S
C1239 H1227 0.929 . S
C1239 C1233 1.390 . S
C1239 C1236 1.386 . S
C1240 C1235 1.490 . S
C1240 C1242 1.395 . S
C1240 C1243 1.403 . S
H1241 C1247 0.930 . S
C1242 H1228 0.930 . S
C1242 C1240 1.395 . S
C1242 C1245 1.403 . S
C1243 C1240 1.403 . S
C1243 C1244 1.524 . S
C1243 C1247 1.400 . S
C1244 H1229 0.960 . S
C1244 H1230 0.960 . S
C1244 H1231 0.960 . S
C1244 C1243 1.524 . S
C1245 C1242 1.403 . S
C1245 C1246 1.392 . S
C1245 C1249 1.495 . S
C1246 C1245 1.392 . S
C1246 C1247 1.385 . S
C1246 C1248 1.478 . S
C1247 H1241 0.930 . S
C1247 C1243 1.400 . S
C1247 C1246 1.385 . S
C1248 C1246 1.478 . S
C1248 C1250 1.381 . S
C1248 C1254 1.383 . S
C1249 C1245 1.495 . S
C1249 H1255 0.959 . S
C1249 H1256 0.961 . S
C1249 H1257 0.960 . S
C1250 C1248 1.381 . S
C1250 C1251 1.394 . S
C1250 H1258 0.930 . S
C1251 C1250 1.394 . S
C1251 C1252 1.383 . S
C1251 H1259 0.929 . S
C1252 C1251 1.383 . S
C1252 C1253 1.377 . S
C1253 H1237 0.930 . S
C1253 C1252 1.377 . S
C1253 C1254 1.379 . S
C1254 H1238 0.931 . S
C1254 C1248 1.383 . S
C1254 C1253 1.379 . S
H1255 C1249 0.959 . S
H1256 C1249 0.961 . S
H1257 C1249 0.960 . S
H1258 C1250 0.930 . S
H1259 C1251 0.929 . S
H1260 C1268 0.929 . S
H1261 C1270 0.930 . S
H1262 C1272 0.930 . S
H1263 C1275 0.929 . S
H1264 C1278 0.930 . S
H1265 C1280 0.960 . S
H1266 C1280 0.960 . S
H1267 C1280 0.960 . S
C1268 H1260 0.929 . S
C1268 C1269 1.377 . S
C1268 C1270 1.384 . S
C1269 C1268 1.377 . S
C1269 C1275 1.390 . S
C1270 H1261 0.930 . S
C1270 C1268 1.384 . S
C1270 C1271 1.372 . S
C1271 C1270 1.372 . S
C1271 C1272 1.400 . S
C1271 C1276 1.490 . S
C1272 H1262 0.930 . S
C1272 C1271 1.400 . S
C1272 C1275 1.386 . S
H1273 C1289 0.930 . S
H1274 C1290 0.931 . S
C1275 H1263 0.929 . S
C1275 C1269 1.390 . S
C1275 C1272 1.386 . S
C1276 C1271 1.490 . S
C1276 C1278 1.395 . S
C1276 C1279 1.403 . S
H1277 C1283 0.930 . S
C1278 H1264 0.930 . S
C1278 C1276 1.395 . S
C1278 C1281 1.403 . S
C1279 C1276 1.403 . S
C1279 C1280 1.524 . S
C1279 C1283 1.400 . S
C1280 H1265 0.960 . S
C1280 H1266 0.960 . S
C1280 H1267 0.960 . S
C1280 C1279 1.524 . S
C1281 C1278 1.403 . S
C1281 C1282 1.392 . S
C1281 C1285 1.495 . S
C1282 C1281 1.392 . S
C1282 C1283 1.385 . S
C1282 C1284 1.478 . S
C1283 H1277 0.930 . S
C1283 C1279 1.400 . S
C1283 C1282 1.385 . S
C1284 C1282 1.478 . S
C1284 C1286 1.381 . S
C1284 C1290 1.383 . S
C1285 C1281 1.495 . S
C1285 H1291 0.959 . S
C1285 H1292 0.961 . S
C1285 H1293 0.960 . S
C1286 C1284 1.381 . S
C1286 C1287 1.394 . S
C1286 H1294 0.930 . S
C1287 C1286 1.394 . S
C1287 C1288 1.383 . S
C1287 H1295 0.929 . S
C1288 C1287 1.383 . S
C1288 C1289 1.377 . S
C1289 H1273 0.930 . S
C1289 C1288 1.377 . S
C1289 C1290 1.379 . S
C1290 H1274 0.931 . S
C1290 C1284 1.383 . S
C1290 C1289 1.379 . S
H1291 C1285 0.959 . S
H1292 C1285 0.961 . S
H1293 C1285 0.960 . S
H1294 C1286 0.930 . S
H1295 C1287 0.929 . S
H1296 C1304 0.929 . S
H1297 C1306 0.930 . S
H1298 C1308 0.930 . S
H1299 C1311 0.929 . S
H1300 C1314 0.930 . S
H1301 C1316 0.960 . S
H1302 C1316 0.960 . S
H1303 C1316 0.960 . S
C1304 H1296 0.929 . S
C1304 C1305 1.377 . S
C1304 C1306 1.384 . S
C1305 C1304 1.377 . S
C1305 C1311 1.390 . S
C1306 H1297 0.930 . S
C1306 C1304 1.384 . S
C1306 C1307 1.372 . S
C1307 C1306 1.372 . S
C1307 C1308 1.400 . S
C1307 C1312 1.490 . S
C1308 H1298 0.930 . S
C1308 C1307 1.400 . S
C1308 C1311 1.386 . S
H1309 C1325 0.930 . S
H1310 C1326 0.931 . S
C1311 H1299 0.929 . S
C1311 C1305 1.390 . S
C1311 C1308 1.386 . S
C1312 C1307 1.490 . S
C1312 C1314 1.395 . S
C1312 C1315 1.403 . S
H1313 C1319 0.930 . S
C1314 H1300 0.930 . S
C1314 C1312 1.395 . S
C1314 C1317 1.403 . S
C1315 C1312 1.403 . S
C1315 C1316 1.524 . S
C1315 C1319 1.400 . S
C1316 H1301 0.960 . S
C1316 H1302 0.960 . S
C1316 H1303 0.960 . S
C1316 C1315 1.524 . S
C1317 C1314 1.403 . S
C1317 C1318 1.392 . S
C1317 C1321 1.495 . S
C1318 C1317 1.392 . S
C1318 C1319 1.385 . S
C1318 C1320 1.478 . S
C1319 H1313 0.930 . S
C1319 C1315 1.400 . S
C1319 C1318 1.385 . S
C1320 C1318 1.478 . S
C1320 C1322 1.381 . S
C1320 C1326 1.383 . S
C1321 C1317 1.495 . S
C1321 H1327 0.959 . S
C1321 H1328 0.961 . S
C1321 H1329 0.960 . S
C1322 C1320 1.381 . S
C1322 C1323 1.394 . S
C1322 H1330 0.930 . S
C1323 C1322 1.394 . S
C1323 C1324 1.383 . S
C1323 H1331 0.929 . S
C1324 C1323 1.383 . S
C1324 C1325 1.377 . S
C1325 H1309 0.930 . S
C1325 C1324 1.377 . S
C1325 C1326 1.379 . S
C1326 H1310 0.931 . S
C1326 C1320 1.383 . S
C1326 C1325 1.379 . S
H1327 C1321 0.959 . S
H1328 C1321 0.961 . S
H1329 C1321 0.960 . S
H1330 C1322 0.930 . S
H1331 C1323 0.929 . S
H1332 C1340 0.929 . S
H1333 C1342 0.930 . S
H1334 C1344 0.930 . S
H1335 C1347 0.929 . S
H1336 C1350 0.930 . S
H1337 C1352 0.960 . S
H1338 C1352 0.960 . S
H1339 C1352 0.960 . S
C1340 H1332 0.929 . S
C1340 C1341 1.377 . S
C1340 C1342 1.384 . S
C1341 C1340 1.377 . S
C1341 C1347 1.390 . S
C1342 H1333 0.930 . S
C1342 C1340 1.384 . S
C1342 C1343 1.372 . S
C1343 C1342 1.372 . S
C1343 C1344 1.400 . S
C1343 C1348 1.490 . S
C1344 H1334 0.930 . S
C1344 C1343 1.400 . S
C1344 C1347 1.386 . S
H1345 C1361 0.930 . S
H1346 C1362 0.931 . S
C1347 H1335 0.929 . S
C1347 C1341 1.390 . S
C1347 C1344 1.386 . S
C1348 C1343 1.490 . S
C1348 C1350 1.395 . S
C1348 C1351 1.403 . S
H1349 C1355 0.930 . S
C1350 H1336 0.930 . S
C1350 C1348 1.395 . S
C1350 C1353 1.403 . S
C1351 C1348 1.403 . S
C1351 C1352 1.524 . S
C1351 C1355 1.400 . S
C1352 H1337 0.960 . S
C1352 H1338 0.960 . S
C1352 H1339 0.960 . S
C1352 C1351 1.524 . S
C1353 C1350 1.403 . S
C1353 C1354 1.392 . S
C1353 C1357 1.495 . S
C1354 C1353 1.392 . S
C1354 C1355 1.385 . S
C1354 C1356 1.478 . S
C1355 H1349 0.930 . S
C1355 C1351 1.400 . S
C1355 C1354 1.385 . S
C1356 C1354 1.478 . S
C1356 C1358 1.381 . S
C1356 C1362 1.383 . S
C1357 C1353 1.495 . S
C1357 H1363 0.959 . S
C1357 H1364 0.961 . S
C1357 H1365 0.960 . S
C1358 C1356 1.381 . S
C1358 C1359 1.394 . S
C1358 H1366 0.930 . S
C1359 C1358 1.394 . S
C1359 C1360 1.383 . S
C1359 H1367 0.929 . S
C1360 C1359 1.383 . S
C1360 C1361 1.377 . S
C1361 H1345 0.930 . S
C1361 C1360 1.377 . S
C1361 C1362 1.379 . S
C1362 H1346 0.931 . S
C1362 C1356 1.383 . S
C1362 C1361 1.379 . S
H1363 C1357 0.959 . S
H1364 C1357 0.961 . S
H1365 C1357 0.960 . S
H1366 C1358 0.930 . S
H1367 C1359 0.929 . S
H1368 C1376 0.929 . S
H1369 C1378 0.930 . S
H1370 C1380 0.930 . S
H1371 C1383 0.929 . S
H1372 C1386 0.930 . S
H1373 C1388 0.960 . S
H1374 C1388 0.960 . S
H1375 C1388 0.960 . S
C1376 H1368 0.929 . S
C1376 C1377 1.377 . S
C1376 C1378 1.384 . S
C1377 C1376 1.377 . S
C1377 C1383 1.390 . S
C1378 H1369 0.930 . S
C1378 C1376 1.384 . S
C1378 C1379 1.372 . S
C1379 C1378 1.372 . S
C1379 C1380 1.400 . S
C1379 C1384 1.490 . S
C1380 H1370 0.930 . S
C1380 C1379 1.400 . S
C1380 C1383 1.386 . S
H1381 C1397 0.930 . S
H1382 C1398 0.931 . S
C1383 H1371 0.929 . S
C1383 C1377 1.390 . S
C1383 C1380 1.386 . S
C1384 C1379 1.490 . S
C1384 C1386 1.395 . S
C1384 C1387 1.403 . S
H1385 C1391 0.930 . S
C1386 H1372 0.930 . S
C1386 C1384 1.395 . S
C1386 C1389 1.403 . S
C1387 C1384 1.403 . S
C1387 C1388 1.524 . S
C1387 C1391 1.400 . S
C1388 H1373 0.960 . S
C1388 H1374 0.960 . S
C1388 H1375 0.960 . S
C1388 C1387 1.524 . S
C1389 C1386 1.403 . S
C1389 C1390 1.392 . S
C1389 C1393 1.495 . S
C1390 C1389 1.392 . S
C1390 C1391 1.385 . S
C1390 C1392 1.478 . S
C1391 H1385 0.930 . S
C1391 C1387 1.400 . S
C1391 C1390 1.385 . S
C1392 C1390 1.478 . S
C1392 C1394 1.381 . S
C1392 C1398 1.383 . S
C1393 C1389 1.495 . S
C1393 H1399 0.959 . S
C1393 H1400 0.961 . S
C1393 H1401 0.960 . S
C1394 C1392 1.381 . S
C1394 C1395 1.394 . S
C1394 H1402 0.930 . S
C1395 C1394 1.394 . S
C1395 C1396 1.383 . S
C1395 H1403 0.929 . S
C1396 C1395 1.383 . S
C1396 C1397 1.377 . S
C1397 H1381 0.930 . S
C1397 C1396 1.377 . S
C1397 C1398 1.379 . S
C1398 H1382 0.931 . S
C1398 C1392 1.383 . S
C1398 C1397 1.379 . S
H1399 C1393 0.959 . S
H1400 C1393 0.961 . S
H1401 C1393 0.960 . S
H1402 C1394 0.930 . S
H1403 C1395 0.929 . S
H1404 C1412 0.929 . S
H1405 C1414 0.930 . S
H1406 C1416 0.930 . S
H1407 C1419 0.929 . S
H1408 C1422 0.930 . S
H1409 C1424 0.960 . S
H1410 C1424 0.960 . S
H1411 C1424 0.960 . S
C1412 H1404 0.929 . S
C1412 C1413 1.377 . S
C1412 C1414 1.384 . S
C1413 C1412 1.377 . S
C1413 C1419 1.390 . S
C1414 H1405 0.930 . S
C1414 C1412 1.384 . S
C1414 C1415 1.372 . S
C1415 C1414 1.372 . S
C1415 C1416 1.400 . S
C1415 C1420 1.490 . S
C1416 H1406 0.930 . S
C1416 C1415 1.400 . S
C1416 C1419 1.386 . S
H1417 C1433 0.930 . S
H1418 C1434 0.931 . S
C1419 H1407 0.929 . S
C1419 C1413 1.390 . S
C1419 C1416 1.386 . S
C1420 C1415 1.490 . S
C1420 C1422 1.395 . S
C1420 C1423 1.403 . S
H1421 C1427 0.930 . S
C1422 H1408 0.930 . S
C1422 C1420 1.395 . S
C1422 C1425 1.403 . S
C1423 C1420 1.403 . S
C1423 C1424 1.524 . S
C1423 C1427 1.400 . S
C1424 H1409 0.960 . S
C1424 H1410 0.960 . S
C1424 H1411 0.960 . S
C1424 C1423 1.524 . S
C1425 C1422 1.403 . S
C1425 C1426 1.392 . S
C1425 C1429 1.495 . S
C1426 C1425 1.392 . S
C1426 C1427 1.385 . S
C1426 C1428 1.478 . S
C1427 H1421 0.930 . S
C1427 C1423 1.400 . S
C1427 C1426 1.385 . S
C1428 C1426 1.478 . S
C1428 C1430 1.381 . S
C1428 C1434 1.383 . S
C1429 C1425 1.495 . S
C1429 H1435 0.959 . S
C1429 H1436 0.961 . S
C1429 H1437 0.960 . S
C1430 C1428 1.381 . S
C1430 C1431 1.394 . S
C1430 H1438 0.930 . S
C1431 C1430 1.394 . S
C1431 C1432 1.383 . S
C1431 H1439 0.929 . S
C1432 C1431 1.383 . S
C1432 C1433 1.377 . S
C1433 H1417 0.930 . S
C1433 C1432 1.377 . S
C1433 C1434 1.379 . S
C1434 H1418 0.931 . S
C1434 C1428 1.383 . S
C1434 C1433 1.379 . S
H1435 C1429 0.959 . S
H1436 C1429 0.961 . S
H1437 C1429 0.960 . S
H1438 C1430 0.930 . S
H1439 C1431 0.929 . S
H1440 C1448 0.929 . S
H1441 C1450 0.930 . S
H1442 C1452 0.930 . S
H1443 C1455 0.929 . S
H1444 C1458 0.930 . S
H1445 C1460 0.960 . S
H1446 C1460 0.960 . S
H1447 C1460 0.960 . S
C1448 H1440 0.929 . S
C1448 C1449 1.377 . S
C1448 C1450 1.384 . S
C1449 C1448 1.377 . S
C1449 C1455 1.390 . S
C1450 H1441 0.930 . S
C1450 C1448 1.384 . S
C1450 C1451 1.372 . S
C1451 C1450 1.372 . S
C1451 C1452 1.400 . S
C1451 C1456 1.490 . S
C1452 H1442 0.930 . S
C1452 C1451 1.400 . S
C1452 C1455 1.386 . S
H1453 C1469 0.930 . S
H1454 C1470 0.931 . S
C1455 H1443 0.929 . S
C1455 C1449 1.390 . S
C1455 C1452 1.386 . S
C1456 C1451 1.490 . S
C1456 C1458 1.395 . S
C1456 C1459 1.403 . S
H1457 C1463 0.930 . S
C1458 H1444 0.930 . S
C1458 C1456 1.395 . S
C1458 C1461 1.403 . S
C1459 C1456 1.403 . S
C1459 C1460 1.524 . S
C1459 C1463 1.400 . S
C1460 H1445 0.960 . S
C1460 H1446 0.960 . S
C1460 H1447 0.960 . S
C1460 C1459 1.524 . S
C1461 C1458 1.403 . S
C1461 C1462 1.392 . S
C1461 C1465 1.495 . S
C1462 C1461 1.392 . S
C1462 C1463 1.385 . S
C1462 C1464 1.478 . S
C1463 H1457 0.930 . S
C1463 C1459 1.400 . S
C1463 C1462 1.385 . S
C1464 C1462 1.478 . S
C1464 C1466 1.381 . S
C1464 C1470 1.383 . S
C1465 C1461 1.495 . S
C1465 H1471 0.959 . S
C1465 H1472 0.961 . S
C1465 H1473 0.960 . S
C1466 C1464 1.381 . S
C1466 C1467 1.394 . S
C1466 H1474 0.930 . S
C1467 C1466 1.394 . S
C1467 C1468 1.383 . S
C1467 H1475 0.929 . S
C1468 C1467 1.383 . S
C1468 C1469 1.377 . S
C1469 H1453 0.930 . S
C1469 C1468 1.377 . S
C1469 C1470 1.379 . S
C1470 H1454 0.931 . S
C1470 C1464 1.383 . S
C1470 C1469 1.379 . S
H1471 C1465 0.959 . S
H1472 C1465 0.961 . S
H1473 C1465 0.960 . S
H1474 C1466 0.930 . S
H1475 C1467 0.929 . S
H1476 C1484 0.929 . S
H1477 C1486 0.930 . S
H1478 C1488 0.930 . S
H1479 C1491 0.929 . S
H1480 C1494 0.930 . S
H1481 C1496 0.960 . S
H1482 C1496 0.960 . S
H1483 C1496 0.960 . S
C1484 H1476 0.929 . S
C1484 C1485 1.377 . S
C1484 C1486 1.384 . S
C1485 C1484 1.377 . S
C1485 C1491 1.390 . S
C1486 H1477 0.930 . S
C1486 C1484 1.384 . S
C1486 C1487 1.372 . S
C1487 C1486 1.372 . S
C1487 C1488 1.400 . S
C1487 C1492 1.490 . S
C1488 H1478 0.930 . S
C1488 C1487 1.400 . S
C1488 C1491 1.386 . S
H1489 C1505 0.930 . S
H1490 C1506 0.931 . S
C1491 H1479 0.929 . S
C1491 C1485 1.390 . S
C1491 C1488 1.386 . S
C1492 C1487 1.490 . S
C1492 C1494 1.395 . S
C1492 C1495 1.403 . S
H1493 C1499 0.930 . S
C1494 H1480 0.930 . S
C1494 C1492 1.395 . S
C1494 C1497 1.403 . S
C1495 C1492 1.403 . S
C1495 C1496 1.524 . S
C1495 C1499 1.400 . S
C1496 H1481 0.960 . S
C1496 H1482 0.960 . S
C1496 H1483 0.960 . S
C1496 C1495 1.524 . S
C1497 C1494 1.403 . S
C1497 C1498 1.392 . S
C1497 C1501 1.495 . S
C1498 C1497 1.392 . S
C1498 C1499 1.385 . S
C1498 C1500 1.478 . S
C1499 H1493 0.930 . S
C1499 C1495 1.400 . S
C1499 C1498 1.385 . S
C1500 C1498 1.478 . S
C1500 C1502 1.381 . S
C1500 C1506 1.383 . S
C1501 C1497 1.495 . S
C1501 H1507 0.959 . S
C1501 H1508 0.961 . S
C1501 H1509 0.960 . S
C1502 C1500 1.381 . S
C1502 C1503 1.394 . S
C1502 H1510 0.930 . S
C1503 C1502 1.394 . S
C1503 C1504 1.383 . S
C1503 H1511 0.929 . S
C1504 C1503 1.383 . S
C1504 C1505 1.377 . S
C1505 H1489 0.930 . S
C1505 C1504 1.377 . S
C1505 C1506 1.379 . S
C1506 H1490 0.931 . S
C1506 C1500 1.383 . S
C1506 C1505 1.379 . S
H1507 C1501 0.959 . S
H1508 C1501 0.961 . S
H1509 C1501 0.960 . S
H1510 C1502 0.930 . S
H1511 C1503 0.929 . S
H1512 C1520 0.929 . S
H1513 C1522 0.930 . S
H1514 C1524 0.930 . S
H1515 C1527 0.929 . S
H1516 C1530 0.930 . S
H1517 C1532 0.960 . S
H1518 C1532 0.960 . S
H1519 C1532 0.960 . S
C1520 H1512 0.929 . S
C1520 C1521 1.377 . S
C1520 C1522 1.384 . S
C1521 C1520 1.377 . S
C1521 C1527 1.390 . S
C1522 H1513 0.930 . S
C1522 C1520 1.384 . S
C1522 C1523 1.372 . S
C1523 C1522 1.372 . S
C1523 C1524 1.400 . S
C1523 C1528 1.490 . S
C1524 H1514 0.930 . S
C1524 C1523 1.400 . S
C1524 C1527 1.386 . S
H1525 C1541 0.930 . S
H1526 C1542 0.931 . S
C1527 H1515 0.929 . S
C1527 C1521 1.390 . S
C1527 C1524 1.386 . S
C1528 C1523 1.490 . S
C1528 C1530 1.395 . S
C1528 C1531 1.403 . S
H1529 C1535 0.930 . S
C1530 H1516 0.930 . S
C1530 C1528 1.395 . S
C1530 C1533 1.403 . S
C1531 C1528 1.403 . S
C1531 C1532 1.524 . S
C1531 C1535 1.400 . S
C1532 H1517 0.960 . S
C1532 H1518 0.960 . S
C1532 H1519 0.960 . S
C1532 C1531 1.524 . S
C1533 C1530 1.403 . S
C1533 C1534 1.392 . S
C1533 C1537 1.495 . S
C1534 C1533 1.392 . S
C1534 C1535 1.385 . S
C1534 C1536 1.478 . S
C1535 H1529 0.930 . S
C1535 C1531 1.400 . S
C1535 C1534 1.385 . S
C1536 C1534 1.478 . S
C1536 C1538 1.381 . S
C1536 C1542 1.383 . S
C1537 C1533 1.495 . S
C1537 H1543 0.959 . S
C1537 H1544 0.961 . S
C1537 H1545 0.960 . S
C1538 C1536 1.381 . S
C1538 C1539 1.394 . S
C1538 H1546 0.930 . S
C1539 C1538 1.394 . S
C1539 C1540 1.383 . S
C1539 H1547 0.929 . S
C1540 C1539 1.383 . S
C1540 C1541 1.377 . S
C1541 H1525 0.930 . S
C1541 C1540 1.377 . S
C1541 C1542 1.379 . S
C1542 H1526 0.931 . S
C1542 C1536 1.383 . S
C1542 C1541 1.379 . S
H1543 C1537 0.959 . S
H1544 C1537 0.961 . S
H1545 C1537 0.960 . S
H1546 C1538 0.930 . S
H1547 C1539 0.929 . S
H1548 C1556 0.929 . S
H1549 C1558 0.930 . S
H1550 C1560 0.930 . S
H1551 C1563 0.929 . S
H1552 C1566 0.930 . S
H1553 C1568 0.960 . S
H1554 C1568 0.960 . S
H1555 C1568 0.960 . S
C1556 H1548 0.929 . S
C1556 C1557 1.377 . S
C1556 C1558 1.384 . S
C1557 C1556 1.377 . S
C1557 C1563 1.390 . S
C1558 H1549 0.930 . S
C1558 C1556 1.384 . S
C1558 C1559 1.372 . S
C1559 C1558 1.372 . S
C1559 C1560 1.400 . S
C1559 C1564 1.490 . S
C1560 H1550 0.930 . S
C1560 C1559 1.400 . S
C1560 C1563 1.386 . S
H1561 C1577 0.930 . S
H1562 C1578 0.931 . S
C1563 H1551 0.929 . S
C1563 C1557 1.390 . S
C1563 C1560 1.386 . S
C1564 C1559 1.490 . S
C1564 C1566 1.395 . S
C1564 C1567 1.403 . S
H1565 C1571 0.930 . S
C1566 H1552 0.930 . S
C1566 C1564 1.395 . S
C1566 C1569 1.403 . S
C1567 C1564 1.403 . S
C1567 C1568 1.524 . S
C1567 C1571 1.400 . S
C1568 H1553 0.960 . S
C1568 H1554 0.960 . S
C1568 H1555 0.960 . S
C1568 C1567 1.524 . S
C1569 C1566 1.403 . S
C1569 C1570 1.392 . S
C1569 C1573 1.495 . S
C1570 C1569 1.392 . S
C1570 C1571 1.385 . S
C1570 C1572 1.478 . S
C1571 H1565 0.930 . S
C1571 C1567 1.400 . S
C1571 C1570 1.385 . S
C1572 C1570 1.478 . S
C1572 C1574 1.381 . S
C1572 C1578 1.383 . S
C1573 C1569 1.495 . S
C1573 H1579 0.959 . S
C1573 H1580 0.961 . S
C1573 H1581 0.960 . S
C1574 C1572 1.381 . S
C1574 C1575 1.394 . S
C1574 H1582 0.930 . S
C1575 C1574 1.394 . S
C1575 C1576 1.383 . S
C1575 H1583 0.929 . S
C1576 C1575 1.383 . S
C1576 C1577 1.377 . S
C1577 H1561 0.930 . S
C1577 C1576 1.377 . S
C1577 C1578 1.379 . S
C1578 H1562 0.931 . S
C1578 C1572 1.383 . S
C1578 C1577 1.379 . S
H1579 C1573 0.959 . S
H1580 C1573 0.961 . S
H1581 C1573 0.960 . S
H1582 C1574 0.930 . S
H1583 C1575 0.929 . S
H1584 C1592 0.929 . S
H1585 C1594 0.930 . S
H1586 C1596 0.930 . S
H1587 C1599 0.929 . S
H1588 C1602 0.930 . S
H1589 C1604 0.960 . S
H1590 C1604 0.960 . S
H1591 C1604 0.960 . S
C1592 H1584 0.929 . S
C1592 C1593 1.377 . S
C1592 C1594 1.384 . S
C1593 C1592 1.377 . S
C1593 C1599 1.390 . S
C1594 H1585 0.930 . S
C1594 C1592 1.384 . S
C1594 C1595 1.372 . S
C1595 C1594 1.372 . S
C1595 C1596 1.400 . S
C1595 C1600 1.490 . S
C1596 H1586 0.930 . S
C1596 C1595 1.400 . S
C1596 C1599 1.386 . S
H1597 C1613 0.930 . S
H1598 C1614 0.931 . S
C1599 H1587 0.929 . S
C1599 C1593 1.390 . S
C1599 C1596 1.386 . S
C1600 C1595 1.490 . S
C1600 C1602 1.395 . S
C1600 C1603 1.403 . S
H1601 C1607 0.930 . S
C1602 H1588 0.930 . S
C1602 C1600 1.395 . S
C1602 C1605 1.403 . S
C1603 C1600 1.403 . S
C1603 C1604 1.524 . S
C1603 C1607 1.400 . S
C1604 H1589 0.960 . S
C1604 H1590 0.960 . S
C1604 H1591 0.960 . S
C1604 C1603 1.524 . S
C1605 C1602 1.403 . S
C1605 C1606 1.392 . S
C1605 C1609 1.495 . S
C1606 C1605 1.392 . S
C1606 C1607 1.385 . S
C1606 C1608 1.478 . S
C1607 H1601 0.930 . S
C1607 C1603 1.400 . S
C1607 C1606 1.385 . S
C1608 C1606 1.478 . S
C1608 C1610 1.381 . S
C1608 C1614 1.383 . S
C1609 C1605 1.495 . S
C1609 H1615 0.959 . S
C1609 H1616 0.961 . S
C1609 H1617 0.960 . S
C1610 C1608 1.381 . S
C1610 C1611 1.394 . S
C1610 H1618 0.930 . S
C1611 C1610 1.394 . S
C1611 C1612 1.383 . S
C1611 H1619 0.929 . S
C1612 C1611 1.383 . S
C1612 C1613 1.377 . S
C1613 H1597 0.930 . S
C1613 C1612 1.377 . S
C1613 C1614 1.379 . S
C1614 H1598 0.931 . S
C1614 C1608 1.383 . S
C1614 C1613 1.379 . S
H1615 C1609 0.959 . S
H1616 C1609 0.961 . S
H1617 C1609 0.960 . S
H1618 C1610 0.930 . S
H1619 C1611 0.929 . S
H1620 C1628 0.929 . S
H1621 C1630 0.930 . S
H1622 C1632 0.930 . S
H1623 C1635 0.929 . S
H1624 C1638 0.930 . S
H1625 C1640 0.960 . S
H1626 C1640 0.960 . S
H1627 C1640 0.960 . S
C1628 H1620 0.929 . S
C1628 C1629 1.377 . S
C1628 C1630 1.384 . S
C1629 C1628 1.377 . S
C1629 C1635 1.390 . S
C1630 H1621 0.930 . S
C1630 C1628 1.384 . S
C1630 C1631 1.372 . S
C1631 C1630 1.372 . S
C1631 C1632 1.400 . S
C1631 C1636 1.490 . S
C1632 H1622 0.930 . S
C1632 C1631 1.400 . S
C1632 C1635 1.386 . S
H1633 C1649 0.930 . S
H1634 C1650 0.931 . S
C1635 H1623 0.929 . S
C1635 C1629 1.390 . S
C1635 C1632 1.386 . S
C1636 C1631 1.490 . S
C1636 C1638 1.395 . S
C1636 C1639 1.403 . S
H1637 C1643 0.930 . S
C1638 H1624 0.930 . S
C1638 C1636 1.395 . S
C1638 C1641 1.403 . S
C1639 C1636 1.403 . S
C1639 C1640 1.524 . S
C1639 C1643 1.400 . S
C1640 H1625 0.960 . S
C1640 H1626 0.960 . S
C1640 H1627 0.960 . S
C1640 C1639 1.524 . S
C1641 C1638 1.403 . S
C1641 C1642 1.392 . S
C1641 C1645 1.495 . S
C1642 C1641 1.392 . S
C1642 C1643 1.385 . S
C1642 C1644 1.478 . S
C1643 H1637 0.930 . S
C1643 C1639 1.400 . S
C1643 C1642 1.385 . S
C1644 C1642 1.478 . S
C1644 C1646 1.381 . S
C1644 C1650 1.383 . S
C1645 C1641 1.495 . S
C1645 H1651 0.959 . S
C1645 H1652 0.961 . S
C1645 H1653 0.960 . S
C1646 C1644 1.381 . S
C1646 C1647 1.394 . S
C1646 H1654 0.930 . S
C1647 C1646 1.394 . S
C1647 C1648 1.383 . S
C1647 H1655 0.929 . S
C1648 C1647 1.383 . S
C1648 C1649 1.377 . S
C1649 H1633 0.930 . S
C1649 C1648 1.377 . S
C1649 C1650 1.379 . S
C1650 H1634 0.931 . S
C1650 C1644 1.383 . S
C1650 C1649 1.379 . S
H1651 C1645 0.959 . S
H1652 C1645 0.961 . S
H1653 C1645 0.960 . S
H1654 C1646 0.930 . S
H1655 C1647 0.929 . S
H1656 C1664 0.929 . S
H1657 C1666 0.930 . S
H1658 C1668 0.930 . S
H1659 C1671 0.929 . S
H1660 C1674 0.930 . S
H1661 C1676 0.960 . S
H1662 C1676 0.960 . S
H1663 C1676 0.960 . S
C1664 H1656 0.929 . S
C1664 C1665 1.377 . S
C1664 C1666 1.384 . S
C1665 C1664 1.377 . S
C1665 C1671 1.390 . S
C1666 H1657 0.930 . S
C1666 C1664 1.384 . S
C1666 C1667 1.372 . S
C1667 C1666 1.372 . S
C1667 C1668 1.400 . S
C1667 C1672 1.490 . S
C1668 H1658 0.930 . S
C1668 C1667 1.400 . S
C1668 C1671 1.386 . S
H1669 C1685 0.930 . S
H1670 C1686 0.931 . S
C1671 H1659 0.929 . S
C1671 C1665 1.390 . S
C1671 C1668 1.386 . S
C1672 C1667 1.490 . S
C1672 C1674 1.395 . S
C1672 C1675 1.403 . S
H1673 C1679 0.930 . S
C1674 H1660 0.930 . S
C1674 C1672 1.395 . S
C1674 C1677 1.403 . S
C1675 C1672 1.403 . S
C1675 C1676 1.524 . S
C1675 C1679 1.400 . S
C1676 H1661 0.960 . S
C1676 H1662 0.960 . S
C1676 H1663 0.960 . S
C1676 C1675 1.524 . S
C1677 C1674 1.403 . S
C1677 C1678 1.392 . S
C1677 C1681 1.495 . S
C1678 C1677 1.392 . S
C1678 C1679 1.385 . S
C1678 C1680 1.478 . S
C1679 H1673 0.930 . S
C1679 C1675 1.400 . S
C1679 C1678 1.385 . S
C1680 C1678 1.478 . S
C1680 C1682 1.381 . S
C1680 C1686 1.383 . S
C1681 C1677 1.495 . S
C1681 H1687 0.959 . S
C1681 H1688 0.961 . S
C1681 H1689 0.960 . S
C1682 C1680 1.381 . S
C1682 C1683 1.394 . S
C1682 H1690 0.930 . S
C1683 C1682 1.394 . S
C1683 C1684 1.383 . S
C1683 H1691 0.929 . S
C1684 C1683 1.383 . S
C1684 C1685 1.377 . S
C1685 H1669 0.930 . S
C1685 C1684 1.377 . S
C1685 C1686 1.379 . S
C1686 H1670 0.931 . S
C1686 C1680 1.383 . S
C1686 C1685 1.379 . S
H1687 C1681 0.959 . S
H1688 C1681 0.961 . S
H1689 C1681 0.960 . S
H1690 C1682 0.930 . S
H1691 C1683 0.929 . S
H1692 C1700 0.929 . S
H1693 C1702 0.930 . S
H1694 C1704 0.930 . S
H1695 C1707 0.929 . S
H1696 C1710 0.930 . S
H1697 C1712 0.960 . S
H1698 C1712 0.960 . S
H1699 C1712 0.960 . S
C1700 H1692 0.929 . S
C1700 C1701 1.377 . S
C1700 C1702 1.384 . S
C1701 C1700 1.377 . S
C1701 C1707 1.390 . S
C1702 H1693 0.930 . S
C1702 C1700 1.384 . S
C1702 C1703 1.372 . S
C1703 C1702 1.372 . S
C1703 C1704 1.400 . S
C1703 C1708 1.490 . S
C1704 H1694 0.930 . S
C1704 C1703 1.400 . S
C1704 C1707 1.386 . S
H1705 C1721 0.930 . S
H1706 C1722 0.931 . S
C1707 H1695 0.929 . S
C1707 C1701 1.390 . S
C1707 C1704 1.386 . S
C1708 C1703 1.490 . S
C1708 C1710 1.395 . S
C1708 C1711 1.403 . S
H1709 C1715 0.930 . S
C1710 H1696 0.930 . S
C1710 C1708 1.395 . S
C1710 C1713 1.403 . S
C1711 C1708 1.403 . S
C1711 C1712 1.524 . S
C1711 C1715 1.400 . S
C1712 H1697 0.960 . S
C1712 H1698 0.960 . S
C1712 H1699 0.960 . S
C1712 C1711 1.524 . S
C1713 C1710 1.403 . S
C1713 C1714 1.392 . S
C1713 C1717 1.495 . S
C1714 C1713 1.392 . S
C1714 C1715 1.385 . S
C1714 C1716 1.478 . S
C1715 H1709 0.930 . S
C1715 C1711 1.400 . S
C1715 C1714 1.385 . S
C1716 C1714 1.478 . S
C1716 C1718 1.381 . S
C1716 C1722 1.383 . S
C1717 C1713 1.495 . S
C1717 H1723 0.959 . S
C1717 H1724 0.961 . S
C1717 H1725 0.960 . S
C1718 C1716 1.381 . S
C1718 C1719 1.394 . S
C1718 H1726 0.930 . S
C1719 C1718 1.394 . S
C1719 C1720 1.383 . S
C1719 H1727 0.929 . S
C1720 C1719 1.383 . S
C1720 C1721 1.377 . S
C1721 H1705 0.930 . S
C1721 C1720 1.377 . S
C1721 C1722 1.379 . S
C1722 H1706 0.931 . S
C1722 C1716 1.383 . S
C1722 C1721 1.379 . S
H1723 C1717 0.959 . S
H1724 C1717 0.961 . S
H1725 C1717 0.960 . S
H1726 C1718 0.930 . S
H1727 C1719 0.929 . S
C585 C148 1.293 1_554 S
C604 C4 1.284 1_556 S
C621 C184 1.292 1_554 S
C640 C40 1.301 . S
C657 C220 1.295 1_554 S
C676 C76 1.280 . S
C693 C256 1.291 1_554 S
C712 C112 1.296 1_556 S
C729 C436 1.292 . S
C748 C292 1.295 . S
C765 C472 1.291 . S
C784 C328 1.301 . S
C801 C364 1.296 . S
C820 C508 1.280 . S
C837 C544 1.292 . S
C856 C400 1.296 . S
C873 C3 1.434 . S
C892 C183 1.432 . S
C909 C219 1.437 1_556 S
C928 C39 1.429 . S
C945 C75 1.435 . S
C964 C255 1.438 1_556 S
C981 C147 1.434 1_556 S
C1000 C111 1.434 . S
C1017 C471 1.435 . S
C1036 C291 1.438 . S
C1053 C507 1.437 . S
C1072 C327 1.429 . S
C1089 C363 1.437 . S
C1108 C543 1.430 . S
C1125 C399 1.434 . S
C1144 C435 1.434 . S
C1161 C542 1.415 . S
C1180 C2 1.417 . S
C1197 C434 1.417 . S
C1216 C38 1.397 . S
C1233 C470 1.410 . S
C1252 C74 1.413 . S
C1269 C506 1.409 . S
C1288 C110 1.420 . S
C1305 C326 1.415 . S
C1324 C146 1.392 . S
C1341 C362 1.417 . S
C1360 C182 1.395 . S
C1377 C218 1.411 . S
C1396 C398 1.428 . S
C1413 C254 1.411 . S
C1432 C290 1.403 . S
C1449 C482 1.267 . S
C1468 C86 1.246 . S
C1485 C518 1.263 . S
C1504 C122 1.272 . S
C1521 C554 1.266 . S
C1540 C14 1.283 . S
C1557 C50 1.265 . S
C1576 C446 1.284 . S
C1593 C410 1.266 . S
C1612 C230 1.283 . S
C1629 C266 1.265 . S
C1648 C302 1.252 . S
C1665 C338 1.266 . S
C1684 C158 1.283 . S
C1701 C374 1.263 . S
C1720 C194 1.271 . S
