# Generated by pormake.
# Topology xfu, (5)-cn, num edge types: 1
# Building blocks:
#     Node 0, Type 0, BuildingBlock: XOMCOT_clean_sbu_1, # of connection points: 5
#     Node 1, Type 0, BuildingBlock: XOMCOT_clean_sbu_1, # of connection points: 5
#     Node 2, Type 0, BuildingBlock: XOMCOT_clean_sbu_1, # of connection points: 5
#     Node 3, Type 0, BuildingBlock: XOMCOT_clean_sbu_1, # of connection points: 5
#     Node 4, Type 0, BuildingBlock: XOMCOT_clean_sbu_1, # of connection points: 5
#     Node 5, Type 0, BuildingBlock: XOMCOT_clean_sbu_1, # of connection points: 5
#     Node 6, Type 0, BuildingBlock: XOMCOT_clean_sbu_1, # of connection points: 5
#     Node 7, Type 0, BuildingBlock: XOMCOT_clean_sbu_1, # of connection points: 5
#     Edge 8, Type (0, 0), BuildingBlock: UVAHIK_clean_linker_0, # of connection points: 2
#     Edge 9, Type (0, 0), BuildingBlock: UVAHIK_clean_linker_0, # of connection points: 2
#     Edge 10, Type (0, 0), BuildingBlock: UVAHIK_clean_linker_0, # of connection points: 2
#     Edge 11, Type (0, 0), BuildingBlock: UVAHIK_clean_linker_0, # of connection points: 2
#     Edge 12, Type (0, 0), BuildingBlock: UVAHIK_clean_linker_0, # of connection points: 2
#     Edge 13, Type (0, 0), BuildingBlock: UVAHIK_clean_linker_0, # of connection points: 2
#     Edge 14, Type (0, 0), BuildingBlock: UVAHIK_clean_linker_0, # of connection points: 2
#     Edge 15, Type (0, 0), BuildingBlock: UVAHIK_clean_linker_0, # of connection points: 2
#     Edge 16, Type (0, 0), BuildingBlock: UVAHIK_clean_linker_0, # of connection points: 2
#     Edge 17, Type (0, 0), BuildingBlock: UVAHIK_clean_linker_0, # of connection points: 2
#     Edge 18, Type (0, 0), BuildingBlock: UVAHIK_clean_linker_0, # of connection points: 2
#     Edge 19, Type (0, 0), BuildingBlock: UVAHIK_clean_linker_0, # of connection points: 2
#     Edge 20, Type (0, 0), BuildingBlock: UVAHIK_clean_linker_0, # of connection points: 2
#     Edge 21, Type (0, 0), BuildingBlock: UVAHIK_clean_linker_0, # of connection points: 2
#     Edge 22, Type (0, 0), BuildingBlock: UVAHIK_clean_linker_0, # of connection points: 2
#     Edge 23, Type (0, 0), BuildingBlock: UVAHIK_clean_linker_0, # of connection points: 2
#     Edge 24, Type (0, 0), BuildingBlock: UVAHIK_clean_linker_0, # of connection points: 2
#     Edge 25, Type (0, 0), BuildingBlock: UVAHIK_clean_linker_0, # of connection points: 2
#     Edge 26, Type (0, 0), BuildingBlock: UVAHIK_clean_linker_0, # of connection points: 2
#     Edge 27, Type (0, 0), BuildingBlock: UVAHIK_clean_linker_0, # of connection points: 2
# Relax obj value: 0.490
# Max RMSD: 0.274
# Mean RMSD: 0.274
data_MOF--net-xfu--node1-XOMCOT_clean_sbu_1--edge1-UVAHIK_clean_linker_0
_symmetry_space_group_name_H-M    P1
_symmetry_Int_Tables_number       1
_symmetry_cell_setting            triclinic
loop_
_symmetry_equiv_pos_as_xyz
'x, y, z'
_cell_length_a     36.368232
_cell_length_b     36.377979
_cell_length_c     64.293929
_cell_angle_alpha  89.979533
_cell_angle_beta   90.136118
_cell_angle_gamma 90.026147
loop_
_atom_site_label
_atom_site_type_symbol
_atom_site_fract_x
_atom_site_fract_y
_atom_site_fract_z
_atom_type_partial_charge
C0 C 1.00093 0.28316 0.64647 0.0
C1 C 0.99311 0.31192 0.65951 0.0
N2 N 0.0088 0.34265 0.65182 0.0
N3 N 0.02208 0.29525 0.63073 0.0
C4 C 0.02476 0.33188 0.6338 0.0
H5 H 0.99383 0.25465 0.64907 0.0
Co6 Co 0.04354 0.26321 0.61157 0.0
C7 C 0.11084 0.31773 0.61414 0.0
O8 O 0.10303 0.33774 0.63049 0.0
N9 N 0.06468 0.23065 0.59248 0.0
C10 C 0.10606 0.19424 0.57764 0.0
C11 C 0.10059 0.22112 0.5922 0.0
C12 C 0.04883 0.20895 0.57797 0.0
N13 N 0.07343 0.18648 0.56878 0.0
O14 O 0.01788 0.28818 0.58968 0.0
H15 H 0.12136 0.23177 0.60264 0.0
H16 H 0.01962 0.20811 0.57492 0.0
O17 O 0.0886 0.29264 0.60815 0.0
C18 C 0.98677 0.27186 0.58922 0.0
O19 O 0.98122 0.2441 0.60191 0.0
N20 N 0.06471 0.23655 0.63342 0.0
C21 C 0.08396 0.19352 0.66735 0.0
C22 C 0.09501 0.23029 0.66638 0.0
C23 C 0.08508 0.25148 0.64916 0.0
C24 C 0.0535 0.2008 0.63437 0.0
C25 C 0.06339 0.17854 0.65108 0.0
H26 H 0.09199 0.28018 0.64914 0.0
H27 H 0.03587 0.18974 0.62234 0.0
H28 H 0.0392 0.35016 0.62341 0.0
H29 H 0.97993 0.30946 0.67451 0.0
H30 H 0.13191 0.18084 0.5742 0.0
H31 H 0.11047 0.24265 0.67899 0.0
H32 H 0.05404 0.15028 0.65163 0.0
C33 C 0.78645 0.48555 0.13543 0.0
C34 C 0.75863 0.48404 0.14993 0.0
N35 N 0.74099 0.5166 0.14982 0.0
N36 N 0.78616 0.51883 0.1262 0.0
C37 C 0.75781 0.5368 0.13504 0.0
H38 H 0.80715 0.46472 0.13291 0.0
Co39 Co 0.82269 0.53821 0.10934 0.0
C40 C 0.78583 0.59859 0.08674 0.0
O41 O 0.79263 0.58177 0.06909 0.0
N42 N 0.8598 0.55859 0.09269 0.0
C43 C 0.89893 0.60018 0.08033 0.0
C44 C 0.87119 0.5939 0.09421 0.0
C45 C 0.88134 0.54393 0.07776 0.0
N46 N 0.90536 0.5687 0.07002 0.0
O47 O 0.80181 0.51205 0.08611 0.0
H48 H 0.85996 0.61406 0.10479 0.0
H49 H 0.88016 0.51558 0.07287 0.0
O50 O 0.79369 0.58253 0.10387 0.0
C51 C 0.81783 0.48086 0.0852 0.0
O52 O 0.8452 0.47426 0.09803 0.0
N53 N 0.84457 0.55939 0.13271 0.0
C54 C 0.88366 0.58328 0.16729 0.0
C55 C 0.8511 0.60099 0.16138 0.0
C56 C 0.83154 0.58823 0.14409 0.0
C57 C 0.87587 0.54155 0.13852 0.0
C58 C 0.89593 0.55305 0.15584 0.0
H59 H 0.80601 0.60134 0.14005 0.0
H60 H 0.88533 0.51828 0.12954 0.0
H61 H 0.75098 0.56508 0.13168 0.0
H62 H 0.75382 0.46193 0.16086 0.0
H63 H 0.91306 0.62602 0.07791 0.0
H64 H 0.84077 0.62418 0.17017 0.0
H65 H 0.92096 0.53877 0.16012 0.0
C66 C 0.60212 0.30182 0.64098 0.0
C67 C 0.60561 0.27789 0.65746 0.0
N68 N 0.57829 0.25288 0.65627 0.0
N69 N 0.57277 0.29202 0.62943 0.0
C70 C 0.55918 0.26187 0.63897 0.0
H71 H 0.6187 0.32602 0.63826 0.0
Co72 Co 0.55274 0.31951 0.60771 0.0
C73 C 0.49708 0.26952 0.58948 0.0
O74 O 0.51422 0.27 0.57151 0.0
N75 N 0.53215 0.3474 0.58604 0.0
C76 C 0.4907 0.37741 0.56705 0.0
C77 C 0.49582 0.35399 0.58348 0.0
C78 C 0.54857 0.36785 0.57119 0.0
N79 N 0.52392 0.38625 0.55941 0.0
O80 O 0.58283 0.29266 0.58853 0.0
H81 H 0.47434 0.3437 0.59353 0.0
H82 H 0.57797 0.37029 0.56935 0.0
O83 O 0.51158 0.28564 0.60511 0.0
C84 C 0.6132 0.3101 0.58725 0.0
O85 O 0.61687 0.34112 0.59749 0.0
N86 N 0.52691 0.3477 0.62698 0.0
C87 C 0.49859 0.39352 0.65756 0.0
C88 C 0.48854 0.35635 0.6568 0.0
C89 C 0.5029 0.33382 0.64125 0.0
C90 C 0.53687 0.38381 0.62748 0.0
C91 C 0.52253 0.40743 0.64247 0.0
H92 H 0.49582 0.30505 0.64124 0.0
H93 H 0.55674 0.39413 0.61643 0.0
H94 H 0.53395 0.24846 0.63431 0.0
H95 H 0.62572 0.27987 0.66983 0.0
H96 H 0.46473 0.38886 0.56195 0.0
H97 H 0.47016 0.34475 0.6683 0.0
H98 H 0.53121 0.43591 0.64279 0.0
C99 C 0.77029 0.09077 0.1476 0.0
C100 C 0.79473 0.09736 0.16342 0.0
N101 N 0.82775 0.08365 0.15796 0.0
N102 N 0.78753 0.07238 0.13229 0.0
C103 C 0.82298 0.07095 0.13842 0.0
H104 H 0.74095 0.09552 0.14814 0.0
Co105 Co 0.76143 0.04936 0.11091 0.0
C106 C 0.82337 0.98702 0.11283 0.0
O107 O 0.84466 0.99548 0.12862 0.0
N108 N 0.73448 0.02725 0.08967 0.0
C109 C 0.70538 0.98516 0.07079 0.0
C110 C 0.72847 0.99084 0.08736 0.0
C111 C 0.7143 0.04319 0.07453 0.0
N112 N 0.69636 0.01814 0.0628 0.0
O113 O 0.78708 0.07957 0.09113 0.0
H114 H 0.73872 0.96979 0.09773 0.0
H115 H 0.71192 0.07258 0.07249 0.0
O116 O 0.79591 0.00754 0.10825 0.0
C117 C 0.77036 0.11047 0.09141 0.0
O118 O 0.74075 0.11368 0.10294 0.0
N119 N 0.73444 0.02296 0.13083 0.0
C120 C 0.69237 0.99676 0.16385 0.0
C121 C 0.73028 0.99 0.16308 0.0
C122 C 0.75085 0.00329 0.14639 0.0
C123 C 0.6975 0.02928 0.13116 0.0
C124 C 0.67583 0.01597 0.14741 0.0
H125 H 0.78025 0.99978 0.14676 0.0
H126 H 0.685 0.04607 0.11919 0.0
H127 H 0.84461 0.05872 0.12939 0.0
H128 H 0.78757 0.10675 0.17887 0.0
H129 H 0.69433 0.95895 0.06582 0.0
H130 H 0.74408 0.97537 0.17552 0.0
H131 H 0.64672 0.02223 0.1476 0.0
C132 C 0.10063 0.79756 0.35075 0.0
C133 C 0.10497 0.77147 0.33546 0.0
N134 N 0.07528 0.74931 0.33563 0.0
N135 N 0.06828 0.79198 0.36043 0.0
C136 C 0.0538 0.76199 0.35113 0.0
H137 H 0.11854 0.82077 0.35354 0.0
Co138 Co 0.04621 0.82565 0.37812 0.0
C139 C 0.98752 0.78434 0.39905 0.0
O140 O 0.00438 0.78968 0.41689 0.0
N141 N 0.02334 0.86 0.39566 0.0
C142 C 0.9797 0.89603 0.40872 0.0
C143 C 0.98758 0.86985 0.39411 0.0
C144 C 0.03664 0.88089 0.41133 0.0
N145 N 0.01064 0.90304 0.41951 0.0
O146 O 0.07289 0.80413 0.40094 0.0
H147 H 0.96831 0.8588 0.3829 0.0
H148 H 0.06496 0.88081 0.41636 0.0
O149 O 0.00346 0.79389 0.38218 0.0
C150 C 0.10323 0.82143 0.40303 0.0
O151 O 0.10909 0.85058 0.39144 0.0
N152 N 0.02435 0.84819 0.35515 0.0
C153 C 1.00177 0.8857 0.31953 0.0
C154 C 0.98782 0.85059 0.32412 0.0
C155 C 0.99954 0.83222 0.34202 0.0
C156 C 0.03829 0.88212 0.35096 0.0
C157 C 0.02716 0.90152 0.33333 0.0
H158 H 0.98952 0.80482 0.34488 0.0
H159 H 0.05852 0.89401 0.36133 0.0
H160 H 0.02639 0.75179 0.35417 0.0
H161 H 0.12703 0.77041 0.3242 0.0
H162 H 0.95325 0.90892 0.41117 0.0
H163 H 0.96877 0.83695 0.31371 0.0
H164 H 0.03838 0.92866 0.33058 0.0
C165 C 0.30197 0.59861 0.85236 0.0
C166 C 0.32777 0.60035 0.8367 0.0
N167 N 0.34059 0.56616 0.83337 0.0
N168 N 0.29881 0.56349 0.85887 0.0
C169 C 0.32314 0.54462 0.84724 0.0
H170 H 0.28485 0.62106 0.85755 0.0
Co171 Co 0.26292 0.54363 0.87609 0.0
C172 C 0.30229 0.4841 0.89767 0.0
O173 O 0.29646 0.501 0.91542 0.0
N174 N 0.22662 0.52267 0.89309 0.0
C175 C 0.18837 0.48068 0.90593 0.0
C176 C 0.21596 0.48709 0.89195 0.0
C177 C 0.20481 0.53732 0.90791 0.0
N178 N 0.18135 0.51234 0.91593 0.0
O179 O 0.28461 0.56914 0.89923 0.0
H180 H 0.22748 0.46688 0.88151 0.0
H181 H 0.20523 0.56583 0.9125 0.0
O182 O 0.2926 0.49962 0.88069 0.0
C183 C 0.268 0.59986 0.90108 0.0
O184 O 0.24012 0.60693 0.88868 0.0
N185 N 0.23989 0.52317 0.85287 0.0
C186 C 0.19956 0.50333 0.81771 0.0
C187 C 0.23032 0.48268 0.82395 0.0
C188 C 0.2502 0.4931 0.84163 0.0
C189 C 0.21026 0.54355 0.84702 0.0
C190 C 0.1896 0.53407 0.82957 0.0
H191 H 0.27391 0.47722 0.84604 0.0
H192 H 0.20267 0.56742 0.85607 0.0
H193 H 0.3264 0.51512 0.84791 0.0
H194 H 0.33419 0.62421 0.82731 0.0
H195 H 0.17467 0.45469 0.90859 0.0
H196 H 0.23928 0.45901 0.81511 0.0
H197 H 0.16579 0.5505 0.82556 0.0
C198 C 0.49904 0.77122 0.3385 0.0
C199 C 0.49218 0.7968 0.32333 0.0
N200 N 0.50395 0.82995 0.33005 0.0
N201 N 0.51585 0.78764 0.35469 0.0
C202 C 0.51627 0.8237 0.34965 0.0
H203 H 0.49463 0.74191 0.33717 0.0
Co204 Co 0.53627 0.76069 0.37684 0.0
C205 C 0.59928 0.8201 0.37406 0.0
O206 O 0.59151 0.83619 0.35634 0.0
N207 N 0.55623 0.73343 0.39882 0.0
C208 C 0.59733 0.70425 0.4184 0.0
C209 C 0.59249 0.72714 0.40171 0.0
C210 C 0.53951 0.71352 0.4138 0.0
N211 N 0.56398 0.69559 0.42594 0.0
O212 O 0.50424 0.78655 0.39576 0.0
H213 H 0.61409 0.73696 0.39161 0.0
H214 H 0.51002 0.71123 0.41543 0.0
O215 O 0.5785 0.79443 0.38096 0.0
C216 C 0.47476 0.7677 0.39339 0.0
O217 O 0.47647 0.73789 0.38186 0.0
N218 N 0.56322 0.73233 0.35776 0.0
C219 C 0.58519 0.68699 0.3253 0.0
C220 C 0.59363 0.72451 0.32501 0.0
C221 C 0.58266 0.74676 0.34155 0.0
C222 C 0.55552 0.6956 0.35838 0.0
C223 C 0.56691 0.67225 0.34246 0.0
H224 H 0.58698 0.77586 0.34031 0.0
H225 H 0.53862 0.68458 0.37071 0.0
H226 H 0.52669 0.84478 0.3599 0.0
H227 H 0.48247 0.79046 0.30783 0.0
H228 H 0.62324 0.693 0.42374 0.0
H229 H 0.60727 0.73674 0.31174 0.0
H230 H 0.55953 0.6434 0.34293 0.0
C231 C 0.30706 0.9918 0.84119 0.0
C232 C 0.27976 0.98854 0.82639 0.0
N233 N 0.25088 0.00884 0.83259 0.0
N234 N 0.2953 0.0141 0.85655 0.0
C235 C 0.26077 0.02338 0.851 0.0
H236 H 0.33468 0.98101 0.84001 0.0
Co237 Co 0.32394 0.03373 0.87793 0.0
C238 C 0.26156 0.09265 0.88931 0.0
O239 O 0.2284 0.08123 0.89408 0.0
N240 N 0.35224 0.05385 0.89923 0.0
C241 C 0.38072 0.09515 0.91893 0.0
C242 C 0.35681 0.09017 0.90269 0.0
C243 C 0.37395 0.03726 0.91344 0.0
N244 N 0.39156 0.06183 0.92565 0.0
O245 O 0.30344 0.99806 0.89668 0.0
H246 H 0.34493 0.11176 0.89331 0.0
H247 H 0.37739 0.00782 0.91457 0.0
O248 O 0.2864 0.0693 0.88478 0.0
C249 C 0.32251 0.96924 0.89331 0.0
O250 O 0.35104 0.97207 0.88088 0.0
N251 N 0.34635 0.06497 0.85882 0.0
C252 C 0.38533 0.09591 0.82602 0.0
C253 C 0.34769 0.10332 0.82849 0.0
C254 C 0.32859 0.08765 0.8452 0.0
C255 C 0.38292 0.05785 0.85668 0.0
C256 C 0.40308 0.07353 0.84061 0.0
H257 H 0.29932 0.09193 0.84649 0.0
H258 H 0.39622 0.03853 0.86703 0.0
H259 H 0.24393 0.04284 0.85929 0.0
H260 H 0.28229 0.97537 0.81136 0.0
H261 H 0.39085 0.12129 0.92458 0.0
H262 H 0.33309 0.12028 0.81736 0.0
H263 H 0.43191 0.06664 0.83896 0.0
C264 C 0.04279 0.92595 0.45078 0.0
C265 C 0.01539 0.93017 0.43553 0.0
C266 C 0.04805 0.95294 0.46591 0.0
C267 C 1.0028 0.03138 0.49144 0.0
H268 H 0.10272 0.06242 0.50322 0.0
C269 C 0.03694 0.16083 0.5398 0.0
C270 C 0.06599 0.15764 0.55412 0.0
C271 C 0.02996 0.13269 0.52555 0.0
C272 C 0.07468 0.05377 0.50027 0.0
H273 H 0.97208 0.96602 0.42419 0.0
H274 H 0.98123 0.01301 0.45059 0.0
H275 H 0.09182 0.01303 0.47839 0.0
H276 H 0.10968 0.12207 0.56521 0.0
H277 H 0.09748 0.07306 0.54047 0.0
H278 H 0.98569 0.07222 0.51332 0.0
C279 C 0.99827 0.98861 0.45102 0.0
C280 C 0.06847 0.02547 0.48609 0.0
C281 C 0.99304 0.96166 0.43591 0.0
C282 C 0.08764 0.12568 0.55407 0.0
C283 C 0.08062 0.09758 0.53991 0.0
C284 C 0.00902 0.05968 0.50567 0.0
C285 C 0.02599 0.98464 0.46608 0.0
C286 C 0.03248 0.01402 0.48153 0.0
C287 C 0.05186 0.10086 0.52543 0.0
C288 C 0.04504 0.07113 0.51022 0.0
H289 H 0.06002 0.9017 0.45109 0.0
H290 H 0.06929 0.94895 0.47753 0.0
H291 H 0.97478 0.0228 0.48836 0.0
H292 H 0.02004 0.18531 0.53941 0.0
H293 H 0.00784 0.13613 0.5144 0.0
C294 C 0.96526 0.58392 0.05445 0.0
C295 C 0.93291 0.5628 0.05441 0.0
C296 C 0.99196 0.57859 0.03926 0.0
C297 C 0.02597 0.51062 0.00201 0.0
H298 H 0.07235 0.59506 0.97612 0.0
C299 C 0.12137 0.49714 0.93139 0.0
C300 C 0.15362 0.51839 0.93141 0.0
C301 C 0.0944 0.50279 0.94639 0.0
C302 C 0.05992 0.57125 0.98339 0.0
H303 H 0.90298 0.51977 0.03831 0.0
H304 H 0.94984 0.51032 0.01171 0.0
H305 H 0.02466 0.60442 0.00221 0.0
H306 H 0.18312 0.56199 0.94727 0.0
H307 H 0.13589 0.57188 0.97361 0.0
H308 H 0.06127 0.47744 0.98325 0.0
C309 C 0.95462 0.53073 0.02368 0.0
C310 C 0.03262 0.57659 -0.00172 0.0
C311 C 0.92786 0.53609 0.0389 0.0
C312 C 0.15832 0.54554 0.94672 0.0
C313 C 0.13133 0.55118 0.96177 0.0
C314 C 0.05328 0.50528 0.98714 0.0
C315 C 0.98689 0.55198 0.02372 0.0
C316 C 0.01542 0.54632 0.00772 0.0
C317 C 0.09914 0.52979 0.96175 0.0
C318 C 0.07049 0.53554 0.97768 0.0
H319 H 0.97025 0.60424 0.06641 0.0
H320 H 0.01686 0.59492 0.03988 0.0
H321 H 0.01355 0.48681 0.00929 0.0
H322 H 0.11667 0.4765 0.91957 0.0
H323 H 0.06958 0.48635 0.94578 0.0
C324 C 0.56143 0.4378 0.54643 0.0
C325 C 0.5311 0.41422 0.5442 0.0
C326 C 0.56552 0.46807 0.5333 0.0
C327 C 0.50997 0.52973 0.50075 0.0
H328 H 0.60443 0.56233 0.47988 0.0
C329 C 0.5263 0.64463 0.43952 0.0
C330 C 0.55669 0.6682 0.44148 0.0
C331 C 0.5222 0.61477 0.45295 0.0
C332 C 0.57792 0.55384 0.48584 0.0
H333 H 0.48272 0.40219 0.52573 0.0
H334 H 0.49011 0.45479 0.50251 0.0
H335 H 0.60072 0.50599 0.50029 0.0
H336 H 0.60516 0.68066 0.45979 0.0
H337 H 0.59778 0.62878 0.4835 0.0
H338 H 0.48716 0.57757 0.48628 0.0
C339 C 0.51016 0.45048 0.51476 0.0
C340 C 0.5758 0.52152 0.49746 0.0
C341 C 0.50599 0.42035 0.52795 0.0
C342 C 0.58183 0.6625 0.45777 0.0
C343 C 0.57767 0.63278 0.47125 0.0
C344 C 0.51208 0.56206 0.48913 0.0
C345 C 0.53945 0.47517 0.51763 0.0
C346 C 0.54179 0.50909 0.50498 0.0
C347 C 0.54833 0.60807 0.46865 0.0
C348 C 0.54608 0.57443 0.48154 0.0
H349 H 0.58094 0.43394 0.55898 0.0
H350 H 0.58821 0.48677 0.536 0.0
H351 H 0.48345 0.52122 0.50669 0.0
H352 H 0.50676 0.64813 0.42695 0.0
H353 H 0.49947 0.59603 0.45045 0.0
C354 C 0.44246 0.02377 0.93917 0.0
C355 C 0.4196 0.05473 0.94091 0.0
C356 C 0.47223 0.01916 0.95265 0.0
C357 C 0.53503 0.07333 0.98495 0.0
H358 H 0.56176 0.97904 0.00868 0.0
C359 C 0.64661 0.05622 0.04806 0.0
C360 C 0.66903 0.02485 0.04708 0.0
C361 C 0.61728 0.06051 0.03425 0.0
C362 C 0.55492 0.00545 0.00192 0.0
H363 H 0.40853 0.10383 0.95893 0.0
H364 H 0.46054 0.0958 0.98248 0.0
H365 H 0.5065 0.98405 0.98729 0.0
H366 H 0.67987 0.97459 0.03011 0.0
H367 H 0.62879 0.98219 0.00581 0.0
H368 H 0.58343 0.09474 -0.00048 0.0
C369 C 0.45589 0.07554 0.97041 0.0
C370 C 0.52324 0.00831 0.98975 0.0
C371 C 0.42614 0.08011 0.95696 0.0
C372 C 0.66259 0.99869 0.03143 0.0
C373 C 0.63334 1.003 0.01758 0.0
C374 C 0.56673 0.07045 -0.00292 0.0
C375 C 0.47966 0.04543 0.9681 0.0
C376 C 0.51295 0.0423 0.98121 0.0
C377 C 0.60992 0.03356 0.01914 0.0
C378 C 0.57697 0.0365 0.00571 0.0
H379 H 0.43837 0.00393 0.92684 0.0
H380 H 0.49027 0.99581 0.95043 0.0
H381 H 0.52808 0.09975 0.97824 0.0
H382 H 0.65062 0.07663 0.0601 0.0
H383 H 0.5995 0.08418 0.03595 0.0
C384 C 0.21601 0.06055 0.81822 0.0
C385 C 0.22203 0.02255 0.81949 0.0
C386 C 0.19094 0.07479 0.80399 0.0
C387 C 0.14657 0.05043 0.75421 0.0
H388 H 0.10633 0.14818 0.76154 0.0
C389 C 0.11964 0.14396 0.68454 0.0
C390 C 0.09246 0.17104 0.68567 0.0
C391 C 0.12755 0.12228 0.70187 0.0
C392 C 0.11656 0.12056 0.7592 0.0
H393 H 0.20564 0.96938 0.80777 0.0
H394 H 0.16004 0.99404 0.78331 0.0
H395 H 0.13024 0.11528 0.79134 0.0
H396 H 0.0513 0.19654 0.70509 0.0
H397 H 0.06391 0.15771 0.73532 0.0
H398 H 0.13152 0.05513 0.72222 0.0
C399 C 0.17555 0.01303 0.79287 0.0
C400 C 0.13094 0.10184 0.77633 0.0
C401 C 0.2014 0.9988 0.80689 0.0
C402 C 0.07269 0.17589 0.70413 0.0
C403 C 0.08007 0.15374 0.72139 0.0
C404 C 0.13132 0.06876 0.73719 0.0
C405 C 0.17068 0.05134 0.79087 0.0
C406 C 0.14787 0.06734 0.77386 0.0
C407 C 0.10782 0.12678 0.72054 0.0
C408 C 0.11778 0.10478 0.73925 0.0
H409 H 0.23214 0.07947 0.82751 0.0
H410 H 0.18899 0.10438 0.80265 0.0
H411 H 0.15921 0.02392 0.75157 0.0
H412 H 0.13509 0.13996 0.67032 0.0
H413 H 0.14973 0.10258 0.70068 0.0
C414 C 0.04128 0.69421 0.32417 0.0
C415 C 0.06375 0.72446 0.31948 0.0
C416 C 0.02569 0.67313 0.30824 0.0
C417 C 0.02789 0.65753 0.25068 0.0
H418 H 0.92574 0.63068 0.25895 0.0
C419 C 0.92682 0.62809 0.18338 0.0
C420 C 0.90515 0.59641 0.1852 0.0
C421 C 0.94841 0.63986 0.2001 0.0
C422 C 0.95437 0.63764 0.25651 0.0
H423 H 0.08825 0.75587 0.29446 0.0
H424 H 0.06059 0.71994 0.26672 0.0
H425 H 0.96074 0.65695 0.28767 0.0
H426 H 0.88849 0.55208 0.20553 0.0
H427 H 0.9256 0.57326 0.23519 0.0
H428 H 0.02067 0.63968 0.21915 0.0
C429 C 0.05562 0.71163 0.28264 0.0
C430 C 0.97458 0.65251 0.27299 0.0
C431 C 0.07154 0.73235 0.29857 0.0
C432 C 0.905 0.57672 0.20395 0.0
C433 C 0.92612 0.58881 0.22082 0.0
C434 C 0.0075 0.64314 0.23412 0.0
C435 C 0.03182 0.68223 0.28724 0.0
C436 C 0.0115 0.66311 0.27024 0.0
C437 C 0.94819 0.62038 0.21899 0.0
C438 C 0.97044 0.63347 0.23683 0.0
H439 H 0.03513 0.68742 0.34019 0.0
H440 H 0.0082 0.6502 0.3124 0.0
H441 H 0.05642 0.66464 0.24806 0.0
H442 H 0.92732 0.64346 0.16894 0.0
H443 H 0.9649 0.66447 0.19838 0.0
C444 C 0.35034 0.52077 0.80562 0.0
C445 C 0.36071 0.55361 0.81552 0.0
C446 C 0.36808 0.50928 0.78761 0.0
C447 C 0.45254 0.50996 0.75956 0.0
H448 H 0.3915 0.48646 0.71174 0.0
C449 C 0.49157 0.4065 0.6954 0.0
C450 C 0.48581 0.41724 0.67468 0.0
C451 C 0.47983 0.4289 0.71169 0.0
C452 C 0.40894 0.49335 0.72486 0.0
H453 H 0.39804 0.59992 0.81458 0.0
H454 H 0.43015 0.57906 0.78298 0.0
H455 H 0.36396 0.51542 0.74229 0.0
H456 H 0.46367 0.45961 0.65458 0.0
H457 H 0.44183 0.49842 0.68325 0.0
H458 H 0.49717 0.48602 0.74249 0.0
C459 C 0.40794 0.56262 0.78925 0.0
C460 C 0.3932 0.50973 0.74231 0.0
C461 C 0.38964 0.57452 0.80718 0.0
C462 C 0.46832 0.45084 0.67048 0.0
C463 C 0.45591 0.47293 0.6868 0.0
C464 C 0.4682 0.49293 0.7422 0.0
C465 C 0.39685 0.53015 0.77921 0.0
C466 C 0.41472 0.51753 0.75992 0.0
C467 C 0.46157 0.46211 0.70754 0.0
C468 C 0.44635 0.48394 0.72487 0.0
H469 H 0.32774 0.5044 0.81146 0.0
H470 H 0.3593 0.484 0.7802 0.0
H471 H 0.46955 0.5156 0.77304 0.0
H472 H 0.50533 0.38084 0.69896 0.0
H473 H 0.48413 0.41979 0.72756 0.0
C474 C 0.49855 0.86283 0.29638 0.0
C475 C 0.51288 0.86087 0.31673 0.0
C476 C 0.51432 0.88606 0.28156 0.0
C477 C 0.60449 0.92664 0.27053 0.0
H478 H 0.55378 0.9683 0.22296 0.0
C479 C 0.68356 0.99344 0.20244 0.0
C480 C 0.67059 0.98577 0.1823 0.0
C481 C 0.66276 0.98383 0.21987 0.0
C482 C 0.56839 0.95658 0.23608 0.0
H483 H 0.55165 0.88669 0.33799 0.0
H484 H 0.57857 0.92734 0.3123 0.0
H485 H 0.51832 0.94457 0.25219 0.0
H486 H 0.62592 0.96184 0.16457 0.0
H487 H 0.58996 0.94409 0.19498 0.0
H488 H 0.65448 0.93761 0.25425 0.0
C489 C 0.55615 0.90955 0.30761 0.0
C490 C 0.54803 0.94311 0.25288 0.0
C491 C 0.54044 0.88621 0.32244 0.0
C492 C 0.63641 0.96832 0.17992 0.0
C493 C 0.61575 0.95839 0.19736 0.0
C494 C 0.62482 0.94004 0.25374 0.0
C495 C 0.54446 0.90844 0.28677 0.0
C496 C 0.56581 0.92733 0.27015 0.0
C497 C 0.62863 0.96605 0.21756 0.0
C498 C 0.60702 0.95454 0.23612 0.0
H499 H 0.47648 0.84489 0.29146 0.0
H500 H 0.50435 0.88459 0.2657 0.0
H501 H 0.61915 0.91414 0.2834 0.0
H502 H 0.70956 0.00746 0.2047 0.0
H503 H 0.6733 0.99068 0.23515 0.0
C504 C 0.95356 0.90364 0.29347 0.0
C505 C 0.9902 0.90548 0.30036 0.0
C506 C 0.94259 0.92204 0.27546 0.0
C507 C 0.96529 0.99983 0.24175 0.0
H508 H 0.89518 0.95242 0.20497 0.0
C509 C 0.89077 0.06934 0.17027 0.0
C510 C 0.85246 0.06667 0.17251 0.0
C511 C 0.91416 0.04946 0.18357 0.0
C512 C 0.91505 0.96587 0.21499 0.0
H513 H 0.04416 0.92792 0.29348 0.0
H514 H 0.02468 0.96062 0.26213 0.0
H515 H 0.92396 0.91708 0.23282 0.0
H516 H 0.80849 0.04037 0.18965 0.0
H517 H 0.84886 0.00586 0.21259 0.0
H518 H 0.95512 0.04906 0.22416 0.0
C519 C 0.00452 0.94497 0.2708 0.0
C520 C 0.93133 0.94575 0.23099 0.0
C521 C 0.01559 0.92634 0.28879 0.0
C522 C 0.83793 0.04369 0.188 0.0
C523 C 0.86101 0.02355 0.2009 0.0
C524 C 0.94897 0.02003 0.22563 0.0
C525 C 0.96793 0.94285 0.2639 0.0
C526 C 0.95552 0.96284 0.24503 0.0
C527 C 0.89928 0.02594 0.19876 0.0
C528 C 0.92268 0.00349 0.21264 0.0
H529 H 0.93312 0.88846 0.30219 0.0
H530 H 0.91399 0.92052 0.27079 0.0
H531 H 0.98384 0.01372 0.25235 0.0
H532 H 0.90239 0.08644 0.15816 0.0
H533 H 0.94367 0.05166 0.18167 0.0
C534 C 0.16346 0.5198 0.78564 0.0
C535 C 0.17757 0.49277 0.79913 0.0
C536 C 0.14132 0.51001 0.76873 0.0
C537 C 0.08228 0.43429 0.74979 0.0
H538 H 0.09374 0.48104 0.69598 0.0
C539 C 0.99638 0.38375 0.68162 0.0
C540 C 0.01737 0.37504 0.66394 0.0
C541 C 0.01047 0.40708 0.69696 0.0
C542 C 0.09012 0.46778 0.71091 0.0
H543 H 0.17979 0.43418 0.80522 0.0
H544 H 0.14202 0.41701 0.77545 0.0
H545 H 0.13156 0.50116 0.72526 0.0
H546 H 0.06701 0.38933 0.64709 0.0
H547 H 0.09193 0.42873 0.67387 0.0
H548 H 0.04236 0.39966 0.7354 0.0
C549 C 0.14751 0.44588 0.77816 0.0
C550 C 0.11161 0.4795 0.72775 0.0
C551 C 0.16961 0.45567 0.79507 0.0
C552 C 0.05046 0.39425 0.6607 0.0
C553 C 0.06474 0.41729 0.67611 0.0
C554 C 0.06094 0.42253 0.73301 0.0
C555 C 0.13278 0.47295 0.7649 0.0
C556 C 0.10842 0.46237 0.74728 0.0
C557 C 0.04586 0.42226 0.69495 0.0
C558 C 0.06498 0.43866 0.71325 0.0
H559 H 0.16951 0.54862 0.78816 0.0
H560 H 0.13033 0.53154 0.75889 0.0
H561 H 0.07862 0.42097 0.76471 0.0
H562 H 0.97009 0.37063 0.68427 0.0
H563 H 0.9945 0.41151 0.71093 0.0
C564 C 0.61831 0.63565 0.30777 0.0
C565 C 0.59239 0.66405 0.30693 0.0
C566 C 0.62611 0.61507 0.28997 0.0
C567 C 0.61945 0.62238 0.23268 0.0
H568 H 0.65756 0.52295 0.23519 0.0
C569 C 0.71675 0.56733 0.17112 0.0
C570 C 0.71586 0.53011 0.16532 0.0
C571 C 0.6945 0.58032 0.18707 0.0
C572 C 0.64633 0.55046 0.23412 0.0
H573 H 0.55252 0.69211 0.28763 0.0
H574 H 0.56483 0.65531 0.25669 0.0
H575 H 0.63024 0.55035 0.26611 0.0
H576 H 0.69041 0.47742 0.17155 0.0
H577 H 0.65095 0.50032 0.19959 0.0
H578 H 0.63507 0.62239 0.20069 0.0
C579 C 0.58033 0.64963 0.27072 0.0
C580 C 0.63117 0.56641 0.25194 0.0
C581 C 0.57313 0.67064 0.28841 0.0
C582 C 0.69173 0.50621 0.17574 0.0
C583 C 0.66924 0.5193 0.19178 0.0
C584 C 0.63413 0.60631 0.21487 0.0
C585 C 0.60756 0.62213 0.27111 0.0
C586 C 0.61867 0.60303 0.25162 0.0
C587 C 0.67058 0.55653 0.19768 0.0
C588 C 0.64903 0.5707 0.21556 0.0
H589 H 0.63329 0.63016 0.32203 0.0
H590 H 0.64762 0.59458 0.29085 0.0
H591 H 0.6104 0.65067 0.23173 0.0
H592 H 0.73571 0.58637 0.16392 0.0
H593 H 0.69709 0.6089 0.19156 0.0
C594 C 0.43966 0.12723 0.81021 0.0
C595 C 0.40594 0.10903 0.80766 0.0
C596 C 0.46068 0.13707 0.79292 0.0
C597 C 0.454 0.1509 0.73576 0.0
H598 H 0.56039 0.15363 0.74 0.0
C599 C 0.54313 0.19784 0.66708 0.0
C600 C 0.56683 0.22714 0.6721 0.0
C601 C 0.52706 0.17661 0.68274 0.0
C602 C 0.53071 0.15286 0.7386 0.0
H603 H 0.36802 0.08596 0.7852 0.0
H604 H 0.40507 0.10217 0.75492 0.0
H605 H 0.52421 0.12982 0.76896 0.0
H606 H 0.59403 0.25526 0.69765 0.0
H607 H 0.5665 0.21788 0.72483 0.0
H608 H 0.46064 0.17389 0.70537 0.0
C609 C 0.41491 0.10998 0.7702 0.0
C610 C 0.5099 0.1395 0.75523 0.0
C611 C 0.3936 0.10069 0.78751 0.0
C612 C 0.57614 0.2329 0.69311 0.0
C613 C 0.5603 0.21145 0.70875 0.0
C614 C 0.47483 0.16377 0.71905 0.0
C615 C 0.44878 0.12832 0.77266 0.0
C616 C 0.47118 0.13919 0.75425 0.0
C617 C 0.53468 0.18391 0.70376 0.0
C618 C 0.51333 0.16565 0.72047 0.0
H619 H 0.44974 0.13388 0.82563 0.0
H620 H 0.48611 0.15187 0.7955 0.0
H621 H 0.42433 0.15158 0.73443 0.0
H622 H 0.53607 0.19198 0.65107 0.0
H623 H 0.50786 0.15513 0.67845 0.0
C624 C 0.93497 0.31461 0.58283 0.0
C625 C 0.95543 0.28396 0.5765 0.0
C626 C 0.89783 0.31781 0.57721 0.0
C627 C 0.82077 0.25549 0.56509 0.0
H628 H 0.76571 0.34615 0.56013 0.0
C629 C 0.66155 0.3161 0.56058 0.0
C630 C 0.64587 0.2955 0.57673 0.0
C631 C 0.69851 0.31137 0.55527 0.0
C632 C 0.78055 0.32042 0.56112 0.0
H633 H 0.95439 0.23415 0.55818 0.0
H634 H 0.8903 0.24055 0.54745 0.0
H635 H 0.83259 0.34783 0.5591 0.0
H636 H 0.65579 0.25311 0.5996 0.0
H637 H 0.72045 0.24481 0.59056 0.0
H638 H 0.76879 0.22808 0.56728 0.0
C639 C 0.90236 0.26172 0.55715 0.0
C640 C 0.81903 0.32149 0.56078 0.0
C641 C 0.93928 0.2584 0.56294 0.0
C642 C 0.66702 0.26843 0.58663 0.0
C643 C 0.70419 0.26396 0.58151 0.0
C644 C 0.78231 0.2544 0.56539 0.0
C645 C 0.88061 0.29036 0.56514 0.0
C646 C 0.8397 0.28912 0.56309 0.0
C647 C 0.72081 0.28651 0.56635 0.0
C648 C 0.76163 0.28691 0.56375 0.0
H649 H 0.94653 0.33404 0.59383 0.0
H650 H 0.88197 0.34013 0.58378 0.0
H651 H 0.83565 0.22999 0.56726 0.0
H652 H 0.64588 0.33767 0.55304 0.0
H653 H 0.71009 0.32862 0.54322 0.0
C654 C 0.77311 0.43047 0.07936 0.0
C655 C 0.80421 0.44991 0.07263 0.0
C656 C 0.76817 0.39357 0.07368 0.0
C657 C 0.82788 0.31513 0.06164 0.0
H658 H 0.73615 0.26091 0.05963 0.0
C659 C 0.78077 0.15334 0.06156 0.0
C660 C 0.78591 0.14442 0.08263 0.0
C661 C 0.78511 0.18983 0.05477 0.0
C662 C 0.76198 0.27576 0.05977 0.0
H663 H 0.85288 0.44738 0.05347 0.0
H664 H 0.84342 0.38371 0.04263 0.0
H665 H 0.73545 0.32814 0.05643 0.0
H666 H 0.80006 0.16595 0.11297 0.0
H667 H 0.80906 0.22913 0.10099 0.0
H668 H 0.85404 0.26284 0.06621 0.0
C669 C 0.82323 0.39641 0.05268 0.0
C670 C 0.7616 0.31423 0.05814 0.0
C671 C 0.82835 0.43308 0.05858 0.0
C672 C 0.79712 0.17198 0.09654 0.0
C673 C 0.80191 0.20811 0.08974 0.0
C674 C 0.82816 0.27682 0.0635 0.0
C675 C 0.79428 0.37553 0.06112 0.0
C676 C 0.79451 0.33451 0.05951 0.0
C677 C 0.79493 0.21757 0.06896 0.0
C678 C 0.79521 0.25688 0.06297 0.0
H679 H 0.75472 0.44255 0.09071 0.0
H680 H 0.74571 0.37841 0.08064 0.0
H681 H 0.85375 0.32964 0.06313 0.0
H682 H 0.77108 0.13271 0.05071 0.0
H683 H 0.77955 0.19663 0.03866 0.0
C684 C 0.4321 0.79579 0.4204 0.0
C685 C 0.43803 0.77884 0.40103 0.0
C686 C 0.39596 0.80015 0.42798 0.0
C687 C 0.30641 0.7564 0.42484 0.0
H688 H 0.25836 0.85096 0.42923 0.0
C689 C 0.15294 0.77557 0.4075 0.0
C690 C 0.13461 0.8068 0.41489 0.0
C691 C 0.18972 0.76921 0.41296 0.0
C692 C 0.27124 0.82417 0.42871 0.0
H693 H 0.41094 0.7556 0.37393 0.0
H694 H 0.34907 0.76293 0.38709 0.0
H695 H 0.32506 0.84809 0.42582 0.0
H696 H 0.13891 0.85424 0.43496 0.0
H697 H 0.20216 0.84193 0.44572 0.0
H698 H 0.25298 0.7322 0.42712 0.0
C699 C 0.3719 0.7722 0.39661 0.0
C700 C 0.3096 0.82268 0.42672 0.0
C701 C 0.40742 0.76814 0.38908 0.0
C702 C 0.15242 0.82967 0.4293 0.0
C703 C 0.18892 0.82295 0.43512 0.0
C704 C 0.2682 0.75779 0.4271 0.0
C705 C 0.36572 0.78734 0.41629 0.0
C706 C 0.32732 0.78886 0.42394 0.0
C707 C 0.20878 0.7938 0.42613 0.0
C708 C 0.24981 0.79177 0.42816 0.0
H709 H 0.4552 0.80411 0.42997 0.0
H710 H 0.3917 0.81224 0.44317 0.0
H711 H 0.31953 0.72992 0.42273 0.0
H712 H 0.14011 0.75816 0.39589 0.0
H713 H 0.20387 0.74669 0.40545 0.0
C714 C 0.29395 0.92654 0.92 0.0
C715 C 0.31256 0.93232 0.90112 0.0
C716 C 0.28876 0.89054 0.92754 0.0
C717 C 0.33192 0.8012 0.92626 0.0
H718 H 0.23691 0.75321 0.92691 0.0
C719 C 0.31399 0.64858 0.9076 0.0
C720 C 0.28201 0.63024 0.91386 0.0
C721 C 0.32002 0.68511 0.91357 0.0
C722 C 0.26372 0.76611 0.92746 0.0
H723 H 0.33786 0.90514 0.87472 0.0
H724 H 0.32899 0.84332 0.88782 0.0
H725 H 0.24032 0.8199 0.92338 0.0
H726 H 0.23284 0.63406 0.93255 0.0
H727 H 0.24442 0.69694 0.94416 0.0
H728 H 0.35567 0.74778 0.92966 0.0
C729 C 0.3192 0.86625 0.89703 0.0
C730 C 0.26552 0.80442 0.9254 0.0
C731 C 0.32423 0.90172 0.88956 0.0
C732 C 0.25799 0.64761 0.92778 0.0
C733 C 0.26432 0.68387 0.93409 0.0
C734 C 0.33018 0.76304 0.92859 0.0
C735 C 0.30225 0.86027 0.91625 0.0
C736 C 0.29967 0.82204 0.92395 0.0
C737 C 0.2943 0.70383 0.9261 0.0
C738 C 0.29611 0.74473 0.92829 0.0
H739 H 0.28464 0.94968 0.92918 0.0
H740 H 0.27531 0.88638 0.94236 0.0
H741 H 0.35861 0.8143 0.92517 0.0
H742 H 0.33232 0.63608 0.89638 0.0
H743 H 0.34321 0.69943 0.90683 0.0
C744 C 0.43638 0.25711 0.57185 0.0
C745 C 0.45696 0.26159 0.59024 0.0
C746 C 0.39781 0.25789 0.57231 0.0
C747 C 0.31742 0.25792 0.60903 0.0
H748 H 0.26932 0.31253 0.56485 0.0
C749 C 0.17798 0.32755 0.62049 0.0
C750 C 0.14968 0.31577 0.6071 0.0
C751 C 0.21466 0.3193 0.61614 0.0
C752 C 0.28241 0.29698 0.57718 0.0
H753 H 0.45281 0.26746 0.6237 0.0
H754 H 0.38648 0.27018 0.62449 0.0
H755 H 0.33473 0.29765 0.56199 0.0
H756 H 0.13817 0.28878 0.57773 0.0
H757 H 0.20284 0.27509 0.56991 0.0
H758 H 0.26547 0.25916 0.62466 0.0
C759 C 0.39964 0.26557 0.60964 0.0
C760 C 0.31985 0.28815 0.57553 0.0
C761 C 0.43801 0.26435 0.60919 0.0
C762 C 0.15929 0.29791 0.58846 0.0
C763 C 0.19622 0.29012 0.58395 0.0
C764 C 0.28033 0.26736 0.61083 0.0
C765 C 0.37889 0.26334 0.59116 0.0
C766 C 0.33811 0.26908 0.59165 0.0
C767 C 0.22407 0.29969 0.59813 0.0
C768 C 0.26262 0.28749 0.59511 0.0
H769 H 0.45 0.25481 0.55694 0.0
H770 H 0.38291 0.25518 0.5578 0.0
H771 H 0.32996 0.24232 0.62151 0.0
H772 H 0.17174 0.34137 0.63497 0.0
H773 H 0.2357 0.3274 0.62719 0.0
C774 C 0.77927 0.65931 0.06815 0.0
C775 C 0.77925 0.63903 0.08681 0.0
C776 C 0.77989 0.6979 0.06847 0.0
C777 C 0.77067 0.77887 0.10462 0.0
H778 H 0.83122 0.8281 0.06354 0.0
C779 C 0.83457 0.92023 0.11915 0.0
C780 C 0.82308 0.94826 0.10553 0.0
C781 C 0.82828 0.88333 0.11435 0.0
C782 C 0.814 0.81468 0.07498 0.0
H783 H 0.77709 0.64397 0.12036 0.0
H784 H 0.78017 0.71018 0.12104 0.0
H785 H 0.81922 0.76215 0.06029 0.0
H786 H 0.79882 0.95925 0.07536 0.0
H787 H 0.78845 0.8941 0.06673 0.0
H788 H 0.7674 0.83111 0.11989 0.0
C789 C 0.77903 0.69678 0.10603 0.0
C790 C 0.80684 0.77688 0.0731 0.0
C791 C 0.77775 0.65839 0.10569 0.0
C792 C 0.80753 0.93829 0.08627 0.0
C793 C 0.80171 0.90111 0.08131 0.0
C794 C 0.77847 0.8163 0.1067 0.0
C795 C 0.78086 0.71724 0.08745 0.0
C796 C 0.78556 0.75822 0.08813 0.0
C797 C 0.81099 0.87343 0.09564 0.0
C798 C 0.80062 0.83446 0.0921 0.0
H799 H 0.78017 0.64543 0.05327 0.0
H800 H 0.78031 0.71246 0.05379 0.0
H801 H 0.75325 0.7661 0.11618 0.0
H802 H 0.84661 0.92677 0.13413 0.0
H803 H 0.83603 0.86246 0.12556 0.0
C804 C 0.64796 0.80668 0.40119 0.0
C805 C 0.63757 0.82296 0.38216 0.0
C806 C 0.68528 0.8022 0.4063 0.0
C807 C 0.76955 0.78291 0.37995 0.0
H808 H 0.82489 0.81747 0.42766 0.0
C809 C 0.92723 0.78128 0.38008 0.0
C810 C 0.94695 0.77862 0.39884 0.0
C811 C 0.88888 0.78342 0.38005 0.0
C812 C 0.80976 0.80689 0.41444 0.0
H813 H 0.65855 0.8506 0.35467 0.0
H814 H 0.72306 0.84253 0.36357 0.0
H815 H 0.75884 0.83039 0.42515 0.0
H816 H 0.94121 0.77367 0.4323 0.0
H817 H 0.8741 0.77567 0.43218 0.0
H818 H 0.8194 0.75863 0.36928 0.0
C819 C 0.70236 0.83279 0.37435 0.0
C820 C 0.77197 0.81457 0.41299 0.0
C821 C 0.66529 0.83754 0.36934 0.0
C822 C 0.92702 0.77581 0.41753 0.0
C823 C 0.88845 0.77747 0.41748 0.0
C824 C 0.80693 0.77466 0.38155 0.0
C825 C 0.71273 0.81391 0.39246 0.0
C826 C 0.75181 0.8034 0.39545 0.0
C827 C 0.86883 0.78219 0.39875 0.0
C828 C 0.82795 0.78737 0.39851 0.0
H829 H 0.62733 0.79589 0.41165 0.0
H830 H 0.69263 0.78776 0.42045 0.0
H831 H 0.75442 0.77345 0.36643 0.0
H832 H 0.94138 0.78348 0.36538 0.0
H833 H 0.87517 0.78763 0.36528 0.0
C834 C 0.26831 0.1544 0.87292 0.0
C835 C 0.27033 0.13204 0.89064 0.0
C836 C 0.27623 0.19198 0.87431 0.0
C837 C 0.27916 0.26899 0.91136 0.0
H838 H 0.33895 0.31614 0.86925 0.0
C839 C 0.31146 0.42405 0.91638 0.0
C840 C 0.31026 0.44398 0.89763 0.0
C841 C 0.31185 0.38554 0.91624 0.0
C842 C 0.32184 0.30363 0.88104 0.0
H843 H 0.28169 0.13078 0.92366 0.0
H844 H 0.29567 0.19662 0.92619 0.0
H845 H 0.32757 0.25024 0.86734 0.0
H846 H 0.31185 0.43873 0.86407 0.0
H847 H 0.31067 0.37221 0.86375 0.0
H848 H 0.27213 0.3223 0.9247 0.0
C849 C 0.28787 0.18529 0.91124 0.0
C850 C 0.31542 0.26574 0.87995 0.0
C851 C 0.28002 0.1477 0.90981 0.0
C852 C 0.31191 0.42443 0.87881 0.0
C853 C 0.31172 0.386 0.87865 0.0
C854 C 0.28517 0.30697 0.91232 0.0
C855 C 0.28606 0.20789 0.8935 0.0
C856 C 0.29383 0.248 0.89502 0.0
C857 C 0.31071 0.36591 0.89736 0.0
C858 C 0.3064 0.32496 0.89709 0.0
H859 H 0.26023 0.14289 0.85806 0.0
H860 H 0.27399 0.20874 0.86044 0.0
H861 H 0.26206 0.25623 0.9231 0.0
H862 H 0.31059 0.43811 0.93121 0.0
H863 H 0.31219 0.3712 0.931 0.0
loop_
_geom_bond_atom_site_label_1
_geom_bond_atom_site_label_2
_geom_bond_distance
_geom_bond_site_symmetry_2
_ccdc_geom_bond_type
C0 C1 1.351 . S
C0 N3 1.368 . S
C0 H5 0.931 . S
C1 C0 1.351 . S
C1 N2 1.373 . S
C1 H29 0.930 . S
N2 C1 1.373 . S
N2 C4 1.340 . S
N3 C0 1.368 . S
N3 C4 1.321 . S
N3 Co6 2.135 . S
C4 N2 1.340 . S
C4 N3 1.321 . S
C4 H28 0.930 . S
H5 C0 0.931 . S
Co6 N3 2.135 . S
Co6 N9 2.121 . S
Co6 O14 2.055 . S
Co6 O17 2.039 . S
Co6 N20 2.140 . S
C7 O8 1.227 . S
C7 O17 1.265 . S
O8 C7 1.227 . S
N9 Co6 2.121 . S
N9 C11 1.375 . S
N9 C12 1.313 . S
C10 C11 1.338 . S
C10 N13 1.377 . S
C10 H30 0.930 . S
C11 N9 1.375 . S
C11 C10 1.338 . S
C11 H15 0.931 . S
C12 N9 1.313 . S
C12 N13 1.344 . S
C12 H16 0.930 . S
N13 C10 1.377 . S
N13 C12 1.344 . S
O14 Co6 2.055 . S
O14 C18 1.253 1_455 S
H15 C11 0.931 . S
H16 C12 0.930 . S
O17 Co6 2.039 . S
O17 C7 1.265 . S
C18 O14 1.253 1_655 S
C18 O19 1.227 . S
O19 C18 1.227 . S
N20 Co6 2.140 . S
N20 C23 1.346 . S
N20 C24 1.345 . S
C21 C22 1.387 . S
C21 C25 1.391 . S
C22 C21 1.387 . S
C22 C23 1.369 . S
C22 H31 0.929 . S
C23 N20 1.346 . S
C23 C22 1.369 . S
C23 H26 0.928 . S
C24 N20 1.345 . S
C24 C25 1.371 . S
C24 H27 0.931 . S
C25 C21 1.391 . S
C25 C24 1.371 . S
C25 H32 0.930 . S
H26 C23 0.928 . S
H27 C24 0.931 . S
H28 C4 0.930 . S
H29 C1 0.930 . S
H30 C10 0.930 . S
H31 C22 0.929 . S
H32 C25 0.930 . S
C33 C34 1.351 . S
C33 N36 1.368 . S
C33 H38 0.931 . S
C34 C33 1.351 . S
C34 N35 1.373 . S
C34 H62 0.930 . S
N35 C34 1.373 . S
N35 C37 1.340 . S
N36 C33 1.368 . S
N36 C37 1.321 . S
N36 Co39 2.135 . S
C37 N35 1.340 . S
C37 N36 1.321 . S
C37 H61 0.930 . S
H38 C33 0.931 . S
Co39 N36 2.135 . S
Co39 N42 2.121 . S
Co39 O47 2.055 . S
Co39 O50 2.039 . S
Co39 N53 2.140 . S
C40 O41 1.227 . S
C40 O50 1.265 . S
O41 C40 1.227 . S
N42 Co39 2.121 . S
N42 C44 1.375 . S
N42 C45 1.313 . S
C43 C44 1.338 . S
C43 N46 1.377 . S
C43 H63 0.930 . S
C44 N42 1.375 . S
C44 C43 1.338 . S
C44 H48 0.931 . S
C45 N42 1.313 . S
C45 N46 1.344 . S
C45 H49 0.930 . S
N46 C43 1.377 . S
N46 C45 1.344 . S
O47 Co39 2.055 . S
O47 C51 1.253 . S
H48 C44 0.931 . S
H49 C45 0.930 . S
O50 Co39 2.039 . S
O50 C40 1.265 . S
C51 O47 1.253 . S
C51 O52 1.227 . S
O52 C51 1.227 . S
N53 Co39 2.140 . S
N53 C56 1.346 . S
N53 C57 1.345 . S
C54 C55 1.387 . S
C54 C58 1.391 . S
C55 C54 1.387 . S
C55 C56 1.369 . S
C55 H64 0.929 . S
C56 N53 1.346 . S
C56 C55 1.369 . S
C56 H59 0.928 . S
C57 N53 1.345 . S
C57 C58 1.371 . S
C57 H60 0.931 . S
C58 C54 1.391 . S
C58 C57 1.371 . S
C58 H65 0.930 . S
H59 C56 0.928 . S
H60 C57 0.931 . S
H61 C37 0.930 . S
H62 C34 0.930 . S
H63 C43 0.930 . S
H64 C55 0.929 . S
H65 C58 0.930 . S
C66 C67 1.351 . S
C66 N69 1.368 . S
C66 H71 0.931 . S
C67 C66 1.351 . S
C67 N68 1.373 . S
C67 H95 0.930 . S
N68 C67 1.373 . S
N68 C70 1.340 . S
N69 C66 1.368 . S
N69 C70 1.321 . S
N69 Co72 2.135 . S
C70 N68 1.340 . S
C70 N69 1.321 . S
C70 H94 0.930 . S
H71 C66 0.931 . S
Co72 N69 2.135 . S
Co72 N75 2.121 . S
Co72 O80 2.055 . S
Co72 O83 2.039 . S
Co72 N86 2.140 . S
C73 O74 1.227 . S
C73 O83 1.265 . S
O74 C73 1.227 . S
N75 Co72 2.121 . S
N75 C77 1.375 . S
N75 C78 1.313 . S
C76 C77 1.338 . S
C76 N79 1.377 . S
C76 H96 0.930 . S
C77 N75 1.375 . S
C77 C76 1.338 . S
C77 H81 0.931 . S
C78 N75 1.313 . S
C78 N79 1.344 . S
C78 H82 0.930 . S
N79 C76 1.377 . S
N79 C78 1.344 . S
O80 Co72 2.055 . S
O80 C84 1.253 . S
H81 C77 0.931 . S
H82 C78 0.930 . S
O83 Co72 2.039 . S
O83 C73 1.265 . S
C84 O80 1.253 . S
C84 O85 1.227 . S
O85 C84 1.227 . S
N86 Co72 2.140 . S
N86 C89 1.346 . S
N86 C90 1.345 . S
C87 C88 1.387 . S
C87 C91 1.391 . S
C88 C87 1.387 . S
C88 C89 1.369 . S
C88 H97 0.929 . S
C89 N86 1.346 . S
C89 C88 1.369 . S
C89 H92 0.928 . S
C90 N86 1.345 . S
C90 C91 1.371 . S
C90 H93 0.931 . S
C91 C87 1.391 . S
C91 C90 1.371 . S
C91 H98 0.930 . S
H92 C89 0.928 . S
H93 C90 0.931 . S
H94 C70 0.930 . S
H95 C67 0.930 . S
H96 C76 0.930 . S
H97 C88 0.929 . S
H98 C91 0.930 . S
C99 C100 1.351 . S
C99 N102 1.368 . S
C99 H104 0.931 . S
C100 C99 1.351 . S
C100 N101 1.373 . S
C100 H128 0.930 . S
N101 C100 1.373 . S
N101 C103 1.345 . S
N102 C99 1.368 . S
N102 C103 1.333 . S
N102 Co105 2.135 . S
C103 N101 1.345 . S
C103 N102 1.333 . S
C103 H127 0.916 1_545 S
H104 C99 0.931 . S
Co105 N102 2.135 . S
Co105 N108 2.121 . S
Co105 O113 2.055 . S
Co105 O116 2.039 1_545 S
Co105 N119 2.140 . S
C106 O107 1.227 . S
C106 O116 1.265 . S
O107 C106 1.227 . S
N108 Co105 2.121 . S
N108 C110 1.375 1_545 S
N108 C111 1.313 . S
C109 C110 1.338 . S
C109 N112 1.377 1_565 S
C109 H129 0.930 . S
C110 N108 1.375 1_565 S
C110 C109 1.338 . S
C110 H114 0.931 . S
C111 N108 1.313 . S
C111 N112 1.344 . S
C111 H115 0.930 . S
N112 C109 1.377 1_545 S
N112 C111 1.344 . S
O113 Co105 2.055 . S
O113 C117 1.253 . S
H114 C110 0.931 . S
H115 C111 0.930 . S
O116 Co105 2.039 1_565 S
O116 C106 1.265 . S
C117 O113 1.253 . S
C117 O118 1.227 . S
O118 C117 1.227 . S
N119 Co105 2.140 . S
N119 C122 1.346 1_545 S
N119 C123 1.345 . S
C120 C121 1.387 . S
C120 C124 1.391 1_565 S
C121 C120 1.387 . S
C121 C122 1.369 . S
C121 H130 0.929 . S
C122 N119 1.346 1_565 S
C122 C121 1.369 . S
C122 H125 0.928 . S
C123 N119 1.345 . S
C123 C124 1.371 . S
C123 H126 0.931 . S
C124 C120 1.391 1_545 S
C124 C123 1.371 . S
C124 H131 0.930 . S
H125 C122 0.928 . S
H126 C123 0.931 . S
H127 C103 0.916 1_565 S
H128 C100 0.930 . S
H129 C109 0.930 . S
H130 C121 0.929 . S
H131 C124 0.930 . S
C132 C133 1.351 . S
C132 N135 1.368 . S
C132 H137 0.931 . S
C133 C132 1.351 . S
C133 N134 1.373 . S
C133 H161 0.930 . S
N134 C133 1.373 . S
N134 C136 1.347 . S
N135 C132 1.368 . S
N135 C136 1.340 . S
N135 Co138 2.135 . S
C136 N134 1.347 . S
C136 N135 1.340 . S
C136 H160 0.907 1_455 S
H137 C132 0.931 . S
Co138 N135 2.135 . S
Co138 N141 2.121 . S
Co138 O146 2.055 . S
Co138 O149 2.039 1_455 S
Co138 N152 2.140 . S
C139 O140 1.227 . S
C139 O149 1.265 . S
O140 C139 1.227 . S
N141 Co138 2.121 . S
N141 C143 1.375 1_455 S
N141 C144 1.313 . S
C142 C143 1.338 . S
C142 N145 1.377 1_655 S
C142 H162 0.930 . S
C143 N141 1.375 1_655 S
C143 C142 1.338 . S
C143 H147 0.931 . S
C144 N141 1.313 . S
C144 N145 1.344 . S
C144 H148 0.930 . S
N145 C142 1.377 1_455 S
N145 C144 1.344 . S
O146 Co138 2.055 . S
O146 C150 1.253 . S
H147 C143 0.931 . S
H148 C144 0.930 . S
O149 Co138 2.039 1_655 S
O149 C139 1.265 . S
C150 O146 1.253 . S
C150 O151 1.227 . S
O151 C150 1.227 . S
N152 Co138 2.140 . S
N152 C155 1.346 1_455 S
N152 C156 1.345 . S
C153 C154 1.387 . S
C153 C157 1.391 1_655 S
C154 C153 1.387 . S
C154 C155 1.369 . S
C154 H163 0.929 . S
C155 N152 1.346 1_655 S
C155 C154 1.369 . S
C155 H158 0.928 . S
C156 N152 1.345 . S
C156 C157 1.371 . S
C156 H159 0.931 . S
C157 C153 1.391 1_455 S
C157 C156 1.371 . S
C157 H164 0.930 . S
H158 C155 0.928 . S
H159 C156 0.931 . S
H160 C136 0.907 1_655 S
H161 C133 0.930 . S
H162 C142 0.930 . S
H163 C154 0.929 . S
H164 C157 0.930 . S
C165 C166 1.351 . S
C165 N168 1.368 . S
C165 H170 0.931 . S
C166 C165 1.351 . S
C166 N167 1.373 . S
C166 H194 0.930 . S
N167 C166 1.373 . S
N167 C169 1.340 . S
N168 C165 1.368 . S
N168 C169 1.321 . S
N168 Co171 2.135 . S
C169 N167 1.340 . S
C169 N168 1.321 . S
C169 H193 0.930 . S
H170 C165 0.931 . S
Co171 N168 2.135 . S
Co171 N174 2.121 . S
Co171 O179 2.055 . S
Co171 O182 2.039 . S
Co171 N185 2.140 . S
C172 O173 1.227 . S
C172 O182 1.265 . S
O173 C172 1.227 . S
N174 Co171 2.121 . S
N174 C176 1.375 . S
N174 C177 1.313 . S
C175 C176 1.338 . S
C175 N178 1.377 . S
C175 H195 0.930 . S
C176 N174 1.375 . S
C176 C175 1.338 . S
C176 H180 0.931 . S
C177 N174 1.313 . S
C177 N178 1.344 . S
C177 H181 0.930 . S
N178 C175 1.377 . S
N178 C177 1.344 . S
O179 Co171 2.055 . S
O179 C183 1.253 . S
H180 C176 0.931 . S
H181 C177 0.930 . S
O182 Co171 2.039 . S
O182 C172 1.265 . S
C183 O179 1.253 . S
C183 O184 1.227 . S
O184 C183 1.227 . S
N185 Co171 2.140 . S
N185 C188 1.346 . S
N185 C189 1.345 . S
C186 C187 1.387 . S
C186 C190 1.391 . S
C187 C186 1.387 . S
C187 C188 1.369 . S
C187 H196 0.929 . S
C188 N185 1.346 . S
C188 C187 1.369 . S
C188 H191 0.928 . S
C189 N185 1.345 . S
C189 C190 1.371 . S
C189 H192 0.931 . S
C190 C186 1.391 . S
C190 C189 1.371 . S
C190 H197 0.930 . S
H191 C188 0.928 . S
H192 C189 0.931 . S
H193 C169 0.930 . S
H194 C166 0.930 . S
H195 C175 0.930 . S
H196 C187 0.929 . S
H197 C190 0.930 . S
C198 C199 1.351 . S
C198 N201 1.368 . S
C198 H203 0.931 . S
C199 C198 1.351 . S
C199 N200 1.373 . S
C199 H227 0.930 . S
N200 C199 1.373 . S
N200 C202 1.340 . S
N201 C198 1.368 . S
N201 C202 1.321 . S
N201 Co204 2.135 . S
C202 N200 1.340 . S
C202 N201 1.321 . S
C202 H226 0.930 . S
H203 C198 0.931 . S
Co204 N201 2.135 . S
Co204 N207 2.121 . S
Co204 O212 2.055 . S
Co204 O215 2.039 . S
Co204 N218 2.140 . S
C205 O206 1.227 . S
C205 O215 1.265 . S
O206 C205 1.227 . S
N207 Co204 2.121 . S
N207 C209 1.375 . S
N207 C210 1.313 . S
C208 C209 1.338 . S
C208 N211 1.377 . S
C208 H228 0.930 . S
C209 N207 1.375 . S
C209 C208 1.338 . S
C209 H213 0.931 . S
C210 N207 1.313 . S
C210 N211 1.344 . S
C210 H214 0.930 . S
N211 C208 1.377 . S
N211 C210 1.344 . S
O212 Co204 2.055 . S
O212 C216 1.253 . S
H213 C209 0.931 . S
H214 C210 0.930 . S
O215 Co204 2.039 . S
O215 C205 1.265 . S
C216 O212 1.253 . S
C216 O217 1.227 . S
O217 C216 1.227 . S
N218 Co204 2.140 . S
N218 C221 1.346 . S
N218 C222 1.345 . S
C219 C220 1.387 . S
C219 C223 1.391 . S
C220 C219 1.387 . S
C220 C221 1.369 . S
C220 H229 0.929 . S
C221 N218 1.346 . S
C221 C220 1.369 . S
C221 H224 0.928 . S
C222 N218 1.345 . S
C222 C223 1.371 . S
C222 H225 0.931 . S
C223 C219 1.391 . S
C223 C222 1.371 . S
C223 H230 0.930 . S
H224 C221 0.928 . S
H225 C222 0.931 . S
H226 C202 0.930 . S
H227 C199 0.930 . S
H228 C208 0.930 . S
H229 C220 0.929 . S
H230 C223 0.930 . S
C231 C232 1.351 . S
C231 N234 1.368 . S
C231 H236 0.931 . S
C232 C231 1.351 . S
C232 N233 1.373 . S
C232 H260 0.930 . S
N233 C232 1.373 . S
N233 C235 1.340 . S
N234 C231 1.368 . S
N234 C235 1.321 . S
N234 Co237 2.135 . S
C235 N233 1.340 . S
C235 N234 1.321 . S
C235 H259 0.930 . S
H236 C231 0.931 . S
Co237 N234 2.135 . S
Co237 N240 2.121 . S
Co237 O245 2.055 . S
Co237 O248 2.039 . S
Co237 N251 2.140 . S
C238 O239 1.227 . S
C238 O248 1.265 . S
O239 C238 1.227 . S
N240 Co237 2.121 . S
N240 C242 1.375 . S
N240 C243 1.313 . S
C241 C242 1.338 . S
C241 N244 1.377 . S
C241 H261 0.930 . S
C242 N240 1.375 . S
C242 C241 1.338 . S
C242 H246 0.931 . S
C243 N240 1.313 . S
C243 N244 1.344 . S
C243 H247 0.930 . S
N244 C241 1.377 . S
N244 C243 1.344 . S
O245 Co237 2.055 . S
O245 C249 1.253 1_545 S
H246 C242 0.931 . S
H247 C243 0.930 . S
O248 Co237 2.039 . S
O248 C238 1.265 . S
C249 O245 1.253 1_565 S
C249 O250 1.227 . S
O250 C249 1.227 . S
N251 Co237 2.140 . S
N251 C254 1.346 . S
N251 C255 1.345 . S
C252 C253 1.387 . S
C252 C256 1.391 . S
C253 C252 1.387 . S
C253 C254 1.369 . S
C253 H262 0.929 . S
C254 N251 1.346 . S
C254 C253 1.369 . S
C254 H257 0.928 . S
C255 N251 1.345 . S
C255 C256 1.371 . S
C255 H258 0.931 . S
C256 C252 1.391 . S
C256 C255 1.371 . S
C256 H263 0.930 . S
H257 C254 0.928 . S
H258 C255 0.931 . S
H259 C235 0.930 . S
H260 C232 0.930 . S
H261 C241 0.930 . S
H262 C253 0.929 . S
H263 C256 0.930 . S
C264 C265 1.349 . S
C264 C266 1.327 . S
C264 H289 0.950 . S
C265 C264 1.349 . S
C265 C281 1.349 . S
C266 C264 1.327 . S
C266 C285 1.429 . S
C266 H290 0.950 . S
C267 C284 1.574 . S
C267 C286 1.368 . S
C267 H291 0.949 . S
H268 C272 0.949 . S
C269 C270 1.349 . S
C269 C271 1.327 . S
C269 H292 0.950 1_455 S
C270 C269 1.349 . S
C270 C282 1.349 . S
C271 C269 1.327 . S
C271 C287 1.429 . S
C271 H293 0.947 1_455 S
C272 H268 0.949 . S
C272 C280 1.574 . S
C272 C288 1.368 . S
H273 C281 0.950 . S
H274 C279 0.950 1_545 S
H275 C280 0.949 1_565 S
H276 C282 0.950 . S
H277 C283 0.950 . S
H278 C284 0.949 . S
C279 H274 0.950 1_565 S
C279 C281 1.327 . S
C279 C285 1.429 . S
C280 C272 1.574 . S
C280 H275 0.949 1_545 S
C280 C286 1.368 . S
C281 C265 1.349 . S
C281 H273 0.950 . S
C281 C279 1.327 . S
C282 C270 1.349 . S
C282 H276 0.950 . S
C282 C283 1.327 . S
C283 H277 0.950 . S
C283 C282 1.327 . S
C283 C287 1.429 . S
C284 C267 1.574 . S
C284 H278 0.949 . S
C284 C288 1.368 . S
C285 C266 1.429 . S
C285 C279 1.429 . S
C285 C286 1.523 1_565 S
C286 C267 1.368 . S
C286 C280 1.368 . S
C286 C285 1.523 1_545 S
C287 C271 1.429 . S
C287 C283 1.429 . S
C287 C288 1.523 . S
C288 C272 1.368 . S
C288 C284 1.368 . S
C288 C287 1.523 . S
H289 C264 0.950 . S
H290 C266 0.950 . S
H291 C267 0.949 . S
H292 C269 0.950 1_655 S
H293 C271 0.947 1_655 S
C294 C295 1.349 . S
C294 C296 1.327 . S
C294 H319 0.950 . S
C295 C294 1.349 . S
C295 C311 1.349 . S
C296 C294 1.327 . S
C296 C315 1.429 . S
C296 H320 0.950 . S
C297 C314 1.574 . S
C297 C316 1.368 1_556 S
C297 H321 0.949 1_455 S
H298 C302 0.949 . S
C299 C300 1.349 . S
C299 C301 1.327 . S
C299 H322 0.950 . S
C300 C299 1.349 . S
C300 C312 1.349 . S
C301 C299 1.327 . S
C301 C317 1.429 . S
C301 H323 0.950 . S
C302 H298 0.949 . S
C302 C310 1.574 . S
C302 C318 1.368 1_554 S
H303 C311 0.950 . S
H304 C309 0.950 . S
H305 C310 0.949 . S
H306 C312 0.950 . S
H307 C313 0.950 . S
H308 C314 0.949 . S
C309 H304 0.950 . S
C309 C311 1.327 . S
C309 C315 1.429 . S
C310 C302 1.574 . S
C310 H305 0.949 . S
C310 C316 1.368 . S
C311 C295 1.349 . S
C311 H303 0.950 . S
C311 C309 1.327 . S
C312 C300 1.349 . S
C312 H306 0.950 . S
C312 C313 1.327 . S
C313 H307 0.950 . S
C313 C312 1.327 . S
C313 C317 1.429 . S
C314 C297 1.574 . S
C314 H308 0.949 . S
C314 C318 1.368 . S
C315 C296 1.429 . S
C315 C309 1.429 . S
C315 C316 1.523 1_655 S
C316 C297 1.368 1_554 S
C316 C310 1.368 . S
C316 C315 1.523 1_455 S
C317 C301 1.429 . S
C317 C313 1.429 . S
C317 C318 1.523 . S
C318 C302 1.368 1_556 S
C318 C314 1.368 . S
C318 C317 1.523 . S
H319 C294 0.950 . S
H320 C296 0.950 . S
H321 C297 0.949 1_655 S
H322 C299 0.950 . S
H323 C301 0.950 . S
C324 C325 1.349 . S
C324 C326 1.327 . S
C324 H349 0.950 . S
C325 C324 1.349 . S
C325 C341 1.349 . S
C326 C324 1.327 . S
C326 C345 1.429 . S
C326 H350 0.950 . S
C327 C344 1.574 . S
C327 C346 1.368 . S
C327 H351 0.949 . S
H328 C332 0.949 . S
C329 C330 1.349 . S
C329 C331 1.327 . S
C329 H352 0.950 . S
C330 C329 1.349 . S
C330 C342 1.349 . S
C331 C329 1.327 . S
C331 C347 1.429 . S
C331 H353 0.950 . S
C332 H328 0.949 . S
C332 C340 1.574 . S
C332 C348 1.368 . S
H333 C341 0.950 . S
H334 C339 0.950 . S
H335 C340 0.949 . S
H336 C342 0.950 . S
H337 C343 0.950 . S
H338 C344 0.949 . S
C339 H334 0.950 . S
C339 C341 1.327 . S
C339 C345 1.429 . S
C340 C332 1.574 . S
C340 H335 0.949 . S
C340 C346 1.368 . S
C341 C325 1.349 . S
C341 H333 0.950 . S
C341 C339 1.327 . S
C342 C330 1.349 . S
C342 H336 0.950 . S
C342 C343 1.327 . S
C343 H337 0.950 . S
C343 C342 1.327 . S
C343 C347 1.429 . S
C344 C327 1.574 . S
C344 H338 0.949 . S
C344 C348 1.368 . S
C345 C326 1.429 . S
C345 C339 1.429 . S
C345 C346 1.523 . S
C346 C327 1.368 . S
C346 C340 1.368 . S
C346 C345 1.523 . S
C347 C331 1.429 . S
C347 C343 1.429 . S
C347 C348 1.523 . S
C348 C332 1.368 . S
C348 C344 1.368 . S
C348 C347 1.523 . S
H349 C324 0.950 . S
H350 C326 0.950 . S
H351 C327 0.949 . S
H352 C329 0.950 . S
H353 C331 0.950 . S
C354 C355 1.349 . S
C354 C356 1.327 . S
C354 H379 0.950 1_545 S
C355 C354 1.349 . S
C355 C371 1.349 . S
C356 C354 1.327 . S
C356 C375 1.429 . S
C356 H380 0.950 1_545 S
C357 C374 1.552 1_556 S
C357 C376 1.389 . S
C357 H381 0.951 . S
H358 C362 0.951 1_565 S
C359 C360 1.349 . S
C359 C361 1.327 . S
C359 H382 0.950 . S
C360 C359 1.349 . S
C360 C372 1.349 . S
C361 C359 1.327 . S
C361 C377 1.429 . S
C361 H383 0.950 . S
C362 H358 0.951 1_545 S
C362 C370 1.552 1_554 S
C362 C378 1.389 . S
H363 C371 0.950 . S
H364 C369 0.950 . S
H365 C370 0.949 1_565 S
H366 C372 0.968 . S
H367 C373 0.950 1_565 S
H368 C374 0.949 . S
C369 H364 0.950 . S
C369 C371 1.327 . S
C369 C375 1.429 . S
C370 C362 1.552 1_556 S
C370 H365 0.949 1_545 S
C370 C376 1.368 . S
C371 C355 1.349 . S
C371 H363 0.950 . S
C371 C369 1.327 . S
C372 C360 1.349 . S
C372 H366 0.968 . S
C372 C373 1.327 . S
C373 H367 0.950 1_545 S
C373 C372 1.327 . S
C373 C377 1.429 . S
C374 C357 1.552 1_554 S
C374 H368 0.949 . S
C374 C378 1.368 . S
C375 C356 1.429 . S
C375 C369 1.429 . S
C375 C376 1.523 . S
C376 C357 1.389 . S
C376 C370 1.368 . S
C376 C375 1.523 . S
C377 C361 1.429 . S
C377 C373 1.429 . S
C377 C378 1.523 . S
C378 C362 1.389 . S
C378 C374 1.368 . S
C378 C377 1.523 . S
H379 C354 0.950 1_565 S
H380 C356 0.950 1_565 S
H381 C357 0.951 . S
H382 C359 0.950 . S
H383 C361 0.950 . S
C384 C385 1.349 . S
C384 C386 1.327 . S
C384 H409 0.950 . S
C385 C384 1.349 . S
C385 C401 1.349 . S
C386 C384 1.327 . S
C386 C405 1.429 . S
C386 H410 0.950 . S
C387 C404 1.574 . S
C387 C406 1.368 . S
C387 H411 0.949 . S
H388 C392 0.949 . S
C389 C390 1.349 . S
C389 C391 1.327 . S
C389 H412 0.950 . S
C390 C389 1.349 . S
C390 C402 1.349 . S
C391 C389 1.327 . S
C391 C407 1.429 . S
C391 H413 0.950 . S
C392 H388 0.949 . S
C392 C400 1.574 . S
C392 C408 1.368 . S
H393 C401 0.950 . S
H394 C399 0.950 . S
H395 C400 0.949 . S
H396 C402 0.950 . S
H397 C403 0.950 . S
H398 C404 0.949 . S
C399 H394 0.950 . S
C399 C401 1.327 . S
C399 C405 1.429 . S
C400 C392 1.574 . S
C400 H395 0.949 . S
C400 C406 1.368 . S
C401 C385 1.349 . S
C401 H393 0.950 . S
C401 C399 1.327 . S
C402 C390 1.349 . S
C402 H396 0.950 . S
C402 C403 1.327 . S
C403 H397 0.950 . S
C403 C402 1.327 . S
C403 C407 1.429 . S
C404 C387 1.574 . S
C404 H398 0.949 . S
C404 C408 1.368 . S
C405 C386 1.429 . S
C405 C399 1.429 . S
C405 C406 1.523 . S
C406 C387 1.368 . S
C406 C400 1.368 . S
C406 C405 1.523 . S
C407 C391 1.429 . S
C407 C403 1.429 . S
C407 C408 1.523 . S
C408 C392 1.368 . S
C408 C404 1.368 . S
C408 C407 1.523 . S
H409 C384 0.950 . S
H410 C386 0.950 . S
H411 C387 0.949 . S
H412 C389 0.950 . S
H413 C391 0.950 . S
C414 C415 1.349 1_655 S
C414 C416 1.327 . S
C414 H439 0.950 . S
C415 C414 1.349 1_455 S
C415 C431 1.349 . S
C416 C414 1.327 . S
C416 C435 1.429 . S
C416 H440 0.950 . S
C417 C434 1.574 . S
C417 C436 1.368 . S
C417 H441 0.949 1_655 S
H418 C422 0.949 . S
C419 C420 1.349 . S
C419 C421 1.327 . S
C419 H442 0.950 . S
C420 C419 1.349 . S
C420 C432 1.349 . S
C421 C419 1.327 . S
C421 C437 1.429 . S
C421 H443 0.950 . S
C422 H418 0.949 . S
C422 C430 1.574 . S
C422 C438 1.368 . S
H423 C431 0.950 . S
H424 C429 0.950 . S
H425 C430 0.949 . S
H426 C432 0.950 . S
H427 C433 0.950 . S
H428 C434 0.949 . S
C429 H424 0.950 . S
C429 C431 1.327 . S
C429 C435 1.429 1_455 S
C430 C422 1.574 . S
C430 H425 0.949 . S
C430 C436 1.368 . S
C431 C415 1.349 . S
C431 H423 0.950 . S
C431 C429 1.327 . S
C432 C420 1.349 . S
C432 H426 0.950 . S
C432 C433 1.327 . S
C433 H427 0.950 . S
C433 C432 1.327 . S
C433 C437 1.429 . S
C434 C417 1.574 . S
C434 H428 0.949 . S
C434 C438 1.368 . S
C435 C416 1.429 . S
C435 C429 1.429 1_655 S
C435 C436 1.523 . S
C436 C417 1.368 . S
C436 C430 1.368 . S
C436 C435 1.523 . S
C437 C421 1.429 . S
C437 C433 1.429 . S
C437 C438 1.523 . S
C438 C422 1.368 . S
C438 C434 1.368 . S
C438 C437 1.523 . S
H439 C414 0.950 . S
H440 C416 0.950 . S
H441 C417 0.949 1_455 S
H442 C419 0.950 . S
H443 C421 0.950 . S
C444 C445 1.349 . S
C444 C446 1.327 . S
C444 H469 0.950 . S
C445 C444 1.349 . S
C445 C461 1.349 . S
C446 C444 1.327 . S
C446 C465 1.429 . S
C446 H470 0.950 . S
C447 C464 1.574 . S
C447 C466 1.368 . S
C447 H471 0.949 . S
H448 C452 0.949 . S
C449 C450 1.349 . S
C449 C451 1.327 . S
C449 H472 0.950 . S
C450 C449 1.349 . S
C450 C462 1.349 . S
C451 C449 1.327 . S
C451 C467 1.429 . S
C451 H473 0.950 . S
C452 H448 0.949 . S
C452 C460 1.574 . S
C452 C468 1.368 . S
H453 C461 0.950 . S
H454 C459 0.950 . S
H455 C460 0.949 . S
H456 C462 0.950 . S
H457 C463 0.950 . S
H458 C464 0.949 . S
C459 H454 0.950 . S
C459 C461 1.327 . S
C459 C465 1.429 . S
C460 C452 1.574 . S
C460 H455 0.949 . S
C460 C466 1.368 . S
C461 C445 1.349 . S
C461 H453 0.950 . S
C461 C459 1.327 . S
C462 C450 1.349 . S
C462 H456 0.950 . S
C462 C463 1.327 . S
C463 H457 0.950 . S
C463 C462 1.327 . S
C463 C467 1.429 . S
C464 C447 1.574 . S
C464 H458 0.949 . S
C464 C468 1.368 . S
C465 C446 1.429 . S
C465 C459 1.429 . S
C465 C466 1.523 . S
C466 C447 1.368 . S
C466 C460 1.368 . S
C466 C465 1.523 . S
C467 C451 1.429 . S
C467 C463 1.429 . S
C467 C468 1.523 . S
C468 C452 1.368 . S
C468 C464 1.368 . S
C468 C467 1.523 . S
H469 C444 0.950 . S
H470 C446 0.950 . S
H471 C447 0.949 . S
H472 C449 0.950 . S
H473 C451 0.950 . S
C474 C475 1.349 . S
C474 C476 1.327 . S
C474 H499 0.950 . S
C475 C474 1.349 . S
C475 C491 1.349 . S
C476 C474 1.327 . S
C476 C495 1.429 . S
C476 H500 0.950 . S
C477 C494 1.574 . S
C477 C496 1.368 . S
C477 H501 0.949 . S
H478 C482 0.949 . S
C479 C480 1.349 1_545 S
C479 C481 1.327 1_545 S
C479 H502 0.950 . S
C480 C479 1.349 1_565 S
C480 C492 1.349 . S
C481 C479 1.327 1_565 S
C481 C497 1.429 . S
C481 H503 0.950 1_565 S
C482 H478 0.949 . S
C482 C490 1.574 . S
C482 C498 1.368 . S
H483 C491 0.950 . S
H484 C489 0.950 . S
H485 C490 0.949 . S
H486 C492 0.950 . S
H487 C493 0.950 . S
H488 C494 0.949 . S
C489 H484 0.950 . S
C489 C491 1.327 . S
C489 C495 1.429 . S
C490 C482 1.574 . S
C490 H485 0.949 . S
C490 C496 1.368 . S
C491 C475 1.349 . S
C491 H483 0.950 . S
C491 C489 1.327 . S
C492 C480 1.349 . S
C492 H486 0.950 . S
C492 C493 1.327 . S
C493 H487 0.950 . S
C493 C492 1.327 . S
C493 C497 1.429 . S
C494 C477 1.574 . S
C494 H488 0.949 . S
C494 C498 1.368 . S
C495 C476 1.429 . S
C495 C489 1.429 . S
C495 C496 1.523 . S
C496 C477 1.368 . S
C496 C490 1.368 . S
C496 C495 1.523 . S
C497 C481 1.429 . S
C497 C493 1.429 . S
C497 C498 1.523 . S
C498 C482 1.368 . S
C498 C494 1.368 . S
C498 C497 1.523 . S
H499 C474 0.950 . S
H500 C476 0.950 . S
H501 C477 0.949 . S
H502 C479 0.950 . S
H503 C481 0.950 1_545 S
C504 C505 1.349 . S
C504 C506 1.327 . S
C504 H529 0.950 . S
C505 C504 1.349 . S
C505 C521 1.349 1_655 S
C506 C504 1.327 . S
C506 C525 1.429 . S
C506 H530 0.950 . S
C507 C524 1.574 . S
C507 C526 1.368 . S
C507 H531 0.949 . S
H508 C512 0.949 . S
C509 C510 1.349 . S
C509 C511 1.327 . S
C509 H532 0.950 . S
C510 C509 1.349 . S
C510 C522 1.349 1_545 S
C511 C509 1.327 . S
C511 C527 1.429 1_545 S
C511 H533 0.950 . S
C512 H508 0.949 . S
C512 C520 1.574 . S
C512 C528 1.368 . S
H513 C521 0.950 . S
H514 C519 0.950 1_455 S
H515 C520 0.949 . S
H516 C522 0.950 . S
H517 C523 0.950 . S
H518 C524 0.949 1_545 S
C519 H514 0.950 1_655 S
C519 C521 1.327 1_655 S
C519 C525 1.429 . S
C520 C512 1.574 . S
C520 H515 0.949 . S
C520 C526 1.368 . S
C521 C505 1.349 1_455 S
C521 H513 0.950 . S
C521 C519 1.327 1_455 S
C522 C510 1.349 1_565 S
C522 H516 0.950 . S
C522 C523 1.327 . S
C523 H517 0.950 . S
C523 C522 1.327 . S
C523 C527 1.429 . S
C524 C507 1.574 . S
C524 H518 0.949 1_565 S
C524 C528 1.368 . S
C525 C506 1.429 . S
C525 C519 1.429 . S
C525 C526 1.523 . S
C526 C507 1.368 . S
C526 C520 1.368 . S
C526 C525 1.523 . S
C527 C511 1.429 1_565 S
C527 C523 1.429 . S
C527 C528 1.523 . S
C528 C512 1.368 . S
C528 C524 1.368 . S
C528 C527 1.523 . S
H529 C504 0.950 . S
H530 C506 0.950 . S
H531 C507 0.949 . S
H532 C509 0.950 . S
H533 C511 0.950 . S
C534 C535 1.349 . S
C534 C536 1.327 . S
C534 H559 0.950 . S
C535 C534 1.349 . S
C535 C551 1.349 . S
C536 C534 1.327 . S
C536 C555 1.429 . S
C536 H560 0.950 . S
C537 C554 1.574 . S
C537 C556 1.368 . S
C537 H561 0.949 . S
H538 C542 0.949 . S
C539 C540 1.349 . S
C539 C541 1.327 . S
C539 H562 0.950 . S
C540 C539 1.349 . S
C540 C552 1.349 . S
C541 C539 1.327 . S
C541 C557 1.429 . S
C541 H563 0.950 . S
C542 H538 0.949 . S
C542 C550 1.574 . S
C542 C558 1.368 . S
H543 C551 0.950 . S
H544 C549 0.950 . S
H545 C550 0.949 . S
H546 C552 0.950 . S
H547 C553 0.950 . S
H548 C554 0.949 . S
C549 H544 0.950 . S
C549 C551 1.327 . S
C549 C555 1.429 . S
C550 C542 1.574 . S
C550 H545 0.949 . S
C550 C556 1.368 . S
C551 C535 1.349 . S
C551 H543 0.950 . S
C551 C549 1.327 . S
C552 C540 1.349 . S
C552 H546 0.950 . S
C552 C553 1.327 . S
C553 H547 0.950 . S
C553 C552 1.327 . S
C553 C557 1.429 . S
C554 C537 1.574 . S
C554 H548 0.949 . S
C554 C558 1.368 . S
C555 C536 1.429 . S
C555 C549 1.429 . S
C555 C556 1.523 . S
C556 C537 1.368 . S
C556 C550 1.368 . S
C556 C555 1.523 . S
C557 C541 1.429 . S
C557 C553 1.429 . S
C557 C558 1.523 . S
C558 C542 1.368 . S
C558 C554 1.368 . S
C558 C557 1.523 . S
H559 C534 0.950 . S
H560 C536 0.950 . S
H561 C537 0.949 . S
H562 C539 0.950 . S
H563 C541 0.950 . S
C564 C565 1.349 . S
C564 C566 1.327 . S
C564 H589 0.950 . S
C565 C564 1.349 . S
C565 C581 1.349 . S
C566 C564 1.327 . S
C566 C585 1.429 . S
C566 H590 0.950 . S
C567 C584 1.574 . S
C567 C586 1.368 . S
C567 H591 0.949 . S
H568 C572 0.949 . S
C569 C570 1.349 . S
C569 C571 1.327 . S
C569 H592 0.950 . S
C570 C569 1.349 . S
C570 C582 1.349 . S
C571 C569 1.327 . S
C571 C587 1.429 . S
C571 H593 0.950 . S
C572 H568 0.949 . S
C572 C580 1.574 . S
C572 C588 1.368 . S
H573 C581 0.950 . S
H574 C579 0.950 . S
H575 C580 0.949 . S
H576 C582 0.950 . S
H577 C583 0.950 . S
H578 C584 0.949 . S
C579 H574 0.950 . S
C579 C581 1.327 . S
C579 C585 1.429 . S
C580 C572 1.574 . S
C580 H575 0.949 . S
C580 C586 1.368 . S
C581 C565 1.349 . S
C581 H573 0.950 . S
C581 C579 1.327 . S
C582 C570 1.349 . S
C582 H576 0.950 . S
C582 C583 1.327 . S
C583 H577 0.950 . S
C583 C582 1.327 . S
C583 C587 1.429 . S
C584 C567 1.574 . S
C584 H578 0.949 . S
C584 C588 1.368 . S
C585 C566 1.429 . S
C585 C579 1.429 . S
C585 C586 1.523 . S
C586 C567 1.368 . S
C586 C580 1.368 . S
C586 C585 1.523 . S
C587 C571 1.429 . S
C587 C583 1.429 . S
C587 C588 1.523 . S
C588 C572 1.368 . S
C588 C584 1.368 . S
C588 C587 1.523 . S
H589 C564 0.950 . S
H590 C566 0.950 . S
H591 C567 0.949 . S
H592 C569 0.950 . S
H593 C571 0.950 . S
C594 C595 1.349 . S
C594 C596 1.327 . S
C594 H619 0.950 . S
C595 C594 1.349 . S
C595 C611 1.349 . S
C596 C594 1.327 . S
C596 C615 1.429 . S
C596 H620 0.950 . S
C597 C614 1.574 . S
C597 C616 1.368 . S
C597 H621 0.949 . S
H598 C602 0.949 . S
C599 C600 1.349 . S
C599 C601 1.327 . S
C599 H622 0.950 . S
C600 C599 1.349 . S
C600 C612 1.349 . S
C601 C599 1.327 . S
C601 C617 1.429 . S
C601 H623 0.950 . S
C602 H598 0.949 . S
C602 C610 1.574 . S
C602 C618 1.368 . S
H603 C611 0.950 . S
H604 C609 0.950 . S
H605 C610 0.949 . S
H606 C612 0.950 . S
H607 C613 0.950 . S
H608 C614 0.949 . S
C609 H604 0.950 . S
C609 C611 1.327 . S
C609 C615 1.429 . S
C610 C602 1.574 . S
C610 H605 0.949 . S
C610 C616 1.368 . S
C611 C595 1.349 . S
C611 H603 0.950 . S
C611 C609 1.327 . S
C612 C600 1.349 . S
C612 H606 0.950 . S
C612 C613 1.327 . S
C613 H607 0.950 . S
C613 C612 1.327 . S
C613 C617 1.429 . S
C614 C597 1.574 . S
C614 H608 0.949 . S
C614 C618 1.368 . S
C615 C596 1.429 . S
C615 C609 1.429 . S
C615 C616 1.523 . S
C616 C597 1.368 . S
C616 C610 1.368 . S
C616 C615 1.523 . S
C617 C601 1.429 . S
C617 C613 1.429 . S
C617 C618 1.523 . S
C618 C602 1.368 . S
C618 C614 1.368 . S
C618 C617 1.523 . S
H619 C594 0.950 . S
H620 C596 0.950 . S
H621 C597 0.949 . S
H622 C599 0.950 . S
H623 C601 0.950 . S
C624 C625 1.349 . S
C624 C626 1.327 . S
C624 H649 0.950 . S
C625 C624 1.349 . S
C625 C641 1.349 . S
C626 C624 1.327 . S
C626 C645 1.429 . S
C626 H650 0.950 . S
C627 C644 1.574 . S
C627 C646 1.368 . S
C627 H651 0.949 . S
H628 C632 0.949 . S
C629 C630 1.349 . S
C629 C631 1.327 . S
C629 H652 0.950 . S
C630 C629 1.349 . S
C630 C642 1.349 . S
C631 C629 1.327 . S
C631 C647 1.429 . S
C631 H653 0.950 . S
C632 H628 0.949 . S
C632 C640 1.574 . S
C632 C648 1.368 . S
H633 C641 0.950 . S
H634 C639 0.950 . S
H635 C640 0.949 . S
H636 C642 0.950 . S
H637 C643 0.950 . S
H638 C644 0.949 . S
C639 H634 0.950 . S
C639 C641 1.327 . S
C639 C645 1.429 . S
C640 C632 1.574 . S
C640 H635 0.949 . S
C640 C646 1.368 . S
C641 C625 1.349 . S
C641 H633 0.950 . S
C641 C639 1.327 . S
C642 C630 1.349 . S
C642 H636 0.950 . S
C642 C643 1.327 . S
C643 H637 0.950 . S
C643 C642 1.327 . S
C643 C647 1.429 . S
C644 C627 1.574 . S
C644 H638 0.949 . S
C644 C648 1.368 . S
C645 C626 1.429 . S
C645 C639 1.429 . S
C645 C646 1.523 . S
C646 C627 1.368 . S
C646 C640 1.368 . S
C646 C645 1.523 . S
C647 C631 1.429 . S
C647 C643 1.429 . S
C647 C648 1.523 . S
C648 C632 1.368 . S
C648 C644 1.368 . S
C648 C647 1.523 . S
H649 C624 0.950 . S
H650 C626 0.950 . S
H651 C627 0.949 . S
H652 C629 0.950 . S
H653 C631 0.950 . S
C654 C655 1.349 . S
C654 C656 1.327 . S
C654 H679 0.950 . S
C655 C654 1.349 . S
C655 C671 1.349 . S
C656 C654 1.327 . S
C656 C675 1.429 . S
C656 H680 0.950 . S
C657 C674 1.574 . S
C657 C676 1.368 . S
C657 H681 0.949 . S
H658 C662 0.949 . S
C659 C660 1.349 . S
C659 C661 1.327 . S
C659 H682 0.950 . S
C660 C659 1.349 . S
C660 C672 1.349 . S
C661 C659 1.327 . S
C661 C677 1.429 . S
C661 H683 0.950 . S
C662 H658 0.949 . S
C662 C670 1.574 . S
C662 C678 1.368 . S
H663 C671 0.950 . S
H664 C669 0.950 . S
H665 C670 0.949 . S
H666 C672 0.950 . S
H667 C673 0.950 . S
H668 C674 0.949 . S
C669 H664 0.950 . S
C669 C671 1.327 . S
C669 C675 1.429 . S
C670 C662 1.574 . S
C670 H665 0.949 . S
C670 C676 1.368 . S
C671 C655 1.349 . S
C671 H663 0.950 . S
C671 C669 1.327 . S
C672 C660 1.349 . S
C672 H666 0.950 . S
C672 C673 1.327 . S
C673 H667 0.950 . S
C673 C672 1.327 . S
C673 C677 1.429 . S
C674 C657 1.574 . S
C674 H668 0.949 . S
C674 C678 1.368 . S
C675 C656 1.429 . S
C675 C669 1.429 . S
C675 C676 1.523 . S
C676 C657 1.368 . S
C676 C670 1.368 . S
C676 C675 1.523 . S
C677 C661 1.429 . S
C677 C673 1.429 . S
C677 C678 1.523 . S
C678 C662 1.368 . S
C678 C674 1.368 . S
C678 C677 1.523 . S
H679 C654 0.950 . S
H680 C656 0.950 . S
H681 C657 0.949 . S
H682 C659 0.950 . S
H683 C661 0.950 . S
C684 C685 1.349 . S
C684 C686 1.327 . S
C684 H709 0.950 . S
C685 C684 1.349 . S
C685 C701 1.349 . S
C686 C684 1.327 . S
C686 C705 1.429 . S
C686 H710 0.950 . S
C687 C704 1.574 . S
C687 C706 1.368 . S
C687 H711 0.949 . S
H688 C692 0.949 . S
C689 C690 1.349 . S
C689 C691 1.327 . S
C689 H712 0.950 . S
C690 C689 1.349 . S
C690 C702 1.349 . S
C691 C689 1.327 . S
C691 C707 1.429 . S
C691 H713 0.950 . S
C692 H688 0.949 . S
C692 C700 1.574 . S
C692 C708 1.368 . S
H693 C701 0.950 . S
H694 C699 0.950 . S
H695 C700 0.949 . S
H696 C702 0.950 . S
H697 C703 0.950 . S
H698 C704 0.949 . S
C699 H694 0.950 . S
C699 C701 1.327 . S
C699 C705 1.429 . S
C700 C692 1.574 . S
C700 H695 0.949 . S
C700 C706 1.368 . S
C701 C685 1.349 . S
C701 H693 0.950 . S
C701 C699 1.327 . S
C702 C690 1.349 . S
C702 H696 0.950 . S
C702 C703 1.327 . S
C703 H697 0.950 . S
C703 C702 1.327 . S
C703 C707 1.429 . S
C704 C687 1.574 . S
C704 H698 0.949 . S
C704 C708 1.368 . S
C705 C686 1.429 . S
C705 C699 1.429 . S
C705 C706 1.523 . S
C706 C687 1.368 . S
C706 C700 1.368 . S
C706 C705 1.523 . S
C707 C691 1.429 . S
C707 C703 1.429 . S
C707 C708 1.523 . S
C708 C692 1.368 . S
C708 C704 1.368 . S
C708 C707 1.523 . S
H709 C684 0.950 . S
H710 C686 0.950 . S
H711 C687 0.949 . S
H712 C689 0.950 . S
H713 C691 0.950 . S
C714 C715 1.349 . S
C714 C716 1.327 . S
C714 H739 0.950 . S
C715 C714 1.349 . S
C715 C731 1.349 . S
C716 C714 1.327 . S
C716 C735 1.429 . S
C716 H740 0.950 . S
C717 C734 1.574 . S
C717 C736 1.368 . S
C717 H741 0.949 . S
H718 C722 0.949 . S
C719 C720 1.349 . S
C719 C721 1.327 . S
C719 H742 0.950 . S
C720 C719 1.349 . S
C720 C732 1.349 . S
C721 C719 1.327 . S
C721 C737 1.429 . S
C721 H743 0.950 . S
C722 H718 0.949 . S
C722 C730 1.574 . S
C722 C738 1.368 . S
H723 C731 0.950 . S
H724 C729 0.950 . S
H725 C730 0.949 . S
H726 C732 0.950 . S
H727 C733 0.950 . S
H728 C734 0.949 . S
C729 H724 0.950 . S
C729 C731 1.327 . S
C729 C735 1.429 . S
C730 C722 1.574 . S
C730 H725 0.949 . S
C730 C736 1.368 . S
C731 C715 1.349 . S
C731 H723 0.950 . S
C731 C729 1.327 . S
C732 C720 1.349 . S
C732 H726 0.950 . S
C732 C733 1.327 . S
C733 H727 0.950 . S
C733 C732 1.327 . S
C733 C737 1.429 . S
C734 C717 1.574 . S
C734 H728 0.949 . S
C734 C738 1.368 . S
C735 C716 1.429 . S
C735 C729 1.429 . S
C735 C736 1.523 . S
C736 C717 1.368 . S
C736 C730 1.368 . S
C736 C735 1.523 . S
C737 C721 1.429 . S
C737 C733 1.429 . S
C737 C738 1.523 . S
C738 C722 1.368 . S
C738 C734 1.368 . S
C738 C737 1.523 . S
H739 C714 0.950 . S
H740 C716 0.950 . S
H741 C717 0.949 . S
H742 C719 0.950 . S
H743 C721 0.950 . S
C744 C745 1.349 . S
C744 C746 1.327 . S
C744 H769 0.950 . S
C745 C744 1.349 . S
C745 C761 1.349 . S
C746 C744 1.327 . S
C746 C765 1.429 . S
C746 H770 0.950 . S
C747 C764 1.574 . S
C747 C766 1.368 . S
C747 H771 0.949 . S
H748 C752 0.949 . S
C749 C750 1.349 . S
C749 C751 1.327 . S
C749 H772 0.950 . S
C750 C749 1.349 . S
C750 C762 1.349 . S
C751 C749 1.327 . S
C751 C767 1.429 . S
C751 H773 0.950 . S
C752 H748 0.949 . S
C752 C760 1.574 . S
C752 C768 1.368 . S
H753 C761 0.950 . S
H754 C759 0.950 . S
H755 C760 0.949 . S
H756 C762 0.950 . S
H757 C763 0.950 . S
H758 C764 0.949 . S
C759 H754 0.950 . S
C759 C761 1.327 . S
C759 C765 1.429 . S
C760 C752 1.574 . S
C760 H755 0.949 . S
C760 C766 1.368 . S
C761 C745 1.349 . S
C761 H753 0.950 . S
C761 C759 1.327 . S
C762 C750 1.349 . S
C762 H756 0.950 . S
C762 C763 1.327 . S
C763 H757 0.950 . S
C763 C762 1.327 . S
C763 C767 1.429 . S
C764 C747 1.574 . S
C764 H758 0.949 . S
C764 C768 1.368 . S
C765 C746 1.429 . S
C765 C759 1.429 . S
C765 C766 1.523 . S
C766 C747 1.368 . S
C766 C760 1.368 . S
C766 C765 1.523 . S
C767 C751 1.429 . S
C767 C763 1.429 . S
C767 C768 1.523 . S
C768 C752 1.368 . S
C768 C764 1.368 . S
C768 C767 1.523 . S
H769 C744 0.950 . S
H770 C746 0.950 . S
H771 C747 0.949 . S
H772 C749 0.950 . S
H773 C751 0.950 . S
C774 C775 1.349 . S
C774 C776 1.327 . S
C774 H799 0.950 . S
C775 C774 1.349 . S
C775 C791 1.349 . S
C776 C774 1.327 . S
C776 C795 1.429 . S
C776 H800 0.950 . S
C777 C794 1.574 . S
C777 C796 1.368 . S
C777 H801 0.949 . S
H778 C782 0.949 . S
C779 C780 1.349 . S
C779 C781 1.327 . S
C779 H802 0.950 . S
C780 C779 1.349 . S
C780 C792 1.349 . S
C781 C779 1.327 . S
C781 C797 1.429 . S
C781 H803 0.950 . S
C782 H778 0.949 . S
C782 C790 1.574 . S
C782 C798 1.368 . S
H783 C791 0.950 . S
H784 C789 0.950 . S
H785 C790 0.949 . S
H786 C792 0.950 . S
H787 C793 0.950 . S
H788 C794 0.949 . S
C789 H784 0.950 . S
C789 C791 1.327 . S
C789 C795 1.429 . S
C790 C782 1.574 . S
C790 H785 0.949 . S
C790 C796 1.368 . S
C791 C775 1.349 . S
C791 H783 0.950 . S
C791 C789 1.327 . S
C792 C780 1.349 . S
C792 H786 0.950 . S
C792 C793 1.327 . S
C793 H787 0.950 . S
C793 C792 1.327 . S
C793 C797 1.429 . S
C794 C777 1.574 . S
C794 H788 0.949 . S
C794 C798 1.368 . S
C795 C776 1.429 . S
C795 C789 1.429 . S
C795 C796 1.523 . S
C796 C777 1.368 . S
C796 C790 1.368 . S
C796 C795 1.523 . S
C797 C781 1.429 . S
C797 C793 1.429 . S
C797 C798 1.523 . S
C798 C782 1.368 . S
C798 C794 1.368 . S
C798 C797 1.523 . S
H799 C774 0.950 . S
H800 C776 0.950 . S
H801 C777 0.949 . S
H802 C779 0.950 . S
H803 C781 0.950 . S
C804 C805 1.349 . S
C804 C806 1.327 . S
C804 H829 0.950 . S
C805 C804 1.349 . S
C805 C821 1.349 . S
C806 C804 1.327 . S
C806 C825 1.429 . S
C806 H830 0.950 . S
C807 C824 1.574 . S
C807 C826 1.368 . S
C807 H831 0.949 . S
H808 C812 0.949 . S
C809 C810 1.349 . S
C809 C811 1.327 . S
C809 H832 0.950 . S
C810 C809 1.349 . S
C810 C822 1.349 . S
C811 C809 1.327 . S
C811 C827 1.429 . S
C811 H833 0.950 . S
C812 H808 0.949 . S
C812 C820 1.574 . S
C812 C828 1.368 . S
H813 C821 0.950 . S
H814 C819 0.950 . S
H815 C820 0.949 . S
H816 C822 0.950 . S
H817 C823 0.950 . S
H818 C824 0.949 . S
C819 H814 0.950 . S
C819 C821 1.327 . S
C819 C825 1.429 . S
C820 C812 1.574 . S
C820 H815 0.949 . S
C820 C826 1.368 . S
C821 C805 1.349 . S
C821 H813 0.950 . S
C821 C819 1.327 . S
C822 C810 1.349 . S
C822 H816 0.950 . S
C822 C823 1.327 . S
C823 H817 0.950 . S
C823 C822 1.327 . S
C823 C827 1.429 . S
C824 C807 1.574 . S
C824 H818 0.949 . S
C824 C828 1.368 . S
C825 C806 1.429 . S
C825 C819 1.429 . S
C825 C826 1.523 . S
C826 C807 1.368 . S
C826 C820 1.368 . S
C826 C825 1.523 . S
C827 C811 1.429 . S
C827 C823 1.429 . S
C827 C828 1.523 . S
C828 C812 1.368 . S
C828 C824 1.368 . S
C828 C827 1.523 . S
H829 C804 0.950 . S
H830 C806 0.950 . S
H831 C807 0.949 . S
H832 C809 0.950 . S
H833 C811 0.950 . S
C834 C835 1.349 . S
C834 C836 1.327 . S
C834 H859 0.950 . S
C835 C834 1.349 . S
C835 C851 1.349 . S
C836 C834 1.327 . S
C836 C855 1.429 . S
C836 H860 0.950 . S
C837 C854 1.574 . S
C837 C856 1.368 . S
C837 H861 0.949 . S
H838 C842 0.949 . S
C839 C840 1.349 . S
C839 C841 1.327 . S
C839 H862 0.950 . S
C840 C839 1.349 . S
C840 C852 1.349 . S
C841 C839 1.327 . S
C841 C857 1.429 . S
C841 H863 0.950 . S
C842 H838 0.949 . S
C842 C850 1.574 . S
C842 C858 1.368 . S
H843 C851 0.950 . S
H844 C849 0.950 . S
H845 C850 0.949 . S
H846 C852 0.950 . S
H847 C853 0.950 . S
H848 C854 0.949 . S
C849 H844 0.950 . S
C849 C851 1.327 . S
C849 C855 1.429 . S
C850 C842 1.574 . S
C850 H845 0.949 . S
C850 C856 1.368 . S
C851 C835 1.349 . S
C851 H843 0.950 . S
C851 C849 1.327 . S
C852 C840 1.349 . S
C852 H846 0.950 . S
C852 C853 1.327 . S
C853 H847 0.950 . S
C853 C852 1.327 . S
C853 C857 1.429 . S
C854 C837 1.574 . S
C854 H848 0.949 . S
C854 C858 1.368 . S
C855 C836 1.429 . S
C855 C849 1.429 . S
C855 C856 1.523 . S
C856 C837 1.368 . S
C856 C850 1.368 . S
C856 C855 1.523 . S
C857 C841 1.429 . S
C857 C853 1.429 . S
C857 C858 1.523 . S
C858 C842 1.368 . S
C858 C854 1.368 . S
C858 C857 1.523 . S
H859 C834 0.950 . S
H860 C836 0.950 . S
H861 C837 0.949 . S
H862 C839 0.950 . S
H863 C841 0.950 . S
C265 N145 1.627 . S
C270 N13 1.627 . S
C295 N46 1.627 . S
C300 N178 1.627 . S
C325 N79 1.626 . S
C330 N211 1.626 . S
C355 N244 1.627 . S
C360 N112 1.627 . S
C385 N233 0.425 . S
C390 C21 0.433 . S
C415 N134 0.425 . S
C420 C54 0.433 . S
C445 N167 0.425 . S
C450 C87 0.433 . S
C475 N200 0.425 . S
C480 C120 0.433 . S
C505 C153 0.433 . S
C510 N101 0.425 . S
C535 C186 0.433 . S
C540 N2 0.425 . S
C565 C219 0.433 . S
C570 N35 0.425 . S
C595 C252 0.433 . S
C600 N68 0.425 . S
C625 C18 1.474 . S
C630 C84 1.474 . S
C655 C51 1.474 . S
C660 C117 1.474 . S
C685 C216 1.474 . S
C690 C150 1.474 . S
C715 C249 1.474 . S
C720 C183 1.474 . S
C745 C73 0.661 . S
C750 C7 0.661 . S
C775 C40 0.661 . S
C780 C106 0.661 . S
C805 C205 0.661 . S
C810 C139 0.661 . S
C835 C238 0.661 . S
C840 C172 0.661 . S
