# Generated by pormake.
# Topology gme, (4)-cn, num edge types: 1
# Building blocks:
#     Node 0, Type 0, BuildingBlock: QUQFOY_clean_sbu_1, # of connection points: 4
#     Node 1, Type 0, BuildingBlock: QUQFOY_clean_sbu_1, # of connection points: 4
#     Node 2, Type 0, BuildingBlock: QUQFOY_clean_sbu_1, # of connection points: 4
#     Node 3, Type 0, BuildingBlock: QUQFOY_clean_sbu_1, # of connection points: 4
#     Node 4, Type 0, BuildingBlock: QUQFOY_clean_sbu_1, # of connection points: 4
#     Node 5, Type 0, BuildingBlock: QUQFOY_clean_sbu_1, # of connection points: 4
#     Node 6, Type 0, BuildingBlock: QUQFOY_clean_sbu_1, # of connection points: 4
#     Node 7, Type 0, BuildingBlock: QUQFOY_clean_sbu_1, # of connection points: 4
#     Node 8, Type 0, BuildingBlock: QUQFOY_clean_sbu_1, # of connection points: 4
#     Node 9, Type 0, BuildingBlock: QUQFOY_clean_sbu_1, # of connection points: 4
#     Node 10, Type 0, BuildingBlock: QUQFOY_clean_sbu_1, # of connection points: 4
#     Node 11, Type 0, BuildingBlock: QUQFOY_clean_sbu_1, # of connection points: 4
#     Node 12, Type 0, BuildingBlock: QUQFOY_clean_sbu_1, # of connection points: 4
#     Node 13, Type 0, BuildingBlock: QUQFOY_clean_sbu_1, # of connection points: 4
#     Node 14, Type 0, BuildingBlock: QUQFOY_clean_sbu_1, # of connection points: 4
#     Node 15, Type 0, BuildingBlock: QUQFOY_clean_sbu_1, # of connection points: 4
#     Node 16, Type 0, BuildingBlock: QUQFOY_clean_sbu_1, # of connection points: 4
#     Node 17, Type 0, BuildingBlock: QUQFOY_clean_sbu_1, # of connection points: 4
#     Node 18, Type 0, BuildingBlock: QUQFOY_clean_sbu_1, # of connection points: 4
#     Node 19, Type 0, BuildingBlock: QUQFOY_clean_sbu_1, # of connection points: 4
#     Node 20, Type 0, BuildingBlock: QUQFOY_clean_sbu_1, # of connection points: 4
#     Node 21, Type 0, BuildingBlock: QUQFOY_clean_sbu_1, # of connection points: 4
#     Node 22, Type 0, BuildingBlock: QUQFOY_clean_sbu_1, # of connection points: 4
#     Node 23, Type 0, BuildingBlock: QUQFOY_clean_sbu_1, # of connection points: 4
#     Edge 24, Type (0, 0), None
#     Edge 25, Type (0, 0), None
#     Edge 26, Type (0, 0), None
#     Edge 27, Type (0, 0), None
#     Edge 28, Type (0, 0), None
#     Edge 29, Type (0, 0), None
#     Edge 30, Type (0, 0), None
#     Edge 31, Type (0, 0), None
#     Edge 32, Type (0, 0), None
#     Edge 33, Type (0, 0), None
#     Edge 34, Type (0, 0), None
#     Edge 35, Type (0, 0), None
#     Edge 36, Type (0, 0), None
#     Edge 37, Type (0, 0), None
#     Edge 38, Type (0, 0), None
#     Edge 39, Type (0, 0), None
#     Edge 40, Type (0, 0), None
#     Edge 41, Type (0, 0), None
#     Edge 42, Type (0, 0), None
#     Edge 43, Type (0, 0), None
#     Edge 44, Type (0, 0), None
#     Edge 45, Type (0, 0), None
#     Edge 46, Type (0, 0), None
#     Edge 47, Type (0, 0), None
#     Edge 48, Type (0, 0), None
#     Edge 49, Type (0, 0), None
#     Edge 50, Type (0, 0), None
#     Edge 51, Type (0, 0), None
#     Edge 52, Type (0, 0), None
#     Edge 53, Type (0, 0), None
#     Edge 54, Type (0, 0), None
#     Edge 55, Type (0, 0), None
#     Edge 56, Type (0, 0), None
#     Edge 57, Type (0, 0), None
#     Edge 58, Type (0, 0), None
#     Edge 59, Type (0, 0), None
#     Edge 60, Type (0, 0), None
#     Edge 61, Type (0, 0), None
#     Edge 62, Type (0, 0), None
#     Edge 63, Type (0, 0), None
#     Edge 64, Type (0, 0), None
#     Edge 65, Type (0, 0), None
#     Edge 66, Type (0, 0), None
#     Edge 67, Type (0, 0), None
#     Edge 68, Type (0, 0), None
#     Edge 69, Type (0, 0), None
#     Edge 70, Type (0, 0), None
#     Edge 71, Type (0, 0), None
# Relax obj value: 0.035
# Max RMSD: 0.041
# Mean RMSD: 0.041
data_MOF--net-gme--node1-QUQFOY_clean_sbu_1--edge1-none
_symmetry_space_group_name_H-M    P1
_symmetry_Int_Tables_number       1
_symmetry_cell_setting            triclinic
loop_
_symmetry_equiv_pos_as_xyz
'x, y, z'
_cell_length_a     30.354902
_cell_length_b     30.355514
_cell_length_c     24.309221
_cell_angle_alpha  90.000085
_cell_angle_beta   89.999842
_cell_angle_gamma 120.00152
loop_
_atom_site_label
_atom_site_type_symbol
_atom_site_fract_x
_atom_site_fract_y
_atom_site_fract_z
_atom_type_partial_charge
O0 O 0.4388 0.1118 0.24651 0.0
Cd1 Cd 0.46041 0.13128 0.16567 0.0
Cd2 Cd 0.40531 0.03059 0.16497 0.0
O3 O 0.37735 0.0319 0.24233 0.0
O4 O 0.50058 0.20637 0.17492 0.0
O5 O 0.43077 0.16913 0.1247 0.0
C6 C 0.46715 0.21008 0.1461 0.0
C7 C 0.36722 0.00893 0.07966 0.0
C8 C 0.40408 0.0722 0.27 0.0
C9 C 0.5162 0.07547 0.14838 0.0
O10 O 0.47605 0.03653 0.16556 0.0
O11 O 0.51614 0.11648 0.13782 0.0
O12 O 0.3597 0.97407 0.11514 0.0
O13 O 0.39145 0.05601 0.09521 0.0
O14 O 0.32963 0.43748 0.74651 0.0
Cd15 Cd 0.33177 0.4591 0.66567 0.0
Cd16 Cd 0.37735 0.40399 0.66497 0.0
O17 O 0.34809 0.37604 0.74233 0.0
O18 O 0.29684 0.49926 0.67492 0.0
O19 O 0.26427 0.42946 0.6247 0.0
C20 C 0.2597 0.46583 0.6461 0.0
C21 C 0.36092 0.3659 0.57966 0.0
C22 C 0.33452 0.40277 0.77 0.0
C23 C 0.44337 0.51488 0.64838 0.0
O24 O 0.44215 0.47474 0.66556 0.0
O25 O 0.4023 0.51482 0.63782 0.0
O26 O 0.38827 0.35839 0.61514 0.0
O27 O 0.33807 0.39013 0.59521 0.0
O28 O 0.89479 0.32832 0.24651 0.0
Cd29 Cd 0.87531 0.33045 0.16567 0.0
Cd30 Cd 0.976 0.37604 0.16497 0.0
O31 O 0.97469 0.34677 0.24233 0.0
O32 O 0.80022 0.29553 0.17492 0.0
O33 O 0.83746 0.26296 0.1247 0.0
C34 C 0.79651 0.25838 0.1461 0.0
C35 C 0.99766 0.35961 0.07966 0.0
C36 C 0.93439 0.33321 0.27 0.0
C37 C 0.93113 0.44205 0.14838 0.0
O38 O 0.97006 0.44084 0.16556 0.0
O39 O 0.89011 0.40098 0.13782 0.0
O40 O 0.03252 0.38696 0.11514 0.0
O41 O 0.95058 0.33675 0.09521 0.0
O42 O 0.56911 0.89346 0.74651 0.0
Cd43 Cd 0.54749 0.87399 0.66567 0.0
Cd44 Cd 0.6026 0.97468 0.66497 0.0
O45 O 0.63056 0.97337 0.74233 0.0
O46 O 0.50733 0.7989 0.67492 0.0
O47 O 0.57713 0.83614 0.6247 0.0
C48 C 0.54076 0.79519 0.6461 0.0
C49 C 0.64069 0.99634 0.57966 0.0
C50 C 0.60382 0.93307 0.77 0.0
C51 C 0.49171 0.9298 0.64838 0.0
O52 O 0.53186 0.96873 0.66556 0.0
O53 O 0.49177 0.88879 0.63782 0.0
O54 O 0.6482 0.0312 0.61514 0.0
O55 O 0.61646 0.94926 0.59521 0.0
O56 O 0.67828 0.56779 0.24651 0.0
Cd57 Cd 0.67614 0.54617 0.16567 0.0
Cd58 Cd 0.63056 0.60128 0.16497 0.0
O59 O 0.65982 0.62923 0.24233 0.0
O60 O 0.71107 0.50601 0.17492 0.0
O61 O 0.74363 0.57581 0.1247 0.0
C62 C 0.74821 0.53944 0.1461 0.0
C63 C 0.64699 0.63937 0.07966 0.0
C64 C 0.67339 0.6025 0.27 0.0
C65 C 0.56454 0.49039 0.14838 0.0
O66 O 0.56576 0.53053 0.16556 0.0
O67 O 0.60561 0.49045 0.13782 0.0
O68 O 0.61964 0.64688 0.11514 0.0
O69 O 0.66984 0.61514 0.09521 0.0
O70 O 0.11312 0.67695 0.74651 0.0
Cd71 Cd 0.1326 0.67482 0.66567 0.0
Cd72 Cd 0.03191 0.62923 0.66497 0.0
O73 O 0.03322 0.65849 0.74233 0.0
O74 O 0.20769 0.70974 0.67492 0.0
O75 O 0.17045 0.74231 0.6247 0.0
C76 C 0.2114 0.74689 0.6461 0.0
C77 C 0.01025 0.64566 0.57966 0.0
C78 C 0.07352 0.67206 0.77 0.0
C79 C 0.07678 0.56322 0.64838 0.0
O80 O 0.03785 0.56443 0.66556 0.0
O81 O 0.1178 0.60429 0.63782 0.0
O82 O 0.97539 0.61831 0.61514 0.0
O83 O 0.05733 0.66852 0.59521 0.0
O84 O 0.89478 0.56779 0.35402 0.0
Cd85 Cd 0.87531 0.54618 0.43486 0.0
Cd86 Cd 0.976 0.60129 0.43556 0.0
O87 O 0.97469 0.62923 0.3582 0.0
O88 O 0.80022 0.50601 0.42561 0.0
O89 O 0.83746 0.57581 0.47583 0.0
C90 C 0.7965 0.53944 0.45443 0.0
C91 C 0.99765 0.63936 0.52086 0.0
C92 C 0.93439 0.6025 0.33053 0.0
C93 C 0.93112 0.4904 0.45215 0.0
O94 O 0.97006 0.53054 0.43497 0.0
O95 O 0.89011 0.49045 0.46271 0.0
O96 O 0.03253 0.64689 0.48539 0.0
O97 O 0.95057 0.61514 0.50532 0.0
O98 O 0.32963 0.89346 0.85402 0.0
Cd99 Cd 0.33177 0.87399 0.93486 0.0
Cd100 Cd 0.37735 0.97468 0.93556 0.0
O101 O 0.34809 0.97336 0.8582 0.0
O102 O 0.29684 0.7989 0.92561 0.0
O103 O 0.26427 0.83613 0.97583 0.0
C104 C 0.2597 0.79518 0.95443 0.0
C105 C 0.36093 0.99633 1.02086 0.0
C106 C 0.33452 0.93307 0.83053 0.0
C107 C 0.44337 0.92981 0.95215 0.0
O108 O 0.44215 0.96873 0.93497 0.0
O109 O 0.40229 0.88879 0.96271 0.0
O110 O 0.38828 0.0312 0.98539 0.0
O111 O 0.33807 0.94925 1.00532 0.0
O112 O 0.4388 0.3283 0.35402 0.0
Cd113 Cd 0.46041 0.33044 0.43486 0.0
Cd114 Cd 0.4053 0.37603 0.43556 0.0
O115 O 0.37735 0.34676 0.3582 0.0
O116 O 0.50058 0.29552 0.42561 0.0
O117 O 0.43077 0.26295 0.47583 0.0
C118 C 0.46715 0.25838 0.45443 0.0
C119 C 0.36722 0.3596 0.52086 0.0
C120 C 0.40408 0.3332 0.33053 0.0
C121 C 0.51619 0.44204 0.45215 0.0
O122 O 0.47605 0.44083 0.43497 0.0
O123 O 0.51614 0.40097 0.46271 0.0
O124 O 0.3597 0.38695 0.48539 0.0
O125 O 0.39144 0.33674 0.50532 0.0
O126 O 0.11312 0.43748 0.85402 0.0
Cd127 Cd 0.1326 0.45909 0.93486 0.0
Cd128 Cd 0.0319 0.40398 0.93556 0.0
O129 O 0.03322 0.37603 0.8582 0.0
O130 O 0.20769 0.49926 0.92561 0.0
O131 O 0.17045 0.42945 0.97583 0.0
C132 C 0.2114 0.46583 0.95443 0.0
C133 C 0.01025 0.36591 1.02086 0.0
C134 C 0.07352 0.40277 0.83053 0.0
C135 C 0.07679 0.51487 0.95215 0.0
O136 O 0.03785 0.47473 0.93497 0.0
O137 O 0.11779 0.51482 0.96271 0.0
O138 O 0.97538 0.35838 0.98539 0.0
O139 O 0.05734 0.39013 1.00532 0.0
O140 O 0.67828 0.11181 0.35402 0.0
Cd141 Cd 0.67614 0.13128 0.43486 0.0
Cd142 Cd 0.63056 0.03059 0.43556 0.0
O143 O 0.65982 0.03191 0.3582 0.0
O144 O 0.71107 0.20637 0.42561 0.0
O145 O 0.74364 0.16914 0.47583 0.0
C146 C 0.74821 0.21009 0.45443 0.0
C147 C 0.64698 0.00894 0.52086 0.0
C148 C 0.67339 0.0722 0.33053 0.0
C149 C 0.56454 0.07546 0.45215 0.0
O150 O 0.56576 0.03654 0.43497 0.0
O151 O 0.60561 0.11648 0.46271 0.0
O152 O 0.61963 0.97407 0.48539 0.0
O153 O 0.66984 0.05602 0.50532 0.0
O154 O 0.56911 0.67697 0.85402 0.0
Cd155 Cd 0.5475 0.67483 0.93486 0.0
Cd156 Cd 0.60261 0.62924 0.93556 0.0
O157 O 0.63056 0.65851 0.8582 0.0
O158 O 0.50733 0.70975 0.92561 0.0
O159 O 0.57714 0.74232 0.97583 0.0
C160 C 0.54076 0.74689 0.95443 0.0
C161 C 0.64068 0.64567 1.02086 0.0
C162 C 0.60383 0.67207 0.83053 0.0
C163 C 0.49171 0.56323 0.95215 0.0
O164 O 0.53186 0.56444 0.93497 0.0
O165 O 0.49177 0.6043 0.96271 0.0
O166 O 0.64821 0.61832 0.98538 0.0
O167 O 0.61646 0.66853 1.00532 0.0
O168 O 0.56911 0.89346 0.85402 0.0
Cd169 Cd 0.54749 0.87398 0.93486 0.0
Cd170 Cd 0.60261 0.97469 0.93556 0.0
O171 O 0.63056 0.97337 0.8582 0.0
O172 O 0.50733 0.7989 0.92561 0.0
O173 O 0.57713 0.83614 0.97583 0.0
C174 C 0.54076 0.79519 0.95442 0.0
C175 C 0.64069 0.99634 1.02087 0.0
C176 C 0.60383 0.93307 0.83054 0.0
C177 C 0.49172 0.9298 0.95215 0.0
O178 O 0.53186 0.96874 0.93497 0.0
O179 O 0.49177 0.88879 0.96271 0.0
O180 O 0.64821 0.0312 0.98539 0.0
O181 O 0.61647 0.94926 1.00532 0.0
O182 O 0.67829 0.56779 0.35402 0.0
Cd183 Cd 0.67614 0.54617 0.43486 0.0
Cd184 Cd 0.63055 0.60128 0.43556 0.0
O185 O 0.65982 0.62923 0.3582 0.0
O186 O 0.71107 0.50601 0.42561 0.0
O187 O 0.74364 0.57581 0.47583 0.0
C188 C 0.74821 0.53944 0.45442 0.0
C189 C 0.64699 0.63937 0.52087 0.0
C190 C 0.67339 0.6025 0.33054 0.0
C191 C 0.56455 0.4904 0.45215 0.0
O192 O 0.56576 0.53054 0.43497 0.0
O193 O 0.60561 0.49045 0.46271 0.0
O194 O 0.61964 0.64688 0.48539 0.0
O195 O 0.66984 0.61515 0.50532 0.0
O196 O 0.11313 0.67696 0.85402 0.0
Cd197 Cd 0.1326 0.67482 0.93486 0.0
Cd198 Cd 0.0319 0.62923 0.93556 0.0
O199 O 0.03322 0.65849 0.8582 0.0
O200 O 0.20769 0.70975 0.92561 0.0
O201 O 0.17045 0.74231 0.97583 0.0
C202 C 0.2114 0.74689 0.95442 0.0
C203 C 0.01025 0.64566 1.02087 0.0
C204 C 0.07352 0.67207 0.83054 0.0
C205 C 0.07678 0.56322 0.95215 0.0
O206 O 0.03785 0.56443 0.93497 0.0
O207 O 0.1178 0.60429 0.96271 0.0
O208 O 0.97538 0.61831 0.98539 0.0
O209 O 0.05733 0.66852 1.00532 0.0
O210 O 0.4388 0.11181 0.35402 0.0
Cd211 Cd 0.46041 0.13129 0.43486 0.0
Cd212 Cd 0.4053 0.03058 0.43556 0.0
O213 O 0.37735 0.0319 0.3582 0.0
O214 O 0.50058 0.20637 0.42561 0.0
O215 O 0.43077 0.16913 0.47583 0.0
C216 C 0.46714 0.21008 0.45442 0.0
C217 C 0.36722 0.00893 0.52087 0.0
C218 C 0.40408 0.0722 0.33054 0.0
C219 C 0.51619 0.07547 0.45215 0.0
O220 O 0.47605 0.03653 0.43497 0.0
O221 O 0.51614 0.11648 0.46271 0.0
O222 O 0.3597 0.97407 0.48539 0.0
O223 O 0.39144 0.05601 0.50532 0.0
O224 O 0.32962 0.43748 0.85402 0.0
Cd225 Cd 0.33176 0.4591 0.93486 0.0
Cd226 Cd 0.37735 0.40399 0.93556 0.0
O227 O 0.34809 0.37604 0.8582 0.0
O228 O 0.29684 0.49926 0.92561 0.0
O229 O 0.26427 0.42946 0.97583 0.0
C230 C 0.25969 0.46583 0.95442 0.0
C231 C 0.36092 0.3659 1.02087 0.0
C232 C 0.33452 0.40276 0.83054 0.0
C233 C 0.44336 0.51487 0.95215 0.0
O234 O 0.44215 0.47473 0.93497 0.0
O235 O 0.40229 0.51482 0.96271 0.0
O236 O 0.38827 0.35839 0.98539 0.0
O237 O 0.33807 0.39012 1.00532 0.0
O238 O 0.89478 0.32831 0.35402 0.0
Cd239 Cd 0.87531 0.33045 0.43486 0.0
Cd240 Cd 0.97601 0.37604 0.43556 0.0
O241 O 0.97469 0.34678 0.3582 0.0
O242 O 0.80022 0.29552 0.42561 0.0
O243 O 0.83746 0.26296 0.47583 0.0
C244 C 0.79651 0.25838 0.45442 0.0
C245 C 0.99766 0.35961 0.52087 0.0
C246 C 0.93439 0.3332 0.33054 0.0
C247 C 0.93113 0.44205 0.45215 0.0
O248 O 0.97006 0.44084 0.43497 0.0
O249 O 0.89011 0.40098 0.46271 0.0
O250 O 0.03252 0.38696 0.48539 0.0
O251 O 0.95058 0.33675 0.50532 0.0
O252 O 0.11313 0.43748 0.74651 0.0
Cd253 Cd 0.1326 0.45909 0.66567 0.0
Cd254 Cd 0.0319 0.40398 0.66497 0.0
O255 O 0.03322 0.37603 0.74233 0.0
O256 O 0.20769 0.49926 0.67492 0.0
O257 O 0.17045 0.42945 0.6247 0.0
C258 C 0.2114 0.46583 0.64611 0.0
C259 C 0.01025 0.3659 0.57967 0.0
C260 C 0.07352 0.40276 0.76999 0.0
C261 C 0.07679 0.51487 0.64838 0.0
O262 O 0.03785 0.47472 0.66556 0.0
O263 O 0.1178 0.51482 0.63782 0.0
O264 O 0.97538 0.35838 0.61514 0.0
O265 O 0.05733 0.39013 0.59521 0.0
O266 O 0.67829 0.11181 0.24651 0.0
Cd267 Cd 0.67615 0.13129 0.16567 0.0
Cd268 Cd 0.63055 0.03058 0.16497 0.0
O269 O 0.65982 0.0319 0.24233 0.0
O270 O 0.71107 0.20637 0.17492 0.0
O271 O 0.74364 0.16914 0.1247 0.0
C272 C 0.74822 0.21009 0.14611 0.0
C273 C 0.64699 0.00894 0.07967 0.0
C274 C 0.67339 0.0722 0.26999 0.0
C275 C 0.56455 0.07546 0.14838 0.0
O276 O 0.56576 0.03654 0.16556 0.0
O277 O 0.60562 0.11648 0.13782 0.0
O278 O 0.61963 0.97406 0.11514 0.0
O279 O 0.66985 0.05602 0.09521 0.0
O280 O 0.56912 0.67697 0.74651 0.0
Cd281 Cd 0.5475 0.67483 0.66567 0.0
Cd282 Cd 0.60261 0.62924 0.66497 0.0
O283 O 0.63056 0.65851 0.74233 0.0
O284 O 0.50733 0.70975 0.67492 0.0
O285 O 0.57714 0.74232 0.6247 0.0
C286 C 0.54076 0.7469 0.64611 0.0
C287 C 0.64069 0.64567 0.57967 0.0
C288 C 0.60383 0.67208 0.76999 0.0
C289 C 0.49172 0.56323 0.64838 0.0
O290 O 0.53186 0.56444 0.66556 0.0
O291 O 0.49177 0.6043 0.63782 0.0
O292 O 0.64821 0.61832 0.61514 0.0
O293 O 0.61647 0.66853 0.59521 0.0
O294 O 0.89478 0.56779 0.24651 0.0
Cd295 Cd 0.8753 0.54617 0.16567 0.0
Cd296 Cd 0.97601 0.60129 0.16497 0.0
O297 O 0.97469 0.62924 0.24233 0.0
O298 O 0.80022 0.50601 0.17492 0.0
O299 O 0.83745 0.57581 0.1247 0.0
C300 C 0.79651 0.53944 0.14611 0.0
C301 C 0.99766 0.63937 0.07967 0.0
C302 C 0.93439 0.60251 0.26999 0.0
C303 C 0.93112 0.4904 0.14838 0.0
O304 O 0.97006 0.53055 0.16556 0.0
O305 O 0.89011 0.49045 0.13782 0.0
O306 O 0.03253 0.64689 0.11514 0.0
O307 O 0.95057 0.61514 0.09521 0.0
O308 O 0.32962 0.89346 0.74651 0.0
Cd309 Cd 0.33176 0.87398 0.66567 0.0
Cd310 Cd 0.37735 0.97468 0.66497 0.0
O311 O 0.34809 0.97337 0.74233 0.0
O312 O 0.29684 0.79889 0.67492 0.0
O313 O 0.26427 0.83613 0.6247 0.0
C314 C 0.25969 0.79518 0.64611 0.0
C315 C 0.36092 0.99633 0.57967 0.0
C316 C 0.33452 0.93307 0.76999 0.0
C317 C 0.44336 0.92981 0.64838 0.0
O318 O 0.44215 0.96873 0.66556 0.0
O319 O 0.40229 0.88879 0.63782 0.0
O320 O 0.38827 0.03121 0.61514 0.0
O321 O 0.33806 0.94925 0.59521 0.0
O322 O 0.43879 0.3283 0.24651 0.0
Cd323 Cd 0.46041 0.33044 0.16567 0.0
Cd324 Cd 0.4053 0.37603 0.16497 0.0
O325 O 0.37735 0.34676 0.24233 0.0
O326 O 0.50058 0.29552 0.17492 0.0
O327 O 0.43077 0.26295 0.1247 0.0
C328 C 0.46714 0.25837 0.14611 0.0
C329 C 0.36722 0.3596 0.07967 0.0
C330 C 0.40408 0.33319 0.26999 0.0
C331 C 0.51619 0.44203 0.14838 0.0
O332 O 0.47604 0.44082 0.16556 0.0
O333 O 0.51614 0.40097 0.13782 0.0
O334 O 0.3597 0.38695 0.11514 0.0
O335 O 0.39144 0.33674 0.09521 0.0
loop_
_geom_bond_atom_site_label_1
_geom_bond_atom_site_label_2
_geom_bond_distance
_geom_bond_site_symmetry_2
_ccdc_geom_bond_type
O0 Cd1 2.223 . S
O0 C8 1.315 . S
Cd1 O0 2.223 . S
Cd1 O4 2.297 . S
Cd1 O5 2.439 . S
Cd1 O11 2.240 . S
Cd2 O3 2.229 1_565 S
Cd2 O10 2.229 1_565 S
Cd2 O12 2.305 . S
Cd2 O13 2.432 1_565 S
O3 Cd2 2.229 1_545 S
O3 C8 1.279 . S
O4 Cd1 2.297 . S
O4 C6 1.247 . S
O5 Cd1 2.439 . S
O5 C6 1.208 . S
C6 O4 1.247 . S
C6 O5 1.208 . S
C7 O12 1.247 . S
C7 O13 1.208 1_565 S
C8 O0 1.315 . S
C8 O3 1.279 . S
C9 O10 1.315 . S
C9 O11 1.279 . S
O10 Cd2 2.229 1_545 S
O10 C9 1.315 . S
O11 Cd1 2.240 . S
O11 C9 1.279 . S
O12 Cd2 2.305 . S
O12 C7 1.247 . S
O13 Cd2 2.432 1_545 S
O13 C7 1.208 1_545 S
O14 Cd15 2.223 . S
O14 C22 1.315 . S
Cd15 O14 2.223 . S
Cd15 O18 2.297 . S
Cd15 O19 2.439 . S
Cd15 O25 2.240 . S
Cd16 O17 2.240 . S
Cd16 O24 2.223 . S
Cd16 O26 2.297 . S
Cd16 O27 2.439 . S
O17 Cd16 2.240 . S
O17 C22 1.279 . S
O18 Cd15 2.297 . S
O18 C20 1.247 . S
O19 Cd15 2.439 . S
O19 C20 1.208 . S
C20 O18 1.247 . S
C20 O19 1.208 . S
C21 O26 1.247 . S
C21 O27 1.208 . S
C22 O14 1.315 . S
C22 O17 1.279 . S
C23 O24 1.315 . S
C23 O25 1.279 . S
O24 Cd16 2.223 . S
O24 C23 1.315 . S
O25 Cd15 2.240 . S
O25 C23 1.279 . S
O26 Cd16 2.297 . S
O26 C21 1.247 . S
O27 Cd16 2.439 . S
O27 C21 1.208 . S
O28 Cd29 2.223 . S
O28 C36 1.315 . S
Cd29 O28 2.223 . S
Cd29 O32 2.297 . S
Cd29 O33 2.439 . S
Cd29 O39 2.240 . S
Cd30 O31 2.233 1_455 S
Cd30 O38 2.215 1_455 S
Cd30 O40 2.302 . S
Cd30 O41 2.436 1_455 S
O31 Cd30 2.233 1_655 S
O31 C36 1.279 . S
O32 Cd29 2.297 . S
O32 C34 1.247 . S
O33 Cd29 2.439 . S
O33 C34 1.208 . S
C34 O32 1.247 . S
C34 O33 1.208 . S
C35 O40 1.247 . S
C35 O41 1.208 1_455 S
C36 O28 1.315 . S
C36 O31 1.279 . S
C37 O38 1.315 . S
C37 O39 1.279 . S
O38 Cd30 2.215 1_655 S
O38 C37 1.315 . S
O39 Cd29 2.240 . S
O39 C37 1.279 . S
O40 Cd30 2.302 . S
O40 C35 1.247 . S
O41 Cd30 2.436 1_655 S
O41 C35 1.208 1_655 S
O42 Cd43 2.223 . S
O42 C50 1.315 . S
Cd43 O42 2.223 . S
Cd43 O46 2.297 . S
Cd43 O47 2.439 . S
Cd43 O53 2.240 . S
Cd44 O45 2.229 1_545 S
Cd44 O52 2.230 1_545 S
Cd44 O54 2.305 . S
Cd44 O55 2.432 1_545 S
O45 Cd44 2.229 1_565 S
O45 C50 1.279 . S
O46 Cd43 2.297 . S
O46 C48 1.247 . S
O47 Cd43 2.439 . S
O47 C48 1.208 . S
C48 O46 1.247 . S
C48 O47 1.208 . S
C49 O54 1.247 . S
C49 O55 1.208 1_545 S
C50 O42 1.315 . S
C50 O45 1.279 . S
C51 O52 1.315 . S
C51 O53 1.279 . S
O52 Cd44 2.230 1_565 S
O52 C51 1.315 . S
O53 Cd43 2.240 . S
O53 C51 1.279 . S
O54 Cd44 2.305 . S
O54 C49 1.247 . S
O55 Cd44 2.432 1_565 S
O55 C49 1.208 1_565 S
O56 Cd57 2.223 . S
O56 C64 1.315 . S
Cd57 O56 2.223 . S
Cd57 O60 2.297 . S
Cd57 O61 2.439 . S
Cd57 O67 2.240 . S
Cd58 O59 2.240 . S
Cd58 O66 2.223 . S
Cd58 O68 2.297 . S
Cd58 O69 2.439 . S
O59 Cd58 2.240 . S
O59 C64 1.279 . S
O60 Cd57 2.297 . S
O60 C62 1.247 . S
O61 Cd57 2.439 . S
O61 C62 1.208 . S
C62 O60 1.247 . S
C62 O61 1.208 . S
C63 O68 1.247 . S
C63 O69 1.208 . S
C64 O56 1.315 . S
C64 O59 1.279 . S
C65 O66 1.315 . S
C65 O67 1.279 . S
O66 Cd58 2.223 . S
O66 C65 1.315 . S
O67 Cd57 2.240 . S
O67 C65 1.279 . S
O68 Cd58 2.297 . S
O68 C63 1.247 . S
O69 Cd58 2.439 . S
O69 C63 1.208 . S
O70 Cd71 2.223 . S
O70 C78 1.315 . S
Cd71 O70 2.223 . S
Cd71 O74 2.297 . S
Cd71 O75 2.439 . S
Cd71 O81 2.240 . S
Cd72 O73 2.233 1_655 S
Cd72 O80 2.215 1_655 S
Cd72 O82 2.302 . S
Cd72 O83 2.436 1_655 S
O73 Cd72 2.233 1_455 S
O73 C78 1.279 . S
O74 Cd71 2.297 . S
O74 C76 1.247 . S
O75 Cd71 2.439 . S
O75 C76 1.208 . S
C76 O74 1.247 . S
C76 O75 1.208 . S
C77 O82 1.247 . S
C77 O83 1.208 1_655 S
C78 O70 1.315 . S
C78 O73 1.279 . S
C79 O80 1.315 . S
C79 O81 1.279 . S
O80 Cd72 2.215 1_455 S
O80 C79 1.315 . S
O81 Cd71 2.240 . S
O81 C79 1.279 . S
O82 Cd72 2.302 . S
O82 C77 1.247 . S
O83 Cd72 2.436 1_455 S
O83 C77 1.208 1_455 S
O84 Cd85 2.223 . S
O84 C92 1.315 . S
Cd85 O84 2.223 . S
Cd85 O88 2.297 . S
Cd85 O89 2.439 . S
Cd85 O95 2.240 . S
Cd86 O87 2.229 1_455 S
Cd86 O94 2.229 1_455 S
Cd86 O96 2.305 . S
Cd86 O97 2.432 1_455 S
O87 Cd86 2.229 1_655 S
O87 C92 1.279 . S
O88 Cd85 2.297 . S
O88 C90 1.247 . S
O89 Cd85 2.439 . S
O89 C90 1.208 . S
C90 O88 1.247 . S
C90 O89 1.208 . S
C91 O96 1.247 . S
C91 O97 1.208 1_455 S
C92 O84 1.315 . S
C92 O87 1.279 . S
C93 O94 1.315 . S
C93 O95 1.279 . S
O94 Cd86 2.229 1_655 S
O94 C93 1.315 . S
O95 Cd85 2.240 . S
O95 C93 1.279 . S
O96 Cd86 2.305 . S
O96 C91 1.247 . S
O97 Cd86 2.432 1_655 S
O97 C91 1.208 1_655 S
O98 Cd99 2.223 . S
O98 C106 1.315 . S
Cd99 O98 2.223 . S
Cd99 O102 2.297 . S
Cd99 O103 2.439 . S
Cd99 O109 2.240 . S
Cd100 O101 2.233 1_545 S
Cd100 O108 2.215 1_545 S
Cd100 O110 2.302 . S
Cd100 O111 2.436 1_545 S
O101 Cd100 2.233 1_565 S
O101 C106 1.279 . S
O102 Cd99 2.297 . S
O102 C104 1.247 . S
O103 Cd99 2.439 . S
O103 C104 1.208 . S
C104 O102 1.247 . S
C104 O103 1.208 . S
C105 O110 1.247 . S
C105 O111 1.208 1_545 S
C106 O98 1.315 . S
C106 O101 1.279 . S
C107 O108 1.315 . S
C107 O109 1.279 . S
O108 Cd100 2.215 1_565 S
O108 C107 1.315 . S
O109 Cd99 2.240 . S
O109 C107 1.279 . S
O110 Cd100 2.302 . S
O110 C105 1.247 . S
O111 Cd100 2.436 1_565 S
O111 C105 1.208 1_565 S
O112 Cd113 2.223 . S
O112 C120 1.315 . S
Cd113 O112 2.223 . S
Cd113 O116 2.297 . S
Cd113 O117 2.439 . S
Cd113 O123 2.240 . S
Cd114 O115 2.240 . S
Cd114 O122 2.223 . S
Cd114 O124 2.297 . S
Cd114 O125 2.439 . S
O115 Cd114 2.240 . S
O115 C120 1.279 . S
O116 Cd113 2.297 . S
O116 C118 1.247 . S
O117 Cd113 2.439 . S
O117 C118 1.208 . S
C118 O116 1.247 . S
C118 O117 1.208 . S
C119 O124 1.247 . S
C119 O125 1.208 . S
C120 O112 1.315 . S
C120 O115 1.279 . S
C121 O122 1.315 . S
C121 O123 1.279 . S
O122 Cd114 2.223 . S
O122 C121 1.315 . S
O123 Cd113 2.240 . S
O123 C121 1.279 . S
O124 Cd114 2.297 . S
O124 C119 1.247 . S
O125 Cd114 2.439 . S
O125 C119 1.208 . S
O126 Cd127 2.223 . S
O126 C134 1.315 . S
Cd127 O126 2.223 . S
Cd127 O130 2.297 . S
Cd127 O131 2.439 . S
Cd127 O137 2.240 . S
Cd128 O129 2.229 1_655 S
Cd128 O136 2.230 1_655 S
Cd128 O138 2.305 . S
Cd128 O139 2.432 1_655 S
O129 Cd128 2.229 1_455 S
O129 C134 1.279 . S
O130 Cd127 2.297 . S
O130 C132 1.247 . S
O131 Cd127 2.439 . S
O131 C132 1.208 . S
C132 O130 1.247 . S
C132 O131 1.208 . S
C133 O138 1.247 . S
C133 O139 1.208 1_655 S
C134 O126 1.315 . S
C134 O129 1.279 . S
C135 O136 1.315 . S
C135 O137 1.279 . S
O136 Cd128 2.230 1_455 S
O136 C135 1.315 . S
O137 Cd127 2.240 . S
O137 C135 1.279 . S
O138 Cd128 2.305 . S
O138 C133 1.247 . S
O139 Cd128 2.432 1_455 S
O139 C133 1.208 1_455 S
O140 Cd141 2.223 . S
O140 C148 1.315 . S
Cd141 O140 2.223 . S
Cd141 O144 2.297 . S
Cd141 O145 2.439 . S
Cd141 O151 2.240 . S
Cd142 O143 2.233 1_565 S
Cd142 O150 2.215 1_565 S
Cd142 O152 2.302 . S
Cd142 O153 2.436 1_565 S
O143 Cd142 2.233 1_545 S
O143 C148 1.279 . S
O144 Cd141 2.297 . S
O144 C146 1.247 . S
O145 Cd141 2.439 . S
O145 C146 1.208 . S
C146 O144 1.247 . S
C146 O145 1.208 . S
C147 O152 1.247 . S
C147 O153 1.208 1_565 S
C148 O140 1.315 . S
C148 O143 1.279 . S
C149 O150 1.315 . S
C149 O151 1.279 . S
O150 Cd142 2.215 1_545 S
O150 C149 1.315 . S
O151 Cd141 2.240 . S
O151 C149 1.279 . S
O152 Cd142 2.302 . S
O152 C147 1.247 . S
O153 Cd142 2.436 1_545 S
O153 C147 1.208 1_545 S
O154 Cd155 2.223 . S
O154 C162 1.315 . S
Cd155 O154 2.223 . S
Cd155 O158 2.297 . S
Cd155 O159 2.439 . S
Cd155 O165 2.240 . S
Cd156 O157 2.240 . S
Cd156 O164 2.223 . S
Cd156 O166 2.297 . S
Cd156 O167 2.439 . S
O157 Cd156 2.240 . S
O157 C162 1.279 . S
O158 Cd155 2.297 . S
O158 C160 1.247 . S
O159 Cd155 2.439 . S
O159 C160 1.208 . S
C160 O158 1.247 . S
C160 O159 1.208 . S
C161 O166 1.247 . S
C161 O167 1.208 . S
C162 O154 1.315 . S
C162 O157 1.279 . S
C163 O164 1.315 . S
C163 O165 1.279 . S
O164 Cd156 2.223 . S
O164 C163 1.315 . S
O165 Cd155 2.240 . S
O165 C163 1.279 . S
O166 Cd156 2.297 . S
O166 C161 1.247 . S
O167 Cd156 2.439 . S
O167 C161 1.208 . S
O168 Cd169 2.223 . S
O168 C176 1.315 . S
Cd169 O168 2.223 . S
Cd169 O172 2.297 . S
Cd169 O173 2.439 . S
Cd169 O179 2.240 . S
Cd170 O171 2.229 1_545 S
Cd170 O178 2.229 1_545 S
Cd170 O180 2.305 . S
Cd170 O181 2.432 1_545 S
O171 Cd170 2.229 1_565 S
O171 C176 1.279 . S
O172 Cd169 2.297 . S
O172 C174 1.247 . S
O173 Cd169 2.439 . S
O173 C174 1.208 . S
C174 O172 1.247 . S
C174 O173 1.208 . S
C175 O180 1.247 . S
C175 O181 1.208 1_545 S
C176 O168 1.315 . S
C176 O171 1.279 . S
C177 O178 1.315 . S
C177 O179 1.279 . S
O178 Cd170 2.229 1_565 S
O178 C177 1.315 . S
O179 Cd169 2.240 . S
O179 C177 1.279 . S
O180 Cd170 2.305 . S
O180 C175 1.247 . S
O181 Cd170 2.432 1_565 S
O181 C175 1.208 1_565 S
O182 Cd183 2.223 . S
O182 C190 1.315 . S
Cd183 O182 2.223 . S
Cd183 O186 2.297 . S
Cd183 O187 2.439 . S
Cd183 O193 2.240 . S
Cd184 O185 2.240 . S
Cd184 O192 2.223 . S
Cd184 O194 2.297 . S
Cd184 O195 2.439 . S
O185 Cd184 2.240 . S
O185 C190 1.279 . S
O186 Cd183 2.297 . S
O186 C188 1.247 . S
O187 Cd183 2.439 . S
O187 C188 1.208 . S
C188 O186 1.247 . S
C188 O187 1.208 . S
C189 O194 1.247 . S
C189 O195 1.208 . S
C190 O182 1.315 . S
C190 O185 1.279 . S
C191 O192 1.315 . S
C191 O193 1.279 . S
O192 Cd184 2.223 . S
O192 C191 1.315 . S
O193 Cd183 2.240 . S
O193 C191 1.279 . S
O194 Cd184 2.297 . S
O194 C189 1.247 . S
O195 Cd184 2.439 . S
O195 C189 1.208 . S
O196 Cd197 2.223 . S
O196 C204 1.315 . S
Cd197 O196 2.223 . S
Cd197 O200 2.297 . S
Cd197 O201 2.439 . S
Cd197 O207 2.240 . S
Cd198 O199 2.233 1_655 S
Cd198 O206 2.215 1_655 S
Cd198 O208 2.302 . S
Cd198 O209 2.436 1_655 S
O199 Cd198 2.233 1_455 S
O199 C204 1.279 . S
O200 Cd197 2.297 . S
O200 C202 1.247 . S
O201 Cd197 2.439 . S
O201 C202 1.208 . S
C202 O200 1.247 . S
C202 O201 1.208 . S
C203 O208 1.247 . S
C203 O209 1.208 1_655 S
C204 O196 1.315 . S
C204 O199 1.279 . S
C205 O206 1.315 . S
C205 O207 1.279 . S
O206 Cd198 2.215 1_455 S
O206 C205 1.315 . S
O207 Cd197 2.240 . S
O207 C205 1.279 . S
O208 Cd198 2.302 . S
O208 C203 1.247 . S
O209 Cd198 2.436 1_455 S
O209 C203 1.208 1_455 S
O210 Cd211 2.223 . S
O210 C218 1.315 . S
Cd211 O210 2.223 . S
Cd211 O214 2.297 . S
Cd211 O215 2.439 . S
Cd211 O221 2.240 . S
Cd212 O213 2.229 1_565 S
Cd212 O220 2.230 1_565 S
Cd212 O222 2.305 . S
Cd212 O223 2.432 1_565 S
O213 Cd212 2.229 1_545 S
O213 C218 1.279 . S
O214 Cd211 2.297 . S
O214 C216 1.247 . S
O215 Cd211 2.439 . S
O215 C216 1.208 . S
C216 O214 1.247 . S
C216 O215 1.208 . S
C217 O222 1.247 . S
C217 O223 1.208 1_565 S
C218 O210 1.315 . S
C218 O213 1.279 . S
C219 O220 1.315 . S
C219 O221 1.279 . S
O220 Cd212 2.230 1_545 S
O220 C219 1.315 . S
O221 Cd211 2.240 . S
O221 C219 1.279 . S
O222 Cd212 2.305 . S
O222 C217 1.247 . S
O223 Cd212 2.432 1_545 S
O223 C217 1.208 1_545 S
O224 Cd225 2.223 . S
O224 C232 1.315 . S
Cd225 O224 2.223 . S
Cd225 O228 2.297 . S
Cd225 O229 2.439 . S
Cd225 O235 2.240 . S
Cd226 O227 2.240 . S
Cd226 O234 2.223 . S
Cd226 O236 2.297 . S
Cd226 O237 2.439 . S
O227 Cd226 2.240 . S
O227 C232 1.279 . S
O228 Cd225 2.297 . S
O228 C230 1.247 . S
O229 Cd225 2.439 . S
O229 C230 1.208 . S
C230 O228 1.247 . S
C230 O229 1.208 . S
C231 O236 1.247 . S
C231 O237 1.208 . S
C232 O224 1.315 . S
C232 O227 1.279 . S
C233 O234 1.315 . S
C233 O235 1.279 . S
O234 Cd226 2.223 . S
O234 C233 1.315 . S
O235 Cd225 2.240 . S
O235 C233 1.279 . S
O236 Cd226 2.297 . S
O236 C231 1.247 . S
O237 Cd226 2.439 . S
O237 C231 1.208 . S
O238 Cd239 2.223 . S
O238 C246 1.315 . S
Cd239 O238 2.223 . S
Cd239 O242 2.297 . S
Cd239 O243 2.439 . S
Cd239 O249 2.240 . S
Cd240 O241 2.233 1_455 S
Cd240 O248 2.215 1_455 S
Cd240 O250 2.302 . S
Cd240 O251 2.436 1_455 S
O241 Cd240 2.233 1_655 S
O241 C246 1.279 . S
O242 Cd239 2.297 . S
O242 C244 1.247 . S
O243 Cd239 2.439 . S
O243 C244 1.208 . S
C244 O242 1.247 . S
C244 O243 1.208 . S
C245 O250 1.247 . S
C245 O251 1.208 1_455 S
C246 O238 1.315 . S
C246 O241 1.279 . S
C247 O248 1.315 . S
C247 O249 1.279 . S
O248 Cd240 2.215 1_655 S
O248 C247 1.315 . S
O249 Cd239 2.240 . S
O249 C247 1.279 . S
O250 Cd240 2.302 . S
O250 C245 1.247 . S
O251 Cd240 2.436 1_655 S
O251 C245 1.208 1_655 S
O252 Cd253 2.223 . S
O252 C260 1.315 . S
Cd253 O252 2.223 . S
Cd253 O256 2.297 . S
Cd253 O257 2.439 . S
Cd253 O263 2.240 . S
Cd254 O255 2.229 1_655 S
Cd254 O262 2.229 1_655 S
Cd254 O264 2.305 . S
Cd254 O265 2.432 1_655 S
O255 Cd254 2.229 1_455 S
O255 C260 1.279 . S
O256 Cd253 2.297 . S
O256 C258 1.247 . S
O257 Cd253 2.439 . S
O257 C258 1.208 . S
C258 O256 1.247 . S
C258 O257 1.208 . S
C259 O264 1.247 . S
C259 O265 1.208 1_655 S
C260 O252 1.315 . S
C260 O255 1.279 . S
C261 O262 1.315 . S
C261 O263 1.279 . S
O262 Cd254 2.229 1_455 S
O262 C261 1.315 . S
O263 Cd253 2.240 . S
O263 C261 1.279 . S
O264 Cd254 2.305 . S
O264 C259 1.247 . S
O265 Cd254 2.432 1_455 S
O265 C259 1.208 1_455 S
O266 Cd267 2.223 . S
O266 C274 1.315 . S
Cd267 O266 2.223 . S
Cd267 O270 2.297 . S
Cd267 O271 2.439 . S
Cd267 O277 2.240 . S
Cd268 O269 2.233 1_565 S
Cd268 O276 2.215 1_565 S
Cd268 O278 2.302 . S
Cd268 O279 2.436 1_565 S
O269 Cd268 2.233 1_545 S
O269 C274 1.279 . S
O270 Cd267 2.297 . S
O270 C272 1.247 . S
O271 Cd267 2.439 . S
O271 C272 1.208 . S
C272 O270 1.247 . S
C272 O271 1.208 . S
C273 O278 1.247 . S
C273 O279 1.208 1_565 S
C274 O266 1.315 . S
C274 O269 1.279 . S
C275 O276 1.315 . S
C275 O277 1.279 . S
O276 Cd268 2.215 1_545 S
O276 C275 1.315 . S
O277 Cd267 2.240 . S
O277 C275 1.279 . S
O278 Cd268 2.302 . S
O278 C273 1.247 . S
O279 Cd268 2.436 1_545 S
O279 C273 1.208 1_545 S
O280 Cd281 2.223 . S
O280 C288 1.315 . S
Cd281 O280 2.223 . S
Cd281 O284 2.297 . S
Cd281 O285 2.439 . S
Cd281 O291 2.240 . S
Cd282 O283 2.240 . S
Cd282 O290 2.223 . S
Cd282 O292 2.297 . S
Cd282 O293 2.439 . S
O283 Cd282 2.240 . S
O283 C288 1.279 . S
O284 Cd281 2.297 . S
O284 C286 1.247 . S
O285 Cd281 2.439 . S
O285 C286 1.208 . S
C286 O284 1.247 . S
C286 O285 1.208 . S
C287 O292 1.247 . S
C287 O293 1.208 . S
C288 O280 1.315 . S
C288 O283 1.279 . S
C289 O290 1.315 . S
C289 O291 1.279 . S
O290 Cd282 2.223 . S
O290 C289 1.315 . S
O291 Cd281 2.240 . S
O291 C289 1.279 . S
O292 Cd282 2.297 . S
O292 C287 1.247 . S
O293 Cd282 2.439 . S
O293 C287 1.208 . S
O294 Cd295 2.223 . S
O294 C302 1.315 . S
Cd295 O294 2.223 . S
Cd295 O298 2.297 . S
Cd295 O299 2.439 . S
Cd295 O305 2.240 . S
Cd296 O297 2.229 1_455 S
Cd296 O304 2.230 1_455 S
Cd296 O306 2.305 . S
Cd296 O307 2.432 1_455 S
O297 Cd296 2.229 1_655 S
O297 C302 1.279 . S
O298 Cd295 2.297 . S
O298 C300 1.247 . S
O299 Cd295 2.439 . S
O299 C300 1.208 . S
C300 O298 1.247 . S
C300 O299 1.208 . S
C301 O306 1.247 . S
C301 O307 1.208 1_455 S
C302 O294 1.315 . S
C302 O297 1.279 . S
C303 O304 1.315 . S
C303 O305 1.279 . S
O304 Cd296 2.230 1_655 S
O304 C303 1.315 . S
O305 Cd295 2.240 . S
O305 C303 1.279 . S
O306 Cd296 2.305 . S
O306 C301 1.247 . S
O307 Cd296 2.432 1_655 S
O307 C301 1.208 1_655 S
O308 Cd309 2.223 . S
O308 C316 1.315 . S
Cd309 O308 2.223 . S
Cd309 O312 2.297 . S
Cd309 O313 2.439 . S
Cd309 O319 2.240 . S
Cd310 O311 2.233 1_545 S
Cd310 O318 2.215 1_545 S
Cd310 O320 2.302 . S
Cd310 O321 2.436 1_545 S
O311 Cd310 2.233 1_565 S
O311 C316 1.279 . S
O312 Cd309 2.297 . S
O312 C314 1.247 . S
O313 Cd309 2.439 . S
O313 C314 1.208 . S
C314 O312 1.247 . S
C314 O313 1.208 . S
C315 O320 1.247 . S
C315 O321 1.208 1_545 S
C316 O308 1.315 . S
C316 O311 1.279 . S
C317 O318 1.315 . S
C317 O319 1.279 . S
O318 Cd310 2.215 1_565 S
O318 C317 1.315 . S
O319 Cd309 2.240 . S
O319 C317 1.279 . S
O320 Cd310 2.302 . S
O320 C315 1.247 . S
O321 Cd310 2.436 1_565 S
O321 C315 1.208 1_565 S
O322 Cd323 2.223 . S
O322 C330 1.315 . S
Cd323 O322 2.223 . S
Cd323 O326 2.297 . S
Cd323 O327 2.439 . S
Cd323 O333 2.240 . S
Cd324 O325 2.240 . S
Cd324 O332 2.223 . S
Cd324 O334 2.297 . S
Cd324 O335 2.439 . S
O325 Cd324 2.240 . S
O325 C330 1.279 . S
O326 Cd323 2.297 . S
O326 C328 1.247 . S
O327 Cd323 2.439 . S
O327 C328 1.208 . S
C328 O326 1.247 . S
C328 O327 1.208 . S
C329 O334 1.247 . S
C329 O335 1.208 . S
C330 O322 1.315 . S
C330 O325 1.279 . S
C331 O332 1.315 . S
C331 O333 1.279 . S
O332 Cd324 2.223 . S
O332 C331 1.315 . S
O333 Cd323 2.240 . S
O333 C331 1.279 . S
O334 Cd324 2.297 . S
O334 C329 1.247 . S
O335 Cd324 2.439 . S
O335 C329 1.208 . S
C218 C8 1.133 . S
C22 C232 1.133 . S
C36 C246 1.133 . S
C50 C176 1.133 . S
C190 C64 1.133 . S
C78 C204 1.133 . S
C302 C92 1.133 . S
C106 C316 1.133 . S
C120 C330 1.133 . S
C260 C134 1.133 . S
C148 C274 1.133 . S
C288 C162 1.133 . S
C6 C328 1.490 . S
C258 C20 1.490 . S
C34 C272 1.490 . S
C286 C48 1.490 . S
C62 C300 1.490 . S
C314 C76 1.490 . S
C90 C188 1.490 . S
C202 C104 1.490 . S
C216 C118 1.490 . S
C230 C132 1.490 . S
C146 C244 1.490 . S
C160 C174 1.490 . S
C105 C7 1.795 1_546 S
C119 C21 1.795 . S
C133 C35 1.795 1_656 S
C147 C49 1.795 1_565 S
C63 C161 1.795 1_554 S
C77 C91 1.795 1_655 S
C175 C273 1.795 1_546 S
C189 C287 1.795 . S
C301 C203 1.795 1_454 S
C315 C217 1.795 1_545 S
C329 C231 1.795 1_554 S
C259 C245 1.795 1_655 S
C9 C275 1.822 . S
C289 C23 1.822 . S
C37 C303 1.822 . S
C317 C51 1.822 . S
C65 C331 1.822 . S
C261 C79 1.822 . S
C93 C247 1.822 . S
C177 C107 1.822 . S
C121 C191 1.822 . S
C135 C205 1.822 . S
C149 C219 1.822 . S
C163 C233 1.822 . S
