# Generated by pormake.
# Topology irl, (4)-cn, num edge types: 1
# Building blocks:
#     Node 0, Type 0, BuildingBlock: QUQFOY_clean_sbu_1, # of connection points: 4
#     Node 1, Type 0, BuildingBlock: QUQFOY_clean_sbu_1, # of connection points: 4
#     Node 2, Type 0, BuildingBlock: QUQFOY_clean_sbu_1, # of connection points: 4
#     Node 3, Type 0, BuildingBlock: QUQFOY_clean_sbu_1, # of connection points: 4
#     Node 4, Type 0, BuildingBlock: QUQFOY_clean_sbu_1, # of connection points: 4
#     Node 5, Type 0, BuildingBlock: QUQFOY_clean_sbu_1, # of connection points: 4
#     Node 6, Type 0, BuildingBlock: QUQFOY_clean_sbu_1, # of connection points: 4
#     Node 7, Type 0, BuildingBlock: QUQFOY_clean_sbu_1, # of connection points: 4
#     Edge 8, Type (0, 0), BuildingBlock: FUNLAD_clean_linker_0, # of connection points: 2
#     Edge 9, Type (0, 0), BuildingBlock: FUNLAD_clean_linker_0, # of connection points: 2
#     Edge 10, Type (0, 0), BuildingBlock: FUNLAD_clean_linker_0, # of connection points: 2
#     Edge 11, Type (0, 0), BuildingBlock: FUNLAD_clean_linker_0, # of connection points: 2
#     Edge 12, Type (0, 0), BuildingBlock: FUNLAD_clean_linker_0, # of connection points: 2
#     Edge 13, Type (0, 0), BuildingBlock: FUNLAD_clean_linker_0, # of connection points: 2
#     Edge 14, Type (0, 0), BuildingBlock: FUNLAD_clean_linker_0, # of connection points: 2
#     Edge 15, Type (0, 0), BuildingBlock: FUNLAD_clean_linker_0, # of connection points: 2
#     Edge 16, Type (0, 0), BuildingBlock: FUNLAD_clean_linker_0, # of connection points: 2
#     Edge 17, Type (0, 0), BuildingBlock: FUNLAD_clean_linker_0, # of connection points: 2
#     Edge 18, Type (0, 0), BuildingBlock: FUNLAD_clean_linker_0, # of connection points: 2
#     Edge 19, Type (0, 0), BuildingBlock: FUNLAD_clean_linker_0, # of connection points: 2
#     Edge 20, Type (0, 0), BuildingBlock: FUNLAD_clean_linker_0, # of connection points: 2
#     Edge 21, Type (0, 0), BuildingBlock: FUNLAD_clean_linker_0, # of connection points: 2
#     Edge 22, Type (0, 0), BuildingBlock: FUNLAD_clean_linker_0, # of connection points: 2
#     Edge 23, Type (0, 0), BuildingBlock: FUNLAD_clean_linker_0, # of connection points: 2
# Relax obj value: 0.044
# Max RMSD: 0.086
# Mean RMSD: 0.086
data_MOF--net-irl--node1-QUQFOY_clean_sbu_1--edge1-FUNLAD_clean_linker_0
_symmetry_space_group_name_H-M    P1
_symmetry_Int_Tables_number       1
_symmetry_cell_setting            triclinic
loop_
_symmetry_equiv_pos_as_xyz
'x, y, z'
_cell_length_a     41.821839
_cell_length_b     51.626476
_cell_length_c     33.621954
_cell_angle_alpha  90.12633
_cell_angle_beta   90.02851
_cell_angle_gamma 89.975375
loop_
_atom_site_label
_atom_site_type_symbol
_atom_site_fract_x
_atom_site_fract_y
_atom_site_fract_z
_atom_type_partial_charge
O0 O 0.07996 0.17669 0.08421 0.0
Cd1 Cd 0.10156 0.16341 0.03282 0.0
Cd2 Cd 0.04377 0.17443 1.00304 0.0
O3 O 0.03555 0.1918 0.05768 0.0
O4 O 0.14832 0.16602 0.04427 0.0
O5 O 0.12435 0.18935 0.99797 0.0
C6 C 0.15001 0.18398 0.01775 0.0
C7 C 0.03341 0.19489 0.94251 0.0
C8 C 0.05348 0.18856 0.08784 0.0
C9 C 0.06306 0.11813 1.0055 0.0
O10 O 0.04074 0.13457 1.00082 0.0
O11 O 0.09088 0.12563 0.01577 0.0
O12 O 1.01053 0.18686 0.96505 0.0
O13 O 0.06238 0.19255 0.95545 0.0
O14 O 0.9538 0.82994 0.07819 0.0
Cd15 Cd 0.93144 0.84419 0.02799 0.0
Cd16 Cd 0.98868 0.83297 0.99673 0.0
O17 O 0.99793 0.81501 0.05059 0.0
O18 O 0.88483 0.84247 0.04116 0.0
O19 O 0.90685 0.81917 0.99328 0.0
C20 C 0.88188 0.82486 0.01412 0.0
C21 C 0.99259 0.81278 0.93478 0.0
C22 C 0.9803 0.818 0.0811 0.0
C23 C 0.97072 0.88935 1.0014 0.0
O24 O 0.99274 0.87276 0.99568 0.0
O25 O 0.9429 0.88198 0.01189 0.0
O26 O 0.01783 0.81951 0.95438 0.0
O27 O 0.96511 0.81623 0.95154 0.0
O28 O 0.08373 0.83264 0.4363 0.0
Cd29 Cd 0.10344 0.84682 0.48832 0.0
Cd30 Cd 0.04562 0.83381 0.51692 0.0
O31 O 0.03961 0.81624 0.46189 0.0
O32 O 0.15104 0.84588 0.48117 0.0
O33 O 0.12535 0.82123 0.52427 0.0
C34 C 0.15193 0.82779 0.50757 0.0
C35 C 0.03998 0.81246 0.57767 0.0
C36 C 0.0579 0.81991 0.43216 0.0
C37 C 0.06147 0.89059 0.51512 0.0
O38 O 0.03989 0.87347 0.51929 0.0
O39 O 0.08978 0.88396 0.50547 0.0
O40 O 0.0153 0.81885 0.5568 0.0
O41 O 0.06792 0.81703 0.56291 0.0
O42 O 0.94819 0.17815 0.44296 0.0
Cd43 Cd 0.92733 0.1642 0.4943 0.0
Cd44 Cd 0.98561 0.17479 0.52365 0.0
O45 O 0.99355 0.19192 0.46886 0.0
O46 O 0.88026 0.16811 0.48562 0.0
O47 O 0.90675 0.18953 0.53216 0.0
C48 C 0.88018 0.18522 0.51367 0.0
C49 C 0.99647 0.1957 0.58387 0.0
C50 C 0.97503 0.18942 0.43906 0.0
C51 C 0.96575 0.11852 0.52011 0.0
O52 O 0.98801 0.13488 0.52581 0.0
O53 O 0.93808 0.12614 0.50944 0.0
O54 O 0.01918 0.18713 0.56147 0.0
O55 O 0.96746 0.1935 0.57106 0.0
O56 O 0.57496 0.68062 0.074 0.0
Cd57 Cd 0.59446 0.66561 0.02245 0.0
Cd58 Cd 0.53764 0.68017 0.99337 0.0
O59 O 0.5315 0.6979 0.04809 0.0
O60 O 0.64186 0.66723 0.03038 0.0
O61 O 0.61635 0.69016 0.98483 0.0
C62 C 0.64276 0.68458 1.00282 0.0
C63 C 0.52883 0.70142 0.9331 0.0
C64 C 0.54954 0.6939 0.07794 0.0
C65 C 0.55161 0.62272 0.9964 0.0
O66 O 0.5311 0.6406 0.9913 0.0
O67 O 0.58012 0.62837 1.00662 0.0
O68 O 0.50536 0.69461 0.95567 0.0
O69 O 0.55753 0.69731 0.94582 0.0
O70 O 0.45365 0.33149 0.07623 0.0
Cd71 Cd 0.43446 0.34616 0.02432 0.0
Cd72 Cd 0.49154 0.33126 0.99601 0.0
O73 O 0.49733 0.31405 0.05108 0.0
O74 O 0.387 0.3447 0.03187 0.0
O75 O 0.41265 0.32137 0.98679 0.0
C76 C 0.38617 0.32714 1.0045 0.0
C77 C 0.50011 0.30928 0.93619 0.0
C78 C 0.47905 0.31826 0.08063 0.0
C79 C 0.47757 0.38875 0.998 0.0
O80 O 0.49807 0.37081 0.99329 0.0
O81 O 0.44902 0.38323 1.00814 0.0
O82 O 0.52369 0.31637 0.95843 0.0
O83 O 0.47147 0.31357 0.94898 0.0
O84 O 0.57499 0.33352 0.43714 0.0
Cd85 Cd 0.59498 0.34776 0.48893 0.0
Cd86 Cd 0.53841 0.33311 0.51793 0.0
O87 O 0.53207 0.31553 0.46313 0.0
O88 O 0.64204 0.34725 0.4788 0.0
O89 O 0.61878 0.32262 0.52403 0.0
C90 C 0.64438 0.32913 0.50502 0.0
C91 C 0.52995 0.31169 0.57807 0.0
C92 C 0.54977 0.32001 0.43317 0.0
C93 C 0.55237 0.39048 0.51622 0.0
O94 O 0.53169 0.37266 0.5205 0.0
O95 O 0.58091 0.38478 0.50622 0.0
O96 O 0.50638 0.31846 0.55561 0.0
O97 O 0.55861 0.31591 0.56528 0.0
O98 O 0.454 0.6807 0.43501 0.0
Cd99 Cd 0.43546 0.66659 0.4876 0.0
Cd100 Cd 0.49247 0.68201 0.51538 0.0
O101 O 0.4973 0.69896 0.45997 0.0
O102 O 0.38776 0.66696 0.48206 0.0
O103 O 0.41407 0.69234 0.52382 0.0
C104 C 0.38723 0.6854 0.50806 0.0
C105 C 0.50043 0.70438 0.57499 0.0
C106 C 0.47911 0.69428 0.43045 0.0
C107 C 0.47938 0.62457 0.51481 0.0
O108 O 0.49988 0.64258 0.51865 0.0
O109 O 0.4507 0.62995 0.50508 0.0
O110 O 0.52422 0.69769 0.5528 0.0
O111 O 0.47193 0.69949 0.56221 0.0
C112 C 1.00862 0.92531 0.9842 0.0
C113 C 0.97827 0.91736 0.99751 0.0
C114 C 0.01666 0.95158 0.98262 0.0
C115 C 0.99461 0.97065 0.99469 0.0
C116 C 0.96399 0.96272 1.0069 0.0
C117 C 0.9559 0.93642 1.00839 0.0
C118 C 1.00231 0.99889 0.99441 0.0
C119 C 0.03237 0.00853 0.99458 0.0
C120 C 0.03996 0.03678 0.99577 0.0
C121 C 0.07042 0.04473 1.00869 0.0
C122 C 0.07828 0.07106 0.01115 0.0
C123 C 0.05585 0.09011 1.00057 0.0
H124 H 0.99461 0.05075 0.97234 0.0
C125 C 0.0257 0.08216 0.98651 0.0
C126 C 0.01789 0.05587 0.98392 0.0
H127 H 1.00793 0.09627 0.97759 0.0
H128 H 0.02637 0.9112 0.97514 0.0
H129 H 0.0401 0.95671 0.97161 0.0
H130 H 0.94633 0.97693 0.01594 0.0
H131 H 0.93229 0.93103 0.01869 0.0
H132 H 0.98219 0.01211 0.99634 0.0
H133 H 0.05251 0.99532 0.99612 0.0
H134 H 0.08808 0.0305 0.01756 0.0
H135 H 0.10175 0.07646 0.02199 0.0
C136 C 0.02207 0.92563 0.53218 0.0
C137 C 0.05301 0.91839 0.51999 0.0
C138 C 1.01339 0.95175 0.53495 0.0
C139 C 0.0354 0.97137 0.5252 0.0
C140 C 0.06654 0.96411 0.51399 0.0
C141 C 0.07525 0.93797 0.51132 0.0
C142 C 0.02719 0.9995 0.52695 0.0
C143 C 0.997 0.0089 0.52661 0.0
C144 C 0.98912 0.03712 0.52681 0.0
C145 C 0.9589 0.04518 0.51326 0.0
C146 C 0.95089 0.07152 0.51187 0.0
C147 C 0.97295 0.09045 0.52417 0.0
H148 H 0.03377 0.0508 0.55264 0.0
C149 C 1.00279 0.08234 0.53896 0.0
C150 C 1.01073 0.05605 0.54048 0.0
H151 H 0.02024 0.09634 0.54921 0.0
H152 H 1.00438 0.91108 0.53951 0.0
H153 H 0.98951 0.95631 0.54505 0.0
H154 H 0.08415 0.97873 0.50671 0.0
H155 H 0.0993 0.93315 0.50193 0.0
H156 H 0.04712 0.01294 0.52633 0.0
H157 H 0.97706 0.99559 0.5238 0.0
H158 H 0.94157 0.03107 0.503 0.0
H159 H 0.92766 0.07704 0.50043 0.0
C160 C 0.56157 0.57472 1.00307 0.0
C161 C 0.54134 0.59528 0.99217 0.0
C162 C 0.55067 0.54904 1.00165 0.0
C163 C 0.51929 0.54334 0.98892 0.0
C164 C 0.49935 0.56391 0.97757 0.0
C165 C 0.51019 0.58948 0.97906 0.0
C166 C 0.50574 0.51657 0.98879 0.0
C167 C 0.52358 0.4948 0.98911 0.0
C168 C 0.51002 0.46804 0.98957 0.0
C169 C 0.53001 0.44735 0.97878 0.0
C170 C 0.51913 0.42179 0.98057 0.0
C171 C 0.4879 0.41614 0.99345 0.0
H172 H 0.46251 0.47767 0.01166 0.0
C173 C 0.46763 0.43682 1.0038 0.0
C174 C 0.47856 0.46247 1.00206 0.0
H175 H 0.44354 0.43317 0.0142 0.0
H176 H 0.58559 0.57849 0.01367 0.0
H177 H 0.56667 0.53396 0.01167 0.0
H178 H 0.47508 0.56023 0.9678 0.0
H179 H 0.49387 0.60476 0.97041 0.0
H180 H 0.47992 0.51496 0.987 0.0
H181 H 0.54942 0.49639 0.98762 0.0
H182 H 0.55435 0.45092 0.9692 0.0
H183 H 0.5355 0.40642 0.97236 0.0
C184 C 0.56273 0.43845 0.51062 0.0
C185 C 0.54232 0.41793 0.52107 0.0
C186 C 0.55204 0.46417 0.51252 0.0
C187 C 0.52071 0.46997 0.52532 0.0
C188 C 0.50062 0.44942 0.5363 0.0
C189 C 0.51124 0.4238 0.53431 0.0
C190 C 0.50732 0.4968 0.52576 0.0
C191 C 0.52523 0.51851 0.5251 0.0
C192 C 0.51176 0.54531 0.52445 0.0
C193 C 0.53192 0.56604 0.53451 0.0
C194 C 0.52111 0.59161 0.53235 0.0
C195 C 0.48976 0.59722 0.51984 0.0
H196 H 0.46398 0.53565 0.50327 0.0
C197 C 0.46931 0.57652 0.51026 0.0
C198 C 0.48018 0.55086 0.51234 0.0
H199 H 0.44512 0.58013 0.50016 0.0
H200 H 0.58671 0.43462 0.49997 0.0
H201 H 0.56817 0.47922 0.50278 0.0
H202 H 0.47637 0.45317 0.54612 0.0
H203 H 0.4948 0.40854 0.54264 0.0
H204 H 0.48152 0.4985 0.52787 0.0
H205 H 0.55108 0.51687 0.52624 0.0
H206 H 0.55635 0.56249 0.54377 0.0
H207 H 0.53759 0.60703 0.53996 0.0
C208 C 0.06212 0.1922 0.16141 0.0
C209 C 0.04268 0.19679 0.128 0.0
C210 C 0.05085 0.19714 0.19981 0.0
C211 C 0.01984 0.20705 0.20584 0.0
C212 C 1.00083 0.21244 0.17235 0.0
C213 C 1.01212 0.20745 0.13388 0.0
C214 C 1.0054 0.20953 0.24626 0.0
C215 C 0.0225 0.20968 0.28035 0.0
C216 C 1.00816 0.20755 0.32086 0.0
C217 C 0.02749 0.21268 0.35419 0.0
C218 C 0.01636 0.20787 0.39274 0.0
C219 C 0.9856 0.19767 0.39887 0.0
H220 H 0.96133 0.19332 0.30264 0.0
C221 C 0.96581 0.19345 0.36565 0.0
C222 C 0.97694 0.19819 0.32716 0.0
H223 H 0.942 0.18554 0.36919 0.0
H224 H 0.08577 0.18392 0.15807 0.0
H225 H 0.06615 0.192 0.22447 0.0
H226 H 0.97679 0.21991 0.17598 0.0
H227 H 0.99647 0.21121 0.10886 0.0
H228 H 0.97954 0.21074 0.2476 0.0
H229 H 0.04837 0.21084 0.27891 0.0
H230 H 0.05168 0.21976 0.35038 0.0
H231 H 0.03227 0.21136 0.41761 0.0
C232 C 0.06752 0.81651 0.35871 0.0
C233 C 0.0481 0.81116 0.39183 0.0
C234 C 0.05691 0.81109 0.32013 0.0
C235 C 0.02662 0.79994 0.31366 0.0
C236 C 1.00773 0.79373 0.34689 0.0
C237 C 0.01834 0.7992 0.38551 0.0
C238 C 1.01256 0.79699 0.27309 0.0
C239 C 0.02963 0.79803 0.23904 0.0
C240 C 1.01501 0.7999 0.19864 0.0
C241 C 0.03428 0.79539 0.16505 0.0
C242 C 0.02267 0.8001 0.12665 0.0
C243 C 0.99151 0.80963 0.12097 0.0
H244 H 0.96784 0.81294 0.21751 0.0
C245 C 0.97183 0.8132 0.15446 0.0
C246 C 0.98341 0.80853 0.19276 0.0
H247 H 0.94771 0.82057 0.15128 0.0
H248 H 0.09057 0.82578 0.36239 0.0
H249 H 0.07208 0.81683 0.29568 0.0
H250 H 0.98424 0.78527 0.34294 0.0
H251 H 1.00273 0.7948 0.41029 0.0
H252 H 0.98683 0.79446 0.27156 0.0
H253 H 0.05554 0.79816 0.24044 0.0
H254 H 0.05876 0.78891 0.16857 0.0
H255 H 0.03851 0.79716 0.10157 0.0
C256 C 1.0058 0.79862 0.63511 0.0
C257 C 0.03634 0.80242 0.61871 0.0
C258 C 1.0022 0.79256 0.67542 0.0
C259 C 0.02915 0.79037 0.70037 0.0
C260 C 0.05969 0.79263 0.68331 0.0
C261 C 0.06328 0.79865 0.64301 0.0
C262 C 0.02671 0.78697 0.74435 0.0
C263 C 1.0005 0.79328 0.76575 0.0
C264 C 0.99953 0.79437 0.81009 0.0
C265 C 0.96961 0.79531 0.82906 0.0
C266 C 0.96735 0.79988 0.87 0.0
C267 C 0.99502 0.80384 0.89294 0.0
H268 H 0.05086 0.79722 0.82022 0.0
C269 C 0.02503 0.80179 0.87437 0.0
C270 C 0.02731 0.79718 0.83344 0.0
H271 H 0.04683 0.80484 0.89113 0.0
H272 H 0.98454 0.80105 0.61708 0.0
H273 H 0.97823 0.78996 0.68673 0.0
H274 H 0.08093 0.79075 0.70156 0.0
H275 H 0.08719 0.80127 0.6313 0.0
H276 H 0.0482 0.78076 0.75968 0.0
H277 H 0.9789 0.79932 0.75051 0.0
H278 H 0.94779 0.79332 0.81193 0.0
H279 H 0.94384 0.80137 0.88332 0.0
C280 C 0.05147 0.20845 0.87441 0.0
C281 C 0.02657 0.20411 0.90164 0.0
C282 C 0.04478 0.21325 0.83425 0.0
C283 C 1.0129 0.21397 0.8205 0.0
C284 C 0.98812 0.21091 0.84829 0.0
C285 C 0.99482 0.20607 0.8883 0.0
C286 C 1.00422 0.21528 0.77745 0.0
C287 C 0.02476 0.22102 0.74781 0.0
C288 C 0.01673 0.21768 0.70487 0.0
C289 C 0.98508 0.21815 0.69043 0.0
C290 C 0.97855 0.21211 0.65062 0.0
C291 C 1.00346 0.20565 0.62435 0.0
H292 H 0.06629 0.2126 0.68802 0.0
C293 C 0.03515 0.20673 0.63822 0.0
C294 C 0.04167 0.21279 0.67795 0.0
H295 H 0.05495 0.20205 0.61874 0.0
H296 H 0.0762 0.20698 0.88371 0.0
H297 H 0.06479 0.21513 0.81418 0.0
H298 H 0.96337 0.21137 0.83879 0.0
H299 H 0.97502 0.2029 0.90847 0.0
H300 H 0.97995 0.20966 0.76998 0.0
H301 H 0.04919 0.22637 0.75476 0.0
H302 H 0.96521 0.22283 0.70972 0.0
H303 H 0.95389 0.21176 0.64076 0.0
C304 C 0.55975 0.69811 0.15109 0.0
C305 C 0.5398 0.70274 0.11818 0.0
C306 C 0.54921 0.70332 0.18971 0.0
C307 C 0.51844 0.71351 0.19643 0.0
C308 C 0.49898 0.71905 0.16342 0.0
C309 C 0.50956 0.71384 0.12472 0.0
C310 C 0.50464 0.71589 0.23715 0.0
C311 C 0.52238 0.71643 0.27068 0.0
C312 C 0.50882 0.71378 0.31146 0.0
C313 C 0.528 0.72035 0.34431 0.0
C314 C 0.51784 0.71508 0.38311 0.0
C315 C 0.4883 0.70289 0.38995 0.0
H316 H 0.46343 0.6964 0.29421 0.0
C317 C 0.4686 0.69717 0.35719 0.0
C318 C 0.47873 0.70244 0.31844 0.0
H319 H 0.44571 0.68772 0.3613 0.0
H320 H 0.58319 0.68953 0.1472 0.0
H321 H 0.56479 0.69809 0.21406 0.0
H322 H 0.47511 0.72674 0.16763 0.0
H323 H 0.49354 0.71763 0.10009 0.0
H324 H 0.47877 0.71657 0.23929 0.0
H325 H 0.54817 0.71825 0.26849 0.0
H326 H 0.55136 0.72895 0.33991 0.0
H327 H 0.53365 0.71975 0.40761 0.0
C328 C 0.55974 0.31628 0.35993 0.0
C329 C 0.54003 0.31124 0.39289 0.0
C330 C 0.54927 0.31085 0.32134 0.0
C331 C 0.51882 0.30004 0.31469 0.0
C332 C 0.49958 0.29419 0.34774 0.0
C333 C 0.51008 0.29961 0.38642 0.0
C334 C 0.5051 0.29724 0.27398 0.0
C335 C 0.52285 0.29691 0.24046 0.0
C336 C 0.50923 0.29919 0.19963 0.0
C337 C 0.52871 0.29312 0.16684 0.0
C338 C 0.51842 0.29819 0.128 0.0
C339 C 0.48845 0.30966 0.12108 0.0
H340 H 0.46313 0.31539 0.2167 0.0
C341 C 0.46846 0.31482 0.15377 0.0
C342 C 0.47872 0.30976 0.19254 0.0
H343 H 0.44523 0.3237 0.1496 0.0
H344 H 0.58293 0.32528 0.36375 0.0
H345 H 0.56464 0.31636 0.29694 0.0
H346 H 0.47594 0.28603 0.34358 0.0
H347 H 0.49425 0.2955 0.41109 0.0
H348 H 0.47925 0.29607 0.27184 0.0
H349 H 0.54868 0.2956 0.24271 0.0
H350 H 0.55239 0.28511 0.17132 0.0
H351 H 0.53446 0.29397 0.10354 0.0
C352 C 0.48018 0.29329 0.87014 0.0
C353 C 0.50587 0.29877 0.89577 0.0
C354 C 0.48568 0.28695 0.83023 0.0
C355 C 0.51707 0.28617 0.81501 0.0
C356 C 0.54272 0.28997 0.84135 0.0
C357 C 0.53722 0.29629 0.88121 0.0
C358 C 0.5242 0.28288 0.77184 0.0
C359 C 0.50332 0.2892 0.74283 0.0
C360 C 0.51155 0.29083 0.69975 0.0
C361 C 0.48644 0.29269 0.67215 0.0
C362 C 0.49256 0.29806 0.63217 0.0
C363 C 0.52403 0.30182 0.61876 0.0
H364 H 0.56337 0.29259 0.70602 0.0
C365 C 0.54935 0.29869 0.64582 0.0
C366 C 0.54322 0.29334 0.68592 0.0
H367 H 0.57387 0.30158 0.63647 0.0
H368 H 0.45573 0.29469 0.88056 0.0
H369 H 0.46522 0.2831 0.81146 0.0
H370 H 0.56715 0.28917 0.83069 0.0
H371 H 0.55759 0.30017 0.90022 0.0
H372 H 0.54833 0.27709 0.76405 0.0
H373 H 0.47924 0.29504 0.75079 0.0
H374 H 0.46182 0.2909 0.68181 0.0
H375 H 0.47247 0.30027 0.61211 0.0
C376 C 0.54816 0.71486 0.86558 0.0
C377 C 0.52281 0.71128 0.89242 0.0
C378 C 0.54209 0.72028 0.82549 0.0
C379 C 0.51043 0.72241 0.81144 0.0
C380 C 0.48524 0.72008 0.83882 0.0
C381 C 0.49132 0.71464 0.8788 0.0
C382 C 0.50237 0.72413 0.76831 0.0
C383 C 0.52324 0.73087 0.73955 0.0
C384 C 0.51641 0.72763 0.69629 0.0
C385 C 0.54225 0.7242 0.67015 0.0
C386 C 0.53706 0.71787 0.63022 0.0
C387 C 0.50583 0.71501 0.61541 0.0
H388 H 0.46449 0.7301 0.69941 0.0
C389 C 0.47992 0.72017 0.64083 0.0
C390 C 0.48511 0.72652 0.68081 0.0
H391 H 0.45555 0.71848 0.63021 0.0
H392 H 0.57271 0.71229 0.8751 0.0
H393 H 0.56231 0.7214 0.80556 0.0
H394 H 0.46063 0.72157 0.82898 0.0
H395 H 0.4712 0.71208 0.89869 0.0
H396 H 0.47847 0.71797 0.76007 0.0
H397 H 0.5472 0.73698 0.74761 0.0
H398 H 0.56661 0.72527 0.68103 0.0
H399 H 0.55759 0.71424 0.61138 0.0
C400 C 0.33057 0.31384 0.02299 0.0
C401 C 0.3563 0.3126 0.99614 0.0
C402 C 0.30374 0.29802 0.01789 0.0
C403 C 0.30184 0.28076 0.98555 0.0
C404 C 0.32676 0.28045 0.95758 0.0
C405 C 0.35394 0.29597 0.96307 0.0
C406 C 0.27426 0.26277 0.98095 0.0
C407 C 0.26102 0.25085 0.01255 0.0
C408 C 0.23388 0.23228 0.0101 0.0
C409 C 0.23106 0.21333 0.03974 0.0
C410 C 0.20455 0.19691 0.04093 0.0
C411 C 0.17977 0.19935 0.01292 0.0
H412 H 0.21085 0.2489 0.95821 0.0
C413 C 0.18282 0.21796 0.98263 0.0
C414 C 0.20972 0.2342 0.98108 0.0
H415 H 0.16408 0.22042 0.96071 0.0
H416 H 0.33154 0.32647 0.04873 0.0
H417 H 0.28454 0.29923 0.03942 0.0
H418 H 0.32572 0.26751 0.93219 0.0
H419 H 0.37329 0.29464 0.94176 0.0
H420 H 0.26629 0.25795 0.95109 0.0
H421 H 0.27152 0.25393 0.04177 0.0
H422 H 0.24924 0.21148 0.06253 0.0
H423 H 0.20298 0.1829 0.06478 0.0
C424 C 0.69833 0.69797 0.02146 0.0
C425 C 0.67264 0.69909 0.99452 0.0
C426 C 0.72523 0.71367 0.01629 0.0
C427 C 0.72724 0.73071 0.98381 0.0
C428 C 0.70233 0.73093 0.95579 0.0
C429 C 0.67509 0.71552 0.96133 0.0
C430 C 0.75503 0.74845 0.97894 0.0
C431 C 0.76876 0.76029 0.01037 0.0
C432 C 0.79639 0.77837 1.00762 0.0
C433 C 0.80027 0.79711 0.03753 0.0
C434 C 0.8273 0.81299 0.03841 0.0
C435 C 0.85153 0.8102 0.00976 0.0
H436 H 0.81811 0.76159 0.95488 0.0
C437 C 0.8474 0.79184 0.97918 0.0
C438 C 0.82002 0.77614 0.97799 0.0
H439 H 0.8657 0.78912 0.95676 0.0
H440 H 0.6973 0.68549 0.04729 0.0
H441 H 0.74442 0.71251 0.03786 0.0
H442 H 0.70346 0.74368 0.93028 0.0
H443 H 0.65577 0.71675 0.93995 0.0
H444 H 0.76285 0.75305 0.94898 0.0
H445 H 0.75846 0.75744 0.03972 0.0
H446 H 0.78252 0.7992 0.0608 0.0
H447 H 0.8297 0.82682 0.06249 0.0
C448 C 0.18191 0.7905 0.53775 0.0
C449 C 0.18218 0.81391 0.51644 0.0
C450 C 0.21007 0.77614 0.54271 0.0
C451 C 0.23915 0.78499 0.52663 0.0
C452 C 0.2396 0.80895 0.50695 0.0
C453 C 0.21143 0.82314 0.50157 0.0
C454 C 0.26933 0.76976 0.52937 0.0
C455 C 0.27002 0.74363 0.5301 0.0
C456 C 0.30018 0.72834 0.52749 0.0
C457 C 0.29948 0.70393 0.50899 0.0
C458 C 0.32761 0.68968 0.5036 0.0
C459 C 0.35707 0.6993 0.5173 0.0
H460 H 0.3308 0.75597 0.55796 0.0
C461 C 0.35759 0.72317 0.53754 0.0
C462 C 0.32947 0.73759 0.54249 0.0
H463 H 0.37987 0.73108 0.54862 0.0
H464 H 0.1598 0.7829 0.54976 0.0
H465 H 0.20895 0.75813 0.55908 0.0
H466 H 0.2617 0.81639 0.49462 0.0
H467 H 0.21252 0.84117 0.48522 0.0
H468 H 0.29166 0.78037 0.52681 0.0
H469 H 0.24768 0.73295 0.52865 0.0
H470 H 0.27722 0.6962 0.49752 0.0
H471 H 0.32632 0.6713 0.48809 0.0
C472 C 0.6781 0.29538 0.5393 0.0
C473 C 0.67482 0.31469 0.51009 0.0
C474 C 0.70551 0.27969 0.54051 0.0
C475 C 0.73002 0.2829 0.51225 0.0
C476 C 0.72705 0.30265 0.48389 0.0
C477 C 0.69999 0.31851 0.48303 0.0
C478 C 0.75751 0.26471 0.50893 0.0
C479 C 0.77034 0.25164 0.53973 0.0
C480 C 0.79763 0.23349 0.53407 0.0
C481 C 0.82227 0.23241 0.56242 0.0
C482 C 0.84895 0.21641 0.55631 0.0
C483 C 0.85104 0.20067 0.5222 0.0
H484 H 0.78034 0.2171 0.47863 0.0
C485 C 0.82564 0.20093 0.49479 0.0
C486 C 0.79934 0.21723 0.50053 0.0
H487 H 0.82642 0.18902 0.46824 0.0
H488 H 0.65908 0.29186 0.56046 0.0
H489 H 0.70673 0.26436 0.56237 0.0
H490 H 0.74549 0.30551 0.4617 0.0
H491 H 0.69829 0.33311 0.46003 0.0
H492 H 0.76837 0.26266 0.47971 0.0
H493 H 0.762 0.25536 0.56979 0.0
H494 H 0.82135 0.24455 0.58872 0.0
H495 H 0.86806 0.21657 0.57806 0.0
loop_
_geom_bond_atom_site_label_1
_geom_bond_atom_site_label_2
_geom_bond_distance
_geom_bond_site_symmetry_2
_ccdc_geom_bond_type
O0 Cd1 2.223 . S
O0 C8 1.315 . S
Cd1 O0 2.223 . S
Cd1 O4 2.297 . S
Cd1 O5 2.439 . S
Cd1 O11 2.240 . S
Cd2 O3 2.240 . S
Cd2 O10 2.223 . S
Cd2 O12 2.297 1_454 S
Cd2 O13 2.439 1_554 S
O3 Cd2 2.240 . S
O3 C8 1.279 . S
O4 Cd1 2.297 . S
O4 C6 1.247 . S
O5 Cd1 2.439 . S
O5 C6 1.208 . S
C6 O4 1.247 . S
C6 O5 1.208 . S
C7 O12 1.247 1_455 S
C7 O13 1.208 . S
C8 O0 1.315 . S
C8 O3 1.279 . S
C9 O10 1.315 . S
C9 O11 1.279 . S
O10 Cd2 2.223 . S
O10 C9 1.315 . S
O11 Cd1 2.240 . S
O11 C9 1.279 . S
O12 Cd2 2.297 1_656 S
O12 C7 1.247 1_655 S
O13 Cd2 2.439 1_556 S
O13 C7 1.208 . S
O14 Cd15 2.223 . S
O14 C22 1.315 . S
Cd15 O14 2.223 . S
Cd15 O18 2.297 . S
Cd15 O19 2.439 . S
Cd15 O25 2.240 . S
Cd16 O17 2.240 . S
Cd16 O24 2.223 . S
Cd16 O26 2.297 1_654 S
Cd16 O27 2.439 1_554 S
O17 Cd16 2.240 . S
O17 C22 1.279 . S
O18 Cd15 2.297 . S
O18 C20 1.247 . S
O19 Cd15 2.439 . S
O19 C20 1.208 . S
C20 O18 1.247 . S
C20 O19 1.208 . S
C21 O26 1.247 1_655 S
C21 O27 1.208 . S
C22 O14 1.315 . S
C22 O17 1.279 . S
C23 O24 1.315 . S
C23 O25 1.279 . S
O24 Cd16 2.223 . S
O24 C23 1.315 . S
O25 Cd15 2.240 . S
O25 C23 1.279 . S
O26 Cd16 2.297 1_456 S
O26 C21 1.247 1_455 S
O27 Cd16 2.439 1_556 S
O27 C21 1.208 . S
O28 Cd29 2.223 . S
O28 C36 1.315 . S
Cd29 O28 2.223 . S
Cd29 O32 2.297 . S
Cd29 O33 2.439 . S
Cd29 O39 2.240 . S
Cd30 O31 2.240 . S
Cd30 O38 2.223 . S
Cd30 O40 2.297 1_455 S
Cd30 O41 2.439 . S
O31 Cd30 2.240 . S
O31 C36 1.279 . S
O32 Cd29 2.297 . S
O32 C34 1.247 . S
O33 Cd29 2.439 . S
O33 C34 1.208 . S
C34 O32 1.247 . S
C34 O33 1.208 . S
C35 O40 1.247 1_455 S
C35 O41 1.208 . S
C36 O28 1.315 . S
C36 O31 1.279 . S
C37 O38 1.315 . S
C37 O39 1.279 . S
O38 Cd30 2.223 . S
O38 C37 1.315 . S
O39 Cd29 2.240 . S
O39 C37 1.279 . S
O40 Cd30 2.297 1_655 S
O40 C35 1.247 1_655 S
O41 Cd30 2.439 . S
O41 C35 1.208 . S
O42 Cd43 2.223 . S
O42 C50 1.315 . S
Cd43 O42 2.223 . S
Cd43 O46 2.297 . S
Cd43 O47 2.439 . S
Cd43 O53 2.240 . S
Cd44 O45 2.240 . S
Cd44 O52 2.223 . S
Cd44 O54 2.297 1_655 S
Cd44 O55 2.439 . S
O45 Cd44 2.240 . S
O45 C50 1.279 . S
O46 Cd43 2.297 . S
O46 C48 1.247 . S
O47 Cd43 2.439 . S
O47 C48 1.208 . S
C48 O46 1.247 . S
C48 O47 1.208 . S
C49 O54 1.247 1_655 S
C49 O55 1.208 . S
C50 O42 1.315 . S
C50 O45 1.279 . S
C51 O52 1.315 . S
C51 O53 1.279 . S
O52 Cd44 2.223 . S
O52 C51 1.315 . S
O53 Cd43 2.240 . S
O53 C51 1.279 . S
O54 Cd44 2.297 1_455 S
O54 C49 1.247 1_455 S
O55 Cd44 2.439 . S
O55 C49 1.208 . S
O56 Cd57 2.223 . S
O56 C64 1.315 . S
Cd57 O56 2.223 . S
Cd57 O60 2.297 . S
Cd57 O61 2.439 . S
Cd57 O67 2.240 . S
Cd58 O59 2.240 . S
Cd58 O66 2.223 . S
Cd58 O68 2.297 1_554 S
Cd58 O69 2.439 1_554 S
O59 Cd58 2.240 . S
O59 C64 1.279 . S
O60 Cd57 2.297 . S
O60 C62 1.247 . S
O61 Cd57 2.439 . S
O61 C62 1.208 . S
C62 O60 1.247 . S
C62 O61 1.208 . S
C63 O68 1.247 . S
C63 O69 1.208 . S
C64 O56 1.315 . S
C64 O59 1.279 . S
C65 O66 1.315 . S
C65 O67 1.279 . S
O66 Cd58 2.223 . S
O66 C65 1.315 . S
O67 Cd57 2.240 . S
O67 C65 1.279 . S
O68 Cd58 2.297 1_556 S
O68 C63 1.247 . S
O69 Cd58 2.439 1_556 S
O69 C63 1.208 . S
O70 Cd71 2.223 . S
O70 C78 1.315 . S
Cd71 O70 2.223 . S
Cd71 O74 2.297 . S
Cd71 O75 2.439 . S
Cd71 O81 2.240 . S
Cd72 O73 2.240 . S
Cd72 O80 2.223 . S
Cd72 O82 2.297 1_554 S
Cd72 O83 2.439 1_554 S
O73 Cd72 2.240 . S
O73 C78 1.279 . S
O74 Cd71 2.297 . S
O74 C76 1.247 . S
O75 Cd71 2.439 . S
O75 C76 1.208 . S
C76 O74 1.247 . S
C76 O75 1.208 . S
C77 O82 1.247 . S
C77 O83 1.208 . S
C78 O70 1.315 . S
C78 O73 1.279 . S
C79 O80 1.315 . S
C79 O81 1.279 . S
O80 Cd72 2.223 . S
O80 C79 1.315 . S
O81 Cd71 2.240 . S
O81 C79 1.279 . S
O82 Cd72 2.297 1_556 S
O82 C77 1.247 . S
O83 Cd72 2.439 1_556 S
O83 C77 1.208 . S
O84 Cd85 2.223 . S
O84 C92 1.315 . S
Cd85 O84 2.223 . S
Cd85 O88 2.297 . S
Cd85 O89 2.439 . S
Cd85 O95 2.240 . S
Cd86 O87 2.240 . S
Cd86 O94 2.223 . S
Cd86 O96 2.297 . S
Cd86 O97 2.439 . S
O87 Cd86 2.240 . S
O87 C92 1.279 . S
O88 Cd85 2.297 . S
O88 C90 1.247 . S
O89 Cd85 2.439 . S
O89 C90 1.208 . S
C90 O88 1.247 . S
C90 O89 1.208 . S
C91 O96 1.247 . S
C91 O97 1.208 . S
C92 O84 1.315 . S
C92 O87 1.279 . S
C93 O94 1.315 . S
C93 O95 1.279 . S
O94 Cd86 2.223 . S
O94 C93 1.315 . S
O95 Cd85 2.240 . S
O95 C93 1.279 . S
O96 Cd86 2.297 . S
O96 C91 1.247 . S
O97 Cd86 2.439 . S
O97 C91 1.208 . S
O98 Cd99 2.223 . S
O98 C106 1.315 . S
Cd99 O98 2.223 . S
Cd99 O102 2.297 . S
Cd99 O103 2.439 . S
Cd99 O109 2.240 . S
Cd100 O101 2.240 . S
Cd100 O108 2.223 . S
Cd100 O110 2.297 . S
Cd100 O111 2.439 . S
O101 Cd100 2.240 . S
O101 C106 1.279 . S
O102 Cd99 2.297 . S
O102 C104 1.247 . S
O103 Cd99 2.439 . S
O103 C104 1.208 . S
C104 O102 1.247 . S
C104 O103 1.208 . S
C105 O110 1.247 . S
C105 O111 1.208 . S
C106 O98 1.315 . S
C106 O101 1.279 . S
C107 O108 1.315 . S
C107 O109 1.279 . S
O108 Cd100 2.223 . S
O108 C107 1.315 . S
O109 Cd99 2.240 . S
O109 C107 1.279 . S
O110 Cd100 2.297 . S
O110 C105 1.247 . S
O111 Cd100 2.439 . S
O111 C105 1.208 . S
C112 C113 1.386 1_556 S
C112 C114 1.383 . S
C112 H128 0.951 . S
C113 C112 1.386 1_554 S
C113 C117 1.383 . S
C114 C112 1.383 . S
C114 C115 1.402 1_556 S
C114 H129 0.951 . S
C115 C114 1.402 1_554 S
C115 C116 1.375 . S
C115 C118 1.481 . S
C116 C115 1.375 . S
C116 C117 1.367 . S
C116 H130 0.951 . S
C117 C113 1.383 . S
C117 C116 1.367 . S
C117 H131 0.950 . S
C118 C115 1.481 . S
C118 C119 1.297 1_565 S
C118 H132 0.950 1_565 S
C119 C118 1.297 1_545 S
C119 C120 1.479 1_655 S
C119 H133 0.950 1_554 S
C120 C119 1.479 1_455 S
C120 C121 1.375 1_554 S
C120 C126 1.404 1_455 S
C121 C120 1.375 1_556 S
C121 C122 1.369 . S
C121 H134 0.950 . S
C122 C121 1.369 . S
C122 C123 1.392 1_556 S
C122 H135 0.951 . S
C123 C122 1.392 1_554 S
C123 C125 1.384 . S
H124 C126 0.949 . S
C125 C123 1.384 . S
C125 C126 1.385 1_455 S
C125 H127 0.950 . S
C126 C120 1.404 1_655 S
C126 H124 0.949 . S
C126 C125 1.385 1_655 S
H127 C125 0.950 . S
H128 C112 0.951 . S
H129 C114 0.951 . S
H130 C116 0.951 . S
H131 C117 0.950 . S
H132 C118 0.950 1_545 S
H133 C119 0.950 1_556 S
H134 C121 0.950 . S
H135 C122 0.951 . S
C136 C137 1.386 . S
C136 C138 1.383 . S
C136 H152 0.951 . S
C137 C136 1.386 . S
C137 C141 1.383 . S
C138 C136 1.383 . S
C138 C139 1.402 . S
C138 H153 0.951 . S
C139 C138 1.402 . S
C139 C140 1.375 . S
C139 C142 1.481 1_455 S
C140 C139 1.375 . S
C140 C141 1.367 . S
C140 H154 0.951 . S
C141 C137 1.383 . S
C141 C140 1.367 . S
C141 H155 0.950 . S
C142 C139 1.481 1_655 S
C142 C143 1.297 1_565 S
C142 H156 0.950 . S
C143 C142 1.297 1_545 S
C143 C144 1.479 . S
C143 H157 0.950 1_545 S
C144 C143 1.479 . S
C144 C145 1.375 . S
C144 C150 1.404 . S
C145 C144 1.375 . S
C145 C146 1.369 . S
C145 H158 0.950 . S
C146 C145 1.369 . S
C146 C147 1.392 . S
C146 H159 0.951 . S
C147 C146 1.392 . S
C147 C149 1.384 . S
H148 C150 0.949 . S
C149 C147 1.384 . S
C149 C150 1.385 . S
C149 H151 0.950 . S
C150 C144 1.404 . S
C150 H148 0.949 . S
C150 C149 1.385 . S
H151 C149 0.950 . S
H152 C136 0.951 . S
H153 C138 0.951 . S
H154 C140 0.951 . S
H155 C141 0.950 . S
H156 C142 0.950 . S
H157 C143 0.950 1_565 S
H158 C145 0.950 . S
H159 C146 0.951 . S
C160 C161 1.386 . S
C160 C162 1.383 . S
C160 H176 0.951 . S
C161 C160 1.386 . S
C161 C165 1.383 . S
C162 C160 1.383 . S
C162 C163 1.402 . S
C162 H177 0.951 . S
C163 C162 1.402 . S
C163 C164 1.375 . S
C163 C166 1.481 . S
C164 C163 1.375 . S
C164 C165 1.367 . S
C164 H178 0.951 . S
C165 C161 1.383 . S
C165 C164 1.367 . S
C165 H179 0.950 . S
C166 C163 1.481 . S
C166 C167 1.297 . S
C166 H180 0.950 . S
C167 C166 1.297 . S
C167 C168 1.479 . S
C167 H181 0.950 . S
C168 C167 1.479 . S
C168 C169 1.375 . S
C168 C174 1.404 . S
C169 C168 1.375 . S
C169 C170 1.369 . S
C169 H182 0.950 . S
C170 C169 1.369 . S
C170 C171 1.392 . S
C170 H183 0.951 . S
C171 C170 1.392 . S
C171 C173 1.384 . S
H172 C174 0.949 . S
C173 C171 1.384 . S
C173 C174 1.385 . S
C173 H175 0.950 . S
C174 C168 1.404 . S
C174 H172 0.949 . S
C174 C173 1.385 . S
H175 C173 0.950 . S
H176 C160 0.951 . S
H177 C162 0.951 . S
H178 C164 0.951 . S
H179 C165 0.950 . S
H180 C166 0.950 . S
H181 C167 0.950 . S
H182 C169 0.950 . S
H183 C170 0.951 . S
C184 C185 1.386 . S
C184 C186 1.383 . S
C184 H200 0.951 . S
C185 C184 1.386 . S
C185 C189 1.383 . S
C186 C184 1.383 . S
C186 C187 1.402 . S
C186 H201 0.951 . S
C187 C186 1.402 . S
C187 C188 1.375 . S
C187 C190 1.481 . S
C188 C187 1.375 . S
C188 C189 1.367 . S
C188 H202 0.951 . S
C189 C185 1.383 . S
C189 C188 1.367 . S
C189 H203 0.950 . S
C190 C187 1.481 . S
C190 C191 1.297 . S
C190 H204 0.950 . S
C191 C190 1.297 . S
C191 C192 1.479 . S
C191 H205 0.950 . S
C192 C191 1.479 . S
C192 C193 1.375 . S
C192 C198 1.404 . S
C193 C192 1.375 . S
C193 C194 1.369 . S
C193 H206 0.950 . S
C194 C193 1.369 . S
C194 C195 1.392 . S
C194 H207 0.951 . S
C195 C194 1.392 . S
C195 C197 1.384 . S
H196 C198 0.949 . S
C197 C195 1.384 . S
C197 C198 1.385 . S
C197 H199 0.950 . S
C198 C192 1.404 . S
C198 H196 0.949 . S
C198 C197 1.385 . S
H199 C197 0.950 . S
H200 C184 0.951 . S
H201 C186 0.951 . S
H202 C188 0.951 . S
H203 C189 0.950 . S
H204 C190 0.950 . S
H205 C191 0.950 . S
H206 C193 0.950 . S
H207 C194 0.951 . S
C208 C209 1.386 . S
C208 C210 1.383 . S
C208 H224 0.951 . S
C209 C208 1.386 . S
C209 C213 1.383 . S
C210 C208 1.383 . S
C210 C211 1.402 . S
C210 H225 0.951 . S
C211 C210 1.402 . S
C211 C212 1.375 . S
C211 C214 1.481 . S
C212 C211 1.375 . S
C212 C213 1.367 . S
C212 H226 0.951 1_455 S
C213 C209 1.383 . S
C213 C212 1.367 . S
C213 H227 0.950 . S
C214 C211 1.481 . S
C214 C215 1.297 . S
C214 H228 0.950 1_455 S
C215 C214 1.297 . S
C215 C216 1.486 . S
C215 H229 0.950 . S
C216 C215 1.486 . S
C216 C217 1.379 . S
C216 C222 1.393 1_455 S
C217 C216 1.379 . S
C217 C218 1.369 1_455 S
C217 H230 0.950 . S
C218 C217 1.369 1_655 S
C218 C219 1.392 . S
C218 H231 0.951 . S
C219 C218 1.392 . S
C219 C221 1.384 . S
H220 C222 0.949 . S
C221 C219 1.384 . S
C221 C222 1.385 . S
C221 H223 0.950 . S
C222 C216 1.393 1_655 S
C222 H220 0.949 . S
C222 C221 1.385 . S
H223 C221 0.950 . S
H224 C208 0.951 . S
H225 C210 0.951 . S
H226 C212 0.951 1_655 S
H227 C213 0.950 . S
H228 C214 0.950 1_655 S
H229 C215 0.950 . S
H230 C217 0.950 . S
H231 C218 0.951 . S
C232 C233 1.386 . S
C232 C234 1.383 . S
C232 H248 0.951 . S
C233 C232 1.386 . S
C233 C237 1.383 . S
C234 C232 1.383 . S
C234 C235 1.402 . S
C234 H249 0.951 . S
C235 C234 1.402 . S
C235 C236 1.375 1_455 S
C235 C238 1.481 1_455 S
C236 C235 1.375 1_655 S
C236 C237 1.367 1_655 S
C236 H250 0.951 . S
C237 C233 1.383 . S
C237 C236 1.367 1_455 S
C237 H251 0.950 1_455 S
C238 C235 1.481 1_655 S
C238 C239 1.297 1_655 S
C238 H252 0.950 . S
C239 C238 1.297 1_455 S
C239 C240 1.479 1_455 S
C239 H253 0.950 . S
C240 C239 1.479 1_655 S
C240 C241 1.375 1_655 S
C240 C246 1.404 . S
C241 C240 1.375 1_455 S
C241 C242 1.381 . S
C241 H254 0.950 . S
C242 C241 1.381 . S
C242 C243 1.366 1_455 S
C242 H255 0.966 . S
C243 C242 1.366 1_655 S
C243 C245 1.384 . S
H244 C246 0.949 . S
C245 C243 1.384 . S
C245 C246 1.385 . S
C245 H247 0.950 . S
C246 C240 1.404 . S
C246 H244 0.949 . S
C246 C245 1.385 . S
H247 C245 0.950 . S
H248 C232 0.951 . S
H249 C234 0.951 . S
H250 C236 0.951 . S
H251 C237 0.950 1_655 S
H252 C238 0.950 . S
H253 C239 0.950 . S
H254 C241 0.950 . S
H255 C242 0.966 . S
C256 C257 1.386 1_655 S
C256 C258 1.383 . S
C256 H272 0.951 . S
C257 C256 1.386 1_455 S
C257 C261 1.383 . S
C258 C256 1.383 . S
C258 C259 1.402 1_655 S
C258 H273 0.951 . S
C259 C258 1.402 1_455 S
C259 C260 1.375 . S
C259 C262 1.481 . S
C260 C259 1.375 . S
C260 C261 1.367 . S
C260 H274 0.951 . S
C261 C257 1.383 . S
C261 C260 1.367 . S
C261 H275 0.950 . S
C262 C259 1.481 . S
C262 C263 1.297 1_455 S
C262 H276 0.950 . S
C263 C262 1.297 1_655 S
C263 C264 1.479 . S
C263 H277 0.950 . S
C264 C263 1.479 . S
C264 C265 1.375 . S
C264 C270 1.404 1_655 S
C265 C264 1.375 . S
C265 C266 1.369 . S
C265 H278 0.950 . S
C266 C265 1.369 . S
C266 C267 1.392 . S
C266 H279 0.951 . S
C267 C266 1.392 . S
C267 C269 1.384 1_655 S
H268 C270 0.949 . S
C269 C267 1.384 1_455 S
C269 C270 1.385 . S
C269 H271 0.950 . S
C270 C264 1.404 1_455 S
C270 H268 0.949 . S
C270 C269 1.385 . S
H271 C269 0.950 . S
H272 C256 0.951 . S
H273 C258 0.951 . S
H274 C260 0.951 . S
H275 C261 0.950 . S
H276 C262 0.950 . S
H277 C263 0.950 . S
H278 C265 0.950 . S
H279 C266 0.951 . S
C280 C281 1.386 . S
C280 C282 1.383 . S
C280 H296 0.951 . S
C281 C280 1.386 . S
C281 C285 1.383 . S
C282 C280 1.383 . S
C282 C283 1.402 . S
C282 H297 0.951 . S
C283 C282 1.402 . S
C283 C284 1.375 . S
C283 C286 1.481 . S
C284 C283 1.375 . S
C284 C285 1.367 . S
C284 H298 0.943 1_455 S
C285 C281 1.383 . S
C285 C284 1.367 . S
C285 H299 0.950 . S
C286 C283 1.481 . S
C286 C287 1.297 . S
C286 H300 0.950 1_455 S
C287 C286 1.297 . S
C287 C288 1.479 . S
C287 H301 0.950 . S
C288 C287 1.479 . S
C288 C289 1.375 . S
C288 C294 1.404 1_455 S
C289 C288 1.375 . S
C289 C290 1.369 1_455 S
C289 H302 0.950 . S
C290 C289 1.369 1_655 S
C290 C291 1.392 . S
C290 H303 0.951 . S
C291 C290 1.392 . S
C291 C293 1.384 . S
H292 C294 0.949 . S
C293 C291 1.384 . S
C293 C294 1.385 . S
C293 H295 0.950 . S
C294 C288 1.404 1_655 S
C294 H292 0.949 . S
C294 C293 1.385 . S
H295 C293 0.950 . S
H296 C280 0.951 . S
H297 C282 0.951 . S
H298 C284 0.943 1_655 S
H299 C285 0.950 . S
H300 C286 0.950 1_655 S
H301 C287 0.950 . S
H302 C289 0.950 . S
H303 C290 0.951 . S
C304 C305 1.386 . S
C304 C306 1.383 . S
C304 H320 0.951 . S
C305 C304 1.386 . S
C305 C309 1.383 . S
C306 C304 1.383 . S
C306 C307 1.402 . S
C306 H321 0.951 . S
C307 C306 1.402 . S
C307 C308 1.375 . S
C307 C310 1.481 . S
C308 C307 1.375 . S
C308 C309 1.367 . S
C308 H322 0.951 . S
C309 C305 1.383 . S
C309 C308 1.367 . S
C309 H323 0.950 . S
C310 C307 1.481 . S
C310 C311 1.297 . S
C310 H324 0.950 . S
C311 C310 1.297 . S
C311 C312 1.479 . S
C311 H325 0.950 . S
C312 C311 1.479 . S
C312 C313 1.375 . S
C312 C318 1.404 . S
C313 C312 1.375 . S
C313 C314 1.369 . S
C313 H326 0.950 . S
C314 C313 1.369 . S
C314 C315 1.392 . S
C314 H327 0.951 . S
C315 C314 1.392 . S
C315 C317 1.384 . S
H316 C318 0.949 . S
C317 C315 1.384 . S
C317 C318 1.385 . S
C317 H319 0.950 . S
C318 C312 1.404 . S
C318 H316 0.949 . S
C318 C317 1.385 . S
H319 C317 0.950 . S
H320 C304 0.951 . S
H321 C306 0.951 . S
H322 C308 0.951 . S
H323 C309 0.950 . S
H324 C310 0.950 . S
H325 C311 0.950 . S
H326 C313 0.950 . S
H327 C314 0.951 . S
C328 C329 1.386 . S
C328 C330 1.383 . S
C328 H344 0.951 . S
C329 C328 1.386 . S
C329 C333 1.383 . S
C330 C328 1.383 . S
C330 C331 1.402 . S
C330 H345 0.951 . S
C331 C330 1.402 . S
C331 C332 1.375 . S
C331 C334 1.481 . S
C332 C331 1.375 . S
C332 C333 1.367 . S
C332 H346 0.951 . S
C333 C329 1.383 . S
C333 C332 1.367 . S
C333 H347 0.950 . S
C334 C331 1.481 . S
C334 C335 1.297 . S
C334 H348 0.950 . S
C335 C334 1.297 . S
C335 C336 1.479 . S
C335 H349 0.950 . S
C336 C335 1.479 . S
C336 C337 1.375 . S
C336 C342 1.404 . S
C337 C336 1.375 . S
C337 C338 1.369 . S
C337 H350 0.950 . S
C338 C337 1.369 . S
C338 C339 1.392 . S
C338 H351 0.951 . S
C339 C338 1.392 . S
C339 C341 1.384 . S
H340 C342 0.949 . S
C341 C339 1.384 . S
C341 C342 1.385 . S
C341 H343 0.950 . S
C342 C336 1.404 . S
C342 H340 0.949 . S
C342 C341 1.385 . S
H343 C341 0.950 . S
H344 C328 0.951 . S
H345 C330 0.951 . S
H346 C332 0.951 . S
H347 C333 0.950 . S
H348 C334 0.950 . S
H349 C335 0.950 . S
H350 C337 0.950 . S
H351 C338 0.951 . S
C352 C353 1.386 . S
C352 C354 1.383 . S
C352 H368 0.951 . S
C353 C352 1.386 . S
C353 C357 1.383 . S
C354 C352 1.383 . S
C354 C355 1.402 . S
C354 H369 0.951 . S
C355 C354 1.402 . S
C355 C356 1.375 . S
C355 C358 1.481 . S
C356 C355 1.375 . S
C356 C357 1.367 . S
C356 H370 0.951 . S
C357 C353 1.383 . S
C357 C356 1.367 . S
C357 H371 0.950 . S
C358 C355 1.481 . S
C358 C359 1.297 . S
C358 H372 0.950 . S
C359 C358 1.297 . S
C359 C360 1.479 . S
C359 H373 0.950 . S
C360 C359 1.479 . S
C360 C361 1.375 . S
C360 C366 1.404 . S
C361 C360 1.375 . S
C361 C362 1.369 . S
C361 H374 0.950 . S
C362 C361 1.369 . S
C362 C363 1.392 . S
C362 H375 0.951 . S
C363 C362 1.392 . S
C363 C365 1.384 . S
H364 C366 0.949 . S
C365 C363 1.384 . S
C365 C366 1.385 . S
C365 H367 0.950 . S
C366 C360 1.404 . S
C366 H364 0.949 . S
C366 C365 1.385 . S
H367 C365 0.950 . S
H368 C352 0.951 . S
H369 C354 0.951 . S
H370 C356 0.951 . S
H371 C357 0.950 . S
H372 C358 0.950 . S
H373 C359 0.950 . S
H374 C361 0.950 . S
H375 C362 0.951 . S
C376 C377 1.386 . S
C376 C378 1.383 . S
C376 H392 0.951 . S
C377 C376 1.386 . S
C377 C381 1.383 . S
C378 C376 1.383 . S
C378 C379 1.402 . S
C378 H393 0.951 . S
C379 C378 1.402 . S
C379 C380 1.375 . S
C379 C382 1.481 . S
C380 C379 1.375 . S
C380 C381 1.367 . S
C380 H394 0.951 . S
C381 C377 1.383 . S
C381 C380 1.367 . S
C381 H395 0.950 . S
C382 C379 1.481 . S
C382 C383 1.297 . S
C382 H396 0.950 . S
C383 C382 1.297 . S
C383 C384 1.479 . S
C383 H397 0.950 . S
C384 C383 1.479 . S
C384 C385 1.375 . S
C384 C390 1.404 . S
C385 C384 1.375 . S
C385 C386 1.369 . S
C385 H398 0.950 . S
C386 C385 1.369 . S
C386 C387 1.392 . S
C386 H399 0.951 . S
C387 C386 1.392 . S
C387 C389 1.384 . S
H388 C390 0.949 . S
C389 C387 1.384 . S
C389 C390 1.385 . S
C389 H391 0.950 . S
C390 C384 1.404 . S
C390 H388 0.949 . S
C390 C389 1.385 . S
H391 C389 0.950 . S
H392 C376 0.951 . S
H393 C378 0.951 . S
H394 C380 0.951 . S
H395 C381 0.950 . S
H396 C382 0.950 . S
H397 C383 0.950 . S
H398 C385 0.950 . S
H399 C386 0.951 . S
C400 C401 1.386 . S
C400 C402 1.383 . S
C400 H416 0.951 . S
C401 C400 1.386 . S
C401 C405 1.383 1_554 S
C402 C400 1.383 . S
C402 C403 1.402 . S
C402 H417 0.951 . S
C403 C402 1.402 . S
C403 C404 1.375 1_554 S
C403 C406 1.481 . S
C404 C403 1.375 1_556 S
C404 C405 1.367 . S
C404 H418 0.951 . S
C405 C401 1.383 1_556 S
C405 C404 1.367 . S
C405 H419 0.950 . S
C406 C403 1.481 . S
C406 C407 1.297 . S
C406 H420 0.950 1_554 S
C407 C406 1.297 . S
C407 C408 1.479 . S
C407 H421 0.950 . S
C408 C407 1.479 . S
C408 C409 1.375 . S
C408 C414 1.395 1_554 S
C409 C408 1.375 . S
C409 C410 1.369 . S
C409 H422 0.950 . S
C410 C409 1.369 . S
C410 C411 1.392 . S
C410 H423 0.951 . S
C411 C410 1.392 . S
C411 C413 1.384 1_554 S
H412 C414 0.958 . S
C413 C411 1.384 1_556 S
C413 C414 1.385 . S
C413 H415 0.950 . S
C414 C408 1.395 1_556 S
C414 H412 0.958 . S
C414 C413 1.385 . S
H415 C413 0.950 . S
H416 C400 0.951 . S
H417 C402 0.951 . S
H418 C404 0.951 . S
H419 C405 0.950 . S
H420 C406 0.950 1_556 S
H421 C407 0.950 . S
H422 C409 0.950 . S
H423 C410 0.951 . S
C424 C425 1.386 . S
C424 C426 1.383 . S
C424 H440 0.951 . S
C425 C424 1.386 . S
C425 C429 1.383 . S
C426 C424 1.383 . S
C426 C427 1.402 . S
C426 H441 0.951 . S
C427 C426 1.402 . S
C427 C428 1.375 1_554 S
C427 C430 1.481 . S
C428 C427 1.375 1_556 S
C428 C429 1.367 1_556 S
C428 H442 0.951 . S
C429 C425 1.383 . S
C429 C428 1.367 1_554 S
C429 H443 0.950 1_554 S
C430 C427 1.481 . S
C430 C431 1.297 . S
C430 H444 0.950 1_554 S
C431 C430 1.297 . S
C431 C432 1.479 . S
C431 H445 0.950 . S
C432 C431 1.479 . S
C432 C433 1.375 . S
C432 C438 1.404 1_554 S
C433 C432 1.375 . S
C433 C434 1.369 . S
C433 H446 0.950 . S
C434 C433 1.369 . S
C434 C435 1.392 . S
C434 H447 0.951 . S
C435 C434 1.392 . S
C435 C437 1.384 . S
H436 C438 0.949 . S
C437 C435 1.384 . S
C437 C438 1.385 1_554 S
C437 H439 0.950 1_554 S
C438 C432 1.404 1_556 S
C438 H436 0.949 . S
C438 C437 1.385 1_556 S
H439 C437 0.950 1_556 S
H440 C424 0.951 . S
H441 C426 0.951 . S
H442 C428 0.951 . S
H443 C429 0.950 1_556 S
H444 C430 0.950 1_556 S
H445 C431 0.950 . S
H446 C433 0.950 . S
H447 C434 0.951 . S
C448 C449 1.386 . S
C448 C450 1.383 . S
C448 H464 0.951 . S
C449 C448 1.386 . S
C449 C453 1.383 . S
C450 C448 1.383 . S
C450 C451 1.402 . S
C450 H465 0.951 . S
C451 C450 1.402 . S
C451 C452 1.375 . S
C451 C454 1.481 . S
C452 C451 1.375 . S
C452 C453 1.367 . S
C452 H466 0.951 . S
C453 C449 1.383 . S
C453 C452 1.367 . S
C453 H467 0.950 . S
C454 C451 1.481 . S
C454 C455 1.297 . S
C454 H468 0.950 . S
C455 C454 1.297 . S
C455 C456 1.479 . S
C455 H469 0.950 . S
C456 C455 1.479 . S
C456 C457 1.375 . S
C456 C462 1.404 . S
C457 C456 1.375 . S
C457 C458 1.369 . S
C457 H470 0.950 . S
C458 C457 1.369 . S
C458 C459 1.392 . S
C458 H471 0.951 . S
C459 C458 1.392 . S
C459 C461 1.384 . S
H460 C462 0.949 . S
C461 C459 1.384 . S
C461 C462 1.385 . S
C461 H463 0.950 . S
C462 C456 1.404 . S
C462 H460 0.949 . S
C462 C461 1.385 . S
H463 C461 0.950 . S
H464 C448 0.951 . S
H465 C450 0.951 . S
H466 C452 0.951 . S
H467 C453 0.950 . S
H468 C454 0.950 . S
H469 C455 0.950 . S
H470 C457 0.950 . S
H471 C458 0.951 . S
C472 C473 1.386 . S
C472 C474 1.383 . S
C472 H488 0.951 . S
C473 C472 1.386 . S
C473 C477 1.383 . S
C474 C472 1.383 . S
C474 C475 1.402 . S
C474 H489 0.951 . S
C475 C474 1.402 . S
C475 C476 1.375 . S
C475 C478 1.481 . S
C476 C475 1.375 . S
C476 C477 1.367 . S
C476 H490 0.951 . S
C477 C473 1.383 . S
C477 C476 1.367 . S
C477 H491 0.950 . S
C478 C475 1.481 . S
C478 C479 1.297 . S
C478 H492 0.950 . S
C479 C478 1.297 . S
C479 C480 1.479 . S
C479 H493 0.950 . S
C480 C479 1.479 . S
C480 C481 1.375 . S
C480 C486 1.404 . S
C481 C480 1.375 . S
C481 C482 1.369 . S
C481 H494 0.950 . S
C482 C481 1.369 . S
C482 C483 1.392 . S
C482 H495 0.951 . S
C483 C482 1.392 . S
C483 C485 1.384 . S
H484 C486 0.949 . S
C485 C483 1.384 . S
C485 C486 1.385 . S
C485 H487 0.950 . S
C486 C480 1.404 . S
C486 H484 0.949 . S
C486 C485 1.385 . S
H487 C485 0.950 . S
H488 C472 0.951 . S
H489 C474 0.951 . S
H490 C476 0.951 . S
H491 C477 0.950 . S
H492 C478 0.950 . S
H493 C479 0.950 . S
H494 C481 0.950 . S
H495 C482 0.951 . S
C113 C23 1.502 . S
C123 C9 1.437 . S
C137 C37 1.460 . S
C147 C51 1.505 . S
C161 C65 1.473 . S
C171 C79 1.493 . S
C185 C93 1.484 . S
C195 C107 1.475 . S
C209 C8 1.281 . S
C219 C50 1.314 . S
C233 C36 1.292 . S
C243 C22 1.309 . S
C257 C35 1.423 . S
C267 C21 1.421 . S
C281 C7 1.411 . S
C291 C49 1.386 . S
C305 C64 1.293 . S
C315 C106 1.308 . S
C329 C92 1.280 . S
C339 C78 1.225 . S
C353 C77 1.401 . S
C363 C91 1.402 . S
C377 C63 1.410 . S
C387 C105 1.386 . S
C401 C76 1.510 . S
C411 C6 1.542 . S
C425 C62 1.523 . S
C435 C20 1.539 . S
C449 C34 1.496 . S
C459 C104 1.519 . S
C473 C90 1.532 . S
C483 C48 1.484 . S
