# Generated by pormake.
# Topology afi, (4)-cn, num edge types: 1
# Building blocks:
#     Node 0, Type 0, BuildingBlock: CEKHIL_clean_sbu_0, # of connection points: 4
#     Node 1, Type 0, BuildingBlock: CEKHIL_clean_sbu_0, # of connection points: 4
#     Node 2, Type 0, BuildingBlock: CEKHIL_clean_sbu_0, # of connection points: 4
#     Node 3, Type 0, BuildingBlock: CEKHIL_clean_sbu_0, # of connection points: 4
#     Node 4, Type 0, BuildingBlock: CEKHIL_clean_sbu_0, # of connection points: 4
#     Node 5, Type 0, BuildingBlock: CEKHIL_clean_sbu_0, # of connection points: 4
#     Node 6, Type 0, BuildingBlock: CEKHIL_clean_sbu_0, # of connection points: 4
#     Node 7, Type 0, BuildingBlock: CEKHIL_clean_sbu_0, # of connection points: 4
#     Node 8, Type 0, BuildingBlock: CEKHIL_clean_sbu_0, # of connection points: 4
#     Node 9, Type 0, BuildingBlock: CEKHIL_clean_sbu_0, # of connection points: 4
#     Node 10, Type 0, BuildingBlock: CEKHIL_clean_sbu_0, # of connection points: 4
#     Node 11, Type 0, BuildingBlock: CEKHIL_clean_sbu_0, # of connection points: 4
#     Node 12, Type 0, BuildingBlock: CEKHIL_clean_sbu_0, # of connection points: 4
#     Node 13, Type 0, BuildingBlock: CEKHIL_clean_sbu_0, # of connection points: 4
#     Node 14, Type 0, BuildingBlock: CEKHIL_clean_sbu_0, # of connection points: 4
#     Node 15, Type 0, BuildingBlock: CEKHIL_clean_sbu_0, # of connection points: 4
#     Node 16, Type 0, BuildingBlock: CEKHIL_clean_sbu_0, # of connection points: 4
#     Node 17, Type 0, BuildingBlock: CEKHIL_clean_sbu_0, # of connection points: 4
#     Node 18, Type 0, BuildingBlock: CEKHIL_clean_sbu_0, # of connection points: 4
#     Node 19, Type 0, BuildingBlock: CEKHIL_clean_sbu_0, # of connection points: 4
#     Node 20, Type 0, BuildingBlock: CEKHIL_clean_sbu_0, # of connection points: 4
#     Node 21, Type 0, BuildingBlock: CEKHIL_clean_sbu_0, # of connection points: 4
#     Node 22, Type 0, BuildingBlock: CEKHIL_clean_sbu_0, # of connection points: 4
#     Node 23, Type 0, BuildingBlock: CEKHIL_clean_sbu_0, # of connection points: 4
#     Edge 24, Type (0, 0), BuildingBlock: ZUJKAS_clean_linker_0, # of connection points: 2
#     Edge 25, Type (0, 0), BuildingBlock: ZUJKAS_clean_linker_0, # of connection points: 2
#     Edge 26, Type (0, 0), BuildingBlock: ZUJKAS_clean_linker_0, # of connection points: 2
#     Edge 27, Type (0, 0), BuildingBlock: ZUJKAS_clean_linker_0, # of connection points: 2
#     Edge 28, Type (0, 0), BuildingBlock: ZUJKAS_clean_linker_0, # of connection points: 2
#     Edge 29, Type (0, 0), BuildingBlock: ZUJKAS_clean_linker_0, # of connection points: 2
#     Edge 30, Type (0, 0), BuildingBlock: ZUJKAS_clean_linker_0, # of connection points: 2
#     Edge 31, Type (0, 0), BuildingBlock: ZUJKAS_clean_linker_0, # of connection points: 2
#     Edge 32, Type (0, 0), BuildingBlock: ZUJKAS_clean_linker_0, # of connection points: 2
#     Edge 33, Type (0, 0), BuildingBlock: ZUJKAS_clean_linker_0, # of connection points: 2
#     Edge 34, Type (0, 0), BuildingBlock: ZUJKAS_clean_linker_0, # of connection points: 2
#     Edge 35, Type (0, 0), BuildingBlock: ZUJKAS_clean_linker_0, # of connection points: 2
#     Edge 36, Type (0, 0), BuildingBlock: ZUJKAS_clean_linker_0, # of connection points: 2
#     Edge 37, Type (0, 0), BuildingBlock: ZUJKAS_clean_linker_0, # of connection points: 2
#     Edge 38, Type (0, 0), BuildingBlock: ZUJKAS_clean_linker_0, # of connection points: 2
#     Edge 39, Type (0, 0), BuildingBlock: ZUJKAS_clean_linker_0, # of connection points: 2
#     Edge 40, Type (0, 0), BuildingBlock: ZUJKAS_clean_linker_0, # of connection points: 2
#     Edge 41, Type (0, 0), BuildingBlock: ZUJKAS_clean_linker_0, # of connection points: 2
#     Edge 42, Type (0, 0), BuildingBlock: ZUJKAS_clean_linker_0, # of connection points: 2
#     Edge 43, Type (0, 0), BuildingBlock: ZUJKAS_clean_linker_0, # of connection points: 2
#     Edge 44, Type (0, 0), BuildingBlock: ZUJKAS_clean_linker_0, # of connection points: 2
#     Edge 45, Type (0, 0), BuildingBlock: ZUJKAS_clean_linker_0, # of connection points: 2
#     Edge 46, Type (0, 0), BuildingBlock: ZUJKAS_clean_linker_0, # of connection points: 2
#     Edge 47, Type (0, 0), BuildingBlock: ZUJKAS_clean_linker_0, # of connection points: 2
#     Edge 48, Type (0, 0), BuildingBlock: ZUJKAS_clean_linker_0, # of connection points: 2
#     Edge 49, Type (0, 0), BuildingBlock: ZUJKAS_clean_linker_0, # of connection points: 2
#     Edge 50, Type (0, 0), BuildingBlock: ZUJKAS_clean_linker_0, # of connection points: 2
#     Edge 51, Type (0, 0), BuildingBlock: ZUJKAS_clean_linker_0, # of connection points: 2
#     Edge 52, Type (0, 0), BuildingBlock: ZUJKAS_clean_linker_0, # of connection points: 2
#     Edge 53, Type (0, 0), BuildingBlock: ZUJKAS_clean_linker_0, # of connection points: 2
#     Edge 54, Type (0, 0), BuildingBlock: ZUJKAS_clean_linker_0, # of connection points: 2
#     Edge 55, Type (0, 0), BuildingBlock: ZUJKAS_clean_linker_0, # of connection points: 2
#     Edge 56, Type (0, 0), BuildingBlock: ZUJKAS_clean_linker_0, # of connection points: 2
#     Edge 57, Type (0, 0), BuildingBlock: ZUJKAS_clean_linker_0, # of connection points: 2
#     Edge 58, Type (0, 0), BuildingBlock: ZUJKAS_clean_linker_0, # of connection points: 2
#     Edge 59, Type (0, 0), BuildingBlock: ZUJKAS_clean_linker_0, # of connection points: 2
#     Edge 60, Type (0, 0), BuildingBlock: ZUJKAS_clean_linker_0, # of connection points: 2
#     Edge 61, Type (0, 0), BuildingBlock: ZUJKAS_clean_linker_0, # of connection points: 2
#     Edge 62, Type (0, 0), BuildingBlock: ZUJKAS_clean_linker_0, # of connection points: 2
#     Edge 63, Type (0, 0), BuildingBlock: ZUJKAS_clean_linker_0, # of connection points: 2
#     Edge 64, Type (0, 0), BuildingBlock: ZUJKAS_clean_linker_0, # of connection points: 2
#     Edge 65, Type (0, 0), BuildingBlock: ZUJKAS_clean_linker_0, # of connection points: 2
#     Edge 66, Type (0, 0), BuildingBlock: ZUJKAS_clean_linker_0, # of connection points: 2
#     Edge 67, Type (0, 0), BuildingBlock: ZUJKAS_clean_linker_0, # of connection points: 2
#     Edge 68, Type (0, 0), BuildingBlock: ZUJKAS_clean_linker_0, # of connection points: 2
#     Edge 69, Type (0, 0), BuildingBlock: ZUJKAS_clean_linker_0, # of connection points: 2
#     Edge 70, Type (0, 0), BuildingBlock: ZUJKAS_clean_linker_0, # of connection points: 2
#     Edge 71, Type (0, 0), BuildingBlock: ZUJKAS_clean_linker_0, # of connection points: 2
# Relax obj value: 0.101
# Max RMSD: 0.107
# Mean RMSD: 0.107
data_MOF--net-afi--node1-CEKHIL_clean_sbu_0--edge1-ZUJKAS_clean_linker_0
_symmetry_space_group_name_H-M    P1
_symmetry_Int_Tables_number       1
_symmetry_cell_setting            triclinic
loop_
_symmetry_equiv_pos_as_xyz
'x, y, z'
_cell_length_a     87.377249
_cell_length_b     87.349385
_cell_length_c     50.646914
_cell_angle_alpha  90.013037
_cell_angle_beta   89.997519
_cell_angle_gamma 120.03301
loop_
_atom_site_label
_atom_site_type_symbol
_atom_site_fract_x
_atom_site_fract_y
_atom_site_fract_z
_atom_type_partial_charge
Co0 Co 0.4668 0.13104 0.19313 0.0
O1 O 0.47634 0.15638 0.19271 0.0
O2 O 0.45 0.1371 0.20824 0.0
C3 C 0.49149 0.13196 0.20932 0.0
O4 O 0.45271 0.104 0.1982 0.0
Co5 Co 0.48362 0.11349 0.1593 0.0
O6 O 0.46789 0.09208 0.1801 0.0
C7 C 0.46391 0.12872 0.1336 0.0
C8 C 0.4618 0.15355 0.20391 0.0
C9 C 0.45505 0.09071 0.19389 0.0
O10 O 0.45714 0.12938 0.15596 0.0
O11 O 0.47598 0.12455 0.13152 0.0
O12 O 0.48041 0.13307 0.22524 0.0
O13 O 0.48799 0.13175 0.18458 0.0
Co14 Co 0.34067 0.46607 0.19534 0.0
O15 O 0.32481 0.47554 0.19364 0.0
O16 O 0.31753 0.44925 0.20954 0.0
C17 C 0.36402 0.49084 0.21215 0.0
O18 O 0.3535 0.45196 0.20195 0.0
Co19 Co 0.37589 0.48264 0.16347 0.0
O20 O 0.38121 0.4675 0.18614 0.0
C21 C 0.34188 0.46018 0.13604 0.0
C22 C 0.31293 0.46104 0.20479 0.0
C23 C 0.36933 0.45449 0.19915 0.0
O24 O 0.33336 0.45603 0.15817 0.0
O25 O 0.35844 0.47127 0.13419 0.0
O26 O 0.3514 0.47987 0.22759 0.0
O27 O 0.36146 0.48728 0.18731 0.0
Co28 Co 0.8794 0.33738 0.19477 0.0
O29 O 0.85416 0.32118 0.1926 0.0
O30 O 0.87332 0.31433 0.2091 0.0
C31 C 0.87723 0.36042 0.21123 0.0
O32 O 0.90625 0.3506 0.202 0.0
Co33 Co 0.89805 0.37282 0.16368 0.0
O34 O 0.91767 0.37877 0.18862 0.0
C35 C 0.88732 0.33904 0.13578 0.0
C36 C 0.85692 0.30946 0.20395 0.0
C37 C 0.91904 0.36681 0.20099 0.0
O38 O 0.88266 0.33031 0.15772 0.0
O39 O 0.89266 0.3556 0.13425 0.0
O40 O 0.87595 0.34802 0.22683 0.0
O41 O 0.87851 0.35787 0.18647 0.0
Co42 Co 0.54568 0.87788 0.19409 0.0
O43 O 0.53641 0.85258 0.1927 0.0
O44 O 0.56253 0.87181 0.20888 0.0
C45 C 0.5206 0.87615 0.21024 0.0
O46 O 0.55955 0.90483 0.2006 0.0
Co47 Co 0.52914 0.89633 0.16195 0.0
O48 O 0.54364 0.91669 0.18529 0.0
C49 C 0.55197 0.88506 0.1349 0.0
C50 C 0.55087 0.85537 0.20416 0.0
C51 C 0.55673 0.91796 0.19821 0.0
O52 O 0.55594 0.88056 0.15707 0.0
O53 O 0.54091 0.89055 0.13292 0.0
O54 O 0.53169 0.87497 0.22604 0.0
O55 O 0.52439 0.87708 0.18549 0.0
Co56 Co 0.67323 0.54399 0.19138 0.0
O57 O 0.68909 0.53454 0.19056 0.0
O58 O 0.69612 0.56077 0.20641 0.0
C59 C 0.64956 0.51911 0.20748 0.0
O60 O 0.66026 0.55802 0.19719 0.0
Co61 Co 0.63862 0.5274 0.15811 0.0
O62 O 0.63307 0.543 0.17929 0.0
C63 C 0.67302 0.55032 0.13202 0.0
C64 C 0.70081 0.54902 0.20195 0.0
C65 C 0.64467 0.55581 0.19296 0.0
O66 O 0.68119 0.5542 0.15443 0.0
O67 O 0.6565 0.53925 0.12951 0.0
O68 O 0.66183 0.53018 0.22332 0.0
O69 O 0.65266 0.52272 0.18271 0.0
Co70 Co 0.13291 0.67096 0.19322 0.0
O71 O 0.15827 0.68653 0.19416 0.0
O72 O 0.1389 0.69379 0.20847 0.0
C73 C 0.13318 0.64685 0.20941 0.0
O74 O 0.1058 0.65816 0.19705 0.0
Co75 Co 0.11596 0.63715 0.15816 0.0
O76 O 0.09381 0.63176 0.17657 0.0
C77 C 0.13216 0.67242 0.1336 0.0
C78 C 0.1554 0.69829 0.2051 0.0
C79 C 0.0924 0.64294 0.19101 0.0
O80 O 0.13216 0.67948 0.15602 0.0
O81 O 0.12808 0.65624 0.13114 0.0
O82 O 0.13408 0.65894 0.22538 0.0
O83 O 0.13356 0.65044 0.18467 0.0
Co84 Co 0.87866 0.54363 0.30925 0.0
O85 O 0.85335 0.53429 0.31024 0.0
O86 O 0.87259 0.56028 0.29368 0.0
C87 C 0.87724 0.51848 0.29398 0.0
O88 O 0.90563 0.55751 0.30306 0.0
Co89 Co 0.89683 0.52746 0.34305 0.0
O90 O 0.91795 0.54285 0.32165 0.0
C91 C 0.88543 0.55062 0.36845 0.0
C92 C 0.85614 0.54865 0.29843 0.0
C93 C 0.91905 0.55541 0.30749 0.0
O94 O 0.88111 0.55431 0.34591 0.0
O95 O 0.89086 0.53957 0.37129 0.0
O96 O 0.87601 0.52934 0.27775 0.0
O97 O 0.87792 0.52245 0.31863 0.0
Co98 Co 0.33903 0.87691 0.31025 0.0
O99 O 0.32296 0.85163 0.31176 0.0
O100 O 0.31618 0.87082 0.29512 0.0
C101 C 0.36248 0.8752 0.29459 0.0
O102 O 0.35222 0.90385 0.3036 0.0
Co103 Co 0.37377 0.89534 0.34305 0.0
O104 O 0.37993 0.91551 0.31916 0.0
C105 C 0.33951 0.88436 0.3693 0.0
C106 C 0.31134 0.85439 0.30009 0.0
C107 C 0.36824 0.91686 0.30598 0.0
O108 O 0.33122 0.87971 0.34701 0.0
O109 O 0.35606 0.88991 0.37172 0.0
O110 O 0.35027 0.87392 0.27858 0.0
O111 O 0.35947 0.87613 0.31929 0.0
Co112 Co 0.46711 0.3378 0.30884 0.0
O113 O 0.47651 0.32189 0.31014 0.0
O114 O 0.45052 0.31499 0.29338 0.0
C115 C 0.49216 0.36149 0.29325 0.0
O116 O 0.45311 0.35077 0.30264 0.0
Co117 Co 0.48322 0.37233 0.34216 0.0
O118 O 0.46847 0.37821 0.31948 0.0
C119 C 0.46027 0.33785 0.368 0.0
C120 C 0.46217 0.31025 0.29838 0.0
C121 C 0.45559 0.36654 0.30601 0.0
O122 O 0.45661 0.32973 0.34557 0.0
O123 O 0.47114 0.35441 0.37068 0.0
O124 O 0.48124 0.34928 0.2772 0.0
O125 O 0.48829 0.35835 0.31796 0.0
Co126 Co 0.13415 0.46562 0.31033 0.0
O127 O 0.15947 0.47503 0.31158 0.0
O128 O 0.14033 0.44882 0.29554 0.0
C129 C 0.13562 0.49055 0.29408 0.0
O130 O 0.10719 0.45165 0.30404 0.0
Co131 Co 0.11571 0.48215 0.3426 0.0
O132 O 0.09588 0.46836 0.31804 0.0
C133 C 0.12696 0.45926 0.36954 0.0
C134 C 0.15676 0.46058 0.30016 0.0
C135 C 0.09438 0.45501 0.30555 0.0
O136 O 0.13161 0.45544 0.34737 0.0
O137 O 0.1213 0.47019 0.37158 0.0
O138 O 0.13689 0.47949 0.27831 0.0
O139 O 0.13484 0.48686 0.31885 0.0
Co140 Co 0.67312 0.13168 0.30995 0.0
O141 O 0.68886 0.15704 0.30934 0.0
O142 O 0.6961 0.13755 0.29554 0.0
C143 C 0.64939 0.13225 0.29281 0.0
O144 O 0.66025 0.10457 0.30592 0.0
Co145 Co 0.63858 0.11458 0.34339 0.0
O146 O 0.63301 0.09288 0.32344 0.0
C147 C 0.67338 0.13015 0.36967 0.0
C148 C 0.70068 0.15408 0.29885 0.0
C149 C 0.64458 0.09133 0.31022 0.0
O150 O 0.68097 0.13069 0.34752 0.0
O151 O 0.6571 0.12589 0.3714 0.0
O152 O 0.66165 0.13309 0.27729 0.0
O153 O 0.65256 0.13246 0.31766 0.0
Co154 Co 0.54761 0.67267 0.30997 0.0
O155 O 0.53793 0.68834 0.31163 0.0
O156 O 0.56413 0.69574 0.29528 0.0
C157 C 0.52286 0.64903 0.29376 0.0
O158 O 0.56186 0.66 0.30328 0.0
Co159 Co 0.53155 0.6378 0.34278 0.0
O160 O 0.54793 0.63305 0.32223 0.0
C161 C 0.55408 0.67213 0.36924 0.0
C162 C 0.55228 0.70023 0.30015 0.0
C163 C 0.5603 0.64472 0.30803 0.0
O164 O 0.55797 0.68039 0.3469 0.0
O165 O 0.54306 0.65558 0.3716 0.0
O166 O 0.5336 0.66159 0.27805 0.0
O167 O 0.52657 0.6518 0.31854 0.0
Co168 Co 0.54609 0.87732 0.8098 0.0
O169 O 0.53675 0.85202 0.81125 0.0
O170 O 0.56281 0.87114 0.79477 0.0
C171 C 0.52099 0.87569 0.79398 0.0
O172 O 0.55998 0.90427 0.80321 0.0
Co173 Co 0.52982 0.89589 0.84234 0.0
O174 O 0.544 0.91606 0.81853 0.0
C175 C 0.5529 0.88476 0.86889 0.0
C176 C 0.55114 0.85472 0.79962 0.0
C177 C 0.55707 0.91735 0.80549 0.0
O178 O 0.55657 0.88005 0.84666 0.0
O179 O 0.54197 0.8904 0.87114 0.0
O180 O 0.53194 0.8744 0.77804 0.0
O181 O 0.52488 0.87662 0.81869 0.0
Co182 Co 0.67372 0.54392 0.80739 0.0
O183 O 0.68971 0.53463 0.8095 0.0
O184 O 0.69684 0.56077 0.79316 0.0
C185 C 0.65054 0.51895 0.79076 0.0
O186 O 0.6607 0.5578 0.80033 0.0
Co187 Co 0.63842 0.52728 0.83907 0.0
O188 O 0.6329 0.54198 0.81571 0.0
C189 C 0.67234 0.55007 0.86655 0.0
C190 C 0.70154 0.5491 0.79821 0.0
C191 C 0.64475 0.55502 0.80272 0.0
O192 O 0.6809 0.55417 0.84447 0.0
O193 O 0.65579 0.5389 0.86837 0.0
O194 O 0.66313 0.5299 0.77527 0.0
O195 O 0.65302 0.52266 0.81557 0.0
Co196 Co 0.13349 0.67099 0.80876 0.0
O197 O 0.15885 0.68664 0.80826 0.0
O198 O 0.13949 0.69399 0.79425 0.0
C199 C 0.13397 0.64716 0.79177 0.0
O200 O 0.10639 0.65819 0.8046 0.0
Co201 Co 0.11623 0.6365 0.84234 0.0
O202 O 0.09461 0.63097 0.82226 0.0
C203 C 0.13187 0.67136 0.86846 0.0
C204 C 0.15598 0.69851 0.7977 0.0
C205 C 0.09312 0.64255 0.80893 0.0
O206 O 0.13245 0.67892 0.84626 0.0
O207 O 0.12756 0.65507 0.87029 0.0
O208 O 0.13491 0.65944 0.77618 0.0
O209 O 0.13414 0.65039 0.8166 0.0
Co210 Co 0.46675 0.13099 0.80941 0.0
O211 O 0.47632 0.15634 0.80941 0.0
O212 O 0.45005 0.13698 0.79374 0.0
C213 C 0.4915 0.13175 0.79382 0.0
O214 O 0.45265 0.10392 0.80471 0.0
Co215 Co 0.48331 0.11364 0.84421 0.0
O216 O 0.4676 0.09205 0.82372 0.0
C217 C 0.46357 0.12915 0.86889 0.0
C218 C 0.46184 0.15346 0.79796 0.0
C219 C 0.45488 0.09062 0.80956 0.0
O220 O 0.45688 0.12958 0.84635 0.0
O221 O 0.47565 0.12504 0.87146 0.0
O222 O 0.48052 0.13278 0.7776 0.0
O223 O 0.48788 0.13171 0.81847 0.0
Co224 Co 0.33951 0.46524 0.81121 0.0
O225 O 0.32366 0.47472 0.81213 0.0
O226 O 0.31658 0.44848 0.79624 0.0
C227 C 0.36314 0.49015 0.79513 0.0
O228 O 0.35243 0.45116 0.80532 0.0
Co229 Co 0.37427 0.48172 0.84404 0.0
O230 O 0.38007 0.46692 0.82128 0.0
C231 C 0.33995 0.45884 0.87047 0.0
C232 C 0.31192 0.46026 0.80073 0.0
C233 C 0.36829 0.45382 0.80828 0.0
O234 O 0.33163 0.45506 0.84819 0.0
O235 O 0.35652 0.46978 0.87278 0.0
O236 O 0.35088 0.4791 0.77927 0.0
O237 O 0.36009 0.48648 0.81988 0.0
Co238 Co 0.87908 0.33769 0.81127 0.0
O239 O 0.85371 0.32207 0.81083 0.0
O240 O 0.87304 0.31454 0.79733 0.0
C241 C 0.87861 0.36136 0.79362 0.0
O242 O 0.90619 0.35037 0.8071 0.0
Co243 Co 0.89654 0.37256 0.84392 0.0
O244 O 0.91813 0.3778 0.82403 0.0
C245 C 0.88079 0.33798 0.87103 0.0
C246 C 0.85655 0.31009 0.80064 0.0
C247 C 0.91953 0.36602 0.81112 0.0
O248 O 0.88004 0.33011 0.84904 0.0
O249 O 0.88531 0.35435 0.87233 0.0
O250 O 0.87768 0.34895 0.77835 0.0
O251 O 0.87848 0.35839 0.81853 0.0
Co252 Co 0.13275 0.46409 0.69448 0.0
O253 O 0.15809 0.47364 0.69322 0.0
O254 O 0.13912 0.44767 0.71011 0.0
C255 C 0.13409 0.48924 0.70951 0.0
O256 O 0.1058 0.45003 0.70101 0.0
Co257 Co 0.11393 0.47972 0.66111 0.0
O258 O 0.09376 0.4656 0.68495 0.0
C259 C 0.12558 0.45679 0.63544 0.0
C260 C 0.15551 0.4594 0.70518 0.0
C261 C 0.09261 0.45273 0.69838 0.0
O262 O 0.13023 0.45333 0.65787 0.0
O263 O 0.11978 0.46756 0.63275 0.0
O264 O 0.13548 0.47852 0.72585 0.0
O265 O 0.13322 0.48509 0.68492 0.0
Co266 Co 0.6734 0.13138 0.69498 0.0
O267 O 0.68896 0.15676 0.69574 0.0
O268 O 0.69633 0.13742 0.70977 0.0
C269 C 0.64939 0.13162 0.71169 0.0
O270 O 0.66069 0.10427 0.69887 0.0
Co271 Co 0.6392 0.11418 0.66077 0.0
O272 O 0.63369 0.0924 0.68044 0.0
C273 C 0.67424 0.13022 0.63531 0.0
C274 C 0.70081 0.15391 0.70639 0.0
C275 C 0.64516 0.09094 0.69406 0.0
O276 O 0.68159 0.13055 0.6576 0.0
O277 O 0.65798 0.12596 0.6332 0.0
O278 O 0.66161 0.1326 0.72742 0.0
O279 O 0.65278 0.13195 0.68689 0.0
Co280 Co 0.54603 0.67105 0.69384 0.0
O281 O 0.53655 0.6869 0.69294 0.0
O282 O 0.5628 0.69401 0.70875 0.0
C283 C 0.52112 0.64744 0.71001 0.0
O284 O 0.56014 0.65816 0.6997 0.0
Co285 Co 0.5295 0.63622 0.66113 0.0
O286 O 0.54476 0.63064 0.68312 0.0
C287 C 0.55215 0.67056 0.63452 0.0
C288 C 0.55102 0.69865 0.70429 0.0
C289 C 0.55775 0.64243 0.69628 0.0
O290 O 0.55614 0.67889 0.65681 0.0
O291 O 0.54111 0.654 0.63232 0.0
O292 O 0.53221 0.65971 0.72584 0.0
O293 O 0.52479 0.65046 0.68525 0.0
Co294 Co 0.87979 0.5438 0.69273 0.0
O295 O 0.85447 0.53441 0.69148 0.0
O296 O 0.87363 0.56052 0.70778 0.0
C297 C 0.87829 0.51875 0.70855 0.0
O298 O 0.90674 0.55777 0.69911 0.0
Co299 Co 0.89832 0.52754 0.66007 0.0
O300 O 0.91867 0.542 0.68344 0.0
C301 C 0.88677 0.5503 0.63353 0.0
C302 C 0.8572 0.54883 0.70304 0.0
C303 C 0.9199 0.55502 0.69655 0.0
O304 O 0.88232 0.55416 0.65583 0.0
O305 O 0.89235 0.53932 0.63129 0.0
O306 O 0.87703 0.52972 0.72451 0.0
O307 O 0.87912 0.5226 0.68384 0.0
Co308 Co 0.33973 0.87698 0.69371 0.0
O309 O 0.3236 0.8517 0.69217 0.0
O310 O 0.31682 0.87095 0.70853 0.0
C311 C 0.36305 0.87515 0.70973 0.0
O312 O 0.35293 0.90392 0.7003 0.0
Co313 Co 0.37469 0.89531 0.66141 0.0
O314 O 0.38066 0.91568 0.68478 0.0
C315 C 0.34057 0.88423 0.63456 0.0
C316 C 0.31195 0.85451 0.70361 0.0
C317 C 0.36891 0.91701 0.69781 0.0
O318 O 0.33215 0.87977 0.65677 0.0
O319 O 0.3571 0.88963 0.63247 0.0
O320 O 0.3508 0.87395 0.72559 0.0
O321 O 0.36016 0.87611 0.685 0.0
Co322 Co 0.46628 0.33744 0.69438 0.0
O323 O 0.47548 0.3214 0.69148 0.0
O324 O 0.44972 0.31442 0.7092 0.0
C325 C 0.49151 0.36068 0.71018 0.0
O326 O 0.45249 0.35046 0.70235 0.0
Co327 Co 0.48224 0.37263 0.66253 0.0
O328 O 0.46783 0.37817 0.68646 0.0
C329 C 0.45924 0.3386 0.63554 0.0
C330 C 0.46125 0.30967 0.70338 0.0
C331 C 0.45508 0.36634 0.69993 0.0
O332 O 0.45545 0.33011 0.65767 0.0
O333 O 0.47025 0.35516 0.63345 0.0
O334 O 0.48084 0.34814 0.72597 0.0
O335 O 0.48738 0.35814 0.6855 0.0
H336 H 0.42579 0.08073 0.2259 0.0
H337 H 0.40606 0.05129 0.24462 0.0
H338 H 0.43638 0.03111 0.20622 0.0
H339 H 0.4558 0.06005 0.18728 0.0
H340 H 0.40054 0.00844 0.20122 0.0
H341 H 0.4186 0.02906 0.30584 0.0
H342 H 0.41014 0.0408 0.28739 0.0
H343 H 0.43107 0.04302 0.27855 0.0
C344 C 0.42822 0.07001 0.22139 0.0
C345 C 0.44252 0.07292 0.20512 0.0
C346 C 0.41697 0.05318 0.23222 0.0
C347 C 0.41982 0.03897 0.22708 0.0
C348 C 0.43386 0.04181 0.2105 0.0
H349 H 0.40109 0.94625 0.30617 0.0
H350 H 0.41052 0.9751 0.28706 0.0
C351 C 0.44503 0.05849 0.19973 0.0
C352 C 0.40866 0.02113 0.23914 0.0
H353 H 0.39929 0.99889 0.29785 0.0
C354 C 0.40004 0.00635 0.22238 0.0
C355 C 0.4081 0.01837 0.26675 0.0
C356 C 0.41755 0.03359 0.28577 0.0
C357 C 0.3915 0.98896 0.23235 0.0
C358 C 0.39131 0.98621 0.25992 0.0
C359 C 0.39934 1.00099 0.27673 0.0
C360 C 0.38484 0.96828 0.27151 0.0
C361 C 0.38359 0.97368 0.2132 0.0
C362 C 0.36713 0.95463 0.26923 0.0
C363 C 0.36158 0.93784 0.2802 0.0
C364 C 0.37364 0.93442 0.29375 0.0
C365 C 0.39132 0.94823 0.29597 0.0
C366 C 0.39679 0.96486 0.28507 0.0
H367 H 0.38756 0.97806 0.19249 0.0
H368 H 0.38766 0.96387 0.21829 0.0
H369 H 0.36896 0.96695 0.21437 0.0
H370 H 0.35756 0.95699 0.25918 0.0
H371 H 0.34787 0.92761 0.27819 0.0
H372 H 0.45593 0.39771 0.31277 0.0
H373 H 0.43584 0.40665 0.29491 0.0
H374 H 0.40617 0.35632 0.25575 0.0
H375 H 0.42654 0.34711 0.27359 0.0
H376 H 0.41339 0.38491 0.22316 0.0
H377 H 0.38554 0.39146 0.31752 0.0
H378 H 0.40925 0.40328 0.31821 0.0
H379 H 0.39745 0.37957 0.31479 0.0
C380 C 0.44513 0.38838 0.30049 0.0
C381 C 0.44291 0.37158 0.29477 0.0
C382 C 0.4335 0.39352 0.29044 0.0
C383 C 0.41921 0.38205 0.27447 0.0
C384 C 0.41698 0.36533 0.26833 0.0
H385 H 0.34861 0.42343 0.22707 0.0
H386 H 0.35762 0.40277 0.24439 0.0
C387 C 0.42865 0.36009 0.27852 0.0
C388 C 0.40741 0.38821 0.26328 0.0
H389 H 0.38402 0.40844 0.28085 0.0
C390 C 0.40667 0.38972 0.23577 0.0
C391 C 0.39831 0.39423 0.2796 0.0
C392 C 0.3975 0.39188 0.30916 0.0
C393 C 0.39821 0.39821 0.22432 0.0
C394 C 0.39051 0.40566 0.2408 0.0
C395 C 0.39011 0.40299 0.26818 0.0
C396 C 0.38456 0.41777 0.2302 0.0
C397 C 0.39798 0.39949 0.19464 0.0
C398 C 0.39674 0.43325 0.21706 0.0
C399 C 0.39169 0.44501 0.2073 0.0
C400 C 0.37428 0.44176 0.2105 0.0
C401 C 0.36209 0.42636 0.22412 0.0
C402 C 0.36722 0.41452 0.234 0.0
H403 H 0.39869 0.38841 0.18506 0.0
H404 H 0.3859 0.39941 0.18766 0.0
H405 H 0.40969 0.41202 0.18816 0.0
H406 H 0.41031 0.43637 0.21451 0.0
H407 H 0.4016 0.45674 0.1972 0.0
H408 H 0.93253 0.34572 0.21774 0.0
H409 H 0.962 0.35558 0.2368 0.0
H410 H 0.97402 0.40973 0.23223 0.0
H411 H 0.94502 0.40019 0.21322 0.0
H412 H 0.99856 0.38634 0.21072 0.0
H413 H 0.9826 0.39749 0.31261 0.0
H414 H 0.96612 0.38145 0.2905 0.0
H415 H 0.97388 0.40458 0.28609 0.0
C416 C 0.94143 0.3597 0.22095 0.0
C417 C 0.93636 0.37213 0.21385 0.0
C418 C 0.95828 0.36532 0.23171 0.0
C419 C 0.97018 0.38339 0.2359 0.0
C420 C 0.96505 0.39573 0.22917 0.0
H421 H 0.06774 0.46188 0.29599 0.0
H422 H 0.03825 0.44207 0.27917 0.0
C423 C 0.94841 0.3902 0.21825 0.0
C424 C 0.9881 0.38982 0.24721 0.0
H425 H 0.013 0.41103 0.30137 0.0
C426 C 1.00174 0.39141 0.23072 0.0
C427 C 0.99218 0.39651 0.27322 0.0
C428 C 0.97795 0.39487 0.29181 0.0
C429 C 0.01953 0.40044 0.23911 0.0
C430 C 0.02371 0.40785 0.26481 0.0
C431 C 0.00988 0.40542 0.28167 0.0
C432 C 0.04228 0.41978 0.27377 0.0
C433 C 0.03378 0.40292 0.21991 0.0
C434 C 0.05465 0.414 0.27612 0.0
C435 C 0.07181 0.42547 0.28572 0.0
C436 C 0.07682 0.44286 0.29341 0.0
C437 C 0.06442 0.44857 0.29055 0.0
C438 C 0.04745 0.43722 0.2809 0.0
H439 H 0.02865 0.3992 0.19945 0.0
H440 H 0.04472 0.41687 0.21992 0.0
H441 H 0.03933 0.39448 0.22598 0.0
H442 H 0.05093 0.40053 0.27112 0.0
H443 H 0.08095 0.42059 0.28778 0.0
H444 H 0.55467 0.94811 0.19587 0.0
H445 H 0.57453 0.97694 0.21466 0.0
H446 H 0.60717 0.95731 0.24652 0.0
H447 H 0.58703 0.92793 0.22778 0.0
H448 H 0.6006 0.97726 0.28276 0.0
H449 H 0.62322 0.01386 0.18873 0.0
H450 H 0.59956 1.00134 0.19049 0.0
H451 H 0.61203 0.99001 0.19029 0.0
C452 C 0.56609 0.94978 0.20672 0.0
C453 C 0.56922 0.93555 0.21009 0.0
C454 C 0.57756 0.96644 0.21733 0.0
C455 C 0.59261 0.9695 0.23151 0.0
C456 C 0.59574 0.95534 0.23537 0.0
H457 H 0.66367 0.08124 0.27804 0.0
H458 H 0.654 0.05163 0.26002 0.0
C459 C 0.58421 0.93854 0.22465 0.0
C460 C 0.60443 0.98736 0.24308 0.0
H461 H 0.62614 0.03136 0.22737 0.0
C462 C 0.60646 0.98907 0.27061 0.0
C463 C 0.61242 1.00284 0.2273 0.0
C464 C 0.61187 1.00193 0.19755 0.0
C465 C 0.6152 0.00581 0.2828 0.0
C466 C 0.62184 0.02129 0.26712 0.0
C467 C 0.62086 0.01956 0.23951 0.0
C468 C 0.62835 0.03916 0.27895 0.0
C469 C 0.61698 0.00671 0.31246 0.0
C470 C 0.61714 0.04213 0.2953 0.0
C471 C 0.62258 0.05894 0.30556 0.0
C472 C 0.6394 0.07341 0.29962 0.0
C473 C 0.65068 0.07045 0.28318 0.0
C474 C 0.64516 0.05352 0.27284 0.0
H475 H 0.61712 0.99492 0.32041 0.0
H476 H 0.62923 0.01878 0.31887 0.0
H477 H 0.60547 0.00695 0.32123 0.0
H478 H 0.60394 0.03148 0.29976 0.0
H479 H 0.61341 0.06057 0.31798 0.0
H480 H 0.57057 0.62314 0.33038 0.0
H481 H 0.58881 0.61212 0.31148 0.0
H482 H 0.59714 0.64375 0.24182 0.0
H483 H 0.57915 0.65536 0.26125 0.0
H484 H 0.58075 0.59237 0.26908 0.0
H485 H 0.64646 0.65189 0.25353 0.0
H486 H 0.62962 0.65216 0.27385 0.0
H487 H 0.6286 0.65331 0.23849 0.0
C488 C 0.5765 0.62801 0.31119 0.0
C489 C 0.5733 0.64007 0.29725 0.0
C490 C 0.58697 0.62168 0.30039 0.0
C491 C 0.59447 0.62707 0.2752 0.0
C492 C 0.59183 0.6396 0.26149 0.0
H493 H 0.61781 0.56077 0.17651 0.0
H494 H 0.6073 0.57924 0.1961 0.0
C495 C 0.58147 0.64619 0.27255 0.0
C496 C 0.60348 0.61815 0.26276 0.0
H497 H 0.6419 0.62503 0.23394 0.0
C498 C 0.59416 0.59958 0.26155 0.0
C499 C 0.62106 0.62744 0.25312 0.0
C500 C 0.63211 0.64729 0.255 0.0
C501 C 0.60176 0.59009 0.25085 0.0
C502 C 0.61908 0.59936 0.24032 0.0
C503 C 0.62858 0.61792 0.24184 0.0
C504 C 0.62706 0.5898 0.22691 0.0
C505 C 0.59117 0.57014 0.25125 0.0
C506 C 0.64226 0.59015 0.23693 0.0
C507 C 0.64849 0.57959 0.22553 0.0
C508 C 0.63957 0.56847 0.20398 0.0
C509 C 0.62487 0.56887 0.19338 0.0
C510 C 0.61879 0.57946 0.20457 0.0
H511 H 0.58059 0.56518 0.26646 0.0
H512 H 0.58476 0.56529 0.23175 0.0
H513 H 0.59977 0.56439 0.25517 0.0
H514 H 0.64893 0.59811 0.25409 0.0
H515 H 0.65988 0.57967 0.23414 0.0
H516 H 0.08333 0.65563 0.23477 0.0
H517 H 0.05371 0.64368 0.25428 0.0
H518 H 0.03136 0.60655 0.19002 0.0
H519 H 0.06067 0.61804 0.17086 0.0
H520 H 0.02063 0.63872 0.23672 0.0
H521 H 0.01714 0.57444 0.25445 0.0
H522 H 0.0374 0.59408 0.24529 0.0
H523 H 0.02123 0.58125 0.22054 0.0
C524 C 0.07207 0.64507 0.22466 0.0
C525 C 0.07446 0.63763 0.20146 0.0
C526 C 0.05514 0.63824 0.23584 0.0
C527 C 0.04032 0.62392 0.22394 0.0
C528 C 0.0426 0.61728 0.19995 0.0
H529 H 0.92728 0.57676 0.26329 0.0
H530 H 0.95661 0.59478 0.24311 0.0
C531 C 0.05942 0.62392 0.18898 0.0
C532 C 0.02266 0.61516 0.23709 0.0
H533 H 0.99064 0.57517 0.26069 0.0
C534 C 0.01408 0.62485 0.2421 0.0
C535 C 0.01416 0.59709 0.24443 0.0
C536 C 0.02301 0.58614 0.24117 0.0
C537 C 0.99715 0.61687 0.25384 0.0
C538 C 0.98844 0.59865 0.26035 0.0
C539 C 0.99716 0.58908 0.25554 0.0
C540 C 0.97069 0.5892 0.27333 0.0
C541 C 0.98895 0.62813 0.25966 0.0
C542 C 0.96869 0.57996 0.29694 0.0
C543 C 0.95201 0.56949 0.30816 0.0
C544 C 0.93675 0.56797 0.29623 0.0
C545 C 0.93875 0.57772 0.27307 0.0
C546 C 0.95555 0.58811 0.2616 0.0
H547 H 0.99902 0.64243 0.26009 0.0
H548 H 0.97924 0.62606 0.24396 0.0
H549 H 0.98189 0.62445 0.27888 0.0
H550 H 0.98008 0.58058 0.3065 0.0
H551 H 0.95106 0.56235 0.32613 0.0
H552 H 0.58821 0.9279 0.77787 0.0
H553 H 0.60831 0.95736 0.75936 0.0
H554 H 0.57369 0.97579 0.78696 0.0
H555 H 0.55386 0.94688 0.80551 0.0
H556 H 0.60239 0.97697 0.72155 0.0
H557 H 0.62108 0.01342 0.81604 0.0
H558 H 0.61042 0.9896 0.81445 0.0
H559 H 0.59753 1.00045 0.81246 0.0
C560 C 0.58493 0.93825 0.78007 0.0
C561 C 0.56942 0.93492 0.79345 0.0
C562 C 0.59644 0.9551 0.76949 0.0
C563 C 0.59275 0.96896 0.7723 0.0
C564 C 0.57714 0.96553 0.78516 0.0
H565 H 0.61472 0.05985 0.68421 0.0
H566 H 0.60518 0.03075 0.7025 0.0
C567 C 0.5657 0.94883 0.79565 0.0
C568 C 0.60464 0.98692 0.7611 0.0
H569 H 0.62501 0.03086 0.77697 0.0
C570 C 0.60761 0.98874 0.73374 0.0
C571 C 0.6118 1.00236 0.77695 0.0
C572 C 0.61021 1.00137 0.80664 0.0
C573 C 0.61649 0.00552 0.72169 0.0
C574 C 0.6223 0.02092 0.73732 0.0
C575 C 0.62038 0.01912 0.76486 0.0
C576 C 0.62892 0.03879 0.72537 0.0
C577 C 0.61931 0.00654 0.69221 0.0
C578 C 0.64536 0.05332 0.73255 0.0
C579 C 0.65091 0.07025 0.72216 0.0
C580 C 0.64002 0.07301 0.7046 0.0
C581 C 0.62359 0.05836 0.69754 0.0
C582 C 0.61811 0.04156 0.70784 0.0
H583 H 0.61996 0.99491 0.6848 0.0
H584 H 0.608 0.00658 0.6823 0.0
H585 H 0.63165 0.01876 0.68652 0.0
H586 H 0.65387 0.05158 0.74628 0.0
H587 H 0.66359 0.08118 0.72817 0.0
H588 H 0.66574 0.58719 0.77758 0.0
H589 H 0.65642 0.60764 0.76034 0.0
H590 H 0.60277 0.57127 0.7838 0.0
H591 H 0.61177 0.55107 0.80098 0.0
H592 H 0.63124 0.60259 0.72148 0.0
H593 H 0.61143 0.61733 0.81746 0.0
H594 H 0.62509 0.60727 0.81492 0.0
H595 H 0.60142 0.59397 0.81199 0.0
C596 C 0.65197 0.58358 0.77907 0.0
C597 C 0.6396 0.5675 0.79097 0.0
C598 C 0.64666 0.5953 0.76926 0.0
C599 C 0.62895 0.59121 0.77138 0.0
C600 C 0.61659 0.575 0.78261 0.0
H601 H 0.55895 0.6123 0.68666 0.0
H602 H 0.57909 0.60342 0.70454 0.0
C603 C 0.62182 0.56337 0.79231 0.0
C604 C 0.62287 0.60332 0.7612 0.0
H605 H 0.5982 0.62219 0.77879 0.0
C606 C 0.62433 0.60718 0.7341 0.0
C607 C 0.61409 0.60964 0.77765 0.0
C608 C 0.61307 0.607 0.80717 0.0
C609 C 0.61618 0.61604 0.7228 0.0
C610 C 0.60609 0.62096 0.73894 0.0
C611 C 0.60572 0.61824 0.7663 0.0
C612 C 0.59441 0.62719 0.72752 0.0
C613 C 0.61814 0.61968 0.69353 0.0
C614 C 0.59592 0.64343 0.73494 0.0
C615 C 0.58423 0.64863 0.72471 0.0
C616 C 0.57064 0.63756 0.70718 0.0
C617 C 0.5692 0.62128 0.70004 0.0
C618 C 0.58086 0.61619 0.71008 0.0
H619 H 0.63056 0.62075 0.6859 0.0
H620 H 0.60693 0.60857 0.68305 0.0
H621 H 0.61808 0.63206 0.68877 0.0
H622 H 0.60615 0.65207 0.74862 0.0
H623 H 0.58573 0.6612 0.73075 0.0
H624 H 0.92986 0.58524 0.72635 0.0
H625 H 0.95922 0.60534 0.74516 0.0
H626 H 0.97887 0.5728 0.71291 0.0
H627 H 0.95006 0.55298 0.69405 0.0
H628 H 0.97916 0.59871 0.78124 0.0
H629 H 0.0158 0.62154 0.6873 0.0
H630 H 0.99196 0.61032 0.68882 0.0
H631 H 1.0033 0.59787 0.68892 0.0
C632 C 0.94046 0.58243 0.72315 0.0
C633 C 0.93749 0.56748 0.70846 0.0
C634 C 0.95725 0.59394 0.73391 0.0
C635 C 0.97142 0.59083 0.72996 0.0
C636 C 0.96836 0.57582 0.71565 0.0
H637 H 0.06235 0.61136 0.81651 0.0
H638 H 0.03329 0.60195 0.79822 0.0
C639 C 0.95172 0.56437 0.705 0.0
C640 C 0.98927 0.60261 0.74156 0.0
H641 H 0.03326 0.62433 0.72593 0.0
C642 C 0.99096 0.60458 0.7691 0.0
C643 C 1.00475 0.61063 0.72581 0.0
C644 C 1.00387 0.61015 0.69606 0.0
C645 C 0.00768 0.61329 0.78133 0.0
C646 C 0.02317 0.61995 0.76566 0.0
C647 C 0.02147 0.61903 0.73805 0.0
C648 C 0.04103 0.62641 0.77751 0.0
C649 C 0.00856 0.61501 0.811 0.0
C650 C 0.0554 0.64323 0.77146 0.0
C651 C 0.07232 0.64871 0.78184 0.0
C652 C 0.07523 0.63739 0.79825 0.0
C653 C 0.06075 0.62057 0.80411 0.0
C654 C 0.04396 0.61516 0.79382 0.0
H655 H 0.99679 0.61516 0.81896 0.0
H656 H 0.00877 0.60346 0.81971 0.0
H657 H 0.02064 0.62724 0.81746 0.0
H658 H 0.05354 0.6521 0.75868 0.0
H659 H 0.08311 0.6617 0.77677 0.0
H660 H 0.42589 0.08055 0.77696 0.0
H661 H 0.406 0.05093 0.75885 0.0
H662 H 0.43594 0.03086 0.79865 0.0
H663 H 0.4555 0.05995 0.81696 0.0
H664 H 0.41346 0.03053 0.72631 0.0
H665 H 0.3862 0.99442 0.81965 0.0
H666 H 0.39799 0.01827 0.81793 0.0
H667 H 0.4099 0.00642 0.82032 0.0
C668 C 0.42813 0.06978 0.78206 0.0
C669 C 0.44232 0.07274 0.7986 0.0
C670 C 0.41674 0.05285 0.77168 0.0
C671 C 0.4192 0.03851 0.77783 0.0
C672 C 0.43339 0.0415 0.79418 0.0
H673 H 0.40121 0.94706 0.6953 0.0
H674 H 0.41036 0.97597 0.71393 0.0
C675 C 0.44472 0.0583 0.80449 0.0
C676 C 0.40777 0.02059 0.76612 0.0
H677 H 0.38487 0.97662 0.7821 0.0
C678 C 0.40694 0.01878 0.73853 0.0
C679 C 0.39892 0.00517 0.78193 0.0
C680 C 0.39812 0.00617 0.81159 0.0
C681 C 0.39856 1.00201 0.72644 0.0
C682 C 0.39105 0.98658 0.74233 0.0
C683 C 0.39083 0.98839 0.76985 0.0
C684 C 0.3849 0.96867 0.73089 0.0
C685 C 0.39811 1.00101 0.6967 0.0
C686 C 0.36758 0.95457 0.73487 0.0
C687 C 0.36221 0.93773 0.72424 0.0
C688 C 0.37413 0.93464 0.70965 0.0
C689 C 0.39152 0.94881 0.70617 0.0
C690 C 0.39681 0.96551 0.71669 0.0
H691 H 0.39872 0.01293 0.68781 0.0
H692 H 0.40978 1.00033 0.68961 0.0
H693 H 0.38598 0.9891 0.68955 0.0
H694 H 0.35819 0.95663 0.74603 0.0
H695 H 0.34876 0.92718 0.72744 0.0
H696 H 0.40034 0.45565 0.81181 0.0
H697 H 0.40932 0.43558 0.79391 0.0
H698 H 0.35719 0.40284 0.7615 0.0
H699 H 0.34797 0.42318 0.77932 0.0
H700 H 0.39616 0.39972 0.8034 0.0
H701 H 0.38973 0.41254 0.69745 0.0
H702 H 0.38954 0.42654 0.72349 0.0
H703 H 0.37043 0.40526 0.71776 0.0
C704 C 0.39066 0.44423 0.80088 0.0
C705 C 0.37337 0.44117 0.79698 0.0
C706 C 0.39586 0.43268 0.7907 0.0
C707 C 0.38402 0.41772 0.7762 0.0
C708 C 0.36667 0.41442 0.77235 0.0
H709 H 0.42441 0.34574 0.7288 0.0
H710 H 0.40429 0.355 0.74756 0.0
C711 C 0.36139 0.42605 0.78262 0.0
C712 C 0.39033 0.40603 0.76498 0.0
H713 H 0.40186 0.39453 0.7069 0.0
C714 C 0.39713 0.39831 0.78229 0.0
C715 C 0.3917 0.40428 0.73743 0.0
C716 C 0.3851 0.41265 0.71783 0.0
C717 C 0.40592 0.38958 0.77285 0.0
C718 C 0.40782 0.38835 0.74531 0.0
C719 C 0.40032 0.39538 0.728 0.0
C720 C 0.41954 0.3821 0.73409 0.0
C721 C 0.41403 0.38267 0.79241 0.0
C722 C 0.43468 0.39413 0.72014 0.0
C723 C 0.4461 0.38893 0.70947 0.0
C724 C 0.44272 0.37144 0.71228 0.0
C725 C 0.4275 0.35931 0.72631 0.0
C726 C 0.416 0.3646 0.7371 0.0
H727 H 0.41357 0.38692 0.81293 0.0
H728 H 0.40672 0.368 0.79184 0.0
H729 H 0.42801 0.38728 0.78715 0.0
H730 H 0.43778 0.40771 0.71762 0.0
H731 H 0.45763 0.39875 0.6989 0.0
H732 H 0.08246 0.42223 0.72759 0.0
H733 H 0.05311 0.40223 0.74649 0.0
H734 H 0.03394 0.4356 0.716 0.0
H735 H 0.06274 0.45531 0.69705 0.0
H736 H 0.03337 0.40865 0.78329 0.0
H737 H 0.99662 0.38737 0.68924 0.0
H738 H 0.02044 0.39834 0.6907 0.0
H739 H 0.00933 0.41101 0.69155 0.0
C740 C 0.07197 0.42525 0.72482 0.0
C741 C 0.07507 0.44039 0.71054 0.0
C742 C 0.05518 0.41379 0.73562 0.0
C743 C 0.04114 0.41715 0.73215 0.0
C744 C 0.04434 0.43238 0.71834 0.0
H745 H 0.9506 0.39677 0.81952 0.0
H746 H 0.97959 0.40596 0.80121 0.0
C747 C 0.06098 0.44377 0.70763 0.0
C748 C 0.02326 0.40538 0.74368 0.0
H749 H 0.97925 0.38431 0.72812 0.0
C750 C 0.02156 0.40305 0.77117 0.0
C751 C 0.00775 0.39771 0.72795 0.0
C752 C 0.00862 0.39856 0.6982 0.0
C753 C 1.00483 0.39436 0.7834 0.0
C754 C 0.98935 0.38807 0.7678 0.0
C755 C 0.99105 0.38932 0.7402 0.0
C756 C 0.97153 0.38168 0.77976 0.0
C757 C 1.00395 0.39225 0.81301 0.0
C758 C 0.957 0.36504 0.77336 0.0
C759 C 0.94012 0.35968 0.78377 0.0
C760 C 0.9374 0.37097 0.80055 0.0
C761 C 0.95204 0.3876 0.80681 0.0
C762 C 0.96879 0.39288 0.7965 0.0
H763 H 0.01564 0.39184 0.82072 0.0
H764 H 1.0039 0.40377 0.82218 0.0
H765 H 0.99179 0.38003 0.81924 0.0
H766 H 0.95871 0.35621 0.76024 0.0
H767 H 0.92919 0.34683 0.77838 0.0
H768 H 0.44049 0.1542 0.24322 0.0
H769 H 0.43885 0.1798 0.25931 0.0
H770 H 0.4755 0.21222 0.19869 0.0
H771 H 0.47796 0.18695 0.18373 0.0
H772 H 0.485 0.22959 0.2409 0.0
H773 H 0.41296 0.2032 0.23498 0.0
H774 H 0.41798 0.18975 0.25587 0.0
H775 H 0.42327 0.19156 0.22118 0.0
C776 C 0.44802 0.16676 0.23316 0.0
C777 C 0.45932 0.16853 0.21215 0.0
C778 C 0.44698 0.18141 0.24225 0.0
C779 C 0.45678 0.19806 0.23001 0.0
C780 C 0.46777 0.19964 0.20861 0.0
H781 H 0.44103 0.28838 0.25886 0.0
H782 H 0.43964 0.26129 0.24241 0.0
C783 C 0.46913 0.18513 0.19997 0.0
C784 C 0.45656 0.21409 0.24028 0.0
H785 H 0.42948 0.22987 0.25975 0.0
C786 C 0.47281 0.22961 0.24479 0.0
C787 C 0.44073 0.21444 0.24511 0.0
C788 C 0.42277 0.1989 0.23875 0.0
C789 C 0.47372 0.24526 0.25398 0.0
C790 C 0.45792 0.24533 0.26022 0.0
C791 C 0.44165 0.22988 0.25546 0.0
C792 C 0.45804 0.26136 0.27116 0.0
C793 C 0.49169 0.26168 0.25601 0.0
C794 C 0.46839 0.27029 0.29331 0.0
C795 C 0.46951 0.28599 0.30232 0.0
C796 C 0.45981 0.29286 0.29001 0.0
C797 C 0.44866 0.28344 0.26879 0.0
C798 C 0.44787 0.26792 0.25937 0.0
H799 H 0.50134 0.26104 0.24241 0.0
H800 H 0.49108 0.27378 0.25132 0.0
H801 H 0.49681 0.26284 0.27639 0.0
H802 H 0.47583 0.26525 0.30354 0.0
H803 H 0.47802 0.29279 0.31895 0.0
H804 H 0.192 0.48281 0.30904 0.0
H805 H 0.21695 0.48029 0.29253 0.0
H806 H 0.18083 0.43073 0.2553 0.0
H807 H 0.15571 0.43324 0.27161 0.0
H808 H 0.22643 0.45454 0.3002 0.0
H809 H 0.21331 0.45964 0.19418 0.0
H810 H 0.20277 0.46501 0.22037 0.0
H811 H 0.19514 0.44231 0.21209 0.0
C812 C 0.18931 0.47131 0.29743 0.0
C813 C 0.1718 0.45826 0.29157 0.0
C814 C 0.20363 0.46989 0.288 0.0
C815 C 0.20085 0.45546 0.2723 0.0
C816 C 0.18337 0.44216 0.26694 0.0
H817 H 0.28636 0.43345 0.23252 0.0
H818 H 0.25861 0.4308 0.24847 0.0
C819 C 0.169 0.44355 0.27645 0.0
C820 C 0.21631 0.45457 0.26149 0.0
H821 H 0.23705 0.45492 0.20394 0.0
C822 C 0.22869 0.45451 0.27915 0.0
C823 C 0.21943 0.45476 0.234 0.0
C824 C 0.20707 0.45559 0.21398 0.0
C825 C 0.24404 0.45469 0.27015 0.0
C826 C 0.24707 0.45471 0.24266 0.0
C827 C 0.23468 0.45473 0.22499 0.0
C828 C 0.26348 0.45569 0.23191 0.0
C829 C 0.25718 0.45543 0.29019 0.0
C830 C 0.27526 0.47025 0.21654 0.0
C831 C 0.29109 0.47176 0.20731 0.0
C832 C 0.29549 0.45866 0.21305 0.0
C833 C 0.28344 0.44381 0.22779 0.0
C834 C 0.2676 0.44234 0.23709 0.0
H835 H 0.25492 0.45935 0.31004 0.0
H836 H 0.25586 0.44216 0.2919 0.0
H837 H 0.27092 0.46492 0.28395 0.0
H838 H 0.27239 0.4807 0.21215 0.0
H839 H 0.30001 0.48336 0.19599 0.0
H840 H 0.72702 0.1525 0.27127 0.0
H841 H 0.75507 0.17735 0.25541 0.0
H842 H 0.74166 0.21409 0.29042 0.0
H843 H 0.71379 0.18946 0.30638 0.0
H844 H 0.76026 0.20484 0.22118 0.0
H845 H 0.79184 0.23185 0.31795 0.0
H846 H 0.77292 0.20995 0.31433 0.0
H847 H 0.77005 0.22895 0.31518 0.0
C848 C 0.73013 0.16587 0.27582 0.0
C849 C 0.71815 0.16895 0.29023 0.0
C850 C 0.74616 0.18007 0.26667 0.0
C851 C 0.75065 0.19764 0.27199 0.0
C852 C 0.73872 0.2007 0.28647 0.0
H853 H 0.82176 0.2958 0.19345 0.0
H854 H 0.79686 0.26795 0.20898 0.0
C855 C 0.72271 0.18656 0.29549 0.0
C856 C 0.7674 0.21283 0.26161 0.0
H857 H 0.80491 0.25058 0.28051 0.0
C858 C 0.77009 0.21475 0.23417 0.0
C859 C 0.7804 0.2257 0.27849 0.0
C860 C 0.77879 0.22397 0.30814 0.0
C861 C 0.78504 0.22946 0.2232 0.0
C862 C 0.79761 0.24278 0.24006 0.0
C863 C 0.79524 0.24052 0.26752 0.0
C864 C 0.81296 0.2594 0.22963 0.0
C865 C 0.78726 0.2306 0.1936 0.0
C866 C 0.8304 0.26411 0.23627 0.0
C867 C 0.84474 0.28012 0.22739 0.0
C868 C 0.84193 0.29187 0.21191 0.0
C869 C 0.82446 0.28706 0.20519 0.0
C870 C 0.81016 0.27105 0.21396 0.0
H871 H 0.77962 0.21738 0.18419 0.0
H872 H 0.78229 0.23912 0.18557 0.0
H873 H 0.80138 0.23648 0.188 0.0
H874 H 0.83292 0.25542 0.24846 0.0
H875 H 0.858 0.28344 0.23308 0.0
H876 H 0.52879 0.82006 0.19541 0.0
H877 H 0.53155 0.79524 0.21191 0.0
H878 H 0.58113 0.83168 0.24877 0.0
H879 H 0.57837 0.85665 0.23249 0.0
H880 H 0.55742 0.78594 0.20413 0.0
H881 H 0.55256 0.79929 0.31013 0.0
H882 H 0.54702 0.80969 0.28394 0.0
H883 H 0.56976 0.81749 0.2921 0.0
C884 C 0.54034 0.82284 0.20694 0.0
C885 C 0.55332 0.8404 0.21271 0.0
C886 C 0.5419 0.8086 0.21636 0.0
C887 C 0.55641 0.81151 0.23197 0.0
C888 C 0.56964 0.82904 0.23721 0.0
H889 H 0.57953 0.72678 0.2719 0.0
H890 H 0.58181 0.75433 0.25574 0.0
C891 C 0.56811 0.84333 0.22772 0.0
C892 C 0.55746 0.79614 0.24282 0.0
H893 H 0.55756 0.77571 0.30043 0.0
C894 C 0.55756 0.78376 0.22519 0.0
C895 C 0.5574 0.79313 0.27032 0.0
C896 C 0.55653 0.80549 0.29029 0.0
C897 C 0.55757 0.76851 0.23425 0.0
C898 C 0.55771 0.7656 0.26175 0.0
C899 C 0.55763 0.77799 0.27938 0.0
C900 C 0.55695 0.74931 0.27259 0.0
C901 C 0.55687 0.75536 0.21427 0.0
C902 C 0.54253 0.73752 0.28819 0.0
C903 C 0.54124 0.72182 0.29755 0.0
C904 C 0.55442 0.71754 0.29171 0.0
C905 C 0.56912 0.7296 0.27672 0.0
C906 C 0.57038 0.74532 0.26729 0.0
H907 H 0.5528 0.75748 0.19445 0.0
H908 H 0.57019 0.75682 0.21241 0.0
H909 H 0.54752 0.74161 0.22066 0.0
H910 H 0.53203 0.74029 0.29267 0.0
H911 H 0.52975 0.71289 0.30906 0.0
H912 H 0.72694 0.57632 0.23075 0.0
H913 H 0.75481 0.57915 0.24661 0.0
H914 H 0.74168 0.5298 0.20897 0.0
H915 H 0.714 0.52695 0.19296 0.0
H916 H 0.75963 0.5564 0.27964 0.0
H917 H 0.79213 0.5624 0.18327 0.0
H918 H 0.77315 0.56526 0.18682 0.0
H919 H 0.77034 0.54343 0.18526 0.0
C920 C 0.73009 0.56617 0.2256 0.0
C921 C 0.71823 0.55145 0.21045 0.0
C922 C 0.74601 0.56778 0.23475 0.0
C923 C 0.75053 0.55482 0.22872 0.0
C924 C 0.73874 0.54018 0.21347 0.0
H925 H 0.82086 0.52679 0.30765 0.0
H926 H 0.79609 0.52975 0.29159 0.0
C927 C 0.72283 0.53853 0.20442 0.0
C928 C 0.76713 0.55611 0.23923 0.0
H929 H 0.80476 0.55605 0.2206 0.0
C930 C 0.76957 0.55648 0.26671 0.0
C931 C 0.78027 0.55645 0.22245 0.0
C932 C 0.77898 0.55704 0.19281 0.0
C933 C 0.78439 0.55654 0.27779 0.0
C934 C 0.79709 0.556 0.26101 0.0
C935 C 0.79498 0.55628 0.23353 0.0
C936 C 0.81235 0.55462 0.27153 0.0
C937 C 0.78634 0.55724 0.30743 0.0
C938 C 0.82985 0.56746 0.26533 0.0
C939 C 0.84413 0.56578 0.2745 0.0
C940 C 0.84119 0.55112 0.28984 0.0
C941 C 0.82365 0.53832 0.29604 0.0
C942 C 0.80943 0.54003 0.28696 0.0
H943 H 0.77866 0.56273 0.31692 0.0
H944 H 0.78126 0.54364 0.31509 0.0
H945 H 0.80042 0.56539 0.31335 0.0
H946 H 0.83248 0.57878 0.25333 0.0
H947 H 0.85743 0.57583 0.26922 0.0
H948 H 0.19073 0.71102 0.1981 0.0
H949 H 0.21548 0.73864 0.21457 0.0
H950 H 0.17898 0.75263 0.24885 0.0
H951 H 0.15402 0.72482 0.23255 0.0
H952 H 0.22494 0.77377 0.20509 0.0
H953 H 0.2109 0.75716 0.3115 0.0
H954 H 0.20066 0.74082 0.28576 0.0
H955 H 0.19291 0.75597 0.29262 0.0
C956 C 0.1879 0.71996 0.20909 0.0
C957 C 0.17033 0.71561 0.21409 0.0
C958 C 0.20212 0.73579 0.21848 0.0
C959 C 0.19917 0.74767 0.23329 0.0
C960 C 0.18163 0.74357 0.23789 0.0
H961 H 0.28521 0.85555 0.27131 0.0
H962 H 0.25734 0.83049 0.25547 0.0
C963 C 0.16736 0.7277 0.2284 0.0
C964 C 0.21453 0.7642 0.2439 0.0
H965 H 0.23495 0.78534 0.30121 0.0
C966 C 0.22706 0.77636 0.2261 0.0
C967 C 0.21745 0.76751 0.27135 0.0
C968 C 0.20488 0.75464 0.2915 0.0
C969 C 0.24241 0.79162 0.23495 0.0
C970 C 0.24528 0.79499 0.26239 0.0
C971 C 0.2327 0.78288 0.28019 0.0
C972 C 0.26174 0.81042 0.27303 0.0
C973 C 0.25573 0.80369 0.21483 0.0
C974 C 0.27329 0.8076 0.28887 0.0
C975 C 0.28917 0.82189 0.29802 0.0
C976 C 0.29387 0.8394 0.29172 0.0
C977 C 0.28205 0.84225 0.27648 0.0
C978 C 0.26615 0.82791 0.26725 0.0
H979 H 0.25349 0.79729 0.19516 0.0
H980 H 0.25464 0.81574 0.21261 0.0
H981 H 0.2694 0.80785 0.22134 0.0
H982 H 0.2702 0.79427 0.29371 0.0
H983 H 0.2979 0.81916 0.30975 0.0
H984 H 0.57853 0.72505 0.73248 0.0
H985 H 0.58121 0.7528 0.74861 0.0
H986 H 0.53145 0.73924 0.71202 0.0
H987 H 0.52877 0.71165 0.69569 0.0
H988 H 0.55722 0.77446 0.70388 0.0
H989 H 0.55272 0.7567 0.81003 0.0
H990 H 0.56991 0.75574 0.79193 0.0
H991 H 0.54716 0.74066 0.78398 0.0
C992 C 0.5682 0.72802 0.72775 0.0
C993 C 0.55339 0.71604 0.71286 0.0
C994 C 0.56969 0.74385 0.73715 0.0
C995 C 0.55639 0.74804 0.73192 0.0
C996 C 0.54186 0.73632 0.71645 0.0
H997 H 0.529 0.81946 0.80864 0.0
H998 H 0.53164 0.79453 0.79232 0.0
C999 C 0.54034 0.72051 0.70713 0.0
C1000 C 0.5574 0.76448 0.74264 0.0
H1001 H 0.55743 0.78515 0.8001 0.0
C1002 C 0.55738 0.77685 0.72492 0.0
C1003 C 0.55738 0.76753 0.77012 0.0
C1004 C 0.55665 0.75442 0.7902 0.0
C1005 C 0.55728 0.79208 0.73386 0.0
C1006 C 0.55742 0.79522 0.76134 0.0
C1007 C 0.5575 0.78287 0.77906 0.0
C1008 C 0.55645 0.81067 0.77207 0.0
C1009 C 0.55643 0.8044 0.71379 0.0
C1010 C 0.56969 0.82816 0.76665 0.0
C1011 C 0.56823 0.84252 0.77604 0.0
C1012 C 0.5535 0.83969 0.79111 0.0
C1013 C 0.54051 0.82217 0.79706 0.0
C1014 C 0.542 0.80786 0.78774 0.0
H1015 H 0.55239 0.79813 0.69401 0.0
H1016 H 0.54698 0.80868 0.72012 0.0
H1017 H 0.56969 0.81635 0.71188 0.0
H1018 H 0.58114 0.83072 0.75504 0.0
H1019 H 0.5785 0.85581 0.77114 0.0
H1020 H 0.71474 0.52712 0.80796 0.0
H1021 H 0.74248 0.5299 0.79229 0.0
H1022 H 0.75574 0.57912 0.75414 0.0
H1023 H 0.72784 0.57635 0.76963 0.0
H1024 H 0.7605 0.55627 0.72142 0.0
H1025 H 0.79295 0.56243 0.81788 0.0
H1026 H 0.77116 0.54347 0.81589 0.0
H1027 H 0.77399 0.56532 0.81425 0.0
C1028 C 0.72362 0.53866 0.79648 0.0
C1029 C 0.71905 0.55155 0.79017 0.0
C1030 C 0.73957 0.54027 0.78763 0.0
C1031 C 0.75139 0.55484 0.7723 0.0
C1032 C 0.74691 0.5678 0.76606 0.0
H1033 H 0.85837 0.57605 0.73199 0.0
H1034 H 0.83334 0.5789 0.74779 0.0
C1035 C 0.73096 0.56623 0.775 0.0
C1036 C 0.76798 0.55607 0.76185 0.0
H1037 H 0.80563 0.55609 0.78062 0.0
C1038 C 0.77043 0.55638 0.73439 0.0
C1039 C 0.78112 0.55644 0.77869 0.0
C1040 C 0.77981 0.55708 0.80832 0.0
C1041 C 0.78527 0.55645 0.72336 0.0
C1042 C 0.79798 0.55597 0.74018 0.0
C1043 C 0.79585 0.55628 0.76765 0.0
C1044 C 0.81328 0.55464 0.72971 0.0
C1045 C 0.78723 0.5571 0.69372 0.0
C1046 C 0.81042 0.54004 0.71436 0.0
C1047 C 0.82468 0.53838 0.70533 0.0
C1048 C 0.84221 0.55126 0.71149 0.0
C1049 C 0.84507 0.56594 0.72674 0.0
C1050 C 0.83076 0.56756 0.73586 0.0
H1051 H 0.7795 0.56252 0.68417 0.0
H1052 H 0.8013 0.5653 0.68781 0.0
H1053 H 0.78221 0.5435 0.68611 0.0
H1054 H 0.79709 0.5297 0.70976 0.0
H1055 H 0.82194 0.52684 0.69379 0.0
H1056 H 0.29826 0.8193 0.69344 0.0
H1057 H 0.27035 0.79448 0.70891 0.0
H1058 H 0.2579 0.83072 0.74805 0.0
H1059 H 0.28598 0.85573 0.73272 0.0
H1060 H 0.25278 0.80259 0.78019 0.0
H1061 H 0.21994 0.77755 0.68357 0.0
H1062 H 0.24163 0.78011 0.68516 0.0
H1063 H 0.23909 0.79927 0.68755 0.0
C1064 C 0.28953 0.82206 0.70511 0.0
C1065 C 0.29438 0.83957 0.71173 0.0
C1066 C 0.27349 0.80781 0.71385 0.0
C1067 C 0.26183 0.81067 0.72937 0.0
C1068 C 0.26659 0.82815 0.73597 0.0
H1069 H 0.15463 0.72495 0.77006 0.0
H1070 H 0.1796 0.753 0.75442 0.0
C1071 C 0.28264 0.84245 0.72712 0.0
C1072 C 0.24513 0.79537 0.73967 0.0
H1073 H 0.20718 0.75814 0.72046 0.0
C1074 C 0.24275 0.79297 0.76711 0.0
C1075 C 0.23186 0.78287 0.7227 0.0
C1076 C 0.23313 0.78513 0.69311 0.0
C1077 C 0.22785 0.77815 0.77796 0.0
C1078 C 0.21502 0.7652 0.76096 0.0
C1079 C 0.21706 0.76794 0.73354 0.0
C1080 C 0.19975 0.74846 0.77121 0.0
C1081 C 0.22599 0.7765 0.80759 0.0
C1082 C 0.2027 0.73647 0.78573 0.0
C1083 C 0.18848 0.72046 0.79462 0.0
C1084 C 0.17092 0.71597 0.78918 0.0
C1085 C 0.16796 0.72801 0.77473 0.0
C1086 C 0.18223 0.74404 0.76571 0.0
H1087 H 0.23386 0.78953 0.81746 0.0
H1088 H 0.21195 0.77066 0.81364 0.0
H1089 H 0.23089 0.76771 0.81469 0.0
H1090 H 0.21605 0.73935 0.78981 0.0
H1091 H 0.1913 0.71149 0.80554 0.0
H1092 H 0.44035 0.28763 0.74285 0.0
H1093 H 0.4392 0.26061 0.75895 0.0
H1094 H 0.47513 0.26483 0.69722 0.0
H1095 H 0.4771 0.29234 0.68212 0.0
H1096 H 0.42909 0.22927 0.74152 0.0
H1097 H 0.5011 0.26073 0.75783 0.0
H1098 H 0.49069 0.27337 0.74921 0.0
H1099 H 0.49628 0.26244 0.72396 0.0
C1100 C 0.44797 0.28276 0.73269 0.0
C1101 C 0.45898 0.29226 0.71139 0.0
C1102 C 0.44732 0.26727 0.74192 0.0
C1103 C 0.45749 0.2608 0.72988 0.0
C1104 C 0.4677 0.2698 0.70764 0.0
H1105 H 0.44045 0.15385 0.75856 0.0
H1106 H 0.43872 0.17933 0.74213 0.0
C1107 C 0.46867 0.28548 0.6988 0.0
C1108 C 0.45752 0.24482 0.74068 0.0
H1109 H 0.48484 0.22931 0.75974 0.0
C1110 C 0.44131 0.22934 0.74566 0.0
C1111 C 0.47339 0.24484 0.74672 0.0
C1112 C 0.49132 0.26129 0.74444 0.0
C1113 C 0.44052 0.21398 0.75607 0.0
C1114 C 0.45641 0.21372 0.76075 0.0
C1115 C 0.47259 0.22926 0.75598 0.0
C1116 C 0.45675 0.19779 0.77116 0.0
C1117 C 0.42262 0.19843 0.7627 0.0
C1118 C 0.46783 0.19953 0.7925 0.0
C1119 C 0.46923 0.18509 0.80135 0.0
C1120 C 0.45938 0.16839 0.78942 0.0
C1121 C 0.44801 0.16648 0.76843 0.0
C1122 C 0.44692 0.18107 0.75914 0.0
H1123 H 0.41278 0.20269 0.7665 0.0
H1124 H 0.41778 0.18918 0.74571 0.0
H1125 H 0.42325 0.19123 0.78035 0.0
H1126 H 0.47558 0.21218 0.80225 0.0
H1127 H 0.47811 0.18702 0.81757 0.0
H1128 H 0.15465 0.43233 0.73418 0.0
H1129 H 0.17985 0.42994 0.75039 0.0
H1130 H 0.21577 0.47928 0.71245 0.0
H1131 H 0.19073 0.48167 0.69603 0.0
H1132 H 0.22527 0.45354 0.70498 0.0
H1133 H 0.21258 0.45911 0.81103 0.0
H1134 H 0.19433 0.44167 0.79341 0.0
H1135 H 0.2019 0.46432 0.78487 0.0
C1136 C 0.16791 0.44263 0.72918 0.0
C1137 C 0.17062 0.45723 0.71387 0.0
C1138 C 0.18233 0.44131 0.73862 0.0
C1139 C 0.19978 0.45457 0.73303 0.0
C1140 C 0.20248 0.4689 0.71717 0.0
H1141 H 0.29896 0.48258 0.80921 0.0
H1142 H 0.27139 0.47988 0.79289 0.0
C1143 C 0.1881 0.47026 0.70779 0.0
C1144 C 0.2153 0.45373 0.74375 0.0
H1145 H 0.23621 0.45422 0.80117 0.0
C1146 C 0.2276 0.45359 0.72602 0.0
C1147 C 0.21851 0.45401 0.77122 0.0
C1148 C 0.20625 0.45494 0.79131 0.0
C1149 C 0.24297 0.45376 0.73493 0.0
C1150 C 0.2461 0.45386 0.7624 0.0
C1151 C 0.23377 0.45397 0.78014 0.0
C1152 C 0.26255 0.45489 0.7731 0.0
C1153 C 0.25603 0.45442 0.71482 0.0
C1154 C 0.26672 0.44157 0.76792 0.0
C1155 C 0.28255 0.44306 0.77731 0.0
C1156 C 0.29454 0.4579 0.79214 0.0
C1157 C 0.2901 0.47098 0.79782 0.0
C1158 C 0.27429 0.46946 0.7885 0.0
H1159 H 0.25372 0.4583 0.69497 0.0
H1160 H 0.2698 0.46391 0.72096 0.0
H1161 H 0.25468 0.44113 0.71315 0.0
H1162 H 0.25776 0.43003 0.75652 0.0
H1163 H 0.2855 0.43272 0.77263 0.0
H1164 H 0.82124 0.29704 0.80876 0.0
H1165 H 0.79649 0.26907 0.79328 0.0
H1166 H 0.83293 0.25545 0.75779 0.0
H1167 H 0.8579 0.28357 0.77322 0.0
H1168 H 0.80516 0.25039 0.72391 0.0
H1169 H 0.77892 0.21882 0.82097 0.0
H1170 H 0.78196 0.24067 0.81832 0.0
H1171 H 0.80085 0.23765 0.817 0.0
C1172 C 0.82405 0.28805 0.79788 0.0
C1173 C 0.84161 0.29256 0.79234 0.0
C1174 C 0.80984 0.27198 0.78913 0.0
C1175 C 0.81278 0.25998 0.77465 0.0
C1176 C 0.8303 0.26442 0.76907 0.0
H1177 H 0.72703 0.1526 0.73473 0.0
H1178 H 0.75504 0.17761 0.75042 0.0
C1179 C 0.84457 0.28049 0.77797 0.0
C1180 C 0.79752 0.24322 0.76444 0.0
H1181 H 0.75995 0.20567 0.78378 0.0
C1182 C 0.79537 0.24054 0.73702 0.0
C1183 C 0.7848 0.23021 0.78148 0.0
C1184 C 0.78678 0.23185 0.81109 0.0
C1185 C 0.78056 0.2256 0.72622 0.0
C1186 C 0.76741 0.21302 0.74325 0.0
C1187 C 0.7699 0.21535 0.77067 0.0
C1188 C 0.75069 0.19773 0.73298 0.0
C1189 C 0.77912 0.22341 0.69663 0.0
C1190 C 0.73883 0.20065 0.7181 0.0
C1191 C 0.72283 0.18642 0.70921 0.0
C1192 C 0.71824 0.16886 0.71499 0.0
C1193 C 0.73017 0.16593 0.72979 0.0
C1194 C 0.74617 0.18022 0.73883 0.0
H1195 H 0.79221 0.23119 0.6869 0.0
H1196 H 0.77332 0.2093 0.69096 0.0
H1197 H 0.77037 0.22821 0.68899 0.0
H1198 H 0.74181 0.214 0.71372 0.0
H1199 H 0.71396 0.18921 0.69799 0.0
H1200 H 0.4301 0.12007 0.11846 0.0
H1201 H 0.42063 0.12266 0.07352 0.0
H1202 H 0.47494 0.14876 0.04767 0.0
H1203 H 0.48432 0.14619 0.09188 0.0
H1204 H 0.45409 0.16371 0.02708 0.0
H1205 H 0.42259 0.09073 0.01313 0.0
H1206 H 0.41619 0.09923 0.04081 0.0
H1207 H 0.43786 0.10179 0.03987 0.0
C1208 C 0.43998 0.1267 0.10325 0.0
C1209 C 0.45792 0.1328 0.10857 0.0
C1210 C 0.43457 0.12806 0.0776 0.0
C1211 C 0.44708 0.13573 0.05717 0.0
C1212 C 0.46504 0.14278 0.06304 0.0
H1213 H 0.48412 0.14947 0.90862 0.0
H1214 H 0.47508 0.15238 0.9529 0.0
C1215 C 0.47038 0.14125 0.08834 0.0
C1216 C 0.44197 0.13537 0.02907 0.0
H1217 H 0.42963 0.10823 0.97517 0.0
C1218 C 0.44822 0.15152 0.01578 0.0
C1219 C 0.43422 0.11947 0.01429 0.0
C1220 C 0.42732 0.10176 0.02756 0.0
C1221 C 0.44825 0.15231 0.98806 0.0
C1222 C 0.44218 0.13659 0.97324 0.0
C1223 C 0.43435 0.12029 0.98653 0.0
C1224 C 0.447 0.137 0.94495 0.0
C1225 C 0.45571 0.17011 0.97489 0.0
C1226 C 0.43424 0.12746 0.92545 0.0
C1227 C 0.43946 0.1259 0.89976 0.0
C1228 C 0.4575 0.13351 0.89355 0.0
C1229 C 0.47013 0.14354 0.91284 0.0
C1230 C 0.46496 0.1453 0.93815 0.0
H1231 H 0.45347 0.17934 0.9872 0.0
H1232 H 0.4702 0.17596 0.97244 0.0
H1233 H 0.44972 0.16898 0.95512 0.0
H1234 H 0.4203 0.12075 0.93035 0.0
H1235 H 0.42947 0.1179 0.88534 0.0
H1236 H 0.35149 0.4462 0.90946 0.0
H1237 H 0.33982 0.43805 0.95403 0.0
H1238 H 0.29592 0.44518 0.93322 0.0
H1239 H 0.30771 0.4534 0.88794 0.0
H1240 H 0.31461 0.46459 0.97734 0.0
H1241 H 0.2991 0.39565 0.98968 0.0
H1242 H 0.32038 0.4086 0.97466 0.0
H1243 H 0.30091 0.40543 0.95754 0.0
C1244 C 0.33907 0.44555 0.91411 0.0
C1245 C 0.33048 0.45039 0.89523 0.0
C1246 C 0.33233 0.44076 0.93961 0.0
C1247 C 0.31684 0.44074 0.94699 0.0
C1248 C 0.30778 0.44489 0.92788 0.0
H1249 H 0.30816 0.45149 0.12053 0.0
H1250 H 0.2958 0.44323 0.07554 0.0
C1251 C 0.31445 0.44949 0.90203 0.0
C1252 C 0.31192 0.43874 0.97545 0.0
H1253 H 0.30971 0.41423 0.02937 0.0
C1254 C 0.31287 0.45331 0.98873 0.0
C1255 C 0.30957 0.424 0.99034 0.0
C1256 C 0.30724 0.40747 0.97723 0.0
C1257 C 0.31343 0.45431 0.01648 0.0
C1258 C 0.31286 0.44028 0.03129 0.0
C1259 C 0.31025 0.42503 0.01804 0.0
C1260 C 0.31848 0.4427 0.05942 0.0
C1261 C 0.31626 0.47101 0.02969 0.0
C1262 C 0.33494 0.44445 0.06546 0.0
C1263 C 0.34195 0.44918 0.09081 0.0
C1264 C 0.33262 0.4521 0.11093 0.0
C1265 C 0.3156 0.44925 0.10543 0.0
C1266 C 0.30861 0.44467 0.07974 0.0
H1267 H 0.31754 0.48114 0.01522 0.0
H1268 H 0.30493 0.46787 0.04289 0.0
H1269 H 0.32839 0.47674 0.04204 0.0
H1270 H 0.34278 0.44298 0.05017 0.0
H1271 H 0.35504 0.45115 0.09447 0.0
H1272 H 0.88427 0.3092 0.88516 0.0
H1273 H 0.88107 0.2968 0.92993 0.0
H1274 H 0.86535 0.33332 0.95899 0.0
H1275 H 0.8682 0.34534 0.91504 0.0
H1276 H 0.9 0.31435 0.97285 0.0
H1277 H 0.83017 0.28939 0.99652 0.0
H1278 H 0.83825 0.29383 0.96295 0.0
H1279 H 0.83921 0.31124 0.98336 0.0
C1280 C 0.87969 0.3142 0.90104 0.0
C1281 C 0.87658 0.32832 0.89655 0.0
C1282 C 0.87791 0.30716 0.92661 0.0
C1283 C 0.87265 0.31389 0.94786 0.0
C1284 C 0.86893 0.32749 0.94298 0.0
H1285 H 0.90778 0.35374 0.0927 0.0
H1286 H 0.90367 0.34155 0.04861 0.0
C1287 C 0.87079 0.33454 0.91774 0.0
C1288 C 0.87303 0.30863 0.97576 0.0
H1289 H 0.85101 0.30295 0.03388 0.0
C1290 C 0.88909 0.31128 0.98611 0.0
C1291 C 0.85872 0.30409 0.99322 0.0
C1292 C 0.84058 0.29928 0.98331 0.0
C1293 C 0.8918 0.31159 0.01352 0.0
C1294 C 0.87829 0.30965 0.03102 0.0
C1295 C 0.86158 0.30488 0.02063 0.0
C1296 C 0.88208 0.31563 0.05905 0.0
C1297 C 0.90946 0.31485 0.02341 0.0
C1298 C 0.87125 0.30523 0.07999 0.0
C1299 C 0.87352 0.31233 0.10561 0.0
C1300 C 0.88645 0.33003 0.11047 0.0
C1301 C 0.89765 0.34007 0.08967 0.0
C1302 C 0.89545 0.33302 0.06437 0.0
H1303 H 0.91485 0.30855 0.01013 0.0
H1304 H 0.919 0.32928 0.02342 0.0
H1305 H 0.90852 0.30967 0.04373 0.0
H1306 H 0.86069 0.29184 0.07635 0.0
H1307 H 0.8646 0.30431 0.12117 0.0
H1308 H 0.5619 0.90786 0.09404 0.0
H1309 H 0.56992 0.90393 0.04957 0.0
H1310 H 0.56815 0.85572 0.07367 0.0
H1311 H 0.56 0.85965 0.11881 0.0
H1312 H 0.59773 0.89913 0.02785 0.0
H1313 H 0.53047 0.84052 0.01383 0.0
H1314 H 0.53532 0.85552 0.04116 0.0
H1315 H 0.54381 0.8406 0.04098 0.0
C1316 C 0.56353 0.89657 0.09007 0.0
C1317 C 0.56018 0.88399 0.10987 0.0
C1318 C 0.56816 0.89436 0.06462 0.0
C1319 C 0.56941 0.87942 0.05814 0.0
C1320 C 0.56708 0.86726 0.07818 0.0
H1321 H 0.55837 0.85803 0.8865 0.0
H1322 H 0.56655 0.85451 0.93181 0.0
C1323 C 0.56258 0.86959 0.10397 0.0
C1324 C 0.57163 0.8763 0.02986 0.0
H1325 H 0.54709 0.85392 0.97594 0.0
C1326 C 0.58685 0.88893 0.01655 0.0
C1327 C 0.5575 0.86294 0.01507 0.0
C1328 C 0.54078 0.8491 0.0283 0.0
C1329 C 0.58778 0.88933 0.98883 0.0
C1330 C 0.57299 0.877 0.97398 0.0
C1331 C 0.55841 0.86341 0.9873 0.0
C1332 C 0.57098 0.87989 0.94551 0.0
C1333 C 0.6043 0.90353 0.97567 0.0
C1334 C 0.57098 0.89536 0.93806 0.0
C1335 C 0.56621 0.89728 0.91253 0.0
C1336 C 0.56139 0.88383 0.89368 0.0
C1337 C 0.56228 0.8687 0.90055 0.0
C1338 C 0.56685 0.86665 0.92643 0.0
H1339 H 0.61614 0.90724 0.98808 0.0
H1340 H 0.60631 0.8992 0.95599 0.0
H1341 H 0.60317 0.91553 0.97304 0.0
H1342 H 0.57369 0.90559 0.95245 0.0
H1343 H 0.56556 0.90905 0.90782 0.0
H1344 H 0.70538 0.55598 0.11481 0.0
H1345 H 0.71739 0.56446 0.06969 0.0
H1346 H 0.67344 0.57145 0.04861 0.0
H1347 H 0.66156 0.56303 0.09303 0.0
H1348 H 0.6989 0.5452 0.02527 0.0
H1349 H 0.71429 0.61415 0.0136 0.0
H1350 H 0.71237 0.60422 0.04564 0.0
H1351 H 0.69295 0.60106 0.0284 0.0
C1352 C 0.69868 0.55991 0.1007 0.0
C1353 C 0.68258 0.55889 0.10737 0.0
C1354 C 0.70547 0.56466 0.07494 0.0
C1355 C 0.69645 0.56884 0.05579 0.0
C1356 C 0.6809 0.56871 0.06306 0.0
H1357 H 0.65909 0.55925 0.90784 0.0
H1358 H 0.67114 0.56734 0.95227 0.0
C1359 C 0.67404 0.56377 0.08847 0.0
C1360 C 0.70152 0.57101 0.02739 0.0
H1361 H 0.70396 0.59579 0.97369 0.0
C1362 C 0.70067 0.55653 0.01398 0.0
C1363 C 0.70391 0.58581 0.01264 0.0
C1364 C 0.70612 0.60226 0.0259 0.0
C1365 C 0.70025 0.55568 0.98622 0.0
C1366 C 0.70088 0.56977 0.97153 0.0
C1367 C 0.70339 0.58494 0.98492 0.0
C1368 C 0.69543 0.56751 0.94332 0.0
C1369 C 0.6975 0.53904 0.97286 0.0
C1370 C 0.70538 0.56553 0.92312 0.0
C1371 C 0.6985 0.56101 0.89736 0.0
C1372 C 0.68153 0.55821 0.89167 0.0
C1373 C 0.67214 0.56118 0.91165 0.0
C1374 C 0.67904 0.56585 0.93707 0.0
H1375 H 0.69607 0.52881 0.98726 0.0
H1376 H 0.6855 0.53341 0.96026 0.0
H1377 H 0.70896 0.54225 0.9599 0.0
H1378 H 0.71814 0.56691 0.92747 0.0
H1379 H 0.70598 0.55873 0.88237 0.0
H1380 H 0.1488 0.66767 0.91032 0.0
H1381 H 0.15162 0.67964 0.95458 0.0
H1382 H 0.12692 0.70916 0.92877 0.0
H1383 H 0.12408 0.6971 0.88378 0.0
H1384 H 0.16746 0.71571 0.97516 0.0
H1385 H 0.09441 0.67551 0.98916 0.0
H1386 H 0.10522 0.67088 0.96251 0.0
H1387 H 0.10317 0.6903 0.96137 0.0
C1388 C 0.14421 0.67694 0.91387 0.0
C1389 C 0.13608 0.68133 0.89362 0.0
C1390 C 0.14589 0.68382 0.9392 0.0
C1391 C 0.13931 0.69513 0.9451 0.0
C1392 C 0.13196 0.70033 0.92467 0.0
H1393 H 0.12142 0.69559 0.11673 0.0
H1394 H 0.12459 0.70755 0.07163 0.0
C1395 C 0.13045 0.69355 0.89899 0.0
C1396 C 0.13908 0.69995 0.9732 0.0
H1397 H 0.11195 0.68577 0.02711 0.0
C1398 C 0.15528 0.70963 0.98647 0.0
C1399 C 0.1232 0.69212 0.98798 0.0
C1400 C 0.10545 0.68156 0.97472 0.0
C1401 C 0.15609 0.71048 0.01419 0.0
C1402 C 0.14034 0.70113 0.02904 0.0
C1403 C 0.12404 0.69288 0.01574 0.0
C1404 C 0.14064 0.69679 0.05739 0.0
C1405 C 0.17392 0.72062 0.02733 0.0
C1406 C 0.14874 0.687 0.06444 0.0
C1407 C 0.14681 0.68011 0.08982 0.0
C1408 C 0.13679 0.68288 0.10892 0.0
C1409 C 0.12941 0.69347 0.10246 0.0
C1410 C 0.13114 0.70021 0.07672 0.0
H1411 H 0.18326 0.73201 0.01498 0.0
H1412 H 0.17291 0.72557 0.04708 0.0
H1413 H 0.17956 0.7118 0.02979 0.0
H1414 H 0.15577 0.68379 0.04984 0.0
H1415 H 0.15258 0.67193 0.09422 0.0
H1416 H 0.86104 0.55798 0.61803 0.0
H1417 H 0.85672 0.56607 0.57307 0.0
H1418 H 0.90511 0.56856 0.54812 0.0
H1419 H 0.90941 0.56057 0.59242 0.0
H1420 H 0.89957 0.59616 0.52677 0.0
H1421 H 0.84178 0.52831 0.51318 0.0
H1422 H 0.8418 0.54151 0.5405 0.0
H1423 H 0.85704 0.53341 0.54023 0.0
C1424 C 0.87093 0.56071 0.60305 0.0
C1425 C 0.88549 0.55852 0.60864 0.0
C1426 C 0.86839 0.56518 0.57736 0.0
C1427 C 0.88049 0.56769 0.55713 0.0
C1428 C 0.89558 0.56666 0.56332 0.0
H1429 H 0.90999 0.56442 0.40681 0.0
H1430 H 0.90651 0.57273 0.45131 0.0
C1431 C 0.89801 0.56205 0.58868 0.0
C1432 C 0.87713 0.56981 0.52894 0.0
H1433 H 0.85484 0.54497 0.47521 0.0
C1434 C 0.88946 0.58516 0.51555 0.0
C1435 C 0.86388 0.55552 0.51425 0.0
C1436 C 0.85035 0.53868 0.52759 0.0
C1437 C 0.88972 0.58606 0.48782 0.0
C1438 C 0.87755 0.57112 0.47307 0.0
C1439 C 0.86421 0.55641 0.48649 0.0
C1440 C 0.88044 0.56914 0.44457 0.0
C1441 C 0.90359 0.60273 0.47457 0.0
C1442 C 0.86701 0.56447 0.42564 0.0
C1443 C 0.86908 0.5598 0.39984 0.0
C1444 C 0.88443 0.55936 0.39291 0.0
C1445 C 0.89807 0.56476 0.41157 0.0
C1446 C 0.89612 0.56962 0.43702 0.0
H1447 H 0.90699 0.61452 0.48693 0.0
H1448 H 0.91582 0.60199 0.47198 0.0
H1449 H 0.89912 0.60453 0.45488 0.0
H1450 H 0.8547 0.5638 0.43111 0.0
H1451 H 0.85826 0.55543 0.38593 0.0
H1452 H 0.30694 0.85908 0.61882 0.0
H1453 H 0.29465 0.85521 0.57382 0.0
H1454 H 0.34135 0.90306 0.54925 0.0
H1455 H 0.35351 0.90693 0.59357 0.0
H1456 H 0.30867 0.89857 0.52796 0.0
H1457 H 0.3166 0.83957 0.51369 0.0
H1458 H 0.30358 0.83989 0.54101 0.0
H1459 H 0.32704 0.85459 0.54092 0.0
C1460 C 0.31431 0.86895 0.60391 0.0
C1461 C 0.33124 0.88322 0.60961 0.0
C1462 C 0.30737 0.86666 0.5782 0.0
C1463 C 0.3172 0.87874 0.55808 0.0
C1464 C 0.33353 0.89356 0.56438 0.0
H1465 H 0.35111 0.9085 0.40844 0.0
H1466 H 0.33926 0.90498 0.4529 0.0
C1467 C 0.34049 0.89573 0.58974 0.0
C1468 C 0.31173 0.87562 0.52987 0.0
H1469 H 0.31369 0.85321 0.47586 0.0
C1470 C 0.30924 0.88833 0.51662 0.0
C1471 C 0.31236 0.8622 0.51502 0.0
C1472 C 0.31509 0.84826 0.5282 0.0
C1473 C 0.30874 0.88879 0.4889 0.0
C1474 C 0.31112 0.87642 0.47401 0.0
C1475 C 0.31194 0.86273 0.48726 0.0
C1476 C 0.31616 0.87941 0.4456 0.0
C1477 C 0.30657 0.90308 0.4758 0.0
C1478 C 0.30708 0.86626 0.42639 0.0
C1479 C 0.31384 0.86835 0.40061 0.0
C1480 C 0.32999 0.88342 0.39398 0.0
C1481 C 0.3386 0.89679 0.41296 0.0
C1482 C 0.33176 0.89483 0.43839 0.0
H1483 H 0.29846 0.90682 0.48821 0.0
H1484 H 0.31976 0.91505 0.47329 0.0
H1485 H 0.30028 0.89885 0.45608 0.0
H1486 H 0.29513 0.85415 0.4316 0.0
H1487 H 0.30708 0.85775 0.38645 0.0
H1488 H 0.45538 0.30715 0.61768 0.0
H1489 H 0.44885 0.29613 0.57187 0.0
H1490 H 0.43927 0.3385 0.55129 0.0
H1491 H 0.44593 0.34956 0.59654 0.0
H1492 H 0.41514 0.30335 0.52685 0.0
H1493 H 0.48719 0.32778 0.51468 0.0
H1494 H 0.47558 0.31291 0.54152 0.0
H1495 H 0.47887 0.33488 0.54183 0.0
C1496 C 0.45132 0.31371 0.60352 0.0
C1497 C 0.45117 0.32921 0.61058 0.0
C1498 C 0.44773 0.30751 0.57736 0.0
C1499 C 0.44375 0.31662 0.55813 0.0
C1500 C 0.44231 0.33127 0.56576 0.0
H1501 H 0.44314 0.34628 0.40426 0.0
H1502 H 0.43574 0.33528 0.44944 0.0
C1503 C 0.44611 0.33758 0.59163 0.0
C1504 C 0.44298 0.31245 0.52954 0.0
H1505 H 0.47004 0.32049 0.47636 0.0
C1506 C 0.42705 0.30667 0.51583 0.0
C1507 C 0.45854 0.31682 0.51516 0.0
C1508 C 0.47609 0.32353 0.52886 0.0
C1509 C 0.42645 0.30599 0.48807 0.0
C1510 C 0.44224 0.31155 0.47366 0.0
C1511 C 0.45793 0.31618 0.48741 0.0
C1512 C 0.44346 0.31543 0.44487 0.0
C1513 C 0.40904 0.29995 0.47436 0.0
C1514 C 0.44999 0.30774 0.42698 0.0
C1515 C 0.45401 0.31391 0.40085 0.0
C1516 C 0.4519 0.32809 0.39253 0.0
C1517 C 0.44466 0.33518 0.41012 0.0
C1518 C 0.44038 0.32886 0.43594 0.0
H1519 H 0.39776 0.29075 0.48702 0.0
H1520 H 0.40755 0.31161 0.47015 0.0
H1521 H 0.40835 0.29327 0.45538 0.0
H1522 H 0.45268 0.29752 0.43354 0.0
H1523 H 0.4599 0.30847 0.38778 0.0
H1524 H 0.10115 0.44269 0.59687 0.0
H1525 H 0.10517 0.43507 0.55217 0.0
H1526 H 0.15741 0.44535 0.57255 0.0
H1527 H 0.15332 0.453 0.61789 0.0
H1528 H 0.15685 0.46439 0.52899 0.0
H1529 H 0.10632 0.39437 0.51549 0.0
H1530 H 0.09686 0.40626 0.5307 0.0
H1531 H 0.11379 0.40411 0.54778 0.0
C1532 C 0.11329 0.44277 0.5921 0.0
C1533 C 0.12689 0.44834 0.61087 0.0
C1534 C 0.11555 0.43832 0.56653 0.0
C1535 C 0.13151 0.43939 0.55897 0.0
C1536 C 0.1449 0.44422 0.57801 0.0
H1537 H 0.15293 0.45222 0.38603 0.0
H1538 H 0.15685 0.44414 0.43121 0.0
C1539 C 0.14253 0.44848 0.60391 0.0
C1540 C 0.13468 0.43788 0.53043 0.0
H1541 H 0.11372 0.41302 0.47605 0.0
C1542 C 0.14783 0.45294 0.51741 0.0
C1543 C 0.12296 0.42292 0.51529 0.0
C1544 C 0.10932 0.40595 0.52812 0.0
C1545 C 0.14843 0.45407 0.48967 0.0
C1546 C 0.13565 0.43969 0.47458 0.0
C1547 C 0.12348 0.42408 0.48759 0.0
C1548 C 0.1326 0.44185 0.44627 0.0
C1549 C 0.16172 0.47121 0.47675 0.0
C1550 C 0.11739 0.44252 0.43952 0.0
C1551 C 0.1152 0.44714 0.41404 0.0
C1552 C 0.12806 0.45103 0.39451 0.0
C1553 C 0.14277 0.4492 0.40066 0.0
C1554 C 0.14508 0.44473 0.42648 0.0
H1555 H 0.16987 0.48158 0.49143 0.0
H1556 H 0.17069 0.46887 0.46402 0.0
H1557 H 0.15485 0.47622 0.46399 0.0
H1558 H 0.10757 0.44033 0.45439 0.0
H1559 H 0.10368 0.44835 0.40986 0.0
H1560 H 0.69913 0.12243 0.38517 0.0
H1561 H 0.71109 0.12527 0.43024 0.0
H1562 H 0.68135 0.14981 0.45583 0.0
H1563 H 0.66952 0.14702 0.41149 0.0
H1564 H 0.71711 0.16577 0.47671 0.0
H1565 H 0.67765 0.09263 0.4904 0.0
H1566 H 0.69258 0.10154 0.46281 0.0
H1567 H 0.67303 0.10334 0.46361 0.0
C1568 C 0.69551 0.12877 0.40035 0.0
C1569 C 0.68328 0.13436 0.3949 0.0
C1570 C 0.70223 0.13027 0.42609 0.0
C1571 C 0.69693 0.13758 0.44647 0.0
C1572 C 0.68561 0.14411 0.44049 0.0
H1573 H 0.67281 0.14992 0.59556 0.0
H1574 H 0.68461 0.15318 0.55111 0.0
C1575 C 0.67881 0.14245 0.41511 0.0
C1576 C 0.7017 0.13736 0.47461 0.0
H1577 H 0.6877 0.11012 0.52842 0.0
C1578 C 0.71115 0.15357 0.48796 0.0
C1579 C 0.69401 0.12145 0.48933 0.0
C1580 C 0.68369 0.10369 0.476 0.0
C1581 C 0.7119 0.15433 0.51568 0.0
C1582 C 0.7027 0.13852 0.53045 0.0
C1583 C 0.6947 0.12224 0.5171 0.0
C1584 C 0.69827 0.13871 0.55879 0.0
C1585 C 0.72174 0.17216 0.52892 0.0
C1586 C 0.70209 0.12956 0.57819 0.0
C1587 C 0.6954 0.1278 0.60398 0.0
C1588 C 0.68446 0.13479 0.61041 0.0
C1589 C 0.68125 0.14444 0.59119 0.0
C1590 C 0.68809 0.14641 0.56577 0.0
H1591 H 0.73302 0.1817 0.51658 0.0
H1592 H 0.71268 0.17749 0.53154 0.0
H1593 H 0.7268 0.17122 0.54862 0.0
H1594 H 0.70974 0.12332 0.57315 0.0
H1595 H 0.69788 0.12011 0.61834 0.0
H1596 H 0.55949 0.70441 0.38644 0.0
H1597 H 0.5676 0.71632 0.43167 0.0
H1598 H 0.57472 0.67248 0.45301 0.0
H1599 H 0.56664 0.66068 0.40847 0.0
H1600 H 0.54803 0.69753 0.47582 0.0
H1601 H 0.61708 0.71353 0.48859 0.0
H1602 H 0.60734 0.71166 0.4564 0.0
H1603 H 0.60421 0.69221 0.47356 0.0
C1604 C 0.56337 0.69771 0.40063 0.0
C1605 C 0.56248 0.68166 0.39399 0.0
C1606 C 0.56791 0.70445 0.42646 0.0
C1607 C 0.57202 0.69543 0.4457 0.0
C1608 C 0.57203 0.67993 0.43848 0.0
H1609 H 0.56218 0.65792 0.5935 0.0
H1610 H 0.57048 0.67021 0.54925 0.0
C1611 C 0.56729 0.67312 0.41301 0.0
C1612 C 0.57396 0.70043 0.47413 0.0
H1613 H 0.59851 0.70308 0.52822 0.0
C1614 C 0.55932 0.6994 0.48729 0.0
C1615 C 0.58871 0.70296 0.4891 0.0
C1616 C 0.60529 0.70534 0.4761 0.0
C1617 C 0.55829 0.69892 0.51504 0.0
C1618 C 0.57237 0.6997 0.52997 0.0
C1619 C 0.58767 0.7024 0.51681 0.0
C1620 C 0.56997 0.69417 0.55815 0.0
C1621 C 0.5415 0.69596 0.52812 0.0
C1622 C 0.56754 0.70386 0.5783 0.0
C1623 C 0.56288 0.69685 0.60397 0.0
C1624 C 0.56042 0.67999 0.60961 0.0
C1625 C 0.56385 0.67088 0.58972 0.0
C1626 C 0.56865 0.67792 0.56439 0.0
H1627 H 0.5313 0.69436 0.51354 0.0
H1628 H 0.53594 0.68397 0.54076 0.0
H1629 H 0.54448 0.7074 0.54099 0.0
H1630 H 0.56867 0.71653 0.57397 0.0
H1631 H 0.56025 0.70411 0.61891 0.0
H1632 H 0.51585 0.12961 0.17878 0.0
H1633 H 0.54189 0.12836 0.193 0.0
H1634 H 0.52861 0.13056 0.27437 0.0
H1635 H 0.50229 0.13167 0.26023 0.0
H1636 H 0.57031 0.15353 0.22288 0.0
H1637 H 0.53701 0.08821 0.27299 0.0
H1638 H 0.52552 0.09516 0.25072 0.0
H1639 H 0.5302 0.10345 0.28395 0.0
C1640 C 0.51836 0.1297 0.19974 0.0
C1641 C 0.50696 0.1307 0.2184 0.0
C1642 C 0.53329 0.12901 0.20782 0.0
C1643 C 0.53712 0.12918 0.23473 0.0
C1644 C 0.52575 0.13011 0.25349 0.0
H1645 H 0.62265 0.13057 0.3225 0.0
H1646 H 0.59568 0.12963 0.30742 0.0
C1647 C 0.51076 0.13083 0.2454 0.0
C1648 C 0.55339 0.12901 0.24292 0.0
H1649 H 0.56817 0.10524 0.27716 0.0
C1650 C 0.56985 0.14294 0.23466 0.0
C1651 C 0.55276 0.11518 0.25827 0.0
C1652 C 0.53544 0.09955 0.26685 0.0
C1653 C 0.58573 0.14361 0.24178 0.0
C1654 C 0.58512 0.12977 0.25713 0.0
C1655 C 0.56864 0.11581 0.26532 0.0
C1656 C 0.60145 0.1299 0.26584 0.0
C1657 C 0.60302 0.1594 0.23344 0.0
C1658 C 0.61363 0.13008 0.24748 0.0
C1659 C 0.62919 0.13068 0.25608 0.0
C1660 C 0.63276 0.13098 0.28319 0.0
C1661 C 0.62035 0.1304 0.30146 0.0
C1662 C 0.60488 0.12984 0.29288 0.0
H1663 H 0.60136 0.17075 0.22762 0.0
H1664 H 0.61293 0.16372 0.24958 0.0
H1665 H 0.60832 0.15573 0.21616 0.0
H1666 H 0.6111 0.12975 0.2265 0.0
H1667 H 0.63843 0.13101 0.24153 0.0
H1668 H 0.49974 0.646 0.25528 0.0
H1669 H 0.47218 0.61938 0.2427 0.0
H1670 H 0.48413 0.58855 0.29675 0.0
H1671 H 0.51074 0.61542 0.31097 0.0
H1672 H 0.4635 0.5912 0.22017 0.0
H1673 H 0.43589 0.57125 0.32031 0.0
H1674 H 0.45567 0.59202 0.31413 0.0
H1675 H 0.45672 0.57204 0.31852 0.0
C1676 C 0.49637 0.6335 0.26448 0.0
C1677 C 0.50721 0.63274 0.28425 0.0
C1678 C 0.48062 0.61827 0.25732 0.0
C1679 C 0.47562 0.60187 0.26931 0.0
C1680 C 0.48708 0.60105 0.28804 0.0
H1681 H 0.3975 0.50367 0.19389 0.0
H1682 H 0.42435 0.53002 0.20858 0.0
C1683 C 0.50246 0.61638 0.29591 0.0
C1684 C 0.4587 0.58566 0.26177 0.0
H1685 H 0.42268 0.54897 0.28684 0.0
C1686 C 0.4545 0.58211 0.23485 0.0
C1687 C 0.44656 0.57385 0.28072 0.0
C1688 C 0.44885 0.57762 0.30999 0.0
C1689 C 0.43883 0.56714 0.22638 0.0
C1690 C 0.42744 0.55459 0.24526 0.0
C1691 C 0.43147 0.55829 0.2722 0.0
C1692 C 0.41122 0.53772 0.23759 0.0
C1693 C 0.43451 0.5654 0.19728 0.0
C1694 C 0.39495 0.53231 0.25027 0.0
C1695 C 0.37969 0.51665 0.24277 0.0
C1696 C 0.38033 0.50634 0.22201 0.0
C1697 C 0.39659 0.5115 0.20972 0.0
C1698 C 0.41194 0.52675 0.21788 0.0
H1699 H 0.44057 0.57857 0.18759 0.0
H1700 H 0.44003 0.55782 0.18757 0.0
H1701 H 0.42003 0.55854 0.19379 0.0
H1702 H 0.39394 0.54036 0.26568 0.0
H1703 H 0.36728 0.51297 0.25251 0.0
H1704 H 0.87915 0.494 0.32496 0.0
H1705 H 0.88005 0.46767 0.31106 0.0
H1706 H 0.87809 0.48075 0.22952 0.0
H1707 H 0.87729 0.50729 0.2433 0.0
H1708 H 0.8547 0.43912 0.28066 0.0
H1709 H 0.92049 0.47227 0.23195 0.0
H1710 H 0.91347 0.48374 0.25419 0.0
H1711 H 0.90548 0.47934 0.2208 0.0
C1712 C 0.87901 0.49136 0.30404 0.0
C1713 C 0.8782 0.50278 0.28521 0.0
C1714 C 0.8795 0.47627 0.29614 0.0
C1715 C 0.87933 0.47232 0.26927 0.0
C1716 C 0.87853 0.48369 0.25037 0.0
H1717 H 0.87912 0.38727 0.18151 0.0
H1718 H 0.87957 0.41403 0.19655 0.0
C1719 C 0.87799 0.49881 0.25827 0.0
C1720 C 0.87945 0.45601 0.26119 0.0
H1721 H 0.90333 0.44115 0.22742 0.0
C1722 C 0.86536 0.43955 0.26911 0.0
C1723 C 0.89337 0.4566 0.24614 0.0
C1724 C 0.90916 0.47392 0.23792 0.0
C1725 C 0.86461 0.42364 0.26189 0.0
C1726 C 0.87854 0.42421 0.24682 0.0
C1727 C 0.89267 0.4407 0.23902 0.0
C1728 C 0.87842 0.40786 0.23812 0.0
C1729 C 0.84864 0.40636 0.26981 0.0
C1730 C 0.87785 0.39551 0.25649 0.0
C1731 C 0.8775 0.38006 0.2479 0.0
C1732 C 0.87788 0.37679 0.2208 0.0
C1733 C 0.87877 0.38934 0.20253 0.0
C1734 C 0.87906 0.40469 0.21109 0.0
H1735 H 0.83727 0.40809 0.27516 0.0
H1736 H 0.8445 0.3965 0.25362 0.0
H1737 H 0.85199 0.40096 0.2873 0.0
H1738 H 0.87774 0.39784 0.27747 0.0
H1739 H 0.87694 0.37072 0.26246 0.0
H1740 H 0.50968 0.87575 0.26128 0.0
H1741 H 0.48297 0.87603 0.2758 0.0
H1742 H 0.46943 0.87847 0.19467 0.0
H1743 H 0.49587 0.87812 0.18006 0.0
H1744 H 0.47233 0.90186 0.26475 0.0
H1745 H 0.42456 0.83552 0.22501 0.0
H1746 H 0.44767 0.84273 0.22984 0.0
H1747 H 0.44073 0.85022 0.20167 0.0
C1748 C 0.501 0.87634 0.24657 0.0
C1749 C 0.50485 0.87681 0.21953 0.0
C1750 C 0.48577 0.87652 0.25488 0.0
C1751 C 0.47407 0.87699 0.23629 0.0
C1752 C 0.47808 0.87777 0.20934 0.0
H1753 H 0.37323 0.87488 0.24372 0.0
H1754 H 0.40071 0.87616 0.22943 0.0
C1755 C 0.49327 0.87765 0.20104 0.0
C1756 C 0.45773 0.87682 0.24489 0.0
H1757 H 0.41266 0.85299 0.24059 0.0
C1758 C 0.45927 0.89114 0.25962 0.0
C1759 C 0.44071 0.86288 0.238 0.0
C1760 C 0.43822 0.84688 0.22295 0.0
C1761 C 0.44426 0.89204 0.26724 0.0
C1762 C 0.42722 0.87805 0.26044 0.0
C1763 C 0.4257 0.86374 0.24571 0.0
C1764 C 0.41078 0.87777 0.269 0.0
C1765 C 0.44683 0.90818 0.28197 0.0
C1766 C 0.40721 0.87805 0.29595 0.0
C1767 C 0.3916 0.87737 0.30411 0.0
C1768 C 0.37911 0.87622 0.28552 0.0
C1769 C 0.38261 0.87582 0.25852 0.0
C1770 C 0.3983 0.87653 0.25034 0.0
H1771 H 0.46028 0.91969 0.27878 0.0
H1772 H 0.43694 0.91192 0.27581 0.0
H1773 H 0.44521 0.90528 0.30344 0.0
H1774 H 0.4164 0.87856 0.31074 0.0
H1775 H 0.38927 0.87758 0.32508 0.0
H1776 H 0.62262 0.49441 0.17746 0.0
H1777 H 0.59558 0.4683 0.19232 0.0
H1778 H 0.61161 0.48241 0.27336 0.0
H1779 H 0.63898 0.50855 0.25854 0.0
H1780 H 0.59981 0.44722 0.26292 0.0
H1781 H 0.5517 0.46547 0.2244 0.0
H1782 H 0.5667 0.46603 0.19971 0.0
H1783 H 0.57503 0.48121 0.22704 0.0
C1784 C 0.62037 0.49206 0.19847 0.0
C1785 C 0.63294 0.50361 0.21684 0.0
C1786 C 0.60482 0.47716 0.20694 0.0
C1787 C 0.60137 0.47353 0.23397 0.0
C1788 C 0.61392 0.48501 0.25239 0.0
H1789 H 0.51671 0.38827 0.32371 0.0
H1790 H 0.54303 0.41532 0.30925 0.0
C1791 C 0.62954 0.49994 0.24391 0.0
C1792 C 0.58503 0.45738 0.24287 0.0
H1793 H 0.5399 0.43571 0.23893 0.0
C1794 C 0.58671 0.44477 0.25785 0.0
C1795 C 0.56792 0.45413 0.23614 0.0
C1796 C 0.56517 0.4675 0.22115 0.0
C1797 C 0.5718 0.42889 0.26583 0.0
C1798 C 0.55471 0.42561 0.25898 0.0
C1799 C 0.553 0.43821 0.24405 0.0
C1800 C 0.53845 0.40931 0.26758 0.0
C1801 C 0.57447 0.41556 0.28105 0.0
C1802 C 0.52683 0.39712 0.24893 0.0
C1803 C 0.51169 0.38159 0.25715 0.0
C1804 C 0.50784 0.37808 0.28417 0.0
C1805 C 0.51933 0.39051 0.30274 0.0
C1806 C 0.53445 0.40596 0.29453 0.0
H1807 H 0.58818 0.41802 0.27901 0.0
H1808 H 0.57197 0.41647 0.30232 0.0
H1809 H 0.56512 0.40189 0.2743 0.0
H1810 H 0.52962 0.3995 0.22802 0.0
H1811 H 0.50308 0.37231 0.24237 0.0
H1812 H 0.13243 0.63556 0.26031 0.0
H1813 H 0.13199 0.60842 0.27446 0.0
H1814 H 0.13081 0.59339 0.19308 0.0
H1815 H 0.13136 0.62036 0.17884 0.0
H1816 H 0.10678 0.57198 0.26261 0.0
H1817 H 0.17369 0.59186 0.22411 0.0
H1818 H 0.16609 0.60746 0.22886 0.0
H1819 H 0.15904 0.59317 0.20051 0.0
C1820 C 0.13204 0.62644 0.24547 0.0
C1821 C 0.13205 0.63018 0.21846 0.0
C1822 C 0.13178 0.61095 0.25357 0.0
C1823 C 0.13167 0.59904 0.23481 0.0
C1824 C 0.13124 0.60256 0.20789 0.0
H1825 H 0.13574 0.50119 0.24298 0.0
H1826 H 0.13381 0.52696 0.22819 0.0
C1827 C 0.13147 0.61796 0.1998 0.0
C1828 C 0.132 0.58291 0.24322 0.0
H1829 H 0.15652 0.56239 0.23937 0.0
C1830 C 0.11768 0.5699 0.25766 0.0
C1831 C 0.14619 0.58017 0.23656 0.0
C1832 C 0.16222 0.59395 0.22185 0.0
C1833 C 0.11703 0.55411 0.26529 0.0
C1834 C 0.13128 0.55141 0.25877 0.0
C1835 C 0.14558 0.56441 0.24426 0.0
C1836 C 0.13191 0.53549 0.26758 0.0
C1837 C 0.10092 0.54029 0.27978 0.0
C1838 C 0.13168 0.53183 0.2946 0.0
C1839 C 0.13275 0.51716 0.30304 0.0
C1840 C 0.13423 0.50588 0.28467 0.0
C1841 C 0.13456 0.50959 0.2576 0.0
C1842 C 0.13347 0.52431 0.24914 0.0
H1843 H 0.08928 0.54197 0.27636 0.0
H1844 H 0.0975 0.52674 0.27363 0.0
H1845 H 0.10367 0.54159 0.3013 0.0
H1846 H 0.13093 0.54047 0.30922 0.0
H1847 H 0.13258 0.51477 0.32405 0.0
H1848 H 0.50987 0.87514 0.74306 0.0
H1849 H 0.48357 0.8762 0.72867 0.0
H1850 H 0.47031 0.87887 0.80991 0.0
H1851 H 0.49657 0.87812 0.82434 0.0
H1852 H 0.44849 0.8529 0.74 0.0
H1853 H 0.46717 0.91964 0.77746 0.0
H1854 H 0.48287 0.91202 0.77463 0.0
H1855 H 0.468 0.90543 0.80231 0.0
C1856 C 0.50141 0.8761 0.75782 0.0
C1857 C 0.50536 0.87664 0.78482 0.0
C1858 C 0.48638 0.87668 0.74958 0.0
C1859 C 0.47511 0.87792 0.76819 0.0
C1860 C 0.47901 0.87836 0.79515 0.0
H1861 H 0.37375 0.87497 0.76073 0.0
H1862 H 0.40089 0.87552 0.77513 0.0
C1863 C 0.494 0.87781 0.80337 0.0
C1864 C 0.45887 0.87803 0.75959 0.0
H1865 H 0.43726 0.90153 0.76371 0.0
C1866 C 0.4461 0.86359 0.74501 0.0
C1867 C 0.4557 0.89196 0.76626 0.0
C1868 C 0.46923 0.90822 0.78081 0.0
C1869 C 0.43014 0.86255 0.73734 0.0
C1870 C 0.42694 0.87642 0.74412 0.0
C1871 C 0.43969 0.89086 0.75868 0.0
C1872 C 0.41065 0.87638 0.73557 0.0
C1873 C 0.41667 0.84642 0.72247 0.0
C1874 C 0.4073 0.877 0.70863 0.0
C1875 C 0.39191 0.87673 0.7004 0.0
C1876 C 0.37952 0.87589 0.71894 0.0
C1877 C 0.38301 0.87556 0.74598 0.0
C1878 C 0.3985 0.87589 0.75422 0.0
H1879 H 0.41911 0.83516 0.72461 0.0
H1880 H 0.40307 0.84219 0.72943 0.0
H1881 H 0.41741 0.84967 0.70115 0.0
H1882 H 0.41664 0.87771 0.69392 0.0
H1883 H 0.38969 0.87709 0.67943 0.0
H1884 H 0.617 0.50591 0.80886 0.0
H1885 H 0.59032 0.47932 0.79435 0.0
H1886 H 0.62112 0.46903 0.73788 0.0
H1887 H 0.64759 0.49665 0.75084 0.0
H1888 H 0.5924 0.46005 0.71648 0.0
H1889 H 0.57441 0.43095 0.81598 0.0
H1890 H 0.57479 0.45162 0.81572 0.0
H1891 H 0.59489 0.45105 0.80973 0.0
C1892 C 0.61803 0.49804 0.7932 0.0
C1893 C 0.63434 0.50328 0.78101 0.0
C1894 C 0.60278 0.48265 0.78516 0.0
C1895 C 0.60366 0.47163 0.76568 0.0
C1896 C 0.61999 0.47712 0.75311 0.0
H1897 H 0.51452 0.36343 0.74873 0.0
H1898 H 0.54233 0.38982 0.76116 0.0
C1899 C 0.63513 0.49291 0.76048 0.0
C1900 C 0.58754 0.45466 0.7581 0.0
H1901 H 0.55142 0.4182 0.78338 0.0
C1902 C 0.58359 0.45081 0.73118 0.0
C1903 C 0.57613 0.4422 0.77706 0.0
C1904 C 0.58041 0.44408 0.80618 0.0
C1905 C 0.5685 0.43522 0.72274 0.0
C1906 C 0.5563 0.42355 0.74175 0.0
C1907 C 0.56046 0.4272 0.76866 0.0
C1908 C 0.53928 0.40745 0.73427 0.0
C1909 C 0.56627 0.43129 0.69352 0.0
C1910 C 0.52796 0.40842 0.71542 0.0
C1911 C 0.51244 0.39321 0.70764 0.0
C1912 C 0.5074 0.37684 0.7195 0.0
C1913 C 0.51811 0.37594 0.73936 0.0
C1914 C 0.53401 0.39104 0.74644 0.0
H1915 H 0.57927 0.43746 0.68332 0.0
H1916 H 0.55931 0.41686 0.68956 0.0
H1917 H 0.55858 0.43698 0.68471 0.0
H1918 H 0.53113 0.42094 0.70658 0.0
H1919 H 0.5043 0.39431 0.6925 0.0
H1920 H 0.13325 0.63631 0.74056 0.0
H1921 H 0.13171 0.60878 0.72572 0.0
H1922 H 0.13048 0.5931 0.80678 0.0
H1923 H 0.13174 0.62025 0.82164 0.0
H1924 H 0.15525 0.59698 0.73601 0.0
H1925 H 0.0891 0.54908 0.77542 0.0
H1926 H 0.09668 0.5724 0.77246 0.0
H1927 H 0.10358 0.56425 0.79994 0.0
C1928 C 0.13248 0.6269 0.75517 0.0
C1929 C 0.13253 0.63043 0.78226 0.0
C1930 C 0.13163 0.61119 0.74669 0.0
C1931 C 0.13067 0.59871 0.76513 0.0
C1932 C 0.13076 0.60228 0.79215 0.0
H1933 H 0.1344 0.50089 0.76005 0.0
H1934 H 0.13354 0.52751 0.77338 0.0
C1935 C 0.1316 0.61791 0.80061 0.0
C1936 C 0.13041 0.58232 0.75636 0.0
H1937 H 0.10722 0.53723 0.76172 0.0
C1938 C 0.14467 0.58392 0.74141 0.0
C1939 C 0.11663 0.56525 0.76354 0.0
C1940 C 0.10055 0.56258 0.77851 0.0
C1941 C 0.14574 0.56897 0.734 0.0
C1942 C 0.13206 0.55193 0.74141 0.0
C1943 C 0.11775 0.55031 0.75621 0.0
C1944 C 0.13223 0.53563 0.73348 0.0
C1945 C 0.16173 0.57156 0.71882 0.0
C1946 C 0.13146 0.53122 0.7067 0.0
C1947 C 0.13191 0.51607 0.69908 0.0
C1948 C 0.1331 0.50496 0.71808 0.0
C1949 C 0.13355 0.50921 0.74495 0.0
C1950 C 0.13305 0.52439 0.75258 0.0
H1951 H 0.17291 0.58536 0.72039 0.0
H1952 H 0.1662 0.56243 0.72601 0.0
H1953 H 0.15822 0.56867 0.69764 0.0
H1954 H 0.13049 0.5395 0.69165 0.0
H1955 H 0.13144 0.51314 0.67821 0.0
H1956 H 0.63841 0.13094 0.76278 0.0
H1957 H 0.6108 0.12931 0.77738 0.0
H1958 H 0.59519 0.12772 0.6962 0.0
H1959 H 0.62243 0.12909 0.68157 0.0
H1960 H 0.599 0.15282 0.76656 0.0
H1961 H 0.55119 0.08638 0.72784 0.0
H1962 H 0.5745 0.09401 0.73093 0.0
H1963 H 0.56637 0.10078 0.70328 0.0
C1964 C 0.629 0.13007 0.74809 0.0
C1965 C 0.63258 0.13006 0.72103 0.0
C1966 C 0.61325 0.12916 0.75644 0.0
C1967 C 0.60077 0.12809 0.73789 0.0
C1968 C 0.60438 0.1281 0.7109 0.0
H1969 H 0.50259 0.13125 0.74317 0.0
H1970 H 0.52912 0.13029 0.72964 0.0
C1971 C 0.62005 0.129 0.70257 0.0
C1972 C 0.58436 0.12783 0.74655 0.0
H1973 H 0.53928 0.10444 0.74149 0.0
C1974 C 0.58594 0.14217 0.76128 0.0
C1975 C 0.56731 0.11397 0.73952 0.0
C1976 C 0.56468 0.09783 0.72474 0.0
C1977 C 0.57098 0.14322 0.76867 0.0
C1978 C 0.55395 0.12942 0.76148 0.0
C1979 C 0.55235 0.11505 0.74685 0.0
C1980 C 0.53764 0.12954 0.76951 0.0
C1981 C 0.57357 0.1593 0.7836 0.0
C1982 C 0.53345 0.12908 0.79633 0.0
C1983 C 0.51837 0.12961 0.80406 0.0
C1984 C 0.50707 0.13053 0.78512 0.0
C1985 C 0.51106 0.13061 0.75821 0.0
C1986 C 0.52619 0.13005 0.75047 0.0
H1987 H 0.5873 0.17055 0.78167 0.0
H1988 H 0.56428 0.16359 0.77649 0.0
H1989 H 0.57091 0.15598 0.80487 0.0
H1990 H 0.54188 0.12834 0.81135 0.0
H1991 H 0.51564 0.12942 0.82496 0.0
H1992 H 0.37383 0.50089 0.74411 0.0
H1993 H 0.40131 0.52701 0.72952 0.0
H1994 H 0.41718 0.54078 0.81068 0.0
H1995 H 0.39006 0.5147 0.82531 0.0
H1996 H 0.41329 0.56223 0.74027 0.0
H1997 H 0.46101 0.54345 0.77873 0.0
H1998 H 0.43767 0.52782 0.77591 0.0
H1999 H 0.44599 0.54286 0.8034 0.0
C2000 C 0.38326 0.50942 0.7588 0.0
C2001 C 0.3798 0.50566 0.78585 0.0
C2002 C 0.39894 0.52434 0.75046 0.0
C2003 C 0.41148 0.53571 0.76899 0.0
C2004 C 0.40796 0.532 0.79598 0.0
H2005 H 0.51026 0.63678 0.76103 0.0
H2006 H 0.48361 0.60969 0.7755 0.0
C2007 C 0.39235 0.51711 0.80431 0.0
C2008 C 0.4279 0.55185 0.76026 0.0
H2009 H 0.47301 0.5733 0.76455 0.0
C2010 C 0.42635 0.56458 0.74541 0.0
C2011 C 0.44496 0.55498 0.76708 0.0
C2012 C 0.44757 0.54149 0.78194 0.0
C2013 C 0.44134 0.58046 0.73763 0.0
C2014 C 0.45837 0.58362 0.74456 0.0
C2015 C 0.45995 0.57091 0.75938 0.0
C2016 C 0.4747 0.59985 0.73597 0.0
C2017 C 0.4388 0.59391 0.72249 0.0
C2018 C 0.4787 0.60313 0.70902 0.0
C2019 C 0.49386 0.6185 0.70075 0.0
C2020 C 0.50543 0.63093 0.71926 0.0
C2021 C 0.5016 0.62749 0.7463 0.0
C2022 C 0.48639 0.61203 0.75458 0.0
H2023 H 0.42513 0.59156 0.72456 0.0
H2024 H 0.44823 0.60754 0.7293 0.0
H2025 H 0.44129 0.59302 0.70122 0.0
H2026 H 0.47006 0.59377 0.69433 0.0
H2027 H 0.49645 0.62068 0.67977 0.0
H2028 H 0.87923 0.37178 0.74214 0.0
H2029 H 0.88006 0.39888 0.72674 0.0
H2030 H 0.88155 0.4153 0.80744 0.0
H2031 H 0.88059 0.38839 0.82289 0.0
H2032 H 0.85606 0.4174 0.77623 0.0
H2033 H 0.92195 0.45019 0.72767 0.0
H2034 H 0.90705 0.42786 0.71735 0.0
H2035 H 0.91518 0.43213 0.75066 0.0
C2036 C 0.87987 0.38124 0.75655 0.0
C2037 C 0.87986 0.37793 0.78372 0.0
C2038 C 0.88042 0.39675 0.74774 0.0
C2039 C 0.88104 0.4092 0.76596 0.0
C2040 C 0.88112 0.40592 0.79304 0.0
H2041 H 0.87825 0.50786 0.75945 0.0
H2042 H 0.8792 0.4815 0.77375 0.0
C2043 C 0.8806 0.39051 0.80182 0.0
C2044 C 0.88093 0.42538 0.7571 0.0
H2045 H 0.90482 0.46414 0.72331 0.0
C2046 C 0.86673 0.42764 0.76469 0.0
C2047 C 0.89486 0.43871 0.74204 0.0
C2048 C 0.91072 0.43726 0.73408 0.0
C2049 C 0.86595 0.44275 0.75736 0.0
C2050 C 0.87996 0.45619 0.7425 0.0
C2051 C 0.89413 0.45388 0.7348 0.0
C2052 C 0.87993 0.47252 0.73416 0.0
C2053 C 0.84991 0.44397 0.76507 0.0
C2054 C 0.88059 0.47656 0.70723 0.0
C2055 C 0.8802 0.49165 0.69906 0.0
C2056 C 0.87921 0.50309 0.71765 0.0
C2057 C 0.87889 0.49924 0.74466 0.0
C2058 C 0.87932 0.48412 0.75284 0.0
H2059 H 0.83849 0.4308 0.7701 0.0
H2060 H 0.85309 0.45256 0.78272 0.0
H2061 H 0.8459 0.44982 0.74891 0.0
H2062 H 0.88114 0.46787 0.69246 0.0
H2063 H 0.88052 0.49424 0.6781 0.0
loop_
_geom_bond_atom_site_label_1
_geom_bond_atom_site_label_2
_geom_bond_distance
_geom_bond_site_symmetry_2
_ccdc_geom_bond_type
Co0 O1 2.216 . S
Co0 O2 2.091 . S
Co0 O4 2.004 . S
Co0 O10 2.021 . S
Co0 O12 2.137 . S
Co0 O13 2.244 . S
O1 Co0 2.216 . S
O1 C8 1.247 . S
O2 Co0 2.091 . S
O2 C8 1.261 . S
C3 O12 1.247 . S
C3 O13 1.272 . S
O4 Co0 2.004 . S
O4 C9 1.259 . S
Co5 O6 2.061 . S
Co5 O11 2.052 . S
Co5 O13 2.135 . S
O6 Co5 2.061 . S
O6 C9 1.235 . S
C7 O10 1.238 . S
C7 O11 1.241 . S
C8 O1 1.247 . S
C8 O2 1.261 . S
C9 O4 1.259 . S
C9 O6 1.235 . S
O10 Co0 2.021 . S
O10 C7 1.238 . S
O11 Co5 2.052 . S
O11 C7 1.241 . S
O12 Co0 2.137 . S
O12 C3 1.247 . S
O13 Co0 2.244 . S
O13 C3 1.272 . S
O13 Co5 2.135 . S
Co14 O15 2.216 . S
Co14 O16 2.091 . S
Co14 O18 2.004 . S
Co14 O24 2.021 . S
Co14 O26 2.137 . S
Co14 O27 2.244 . S
O15 Co14 2.216 . S
O15 C22 1.247 . S
O16 Co14 2.091 . S
O16 C22 1.261 . S
C17 O26 1.247 . S
C17 O27 1.272 . S
O18 Co14 2.004 . S
O18 C23 1.259 . S
Co19 O20 2.061 . S
Co19 O25 2.052 . S
Co19 O27 2.135 . S
O20 Co19 2.061 . S
O20 C23 1.235 . S
C21 O24 1.238 . S
C21 O25 1.241 . S
C22 O15 1.247 . S
C22 O16 1.261 . S
C23 O18 1.259 . S
C23 O20 1.235 . S
O24 Co14 2.021 . S
O24 C21 1.238 . S
O25 Co19 2.052 . S
O25 C21 1.241 . S
O26 Co14 2.137 . S
O26 C17 1.247 . S
O27 Co14 2.244 . S
O27 C17 1.272 . S
O27 Co19 2.135 . S
Co28 O29 2.216 . S
Co28 O30 2.091 . S
Co28 O32 2.004 . S
Co28 O38 2.021 . S
Co28 O40 2.137 . S
Co28 O41 2.244 . S
O29 Co28 2.216 . S
O29 C36 1.247 . S
O30 Co28 2.091 . S
O30 C36 1.261 . S
C31 O40 1.247 . S
C31 O41 1.272 . S
O32 Co28 2.004 . S
O32 C37 1.259 . S
Co33 O34 2.061 . S
Co33 O39 2.052 . S
Co33 O41 2.135 . S
O34 Co33 2.061 . S
O34 C37 1.235 . S
C35 O38 1.238 . S
C35 O39 1.241 . S
C36 O29 1.247 . S
C36 O30 1.261 . S
C37 O32 1.259 . S
C37 O34 1.235 . S
O38 Co28 2.021 . S
O38 C35 1.238 . S
O39 Co33 2.052 . S
O39 C35 1.241 . S
O40 Co28 2.137 . S
O40 C31 1.247 . S
O41 Co28 2.244 . S
O41 C31 1.272 . S
O41 Co33 2.135 . S
Co42 O43 2.216 . S
Co42 O44 2.091 . S
Co42 O46 2.004 . S
Co42 O52 2.021 . S
Co42 O54 2.137 . S
Co42 O55 2.244 . S
O43 Co42 2.216 . S
O43 C50 1.247 . S
O44 Co42 2.091 . S
O44 C50 1.261 . S
C45 O54 1.247 . S
C45 O55 1.272 . S
O46 Co42 2.004 . S
O46 C51 1.259 . S
Co47 O48 2.061 . S
Co47 O53 2.052 . S
Co47 O55 2.135 . S
O48 Co47 2.061 . S
O48 C51 1.235 . S
C49 O52 1.238 . S
C49 O53 1.241 . S
C50 O43 1.247 . S
C50 O44 1.261 . S
C51 O46 1.259 . S
C51 O48 1.235 . S
O52 Co42 2.021 . S
O52 C49 1.238 . S
O53 Co47 2.052 . S
O53 C49 1.241 . S
O54 Co42 2.137 . S
O54 C45 1.247 . S
O55 Co42 2.244 . S
O55 C45 1.272 . S
O55 Co47 2.135 . S
Co56 O57 2.216 . S
Co56 O58 2.091 . S
Co56 O60 2.004 . S
Co56 O66 2.021 . S
Co56 O68 2.137 . S
Co56 O69 2.244 . S
O57 Co56 2.216 . S
O57 C64 1.247 . S
O58 Co56 2.091 . S
O58 C64 1.261 . S
C59 O68 1.247 . S
C59 O69 1.272 . S
O60 Co56 2.004 . S
O60 C65 1.259 . S
Co61 O62 2.061 . S
Co61 O67 2.052 . S
Co61 O69 2.135 . S
O62 Co61 2.061 . S
O62 C65 1.235 . S
C63 O66 1.238 . S
C63 O67 1.241 . S
C64 O57 1.247 . S
C64 O58 1.261 . S
C65 O60 1.259 . S
C65 O62 1.235 . S
O66 Co56 2.021 . S
O66 C63 1.238 . S
O67 Co61 2.052 . S
O67 C63 1.241 . S
O68 Co56 2.137 . S
O68 C59 1.247 . S
O69 Co56 2.244 . S
O69 C59 1.272 . S
O69 Co61 2.135 . S
Co70 O71 2.216 . S
Co70 O72 2.091 . S
Co70 O74 2.004 . S
Co70 O80 2.021 . S
Co70 O82 2.137 . S
Co70 O83 2.244 . S
O71 Co70 2.216 . S
O71 C78 1.247 . S
O72 Co70 2.091 . S
O72 C78 1.261 . S
C73 O82 1.247 . S
C73 O83 1.272 . S
O74 Co70 2.004 . S
O74 C79 1.259 . S
Co75 O76 2.061 . S
Co75 O81 2.052 . S
Co75 O83 2.135 . S
O76 Co75 2.061 . S
O76 C79 1.235 . S
C77 O80 1.238 . S
C77 O81 1.241 . S
C78 O71 1.247 . S
C78 O72 1.261 . S
C79 O74 1.259 . S
C79 O76 1.235 . S
O80 Co70 2.021 . S
O80 C77 1.238 . S
O81 Co75 2.052 . S
O81 C77 1.241 . S
O82 Co70 2.137 . S
O82 C73 1.247 . S
O83 Co70 2.244 . S
O83 C73 1.272 . S
O83 Co75 2.135 . S
Co84 O85 2.216 . S
Co84 O86 2.091 . S
Co84 O88 2.004 . S
Co84 O94 2.021 . S
Co84 O96 2.137 . S
Co84 O97 2.244 . S
O85 Co84 2.216 . S
O85 C92 1.247 . S
O86 Co84 2.091 . S
O86 C92 1.261 . S
C87 O96 1.247 . S
C87 O97 1.272 . S
O88 Co84 2.004 . S
O88 C93 1.259 . S
Co89 O90 2.061 . S
Co89 O95 2.052 . S
Co89 O97 2.135 . S
O90 Co89 2.061 . S
O90 C93 1.235 . S
C91 O94 1.238 . S
C91 O95 1.241 . S
C92 O85 1.247 . S
C92 O86 1.261 . S
C93 O88 1.259 . S
C93 O90 1.235 . S
O94 Co84 2.021 . S
O94 C91 1.238 . S
O95 Co89 2.052 . S
O95 C91 1.241 . S
O96 Co84 2.137 . S
O96 C87 1.247 . S
O97 Co84 2.244 . S
O97 C87 1.272 . S
O97 Co89 2.135 . S
Co98 O99 2.216 . S
Co98 O100 2.091 . S
Co98 O102 2.004 . S
Co98 O108 2.021 . S
Co98 O110 2.137 . S
Co98 O111 2.244 . S
O99 Co98 2.216 . S
O99 C106 1.247 . S
O100 Co98 2.091 . S
O100 C106 1.261 . S
C101 O110 1.247 . S
C101 O111 1.272 . S
O102 Co98 2.004 . S
O102 C107 1.259 . S
Co103 O104 2.061 . S
Co103 O109 2.052 . S
Co103 O111 2.135 . S
O104 Co103 2.061 . S
O104 C107 1.235 . S
C105 O108 1.238 . S
C105 O109 1.241 . S
C106 O99 1.247 . S
C106 O100 1.261 . S
C107 O102 1.259 . S
C107 O104 1.235 . S
O108 Co98 2.021 . S
O108 C105 1.238 . S
O109 Co103 2.052 . S
O109 C105 1.241 . S
O110 Co98 2.137 . S
O110 C101 1.247 . S
O111 Co98 2.244 . S
O111 C101 1.272 . S
O111 Co103 2.135 . S
Co112 O113 2.216 . S
Co112 O114 2.091 . S
Co112 O116 2.004 . S
Co112 O122 2.021 . S
Co112 O124 2.137 . S
Co112 O125 2.244 . S
O113 Co112 2.216 . S
O113 C120 1.247 . S
O114 Co112 2.091 . S
O114 C120 1.261 . S
C115 O124 1.247 . S
C115 O125 1.272 . S
O116 Co112 2.004 . S
O116 C121 1.259 . S
Co117 O118 2.061 . S
Co117 O123 2.052 . S
Co117 O125 2.135 . S
O118 Co117 2.061 . S
O118 C121 1.235 . S
C119 O122 1.238 . S
C119 O123 1.241 . S
C120 O113 1.247 . S
C120 O114 1.261 . S
C121 O116 1.259 . S
C121 O118 1.235 . S
O122 Co112 2.021 . S
O122 C119 1.238 . S
O123 Co117 2.052 . S
O123 C119 1.241 . S
O124 Co112 2.137 . S
O124 C115 1.247 . S
O125 Co112 2.244 . S
O125 C115 1.272 . S
O125 Co117 2.135 . S
Co126 O127 2.216 . S
Co126 O128 2.091 . S
Co126 O130 2.004 . S
Co126 O136 2.021 . S
Co126 O138 2.137 . S
Co126 O139 2.244 . S
O127 Co126 2.216 . S
O127 C134 1.247 . S
O128 Co126 2.091 . S
O128 C134 1.261 . S
C129 O138 1.247 . S
C129 O139 1.272 . S
O130 Co126 2.004 . S
O130 C135 1.259 . S
Co131 O132 2.061 . S
Co131 O137 2.052 . S
Co131 O139 2.135 . S
O132 Co131 2.061 . S
O132 C135 1.235 . S
C133 O136 1.238 . S
C133 O137 1.241 . S
C134 O127 1.247 . S
C134 O128 1.261 . S
C135 O130 1.259 . S
C135 O132 1.235 . S
O136 Co126 2.021 . S
O136 C133 1.238 . S
O137 Co131 2.052 . S
O137 C133 1.241 . S
O138 Co126 2.137 . S
O138 C129 1.247 . S
O139 Co126 2.244 . S
O139 C129 1.272 . S
O139 Co131 2.135 . S
Co140 O141 2.216 . S
Co140 O142 2.091 . S
Co140 O144 2.004 . S
Co140 O150 2.021 . S
Co140 O152 2.137 . S
Co140 O153 2.244 . S
O141 Co140 2.216 . S
O141 C148 1.247 . S
O142 Co140 2.091 . S
O142 C148 1.261 . S
C143 O152 1.247 . S
C143 O153 1.272 . S
O144 Co140 2.004 . S
O144 C149 1.259 . S
Co145 O146 2.061 . S
Co145 O151 2.052 . S
Co145 O153 2.135 . S
O146 Co145 2.061 . S
O146 C149 1.235 . S
C147 O150 1.238 . S
C147 O151 1.241 . S
C148 O141 1.247 . S
C148 O142 1.261 . S
C149 O144 1.259 . S
C149 O146 1.235 . S
O150 Co140 2.021 . S
O150 C147 1.238 . S
O151 Co145 2.052 . S
O151 C147 1.241 . S
O152 Co140 2.137 . S
O152 C143 1.247 . S
O153 Co140 2.244 . S
O153 C143 1.272 . S
O153 Co145 2.135 . S
Co154 O155 2.216 . S
Co154 O156 2.091 . S
Co154 O158 2.004 . S
Co154 O164 2.021 . S
Co154 O166 2.137 . S
Co154 O167 2.244 . S
O155 Co154 2.216 . S
O155 C162 1.247 . S
O156 Co154 2.091 . S
O156 C162 1.261 . S
C157 O166 1.247 . S
C157 O167 1.272 . S
O158 Co154 2.004 . S
O158 C163 1.259 . S
Co159 O160 2.061 . S
Co159 O165 2.052 . S
Co159 O167 2.135 . S
O160 Co159 2.061 . S
O160 C163 1.235 . S
C161 O164 1.238 . S
C161 O165 1.241 . S
C162 O155 1.247 . S
C162 O156 1.261 . S
C163 O158 1.259 . S
C163 O160 1.235 . S
O164 Co154 2.021 . S
O164 C161 1.238 . S
O165 Co159 2.052 . S
O165 C161 1.241 . S
O166 Co154 2.137 . S
O166 C157 1.247 . S
O167 Co154 2.244 . S
O167 C157 1.272 . S
O167 Co159 2.135 . S
Co168 O169 2.216 . S
Co168 O170 2.091 . S
Co168 O172 2.004 . S
Co168 O178 2.021 . S
Co168 O180 2.137 . S
Co168 O181 2.244 . S
O169 Co168 2.216 . S
O169 C176 1.247 . S
O170 Co168 2.091 . S
O170 C176 1.261 . S
C171 O180 1.247 . S
C171 O181 1.272 . S
O172 Co168 2.004 . S
O172 C177 1.259 . S
Co173 O174 2.061 . S
Co173 O179 2.052 . S
Co173 O181 2.135 . S
O174 Co173 2.061 . S
O174 C177 1.235 . S
C175 O178 1.238 . S
C175 O179 1.241 . S
C176 O169 1.247 . S
C176 O170 1.261 . S
C177 O172 1.259 . S
C177 O174 1.235 . S
O178 Co168 2.021 . S
O178 C175 1.238 . S
O179 Co173 2.052 . S
O179 C175 1.241 . S
O180 Co168 2.137 . S
O180 C171 1.247 . S
O181 Co168 2.244 . S
O181 C171 1.272 . S
O181 Co173 2.135 . S
Co182 O183 2.216 . S
Co182 O184 2.091 . S
Co182 O186 2.004 . S
Co182 O192 2.021 . S
Co182 O194 2.137 . S
Co182 O195 2.244 . S
O183 Co182 2.216 . S
O183 C190 1.247 . S
O184 Co182 2.091 . S
O184 C190 1.261 . S
C185 O194 1.247 . S
C185 O195 1.272 . S
O186 Co182 2.004 . S
O186 C191 1.259 . S
Co187 O188 2.061 . S
Co187 O193 2.052 . S
Co187 O195 2.135 . S
O188 Co187 2.061 . S
O188 C191 1.235 . S
C189 O192 1.238 . S
C189 O193 1.241 . S
C190 O183 1.247 . S
C190 O184 1.261 . S
C191 O186 1.259 . S
C191 O188 1.235 . S
O192 Co182 2.021 . S
O192 C189 1.238 . S
O193 Co187 2.052 . S
O193 C189 1.241 . S
O194 Co182 2.137 . S
O194 C185 1.247 . S
O195 Co182 2.244 . S
O195 C185 1.272 . S
O195 Co187 2.135 . S
Co196 O197 2.216 . S
Co196 O198 2.091 . S
Co196 O200 2.004 . S
Co196 O206 2.021 . S
Co196 O208 2.137 . S
Co196 O209 2.244 . S
O197 Co196 2.216 . S
O197 C204 1.247 . S
O198 Co196 2.091 . S
O198 C204 1.261 . S
C199 O208 1.247 . S
C199 O209 1.272 . S
O200 Co196 2.004 . S
O200 C205 1.259 . S
Co201 O202 2.061 . S
Co201 O207 2.052 . S
Co201 O209 2.135 . S
O202 Co201 2.061 . S
O202 C205 1.235 . S
C203 O206 1.238 . S
C203 O207 1.241 . S
C204 O197 1.247 . S
C204 O198 1.261 . S
C205 O200 1.259 . S
C205 O202 1.235 . S
O206 Co196 2.021 . S
O206 C203 1.238 . S
O207 Co201 2.052 . S
O207 C203 1.241 . S
O208 Co196 2.137 . S
O208 C199 1.247 . S
O209 Co196 2.244 . S
O209 C199 1.272 . S
O209 Co201 2.135 . S
Co210 O211 2.216 . S
Co210 O212 2.091 . S
Co210 O214 2.004 . S
Co210 O220 2.021 . S
Co210 O222 2.137 . S
Co210 O223 2.244 . S
O211 Co210 2.216 . S
O211 C218 1.247 . S
O212 Co210 2.091 . S
O212 C218 1.261 . S
C213 O222 1.247 . S
C213 O223 1.272 . S
O214 Co210 2.004 . S
O214 C219 1.259 . S
Co215 O216 2.061 . S
Co215 O221 2.052 . S
Co215 O223 2.135 . S
O216 Co215 2.061 . S
O216 C219 1.235 . S
C217 O220 1.238 . S
C217 O221 1.241 . S
C218 O211 1.247 . S
C218 O212 1.261 . S
C219 O214 1.259 . S
C219 O216 1.235 . S
O220 Co210 2.021 . S
O220 C217 1.238 . S
O221 Co215 2.052 . S
O221 C217 1.241 . S
O222 Co210 2.137 . S
O222 C213 1.247 . S
O223 Co210 2.244 . S
O223 C213 1.272 . S
O223 Co215 2.135 . S
Co224 O225 2.216 . S
Co224 O226 2.091 . S
Co224 O228 2.004 . S
Co224 O234 2.021 . S
Co224 O236 2.137 . S
Co224 O237 2.244 . S
O225 Co224 2.216 . S
O225 C232 1.247 . S
O226 Co224 2.091 . S
O226 C232 1.261 . S
C227 O236 1.247 . S
C227 O237 1.272 . S
O228 Co224 2.004 . S
O228 C233 1.259 . S
Co229 O230 2.061 . S
Co229 O235 2.052 . S
Co229 O237 2.135 . S
O230 Co229 2.061 . S
O230 C233 1.235 . S
C231 O234 1.238 . S
C231 O235 1.241 . S
C232 O225 1.247 . S
C232 O226 1.261 . S
C233 O228 1.259 . S
C233 O230 1.235 . S
O234 Co224 2.021 . S
O234 C231 1.238 . S
O235 Co229 2.052 . S
O235 C231 1.241 . S
O236 Co224 2.137 . S
O236 C227 1.247 . S
O237 Co224 2.244 . S
O237 C227 1.272 . S
O237 Co229 2.135 . S
Co238 O239 2.216 . S
Co238 O240 2.091 . S
Co238 O242 2.004 . S
Co238 O248 2.021 . S
Co238 O250 2.137 . S
Co238 O251 2.244 . S
O239 Co238 2.216 . S
O239 C246 1.247 . S
O240 Co238 2.091 . S
O240 C246 1.261 . S
C241 O250 1.247 . S
C241 O251 1.272 . S
O242 Co238 2.004 . S
O242 C247 1.259 . S
Co243 O244 2.061 . S
Co243 O249 2.052 . S
Co243 O251 2.135 . S
O244 Co243 2.061 . S
O244 C247 1.235 . S
C245 O248 1.238 . S
C245 O249 1.241 . S
C246 O239 1.247 . S
C246 O240 1.261 . S
C247 O242 1.259 . S
C247 O244 1.235 . S
O248 Co238 2.021 . S
O248 C245 1.238 . S
O249 Co243 2.052 . S
O249 C245 1.241 . S
O250 Co238 2.137 . S
O250 C241 1.247 . S
O251 Co238 2.244 . S
O251 C241 1.272 . S
O251 Co243 2.135 . S
Co252 O253 2.216 . S
Co252 O254 2.091 . S
Co252 O256 2.004 . S
Co252 O262 2.021 . S
Co252 O264 2.137 . S
Co252 O265 2.244 . S
O253 Co252 2.216 . S
O253 C260 1.247 . S
O254 Co252 2.091 . S
O254 C260 1.261 . S
C255 O264 1.247 . S
C255 O265 1.272 . S
O256 Co252 2.004 . S
O256 C261 1.259 . S
Co257 O258 2.061 . S
Co257 O263 2.052 . S
Co257 O265 2.135 . S
O258 Co257 2.061 . S
O258 C261 1.235 . S
C259 O262 1.238 . S
C259 O263 1.241 . S
C260 O253 1.247 . S
C260 O254 1.261 . S
C261 O256 1.259 . S
C261 O258 1.235 . S
O262 Co252 2.021 . S
O262 C259 1.238 . S
O263 Co257 2.052 . S
O263 C259 1.241 . S
O264 Co252 2.137 . S
O264 C255 1.247 . S
O265 Co252 2.244 . S
O265 C255 1.272 . S
O265 Co257 2.135 . S
Co266 O267 2.216 . S
Co266 O268 2.091 . S
Co266 O270 2.004 . S
Co266 O276 2.021 . S
Co266 O278 2.137 . S
Co266 O279 2.244 . S
O267 Co266 2.216 . S
O267 C274 1.247 . S
O268 Co266 2.091 . S
O268 C274 1.261 . S
C269 O278 1.247 . S
C269 O279 1.272 . S
O270 Co266 2.004 . S
O270 C275 1.259 . S
Co271 O272 2.061 . S
Co271 O277 2.052 . S
Co271 O279 2.135 . S
O272 Co271 2.061 . S
O272 C275 1.235 . S
C273 O276 1.238 . S
C273 O277 1.241 . S
C274 O267 1.247 . S
C274 O268 1.261 . S
C275 O270 1.259 . S
C275 O272 1.235 . S
O276 Co266 2.021 . S
O276 C273 1.238 . S
O277 Co271 2.052 . S
O277 C273 1.241 . S
O278 Co266 2.137 . S
O278 C269 1.247 . S
O279 Co266 2.244 . S
O279 C269 1.272 . S
O279 Co271 2.135 . S
Co280 O281 2.216 . S
Co280 O282 2.091 . S
Co280 O284 2.004 . S
Co280 O290 2.021 . S
Co280 O292 2.137 . S
Co280 O293 2.244 . S
O281 Co280 2.216 . S
O281 C288 1.247 . S
O282 Co280 2.091 . S
O282 C288 1.261 . S
C283 O292 1.247 . S
C283 O293 1.272 . S
O284 Co280 2.004 . S
O284 C289 1.259 . S
Co285 O286 2.061 . S
Co285 O291 2.052 . S
Co285 O293 2.135 . S
O286 Co285 2.061 . S
O286 C289 1.235 . S
C287 O290 1.238 . S
C287 O291 1.241 . S
C288 O281 1.247 . S
C288 O282 1.261 . S
C289 O284 1.259 . S
C289 O286 1.235 . S
O290 Co280 2.021 . S
O290 C287 1.238 . S
O291 Co285 2.052 . S
O291 C287 1.241 . S
O292 Co280 2.137 . S
O292 C283 1.247 . S
O293 Co280 2.244 . S
O293 C283 1.272 . S
O293 Co285 2.135 . S
Co294 O295 2.216 . S
Co294 O296 2.091 . S
Co294 O298 2.004 . S
Co294 O304 2.021 . S
Co294 O306 2.137 . S
Co294 O307 2.244 . S
O295 Co294 2.216 . S
O295 C302 1.247 . S
O296 Co294 2.091 . S
O296 C302 1.261 . S
C297 O306 1.247 . S
C297 O307 1.272 . S
O298 Co294 2.004 . S
O298 C303 1.259 . S
Co299 O300 2.061 . S
Co299 O305 2.052 . S
Co299 O307 2.135 . S
O300 Co299 2.061 . S
O300 C303 1.235 . S
C301 O304 1.238 . S
C301 O305 1.241 . S
C302 O295 1.247 . S
C302 O296 1.261 . S
C303 O298 1.259 . S
C303 O300 1.235 . S
O304 Co294 2.021 . S
O304 C301 1.238 . S
O305 Co299 2.052 . S
O305 C301 1.241 . S
O306 Co294 2.137 . S
O306 C297 1.247 . S
O307 Co294 2.244 . S
O307 C297 1.272 . S
O307 Co299 2.135 . S
Co308 O309 2.216 . S
Co308 O310 2.091 . S
Co308 O312 2.004 . S
Co308 O318 2.021 . S
Co308 O320 2.137 . S
Co308 O321 2.244 . S
O309 Co308 2.216 . S
O309 C316 1.247 . S
O310 Co308 2.091 . S
O310 C316 1.261 . S
C311 O320 1.247 . S
C311 O321 1.272 . S
O312 Co308 2.004 . S
O312 C317 1.259 . S
Co313 O314 2.061 . S
Co313 O319 2.052 . S
Co313 O321 2.135 . S
O314 Co313 2.061 . S
O314 C317 1.235 . S
C315 O318 1.238 . S
C315 O319 1.241 . S
C316 O309 1.247 . S
C316 O310 1.261 . S
C317 O312 1.259 . S
C317 O314 1.235 . S
O318 Co308 2.021 . S
O318 C315 1.238 . S
O319 Co313 2.052 . S
O319 C315 1.241 . S
O320 Co308 2.137 . S
O320 C311 1.247 . S
O321 Co308 2.244 . S
O321 C311 1.272 . S
O321 Co313 2.135 . S
Co322 O323 2.216 . S
Co322 O324 2.091 . S
Co322 O326 2.004 . S
Co322 O332 2.021 . S
Co322 O334 2.137 . S
Co322 O335 2.244 . S
O323 Co322 2.216 . S
O323 C330 1.247 . S
O324 Co322 2.091 . S
O324 C330 1.261 . S
C325 O334 1.247 . S
C325 O335 1.272 . S
O326 Co322 2.004 . S
O326 C331 1.259 . S
Co327 O328 2.061 . S
Co327 O333 2.052 . S
Co327 O335 2.135 . S
O328 Co327 2.061 . S
O328 C331 1.235 . S
C329 O332 1.238 . S
C329 O333 1.241 . S
C330 O323 1.247 . S
C330 O324 1.261 . S
C331 O326 1.259 . S
C331 O328 1.235 . S
O332 Co322 2.021 . S
O332 C329 1.238 . S
O333 Co327 2.052 . S
O333 C329 1.241 . S
O334 Co322 2.137 . S
O334 C325 1.247 . S
O335 Co322 2.244 . S
O335 C325 1.272 . S
O335 Co327 2.135 . S
H336 C344 0.929 . S
H337 C346 0.930 . S
H338 C348 0.930 . S
H339 C351 0.929 . S
H340 C354 0.930 . S
H341 C356 0.960 . S
H342 C356 0.960 . S
H343 C356 0.960 . S
C344 H336 0.929 . S
C344 C345 1.377 . S
C344 C346 1.384 . S
C345 C344 1.377 . S
C345 C351 1.390 . S
C346 H337 0.930 . S
C346 C344 1.384 . S
C346 C347 1.372 . S
C347 C346 1.372 . S
C347 C348 1.400 . S
C347 C352 1.490 . S
C348 H338 0.930 . S
C348 C347 1.400 . S
C348 C351 1.386 . S
H349 C365 0.930 . S
H350 C366 0.931 . S
C351 H339 0.929 . S
C351 C345 1.390 . S
C351 C348 1.386 . S
C352 C347 1.490 . S
C352 C354 1.395 . S
C352 C355 1.403 . S
H353 C359 0.930 . S
C354 H340 0.930 . S
C354 C352 1.395 . S
C354 C357 1.403 1_545 S
C355 C352 1.403 . S
C355 C356 1.524 . S
C355 C359 1.400 1_545 S
C356 H341 0.960 . S
C356 H342 0.960 . S
C356 H343 0.960 . S
C356 C355 1.524 . S
C357 C354 1.403 1_565 S
C357 C358 1.392 . S
C357 C361 1.495 . S
C358 C357 1.392 . S
C358 C359 1.385 . S
C358 C360 1.478 . S
C359 H353 0.930 . S
C359 C355 1.400 1_565 S
C359 C358 1.385 . S
C360 C358 1.478 . S
C360 C362 1.381 . S
C360 C366 1.383 . S
C361 C357 1.495 . S
C361 H367 0.959 . S
C361 H368 0.961 . S
C361 H369 0.960 . S
C362 C360 1.381 . S
C362 C363 1.394 . S
C362 H370 0.930 . S
C363 C362 1.394 . S
C363 C364 1.383 . S
C363 H371 0.929 . S
C364 C363 1.383 . S
C364 C365 1.377 . S
C365 H349 0.930 . S
C365 C364 1.377 . S
C365 C366 1.379 . S
C366 H350 0.931 . S
C366 C360 1.383 . S
C366 C365 1.379 . S
H367 C361 0.959 . S
H368 C361 0.961 . S
H369 C361 0.960 . S
H370 C362 0.930 . S
H371 C363 0.929 . S
H372 C380 0.929 . S
H373 C382 0.930 . S
H374 C384 0.930 . S
H375 C387 0.929 . S
H376 C390 0.930 . S
H377 C392 0.960 . S
H378 C392 0.960 . S
H379 C392 0.960 . S
C380 H372 0.929 . S
C380 C381 1.377 . S
C380 C382 1.384 . S
C381 C380 1.377 . S
C381 C387 1.390 . S
C382 H373 0.930 . S
C382 C380 1.384 . S
C382 C383 1.372 . S
C383 C382 1.372 . S
C383 C384 1.400 . S
C383 C388 1.490 . S
C384 H374 0.930 . S
C384 C383 1.400 . S
C384 C387 1.386 . S
H385 C401 0.930 . S
H386 C402 0.931 . S
C387 H375 0.929 . S
C387 C381 1.390 . S
C387 C384 1.386 . S
C388 C383 1.490 . S
C388 C390 1.395 . S
C388 C391 1.403 . S
H389 C395 0.930 . S
C390 H376 0.930 . S
C390 C388 1.395 . S
C390 C393 1.403 . S
C391 C388 1.403 . S
C391 C392 1.524 . S
C391 C395 1.400 . S
C392 H377 0.960 . S
C392 H378 0.960 . S
C392 H379 0.960 . S
C392 C391 1.524 . S
C393 C390 1.403 . S
C393 C394 1.392 . S
C393 C397 1.495 . S
C394 C393 1.392 . S
C394 C395 1.385 . S
C394 C396 1.478 . S
C395 H389 0.930 . S
C395 C391 1.400 . S
C395 C394 1.385 . S
C396 C394 1.478 . S
C396 C398 1.381 . S
C396 C402 1.383 . S
C397 C393 1.495 . S
C397 H403 0.959 . S
C397 H404 0.961 . S
C397 H405 0.960 . S
C398 C396 1.381 . S
C398 C399 1.394 . S
C398 H406 0.930 . S
C399 C398 1.394 . S
C399 C400 1.383 . S
C399 H407 0.929 . S
C400 C399 1.383 . S
C400 C401 1.377 . S
C401 H385 0.930 . S
C401 C400 1.377 . S
C401 C402 1.379 . S
C402 H386 0.931 . S
C402 C396 1.383 . S
C402 C401 1.379 . S
H403 C397 0.959 . S
H404 C397 0.961 . S
H405 C397 0.960 . S
H406 C398 0.930 . S
H407 C399 0.929 . S
H408 C416 0.929 . S
H409 C418 0.930 . S
H410 C420 0.930 . S
H411 C423 0.929 . S
H412 C426 0.930 . S
H413 C428 0.960 . S
H414 C428 0.960 . S
H415 C428 0.960 . S
C416 H408 0.929 . S
C416 C417 1.377 . S
C416 C418 1.384 . S
C417 C416 1.377 . S
C417 C423 1.390 . S
C418 H409 0.930 . S
C418 C416 1.384 . S
C418 C419 1.372 . S
C419 C418 1.372 . S
C419 C420 1.400 . S
C419 C424 1.490 . S
C420 H410 0.930 . S
C420 C419 1.400 . S
C420 C423 1.386 . S
H421 C437 0.930 . S
H422 C438 0.931 . S
C423 H411 0.929 . S
C423 C417 1.390 . S
C423 C420 1.386 . S
C424 C419 1.490 . S
C424 C426 1.395 . S
C424 C427 1.403 . S
H425 C431 0.930 . S
C426 H412 0.930 . S
C426 C424 1.395 . S
C426 C429 1.403 1_655 S
C427 C424 1.403 . S
C427 C428 1.524 . S
C427 C431 1.400 1_655 S
C428 H413 0.960 . S
C428 H414 0.960 . S
C428 H415 0.960 . S
C428 C427 1.524 . S
C429 C426 1.403 1_455 S
C429 C430 1.392 . S
C429 C433 1.495 . S
C430 C429 1.392 . S
C430 C431 1.385 . S
C430 C432 1.478 . S
C431 H425 0.930 . S
C431 C427 1.400 1_455 S
C431 C430 1.385 . S
C432 C430 1.478 . S
C432 C434 1.381 . S
C432 C438 1.383 . S
C433 C429 1.495 . S
C433 H439 0.959 . S
C433 H440 0.961 . S
C433 H441 0.960 . S
C434 C432 1.381 . S
C434 C435 1.394 . S
C434 H442 0.930 . S
C435 C434 1.394 . S
C435 C436 1.383 . S
C435 H443 0.929 . S
C436 C435 1.383 . S
C436 C437 1.377 . S
C437 H421 0.930 . S
C437 C436 1.377 . S
C437 C438 1.379 . S
C438 H422 0.931 . S
C438 C432 1.383 . S
C438 C437 1.379 . S
H439 C433 0.959 . S
H440 C433 0.961 . S
H441 C433 0.960 . S
H442 C434 0.930 . S
H443 C435 0.929 . S
H444 C452 0.929 . S
H445 C454 0.930 . S
H446 C456 0.930 . S
H447 C459 0.929 . S
H448 C462 0.930 . S
H449 C464 0.960 1_545 S
H450 C464 0.960 . S
H451 C464 0.960 . S
C452 H444 0.929 . S
C452 C453 1.377 . S
C452 C454 1.384 . S
C453 C452 1.377 . S
C453 C459 1.390 . S
C454 H445 0.930 . S
C454 C452 1.384 . S
C454 C455 1.372 . S
C455 C454 1.372 . S
C455 C456 1.400 . S
C455 C460 1.490 . S
C456 H446 0.930 . S
C456 C455 1.400 . S
C456 C459 1.386 . S
H457 C473 0.930 . S
H458 C474 0.931 . S
C459 H447 0.929 . S
C459 C453 1.390 . S
C459 C456 1.386 . S
C460 C455 1.490 . S
C460 C462 1.395 . S
C460 C463 1.403 . S
H461 C467 0.930 . S
C462 H448 0.930 . S
C462 C460 1.395 . S
C462 C465 1.403 1_565 S
C463 C460 1.403 . S
C463 C464 1.524 . S
C463 C467 1.400 1_565 S
C464 H449 0.960 1_565 S
C464 H450 0.960 . S
C464 H451 0.960 . S
C464 C463 1.524 . S
C465 C462 1.403 1_545 S
C465 C466 1.392 . S
C465 C469 1.495 . S
C466 C465 1.392 . S
C466 C467 1.385 . S
C466 C468 1.478 . S
C467 H461 0.930 . S
C467 C463 1.400 1_545 S
C467 C466 1.385 . S
C468 C466 1.478 . S
C468 C470 1.381 . S
C468 C474 1.383 . S
C469 C465 1.495 . S
C469 H475 0.959 1_545 S
C469 H476 0.961 . S
C469 H477 0.960 . S
C470 C468 1.381 . S
C470 C471 1.394 . S
C470 H478 0.930 . S
C471 C470 1.394 . S
C471 C472 1.383 . S
C471 H479 0.929 . S
C472 C471 1.383 . S
C472 C473 1.377 . S
C473 H457 0.930 . S
C473 C472 1.377 . S
C473 C474 1.379 . S
C474 H458 0.931 . S
C474 C468 1.383 . S
C474 C473 1.379 . S
H475 C469 0.959 1_565 S
H476 C469 0.961 . S
H477 C469 0.960 . S
H478 C470 0.930 . S
H479 C471 0.929 . S
H480 C488 0.929 . S
H481 C490 0.930 . S
H482 C492 0.930 . S
H483 C495 0.929 . S
H484 C498 0.930 . S
H485 C500 0.960 . S
H486 C500 0.960 . S
H487 C500 0.960 . S
C488 H480 0.929 . S
C488 C489 1.377 . S
C488 C490 1.384 . S
C489 C488 1.377 . S
C489 C495 1.390 . S
C490 H481 0.930 . S
C490 C488 1.384 . S
C490 C491 1.372 . S
C491 C490 1.372 . S
C491 C492 1.400 . S
C491 C496 1.490 . S
C492 H482 0.930 . S
C492 C491 1.400 . S
C492 C495 1.386 . S
H493 C509 0.930 . S
H494 C510 0.931 . S
C495 H483 0.929 . S
C495 C489 1.390 . S
C495 C492 1.386 . S
C496 C491 1.490 . S
C496 C498 1.395 . S
C496 C499 1.403 . S
H497 C503 0.930 . S
C498 H484 0.930 . S
C498 C496 1.395 . S
C498 C501 1.403 . S
C499 C496 1.403 . S
C499 C500 1.524 . S
C499 C503 1.400 . S
C500 H485 0.960 . S
C500 H486 0.960 . S
C500 H487 0.960 . S
C500 C499 1.524 . S
C501 C498 1.403 . S
C501 C502 1.392 . S
C501 C505 1.495 . S
C502 C501 1.392 . S
C502 C503 1.385 . S
C502 C504 1.478 . S
C503 H497 0.930 . S
C503 C499 1.400 . S
C503 C502 1.385 . S
C504 C502 1.478 . S
C504 C506 1.381 . S
C504 C510 1.383 . S
C505 C501 1.495 . S
C505 H511 0.959 . S
C505 H512 0.961 . S
C505 H513 0.960 . S
C506 C504 1.381 . S
C506 C507 1.394 . S
C506 H514 0.930 . S
C507 C506 1.394 . S
C507 C508 1.383 . S
C507 H515 0.929 . S
C508 C507 1.383 . S
C508 C509 1.377 . S
C509 H493 0.930 . S
C509 C508 1.377 . S
C509 C510 1.379 . S
C510 H494 0.931 . S
C510 C504 1.383 . S
C510 C509 1.379 . S
H511 C505 0.959 . S
H512 C505 0.961 . S
H513 C505 0.960 . S
H514 C506 0.930 . S
H515 C507 0.929 . S
H516 C524 0.929 . S
H517 C526 0.930 . S
H518 C528 0.930 . S
H519 C531 0.929 . S
H520 C534 0.930 . S
H521 C536 0.960 . S
H522 C536 0.960 . S
H523 C536 0.960 . S
C524 H516 0.929 . S
C524 C525 1.377 . S
C524 C526 1.384 . S
C525 C524 1.377 . S
C525 C531 1.390 . S
C526 H517 0.930 . S
C526 C524 1.384 . S
C526 C527 1.372 . S
C527 C526 1.372 . S
C527 C528 1.400 . S
C527 C532 1.490 . S
C528 H518 0.930 . S
C528 C527 1.400 . S
C528 C531 1.386 . S
H529 C545 0.930 . S
H530 C546 0.931 . S
C531 H519 0.929 . S
C531 C525 1.390 . S
C531 C528 1.386 . S
C532 C527 1.490 . S
C532 C534 1.395 . S
C532 C535 1.403 . S
H533 C539 0.930 . S
C534 H520 0.930 . S
C534 C532 1.395 . S
C534 C537 1.403 1_455 S
C535 C532 1.403 . S
C535 C536 1.524 . S
C535 C539 1.400 1_455 S
C536 H521 0.960 . S
C536 H522 0.960 . S
C536 H523 0.960 . S
C536 C535 1.524 . S
C537 C534 1.403 1_655 S
C537 C538 1.392 . S
C537 C541 1.495 . S
C538 C537 1.392 . S
C538 C539 1.385 . S
C538 C540 1.478 . S
C539 H533 0.930 . S
C539 C535 1.400 1_655 S
C539 C538 1.385 . S
C540 C538 1.478 . S
C540 C542 1.381 . S
C540 C546 1.383 . S
C541 C537 1.495 . S
C541 H547 0.959 . S
C541 H548 0.961 . S
C541 H549 0.960 . S
C542 C540 1.381 . S
C542 C543 1.394 . S
C542 H550 0.930 . S
C543 C542 1.394 . S
C543 C544 1.383 . S
C543 H551 0.929 . S
C544 C543 1.383 . S
C544 C545 1.377 . S
C545 H529 0.930 . S
C545 C544 1.377 . S
C545 C546 1.379 . S
C546 H530 0.931 . S
C546 C540 1.383 . S
C546 C545 1.379 . S
H547 C541 0.959 . S
H548 C541 0.961 . S
H549 C541 0.960 . S
H550 C542 0.930 . S
H551 C543 0.929 . S
H552 C560 0.929 . S
H553 C562 0.930 . S
H554 C564 0.930 . S
H555 C567 0.929 . S
H556 C570 0.930 . S
H557 C572 0.962 1_545 S
H558 C572 0.960 . S
H559 C572 0.960 . S
C560 H552 0.929 . S
C560 C561 1.377 . S
C560 C562 1.384 . S
C561 C560 1.377 . S
C561 C567 1.390 . S
C562 H553 0.930 . S
C562 C560 1.384 . S
C562 C563 1.372 . S
C563 C562 1.372 . S
C563 C564 1.400 . S
C563 C568 1.490 . S
C564 H554 0.930 . S
C564 C563 1.400 . S
C564 C567 1.386 . S
H565 C581 0.930 . S
H566 C582 0.931 . S
C567 H555 0.929 . S
C567 C561 1.390 . S
C567 C564 1.386 . S
C568 C563 1.490 . S
C568 C570 1.395 . S
C568 C571 1.403 . S
H569 C575 0.930 . S
C570 H556 0.930 . S
C570 C568 1.395 . S
C570 C573 1.403 1_565 S
C571 C568 1.403 . S
C571 C572 1.524 . S
C571 C575 1.400 1_565 S
C572 H557 0.962 1_565 S
C572 H558 0.960 . S
C572 H559 0.960 . S
C572 C571 1.524 . S
C573 C570 1.403 1_545 S
C573 C574 1.392 . S
C573 C577 1.495 . S
C574 C573 1.392 . S
C574 C575 1.385 . S
C574 C576 1.478 . S
C575 H569 0.930 . S
C575 C571 1.400 1_545 S
C575 C574 1.385 . S
C576 C574 1.478 . S
C576 C578 1.381 . S
C576 C582 1.383 . S
C577 C573 1.495 . S
C577 H583 1.026 . S
C577 H584 0.961 . S
C577 H585 0.960 . S
C578 C576 1.381 . S
C578 C579 1.394 . S
C578 H586 0.930 . S
C579 C578 1.394 . S
C579 C580 1.383 . S
C579 H587 0.929 . S
C580 C579 1.383 . S
C580 C581 1.377 . S
C581 H565 0.930 . S
C581 C580 1.377 . S
C581 C582 1.379 . S
C582 H566 0.931 . S
C582 C576 1.383 . S
C582 C581 1.379 . S
H583 C577 1.026 . S
H584 C577 0.961 . S
H585 C577 0.960 . S
H586 C578 0.930 . S
H587 C579 0.929 . S
H588 C596 0.929 . S
H589 C598 0.930 . S
H590 C600 0.930 . S
H591 C603 0.929 . S
H592 C606 0.930 . S
H593 C608 0.960 . S
H594 C608 0.960 . S
H595 C608 0.960 . S
C596 H588 0.929 . S
C596 C597 1.377 . S
C596 C598 1.384 . S
C597 C596 1.377 . S
C597 C603 1.390 . S
C598 H589 0.930 . S
C598 C596 1.384 . S
C598 C599 1.372 . S
C599 C598 1.372 . S
C599 C600 1.400 . S
C599 C604 1.490 . S
C600 H590 0.930 . S
C600 C599 1.400 . S
C600 C603 1.386 . S
H601 C617 0.930 . S
H602 C618 0.931 . S
C603 H591 0.929 . S
C603 C597 1.390 . S
C603 C600 1.386 . S
C604 C599 1.490 . S
C604 C606 1.395 . S
C604 C607 1.403 . S
H605 C611 0.930 . S
C606 H592 0.930 . S
C606 C604 1.395 . S
C606 C609 1.403 . S
C607 C604 1.403 . S
C607 C608 1.524 . S
C607 C611 1.400 . S
C608 H593 0.960 . S
C608 H594 0.960 . S
C608 H595 0.960 . S
C608 C607 1.524 . S
C609 C606 1.403 . S
C609 C610 1.392 . S
C609 C613 1.495 . S
C610 C609 1.392 . S
C610 C611 1.385 . S
C610 C612 1.478 . S
C611 H605 0.930 . S
C611 C607 1.400 . S
C611 C610 1.385 . S
C612 C610 1.478 . S
C612 C614 1.381 . S
C612 C618 1.383 . S
C613 C609 1.495 . S
C613 H619 0.959 . S
C613 H620 0.961 . S
C613 H621 0.960 . S
C614 C612 1.381 . S
C614 C615 1.394 . S
C614 H622 0.930 . S
C615 C614 1.394 . S
C615 C616 1.383 . S
C615 H623 0.929 . S
C616 C615 1.383 . S
C616 C617 1.377 . S
C617 H601 0.930 . S
C617 C616 1.377 . S
C617 C618 1.379 . S
C618 H602 0.931 . S
C618 C612 1.383 . S
C618 C617 1.379 . S
H619 C613 0.959 . S
H620 C613 0.961 . S
H621 C613 0.960 . S
H622 C614 0.930 . S
H623 C615 0.929 . S
H624 C632 0.929 . S
H625 C634 0.930 . S
H626 C636 0.930 . S
H627 C639 0.929 . S
H628 C642 0.930 . S
H629 C644 0.960 1_455 S
H630 C644 0.960 . S
H631 C644 0.960 . S
C632 H624 0.929 . S
C632 C633 1.377 . S
C632 C634 1.384 . S
C633 C632 1.377 . S
C633 C639 1.390 . S
C634 H625 0.930 . S
C634 C632 1.384 . S
C634 C635 1.372 . S
C635 C634 1.372 . S
C635 C636 1.400 . S
C635 C640 1.490 . S
C636 H626 0.930 . S
C636 C635 1.400 . S
C636 C639 1.386 . S
H637 C653 0.930 . S
H638 C654 0.931 . S
C639 H627 0.929 . S
C639 C633 1.390 . S
C639 C636 1.386 . S
C640 C635 1.490 . S
C640 C642 1.395 . S
C640 C643 1.403 . S
H641 C647 0.930 . S
C642 H628 0.930 . S
C642 C640 1.395 . S
C642 C645 1.403 1_655 S
C643 C640 1.403 . S
C643 C644 1.524 . S
C643 C647 1.400 1_655 S
C644 H629 0.960 1_655 S
C644 H630 0.960 . S
C644 H631 0.960 . S
C644 C643 1.524 . S
C645 C642 1.403 1_455 S
C645 C646 1.392 . S
C645 C649 1.495 . S
C646 C645 1.392 . S
C646 C647 1.385 . S
C646 C648 1.478 . S
C647 H641 0.930 . S
C647 C643 1.400 1_455 S
C647 C646 1.385 . S
C648 C646 1.478 . S
C648 C650 1.381 . S
C648 C654 1.383 . S
C649 C645 1.495 . S
C649 H655 0.959 1_455 S
C649 H656 0.961 . S
C649 H657 0.960 . S
C650 C648 1.381 . S
C650 C651 1.394 . S
C650 H658 0.930 . S
C651 C650 1.394 . S
C651 C652 1.383 . S
C651 H659 0.929 . S
C652 C651 1.383 . S
C652 C653 1.377 . S
C653 H637 0.930 . S
C653 C652 1.377 . S
C653 C654 1.379 . S
C654 H638 0.931 . S
C654 C648 1.383 . S
C654 C653 1.379 . S
H655 C649 0.959 1_655 S
H656 C649 0.961 . S
H657 C649 0.960 . S
H658 C650 0.930 . S
H659 C651 0.929 . S
H660 C668 0.929 . S
H661 C670 0.930 . S
H662 C672 0.930 . S
H663 C675 0.929 . S
H664 C678 0.930 . S
H665 C680 0.960 1_565 S
H666 C680 0.960 . S
H667 C680 0.960 . S
C668 H660 0.929 . S
C668 C669 1.377 . S
C668 C670 1.384 . S
C669 C668 1.377 . S
C669 C675 1.390 . S
C670 H661 0.930 . S
C670 C668 1.384 . S
C670 C671 1.372 . S
C671 C670 1.372 . S
C671 C672 1.400 . S
C671 C676 1.490 . S
C672 H662 0.930 . S
C672 C671 1.400 . S
C672 C675 1.386 . S
H673 C689 0.930 . S
H674 C690 0.931 . S
C675 H663 0.929 . S
C675 C669 1.390 . S
C675 C672 1.386 . S
C676 C671 1.490 . S
C676 C678 1.395 . S
C676 C679 1.403 . S
H677 C683 0.930 . S
C678 H664 0.930 . S
C678 C676 1.395 . S
C678 C681 1.403 1_545 S
C679 C676 1.403 . S
C679 C680 1.524 . S
C679 C683 1.400 1_545 S
C680 H665 0.960 1_545 S
C680 H666 0.960 . S
C680 H667 0.960 . S
C680 C679 1.524 . S
C681 C678 1.403 1_565 S
C681 C682 1.392 . S
C681 C685 1.495 . S
C682 C681 1.392 . S
C682 C683 1.385 . S
C682 C684 1.478 . S
C683 H677 0.930 . S
C683 C679 1.400 1_565 S
C683 C682 1.385 . S
C684 C682 1.478 . S
C684 C686 1.381 . S
C684 C690 1.383 . S
C685 C681 1.495 . S
C685 H691 0.959 1_565 S
C685 H692 0.961 . S
C685 H693 0.960 . S
C686 C684 1.381 . S
C686 C687 1.394 . S
C686 H694 0.930 . S
C687 C686 1.394 . S
C687 C688 1.383 . S
C687 H695 0.929 . S
C688 C687 1.383 . S
C688 C689 1.377 . S
C689 H673 0.930 . S
C689 C688 1.377 . S
C689 C690 1.379 . S
C690 H674 0.931 . S
C690 C684 1.383 . S
C690 C689 1.379 . S
H691 C685 0.959 1_545 S
H692 C685 0.961 . S
H693 C685 0.960 . S
H694 C686 0.930 . S
H695 C687 0.929 . S
H696 C704 0.929 . S
H697 C706 0.930 . S
H698 C708 0.930 . S
H699 C711 0.929 . S
H700 C714 0.930 . S
H701 C716 0.960 . S
H702 C716 0.960 . S
H703 C716 0.960 . S
C704 H696 0.929 . S
C704 C705 1.377 . S
C704 C706 1.384 . S
C705 C704 1.377 . S
C705 C711 1.390 . S
C706 H697 0.930 . S
C706 C704 1.384 . S
C706 C707 1.372 . S
C707 C706 1.372 . S
C707 C708 1.400 . S
C707 C712 1.490 . S
C708 H698 0.930 . S
C708 C707 1.400 . S
C708 C711 1.386 . S
H709 C725 0.930 . S
H710 C726 0.931 . S
C711 H699 0.929 . S
C711 C705 1.390 . S
C711 C708 1.386 . S
C712 C707 1.490 . S
C712 C714 1.395 . S
C712 C715 1.403 . S
H713 C719 0.930 . S
C714 H700 0.930 . S
C714 C712 1.395 . S
C714 C717 1.403 . S
C715 C712 1.403 . S
C715 C716 1.524 . S
C715 C719 1.400 . S
C716 H701 0.960 . S
C716 H702 0.960 . S
C716 H703 0.960 . S
C716 C715 1.524 . S
C717 C714 1.403 . S
C717 C718 1.392 . S
C717 C721 1.495 . S
C718 C717 1.392 . S
C718 C719 1.385 . S
C718 C720 1.478 . S
C719 H713 0.930 . S
C719 C715 1.400 . S
C719 C718 1.385 . S
C720 C718 1.478 . S
C720 C722 1.381 . S
C720 C726 1.383 . S
C721 C717 1.495 . S
C721 H727 0.959 . S
C721 H728 0.961 . S
C721 H729 0.960 . S
C722 C720 1.381 . S
C722 C723 1.394 . S
C722 H730 0.930 . S
C723 C722 1.394 . S
C723 C724 1.383 . S
C723 H731 0.929 . S
C724 C723 1.383 . S
C724 C725 1.377 . S
C725 H709 0.930 . S
C725 C724 1.377 . S
C725 C726 1.379 . S
C726 H710 0.931 . S
C726 C720 1.383 . S
C726 C725 1.379 . S
H727 C721 0.959 . S
H728 C721 0.961 . S
H729 C721 0.960 . S
H730 C722 0.930 . S
H731 C723 0.929 . S
H732 C740 0.929 . S
H733 C742 0.930 . S
H734 C744 0.930 . S
H735 C747 0.929 . S
H736 C750 0.930 . S
H737 C752 0.902 1_655 S
H738 C752 0.960 . S
H739 C752 0.960 . S
C740 H732 0.929 . S
C740 C741 1.377 . S
C740 C742 1.384 . S
C741 C740 1.377 . S
C741 C747 1.390 . S
C742 H733 0.930 . S
C742 C740 1.384 . S
C742 C743 1.372 . S
C743 C742 1.372 . S
C743 C744 1.400 . S
C743 C748 1.490 . S
C744 H734 0.930 . S
C744 C743 1.400 . S
C744 C747 1.386 . S
H745 C761 0.930 . S
H746 C762 0.931 . S
C747 H735 0.929 . S
C747 C741 1.390 . S
C747 C744 1.386 . S
C748 C743 1.490 . S
C748 C750 1.395 . S
C748 C751 1.403 . S
H749 C755 0.930 . S
C750 H736 0.930 . S
C750 C748 1.395 . S
C750 C753 1.403 1_455 S
C751 C748 1.403 . S
C751 C752 1.524 . S
C751 C755 1.400 1_455 S
C752 H737 0.902 1_455 S
C752 H738 0.960 . S
C752 H739 0.960 . S
C752 C751 1.524 . S
C753 C750 1.403 1_655 S
C753 C754 1.392 . S
C753 C757 1.495 . S
C754 C753 1.392 . S
C754 C755 1.385 . S
C754 C756 1.478 . S
C755 H749 0.930 . S
C755 C751 1.400 1_655 S
C755 C754 1.385 . S
C756 C754 1.478 . S
C756 C758 1.381 . S
C756 C762 1.383 . S
C757 C753 1.495 . S
C757 H763 0.958 . S
C757 H764 0.961 . S
C757 H765 0.960 . S
C758 C756 1.381 . S
C758 C759 1.394 . S
C758 H766 0.930 . S
C759 C758 1.394 . S
C759 C760 1.383 . S
C759 H767 0.929 . S
C760 C759 1.383 . S
C760 C761 1.377 . S
C761 H745 0.930 . S
C761 C760 1.377 . S
C761 C762 1.379 . S
C762 H746 0.931 . S
C762 C756 1.383 . S
C762 C761 1.379 . S
H763 C757 0.958 . S
H764 C757 0.961 . S
H765 C757 0.960 . S
H766 C758 0.930 . S
H767 C759 0.929 . S
H768 C776 0.929 . S
H769 C778 0.930 . S
H770 C780 0.930 . S
H771 C783 0.929 . S
H772 C786 0.930 . S
H773 C788 0.960 . S
H774 C788 0.960 . S
H775 C788 0.960 . S
C776 H768 0.929 . S
C776 C777 1.377 . S
C776 C778 1.384 . S
C777 C776 1.377 . S
C777 C783 1.390 . S
C778 H769 0.930 . S
C778 C776 1.384 . S
C778 C779 1.372 . S
C779 C778 1.372 . S
C779 C780 1.400 . S
C779 C784 1.490 . S
C780 H770 0.930 . S
C780 C779 1.400 . S
C780 C783 1.386 . S
H781 C797 0.930 . S
H782 C798 0.931 . S
C783 H771 0.929 . S
C783 C777 1.390 . S
C783 C780 1.386 . S
C784 C779 1.490 . S
C784 C786 1.395 . S
C784 C787 1.403 . S
H785 C791 0.930 . S
C786 H772 0.930 . S
C786 C784 1.395 . S
C786 C789 1.403 . S
C787 C784 1.403 . S
C787 C788 1.524 . S
C787 C791 1.400 . S
C788 H773 0.960 . S
C788 H774 0.960 . S
C788 H775 0.960 . S
C788 C787 1.524 . S
C789 C786 1.403 . S
C789 C790 1.392 . S
C789 C793 1.495 . S
C790 C789 1.392 . S
C790 C791 1.385 . S
C790 C792 1.478 . S
C791 H785 0.930 . S
C791 C787 1.400 . S
C791 C790 1.385 . S
C792 C790 1.478 . S
C792 C794 1.381 . S
C792 C798 1.383 . S
C793 C789 1.495 . S
C793 H799 0.959 . S
C793 H800 0.961 . S
C793 H801 0.960 . S
C794 C792 1.381 . S
C794 C795 1.394 . S
C794 H802 0.930 . S
C795 C794 1.394 . S
C795 C796 1.383 . S
C795 H803 0.929 . S
C796 C795 1.383 . S
C796 C797 1.377 . S
C797 H781 0.930 . S
C797 C796 1.377 . S
C797 C798 1.379 . S
C798 H782 0.931 . S
C798 C792 1.383 . S
C798 C797 1.379 . S
H799 C793 0.959 . S
H800 C793 0.961 . S
H801 C793 0.960 . S
H802 C794 0.930 . S
H803 C795 0.929 . S
H804 C812 0.929 . S
H805 C814 0.930 . S
H806 C816 0.930 . S
H807 C819 0.929 . S
H808 C822 0.930 . S
H809 C824 0.960 . S
H810 C824 0.960 . S
H811 C824 0.960 . S
C812 H804 0.929 . S
C812 C813 1.377 . S
C812 C814 1.384 . S
C813 C812 1.377 . S
C813 C819 1.390 . S
C814 H805 0.930 . S
C814 C812 1.384 . S
C814 C815 1.372 . S
C815 C814 1.372 . S
C815 C816 1.400 . S
C815 C820 1.490 . S
C816 H806 0.930 . S
C816 C815 1.400 . S
C816 C819 1.386 . S
H817 C833 0.930 . S
H818 C834 0.931 . S
C819 H807 0.929 . S
C819 C813 1.390 . S
C819 C816 1.386 . S
C820 C815 1.490 . S
C820 C822 1.395 . S
C820 C823 1.403 . S
H821 C827 0.930 . S
C822 H808 0.930 . S
C822 C820 1.395 . S
C822 C825 1.403 . S
C823 C820 1.403 . S
C823 C824 1.524 . S
C823 C827 1.400 . S
C824 H809 0.960 . S
C824 H810 0.960 . S
C824 H811 0.960 . S
C824 C823 1.524 . S
C825 C822 1.403 . S
C825 C826 1.392 . S
C825 C829 1.495 . S
C826 C825 1.392 . S
C826 C827 1.385 . S
C826 C828 1.478 . S
C827 H821 0.930 . S
C827 C823 1.400 . S
C827 C826 1.385 . S
C828 C826 1.478 . S
C828 C830 1.381 . S
C828 C834 1.383 . S
C829 C825 1.495 . S
C829 H835 0.959 . S
C829 H836 0.961 . S
C829 H837 0.960 . S
C830 C828 1.381 . S
C830 C831 1.394 . S
C830 H838 0.930 . S
C831 C830 1.394 . S
C831 C832 1.383 . S
C831 H839 0.929 . S
C832 C831 1.383 . S
C832 C833 1.377 . S
C833 H817 0.930 . S
C833 C832 1.377 . S
C833 C834 1.379 . S
C834 H818 0.931 . S
C834 C828 1.383 . S
C834 C833 1.379 . S
H835 C829 0.959 . S
H836 C829 0.961 . S
H837 C829 0.960 . S
H838 C830 0.930 . S
H839 C831 0.929 . S
H840 C848 0.929 . S
H841 C850 0.930 . S
H842 C852 0.930 . S
H843 C855 0.929 . S
H844 C858 0.930 . S
H845 C860 0.960 . S
H846 C860 0.960 . S
H847 C860 0.960 . S
C848 H840 0.929 . S
C848 C849 1.377 . S
C848 C850 1.384 . S
C849 C848 1.377 . S
C849 C855 1.390 . S
C850 H841 0.930 . S
C850 C848 1.384 . S
C850 C851 1.372 . S
C851 C850 1.372 . S
C851 C852 1.400 . S
C851 C856 1.490 . S
C852 H842 0.930 . S
C852 C851 1.400 . S
C852 C855 1.386 . S
H853 C869 0.930 . S
H854 C870 0.931 . S
C855 H843 0.929 . S
C855 C849 1.390 . S
C855 C852 1.386 . S
C856 C851 1.490 . S
C856 C858 1.395 . S
C856 C859 1.403 . S
H857 C863 0.930 . S
C858 H844 0.930 . S
C858 C856 1.395 . S
C858 C861 1.403 . S
C859 C856 1.403 . S
C859 C860 1.524 . S
C859 C863 1.400 . S
C860 H845 0.960 . S
C860 H846 0.960 . S
C860 H847 0.960 . S
C860 C859 1.524 . S
C861 C858 1.403 . S
C861 C862 1.392 . S
C861 C865 1.495 . S
C862 C861 1.392 . S
C862 C863 1.385 . S
C862 C864 1.478 . S
C863 H857 0.930 . S
C863 C859 1.400 . S
C863 C862 1.385 . S
C864 C862 1.478 . S
C864 C866 1.381 . S
C864 C870 1.383 . S
C865 C861 1.495 . S
C865 H871 0.959 . S
C865 H872 0.961 . S
C865 H873 0.960 . S
C866 C864 1.381 . S
C866 C867 1.394 . S
C866 H874 0.930 . S
C867 C866 1.394 . S
C867 C868 1.383 . S
C867 H875 0.929 . S
C868 C867 1.383 . S
C868 C869 1.377 . S
C869 H853 0.930 . S
C869 C868 1.377 . S
C869 C870 1.379 . S
C870 H854 0.931 . S
C870 C864 1.383 . S
C870 C869 1.379 . S
H871 C865 0.959 . S
H872 C865 0.961 . S
H873 C865 0.960 . S
H874 C866 0.930 . S
H875 C867 0.929 . S
H876 C884 0.929 . S
H877 C886 0.930 . S
H878 C888 0.930 . S
H879 C891 0.929 . S
H880 C894 0.930 . S
H881 C896 0.960 . S
H882 C896 0.960 . S
H883 C896 0.960 . S
C884 H876 0.929 . S
C884 C885 1.377 . S
C884 C886 1.384 . S
C885 C884 1.377 . S
C885 C891 1.390 . S
C886 H877 0.930 . S
C886 C884 1.384 . S
C886 C887 1.372 . S
C887 C886 1.372 . S
C887 C888 1.400 . S
C887 C892 1.490 . S
C888 H878 0.930 . S
C888 C887 1.400 . S
C888 C891 1.386 . S
H889 C905 0.930 . S
H890 C906 0.931 . S
C891 H879 0.929 . S
C891 C885 1.390 . S
C891 C888 1.386 . S
C892 C887 1.490 . S
C892 C894 1.395 . S
C892 C895 1.403 . S
H893 C899 0.930 . S
C894 H880 0.930 . S
C894 C892 1.395 . S
C894 C897 1.403 . S
C895 C892 1.403 . S
C895 C896 1.524 . S
C895 C899 1.400 . S
C896 H881 0.960 . S
C896 H882 0.960 . S
C896 H883 0.960 . S
C896 C895 1.524 . S
C897 C894 1.403 . S
C897 C898 1.392 . S
C897 C901 1.495 . S
C898 C897 1.392 . S
C898 C899 1.385 . S
C898 C900 1.478 . S
C899 H893 0.930 . S
C899 C895 1.400 . S
C899 C898 1.385 . S
C900 C898 1.478 . S
C900 C902 1.381 . S
C900 C906 1.383 . S
C901 C897 1.495 . S
C901 H907 0.959 . S
C901 H908 0.961 . S
C901 H909 0.960 . S
C902 C900 1.381 . S
C902 C903 1.394 . S
C902 H910 0.930 . S
C903 C902 1.394 . S
C903 C904 1.383 . S
C903 H911 0.929 . S
C904 C903 1.383 . S
C904 C905 1.377 . S
C905 H889 0.930 . S
C905 C904 1.377 . S
C905 C906 1.379 . S
C906 H890 0.931 . S
C906 C900 1.383 . S
C906 C905 1.379 . S
H907 C901 0.959 . S
H908 C901 0.961 . S
H909 C901 0.960 . S
H910 C902 0.930 . S
H911 C903 0.929 . S
H912 C920 0.929 . S
H913 C922 0.930 . S
H914 C924 0.930 . S
H915 C927 0.929 . S
H916 C930 0.930 . S
H917 C932 0.960 . S
H918 C932 0.960 . S
H919 C932 0.960 . S
C920 H912 0.929 . S
C920 C921 1.377 . S
C920 C922 1.384 . S
C921 C920 1.377 . S
C921 C927 1.390 . S
C922 H913 0.930 . S
C922 C920 1.384 . S
C922 C923 1.372 . S
C923 C922 1.372 . S
C923 C924 1.400 . S
C923 C928 1.490 . S
C924 H914 0.930 . S
C924 C923 1.400 . S
C924 C927 1.386 . S
H925 C941 0.930 . S
H926 C942 0.931 . S
C927 H915 0.929 . S
C927 C921 1.390 . S
C927 C924 1.386 . S
C928 C923 1.490 . S
C928 C930 1.395 . S
C928 C931 1.403 . S
H929 C935 0.930 . S
C930 H916 0.930 . S
C930 C928 1.395 . S
C930 C933 1.403 . S
C931 C928 1.403 . S
C931 C932 1.524 . S
C931 C935 1.400 . S
C932 H917 0.960 . S
C932 H918 0.960 . S
C932 H919 0.960 . S
C932 C931 1.524 . S
C933 C930 1.403 . S
C933 C934 1.392 . S
C933 C937 1.495 . S
C934 C933 1.392 . S
C934 C935 1.385 . S
C934 C936 1.478 . S
C935 H929 0.930 . S
C935 C931 1.400 . S
C935 C934 1.385 . S
C936 C934 1.478 . S
C936 C938 1.381 . S
C936 C942 1.383 . S
C937 C933 1.495 . S
C937 H943 0.959 . S
C937 H944 0.961 . S
C937 H945 0.960 . S
C938 C936 1.381 . S
C938 C939 1.394 . S
C938 H946 0.930 . S
C939 C938 1.394 . S
C939 C940 1.383 . S
C939 H947 0.929 . S
C940 C939 1.383 . S
C940 C941 1.377 . S
C941 H925 0.930 . S
C941 C940 1.377 . S
C941 C942 1.379 . S
C942 H926 0.931 . S
C942 C936 1.383 . S
C942 C941 1.379 . S
H943 C937 0.959 . S
H944 C937 0.961 . S
H945 C937 0.960 . S
H946 C938 0.930 . S
H947 C939 0.929 . S
H948 C956 0.929 . S
H949 C958 0.930 . S
H950 C960 0.930 . S
H951 C963 0.929 . S
H952 C966 0.930 . S
H953 C968 0.960 . S
H954 C968 0.960 . S
H955 C968 0.960 . S
C956 H948 0.929 . S
C956 C957 1.377 . S
C956 C958 1.384 . S
C957 C956 1.377 . S
C957 C963 1.390 . S
C958 H949 0.930 . S
C958 C956 1.384 . S
C958 C959 1.372 . S
C959 C958 1.372 . S
C959 C960 1.400 . S
C959 C964 1.490 . S
C960 H950 0.930 . S
C960 C959 1.400 . S
C960 C963 1.386 . S
H961 C977 0.930 . S
H962 C978 0.931 . S
C963 H951 0.929 . S
C963 C957 1.390 . S
C963 C960 1.386 . S
C964 C959 1.490 . S
C964 C966 1.395 . S
C964 C967 1.403 . S
H965 C971 0.930 . S
C966 H952 0.930 . S
C966 C964 1.395 . S
C966 C969 1.403 . S
C967 C964 1.403 . S
C967 C968 1.524 . S
C967 C971 1.400 . S
C968 H953 0.960 . S
C968 H954 0.960 . S
C968 H955 0.960 . S
C968 C967 1.524 . S
C969 C966 1.403 . S
C969 C970 1.392 . S
C969 C973 1.495 . S
C970 C969 1.392 . S
C970 C971 1.385 . S
C970 C972 1.478 . S
C971 H965 0.930 . S
C971 C967 1.400 . S
C971 C970 1.385 . S
C972 C970 1.478 . S
C972 C974 1.381 . S
C972 C978 1.383 . S
C973 C969 1.495 . S
C973 H979 0.959 . S
C973 H980 0.961 . S
C973 H981 0.960 . S
C974 C972 1.381 . S
C974 C975 1.394 . S
C974 H982 0.930 . S
C975 C974 1.394 . S
C975 C976 1.383 . S
C975 H983 0.929 . S
C976 C975 1.383 . S
C976 C977 1.377 . S
C977 H961 0.930 . S
C977 C976 1.377 . S
C977 C978 1.379 . S
C978 H962 0.931 . S
C978 C972 1.383 . S
C978 C977 1.379 . S
H979 C973 0.959 . S
H980 C973 0.961 . S
H981 C973 0.960 . S
H982 C974 0.930 . S
H983 C975 0.929 . S
H984 C992 0.929 . S
H985 C994 0.930 . S
H986 C996 0.930 . S
H987 C999 0.929 . S
H988 C1002 0.930 . S
H989 C1004 0.960 . S
H990 C1004 0.960 . S
H991 C1004 0.960 . S
C992 H984 0.929 . S
C992 C993 1.377 . S
C992 C994 1.384 . S
C993 C992 1.377 . S
C993 C999 1.390 . S
C994 H985 0.930 . S
C994 C992 1.384 . S
C994 C995 1.372 . S
C995 C994 1.372 . S
C995 C996 1.400 . S
C995 C1000 1.490 . S
C996 H986 0.930 . S
C996 C995 1.400 . S
C996 C999 1.386 . S
H997 C1013 0.930 . S
H998 C1014 0.931 . S
C999 H987 0.929 . S
C999 C993 1.390 . S
C999 C996 1.386 . S
C1000 C995 1.490 . S
C1000 C1002 1.395 . S
C1000 C1003 1.403 . S
H1001 C1007 0.930 . S
C1002 H988 0.930 . S
C1002 C1000 1.395 . S
C1002 C1005 1.403 . S
C1003 C1000 1.403 . S
C1003 C1004 1.524 . S
C1003 C1007 1.400 . S
C1004 H989 0.960 . S
C1004 H990 0.960 . S
C1004 H991 0.960 . S
C1004 C1003 1.524 . S
C1005 C1002 1.403 . S
C1005 C1006 1.392 . S
C1005 C1009 1.495 . S
C1006 C1005 1.392 . S
C1006 C1007 1.385 . S
C1006 C1008 1.478 . S
C1007 H1001 0.930 . S
C1007 C1003 1.400 . S
C1007 C1006 1.385 . S
C1008 C1006 1.478 . S
C1008 C1010 1.381 . S
C1008 C1014 1.383 . S
C1009 C1005 1.495 . S
C1009 H1015 0.959 . S
C1009 H1016 0.961 . S
C1009 H1017 0.960 . S
C1010 C1008 1.381 . S
C1010 C1011 1.394 . S
C1010 H1018 0.930 . S
C1011 C1010 1.394 . S
C1011 C1012 1.383 . S
C1011 H1019 0.929 . S
C1012 C1011 1.383 . S
C1012 C1013 1.377 . S
C1013 H997 0.930 . S
C1013 C1012 1.377 . S
C1013 C1014 1.379 . S
C1014 H998 0.931 . S
C1014 C1008 1.383 . S
C1014 C1013 1.379 . S
H1015 C1009 0.959 . S
H1016 C1009 0.961 . S
H1017 C1009 0.960 . S
H1018 C1010 0.930 . S
H1019 C1011 0.929 . S
H1020 C1028 0.929 . S
H1021 C1030 0.930 . S
H1022 C1032 0.930 . S
H1023 C1035 0.929 . S
H1024 C1038 0.930 . S
H1025 C1040 0.960 . S
H1026 C1040 0.960 . S
H1027 C1040 0.960 . S
C1028 H1020 0.929 . S
C1028 C1029 1.377 . S
C1028 C1030 1.384 . S
C1029 C1028 1.377 . S
C1029 C1035 1.390 . S
C1030 H1021 0.930 . S
C1030 C1028 1.384 . S
C1030 C1031 1.372 . S
C1031 C1030 1.372 . S
C1031 C1032 1.400 . S
C1031 C1036 1.490 . S
C1032 H1022 0.930 . S
C1032 C1031 1.400 . S
C1032 C1035 1.386 . S
H1033 C1049 0.930 . S
H1034 C1050 0.931 . S
C1035 H1023 0.929 . S
C1035 C1029 1.390 . S
C1035 C1032 1.386 . S
C1036 C1031 1.490 . S
C1036 C1038 1.395 . S
C1036 C1039 1.403 . S
H1037 C1043 0.930 . S
C1038 H1024 0.930 . S
C1038 C1036 1.395 . S
C1038 C1041 1.403 . S
C1039 C1036 1.403 . S
C1039 C1040 1.524 . S
C1039 C1043 1.400 . S
C1040 H1025 0.960 . S
C1040 H1026 0.960 . S
C1040 H1027 0.960 . S
C1040 C1039 1.524 . S
C1041 C1038 1.403 . S
C1041 C1042 1.392 . S
C1041 C1045 1.495 . S
C1042 C1041 1.392 . S
C1042 C1043 1.385 . S
C1042 C1044 1.478 . S
C1043 H1037 0.930 . S
C1043 C1039 1.400 . S
C1043 C1042 1.385 . S
C1044 C1042 1.478 . S
C1044 C1046 1.381 . S
C1044 C1050 1.383 . S
C1045 C1041 1.495 . S
C1045 H1051 0.959 . S
C1045 H1052 0.961 . S
C1045 H1053 0.960 . S
C1046 C1044 1.381 . S
C1046 C1047 1.394 . S
C1046 H1054 0.930 . S
C1047 C1046 1.394 . S
C1047 C1048 1.383 . S
C1047 H1055 0.929 . S
C1048 C1047 1.383 . S
C1048 C1049 1.377 . S
C1049 H1033 0.930 . S
C1049 C1048 1.377 . S
C1049 C1050 1.379 . S
C1050 H1034 0.931 . S
C1050 C1044 1.383 . S
C1050 C1049 1.379 . S
H1051 C1045 0.959 . S
H1052 C1045 0.961 . S
H1053 C1045 0.960 . S
H1054 C1046 0.930 . S
H1055 C1047 0.929 . S
H1056 C1064 0.929 . S
H1057 C1066 0.930 . S
H1058 C1068 0.930 . S
H1059 C1071 0.929 . S
H1060 C1074 0.930 . S
H1061 C1076 0.960 . S
H1062 C1076 0.960 . S
H1063 C1076 0.960 . S
C1064 H1056 0.929 . S
C1064 C1065 1.377 . S
C1064 C1066 1.384 . S
C1065 C1064 1.377 . S
C1065 C1071 1.390 . S
C1066 H1057 0.930 . S
C1066 C1064 1.384 . S
C1066 C1067 1.372 . S
C1067 C1066 1.372 . S
C1067 C1068 1.400 . S
C1067 C1072 1.490 . S
C1068 H1058 0.930 . S
C1068 C1067 1.400 . S
C1068 C1071 1.386 . S
H1069 C1085 0.930 . S
H1070 C1086 0.931 . S
C1071 H1059 0.929 . S
C1071 C1065 1.390 . S
C1071 C1068 1.386 . S
C1072 C1067 1.490 . S
C1072 C1074 1.395 . S
C1072 C1075 1.403 . S
H1073 C1079 0.930 . S
C1074 H1060 0.930 . S
C1074 C1072 1.395 . S
C1074 C1077 1.403 . S
C1075 C1072 1.403 . S
C1075 C1076 1.524 . S
C1075 C1079 1.400 . S
C1076 H1061 0.960 . S
C1076 H1062 0.960 . S
C1076 H1063 0.960 . S
C1076 C1075 1.524 . S
C1077 C1074 1.403 . S
C1077 C1078 1.392 . S
C1077 C1081 1.495 . S
C1078 C1077 1.392 . S
C1078 C1079 1.385 . S
C1078 C1080 1.478 . S
C1079 H1073 0.930 . S
C1079 C1075 1.400 . S
C1079 C1078 1.385 . S
C1080 C1078 1.478 . S
C1080 C1082 1.381 . S
C1080 C1086 1.383 . S
C1081 C1077 1.495 . S
C1081 H1087 0.959 . S
C1081 H1088 0.961 . S
C1081 H1089 0.960 . S
C1082 C1080 1.381 . S
C1082 C1083 1.394 . S
C1082 H1090 0.930 . S
C1083 C1082 1.394 . S
C1083 C1084 1.383 . S
C1083 H1091 0.929 . S
C1084 C1083 1.383 . S
C1084 C1085 1.377 . S
C1085 H1069 0.930 . S
C1085 C1084 1.377 . S
C1085 C1086 1.379 . S
C1086 H1070 0.931 . S
C1086 C1080 1.383 . S
C1086 C1085 1.379 . S
H1087 C1081 0.959 . S
H1088 C1081 0.961 . S
H1089 C1081 0.960 . S
H1090 C1082 0.930 . S
H1091 C1083 0.929 . S
H1092 C1100 0.929 . S
H1093 C1102 0.930 . S
H1094 C1104 0.930 . S
H1095 C1107 0.929 . S
H1096 C1110 0.930 . S
H1097 C1112 0.960 . S
H1098 C1112 0.960 . S
H1099 C1112 0.960 . S
C1100 H1092 0.929 . S
C1100 C1101 1.377 . S
C1100 C1102 1.384 . S
C1101 C1100 1.377 . S
C1101 C1107 1.390 . S
C1102 H1093 0.930 . S
C1102 C1100 1.384 . S
C1102 C1103 1.372 . S
C1103 C1102 1.372 . S
C1103 C1104 1.400 . S
C1103 C1108 1.490 . S
C1104 H1094 0.930 . S
C1104 C1103 1.400 . S
C1104 C1107 1.386 . S
H1105 C1121 0.930 . S
H1106 C1122 0.931 . S
C1107 H1095 0.929 . S
C1107 C1101 1.390 . S
C1107 C1104 1.386 . S
C1108 C1103 1.490 . S
C1108 C1110 1.395 . S
C1108 C1111 1.403 . S
H1109 C1115 0.930 . S
C1110 H1096 0.930 . S
C1110 C1108 1.395 . S
C1110 C1113 1.403 . S
C1111 C1108 1.403 . S
C1111 C1112 1.524 . S
C1111 C1115 1.400 . S
C1112 H1097 0.960 . S
C1112 H1098 0.960 . S
C1112 H1099 0.960 . S
C1112 C1111 1.524 . S
C1113 C1110 1.403 . S
C1113 C1114 1.392 . S
C1113 C1117 1.495 . S
C1114 C1113 1.392 . S
C1114 C1115 1.385 . S
C1114 C1116 1.478 . S
C1115 H1109 0.930 . S
C1115 C1111 1.400 . S
C1115 C1114 1.385 . S
C1116 C1114 1.478 . S
C1116 C1118 1.381 . S
C1116 C1122 1.383 . S
C1117 C1113 1.495 . S
C1117 H1123 0.959 . S
C1117 H1124 0.961 . S
C1117 H1125 0.960 . S
C1118 C1116 1.381 . S
C1118 C1119 1.394 . S
C1118 H1126 0.930 . S
C1119 C1118 1.394 . S
C1119 C1120 1.383 . S
C1119 H1127 0.929 . S
C1120 C1119 1.383 . S
C1120 C1121 1.377 . S
C1121 H1105 0.930 . S
C1121 C1120 1.377 . S
C1121 C1122 1.379 . S
C1122 H1106 0.931 . S
C1122 C1116 1.383 . S
C1122 C1121 1.379 . S
H1123 C1117 0.959 . S
H1124 C1117 0.961 . S
H1125 C1117 0.960 . S
H1126 C1118 0.930 . S
H1127 C1119 0.929 . S
H1128 C1136 0.929 . S
H1129 C1138 0.930 . S
H1130 C1140 0.930 . S
H1131 C1143 0.929 . S
H1132 C1146 0.930 . S
H1133 C1148 0.960 . S
H1134 C1148 0.960 . S
H1135 C1148 0.960 . S
C1136 H1128 0.929 . S
C1136 C1137 1.377 . S
C1136 C1138 1.384 . S
C1137 C1136 1.377 . S
C1137 C1143 1.390 . S
C1138 H1129 0.930 . S
C1138 C1136 1.384 . S
C1138 C1139 1.372 . S
C1139 C1138 1.372 . S
C1139 C1140 1.400 . S
C1139 C1144 1.490 . S
C1140 H1130 0.930 . S
C1140 C1139 1.400 . S
C1140 C1143 1.386 . S
H1141 C1157 0.930 . S
H1142 C1158 0.931 . S
C1143 H1131 0.929 . S
C1143 C1137 1.390 . S
C1143 C1140 1.386 . S
C1144 C1139 1.490 . S
C1144 C1146 1.395 . S
C1144 C1147 1.403 . S
H1145 C1151 0.930 . S
C1146 H1132 0.930 . S
C1146 C1144 1.395 . S
C1146 C1149 1.403 . S
C1147 C1144 1.403 . S
C1147 C1148 1.524 . S
C1147 C1151 1.400 . S
C1148 H1133 0.960 . S
C1148 H1134 0.960 . S
C1148 H1135 0.960 . S
C1148 C1147 1.524 . S
C1149 C1146 1.403 . S
C1149 C1150 1.392 . S
C1149 C1153 1.495 . S
C1150 C1149 1.392 . S
C1150 C1151 1.385 . S
C1150 C1152 1.478 . S
C1151 H1145 0.930 . S
C1151 C1147 1.400 . S
C1151 C1150 1.385 . S
C1152 C1150 1.478 . S
C1152 C1154 1.381 . S
C1152 C1158 1.383 . S
C1153 C1149 1.495 . S
C1153 H1159 0.959 . S
C1153 H1160 0.961 . S
C1153 H1161 0.960 . S
C1154 C1152 1.381 . S
C1154 C1155 1.394 . S
C1154 H1162 0.930 . S
C1155 C1154 1.394 . S
C1155 C1156 1.383 . S
C1155 H1163 0.929 . S
C1156 C1155 1.383 . S
C1156 C1157 1.377 . S
C1157 H1141 0.930 . S
C1157 C1156 1.377 . S
C1157 C1158 1.379 . S
C1158 H1142 0.931 . S
C1158 C1152 1.383 . S
C1158 C1157 1.379 . S
H1159 C1153 0.959 . S
H1160 C1153 0.961 . S
H1161 C1153 0.960 . S
H1162 C1154 0.930 . S
H1163 C1155 0.929 . S
H1164 C1172 0.929 . S
H1165 C1174 0.930 . S
H1166 C1176 0.930 . S
H1167 C1179 0.929 . S
H1168 C1182 0.930 . S
H1169 C1184 0.960 . S
H1170 C1184 0.960 . S
H1171 C1184 0.960 . S
C1172 H1164 0.929 . S
C1172 C1173 1.377 . S
C1172 C1174 1.384 . S
C1173 C1172 1.377 . S
C1173 C1179 1.390 . S
C1174 H1165 0.930 . S
C1174 C1172 1.384 . S
C1174 C1175 1.372 . S
C1175 C1174 1.372 . S
C1175 C1176 1.400 . S
C1175 C1180 1.490 . S
C1176 H1166 0.930 . S
C1176 C1175 1.400 . S
C1176 C1179 1.386 . S
H1177 C1193 0.930 . S
H1178 C1194 0.931 . S
C1179 H1167 0.929 . S
C1179 C1173 1.390 . S
C1179 C1176 1.386 . S
C1180 C1175 1.490 . S
C1180 C1182 1.395 . S
C1180 C1183 1.403 . S
H1181 C1187 0.930 . S
C1182 H1168 0.930 . S
C1182 C1180 1.395 . S
C1182 C1185 1.403 . S
C1183 C1180 1.403 . S
C1183 C1184 1.524 . S
C1183 C1187 1.400 . S
C1184 H1169 0.960 . S
C1184 H1170 0.960 . S
C1184 H1171 0.960 . S
C1184 C1183 1.524 . S
C1185 C1182 1.403 . S
C1185 C1186 1.392 . S
C1185 C1189 1.495 . S
C1186 C1185 1.392 . S
C1186 C1187 1.385 . S
C1186 C1188 1.478 . S
C1187 H1181 0.930 . S
C1187 C1183 1.400 . S
C1187 C1186 1.385 . S
C1188 C1186 1.478 . S
C1188 C1190 1.381 . S
C1188 C1194 1.383 . S
C1189 C1185 1.495 . S
C1189 H1195 0.959 . S
C1189 H1196 0.961 . S
C1189 H1197 0.960 . S
C1190 C1188 1.381 . S
C1190 C1191 1.394 . S
C1190 H1198 0.930 . S
C1191 C1190 1.394 . S
C1191 C1192 1.383 . S
C1191 H1199 0.929 . S
C1192 C1191 1.383 . S
C1192 C1193 1.377 . S
C1193 H1177 0.930 . S
C1193 C1192 1.377 . S
C1193 C1194 1.379 . S
C1194 H1178 0.931 . S
C1194 C1188 1.383 . S
C1194 C1193 1.379 . S
H1195 C1189 0.959 . S
H1196 C1189 0.961 . S
H1197 C1189 0.960 . S
H1198 C1190 0.930 . S
H1199 C1191 0.929 . S
H1200 C1208 0.929 . S
H1201 C1210 0.930 . S
H1202 C1212 0.930 . S
H1203 C1215 0.929 . S
H1204 C1218 0.930 . S
H1205 C1220 0.960 . S
H1206 C1220 0.960 . S
H1207 C1220 0.960 . S
C1208 H1200 0.929 . S
C1208 C1209 1.377 . S
C1208 C1210 1.384 . S
C1209 C1208 1.377 . S
C1209 C1215 1.390 . S
C1210 H1201 0.930 . S
C1210 C1208 1.384 . S
C1210 C1211 1.372 . S
C1211 C1210 1.372 . S
C1211 C1212 1.400 . S
C1211 C1216 1.490 . S
C1212 H1202 0.930 . S
C1212 C1211 1.400 . S
C1212 C1215 1.386 . S
H1213 C1229 0.930 . S
H1214 C1230 0.931 . S
C1215 H1203 0.929 . S
C1215 C1209 1.390 . S
C1215 C1212 1.386 . S
C1216 C1211 1.490 . S
C1216 C1218 1.395 . S
C1216 C1219 1.403 . S
H1217 C1223 0.930 . S
C1218 H1204 0.930 . S
C1218 C1216 1.395 . S
C1218 C1221 1.403 1_554 S
C1219 C1216 1.403 . S
C1219 C1220 1.524 . S
C1219 C1223 1.400 1_554 S
C1220 H1205 0.960 . S
C1220 H1206 0.960 . S
C1220 H1207 0.960 . S
C1220 C1219 1.524 . S
C1221 C1218 1.403 1_556 S
C1221 C1222 1.392 . S
C1221 C1225 1.495 . S
C1222 C1221 1.392 . S
C1222 C1223 1.385 . S
C1222 C1224 1.478 . S
C1223 H1217 0.930 . S
C1223 C1219 1.400 1_556 S
C1223 C1222 1.385 . S
C1224 C1222 1.478 . S
C1224 C1226 1.381 . S
C1224 C1230 1.383 . S
C1225 C1221 1.495 . S
C1225 H1231 0.959 . S
C1225 H1232 0.961 . S
C1225 H1233 0.960 . S
C1226 C1224 1.381 . S
C1226 C1227 1.394 . S
C1226 H1234 0.930 . S
C1227 C1226 1.394 . S
C1227 C1228 1.383 . S
C1227 H1235 0.929 . S
C1228 C1227 1.383 . S
C1228 C1229 1.377 . S
C1229 H1213 0.930 . S
C1229 C1228 1.377 . S
C1229 C1230 1.379 . S
C1230 H1214 0.931 . S
C1230 C1224 1.383 . S
C1230 C1229 1.379 . S
H1231 C1225 0.959 . S
H1232 C1225 0.961 . S
H1233 C1225 0.960 . S
H1234 C1226 0.930 . S
H1235 C1227 0.929 . S
H1236 C1244 0.929 . S
H1237 C1246 0.930 . S
H1238 C1248 0.930 . S
H1239 C1251 0.929 . S
H1240 C1254 0.930 . S
H1241 C1256 0.960 . S
H1242 C1256 0.960 . S
H1243 C1256 0.960 . S
C1244 H1236 0.929 . S
C1244 C1245 1.377 . S
C1244 C1246 1.384 . S
C1245 C1244 1.377 . S
C1245 C1251 1.390 . S
C1246 H1237 0.930 . S
C1246 C1244 1.384 . S
C1246 C1247 1.372 . S
C1247 C1246 1.372 . S
C1247 C1248 1.400 . S
C1247 C1252 1.490 . S
C1248 H1238 0.930 . S
C1248 C1247 1.400 . S
C1248 C1251 1.386 . S
H1249 C1265 0.930 . S
H1250 C1266 0.931 . S
C1251 H1239 0.929 . S
C1251 C1245 1.390 . S
C1251 C1248 1.386 . S
C1252 C1247 1.490 . S
C1252 C1254 1.395 . S
C1252 C1255 1.403 . S
H1253 C1259 0.930 . S
C1254 H1240 0.930 . S
C1254 C1252 1.395 . S
C1254 C1257 1.403 1_556 S
C1255 C1252 1.403 . S
C1255 C1256 1.524 . S
C1255 C1259 1.400 1_556 S
C1256 H1241 0.960 . S
C1256 H1242 0.960 . S
C1256 H1243 0.960 . S
C1256 C1255 1.524 . S
C1257 C1254 1.403 1_554 S
C1257 C1258 1.392 . S
C1257 C1261 1.495 . S
C1258 C1257 1.392 . S
C1258 C1259 1.385 . S
C1258 C1260 1.478 . S
C1259 H1253 0.930 . S
C1259 C1255 1.400 1_554 S
C1259 C1258 1.385 . S
C1260 C1258 1.478 . S
C1260 C1262 1.381 . S
C1260 C1266 1.383 . S
C1261 C1257 1.495 . S
C1261 H1267 0.959 . S
C1261 H1268 0.961 . S
C1261 H1269 0.960 . S
C1262 C1260 1.381 . S
C1262 C1263 1.394 . S
C1262 H1270 0.930 . S
C1263 C1262 1.394 . S
C1263 C1264 1.383 . S
C1263 H1271 0.929 . S
C1264 C1263 1.383 . S
C1264 C1265 1.377 . S
C1265 H1249 0.930 . S
C1265 C1264 1.377 . S
C1265 C1266 1.379 . S
C1266 H1250 0.931 . S
C1266 C1260 1.383 . S
C1266 C1265 1.379 . S
H1267 C1261 0.959 . S
H1268 C1261 0.961 . S
H1269 C1261 0.960 . S
H1270 C1262 0.930 . S
H1271 C1263 0.929 . S
H1272 C1280 0.929 . S
H1273 C1282 0.930 . S
H1274 C1284 0.930 . S
H1275 C1287 0.929 . S
H1276 C1290 0.930 . S
H1277 C1292 0.960 . S
H1278 C1292 0.960 . S
H1279 C1292 0.960 . S
C1280 H1272 0.929 . S
C1280 C1281 1.377 . S
C1280 C1282 1.384 . S
C1281 C1280 1.377 . S
C1281 C1287 1.390 . S
C1282 H1273 0.930 . S
C1282 C1280 1.384 . S
C1282 C1283 1.372 . S
C1283 C1282 1.372 . S
C1283 C1284 1.400 . S
C1283 C1288 1.490 . S
C1284 H1274 0.930 . S
C1284 C1283 1.400 . S
C1284 C1287 1.386 . S
H1285 C1301 0.930 . S
H1286 C1302 0.931 . S
C1287 H1275 0.929 . S
C1287 C1281 1.390 . S
C1287 C1284 1.386 . S
C1288 C1283 1.490 . S
C1288 C1290 1.395 . S
C1288 C1291 1.403 . S
H1289 C1295 0.930 . S
C1290 H1276 0.930 . S
C1290 C1288 1.395 . S
C1290 C1293 1.403 1_556 S
C1291 C1288 1.403 . S
C1291 C1292 1.524 . S
C1291 C1295 1.400 1_556 S
C1292 H1277 0.960 . S
C1292 H1278 0.960 . S
C1292 H1279 0.960 . S
C1292 C1291 1.524 . S
C1293 C1290 1.403 1_554 S
C1293 C1294 1.392 . S
C1293 C1297 1.495 . S
C1294 C1293 1.392 . S
C1294 C1295 1.385 . S
C1294 C1296 1.478 . S
C1295 H1289 0.930 . S
C1295 C1291 1.400 1_554 S
C1295 C1294 1.385 . S
C1296 C1294 1.478 . S
C1296 C1298 1.381 . S
C1296 C1302 1.383 . S
C1297 C1293 1.495 . S
C1297 H1303 0.959 . S
C1297 H1304 0.961 . S
C1297 H1305 0.960 . S
C1298 C1296 1.381 . S
C1298 C1299 1.394 . S
C1298 H1306 0.930 . S
C1299 C1298 1.394 . S
C1299 C1300 1.383 . S
C1299 H1307 0.929 . S
C1300 C1299 1.383 . S
C1300 C1301 1.377 . S
C1301 H1285 0.930 . S
C1301 C1300 1.377 . S
C1301 C1302 1.379 . S
C1302 H1286 0.931 . S
C1302 C1296 1.383 . S
C1302 C1301 1.379 . S
H1303 C1297 0.959 . S
H1304 C1297 0.961 . S
H1305 C1297 0.960 . S
H1306 C1298 0.930 . S
H1307 C1299 0.929 . S
H1308 C1316 0.929 . S
H1309 C1318 0.930 . S
H1310 C1320 0.930 . S
H1311 C1323 0.929 . S
H1312 C1326 0.930 . S
H1313 C1328 0.960 . S
H1314 C1328 0.960 . S
H1315 C1328 0.960 . S
C1316 H1308 0.929 . S
C1316 C1317 1.377 . S
C1316 C1318 1.384 . S
C1317 C1316 1.377 . S
C1317 C1323 1.390 . S
C1318 H1309 0.930 . S
C1318 C1316 1.384 . S
C1318 C1319 1.372 . S
C1319 C1318 1.372 . S
C1319 C1320 1.400 . S
C1319 C1324 1.490 . S
C1320 H1310 0.930 . S
C1320 C1319 1.400 . S
C1320 C1323 1.386 . S
H1321 C1337 0.930 . S
H1322 C1338 0.931 . S
C1323 H1311 0.929 . S
C1323 C1317 1.390 . S
C1323 C1320 1.386 . S
C1324 C1319 1.490 . S
C1324 C1326 1.395 . S
C1324 C1327 1.403 . S
H1325 C1331 0.930 . S
C1326 H1312 0.930 . S
C1326 C1324 1.395 . S
C1326 C1329 1.403 1_554 S
C1327 C1324 1.403 . S
C1327 C1328 1.524 . S
C1327 C1331 1.400 1_554 S
C1328 H1313 0.960 . S
C1328 H1314 0.960 . S
C1328 H1315 0.960 . S
C1328 C1327 1.524 . S
C1329 C1326 1.403 1_556 S
C1329 C1330 1.392 . S
C1329 C1333 1.495 . S
C1330 C1329 1.392 . S
C1330 C1331 1.385 . S
C1330 C1332 1.478 . S
C1331 H1325 0.930 . S
C1331 C1327 1.400 1_556 S
C1331 C1330 1.385 . S
C1332 C1330 1.478 . S
C1332 C1334 1.381 . S
C1332 C1338 1.383 . S
C1333 C1329 1.495 . S
C1333 H1339 0.959 . S
C1333 H1340 0.961 . S
C1333 H1341 0.960 . S
C1334 C1332 1.381 . S
C1334 C1335 1.394 . S
C1334 H1342 0.930 . S
C1335 C1334 1.394 . S
C1335 C1336 1.383 . S
C1335 H1343 0.929 . S
C1336 C1335 1.383 . S
C1336 C1337 1.377 . S
C1337 H1321 0.930 . S
C1337 C1336 1.377 . S
C1337 C1338 1.379 . S
C1338 H1322 0.931 . S
C1338 C1332 1.383 . S
C1338 C1337 1.379 . S
H1339 C1333 0.959 . S
H1340 C1333 0.961 . S
H1341 C1333 0.960 . S
H1342 C1334 0.930 . S
H1343 C1335 0.929 . S
H1344 C1352 0.929 . S
H1345 C1354 0.930 . S
H1346 C1356 0.930 . S
H1347 C1359 0.929 . S
H1348 C1362 0.930 . S
H1349 C1364 0.960 . S
H1350 C1364 0.960 . S
H1351 C1364 0.960 . S
C1352 H1344 0.929 . S
C1352 C1353 1.377 . S
C1352 C1354 1.384 . S
C1353 C1352 1.377 . S
C1353 C1359 1.390 . S
C1354 H1345 0.930 . S
C1354 C1352 1.384 . S
C1354 C1355 1.372 . S
C1355 C1354 1.372 . S
C1355 C1356 1.400 . S
C1355 C1360 1.490 . S
C1356 H1346 0.930 . S
C1356 C1355 1.400 . S
C1356 C1359 1.386 . S
H1357 C1373 0.930 . S
H1358 C1374 0.931 . S
C1359 H1347 0.929 . S
C1359 C1353 1.390 . S
C1359 C1356 1.386 . S
C1360 C1355 1.490 . S
C1360 C1362 1.395 . S
C1360 C1363 1.403 . S
H1361 C1367 0.930 . S
C1362 H1348 0.930 . S
C1362 C1360 1.395 . S
C1362 C1365 1.403 1_554 S
C1363 C1360 1.403 . S
C1363 C1364 1.524 . S
C1363 C1367 1.400 1_554 S
C1364 H1349 0.960 . S
C1364 H1350 0.960 . S
C1364 H1351 0.960 . S
C1364 C1363 1.524 . S
C1365 C1362 1.403 1_556 S
C1365 C1366 1.392 . S
C1365 C1369 1.495 . S
C1366 C1365 1.392 . S
C1366 C1367 1.385 . S
C1366 C1368 1.478 . S
C1367 H1361 0.930 . S
C1367 C1363 1.400 1_556 S
C1367 C1366 1.385 . S
C1368 C1366 1.478 . S
C1368 C1370 1.381 . S
C1368 C1374 1.383 . S
C1369 C1365 1.495 . S
C1369 H1375 0.959 . S
C1369 H1376 0.961 . S
C1369 H1377 0.960 . S
C1370 C1368 1.381 . S
C1370 C1371 1.394 . S
C1370 H1378 0.930 . S
C1371 C1370 1.394 . S
C1371 C1372 1.383 . S
C1371 H1379 0.929 . S
C1372 C1371 1.383 . S
C1372 C1373 1.377 . S
C1373 H1357 0.930 . S
C1373 C1372 1.377 . S
C1373 C1374 1.379 . S
C1374 H1358 0.931 . S
C1374 C1368 1.383 . S
C1374 C1373 1.379 . S
H1375 C1369 0.959 . S
H1376 C1369 0.961 . S
H1377 C1369 0.960 . S
H1378 C1370 0.930 . S
H1379 C1371 0.929 . S
H1380 C1388 0.929 . S
H1381 C1390 0.930 . S
H1382 C1392 0.930 . S
H1383 C1395 0.929 . S
H1384 C1398 0.930 . S
H1385 C1400 0.960 . S
H1386 C1400 0.960 . S
H1387 C1400 0.960 . S
C1388 H1380 0.929 . S
C1388 C1389 1.377 . S
C1388 C1390 1.384 . S
C1389 C1388 1.377 . S
C1389 C1395 1.390 . S
C1390 H1381 0.930 . S
C1390 C1388 1.384 . S
C1390 C1391 1.372 . S
C1391 C1390 1.372 . S
C1391 C1392 1.400 . S
C1391 C1396 1.490 . S
C1392 H1382 0.930 . S
C1392 C1391 1.400 . S
C1392 C1395 1.386 . S
H1393 C1409 0.930 . S
H1394 C1410 0.931 . S
C1395 H1383 0.929 . S
C1395 C1389 1.390 . S
C1395 C1392 1.386 . S
C1396 C1391 1.490 . S
C1396 C1398 1.395 . S
C1396 C1399 1.403 . S
H1397 C1403 0.930 . S
C1398 H1384 0.930 . S
C1398 C1396 1.395 . S
C1398 C1401 1.403 1_556 S
C1399 C1396 1.403 . S
C1399 C1400 1.524 . S
C1399 C1403 1.400 1_556 S
C1400 H1385 0.960 . S
C1400 H1386 0.960 . S
C1400 H1387 0.960 . S
C1400 C1399 1.524 . S
C1401 C1398 1.403 1_554 S
C1401 C1402 1.392 . S
C1401 C1405 1.495 . S
C1402 C1401 1.392 . S
C1402 C1403 1.385 . S
C1402 C1404 1.478 . S
C1403 H1397 0.930 . S
C1403 C1399 1.400 1_554 S
C1403 C1402 1.385 . S
C1404 C1402 1.478 . S
C1404 C1406 1.381 . S
C1404 C1410 1.383 . S
C1405 C1401 1.495 . S
C1405 H1411 0.959 . S
C1405 H1412 0.961 . S
C1405 H1413 0.960 . S
C1406 C1404 1.381 . S
C1406 C1407 1.394 . S
C1406 H1414 0.930 . S
C1407 C1406 1.394 . S
C1407 C1408 1.383 . S
C1407 H1415 0.929 . S
C1408 C1407 1.383 . S
C1408 C1409 1.377 . S
C1409 H1393 0.930 . S
C1409 C1408 1.377 . S
C1409 C1410 1.379 . S
C1410 H1394 0.931 . S
C1410 C1404 1.383 . S
C1410 C1409 1.379 . S
H1411 C1405 0.959 . S
H1412 C1405 0.961 . S
H1413 C1405 0.960 . S
H1414 C1406 0.930 . S
H1415 C1407 0.929 . S
H1416 C1424 0.929 . S
H1417 C1426 0.930 . S
H1418 C1428 0.930 . S
H1419 C1431 0.929 . S
H1420 C1434 0.930 . S
H1421 C1436 0.960 . S
H1422 C1436 0.960 . S
H1423 C1436 0.960 . S
C1424 H1416 0.929 . S
C1424 C1425 1.377 . S
C1424 C1426 1.384 . S
C1425 C1424 1.377 . S
C1425 C1431 1.390 . S
C1426 H1417 0.930 . S
C1426 C1424 1.384 . S
C1426 C1427 1.372 . S
C1427 C1426 1.372 . S
C1427 C1428 1.400 . S
C1427 C1432 1.490 . S
C1428 H1418 0.930 . S
C1428 C1427 1.400 . S
C1428 C1431 1.386 . S
H1429 C1445 0.930 . S
H1430 C1446 0.931 . S
C1431 H1419 0.929 . S
C1431 C1425 1.390 . S
C1431 C1428 1.386 . S
C1432 C1427 1.490 . S
C1432 C1434 1.395 . S
C1432 C1435 1.403 . S
H1433 C1439 0.930 . S
C1434 H1420 0.930 . S
C1434 C1432 1.395 . S
C1434 C1437 1.403 . S
C1435 C1432 1.403 . S
C1435 C1436 1.524 . S
C1435 C1439 1.400 . S
C1436 H1421 0.960 . S
C1436 H1422 0.960 . S
C1436 H1423 0.960 . S
C1436 C1435 1.524 . S
C1437 C1434 1.403 . S
C1437 C1438 1.392 . S
C1437 C1441 1.495 . S
C1438 C1437 1.392 . S
C1438 C1439 1.385 . S
C1438 C1440 1.478 . S
C1439 H1433 0.930 . S
C1439 C1435 1.400 . S
C1439 C1438 1.385 . S
C1440 C1438 1.478 . S
C1440 C1442 1.381 . S
C1440 C1446 1.383 . S
C1441 C1437 1.495 . S
C1441 H1447 0.959 . S
C1441 H1448 0.961 . S
C1441 H1449 0.960 . S
C1442 C1440 1.381 . S
C1442 C1443 1.394 . S
C1442 H1450 0.930 . S
C1443 C1442 1.394 . S
C1443 C1444 1.383 . S
C1443 H1451 0.929 . S
C1444 C1443 1.383 . S
C1444 C1445 1.377 . S
C1445 H1429 0.930 . S
C1445 C1444 1.377 . S
C1445 C1446 1.379 . S
C1446 H1430 0.931 . S
C1446 C1440 1.383 . S
C1446 C1445 1.379 . S
H1447 C1441 0.959 . S
H1448 C1441 0.961 . S
H1449 C1441 0.960 . S
H1450 C1442 0.930 . S
H1451 C1443 0.929 . S
H1452 C1460 0.929 . S
H1453 C1462 0.930 . S
H1454 C1464 0.930 . S
H1455 C1467 0.929 . S
H1456 C1470 0.930 . S
H1457 C1472 0.960 . S
H1458 C1472 0.960 . S
H1459 C1472 0.960 . S
C1460 H1452 0.929 . S
C1460 C1461 1.377 . S
C1460 C1462 1.384 . S
C1461 C1460 1.377 . S
C1461 C1467 1.390 . S
C1462 H1453 0.930 . S
C1462 C1460 1.384 . S
C1462 C1463 1.372 . S
C1463 C1462 1.372 . S
C1463 C1464 1.400 . S
C1463 C1468 1.490 . S
C1464 H1454 0.930 . S
C1464 C1463 1.400 . S
C1464 C1467 1.386 . S
H1465 C1481 0.930 . S
H1466 C1482 0.931 . S
C1467 H1455 0.929 . S
C1467 C1461 1.390 . S
C1467 C1464 1.386 . S
C1468 C1463 1.490 . S
C1468 C1470 1.395 . S
C1468 C1471 1.403 . S
H1469 C1475 0.930 . S
C1470 H1456 0.930 . S
C1470 C1468 1.395 . S
C1470 C1473 1.403 . S
C1471 C1468 1.403 . S
C1471 C1472 1.524 . S
C1471 C1475 1.400 . S
C1472 H1457 0.960 . S
C1472 H1458 0.960 . S
C1472 H1459 0.960 . S
C1472 C1471 1.524 . S
C1473 C1470 1.403 . S
C1473 C1474 1.392 . S
C1473 C1477 1.495 . S
C1474 C1473 1.392 . S
C1474 C1475 1.385 . S
C1474 C1476 1.478 . S
C1475 H1469 0.930 . S
C1475 C1471 1.400 . S
C1475 C1474 1.385 . S
C1476 C1474 1.478 . S
C1476 C1478 1.381 . S
C1476 C1482 1.383 . S
C1477 C1473 1.495 . S
C1477 H1483 0.959 . S
C1477 H1484 0.961 . S
C1477 H1485 0.960 . S
C1478 C1476 1.381 . S
C1478 C1479 1.394 . S
C1478 H1486 0.930 . S
C1479 C1478 1.394 . S
C1479 C1480 1.383 . S
C1479 H1487 0.929 . S
C1480 C1479 1.383 . S
C1480 C1481 1.377 . S
C1481 H1465 0.930 . S
C1481 C1480 1.377 . S
C1481 C1482 1.379 . S
C1482 H1466 0.931 . S
C1482 C1476 1.383 . S
C1482 C1481 1.379 . S
H1483 C1477 0.959 . S
H1484 C1477 0.961 . S
H1485 C1477 0.960 . S
H1486 C1478 0.930 . S
H1487 C1479 0.929 . S
H1488 C1496 0.929 . S
H1489 C1498 0.930 . S
H1490 C1500 0.930 . S
H1491 C1503 0.929 . S
H1492 C1506 0.930 . S
H1493 C1508 0.960 . S
H1494 C1508 0.960 . S
H1495 C1508 0.960 . S
C1496 H1488 0.929 . S
C1496 C1497 1.377 . S
C1496 C1498 1.384 . S
C1497 C1496 1.377 . S
C1497 C1503 1.390 . S
C1498 H1489 0.930 . S
C1498 C1496 1.384 . S
C1498 C1499 1.372 . S
C1499 C1498 1.372 . S
C1499 C1500 1.400 . S
C1499 C1504 1.490 . S
C1500 H1490 0.930 . S
C1500 C1499 1.400 . S
C1500 C1503 1.386 . S
H1501 C1517 0.930 . S
H1502 C1518 0.931 . S
C1503 H1491 0.929 . S
C1503 C1497 1.390 . S
C1503 C1500 1.386 . S
C1504 C1499 1.490 . S
C1504 C1506 1.395 . S
C1504 C1507 1.403 . S
H1505 C1511 0.930 . S
C1506 H1492 0.930 . S
C1506 C1504 1.395 . S
C1506 C1509 1.403 . S
C1507 C1504 1.403 . S
C1507 C1508 1.524 . S
C1507 C1511 1.400 . S
C1508 H1493 0.960 . S
C1508 H1494 0.960 . S
C1508 H1495 0.960 . S
C1508 C1507 1.524 . S
C1509 C1506 1.403 . S
C1509 C1510 1.392 . S
C1509 C1513 1.495 . S
C1510 C1509 1.392 . S
C1510 C1511 1.385 . S
C1510 C1512 1.478 . S
C1511 H1505 0.930 . S
C1511 C1507 1.400 . S
C1511 C1510 1.385 . S
C1512 C1510 1.478 . S
C1512 C1514 1.381 . S
C1512 C1518 1.383 . S
C1513 C1509 1.495 . S
C1513 H1519 0.959 . S
C1513 H1520 0.961 . S
C1513 H1521 0.960 . S
C1514 C1512 1.381 . S
C1514 C1515 1.394 . S
C1514 H1522 0.930 . S
C1515 C1514 1.394 . S
C1515 C1516 1.383 . S
C1515 H1523 0.929 . S
C1516 C1515 1.383 . S
C1516 C1517 1.377 . S
C1517 H1501 0.930 . S
C1517 C1516 1.377 . S
C1517 C1518 1.379 . S
C1518 H1502 0.931 . S
C1518 C1512 1.383 . S
C1518 C1517 1.379 . S
H1519 C1513 0.959 . S
H1520 C1513 0.961 . S
H1521 C1513 0.960 . S
H1522 C1514 0.930 . S
H1523 C1515 0.929 . S
H1524 C1532 0.929 . S
H1525 C1534 0.930 . S
H1526 C1536 0.930 . S
H1527 C1539 0.929 . S
H1528 C1542 0.930 . S
H1529 C1544 0.960 . S
H1530 C1544 0.960 . S
H1531 C1544 0.960 . S
C1532 H1524 0.929 . S
C1532 C1533 1.377 . S
C1532 C1534 1.384 . S
C1533 C1532 1.377 . S
C1533 C1539 1.390 . S
C1534 H1525 0.930 . S
C1534 C1532 1.384 . S
C1534 C1535 1.372 . S
C1535 C1534 1.372 . S
C1535 C1536 1.400 . S
C1535 C1540 1.490 . S
C1536 H1526 0.930 . S
C1536 C1535 1.400 . S
C1536 C1539 1.386 . S
H1537 C1553 0.930 . S
H1538 C1554 0.931 . S
C1539 H1527 0.929 . S
C1539 C1533 1.390 . S
C1539 C1536 1.386 . S
C1540 C1535 1.490 . S
C1540 C1542 1.395 . S
C1540 C1543 1.403 . S
H1541 C1547 0.930 . S
C1542 H1528 0.930 . S
C1542 C1540 1.395 . S
C1542 C1545 1.403 . S
C1543 C1540 1.403 . S
C1543 C1544 1.524 . S
C1543 C1547 1.400 . S
C1544 H1529 0.960 . S
C1544 H1530 0.960 . S
C1544 H1531 0.960 . S
C1544 C1543 1.524 . S
C1545 C1542 1.403 . S
C1545 C1546 1.392 . S
C1545 C1549 1.495 . S
C1546 C1545 1.392 . S
C1546 C1547 1.385 . S
C1546 C1548 1.478 . S
C1547 H1541 0.930 . S
C1547 C1543 1.400 . S
C1547 C1546 1.385 . S
C1548 C1546 1.478 . S
C1548 C1550 1.381 . S
C1548 C1554 1.383 . S
C1549 C1545 1.495 . S
C1549 H1555 0.959 . S
C1549 H1556 0.961 . S
C1549 H1557 0.960 . S
C1550 C1548 1.381 . S
C1550 C1551 1.394 . S
C1550 H1558 0.930 . S
C1551 C1550 1.394 . S
C1551 C1552 1.383 . S
C1551 H1559 0.929 . S
C1552 C1551 1.383 . S
C1552 C1553 1.377 . S
C1553 H1537 0.930 . S
C1553 C1552 1.377 . S
C1553 C1554 1.379 . S
C1554 H1538 0.931 . S
C1554 C1548 1.383 . S
C1554 C1553 1.379 . S
H1555 C1549 0.959 . S
H1556 C1549 0.961 . S
H1557 C1549 0.960 . S
H1558 C1550 0.930 . S
H1559 C1551 0.929 . S
H1560 C1568 0.929 . S
H1561 C1570 0.930 . S
H1562 C1572 0.930 . S
H1563 C1575 0.929 . S
H1564 C1578 0.930 . S
H1565 C1580 0.960 . S
H1566 C1580 0.960 . S
H1567 C1580 0.960 . S
C1568 H1560 0.929 . S
C1568 C1569 1.377 . S
C1568 C1570 1.384 . S
C1569 C1568 1.377 . S
C1569 C1575 1.390 . S
C1570 H1561 0.930 . S
C1570 C1568 1.384 . S
C1570 C1571 1.372 . S
C1571 C1570 1.372 . S
C1571 C1572 1.400 . S
C1571 C1576 1.490 . S
C1572 H1562 0.930 . S
C1572 C1571 1.400 . S
C1572 C1575 1.386 . S
H1573 C1589 0.930 . S
H1574 C1590 0.931 . S
C1575 H1563 0.929 . S
C1575 C1569 1.390 . S
C1575 C1572 1.386 . S
C1576 C1571 1.490 . S
C1576 C1578 1.395 . S
C1576 C1579 1.403 . S
H1577 C1583 0.930 . S
C1578 H1564 0.930 . S
C1578 C1576 1.395 . S
C1578 C1581 1.403 . S
C1579 C1576 1.403 . S
C1579 C1580 1.524 . S
C1579 C1583 1.400 . S
C1580 H1565 0.960 . S
C1580 H1566 0.960 . S
C1580 H1567 0.960 . S
C1580 C1579 1.524 . S
C1581 C1578 1.403 . S
C1581 C1582 1.392 . S
C1581 C1585 1.495 . S
C1582 C1581 1.392 . S
C1582 C1583 1.385 . S
C1582 C1584 1.478 . S
C1583 H1577 0.930 . S
C1583 C1579 1.400 . S
C1583 C1582 1.385 . S
C1584 C1582 1.478 . S
C1584 C1586 1.381 . S
C1584 C1590 1.383 . S
C1585 C1581 1.495 . S
C1585 H1591 0.959 . S
C1585 H1592 0.961 . S
C1585 H1593 0.960 . S
C1586 C1584 1.381 . S
C1586 C1587 1.394 . S
C1586 H1594 0.930 . S
C1587 C1586 1.394 . S
C1587 C1588 1.383 . S
C1587 H1595 0.929 . S
C1588 C1587 1.383 . S
C1588 C1589 1.377 . S
C1589 H1573 0.930 . S
C1589 C1588 1.377 . S
C1589 C1590 1.379 . S
C1590 H1574 0.931 . S
C1590 C1584 1.383 . S
C1590 C1589 1.379 . S
H1591 C1585 0.959 . S
H1592 C1585 0.961 . S
H1593 C1585 0.960 . S
H1594 C1586 0.930 . S
H1595 C1587 0.929 . S
H1596 C1604 0.929 . S
H1597 C1606 0.930 . S
H1598 C1608 0.930 . S
H1599 C1611 0.929 . S
H1600 C1614 0.930 . S
H1601 C1616 0.960 . S
H1602 C1616 0.960 . S
H1603 C1616 0.960 . S
C1604 H1596 0.929 . S
C1604 C1605 1.377 . S
C1604 C1606 1.384 . S
C1605 C1604 1.377 . S
C1605 C1611 1.390 . S
C1606 H1597 0.930 . S
C1606 C1604 1.384 . S
C1606 C1607 1.372 . S
C1607 C1606 1.372 . S
C1607 C1608 1.400 . S
C1607 C1612 1.490 . S
C1608 H1598 0.930 . S
C1608 C1607 1.400 . S
C1608 C1611 1.386 . S
H1609 C1625 0.930 . S
H1610 C1626 0.931 . S
C1611 H1599 0.929 . S
C1611 C1605 1.390 . S
C1611 C1608 1.386 . S
C1612 C1607 1.490 . S
C1612 C1614 1.395 . S
C1612 C1615 1.403 . S
H1613 C1619 0.930 . S
C1614 H1600 0.930 . S
C1614 C1612 1.395 . S
C1614 C1617 1.403 . S
C1615 C1612 1.403 . S
C1615 C1616 1.524 . S
C1615 C1619 1.400 . S
C1616 H1601 0.960 . S
C1616 H1602 0.960 . S
C1616 H1603 0.960 . S
C1616 C1615 1.524 . S
C1617 C1614 1.403 . S
C1617 C1618 1.392 . S
C1617 C1621 1.495 . S
C1618 C1617 1.392 . S
C1618 C1619 1.385 . S
C1618 C1620 1.478 . S
C1619 H1613 0.930 . S
C1619 C1615 1.400 . S
C1619 C1618 1.385 . S
C1620 C1618 1.478 . S
C1620 C1622 1.381 . S
C1620 C1626 1.383 . S
C1621 C1617 1.495 . S
C1621 H1627 0.959 . S
C1621 H1628 0.961 . S
C1621 H1629 0.960 . S
C1622 C1620 1.381 . S
C1622 C1623 1.394 . S
C1622 H1630 0.930 . S
C1623 C1622 1.394 . S
C1623 C1624 1.383 . S
C1623 H1631 0.929 . S
C1624 C1623 1.383 . S
C1624 C1625 1.377 . S
C1625 H1609 0.930 . S
C1625 C1624 1.377 . S
C1625 C1626 1.379 . S
C1626 H1610 0.931 . S
C1626 C1620 1.383 . S
C1626 C1625 1.379 . S
H1627 C1621 0.959 . S
H1628 C1621 0.961 . S
H1629 C1621 0.960 . S
H1630 C1622 0.930 . S
H1631 C1623 0.929 . S
H1632 C1640 0.929 . S
H1633 C1642 0.930 . S
H1634 C1644 0.930 . S
H1635 C1647 0.929 . S
H1636 C1650 0.930 . S
H1637 C1652 0.960 . S
H1638 C1652 0.960 . S
H1639 C1652 0.960 . S
C1640 H1632 0.929 . S
C1640 C1641 1.377 . S
C1640 C1642 1.384 . S
C1641 C1640 1.377 . S
C1641 C1647 1.390 . S
C1642 H1633 0.930 . S
C1642 C1640 1.384 . S
C1642 C1643 1.372 . S
C1643 C1642 1.372 . S
C1643 C1644 1.400 . S
C1643 C1648 1.490 . S
C1644 H1634 0.930 . S
C1644 C1643 1.400 . S
C1644 C1647 1.386 . S
H1645 C1661 0.930 . S
H1646 C1662 0.931 . S
C1647 H1635 0.929 . S
C1647 C1641 1.390 . S
C1647 C1644 1.386 . S
C1648 C1643 1.490 . S
C1648 C1650 1.395 . S
C1648 C1651 1.403 . S
H1649 C1655 0.930 . S
C1650 H1636 0.930 . S
C1650 C1648 1.395 . S
C1650 C1653 1.403 . S
C1651 C1648 1.403 . S
C1651 C1652 1.524 . S
C1651 C1655 1.400 . S
C1652 H1637 0.960 . S
C1652 H1638 0.960 . S
C1652 H1639 0.960 . S
C1652 C1651 1.524 . S
C1653 C1650 1.403 . S
C1653 C1654 1.392 . S
C1653 C1657 1.495 . S
C1654 C1653 1.392 . S
C1654 C1655 1.385 . S
C1654 C1656 1.478 . S
C1655 H1649 0.930 . S
C1655 C1651 1.400 . S
C1655 C1654 1.385 . S
C1656 C1654 1.478 . S
C1656 C1658 1.381 . S
C1656 C1662 1.383 . S
C1657 C1653 1.495 . S
C1657 H1663 0.959 . S
C1657 H1664 0.961 . S
C1657 H1665 0.960 . S
C1658 C1656 1.381 . S
C1658 C1659 1.394 . S
C1658 H1666 0.930 . S
C1659 C1658 1.394 . S
C1659 C1660 1.383 . S
C1659 H1667 0.929 . S
C1660 C1659 1.383 . S
C1660 C1661 1.377 . S
C1661 H1645 0.930 . S
C1661 C1660 1.377 . S
C1661 C1662 1.379 . S
C1662 H1646 0.931 . S
C1662 C1656 1.383 . S
C1662 C1661 1.379 . S
H1663 C1657 0.959 . S
H1664 C1657 0.961 . S
H1665 C1657 0.960 . S
H1666 C1658 0.930 . S
H1667 C1659 0.929 . S
H1668 C1676 0.929 . S
H1669 C1678 0.930 . S
H1670 C1680 0.930 . S
H1671 C1683 0.929 . S
H1672 C1686 0.930 . S
H1673 C1688 0.960 . S
H1674 C1688 0.960 . S
H1675 C1688 0.960 . S
C1676 H1668 0.929 . S
C1676 C1677 1.377 . S
C1676 C1678 1.384 . S
C1677 C1676 1.377 . S
C1677 C1683 1.390 . S
C1678 H1669 0.930 . S
C1678 C1676 1.384 . S
C1678 C1679 1.372 . S
C1679 C1678 1.372 . S
C1679 C1680 1.400 . S
C1679 C1684 1.490 . S
C1680 H1670 0.930 . S
C1680 C1679 1.400 . S
C1680 C1683 1.386 . S
H1681 C1697 0.930 . S
H1682 C1698 0.931 . S
C1683 H1671 0.929 . S
C1683 C1677 1.390 . S
C1683 C1680 1.386 . S
C1684 C1679 1.490 . S
C1684 C1686 1.395 . S
C1684 C1687 1.403 . S
H1685 C1691 0.930 . S
C1686 H1672 0.930 . S
C1686 C1684 1.395 . S
C1686 C1689 1.403 . S
C1687 C1684 1.403 . S
C1687 C1688 1.524 . S
C1687 C1691 1.400 . S
C1688 H1673 0.960 . S
C1688 H1674 0.960 . S
C1688 H1675 0.960 . S
C1688 C1687 1.524 . S
C1689 C1686 1.403 . S
C1689 C1690 1.392 . S
C1689 C1693 1.495 . S
C1690 C1689 1.392 . S
C1690 C1691 1.385 . S
C1690 C1692 1.478 . S
C1691 H1685 0.930 . S
C1691 C1687 1.400 . S
C1691 C1690 1.385 . S
C1692 C1690 1.478 . S
C1692 C1694 1.381 . S
C1692 C1698 1.383 . S
C1693 C1689 1.495 . S
C1693 H1699 0.959 . S
C1693 H1700 0.961 . S
C1693 H1701 0.960 . S
C1694 C1692 1.381 . S
C1694 C1695 1.394 . S
C1694 H1702 0.930 . S
C1695 C1694 1.394 . S
C1695 C1696 1.383 . S
C1695 H1703 0.929 . S
C1696 C1695 1.383 . S
C1696 C1697 1.377 . S
C1697 H1681 0.930 . S
C1697 C1696 1.377 . S
C1697 C1698 1.379 . S
C1698 H1682 0.931 . S
C1698 C1692 1.383 . S
C1698 C1697 1.379 . S
H1699 C1693 0.959 . S
H1700 C1693 0.961 . S
H1701 C1693 0.960 . S
H1702 C1694 0.930 . S
H1703 C1695 0.929 . S
H1704 C1712 0.929 . S
H1705 C1714 0.930 . S
H1706 C1716 0.930 . S
H1707 C1719 0.929 . S
H1708 C1722 0.930 . S
H1709 C1724 0.960 . S
H1710 C1724 0.960 . S
H1711 C1724 0.960 . S
C1712 H1704 0.929 . S
C1712 C1713 1.377 . S
C1712 C1714 1.384 . S
C1713 C1712 1.377 . S
C1713 C1719 1.390 . S
C1714 H1705 0.930 . S
C1714 C1712 1.384 . S
C1714 C1715 1.372 . S
C1715 C1714 1.372 . S
C1715 C1716 1.400 . S
C1715 C1720 1.490 . S
C1716 H1706 0.930 . S
C1716 C1715 1.400 . S
C1716 C1719 1.386 . S
H1717 C1733 0.930 . S
H1718 C1734 0.931 . S
C1719 H1707 0.929 . S
C1719 C1713 1.390 . S
C1719 C1716 1.386 . S
C1720 C1715 1.490 . S
C1720 C1722 1.395 . S
C1720 C1723 1.403 . S
H1721 C1727 0.930 . S
C1722 H1708 0.930 . S
C1722 C1720 1.395 . S
C1722 C1725 1.403 . S
C1723 C1720 1.403 . S
C1723 C1724 1.524 . S
C1723 C1727 1.400 . S
C1724 H1709 0.960 . S
C1724 H1710 0.960 . S
C1724 H1711 0.960 . S
C1724 C1723 1.524 . S
C1725 C1722 1.403 . S
C1725 C1726 1.392 . S
C1725 C1729 1.495 . S
C1726 C1725 1.392 . S
C1726 C1727 1.385 . S
C1726 C1728 1.478 . S
C1727 H1721 0.930 . S
C1727 C1723 1.400 . S
C1727 C1726 1.385 . S
C1728 C1726 1.478 . S
C1728 C1730 1.381 . S
C1728 C1734 1.383 . S
C1729 C1725 1.495 . S
C1729 H1735 0.959 . S
C1729 H1736 0.961 . S
C1729 H1737 0.960 . S
C1730 C1728 1.381 . S
C1730 C1731 1.394 . S
C1730 H1738 0.930 . S
C1731 C1730 1.394 . S
C1731 C1732 1.383 . S
C1731 H1739 0.929 . S
C1732 C1731 1.383 . S
C1732 C1733 1.377 . S
C1733 H1717 0.930 . S
C1733 C1732 1.377 . S
C1733 C1734 1.379 . S
C1734 H1718 0.931 . S
C1734 C1728 1.383 . S
C1734 C1733 1.379 . S
H1735 C1729 0.959 . S
H1736 C1729 0.961 . S
H1737 C1729 0.960 . S
H1738 C1730 0.930 . S
H1739 C1731 0.929 . S
H1740 C1748 0.929 . S
H1741 C1750 0.930 . S
H1742 C1752 0.930 . S
H1743 C1755 0.929 . S
H1744 C1758 0.930 . S
H1745 C1760 0.960 . S
H1746 C1760 0.960 . S
H1747 C1760 0.960 . S
C1748 H1740 0.929 . S
C1748 C1749 1.377 . S
C1748 C1750 1.384 . S
C1749 C1748 1.377 . S
C1749 C1755 1.390 . S
C1750 H1741 0.930 . S
C1750 C1748 1.384 . S
C1750 C1751 1.372 . S
C1751 C1750 1.372 . S
C1751 C1752 1.400 . S
C1751 C1756 1.490 . S
C1752 H1742 0.930 . S
C1752 C1751 1.400 . S
C1752 C1755 1.386 . S
H1753 C1769 0.930 . S
H1754 C1770 0.931 . S
C1755 H1743 0.929 . S
C1755 C1749 1.390 . S
C1755 C1752 1.386 . S
C1756 C1751 1.490 . S
C1756 C1758 1.395 . S
C1756 C1759 1.403 . S
H1757 C1763 0.930 . S
C1758 H1744 0.930 . S
C1758 C1756 1.395 . S
C1758 C1761 1.403 . S
C1759 C1756 1.403 . S
C1759 C1760 1.524 . S
C1759 C1763 1.400 . S
C1760 H1745 0.960 . S
C1760 H1746 0.960 . S
C1760 H1747 0.960 . S
C1760 C1759 1.524 . S
C1761 C1758 1.403 . S
C1761 C1762 1.392 . S
C1761 C1765 1.495 . S
C1762 C1761 1.392 . S
C1762 C1763 1.385 . S
C1762 C1764 1.478 . S
C1763 H1757 0.930 . S
C1763 C1759 1.400 . S
C1763 C1762 1.385 . S
C1764 C1762 1.478 . S
C1764 C1766 1.381 . S
C1764 C1770 1.383 . S
C1765 C1761 1.495 . S
C1765 H1771 0.959 . S
C1765 H1772 0.961 . S
C1765 H1773 0.960 . S
C1766 C1764 1.381 . S
C1766 C1767 1.394 . S
C1766 H1774 0.930 . S
C1767 C1766 1.394 . S
C1767 C1768 1.383 . S
C1767 H1775 0.929 . S
C1768 C1767 1.383 . S
C1768 C1769 1.377 . S
C1769 H1753 0.930 . S
C1769 C1768 1.377 . S
C1769 C1770 1.379 . S
C1770 H1754 0.931 . S
C1770 C1764 1.383 . S
C1770 C1769 1.379 . S
H1771 C1765 0.959 . S
H1772 C1765 0.961 . S
H1773 C1765 0.960 . S
H1774 C1766 0.930 . S
H1775 C1767 0.929 . S
H1776 C1784 0.929 . S
H1777 C1786 0.930 . S
H1778 C1788 0.930 . S
H1779 C1791 0.929 . S
H1780 C1794 0.930 . S
H1781 C1796 0.960 . S
H1782 C1796 0.960 . S
H1783 C1796 0.960 . S
C1784 H1776 0.929 . S
C1784 C1785 1.377 . S
C1784 C1786 1.384 . S
C1785 C1784 1.377 . S
C1785 C1791 1.390 . S
C1786 H1777 0.930 . S
C1786 C1784 1.384 . S
C1786 C1787 1.372 . S
C1787 C1786 1.372 . S
C1787 C1788 1.400 . S
C1787 C1792 1.490 . S
C1788 H1778 0.930 . S
C1788 C1787 1.400 . S
C1788 C1791 1.386 . S
H1789 C1805 0.930 . S
H1790 C1806 0.931 . S
C1791 H1779 0.929 . S
C1791 C1785 1.390 . S
C1791 C1788 1.386 . S
C1792 C1787 1.490 . S
C1792 C1794 1.395 . S
C1792 C1795 1.403 . S
H1793 C1799 0.930 . S
C1794 H1780 0.930 . S
C1794 C1792 1.395 . S
C1794 C1797 1.403 . S
C1795 C1792 1.403 . S
C1795 C1796 1.524 . S
C1795 C1799 1.400 . S
C1796 H1781 0.960 . S
C1796 H1782 0.960 . S
C1796 H1783 0.960 . S
C1796 C1795 1.524 . S
C1797 C1794 1.403 . S
C1797 C1798 1.392 . S
C1797 C1801 1.495 . S
C1798 C1797 1.392 . S
C1798 C1799 1.385 . S
C1798 C1800 1.478 . S
C1799 H1793 0.930 . S
C1799 C1795 1.400 . S
C1799 C1798 1.385 . S
C1800 C1798 1.478 . S
C1800 C1802 1.381 . S
C1800 C1806 1.383 . S
C1801 C1797 1.495 . S
C1801 H1807 0.959 . S
C1801 H1808 0.961 . S
C1801 H1809 0.960 . S
C1802 C1800 1.381 . S
C1802 C1803 1.394 . S
C1802 H1810 0.930 . S
C1803 C1802 1.394 . S
C1803 C1804 1.383 . S
C1803 H1811 0.929 . S
C1804 C1803 1.383 . S
C1804 C1805 1.377 . S
C1805 H1789 0.930 . S
C1805 C1804 1.377 . S
C1805 C1806 1.379 . S
C1806 H1790 0.931 . S
C1806 C1800 1.383 . S
C1806 C1805 1.379 . S
H1807 C1801 0.959 . S
H1808 C1801 0.961 . S
H1809 C1801 0.960 . S
H1810 C1802 0.930 . S
H1811 C1803 0.929 . S
H1812 C1820 0.929 . S
H1813 C1822 0.930 . S
H1814 C1824 0.930 . S
H1815 C1827 0.929 . S
H1816 C1830 0.930 . S
H1817 C1832 0.960 . S
H1818 C1832 0.960 . S
H1819 C1832 0.960 . S
C1820 H1812 0.929 . S
C1820 C1821 1.377 . S
C1820 C1822 1.384 . S
C1821 C1820 1.377 . S
C1821 C1827 1.390 . S
C1822 H1813 0.930 . S
C1822 C1820 1.384 . S
C1822 C1823 1.372 . S
C1823 C1822 1.372 . S
C1823 C1824 1.400 . S
C1823 C1828 1.490 . S
C1824 H1814 0.930 . S
C1824 C1823 1.400 . S
C1824 C1827 1.386 . S
H1825 C1841 0.930 . S
H1826 C1842 0.931 . S
C1827 H1815 0.929 . S
C1827 C1821 1.390 . S
C1827 C1824 1.386 . S
C1828 C1823 1.490 . S
C1828 C1830 1.395 . S
C1828 C1831 1.403 . S
H1829 C1835 0.930 . S
C1830 H1816 0.930 . S
C1830 C1828 1.395 . S
C1830 C1833 1.403 . S
C1831 C1828 1.403 . S
C1831 C1832 1.524 . S
C1831 C1835 1.400 . S
C1832 H1817 0.960 . S
C1832 H1818 0.960 . S
C1832 H1819 0.960 . S
C1832 C1831 1.524 . S
C1833 C1830 1.403 . S
C1833 C1834 1.392 . S
C1833 C1837 1.495 . S
C1834 C1833 1.392 . S
C1834 C1835 1.385 . S
C1834 C1836 1.478 . S
C1835 H1829 0.930 . S
C1835 C1831 1.400 . S
C1835 C1834 1.385 . S
C1836 C1834 1.478 . S
C1836 C1838 1.381 . S
C1836 C1842 1.383 . S
C1837 C1833 1.495 . S
C1837 H1843 0.959 . S
C1837 H1844 0.961 . S
C1837 H1845 0.960 . S
C1838 C1836 1.381 . S
C1838 C1839 1.394 . S
C1838 H1846 0.930 . S
C1839 C1838 1.394 . S
C1839 C1840 1.383 . S
C1839 H1847 0.929 . S
C1840 C1839 1.383 . S
C1840 C1841 1.377 . S
C1841 H1825 0.930 . S
C1841 C1840 1.377 . S
C1841 C1842 1.379 . S
C1842 H1826 0.931 . S
C1842 C1836 1.383 . S
C1842 C1841 1.379 . S
H1843 C1837 0.959 . S
H1844 C1837 0.961 . S
H1845 C1837 0.960 . S
H1846 C1838 0.930 . S
H1847 C1839 0.929 . S
H1848 C1856 0.929 . S
H1849 C1858 0.930 . S
H1850 C1860 0.930 . S
H1851 C1863 0.929 . S
H1852 C1866 0.930 . S
H1853 C1868 0.960 . S
H1854 C1868 0.960 . S
H1855 C1868 0.960 . S
C1856 H1848 0.929 . S
C1856 C1857 1.377 . S
C1856 C1858 1.384 . S
C1857 C1856 1.377 . S
C1857 C1863 1.390 . S
C1858 H1849 0.930 . S
C1858 C1856 1.384 . S
C1858 C1859 1.372 . S
C1859 C1858 1.372 . S
C1859 C1860 1.400 . S
C1859 C1864 1.490 . S
C1860 H1850 0.930 . S
C1860 C1859 1.400 . S
C1860 C1863 1.386 . S
H1861 C1877 0.930 . S
H1862 C1878 0.931 . S
C1863 H1851 0.929 . S
C1863 C1857 1.390 . S
C1863 C1860 1.386 . S
C1864 C1859 1.490 . S
C1864 C1866 1.395 . S
C1864 C1867 1.403 . S
H1865 C1871 0.930 . S
C1866 H1852 0.930 . S
C1866 C1864 1.395 . S
C1866 C1869 1.403 . S
C1867 C1864 1.403 . S
C1867 C1868 1.524 . S
C1867 C1871 1.400 . S
C1868 H1853 0.960 . S
C1868 H1854 0.960 . S
C1868 H1855 0.960 . S
C1868 C1867 1.524 . S
C1869 C1866 1.403 . S
C1869 C1870 1.392 . S
C1869 C1873 1.495 . S
C1870 C1869 1.392 . S
C1870 C1871 1.385 . S
C1870 C1872 1.478 . S
C1871 H1865 0.930 . S
C1871 C1867 1.400 . S
C1871 C1870 1.385 . S
C1872 C1870 1.478 . S
C1872 C1874 1.381 . S
C1872 C1878 1.383 . S
C1873 C1869 1.495 . S
C1873 H1879 0.959 . S
C1873 H1880 0.961 . S
C1873 H1881 0.960 . S
C1874 C1872 1.381 . S
C1874 C1875 1.394 . S
C1874 H1882 0.930 . S
C1875 C1874 1.394 . S
C1875 C1876 1.383 . S
C1875 H1883 0.929 . S
C1876 C1875 1.383 . S
C1876 C1877 1.377 . S
C1877 H1861 0.930 . S
C1877 C1876 1.377 . S
C1877 C1878 1.379 . S
C1878 H1862 0.931 . S
C1878 C1872 1.383 . S
C1878 C1877 1.379 . S
H1879 C1873 0.959 . S
H1880 C1873 0.961 . S
H1881 C1873 0.960 . S
H1882 C1874 0.930 . S
H1883 C1875 0.929 . S
H1884 C1892 0.929 . S
H1885 C1894 0.930 . S
H1886 C1896 0.930 . S
H1887 C1899 0.929 . S
H1888 C1902 0.930 . S
H1889 C1904 0.960 . S
H1890 C1904 0.960 . S
H1891 C1904 0.960 . S
C1892 H1884 0.929 . S
C1892 C1893 1.377 . S
C1892 C1894 1.384 . S
C1893 C1892 1.377 . S
C1893 C1899 1.390 . S
C1894 H1885 0.930 . S
C1894 C1892 1.384 . S
C1894 C1895 1.372 . S
C1895 C1894 1.372 . S
C1895 C1896 1.400 . S
C1895 C1900 1.490 . S
C1896 H1886 0.930 . S
C1896 C1895 1.400 . S
C1896 C1899 1.386 . S
H1897 C1913 0.930 . S
H1898 C1914 0.931 . S
C1899 H1887 0.929 . S
C1899 C1893 1.390 . S
C1899 C1896 1.386 . S
C1900 C1895 1.490 . S
C1900 C1902 1.395 . S
C1900 C1903 1.403 . S
H1901 C1907 0.930 . S
C1902 H1888 0.930 . S
C1902 C1900 1.395 . S
C1902 C1905 1.403 . S
C1903 C1900 1.403 . S
C1903 C1904 1.524 . S
C1903 C1907 1.400 . S
C1904 H1889 0.960 . S
C1904 H1890 0.960 . S
C1904 H1891 0.960 . S
C1904 C1903 1.524 . S
C1905 C1902 1.403 . S
C1905 C1906 1.392 . S
C1905 C1909 1.495 . S
C1906 C1905 1.392 . S
C1906 C1907 1.385 . S
C1906 C1908 1.478 . S
C1907 H1901 0.930 . S
C1907 C1903 1.400 . S
C1907 C1906 1.385 . S
C1908 C1906 1.478 . S
C1908 C1910 1.381 . S
C1908 C1914 1.383 . S
C1909 C1905 1.495 . S
C1909 H1915 0.959 . S
C1909 H1916 0.961 . S
C1909 H1917 0.960 . S
C1910 C1908 1.381 . S
C1910 C1911 1.394 . S
C1910 H1918 0.930 . S
C1911 C1910 1.394 . S
C1911 C1912 1.383 . S
C1911 H1919 0.929 . S
C1912 C1911 1.383 . S
C1912 C1913 1.377 . S
C1913 H1897 0.930 . S
C1913 C1912 1.377 . S
C1913 C1914 1.379 . S
C1914 H1898 0.931 . S
C1914 C1908 1.383 . S
C1914 C1913 1.379 . S
H1915 C1909 0.959 . S
H1916 C1909 0.961 . S
H1917 C1909 0.960 . S
H1918 C1910 0.930 . S
H1919 C1911 0.929 . S
H1920 C1928 0.929 . S
H1921 C1930 0.930 . S
H1922 C1932 0.930 . S
H1923 C1935 0.929 . S
H1924 C1938 0.930 . S
H1925 C1940 0.960 . S
H1926 C1940 0.960 . S
H1927 C1940 0.960 . S
C1928 H1920 0.929 . S
C1928 C1929 1.377 . S
C1928 C1930 1.384 . S
C1929 C1928 1.377 . S
C1929 C1935 1.390 . S
C1930 H1921 0.930 . S
C1930 C1928 1.384 . S
C1930 C1931 1.372 . S
C1931 C1930 1.372 . S
C1931 C1932 1.400 . S
C1931 C1936 1.490 . S
C1932 H1922 0.930 . S
C1932 C1931 1.400 . S
C1932 C1935 1.386 . S
H1933 C1949 0.930 . S
H1934 C1950 0.931 . S
C1935 H1923 0.929 . S
C1935 C1929 1.390 . S
C1935 C1932 1.386 . S
C1936 C1931 1.490 . S
C1936 C1938 1.395 . S
C1936 C1939 1.403 . S
H1937 C1943 0.930 . S
C1938 H1924 0.930 . S
C1938 C1936 1.395 . S
C1938 C1941 1.403 . S
C1939 C1936 1.403 . S
C1939 C1940 1.524 . S
C1939 C1943 1.400 . S
C1940 H1925 0.960 . S
C1940 H1926 0.960 . S
C1940 H1927 0.960 . S
C1940 C1939 1.524 . S
C1941 C1938 1.403 . S
C1941 C1942 1.392 . S
C1941 C1945 1.495 . S
C1942 C1941 1.392 . S
C1942 C1943 1.385 . S
C1942 C1944 1.478 . S
C1943 H1937 0.930 . S
C1943 C1939 1.400 . S
C1943 C1942 1.385 . S
C1944 C1942 1.478 . S
C1944 C1946 1.381 . S
C1944 C1950 1.383 . S
C1945 C1941 1.495 . S
C1945 H1951 0.959 . S
C1945 H1952 0.961 . S
C1945 H1953 0.960 . S
C1946 C1944 1.381 . S
C1946 C1947 1.394 . S
C1946 H1954 0.930 . S
C1947 C1946 1.394 . S
C1947 C1948 1.383 . S
C1947 H1955 0.929 . S
C1948 C1947 1.383 . S
C1948 C1949 1.377 . S
C1949 H1933 0.930 . S
C1949 C1948 1.377 . S
C1949 C1950 1.379 . S
C1950 H1934 0.931 . S
C1950 C1944 1.383 . S
C1950 C1949 1.379 . S
H1951 C1945 0.959 . S
H1952 C1945 0.961 . S
H1953 C1945 0.960 . S
H1954 C1946 0.930 . S
H1955 C1947 0.929 . S
H1956 C1964 0.929 . S
H1957 C1966 0.930 . S
H1958 C1968 0.930 . S
H1959 C1971 0.929 . S
H1960 C1974 0.930 . S
H1961 C1976 0.960 . S
H1962 C1976 0.960 . S
H1963 C1976 0.960 . S
C1964 H1956 0.929 . S
C1964 C1965 1.377 . S
C1964 C1966 1.384 . S
C1965 C1964 1.377 . S
C1965 C1971 1.390 . S
C1966 H1957 0.930 . S
C1966 C1964 1.384 . S
C1966 C1967 1.372 . S
C1967 C1966 1.372 . S
C1967 C1968 1.400 . S
C1967 C1972 1.490 . S
C1968 H1958 0.930 . S
C1968 C1967 1.400 . S
C1968 C1971 1.386 . S
H1969 C1985 0.930 . S
H1970 C1986 0.931 . S
C1971 H1959 0.929 . S
C1971 C1965 1.390 . S
C1971 C1968 1.386 . S
C1972 C1967 1.490 . S
C1972 C1974 1.395 . S
C1972 C1975 1.403 . S
H1973 C1979 0.930 . S
C1974 H1960 0.930 . S
C1974 C1972 1.395 . S
C1974 C1977 1.403 . S
C1975 C1972 1.403 . S
C1975 C1976 1.524 . S
C1975 C1979 1.400 . S
C1976 H1961 0.960 . S
C1976 H1962 0.960 . S
C1976 H1963 0.960 . S
C1976 C1975 1.524 . S
C1977 C1974 1.403 . S
C1977 C1978 1.392 . S
C1977 C1981 1.495 . S
C1978 C1977 1.392 . S
C1978 C1979 1.385 . S
C1978 C1980 1.478 . S
C1979 H1973 0.930 . S
C1979 C1975 1.400 . S
C1979 C1978 1.385 . S
C1980 C1978 1.478 . S
C1980 C1982 1.381 . S
C1980 C1986 1.383 . S
C1981 C1977 1.495 . S
C1981 H1987 0.959 . S
C1981 H1988 0.961 . S
C1981 H1989 0.960 . S
C1982 C1980 1.381 . S
C1982 C1983 1.394 . S
C1982 H1990 0.930 . S
C1983 C1982 1.394 . S
C1983 C1984 1.383 . S
C1983 H1991 0.929 . S
C1984 C1983 1.383 . S
C1984 C1985 1.377 . S
C1985 H1969 0.930 . S
C1985 C1984 1.377 . S
C1985 C1986 1.379 . S
C1986 H1970 0.931 . S
C1986 C1980 1.383 . S
C1986 C1985 1.379 . S
H1987 C1981 0.959 . S
H1988 C1981 0.961 . S
H1989 C1981 0.960 . S
H1990 C1982 0.930 . S
H1991 C1983 0.929 . S
H1992 C2000 0.929 . S
H1993 C2002 0.930 . S
H1994 C2004 0.930 . S
H1995 C2007 0.929 . S
H1996 C2010 0.930 . S
H1997 C2012 0.960 . S
H1998 C2012 0.960 . S
H1999 C2012 0.960 . S
C2000 H1992 0.929 . S
C2000 C2001 1.377 . S
C2000 C2002 1.384 . S
C2001 C2000 1.377 . S
C2001 C2007 1.390 . S
C2002 H1993 0.930 . S
C2002 C2000 1.384 . S
C2002 C2003 1.372 . S
C2003 C2002 1.372 . S
C2003 C2004 1.400 . S
C2003 C2008 1.490 . S
C2004 H1994 0.930 . S
C2004 C2003 1.400 . S
C2004 C2007 1.386 . S
H2005 C2021 0.930 . S
H2006 C2022 0.931 . S
C2007 H1995 0.929 . S
C2007 C2001 1.390 . S
C2007 C2004 1.386 . S
C2008 C2003 1.490 . S
C2008 C2010 1.395 . S
C2008 C2011 1.403 . S
H2009 C2015 0.930 . S
C2010 H1996 0.930 . S
C2010 C2008 1.395 . S
C2010 C2013 1.403 . S
C2011 C2008 1.403 . S
C2011 C2012 1.524 . S
C2011 C2015 1.400 . S
C2012 H1997 0.960 . S
C2012 H1998 0.960 . S
C2012 H1999 0.960 . S
C2012 C2011 1.524 . S
C2013 C2010 1.403 . S
C2013 C2014 1.392 . S
C2013 C2017 1.495 . S
C2014 C2013 1.392 . S
C2014 C2015 1.385 . S
C2014 C2016 1.478 . S
C2015 H2009 0.930 . S
C2015 C2011 1.400 . S
C2015 C2014 1.385 . S
C2016 C2014 1.478 . S
C2016 C2018 1.381 . S
C2016 C2022 1.383 . S
C2017 C2013 1.495 . S
C2017 H2023 0.959 . S
C2017 H2024 0.961 . S
C2017 H2025 0.960 . S
C2018 C2016 1.381 . S
C2018 C2019 1.394 . S
C2018 H2026 0.930 . S
C2019 C2018 1.394 . S
C2019 C2020 1.383 . S
C2019 H2027 0.929 . S
C2020 C2019 1.383 . S
C2020 C2021 1.377 . S
C2021 H2005 0.930 . S
C2021 C2020 1.377 . S
C2021 C2022 1.379 . S
C2022 H2006 0.931 . S
C2022 C2016 1.383 . S
C2022 C2021 1.379 . S
H2023 C2017 0.959 . S
H2024 C2017 0.961 . S
H2025 C2017 0.960 . S
H2026 C2018 0.930 . S
H2027 C2019 0.929 . S
H2028 C2036 0.929 . S
H2029 C2038 0.930 . S
H2030 C2040 0.930 . S
H2031 C2043 0.929 . S
H2032 C2046 0.930 . S
H2033 C2048 0.960 . S
H2034 C2048 0.960 . S
H2035 C2048 0.960 . S
C2036 H2028 0.929 . S
C2036 C2037 1.377 . S
C2036 C2038 1.384 . S
C2037 C2036 1.377 . S
C2037 C2043 1.390 . S
C2038 H2029 0.930 . S
C2038 C2036 1.384 . S
C2038 C2039 1.372 . S
C2039 C2038 1.372 . S
C2039 C2040 1.400 . S
C2039 C2044 1.490 . S
C2040 H2030 0.930 . S
C2040 C2039 1.400 . S
C2040 C2043 1.386 . S
H2041 C2057 0.930 . S
H2042 C2058 0.931 . S
C2043 H2031 0.929 . S
C2043 C2037 1.390 . S
C2043 C2040 1.386 . S
C2044 C2039 1.490 . S
C2044 C2046 1.395 . S
C2044 C2047 1.403 . S
H2045 C2051 0.930 . S
C2046 H2032 0.930 . S
C2046 C2044 1.395 . S
C2046 C2049 1.403 . S
C2047 C2044 1.403 . S
C2047 C2048 1.524 . S
C2047 C2051 1.400 . S
C2048 H2033 0.960 . S
C2048 H2034 0.960 . S
C2048 H2035 0.960 . S
C2048 C2047 1.524 . S
C2049 C2046 1.403 . S
C2049 C2050 1.392 . S
C2049 C2053 1.495 . S
C2050 C2049 1.392 . S
C2050 C2051 1.385 . S
C2050 C2052 1.478 . S
C2051 H2045 0.930 . S
C2051 C2047 1.400 . S
C2051 C2050 1.385 . S
C2052 C2050 1.478 . S
C2052 C2054 1.381 . S
C2052 C2058 1.383 . S
C2053 C2049 1.495 . S
C2053 H2059 0.959 . S
C2053 H2060 0.961 . S
C2053 H2061 0.960 . S
C2054 C2052 1.381 . S
C2054 C2055 1.394 . S
C2054 H2062 0.930 . S
C2055 C2054 1.394 . S
C2055 C2056 1.383 . S
C2055 H2063 0.929 . S
C2056 C2055 1.383 . S
C2056 C2057 1.377 . S
C2057 H2041 0.930 . S
C2057 C2056 1.377 . S
C2057 C2058 1.379 . S
C2058 H2042 0.931 . S
C2058 C2052 1.383 . S
C2058 C2057 1.379 . S
H2059 C2053 0.959 . S
H2060 C2053 0.961 . S
H2061 C2053 0.960 . S
H2062 C2054 0.930 . S
H2063 C2055 0.929 . S
C345 C9 1.536 . S
C364 C107 1.531 . S
C381 C121 1.531 . S
C400 C23 1.517 . S
C417 C37 1.532 . S
C436 C135 1.548 . S
C453 C51 1.531 . S
C472 C149 1.520 . S
C489 C163 1.534 . S
C508 C65 1.511 . S
C525 C79 1.531 . S
C544 C93 1.548 . S
C561 C177 1.533 . S
C580 C275 1.546 . S
C597 C191 1.532 . S
C616 C289 1.547 . S
C633 C303 1.537 . S
C652 C205 1.523 . S
C669 C219 1.534 . S
C688 C317 1.542 . S
C705 C233 1.529 . S
C724 C331 1.530 . S
C741 C261 1.533 . S
C760 C247 1.545 . S
C777 C8 1.359 . S
C796 C120 1.361 . S
C813 C134 1.359 . S
C832 C22 1.355 . S
C849 C148 1.361 . S
C868 C36 1.367 . S
C885 C50 1.359 . S
C904 C162 1.353 . S
C921 C64 1.361 . S
C940 C92 1.366 . S
C957 C78 1.360 . S
C976 C106 1.350 . S
C993 C288 1.359 . S
C1012 C176 1.353 . S
C1029 C190 1.361 . S
C1048 C302 1.366 . S
C1065 C316 1.361 . S
C1084 C204 1.364 . S
C1101 C330 1.359 . S
C1120 C218 1.359 . S
C1137 C260 1.359 . S
C1156 C232 1.350 . S
C1173 C246 1.361 . S
C1192 C274 1.365 . S
C1209 C7 1.538 . S
C1228 C217 1.550 . S
C1245 C231 1.536 . S
C1264 C21 1.509 . S
C1281 C245 1.540 . S
C1300 C35 1.537 . S
C1317 C49 1.531 . S
C1336 C175 1.546 . S
C1353 C63 1.541 . S
C1372 C189 1.515 . S
C1389 C203 1.531 . S
C1408 C77 1.553 . S
C1425 C301 1.540 . S
C1444 C91 1.541 . S
C1461 C315 1.538 . S
C1480 C105 1.549 . S
C1497 C329 1.534 . S
C1516 C119 1.559 . S
C1533 C259 1.539 . S
C1552 C133 1.507 . S
C1569 C147 1.535 . S
C1588 C273 1.558 . S
C1605 C161 1.541 . S
C1624 C287 1.511 . S
C1641 C3 1.395 . S
C1660 C143 1.400 . S
C1677 C157 1.396 . S
C1696 C17 1.391 . S
C1713 C87 1.395 . S
C1732 C31 1.400 . S
C1749 C45 1.397 . S
C1768 C101 1.386 . S
C1785 C59 1.396 . S
C1804 C115 1.394 . S
C1821 C73 1.398 . S
C1840 C129 1.386 . S
C1857 C171 1.395 . S
C1876 C311 1.389 . S
C1893 C185 1.395 . S
C1912 C325 1.387 . S
C1929 C199 1.397 . S
C1948 C255 1.400 . S
C1965 C269 1.395 . S
C1984 C213 1.388 . S
C2001 C227 1.395 . S
C2020 C283 1.389 . S
C2037 C241 1.398 . S
C2056 C297 1.401 . S
