# Generated by pormake.
# Topology acs-i, (5)-cn, num edge types: 1
# Building blocks:
#     Node 0, Type 0, BuildingBlock: XOMCOT_clean_sbu_0, # of connection points: 5
#     Node 1, Type 0, BuildingBlock: XOMCOT_clean_sbu_0, # of connection points: 5
#     Node 2, Type 0, BuildingBlock: XOMCOT_clean_sbu_0, # of connection points: 5
#     Node 3, Type 0, BuildingBlock: XOMCOT_clean_sbu_0, # of connection points: 5
#     Node 4, Type 0, BuildingBlock: XOMCOT_clean_sbu_0, # of connection points: 5
#     Node 5, Type 0, BuildingBlock: XOMCOT_clean_sbu_0, # of connection points: 5
#     Node 6, Type 0, BuildingBlock: XOMCOT_clean_sbu_0, # of connection points: 5
#     Node 7, Type 0, BuildingBlock: XOMCOT_clean_sbu_0, # of connection points: 5
#     Node 8, Type 0, BuildingBlock: XOMCOT_clean_sbu_0, # of connection points: 5
#     Node 9, Type 0, BuildingBlock: XOMCOT_clean_sbu_0, # of connection points: 5
#     Node 10, Type 0, BuildingBlock: XOMCOT_clean_sbu_0, # of connection points: 5
#     Node 11, Type 0, BuildingBlock: XOMCOT_clean_sbu_0, # of connection points: 5
#     Edge 12, Type (0, 0), BuildingBlock: KIFKEQ_clean_linker_1, # of connection points: 2
#     Edge 13, Type (0, 0), BuildingBlock: KIFKEQ_clean_linker_1, # of connection points: 2
#     Edge 14, Type (0, 0), BuildingBlock: KIFKEQ_clean_linker_1, # of connection points: 2
#     Edge 15, Type (0, 0), BuildingBlock: KIFKEQ_clean_linker_1, # of connection points: 2
#     Edge 16, Type (0, 0), BuildingBlock: KIFKEQ_clean_linker_1, # of connection points: 2
#     Edge 17, Type (0, 0), BuildingBlock: KIFKEQ_clean_linker_1, # of connection points: 2
#     Edge 18, Type (0, 0), BuildingBlock: KIFKEQ_clean_linker_1, # of connection points: 2
#     Edge 19, Type (0, 0), BuildingBlock: KIFKEQ_clean_linker_1, # of connection points: 2
#     Edge 20, Type (0, 0), BuildingBlock: KIFKEQ_clean_linker_1, # of connection points: 2
#     Edge 21, Type (0, 0), BuildingBlock: KIFKEQ_clean_linker_1, # of connection points: 2
#     Edge 22, Type (0, 0), BuildingBlock: KIFKEQ_clean_linker_1, # of connection points: 2
#     Edge 23, Type (0, 0), BuildingBlock: KIFKEQ_clean_linker_1, # of connection points: 2
#     Edge 24, Type (0, 0), BuildingBlock: KIFKEQ_clean_linker_1, # of connection points: 2
#     Edge 25, Type (0, 0), BuildingBlock: KIFKEQ_clean_linker_1, # of connection points: 2
#     Edge 26, Type (0, 0), BuildingBlock: KIFKEQ_clean_linker_1, # of connection points: 2
#     Edge 27, Type (0, 0), BuildingBlock: KIFKEQ_clean_linker_1, # of connection points: 2
#     Edge 28, Type (0, 0), BuildingBlock: KIFKEQ_clean_linker_1, # of connection points: 2
#     Edge 29, Type (0, 0), BuildingBlock: KIFKEQ_clean_linker_1, # of connection points: 2
#     Edge 30, Type (0, 0), BuildingBlock: KIFKEQ_clean_linker_1, # of connection points: 2
#     Edge 31, Type (0, 0), BuildingBlock: KIFKEQ_clean_linker_1, # of connection points: 2
#     Edge 32, Type (0, 0), BuildingBlock: KIFKEQ_clean_linker_1, # of connection points: 2
#     Edge 33, Type (0, 0), BuildingBlock: KIFKEQ_clean_linker_1, # of connection points: 2
#     Edge 34, Type (0, 0), BuildingBlock: KIFKEQ_clean_linker_1, # of connection points: 2
#     Edge 35, Type (0, 0), BuildingBlock: KIFKEQ_clean_linker_1, # of connection points: 2
#     Edge 36, Type (0, 0), BuildingBlock: KIFKEQ_clean_linker_1, # of connection points: 2
#     Edge 37, Type (0, 0), BuildingBlock: KIFKEQ_clean_linker_1, # of connection points: 2
#     Edge 38, Type (0, 0), BuildingBlock: KIFKEQ_clean_linker_1, # of connection points: 2
#     Edge 39, Type (0, 0), BuildingBlock: KIFKEQ_clean_linker_1, # of connection points: 2
#     Edge 40, Type (0, 0), BuildingBlock: KIFKEQ_clean_linker_1, # of connection points: 2
#     Edge 41, Type (0, 0), BuildingBlock: KIFKEQ_clean_linker_1, # of connection points: 2
# Relax obj value: 0.846
# Max RMSD: 0.232
# Mean RMSD: 0.232
data_MOF--net-acs-i--node1-XOMCOT_clean_sbu_0--edge1-KIFKEQ_clean_linker_1
_symmetry_space_group_name_H-M    P1
_symmetry_Int_Tables_number       1
_symmetry_cell_setting            triclinic
loop_
_symmetry_equiv_pos_as_xyz
'x, y, z'
_cell_length_a     53.106438
_cell_length_b     53.128172
_cell_length_c     36.105523
_cell_angle_alpha  89.966637
_cell_angle_beta   90.042214
_cell_angle_gamma 120.03039
loop_
_atom_site_label
_atom_site_type_symbol
_atom_site_fract_x
_atom_site_fract_y
_atom_site_fract_z
_atom_type_partial_charge
Co0 Co 0.29593 0.48641 0.07621 0.0
C1 C 0.33578 0.49199 0.13817 0.0
C2 C 0.35164 0.48773 0.08547 0.0
C3 C 0.37242 0.49285 0.11173 0.0
N4 N 0.32854 0.48719 0.10195 0.0
N5 N 0.36243 0.49564 0.14482 0.0
H6 H 0.32295 0.49487 0.1591 0.0
H7 H 0.35428 0.48643 0.05604 0.0
C8 C 0.32432 0.52443 0.00805 0.0
O9 O 0.30075 0.51113 0.98764 0.0
N10 N 0.26383 0.48592 0.05029 0.0
C11 C 0.23844 0.46283 0.03936 0.0
C12 C 0.22184 0.47282 0.02218 0.0
C13 C 0.26203 0.50944 0.04062 0.0
N14 N 0.23706 0.50207 0.02264 0.0
C15 C 0.27313 0.42584 0.06528 0.0
C16 C 0.30685 0.42951 0.00522 0.0
C17 C 0.29176 0.40315 0.02449 0.0
C18 C 0.27348 0.4011 0.05352 0.0
C19 C 0.30575 0.45383 0.01778 0.0
N20 N 0.29034 0.45224 0.04887 0.0
H21 H 0.26004 0.42373 0.08909 0.0
H22 H 0.31951 0.47412 0.00416 0.0
H23 H 0.2323 0.44033 0.04338 0.0
H24 H 0.27902 0.5316 0.04588 0.0
O25 O 0.27035 0.467 0.11754 0.0
O26 O 0.29626 0.51465 0.11082 0.0
O27 O 0.32531 0.51556 0.04058 0.0
C28 C 0.2777 0.49256 0.13044 0.0
H29 H 0.39374 0.49564 0.10656 0.0
H30 H 0.20066 0.45973 0.00961 0.0
H31 H 0.32135 0.43207 0.98263 0.0
H32 H 0.26093 0.38093 0.06861 0.0
Co33 Co 0.78816 0.30846 0.565 0.0
C34 C 0.82957 0.35354 0.61796 0.0
C35 C 0.79457 0.36016 0.60048 0.0
C36 C 0.81285 0.38297 0.62258 0.0
N37 N 0.80528 0.34205 0.59693 0.0
N38 N 0.83482 0.37889 0.63336 0.0
H39 H 0.84324 0.34395 0.62141 0.0
H40 H 0.7748 0.35704 0.58765 0.0
C41 C 0.78525 0.3379 0.49463 0.0
O42 O 0.79487 0.32385 0.47459 0.0
N43 N 0.76919 0.27469 0.53281 0.0
C44 C 0.76805 0.24872 0.53523 0.0
C45 C 0.74664 0.22921 0.51159 0.0
C46 C 0.74792 0.27011 0.50876 0.0
N47 N 0.73446 0.24308 0.49465 0.0
C48 C 0.83759 0.30357 0.54442 0.0
C49 C 0.87173 0.36082 0.52276 0.0
C50 C 0.88437 0.34325 0.52573 0.0
C51 C 0.86679 0.31405 0.53575 0.0
C52 C 0.84269 0.34961 0.53208 0.0
N53 N 0.82589 0.32129 0.54274 0.0
H54 H 0.82508 0.28179 0.55498 0.0
H55 H 0.83436 0.36439 0.53306 0.0
H56 H 0.77995 0.24336 0.55492 0.0
H57 H 0.74013 0.28517 0.50444 0.0
O58 O 0.79069 0.28544 0.60414 0.0
O59 O 0.75331 0.29245 0.59515 0.0
O60 O 0.77976 0.33238 0.5291 0.0
C61 C 0.76571 0.28137 0.61545 0.0
H62 H 0.8099 0.40089 0.631 0.0
H63 H 0.73941 0.20629 0.50881 0.0
H64 H 0.88448 0.38349 0.51491 0.0
H65 H 0.87586 0.29991 0.53911 0.0
Co66 Co 0.49332 0.80797 0.07076 0.0
C67 C 0.49153 0.84394 0.13324 0.0
C68 C 0.491 0.86181 0.08033 0.0
C69 C 0.48772 0.87826 0.1072 0.0
N70 N 0.49326 0.8401 0.09655 0.0
N71 N 0.48796 0.8669 0.14044 0.0
H72 H 0.49103 0.82937 0.15441 0.0
H73 H 0.49017 0.86477 0.05087 0.0
C74 C 0.45535 0.79908 0.00273 0.0
O75 O 0.46661 0.78639 0.98301 0.0
N76 N 0.49317 0.77603 0.04489 0.0
C77 C 0.51627 0.77312 0.03605 0.0
C78 C 0.50637 0.74539 0.0228 0.0
C79 C 0.46961 0.74999 0.03741 0.0
N80 N 0.47711 0.73119 0.02336 0.0
C81 C 0.55396 0.84489 0.05968 0.0
C82 C 0.5504 0.87772 0.0029 0.0
C83 C 0.57648 0.8884 0.0227 0.0
C84 C 0.57859 0.8708 0.04977 0.0
C85 C 0.52616 0.85146 0.01361 0.0
N86 N 0.52762 0.83634 0.04342 0.0
H87 H 0.556 0.83288 0.08235 0.0
H88 H 0.50594 0.84526 -8e-05 0.0
H89 H 0.53876 0.78945 0.04024 0.0
H90 H 0.44746 0.74463 0.04312 0.0
O91 O 0.51259 0.80146 0.11182 0.0
O92 O 0.46492 0.78034 0.10566 0.0
O93 O 0.46473 0.80893 0.03509 0.0
C94 C 0.48703 0.78355 0.12499 0.0
H95 H 0.48425 0.89643 0.10254 0.0
H96 H 0.51953 0.73615 0.01409 0.0
H97 H 0.54794 0.89071 0.98163 0.0
H98 H 0.5986 0.87801 0.0651 0.0
Co99 Co 0.69201 0.48832 0.56007 0.0
C100 C 0.65272 0.48794 0.61953 0.0
C101 C 0.64862 0.44612 0.60935 0.0
C102 C 0.62871 0.4428 0.63577 0.0
N103 N 0.66343 0.47422 0.59894 0.0
N104 N 0.63133 0.46896 0.64196 0.0
H105 H 0.65979 0.51086 0.6175 0.0
H106 H 0.65181 0.4291 0.59792 0.0
C107 C 0.65526 0.45182 0.49611 0.0
O108 O 0.66794 0.47417 0.47354 0.0
N109 N 0.7207 0.50064 0.52087 0.0
C110 C 0.74486 0.52654 0.51458 0.0
C111 C 0.76198 0.5227 0.48893 0.0
C112 C 0.72399 0.4816 0.49979 0.0
N113 N 0.74855 0.49435 0.47954 0.0
C114 C 0.69348 0.5415 0.54094 0.0
C115 C 0.63539 0.5162 0.52195 0.0
C116 C 0.65295 0.54641 0.52022 0.0
C117 C 0.68224 0.55919 0.53028 0.0
C118 C 0.64734 0.49944 0.53343 0.0
N119 N 0.67635 0.51195 0.54125 0.0
H120 H 0.71561 0.55169 0.55051 0.0
H121 H 0.63286 0.47645 0.53746 0.0
H122 H 0.75131 0.54629 0.52984 0.0
H123 H 0.71019 0.45828 0.50224 0.0
O124 O 0.72045 0.51585 0.59408 0.0
O125 O 0.71148 0.47078 0.58542 0.0
O126 O 0.66364 0.45396 0.52973 0.0
C127 C 0.72546 0.49514 0.60365 0.0
H128 H 0.61322 0.42272 0.64922 0.0
H129 H 0.78355 0.53902 0.4801 0.0
H130 H 0.61232 0.5057 0.51597 0.0
H131 H 0.69618 0.58261 0.53037 0.0
Co132 Co 0.19768 0.68113 0.08976 0.0
C133 C 0.1548 0.63236 0.1365 0.0
C134 C 0.18217 0.62102 0.10546 0.0
C135 C 0.1629 0.59722 0.12556 0.0
N136 N 0.17696 0.64297 0.11204 0.0
N137 N 0.14572 0.60432 0.14509 0.0
H138 H 0.14589 0.645 0.1482 0.0
H139 H 0.19927 0.62227 0.08797 0.0
C140 C 0.20349 0.66151 0.01298 0.0
O141 O 0.18993 0.67361 0.99705 0.0
N142 N 0.21996 0.71936 0.06704 0.0
C143 C 0.22301 0.74498 0.07845 0.0
C144 C 0.2466 0.7674 0.06068 0.0
C145 C 0.24216 0.72685 0.04318 0.0
N146 N 0.2584 0.75578 0.03836 0.0
C147 C 0.15208 0.69294 0.07144 0.0
C148 C 0.1155 0.63926 0.04018 0.0
C149 C 0.10499 0.65835 0.0466 0.0
C150 C 0.12386 0.6858 0.06151 0.0
C151 C 0.14383 0.64729 0.05036 0.0
N152 N 0.1618 0.67382 0.06597 0.0
H153 H 0.16531 0.71307 0.08581 0.0
H154 H 0.15083 0.6315 0.04726 0.0
H155 H 0.21091 0.74761 0.10067 0.0
H156 H 0.24874 0.71193 0.03291 0.0
O157 O 0.19388 0.69815 0.13501 0.0
O158 O 0.23033 0.69048 0.12206 0.0
O159 O 0.2082 0.66346 0.04778 0.0
C160 C 0.21796 0.69952 0.14558 0.0
H161 H 0.16272 0.57679 0.1274 0.0
H162 H 0.25564 0.79041 0.06587 0.0
H163 H 0.10159 0.61785 0.0286 0.0
H164 H 0.11636 0.70092 0.06762 0.0
Co165 Co 0.51793 0.21148 0.54984 0.0
C166 C 0.5299 0.17916 0.608 0.0
C167 C 0.56864 0.2114 0.58047 0.0
C168 C 0.57626 0.19665 0.605 0.0
N169 N 0.5396 0.20018 0.58193 0.0
N170 N 0.55196 0.17645 0.62211 0.0
H171 H 0.50729 0.16579 0.61579 0.0
H172 H 0.58331 0.22898 0.56257 0.0
C173 C 0.54553 0.21247 0.47688 0.0
O174 O 0.51973 0.19617 0.46207 0.0
N175 N 0.49768 0.22456 0.51724 0.0
C176 C 0.47133 0.22229 0.52132 0.0
C177 C 0.47013 0.24297 0.49935 0.0
C178 C 0.51198 0.24678 0.49341 0.0
N179 N 0.49584 0.25833 0.48181 0.0
C180 C 0.46584 0.15679 0.53761 0.0
C181 C 0.49396 0.12701 0.51721 0.0
C182 C 0.46378 0.11151 0.52224 0.0
C183 C 0.4496 0.1268 0.53196 0.0
C184 C 0.50932 0.1568 0.52347 0.0
N185 N 0.4953 0.1715 0.53309 0.0
H186 H 0.45486 0.16773 0.54785 0.0
H187 H 0.53276 0.16781 0.52217 0.0
H188 H 0.45541 0.20936 0.54204 0.0
H189 H 0.5352 0.25728 0.48898 0.0
O190 O 0.49385 0.2094 0.59082 0.0
O191 O 0.5355 0.24858 0.57505 0.0
O192 O 0.5482 0.22086 0.51052 0.0
C193 C 0.51346 0.2362 0.59769 0.0
H194 H 0.59805 0.20072 0.61039 0.0
H195 H 0.45293 0.24828 0.49941 0.0
H196 H 0.50583 0.11613 0.50958 0.0
H197 H 0.42639 0.11553 0.53707 0.0
Co198 Co 0.47404 0.67915 0.43443 0.0
C199 C 0.46063 0.63105 0.38159 0.0
C200 C 0.42368 0.62317 0.41453 0.0
C201 C 0.41564 0.59966 0.39192 0.0
N202 N 0.45195 0.64268 0.40848 0.0
N203 N 0.4388 0.60462 0.37131 0.0
H204 H 0.48225 0.64166 0.36974 0.0
H205 H 0.40955 0.62589 0.43362 0.0
C206 C 0.4482 0.65731 0.51032 0.0
O207 O 0.47396 0.6664 0.52504 0.0
N208 N 0.49487 0.71598 0.46086 0.0
C209 C 0.51943 0.74068 0.45123 0.0
C210 C 0.52244 0.76318 0.47355 0.0
C211 C 0.4832 0.72421 0.4881 0.0
N212 N 0.49969 0.75246 0.49699 0.0
C213 C 0.52801 0.68185 0.45045 0.0
C214 C 0.50434 0.62614 0.47841 0.0
C215 C 0.53455 0.64282 0.47366 0.0
C216 C 0.54635 0.67114 0.4598 0.0
C217 C 0.48677 0.63755 0.46822 0.0
N218 N 0.49866 0.66531 0.45503 0.0
H219 H 0.5374 0.7029 0.43761 0.0
H220 H 0.46347 0.62375 0.47025 0.0
H221 H 0.53303 0.74298 0.42774 0.0
H222 H 0.46136 0.71092 0.49842 0.0
O223 O 0.49611 0.69655 0.39038 0.0
O224 O 0.45476 0.69506 0.40477 0.0
O225 O 0.44534 0.66197 0.47629 0.0
C226 C 0.47588 0.70231 0.38111 0.0
H227 H 0.39405 0.58086 0.38959 0.0
H228 H 0.53887 0.78589 0.47103 0.0
H229 H 0.49419 0.60418 0.48915 0.0
H230 H 0.56943 0.6845 0.45448 0.0
Co231 Co 0.81383 0.49438 0.91902 0.0
C232 C 0.85472 0.4918 0.86444 0.0
C233 C 0.85258 0.46962 0.91482 0.0
C234 C 0.86929 0.46488 0.88998 0.0
N235 N 0.84308 0.4863 0.8988 0.0
N236 N 0.87039 0.47848 0.85796 0.0
H237 H 0.85066 0.50412 0.84395 0.0
H238 H 0.84644 0.45979 0.9419 0.0
C239 C 0.79315 0.457 0.98779 0.0
O240 O 0.79351 0.47788 0.00764 0.0
N241 N 0.78401 0.5012 0.93949 0.0
C242 C 0.78516 0.52566 0.95213 0.0
C243 C 0.75806 0.51864 0.96556 0.0
C244 C 0.7563 0.47997 0.94483 0.0
N245 N 0.74008 0.48981 0.96125 0.0
C246 C 0.85553 0.55156 0.94268 0.0
C247 C 0.88143 0.5355 0.99684 0.0
C248 C 0.89454 0.56481 0.98657 0.0
C249 C 0.88079 0.57286 0.95986 0.0
C250 C 0.85618 0.5149 0.97899 0.0
N251 N 0.84352 0.52288 0.95195 0.0
H252 H 0.84641 0.55819 0.92062 0.0
H253 H 0.84837 0.49246 0.98546 0.0
H254 H 0.80406 0.54709 0.95221 0.0
H255 H 0.74829 0.45756 0.93704 0.0
O256 O 0.81852 0.51949 0.87746 0.0
O257 O 0.78743 0.47217 0.87947 0.0
O258 O 0.8015 0.46097 0.95415 0.0
C259 C 0.79829 0.49639 0.86101 0.0
H260 H 0.87781 0.45042 0.89449 0.0
H261 H 0.75227 0.53349 0.97828 0.0
H262 H 0.89171 0.52812 0.01659 0.0
H263 H 0.89016 0.59528 0.95108 0.0
Co264 Co 0.3274 0.79755 0.45051 0.0
C265 C 0.37079 0.83231 0.39261 0.0
C266 C 0.38285 0.80549 0.42382 0.0
C267 C 0.40449 0.82131 0.39881 0.0
N268 N 0.3619 0.81261 0.42027 0.0
N269 N 0.3969 0.83809 0.37928 0.0
H270 H 0.35848 0.84208 0.38242 0.0
H271 H 0.38241 0.7896 0.4429 0.0
C272 C 0.35186 0.79408 0.52433 0.0
O273 O 0.34052 0.80835 0.54024 0.0
N274 N 0.2929 0.78096 0.48144 0.0
C275 C 0.2694 0.78445 0.4815 0.0
C276 C 0.24855 0.76386 0.5047 0.0
C277 C 0.28549 0.75785 0.50347 0.0
N278 N 0.25894 0.74727 0.51866 0.0
C279 C 0.32611 0.84998 0.46445 0.0
C280 C 0.38159 0.88087 0.49346 0.0
C281 C 0.36557 0.89502 0.4883 0.0
C282 C 0.3374 0.87914 0.47376 0.0
C283 C 0.36961 0.85185 0.48333 0.0
N284 N 0.34178 0.83638 0.4702 0.0
H285 H 0.30551 0.839 0.45041 0.0
H286 H 0.38322 0.84216 0.48489 0.0
H287 H 0.2662 0.799 0.46388 0.0
H288 H 0.29824 0.74718 0.50554 0.0
O289 O 0.30585 0.79989 0.4091 0.0
O290 O 0.31059 0.7617 0.42228 0.0
O291 O 0.34813 0.78795 0.48985 0.0
C292 C 0.30053 0.774 0.40011 0.0
H293 H 0.42379 0.8197 0.39418 0.0
H294 H 0.22684 0.76028 0.50903 0.0
H295 H 0.40355 0.89229 0.50431 0.0
H296 H 0.32471 0.88948 0.46778 0.0
Co297 Co 0.49045 0.32108 0.90662 0.0
C298 C 0.50108 0.36506 0.84792 0.0
C299 C 0.48977 0.3757 0.9002 0.0
C300 C 0.49687 0.39839 0.87619 0.0
N301 N 0.49241 0.35474 0.88253 0.0
N302 N 0.50394 0.3916 0.84338 0.0
H303 H 0.50718 0.35455 0.82708 0.0
H304 H 0.48448 0.3752 0.92921 0.0
C305 C 0.53092 0.34797 0.97349 0.0
O306 O 0.52125 0.3232 0.99108 0.0
N307 N 0.48857 0.28777 0.93109 0.0
C308 C 0.46468 0.26398 0.94393 0.0
C309 C 0.4728 0.24501 0.95809 0.0
C310 C 0.51065 0.28249 0.93632 0.0
N311 N 0.50176 0.25682 0.95354 0.0
C312 C 0.43345 0.31135 0.91253 0.0
C313 C 0.43116 0.31548 0.98856 0.0
C314 C 0.40778 0.31255 0.96704 0.0
C315 C 0.409 0.30988 0.92856 0.0
C316 C 0.45552 0.3172 0.97123 0.0
N317 N 0.45663 0.31579 0.93359 0.0
H318 H 0.43444 0.31042 0.88272 0.0
H319 H 0.47335 0.31988 0.98811 0.0
H320 H 0.44281 0.26048 0.94295 0.0
H321 H 0.53282 0.29735 0.92794 0.0
O322 O 0.47073 0.29636 0.86472 0.0
O323 O 0.51861 0.32181 0.87205 0.0
O324 O 0.51903 0.34951 0.94347 0.0
C325 C 0.49645 0.30383 0.85201 0.0
H326 H 0.49787 0.41876 0.88275 0.0
H327 H 0.45851 0.22432 0.97114 0.0
H328 H 0.43098 0.31711 0.01844 0.0
H329 H 0.39195 0.30826 0.91054 0.0
Co330 Co 0.1935 0.51539 0.44024 0.0
C331 C 0.15006 0.51495 0.38758 0.0
C332 C 0.18021 0.55762 0.4081 0.0
C333 C 0.16068 0.55972 0.38542 0.0
N334 N 0.17327 0.52957 0.41006 0.0
N335 N 0.14176 0.53297 0.3726 0.0
H336 H 0.13987 0.49191 0.38181 0.0
H337 H 0.19874 0.57555 0.42141 0.0
C338 C 0.19945 0.54874 0.51085 0.0
O339 O 0.19213 0.52574 0.53152 0.0
N340 N 0.21521 0.50265 0.47062 0.0
C341 C 0.21603 0.47763 0.46967 0.0
C342 C 0.23895 0.48083 0.49132 0.0
C343 C 0.23814 0.52075 0.49166 0.0
N344 N 0.25246 0.50792 0.50544 0.0
C345 C 0.14572 0.46043 0.46281 0.0
C346 C 0.1121 0.48265 0.48958 0.0
C347 C 0.09959 0.45252 0.48569 0.0
C348 C 0.11696 0.44134 0.47312 0.0
C349 C 0.14061 0.50086 0.47841 0.0
N350 N 0.15722 0.48981 0.46532 0.0
H351 H 0.15785 0.45152 0.4501 0.0
H352 H 0.14847 0.5239 0.47783 0.0
H353 H 0.20268 0.45914 0.45228 0.0
H354 H 0.24599 0.54377 0.4942 0.0
O355 O 0.19052 0.48961 0.40106 0.0
O356 O 0.22677 0.53494 0.40747 0.0
O357 O 0.20243 0.54801 0.47581 0.0
C358 C 0.21454 0.51101 0.38808 0.0
H359 H 0.16143 0.57965 0.37701 0.0
H360 H 0.24608 0.4651 0.49472 0.0
H361 H 0.09951 0.49225 0.49932 0.0
H362 H 0.10794 0.41821 0.46891 0.0
Co363 Co 0.67639 0.17932 0.92551 0.0
C364 C 0.63964 0.15014 0.85921 0.0
C365 C 0.62209 0.12531 0.90878 0.0
C366 C 0.60255 0.11163 0.88042 0.0
N367 N 0.64541 0.14952 0.89549 0.0
N368 N 0.61374 0.12734 0.84933 0.0
H369 H 0.65293 0.16776 0.84064 0.0
H370 H 0.61888 0.11874 0.93755 0.0
C371 C 0.64306 0.18916 0.98798 0.0
O372 O 0.66549 0.20177 0.01038 0.0
N373 N 0.70671 0.2091 0.95561 0.0
C374 C 0.7296 0.20928 0.9721 0.0
C375 C 0.74598 0.2357 0.98981 0.0
C376 C 0.70992 0.23544 0.96239 0.0
N377 N 0.73315 0.25176 0.984 0.0
C378 C 0.68421 0.13103 0.93191 0.0
C379 C 0.67172 0.11947 0.00627 0.0
C380 C 0.67591 0.09989 0.98462 0.0
C381 C 0.68292 0.10643 0.94713 0.0
C382 C 0.67294 0.14388 0.98969 0.0
N383 N 0.67831 0.14886 0.95269 0.0
H384 H 0.68829 0.13484 0.90257 0.0
H385 H 0.6691 0.15823 0.00654 0.0
H386 H 0.73413 0.19158 0.97131 0.0
H387 H 0.69512 0.24232 0.9522 0.0
O388 O 0.70508 0.18601 0.88825 0.0
O389 O 0.68004 0.20906 0.89125 0.0
O390 O 0.64456 0.17803 0.95729 0.0
C391 C 0.69943 0.20517 0.87415 0.0
H392 H 0.5814 0.09226 0.88275 0.0
H393 H 0.76544 0.2424 0.00609 0.0
H394 H 0.66678 0.11562 0.03552 0.0
H395 H 0.68573 0.09185 0.92891 0.0
H396 H 0.35005 0.28473 0.94687 0.0
H397 H 0.41141 0.34816 0.02394 0.0
H398 H 0.31446 0.29912 0.96354 0.0
H399 H 0.37541 0.36126 0.04161 0.0
H400 H 0.29794 0.38102 0.95867 0.0
H401 H 0.31948 0.35008 0.95005 0.0
H402 H 0.3241 0.34267 0.06861 0.0
H403 H 0.30289 0.37362 0.07733 0.0
C404 C 0.35579 0.30128 0.96787 0.0
C405 C 0.38387 0.31571 0.98349 0.0
C406 C 0.33533 0.30933 0.97748 0.0
C407 C 0.34235 0.3314 0.00357 0.0
C408 C 0.36938 0.34397 0.02161 0.0
C409 C 0.39001 0.33632 0.01155 0.0
C410 C 0.30292 0.37218 0.98281 0.0
C411 C 0.29889 0.37985 0.01861 0.0
C412 C 0.31499 0.35431 0.97791 0.0
C413 C 0.32351 0.34418 0.00874 0.0
C414 C 0.31772 0.35028 0.04447 0.0
C415 C 0.30541 0.36785 0.04936 0.0
H416 H 0.92622 0.39547 0.55204 0.0
H417 H 0.91445 0.3201 0.49148 0.0
H418 H 0.97841 0.41901 0.54215 0.0
H419 H 0.96735 0.34372 0.48266 0.0
H420 H 0.07052 0.39833 0.51797 0.0
H421 H 0.01778 0.36831 0.52799 0.0
H422 H 0.00503 0.43392 0.47505 0.0
H423 H 0.05694 0.46326 0.46386 0.0
C424 C 0.93476 0.38395 0.53652 0.0
C425 C 0.91619 0.35625 0.52166 0.0
C426 C 0.96462 0.39732 0.53124 0.0
C427 C 0.97658 0.38315 0.51146 0.0
C428 C 0.95839 0.3549 0.49811 0.0
C429 C 0.92828 0.34151 0.5031 0.0
C430 C 0.05635 0.4061 0.50813 0.0
C431 C 0.06791 0.43346 0.49096 0.0
C432 C 0.02634 0.38897 0.51383 0.0
C433 C 0.00774 0.39917 0.50263 0.0
C434 C 0.01916 0.42593 0.48439 0.0
C435 C 0.04888 0.4428 0.47837 0.0
H436 H 0.63372 0.0651 0.03413 0.0
H437 H 0.70328 0.06902 0.96744 0.0
H438 H 0.61662 0.01421 0.04735 0.0
H439 H 0.68485 0.01742 0.97921 0.0
H440 H 0.60203 0.92609 0.07949 0.0
H441 H 0.63315 0.97874 0.07597 0.0
H442 H 0.63251 0.97368 0.95665 0.0
H443 H 0.60105 0.92072 0.96004 0.0
C444 C 0.64592 0.05547 0.02313 0.0
C445 C 0.66963 0.07115 0.99919 0.0
C446 C 0.63596 0.02621 0.03055 0.0
C447 C 0.64925 0.01199 0.01382 0.0
C448 C 0.67409 0.02796 0.99198 0.0
C449 C 0.68446 0.0574 0.98516 0.0
C450 C 0.60922 0.93608 0.0525 0.0
C451 C 0.5992 0.91936 0.01996 0.0
C452 C 0.62687 0.96618 0.05058 0.0
C453 C 0.63513 0.98007 0.01611 0.0
C454 C 0.62659 0.9633 0.98357 0.0
C455 C 0.60851 0.93314 0.98546 0.0
H456 H 0.65479 0.59073 0.56001 0.0
H457 H 0.62126 0.54167 0.45902 0.0
H458 H 0.62743 0.6156 0.54817 0.0
H459 H 0.59486 0.56729 0.44609 0.0
H460 H 0.52228 0.5873 0.45953 0.0
H461 H 0.55304 0.56636 0.46995 0.0
H462 H 0.62142 0.64911 0.51069 0.0
H463 H 0.5897 0.66959 0.50276 0.0
C464 C 0.64209 0.58587 0.53481 0.0
C465 C 0.63987 0.56428 0.51048 0.0
C466 C 0.62647 0.6001 0.52796 0.0
C467 C 0.60864 0.59318 0.49641 0.0
C468 C 0.60776 0.5726 0.47114 0.0
C469 C 0.62301 0.5581 0.4783 0.0
C470 C 0.54365 0.60094 0.4714 0.0
C471 C 0.55341 0.6301 0.48057 0.0
C472 C 0.56155 0.58907 0.47669 0.0
C473 C 0.58985 0.60614 0.49078 0.0
C474 C 0.59967 0.6353 0.50001 0.0
C475 C 0.58159 0.64713 0.49509 0.0
H476 H 0.0811 0.68813 0.01384 0.0
H477 H 0.05868 0.60678 0.06724 0.0
H478 H 0.02933 0.67106 0.00396 0.0
H479 H 0.00738 0.58959 0.05678 0.0
H480 H 0.9164 0.57078 0.05679 0.0
H481 H 0.9675 0.59809 0.0751 0.0
H482 H 0.99088 0.63286 0.96431 0.0
H483 H 0.94004 0.60559 0.94598 0.0
C484 C 0.06511 0.66671 0.02359 0.0
C485 C 0.07385 0.64861 0.04085 0.0
C486 C 0.03557 0.65693 0.01788 0.0
C487 C 0.01434 0.62906 0.02976 0.0
C488 C 0.02317 0.61133 0.0478 0.0
C489 C 0.05258 0.62099 0.05325 0.0
C490 C 0.93242 0.58464 0.03656 0.0
C491 C 0.92422 0.58575 0.99986 0.0
C492 C 0.96163 0.60024 0.04701 0.0
C493 C 0.98318 0.61725 0.02097 0.0
C494 C 0.97475 0.62011 0.98506 0.0
C495 C 0.94556 0.60448 0.97459 0.0
H496 H 0.42142 0.93721 0.4738 0.0
H497 H 0.34004 0.92448 0.51755 0.0
H498 H 0.44371 0.98918 0.48444 0.0
H499 H 0.36242 0.97697 0.52711 0.0
H500 H 0.4101 0.0762 0.49147 0.0
H501 H 0.38481 0.02318 0.48558 0.0
H502 H 0.45597 0.02164 0.54138 0.0
H503 H 0.48087 0.07423 0.54809 0.0
C504 C 0.40836 0.94541 0.48614 0.0
C505 C 0.37903 0.92663 0.49524 0.0
C506 C 0.42112 0.9752 0.492 0.0
C507 C 0.40476 0.98692 0.50672 0.0
C508 C 0.37538 0.96836 0.5155 0.0
C509 C 0.36263 0.93841 0.50998 0.0
C510 C 0.42013 0.06447 0.50286 0.0
C511 C 0.44768 0.07941 0.51967 0.0
C512 C 0.40568 0.03422 0.49951 0.0
C513 C 0.41866 0.01853 0.51273 0.0
C514 C 0.44577 0.03336 0.53041 0.0
C515 C 0.46007 0.06346 0.53402 0.0
H516 H 0.27095 0.54681 0.97845 0.0
H517 H 0.18619 0.50157 0.02866 0.0
H518 H 0.26218 0.58572 0.95845 0.0
H519 H 0.17722 0.54067 0.00961 0.0
H520 H 0.2548 0.66325 0.00968 0.0
H521 H 0.26138 0.62193 0.99801 0.0
H522 H 0.17173 0.57139 0.96273 0.0
H523 H 0.16535 0.61332 0.97473 0.0
C524 C 0.25034 0.54524 0.9848 0.0
C525 C 0.22955 0.52186 0.00578 0.0
C526 C 0.24519 0.5673 0.97325 0.0
C527 C 0.2192 0.56654 0.98293 0.0
C528 C 0.19739 0.54184 0.00139 0.0
C529 C 0.20251 0.51956 0.01258 0.0
C530 C 0.23696 0.64375 0.9977 0.0
C531 C 0.20969 0.64135 0.99283 0.0
C532 C 0.24064 0.61998 0.99102 0.0
C533 C 0.21694 0.5932 0.97985 0.0
C534 C 0.19029 0.59167 0.97167 0.0
C535 C 0.18673 0.61571 0.97798 0.0
H536 H 0.55221 0.16993 0.44481 0.0
H537 H 0.59773 0.26133 0.47144 0.0
H538 H 0.59884 0.17219 0.43312 0.0
H539 H 0.644 0.26388 0.45908 0.0
H540 H 0.68475 0.19208 0.50587 0.0
H541 H 0.63675 0.18115 0.48392 0.0
H542 H 0.67684 0.25733 0.41408 0.0
H543 H 0.72471 0.26818 0.43627 0.0
C544 C 0.57213 0.19075 0.44637 0.0
C545 C 0.57162 0.21554 0.45878 0.0
C546 C 0.59873 0.19198 0.44 0.0
C547 C 0.625 0.21817 0.4452 0.0
C548 C 0.62413 0.24346 0.45431 0.0
C549 C 0.59769 0.24207 0.46145 0.0
C550 C 0.6833 0.2056 0.48449 0.0
C551 C 0.70822 0.23121 0.47316 0.0
C552 C 0.65585 0.19939 0.47188 0.0
C553 C 0.65312 0.21874 0.4478 0.0
C554 C 0.67834 0.24229 0.43298 0.0
C555 C 0.70566 0.24846 0.4456 0.0
H556 H 0.4766 0.68476 0.05309 0.0
H557 H 0.4343 0.71096 0.97287 0.0
H558 H 0.44129 0.63392 0.04162 0.0
H559 H 0.40019 0.66009 0.95817 0.0
H560 H 0.38204 0.543 0.01272 0.0
H561 H 0.42188 0.59294 0.00767 0.0
H562 H 0.36001 0.62031 0.9787 0.0
H563 H 0.3212 0.57015 0.98029 0.0
C564 C 0.45998 0.67933 0.03224 0.0
C565 C 0.45781 0.70138 0.01398 0.0
C566 C 0.43983 0.65017 0.02519 0.0
C567 C 0.41751 0.64239 0.99878 0.0
C568 C 0.41638 0.66487 0.97936 0.0
C569 C 0.43601 0.69404 0.9874 0.0
C570 C 0.37735 0.55974 0.00395 0.0
C571 C 0.34866 0.55284 0.99675 0.0
C572 C 0.40007 0.58852 0.00172 0.0
C573 C 0.39441 0.61123 0.99383 0.0
C574 C 0.3657 0.6038 0.98447 0.0
C575 C 0.3432 0.57487 0.98542 0.0
H576 H 0.7192 0.44517 0.4397 0.0
H577 H 0.80491 0.50751 0.47899 0.0
H578 H 0.73501 0.40987 0.4296 0.0
H579 H 0.8211 0.47258 0.46772 0.0
H580 H 0.80462 0.38854 0.53064 0.0
H581 H 0.80293 0.43108 0.51106 0.0
H582 H 0.76663 0.39025 0.40578 0.0
H583 H 0.76862 0.34688 0.42587 0.0
C584 C 0.74178 0.45171 0.44465 0.0
C585 C 0.76056 0.47867 0.46129 0.0
C586 C 0.75092 0.43158 0.43853 0.0
C587 C 0.77906 0.43821 0.44886 0.0
C588 C 0.79907 0.46674 0.46021 0.0
C589 C 0.78987 0.48683 0.46647 0.0
C590 C 0.79652 0.38862 0.50316 0.0
C591 C 0.78618 0.36423 0.48004 0.0
C592 C 0.79605 0.4133 0.49161 0.0
C593 C 0.78488 0.41419 0.4567 0.0
C594 C 0.77549 0.39018 0.43278 0.0
C595 C 0.77652 0.36543 0.44423 0.0
H596 H 0.40713 0.75453 0.97138 0.0
H597 H 0.44388 0.84319 0.00841 0.0
H598 H 0.35903 0.74957 0.96992 0.0
H599 H 0.39616 0.83913 0.00484 0.0
H600 H 0.27297 0.74186 0.9733 0.0
H601 H 0.32224 0.75847 0.9509 0.0
H602 H 0.35669 0.81681 0.04461 0.0
H603 H 0.30759 0.80105 0.06548 0.0
C604 C 0.40504 0.77338 0.97747 0.0
C605 C 0.42899 0.7991 0.99036 0.0
C606 C 0.37743 0.77063 0.97666 0.0
C607 C 0.37343 0.79378 0.98814 0.0
C608 C 0.39816 0.82055 0.99698 0.0
C609 C 0.42558 0.82304 0.99862 0.0
C610 C 0.29123 0.75889 0.98828 0.0
C611 C 0.28659 0.7701 0.02116 0.0
C612 C 0.31944 0.76824 0.97571 0.0
C613 C 0.34366 0.78865 0.99618 0.0
C614 C 0.33879 0.80136 0.02765 0.0
C615 C 0.31056 0.79232 0.03982 0.0
H616 H 0.61305 0.41415 0.54221 0.0
H617 H 0.63487 0.4308 0.4261 0.0
H618 H 0.56799 0.37084 0.52666 0.0
H619 H 0.58896 0.38653 0.41028 0.0
H620 H 0.5361 0.28125 0.42791 0.0
H621 H 0.57132 0.33293 0.42183 0.0
H622 H 0.51992 0.35283 0.49598 0.0
H623 H 0.48525 0.30113 0.50286 0.0
C624 C 0.6082 0.40857 0.51323 0.0
C625 C 0.62777 0.42567 0.48538 0.0
C626 C 0.58201 0.38394 0.50426 0.0
C627 C 0.57467 0.37549 0.46719 0.0
C628 C 0.594 0.39271 0.43908 0.0
C629 C 0.62025 0.41787 0.44811 0.0
C630 C 0.53173 0.29681 0.44158 0.0
C631 C 0.50847 0.28719 0.46668 0.0
C632 C 0.55183 0.32642 0.438 0.0
C633 C 0.54878 0.34679 0.45936 0.0
C634 C 0.52307 0.33745 0.47983 0.0
C635 C 0.50303 0.30782 0.48351 0.0
H636 H 0.403 0.83731 0.55098 0.0
H637 H 0.35283 0.74448 0.53553 0.0
H638 H 0.44701 0.83397 0.56043 0.0
H639 H 0.39623 0.74087 0.54607 0.0
H640 H 0.47238 0.73508 0.5624 0.0
H641 H 0.43938 0.75017 0.58781 0.0
H642 H 0.4698 0.81897 0.50669 0.0
H643 H 0.5026 0.80366 0.48123 0.0
C644 C 0.40118 0.81607 0.55162 0.0
C645 C 0.37472 0.79107 0.54284 0.0
C646 C 0.42632 0.8142 0.55675 0.0
C647 C 0.42502 0.78721 0.55398 0.0
C648 C 0.39785 0.76193 0.54892 0.0
C649 C 0.37298 0.76391 0.54289 0.0
C650 C 0.47287 0.75422 0.55115 0.0
C651 C 0.48949 0.76785 0.51944 0.0
C652 C 0.45402 0.76283 0.56565 0.0
C653 C 0.45169 0.78536 0.54877 0.0
C654 C 0.47125 0.80158 0.52034 0.0
C655 C 0.49007 0.79285 0.50572 0.0
H656 H 0.70021 0.50737 0.96749 0.0
H657 H 0.71194 0.43318 0.98119 0.0
H658 H 0.64848 0.47683 0.98159 0.0
H659 H 0.66046 0.40251 0.99341 0.0
H660 H 0.56929 0.35123 0.02686 0.0
H661 H 0.62 0.38934 0.03341 0.0
H662 H 0.60768 0.43969 0.94869 0.0
H663 H 0.55703 0.40233 0.94314 0.0
C664 C 0.69183 0.48464 0.97383 0.0
C665 C 0.71009 0.47259 0.97247 0.0
C666 C 0.66216 0.46708 0.98167 0.0
C667 C 0.65017 0.43712 0.98841 0.0
C668 C 0.66883 0.42549 0.98879 0.0
C669 C 0.69837 0.443 0.98104 0.0
C670 C 0.57719 0.37081 0.01043 0.0
C671 C 0.55922 0.37344 0.98397 0.0
C672 C 0.60635 0.39257 0.01394 0.0
C673 C 0.61814 0.41732 0.99098 0.0
C674 C 0.59944 0.42103 0.96692 0.0
C675 C 0.57032 0.39941 0.96355 0.0
H676 H 0.17709 0.57909 0.47935 0.0
H677 H 0.2219 0.57609 0.57744 0.0
H678 H 0.18422 0.62579 0.4973 0.0
H679 H 0.22839 0.62334 0.59688 0.0
H680 H 0.28207 0.72257 0.56213 0.0
H681 H 0.25992 0.67101 0.57458 0.0
H682 H 0.17756 0.65804 0.53431 0.0
H683 H 0.20051 0.70946 0.51905 0.0
C684 C 0.18821 0.5884 0.50517 0.0
C685 C 0.19988 0.57456 0.52635 0.0
C686 C 0.19177 0.61504 0.51603 0.0
C687 C 0.20712 0.62867 0.54853 0.0
C688 C 0.2168 0.61365 0.57141 0.0
C689 C 0.21308 0.58665 0.56043 0.0
C690 C 0.2591 0.70876 0.55646 0.0
C691 C 0.24345 0.71981 0.53773 0.0
C692 C 0.2462 0.67915 0.5642 0.0
C693 C 0.21719 0.66008 0.554 0.0
C694 C 0.20031 0.672 0.54112 0.0
C695 C 0.2134 0.70159 0.53266 0.0
H696 H 0.6381 0.22644 0.03584 0.0
H697 H 0.59077 0.1611 0.95252 0.0
H698 H 0.60077 0.24044 0.03458 0.0
H699 H 0.55401 0.17551 0.95068 0.0
H700 H 0.48499 0.19988 0.96302 0.0
H701 H 0.51563 0.17976 0.98095 0.0
H702 H 0.58978 0.2666 0.98777 0.0
H703 H 0.55898 0.28668 0.97135 0.0
C704 C 0.6194 0.21456 0.01796 0.0
C705 C 0.61758 0.19291 0.99394 0.0
C706 C 0.59817 0.2228 0.01696 0.0
C707 C 0.57469 0.20944 0.99206 0.0
C708 C 0.57172 0.18619 0.97028 0.0
C709 C 0.59291 0.17802 0.97123 0.0
C710 C 0.50772 0.21468 0.96893 0.0
C711 C 0.51959 0.24489 0.96531 0.0
C712 C 0.52532 0.20314 0.97899 0.0
C713 C 0.55516 0.22155 0.98575 0.0
C714 C 0.56682 0.25179 0.98323 0.0
C715 C 0.54924 0.26331 0.97315 0.0
H716 H 0.43747 0.60804 0.54637 0.0
H717 H 0.39899 0.65988 0.51595 0.0
H718 H 0.38904 0.56708 0.56106 0.0
H719 H 0.35098 0.61958 0.53106 0.0
H720 H 0.29999 0.50254 0.49453 0.0
H721 H 0.34952 0.53823 0.51312 0.0
H722 H 0.31636 0.58389 0.57735 0.0
H723 H 0.26692 0.54822 0.55852 0.0
C724 C 0.41878 0.61106 0.5446 0.0
C725 C 0.4217 0.63696 0.53027 0.0
C726 C 0.39113 0.58762 0.55264 0.0
C727 C 0.36626 0.5901 0.5471 0.0
C728 C 0.36972 0.61706 0.5361 0.0
C729 C 0.39716 0.64016 0.52739 0.0
C730 C 0.30324 0.51948 0.51387 0.0
C731 C 0.27983 0.52307 0.52453 0.0
C732 C 0.33158 0.53991 0.52461 0.0
C733 C 0.33678 0.56411 0.54619 0.0
C734 C 0.31299 0.56568 0.56029 0.0
C735 C 0.28477 0.54535 0.54951 0.0
H736 H 0.69735 0.27021 0.00849 0.0
H737 H 0.78775 0.29736 0.99126 0.0
H738 H 0.71039 0.32011 0.02294 0.0
H739 H 0.80101 0.34767 0.0048 0.0
H740 H 0.74203 0.411 0.96954 0.0
H741 H 0.7266 0.36019 0.9801 0.0
H742 H 0.80327 0.38548 0.04682 0.0
H743 H 0.81861 0.4369 0.03587 0.0
C744 C 0.72008 0.28693 0.00817 0.0
C745 C 0.74154 0.28019 0.99801 0.0
C746 C 0.72756 0.31545 0.01651 0.0
C747 C 0.75667 0.33794 0.0144 0.0
C748 C 0.7784 0.33083 0.00693 0.0
C749 C 0.77087 0.30211 0.99897 0.0
C750 C 0.75488 0.40564 0.98774 0.0
C751 C 0.78107 0.42757 0.00257 0.0
C752 C 0.74614 0.37653 0.9938 0.0
C753 C 0.7637 0.36874 0.01436 0.0
C754 C 0.78934 0.39083 0.03078 0.0
C755 C 0.79796 0.42014 0.02494 0.0
H756 H 0.18725 0.46717 0.33857 0.0
H757 H 0.26578 0.54985 0.35387 0.0
H758 H 0.20238 0.46395 0.27638 0.0
H759 H 0.28174 0.54608 0.29148 0.0
H760 H 0.28608 0.54259 0.16389 0.0
H761 H 0.27183 0.54773 0.22666 0.0
H762 H 0.23579 0.4555 0.24434 0.0
H763 H 0.24885 0.45032 0.18164 0.0
C764 C 0.20806 0.4845 0.32884 0.0
C765 C 0.22543 0.50869 0.35128 0.0
C766 C 0.21682 0.48259 0.29309 0.0
C767 C 0.24342 0.50464 0.27882 0.0
C768 C 0.26097 0.52884 0.30138 0.0
C769 C 0.252 0.53089 0.33724 0.0
C770 C 0.27486 0.52344 0.18119 0.0
C771 C 0.26827 0.49601 0.1677 0.0
C772 C 0.26696 0.5264 0.21728 0.0
C773 C 0.25253 0.50201 0.24064 0.0
C774 C 0.24627 0.47469 0.227 0.0
C775 C 0.25385 0.4717 0.19098 0.0
H776 H 0.73001 0.19111 0.8265 0.0
H777 H 0.69333 0.24718 0.83805 0.0
H778 H 0.74384 0.20754 0.76323 0.0
H779 H 0.70838 0.26476 0.77481 0.0
H780 H 0.71398 0.26886 0.64818 0.0
H781 H 0.6979 0.25056 0.71105 0.0
H782 H 0.77701 0.24773 0.72853 0.0
H783 H 0.79222 0.26458 0.66585 0.0
C784 C 0.72543 0.20744 0.81574 0.0
C785 C 0.71077 0.21801 0.83736 0.0
C786 C 0.7334 0.21691 0.77936 0.0
C787 C 0.72728 0.23754 0.76376 0.0
C788 C 0.71303 0.24852 0.78567 0.0
C789 C 0.70474 0.23875 0.82206 0.0
C790 C 0.72763 0.26387 0.66539 0.0
C791 C 0.75424 0.26796 0.65197 0.0
C792 C 0.71862 0.25372 0.70154 0.0
C793 C 0.73618 0.24771 0.725 0.0
C794 C 0.76262 0.25158 0.71119 0.0
C795 C 0.77142 0.26137 0.67514 0.0
H796 H 0.53035 0.79346 0.17281 0.0
H797 H 0.43682 0.74511 0.16158 0.0
H798 H 0.52638 0.77476 0.23498 0.0
H799 H 0.43281 0.72537 0.22415 0.0
H800 H 0.51388 0.71199 0.32558 0.0
H801 H 0.51462 0.73002 0.26383 0.0
H802 H 0.43997 0.73868 0.29034 0.0
H803 H 0.43866 0.71948 0.35262 0.0
C804 C 0.50888 0.77849 0.18347 0.0
C805 C 0.48391 0.77053 0.16211 0.0
C806 C 0.50661 0.76768 0.2192 0.0
C807 C 0.47929 0.74831 0.23451 0.0
C808 C 0.45417 0.74041 0.21327 0.0
C809 C 0.45647 0.75147 0.17735 0.0
C810 C 0.49765 0.71784 0.31848 0.0
C811 C 0.47636 0.71457 0.34417 0.0
C812 C 0.49814 0.7283 0.28298 0.0
C813 C 0.47755 0.73611 0.27216 0.0
C814 C 0.45603 0.73267 0.29773 0.0
C815 C 0.45542 0.72194 0.33345 0.0
H816 H 0.73687 0.45446 0.63322 0.0
H817 H 0.75127 0.54107 0.65119 0.0
H818 H 0.75738 0.45559 0.69412 0.0
H819 H 0.77093 0.54191 0.71233 0.0
H820 H 0.82253 0.54218 0.81283 0.0
H821 H 0.80944 0.54291 0.7482 0.0
H822 H 0.74148 0.45303 0.75709 0.0
H823 H 0.75512 0.45215 0.8213 0.0
C824 C 0.74481 0.4739 0.64993 0.0
C825 C 0.74233 0.49762 0.63744 0.0
C826 C 0.75628 0.47444 0.68502 0.0
C827 C 0.76543 0.49867 0.70842 0.0
C828 C 0.76432 0.52297 0.69503 0.0
C829 C 0.75296 0.52246 0.65993 0.0
C830 C 0.80477 0.52261 0.80096 0.0
C831 C 0.78975 0.49715 0.82221 0.0
C832 C 0.79724 0.52303 0.76391 0.0
C833 C 0.77445 0.49801 0.74732 0.0
C834 C 0.75949 0.47255 0.76869 0.0
C835 C 0.7671 0.47211 0.80566 0.0
H836 H 0.29353 0.72425 0.36737 0.0
H837 H 0.27536 0.79426 0.3521 0.0
H838 H 0.27302 0.70515 0.30609 0.0
H839 H 0.25543 0.77558 0.2911 0.0
H840 H 0.19592 0.71913 0.19904 0.0
H841 H 0.21413 0.73482 0.26156 0.0
H842 H 0.28495 0.71885 0.24011 0.0
H843 H 0.26635 0.7026 0.17741 0.0
C844 C 0.28494 0.73539 0.35111 0.0
C845 C 0.28598 0.76069 0.36463 0.0
C846 C 0.27345 0.72463 0.3159 0.0
C847 C 0.26263 0.73888 0.29366 0.0
C848 C 0.26323 0.76386 0.30763 0.0
C849 C 0.27477 0.77463 0.34261 0.0
C850 C 0.21542 0.719 0.20756 0.0
C851 C 0.22979 0.70977 0.18318 0.0
C852 C 0.2259 0.72807 0.24342 0.0
C853 C 0.25104 0.72815 0.25585 0.0
C854 C 0.26534 0.71874 0.23153 0.0
C855 C 0.25485 0.70968 0.19552 0.0
H856 H 0.46493 0.22952 0.63139 0.0
H857 H 0.55834 0.27396 0.64132 0.0
H858 H 0.46142 0.24784 0.69175 0.0
H859 H 0.55507 0.29063 0.70304 0.0
H860 H 0.54205 0.33292 0.80482 0.0
H861 H 0.54632 0.3198 0.74147 0.0
H862 H 0.46406 0.23979 0.75338 0.0
H863 H 0.45907 0.25427 0.81556 0.0
C864 C 0.48473 0.24335 0.64662 0.0
C865 C 0.51188 0.25045 0.63182 0.0
C866 C 0.48277 0.25354 0.68152 0.0
C867 C 0.5079 0.27033 0.70301 0.0
C868 C 0.5352 0.27811 0.68743 0.0
C869 C 0.53716 0.26854 0.65201 0.0
C870 C 0.52499 0.3125 0.79376 0.0
C871 C 0.50022 0.29459 0.81495 0.0
C872 C 0.52744 0.30486 0.75742 0.0
C873 C 0.50546 0.27874 0.74178 0.0
C874 C 0.48108 0.26049 0.76372 0.0
C875 C 0.47831 0.26854 0.79965 0.0
H876 H 0.46067 0.62248 0.30283 0.0
H877 H 0.41403 0.54653 0.37152 0.0
H878 H 0.44727 0.59164 0.24785 0.0
H879 H 0.40131 0.51537 0.31695 0.0
H880 H 0.42081 0.53062 0.15265 0.0
H881 H 0.44676 0.55386 0.20963 0.0
H882 H 0.36608 0.50832 0.27061 0.0
H883 H 0.34057 0.48437 0.21411 0.0
C884 C 0.44858 0.59909 0.30618 0.0
C885 C 0.43795 0.58676 0.34108 0.0
C886 C 0.44088 0.58136 0.27478 0.0
C887 C 0.42268 0.55104 0.27798 0.0
C888 C 0.41472 0.53868 0.31347 0.0
C889 C 0.42211 0.55641 0.34469 0.0
C890 C 0.40881 0.52493 0.17841 0.0
C891 C 0.37854 0.5059 0.17885 0.0
C892 C 0.42364 0.53847 0.211 0.0
C893 C 0.40851 0.53315 0.24463 0.0
C894 C 0.37856 0.51273 0.24532 0.0
C895 C 0.36379 0.49925 0.21284 0.0
H896 H 0.90529 0.45527 0.84462 0.0
H897 H 0.85664 0.48978 0.78932 0.0
H898 H 0.91009 0.43552 0.7859 0.0
H899 H 0.86215 0.47082 0.73141 0.0
H900 H 0.84807 0.36204 0.69717 0.0
H901 H 0.87054 0.39389 0.75054 0.0
H902 H 0.89253 0.46873 0.68183 0.0
H903 H 0.86933 0.43657 0.62901 0.0
C904 C 0.89597 0.45912 0.82013 0.0
C905 C 0.87956 0.4733 0.82242 0.0
C906 C 0.89898 0.44794 0.78641 0.0
C907 C 0.88622 0.45128 0.75414 0.0
C908 C 0.87248 0.46802 0.7557 0.0
C909 C 0.86917 0.47886 0.78934 0.0
C910 C 0.85902 0.38537 0.69328 0.0
C911 C 0.85673 0.39701 0.65946 0.0
C912 C 0.87188 0.40367 0.72375 0.0
C913 C 0.88266 0.43378 0.72051 0.0
C914 C 0.88387 0.44558 0.6853 0.0
C915 C 0.8708 0.42728 0.65507 0.0
H916 H 0.5057 0.85982 0.20764 0.0
H917 H 0.45279 0.88943 0.15321 0.0
H918 H 0.48612 0.86275 0.26715 0.0
H919 H 0.43391 0.89352 0.21312 0.0
H920 H 0.45455 0.87342 0.37274 0.0
H921 H 0.48136 0.89148 0.31477 0.0
H922 H 0.39996 0.85663 0.25536 0.0
H923 H 0.37346 0.83956 0.31367 0.0
C924 C 0.49031 0.86753 0.20852 0.0
C925 C 0.48046 0.87391 0.17572 0.0
C926 C 0.47934 0.86962 0.2427 0.0
C927 C 0.45828 0.87825 0.2449 0.0
C928 C 0.44986 0.88651 0.21229 0.0
C929 C 0.46089 0.88442 0.178 0.0
C930 C 0.44258 0.87053 0.34731 0.0
C931 C 0.41207 0.85484 0.34734 0.0
C932 C 0.45783 0.88068 0.31416 0.0
C933 C 0.44279 0.87489 0.28036 0.0
C934 C 0.41225 0.86161 0.28089 0.0
C935 C 0.39701 0.85177 0.31422 0.0
H936 H 0.49783 0.3757 0.77178 0.0
H937 H 0.54002 0.44998 0.84436 0.0
H938 H 0.52678 0.40543 0.72011 0.0
H939 H 0.56887 0.48014 0.79236 0.0
H940 H 0.64484 0.48912 0.71114 0.0
H941 H 0.60905 0.47823 0.76004 0.0
H942 H 0.54077 0.44642 0.67778 0.0
H943 H 0.57692 0.4569 0.62929 0.0
C944 C 0.51284 0.3986 0.77639 0.0
C945 C 0.51697 0.41043 0.81206 0.0
C946 C 0.5292 0.41578 0.74674 0.0
C947 C 0.5502 0.4452 0.75217 0.0
C948 C 0.55293 0.45754 0.7874 0.0
C949 C 0.53633 0.44032 0.81709 0.0
C950 C 0.62238 0.48132 0.70362 0.0
C951 C 0.61338 0.47385 0.66686 0.0
C952 C 0.60182 0.47498 0.73149 0.0
C953 C 0.57199 0.46092 0.72276 0.0
C954 C 0.56355 0.45684 0.68534 0.0
C955 C 0.58413 0.46309 0.6576 0.0
H956 H 0.11166 0.54589 0.14724 0.0
H957 H 0.13757 0.62403 0.21029 0.0
H958 H 0.09238 0.51677 0.20338 0.0
H959 H 0.11898 0.59544 0.26619 0.0
H960 H 0.13837 0.50459 0.30959 0.0
H961 H 0.12229 0.51387 0.25079 0.0
H962 H 0.08555 0.55956 0.30792 0.0
H963 H 0.10287 0.55098 0.36665 0.0
C964 C 0.11243 0.55672 0.17297 0.0
C965 C 0.12681 0.58723 0.17471 0.0
C966 C 0.10141 0.54008 0.20508 0.0
C967 C 0.10479 0.55373 0.2395 0.0
C968 C 0.11583 0.58401 0.24026 0.0
C969 C 0.12666 0.60058 0.20812 0.0
C970 C 0.12554 0.51527 0.30964 0.0
C971 C 0.12236 0.52767 0.34224 0.0
C972 C 0.11625 0.52067 0.2759 0.0
C973 C 0.10344 0.53836 0.2745 0.0
C974 C 0.09611 0.54662 0.30796 0.0
C975 C 0.10578 0.54155 0.34157 0.0
H976 H 0.63965 0.14245 0.78265 0.0
H977 H 0.55601 0.10478 0.8365 0.0
H978 H 0.61783 0.14523 0.72494 0.0
H979 H 0.53362 0.10646 0.778 0.0
H980 H 0.57723 0.1437 0.62098 0.0
H981 H 0.58603 0.121 0.67446 0.0
H982 H 0.53535 0.14614 0.74265 0.0
H983 H 0.52567 0.16764 0.68841 0.0
C984 C 0.61643 0.1342 0.78187 0.0
C985 C 0.59964 0.12381 0.81415 0.0
C986 C 0.60377 0.13541 0.74864 0.0
C987 C 0.57391 0.12613 0.7468 0.0
C988 C 0.55672 0.11404 0.77861 0.0
C989 C 0.56947 0.11282 0.812 0.0
C990 C 0.5673 0.14345 0.64727 0.0
C991 C 0.55112 0.15757 0.651 0.0
C992 C 0.57243 0.13067 0.67789 0.0
C993 C 0.562 0.13238 0.71303 0.0
C994 C 0.54361 0.14429 0.71599 0.0
C995 C 0.53808 0.15667 0.68506 0.0
loop_
_geom_bond_atom_site_label_1
_geom_bond_atom_site_label_2
_geom_bond_distance
_geom_bond_site_symmetry_2
_ccdc_geom_bond_type
Co0 N4 2.148 . S
Co0 N10 2.128 . S
Co0 N20 2.194 . S
Co0 O25 2.351 . S
Co0 O26 2.155 . S
Co0 O27 2.096 . S
C1 N4 1.301 . S
C1 N5 1.328 . S
C1 H6 0.930 . S
C2 C3 1.333 . S
C2 N4 1.317 . S
C2 H7 0.930 . S
C3 C2 1.333 . S
C3 N5 1.350 . S
C3 H29 0.931 . S
N4 Co0 2.148 . S
N4 C1 1.301 . S
N4 C2 1.317 . S
N5 C1 1.328 . S
N5 C3 1.350 . S
H6 C1 0.930 . S
H7 C2 0.930 . S
C8 O9 1.224 . S
C8 O27 1.247 . S
O9 C8 1.224 . S
N10 Co0 2.128 . S
N10 C11 1.355 . S
N10 C13 1.311 . S
C11 N10 1.355 . S
C11 C12 1.363 1_554 S
C11 H23 0.929 . S
C12 C11 1.363 1_556 S
C12 N14 1.375 . S
C12 H30 0.931 . S
C13 N10 1.311 . S
C13 N14 1.347 1_554 S
C13 H24 0.929 . S
N14 C12 1.375 . S
N14 C13 1.347 1_556 S
C15 C18 1.365 . S
C15 N20 1.328 . S
C15 H21 0.929 . S
C16 C17 1.362 1_556 S
C16 C19 1.378 1_556 S
C16 H31 0.929 . S
C17 C16 1.362 1_554 S
C17 C18 1.366 . S
C18 C15 1.365 . S
C18 C17 1.366 . S
C18 H32 0.930 . S
C19 C16 1.378 1_554 S
C19 N20 1.315 . S
C19 H22 0.930 . S
N20 Co0 2.194 . S
N20 C15 1.328 . S
N20 C19 1.315 . S
H21 C15 0.929 . S
H22 C19 0.930 . S
H23 C11 0.929 . S
H24 C13 0.929 . S
O25 Co0 2.351 . S
O25 C28 1.244 . S
O26 Co0 2.155 . S
O26 C28 1.240 . S
O27 Co0 2.096 . S
O27 C8 1.247 . S
C28 O25 1.244 . S
C28 O26 1.240 . S
H29 C3 0.931 . S
H30 C12 0.931 . S
H31 C16 0.929 . S
H32 C18 0.930 . S
Co33 N37 2.148 . S
Co33 N43 2.128 . S
Co33 N53 2.194 . S
Co33 O58 2.351 . S
Co33 O59 2.155 . S
Co33 O60 2.096 . S
C34 N37 1.301 . S
C34 N38 1.328 . S
C34 H39 0.930 . S
C35 C36 1.333 . S
C35 N37 1.317 . S
C35 H40 0.930 . S
C36 C35 1.333 . S
C36 N38 1.350 . S
C36 H62 0.931 . S
N37 Co33 2.148 . S
N37 C34 1.301 . S
N37 C35 1.317 . S
N38 C34 1.328 . S
N38 C36 1.350 . S
H39 C34 0.930 . S
H40 C35 0.930 . S
C41 O42 1.224 . S
C41 O60 1.247 . S
O42 C41 1.224 . S
N43 Co33 2.128 . S
N43 C44 1.355 . S
N43 C46 1.311 . S
C44 N43 1.355 . S
C44 C45 1.363 . S
C44 H56 0.929 . S
C45 C44 1.363 . S
C45 N47 1.375 . S
C45 H63 0.931 . S
C46 N43 1.311 . S
C46 N47 1.347 . S
C46 H57 0.929 . S
N47 C45 1.375 . S
N47 C46 1.347 . S
C48 C51 1.365 . S
C48 N53 1.328 . S
C48 H54 0.929 . S
C49 C50 1.362 . S
C49 C52 1.378 . S
C49 H64 0.929 . S
C50 C49 1.362 . S
C50 C51 1.366 . S
C51 C48 1.365 . S
C51 C50 1.366 . S
C51 H65 0.930 . S
C52 C49 1.378 . S
C52 N53 1.315 . S
C52 H55 0.930 . S
N53 Co33 2.194 . S
N53 C48 1.328 . S
N53 C52 1.315 . S
H54 C48 0.929 . S
H55 C52 0.930 . S
H56 C44 0.929 . S
H57 C46 0.929 . S
O58 Co33 2.351 . S
O58 C61 1.244 . S
O59 Co33 2.155 . S
O59 C61 1.240 . S
O60 Co33 2.096 . S
O60 C41 1.247 . S
C61 O58 1.244 . S
C61 O59 1.240 . S
H62 C36 0.931 . S
H63 C45 0.931 . S
H64 C49 0.929 . S
H65 C51 0.930 . S
Co66 N70 2.148 . S
Co66 N76 2.128 . S
Co66 N86 2.194 . S
Co66 O91 2.351 . S
Co66 O92 2.155 . S
Co66 O93 2.096 . S
C67 N70 1.301 . S
C67 N71 1.328 . S
C67 H72 0.930 . S
C68 C69 1.333 . S
C68 N70 1.317 . S
C68 H73 0.930 . S
C69 C68 1.333 . S
C69 N71 1.350 . S
C69 H95 0.931 . S
N70 Co66 2.148 . S
N70 C67 1.301 . S
N70 C68 1.317 . S
N71 C67 1.328 . S
N71 C69 1.350 . S
H72 C67 0.930 . S
H73 C68 0.930 . S
C74 O75 1.224 . S
C74 O93 1.247 . S
O75 C74 1.224 . S
N76 Co66 2.128 . S
N76 C77 1.355 . S
N76 C79 1.311 . S
C77 N76 1.355 . S
C77 C78 1.363 1_554 S
C77 H89 0.929 . S
C78 C77 1.363 1_556 S
C78 N80 1.375 . S
C78 H96 0.931 . S
C79 N76 1.311 . S
C79 N80 1.347 1_554 S
C79 H90 0.929 . S
N80 C78 1.375 . S
N80 C79 1.347 1_556 S
C81 C84 1.365 . S
C81 N86 1.328 . S
C81 H87 0.929 . S
C82 C83 1.362 1_556 S
C82 C85 1.378 1_556 S
C82 H97 0.929 . S
C83 C82 1.362 1_554 S
C83 C84 1.366 . S
C84 C81 1.365 . S
C84 C83 1.366 . S
C84 H98 0.930 . S
C85 C82 1.378 1_554 S
C85 N86 1.315 . S
C85 H88 0.930 . S
N86 Co66 2.194 . S
N86 C81 1.328 . S
N86 C85 1.315 . S
H87 C81 0.929 . S
H88 C85 0.930 . S
H89 C77 0.929 . S
H90 C79 0.929 . S
O91 Co66 2.351 . S
O91 C94 1.244 . S
O92 Co66 2.155 . S
O92 C94 1.240 . S
O93 Co66 2.096 . S
O93 C74 1.247 . S
C94 O91 1.244 . S
C94 O92 1.240 . S
H95 C69 0.931 . S
H96 C78 0.931 . S
H97 C82 0.929 . S
H98 C84 0.930 . S
Co99 N103 2.148 . S
Co99 N109 2.128 . S
Co99 N119 2.194 . S
Co99 O124 2.351 . S
Co99 O125 2.155 . S
Co99 O126 2.096 . S
C100 N103 1.301 . S
C100 N104 1.328 . S
C100 H105 0.930 . S
C101 C102 1.333 . S
C101 N103 1.317 . S
C101 H106 0.930 . S
C102 C101 1.333 . S
C102 N104 1.350 . S
C102 H128 0.931 . S
N103 Co99 2.148 . S
N103 C100 1.301 . S
N103 C101 1.317 . S
N104 C100 1.328 . S
N104 C102 1.350 . S
H105 C100 0.930 . S
H106 C101 0.930 . S
C107 O108 1.224 . S
C107 O126 1.247 . S
O108 C107 1.224 . S
N109 Co99 2.128 . S
N109 C110 1.355 . S
N109 C112 1.311 . S
C110 N109 1.355 . S
C110 C111 1.363 . S
C110 H122 0.929 . S
C111 C110 1.363 . S
C111 N113 1.375 . S
C111 H129 0.931 . S
C112 N109 1.311 . S
C112 N113 1.347 . S
C112 H123 0.929 . S
N113 C111 1.375 . S
N113 C112 1.347 . S
C114 C117 1.365 . S
C114 N119 1.328 . S
C114 H120 0.929 . S
C115 C116 1.362 . S
C115 C118 1.378 . S
C115 H130 0.929 . S
C116 C115 1.362 . S
C116 C117 1.366 . S
C117 C114 1.365 . S
C117 C116 1.366 . S
C117 H131 0.930 . S
C118 C115 1.378 . S
C118 N119 1.315 . S
C118 H121 0.930 . S
N119 Co99 2.194 . S
N119 C114 1.328 . S
N119 C118 1.315 . S
H120 C114 0.929 . S
H121 C118 0.930 . S
H122 C110 0.929 . S
H123 C112 0.929 . S
O124 Co99 2.351 . S
O124 C127 1.244 . S
O125 Co99 2.155 . S
O125 C127 1.240 . S
O126 Co99 2.096 . S
O126 C107 1.247 . S
C127 O124 1.244 . S
C127 O125 1.240 . S
H128 C102 0.931 . S
H129 C111 0.931 . S
H130 C115 0.929 . S
H131 C117 0.930 . S
Co132 N136 2.148 . S
Co132 N142 2.128 . S
Co132 N152 2.194 . S
Co132 O157 2.351 . S
Co132 O158 2.155 . S
Co132 O159 2.096 . S
C133 N136 1.301 . S
C133 N137 1.328 . S
C133 H138 0.930 . S
C134 C135 1.333 . S
C134 N136 1.317 . S
C134 H139 0.930 . S
C135 C134 1.333 . S
C135 N137 1.350 . S
C135 H161 0.931 . S
N136 Co132 2.148 . S
N136 C133 1.301 . S
N136 C134 1.317 . S
N137 C133 1.328 . S
N137 C135 1.350 . S
H138 C133 0.930 . S
H139 C134 0.930 . S
C140 O141 1.224 . S
C140 O159 1.247 . S
O141 C140 1.224 . S
N142 Co132 2.128 . S
N142 C143 1.355 . S
N142 C145 1.311 . S
C143 N142 1.355 . S
C143 C144 1.363 1_554 S
C143 H155 0.929 . S
C144 C143 1.363 1_556 S
C144 N146 1.375 . S
C144 H162 0.931 . S
C145 N142 1.311 . S
C145 N146 1.347 1_554 S
C145 H156 0.929 . S
N146 C144 1.375 . S
N146 C145 1.347 1_556 S
C147 C150 1.365 . S
C147 N152 1.328 . S
C147 H153 0.929 . S
C148 C149 1.362 1_556 S
C148 C151 1.378 1_556 S
C148 H163 0.929 . S
C149 C148 1.362 1_554 S
C149 C150 1.366 . S
C150 C147 1.365 . S
C150 C149 1.366 . S
C150 H164 0.930 . S
C151 C148 1.378 1_554 S
C151 N152 1.315 . S
C151 H154 0.930 . S
N152 Co132 2.194 . S
N152 C147 1.328 . S
N152 C151 1.315 . S
H153 C147 0.929 . S
H154 C151 0.930 . S
H155 C143 0.929 . S
H156 C145 0.929 . S
O157 Co132 2.351 . S
O157 C160 1.244 . S
O158 Co132 2.155 . S
O158 C160 1.240 . S
O159 Co132 2.096 . S
O159 C140 1.247 . S
C160 O157 1.244 . S
C160 O158 1.240 . S
H161 C135 0.931 . S
H162 C144 0.931 . S
H163 C148 0.929 . S
H164 C150 0.930 . S
Co165 N169 2.148 . S
Co165 N175 2.128 . S
Co165 N185 2.194 . S
Co165 O190 2.351 . S
Co165 O191 2.155 . S
Co165 O192 2.096 . S
C166 N169 1.301 . S
C166 N170 1.328 . S
C166 H171 0.930 . S
C167 C168 1.333 . S
C167 N169 1.317 . S
C167 H172 0.930 . S
C168 C167 1.333 . S
C168 N170 1.350 . S
C168 H194 0.931 . S
N169 Co165 2.148 . S
N169 C166 1.301 . S
N169 C167 1.317 . S
N170 C166 1.328 . S
N170 C168 1.350 . S
H171 C166 0.930 . S
H172 C167 0.930 . S
C173 O174 1.224 . S
C173 O192 1.247 . S
O174 C173 1.224 . S
N175 Co165 2.128 . S
N175 C176 1.355 . S
N175 C178 1.311 . S
C176 N175 1.355 . S
C176 C177 1.363 . S
C176 H188 0.929 . S
C177 C176 1.363 . S
C177 N179 1.375 . S
C177 H195 0.931 . S
C178 N175 1.311 . S
C178 N179 1.347 . S
C178 H189 0.929 . S
N179 C177 1.375 . S
N179 C178 1.347 . S
C180 C183 1.365 . S
C180 N185 1.328 . S
C180 H186 0.929 . S
C181 C182 1.362 . S
C181 C184 1.378 . S
C181 H196 0.929 . S
C182 C181 1.362 . S
C182 C183 1.366 . S
C183 C180 1.365 . S
C183 C182 1.366 . S
C183 H197 0.930 . S
C184 C181 1.378 . S
C184 N185 1.315 . S
C184 H187 0.930 . S
N185 Co165 2.194 . S
N185 C180 1.328 . S
N185 C184 1.315 . S
H186 C180 0.929 . S
H187 C184 0.930 . S
H188 C176 0.929 . S
H189 C178 0.929 . S
O190 Co165 2.351 . S
O190 C193 1.244 . S
O191 Co165 2.155 . S
O191 C193 1.240 . S
O192 Co165 2.096 . S
O192 C173 1.247 . S
C193 O190 1.244 . S
C193 O191 1.240 . S
H194 C168 0.931 . S
H195 C177 0.931 . S
H196 C181 0.929 . S
H197 C183 0.930 . S
Co198 N202 2.148 . S
Co198 N208 2.128 . S
Co198 N218 2.194 . S
Co198 O223 2.351 . S
Co198 O224 2.155 . S
Co198 O225 2.096 . S
C199 N202 1.301 . S
C199 N203 1.328 . S
C199 H204 0.930 . S
C200 C201 1.333 . S
C200 N202 1.317 . S
C200 H205 0.930 . S
C201 C200 1.333 . S
C201 N203 1.350 . S
C201 H227 0.931 . S
N202 Co198 2.148 . S
N202 C199 1.301 . S
N202 C200 1.317 . S
N203 C199 1.328 . S
N203 C201 1.350 . S
H204 C199 0.930 . S
H205 C200 0.930 . S
C206 O207 1.224 . S
C206 O225 1.247 . S
O207 C206 1.224 . S
N208 Co198 2.128 . S
N208 C209 1.355 . S
N208 C211 1.311 . S
C209 N208 1.355 . S
C209 C210 1.363 . S
C209 H221 0.929 . S
C210 C209 1.363 . S
C210 N212 1.375 . S
C210 H228 0.931 . S
C211 N208 1.311 . S
C211 N212 1.347 . S
C211 H222 0.929 . S
N212 C210 1.375 . S
N212 C211 1.347 . S
C213 C216 1.365 . S
C213 N218 1.328 . S
C213 H219 0.929 . S
C214 C215 1.362 . S
C214 C217 1.378 . S
C214 H229 0.929 . S
C215 C214 1.362 . S
C215 C216 1.366 . S
C216 C213 1.365 . S
C216 C215 1.366 . S
C216 H230 0.930 . S
C217 C214 1.378 . S
C217 N218 1.315 . S
C217 H220 0.930 . S
N218 Co198 2.194 . S
N218 C213 1.328 . S
N218 C217 1.315 . S
H219 C213 0.929 . S
H220 C217 0.930 . S
H221 C209 0.929 . S
H222 C211 0.929 . S
O223 Co198 2.351 . S
O223 C226 1.244 . S
O224 Co198 2.155 . S
O224 C226 1.240 . S
O225 Co198 2.096 . S
O225 C206 1.247 . S
C226 O223 1.244 . S
C226 O224 1.240 . S
H227 C201 0.931 . S
H228 C210 0.931 . S
H229 C214 0.929 . S
H230 C216 0.930 . S
Co231 N235 2.148 . S
Co231 N241 2.128 . S
Co231 N251 2.194 . S
Co231 O256 2.351 . S
Co231 O257 2.155 . S
Co231 O258 2.096 . S
C232 N235 1.301 . S
C232 N236 1.328 . S
C232 H237 0.930 . S
C233 C234 1.333 . S
C233 N235 1.317 . S
C233 H238 0.930 . S
C234 C233 1.333 . S
C234 N236 1.350 . S
C234 H260 0.931 . S
N235 Co231 2.148 . S
N235 C232 1.301 . S
N235 C233 1.317 . S
N236 C232 1.328 . S
N236 C234 1.350 . S
H237 C232 0.930 . S
H238 C233 0.930 . S
C239 O240 1.224 . S
C239 O258 1.247 . S
O240 C239 1.224 . S
N241 Co231 2.128 . S
N241 C242 1.355 . S
N241 C244 1.311 . S
C242 N241 1.355 . S
C242 C243 1.363 1_556 S
C242 H254 0.929 . S
C243 C242 1.363 1_554 S
C243 N245 1.375 . S
C243 H261 0.931 . S
C244 N241 1.311 . S
C244 N245 1.347 1_556 S
C244 H255 0.929 . S
N245 C243 1.375 . S
N245 C244 1.347 1_554 S
C246 C249 1.365 . S
C246 N251 1.328 . S
C246 H252 0.929 . S
C247 C248 1.362 1_554 S
C247 C250 1.378 1_554 S
C247 H262 0.929 . S
C248 C247 1.362 1_556 S
C248 C249 1.366 . S
C249 C246 1.365 . S
C249 C248 1.366 . S
C249 H263 0.930 . S
C250 C247 1.378 1_556 S
C250 N251 1.315 . S
C250 H253 0.930 . S
N251 Co231 2.194 . S
N251 C246 1.328 . S
N251 C250 1.315 . S
H252 C246 0.929 . S
H253 C250 0.930 . S
H254 C242 0.929 . S
H255 C244 0.929 . S
O256 Co231 2.351 . S
O256 C259 1.244 . S
O257 Co231 2.155 . S
O257 C259 1.240 . S
O258 Co231 2.096 . S
O258 C239 1.247 . S
C259 O256 1.244 . S
C259 O257 1.240 . S
H260 C234 0.931 . S
H261 C243 0.931 . S
H262 C247 0.929 . S
H263 C249 0.930 . S
Co264 N268 2.148 . S
Co264 N274 2.128 . S
Co264 N284 2.194 . S
Co264 O289 2.351 . S
Co264 O290 2.155 . S
Co264 O291 2.096 . S
C265 N268 1.301 . S
C265 N269 1.328 . S
C265 H270 0.930 . S
C266 C267 1.333 . S
C266 N268 1.317 . S
C266 H271 0.930 . S
C267 C266 1.333 . S
C267 N269 1.350 . S
C267 H293 0.931 . S
N268 Co264 2.148 . S
N268 C265 1.301 . S
N268 C266 1.317 . S
N269 C265 1.328 . S
N269 C267 1.350 . S
H270 C265 0.930 . S
H271 C266 0.930 . S
C272 O273 1.224 . S
C272 O291 1.247 . S
O273 C272 1.224 . S
N274 Co264 2.128 . S
N274 C275 1.355 . S
N274 C277 1.311 . S
C275 N274 1.355 . S
C275 C276 1.363 . S
C275 H287 0.929 . S
C276 C275 1.363 . S
C276 N278 1.375 . S
C276 H294 0.931 . S
C277 N274 1.311 . S
C277 N278 1.347 . S
C277 H288 0.929 . S
N278 C276 1.375 . S
N278 C277 1.347 . S
C279 C282 1.365 . S
C279 N284 1.328 . S
C279 H285 0.929 . S
C280 C281 1.362 . S
C280 C283 1.378 . S
C280 H295 0.929 . S
C281 C280 1.362 . S
C281 C282 1.366 . S
C282 C279 1.365 . S
C282 C281 1.366 . S
C282 H296 0.930 . S
C283 C280 1.378 . S
C283 N284 1.315 . S
C283 H286 0.930 . S
N284 Co264 2.194 . S
N284 C279 1.328 . S
N284 C283 1.315 . S
H285 C279 0.929 . S
H286 C283 0.930 . S
H287 C275 0.929 . S
H288 C277 0.929 . S
O289 Co264 2.351 . S
O289 C292 1.244 . S
O290 Co264 2.155 . S
O290 C292 1.240 . S
O291 Co264 2.096 . S
O291 C272 1.247 . S
C292 O289 1.244 . S
C292 O290 1.240 . S
H293 C267 0.931 . S
H294 C276 0.931 . S
H295 C280 0.929 . S
H296 C282 0.930 . S
Co297 N301 2.148 . S
Co297 N307 2.128 . S
Co297 N317 2.194 . S
Co297 O322 2.351 . S
Co297 O323 2.155 . S
Co297 O324 2.096 . S
C298 N301 1.301 . S
C298 N302 1.328 . S
C298 H303 0.930 . S
C299 C300 1.333 . S
C299 N301 1.317 . S
C299 H304 0.930 . S
C300 C299 1.333 . S
C300 N302 1.350 . S
C300 H326 0.931 . S
N301 Co297 2.148 . S
N301 C298 1.301 . S
N301 C299 1.317 . S
N302 C298 1.328 . S
N302 C300 1.350 . S
H303 C298 0.930 . S
H304 C299 0.930 . S
C305 O306 1.224 . S
C305 O324 1.247 . S
O306 C305 1.224 . S
N307 Co297 2.128 . S
N307 C308 1.355 . S
N307 C310 1.311 . S
C308 N307 1.355 . S
C308 C309 1.363 1_556 S
C308 H320 0.929 . S
C309 C308 1.363 1_554 S
C309 N311 1.375 . S
C309 H327 0.931 . S
C310 N307 1.311 . S
C310 N311 1.347 1_556 S
C310 H321 0.929 . S
N311 C309 1.375 . S
N311 C310 1.347 1_554 S
C312 C315 1.365 . S
C312 N317 1.328 . S
C312 H318 0.929 . S
C313 C314 1.362 1_554 S
C313 C316 1.378 1_554 S
C313 H328 0.929 . S
C314 C313 1.362 1_556 S
C314 C315 1.366 . S
C315 C312 1.365 . S
C315 C314 1.366 . S
C315 H329 0.930 . S
C316 C313 1.378 1_556 S
C316 N317 1.315 . S
C316 H319 0.930 . S
N317 Co297 2.194 . S
N317 C312 1.328 . S
N317 C316 1.315 . S
H318 C312 0.929 . S
H319 C316 0.930 . S
H320 C308 0.929 . S
H321 C310 0.929 . S
O322 Co297 2.351 . S
O322 C325 1.244 . S
O323 Co297 2.155 . S
O323 C325 1.240 . S
O324 Co297 2.096 . S
O324 C305 1.247 . S
C325 O322 1.244 . S
C325 O323 1.240 . S
H326 C300 0.931 . S
H327 C309 0.931 . S
H328 C313 0.929 . S
H329 C315 0.930 . S
Co330 N334 2.148 . S
Co330 N340 2.128 . S
Co330 N350 2.194 . S
Co330 O355 2.351 . S
Co330 O356 2.155 . S
Co330 O357 2.096 . S
C331 N334 1.301 . S
C331 N335 1.328 . S
C331 H336 0.930 . S
C332 C333 1.333 . S
C332 N334 1.317 . S
C332 H337 0.930 . S
C333 C332 1.333 . S
C333 N335 1.350 . S
C333 H359 0.931 . S
N334 Co330 2.148 . S
N334 C331 1.301 . S
N334 C332 1.317 . S
N335 C331 1.328 . S
N335 C333 1.350 . S
H336 C331 0.930 . S
H337 C332 0.930 . S
C338 O339 1.224 . S
C338 O357 1.247 . S
O339 C338 1.224 . S
N340 Co330 2.128 . S
N340 C341 1.355 . S
N340 C343 1.311 . S
C341 N340 1.355 . S
C341 C342 1.363 . S
C341 H353 0.929 . S
C342 C341 1.363 . S
C342 N344 1.375 . S
C342 H360 0.931 . S
C343 N340 1.311 . S
C343 N344 1.347 . S
C343 H354 0.929 . S
N344 C342 1.375 . S
N344 C343 1.347 . S
C345 C348 1.365 . S
C345 N350 1.328 . S
C345 H351 0.929 . S
C346 C347 1.362 . S
C346 C349 1.378 . S
C346 H361 0.929 . S
C347 C346 1.362 . S
C347 C348 1.366 . S
C348 C345 1.365 . S
C348 C347 1.366 . S
C348 H362 0.930 . S
C349 C346 1.378 . S
C349 N350 1.315 . S
C349 H352 0.930 . S
N350 Co330 2.194 . S
N350 C345 1.328 . S
N350 C349 1.315 . S
H351 C345 0.929 . S
H352 C349 0.930 . S
H353 C341 0.929 . S
H354 C343 0.929 . S
O355 Co330 2.351 . S
O355 C358 1.244 . S
O356 Co330 2.155 . S
O356 C358 1.240 . S
O357 Co330 2.096 . S
O357 C338 1.247 . S
C358 O355 1.244 . S
C358 O356 1.240 . S
H359 C333 0.931 . S
H360 C342 0.931 . S
H361 C346 0.929 . S
H362 C348 0.930 . S
Co363 N367 2.148 . S
Co363 N373 2.128 . S
Co363 N383 2.194 . S
Co363 O388 2.351 . S
Co363 O389 2.155 . S
Co363 O390 2.096 . S
C364 N367 1.301 . S
C364 N368 1.328 . S
C364 H369 0.930 . S
C365 C366 1.333 . S
C365 N367 1.317 . S
C365 H370 0.930 . S
C366 C365 1.333 . S
C366 N368 1.350 . S
C366 H392 0.931 . S
N367 Co363 2.148 . S
N367 C364 1.301 . S
N367 C365 1.317 . S
N368 C364 1.328 . S
N368 C366 1.350 . S
H369 C364 0.930 . S
H370 C365 0.930 . S
C371 O372 1.224 . S
C371 O390 1.247 . S
O372 C371 1.224 . S
N373 Co363 2.128 . S
N373 C374 1.355 . S
N373 C376 1.311 . S
C374 N373 1.355 . S
C374 C375 1.363 1_556 S
C374 H386 0.929 . S
C375 C374 1.363 1_554 S
C375 N377 1.375 . S
C375 H393 0.931 . S
C376 N373 1.311 . S
C376 N377 1.347 1_556 S
C376 H387 0.929 . S
N377 C375 1.375 . S
N377 C376 1.347 1_554 S
C378 C381 1.365 . S
C378 N383 1.328 . S
C378 H384 0.929 . S
C379 C380 1.362 1_554 S
C379 C382 1.378 1_554 S
C379 H394 0.929 . S
C380 C379 1.362 1_556 S
C380 C381 1.366 . S
C381 C378 1.365 . S
C381 C380 1.366 . S
C381 H395 0.930 . S
C382 C379 1.378 1_556 S
C382 N383 1.315 . S
C382 H385 0.930 . S
N383 Co363 2.194 . S
N383 C378 1.328 . S
N383 C382 1.315 . S
H384 C378 0.929 . S
H385 C382 0.930 . S
H386 C374 0.929 . S
H387 C376 0.929 . S
O388 Co363 2.351 . S
O388 C391 1.244 . S
O389 Co363 2.155 . S
O389 C391 1.240 . S
O390 Co363 2.096 . S
O390 C371 1.247 . S
C391 O388 1.244 . S
C391 O389 1.240 . S
H392 C366 0.931 . S
H393 C375 0.931 . S
H394 C379 0.929 . S
H395 C381 0.930 . S
H396 C404 0.950 . S
H397 C409 0.950 . S
H398 C406 0.950 . S
H399 C408 0.950 . S
H400 C410 0.950 . S
H401 C412 0.950 . S
H402 C414 0.950 . S
H403 C415 0.950 . S
C404 H396 0.950 . S
C404 C405 1.386 . S
C404 C406 1.391 . S
C405 C404 1.386 . S
C405 C409 1.393 1_554 S
C406 H398 0.950 . S
C406 C404 1.391 . S
C406 C407 1.400 . S
C407 C406 1.400 . S
C407 C408 1.398 1_554 S
C407 C413 1.491 1_554 S
C408 H399 0.950 . S
C408 C407 1.398 1_556 S
C408 C409 1.391 . S
C409 H397 0.950 . S
C409 C405 1.393 1_556 S
C409 C408 1.391 . S
C410 H400 0.950 . S
C410 C411 1.386 . S
C410 C412 1.391 . S
C411 C410 1.386 . S
C411 C415 1.393 1_556 S
C412 H401 0.950 . S
C412 C410 1.391 . S
C412 C413 1.400 . S
C413 C407 1.491 1_556 S
C413 C412 1.400 . S
C413 C414 1.398 1_556 S
C414 H402 0.950 . S
C414 C413 1.398 1_554 S
C414 C415 1.391 . S
C415 H403 0.950 . S
C415 C411 1.393 1_554 S
C415 C414 1.391 . S
H416 C424 0.950 . S
H417 C429 0.950 . S
H418 C426 0.950 . S
H419 C428 0.950 . S
H420 C430 0.950 . S
H421 C432 0.950 . S
H422 C434 0.950 . S
H423 C435 0.950 . S
C424 H416 0.950 . S
C424 C425 1.386 . S
C424 C426 1.391 . S
C425 C424 1.386 . S
C425 C429 1.393 . S
C426 H418 0.950 . S
C426 C424 1.391 . S
C426 C427 1.400 . S
C427 C426 1.400 . S
C427 C428 1.398 . S
C427 C433 1.491 1_655 S
C428 H419 0.950 . S
C428 C427 1.398 . S
C428 C429 1.391 . S
C429 H417 0.950 . S
C429 C425 1.393 . S
C429 C428 1.391 . S
C430 H420 0.950 . S
C430 C431 1.386 . S
C430 C432 1.391 . S
C431 C430 1.386 . S
C431 C435 1.393 . S
C432 H421 0.950 . S
C432 C430 1.391 . S
C432 C433 1.400 . S
C433 C427 1.491 1_455 S
C433 C432 1.400 . S
C433 C434 1.398 . S
C434 H422 0.950 . S
C434 C433 1.398 . S
C434 C435 1.391 . S
C435 H423 0.950 . S
C435 C431 1.393 . S
C435 C434 1.391 . S
H436 C444 0.950 . S
H437 C449 0.950 . S
H438 C446 0.950 . S
H439 C448 0.950 . S
H440 C450 0.950 . S
H441 C452 0.950 . S
H442 C454 0.950 . S
H443 C455 0.950 . S
C444 H436 0.950 . S
C444 C445 1.386 1_556 S
C444 C446 1.391 . S
C445 C444 1.386 1_554 S
C445 C449 1.393 . S
C446 H438 0.950 . S
C446 C444 1.391 . S
C446 C447 1.379 1_556 S
C447 C446 1.379 1_554 S
C447 C448 1.421 . S
C447 C453 1.489 1_544 S
C448 H439 0.950 . S
C448 C447 1.421 . S
C448 C449 1.391 . S
C449 H437 0.950 . S
C449 C445 1.393 . S
C449 C448 1.391 . S
C450 H440 0.950 . S
C450 C451 1.386 1_554 S
C450 C452 1.391 . S
C451 C450 1.386 1_556 S
C451 C455 1.393 . S
C452 H441 0.950 . S
C452 C450 1.391 . S
C452 C453 1.379 1_554 S
C453 C447 1.489 1_566 S
C453 C452 1.379 1_556 S
C453 C454 1.421 . S
C454 H442 0.950 . S
C454 C453 1.421 . S
C454 C455 1.391 . S
C455 H443 0.950 . S
C455 C451 1.393 . S
C455 C454 1.391 . S
H456 C464 0.950 . S
H457 C469 0.950 . S
H458 C466 0.950 . S
H459 C468 0.950 . S
H460 C470 0.950 . S
H461 C472 0.950 . S
H462 C474 0.950 . S
H463 C475 0.950 . S
C464 H456 0.950 . S
C464 C465 1.386 . S
C464 C466 1.391 . S
C465 C464 1.386 . S
C465 C469 1.393 . S
C466 H458 0.950 . S
C466 C464 1.391 . S
C466 C467 1.400 . S
C467 C466 1.400 . S
C467 C468 1.398 . S
C467 C473 1.491 . S
C468 H459 0.950 . S
C468 C467 1.398 . S
C468 C469 1.391 . S
C469 H457 0.950 . S
C469 C465 1.393 . S
C469 C468 1.391 . S
C470 H460 0.950 . S
C470 C471 1.386 . S
C470 C472 1.391 . S
C471 C470 1.386 . S
C471 C475 1.393 . S
C472 H461 0.950 . S
C472 C470 1.391 . S
C472 C473 1.400 . S
C473 C467 1.491 . S
C473 C472 1.400 . S
C473 C474 1.398 . S
C474 H462 0.950 . S
C474 C473 1.398 . S
C474 C475 1.391 . S
C475 H463 0.950 . S
C475 C471 1.393 . S
C475 C474 1.391 . S
H476 C484 0.950 . S
H477 C489 0.950 . S
H478 C486 0.950 . S
H479 C488 0.950 . S
H480 C490 0.950 . S
H481 C492 0.950 . S
H482 C494 0.950 . S
H483 C495 0.950 . S
C484 H476 0.950 . S
C484 C485 1.386 . S
C484 C486 1.391 . S
C485 C484 1.386 . S
C485 C489 1.393 1_556 S
C486 H478 0.950 . S
C486 C484 1.391 . S
C486 C487 1.400 . S
C487 C486 1.400 . S
C487 C488 1.398 1_556 S
C487 C493 1.491 1_456 S
C488 H479 0.950 . S
C488 C487 1.398 1_554 S
C488 C489 1.391 . S
C489 H477 0.950 . S
C489 C485 1.393 1_554 S
C489 C488 1.391 . S
C490 H480 0.950 . S
C490 C491 1.386 . S
C490 C492 1.391 . S
C491 C490 1.386 . S
C491 C495 1.393 1_554 S
C492 H481 0.950 . S
C492 C490 1.391 . S
C492 C493 1.400 . S
C493 C487 1.491 1_654 S
C493 C492 1.400 . S
C493 C494 1.398 1_554 S
C494 H482 0.950 . S
C494 C493 1.398 1_556 S
C494 C495 1.391 . S
C495 H483 0.950 . S
C495 C491 1.393 1_556 S
C495 C494 1.391 . S
H496 C504 0.950 . S
H497 C509 0.950 . S
H498 C506 0.950 . S
H499 C508 0.950 . S
H500 C510 0.950 . S
H501 C512 0.950 . S
H502 C514 0.950 . S
H503 C515 0.950 . S
C504 H496 0.950 . S
C504 C505 1.386 . S
C504 C506 1.391 . S
C505 C504 1.386 . S
C505 C509 1.393 . S
C506 H498 0.950 . S
C506 C504 1.391 . S
C506 C507 1.400 . S
C507 C506 1.400 . S
C507 C508 1.398 . S
C507 C513 1.491 1_565 S
C508 H499 0.950 . S
C508 C507 1.398 . S
C508 C509 1.391 . S
C509 H497 0.950 . S
C509 C505 1.393 . S
C509 C508 1.391 . S
C510 H500 0.950 . S
C510 C511 1.386 . S
C510 C512 1.391 . S
C511 C510 1.386 . S
C511 C515 1.393 . S
C512 H501 0.950 . S
C512 C510 1.391 . S
C512 C513 1.400 . S
C513 C507 1.491 1_545 S
C513 C512 1.400 . S
C513 C514 1.398 . S
C514 H502 0.950 . S
C514 C513 1.398 . S
C514 C515 1.391 . S
C515 H503 0.950 . S
C515 C511 1.393 . S
C515 C514 1.391 . S
H516 C524 0.950 . S
H517 C529 0.950 1_554 S
H518 C526 0.950 . S
H519 C528 0.950 . S
H520 C530 0.950 . S
H521 C532 0.950 . S
H522 C534 0.950 . S
H523 C535 0.950 . S
C524 H516 0.950 . S
C524 C525 1.386 . S
C524 C526 1.391 . S
C525 C524 1.386 . S
C525 C529 1.393 . S
C526 H518 0.950 . S
C526 C524 1.391 . S
C526 C527 1.400 . S
C527 C526 1.400 . S
C527 C528 1.398 1_556 S
C527 C533 1.491 1_556 S
C528 H519 0.950 . S
C528 C527 1.398 1_554 S
C528 C529 1.391 1_554 S
C529 H517 0.950 1_556 S
C529 C525 1.393 . S
C529 C528 1.391 1_556 S
C530 H520 0.950 . S
C530 C531 1.386 . S
C530 C532 1.391 . S
C531 C530 1.386 . S
C531 C535 1.393 1_554 S
C532 H521 0.950 . S
C532 C530 1.391 . S
C532 C533 1.400 . S
C533 C527 1.491 1_554 S
C533 C532 1.400 . S
C533 C534 1.398 1_554 S
C534 H522 0.950 . S
C534 C533 1.398 1_556 S
C534 C535 1.391 . S
C535 H523 0.950 . S
C535 C531 1.393 1_556 S
C535 C534 1.391 . S
H536 C544 0.950 . S
H537 C549 0.950 . S
H538 C546 0.950 . S
H539 C548 0.950 . S
H540 C550 0.950 . S
H541 C552 0.950 . S
H542 C554 0.950 . S
H543 C555 0.950 . S
C544 H536 0.950 . S
C544 C545 1.386 . S
C544 C546 1.391 . S
C545 C544 1.386 . S
C545 C549 1.393 . S
C546 H538 0.950 . S
C546 C544 1.391 . S
C546 C547 1.400 . S
C547 C546 1.400 . S
C547 C548 1.398 . S
C547 C553 1.491 . S
C548 H539 0.950 . S
C548 C547 1.398 . S
C548 C549 1.391 . S
C549 H537 0.950 . S
C549 C545 1.393 . S
C549 C548 1.391 . S
C550 H540 0.950 . S
C550 C551 1.386 . S
C550 C552 1.391 . S
C551 C550 1.386 . S
C551 C555 1.393 . S
C552 H541 0.950 . S
C552 C550 1.391 . S
C552 C553 1.400 . S
C553 C547 1.491 . S
C553 C552 1.400 . S
C553 C554 1.398 . S
C554 H542 0.950 . S
C554 C553 1.398 . S
C554 C555 1.391 . S
C555 H543 0.950 . S
C555 C551 1.393 . S
C555 C554 1.391 . S
H556 C564 0.950 . S
H557 C569 0.950 . S
H558 C566 0.950 . S
H559 C568 0.950 . S
H560 C570 0.950 . S
H561 C572 0.950 . S
H562 C574 0.950 . S
H563 C575 0.950 . S
C564 H556 0.950 . S
C564 C565 1.386 1_554 S
C564 C566 1.391 . S
C565 C564 1.386 1_556 S
C565 C569 1.393 . S
C566 H558 0.950 . S
C566 C564 1.391 . S
C566 C567 1.400 1_554 S
C567 C566 1.400 1_556 S
C567 C568 1.398 . S
C567 C573 1.491 1_556 S
C568 H559 0.950 . S
C568 C567 1.398 . S
C568 C569 1.391 . S
C569 H557 0.950 . S
C569 C565 1.393 . S
C569 C568 1.391 . S
C570 H560 0.950 . S
C570 C571 1.386 1_556 S
C570 C572 1.391 . S
C571 C570 1.386 1_554 S
C571 C575 1.393 . S
C572 H561 0.950 . S
C572 C570 1.391 . S
C572 C573 1.400 1_556 S
C573 C567 1.491 1_554 S
C573 C572 1.400 1_554 S
C573 C574 1.398 . S
C574 H562 0.950 . S
C574 C573 1.398 . S
C574 C575 1.391 . S
C575 H563 0.950 . S
C575 C571 1.393 . S
C575 C574 1.391 . S
H576 C584 0.950 . S
H577 C589 0.950 . S
H578 C586 0.950 . S
H579 C588 0.950 . S
H580 C590 0.950 . S
H581 C592 0.950 . S
H582 C594 0.950 . S
H583 C595 0.950 . S
C584 H576 0.950 . S
C584 C585 1.386 . S
C584 C586 1.391 . S
C585 C584 1.386 . S
C585 C589 1.393 . S
C586 H578 0.950 . S
C586 C584 1.391 . S
C586 C587 1.400 . S
C587 C586 1.400 . S
C587 C588 1.398 . S
C587 C593 1.491 . S
C588 H579 0.950 . S
C588 C587 1.398 . S
C588 C589 1.391 . S
C589 H577 0.950 . S
C589 C585 1.393 . S
C589 C588 1.391 . S
C590 H580 0.950 . S
C590 C591 1.386 . S
C590 C592 1.391 . S
C591 C590 1.386 . S
C591 C595 1.393 . S
C592 H581 0.950 . S
C592 C590 1.391 . S
C592 C593 1.400 . S
C593 C587 1.491 . S
C593 C592 1.400 . S
C593 C594 1.398 . S
C594 H582 0.950 . S
C594 C593 1.398 . S
C594 C595 1.391 . S
C595 H583 0.950 . S
C595 C591 1.393 . S
C595 C594 1.391 . S
H596 C604 0.950 . S
H597 C609 0.950 . S
H598 C606 0.950 . S
H599 C608 0.950 . S
H600 C610 0.950 . S
H601 C612 0.950 . S
H602 C614 0.950 . S
H603 C615 0.950 . S
C604 H596 0.950 . S
C604 C605 1.386 . S
C604 C606 1.391 . S
C605 C604 1.386 . S
C605 C609 1.393 1_554 S
C606 H598 0.950 . S
C606 C604 1.391 . S
C606 C607 1.400 . S
C607 C606 1.400 . S
C607 C608 1.398 1_554 S
C607 C613 1.491 1_554 S
C608 H599 0.950 . S
C608 C607 1.398 1_556 S
C608 C609 1.391 . S
C609 H597 0.950 . S
C609 C605 1.393 1_556 S
C609 C608 1.391 . S
C610 H600 0.950 . S
C610 C611 1.386 . S
C610 C612 1.391 . S
C611 C610 1.386 . S
C611 C615 1.393 1_556 S
C612 H601 0.950 . S
C612 C610 1.391 . S
C612 C613 1.400 . S
C613 C607 1.491 1_556 S
C613 C612 1.400 . S
C613 C614 1.398 1_556 S
C614 H602 0.950 . S
C614 C613 1.398 1_554 S
C614 C615 1.391 . S
C615 H603 0.950 . S
C615 C611 1.393 1_554 S
C615 C614 1.391 . S
H616 C624 0.950 . S
H617 C629 0.950 . S
H618 C626 0.950 . S
H619 C628 0.950 . S
H620 C630 0.950 . S
H621 C632 0.950 . S
H622 C634 0.950 . S
H623 C635 0.950 . S
C624 H616 0.950 . S
C624 C625 1.386 . S
C624 C626 1.391 . S
C625 C624 1.386 . S
C625 C629 1.393 . S
C626 H618 0.950 . S
C626 C624 1.391 . S
C626 C627 1.400 . S
C627 C626 1.400 . S
C627 C628 1.398 . S
C627 C633 1.491 . S
C628 H619 0.950 . S
C628 C627 1.398 . S
C628 C629 1.391 . S
C629 H617 0.950 . S
C629 C625 1.393 . S
C629 C628 1.391 . S
C630 H620 0.950 . S
C630 C631 1.386 . S
C630 C632 1.391 . S
C631 C630 1.386 . S
C631 C635 1.393 . S
C632 H621 0.950 . S
C632 C630 1.391 . S
C632 C633 1.400 . S
C633 C627 1.491 . S
C633 C632 1.400 . S
C633 C634 1.398 . S
C634 H622 0.950 . S
C634 C633 1.398 . S
C634 C635 1.391 . S
C635 H623 0.950 . S
C635 C631 1.393 . S
C635 C634 1.391 . S
H636 C644 0.950 . S
H637 C649 0.950 . S
H638 C646 0.950 . S
H639 C648 0.950 . S
H640 C650 0.950 . S
H641 C652 0.950 . S
H642 C654 0.950 . S
H643 C655 0.950 . S
C644 H636 0.950 . S
C644 C645 1.386 . S
C644 C646 1.391 . S
C645 C644 1.386 . S
C645 C649 1.393 . S
C646 H638 0.950 . S
C646 C644 1.391 . S
C646 C647 1.400 . S
C647 C646 1.400 . S
C647 C648 1.398 . S
C647 C653 1.491 . S
C648 H639 0.950 . S
C648 C647 1.398 . S
C648 C649 1.391 . S
C649 H637 0.950 . S
C649 C645 1.393 . S
C649 C648 1.391 . S
C650 H640 0.950 . S
C650 C651 1.386 . S
C650 C652 1.391 . S
C651 C650 1.386 . S
C651 C655 1.393 . S
C652 H641 0.950 . S
C652 C650 1.391 . S
C652 C653 1.400 . S
C653 C647 1.491 . S
C653 C652 1.400 . S
C653 C654 1.398 . S
C654 H642 0.950 . S
C654 C653 1.398 . S
C654 C655 1.391 . S
C655 H643 0.950 . S
C655 C651 1.393 . S
C655 C654 1.391 . S
H656 C664 0.950 1_556 S
H657 C669 0.950 . S
H658 C666 0.950 . S
H659 C668 0.950 . S
H660 C670 0.959 . S
H661 C672 0.950 . S
H662 C674 0.950 . S
H663 C675 0.950 . S
C664 H656 0.950 1_554 S
C664 C665 1.386 . S
C664 C666 1.391 1_554 S
C665 C664 1.386 . S
C665 C669 1.393 . S
C666 H658 0.950 . S
C666 C664 1.391 1_556 S
C666 C667 1.400 1_556 S
C667 C666 1.400 1_554 S
C667 C668 1.398 . S
C667 C673 1.491 1_554 S
C668 H659 0.950 . S
C668 C667 1.398 . S
C668 C669 1.391 . S
C669 H657 0.950 . S
C669 C665 1.393 . S
C669 C668 1.391 . S
C670 H660 0.959 . S
C670 C671 1.369 1_554 S
C670 C672 1.399 . S
C671 C670 1.369 1_556 S
C671 C675 1.393 . S
C672 H661 0.950 . S
C672 C670 1.399 . S
C672 C673 1.400 1_554 S
C673 C667 1.491 1_556 S
C673 C672 1.400 1_556 S
C673 C674 1.398 . S
C674 H662 0.950 . S
C674 C673 1.398 . S
C674 C675 1.391 . S
C675 H663 0.950 . S
C675 C671 1.393 . S
C675 C674 1.391 . S
H676 C684 0.950 . S
H677 C689 0.950 . S
H678 C686 0.950 . S
H679 C688 0.950 . S
H680 C690 0.950 . S
H681 C692 0.950 . S
H682 C694 0.950 . S
H683 C695 0.950 . S
C684 H676 0.950 . S
C684 C685 1.386 . S
C684 C686 1.391 . S
C685 C684 1.386 . S
C685 C689 1.393 . S
C686 H678 0.950 . S
C686 C684 1.391 . S
C686 C687 1.400 . S
C687 C686 1.400 . S
C687 C688 1.398 . S
C687 C693 1.491 . S
C688 H679 0.950 . S
C688 C687 1.398 . S
C688 C689 1.391 . S
C689 H677 0.950 . S
C689 C685 1.393 . S
C689 C688 1.391 . S
C690 H680 0.950 . S
C690 C691 1.386 . S
C690 C692 1.391 . S
C691 C690 1.386 . S
C691 C695 1.393 . S
C692 H681 0.950 . S
C692 C690 1.391 . S
C692 C693 1.400 . S
C693 C687 1.491 . S
C693 C692 1.400 . S
C693 C694 1.398 . S
C694 H682 0.950 . S
C694 C693 1.398 . S
C694 C695 1.391 . S
C695 H683 0.950 . S
C695 C691 1.393 . S
C695 C694 1.391 . S
H696 C704 0.950 . S
H697 C709 0.950 . S
H698 C706 0.950 . S
H699 C708 0.950 . S
H700 C710 0.950 . S
H701 C712 0.950 1_556 S
H702 C714 0.950 . S
H703 C715 0.950 . S
C704 H696 0.950 . S
C704 C705 1.386 . S
C704 C706 1.391 1_556 S
C705 C704 1.386 . S
C705 C709 1.393 . S
C706 H698 0.950 . S
C706 C704 1.391 1_554 S
C706 C707 1.400 1_554 S
C707 C706 1.400 1_556 S
C707 C708 1.398 . S
C707 C713 1.491 1_556 S
C708 H699 0.950 . S
C708 C707 1.398 . S
C708 C709 1.391 . S
C709 H697 0.950 . S
C709 C705 1.393 . S
C709 C708 1.391 . S
C710 H700 0.950 . S
C710 C711 1.386 . S
C710 C712 1.391 . S
C711 C710 1.386 . S
C711 C715 1.393 . S
C712 H701 0.950 1_554 S
C712 C710 1.391 . S
C712 C713 1.400 . S
C713 C707 1.491 1_554 S
C713 C712 1.400 . S
C713 C714 1.398 . S
C714 H702 0.950 . S
C714 C713 1.398 . S
C714 C715 1.391 . S
C715 H703 0.950 . S
C715 C711 1.393 . S
C715 C714 1.391 . S
H716 C724 0.950 . S
H717 C729 0.950 . S
H718 C726 0.950 . S
H719 C728 0.950 . S
H720 C730 0.950 . S
H721 C732 0.950 . S
H722 C734 0.950 . S
H723 C735 0.950 . S
C724 H716 0.950 . S
C724 C725 1.386 . S
C724 C726 1.391 . S
C725 C724 1.386 . S
C725 C729 1.393 . S
C726 H718 0.950 . S
C726 C724 1.391 . S
C726 C727 1.400 . S
C727 C726 1.400 . S
C727 C728 1.398 . S
C727 C733 1.491 . S
C728 H719 0.950 . S
C728 C727 1.398 . S
C728 C729 1.391 . S
C729 H717 0.950 . S
C729 C725 1.393 . S
C729 C728 1.391 . S
C730 H720 0.950 . S
C730 C731 1.386 . S
C730 C732 1.391 . S
C731 C730 1.386 . S
C731 C735 1.393 . S
C732 H721 0.950 . S
C732 C730 1.391 . S
C732 C733 1.400 . S
C733 C727 1.491 . S
C733 C732 1.400 . S
C733 C734 1.398 . S
C734 H722 0.950 . S
C734 C733 1.398 . S
C734 C735 1.391 . S
C735 H723 0.950 . S
C735 C731 1.393 . S
C735 C734 1.391 . S
H736 C744 0.950 . S
H737 C749 0.950 . S
H738 C746 0.950 . S
H739 C748 0.950 . S
H740 C750 0.950 . S
H741 C752 0.950 . S
H742 C754 0.950 . S
H743 C755 0.950 . S
C744 H736 0.950 . S
C744 C745 1.386 . S
C744 C746 1.391 . S
C745 C744 1.386 . S
C745 C749 1.393 1_554 S
C746 H738 0.950 . S
C746 C744 1.391 . S
C746 C747 1.400 . S
C747 C746 1.400 . S
C747 C748 1.398 1_554 S
C747 C753 1.491 1_554 S
C748 H739 0.950 . S
C748 C747 1.398 1_556 S
C748 C749 1.391 . S
C749 H737 0.950 . S
C749 C745 1.393 1_556 S
C749 C748 1.391 . S
C750 H740 0.950 . S
C750 C751 1.386 . S
C750 C752 1.391 . S
C751 C750 1.386 . S
C751 C755 1.393 1_556 S
C752 H741 0.950 . S
C752 C750 1.391 . S
C752 C753 1.400 . S
C753 C747 1.491 1_556 S
C753 C752 1.400 . S
C753 C754 1.398 1_556 S
C754 H742 0.950 . S
C754 C753 1.398 1_554 S
C754 C755 1.391 . S
C755 H743 0.950 . S
C755 C751 1.393 1_554 S
C755 C754 1.391 . S
H756 C764 0.950 . S
H757 C769 0.950 . S
H758 C766 0.950 . S
H759 C768 0.950 . S
H760 C770 0.950 . S
H761 C772 0.950 . S
H762 C774 0.950 . S
H763 C775 0.950 . S
C764 H756 0.950 . S
C764 C765 1.386 . S
C764 C766 1.391 . S
C765 C764 1.386 . S
C765 C769 1.393 . S
C766 H758 0.950 . S
C766 C764 1.391 . S
C766 C767 1.400 . S
C767 C766 1.400 . S
C767 C768 1.398 . S
C767 C773 1.491 . S
C768 H759 0.950 . S
C768 C767 1.398 . S
C768 C769 1.391 . S
C769 H757 0.950 . S
C769 C765 1.393 . S
C769 C768 1.391 . S
C770 H760 0.950 . S
C770 C771 1.386 . S
C770 C772 1.391 . S
C771 C770 1.386 . S
C771 C775 1.393 . S
C772 H761 0.950 . S
C772 C770 1.391 . S
C772 C773 1.400 . S
C773 C767 1.491 . S
C773 C772 1.400 . S
C773 C774 1.398 . S
C774 H762 0.950 . S
C774 C773 1.398 . S
C774 C775 1.391 . S
C775 H763 0.950 . S
C775 C771 1.393 . S
C775 C774 1.391 . S
H776 C784 0.950 . S
H777 C789 0.950 . S
H778 C786 0.950 . S
H779 C788 0.950 . S
H780 C790 0.950 . S
H781 C792 0.950 . S
H782 C794 0.950 . S
H783 C795 0.950 . S
C784 H776 0.950 . S
C784 C785 1.386 . S
C784 C786 1.391 . S
C785 C784 1.386 . S
C785 C789 1.393 . S
C786 H778 0.950 . S
C786 C784 1.391 . S
C786 C787 1.400 . S
C787 C786 1.400 . S
C787 C788 1.398 . S
C787 C793 1.491 . S
C788 H779 0.950 . S
C788 C787 1.398 . S
C788 C789 1.391 . S
C789 H777 0.950 . S
C789 C785 1.393 . S
C789 C788 1.391 . S
C790 H780 0.950 . S
C790 C791 1.386 . S
C790 C792 1.391 . S
C791 C790 1.386 . S
C791 C795 1.393 . S
C792 H781 0.950 . S
C792 C790 1.391 . S
C792 C793 1.400 . S
C793 C787 1.491 . S
C793 C792 1.400 . S
C793 C794 1.398 . S
C794 H782 0.950 . S
C794 C793 1.398 . S
C794 C795 1.391 . S
C795 H783 0.950 . S
C795 C791 1.393 . S
C795 C794 1.391 . S
H796 C804 0.950 . S
H797 C809 0.950 . S
H798 C806 0.950 . S
H799 C808 0.950 . S
H800 C810 0.950 . S
H801 C812 0.950 . S
H802 C814 0.950 . S
H803 C815 0.950 . S
C804 H796 0.950 . S
C804 C805 1.386 . S
C804 C806 1.391 . S
C805 C804 1.386 . S
C805 C809 1.393 . S
C806 H798 0.950 . S
C806 C804 1.391 . S
C806 C807 1.400 . S
C807 C806 1.400 . S
C807 C808 1.398 . S
C807 C813 1.491 . S
C808 H799 0.950 . S
C808 C807 1.398 . S
C808 C809 1.391 . S
C809 H797 0.950 . S
C809 C805 1.393 . S
C809 C808 1.391 . S
C810 H800 0.950 . S
C810 C811 1.386 . S
C810 C812 1.391 . S
C811 C810 1.386 . S
C811 C815 1.393 . S
C812 H801 0.950 . S
C812 C810 1.391 . S
C812 C813 1.400 . S
C813 C807 1.491 . S
C813 C812 1.400 . S
C813 C814 1.398 . S
C814 H802 0.950 . S
C814 C813 1.398 . S
C814 C815 1.391 . S
C815 H803 0.950 . S
C815 C811 1.393 . S
C815 C814 1.391 . S
H816 C824 0.950 . S
H817 C829 0.950 . S
H818 C826 0.950 . S
H819 C828 0.950 . S
H820 C830 0.950 . S
H821 C832 0.950 . S
H822 C834 0.950 . S
H823 C835 0.950 . S
C824 H816 0.950 . S
C824 C825 1.386 . S
C824 C826 1.391 . S
C825 C824 1.386 . S
C825 C829 1.393 . S
C826 H818 0.950 . S
C826 C824 1.391 . S
C826 C827 1.400 . S
C827 C826 1.400 . S
C827 C828 1.398 . S
C827 C833 1.491 . S
C828 H819 0.950 . S
C828 C827 1.398 . S
C828 C829 1.391 . S
C829 H817 0.950 . S
C829 C825 1.393 . S
C829 C828 1.391 . S
C830 H820 0.950 . S
C830 C831 1.386 . S
C830 C832 1.391 . S
C831 C830 1.386 . S
C831 C835 1.393 . S
C832 H821 0.950 . S
C832 C830 1.391 . S
C832 C833 1.400 . S
C833 C827 1.491 . S
C833 C832 1.400 . S
C833 C834 1.398 . S
C834 H822 0.950 . S
C834 C833 1.398 . S
C834 C835 1.391 . S
C835 H823 0.950 . S
C835 C831 1.393 . S
C835 C834 1.391 . S
H836 C844 0.950 . S
H837 C849 0.950 . S
H838 C846 0.950 . S
H839 C848 0.950 . S
H840 C850 0.950 . S
H841 C852 0.950 . S
H842 C854 0.950 . S
H843 C855 0.950 . S
C844 H836 0.950 . S
C844 C845 1.386 . S
C844 C846 1.391 . S
C845 C844 1.386 . S
C845 C849 1.393 . S
C846 H838 0.950 . S
C846 C844 1.391 . S
C846 C847 1.400 . S
C847 C846 1.400 . S
C847 C848 1.398 . S
C847 C853 1.491 . S
C848 H839 0.950 . S
C848 C847 1.398 . S
C848 C849 1.391 . S
C849 H837 0.950 . S
C849 C845 1.393 . S
C849 C848 1.391 . S
C850 H840 0.950 . S
C850 C851 1.386 . S
C850 C852 1.391 . S
C851 C850 1.386 . S
C851 C855 1.393 . S
C852 H841 0.950 . S
C852 C850 1.391 . S
C852 C853 1.400 . S
C853 C847 1.491 . S
C853 C852 1.400 . S
C853 C854 1.398 . S
C854 H842 0.950 . S
C854 C853 1.398 . S
C854 C855 1.391 . S
C855 H843 0.950 . S
C855 C851 1.393 . S
C855 C854 1.391 . S
H856 C864 0.950 . S
H857 C869 0.950 . S
H858 C866 0.950 . S
H859 C868 0.950 . S
H860 C870 0.950 . S
H861 C872 0.950 . S
H862 C874 0.950 . S
H863 C875 0.950 . S
C864 H856 0.950 . S
C864 C865 1.386 . S
C864 C866 1.391 . S
C865 C864 1.386 . S
C865 C869 1.393 . S
C866 H858 0.950 . S
C866 C864 1.391 . S
C866 C867 1.400 . S
C867 C866 1.400 . S
C867 C868 1.398 . S
C867 C873 1.491 . S
C868 H859 0.950 . S
C868 C867 1.398 . S
C868 C869 1.391 . S
C869 H857 0.950 . S
C869 C865 1.393 . S
C869 C868 1.391 . S
C870 H860 0.950 . S
C870 C871 1.386 . S
C870 C872 1.391 . S
C871 C870 1.386 . S
C871 C875 1.393 . S
C872 H861 0.950 . S
C872 C870 1.391 . S
C872 C873 1.400 . S
C873 C867 1.491 . S
C873 C872 1.400 . S
C873 C874 1.398 . S
C874 H862 0.950 . S
C874 C873 1.398 . S
C874 C875 1.391 . S
C875 H863 0.950 . S
C875 C871 1.393 . S
C875 C874 1.391 . S
H876 C884 0.950 . S
H877 C889 0.950 . S
H878 C886 0.950 . S
H879 C888 0.950 . S
H880 C890 0.950 . S
H881 C892 0.950 . S
H882 C894 0.950 . S
H883 C895 0.950 . S
C884 H876 0.950 . S
C884 C885 1.386 . S
C884 C886 1.391 . S
C885 C884 1.386 . S
C885 C889 1.393 . S
C886 H878 0.950 . S
C886 C884 1.391 . S
C886 C887 1.400 . S
C887 C886 1.400 . S
C887 C888 1.398 . S
C887 C893 1.491 . S
C888 H879 0.950 . S
C888 C887 1.398 . S
C888 C889 1.391 . S
C889 H877 0.950 . S
C889 C885 1.393 . S
C889 C888 1.391 . S
C890 H880 0.950 . S
C890 C891 1.386 . S
C890 C892 1.391 . S
C891 C890 1.386 . S
C891 C895 1.393 . S
C892 H881 0.950 . S
C892 C890 1.391 . S
C892 C893 1.400 . S
C893 C887 1.491 . S
C893 C892 1.400 . S
C893 C894 1.398 . S
C894 H882 0.950 . S
C894 C893 1.398 . S
C894 C895 1.391 . S
C895 H883 0.950 . S
C895 C891 1.393 . S
C895 C894 1.391 . S
H896 C904 0.950 . S
H897 C909 0.950 . S
H898 C906 0.950 . S
H899 C908 0.950 . S
H900 C910 0.950 . S
H901 C912 0.950 . S
H902 C914 0.950 . S
H903 C915 0.950 . S
C904 H896 0.950 . S
C904 C905 1.386 . S
C904 C906 1.391 . S
C905 C904 1.386 . S
C905 C909 1.393 . S
C906 H898 0.950 . S
C906 C904 1.391 . S
C906 C907 1.400 . S
C907 C906 1.400 . S
C907 C908 1.398 . S
C907 C913 1.491 . S
C908 H899 0.950 . S
C908 C907 1.398 . S
C908 C909 1.391 . S
C909 H897 0.950 . S
C909 C905 1.393 . S
C909 C908 1.391 . S
C910 H900 0.950 . S
C910 C911 1.386 . S
C910 C912 1.391 . S
C911 C910 1.386 . S
C911 C915 1.393 . S
C912 H901 0.950 . S
C912 C910 1.391 . S
C912 C913 1.400 . S
C913 C907 1.491 . S
C913 C912 1.400 . S
C913 C914 1.398 . S
C914 H902 0.950 . S
C914 C913 1.398 . S
C914 C915 1.391 . S
C915 H903 0.950 . S
C915 C911 1.393 . S
C915 C914 1.391 . S
H916 C924 0.950 . S
H917 C929 0.950 . S
H918 C926 0.950 . S
H919 C928 0.950 . S
H920 C930 0.950 . S
H921 C932 0.950 . S
H922 C934 0.950 . S
H923 C935 0.950 . S
C924 H916 0.950 . S
C924 C925 1.386 . S
C924 C926 1.391 . S
C925 C924 1.386 . S
C925 C929 1.393 . S
C926 H918 0.950 . S
C926 C924 1.391 . S
C926 C927 1.400 . S
C927 C926 1.400 . S
C927 C928 1.398 . S
C927 C933 1.491 . S
C928 H919 0.950 . S
C928 C927 1.398 . S
C928 C929 1.391 . S
C929 H917 0.950 . S
C929 C925 1.393 . S
C929 C928 1.391 . S
C930 H920 0.950 . S
C930 C931 1.386 . S
C930 C932 1.391 . S
C931 C930 1.386 . S
C931 C935 1.393 . S
C932 H921 0.950 . S
C932 C930 1.391 . S
C932 C933 1.400 . S
C933 C927 1.491 . S
C933 C932 1.400 . S
C933 C934 1.398 . S
C934 H922 0.950 . S
C934 C933 1.398 . S
C934 C935 1.391 . S
C935 H923 0.950 . S
C935 C931 1.393 . S
C935 C934 1.391 . S
H936 C944 0.950 . S
H937 C949 0.950 . S
H938 C946 0.950 . S
H939 C948 0.950 . S
H940 C950 0.950 . S
H941 C952 0.950 . S
H942 C954 0.950 . S
H943 C955 0.950 . S
C944 H936 0.950 . S
C944 C945 1.386 . S
C944 C946 1.391 . S
C945 C944 1.386 . S
C945 C949 1.393 . S
C946 H938 0.950 . S
C946 C944 1.391 . S
C946 C947 1.400 . S
C947 C946 1.400 . S
C947 C948 1.398 . S
C947 C953 1.491 . S
C948 H939 0.950 . S
C948 C947 1.398 . S
C948 C949 1.391 . S
C949 H937 0.950 . S
C949 C945 1.393 . S
C949 C948 1.391 . S
C950 H940 0.950 . S
C950 C951 1.386 . S
C950 C952 1.391 . S
C951 C950 1.386 . S
C951 C955 1.393 . S
C952 H941 0.950 . S
C952 C950 1.391 . S
C952 C953 1.400 . S
C953 C947 1.491 . S
C953 C952 1.400 . S
C953 C954 1.398 . S
C954 H942 0.950 . S
C954 C953 1.398 . S
C954 C955 1.391 . S
C955 H943 0.950 . S
C955 C951 1.393 . S
C955 C954 1.391 . S
H956 C964 0.950 . S
H957 C969 0.950 . S
H958 C966 0.950 . S
H959 C968 0.950 . S
H960 C970 0.950 . S
H961 C972 0.950 . S
H962 C974 0.950 . S
H963 C975 0.950 . S
C964 H956 0.950 . S
C964 C965 1.386 . S
C964 C966 1.391 . S
C965 C964 1.386 . S
C965 C969 1.393 . S
C966 H958 0.950 . S
C966 C964 1.391 . S
C966 C967 1.400 . S
C967 C966 1.400 . S
C967 C968 1.398 . S
C967 C973 1.491 . S
C968 H959 0.950 . S
C968 C967 1.398 . S
C968 C969 1.391 . S
C969 H957 0.950 . S
C969 C965 1.393 . S
C969 C968 1.391 . S
C970 H960 0.950 . S
C970 C971 1.386 . S
C970 C972 1.391 . S
C971 C970 1.386 . S
C971 C975 1.393 . S
C972 H961 0.950 . S
C972 C970 1.391 . S
C972 C973 1.400 . S
C973 C967 1.491 . S
C973 C972 1.400 . S
C973 C974 1.398 . S
C974 H962 0.950 . S
C974 C973 1.398 . S
C974 C975 1.391 . S
C975 H963 0.950 . S
C975 C971 1.393 . S
C975 C974 1.391 . S
H976 C984 0.950 . S
H977 C989 0.950 . S
H978 C986 0.950 . S
H979 C988 0.950 . S
H980 C990 0.950 . S
H981 C992 0.950 . S
H982 C994 0.950 . S
H983 C995 0.950 . S
C984 H976 0.950 . S
C984 C985 1.386 . S
C984 C986 1.391 . S
C985 C984 1.386 . S
C985 C989 1.393 . S
C986 H978 0.950 . S
C986 C984 1.391 . S
C986 C987 1.400 . S
C987 C986 1.400 . S
C987 C988 1.398 . S
C987 C993 1.491 . S
C988 H979 0.950 . S
C988 C987 1.398 . S
C988 C989 1.391 . S
C989 H977 0.950 . S
C989 C985 1.393 . S
C989 C988 1.391 . S
C990 H980 0.950 . S
C990 C991 1.386 . S
C990 C992 1.391 . S
C991 C990 1.386 . S
C991 C995 1.393 . S
C992 H981 0.950 . S
C992 C990 1.391 . S
C992 C993 1.400 . S
C993 C987 1.491 . S
C993 C992 1.400 . S
C993 C994 1.398 . S
C994 H982 0.950 . S
C994 C993 1.398 . S
C994 C995 1.391 . S
C995 H983 0.950 . S
C995 C991 1.393 . S
C995 C994 1.391 . S
C405 C314 0.926 1_554 S
C411 C17 0.945 1_556 S
C425 C50 0.896 . S
C431 C347 0.910 . S
C445 C380 0.927 1_554 S
C451 C83 0.904 1_556 S
C465 C116 0.946 . S
C471 C215 0.945 . S
C485 C149 0.908 1_556 S
C491 C248 0.931 1_554 S
C505 C281 0.896 . S
C511 C182 0.908 . S
C525 N14 0.960 . S
C531 C140 1.136 . S
C545 C173 1.139 . S
C551 N47 0.978 . S
C565 N80 0.970 . S
C571 C8 1.124 . S
C585 N113 1.008 . S
C591 C41 1.137 . S
C605 C74 1.123 . S
C611 N146 0.987 . S
C625 C107 1.125 . S
C631 N179 0.957 . S
C645 C272 1.133 . S
C651 N212 0.952 . S
C665 N245 0.956 . S
C671 C305 1.126 . S
C685 C338 1.127 . S
C691 N278 0.952 . S
C705 C371 1.133 . S
C711 N311 1.016 . S
C725 C206 1.137 . S
C731 N344 1.007 . S
C745 N377 0.965 . S
C751 C239 1.137 . S
C765 C358 1.674 . S
C771 C28 1.670 . S
C785 C391 1.676 . S
C791 C61 1.668 . S
C805 C94 1.667 . S
C811 C226 1.681 . S
C825 C127 1.676 . S
C831 C259 1.673 . S
C845 C292 1.671 . S
C851 C160 1.678 . S
C865 C193 1.672 . S
C871 C325 1.671 . S
C885 N203 0.707 . S
C891 N5 0.666 . S
C905 N236 0.638 . S
C911 N38 0.664 . S
C925 N71 0.696 . S
C931 N269 0.685 . S
C945 N302 0.708 . S
C951 N104 0.638 . S
C965 N137 0.645 . S
C971 N335 0.654 . S
C985 N368 0.679 . S
C991 N170 0.700 . S
