# Generated by pormake.
# Topology cds-f, (5)-cn, num edge types: 1
# Building blocks:
#     Node 0, Type 0, BuildingBlock: XOMCOT_clean_sbu_0, # of connection points: 5
#     Node 1, Type 0, BuildingBlock: XOMCOT_clean_sbu_0, # of connection points: 5
#     Node 2, Type 0, BuildingBlock: XOMCOT_clean_sbu_0, # of connection points: 5
#     Node 3, Type 0, BuildingBlock: XOMCOT_clean_sbu_0, # of connection points: 5
#     Node 4, Type 0, BuildingBlock: XOMCOT_clean_sbu_0, # of connection points: 5
#     Node 5, Type 0, BuildingBlock: XOMCOT_clean_sbu_0, # of connection points: 5
#     Node 6, Type 0, BuildingBlock: XOMCOT_clean_sbu_0, # of connection points: 5
#     Node 7, Type 0, BuildingBlock: XOMCOT_clean_sbu_0, # of connection points: 5
#     Node 8, Type 0, BuildingBlock: XOMCOT_clean_sbu_0, # of connection points: 5
#     Node 9, Type 0, BuildingBlock: XOMCOT_clean_sbu_0, # of connection points: 5
#     Node 10, Type 0, BuildingBlock: XOMCOT_clean_sbu_0, # of connection points: 5
#     Node 11, Type 0, BuildingBlock: XOMCOT_clean_sbu_0, # of connection points: 5
#     Node 12, Type 0, BuildingBlock: XOMCOT_clean_sbu_0, # of connection points: 5
#     Node 13, Type 0, BuildingBlock: XOMCOT_clean_sbu_0, # of connection points: 5
#     Node 14, Type 0, BuildingBlock: XOMCOT_clean_sbu_0, # of connection points: 5
#     Node 15, Type 0, BuildingBlock: XOMCOT_clean_sbu_0, # of connection points: 5
#     Edge 16, Type (0, 0), BuildingBlock: EZIPEK_clean_linker_0, # of connection points: 2
#     Edge 17, Type (0, 0), BuildingBlock: EZIPEK_clean_linker_0, # of connection points: 2
#     Edge 18, Type (0, 0), BuildingBlock: EZIPEK_clean_linker_0, # of connection points: 2
#     Edge 19, Type (0, 0), BuildingBlock: EZIPEK_clean_linker_0, # of connection points: 2
#     Edge 20, Type (0, 0), BuildingBlock: EZIPEK_clean_linker_0, # of connection points: 2
#     Edge 21, Type (0, 0), BuildingBlock: EZIPEK_clean_linker_0, # of connection points: 2
#     Edge 22, Type (0, 0), BuildingBlock: EZIPEK_clean_linker_0, # of connection points: 2
#     Edge 23, Type (0, 0), BuildingBlock: EZIPEK_clean_linker_0, # of connection points: 2
#     Edge 24, Type (0, 0), BuildingBlock: EZIPEK_clean_linker_0, # of connection points: 2
#     Edge 25, Type (0, 0), BuildingBlock: EZIPEK_clean_linker_0, # of connection points: 2
#     Edge 26, Type (0, 0), BuildingBlock: EZIPEK_clean_linker_0, # of connection points: 2
#     Edge 27, Type (0, 0), BuildingBlock: EZIPEK_clean_linker_0, # of connection points: 2
#     Edge 28, Type (0, 0), BuildingBlock: EZIPEK_clean_linker_0, # of connection points: 2
#     Edge 29, Type (0, 0), BuildingBlock: EZIPEK_clean_linker_0, # of connection points: 2
#     Edge 30, Type (0, 0), BuildingBlock: EZIPEK_clean_linker_0, # of connection points: 2
#     Edge 31, Type (0, 0), BuildingBlock: EZIPEK_clean_linker_0, # of connection points: 2
#     Edge 32, Type (0, 0), BuildingBlock: EZIPEK_clean_linker_0, # of connection points: 2
#     Edge 33, Type (0, 0), BuildingBlock: EZIPEK_clean_linker_0, # of connection points: 2
#     Edge 34, Type (0, 0), BuildingBlock: EZIPEK_clean_linker_0, # of connection points: 2
#     Edge 35, Type (0, 0), BuildingBlock: EZIPEK_clean_linker_0, # of connection points: 2
#     Edge 36, Type (0, 0), BuildingBlock: EZIPEK_clean_linker_0, # of connection points: 2
#     Edge 37, Type (0, 0), BuildingBlock: EZIPEK_clean_linker_0, # of connection points: 2
#     Edge 38, Type (0, 0), BuildingBlock: EZIPEK_clean_linker_0, # of connection points: 2
#     Edge 39, Type (0, 0), BuildingBlock: EZIPEK_clean_linker_0, # of connection points: 2
#     Edge 40, Type (0, 0), BuildingBlock: EZIPEK_clean_linker_0, # of connection points: 2
#     Edge 41, Type (0, 0), BuildingBlock: EZIPEK_clean_linker_0, # of connection points: 2
#     Edge 42, Type (0, 0), BuildingBlock: EZIPEK_clean_linker_0, # of connection points: 2
#     Edge 43, Type (0, 0), BuildingBlock: EZIPEK_clean_linker_0, # of connection points: 2
#     Edge 44, Type (0, 0), BuildingBlock: EZIPEK_clean_linker_0, # of connection points: 2
#     Edge 45, Type (0, 0), BuildingBlock: EZIPEK_clean_linker_0, # of connection points: 2
#     Edge 46, Type (0, 0), BuildingBlock: EZIPEK_clean_linker_0, # of connection points: 2
#     Edge 47, Type (0, 0), BuildingBlock: EZIPEK_clean_linker_0, # of connection points: 2
#     Edge 48, Type (0, 0), BuildingBlock: EZIPEK_clean_linker_0, # of connection points: 2
#     Edge 49, Type (0, 0), BuildingBlock: EZIPEK_clean_linker_0, # of connection points: 2
#     Edge 50, Type (0, 0), BuildingBlock: EZIPEK_clean_linker_0, # of connection points: 2
#     Edge 51, Type (0, 0), BuildingBlock: EZIPEK_clean_linker_0, # of connection points: 2
#     Edge 52, Type (0, 0), BuildingBlock: EZIPEK_clean_linker_0, # of connection points: 2
#     Edge 53, Type (0, 0), BuildingBlock: EZIPEK_clean_linker_0, # of connection points: 2
#     Edge 54, Type (0, 0), BuildingBlock: EZIPEK_clean_linker_0, # of connection points: 2
#     Edge 55, Type (0, 0), BuildingBlock: EZIPEK_clean_linker_0, # of connection points: 2
# Relax obj value: 0.270
# Max RMSD: 0.210
# Mean RMSD: 0.206
data_MOF--net-cds-f--node1-XOMCOT_clean_sbu_0--edge1-EZIPEK_clean_linker_0
_symmetry_space_group_name_H-M    P1
_symmetry_Int_Tables_number       1
_symmetry_cell_setting            triclinic
loop_
_symmetry_equiv_pos_as_xyz
'x, y, z'
_cell_length_a     27.487638
_cell_length_b     27.465254
_cell_length_c     41.553058
_cell_angle_alpha  90.239777
_cell_angle_beta   89.822961
_cell_angle_gamma 93.429893
loop_
_atom_site_label
_atom_site_type_symbol
_atom_site_fract_x
_atom_site_fract_y
_atom_site_fract_z
_atom_type_partial_charge
Co0 Co 0.26492 0.27699 0.14411 0.0
C1 C 0.15726 0.28604 0.13672 0.0
C2 C 0.17841 0.21233 0.13188 0.0
C3 C 0.12856 0.21224 0.12872 0.0
N4 N 0.19655 0.25853 0.13647 0.0
N5 N 0.11542 0.25845 0.13181 0.0
H6 H 0.15906 0.32507 0.14072 0.0
H7 H 0.20009 0.18076 0.13103 0.0
C8 C 0.30853 0.25155 0.08046 0.0
O9 O 0.3332 0.29401 0.08154 0.0
N10 N 0.33447 0.29398 0.15288 0.0
C11 C 0.35258 0.32894 0.17338 0.0
C12 C 0.40253 0.32862 0.17424 0.0
C13 C 0.37445 0.27081 0.14326 0.0
N14 N 0.41633 0.29235 0.15515 0.0
C15 C 0.26822 0.37992 0.13425 0.0
C16 C 0.23838 0.3792 0.07079 0.0
C17 C 0.25214 0.42361 0.08576 0.0
C18 C 0.26609 0.42374 0.11798 0.0
C19 C 0.24083 0.3358 0.08824 0.0
N20 N 0.25877 0.33635 0.11899 0.0
H21 H 0.27616 0.3815 0.15947 0.0
H22 H 0.22837 0.30193 0.07698 0.0
H23 H 0.33138 0.35187 0.18835 0.0
H24 H 0.37311 0.23811 0.12872 0.0
O25 O 0.24813 0.30292 0.18543 0.0
O26 O 0.26556 0.22645 0.17667 0.0
O27 O 0.28195 0.23767 0.10445 0.0
C28 C 0.2531 0.25977 0.19709 0.0
H29 H 0.10368 0.18072 0.12484 0.0
H30 H 0.42691 0.35226 0.18857 0.0
H31 H 0.22552 0.37818 0.04617 0.0
H32 H 0.27481 0.45774 0.13062 0.0
Co33 Co 0.81148 0.26653 0.62497 0.0
C34 C 0.81621 0.37752 0.6304 0.0
C35 C 0.88054 0.34491 0.64669 0.0
C36 C 0.8875 0.39476 0.65013 0.0
N37 N 0.83557 0.33365 0.6348 0.0
N38 N 0.84716 0.41514 0.63974 0.0
H39 H 0.78091 0.38275 0.62032 0.0
H40 H 0.90672 0.31841 0.6524 0.0
C41 C 0.8269 0.26763 0.6961 0.0
O42 O 0.80646 0.30964 0.69584 0.0
N43 N 0.78992 0.19937 0.6148 0.0
C44 C 0.74654 0.18396 0.60228 0.0
C45 C 0.7445 0.13393 0.59973 0.0
C46 C 0.81459 0.15847 0.61835 0.0
N47 N 0.78726 0.11766 0.60975 0.0
C48 C 0.71671 0.30483 0.62194 0.0
C49 C 0.67428 0.24536 0.669 0.0
C50 C 0.64471 0.27215 0.64947 0.0
C51 C 0.66628 0.30324 0.62632 0.0
C52 C 0.72449 0.24802 0.66379 0.0
N53 N 0.74558 0.27734 0.64045 0.0
H54 H 0.7316 0.32479 0.60156 0.0
H55 H 0.74525 0.22258 0.67631 0.0
H56 H 0.71824 0.20748 0.59545 0.0
H57 H 0.85166 0.1586 0.62708 0.0
O58 O 0.8015 0.28395 0.58088 0.0
O59 O 0.87072 0.25814 0.59967 0.0
O60 O 0.83314 0.24476 0.66951 0.0
C61 C 0.84565 0.27253 0.57518 0.0
H62 H 0.91991 0.41465 0.65907 0.0
H63 H 0.71391 0.11106 0.59092 0.0
H64 H 0.65838 0.2199 0.68649 0.0
H65 H 0.64401 0.32345 0.61027 0.0
Co66 Co 0.77728 0.78489 0.14005 0.0
C67 C 0.8873 0.78259 0.13639 0.0
C68 C 0.86182 0.85484 0.13812 0.0
C69 C 0.91197 0.85852 0.13669 0.0
N70 N 0.84607 0.80728 0.13775 0.0
N71 N 0.92766 0.81313 0.13553 0.0
H72 H 0.8887 0.74353 0.13623 0.0
H73 H 0.83822 0.88492 0.13938 0.0
C74 C 0.7896 0.83552 0.07734 0.0
O75 O 0.82977 0.81212 0.0749 0.0
N76 N 0.7086 0.76345 0.14298 0.0
C77 C 0.69129 0.71702 0.14792 0.0
C78 C 0.64118 0.71531 0.1482 0.0
C79 C 0.66851 0.78956 0.14043 0.0
N80 N 0.62697 0.76075 0.14348 0.0
C81 C 0.80785 0.69077 0.12289 0.0
C82 C 0.75583 0.68077 0.06611 0.0
C83 C 0.77612 0.63997 0.07936 0.0
C84 C 0.80373 0.64567 0.10746 0.0
C85 C 0.75941 0.72498 0.08294 0.0
N86 N 0.78567 0.72998 0.11091 0.0
H87 H 0.82541 0.69271 0.14605 0.0
H88 H 0.73731 0.75349 0.07475 0.0
H89 H 0.7136 0.68637 0.15136 0.0
H90 H 0.66961 0.82854 0.13654 0.0
O91 O 0.78904 0.75237 0.18023 0.0
O92 O 0.76996 0.8292 0.17662 0.0
O93 O 0.76294 0.8296 0.1026 0.0
C94 C 0.781 0.79287 0.19482 0.0
H95 H 0.9352 0.89177 0.13669 0.0
H96 H 0.61689 0.68325 0.15168 0.0
H97 H 0.7337 0.67733 0.0446 0.0
H98 H 0.81948 0.61464 0.11855 0.0
Co99 Co 0.23741 0.77781 0.62182 0.0
C100 C 0.22901 0.66861 0.61763 0.0
C101 C 0.18899 0.69529 0.65758 0.0
C102 C 0.19115 0.6456 0.66062 0.0
N103 N 0.21427 0.71036 0.63122 0.0
N104 N 0.21638 0.62851 0.63554 0.0
H105 H 0.25068 0.66762 0.59592 0.0
H106 H 0.17224 0.71877 0.67475 0.0
C107 C 0.23073 0.83109 0.68745 0.0
O108 O 0.25914 0.86812 0.67772 0.0
N109 N 0.26179 0.84462 0.61161 0.0
C110 C 0.30547 0.85651 0.59782 0.0
C111 C 0.31078 0.90617 0.59361 0.0
C112 C 0.24026 0.88773 0.61444 0.0
N113 N 0.2701 0.92583 0.60429 0.0
C114 C 0.32901 0.73755 0.6104 0.0
C115 C 0.37413 0.76503 0.66734 0.0
C116 C 0.40107 0.74441 0.6429 0.0
C117 C 0.37793 0.72958 0.61444 0.0
C118 C 0.32577 0.7745 0.66168 0.0
N119 N 0.30337 0.76119 0.63337 0.0
H120 H 0.31289 0.72635 0.58784 0.0
H121 H 0.30827 0.79402 0.67997 0.0
H122 H 0.33213 0.83099 0.59114 0.0
H123 H 0.20443 0.89137 0.62473 0.0
O124 O 0.24135 0.76249 0.57692 0.0
O125 O 0.17558 0.78908 0.60035 0.0
O126 O 0.21966 0.7955 0.66826 0.0
C127 C 0.19693 0.77447 0.57423 0.0
H128 H 0.17681 0.62386 0.68056 0.0
H129 H 0.34249 0.92655 0.58406 0.0
H130 H 0.3913 0.77679 0.68973 0.0
H131 H 0.3979 0.71326 0.59506 0.0
Co132 Co 0.27088 0.79725 0.89127 0.0
C133 C 0.3815 0.79984 0.89306 0.0
C134 C 0.35398 0.85647 0.86422 0.0
C135 C 0.40415 0.85999 0.86245 0.0
N136 N 0.33933 0.81831 0.88302 0.0
N137 N 0.42135 0.82436 0.88051 0.0
H138 H 0.38375 0.76977 0.90945 0.0
H139 H 0.32985 0.88038 0.85241 0.0
C140 C 0.2205 0.82155 0.82672 0.0
O141 O 0.1771 0.80556 0.83627 0.0
N142 N 0.20279 0.77611 0.90024 0.0
C143 C 0.18735 0.73111 0.91045 0.0
C144 C 0.13773 0.72923 0.91512 0.0
C145 C 0.16212 0.80181 0.90059 0.0
N146 N 0.12191 0.7735 0.90872 0.0
C147 C 0.30761 0.70207 0.89444 0.0
C148 C 0.25771 0.66265 0.84192 0.0
C149 C 0.28278 0.63226 0.86194 0.0
C150 C 0.30898 0.65238 0.88795 0.0
C151 C 0.25712 0.71216 0.84934 0.0
N152 N 0.28181 0.73168 0.87538 0.0
H153 H 0.32402 0.71558 0.91644 0.0
H154 H 0.23351 0.73317 0.83539 0.0
H155 H 0.21048 0.7013 0.9144 0.0
H156 H 0.16164 0.83991 0.89408 0.0
O157 O 0.2847 0.78704 0.93604 0.0
O158 O 0.26311 0.85712 0.91592 0.0
O159 O 0.25702 0.82087 0.84572 0.0
C160 C 0.27505 0.83204 0.941 0.0
H161 H 0.4264 0.88663 0.84895 0.0
H162 H 0.11479 0.69763 0.92217 0.0
H163 H 0.23611 0.64768 0.82205 0.0
H164 H 0.32772 0.62932 0.90433 0.0
Co165 Co 0.26341 0.26233 0.3889 0.0
C166 C 0.26127 0.151 0.3921 0.0
C167 C 0.19331 0.18083 0.40372 0.0
C168 C 0.18717 0.1307 0.40533 0.0
N169 N 0.24015 0.19409 0.39623 0.0
N170 N 0.23004 0.11232 0.39806 0.0
H171 H 0.29758 0.14643 0.38363 0.0
H172 H 0.16509 0.20614 0.40725 0.0
C173 C 0.22782 0.26125 0.45599 0.0
O174 O 0.25297 0.22235 0.45911 0.0
N175 N 0.28412 0.33036 0.38071 0.0
C176 C 0.32726 0.3463 0.36784 0.0
C177 C 0.32875 0.39641 0.36545 0.0
C178 C 0.25954 0.37113 0.38559 0.0
N179 N 0.28632 0.41193 0.37665 0.0
C180 C 0.35588 0.22503 0.40225 0.0
C181 C 0.38634 0.29568 0.44635 0.0
C182 C 0.4199 0.26367 0.43433 0.0
C183 C 0.40298 0.22554 0.41414 0.0
C184 C 0.33769 0.29069 0.43612 0.0
N185 N 0.32316 0.25635 0.41355 0.0
H186 H 0.34848 0.20384 0.38095 0.0
H187 H 0.31333 0.31794 0.44361 0.0
H188 H 0.35571 0.32297 0.36064 0.0
H189 H 0.22293 0.37103 0.39524 0.0
O190 O 0.28873 0.24523 0.34759 0.0
O191 O 0.21319 0.26578 0.35621 0.0
O192 O 0.22653 0.2826 0.42869 0.0
C193 C 0.24634 0.25297 0.33576 0.0
H194 H 0.15378 0.10937 0.41075 0.0
H195 H 0.35858 0.41977 0.35611 0.0
H196 H 0.39832 0.32641 0.46135 0.0
H197 H 0.42819 0.20115 0.4035 0.0
Co198 Co 0.80001 0.25935 0.89821 0.0
C199 C 0.68953 0.25937 0.89311 0.0
C200 C 0.7188 0.19412 0.87495 0.0
C201 C 0.66883 0.19 0.87151 0.0
N202 N 0.73227 0.238 0.88792 0.0
N203 N 0.65048 0.23097 0.88305 0.0
H204 H 0.686 0.29419 0.90452 0.0
H205 H 0.74382 0.1667 0.86857 0.0
C206 C 0.80033 0.2446 0.82703 0.0
O207 O 0.75921 0.26661 0.82706 0.0
N208 N 0.86699 0.27971 0.90905 0.0
C209 C 0.88087 0.31925 0.92692 0.0
C210 C 0.93086 0.32217 0.92964 0.0
C211 C 0.90881 0.25871 0.90137 0.0
N212 N 0.94828 0.28411 0.9137 0.0
C213 C 0.76488 0.35551 0.90147 0.0
C214 C 0.82429 0.395 0.85322 0.0
C215 C 0.79623 0.42546 0.8715 0.0
C216 C 0.76571 0.40547 0.89555 0.0
C217 C 0.82237 0.34534 0.85998 0.0
N218 N 0.79205 0.32561 0.88331 0.0
H219 H 0.74533 0.34178 0.92236 0.0
H220 H 0.84842 0.32383 0.8482 0.0
H221 H 0.85625 0.34431 0.9373 0.0
H222 H 0.91041 0.2256 0.88728 0.0
O223 O 0.78203 0.26803 0.94268 0.0
O224 O 0.80637 0.19905 0.92204 0.0
O225 O 0.82217 0.23757 0.8537 0.0
C226 C 0.79274 0.22323 0.94726 0.0
H227 H 0.64742 0.15894 0.8619 0.0
H228 H 0.95283 0.34981 0.94253 0.0
H229 H 0.84977 0.40994 0.83537 0.0
H230 H 0.74511 0.42871 0.91092 0.0
Co231 Co 0.77706 0.78762 0.38902 0.0
C232 C 0.7734 0.89823 0.38839 0.0
C233 C 0.84538 0.87282 0.39225 0.0
C234 C 0.84912 0.92297 0.39135 0.0
N235 N 0.79797 0.85695 0.39065 0.0
N236 N 0.80394 0.93872 0.38897 0.0
H237 H 0.73456 0.89954 0.3858 0.0
H238 H 0.87543 0.84923 0.39362 0.0
C239 C 0.82314 0.80179 0.4536 0.0
O240 O 0.79896 0.84155 0.45561 0.0
N241 N 0.75859 0.71814 0.38695 0.0
C242 C 0.71324 0.69731 0.38302 0.0
C243 C 0.71575 0.64733 0.38206 0.0
C244 C 0.78814 0.68046 0.38815 0.0
N245 N 0.76272 0.63691 0.38531 0.0
C246 C 0.68162 0.8179 0.40146 0.0
C247 C 0.66505 0.76794 0.4584 0.0
C248 C 0.62572 0.78747 0.44259 0.0
C249 C 0.63487 0.814 0.4144 0.0
C250 C 0.71139 0.7714 0.44402 0.0
N251 N 0.71945 0.79636 0.41579 0.0
H252 H 0.68599 0.83475 0.37821 0.0
H253 H 0.73936 0.75049 0.45433 0.0
H254 H 0.6806 0.71703 0.38049 0.0
H255 H 0.82734 0.68477 0.39069 0.0
O256 O 0.74681 0.79646 0.34778 0.0
O257 O 0.82384 0.77972 0.3538 0.0
O258 O 0.81945 0.77565 0.42799 0.0
C259 C 0.78814 0.78861 0.33442 0.0
H260 H 0.88237 0.94617 0.39194 0.0
H261 H 0.68554 0.62062 0.37891 0.0
H262 H 0.6592 0.74689 0.4802 0.0
H263 H 0.60536 0.82929 0.40133 0.0
Co264 Co 0.77245 0.79662 0.902 0.0
C265 C 0.8808 0.7943 0.90897 0.0
C266 C 0.85879 0.85959 0.8863 0.0
C267 C 0.90893 0.86153 0.88749 0.0
N268 N 0.84113 0.81731 0.8994 0.0
N269 N 0.92257 0.82056 0.90168 0.0
H270 H 0.87934 0.75864 0.92003 0.0
H271 H 0.83661 0.88666 0.8759 0.0
C272 C 0.74767 0.78158 0.8327 0.0
O273 O 0.72262 0.74188 0.84211 0.0
N274 N 0.70202 0.77836 0.90506 0.0
C275 C 0.67911 0.75366 0.92945 0.0
C276 C 0.62955 0.75607 0.92653 0.0
C277 C 0.66501 0.79725 0.88836 0.0
N278 N 0.62058 0.7834 0.90078 0.0
C279 C 0.77503 0.694 0.91431 0.0
C280 C 0.82404 0.67007 0.85882 0.0
C281 C 0.80518 0.63307 0.87904 0.0
C282 C 0.78206 0.64531 0.9076 0.0
C283 C 0.81634 0.71848 0.86667 0.0
N284 N 0.7885 0.72966 0.89276 0.0
H285 H 0.75957 0.70279 0.93715 0.0
H286 H 0.83216 0.74687 0.85151 0.0
H287 H 0.69646 0.73891 0.95015 0.0
H288 H 0.6704 0.82277 0.86874 0.0
O289 O 0.77771 0.79358 0.94797 0.0
O290 O 0.75942 0.85977 0.92125 0.0
O291 O 0.76677 0.81088 0.85391 0.0
C292 C 0.76704 0.83882 0.94881 0.0
H293 H 0.93362 0.89008 0.87788 0.0
H294 H 0.60216 0.74136 0.94319 0.0
H295 H 0.84407 0.6616 0.83722 0.0
H296 H 0.76932 0.61738 0.9245 0.0
Co297 Co 0.2712 0.76571 0.38332 0.0
C298 C 0.2751 0.65461 0.38089 0.0
C299 C 0.20291 0.68008 0.38068 0.0
C300 C 0.19932 0.62986 0.37987 0.0
N301 N 0.25032 0.69606 0.38138 0.0
N302 N 0.24462 0.61394 0.38004 0.0
H303 H 0.31417 0.65332 0.38126 0.0
H304 H 0.17273 0.7036 0.38096 0.0
C305 C 0.22194 0.74604 0.44651 0.0
O306 O 0.24637 0.70638 0.44761 0.0
N307 N 0.28989 0.83504 0.38509 0.0
C308 C 0.33545 0.85625 0.38371 0.0
C309 C 0.33283 0.90613 0.38572 0.0
C310 C 0.26012 0.87237 0.38757 0.0
N311 N 0.28558 0.91603 0.38812 0.0
C312 C 0.36627 0.73418 0.39483 0.0
C313 C 0.3801 0.7762 0.45492 0.0
C314 C 0.42014 0.75854 0.43859 0.0
C315 C 0.4124 0.73607 0.40865 0.0
C316 C 0.33458 0.77507 0.43969 0.0
N317 N 0.32785 0.75387 0.40997 0.0
H318 H 0.36257 0.71991 0.3707 0.0
H319 H 0.30623 0.7948 0.45084 0.0
H320 H 0.36838 0.83694 0.38112 0.0
H321 H 0.22079 0.86775 0.38891 0.0
O322 O 0.3023 0.76195 0.34154 0.0
O323 O 0.22524 0.77819 0.34891 0.0
O324 O 0.22714 0.774 0.42206 0.0
C325 C 0.2612 0.77254 0.32896 0.0
H326 H 0.16606 0.6067 0.37925 0.0
H327 H 0.36315 0.93315 0.38533 0.0
H328 H 0.38487 0.79417 0.47805 0.0
H329 H 0.4425 0.72227 0.39517 0.0
Co330 Co 0.29952 0.26199 0.90132 0.0
C331 C 0.19058 0.26895 0.90321 0.0
C332 C 0.21169 0.19504 0.90118 0.0
C333 C 0.16169 0.19429 0.90313 0.0
N334 N 0.23008 0.2418 0.90061 0.0
N335 N 0.14857 0.24062 0.90431 0.0
H336 H 0.19224 0.30831 0.90494 0.0
H337 H 0.23322 0.1634 0.89992 0.0
C338 C 0.27999 0.22815 0.83188 0.0
O339 O 0.23457 0.21526 0.83888 0.0
N340 N 0.36964 0.28075 0.90318 0.0
C341 C 0.39257 0.30937 0.9257 0.0
C342 C 0.44217 0.30675 0.92254 0.0
C343 C 0.40644 0.26041 0.88691 0.0
N344 N 0.45099 0.27594 0.8983 0.0
C345 C 0.29445 0.36476 0.91083 0.0
C346 C 0.26155 0.38735 0.85026 0.0
C347 C 0.27499 0.42488 0.87175 0.0
C348 C 0.29019 0.41338 0.90263 0.0
C349 C 0.26612 0.33909 0.8596 0.0
N350 N 0.2854 0.32824 0.88886 0.0
H351 H 0.30492 0.35679 0.93505 0.0
H352 H 0.25297 0.31112 0.84334 0.0
H353 H 0.3751 0.32783 0.9451 0.0
H354 H 0.40087 0.23274 0.86846 0.0
O355 O 0.2939 0.27013 0.94703 0.0
O356 O 0.31325 0.20137 0.92346 0.0
O357 O 0.30925 0.24356 0.85414 0.0
C358 C 0.30547 0.22544 0.94998 0.0
H359 H 0.13678 0.16225 0.90388 0.0
H360 H 0.46973 0.32405 0.93805 0.0
H361 H 0.24756 0.39529 0.82663 0.0
H362 H 0.29899 0.44181 0.92019 0.0
Co363 Co 0.7828 0.28819 0.3793 0.0
C364 C 0.78524 0.40011 0.38444 0.0
C365 C 0.85493 0.37112 0.37707 0.0
C366 C 0.86116 0.42132 0.37797 0.0
N367 N 0.80721 0.35725 0.3808 0.0
N368 N 0.81726 0.43925 0.38254 0.0
H369 H 0.74723 0.40416 0.3888 0.0
H370 H 0.88354 0.34622 0.37368 0.0
C371 C 0.82356 0.30064 0.44473 0.0
O372 O 0.79853 0.33989 0.44584 0.0
N373 N 0.76087 0.21969 0.37705 0.0
C374 C 0.7163 0.20194 0.36768 0.0
C375 C 0.71497 0.15175 0.36821 0.0
C376 C 0.78644 0.18003 0.38265 0.0
N377 N 0.75893 0.13819 0.37766 0.0
C378 C 0.6918 0.32831 0.39214 0.0
C379 C 0.66402 0.26713 0.44229 0.0
C380 C 0.62973 0.29661 0.42863 0.0
C381 C 0.64536 0.3302 0.40502 0.0
C382 C 0.71206 0.26991 0.43063 0.0
N383 N 0.72525 0.29958 0.40524 0.0
H384 H 0.69929 0.34713 0.36978 0.0
H385 H 0.73693 0.24431 0.43966 0.0
H386 H 0.6869 0.22406 0.36069 0.0
H387 H 0.82431 0.18163 0.38982 0.0
O388 O 0.75362 0.29733 0.33813 0.0
O389 O 0.82936 0.2771 0.3444 0.0
O390 O 0.82324 0.27504 0.41887 0.0
C391 C 0.79408 0.28625 0.32473 0.0
H392 H 0.89508 0.44301 0.37517 0.0
H393 H 0.68432 0.12699 0.3619 0.0
H394 H 0.65301 0.23977 0.45999 0.0
H395 H 0.61966 0.35275 0.39334 0.0
Co396 Co 0.76815 0.28978 0.13088 0.0
C397 C 0.65778 0.28924 0.13742 0.0
C398 C 0.68584 0.21811 0.13525 0.0
C399 C 0.63591 0.21263 0.138 0.0
N400 N 0.69991 0.266 0.13473 0.0
N401 N 0.61835 0.25725 0.13935 0.0
H402 H 0.65541 0.32827 0.13825 0.0
H403 H 0.71043 0.18889 0.13384 0.0
C404 C 0.7891 0.21031 0.08302 0.0
O405 O 0.80594 0.18234 0.10544 0.0
N406 N 0.83656 0.31181 0.12697 0.0
C407 C 0.85518 0.35845 0.12644 0.0
C408 C 0.90529 0.35872 0.12563 0.0
C409 C 0.87586 0.28433 0.12699 0.0
N410 N 0.91808 0.31223 0.12601 0.0
C411 C 0.7338 0.3845 0.12259 0.0
C412 C 0.75998 0.39646 0.05865 0.0
C413 C 0.74764 0.437 0.07674 0.0
C414 C 0.73241 0.43022 0.1086 0.0
C415 C 0.76221 0.35127 0.07386 0.0
N416 N 0.75049 0.34599 0.10582 0.0
H417 H 0.7243 0.3811 0.1477 0.0
H418 H 0.77661 0.32206 0.0601 0.0
H419 H 0.83411 0.39037 0.12745 0.0
H420 H 0.87382 0.24501 0.1287 0.0
O421 O 0.76704 0.31913 0.17274 0.0
O422 O 0.78497 0.2431 0.16439 0.0
O423 O 0.77231 0.25115 0.09006 0.0
C424 C 0.77906 0.27841 0.18496 0.0
H425 H 0.61407 0.17855 0.13921 0.0
H426 H 0.93052 0.39054 0.12563 0.0
H427 H 0.77131 0.40053 0.03377 0.0
H428 H 0.72195 0.46073 0.12316 0.0
Co429 Co 0.77865 0.76201 0.62526 0.0
C430 C 0.79421 0.87105 0.61242 0.0
C431 C 0.74283 0.85316 0.65 0.0
C432 C 0.74681 0.90281 0.64694 0.0
N433 N 0.77214 0.83261 0.62833 0.0
N434 N 0.77903 0.91419 0.62339 0.0
H435 H 0.82073 0.86804 0.59357 0.0
H436 H 0.71987 0.83343 0.66712 0.0
C437 C 0.78079 0.73833 0.69923 0.0
O438 O 0.77615 0.69077 0.69632 0.0
N439 N 0.78375 0.69131 0.62171 0.0
C440 C 0.75582 0.6642 0.60083 0.0
C441 C 0.76692 0.61638 0.6027 0.0
C442 C 0.81292 0.6591 0.63555 0.0
N443 N 0.80247 0.61296 0.62451 0.0
C444 C 0.68026 0.77747 0.60991 0.0
C445 C 0.63781 0.70954 0.652 0.0
C446 C 0.60845 0.73931 0.63439 0.0
C447 C 0.62979 0.7723 0.6122 0.0
C448 C 0.68801 0.71488 0.64815 0.0
N449 N 0.70872 0.75105 0.62924 0.0
H450 H 0.69672 0.80359 0.59313 0.0
H451 H 0.70989 0.69056 0.66098 0.0
H452 H 0.72869 0.67843 0.58522 0.0
H453 H 0.84078 0.66889 0.65314 0.0
O454 O 0.78032 0.76443 0.57921 0.0
O455 O 0.84622 0.77245 0.6097 0.0
O456 O 0.78622 0.76591 0.67446 0.0
C457 C 0.82726 0.77007 0.58082 0.0
H458 H 0.72827 0.92889 0.66142 0.0
H459 H 0.74994 0.58611 0.58926 0.0
H460 H 0.6221 0.6829 0.66881 0.0
H461 H 0.60766 0.795 0.59767 0.0
Co462 Co 0.27415 0.77186 0.13497 0.0
C463 C 0.3852 0.76896 0.13804 0.0
C464 C 0.35861 0.84075 0.13908 0.0
C465 C 0.40866 0.84516 0.14039 0.0
N466 N 0.34344 0.79309 0.13756 0.0
N467 N 0.42523 0.80014 0.13968 0.0
H468 H 0.38717 0.72995 0.137 0.0
H469 H 0.33459 0.87054 0.13901 0.0
C470 C 0.2973 0.81939 0.07239 0.0
O471 O 0.33612 0.7937 0.07281 0.0
N472 N 0.20498 0.75312 0.13292 0.0
C473 C 0.1841 0.70753 0.13536 0.0
C474 C 0.1342 0.70989 0.13491 0.0
C475 C 0.16749 0.7827 0.13119 0.0
N476 N 0.12399 0.75702 0.13232 0.0
C477 C 0.30634 0.6771 0.12134 0.0
C478 C 0.25805 0.66423 0.06328 0.0
C479 C 0.27636 0.62395 0.0785 0.0
C480 C 0.30239 0.631 0.10713 0.0
C481 C 0.2622 0.70975 0.07855 0.0
N482 N 0.28589 0.7159 0.10743 0.0
H483 H 0.32185 0.6803 0.14511 0.0
H484 H 0.24184 0.73846 0.0686 0.0
H485 H 0.20371 0.6749 0.13836 0.0
H486 H 0.17185 0.82207 0.13003 0.0
O487 O 0.27734 0.73974 0.17624 0.0
O488 O 0.26112 0.81702 0.17009 0.0
O489 O 0.26754 0.81599 0.09619 0.0
C490 C 0.26671 0.78055 0.18951 0.0
H491 H 0.43128 0.87876 0.14164 0.0
H492 H 0.10739 0.67956 0.1371 0.0
H493 H 0.23685 0.65962 0.04143 0.0
H494 H 0.31633 0.60031 0.11971 0.0
Co495 Co 0.26996 0.28 0.62725 0.0
C496 C 0.2716 0.17172 0.61243 0.0
C497 C 0.20587 0.19283 0.63523 0.0
C498 C 0.20239 0.14313 0.63101 0.0
N499 N 0.24917 0.21102 0.62383 0.0
N500 N 0.2436 0.12986 0.61681 0.0
H501 H 0.30791 0.17331 0.6022 0.0
H502 H 0.17904 0.21433 0.64676 0.0
C503 C 0.2868 0.2873 0.6986 0.0
O504 O 0.3282 0.31129 0.69199 0.0
N505 N 0.28793 0.3508 0.63147 0.0
C506 C 0.33092 0.37372 0.64015 0.0
C507 C 0.32603 0.42312 0.64203 0.0
C508 C 0.25779 0.38797 0.62791 0.0
N509 N 0.28026 0.43248 0.63374 0.0
C510 C 0.37019 0.28233 0.60942 0.0
C511 C 0.40218 0.22557 0.65897 0.0
C512 C 0.4362 0.25036 0.63893 0.0
C513 C 0.4199 0.27709 0.61303 0.0
C514 C 0.35259 0.2314 0.65418 0.0
N515 N 0.33759 0.26325 0.63156 0.0
H516 H 0.35824 0.30516 0.59024 0.0
H517 H 0.32657 0.21197 0.66954 0.0
H518 H 0.36402 0.35657 0.64592 0.0
H519 H 0.21967 0.38279 0.62189 0.0
O520 O 0.27082 0.28542 0.58125 0.0
O521 O 0.20538 0.29507 0.61122 0.0
O522 O 0.2572 0.27507 0.67573 0.0
C523 C 0.22516 0.29401 0.5826 0.0
H524 H 0.17262 0.11828 0.63874 0.0
H525 H 0.35429 0.45035 0.64883 0.0
H526 H 0.4139 0.20313 0.67852 0.0
H527 H 0.44552 0.2956 0.59666 0.0
C528 C 0.9886 0.28783 0.15771 0.0
C529 C 0.96728 0.2967 0.12745 0.0
C530 C 0.0454 0.28474 0.10049 0.0
C531 C 0.06613 0.27378 0.13059 0.0
N532 N 0.05724 0.25836 0.18717 0.0
N533 N 0.97211 0.29874 0.06986 0.0
C534 C 0.03758 0.27356 0.15906 0.0
C535 C 0.99489 0.2938 0.09873 0.0
N536 N 0.96209 0.29432 0.18509 0.0
N537 N 0.07453 0.28689 0.07378 0.0
H538 H 0.93523 0.3055 0.06824 0.0
H539 H 0.98843 0.29313 0.04764 0.0
H540 H 0.11136 0.27968 0.07461 0.0
H541 H 0.06335 0.29834 0.05129 0.0
H542 H 0.97642 0.29312 0.2082 0.0
H543 H 0.92591 0.30382 0.1846 0.0
H544 H 0.0375 0.25276 0.20837 0.0
H545 H 0.09314 0.24831 0.1887 0.0
C546 C 0.78854 0.03687 0.58293 0.0
C547 C 0.79897 0.06665 0.61044 0.0
C548 C 0.81771 0.9929 0.64012 0.0
C549 C 0.79595 0.96355 0.61551 0.0
N550 N 0.76006 0.957 0.56293 0.0
N551 N 0.82139 0.07105 0.66673 0.0
C552 C 0.78204 0.98525 0.58641 0.0
C553 C 0.8142 0.0443 0.6393 0.0
N554 N 0.78514 0.05821 0.5535 0.0
N555 N 0.84068 0.97098 0.66474 0.0
H556 H 0.81818 0.10831 0.66768 0.0
H557 H 0.82671 0.05562 0.68922 0.0
H558 H 0.8434 0.93323 0.66549 0.0
H559 H 0.86108 0.99027 0.6822 0.0
H560 H 0.78127 0.03849 0.5321 0.0
H561 H 0.79144 0.09573 0.55036 0.0
H562 H 0.74415 0.97133 0.54261 0.0
H563 H 0.75529 0.91917 0.5648 0.0
C564 C 1.0008 0.79329 0.10451 0.0
C565 C 0.9777 0.8002 0.13458 0.0
C566 C 0.05377 0.78561 0.16275 0.0
C567 C 0.07589 0.77532 0.13284 0.0
N568 N 0.07172 0.76674 0.07545 0.0
N569 N 0.97939 0.80036 0.19227 0.0
C570 C 0.04972 0.77867 0.1037 0.0
C571 C 1.00356 0.7958 0.16374 0.0
N572 N 0.97579 0.80151 0.07689 0.0
N573 N 0.08135 0.78614 0.19004 0.0
H574 H 0.94284 0.80855 0.19344 0.0
H575 H 0.99428 0.79353 0.21467 0.0
H576 H 0.11808 0.77868 0.18969 0.0
H577 H 0.06922 0.79695 0.21254 0.0
H578 H 0.99111 0.80125 0.05397 0.0
H579 H 0.93966 0.81122 0.07709 0.0
H580 H 0.05401 0.76409 0.05337 0.0
H581 H 0.10795 0.75743 0.07439 0.0
C582 C 0.24452 1.0033 0.58111 0.0
C583 C 0.2637 0.97761 0.60727 0.0
C584 C 0.27695 0.05457 0.63745 0.0
C585 C 0.25586 0.07991 0.61188 0.0
N586 N 0.21778 0.08007 0.56012 0.0
N587 N 0.30655 0.97876 0.65755 0.0
C588 C 0.23948 0.05467 0.58375 0.0
C589 C 0.28219 1.00334 0.63474 0.0
N590 N 0.23294 0.97842 0.55339 0.0
N591 N 0.29031 0.07966 0.6648 0.0
H592 H 0.31113 0.94145 0.65598 0.0
H593 H 0.32494 0.99531 0.67691 0.0
H594 H 0.28889 0.11741 0.66668 0.0
H595 H 0.30092 0.0634 0.68601 0.0
H596 H 0.2222 0.99462 0.5322 0.0
H597 H 0.23682 0.94103 0.55114 0.0
H598 H 0.2009 0.06416 0.53998 0.0
H599 H 0.2154 0.11783 0.56128 0.0
C600 C 0.99418 0.78451 0.87732 0.0
C601 C 0.97194 0.80591 0.90427 0.0
C602 C 0.04796 0.80274 0.93489 0.0
C603 C 0.07141 0.78521 0.90712 0.0
N604 N 0.06827 0.75819 0.85211 0.0
N605 N 0.97669 0.83861 0.95782 0.0
C606 C 0.04478 0.77571 0.87834 0.0
C607 C 0.9986 0.81578 0.9329 0.0
N608 N 0.96623 0.7718 0.85111 0.0
N609 N 0.07269 0.80516 0.96333 0.0
H610 H 0.94025 0.84721 0.95704 0.0
H611 H 0.99492 0.85127 0.97841 0.0
H612 H 0.10853 0.79501 0.96518 0.0
H613 H 0.05702 0.8136 0.98533 0.0
H614 H 0.97844 0.75277 0.83127 0.0
H615 H 0.92921 0.77805 0.84994 0.0
H616 H 0.05306 0.75458 0.82928 0.0
H617 H 0.10429 0.74844 0.85299 0.0
C618 C 0.26668 0.98706 0.42159 0.0
C619 C 0.26706 0.96394 0.39104 0.0
C620 C 0.23747 0.03729 0.36581 0.0
C621 C 0.24044 0.06152 0.39595 0.0
N622 N 0.25913 0.06203 0.4523 0.0
N623 N 0.25589 0.96617 0.33386 0.0
C624 C 0.2551 0.03691 0.42388 0.0
C625 C 0.25292 0.98878 0.36307 0.0
N626 N 0.27725 0.96082 0.44826 0.0
N627 N 0.21921 0.06085 0.34003 0.0
H628 H 0.26591 0.93031 0.33154 0.0
H629 H 0.25074 0.98317 0.31192 0.0
H630 H 0.20816 0.09647 0.3416 0.0
H631 H 0.21221 0.04463 0.31773 0.0
H632 H 0.27413 0.97344 0.47176 0.0
H633 H 0.28683 0.92468 0.44684 0.0
H634 H 0.27321 0.04817 0.47334 0.0
H635 H 0.25012 0.09828 0.45446 0.0
C636 C 1.0246 0.28218 0.88195 0.0
C637 C 0.999 0.27335 0.91121 0.0
C638 C 0.07476 0.25084 0.93706 0.0
C639 C 0.09921 0.25542 0.90709 0.0
N640 N 0.09754 0.27049 0.85026 0.0
N641 N 0.99762 0.24584 0.96601 0.0
C642 C 0.07415 0.26993 0.8793 0.0
C643 C 1.02365 0.25689 0.93869 0.0
N644 N 1.00183 0.30401 0.85719 0.0
N645 N 0.101 0.24155 0.96398 0.0
H646 H 0.96029 0.25018 0.96774 0.0
H647 H 1.01195 0.22947 0.98613 0.0
H648 H 0.13843 0.2371 0.96319 0.0
H649 H 0.08684 0.24186 0.98723 0.0
H650 H 1.0194 0.31569 0.83613 0.0
H651 H 0.96588 0.31399 0.85885 0.0
H652 H 0.08024 0.27579 0.82841 0.0
H653 H 0.13402 0.2625 0.84787 0.0
C654 C 0.78633 0.06241 0.35319 0.0
C655 C 0.77287 0.08863 0.38093 0.0
C656 C 0.78122 1.01588 0.41421 0.0
C657 C 0.79177 0.98891 0.38616 0.0
N658 N 0.80086 0.98377 0.32885 0.0
N659 N 0.75302 0.09094 0.43715 0.0
C660 C 0.79341 1.01154 0.35556 0.0
C661 C 0.76926 0.06551 0.41134 0.0
N662 N 0.7931 0.08681 0.32479 0.0
N663 N 0.78366 0.99392 0.44355 0.0
H664 H 0.74476 0.12744 0.43558 0.0
H665 H 0.74522 0.07559 0.45957 0.0
H666 H 0.7912 0.95733 0.44601 0.0
H667 H 0.78092 1.0122 0.4654 0.0
H668 H 0.80678 0.07145 0.30397 0.0
H669 H 0.78783 0.12397 0.32265 0.0
H670 H 0.79859 0.99641 0.30537 0.0
H671 H 0.80658 0.94661 0.33019 0.0
C672 C 0.29494 0.49347 0.05713 0.0
C673 C 0.2509 0.47127 0.06934 0.0
C674 C 0.21714 0.55076 0.07662 0.0
C675 C 0.26313 0.57329 0.06772 0.0
N676 N 0.33983 0.56826 0.04046 0.0
N677 N 0.16552 0.47589 0.07992 0.0
C678 C 0.29994 0.54516 0.0546 0.0
C679 C 0.21021 0.49917 0.07501 0.0
N680 N 0.33271 0.4651 0.04998 0.0
N681 N 0.1816 0.57819 0.08902 0.0
H682 H 0.1603 0.43794 0.0791 0.0
H683 H 0.13332 0.49384 0.08171 0.0
H684 H 0.18469 0.61613 0.09006 0.0
H685 H 0.14983 0.56339 0.09974 0.0
H686 H 0.3678 0.4789 0.04444 0.0
H687 H 0.32884 0.42706 0.05047 0.0
H688 H 0.36678 0.55019 0.02848 0.0
H689 H 0.34369 0.60619 0.03848 0.0
C690 C 0.5107 0.29031 0.66443 0.0
C691 C 0.48898 0.25136 0.64582 0.0
C692 C 0.56927 0.22394 0.63157 0.0
C693 C 0.59109 0.26289 0.65019 0.0
N694 N 0.58402 0.32716 0.68917 0.0
N695 N 0.49552 0.17588 0.61699 0.0
C696 C 0.56216 0.29421 0.6682 0.0
C697 C 0.51771 0.2164 0.63113 0.0
N698 N 0.48213 0.32442 0.67753 0.0
N699 N 0.59785 0.1954 0.61334 0.0
H700 H 0.45773 0.16984 0.61582 0.0
H701 H 0.51417 0.14641 0.6087 0.0
H702 H 0.63579 0.1986 0.61388 0.0
H703 H 0.58427 0.17039 0.59624 0.0
H704 H 0.49586 0.35686 0.68799 0.0
H705 H 0.44415 0.32157 0.67652 0.0
H706 H 0.565 0.34781 0.70544 0.0
H707 H 0.62174 0.33128 0.69206 0.0
C708 C 0.80053 0.51089 0.05996 0.0
C709 C 0.75336 0.48761 0.06424 0.0
C710 C 0.718 0.56666 0.06968 0.0
C711 C 0.76539 0.58996 0.06649 0.0
N712 N 0.8475 0.58591 0.04706 0.0
N713 N 0.66663 0.49291 0.06091 0.0
C714 C 0.8051 0.56244 0.05729 0.0
C715 C 0.71186 0.51563 0.06443 0.0
N716 N 0.84122 0.48473 0.06127 0.0
N717 N 0.67979 0.5919 0.08053 0.0
H718 H 0.66172 0.4553 0.05719 0.0
H719 H 0.6351 0.51178 0.05836 0.0
H720 H 0.6824 0.62903 0.0858 0.0
H721 H 0.64614 0.57506 0.08678 0.0
H722 H 0.87642 0.50098 0.06225 0.0
H723 H 0.84011 0.44699 0.06367 0.0
H724 H 0.87652 0.56769 0.03758 0.0
H725 H 0.85135 0.62383 0.04504 0.0
C726 C 0.52552 0.69568 0.63458 0.0
C727 C 0.55566 0.73845 0.6405 0.0
C728 C 0.48444 0.78536 0.64887 0.0
C729 C 0.45427 0.74187 0.64555 0.0
N730 N 0.44699 0.65388 0.64445 0.0
N731 N 0.56417 0.81931 0.66378 0.0
C732 C 0.47516 0.69631 0.64147 0.0
C733 C 0.53523 0.7818 0.65118 0.0
N734 N 0.54421 0.6555 0.62087 0.0
N735 N 0.46539 0.83017 0.64764 0.0
H736 H 0.60167 0.81732 0.66688 0.0
H737 H 0.55007 0.84996 0.67436 0.0
H738 H 0.42859 0.83514 0.64379 0.0
H739 H 0.4871 0.8626 0.6469 0.0
H740 H 0.52247 0.62526 0.61326 0.0
H741 H 0.58071 0.65415 0.61424 0.0
H742 H 0.46134 0.61961 0.64423 0.0
H743 H 0.41012 0.65334 0.65058 0.0
C744 C 0.23167 0.50189 0.87247 0.0
C745 C 0.27256 0.47657 0.86266 0.0
C746 C 0.31392 0.55282 0.84413 0.0
C747 C 0.27649 0.57868 0.85861 0.0
N748 N 0.20028 0.57922 0.88771 0.0
N749 N 0.35283 0.47609 0.83918 0.0
C750 C 0.23507 0.55361 0.87268 0.0
C751 C 0.31355 0.50143 0.84803 0.0
N752 N 0.18969 0.47628 0.88152 0.0
N753 N 0.34952 0.57757 0.82661 0.0
H754 H 0.353 0.43819 0.84062 0.0
H755 H 0.38611 0.49256 0.8319 0.0
H756 H 0.35067 0.61534 0.82361 0.0
H757 H 0.37549 0.56064 0.81295 0.0
H758 H 0.15695 0.49233 0.88593 0.0
H759 H 0.18639 0.43823 0.88186 0.0
H760 H 0.17248 0.56311 0.90183 0.0
H761 H 0.20072 0.6172 0.88779 0.0
C762 C 0.55212 0.28877 0.46277 0.0
C763 C 0.57629 0.28559 0.43258 0.0
C764 C 0.49813 0.28095 0.40536 0.0
C765 C 0.4734 0.276 0.43521 0.0
N766 N 0.47775 0.26871 0.493 0.0
N767 N 0.56991 0.26014 0.37679 0.0
C768 C 0.50058 0.27812 0.46429 0.0
C769 C 0.54853 0.27581 0.40438 0.0
N770 N 0.57773 0.30324 0.48958 0.0
N771 N 0.47377 0.29165 0.37791 0.0
H772 H 0.60648 0.2521 0.37568 0.0
H773 H 0.54981 0.2495 0.35642 0.0
H774 H 0.43705 0.29926 0.37793 0.0
H775 H 0.49161 0.29873 0.35608 0.0
H776 H 0.56115 0.31044 0.51153 0.0
H777 H 0.61519 0.3119 0.48912 0.0
H778 H 0.49652 0.26527 0.51453 0.0
H779 H 0.44029 0.26058 0.49479 0.0
C780 C 0.77195 0.55637 0.85255 0.0
C781 C 0.80918 0.58113 0.87097 0.0
C782 C 0.84146 0.50378 0.88659 0.0
C783 C 0.80368 0.47892 0.86864 0.0
N784 N 0.74007 0.47994 0.82901 0.0
N785 N 0.88568 0.58073 0.89889 0.0
C786 C 0.77125 0.5048 0.8497 0.0
C787 C 0.84617 0.55546 0.88575 0.0
N788 N 0.73611 0.58206 0.83908 0.0
N789 N 0.87134 0.47805 0.90554 0.0
H790 H 0.88978 0.61875 0.89871 0.0
H791 H 0.91626 0.56431 0.90739 0.0
H792 H 0.8699 0.44003 0.90622 0.0
H793 H 0.89567 0.49417 0.92212 0.0
H794 H 0.70475 0.56585 0.82867 0.0
H795 H 0.73651 0.62006 0.83969 0.0
H796 H 0.71868 0.49681 0.81225 0.0
H797 H 0.73841 0.44202 0.8268 0.0
C798 C 0.49447 0.81361 0.45286 0.0
C799 C 0.47118 0.76604 0.45065 0.0
C800 C 0.55074 0.73038 0.45084 0.0
C801 C 0.574 0.77796 0.453 0.0
N802 N 0.56766 0.86212 0.4677 0.0
N803 N 0.47636 0.67994 0.45923 0.0
C804 C 0.54551 0.81854 0.45836 0.0
C805 C 0.49922 0.72471 0.45396 0.0
N806 N 0.46926 0.85401 0.44694 0.0
N807 N 0.57676 0.6911 0.44309 0.0
H808 H 0.43857 0.67512 0.46175 0.0
H809 H 0.4951 0.64905 0.46443 0.0
H810 H 0.61428 0.69319 0.43943 0.0
H811 H 0.56036 0.65689 0.43762 0.0
H812 H 0.48611 0.88885 0.44475 0.0
H813 H 0.43232 0.85266 0.44138 0.0
H814 H 0.54833 0.89205 0.47444 0.0
H815 H 0.60512 0.86633 0.4719 0.0
C816 C 0.26507 0.20764 0.03335 0.0
C817 C 0.30904 0.22308 0.04968 0.0
C818 C 0.35487 0.21536 0.99933 0.0
C819 C 0.31052 0.20564 0.9828 0.0
N820 N 0.22831 0.17253 0.9847 0.0
N821 N 0.39665 0.22305 0.05063 0.0
C822 C 0.26732 0.19465 1.00025 0.0
C823 C 0.35435 0.22038 0.0334 0.0
N824 N 0.22085 0.20881 0.04825 0.0
N825 N 0.39695 0.22254 0.98211 0.0
H826 H 0.39683 0.22537 0.07567 0.0
H827 H 0.43077 0.21816 0.04059 0.0
H828 H 0.39776 0.21628 0.95738 0.0
H829 H 0.42995 0.23587 0.99191 0.0
H830 H 0.1878 0.20519 0.03603 0.0
H831 H 0.21661 0.21543 0.07259 0.0
H832 H 0.19631 0.15998 0.99624 0.0
H833 H 0.23084 0.16169 0.96071 0.0
C834 C 0.87283 0.32447 0.49322 0.0
C835 C 0.84892 0.28644 0.47484 0.0
C836 C 0.85255 0.23267 0.52184 0.0
C837 C 0.86353 0.27392 0.54147 0.0
N838 N 0.88913 0.35856 0.54644 0.0
N839 N 0.81911 0.20158 0.47159 0.0
C840 C 0.87626 0.31953 0.52721 0.0
C841 C 0.84094 0.23923 0.48879 0.0
N842 N 0.89179 0.36532 0.47798 0.0
N843 N 0.85242 0.18735 0.53517 0.0
H844 H 0.8122 0.20322 0.44713 0.0
H845 H 0.80605 0.16888 0.48196 0.0
H846 H 0.8614 0.18242 0.55926 0.0
H847 H 0.84902 0.1552 0.52178 0.0
H848 H 0.91257 0.39306 0.48955 0.0
H849 H 0.8907 0.36893 0.45298 0.0
H850 H 0.89309 0.39431 0.53814 0.0
H851 H 0.89421 0.35482 0.57118 0.0
C852 C 0.72226 0.85256 0.99975 0.0
C853 C 0.76408 0.86333 0.98056 0.0
C854 C 0.81095 0.88502 0.02895 0.0
C855 C 0.77367 0.86126 0.04784 0.0
N856 N 0.68852 0.83528 0.05291 0.0
N857 N 0.84601 0.89764 0.97561 0.0
C858 C 0.72712 0.85008 0.03389 0.0
C859 C 0.80742 0.88338 0.99481 0.0
N860 N 0.67837 0.84414 0.98488 0.0
N861 N 0.85009 0.90783 0.04407 0.0
H862 H 0.84298 0.89861 0.95059 0.0
H863 H 0.88076 0.90744 0.9842 0.0
H864 H 0.85232 0.90953 0.06915 0.0
H865 H 0.87763 0.92834 0.0322 0.0
H866 H 0.64525 0.83792 0.99677 0.0
H867 H 0.67514 0.84733 0.96 0.0
H868 H 0.65543 0.82045 0.04421 0.0
H869 H 0.6891 0.83922 0.07779 0.0
C870 C 0.19547 0.80728 0.48932 0.0
C871 C 0.19306 0.75924 0.47573 0.0
C872 C 0.16533 0.72565 0.52771 0.0
C873 C 0.17469 0.77205 0.54189 0.0
N874 N 0.17724 0.85838 0.53538 0.0
N875 N 0.15468 0.67823 0.47852 0.0
C876 C 0.18207 0.81338 0.52219 0.0
C877 C 0.17056 0.72027 0.49385 0.0
N878 N 0.21349 0.84657 0.47212 0.0
N879 N 0.15439 0.68644 0.54704 0.0
H880 H 0.15675 0.67447 0.45354 0.0
H881 H 0.13522 0.64954 0.48997 0.0
H882 H 0.14815 0.69054 0.57169 0.0
H883 H 0.15305 0.65045 0.53894 0.0
H884 H 0.22307 0.88027 0.48261 0.0
H885 H 0.21952 0.846 0.44752 0.0
H886 H 0.17692 0.89013 0.52178 0.0
H887 H 0.16803 0.86269 0.55958 0.0
C888 C 0.23526 0.84969 0.99352 0.0
C889 C 0.27776 0.85195 0.97425 0.0
C890 C 0.3273 0.86228 0.02285 0.0
C891 C 0.28658 0.84529 0.04167 0.0
N892 N 0.19863 0.83193 0.04549 0.0
N893 N 0.36439 0.86713 0.96976 0.0
C894 C 0.23932 0.84291 0.02742 0.0
C895 C 0.32384 0.86129 0.98872 0.0
N896 N 0.1912 0.85457 0.97929 0.0
N897 N 0.36915 0.87904 0.03789 0.0
H898 H 0.36211 0.86963 0.94477 0.0
H899 H 0.39982 0.86801 0.97865 0.0
H900 H 0.37148 0.88149 0.06294 0.0
H901 H 0.39927 0.89493 0.02579 0.0
H902 H 0.15914 0.85856 0.99219 0.0
H903 H 0.18807 0.86036 0.95462 0.0
H904 H 0.16487 0.82137 0.03555 0.0
H905 H 0.19812 0.83391 0.07044 0.0
C906 C 0.17711 0.2462 0.50512 0.0
C907 C 0.20403 0.28027 0.48538 0.0
C908 C 0.21237 0.33638 0.53123 0.0
C909 C 0.19823 0.29733 0.5519 0.0
N910 N 0.15654 0.2192 0.55948 0.0
N911 N 0.23909 0.3623 0.47807 0.0
C912 C 0.17588 0.25394 0.539 0.0
C913 C 0.21793 0.32738 0.49772 0.0
N914 N 0.15365 0.20631 0.4912 0.0
N915 N 0.22081 0.3818 0.54411 0.0
H916 H 0.23969 0.35887 0.45318 0.0
H917 H 0.25643 0.39465 0.48635 0.0
H918 H 0.21462 0.38831 0.56841 0.0
H919 H 0.22849 0.41321 0.53066 0.0
H920 H 0.13129 0.18087 0.50362 0.0
H921 H 0.15353 0.20111 0.46632 0.0
H922 H 0.14483 0.18402 0.55251 0.0
H923 H 0.15243 0.22635 0.58397 0.0
C924 C 0.74552 0.19323 0.03119 0.0
C925 C 0.79016 0.19656 0.04832 0.0
C926 C 0.83491 0.19585 0.99704 0.0
C927 C 0.79087 0.20278 0.98038 0.0
N928 N 0.70352 0.20494 0.9807 0.0
N929 N 0.87808 0.20193 0.04785 0.0
C930 C 0.74583 0.19988 0.99721 0.0
C931 C 0.83512 0.19686 0.03136 0.0
N932 N 0.70295 0.18346 0.04762 0.0
N933 N 0.87665 0.18917 0.98011 0.0
H934 H 0.87991 0.20189 0.07289 0.0
H935 H 0.91179 0.2091 0.0368 0.0
H936 H 0.87803 0.18927 0.95506 0.0
H937 H 0.90867 0.17885 0.99077 0.0
H938 H 0.66922 0.17696 0.03662 0.0
H939 H 0.70226 0.17719 0.07237 0.0
H940 H 0.66998 0.20935 0.99168 0.0
H941 H 0.70241 0.20636 0.95563 0.0
C942 C 0.84018 0.7376 0.49579 0.0
C943 C 0.84855 0.78569 0.48336 0.0
C944 C 0.87454 0.81484 0.53717 0.0
C945 C 0.85516 0.77038 0.55005 0.0
N946 N 0.84188 0.68456 0.54265 0.0
N947 N 0.89102 0.86428 0.48924 0.0
C948 C 0.84572 0.73001 0.52943 0.0
C949 C 0.87203 0.82236 0.50321 0.0
N950 N 0.82446 0.69994 0.47619 0.0
N951 N 0.89415 0.84957 0.55763 0.0
H952 H 0.89123 0.86889 0.4643 0.0
H953 H 0.90884 0.89297 0.50169 0.0
H954 H 0.89893 0.84213 0.58201 0.0
H955 H 0.90635 0.88458 0.55082 0.0
H956 H 0.81032 0.66639 0.48463 0.0
H957 H 0.82631 0.7016 0.45128 0.0
H958 H 0.83809 0.65227 0.52948 0.0
H959 H 0.84743 0.67967 0.56722 0.0
C960 C 0.54429 0.2586 0.17329 0.0
C961 C 0.56754 0.26727 0.14319 0.0
C962 C 0.49007 0.29138 0.12041 0.0
C963 C 0.4662 0.27976 0.14997 0.0
N964 N 0.46815 0.24503 0.20279 0.0
N965 N 0.56201 0.28452 0.08679 0.0
C966 C 0.49276 0.26122 0.17593 0.0
C967 C 0.54019 0.2816 0.11634 0.0
N968 N 0.57199 0.24921 0.19951 0.0
N969 N 0.46527 0.31369 0.09678 0.0
H970 H 0.59869 0.27807 0.08335 0.0
H971 H 0.54317 0.28983 0.06552 0.0
H972 H 0.42877 0.32143 0.09921 0.0
H973 H 0.48155 0.32757 0.07583 0.0
H974 H 0.55834 0.24694 0.22288 0.0
H975 H 0.60978 0.24763 0.19816 0.0
H976 H 0.48428 0.22711 0.22163 0.0
H977 H 0.43035 0.2458 0.20489 0.0
C978 C 0.8659 0.49698 0.61591 0.0
C979 C 0.83949 0.46682 0.63839 0.0
C980 C 0.79487 0.53707 0.65629 0.0
C981 C 0.82141 0.56717 0.63392 0.0
N982 N 0.88786 0.57918 0.59695 0.0
N983 N 0.7863 0.45934 0.68425 0.0
C984 C 0.85905 0.54806 0.61533 0.0
C985 C 0.80619 0.48735 0.65994 0.0
N986 N 0.89564 0.47618 0.59408 0.0
N987 N 0.75749 0.55589 0.67304 0.0
H988 H 0.7943 0.42301 0.6874 0.0
H989 H 0.76504 0.47286 0.70262 0.0
H990 H 0.74991 0.5926 0.67159 0.0
H991 H 0.73282 0.53502 0.68709 0.0
H992 H 0.91243 0.4949 0.57495 0.0
H993 H 0.90084 0.43892 0.59377 0.0
H994 H 0.91855 0.56901 0.58447 0.0
H995 H 0.88324 0.61659 0.5966 0.0
C996 C 0.5513 0.78134 0.17134 0.0
C997 C 0.57696 0.77413 0.14224 0.0
C998 C 0.50217 0.78454 0.11135 0.0
C999 C 0.47591 0.78891 0.14052 0.0
N1000 N 0.47303 0.78834 0.19818 0.0
N1001 N 0.57741 0.76381 0.08491 0.0
C1002 C 0.49993 0.78647 0.17055 0.0
C1003 C 0.55251 0.77453 0.11228 0.0
N1004 N 0.57664 0.78385 0.19958 0.0
N1005 N 0.47889 0.7911 0.08284 0.0
H1006 H 0.61443 0.7573 0.08507 0.0
H1007 H 0.56123 0.75877 0.06244 0.0
H1008 H 0.44184 0.79726 0.08166 0.0
H1009 H 0.49645 0.7932 0.06063 0.0
H1010 H 0.5616 0.79256 0.22171 0.0
H1011 H 0.61414 0.78 0.20051 0.0
H1012 H 0.48681 0.78306 0.2211 0.0
H1013 H 0.43554 0.79254 0.19799 0.0
C1014 C 0.2906 0.51942 0.61687 0.0
C1015 C 0.26129 0.48075 0.63093 0.0
C1016 C 0.19742 0.53851 0.63884 0.0
C1017 C 0.2309 0.57855 0.63166 0.0
N1018 N 0.31566 0.60443 0.6227 0.0
N1019 N 0.18934 0.45822 0.66247 0.0
C1020 C 0.2793 0.56845 0.62286 0.0
C1021 C 0.21511 0.49137 0.64378 0.0
N1022 N 0.3287 0.5096 0.59727 0.0
N1023 N 0.14868 0.54502 0.64021 0.0
H1024 H 0.20306 0.42542 0.66956 0.0
H1025 H 0.15717 0.46625 0.67419 0.0
H1026 H 0.13425 0.57809 0.6343 0.0
H1027 H 0.12273 0.5161 0.64323 0.0
H1028 H 0.34907 0.5369 0.58497 0.0
H1029 H 0.33556 0.47416 0.5902 0.0
H1030 H 0.35193 0.59747 0.61814 0.0
H1031 H 0.31096 0.63926 0.63167 0.0
C1032 C 0.5416 0.76429 0.87367 0.0
C1033 C 0.57259 0.79742 0.89154 0.0
C1034 C 0.50296 0.84701 0.90331 0.0
C1035 C 0.47222 0.81465 0.88469 0.0
N1036 N 0.463 0.74719 0.84784 0.0
N1037 N 0.58549 0.87418 0.91881 0.0
C1038 C 0.49182 0.77452 0.86863 0.0
C1039 C 0.55398 0.84012 0.90488 0.0
N1040 N 0.55993 0.72248 0.86216 0.0
N1041 N 0.48274 0.88326 0.92046 0.0
H1042 H 0.62288 0.87001 0.9197 0.0
H1043 H 0.57555 0.90812 0.92684 0.0
H1044 H 0.44556 0.8888 0.91978 0.0
H1045 H 0.50177 0.90544 0.93708 0.0
H1046 H 0.53867 0.6939 0.85191 0.0
H1047 H 0.59672 0.71557 0.86426 0.0
H1048 H 0.47573 0.72009 0.833 0.0
H1049 H 0.4266 0.75403 0.84378 0.0
C1050 C 0.27956 0.48917 0.40713 0.0
C1051 C 0.27338 0.46225 0.37808 0.0
C1052 C 0.25327 0.53699 0.34979 0.0
C1053 C 0.25676 0.56332 0.3792 0.0
N1054 N 0.26701 0.5643 0.43652 0.0
N1055 N 0.24928 0.45801 0.3227 0.0
C1056 C 0.26828 0.53929 0.40809 0.0
C1057 C 0.25877 0.48558 0.34963 0.0
N1058 N 0.29767 0.4669 0.43346 0.0
N1059 N 0.24581 0.56173 0.32197 0.0
H1060 H 0.25313 0.42044 0.32219 0.0
H1061 H 0.23445 0.47131 0.30172 0.0
H1062 H 0.24181 0.59928 0.32163 0.0
H1063 H 0.24696 0.54612 0.29915 0.0
H1064 H 0.30763 0.48514 0.45465 0.0
H1065 H 0.30562 0.43022 0.43333 0.0
H1066 H 0.27027 0.54818 0.45897 0.0
H1067 H 0.25948 0.60105 0.43769 0.0
C1068 C 0.53097 0.2909 0.87119 0.0
C1069 C 0.49888 0.26015 0.88994 0.0
C1070 C 0.56752 0.21173 0.90529 0.0
C1071 C 0.5993 0.24102 0.88535 0.0
N1072 N 0.60988 0.30279 0.84474 0.0
N1073 N 0.48416 0.18536 0.91897 0.0
C1074 C 0.58056 0.27909 0.86696 0.0
C1075 C 0.51648 0.21857 0.90507 0.0
N1076 N 0.51392 0.33195 0.85795 0.0
N1077 N 0.58656 0.17904 0.9257 0.0
H1078 H 0.4467 0.18888 0.9181 0.0
H1079 H 0.49389 0.15211 0.92816 0.0
H1080 H 0.62384 0.17436 0.92717 0.0
H1081 H 0.56616 0.15999 0.94322 0.0
H1082 H 0.53619 0.35904 0.84696 0.0
H1083 H 0.47731 0.33987 0.85945 0.0
H1084 H 0.59758 0.32794 0.82844 0.0
H1085 H 0.64592 0.29428 0.84087 0.0
C1086 C 0.79873 0.51331 0.4134 0.0
C1087 C 0.80617 0.49007 0.38343 0.0
C1088 C 0.79215 0.56648 0.35521 0.0
C1089 C 0.78095 0.58859 0.38497 0.0
N1090 N 0.76948 0.58337 0.44211 0.0
N1091 N 0.80593 0.4918 0.32569 0.0
C1092 C 0.78336 0.56207 0.41406 0.0
C1093 C 0.80207 0.51608 0.35426 0.0
N1094 N 0.80724 0.48868 0.44111 0.0
N1095 N 0.79356 0.59415 0.32796 0.0
H1096 H 0.81338 0.45504 0.32446 0.0
H1097 H 0.79881 0.50683 0.30338 0.0
H1098 H 0.78582 0.63086 0.3282 0.0
H1099 H 0.80551 0.58206 0.3057 0.0
H1100 H 0.80673 0.50435 0.46394 0.0
H1101 H 0.81805 0.45289 0.44101 0.0
H1102 H 0.76586 0.56513 0.46396 0.0
H1103 H 0.75893 0.61922 0.44308 0.0
C1104 C 0.21232 0.28219 0.28269 0.0
C1105 C 0.23856 0.24824 0.30035 0.0
C1106 C 0.2737 0.21924 0.24997 0.0
C1107 C 0.24469 0.25057 0.23212 0.0
N1108 N 0.17261 0.29714 0.23228 0.0
N1109 N 0.27854 0.17221 0.2987 0.0
C1110 C 0.20944 0.27723 0.24872 0.0
C1111 C 0.26395 0.21261 0.28327 0.0
N1112 N 0.19292 0.32115 0.29744 0.0
N1113 N 0.31275 0.19848 0.23632 0.0
H1114 H 0.26956 0.16475 0.32265 0.0
H1115 H 0.294 0.14357 0.2866 0.0
H1116 H 0.32454 0.2052 0.21286 0.0
H1117 H 0.33703 0.17902 0.2497 0.0
H1118 H 0.17788 0.34903 0.28454 0.0
H1119 H 0.19628 0.32876 0.32189 0.0
H1120 H 0.14409 0.31362 0.24383 0.0
H1121 H 0.16724 0.29165 0.20769 0.0
C1122 C 0.79449 0.20345 0.77311 0.0
C1123 C 0.82217 0.23315 0.79514 0.0
C1124 C 0.86733 0.27216 0.75033 0.0
C1125 C 0.83645 0.24584 0.72825 0.0
N1126 N 0.78742 0.1717 0.71878 0.0
N1127 N 0.89894 0.27746 0.8048 0.0
C1128 C 0.80559 0.2064 0.73969 0.0
C1129 C 0.86343 0.26149 0.78381 0.0
N1130 N 0.75657 0.17363 0.78407 0.0
N1131 N 0.89929 0.30832 0.73937 0.0
H1132 H 0.89847 0.26662 0.82879 0.0
H1133 H 0.93137 0.29588 0.79763 0.0
H1134 H 0.90488 0.31475 0.71487 0.0
H1135 H 0.91861 0.33277 0.75453 0.0
H1136 H 0.73114 0.15568 0.76894 0.0
H1137 H 0.74977 0.16843 0.80856 0.0
H1138 H 0.76744 0.14014 0.72592 0.0
H1139 H 0.79759 0.17208 0.6947 0.0
C1140 C 0.7504 0.76294 0.24833 0.0
C1141 C 0.78239 0.79531 0.2307 0.0
C1142 C 0.82087 0.82341 0.28155 0.0
C1143 C 0.79173 0.78758 0.29859 0.0
N1144 N 0.73711 0.7157 0.29679 0.0
N1145 N 0.85313 0.85162 0.22996 0.0
C1146 C 0.759 0.75513 0.28149 0.0
C1147 C 0.81907 0.82436 0.24715 0.0
N1148 N 0.71035 0.74109 0.23367 0.0
N1149 N 0.84882 0.85769 0.29818 0.0
H1150 H 0.85225 0.85402 0.20497 0.0
H1151 H 0.88401 0.86904 0.24026 0.0
H1152 H 0.85187 0.85742 0.32317 0.0
H1153 H 0.8663 0.88815 0.28742 0.0
H1154 H 0.68306 0.72085 0.24603 0.0
H1155 H 0.70155 0.748 0.20986 0.0
H1156 H 0.71662 0.68806 0.28489 0.0
H1157 H 0.74419 0.7078 0.32073 0.0
C1158 C 0.19852 0.86209 0.77467 0.0
C1159 C 0.22795 0.8297 0.79142 0.0
C1160 C 0.24655 0.79008 0.74039 0.0
C1161 C 0.22249 0.82599 0.72295 0.0
N1162 N 0.17865 0.89943 0.72377 0.0
N1163 N 0.2941 0.77526 0.78737 0.0
C1164 C 0.1995 0.86313 0.74024 0.0
C1165 C 0.25643 0.79767 0.77351 0.0
N1166 N 0.16974 0.89194 0.79167 0.0
N1167 N 0.25921 0.74787 0.72603 0.0
H1168 H 0.30621 0.7824 0.81066 0.0
H1169 H 0.31794 0.75475 0.77416 0.0
H1170 H 0.25086 0.73866 0.70239 0.0
H1171 H 0.27268 0.71912 0.73893 0.0
H1172 H 0.14313 0.91205 0.78113 0.0
H1173 H 0.17127 0.89509 0.81669 0.0
H1174 H 0.16649 0.93063 0.73475 0.0
H1175 H 0.17545 0.89929 0.69875 0.0
C1176 C 0.80577 0.78766 0.78473 0.0
C1177 C 0.7574 0.78723 0.79726 0.0
C1178 C 0.72623 0.77105 0.74262 0.0
C1179 C 0.77379 0.76069 0.73189 0.0
N1180 N 0.85944 0.75868 0.74311 0.0
N1181 N 0.67106 0.7821 0.7874 0.0
C1182 C 0.81382 0.76927 0.75301 0.0
C1183 C 0.71756 0.78037 0.77582 0.0
N1184 N 0.84394 0.80676 0.80255 0.0
N1185 N 0.68942 0.77334 0.72093 0.0
H1186 H 0.66346 0.79387 0.81069 0.0
H1187 H 0.64019 0.77028 0.77442 0.0
H1188 H 0.69522 0.76882 0.69658 0.0
H1189 H 0.65505 0.78512 0.72641 0.0
H1190 H 0.87942 0.81145 0.79376 0.0
H1191 H 0.83927 0.82348 0.82471 0.0
H1192 H 0.88917 0.75838 0.75857 0.0
H1193 H 0.86684 0.74709 0.71974 0.0
C1194 C 0.29184 0.81559 0.24378 0.0
C1195 C 0.26037 0.78389 0.22517 0.0
C1196 C 0.22692 0.74618 0.2749 0.0
C1197 C 0.25699 0.77918 0.29347 0.0
N1198 N 0.30986 0.85232 0.2958 0.0
N1199 N 0.19042 0.72666 0.22314 0.0
C1200 C 0.28692 0.81605 0.27792 0.0
C1201 C 0.22562 0.75152 0.24082 0.0
N1202 N 0.32831 0.84336 0.22909 0.0
N1203 N 0.20147 0.70812 0.28955 0.0
H1204 H 0.18797 0.73023 0.19832 0.0
H1205 H 0.16093 0.70659 0.23326 0.0
H1206 H 0.20095 0.70324 0.31439 0.0
H1207 H 0.18387 0.67932 0.27699 0.0
H1208 H 0.35619 0.86242 0.24161 0.0
H1209 H 0.33306 0.84441 0.20424 0.0
H1210 H 0.32794 0.8831 0.28584 0.0
H1211 H 0.30655 0.85407 0.32071 0.0
C1212 C 0.26841 0.22043 0.74061 0.0
C1213 C 0.27947 0.27043 0.73262 0.0
C1214 C 0.30961 0.28519 0.78748 0.0
C1215 C 0.29133 0.238 0.79709 0.0
N1216 N 0.25411 0.15953 0.78237 0.0
N1217 N 0.29723 0.35249 0.75191 0.0
C1218 C 0.27093 0.20534 0.77341 0.0
C1219 C 0.29575 0.30336 0.75723 0.0
N1220 N 0.25749 0.18669 0.71712 0.0
N1221 N 0.34172 0.31235 0.80624 0.0
H1222 H 0.28518 0.36732 0.73047 0.0
H1223 H 0.3048 0.37813 0.77007 0.0
H1224 H 0.35794 0.29883 0.82664 0.0
H1225 H 0.35784 0.34581 0.79888 0.0
H1226 H 0.2561 0.1492 0.721 0.0
H1227 H 0.25209 0.19547 0.69325 0.0
H1228 H 0.23224 0.1364 0.7678 0.0
H1229 H 0.26094 0.14525 0.80504 0.0
C1230 C 0.82151 0.24865 0.27109 0.0
C1231 C 0.79711 0.28476 0.28868 0.0
C1232 C 0.75343 0.30399 0.23978 0.0
C1233 C 0.78327 0.27461 0.22085 0.0
N1234 N 0.85412 0.2262 0.21913 0.0
N1235 N 0.75372 0.35867 0.28504 0.0
C1236 C 0.81985 0.24883 0.23659 0.0
C1237 C 0.76756 0.31623 0.27151 0.0
N1238 N 0.84427 0.21289 0.28677 0.0
N1239 N 0.7104 0.31893 0.2281 0.0
H1240 H 0.76691 0.37144 0.30724 0.0
H1241 H 0.73449 0.38386 0.27226 0.0
H1242 H 0.69585 0.30661 0.20617 0.0
H1243 H 0.68641 0.33799 0.24221 0.0
H1244 H 0.85821 0.18334 0.27476 0.0
H1245 H 0.8451 0.20992 0.3117 0.0
H1246 H 0.88407 0.21119 0.22975 0.0
H1247 H 0.85544 0.22658 0.19411 0.0
loop_
_geom_bond_atom_site_label_1
_geom_bond_atom_site_label_2
_geom_bond_distance
_geom_bond_site_symmetry_2
_ccdc_geom_bond_type
Co0 N4 2.148 . S
Co0 N10 2.128 . S
Co0 N20 2.194 . S
Co0 O25 2.351 . S
Co0 O26 2.155 . S
Co0 O27 2.096 . S
C1 N4 1.301 . S
C1 N5 1.328 . S
C1 H6 0.930 . S
C2 C3 1.333 . S
C2 N4 1.317 . S
C2 H7 0.930 . S
C3 C2 1.333 . S
C3 N5 1.350 . S
C3 H29 0.931 . S
N4 Co0 2.148 . S
N4 C1 1.301 . S
N4 C2 1.317 . S
N5 C1 1.328 . S
N5 C3 1.350 . S
H6 C1 0.930 . S
H7 C2 0.930 . S
C8 O9 1.224 . S
C8 O27 1.247 . S
O9 C8 1.224 . S
N10 Co0 2.128 . S
N10 C11 1.355 . S
N10 C13 1.311 . S
C11 N10 1.355 . S
C11 C12 1.363 . S
C11 H23 0.929 . S
C12 C11 1.363 . S
C12 N14 1.375 . S
C12 H30 0.931 . S
C13 N10 1.311 . S
C13 N14 1.347 . S
C13 H24 0.929 . S
N14 C12 1.375 . S
N14 C13 1.347 . S
C15 C18 1.365 . S
C15 N20 1.328 . S
C15 H21 0.929 . S
C16 C17 1.362 . S
C16 C19 1.378 . S
C16 H31 0.929 . S
C17 C16 1.362 . S
C17 C18 1.366 . S
C18 C15 1.365 . S
C18 C17 1.366 . S
C18 H32 0.930 . S
C19 C16 1.378 . S
C19 N20 1.315 . S
C19 H22 0.930 . S
N20 Co0 2.194 . S
N20 C15 1.328 . S
N20 C19 1.315 . S
H21 C15 0.929 . S
H22 C19 0.930 . S
H23 C11 0.929 . S
H24 C13 0.929 . S
O25 Co0 2.351 . S
O25 C28 1.244 . S
O26 Co0 2.155 . S
O26 C28 1.240 . S
O27 Co0 2.096 . S
O27 C8 1.247 . S
C28 O25 1.244 . S
C28 O26 1.240 . S
H29 C3 0.931 . S
H30 C12 0.931 . S
H31 C16 0.929 . S
H32 C18 0.930 . S
Co33 N37 2.148 . S
Co33 N43 2.128 . S
Co33 N53 2.194 . S
Co33 O58 2.351 . S
Co33 O59 2.155 . S
Co33 O60 2.096 . S
C34 N37 1.301 . S
C34 N38 1.328 . S
C34 H39 0.930 . S
C35 C36 1.333 . S
C35 N37 1.317 . S
C35 H40 0.930 . S
C36 C35 1.333 . S
C36 N38 1.350 . S
C36 H62 0.931 . S
N37 Co33 2.148 . S
N37 C34 1.301 . S
N37 C35 1.317 . S
N38 C34 1.328 . S
N38 C36 1.350 . S
H39 C34 0.930 . S
H40 C35 0.930 . S
C41 O42 1.224 . S
C41 O60 1.247 . S
O42 C41 1.224 . S
N43 Co33 2.128 . S
N43 C44 1.355 . S
N43 C46 1.311 . S
C44 N43 1.355 . S
C44 C45 1.363 . S
C44 H56 0.929 . S
C45 C44 1.363 . S
C45 N47 1.375 . S
C45 H63 0.931 . S
C46 N43 1.311 . S
C46 N47 1.347 . S
C46 H57 0.929 . S
N47 C45 1.375 . S
N47 C46 1.347 . S
C48 C51 1.365 . S
C48 N53 1.328 . S
C48 H54 0.929 . S
C49 C50 1.362 . S
C49 C52 1.378 . S
C49 H64 0.929 . S
C50 C49 1.362 . S
C50 C51 1.366 . S
C51 C48 1.365 . S
C51 C50 1.366 . S
C51 H65 0.930 . S
C52 C49 1.378 . S
C52 N53 1.315 . S
C52 H55 0.930 . S
N53 Co33 2.194 . S
N53 C48 1.328 . S
N53 C52 1.315 . S
H54 C48 0.929 . S
H55 C52 0.930 . S
H56 C44 0.929 . S
H57 C46 0.929 . S
O58 Co33 2.351 . S
O58 C61 1.244 . S
O59 Co33 2.155 . S
O59 C61 1.240 . S
O60 Co33 2.096 . S
O60 C41 1.247 . S
C61 O58 1.244 . S
C61 O59 1.240 . S
H62 C36 0.931 . S
H63 C45 0.931 . S
H64 C49 0.929 . S
H65 C51 0.930 . S
Co66 N70 2.148 . S
Co66 N76 2.128 . S
Co66 N86 2.194 . S
Co66 O91 2.351 . S
Co66 O92 2.155 . S
Co66 O93 2.096 . S
C67 N70 1.301 . S
C67 N71 1.328 . S
C67 H72 0.930 . S
C68 C69 1.333 . S
C68 N70 1.317 . S
C68 H73 0.930 . S
C69 C68 1.333 . S
C69 N71 1.350 . S
C69 H95 0.931 . S
N70 Co66 2.148 . S
N70 C67 1.301 . S
N70 C68 1.317 . S
N71 C67 1.328 . S
N71 C69 1.350 . S
H72 C67 0.930 . S
H73 C68 0.930 . S
C74 O75 1.224 . S
C74 O93 1.247 . S
O75 C74 1.224 . S
N76 Co66 2.128 . S
N76 C77 1.355 . S
N76 C79 1.311 . S
C77 N76 1.355 . S
C77 C78 1.363 . S
C77 H89 0.929 . S
C78 C77 1.363 . S
C78 N80 1.375 . S
C78 H96 0.931 . S
C79 N76 1.311 . S
C79 N80 1.347 . S
C79 H90 0.929 . S
N80 C78 1.375 . S
N80 C79 1.347 . S
C81 C84 1.365 . S
C81 N86 1.328 . S
C81 H87 0.929 . S
C82 C83 1.362 . S
C82 C85 1.378 . S
C82 H97 0.929 . S
C83 C82 1.362 . S
C83 C84 1.366 . S
C84 C81 1.365 . S
C84 C83 1.366 . S
C84 H98 0.930 . S
C85 C82 1.378 . S
C85 N86 1.315 . S
C85 H88 0.930 . S
N86 Co66 2.194 . S
N86 C81 1.328 . S
N86 C85 1.315 . S
H87 C81 0.929 . S
H88 C85 0.930 . S
H89 C77 0.929 . S
H90 C79 0.929 . S
O91 Co66 2.351 . S
O91 C94 1.244 . S
O92 Co66 2.155 . S
O92 C94 1.240 . S
O93 Co66 2.096 . S
O93 C74 1.247 . S
C94 O91 1.244 . S
C94 O92 1.240 . S
H95 C69 0.931 . S
H96 C78 0.931 . S
H97 C82 0.929 . S
H98 C84 0.930 . S
Co99 N103 2.148 . S
Co99 N109 2.128 . S
Co99 N119 2.194 . S
Co99 O124 2.351 . S
Co99 O125 2.155 . S
Co99 O126 2.096 . S
C100 N103 1.301 . S
C100 N104 1.328 . S
C100 H105 0.930 . S
C101 C102 1.333 . S
C101 N103 1.317 . S
C101 H106 0.930 . S
C102 C101 1.333 . S
C102 N104 1.350 . S
C102 H128 0.931 . S
N103 Co99 2.148 . S
N103 C100 1.301 . S
N103 C101 1.317 . S
N104 C100 1.328 . S
N104 C102 1.350 . S
H105 C100 0.930 . S
H106 C101 0.930 . S
C107 O108 1.224 . S
C107 O126 1.247 . S
O108 C107 1.224 . S
N109 Co99 2.128 . S
N109 C110 1.355 . S
N109 C112 1.311 . S
C110 N109 1.355 . S
C110 C111 1.363 . S
C110 H122 0.929 . S
C111 C110 1.363 . S
C111 N113 1.375 . S
C111 H129 0.931 . S
C112 N109 1.311 . S
C112 N113 1.347 . S
C112 H123 0.929 . S
N113 C111 1.375 . S
N113 C112 1.347 . S
C114 C117 1.365 . S
C114 N119 1.328 . S
C114 H120 0.929 . S
C115 C116 1.362 . S
C115 C118 1.378 . S
C115 H130 0.929 . S
C116 C115 1.362 . S
C116 C117 1.366 . S
C117 C114 1.365 . S
C117 C116 1.366 . S
C117 H131 0.930 . S
C118 C115 1.378 . S
C118 N119 1.315 . S
C118 H121 0.930 . S
N119 Co99 2.194 . S
N119 C114 1.328 . S
N119 C118 1.315 . S
H120 C114 0.929 . S
H121 C118 0.930 . S
H122 C110 0.929 . S
H123 C112 0.929 . S
O124 Co99 2.351 . S
O124 C127 1.244 . S
O125 Co99 2.155 . S
O125 C127 1.240 . S
O126 Co99 2.096 . S
O126 C107 1.247 . S
C127 O124 1.244 . S
C127 O125 1.240 . S
H128 C102 0.931 . S
H129 C111 0.931 . S
H130 C115 0.929 . S
H131 C117 0.930 . S
Co132 N136 2.148 . S
Co132 N142 2.128 . S
Co132 N152 2.194 . S
Co132 O157 2.351 . S
Co132 O158 2.155 . S
Co132 O159 2.096 . S
C133 N136 1.301 . S
C133 N137 1.328 . S
C133 H138 0.930 . S
C134 C135 1.333 . S
C134 N136 1.317 . S
C134 H139 0.930 . S
C135 C134 1.333 . S
C135 N137 1.350 . S
C135 H161 0.931 . S
N136 Co132 2.148 . S
N136 C133 1.301 . S
N136 C134 1.317 . S
N137 C133 1.328 . S
N137 C135 1.350 . S
H138 C133 0.930 . S
H139 C134 0.930 . S
C140 O141 1.224 . S
C140 O159 1.247 . S
O141 C140 1.224 . S
N142 Co132 2.128 . S
N142 C143 1.355 . S
N142 C145 1.311 . S
C143 N142 1.355 . S
C143 C144 1.363 . S
C143 H155 0.929 . S
C144 C143 1.363 . S
C144 N146 1.375 . S
C144 H162 0.931 . S
C145 N142 1.311 . S
C145 N146 1.347 . S
C145 H156 0.929 . S
N146 C144 1.375 . S
N146 C145 1.347 . S
C147 C150 1.365 . S
C147 N152 1.328 . S
C147 H153 0.929 . S
C148 C149 1.362 . S
C148 C151 1.378 . S
C148 H163 0.929 . S
C149 C148 1.362 . S
C149 C150 1.366 . S
C150 C147 1.365 . S
C150 C149 1.366 . S
C150 H164 0.930 . S
C151 C148 1.378 . S
C151 N152 1.315 . S
C151 H154 0.930 . S
N152 Co132 2.194 . S
N152 C147 1.328 . S
N152 C151 1.315 . S
H153 C147 0.929 . S
H154 C151 0.930 . S
H155 C143 0.929 . S
H156 C145 0.929 . S
O157 Co132 2.351 . S
O157 C160 1.244 . S
O158 Co132 2.155 . S
O158 C160 1.240 . S
O159 Co132 2.096 . S
O159 C140 1.247 . S
C160 O157 1.244 . S
C160 O158 1.240 . S
H161 C135 0.931 . S
H162 C144 0.931 . S
H163 C148 0.929 . S
H164 C150 0.930 . S
Co165 N169 2.148 . S
Co165 N175 2.128 . S
Co165 N185 2.194 . S
Co165 O190 2.351 . S
Co165 O191 2.155 . S
Co165 O192 2.096 . S
C166 N169 1.301 . S
C166 N170 1.328 . S
C166 H171 0.930 . S
C167 C168 1.333 . S
C167 N169 1.317 . S
C167 H172 0.930 . S
C168 C167 1.333 . S
C168 N170 1.350 . S
C168 H194 0.931 . S
N169 Co165 2.148 . S
N169 C166 1.301 . S
N169 C167 1.317 . S
N170 C166 1.328 . S
N170 C168 1.350 . S
H171 C166 0.930 . S
H172 C167 0.930 . S
C173 O174 1.224 . S
C173 O192 1.247 . S
O174 C173 1.224 . S
N175 Co165 2.128 . S
N175 C176 1.355 . S
N175 C178 1.311 . S
C176 N175 1.355 . S
C176 C177 1.363 . S
C176 H188 0.929 . S
C177 C176 1.363 . S
C177 N179 1.375 . S
C177 H195 0.931 . S
C178 N175 1.311 . S
C178 N179 1.347 . S
C178 H189 0.929 . S
N179 C177 1.375 . S
N179 C178 1.347 . S
C180 C183 1.365 . S
C180 N185 1.328 . S
C180 H186 0.929 . S
C181 C182 1.362 . S
C181 C184 1.378 . S
C181 H196 0.929 . S
C182 C181 1.362 . S
C182 C183 1.366 . S
C183 C180 1.365 . S
C183 C182 1.366 . S
C183 H197 0.930 . S
C184 C181 1.378 . S
C184 N185 1.315 . S
C184 H187 0.930 . S
N185 Co165 2.194 . S
N185 C180 1.328 . S
N185 C184 1.315 . S
H186 C180 0.929 . S
H187 C184 0.930 . S
H188 C176 0.929 . S
H189 C178 0.929 . S
O190 Co165 2.351 . S
O190 C193 1.244 . S
O191 Co165 2.155 . S
O191 C193 1.240 . S
O192 Co165 2.096 . S
O192 C173 1.247 . S
C193 O190 1.244 . S
C193 O191 1.240 . S
H194 C168 0.931 . S
H195 C177 0.931 . S
H196 C181 0.929 . S
H197 C183 0.930 . S
Co198 N202 2.148 . S
Co198 N208 2.128 . S
Co198 N218 2.194 . S
Co198 O223 2.351 . S
Co198 O224 2.155 . S
Co198 O225 2.096 . S
C199 N202 1.301 . S
C199 N203 1.328 . S
C199 H204 0.930 . S
C200 C201 1.333 . S
C200 N202 1.317 . S
C200 H205 0.930 . S
C201 C200 1.333 . S
C201 N203 1.350 . S
C201 H227 0.931 . S
N202 Co198 2.148 . S
N202 C199 1.301 . S
N202 C200 1.317 . S
N203 C199 1.328 . S
N203 C201 1.350 . S
H204 C199 0.930 . S
H205 C200 0.930 . S
C206 O207 1.224 . S
C206 O225 1.247 . S
O207 C206 1.224 . S
N208 Co198 2.128 . S
N208 C209 1.355 . S
N208 C211 1.311 . S
C209 N208 1.355 . S
C209 C210 1.363 . S
C209 H221 0.929 . S
C210 C209 1.363 . S
C210 N212 1.375 . S
C210 H228 0.931 . S
C211 N208 1.311 . S
C211 N212 1.347 . S
C211 H222 0.929 . S
N212 C210 1.375 . S
N212 C211 1.347 . S
C213 C216 1.365 . S
C213 N218 1.328 . S
C213 H219 0.929 . S
C214 C215 1.362 . S
C214 C217 1.378 . S
C214 H229 0.929 . S
C215 C214 1.362 . S
C215 C216 1.366 . S
C216 C213 1.365 . S
C216 C215 1.366 . S
C216 H230 0.930 . S
C217 C214 1.378 . S
C217 N218 1.315 . S
C217 H220 0.930 . S
N218 Co198 2.194 . S
N218 C213 1.328 . S
N218 C217 1.315 . S
H219 C213 0.929 . S
H220 C217 0.930 . S
H221 C209 0.929 . S
H222 C211 0.929 . S
O223 Co198 2.351 . S
O223 C226 1.244 . S
O224 Co198 2.155 . S
O224 C226 1.240 . S
O225 Co198 2.096 . S
O225 C206 1.247 . S
C226 O223 1.244 . S
C226 O224 1.240 . S
H227 C201 0.931 . S
H228 C210 0.931 . S
H229 C214 0.929 . S
H230 C216 0.930 . S
Co231 N235 2.148 . S
Co231 N241 2.128 . S
Co231 N251 2.194 . S
Co231 O256 2.351 . S
Co231 O257 2.155 . S
Co231 O258 2.096 . S
C232 N235 1.301 . S
C232 N236 1.328 . S
C232 H237 0.930 . S
C233 C234 1.333 . S
C233 N235 1.317 . S
C233 H238 0.930 . S
C234 C233 1.333 . S
C234 N236 1.350 . S
C234 H260 0.931 . S
N235 Co231 2.148 . S
N235 C232 1.301 . S
N235 C233 1.317 . S
N236 C232 1.328 . S
N236 C234 1.350 . S
H237 C232 0.930 . S
H238 C233 0.930 . S
C239 O240 1.224 . S
C239 O258 1.247 . S
O240 C239 1.224 . S
N241 Co231 2.128 . S
N241 C242 1.355 . S
N241 C244 1.311 . S
C242 N241 1.355 . S
C242 C243 1.363 . S
C242 H254 0.929 . S
C243 C242 1.363 . S
C243 N245 1.375 . S
C243 H261 0.931 . S
C244 N241 1.311 . S
C244 N245 1.347 . S
C244 H255 0.929 . S
N245 C243 1.375 . S
N245 C244 1.347 . S
C246 C249 1.365 . S
C246 N251 1.328 . S
C246 H252 0.929 . S
C247 C248 1.362 . S
C247 C250 1.378 . S
C247 H262 0.929 . S
C248 C247 1.362 . S
C248 C249 1.366 . S
C249 C246 1.365 . S
C249 C248 1.366 . S
C249 H263 0.930 . S
C250 C247 1.378 . S
C250 N251 1.315 . S
C250 H253 0.930 . S
N251 Co231 2.194 . S
N251 C246 1.328 . S
N251 C250 1.315 . S
H252 C246 0.929 . S
H253 C250 0.930 . S
H254 C242 0.929 . S
H255 C244 0.929 . S
O256 Co231 2.351 . S
O256 C259 1.244 . S
O257 Co231 2.155 . S
O257 C259 1.240 . S
O258 Co231 2.096 . S
O258 C239 1.247 . S
C259 O256 1.244 . S
C259 O257 1.240 . S
H260 C234 0.931 . S
H261 C243 0.931 . S
H262 C247 0.929 . S
H263 C249 0.930 . S
Co264 N268 2.148 . S
Co264 N274 2.128 . S
Co264 N284 2.194 . S
Co264 O289 2.351 . S
Co264 O290 2.155 . S
Co264 O291 2.096 . S
C265 N268 1.301 . S
C265 N269 1.328 . S
C265 H270 0.930 . S
C266 C267 1.333 . S
C266 N268 1.317 . S
C266 H271 0.930 . S
C267 C266 1.333 . S
C267 N269 1.350 . S
C267 H293 0.931 . S
N268 Co264 2.148 . S
N268 C265 1.301 . S
N268 C266 1.317 . S
N269 C265 1.328 . S
N269 C267 1.350 . S
H270 C265 0.930 . S
H271 C266 0.930 . S
C272 O273 1.224 . S
C272 O291 1.247 . S
O273 C272 1.224 . S
N274 Co264 2.128 . S
N274 C275 1.355 . S
N274 C277 1.311 . S
C275 N274 1.355 . S
C275 C276 1.363 . S
C275 H287 0.929 . S
C276 C275 1.363 . S
C276 N278 1.375 . S
C276 H294 0.931 . S
C277 N274 1.311 . S
C277 N278 1.347 . S
C277 H288 0.929 . S
N278 C276 1.375 . S
N278 C277 1.347 . S
C279 C282 1.365 . S
C279 N284 1.328 . S
C279 H285 0.929 . S
C280 C281 1.362 . S
C280 C283 1.378 . S
C280 H295 0.929 . S
C281 C280 1.362 . S
C281 C282 1.366 . S
C282 C279 1.365 . S
C282 C281 1.366 . S
C282 H296 0.930 . S
C283 C280 1.378 . S
C283 N284 1.315 . S
C283 H286 0.930 . S
N284 Co264 2.194 . S
N284 C279 1.328 . S
N284 C283 1.315 . S
H285 C279 0.929 . S
H286 C283 0.930 . S
H287 C275 0.929 . S
H288 C277 0.929 . S
O289 Co264 2.351 . S
O289 C292 1.244 . S
O290 Co264 2.155 . S
O290 C292 1.240 . S
O291 Co264 2.096 . S
O291 C272 1.247 . S
C292 O289 1.244 . S
C292 O290 1.240 . S
H293 C267 0.931 . S
H294 C276 0.931 . S
H295 C280 0.929 . S
H296 C282 0.930 . S
Co297 N301 2.148 . S
Co297 N307 2.128 . S
Co297 N317 2.194 . S
Co297 O322 2.351 . S
Co297 O323 2.155 . S
Co297 O324 2.096 . S
C298 N301 1.301 . S
C298 N302 1.328 . S
C298 H303 0.930 . S
C299 C300 1.333 . S
C299 N301 1.317 . S
C299 H304 0.930 . S
C300 C299 1.333 . S
C300 N302 1.350 . S
C300 H326 0.931 . S
N301 Co297 2.148 . S
N301 C298 1.301 . S
N301 C299 1.317 . S
N302 C298 1.328 . S
N302 C300 1.350 . S
H303 C298 0.930 . S
H304 C299 0.930 . S
C305 O306 1.224 . S
C305 O324 1.247 . S
O306 C305 1.224 . S
N307 Co297 2.128 . S
N307 C308 1.355 . S
N307 C310 1.311 . S
C308 N307 1.355 . S
C308 C309 1.363 . S
C308 H320 0.929 . S
C309 C308 1.363 . S
C309 N311 1.375 . S
C309 H327 0.931 . S
C310 N307 1.311 . S
C310 N311 1.347 . S
C310 H321 0.929 . S
N311 C309 1.375 . S
N311 C310 1.347 . S
C312 C315 1.365 . S
C312 N317 1.328 . S
C312 H318 0.929 . S
C313 C314 1.362 . S
C313 C316 1.378 . S
C313 H328 0.929 . S
C314 C313 1.362 . S
C314 C315 1.366 . S
C315 C312 1.365 . S
C315 C314 1.366 . S
C315 H329 0.930 . S
C316 C313 1.378 . S
C316 N317 1.315 . S
C316 H319 0.930 . S
N317 Co297 2.194 . S
N317 C312 1.328 . S
N317 C316 1.315 . S
H318 C312 0.929 . S
H319 C316 0.930 . S
H320 C308 0.929 . S
H321 C310 0.929 . S
O322 Co297 2.351 . S
O322 C325 1.244 . S
O323 Co297 2.155 . S
O323 C325 1.240 . S
O324 Co297 2.096 . S
O324 C305 1.247 . S
C325 O322 1.244 . S
C325 O323 1.240 . S
H326 C300 0.931 . S
H327 C309 0.931 . S
H328 C313 0.929 . S
H329 C315 0.930 . S
Co330 N334 2.148 . S
Co330 N340 2.128 . S
Co330 N350 2.194 . S
Co330 O355 2.351 . S
Co330 O356 2.155 . S
Co330 O357 2.096 . S
C331 N334 1.301 . S
C331 N335 1.328 . S
C331 H336 0.930 . S
C332 C333 1.333 . S
C332 N334 1.317 . S
C332 H337 0.930 . S
C333 C332 1.333 . S
C333 N335 1.350 . S
C333 H359 0.931 . S
N334 Co330 2.148 . S
N334 C331 1.301 . S
N334 C332 1.317 . S
N335 C331 1.328 . S
N335 C333 1.350 . S
H336 C331 0.930 . S
H337 C332 0.930 . S
C338 O339 1.224 . S
C338 O357 1.247 . S
O339 C338 1.224 . S
N340 Co330 2.128 . S
N340 C341 1.355 . S
N340 C343 1.311 . S
C341 N340 1.355 . S
C341 C342 1.363 . S
C341 H353 0.929 . S
C342 C341 1.363 . S
C342 N344 1.375 . S
C342 H360 0.931 . S
C343 N340 1.311 . S
C343 N344 1.347 . S
C343 H354 0.929 . S
N344 C342 1.375 . S
N344 C343 1.347 . S
C345 C348 1.365 . S
C345 N350 1.328 . S
C345 H351 0.929 . S
C346 C347 1.362 . S
C346 C349 1.378 . S
C346 H361 0.929 . S
C347 C346 1.362 . S
C347 C348 1.366 . S
C348 C345 1.365 . S
C348 C347 1.366 . S
C348 H362 0.930 . S
C349 C346 1.378 . S
C349 N350 1.315 . S
C349 H352 0.930 . S
N350 Co330 2.194 . S
N350 C345 1.328 . S
N350 C349 1.315 . S
H351 C345 0.929 . S
H352 C349 0.930 . S
H353 C341 0.929 . S
H354 C343 0.929 . S
O355 Co330 2.351 . S
O355 C358 1.244 . S
O356 Co330 2.155 . S
O356 C358 1.240 . S
O357 Co330 2.096 . S
O357 C338 1.247 . S
C358 O355 1.244 . S
C358 O356 1.240 . S
H359 C333 0.931 . S
H360 C342 0.931 . S
H361 C346 0.929 . S
H362 C348 0.930 . S
Co363 N367 2.148 . S
Co363 N373 2.128 . S
Co363 N383 2.194 . S
Co363 O388 2.351 . S
Co363 O389 2.155 . S
Co363 O390 2.096 . S
C364 N367 1.301 . S
C364 N368 1.328 . S
C364 H369 0.930 . S
C365 C366 1.333 . S
C365 N367 1.317 . S
C365 H370 0.930 . S
C366 C365 1.333 . S
C366 N368 1.350 . S
C366 H392 0.931 . S
N367 Co363 2.148 . S
N367 C364 1.301 . S
N367 C365 1.317 . S
N368 C364 1.328 . S
N368 C366 1.350 . S
H369 C364 0.930 . S
H370 C365 0.930 . S
C371 O372 1.224 . S
C371 O390 1.247 . S
O372 C371 1.224 . S
N373 Co363 2.128 . S
N373 C374 1.355 . S
N373 C376 1.311 . S
C374 N373 1.355 . S
C374 C375 1.363 . S
C374 H386 0.929 . S
C375 C374 1.363 . S
C375 N377 1.375 . S
C375 H393 0.931 . S
C376 N373 1.311 . S
C376 N377 1.347 . S
C376 H387 0.929 . S
N377 C375 1.375 . S
N377 C376 1.347 . S
C378 C381 1.365 . S
C378 N383 1.328 . S
C378 H384 0.929 . S
C379 C380 1.362 . S
C379 C382 1.378 . S
C379 H394 0.929 . S
C380 C379 1.362 . S
C380 C381 1.366 . S
C381 C378 1.365 . S
C381 C380 1.366 . S
C381 H395 0.930 . S
C382 C379 1.378 . S
C382 N383 1.315 . S
C382 H385 0.930 . S
N383 Co363 2.194 . S
N383 C378 1.328 . S
N383 C382 1.315 . S
H384 C378 0.929 . S
H385 C382 0.930 . S
H386 C374 0.929 . S
H387 C376 0.929 . S
O388 Co363 2.351 . S
O388 C391 1.244 . S
O389 Co363 2.155 . S
O389 C391 1.240 . S
O390 Co363 2.096 . S
O390 C371 1.247 . S
C391 O388 1.244 . S
C391 O389 1.240 . S
H392 C366 0.931 . S
H393 C375 0.931 . S
H394 C379 0.929 . S
H395 C381 0.930 . S
Co396 N400 2.148 . S
Co396 N406 2.128 . S
Co396 N416 2.194 . S
Co396 O421 2.351 . S
Co396 O422 2.155 . S
Co396 O423 2.096 . S
C397 N400 1.301 . S
C397 N401 1.328 . S
C397 H402 0.930 . S
C398 C399 1.333 . S
C398 N400 1.317 . S
C398 H403 0.930 . S
C399 C398 1.333 . S
C399 N401 1.350 . S
C399 H425 0.931 . S
N400 Co396 2.148 . S
N400 C397 1.301 . S
N400 C398 1.317 . S
N401 C397 1.328 . S
N401 C399 1.350 . S
H402 C397 0.930 . S
H403 C398 0.930 . S
C404 O405 1.224 . S
C404 O423 1.247 . S
O405 C404 1.224 . S
N406 Co396 2.128 . S
N406 C407 1.355 . S
N406 C409 1.311 . S
C407 N406 1.355 . S
C407 C408 1.363 . S
C407 H419 0.929 . S
C408 C407 1.363 . S
C408 N410 1.375 . S
C408 H426 0.931 . S
C409 N406 1.311 . S
C409 N410 1.347 . S
C409 H420 0.929 . S
N410 C408 1.375 . S
N410 C409 1.347 . S
C411 C414 1.365 . S
C411 N416 1.328 . S
C411 H417 0.929 . S
C412 C413 1.362 . S
C412 C415 1.378 . S
C412 H427 0.929 . S
C413 C412 1.362 . S
C413 C414 1.366 . S
C414 C411 1.365 . S
C414 C413 1.366 . S
C414 H428 0.930 . S
C415 C412 1.378 . S
C415 N416 1.315 . S
C415 H418 0.930 . S
N416 Co396 2.194 . S
N416 C411 1.328 . S
N416 C415 1.315 . S
H417 C411 0.929 . S
H418 C415 0.930 . S
H419 C407 0.929 . S
H420 C409 0.929 . S
O421 Co396 2.351 . S
O421 C424 1.244 . S
O422 Co396 2.155 . S
O422 C424 1.240 . S
O423 Co396 2.096 . S
O423 C404 1.247 . S
C424 O421 1.244 . S
C424 O422 1.240 . S
H425 C399 0.931 . S
H426 C408 0.931 . S
H427 C412 0.929 . S
H428 C414 0.930 . S
Co429 N433 2.148 . S
Co429 N439 2.128 . S
Co429 N449 2.194 . S
Co429 O454 2.351 . S
Co429 O455 2.155 . S
Co429 O456 2.096 . S
C430 N433 1.301 . S
C430 N434 1.328 . S
C430 H435 0.930 . S
C431 C432 1.333 . S
C431 N433 1.317 . S
C431 H436 0.930 . S
C432 C431 1.333 . S
C432 N434 1.350 . S
C432 H458 0.931 . S
N433 Co429 2.148 . S
N433 C430 1.301 . S
N433 C431 1.317 . S
N434 C430 1.328 . S
N434 C432 1.350 . S
H435 C430 0.930 . S
H436 C431 0.930 . S
C437 O438 1.224 . S
C437 O456 1.247 . S
O438 C437 1.224 . S
N439 Co429 2.128 . S
N439 C440 1.355 . S
N439 C442 1.311 . S
C440 N439 1.355 . S
C440 C441 1.363 . S
C440 H452 0.929 . S
C441 C440 1.363 . S
C441 N443 1.375 . S
C441 H459 0.931 . S
C442 N439 1.311 . S
C442 N443 1.347 . S
C442 H453 0.929 . S
N443 C441 1.375 . S
N443 C442 1.347 . S
C444 C447 1.365 . S
C444 N449 1.328 . S
C444 H450 0.929 . S
C445 C446 1.362 . S
C445 C448 1.378 . S
C445 H460 0.929 . S
C446 C445 1.362 . S
C446 C447 1.366 . S
C447 C444 1.365 . S
C447 C446 1.366 . S
C447 H461 0.930 . S
C448 C445 1.378 . S
C448 N449 1.315 . S
C448 H451 0.930 . S
N449 Co429 2.194 . S
N449 C444 1.328 . S
N449 C448 1.315 . S
H450 C444 0.929 . S
H451 C448 0.930 . S
H452 C440 0.929 . S
H453 C442 0.929 . S
O454 Co429 2.351 . S
O454 C457 1.244 . S
O455 Co429 2.155 . S
O455 C457 1.240 . S
O456 Co429 2.096 . S
O456 C437 1.247 . S
C457 O454 1.244 . S
C457 O455 1.240 . S
H458 C432 0.931 . S
H459 C441 0.931 . S
H460 C445 0.929 . S
H461 C447 0.930 . S
Co462 N466 2.148 . S
Co462 N472 2.128 . S
Co462 N482 2.194 . S
Co462 O487 2.351 . S
Co462 O488 2.155 . S
Co462 O489 2.096 . S
C463 N466 1.301 . S
C463 N467 1.328 . S
C463 H468 0.930 . S
C464 C465 1.333 . S
C464 N466 1.317 . S
C464 H469 0.930 . S
C465 C464 1.333 . S
C465 N467 1.350 . S
C465 H491 0.931 . S
N466 Co462 2.148 . S
N466 C463 1.301 . S
N466 C464 1.317 . S
N467 C463 1.328 . S
N467 C465 1.350 . S
H468 C463 0.930 . S
H469 C464 0.930 . S
C470 O471 1.224 . S
C470 O489 1.247 . S
O471 C470 1.224 . S
N472 Co462 2.128 . S
N472 C473 1.355 . S
N472 C475 1.311 . S
C473 N472 1.355 . S
C473 C474 1.363 . S
C473 H485 0.929 . S
C474 C473 1.363 . S
C474 N476 1.375 . S
C474 H492 0.931 . S
C475 N472 1.311 . S
C475 N476 1.347 . S
C475 H486 0.929 . S
N476 C474 1.375 . S
N476 C475 1.347 . S
C477 C480 1.365 . S
C477 N482 1.328 . S
C477 H483 0.929 . S
C478 C479 1.362 . S
C478 C481 1.378 . S
C478 H493 0.929 . S
C479 C478 1.362 . S
C479 C480 1.366 . S
C480 C477 1.365 . S
C480 C479 1.366 . S
C480 H494 0.930 . S
C481 C478 1.378 . S
C481 N482 1.315 . S
C481 H484 0.930 . S
N482 Co462 2.194 . S
N482 C477 1.328 . S
N482 C481 1.315 . S
H483 C477 0.929 . S
H484 C481 0.930 . S
H485 C473 0.929 . S
H486 C475 0.929 . S
O487 Co462 2.351 . S
O487 C490 1.244 . S
O488 Co462 2.155 . S
O488 C490 1.240 . S
O489 Co462 2.096 . S
O489 C470 1.247 . S
C490 O487 1.244 . S
C490 O488 1.240 . S
H491 C465 0.931 . S
H492 C474 0.931 . S
H493 C478 0.929 . S
H494 C480 0.930 . S
Co495 N499 2.148 . S
Co495 N505 2.128 . S
Co495 N515 2.194 . S
Co495 O520 2.351 . S
Co495 O521 2.155 . S
Co495 O522 2.096 . S
C496 N499 1.301 . S
C496 N500 1.328 . S
C496 H501 0.930 . S
C497 C498 1.333 . S
C497 N499 1.317 . S
C497 H502 0.930 . S
C498 C497 1.333 . S
C498 N500 1.350 . S
C498 H524 0.931 . S
N499 Co495 2.148 . S
N499 C496 1.301 . S
N499 C497 1.317 . S
N500 C496 1.328 . S
N500 C498 1.350 . S
H501 C496 0.930 . S
H502 C497 0.930 . S
C503 O504 1.224 . S
C503 O522 1.247 . S
O504 C503 1.224 . S
N505 Co495 2.128 . S
N505 C506 1.355 . S
N505 C508 1.311 . S
C506 N505 1.355 . S
C506 C507 1.363 . S
C506 H518 0.929 . S
C507 C506 1.363 . S
C507 N509 1.375 . S
C507 H525 0.931 . S
C508 N505 1.311 . S
C508 N509 1.347 . S
C508 H519 0.929 . S
N509 C507 1.375 . S
N509 C508 1.347 . S
C510 C513 1.365 . S
C510 N515 1.328 . S
C510 H516 0.929 . S
C511 C512 1.362 . S
C511 C514 1.378 . S
C511 H526 0.929 . S
C512 C511 1.362 . S
C512 C513 1.366 . S
C513 C510 1.365 . S
C513 C512 1.366 . S
C513 H527 0.930 . S
C514 C511 1.378 . S
C514 N515 1.315 . S
C514 H517 0.930 . S
N515 Co495 2.194 . S
N515 C510 1.328 . S
N515 C514 1.315 . S
H516 C510 0.929 . S
H517 C514 0.930 . S
H518 C506 0.929 . S
H519 C508 0.929 . S
O520 Co495 2.351 . S
O520 C523 1.244 . S
O521 Co495 2.155 . S
O521 C523 1.240 . S
O522 Co495 2.096 . S
O522 C503 1.247 . S
C523 O520 1.244 . S
C523 O521 1.240 . S
H524 C498 0.931 . S
H525 C507 0.931 . S
H526 C511 0.929 . S
H527 C513 0.930 . S
C528 C529 1.363 . S
C528 C534 1.379 . S
C528 N536 1.356 . S
C529 C528 1.363 . S
C529 C535 1.363 . S
C530 C531 1.363 . S
C530 C535 1.379 1_455 S
C530 N537 1.356 . S
C531 C530 1.363 . S
C531 C534 1.363 1_455 S
N532 C534 1.356 1_455 S
N532 H544 0.984 . S
N532 H545 0.985 . S
N533 C535 1.356 . S
N533 H538 0.984 . S
N533 H539 0.985 . S
C534 C528 1.379 . S
C534 C531 1.363 1_655 S
C534 N532 1.356 1_655 S
C535 C529 1.363 . S
C535 C530 1.379 1_655 S
C535 N533 1.356 . S
N536 C528 1.356 . S
N536 H542 0.984 . S
N536 H543 0.984 . S
N537 C530 1.356 . S
N537 H540 0.984 . S
N537 H541 0.985 . S
H538 N533 0.984 . S
H539 N533 0.985 . S
H540 N537 0.984 . S
H541 N537 0.985 . S
H542 N536 0.984 . S
H543 N536 0.984 . S
H544 N532 0.984 . S
H545 N532 0.985 . S
C546 C547 1.363 . S
C546 C552 1.379 1_545 S
C546 N554 1.356 . S
C547 C546 1.363 . S
C547 C553 1.363 . S
C548 C549 1.363 . S
C548 C553 1.379 1_565 S
C548 N555 1.356 . S
C549 C548 1.363 . S
C549 C552 1.363 . S
N550 C552 1.356 . S
N550 H562 0.984 . S
N550 H563 0.985 . S
N551 C553 1.356 . S
N551 H556 0.984 . S
N551 H557 0.985 . S
C552 C546 1.379 1_565 S
C552 C549 1.363 . S
C552 N550 1.356 . S
C553 C547 1.363 . S
C553 C548 1.379 1_545 S
C553 N551 1.356 . S
N554 C546 1.356 . S
N554 H560 0.984 . S
N554 H561 0.984 . S
N555 C548 1.356 . S
N555 H558 0.984 . S
N555 H559 0.985 . S
H556 N551 0.984 . S
H557 N551 0.985 . S
H558 N555 0.984 . S
H559 N555 0.985 . S
H560 N554 0.984 . S
H561 N554 0.984 . S
H562 N550 0.984 . S
H563 N550 0.985 . S
C564 C565 1.363 . S
C564 C570 1.379 1_655 S
C564 N572 1.356 . S
C565 C564 1.363 . S
C565 C571 1.363 1_655 S
C566 C567 1.363 . S
C566 C571 1.379 . S
C566 N573 1.356 . S
C567 C566 1.363 . S
C567 C570 1.363 . S
N568 C570 1.356 . S
N568 H580 0.984 . S
N568 H581 0.985 . S
N569 C571 1.356 1_655 S
N569 H574 0.984 . S
N569 H575 0.985 . S
C570 C564 1.379 1_455 S
C570 C567 1.363 . S
C570 N568 1.356 . S
C571 C565 1.363 1_455 S
C571 C566 1.379 . S
C571 N569 1.356 1_455 S
N572 C564 1.356 . S
N572 H578 0.984 . S
N572 H579 0.984 . S
N573 C566 1.356 . S
N573 H576 0.984 . S
N573 H577 0.985 . S
H574 N569 0.984 . S
H575 N569 0.985 . S
H576 N573 0.984 . S
H577 N573 0.985 . S
H578 N572 0.984 . S
H579 N572 0.984 . S
H580 N568 0.984 . S
H581 N568 0.985 . S
C582 C583 1.363 . S
C582 C588 1.379 1_565 S
C582 N590 1.356 . S
C583 C582 1.363 . S
C583 C589 1.363 . S
C584 C585 1.363 . S
C584 C589 1.379 1_545 S
C584 N591 1.356 . S
C585 C584 1.363 . S
C585 C588 1.363 . S
N586 C588 1.356 . S
N586 H598 0.984 . S
N586 H599 0.985 . S
N587 C589 1.356 . S
N587 H592 0.984 . S
N587 H593 0.985 . S
C588 C582 1.379 1_545 S
C588 C585 1.363 . S
C588 N586 1.356 . S
C589 C583 1.363 . S
C589 C584 1.379 1_565 S
C589 N587 1.356 . S
N590 C582 1.356 . S
N590 H596 0.984 . S
N590 H597 0.984 . S
N591 C584 1.356 . S
N591 H594 0.984 . S
N591 H595 0.985 . S
H592 N587 0.984 . S
H593 N587 0.985 . S
H594 N591 0.984 . S
H595 N591 0.985 . S
H596 N590 0.984 . S
H597 N590 0.984 . S
H598 N586 0.984 . S
H599 N586 0.985 . S
C600 C601 1.363 . S
C600 C606 1.379 1_655 S
C600 N608 1.356 . S
C601 C600 1.363 . S
C601 C607 1.363 . S
C602 C603 1.363 . S
C602 C607 1.379 1_455 S
C602 N609 1.356 . S
C603 C602 1.363 . S
C603 C606 1.363 . S
N604 C606 1.356 . S
N604 H616 0.984 . S
N604 H617 0.985 . S
N605 C607 1.356 . S
N605 H610 0.984 . S
N605 H611 0.985 . S
C606 C600 1.379 1_455 S
C606 C603 1.363 . S
C606 N604 1.356 . S
C607 C601 1.363 . S
C607 C602 1.379 1_655 S
C607 N605 1.356 . S
N608 C600 1.356 . S
N608 H614 0.984 . S
N608 H615 0.984 . S
N609 C602 1.356 . S
N609 H612 0.984 . S
N609 H613 0.985 . S
H610 N605 0.984 . S
H611 N605 0.985 . S
H612 N609 0.984 . S
H613 N609 0.985 . S
H614 N608 0.984 . S
H615 N608 0.984 . S
H616 N604 0.984 . S
H617 N604 0.985 . S
C618 C619 1.363 . S
C618 C624 1.379 1_565 S
C618 N626 1.356 . S
C619 C618 1.363 . S
C619 C625 1.363 . S
C620 C621 1.363 . S
C620 C625 1.379 1_545 S
C620 N627 1.356 . S
C621 C620 1.363 . S
C621 C624 1.363 . S
N622 C624 1.356 . S
N622 H634 0.984 . S
N622 H635 0.985 . S
N623 C625 1.356 . S
N623 H628 0.984 . S
N623 H629 0.985 . S
C624 C618 1.379 1_545 S
C624 C621 1.363 . S
C624 N622 1.356 . S
C625 C619 1.363 . S
C625 C620 1.379 1_565 S
C625 N623 1.356 . S
N626 C618 1.356 . S
N626 H632 0.984 . S
N626 H633 0.984 . S
N627 C620 1.356 . S
N627 H630 0.984 . S
N627 H631 0.985 . S
H628 N623 0.984 . S
H629 N623 0.985 . S
H630 N627 0.984 . S
H631 N627 0.985 . S
H632 N626 0.984 . S
H633 N626 0.984 . S
H634 N622 0.984 . S
H635 N622 0.985 . S
C636 C637 1.363 . S
C636 C642 1.379 1_655 S
C636 N644 1.356 . S
C637 C636 1.363 . S
C637 C643 1.363 . S
C638 C639 1.363 . S
C638 C643 1.379 1_455 S
C638 N645 1.356 . S
C639 C638 1.363 . S
C639 C642 1.363 . S
N640 C642 1.356 . S
N640 H652 0.984 . S
N640 H653 0.985 . S
N641 C643 1.356 . S
N641 H646 0.984 . S
N641 H647 0.985 . S
C642 C636 1.379 1_455 S
C642 C639 1.363 . S
C642 N640 1.356 . S
C643 C637 1.363 . S
C643 C638 1.379 1_655 S
C643 N641 1.356 . S
N644 C636 1.356 . S
N644 H650 0.984 . S
N644 H651 0.984 . S
N645 C638 1.356 . S
N645 H648 0.984 . S
N645 H649 0.985 . S
H646 N641 0.984 . S
H647 N641 0.985 . S
H648 N645 0.984 . S
H649 N645 0.985 . S
H650 N644 0.984 . S
H651 N644 0.984 . S
H652 N640 0.984 . S
H653 N640 0.985 . S
C654 C655 1.363 . S
C654 C660 1.379 1_545 S
C654 N662 1.356 . S
C655 C654 1.363 . S
C655 C661 1.363 . S
C656 C657 1.363 . S
C656 C661 1.379 1_565 S
C656 N663 1.356 . S
C657 C656 1.363 . S
C657 C660 1.363 . S
N658 C660 1.356 . S
N658 H670 0.984 . S
N658 H671 0.985 . S
N659 C661 1.356 . S
N659 H664 0.984 . S
N659 H665 0.985 . S
C660 C654 1.379 1_565 S
C660 C657 1.363 . S
C660 N658 1.356 . S
C661 C655 1.363 . S
C661 C656 1.379 1_545 S
C661 N659 1.356 . S
N662 C654 1.356 . S
N662 H668 0.984 . S
N662 H669 0.984 . S
N663 C656 1.356 . S
N663 H666 0.984 . S
N663 H667 0.985 . S
H664 N659 0.984 . S
H665 N659 0.985 . S
H666 N663 0.984 . S
H667 N663 0.985 . S
H668 N662 0.984 . S
H669 N662 0.984 . S
H670 N658 0.984 . S
H671 N658 0.985 . S
C672 C673 1.363 . S
C672 C678 1.379 . S
C672 N680 1.356 . S
C673 C672 1.363 . S
C673 C679 1.363 . S
C674 C675 1.363 . S
C674 C679 1.379 . S
C674 N681 1.356 . S
C675 C674 1.363 . S
C675 C678 1.363 . S
N676 C678 1.356 . S
N676 H688 0.984 . S
N676 H689 0.985 . S
N677 C679 1.356 . S
N677 H682 0.984 . S
N677 H683 0.985 . S
C678 C672 1.379 . S
C678 C675 1.363 . S
C678 N676 1.356 . S
C679 C673 1.363 . S
C679 C674 1.379 . S
C679 N677 1.356 . S
N680 C672 1.356 . S
N680 H686 0.984 . S
N680 H687 0.984 . S
N681 C674 1.356 . S
N681 H684 0.984 . S
N681 H685 0.985 . S
H682 N677 0.984 . S
H683 N677 0.985 . S
H684 N681 0.984 . S
H685 N681 0.985 . S
H686 N680 0.984 . S
H687 N680 0.984 . S
H688 N676 0.984 . S
H689 N676 0.985 . S
C690 C691 1.363 . S
C690 C696 1.379 . S
C690 N698 1.356 . S
C691 C690 1.363 . S
C691 C697 1.363 . S
C692 C693 1.363 . S
C692 C697 1.379 . S
C692 N699 1.356 . S
C693 C692 1.363 . S
C693 C696 1.363 . S
N694 C696 1.356 . S
N694 H706 0.984 . S
N694 H707 0.985 . S
N695 C697 1.356 . S
N695 H700 0.984 . S
N695 H701 0.985 . S
C696 C690 1.379 . S
C696 C693 1.363 . S
C696 N694 1.356 . S
C697 C691 1.363 . S
C697 C692 1.379 . S
C697 N695 1.356 . S
N698 C690 1.356 . S
N698 H704 0.984 . S
N698 H705 0.984 . S
N699 C692 1.356 . S
N699 H702 0.984 . S
N699 H703 0.985 . S
H700 N695 0.984 . S
H701 N695 0.985 . S
H702 N699 0.984 . S
H703 N699 0.985 . S
H704 N698 0.984 . S
H705 N698 0.984 . S
H706 N694 0.984 . S
H707 N694 0.985 . S
C708 C709 1.363 . S
C708 C714 1.379 . S
C708 N716 1.356 . S
C709 C708 1.363 . S
C709 C715 1.363 . S
C710 C711 1.363 . S
C710 C715 1.379 . S
C710 N717 1.356 . S
C711 C710 1.363 . S
C711 C714 1.363 . S
N712 C714 1.356 . S
N712 H724 0.984 . S
N712 H725 0.985 . S
N713 C715 1.356 . S
N713 H718 0.984 . S
N713 H719 0.985 . S
C714 C708 1.379 . S
C714 C711 1.363 . S
C714 N712 1.356 . S
C715 C709 1.363 . S
C715 C710 1.379 . S
C715 N713 1.356 . S
N716 C708 1.356 . S
N716 H722 0.984 . S
N716 H723 0.984 . S
N717 C710 1.356 . S
N717 H720 0.984 . S
N717 H721 0.985 . S
H718 N713 0.984 . S
H719 N713 0.985 . S
H720 N717 0.984 . S
H721 N717 0.985 . S
H722 N716 0.984 . S
H723 N716 0.984 . S
H724 N712 0.984 . S
H725 N712 0.985 . S
C726 C727 1.363 . S
C726 C732 1.379 . S
C726 N734 1.356 . S
C727 C726 1.363 . S
C727 C733 1.363 . S
C728 C729 1.363 . S
C728 C733 1.379 . S
C728 N735 1.356 . S
C729 C728 1.363 . S
C729 C732 1.363 . S
N730 C732 1.356 . S
N730 H742 0.984 . S
N730 H743 0.985 . S
N731 C733 1.356 . S
N731 H736 0.984 . S
N731 H737 0.985 . S
C732 C726 1.379 . S
C732 C729 1.363 . S
C732 N730 1.356 . S
C733 C727 1.363 . S
C733 C728 1.379 . S
C733 N731 1.356 . S
N734 C726 1.356 . S
N734 H740 0.984 . S
N734 H741 0.984 . S
N735 C728 1.356 . S
N735 H738 0.984 . S
N735 H739 0.985 . S
H736 N731 0.984 . S
H737 N731 0.985 . S
H738 N735 0.984 . S
H739 N735 0.985 . S
H740 N734 0.984 . S
H741 N734 0.984 . S
H742 N730 0.984 . S
H743 N730 0.985 . S
C744 C745 1.363 . S
C744 C750 1.379 . S
C744 N752 1.356 . S
C745 C744 1.363 . S
C745 C751 1.363 . S
C746 C747 1.363 . S
C746 C751 1.379 . S
C746 N753 1.356 . S
C747 C746 1.363 . S
C747 C750 1.363 . S
N748 C750 1.356 . S
N748 H760 0.984 . S
N748 H761 0.985 . S
N749 C751 1.356 . S
N749 H754 0.984 . S
N749 H755 0.985 . S
C750 C744 1.379 . S
C750 C747 1.363 . S
C750 N748 1.356 . S
C751 C745 1.363 . S
C751 C746 1.379 . S
C751 N749 1.356 . S
N752 C744 1.356 . S
N752 H758 0.984 . S
N752 H759 0.984 . S
N753 C746 1.356 . S
N753 H756 0.984 . S
N753 H757 0.985 . S
H754 N749 0.984 . S
H755 N749 0.985 . S
H756 N753 0.984 . S
H757 N753 0.985 . S
H758 N752 0.984 . S
H759 N752 0.984 . S
H760 N748 0.984 . S
H761 N748 0.985 . S
C762 C763 1.363 . S
C762 C768 1.379 . S
C762 N770 1.356 . S
C763 C762 1.363 . S
C763 C769 1.363 . S
C764 C765 1.363 . S
C764 C769 1.379 . S
C764 N771 1.356 . S
C765 C764 1.363 . S
C765 C768 1.363 . S
N766 C768 1.356 . S
N766 H778 0.984 . S
N766 H779 0.985 . S
N767 C769 1.356 . S
N767 H772 0.984 . S
N767 H773 0.985 . S
C768 C762 1.379 . S
C768 C765 1.363 . S
C768 N766 1.356 . S
C769 C763 1.363 . S
C769 C764 1.379 . S
C769 N767 1.356 . S
N770 C762 1.356 . S
N770 H776 0.984 . S
N770 H777 0.984 . S
N771 C764 1.356 . S
N771 H774 0.984 . S
N771 H775 0.985 . S
H772 N767 0.984 . S
H773 N767 0.985 . S
H774 N771 0.984 . S
H775 N771 0.985 . S
H776 N770 0.984 . S
H777 N770 0.984 . S
H778 N766 0.984 . S
H779 N766 0.985 . S
C780 C781 1.363 . S
C780 C786 1.379 . S
C780 N788 1.356 . S
C781 C780 1.363 . S
C781 C787 1.363 . S
C782 C783 1.363 . S
C782 C787 1.379 . S
C782 N789 1.356 . S
C783 C782 1.363 . S
C783 C786 1.363 . S
N784 C786 1.356 . S
N784 H796 0.984 . S
N784 H797 0.985 . S
N785 C787 1.356 . S
N785 H790 0.984 . S
N785 H791 0.985 . S
C786 C780 1.379 . S
C786 C783 1.363 . S
C786 N784 1.356 . S
C787 C781 1.363 . S
C787 C782 1.379 . S
C787 N785 1.356 . S
N788 C780 1.356 . S
N788 H794 0.984 . S
N788 H795 0.984 . S
N789 C782 1.356 . S
N789 H792 0.984 . S
N789 H793 0.985 . S
H790 N785 0.984 . S
H791 N785 0.985 . S
H792 N789 0.984 . S
H793 N789 0.985 . S
H794 N788 0.984 . S
H795 N788 0.984 . S
H796 N784 0.984 . S
H797 N784 0.985 . S
C798 C799 1.363 . S
C798 C804 1.379 . S
C798 N806 1.356 . S
C799 C798 1.363 . S
C799 C805 1.363 . S
C800 C801 1.363 . S
C800 C805 1.379 . S
C800 N807 1.356 . S
C801 C800 1.363 . S
C801 C804 1.363 . S
N802 C804 1.356 . S
N802 H814 0.984 . S
N802 H815 0.985 . S
N803 C805 1.356 . S
N803 H808 0.984 . S
N803 H809 0.985 . S
C804 C798 1.379 . S
C804 C801 1.363 . S
C804 N802 1.356 . S
C805 C799 1.363 . S
C805 C800 1.379 . S
C805 N803 1.356 . S
N806 C798 1.356 . S
N806 H812 0.984 . S
N806 H813 0.984 . S
N807 C800 1.356 . S
N807 H810 0.984 . S
N807 H811 0.985 . S
H808 N803 0.984 . S
H809 N803 0.985 . S
H810 N807 0.984 . S
H811 N807 0.985 . S
H812 N806 0.984 . S
H813 N806 0.984 . S
H814 N802 0.984 . S
H815 N802 0.985 . S
C816 C817 1.363 . S
C816 C822 1.379 1_554 S
C816 N824 1.356 . S
C817 C816 1.363 . S
C817 C823 1.363 . S
C818 C819 1.363 . S
C818 C823 1.379 1_556 S
C818 N825 1.356 . S
C819 C818 1.363 . S
C819 C822 1.363 . S
N820 C822 1.356 . S
N820 H832 0.984 . S
N820 H833 0.985 . S
N821 C823 1.356 . S
N821 H826 0.984 . S
N821 H827 0.985 . S
C822 C816 1.379 1_556 S
C822 C819 1.363 . S
C822 N820 1.356 . S
C823 C817 1.363 . S
C823 C818 1.379 1_554 S
C823 N821 1.356 . S
N824 C816 1.356 . S
N824 H830 0.984 . S
N824 H831 0.984 . S
N825 C818 1.356 . S
N825 H828 0.984 . S
N825 H829 0.985 . S
H826 N821 0.984 . S
H827 N821 0.985 . S
H828 N825 0.984 . S
H829 N825 0.985 . S
H830 N824 0.984 . S
H831 N824 0.984 . S
H832 N820 0.984 . S
H833 N820 0.985 . S
C834 C835 1.363 . S
C834 C840 1.379 . S
C834 N842 1.356 . S
C835 C834 1.363 . S
C835 C841 1.363 . S
C836 C837 1.363 . S
C836 C841 1.379 . S
C836 N843 1.356 . S
C837 C836 1.363 . S
C837 C840 1.363 . S
N838 C840 1.356 . S
N838 H850 0.984 . S
N838 H851 0.985 . S
N839 C841 1.356 . S
N839 H844 0.984 . S
N839 H845 0.985 . S
C840 C834 1.379 . S
C840 C837 1.363 . S
C840 N838 1.356 . S
C841 C835 1.363 . S
C841 C836 1.379 . S
C841 N839 1.356 . S
N842 C834 1.356 . S
N842 H848 0.984 . S
N842 H849 0.984 . S
N843 C836 1.356 . S
N843 H846 0.984 . S
N843 H847 0.985 . S
H844 N839 0.984 . S
H845 N839 0.985 . S
H846 N843 0.984 . S
H847 N843 0.985 . S
H848 N842 0.984 . S
H849 N842 0.984 . S
H850 N838 0.984 . S
H851 N838 0.985 . S
C852 C853 1.363 . S
C852 C858 1.379 1_556 S
C852 N860 1.356 . S
C853 C852 1.363 . S
C853 C859 1.363 . S
C854 C855 1.363 . S
C854 C859 1.379 1_554 S
C854 N861 1.356 . S
C855 C854 1.363 . S
C855 C858 1.363 . S
N856 C858 1.356 . S
N856 H868 0.984 . S
N856 H869 0.985 . S
N857 C859 1.356 . S
N857 H862 0.984 . S
N857 H863 0.985 . S
C858 C852 1.379 1_554 S
C858 C855 1.363 . S
C858 N856 1.356 . S
C859 C853 1.363 . S
C859 C854 1.379 1_556 S
C859 N857 1.356 . S
N860 C852 1.356 . S
N860 H866 0.984 . S
N860 H867 0.984 . S
N861 C854 1.356 . S
N861 H864 0.984 . S
N861 H865 0.985 . S
H862 N857 0.984 . S
H863 N857 0.985 . S
H864 N861 0.984 . S
H865 N861 0.985 . S
H866 N860 0.984 . S
H867 N860 0.984 . S
H868 N856 0.984 . S
H869 N856 0.985 . S
C870 C871 1.363 . S
C870 C876 1.379 . S
C870 N878 1.356 . S
C871 C870 1.363 . S
C871 C877 1.363 . S
C872 C873 1.363 . S
C872 C877 1.379 . S
C872 N879 1.356 . S
C873 C872 1.363 . S
C873 C876 1.363 . S
N874 C876 1.356 . S
N874 H886 0.984 . S
N874 H887 0.985 . S
N875 C877 1.356 . S
N875 H880 0.984 . S
N875 H881 0.985 . S
C876 C870 1.379 . S
C876 C873 1.363 . S
C876 N874 1.356 . S
C877 C871 1.363 . S
C877 C872 1.379 . S
C877 N875 1.356 . S
N878 C870 1.356 . S
N878 H884 0.984 . S
N878 H885 0.984 . S
N879 C872 1.356 . S
N879 H882 0.984 . S
N879 H883 0.985 . S
H880 N875 0.984 . S
H881 N875 0.985 . S
H882 N879 0.984 . S
H883 N879 0.985 . S
H884 N878 0.984 . S
H885 N878 0.984 . S
H886 N874 0.984 . S
H887 N874 0.985 . S
C888 C889 1.363 . S
C888 C894 1.379 1_556 S
C888 N896 1.356 . S
C889 C888 1.363 . S
C889 C895 1.363 . S
C890 C891 1.363 . S
C890 C895 1.379 1_554 S
C890 N897 1.356 . S
C891 C890 1.363 . S
C891 C894 1.363 . S
N892 C894 1.356 . S
N892 H904 0.984 . S
N892 H905 0.985 . S
N893 C895 1.356 . S
N893 H898 0.984 . S
N893 H899 0.985 . S
C894 C888 1.379 1_554 S
C894 C891 1.363 . S
C894 N892 1.356 . S
C895 C889 1.363 . S
C895 C890 1.379 1_556 S
C895 N893 1.356 . S
N896 C888 1.356 . S
N896 H902 0.984 . S
N896 H903 0.984 . S
N897 C890 1.356 . S
N897 H900 0.984 . S
N897 H901 0.985 . S
H898 N893 0.984 . S
H899 N893 0.985 . S
H900 N897 0.984 . S
H901 N897 0.985 . S
H902 N896 0.984 . S
H903 N896 0.984 . S
H904 N892 0.984 . S
H905 N892 0.985 . S
C906 C907 1.363 . S
C906 C912 1.379 . S
C906 N914 1.356 . S
C907 C906 1.363 . S
C907 C913 1.363 . S
C908 C909 1.363 . S
C908 C913 1.379 . S
C908 N915 1.356 . S
C909 C908 1.363 . S
C909 C912 1.363 . S
N910 C912 1.356 . S
N910 H922 0.984 . S
N910 H923 0.985 . S
N911 C913 1.356 . S
N911 H916 0.984 . S
N911 H917 0.985 . S
C912 C906 1.379 . S
C912 C909 1.363 . S
C912 N910 1.356 . S
C913 C907 1.363 . S
C913 C908 1.379 . S
C913 N911 1.356 . S
N914 C906 1.356 . S
N914 H920 0.984 . S
N914 H921 0.984 . S
N915 C908 1.356 . S
N915 H918 0.984 . S
N915 H919 0.985 . S
H916 N911 0.984 . S
H917 N911 0.985 . S
H918 N915 0.984 . S
H919 N915 0.985 . S
H920 N914 0.984 . S
H921 N914 0.984 . S
H922 N910 0.984 . S
H923 N910 0.985 . S
C924 C925 1.363 . S
C924 C930 1.379 1_554 S
C924 N932 1.356 . S
C925 C924 1.363 . S
C925 C931 1.363 . S
C926 C927 1.363 . S
C926 C931 1.379 1_556 S
C926 N933 1.356 . S
C927 C926 1.363 . S
C927 C930 1.363 . S
N928 C930 1.356 . S
N928 H940 0.984 . S
N928 H941 0.985 . S
N929 C931 1.356 . S
N929 H934 0.984 . S
N929 H935 0.985 . S
C930 C924 1.379 1_556 S
C930 C927 1.363 . S
C930 N928 1.356 . S
C931 C925 1.363 . S
C931 C926 1.379 1_554 S
C931 N929 1.356 . S
N932 C924 1.356 . S
N932 H938 0.984 . S
N932 H939 0.984 . S
N933 C926 1.356 . S
N933 H936 0.984 . S
N933 H937 0.985 . S
H934 N929 0.984 . S
H935 N929 0.985 . S
H936 N933 0.984 . S
H937 N933 0.985 . S
H938 N932 0.984 . S
H939 N932 0.984 . S
H940 N928 0.984 . S
H941 N928 0.985 . S
C942 C943 1.363 . S
C942 C948 1.379 . S
C942 N950 1.356 . S
C943 C942 1.363 . S
C943 C949 1.363 . S
C944 C945 1.363 . S
C944 C949 1.379 . S
C944 N951 1.356 . S
C945 C944 1.363 . S
C945 C948 1.363 . S
N946 C948 1.356 . S
N946 H958 0.984 . S
N946 H959 0.985 . S
N947 C949 1.356 . S
N947 H952 0.984 . S
N947 H953 0.985 . S
C948 C942 1.379 . S
C948 C945 1.363 . S
C948 N946 1.356 . S
C949 C943 1.363 . S
C949 C944 1.379 . S
C949 N947 1.356 . S
N950 C942 1.356 . S
N950 H956 0.984 . S
N950 H957 0.984 . S
N951 C944 1.356 . S
N951 H954 0.984 . S
N951 H955 0.985 . S
H952 N947 0.984 . S
H953 N947 0.985 . S
H954 N951 0.984 . S
H955 N951 0.985 . S
H956 N950 0.984 . S
H957 N950 0.984 . S
H958 N946 0.984 . S
H959 N946 0.985 . S
C960 C961 1.363 . S
C960 C966 1.379 . S
C960 N968 1.356 . S
C961 C960 1.363 . S
C961 C967 1.363 . S
C962 C963 1.363 . S
C962 C967 1.379 . S
C962 N969 1.356 . S
C963 C962 1.363 . S
C963 C966 1.363 . S
N964 C966 1.356 . S
N964 H976 0.984 . S
N964 H977 0.985 . S
N965 C967 1.356 . S
N965 H970 0.984 . S
N965 H971 0.985 . S
C966 C960 1.379 . S
C966 C963 1.363 . S
C966 N964 1.356 . S
C967 C961 1.363 . S
C967 C962 1.379 . S
C967 N965 1.356 . S
N968 C960 1.356 . S
N968 H974 0.984 . S
N968 H975 0.984 . S
N969 C962 1.356 . S
N969 H972 0.984 . S
N969 H973 0.985 . S
H970 N965 0.984 . S
H971 N965 0.985 . S
H972 N969 0.984 . S
H973 N969 0.985 . S
H974 N968 0.984 . S
H975 N968 0.984 . S
H976 N964 0.984 . S
H977 N964 0.985 . S
C978 C979 1.363 . S
C978 C984 1.379 . S
C978 N986 1.356 . S
C979 C978 1.363 . S
C979 C985 1.363 . S
C980 C981 1.363 . S
C980 C985 1.379 . S
C980 N987 1.356 . S
C981 C980 1.363 . S
C981 C984 1.363 . S
N982 C984 1.356 . S
N982 H994 0.984 . S
N982 H995 0.985 . S
N983 C985 1.356 . S
N983 H988 0.984 . S
N983 H989 0.985 . S
C984 C978 1.379 . S
C984 C981 1.363 . S
C984 N982 1.356 . S
C985 C979 1.363 . S
C985 C980 1.379 . S
C985 N983 1.356 . S
N986 C978 1.356 . S
N986 H992 0.984 . S
N986 H993 0.984 . S
N987 C980 1.356 . S
N987 H990 0.984 . S
N987 H991 0.985 . S
H988 N983 0.984 . S
H989 N983 0.985 . S
H990 N987 0.984 . S
H991 N987 0.985 . S
H992 N986 0.984 . S
H993 N986 0.984 . S
H994 N982 0.984 . S
H995 N982 0.985 . S
C996 C997 1.363 . S
C996 C1002 1.379 . S
C996 N1004 1.356 . S
C997 C996 1.363 . S
C997 C1003 1.363 . S
C998 C999 1.363 . S
C998 C1003 1.379 . S
C998 N1005 1.356 . S
C999 C998 1.363 . S
C999 C1002 1.363 . S
N1000 C1002 1.356 . S
N1000 H1012 0.984 . S
N1000 H1013 0.985 . S
N1001 C1003 1.356 . S
N1001 H1006 0.984 . S
N1001 H1007 0.985 . S
C1002 C996 1.379 . S
C1002 C999 1.363 . S
C1002 N1000 1.356 . S
C1003 C997 1.363 . S
C1003 C998 1.379 . S
C1003 N1001 1.356 . S
N1004 C996 1.356 . S
N1004 H1010 0.984 . S
N1004 H1011 0.984 . S
N1005 C998 1.356 . S
N1005 H1008 0.984 . S
N1005 H1009 0.985 . S
H1006 N1001 0.984 . S
H1007 N1001 0.985 . S
H1008 N1005 0.984 . S
H1009 N1005 0.985 . S
H1010 N1004 0.984 . S
H1011 N1004 0.984 . S
H1012 N1000 0.984 . S
H1013 N1000 0.985 . S
C1014 C1015 1.363 . S
C1014 C1020 1.379 . S
C1014 N1022 1.356 . S
C1015 C1014 1.363 . S
C1015 C1021 1.363 . S
C1016 C1017 1.363 . S
C1016 C1021 1.379 . S
C1016 N1023 1.356 . S
C1017 C1016 1.363 . S
C1017 C1020 1.363 . S
N1018 C1020 1.356 . S
N1018 H1030 0.984 . S
N1018 H1031 0.985 . S
N1019 C1021 1.356 . S
N1019 H1024 0.984 . S
N1019 H1025 0.985 . S
C1020 C1014 1.379 . S
C1020 C1017 1.363 . S
C1020 N1018 1.356 . S
C1021 C1015 1.363 . S
C1021 C1016 1.379 . S
C1021 N1019 1.356 . S
N1022 C1014 1.356 . S
N1022 H1028 0.984 . S
N1022 H1029 0.984 . S
N1023 C1016 1.356 . S
N1023 H1026 0.984 . S
N1023 H1027 0.985 . S
H1024 N1019 0.984 . S
H1025 N1019 0.985 . S
H1026 N1023 0.984 . S
H1027 N1023 0.985 . S
H1028 N1022 0.984 . S
H1029 N1022 0.984 . S
H1030 N1018 0.984 . S
H1031 N1018 0.985 . S
C1032 C1033 1.363 . S
C1032 C1038 1.379 . S
C1032 N1040 1.356 . S
C1033 C1032 1.363 . S
C1033 C1039 1.363 . S
C1034 C1035 1.363 . S
C1034 C1039 1.379 . S
C1034 N1041 1.356 . S
C1035 C1034 1.363 . S
C1035 C1038 1.363 . S
N1036 C1038 1.356 . S
N1036 H1048 0.984 . S
N1036 H1049 0.985 . S
N1037 C1039 1.356 . S
N1037 H1042 0.984 . S
N1037 H1043 0.985 . S
C1038 C1032 1.379 . S
C1038 C1035 1.363 . S
C1038 N1036 1.356 . S
C1039 C1033 1.363 . S
C1039 C1034 1.379 . S
C1039 N1037 1.356 . S
N1040 C1032 1.356 . S
N1040 H1046 0.984 . S
N1040 H1047 0.984 . S
N1041 C1034 1.356 . S
N1041 H1044 0.984 . S
N1041 H1045 0.985 . S
H1042 N1037 0.984 . S
H1043 N1037 0.985 . S
H1044 N1041 0.984 . S
H1045 N1041 0.985 . S
H1046 N1040 0.984 . S
H1047 N1040 0.984 . S
H1048 N1036 0.984 . S
H1049 N1036 0.985 . S
C1050 C1051 1.363 . S
C1050 C1056 1.379 . S
C1050 N1058 1.356 . S
C1051 C1050 1.363 . S
C1051 C1057 1.363 . S
C1052 C1053 1.363 . S
C1052 C1057 1.379 . S
C1052 N1059 1.356 . S
C1053 C1052 1.363 . S
C1053 C1056 1.363 . S
N1054 C1056 1.356 . S
N1054 H1066 0.984 . S
N1054 H1067 0.985 . S
N1055 C1057 1.356 . S
N1055 H1060 0.984 . S
N1055 H1061 0.985 . S
C1056 C1050 1.379 . S
C1056 C1053 1.363 . S
C1056 N1054 1.356 . S
C1057 C1051 1.363 . S
C1057 C1052 1.379 . S
C1057 N1055 1.356 . S
N1058 C1050 1.356 . S
N1058 H1064 0.984 . S
N1058 H1065 0.984 . S
N1059 C1052 1.356 . S
N1059 H1062 0.984 . S
N1059 H1063 0.985 . S
H1060 N1055 0.984 . S
H1061 N1055 0.985 . S
H1062 N1059 0.984 . S
H1063 N1059 0.985 . S
H1064 N1058 0.984 . S
H1065 N1058 0.984 . S
H1066 N1054 0.984 . S
H1067 N1054 0.985 . S
C1068 C1069 1.363 . S
C1068 C1074 1.379 . S
C1068 N1076 1.356 . S
C1069 C1068 1.363 . S
C1069 C1075 1.363 . S
C1070 C1071 1.363 . S
C1070 C1075 1.379 . S
C1070 N1077 1.356 . S
C1071 C1070 1.363 . S
C1071 C1074 1.363 . S
N1072 C1074 1.356 . S
N1072 H1084 0.984 . S
N1072 H1085 0.985 . S
N1073 C1075 1.356 . S
N1073 H1078 0.984 . S
N1073 H1079 0.985 . S
C1074 C1068 1.379 . S
C1074 C1071 1.363 . S
C1074 N1072 1.356 . S
C1075 C1069 1.363 . S
C1075 C1070 1.379 . S
C1075 N1073 1.356 . S
N1076 C1068 1.356 . S
N1076 H1082 0.984 . S
N1076 H1083 0.984 . S
N1077 C1070 1.356 . S
N1077 H1080 0.984 . S
N1077 H1081 0.985 . S
H1078 N1073 0.984 . S
H1079 N1073 0.985 . S
H1080 N1077 0.984 . S
H1081 N1077 0.985 . S
H1082 N1076 0.984 . S
H1083 N1076 0.984 . S
H1084 N1072 0.984 . S
H1085 N1072 0.985 . S
C1086 C1087 1.363 . S
C1086 C1092 1.379 . S
C1086 N1094 1.356 . S
C1087 C1086 1.363 . S
C1087 C1093 1.363 . S
C1088 C1089 1.363 . S
C1088 C1093 1.379 . S
C1088 N1095 1.356 . S
C1089 C1088 1.363 . S
C1089 C1092 1.363 . S
N1090 C1092 1.356 . S
N1090 H1102 0.984 . S
N1090 H1103 0.985 . S
N1091 C1093 1.356 . S
N1091 H1096 0.984 . S
N1091 H1097 0.985 . S
C1092 C1086 1.379 . S
C1092 C1089 1.363 . S
C1092 N1090 1.356 . S
C1093 C1087 1.363 . S
C1093 C1088 1.379 . S
C1093 N1091 1.356 . S
N1094 C1086 1.356 . S
N1094 H1100 0.984 . S
N1094 H1101 0.984 . S
N1095 C1088 1.356 . S
N1095 H1098 0.984 . S
N1095 H1099 0.985 . S
H1096 N1091 0.984 . S
H1097 N1091 0.985 . S
H1098 N1095 0.984 . S
H1099 N1095 0.985 . S
H1100 N1094 0.984 . S
H1101 N1094 0.984 . S
H1102 N1090 0.984 . S
H1103 N1090 0.985 . S
C1104 C1105 1.363 . S
C1104 C1110 1.379 . S
C1104 N1112 1.356 . S
C1105 C1104 1.363 . S
C1105 C1111 1.363 . S
C1106 C1107 1.363 . S
C1106 C1111 1.379 . S
C1106 N1113 1.356 . S
C1107 C1106 1.363 . S
C1107 C1110 1.363 . S
N1108 C1110 1.356 . S
N1108 H1120 0.984 . S
N1108 H1121 0.985 . S
N1109 C1111 1.356 . S
N1109 H1114 0.984 . S
N1109 H1115 0.985 . S
C1110 C1104 1.379 . S
C1110 C1107 1.363 . S
C1110 N1108 1.356 . S
C1111 C1105 1.363 . S
C1111 C1106 1.379 . S
C1111 N1109 1.356 . S
N1112 C1104 1.356 . S
N1112 H1118 0.984 . S
N1112 H1119 0.984 . S
N1113 C1106 1.356 . S
N1113 H1116 0.984 . S
N1113 H1117 0.985 . S
H1114 N1109 0.984 . S
H1115 N1109 0.985 . S
H1116 N1113 0.984 . S
H1117 N1113 0.985 . S
H1118 N1112 0.984 . S
H1119 N1112 0.984 . S
H1120 N1108 0.984 . S
H1121 N1108 0.985 . S
C1122 C1123 1.363 . S
C1122 C1128 1.379 . S
C1122 N1130 1.356 . S
C1123 C1122 1.363 . S
C1123 C1129 1.363 . S
C1124 C1125 1.363 . S
C1124 C1129 1.379 . S
C1124 N1131 1.356 . S
C1125 C1124 1.363 . S
C1125 C1128 1.363 . S
N1126 C1128 1.356 . S
N1126 H1138 0.984 . S
N1126 H1139 0.985 . S
N1127 C1129 1.356 . S
N1127 H1132 0.984 . S
N1127 H1133 0.985 . S
C1128 C1122 1.379 . S
C1128 C1125 1.363 . S
C1128 N1126 1.356 . S
C1129 C1123 1.363 . S
C1129 C1124 1.379 . S
C1129 N1127 1.356 . S
N1130 C1122 1.356 . S
N1130 H1136 0.984 . S
N1130 H1137 0.984 . S
N1131 C1124 1.356 . S
N1131 H1134 0.984 . S
N1131 H1135 0.985 . S
H1132 N1127 0.984 . S
H1133 N1127 0.985 . S
H1134 N1131 0.984 . S
H1135 N1131 0.985 . S
H1136 N1130 0.984 . S
H1137 N1130 0.984 . S
H1138 N1126 0.984 . S
H1139 N1126 0.985 . S
C1140 C1141 1.363 . S
C1140 C1146 1.379 . S
C1140 N1148 1.356 . S
C1141 C1140 1.363 . S
C1141 C1147 1.363 . S
C1142 C1143 1.363 . S
C1142 C1147 1.379 . S
C1142 N1149 1.356 . S
C1143 C1142 1.363 . S
C1143 C1146 1.363 . S
N1144 C1146 1.356 . S
N1144 H1156 0.984 . S
N1144 H1157 0.985 . S
N1145 C1147 1.356 . S
N1145 H1150 0.984 . S
N1145 H1151 0.985 . S
C1146 C1140 1.379 . S
C1146 C1143 1.363 . S
C1146 N1144 1.356 . S
C1147 C1141 1.363 . S
C1147 C1142 1.379 . S
C1147 N1145 1.356 . S
N1148 C1140 1.356 . S
N1148 H1154 0.984 . S
N1148 H1155 0.984 . S
N1149 C1142 1.356 . S
N1149 H1152 0.984 . S
N1149 H1153 0.985 . S
H1150 N1145 0.984 . S
H1151 N1145 0.985 . S
H1152 N1149 0.984 . S
H1153 N1149 0.985 . S
H1154 N1148 0.984 . S
H1155 N1148 0.984 . S
H1156 N1144 0.984 . S
H1157 N1144 0.985 . S
C1158 C1159 1.363 . S
C1158 C1164 1.379 . S
C1158 N1166 1.356 . S
C1159 C1158 1.363 . S
C1159 C1165 1.363 . S
C1160 C1161 1.363 . S
C1160 C1165 1.379 . S
C1160 N1167 1.356 . S
C1161 C1160 1.363 . S
C1161 C1164 1.363 . S
N1162 C1164 1.356 . S
N1162 H1174 0.984 . S
N1162 H1175 0.985 . S
N1163 C1165 1.356 . S
N1163 H1168 0.984 . S
N1163 H1169 0.985 . S
C1164 C1158 1.379 . S
C1164 C1161 1.363 . S
C1164 N1162 1.356 . S
C1165 C1159 1.363 . S
C1165 C1160 1.379 . S
C1165 N1163 1.356 . S
N1166 C1158 1.356 . S
N1166 H1172 0.984 . S
N1166 H1173 0.984 . S
N1167 C1160 1.356 . S
N1167 H1170 0.984 . S
N1167 H1171 0.985 . S
H1168 N1163 0.984 . S
H1169 N1163 0.985 . S
H1170 N1167 0.984 . S
H1171 N1167 0.985 . S
H1172 N1166 0.984 . S
H1173 N1166 0.984 . S
H1174 N1162 0.984 . S
H1175 N1162 0.985 . S
C1176 C1177 1.363 . S
C1176 C1182 1.379 . S
C1176 N1184 1.356 . S
C1177 C1176 1.363 . S
C1177 C1183 1.363 . S
C1178 C1179 1.363 . S
C1178 C1183 1.379 . S
C1178 N1185 1.356 . S
C1179 C1178 1.363 . S
C1179 C1182 1.363 . S
N1180 C1182 1.356 . S
N1180 H1192 0.984 . S
N1180 H1193 0.985 . S
N1181 C1183 1.356 . S
N1181 H1186 0.984 . S
N1181 H1187 0.985 . S
C1182 C1176 1.379 . S
C1182 C1179 1.363 . S
C1182 N1180 1.356 . S
C1183 C1177 1.363 . S
C1183 C1178 1.379 . S
C1183 N1181 1.356 . S
N1184 C1176 1.356 . S
N1184 H1190 0.984 . S
N1184 H1191 0.984 . S
N1185 C1178 1.356 . S
N1185 H1188 0.984 . S
N1185 H1189 0.985 . S
H1186 N1181 0.984 . S
H1187 N1181 0.985 . S
H1188 N1185 0.984 . S
H1189 N1185 0.985 . S
H1190 N1184 0.984 . S
H1191 N1184 0.984 . S
H1192 N1180 0.984 . S
H1193 N1180 0.985 . S
C1194 C1195 1.363 . S
C1194 C1200 1.379 . S
C1194 N1202 1.356 . S
C1195 C1194 1.363 . S
C1195 C1201 1.363 . S
C1196 C1197 1.363 . S
C1196 C1201 1.379 . S
C1196 N1203 1.356 . S
C1197 C1196 1.363 . S
C1197 C1200 1.363 . S
N1198 C1200 1.356 . S
N1198 H1210 0.984 . S
N1198 H1211 0.985 . S
N1199 C1201 1.356 . S
N1199 H1204 0.984 . S
N1199 H1205 0.985 . S
C1200 C1194 1.379 . S
C1200 C1197 1.363 . S
C1200 N1198 1.356 . S
C1201 C1195 1.363 . S
C1201 C1196 1.379 . S
C1201 N1199 1.356 . S
N1202 C1194 1.356 . S
N1202 H1208 0.984 . S
N1202 H1209 0.984 . S
N1203 C1196 1.356 . S
N1203 H1206 0.984 . S
N1203 H1207 0.985 . S
H1204 N1199 0.984 . S
H1205 N1199 0.985 . S
H1206 N1203 0.984 . S
H1207 N1203 0.985 . S
H1208 N1202 0.984 . S
H1209 N1202 0.984 . S
H1210 N1198 0.984 . S
H1211 N1198 0.985 . S
C1212 C1213 1.363 . S
C1212 C1218 1.379 . S
C1212 N1220 1.356 . S
C1213 C1212 1.363 . S
C1213 C1219 1.363 . S
C1214 C1215 1.363 . S
C1214 C1219 1.379 . S
C1214 N1221 1.356 . S
C1215 C1214 1.363 . S
C1215 C1218 1.363 . S
N1216 C1218 1.356 . S
N1216 H1228 0.984 . S
N1216 H1229 0.985 . S
N1217 C1219 1.356 . S
N1217 H1222 0.984 . S
N1217 H1223 0.985 . S
C1218 C1212 1.379 . S
C1218 C1215 1.363 . S
C1218 N1216 1.356 . S
C1219 C1213 1.363 . S
C1219 C1214 1.379 . S
C1219 N1217 1.356 . S
N1220 C1212 1.356 . S
N1220 H1226 0.984 . S
N1220 H1227 0.984 . S
N1221 C1214 1.356 . S
N1221 H1224 0.984 . S
N1221 H1225 0.985 . S
H1222 N1217 0.984 . S
H1223 N1217 0.985 . S
H1224 N1221 0.984 . S
H1225 N1221 0.985 . S
H1226 N1220 0.984 . S
H1227 N1220 0.984 . S
H1228 N1216 0.984 . S
H1229 N1216 0.985 . S
C1230 C1231 1.363 . S
C1230 C1236 1.379 . S
C1230 N1238 1.356 . S
C1231 C1230 1.363 . S
C1231 C1237 1.363 . S
C1232 C1233 1.363 . S
C1232 C1237 1.379 . S
C1232 N1239 1.356 . S
C1233 C1232 1.363 . S
C1233 C1236 1.363 . S
N1234 C1236 1.356 . S
N1234 H1246 0.984 . S
N1234 H1247 0.985 . S
N1235 C1237 1.356 . S
N1235 H1240 0.984 . S
N1235 H1241 0.985 . S
C1236 C1230 1.379 . S
C1236 C1233 1.363 . S
C1236 N1234 1.356 . S
C1237 C1231 1.363 . S
C1237 C1232 1.379 . S
C1237 N1235 1.356 . S
N1238 C1230 1.356 . S
N1238 H1244 0.984 . S
N1238 H1245 0.984 . S
N1239 C1232 1.356 . S
N1239 H1242 0.984 . S
N1239 H1243 0.985 . S
H1240 N1235 0.984 . S
H1241 N1235 0.985 . S
H1242 N1239 0.984 . S
H1243 N1239 0.985 . S
H1244 N1238 0.984 . S
H1245 N1238 0.984 . S
H1246 N1234 0.984 . S
H1247 N1234 0.985 . S
C529 N410 1.481 . S
C531 N5 1.477 . S
C547 N47 1.443 . S
C549 N434 1.462 . S
C565 N71 1.477 . S
C567 N476 1.481 . S
C583 N113 1.443 . S
C585 N500 1.462 . S
C601 N269 1.462 . S
C603 N146 1.443 . S
C619 N311 1.481 . S
C621 N170 1.477 . S
C637 N212 1.443 . S
C639 N335 1.462 . S
C655 N377 1.481 . S
C657 N236 1.477 . S
C673 C17 1.197 . S
C675 C479 1.196 . S
C691 C512 1.180 . S
C693 C50 1.179 . S
C709 C413 1.196 . S
C711 C83 1.197 . S
C727 C446 1.180 . S
C729 C116 1.179 . S
C745 C347 1.180 . S
C747 C149 1.179 . S
C763 C380 1.196 . S
C765 C182 1.197 . S
C781 C281 1.180 . S
C783 C215 1.179 . S
C799 C314 1.196 . S
C801 C248 1.197 . S
C817 C8 1.401 . S
C819 C358 1.472 . S
C835 C371 1.501 . S
C837 C61 1.448 . S
C853 C292 1.472 . S
C855 C74 1.401 . S
C871 C305 1.501 . S
C873 C127 1.448 . S
C889 C160 1.448 . S
C891 C470 1.501 . S
C907 C173 1.401 . S
C909 C523 1.472 . S
C925 C404 1.501 . S
C927 C226 1.448 . S
C943 C239 1.401 . S
C945 C457 1.472 . S
C961 N401 1.750 . S
C963 N14 1.735 . S
C979 N38 1.775 . S
C981 N443 1.776 . S
C997 N80 1.735 . S
C999 N467 1.750 . S
C1015 N509 1.776 . S
C1017 N104 1.775 . S
C1033 N278 1.776 . S
C1035 N137 1.775 . S
C1051 N179 1.735 . S
C1053 N302 1.750 . S
C1069 N344 1.776 . S
C1071 N203 1.775 . S
C1087 N368 1.750 . S
C1089 N245 1.735 . S
C1105 C193 1.703 . S
C1107 C28 1.703 . S
C1123 C206 1.647 . S
C1125 C41 1.647 . S
C1141 C94 1.703 . S
C1143 C259 1.703 . S
C1159 C140 1.647 . S
C1161 C107 1.647 . S
C1177 C272 1.534 . S
C1179 C437 1.534 . S
C1195 C490 1.604 . S
C1197 C325 1.604 . S
C1213 C503 1.534 . S
C1215 C338 1.534 . S
C1231 C391 1.604 . S
C1233 C424 1.604 . S
