# Generated by pormake.
# Topology wlt, (5)-cn, num edge types: 1
# Building blocks:
#     Node 0, Type 0, BuildingBlock: BEQFEK_clean_sbu_0, # of connection points: 5
#     Node 1, Type 0, BuildingBlock: BEQFEK_clean_sbu_0, # of connection points: 5
#     Node 2, Type 0, BuildingBlock: BEQFEK_clean_sbu_0, # of connection points: 5
#     Node 3, Type 0, BuildingBlock: BEQFEK_clean_sbu_0, # of connection points: 5
#     Node 4, Type 0, BuildingBlock: BEQFEK_clean_sbu_0, # of connection points: 5
#     Node 5, Type 0, BuildingBlock: BEQFEK_clean_sbu_0, # of connection points: 5
#     Node 6, Type 0, BuildingBlock: BEQFEK_clean_sbu_0, # of connection points: 5
#     Node 7, Type 0, BuildingBlock: BEQFEK_clean_sbu_0, # of connection points: 5
#     Node 8, Type 0, BuildingBlock: BEQFEK_clean_sbu_0, # of connection points: 5
#     Node 9, Type 0, BuildingBlock: BEQFEK_clean_sbu_0, # of connection points: 5
#     Node 10, Type 0, BuildingBlock: BEQFEK_clean_sbu_0, # of connection points: 5
#     Node 11, Type 0, BuildingBlock: BEQFEK_clean_sbu_0, # of connection points: 5
#     Node 12, Type 0, BuildingBlock: BEQFEK_clean_sbu_0, # of connection points: 5
#     Node 13, Type 0, BuildingBlock: BEQFEK_clean_sbu_0, # of connection points: 5
#     Node 14, Type 0, BuildingBlock: BEQFEK_clean_sbu_0, # of connection points: 5
#     Node 15, Type 0, BuildingBlock: BEQFEK_clean_sbu_0, # of connection points: 5
#     Node 16, Type 0, BuildingBlock: BEQFEK_clean_sbu_0, # of connection points: 5
#     Node 17, Type 0, BuildingBlock: BEQFEK_clean_sbu_0, # of connection points: 5
#     Node 18, Type 0, BuildingBlock: BEQFEK_clean_sbu_0, # of connection points: 5
#     Node 19, Type 0, BuildingBlock: BEQFEK_clean_sbu_0, # of connection points: 5
#     Node 20, Type 0, BuildingBlock: BEQFEK_clean_sbu_0, # of connection points: 5
#     Node 21, Type 0, BuildingBlock: BEQFEK_clean_sbu_0, # of connection points: 5
#     Node 22, Type 0, BuildingBlock: BEQFEK_clean_sbu_0, # of connection points: 5
#     Node 23, Type 0, BuildingBlock: BEQFEK_clean_sbu_0, # of connection points: 5
#     Node 24, Type 0, BuildingBlock: BEQFEK_clean_sbu_0, # of connection points: 5
#     Node 25, Type 0, BuildingBlock: BEQFEK_clean_sbu_0, # of connection points: 5
#     Node 26, Type 0, BuildingBlock: BEQFEK_clean_sbu_0, # of connection points: 5
#     Node 27, Type 0, BuildingBlock: BEQFEK_clean_sbu_0, # of connection points: 5
#     Node 28, Type 0, BuildingBlock: BEQFEK_clean_sbu_0, # of connection points: 5
#     Node 29, Type 0, BuildingBlock: BEQFEK_clean_sbu_0, # of connection points: 5
#     Node 30, Type 0, BuildingBlock: BEQFEK_clean_sbu_0, # of connection points: 5
#     Node 31, Type 0, BuildingBlock: BEQFEK_clean_sbu_0, # of connection points: 5
#     Node 32, Type 0, BuildingBlock: BEQFEK_clean_sbu_0, # of connection points: 5
#     Node 33, Type 0, BuildingBlock: BEQFEK_clean_sbu_0, # of connection points: 5
#     Node 34, Type 0, BuildingBlock: BEQFEK_clean_sbu_0, # of connection points: 5
#     Node 35, Type 0, BuildingBlock: BEQFEK_clean_sbu_0, # of connection points: 5
#     Edge 36, Type (0, 0), BuildingBlock: UVAHIK_clean_linker_0, # of connection points: 2
#     Edge 37, Type (0, 0), BuildingBlock: UVAHIK_clean_linker_0, # of connection points: 2
#     Edge 38, Type (0, 0), BuildingBlock: UVAHIK_clean_linker_0, # of connection points: 2
#     Edge 39, Type (0, 0), BuildingBlock: UVAHIK_clean_linker_0, # of connection points: 2
#     Edge 40, Type (0, 0), BuildingBlock: UVAHIK_clean_linker_0, # of connection points: 2
#     Edge 41, Type (0, 0), BuildingBlock: UVAHIK_clean_linker_0, # of connection points: 2
#     Edge 42, Type (0, 0), BuildingBlock: UVAHIK_clean_linker_0, # of connection points: 2
#     Edge 43, Type (0, 0), BuildingBlock: UVAHIK_clean_linker_0, # of connection points: 2
#     Edge 44, Type (0, 0), BuildingBlock: UVAHIK_clean_linker_0, # of connection points: 2
#     Edge 45, Type (0, 0), BuildingBlock: UVAHIK_clean_linker_0, # of connection points: 2
#     Edge 46, Type (0, 0), BuildingBlock: UVAHIK_clean_linker_0, # of connection points: 2
#     Edge 47, Type (0, 0), BuildingBlock: UVAHIK_clean_linker_0, # of connection points: 2
#     Edge 48, Type (0, 0), BuildingBlock: UVAHIK_clean_linker_0, # of connection points: 2
#     Edge 49, Type (0, 0), BuildingBlock: UVAHIK_clean_linker_0, # of connection points: 2
#     Edge 50, Type (0, 0), BuildingBlock: UVAHIK_clean_linker_0, # of connection points: 2
#     Edge 51, Type (0, 0), BuildingBlock: UVAHIK_clean_linker_0, # of connection points: 2
#     Edge 52, Type (0, 0), BuildingBlock: UVAHIK_clean_linker_0, # of connection points: 2
#     Edge 53, Type (0, 0), BuildingBlock: UVAHIK_clean_linker_0, # of connection points: 2
#     Edge 54, Type (0, 0), BuildingBlock: UVAHIK_clean_linker_0, # of connection points: 2
#     Edge 55, Type (0, 0), BuildingBlock: UVAHIK_clean_linker_0, # of connection points: 2
#     Edge 56, Type (0, 0), BuildingBlock: UVAHIK_clean_linker_0, # of connection points: 2
#     Edge 57, Type (0, 0), BuildingBlock: UVAHIK_clean_linker_0, # of connection points: 2
#     Edge 58, Type (0, 0), BuildingBlock: UVAHIK_clean_linker_0, # of connection points: 2
#     Edge 59, Type (0, 0), BuildingBlock: UVAHIK_clean_linker_0, # of connection points: 2
#     Edge 60, Type (0, 0), BuildingBlock: UVAHIK_clean_linker_0, # of connection points: 2
#     Edge 61, Type (0, 0), BuildingBlock: UVAHIK_clean_linker_0, # of connection points: 2
#     Edge 62, Type (0, 0), BuildingBlock: UVAHIK_clean_linker_0, # of connection points: 2
#     Edge 63, Type (0, 0), BuildingBlock: UVAHIK_clean_linker_0, # of connection points: 2
#     Edge 64, Type (0, 0), BuildingBlock: UVAHIK_clean_linker_0, # of connection points: 2
#     Edge 65, Type (0, 0), BuildingBlock: UVAHIK_clean_linker_0, # of connection points: 2
#     Edge 66, Type (0, 0), BuildingBlock: UVAHIK_clean_linker_0, # of connection points: 2
#     Edge 67, Type (0, 0), BuildingBlock: UVAHIK_clean_linker_0, # of connection points: 2
#     Edge 68, Type (0, 0), BuildingBlock: UVAHIK_clean_linker_0, # of connection points: 2
#     Edge 69, Type (0, 0), BuildingBlock: UVAHIK_clean_linker_0, # of connection points: 2
#     Edge 70, Type (0, 0), BuildingBlock: UVAHIK_clean_linker_0, # of connection points: 2
#     Edge 71, Type (0, 0), BuildingBlock: UVAHIK_clean_linker_0, # of connection points: 2
#     Edge 72, Type (0, 0), BuildingBlock: UVAHIK_clean_linker_0, # of connection points: 2
#     Edge 73, Type (0, 0), BuildingBlock: UVAHIK_clean_linker_0, # of connection points: 2
#     Edge 74, Type (0, 0), BuildingBlock: UVAHIK_clean_linker_0, # of connection points: 2
#     Edge 75, Type (0, 0), BuildingBlock: UVAHIK_clean_linker_0, # of connection points: 2
#     Edge 76, Type (0, 0), BuildingBlock: UVAHIK_clean_linker_0, # of connection points: 2
#     Edge 77, Type (0, 0), BuildingBlock: UVAHIK_clean_linker_0, # of connection points: 2
#     Edge 78, Type (0, 0), BuildingBlock: UVAHIK_clean_linker_0, # of connection points: 2
#     Edge 79, Type (0, 0), BuildingBlock: UVAHIK_clean_linker_0, # of connection points: 2
#     Edge 80, Type (0, 0), BuildingBlock: UVAHIK_clean_linker_0, # of connection points: 2
#     Edge 81, Type (0, 0), BuildingBlock: UVAHIK_clean_linker_0, # of connection points: 2
#     Edge 82, Type (0, 0), BuildingBlock: UVAHIK_clean_linker_0, # of connection points: 2
#     Edge 83, Type (0, 0), BuildingBlock: UVAHIK_clean_linker_0, # of connection points: 2
#     Edge 84, Type (0, 0), BuildingBlock: UVAHIK_clean_linker_0, # of connection points: 2
#     Edge 85, Type (0, 0), BuildingBlock: UVAHIK_clean_linker_0, # of connection points: 2
#     Edge 86, Type (0, 0), BuildingBlock: UVAHIK_clean_linker_0, # of connection points: 2
#     Edge 87, Type (0, 0), BuildingBlock: UVAHIK_clean_linker_0, # of connection points: 2
#     Edge 88, Type (0, 0), BuildingBlock: UVAHIK_clean_linker_0, # of connection points: 2
#     Edge 89, Type (0, 0), BuildingBlock: UVAHIK_clean_linker_0, # of connection points: 2
#     Edge 90, Type (0, 0), BuildingBlock: UVAHIK_clean_linker_0, # of connection points: 2
#     Edge 91, Type (0, 0), BuildingBlock: UVAHIK_clean_linker_0, # of connection points: 2
#     Edge 92, Type (0, 0), BuildingBlock: UVAHIK_clean_linker_0, # of connection points: 2
#     Edge 93, Type (0, 0), BuildingBlock: UVAHIK_clean_linker_0, # of connection points: 2
#     Edge 94, Type (0, 0), BuildingBlock: UVAHIK_clean_linker_0, # of connection points: 2
#     Edge 95, Type (0, 0), BuildingBlock: UVAHIK_clean_linker_0, # of connection points: 2
#     Edge 96, Type (0, 0), BuildingBlock: UVAHIK_clean_linker_0, # of connection points: 2
#     Edge 97, Type (0, 0), BuildingBlock: UVAHIK_clean_linker_0, # of connection points: 2
#     Edge 98, Type (0, 0), BuildingBlock: UVAHIK_clean_linker_0, # of connection points: 2
#     Edge 99, Type (0, 0), BuildingBlock: UVAHIK_clean_linker_0, # of connection points: 2
#     Edge 100, Type (0, 0), BuildingBlock: UVAHIK_clean_linker_0, # of connection points: 2
#     Edge 101, Type (0, 0), BuildingBlock: UVAHIK_clean_linker_0, # of connection points: 2
#     Edge 102, Type (0, 0), BuildingBlock: UVAHIK_clean_linker_0, # of connection points: 2
#     Edge 103, Type (0, 0), BuildingBlock: UVAHIK_clean_linker_0, # of connection points: 2
#     Edge 104, Type (0, 0), BuildingBlock: UVAHIK_clean_linker_0, # of connection points: 2
#     Edge 105, Type (0, 0), BuildingBlock: UVAHIK_clean_linker_0, # of connection points: 2
#     Edge 106, Type (0, 0), BuildingBlock: UVAHIK_clean_linker_0, # of connection points: 2
#     Edge 107, Type (0, 0), BuildingBlock: UVAHIK_clean_linker_0, # of connection points: 2
#     Edge 108, Type (0, 0), BuildingBlock: UVAHIK_clean_linker_0, # of connection points: 2
#     Edge 109, Type (0, 0), BuildingBlock: UVAHIK_clean_linker_0, # of connection points: 2
#     Edge 110, Type (0, 0), BuildingBlock: UVAHIK_clean_linker_0, # of connection points: 2
#     Edge 111, Type (0, 0), BuildingBlock: UVAHIK_clean_linker_0, # of connection points: 2
#     Edge 112, Type (0, 0), BuildingBlock: UVAHIK_clean_linker_0, # of connection points: 2
#     Edge 113, Type (0, 0), BuildingBlock: UVAHIK_clean_linker_0, # of connection points: 2
#     Edge 114, Type (0, 0), BuildingBlock: UVAHIK_clean_linker_0, # of connection points: 2
#     Edge 115, Type (0, 0), BuildingBlock: UVAHIK_clean_linker_0, # of connection points: 2
#     Edge 116, Type (0, 0), BuildingBlock: UVAHIK_clean_linker_0, # of connection points: 2
#     Edge 117, Type (0, 0), BuildingBlock: UVAHIK_clean_linker_0, # of connection points: 2
#     Edge 118, Type (0, 0), BuildingBlock: UVAHIK_clean_linker_0, # of connection points: 2
#     Edge 119, Type (0, 0), BuildingBlock: UVAHIK_clean_linker_0, # of connection points: 2
#     Edge 120, Type (0, 0), BuildingBlock: UVAHIK_clean_linker_0, # of connection points: 2
#     Edge 121, Type (0, 0), BuildingBlock: UVAHIK_clean_linker_0, # of connection points: 2
#     Edge 122, Type (0, 0), BuildingBlock: UVAHIK_clean_linker_0, # of connection points: 2
#     Edge 123, Type (0, 0), BuildingBlock: UVAHIK_clean_linker_0, # of connection points: 2
#     Edge 124, Type (0, 0), BuildingBlock: UVAHIK_clean_linker_0, # of connection points: 2
#     Edge 125, Type (0, 0), BuildingBlock: UVAHIK_clean_linker_0, # of connection points: 2
# Relax obj value: 0.112
# Max RMSD: 0.153
# Mean RMSD: 0.153
data_MOF--net-wlt--node1-BEQFEK_clean_sbu_0--edge1-UVAHIK_clean_linker_0
_symmetry_space_group_name_H-M    P1
_symmetry_Int_Tables_number       1
_symmetry_cell_setting            triclinic
loop_
_symmetry_equiv_pos_as_xyz
'x, y, z'
_cell_length_a     86.519649
_cell_length_b     86.570195
_cell_length_c     63.091378
_cell_angle_alpha  89.988939
_cell_angle_beta   90.021926
_cell_angle_gamma 119.98375
loop_
_atom_site_label
_atom_site_type_symbol
_atom_site_fract_x
_atom_site_fract_y
_atom_site_fract_z
_atom_type_partial_charge
Co0 Co 0.25228 0.20795 0.10904 0.0
Co1 Co 0.21761 0.2054 0.0903 0.0
C2 C 0.25307 0.23982 0.09043 0.0
O3 O 0.26133 0.23263 0.0989 0.0
O4 O 0.23636 0.23085 0.08658 0.0
C5 C 0.28765 0.2109 0.11576 0.0
O6 O 0.29442 0.22263 0.10034 0.0
C7 C 0.19389 0.20753 0.05848 0.0
C8 C 0.16742 0.18811 0.07141 0.0
C9 C 0.17571 0.1996 0.05459 0.0
N10 N 0.19618 0.20094 0.07673 0.0
N11 N 0.18032 0.18947 0.08447 0.0
C12 C 0.20889 0.22012 0.0445 0.0
H13 H 0.22074 0.21856 0.04701 0.0
H14 H 0.20485 0.2178 0.02758 0.0
H15 H 0.21261 0.23401 0.04868 0.0
C16 C 0.24321 0.17921 0.07768 0.0
N17 N 0.24012 0.19134 0.08714 0.0
N18 N 0.22536 0.18999 0.07943 0.0
C19 C 0.21847 0.17681 0.06492 0.0
C20 C 0.22958 0.16957 0.06333 0.0
C21 C 0.25928 0.17742 0.08181 0.0
H22 H 0.27145 0.1906 0.07973 0.0
H23 H 0.26005 0.16781 0.07087 0.0
H24 H 0.25895 0.17305 0.09842 0.0
O25 O 0.23636 0.20296 0.13355 0.0
O26 O 0.21144 0.20033 0.12043 0.0
H27 H 0.19654 0.15778 0.04531 0.0
H28 H 0.20199 0.18075 0.04289 0.0
C29 C 0.2009 0.17038 0.05409 0.0
H30 H 0.19059 0.16807 0.06604 0.0
H31 H 0.17831 0.18231 0.09849 0.0
O32 O 0.27131 0.2042 0.12064 0.0
C33 C 0.22051 0.19993 0.13602 0.0
Co34 Co 0.79194 0.04545 0.11365 0.0
Co35 Co 0.79312 0.01265 0.09488 0.0
C36 C 0.75881 0.01293 0.09812 0.0
O37 O 0.76658 0.02862 0.10595 0.0
O38 O 0.7675 0.00513 0.09321 0.0
C39 C 0.79031 0.07867 0.11554 0.0
O40 O 0.78204 0.07456 0.09717 0.0
C41 C 0.78883 0.98379 0.06642 0.0
C42 C 0.81213 0.9813 0.0758 0.0
C43 C 0.7977 0.97448 0.06211 0.0
N44 N 0.79769 0.99555 0.08195 0.0
N45 N 0.81151 0.99391 0.08758 0.0
C46 C 0.77319 0.9827 0.05493 0.0
H47 H 0.77387 0.99584 0.0552 0.0
H48 H 0.77275 0.97838 0.03827 0.0
H49 H 0.76073 0.97286 0.06304 0.0
C50 C 0.82005 0.06424 0.0811 0.0
N51 N 0.80744 0.04929 0.09063 0.0
N52 N 0.80741 0.03538 0.08216 0.0
C53 C 0.81961 0.041 0.06649 0.0
C54 C 0.82809 0.05947 0.0654 0.0
C55 C 0.82581 0.08274 0.08864 0.0
H56 H 0.82526 0.08299 0.10617 0.0
H57 H 0.81667 0.08704 0.08204 0.0
H58 H 0.8396 0.09236 0.08348 0.0
O59 O 0.79941 0.03652 0.13786 0.0
O60 O 0.79993 0.01303 0.12482 0.0
H61 H 0.83053 0.02392 0.06172 0.0
H62 H 0.83057 0.03589 0.03825 0.0
C63 C 0.82292 0.02891 0.05266 0.0
H64 H 0.81003 0.01735 0.04774 0.0
H65 H 0.82067 0.00159 0.09929 0.0
O66 O 0.79476 0.06816 0.12401 0.0
C67 C 0.80216 0.02351 0.14007 0.0
Co68 Co 0.95188 0.74746 0.11493 0.0
Co69 Co 0.98531 0.78194 0.09865 0.0
C70 C 0.98437 0.74663 0.10162 0.0
O71 O 0.96837 0.73841 0.10851 0.0
O72 O 0.99231 0.76327 0.09746 0.0
C73 C 0.9197 0.71184 0.12123 0.0
O74 O 0.92662 0.70428 0.10948 0.0
C75 C 0.01272 0.80507 0.06825 0.0
C76 C 0.02011 0.83178 0.08065 0.0
C77 C 0.02353 0.82316 0.0644 0.0
N78 N 0.00331 0.80314 0.08594 0.0
N79 N 0.0079 0.81913 0.09339 0.0
C80 C 0.0102 0.78985 0.05462 0.0
H81 H 0.99665 0.77819 0.05699 0.0
H82 H 0.0122 0.79376 0.03765 0.0
H83 H 0.02014 0.78592 0.05921 0.0
C84 C 0.93485 0.75603 0.07986 0.0
N85 N 0.94929 0.75923 0.09126 0.0
N86 N 0.96316 0.77414 0.08469 0.0
C87 C 0.9579 0.78108 0.06902 0.0
C88 C 0.93978 0.76981 0.06545 0.0
C89 C 0.91681 0.73987 0.08256 0.0
H90 H 0.91817 0.72782 0.08304 0.0
H91 H 0.90766 0.73843 0.06942 0.0
H92 H 0.91097 0.74082 0.09783 0.0
O93 O 0.9601 0.76372 0.13947 0.0
O94 O 0.98398 0.78828 0.12825 0.0
H95 H 0.96181 0.80359 0.04986 0.0
H96 H 0.97932 0.79805 0.04841 0.0
C97 C 0.96961 0.79893 0.05909 0.0
H98 H 0.97713 0.80887 0.07159 0.0
H99 H 0.00238 0.8214 0.10692 0.0
O100 O 0.92831 0.72855 0.12427 0.0
C101 C 0.97279 0.77949 0.1427 0.0
Co102 Co 0.20234 0.24794 0.38035 0.0
Co103 Co 0.20074 0.21266 0.39485 0.0
C104 C 0.23495 0.24839 0.39599 0.0
O105 O 0.22731 0.25682 0.3893 0.0
O106 O 0.2263 0.23149 0.39852 0.0
C107 C 0.20652 0.28392 0.37429 0.0
O108 O 0.22198 0.29146 0.3841 0.0
C109 C 0.20249 0.18567 0.42221 0.0
C110 C 0.18468 0.16118 0.40422 0.0
C111 C 0.19523 0.16726 0.42219 0.0
N112 N 0.19634 0.19015 0.40507 0.0
N113 N 0.18571 0.17544 0.39444 0.0
C114 C 0.21564 0.19888 0.43757 0.0
H115 H 0.22312 0.21228 0.4303 0.0
H116 H 0.20839 0.19982 0.45156 0.0
H117 H 0.22509 0.19457 0.44304 0.0
C118 C 0.17424 0.23669 0.41283 0.0
N119 N 0.18629 0.23431 0.40204 0.0
N120 N 0.18538 0.21936 0.40823 0.0
C121 C 0.17257 0.21166 0.42314 0.0
C122 C 0.1651 0.22241 0.42649 0.0
C123 C 0.17199 0.25267 0.41047 0.0
H124 H 0.16611 0.25227 0.39471 0.0
H125 H 0.18524 0.26496 0.4113 0.0
H126 H 0.16329 0.25321 0.42301 0.0
O127 O 0.19715 0.2339 0.3541 0.0
O128 O 0.19513 0.20858 0.36448 0.0
H129 H 0.16443 0.184 0.42021 0.0
H130 H 0.15441 0.18898 0.44231 0.0
C131 C 0.16679 0.19383 0.43286 0.0
H132 H 0.17758 0.19482 0.44327 0.0
H133 H 0.17915 0.17512 0.38043 0.0
O134 O 0.19771 0.26711 0.37211 0.0
C135 C 0.19427 0.21832 0.35004 0.0
Co136 Co 0.74622 0.95012 0.37395 0.0
Co137 Co 0.77944 0.98079 0.39696 0.0
C138 C 0.74494 0.98074 0.39492 0.0
O139 O 0.73748 0.96603 0.38471 0.0
O140 O 0.76123 0.98808 0.40072 0.0
C141 C 0.71107 0.91819 0.36801 0.0
O142 O 0.70604 0.92193 0.38602 0.0
C143 C 0.80587 0.00898 0.42552 0.0
C144 C 0.83007 0.00805 0.4163 0.0
C145 C 0.82408 0.01677 0.42938 0.0
N146 N 0.80137 0.9961 0.41093 0.0
N147 N 0.81589 0.99565 0.40553 0.0
C148 C 0.79323 0.01452 0.43405 0.0
H149 H 0.7851 0.01524 0.42093 0.0
H150 H 0.78403 0.00431 0.44547 0.0
H151 H 0.80035 0.02769 0.44199 0.0
C152 C 0.7541 0.92819 0.40348 0.0
N153 N 0.75709 0.94399 0.39584 0.0
N154 N 0.77055 0.95695 0.40615 0.0
C155 C 0.77622 0.94983 0.4211 0.0
C156 C 0.7661 0.93139 0.41977 0.0
C157 C 0.74116 0.91049 0.39406 0.0
H158 H 0.7413 0.91151 0.37654 0.0
H159 H 0.72753 0.90643 0.3998 0.0
H160 H 0.74442 0.90005 0.39856 0.0
O161 O 0.7632 0.96154 0.35062 0.0
O162 O 0.7865 0.98341 0.36692 0.0
H163 H 0.80379 0.96498 0.42947 0.0
H164 H 0.78939 0.95234 0.45108 0.0
C165 C 0.79059 0.96045 0.43689 0.0
H166 H 0.78981 0.97231 0.44191 0.0
H167 H 0.81614 0.98696 0.39424 0.0
O168 O 0.7267 0.92846 0.36107 0.0
C169 C 0.77894 0.9748 0.35019 0.0
Co170 Co 0.04108 0.79624 0.37212 0.0
Co171 Co 0.01051 0.79673 0.39782 0.0
C172 C 0.0111 0.76276 0.39059 0.0
O173 O 0.0255 0.77072 0.37983 0.0
O174 O 0.00392 0.77122 0.39854 0.0
C175 C 0.07101 0.79153 0.35874 0.0
O176 O 0.0645 0.77713 0.37056 0.0
C177 C 0.98509 0.79199 0.43179 0.0
C178 C 0.98072 0.81458 0.42494 0.0
C179 C 0.97592 0.80041 0.43865 0.0
N180 N 0.99488 0.80086 0.41481 0.0
N181 N 0.99213 0.81427 0.41075 0.0
C182 C 0.98547 0.77652 0.44179 0.0
H183 H -0.00139 0.77751 0.43907 0.0
H184 H 0.98279 0.77596 0.45906 0.0
H185 H 0.97501 0.764 0.43438 0.0
C186 C 0.06296 0.82184 0.40558 0.0
N187 N 0.04715 0.81089 0.39635 0.0
N188 N 0.03435 0.81123 0.4072 0.0
C189 C 0.0416 0.82235 0.42382 0.0
C190 C 0.05996 0.82943 0.4233 0.0
C191 C 0.08043 0.82422 0.3981 0.0
H192 H 0.07957 0.81101 0.39739 0.0
H193 H 0.0916 0.83304 0.40874 0.0
H194 H 0.08319 0.8299 0.38186 0.0
O195 O 0.02931 0.80357 0.35106 0.0
O196 O 0.00719 0.80332 0.36892 0.0
H197 H 0.03989 0.83672 0.45114 0.0
H198 H 0.02144 0.81428 0.44763 0.0
C199 C 0.03118 0.82664 0.43932 0.0
H200 H 0.02368 0.83193 0.43065 0.0
H201 H -0.00182 0.8233 0.39835 0.0
O202 O 0.06303 0.80045 0.35785 0.0
C203 C 0.01591 0.80583 0.35186 0.0
Co204 Co 0.7507 0.79688 0.87441 0.0
Co205 Co 0.78414 0.79774 0.89478 0.0
C206 C 0.74923 0.76359 0.89032 0.0
O207 O 0.74156 0.77149 0.88213 0.0
O208 O 0.76563 0.77212 0.8957 0.0
C209 C 0.71548 0.79407 0.86953 0.0
O210 O 0.70959 0.78295 0.88561 0.0
C211 C 0.80939 0.79375 0.92341 0.0
C212 C 0.83482 0.8165 0.91214 0.0
C213 C 0.82776 0.80245 0.92635 0.0
N214 N 0.8058 0.8024 0.90818 0.0
N215 N 0.82107 0.81599 0.90163 0.0
C216 C 0.79563 0.77706 0.9341 0.0
H217 H 0.78418 0.76924 0.92345 0.0
H218 H 0.79067 0.78071 0.94837 0.0
H219 H 0.80138 0.76868 0.93908 0.0
C220 C 0.75856 0.82388 0.90785 0.0
N221 N 0.76175 0.81199 0.89791 0.0
N222 N 0.77544 0.81196 0.90694 0.0
C223 C 0.78119 0.82357 0.92323 0.0
C224 C 0.7707 0.83154 0.92432 0.0
C225 C 0.74528 0.82899 0.90042 0.0
H226 H 0.74568 0.83005 0.8829 0.0
H227 H 0.73171 0.81851 0.90525 0.0
H228 H 0.748 0.84193 0.90718 0.0
O229 O 0.76758 0.80401 0.85068 0.0
O230 O 0.79127 0.8048 0.86509 0.0
H231 H 0.809 0.8344 0.92938 0.0
H232 H 0.79621 0.8338 0.95234 0.0
C233 C 0.7961 0.82656 0.93779 0.0
H234 H 0.79467 0.81355 0.94237 0.0
H235 H 0.82212 0.82484 0.88973 0.0
O236 O 0.73147 0.80043 0.86331 0.0
C237 C 0.78343 0.80686 0.84924 0.0
Co238 Co 0.20249 0.95234 0.87563 0.0
Co239 Co 0.20066 0.98295 0.89952 0.0
C240 C 0.23464 0.98217 0.89729 0.0
O241 O 0.22722 0.96766 0.88669 0.0
O242 O 0.22591 0.98965 0.90335 0.0
C243 C 0.20503 0.92028 0.87045 0.0
O244 O 0.21347 0.92426 0.8887 0.0
C245 C 0.20402 0.01114 0.92868 0.0
C246 C 0.17956 0.01191 0.9203 0.0
C247 C 0.19462 0.0199 0.93297 0.0
N248 N 0.1948 -0.00154 0.91417 0.0
N249 N 0.18019 -0.00106 0.90932 0.0
C250 C 0.22222 0.01579 0.93628 0.0
H251 H 0.23143 0.02009 0.92253 0.0
H252 H 0.22175 0.00374 0.9431 0.0
H253 H 0.22757 0.02668 0.94814 0.0
C254 C 0.17221 0.93037 0.90467 0.0
N255 N 0.18537 0.94615 0.89741 0.0
N256 N 0.18527 0.95911 0.90817 0.0
C257 C 0.17246 0.95201 0.92309 0.0
C258 C 0.16364 0.93358 0.92123 0.0
C259 C 0.1669 0.91272 0.89467 0.0
H260 H 0.16825 0.91415 0.87721 0.0
H261 H 0.1758 0.90787 0.90058 0.0
H262 H 0.15291 0.90266 0.89859 0.0
O263 O 0.19739 0.96441 0.85258 0.0
O264 O 0.1965 0.98629 0.86962 0.0
H265 H 0.16083 0.96766 0.93251 0.0
H266 H 0.1624 0.95442 0.95355 0.0
C267 C 0.16928 0.96265 0.93944 0.0
H268 H 0.18215 0.97421 0.94449 0.0
H269 H 0.17083 0.99064 0.89813 0.0
O270 O 0.20005 0.9306 0.86268 0.0
C271 C 0.19533 0.97794 0.85262 0.0
Co272 Co 0.04187 0.24855 0.87298 0.0
Co273 Co 0.01116 0.21586 0.89644 0.0
C274 C 0.01316 0.25122 0.89692 0.0
O275 O 0.02744 0.25827 0.8859 0.0
O276 O 0.00537 0.23482 0.9022 0.0
C277 C 0.07458 0.2825 0.86917 0.0
O278 O 0.07121 0.28576 0.88845 0.0
C279 C 0.98462 0.19168 0.9275 0.0
C280 C 0.98201 0.16592 0.91784 0.0
C281 C 0.9758 0.17361 0.93224 0.0
N282 N 0.9955 0.19448 0.91097 0.0
N283 N 0.99384 0.17904 0.90525 0.0
C284 C 0.98375 0.20625 0.93922 0.0
H285 H 0.99704 0.21853 0.93918 0.0
H286 H 0.9793 0.20226 0.95582 0.0
H287 H 0.97417 0.20923 0.93109 0.0
C288 C 0.06383 0.2384 0.89961 0.0
N289 N 0.04806 0.23644 0.89325 0.0
N290 N 0.03513 0.22329 0.90393 0.0
C291 C 0.04227 0.21689 0.91798 0.0
C292 C 0.06069 0.22615 0.91558 0.0
C293 C 0.08138 0.2506 0.8893 0.0
H294 H 0.07955 0.2514 0.87203 0.0
H295 H 0.08703 0.26411 0.89627 0.0
H296 H 0.09103 0.24587 0.89181 0.0
O297 O 0.02872 0.23236 0.8495 0.0
O298 O 0.00666 0.20936 0.86614 0.0
H299 H 0.02583 0.18954 0.92667 0.0
H300 H 0.04026 0.20343 0.94763 0.0
C301 C 0.03174 0.20288 0.93418 0.0
H302 H 0.02082 0.20476 0.94038 0.0
H303 H 0.00087 0.17749 0.89278 0.0
O304 O 0.06362 0.26799 0.86015 0.0
C305 C 0.01476 0.21706 0.84918 0.0
Co306 Co 0.79007 0.7445 0.61761 0.0
Co307 Co 0.79152 0.77683 0.5939 0.0
C308 C 0.75714 0.74283 0.59926 0.0
O309 O 0.7648 0.7358 0.60948 0.0
O310 O 0.76592 0.7587 0.59212 0.0
C311 C 0.7873 0.70969 0.62349 0.0
O312 O 0.77924 0.70503 0.60501 0.0
C313 C 0.78793 0.79956 0.5617 0.0
C314 C 0.81133 0.82573 0.56953 0.0
C315 C 0.79705 0.81738 0.55572 0.0
N316 N 0.79651 0.79755 0.57829 0.0
N317 N 0.81041 0.81325 0.58295 0.0
C318 C 0.77224 0.78445 0.55098 0.0
H319 H 0.7727 0.77194 0.55287 0.0
H320 H 0.77195 0.78729 0.53387 0.0
H321 H 0.75981 0.78255 0.55848 0.0
C322 C 0.81842 0.75118 0.58634 0.0
N323 N 0.80564 0.75413 0.59419 0.0
N324 N 0.80586 0.76743 0.58381 0.0
C325 C 0.81843 0.773 0.56859 0.0
C326 C 0.82689 0.763 0.56981 0.0
C327 C 0.82397 0.73898 0.59624 0.0
H328 H 0.82324 0.73949 0.61374 0.0
H329 H 0.8148 0.72513 0.5909 0.0
H330 H 0.83778 0.74266 0.59169 0.0
O331 O 0.79801 0.76273 0.63968 0.0
O332 O 0.79801 0.78545 0.62346 0.0
H333 H 0.82981 0.80069 0.56134 0.0
H334 H 0.83034 0.78743 0.53958 0.0
C335 C 0.82232 0.78765 0.55318 0.0
H336 H 0.80964 0.78616 0.54707 0.0
H337 H 0.81938 0.81538 0.59519 0.0
O338 O 0.79226 0.72512 0.63081 0.0
C339 C 0.80057 0.7785 0.63985 0.0
Co340 Co 0.24697 0.04477 0.61176 0.0
Co341 Co 0.21334 0.00893 0.59852 0.0
C342 C 0.25018 0.01318 0.60083 0.0
O343 O 0.25762 0.02953 0.60628 0.0
O344 O 0.23341 0.00399 0.59759 0.0
C345 C 0.28212 0.07698 0.61724 0.0
O346 O 0.28967 0.0678 0.61116 0.0
C347 C 0.18986 0.97901 0.57057 0.0
C348 C 0.1646 0.96717 0.58866 0.0
C349 C 0.17231 0.96509 0.57045 0.0
N350 N 0.19232 0.98886 0.58806 0.0
N351 N 0.17716 0.98174 0.59873 0.0
C352 C 0.20434 0.98234 0.55516 0.0
H353 H 0.21766 0.99121 0.56214 0.0
H354 H 0.20295 0.989 0.54086 0.0
H355 H 0.20327 0.96954 0.55018 0.0
C356 C 0.23459 0.05817 0.57667 0.0
N357 N 0.2333 0.04465 0.58845 0.0
N358 N 0.21876 0.02981 0.5831 0.0
C359 C 0.21013 0.03351 0.56788 0.0
C360 C 0.2199 0.05161 0.56337 0.0
C361 C 0.24962 0.07701 0.57827 0.0
H362 H 0.24829 0.08299 0.59321 0.0
H363 H 0.2625 0.07714 0.57871 0.0
H364 H 0.24975 0.08519 0.56466 0.0
O365 O 0.23205 0.03698 0.63753 0.0
O366 O 0.20819 0.01159 0.62815 0.0
H367 H 0.1833 0.01227 0.57271 0.0
H368 H 0.18575 0.02714 0.55122 0.0
C369 C 0.19205 0.02038 0.55951 0.0
H370 H 0.19335 0.01129 0.54821 0.0
H371 H 0.17543 0.98671 0.61307 0.0
O372 O 0.26524 0.06951 0.61808 0.0
C373 C 0.21689 0.02362 0.64182 0.0
Co374 Co 0.94835 0.20531 0.60215 0.0
Co375 Co 0.9832 0.20423 0.59177 0.0
C376 C 0.98144 0.23811 0.58883 0.0
O377 O 0.96507 0.23033 0.59426 0.0
O378 O 0.98991 0.22961 0.58739 0.0
C379 C 0.92014 0.2061 0.62381 0.0
O380 O 0.93266 0.21453 0.63809 0.0
C381 C 0.01251 0.20608 0.56587 0.0
C382 C 0.02161 0.19147 0.58639 0.0
C383 C 0.02492 0.20036 0.5672 0.0
N384 N 0.00233 0.20066 0.58341 0.0
N385 N 0.00784 0.19195 0.59557 0.0
C386 C 0.01081 0.21722 0.54888 0.0
H387 H 0.00362 0.22392 0.55485 0.0
H388 H 0.00303 0.20851 0.53547 0.0
H389 H 0.02418 0.22732 0.54295 0.0
C390 C 0.93374 0.17688 0.57007 0.0
N391 N 0.9476 0.18955 0.58105 0.0
N392 N 0.96195 0.18847 0.57703 0.0
C393 C 0.95756 0.17476 0.56361 0.0
C394 C 0.93952 0.16697 0.55878 0.0
C395 C 0.91532 0.17439 0.57053 0.0
H396 H 0.91611 0.18754 0.56928 0.0
H397 H 0.90699 0.16577 0.55735 0.0
H398 H 0.9089 0.16826 0.58586 0.0
O399 O 0.9551 0.1993 0.62965 0.0
O400 O 0.9799 0.19888 0.62221 0.0
H401 H 0.97738 0.16781 0.57165 0.0
H402 H 0.96253 0.15443 0.55069 0.0
C403 C 0.96988 0.16804 0.55753 0.0
H404 H 0.9796 0.17719 0.54567 0.0
H405 H 0.00223 0.18635 0.61023 0.0
O406 O 0.92418 0.20167 0.60639 0.0
C407 C 0.96801 0.19717 0.63532 0.0
Co408 Co 0.91892 0.54129 0.4461 0.0
Co409 Co 0.88505 0.53928 0.42576 0.0
C410 C 0.92025 0.57337 0.42626 0.0
O411 O 0.92784 0.56607 0.4361 0.0
O412 O 0.9038 0.56453 0.4211 0.0
C413 C 0.95453 0.54537 0.45167 0.0
O414 O 0.96026 0.55683 0.43592 0.0
C415 C 0.86055 0.54125 0.39485 0.0
C416 C 0.83449 0.52084 0.4078 0.0
C417 C 0.84228 0.53298 0.39144 0.0
N418 N 0.86337 0.53426 0.41243 0.0
N419 N 0.84775 0.52216 0.42015 0.0
C420 C 0.87516 0.55468 0.38108 0.0
H421 H 0.88727 0.55343 0.38263 0.0
H422 H 0.87087 0.55295 0.36425 0.0
H423 H 0.87857 0.56826 0.38627 0.0
C424 C 0.91023 0.51239 0.41499 0.0
N425 N 0.90712 0.52464 0.42409 0.0
N426 N 0.89273 0.5236 0.41563 0.0
C427 C 0.8862 0.51062 0.40085 0.0
C428 C 0.89708 0.5031 0.39997 0.0
C429 C 0.92597 0.51023 0.42001 0.0
H430 H 0.92559 0.50674 0.43699 0.0
H431 H 0.93837 0.52308 0.41716 0.0
H432 H 0.92636 0.49988 0.41008 0.0
O433 O 0.90278 0.53596 0.4704 0.0
O434 O 0.87904 0.53519 0.4561 0.0
H435 H 0.85825 0.50152 0.40016 0.0
H436 H 0.86556 0.49297 0.37883 0.0
C437 C 0.86925 0.50484 0.38883 0.0
H438 H 0.87077 0.51597 0.37866 0.0
H439 H 0.84616 0.51466 0.43377 0.0
O440 O 0.93836 0.53819 0.45749 0.0
C441 C 0.88725 0.53394 0.47211 0.0
Co442 Co 0.45796 0.37727 0.44638 0.0
Co443 Co 0.4595 0.34409 0.43015 0.0
C444 C 0.42508 0.34488 0.43137 0.0
O445 O 0.43266 0.36076 0.43862 0.0
O446 O 0.43391 0.337 0.42757 0.0
C447 C 0.45476 0.40974 0.45071 0.0
O448 O 0.44192 0.40363 0.43653 0.0
C449 C 0.45594 0.31625 0.40084 0.0
C450 C 0.47612 0.31018 0.41365 0.0
C451 C 0.46371 0.30579 0.39758 0.0
N452 N 0.46348 0.32638 0.41804 0.0
N453 N 0.47541 0.3226 0.42574 0.0
C454 C 0.44263 0.31769 0.38709 0.0
H455 H 0.44433 0.33125 0.38837 0.0
H456 H 0.44405 0.31476 0.37031 0.0
H457 H 0.42898 0.30791 0.39256 0.0
C458 C 0.48524 0.39492 0.41294 0.0
N459 N 0.47337 0.38031 0.42363 0.0
N460 N 0.47433 0.36643 0.41689 0.0
C461 C 0.48692 0.37179 0.40168 0.0
C462 C 0.49424 0.39003 0.39871 0.0
C463 C 0.48759 0.41311 0.41609 0.0
H464 H 0.47447 0.41234 0.41445 0.0
H465 H 0.49693 0.42285 0.40438 0.0
H466 H 0.49264 0.41782 0.43235 0.0
O467 O 0.46497 0.36866 0.4715 0.0
O468 O 0.46589 0.34493 0.46019 0.0
H469 H 0.50474 0.36757 0.38137 0.0
H470 H 0.48176 0.34978 0.38172 0.0
C471 C 0.49281 0.35997 0.3915 0.0
H472 H 0.49604 0.35301 0.40396 0.0
H473 H 0.4833 0.32874 0.43903 0.0
O474 O 0.46198 0.40062 0.45574 0.0
C475 C 0.46775 0.35578 0.47482 0.0
Co476 Co 0.61784 0.07646 0.44578 0.0
Co477 Co 0.64952 0.1099 0.42468 0.0
C478 C 0.64919 0.07529 0.42705 0.0
O479 O 0.634 0.06764 0.43621 0.0
O480 O 0.6568 0.09168 0.42176 0.0
C481 C 0.58512 0.0418 0.4492 0.0
O482 O 0.58878 0.03784 0.43045 0.0
C483 C 0.67677 0.13392 0.3942 0.0
C484 C 0.67938 0.15978 0.40338 0.0
C485 C 0.68565 0.15195 0.38923 0.0
N486 N 0.66576 0.13128 0.41054 0.0
N487 N 0.66747 0.14678 0.41602 0.0
C488 C 0.67751 0.11919 0.38269 0.0
H489 H 0.66437 0.10676 0.38352 0.0
H490 H 0.68133 0.1228 0.36586 0.0
H491 H 0.68757 0.11668 0.39042 0.0
C492 C 0.59717 0.08509 0.41507 0.0
N493 N 0.61263 0.08775 0.42349 0.0
N494 N 0.62604 0.1014 0.41399 0.0
C495 C 0.61954 0.1075 0.39873 0.0
C496 C 0.60104 0.09741 0.39898 0.0
C497 C 0.57908 0.07237 0.42378 0.0
H498 H 0.57969 0.07179 0.44129 0.0
H499 H 0.57451 0.05888 0.41722 0.0
H500 H 0.56919 0.07644 0.41948 0.0
O501 O 0.62836 0.0932 0.46948 0.0
O502 O 0.65124 0.11684 0.45485 0.0
H503 H 0.63629 0.13527 0.39223 0.0
H504 H 0.62307 0.12245 0.36986 0.0
C505 C 0.63084 0.12234 0.38379 0.0
H506 H 0.64213 0.12083 0.37815 0.0
H507 H 0.6603 0.14844 0.42825 0.0
O508 O 0.59575 0.05674 0.45758 0.0
C509 C 0.64167 0.10886 0.47087 0.0
Co510 Co 0.86946 0.58357 0.71581 0.0
Co511 Co 0.86809 0.54883 0.7325 0.0
C512 C 0.90207 0.5841 0.73283 0.0
O513 O 0.89439 0.59217 0.72516 0.0
O514 O 0.89349 0.56735 0.73635 0.0
C515 C 0.87085 0.61838 0.71533 0.0
O516 O 0.87892 0.62221 0.73382 0.0
C517 C 0.87027 0.52175 0.75957 0.0
C518 C 0.84919 0.49711 0.74449 0.0
C519 C 0.86167 0.50325 0.76065 0.0
N520 N 0.863 0.52627 0.74357 0.0
N521 N 0.85043 0.51146 0.73468 0.0
C522 C 0.88554 0.53486 0.77288 0.0
H523 H 0.894 0.54726 0.76394 0.0
H524 H 0.88023 0.5383 0.787 0.0
H525 H 0.89382 0.52912 0.7783 0.0
C526 C 0.84001 0.57228 0.74685 0.0
N527 N 0.85291 0.57039 0.73736 0.0
N528 N 0.85265 0.55607 0.74489 0.0
C529 C 0.83983 0.54864 0.75982 0.0
C530 C 0.8314 0.55867 0.76153 0.0
C531 C 0.83479 0.58569 0.74038 0.0
H532 H 0.83564 0.5873 0.72292 0.0
H533 H 0.84407 0.59872 0.7478 0.0
H534 H 0.82099 0.5816 0.74541 0.0
O535 O 0.86384 0.5688 0.69032 0.0
O536 O 0.86325 0.54434 0.70181 0.0
H537 H 0.82954 0.52056 0.76224 0.0
H538 H 0.82736 0.53067 0.7863 0.0
C539 C 0.83609 0.53254 0.77252 0.0
H540 H 0.84881 0.53397 0.77838 0.0
H541 H 0.84271 0.51116 0.72181 0.0
O542 O 0.86657 0.60363 0.70644 0.0
C543 C 0.86172 0.5534 0.68698 0.0
Co544 Co 0.4184 0.28586 0.71039 0.0
Co545 Co 0.45014 0.31867 0.73244 0.0
C546 C 0.41412 0.31567 0.72694 0.0
O547 O 0.40744 0.30045 0.71804 0.0
O548 O 0.43035 0.32407 0.73303 0.0
C549 C 0.38392 0.2557 0.69775 0.0
O550 O 0.37636 0.26433 0.70569 0.0
C551 C 0.46981 0.34523 0.76536 0.0
C552 C 0.4977 0.35342 0.75707 0.0
C553 C 0.48738 0.35638 0.77147 0.0
N554 N 0.4698 0.33611 0.74815 0.0
N555 N 0.4865 0.34113 0.74319 0.0
C556 C 0.45324 0.34235 0.77631 0.0
H557 H 0.44232 0.3284 0.77395 0.0
H558 H 0.45567 0.34526 0.79351 0.0
H559 H 0.44899 0.35139 0.76929 0.0
C560 C 0.42552 0.26687 0.74438 0.0
N561 N 0.42899 0.28197 0.73434 0.0
N562 N 0.4426 0.29563 0.74351 0.0
C563 C 0.4484 0.28964 0.75963 0.0
C564 C 0.43775 0.2712 0.7607 0.0
C565 C 0.41028 0.24881 0.73892 0.0
H566 H 0.39794 0.24959 0.73707 0.0
H567 H 0.40802 0.23881 0.75131 0.0
H568 H 0.41307 0.24442 0.72358 0.0
O569 O 0.43618 0.2975 0.68762 0.0
O570 O 0.45877 0.32075 0.70321 0.0
H571 H 0.4683 0.29334 0.78317 0.0
H572 H 0.46189 0.31028 0.78258 0.0
C573 C 0.46454 0.30124 0.77274 0.0
H574 H 0.47594 0.30953 0.76215 0.0
H575 H 0.49022 0.33603 0.73045 0.0
O576 O 0.40076 0.26265 0.69848 0.0
C577 C 0.45167 0.3112 0.68689 0.0
Co578 Co 0.71027 0.12713 0.71335 0.0
Co579 Co 0.67725 0.12892 0.73033 0.0
C580 C 0.67785 0.09455 0.72935 0.0
O581 O 0.69358 0.10213 0.72167 0.0
O582 O 0.66994 0.10331 0.73338 0.0
C583 C 0.73677 0.12647 0.68709 0.0
O584 O 0.72374 0.11939 0.67318 0.0
C585 C 0.64919 0.12559 0.7593 0.0
C586 C 0.64404 0.14649 0.74692 0.0
C587 C 0.63899 0.13365 0.76258 0.0
N588 N 0.65978 0.13335 0.74248 0.0
N589 N 0.65655 0.14574 0.73506 0.0
C590 C 0.64992 0.11169 0.77268 0.0
H591 H 0.66344 0.11324 0.77196 0.0
H592 H 0.64642 0.1126 0.78938 0.0
H593 H 0.64022 0.0983 0.76643 0.0
C594 C 0.72828 0.15436 0.74651 0.0
N595 N 0.71352 0.14274 0.73588 0.0
N596 N 0.69976 0.14367 0.74313 0.0
C597 C 0.70536 0.15601 0.75866 0.0
C598 C 0.72362 0.16319 0.76125 0.0
C599 C 0.74635 0.15648 0.74295 0.0
H600 H 0.74529 0.14317 0.74306 0.0
H601 H 0.75602 0.16492 0.7553 0.0
H602 H 0.75134 0.16256 0.72715 0.0
O603 O 0.70143 0.13369 0.68795 0.0
O604 O 0.67796 0.13474 0.70007 0.0
H605 H 0.70133 0.17304 0.78055 0.0
H606 H 0.68334 0.15019 0.77896 0.0
C607 C 0.69365 0.1616 0.76975 0.0
H608 H 0.68681 0.16548 0.75783 0.0
H609 H 0.66309 0.15385 0.72207 0.0
O610 O 0.73363 0.13002 0.70558 0.0
C611 C 0.68837 0.13628 0.685 0.0
Co612 Co 0.41091 0.12519 0.21121 0.0
Co613 Co 0.4446 0.12674 0.23169 0.0
C614 C 0.40953 0.09252 0.229 0.0
O615 O 0.4017 0.10015 0.22052 0.0
O616 O 0.42606 0.10121 0.23377 0.0
C617 C 0.37627 0.12374 0.20664 0.0
O618 O 0.37101 0.11462 0.22439 0.0
C619 C 0.46809 0.12207 0.26168 0.0
C620 C 0.49432 0.14507 0.25313 0.0
C621 C 0.48613 0.13058 0.26669 0.0
N622 N 0.4658 0.13113 0.24586 0.0
N623 N 0.48153 0.1448 0.24077 0.0
C624 C 0.45307 0.10648 0.27266 0.0
H625 H 0.44082 0.10756 0.27209 0.0
H626 H 0.45652 0.10567 0.28942 0.0
H627 H 0.45028 0.09404 0.26438 0.0
C628 C 0.42001 0.15421 0.24239 0.0
N629 N 0.42251 0.14143 0.23366 0.0
N630 N 0.43616 0.14147 0.24294 0.0
C631 C 0.44244 0.15392 0.25833 0.0
C632 C 0.4325 0.16249 0.25838 0.0
C633 C 0.40722 0.15965 0.23406 0.0
H634 H 0.40704 0.15924 0.2165 0.0
H635 H 0.39363 0.1502 0.23999 0.0
H636 H 0.4109 0.17332 0.2392 0.0
O637 O 0.4275 0.13097 0.18742 0.0
O638 O 0.4518 0.13306 0.20181 0.0
H639 H 0.47024 0.16477 0.26461 0.0
H640 H 0.45751 0.16483 0.28726 0.0
C641 C 0.45733 0.15718 0.27306 0.0
H642 H 0.45581 0.14428 0.27831 0.0
H643 H 0.4835 0.15404 0.22895 0.0
O644 O 0.3917 0.12852 0.19939 0.0
C645 C 0.44344 0.1341 0.18582 0.0
Co646 Co 0.87241 0.28642 0.2124 0.0
Co647 Co 0.87036 0.31729 0.23555 0.0
C648 C 0.90428 0.31617 0.23441 0.0
O649 O 0.89698 0.30161 0.22391 0.0
O650 O 0.89551 0.32374 0.23999 0.0
C651 C 0.87421 0.25378 0.20717 0.0
O652 O 0.8817 0.25691 0.22598 0.0
C653 C 0.87363 0.34547 0.26472 0.0
C654 C 0.85005 0.34735 0.25495 0.0
C655 C 0.86465 0.35476 0.26837 0.0
N656 N 0.86462 0.33308 0.24982 0.0
N657 N 0.85052 0.33422 0.24417 0.0
C658 C 0.89135 0.3494 0.27328 0.0
H659 H 0.89042 0.33688 0.27917 0.0
H660 H 0.89615 0.35949 0.2861 0.0
H661 H 0.90124 0.35449 0.26022 0.0
C662 C 0.84163 0.2647 0.24088 0.0
N663 N 0.85495 0.28042 0.23374 0.0
N664 N 0.85464 0.29346 0.24409 0.0
C665 C 0.84148 0.28645 0.2586 0.0
C666 C 0.83272 0.26801 0.25693 0.0
C667 C 0.83644 0.24699 0.23115 0.0
H668 H 0.83811 0.24833 0.21371 0.0
H669 H 0.84519 0.24213 0.23754 0.0
H670 H 0.82238 0.23697 0.23478 0.0
O671 O 0.86787 0.29864 0.18904 0.0
O672 O 0.86678 0.32068 0.20543 0.0
H673 H 0.82988 0.30246 0.26648 0.0
H674 H 0.83019 0.28898 0.2881 0.0
C675 C 0.8378 0.29719 0.27428 0.0
H676 H 0.85052 0.3086 0.27996 0.0
H677 H 0.84143 0.32627 0.23253 0.0
O678 O 0.86998 0.26467 0.19934 0.0
C679 C 0.8659 0.31222 0.18863 0.0
Co680 Co 0.70935 0.58116 0.21057 0.0
Co681 Co 0.67661 0.54615 0.22751 0.0
C682 C 0.67742 0.58157 0.22684 0.0
O683 O 0.69326 0.58998 0.21949 0.0
O684 O 0.66954 0.56479 0.23025 0.0
C685 C 0.7413 0.61696 0.20444 0.0
O686 O 0.73477 0.62415 0.21738 0.0
C687 C 0.64878 0.52053 0.25693 0.0
C688 C 0.64138 0.49521 0.24048 0.0
C689 C 0.63737 0.50218 0.25799 0.0
N690 N 0.65905 0.52412 0.23956 0.0
N691 N 0.65459 0.50891 0.22992 0.0
C692 C 0.64935 0.53447 0.27145 0.0
H693 H 0.65598 0.54773 0.26375 0.0
H694 H 0.65712 0.5353 0.28583 0.0
H695 H 0.63566 0.53092 0.27642 0.0
C696 C 0.72785 0.57145 0.2426 0.0
N697 N 0.71288 0.56865 0.23276 0.0
N698 N 0.69923 0.55387 0.24002 0.0
C699 C 0.70512 0.54675 0.25476 0.0
C700 C 0.72346 0.55766 0.2568 0.0
C701 C 0.74596 0.58716 0.23856 0.0
H702 H 0.75012 0.58646 0.22211 0.0
H703 H 0.74534 0.59958 0.24013 0.0
H704 H 0.75607 0.5877 0.24983 0.0
O705 O 0.69985 0.56588 0.18541 0.0
O706 O 0.67727 0.54065 0.19731 0.0
H707 H 0.68629 0.51882 0.25317 0.0
H708 H 0.70161 0.52507 0.27519 0.0
C709 C 0.69365 0.52917 0.26536 0.0
H710 H 0.68371 0.53012 0.27554 0.0
H711 H 0.66044 0.50789 0.21592 0.0
O712 O 0.73256 0.60035 0.20068 0.0
C713 C 0.68737 0.55 0.18228 0.0
Co714 Co 0.45742 0.077 0.94899 0.0
Co715 Co 0.45851 0.11109 0.93077 0.0
C716 C 0.42444 0.07576 0.9327 0.0
O717 O 0.43231 0.06783 0.94021 0.0
O718 O 0.43294 0.09244 0.92873 0.0
C719 C 0.45602 0.04229 0.95161 0.0
O720 O 0.44708 0.03745 0.9337 0.0
C721 C 0.45505 0.13681 0.9026 0.0
C722 C 0.47556 0.16213 0.91701 0.0
C723 C 0.46284 0.15522 0.90114 0.0
N724 N 0.46293 0.13306 0.91861 0.0
N725 N 0.47521 0.14828 0.92704 0.0
C726 C 0.43992 0.12309 0.88961 0.0
H727 H 0.43276 0.11025 0.89815 0.0
H728 H 0.44529 0.12085 0.87469 0.0
H729 H 0.43046 0.12776 0.88547 0.0
C730 C 0.48623 0.08728 0.9171 0.0
N731 N 0.47347 0.0894 0.92659 0.0
N732 N 0.47338 0.1033 0.91829 0.0
C733 C 0.48579 0.11022 0.90288 0.0
C734 C 0.4944 0.10034 0.90167 0.0
C735 C 0.49172 0.07421 0.92422 0.0
H736 H 0.49138 0.07337 0.94175 0.0
H737 H 0.48225 0.06086 0.9177 0.0
H738 H 0.50538 0.07811 0.91877 0.0
O739 O 0.4633 0.09261 0.97381 0.0
O740 O 0.46509 0.11716 0.9608 0.0
H741 H 0.49586 0.13815 0.89882 0.0
H742 H 0.49713 0.127 0.87519 0.0
C743 C 0.48897 0.12573 0.88933 0.0
H744 H 0.47601 0.124 0.88396 0.0
H745 H 0.48323 0.1492 0.93988 0.0
O746 O 0.46078 0.05753 0.95939 0.0
C747 C 0.46637 0.10845 0.97623 0.0
Co748 Co 0.91756 0.37894 0.9454 0.0
Co749 Co 0.883 0.34411 0.93175 0.0
C750 C 0.91931 0.347 0.93186 0.0
O751 O 0.92725 0.36322 0.93795 0.0
O752 O 0.90245 0.33825 0.92908 0.0
C753 C 0.95245 0.4128 0.94769 0.0
O754 O 0.95914 0.40747 0.93258 0.0
C755 C 0.85738 0.31476 0.90416 0.0
C756 C 0.83251 0.30567 0.92245 0.0
C757 C 0.83924 0.3023 0.90423 0.0
N758 N 0.86107 0.32502 0.92153 0.0
N759 N 0.84613 0.31952 0.93233 0.0
C760 C 0.87116 0.31639 0.88858 0.0
H761 H 0.88468 0.32361 0.89563 0.0
H762 H 0.87098 0.32408 0.87461 0.0
H763 H 0.86823 0.30301 0.88312 0.0
C764 C 0.90523 0.39419 0.91202 0.0
N765 N 0.9037 0.38022 0.9231 0.0
N766 N 0.88888 0.36573 0.91756 0.0
C767 C 0.88037 0.37008 0.90287 0.0
C768 C 0.89047 0.38827 0.89891 0.0
C769 C 0.92074 0.41275 0.91379 0.0
H770 H 0.92077 0.41814 0.92975 0.0
H771 H 0.93329 0.4124 0.91192 0.0
H772 H 0.92036 0.42173 0.90152 0.0
O773 O 0.90313 0.37065 0.97143 0.0
O774 O 0.87863 0.34597 0.96193 0.0
H775 H 0.8532 0.34966 0.90752 0.0
H776 H 0.85638 0.36449 0.88576 0.0
C777 C 0.86221 0.35742 0.89433 0.0
H778 H 0.86316 0.34795 0.88332 0.0
H779 H 0.84525 0.32518 0.94655 0.0
O780 O 0.93644 0.40289 0.95365 0.0
C781 C 0.8879 0.35749 0.97584 0.0
Co782 Co 0.61848 0.5434 0.94723 0.0
Co783 Co 0.64789 0.53826 0.9251 0.0
C784 C 0.65009 0.57395 0.92649 0.0
O785 O 0.63518 0.56756 0.93611 0.0
O786 O 0.65674 0.56418 0.92157 0.0
C787 C 0.58739 0.54808 0.95255 0.0
O788 O 0.59119 0.55618 0.93409 0.0
C789 C 0.67438 0.53942 0.89471 0.0
C790 C 0.67431 0.5146 0.90324 0.0
C791 C 0.68209 0.52913 0.88972 0.0
N792 N 0.66265 0.53131 0.91051 0.0
N793 N 0.66271 0.51653 0.91555 0.0
C794 C 0.67716 0.556 0.8839 0.0
H795 H 0.66453 0.55637 0.88379 0.0
H796 H 0.6819 0.55672 0.86739 0.0
H797 H 0.68728 0.56779 0.89282 0.0
C798 C 0.59532 0.51349 0.9185 0.0
N799 N 0.61145 0.52597 0.92572 0.0
N800 N 0.62392 0.52444 0.9156 0.0
C801 C 0.61613 0.51131 0.90112 0.0
C802 C 0.59775 0.50385 0.90259 0.0
C803 C 0.57796 0.50953 0.92832 0.0
H804 H 0.57942 0.51103 0.94577 0.0
H805 H 0.57405 0.51908 0.92211 0.0
H806 H 0.56718 0.49579 0.92466 0.0
O807 O 0.62934 0.53735 0.97065 0.0
O808 O 0.64972 0.53288 0.95518 0.0
H809 H 0.63045 0.49775 0.8941 0.0
H810 H 0.61764 0.49878 0.87214 0.0
C811 C 0.6261 0.50625 0.88587 0.0
H812 H 0.63808 0.51839 0.87998 0.0
H813 H 0.65478 0.50772 0.92741 0.0
O814 O 0.59739 0.54259 0.96005 0.0
C815 C 0.64143 0.53313 0.97167 0.0
Co816 Co 0.58345 0.87198 0.77837 0.0
Co817 Co 0.5489 0.87003 0.76045 0.0
C818 C 0.58443 0.90442 0.76176 0.0
O819 O 0.59272 0.89698 0.76944 0.0
O820 O 0.56772 0.89555 0.75796 0.0
C821 C 0.61884 0.8752 0.78452 0.0
O822 O 0.62562 0.88799 0.7703 0.0
C823 C 0.5264 0.87423 0.72906 0.0
C824 C 0.49935 0.85518 0.74081 0.0
C825 C 0.50841 0.86732 0.72478 0.0
N826 N 0.52787 0.86651 0.7468 0.0
N827 N 0.51168 0.85522 0.75384 0.0
C828 C 0.54199 0.88699 0.71591 0.0
H829 H 0.55325 0.88442 0.71799 0.0
H830 H 0.53828 0.88583 0.69891 0.0
H831 H 0.54645 0.9008 0.72127 0.0
C832 C 0.5741 0.84383 0.74618 0.0
N833 N 0.57131 0.85605 0.75592 0.0
N834 N 0.55657 0.85494 0.74854 0.0
C835 C 0.54939 0.84184 0.73395 0.0
C836 C 0.56028 0.83437 0.732 0.0
C837 C 0.58988 0.84153 0.75021 0.0
H838 H 0.60226 0.85463 0.74872 0.0
H839 H 0.59056 0.83212 0.73884 0.0
H840 H 0.58918 0.83659 0.76661 0.0
O841 O 0.56744 0.86627 0.80295 0.0
O842 O 0.54245 0.86384 0.79031 0.0
H843 H 0.5271 0.82304 0.71457 0.0
H844 H 0.53249 0.84605 0.71289 0.0
C845 C 0.53162 0.83552 0.72368 0.0
H846 H 0.52154 0.83308 0.73602 0.0
H847 H 0.50906 0.8474 0.76739 0.0
O848 O 0.60239 0.8678 0.78913 0.0
C849 C 0.55154 0.86304 0.80563 0.0
Co850 Co 0.12553 0.71166 0.77865 0.0
Co851 Co 0.12722 0.67964 0.75856 0.0
C852 C 0.09279 0.68018 0.76157 0.0
O853 O 0.10038 0.69557 0.77017 0.0
O854 O 0.10158 0.67252 0.75642 0.0
C855 C 0.12154 0.74318 0.78499 0.0
O856 O 0.10962 0.73746 0.76972 0.0
C857 C 0.12385 0.6532 0.72699 0.0
C858 C 0.14446 0.64715 0.73826 0.0
C859 C 0.13185 0.64312 0.72252 0.0
N860 N 0.13147 0.66278 0.74454 0.0
N861 N 0.14367 0.65901 0.75129 0.0
C862 C 0.11014 0.65475 0.71418 0.0
H863 H 0.11167 0.66818 0.71626 0.0
H864 H 0.11128 0.65228 0.69714 0.0
H865 H 0.09666 0.64469 0.71983 0.0
C866 C 0.15292 0.73138 0.74577 0.0
N867 N 0.14114 0.71618 0.75556 0.0
N868 N 0.14203 0.70274 0.74716 0.0
C869 C 0.1545 0.70898 0.73177 0.0
C870 C 0.1618 0.72734 0.73038 0.0
C871 C 0.15517 0.7493 0.7507 0.0
H872 H 0.14212 0.74867 0.7489 0.0
H873 H 0.1649 0.75984 0.74001 0.0
H874 H 0.15958 0.75286 0.76738 0.0
O875 O 0.13213 0.70142 0.80255 0.0
O876 O 0.13336 0.67871 0.7883 0.0
H877 H 0.17208 0.70588 0.70974 0.0
H878 H 0.14911 0.68804 0.70987 0.0
C879 C 0.16029 0.69776 0.71989 0.0
H880 H 0.16375 0.69025 0.73131 0.0
H881 H 0.15164 0.66474 0.76464 0.0
O882 O 0.12894 0.73425 0.79014 0.0
C883 C 0.13493 0.68839 0.80418 0.0
Co884 Co 0.28261 0.40599 0.77727 0.0
Co885 Co 0.31255 0.43897 0.75333 0.0
C886 C 0.31312 0.4049 0.75583 0.0
O887 O 0.29857 0.39737 0.76633 0.0
O888 O 0.32011 0.42106 0.74977 0.0
C889 C 0.25084 0.3712 0.78166 0.0
O890 O 0.25444 0.36775 0.7626 0.0
C891 C 0.3403 0.46382 0.72384 0.0
C892 C 0.34169 0.48915 0.73306 0.0
C893 C 0.34938 0.48203 0.71998 0.0
N894 N 0.32777 0.46037 0.73857 0.0
N895 N 0.32857 0.47553 0.74385 0.0
C896 C 0.34464 0.45019 0.71573 0.0
H897 H 0.33216 0.43802 0.7109 0.0
H898 H 0.35409 0.45525 0.70225 0.0
H899 H 0.35074 0.44642 0.72874 0.0
C900 C 0.25989 0.41356 0.74856 0.0
N901 N 0.27588 0.41649 0.75546 0.0
N902 N 0.28857 0.42981 0.74469 0.0
C903 C 0.28106 0.4354 0.73012 0.0
C904 C 0.26266 0.42536 0.73218 0.0
C905 C 0.24246 0.4012 0.75902 0.0
H906 H 0.24431 0.40103 0.77638 0.0
H907 H 0.2373 0.38754 0.75269 0.0
H908 H 0.2324 0.40531 0.7559 0.0
O909 O 0.29424 0.42332 0.8003 0.0
O910 O 0.31558 0.44653 0.7832 0.0
H911 H 0.29625 0.463 0.72198 0.0
H912 H 0.28285 0.44883 0.70056 0.0
C913 C 0.29133 0.44984 0.71428 0.0
H914 H 0.30296 0.44895 0.70852 0.0
H915 H 0.3205 0.47662 0.75535 0.0
O916 O 0.26128 0.38611 0.79023 0.0
C917 C 0.30736 0.43916 0.80021 0.0
Co918 Co 0.53641 0.91498 0.04758 0.0
Co919 Co 0.53449 0.88003 0.06407 0.0
C920 C 0.56866 0.91562 0.06496 0.0
O921 O 0.56111 0.92385 0.0574 0.0
O922 O 0.56001 0.89878 0.068 0.0
C923 C 0.53922 0.95046 0.04356 0.0
O924 O 0.55038 0.95655 0.0596 0.0
C925 C 0.53594 0.85345 0.0926 0.0
C926 C 0.51779 0.82867 0.07529 0.0
C927 C 0.5285 0.83501 0.0931 0.0
N928 N 0.52975 0.85768 0.07529 0.0
N929 N 0.5189 0.8428 0.06509 0.0
C930 C 0.54928 0.86686 0.10763 0.0
H931 H 0.5567 0.88016 0.10011 0.0
H932 H 0.54219 0.86799 0.12166 0.0
H933 H 0.55878 0.8626 0.11309 0.0
C934 C 0.50748 0.90431 0.0791 0.0
N935 N 0.51982 0.90185 0.06912 0.0
N936 N 0.51897 0.88714 0.07619 0.0
C937 C 0.50599 0.87974 0.09093 0.0
C938 C 0.49831 0.89039 0.09323 0.0
C939 C 0.50509 0.9201 0.0757 0.0
H940 H 0.50131 0.92037 0.05895 0.0
H941 H 0.51793 0.93245 0.07878 0.0
H942 H 0.4948 0.91994 0.08632 0.0
O943 O 0.53148 0.9003 0.02198 0.0
O944 O 0.52931 0.87523 0.0337 0.0
H945 H 0.49773 0.85199 0.08939 0.0
H946 H 0.48812 0.85774 0.1112 0.0
C947 C 0.50034 0.86225 0.10155 0.0
H948 H 0.5113 0.86357 0.11189 0.0
H949 H 0.51228 0.84228 0.05105 0.0
O950 O 0.53279 0.93441 0.03758 0.0
C951 C 0.52862 0.88462 0.01869 0.0
Co952 Co 0.07828 0.61965 0.04233 0.0
Co953 Co 0.11274 0.6506 0.06273 0.0
C954 C 0.07874 0.65162 0.06174 0.0
O955 O 0.07056 0.63654 0.05242 0.0
O956 O 0.09521 0.65878 0.06667 0.0
C957 C 0.04244 0.58809 0.038 0.0
O958 O 0.03786 0.59216 0.05611 0.0
C959 C 0.13954 0.67913 0.09016 0.0
C960 C 0.16377 0.67832 0.08077 0.0
C961 C 0.15778 0.68712 0.09374 0.0
N962 N 0.13499 0.66608 0.07582 0.0
N963 N 0.14952 0.66567 0.07032 0.0
C964 C 0.12683 0.68463 0.09856 0.0
H965 H 0.12049 0.68755 0.08506 0.0
H966 H 0.1161 0.67341 0.10762 0.0
H967 H 0.13355 0.69665 0.10872 0.0
C968 C 0.08582 0.59838 0.07317 0.0
N969 N 0.08937 0.61397 0.0643 0.0
N970 N 0.1035 0.62707 0.07348 0.0
C971 C 0.10907 0.62028 0.08898 0.0
C972 C 0.09811 0.60187 0.0892 0.0
C973 C 0.07192 0.58045 0.06522 0.0
H974 H 0.07141 0.58053 0.04767 0.0
H975 H 0.05871 0.57734 0.07153 0.0
H976 H 0.07474 0.56983 0.07031 0.0
O977 O 0.09465 0.62938 0.01829 0.0
O978 O 0.11892 0.65186 0.03237 0.0
H979 H 0.1369 0.63529 0.09612 0.0
H980 H 0.12304 0.62376 0.11863 0.0
C981 C 0.12398 0.6313 0.10399 0.0
H982 H 0.12364 0.64351 0.10839 0.0
H983 H 0.14971 0.65685 0.05919 0.0
O984 O 0.05801 0.59798 0.03068 0.0
C985 C 0.1105 0.64228 0.01656 0.0
Co986 Co 0.37665 0.46329 0.0412 0.0
Co987 Co 0.34187 0.46287 0.05583 0.0
C988 C 0.34487 0.42959 0.05546 0.0
O989 O 0.36097 0.43788 0.0489 0.0
O990 O 0.33612 0.43766 0.05859 0.0
C991 C 0.41042 0.46218 0.03879 0.0
O992 O 0.40489 0.4501 0.05386 0.0
C993 C 0.31251 0.45908 0.08362 0.0
C994 C 0.30416 0.47582 0.06608 0.0
C995 C 0.30041 0.46522 0.08391 0.0
N996 N 0.32296 0.4659 0.06642 0.0
N997 N 0.31788 0.47588 0.05606 0.0
C998 C 0.31362 0.44633 0.09871 0.0
H999 H 0.32041 0.43975 0.09128 0.0
H1000 H 0.32148 0.45375 0.11281 0.0
H1001 H 0.30008 0.43611 0.10405 0.0
C1002 C 0.39224 0.49075 0.07465 0.0
N1003 N 0.37818 0.47847 0.06355 0.0
N1004 N 0.36369 0.4786 0.06963 0.0
C1005 C 0.36813 0.49109 0.08481 0.0
C1006 C 0.38636 0.49918 0.08844 0.0
C1007 C 0.41081 0.49386 0.07249 0.0
H1008 H 0.41583 0.49879 0.05629 0.0
H1009 H 0.41057 0.48105 0.07476 0.0
H1010 H 0.42005 0.50355 0.08431 0.0
O1011 O 0.36797 0.4693 0.01542 0.0
O1012 O 0.34328 0.46887 0.02559 0.0
H1013 H 0.34765 0.49796 0.0819 0.0
H1014 H 0.36247 0.50843 0.10405 0.0
C1015 C 0.35542 0.49603 0.09454 0.0
H1016 H 0.34596 0.48501 0.10491 0.0
H1017 H 0.32377 0.48272 0.04206 0.0
O1018 O 0.40061 0.46836 0.0327 0.0
C1019 C 0.35463 0.47118 0.0114 0.0
Co1020 Co 0.08183 0.46153 0.53857 0.0
Co1021 Co 0.1133 0.46203 0.56339 0.0
C1022 C 0.07845 0.4283 0.55772 0.0
O1023 O 0.07163 0.43623 0.54765 0.0
O1024 O 0.09445 0.43673 0.56449 0.0
C1025 C 0.0477 0.45961 0.53228 0.0
O1026 O 0.04267 0.45027 0.54991 0.0
C1027 C 0.13374 0.45624 0.59648 0.0
C1028 C 0.16098 0.4785 0.59013 0.0
C1029 C 0.15132 0.46397 0.60328 0.0
N1030 N 0.13313 0.46576 0.58002 0.0
N1031 N 0.14944 0.47902 0.57628 0.0
C1032 C 0.11759 0.44093 0.60623 0.0
H1033 H 0.10587 0.44279 0.60431 0.0
H1034 H 0.11977 0.43964 0.62332 0.0
H1035 H 0.11469 0.42844 0.598 0.0
C1036 C 0.08918 0.49045 0.56932 0.0
N1037 N 0.09184 0.47741 0.56172 0.0
N1038 N 0.10461 0.47709 0.57269 0.0
C1039 C 0.11014 0.48956 0.58802 0.0
C1040 C 0.10064 0.49852 0.58628 0.0
C1041 C 0.07741 0.49638 0.55906 0.0
H1042 H 0.07829 0.49585 0.54158 0.0
H1043 H 0.06339 0.48732 0.56395 0.0
H1044 H 0.08121 0.51018 0.56374 0.0
O1045 O 0.10015 0.46771 0.51662 0.0
O1046 O 0.12254 0.46815 0.53422 0.0
H1047 H 0.13742 0.49984 0.5967 0.0
H1048 H 0.12369 0.50061 0.61777 0.0
C1049 C 0.12405 0.49265 0.6042 0.0
H1050 H 0.12185 0.47969 0.61024 0.0
H1051 H 0.15267 0.48844 0.56428 0.0
O1052 O 0.06324 0.46491 0.52507 0.0
C1053 C 0.11586 0.47004 0.51715 0.0
Co1054 Co 0.53522 0.61832 0.54342 0.0
Co1055 Co 0.53339 0.64929 0.56662 0.0
C1056 C 0.56758 0.64849 0.5637 0.0
O1057 O 0.56015 0.63401 0.55307 0.0
O1058 O 0.55878 0.65581 0.57015 0.0
C1059 C 0.53997 0.58764 0.53415 0.0
O1060 O 0.55257 0.5934 0.54863 0.0
C1061 C 0.5346 0.67579 0.59779 0.0
C1062 C 0.51444 0.68104 0.58316 0.0
C1063 C 0.52641 0.68604 0.59979 0.0
N1064 N 0.52773 0.66527 0.58065 0.0
N1065 N 0.5156 0.6684 0.57216 0.0
C1066 C 0.54934 0.67672 0.61112 0.0
H1067 H 0.55618 0.67054 0.60291 0.0
H1068 H 0.54364 0.6693 0.62609 0.0
H1069 H 0.5591 0.69078 0.61517 0.0
C1070 C 0.50711 0.59694 0.57482 0.0
N1071 N 0.51901 0.61264 0.5661 0.0
N1072 N 0.51805 0.6256 0.57575 0.0
C1073 C 0.50546 0.61858 0.59094 0.0
C1074 C 0.49811 0.60018 0.59084 0.0
C1075 C 0.50507 0.57935 0.56852 0.0
H1076 H 0.50068 0.57651 0.55175 0.0
H1077 H 0.51819 0.58007 0.56981 0.0
H1078 H 0.4954 0.5683 0.57871 0.0
O1079 O 0.52935 0.62974 0.52033 0.0
O1080 O 0.52907 0.65217 0.53668 0.0
H1081 H 0.49607 0.63709 0.59391 0.0
H1082 H 0.48848 0.62076 0.61475 0.0
C1083 C 0.49993 0.62927 0.60433 0.0
H1084 H 0.51141 0.63878 0.61415 0.0
H1085 H 0.50832 0.66212 0.55854 0.0
O1086 O 0.53198 0.59627 0.53046 0.0
C1087 C 0.52744 0.64335 0.51998 0.0
Co1088 Co 0.37728 0.91985 0.54314 0.0
Co1089 Co 0.34671 0.88601 0.56513 0.0
C1090 C 0.34724 0.92083 0.5656 0.0
O1091 O 0.36195 0.9286 0.55545 0.0
O1092 O 0.33972 0.9043 0.57025 0.0
C1093 C 0.40966 0.95455 0.53917 0.0
O1094 O 0.40644 0.95813 0.55836 0.0
C1095 C 0.31863 0.86045 0.59385 0.0
C1096 C 0.31733 0.83532 0.58388 0.0
C1097 C 0.30964 0.84217 0.59737 0.0
N1098 N 0.33113 0.86418 0.57898 0.0
N1099 N 0.33034 0.84913 0.57319 0.0
C1100 C 0.31433 0.87394 0.60254 0.0
H1101 H 0.30938 0.87887 0.58946 0.0
H1102 H 0.32667 0.8855 0.60885 0.0
H1103 H 0.304 0.86834 0.61507 0.0
C1104 C 0.39932 0.9107 0.57094 0.0
N1105 N 0.38349 0.90803 0.56378 0.0
N1106 N 0.37057 0.89443 0.57392 0.0
C1107 C 0.37774 0.88842 0.58842 0.0
C1108 C 0.3962 0.89846 0.58692 0.0
C1109 C 0.41697 0.92353 0.5613 0.0
H1110 H 0.41556 0.92433 0.54394 0.0
H1111 H 0.42187 0.93693 0.5683 0.0
H1112 H 0.42701 0.91939 0.56434 0.0
O1113 O 0.3652 0.9038 0.5193 0.0
O1114 O 0.34384 0.87957 0.53476 0.0
H1115 H 0.3622 0.86081 0.5964 0.0
H1116 H 0.37527 0.87485 0.6181 0.0
C1117 C 0.3671 0.87396 0.6041 0.0
H1118 H 0.35543 0.87495 0.60949 0.0
H1119 H 0.33845 0.84826 0.56157 0.0
O1120 O 0.39887 0.93973 0.53064 0.0
C1121 C 0.35214 0.88797 0.51821 0.0
Co1122 Co 0.12887 0.41568 0.27951 0.0
Co1123 Co 0.12738 0.44916 0.26381 0.0
C1124 C 0.09433 0.41268 0.26772 0.0
O1125 O 0.10299 0.40514 0.27387 0.0
O1126 O 0.10219 0.42935 0.2637 0.0
C1127 C 0.12663 0.38083 0.28655 0.0
O1128 O 0.11081 0.37273 0.27758 0.0
C1129 C 0.12105 0.47196 0.23431 0.0
C1130 C 0.1368 0.4982 0.2499 0.0
C1131 C 0.12584 0.48983 0.23267 0.0
N1132 N 0.12891 0.46999 0.25169 0.0
N1133 N 0.13833 0.48573 0.26086 0.0
C1134 C 0.10853 0.45686 0.22038 0.0
H1135 H 0.10346 0.44391 0.22858 0.0
H1136 H 0.11575 0.45663 0.20597 0.0
H1137 H 0.0972 0.45862 0.2154 0.0
C1138 C 0.15412 0.42585 0.24395 0.0
N1139 N 0.14243 0.42814 0.25563 0.0
N1140 N 0.14236 0.44256 0.2492 0.0
C1141 C 0.15425 0.45007 0.2333 0.0
C1142 C 0.16208 0.43971 0.22949 0.0
C1143 C 0.15735 0.4105 0.24651 0.0
H1144 H 0.14438 0.39791 0.24762 0.0
H1145 H 0.16502 0.40949 0.23302 0.0
H1146 H 0.1648 0.41217 0.26145 0.0
O1147 O 0.13635 0.43175 0.3042 0.0
O1148 O 0.13548 0.45561 0.29327 0.0
H1149 H 0.17168 0.47304 0.21409 0.0
H1150 H 0.14821 0.46585 0.21259 0.0
C1151 C 0.15913 0.46762 0.22332 0.0
H1152 H 0.16074 0.47735 0.23577 0.0
H1153 H 0.1457 0.48794 0.27475 0.0
O1154 O 0.13517 0.3977 0.28804 0.0
C1155 C 0.13861 0.44721 0.30756 0.0
Co1156 Co 0.58141 0.70851 0.27788 0.0
Co1157 Co 0.54633 0.67419 0.26401 0.0
C1158 C 0.58216 0.67611 0.26371 0.0
O1159 O 0.59044 0.69224 0.27013 0.0
O1160 O 0.5653 0.66776 0.26089 0.0
C1161 C 0.61674 0.7419 0.27977 0.0
O1162 O 0.62306 0.73605 0.2648 0.0
C1163 C 0.52008 0.6456 0.2361 0.0
C1164 C 0.49537 0.63692 0.25459 0.0
C1165 C 0.50181 0.63364 0.23606 0.0
N1166 N 0.52411 0.65554 0.25379 0.0
N1167 N 0.50928 0.65026 0.26474 0.0
C1168 C 0.53363 0.64706 0.22027 0.0
H1169 H 0.54711 0.65347 0.22744 0.0
H1170 H 0.53397 0.65545 0.2068 0.0
H1171 H 0.53008 0.63369 0.21407 0.0
C1172 C 0.56944 0.72449 0.24499 0.0
N1173 N 0.56768 0.71028 0.25574 0.0
N1174 N 0.55268 0.69602 0.25013 0.0
C1175 C 0.54429 0.70077 0.23573 0.0
C1176 C 0.55466 0.71896 0.23203 0.0
C1177 C 0.58511 0.74293 0.24701 0.0
H1178 H 0.59755 0.74246 0.24464 0.0
H1179 H 0.58471 0.7522 0.23517 0.0
H1180 H 0.58538 0.74806 0.2632 0.0
O1181 O 0.56694 0.70046 0.30391 0.0
O1182 O 0.54219 0.67608 0.29422 0.0
H1183 H 0.52036 0.69594 0.21905 0.0
H1184 H 0.52656 0.67903 0.21599 0.0
C1185 C 0.52597 0.68852 0.22729 0.0
H1186 H 0.51696 0.68077 0.24049 0.0
H1187 H 0.50865 0.65578 0.27919 0.0
O1188 O 0.60073 0.73236 0.28597 0.0
C1189 C 0.55156 0.68747 0.30819 0.0
Co1190 Co 0.28236 0.86928 0.27574 0.0
Co1191 Co 0.31683 0.86849 0.26289 0.0
C1192 C 0.31471 0.90245 0.26259 0.0
O1193 O 0.29838 0.89453 0.26825 0.0
O1194 O 0.32317 0.89399 0.26033 0.0
C1195 C 0.2498 0.87238 0.27841 0.0
O1196 O 0.25776 0.88737 0.26766 0.0
C1197 C 0.34596 0.87176 0.23534 0.0
C1198 C 0.3552 0.85622 0.25388 0.0
C1199 C 0.3584 0.86605 0.23545 0.0
N1200 N 0.33587 0.86545 0.25288 0.0
N1201 N 0.34146 0.85617 0.26384 0.0
C1202 C 0.34418 0.88368 0.21955 0.0
H1203 H 0.33638 0.87564 0.20574 0.0
H1204 H 0.35752 0.89407 0.21389 0.0
H1205 H 0.33699 0.89004 0.22652 0.0
C1206 C 0.26718 0.84215 0.24198 0.0
N1207 N 0.28114 0.85414 0.25345 0.0
N1208 N 0.29543 0.8533 0.24827 0.0
C1209 C 0.29091 0.84041 0.2336 0.0
C1210 C 0.27285 0.83295 0.22914 0.0
C1211 C 0.24888 0.8399 0.24304 0.0
H1212 H 0.24256 0.83353 0.25832 0.0
H1213 H 0.24991 0.85317 0.24234 0.0
H1214 H 0.24032 0.83165 0.22977 0.0
O1215 O 0.29032 0.86324 0.30225 0.0
O1216 O 0.31409 0.86159 0.29285 0.0
H1217 H 0.31102 0.8333 0.23904 0.0
H1218 H 0.2958 0.82101 0.21783 0.0
C1219 C 0.30321 0.83422 0.22566 0.0
H1220 H 0.31266 0.84406 0.21412 0.0
H1221 H 0.33593 0.84984 0.2782 0.0
O1222 O 0.25809 0.86411 0.28256 0.0
C1223 C 0.30286 0.86017 0.30675 0.0
C1224 C 0.19228 0.22317 0.31136 0.0
C1225 C 0.19036 0.21162 0.32806 0.0
C1226 C 0.18995 0.21727 0.29043 0.0
C1227 C 0.19368 0.18425 0.25811 0.0
H1228 H 0.17867 0.20494 0.21379 0.0
C1229 C 0.1949 0.19197 0.16072 0.0
C1230 C 0.21266 0.19614 0.15748 0.0
C1231 C 0.18787 0.18925 0.1812 0.0
C1232 C 0.18256 0.1987 0.22592 0.0
H1233 H 0.18343 0.18451 0.33602 0.0
H1234 H 0.1791 0.17414 0.29942 0.0
H1235 H 0.17268 0.20831 0.25067 0.0
H1236 H 0.23675 0.20016 0.17312 0.0
H1237 H 0.22469 0.19586 0.20866 0.0
H1238 H 0.20368 0.17476 0.23339 0.0
C1239 C 0.18278 0.18786 0.30251 0.0
C1240 C 0.17933 0.20083 0.24709 0.0
C1241 C 0.18524 0.19381 0.32347 0.0
C1242 C 0.22304 0.197 0.17504 0.0
C1243 C 0.21604 0.19434 0.19545 0.0
C1244 C 0.19676 0.18198 0.23696 0.0
C1245 C 0.1855 0.19964 0.28573 0.0
C1246 C 0.18553 0.19428 0.26343 0.0
C1247 C 0.19846 0.19065 0.1988 0.0
C1248 C 0.19193 0.18984 0.2207 0.0
H1249 H 0.19618 0.23697 0.31435 0.0
H1250 H 0.19246 0.2268 0.27791 0.0
H1251 H 0.19868 0.17906 0.27027 0.0
H1252 H 0.1865 0.19105 0.14749 0.0
H1253 H 0.17422 0.18626 0.18327 0.0
C1254 C 0.81707 0.03461 0.17497 0.0
C1255 C 0.80758 0.02034 0.16096 0.0
C1256 C 0.82076 0.03149 0.19552 0.0
C1257 C 0.81692 0.9956 0.23213 0.0
H1258 H 0.80718 0.02282 0.27342 0.0
C1259 C 0.78231 0.96922 0.31212 0.0
C1260 C 0.78842 0.98062 0.32978 0.0
C1261 C 0.79034 0.97521 0.29237 0.0
C1262 C 0.81033 0.01535 0.26215 0.0
H1263 H 0.79523 0.99175 0.15692 0.0
H1264 H 0.8007 0.98609 0.19313 0.0
H1265 H 0.811 0.03163 0.23651 0.0
H1266 H 0.80826 0.00692 0.34088 0.0
H1267 H 0.82197 0.01752 0.30611 0.0
H1268 H 0.81471 0.97847 0.25795 0.0
C1269 C 0.80587 -0.00022 0.1882 0.0
C1270 C 0.81259 0.02042 0.24092 0.0
C1271 C 0.80256 0.00297 0.16748 0.0
C1272 C 0.80321 0.99786 0.32752 0.0
C1273 C 0.81107 0.00393 0.30769 0.0
C1274 C 0.81434 0.99035 0.25338 0.0
C1275 C 0.81461 0.01397 0.20266 0.0
C1276 C 0.81538 0.0103 0.22553 0.0
C1277 C 0.80447 0.99276 0.2899 0.0
C1278 C 0.81054 -7e-05 0.26842 0.0
H1279 H 0.82139 0.04819 0.17014 0.0
H1280 H 0.82795 0.04278 0.20601 0.0
H1281 H 0.81946 0.98774 0.2208 0.0
H1282 H 0.77106 0.95581 0.31342 0.0
H1283 H 0.78488 0.96642 0.27883 0.0
C1284 C 0.02145 0.81749 0.31487 0.0
C1285 C 0.00985 0.81044 0.33226 0.0
C1286 C 0.01516 0.81958 0.29537 0.0
C1287 C 0.97545 0.7963 0.26481 0.0
H1288 H 0.0016 0.83348 0.22337 0.0
C1289 C 0.95957 0.78165 0.17689 0.0
C1290 C 0.97454 0.78763 0.16369 0.0
C1291 C 0.96136 0.78847 0.19734 0.0
C1292 C 0.99414 0.82296 0.23474 0.0
H1293 H 0.98287 0.80121 0.34332 0.0
H1294 H 0.97176 0.80444 0.3089 0.0
H1295 H 0.0098 0.83909 0.26081 0.0
H1296 H 0.00298 0.8059 0.16108 0.0
H1297 H 0.00636 0.81711 0.19711 0.0
H1298 H 0.96079 0.7796 0.23896 0.0
C1299 C 0.98573 0.80844 0.31051 0.0
C1300 C -0.00125 0.82625 0.25615 0.0
C1301 C 0.9921 0.80658 0.33014 0.0
C1302 C 0.99122 0.80104 0.17097 0.0
C1303 C 0.99309 0.8076 0.19158 0.0
C1304 C 0.97102 0.79291 0.24343 0.0
C1305 C 0.99711 0.81446 0.29283 0.0
C1306 C 0.98983 0.81273 0.27124 0.0
C1307 C 0.97824 0.80111 0.20519 0.0
C1308 C 0.98074 0.80598 0.22803 0.0
H1309 H 0.03526 0.82077 0.31611 0.0
H1310 H 0.02417 0.82409 0.28194 0.0
H1311 H 0.96851 0.78555 0.27609 0.0
H1312 H 0.94647 0.77156 0.1715 0.0
H1313 H 0.94956 0.78348 0.20716 0.0
C1314 C 0.79996 0.79985 0.6659 0.0
C1315 C 0.80661 0.78875 0.65963 0.0
C1316 C 0.80387 0.80757 0.68606 0.0
C1317 C 0.81611 0.79831 0.73851 0.0
H1318 H 0.81293 0.83986 0.75458 0.0
C1319 C 0.80833 0.81128 0.82523 0.0
C1320 C 0.79257 0.81187 0.82853 0.0
C1321 C 0.81571 0.81385 0.80498 0.0
C1322 C 0.81405 0.82834 0.75027 0.0
H1323 H 0.82393 0.77839 0.66826 0.0
H1324 H 0.83159 0.79261 0.70292 0.0
H1325 H 0.81632 0.83465 0.7172 0.0
H1326 H 0.77302 0.81707 0.81358 0.0
H1327 H 0.78586 0.82146 0.77826 0.0
H1328 H 0.81343 0.79178 0.77141 0.0
C1329 C 0.82265 0.79471 0.69288 0.0
C1330 C 0.81586 0.82528 0.7289 0.0
C1331 C 0.81834 0.78662 0.67301 0.0
C1332 C 0.78505 0.81631 0.8115 0.0
C1333 C 0.79251 0.81904 0.79131 0.0
C1334 C 0.81457 0.80151 0.7598 0.0
C1335 C 0.81484 0.80462 0.70005 0.0
C1336 C 0.81627 0.80986 0.72271 0.0
C1337 C 0.80755 0.81724 0.78775 0.0
C1338 C 0.81291 0.81621 0.76581 0.0
H1339 H 0.79091 0.8017 0.65575 0.0
H1340 H 0.79745 0.81496 0.69104 0.0
H1341 H 0.81602 0.78611 0.73448 0.0
H1342 H 0.81454 0.80805 0.83808 0.0
H1343 H 0.82738 0.8125 0.80262 0.0
C1344 C 0.1955 0.00201 0.83056 0.0
C1345 C 0.19195 0.98435 0.83248 0.0
C1346 C 0.19382 0.00851 0.81097 0.0
C1347 C 0.17505 0.99583 0.7574 0.0
H1348 H 0.22063 0.03469 0.73857 0.0
C1349 C 0.19667 0.00488 0.67086 0.0
C1350 C 0.20953 0.02172 0.66333 0.0
C1351 C 0.19098 0.00272 0.69187 0.0
C1352 C 0.2076 0.0242 0.74357 0.0
H1353 H 0.18276 0.95933 0.81582 0.0
H1354 H 0.17967 0.97068 0.78164 0.0
H1355 H 0.21631 0.02633 0.77569 0.0
H1356 H 0.22549 0.04977 0.67128 0.0
H1357 H 0.21508 0.04613 0.7078 0.0
H1358 H 0.16639 0.99343 0.72522 0.0
C1359 C 0.1838 0.97947 0.79527 0.0
C1360 C 0.20518 0.01939 0.7649 0.0
C1361 C 0.18576 0.97305 0.81475 0.0
C1362 C 0.21579 0.03656 0.6768 0.0
C1363 C 0.20985 0.03446 0.69773 0.0
C1364 C 0.17735 0.00084 0.73609 0.0
C1365 C 0.18823 0.99736 0.79312 0.0
C1366 C 0.18915 0.00472 0.77179 0.0
C1367 C 0.19781 0.01742 0.70571 0.0
C1368 C 0.19393 0.01458 0.72876 0.0
H1369 H 0.20025 0.011 0.844 0.0
H1370 H 0.19733 0.02237 0.80961 0.0
H1371 H 0.1625 0.98457 0.76248 0.0
H1372 H 0.19159 0.9932 0.66081 0.0
H1373 H 0.18193 0.98934 0.69745 0.0
C1374 C 0.95498 0.18723 0.67157 0.0
C1375 C 0.96951 0.19303 0.65765 0.0
C1376 C 0.95679 0.18414 0.69292 0.0
C1377 C 0.98779 0.18037 0.73123 0.0
H1378 H 0.96736 0.1994 0.77096 0.0
C1379 C 0.01868 0.21299 0.81085 0.0
C1380 C 0.00747 0.20844 0.82861 0.0
C1381 C 0.01162 0.20596 0.79099 0.0
C1382 C 0.97286 0.1937 0.76008 0.0
H1383 H 0.9972 0.19977 0.65505 0.0
H1384 H 0.00058 0.19517 0.69224 0.0
H1385 H 0.95915 0.19668 0.73371 0.0
H1386 H 0.9802 0.19262 0.83974 0.0
H1387 H 0.96774 0.18079 0.80465 0.0
H1388 H 0.00256 0.17877 0.75761 0.0
C1389 C 0.98761 0.19243 0.68671 0.0
C1390 C 0.96812 0.19208 0.73872 0.0
C1391 C 0.98573 0.19527 0.66536 0.0
C1392 C 0.98913 0.19632 0.82629 0.0
C1393 C 0.98201 0.18957 0.80629 0.0
C1394 C 0.99275 0.1823 0.75253 0.0
C1395 C 0.97323 0.18703 0.70084 0.0
C1396 C 0.97596 0.18591 0.72391 0.0
C1397 C 0.99319 0.19453 0.78848 0.0
C1398 C 0.98567 0.18942 0.76698 0.0
H1399 H 0.94224 0.18519 0.66602 0.0
H1400 H 0.94535 0.17969 0.70326 0.0
H1401 H 0.99373 0.17512 0.72037 0.0
H1402 H 0.03288 0.22222 0.81224 0.0
H1403 H 0.02046 0.21011 0.77741 0.0
C1404 C 0.8493 0.55184 0.65094 0.0
C1405 C 0.85792 0.54625 0.66527 0.0
C1406 C 0.84709 0.5464 0.62983 0.0
C1407 C 0.85741 0.54577 0.58471 0.0
H1408 H 0.85503 0.5021 0.56538 0.0
C1409 C 0.88557 0.52523 0.51015 0.0
C1410 C 0.87884 0.53065 0.49321 0.0
C1411 C 0.87852 0.52343 0.53047 0.0
C1412 C 0.85555 0.51428 0.57061 0.0
H1413 H 0.87035 0.53005 0.66915 0.0
H1414 H 0.8674 0.52127 0.63207 0.0
H1415 H 0.84998 0.50545 0.6028 0.0
H1416 H 0.85899 0.53773 0.48405 0.0
H1417 H 0.84699 0.53501 0.51979 0.0
H1418 H 0.86309 0.55459 0.55254 0.0
C1419 C 0.86181 0.5294 0.63713 0.0
C1420 C 0.85279 0.51627 0.59201 0.0
C1421 C 0.86365 0.53453 0.65838 0.0
C1422 C 0.86449 0.5336 0.49681 0.0
C1423 C 0.85762 0.53204 0.51721 0.0
C1424 C 0.85986 0.54364 0.56332 0.0
C1425 C 0.85387 0.5356 0.62248 0.0
C1426 C 0.85419 0.53226 0.59942 0.0
C1427 C 0.86479 0.52723 0.53424 0.0
C1428 C 0.85942 0.52809 0.55619 0.0
H1429 H 0.84447 0.56064 0.65598 0.0
H1430 H 0.84046 0.55103 0.61916 0.0
H1431 H 0.85897 0.55841 0.58978 0.0
H1432 H 0.89652 0.52271 0.50781 0.0
H1433 H 0.88438 0.51987 0.54341 0.0
C1434 C 0.48159 0.36786 0.51006 0.0
C1435 C 0.47305 0.35332 0.49617 0.0
C1436 C 0.48568 0.36537 0.53071 0.0
C1437 C 0.48594 0.33141 0.56734 0.0
H1438 H 0.4746 0.35702 0.60921 0.0
C1439 C 0.45532 0.30487 0.64918 0.0
C1440 C 0.46104 0.31677 0.66638 0.0
C1441 C 0.46259 0.31077 0.62908 0.0
C1442 C 0.4782 0.35003 0.59776 0.0
H1443 H 0.46262 0.32491 0.49261 0.0
H1444 H 0.4688 0.32033 0.52894 0.0
H1445 H 0.47633 0.36502 0.57215 0.0
H1446 H 0.47963 0.34387 0.67632 0.0
H1447 H 0.49199 0.35425 0.64096 0.0
H1448 H 0.48633 0.3155 0.59318 0.0
C1449 C 0.47294 0.33378 0.52383 0.0
C1450 C 0.47926 0.35464 0.57644 0.0
C1451 C 0.4692 0.33635 0.50303 0.0
C1452 C 0.47489 0.33441 0.66335 0.0
C1453 C 0.48197 0.34037 0.64316 0.0
C1454 C 0.48458 0.3266 0.58869 0.0
C1455 C 0.48093 0.34822 0.53806 0.0
C1456 C 0.48265 0.34507 0.56088 0.0
C1457 C 0.47553 0.3287 0.62579 0.0
C1458 C 0.48026 0.33561 0.60397 0.0
H1459 H 0.485 0.38116 0.50502 0.0
H1460 H 0.49223 0.37687 0.54104 0.0
H1461 H 0.48899 0.32403 0.55585 0.0
H1462 H 0.44479 0.29115 0.65109 0.0
H1463 H 0.45729 0.30156 0.61588 0.0
C1464 C 0.69675 0.14368 0.64683 0.0
C1465 C 0.68455 0.14007 0.66341 0.0
C1466 C 0.69224 0.14526 0.62602 0.0
C1467 C 0.65335 0.1263 0.59314 0.0
H1468 H 0.68361 0.16062 0.55084 0.0
C1469 C 0.63271 0.11419 0.50632 0.0
C1470 C 0.64625 0.11763 0.4917 0.0
C1471 C 0.63697 0.12097 0.52684 0.0
C1472 C 0.67505 0.15086 0.56242 0.0
H1473 H 0.65847 0.13636 0.67131 0.0
H1474 H 0.65051 0.13876 0.63487 0.0
H1475 H 0.6925 0.16554 0.58815 0.0
H1476 H 0.67481 0.1314 0.48656 0.0
H1477 H 0.68238 0.14239 0.5228 0.0
H1478 H 0.63652 0.1109 0.56777 0.0
C1479 C 0.66355 0.14039 0.63807 0.0
C1480 C 0.68011 0.15376 0.58376 0.0
C1481 C 0.66813 0.13901 0.6589 0.0
C1482 C 0.66414 0.12858 0.49761 0.0
C1483 C 0.66844 0.13499 0.51836 0.0
C1484 C 0.64846 0.12322 0.57188 0.0
C1485 C 0.67539 0.14308 0.62142 0.0
C1486 C 0.66937 0.14138 0.59922 0.0
C1487 C 0.65489 0.13087 0.5334 0.0
C1488 C 0.65935 0.13532 0.55617 0.0
H1489 H 0.70957 0.14471 0.64982 0.0
H1490 H 0.70153 0.1472 0.6134 0.0
H1491 H 0.645 0.11638 0.60474 0.0
H1492 H 0.61879 0.10602 0.50195 0.0
H1493 H 0.62617 0.11799 0.53774 0.0
C1494 C 0.46992 0.14261 0.16232 0.0
C1495 C 0.45215 0.13862 0.16482 0.0
C1496 C 0.47759 0.14571 0.14215 0.0
C1497 C 0.48348 0.13603 0.09786 0.0
H1498 H 0.46735 0.15453 0.05223 0.0
C1499 C 0.46993 0.10638 0.01518 0.0
C1500 C 0.47127 0.11674 -0.00258 0.0
C1501 C 0.47347 0.11382 0.0354 0.0
C1502 C 0.47241 0.14968 0.06472 0.0
H1503 H 0.42877 0.13552 0.14822 0.0
H1504 H 0.44186 0.14035 0.11328 0.0
H1505 H 0.4633 0.16063 0.08874 0.0
H1506 H 0.47838 0.14333 0.98677 0.0
H1507 H 0.48484 0.15643 0.02217 0.0
H1508 H 0.49246 0.12494 0.07383 0.0
C1509 C 0.45008 0.14149 0.1268 0.0
C1510 C 0.46987 0.15299 0.08569 0.0
C1511 C 0.44247 0.13849 0.14689 0.0
C1512 C 0.47699 0.13493 0.0002 0.0
C1513 C 0.48069 0.14244 0.02047 0.0
C1514 C 0.48624 0.13291 0.07688 0.0
C1515 C 0.46762 0.14483 0.12413 0.0
C1516 C 0.47448 0.14536 0.10245 0.0
C1517 C 0.47862 0.13187 0.03834 0.0
C1518 C 0.47985 0.13888 0.06011 0.0
H1519 H 0.4778 0.14301 0.17588 0.0
H1520 H 0.49119 0.14843 0.14063 0.0
H1521 H 0.48725 0.12999 0.11037 0.0
H1522 H 0.46558 0.09233 0.0136 0.0
H1523 H 0.47138 0.10517 0.04879 0.0
C1524 C 0.85678 0.30699 0.15063 0.0
C1525 C 0.86299 0.31853 0.16814 0.0
C1526 C 0.85528 0.31326 0.13083 0.0
C1527 C 0.87766 0.35264 0.09958 0.0
H1528 H 0.83868 0.32711 0.06 0.0
C1529 C 0.88784 0.37007 0.01141 0.0
C1530 C 0.88109 0.35537 -0.00235 0.0
C1531 C 0.88229 0.36784 0.0325 0.0
C1532 C 0.84971 0.33437 0.07083 0.0
H1533 H 0.87185 0.34549 0.17893 0.0
H1534 H 0.86973 0.35659 0.14399 0.0
H1535 H 0.83461 0.31852 0.09735 0.0
H1536 H 0.86279 0.32695 0.99486 0.0
H1537 H 0.85378 0.32284 0.03181 0.0
H1538 H 0.89329 0.36755 0.07314 0.0
C1539 C 0.86585 0.34266 0.14576 0.0
C1540 C 0.8473 0.32953 0.09219 0.0
C1541 C 0.86706 0.33631 0.16567 0.0
C1542 C 0.86822 0.33852 0.00513 0.0
C1543 C 0.86292 0.33622 0.02631 0.0
C1544 C 0.88018 0.35729 0.0782 0.0
C1545 C 0.8602 0.33124 0.12814 0.0
C1546 C 0.86143 0.33832 0.10659 0.0
C1547 C 0.87015 0.35079 0.04037 0.0
C1548 C 0.86641 0.34785 0.06344 0.0
H1549 H 0.8534 0.29318 0.15212 0.0
H1550 H 0.85108 0.30426 0.11741 0.0
H1551 H 0.88881 0.35948 0.11037 0.0
H1552 H 0.89756 0.38329 0.00594 0.0
H1553 H 0.88783 0.37943 0.04273 0.0
C1554 C 0.63669 0.52891 0.01069 0.0
C1555 C 0.64577 0.52845 0.99248 0.0
C1556 C 0.64108 0.52521 0.03053 0.0
C1557 C 0.64794 0.51106 0.07055 0.0
H1558 H 0.69845 0.53693 0.08365 0.0
C1559 C 0.67171 0.52454 0.15681 0.0
C1560 C 0.6844 0.5425 0.16066 0.0
C1561 C 0.6682 0.5179 0.13611 0.0
C1562 C 0.68429 0.52954 0.08023 0.0
H1563 H 0.66618 0.52304 0.98072 0.0
H1564 H 0.67386 0.5165 0.0156 0.0
H1565 H 0.68878 0.53389 0.04692 0.0
H1566 H 0.70391 0.56736 0.14593 0.0
H1567 H 0.69742 0.55602 0.11004 0.0
H1568 H 0.64336 0.50806 0.10389 0.0
C1569 C 0.66343 0.51991 0.01444 0.0
C1570 C 0.67875 0.5276 0.05915 0.0
C1571 C 0.65903 0.52366 0.99449 0.0
C1572 C 0.694 0.55347 0.14353 0.0
C1573 C 0.69042 0.54688 0.1229 0.0
C1574 C 0.65347 0.51317 0.09163 0.0
C1575 C 0.65462 0.52085 0.03269 0.0
C1576 C 0.66049 0.51909 0.05418 0.0
C1577 C 0.67725 0.52911 0.11889 0.0
C1578 C 0.67169 0.52318 0.09674 0.0
H1579 H 0.62638 0.53251 0.00975 0.0
H1580 H 0.63429 0.52645 0.04428 0.0
H1581 H 0.63376 0.50404 0.06716 0.0
H1582 H 0.66424 0.51568 0.16972 0.0
H1583 H 0.65813 0.50409 0.13357 0.0
C1584 C 0.51942 0.85933 0.9932 0.0
C1585 C 0.52461 0.87728 -0.003 0.0
C1586 C 0.51649 0.8527 0.97253 0.0
C1587 C 0.51142 0.86381 0.91683 0.0
H1588 H 0.5355 0.83746 0.9033 0.0
C1589 C 0.55419 0.85943 0.84446 0.0
C1590 C 0.5437 0.85869 0.82708 0.0
C1591 C 0.54729 0.85657 0.86493 0.0
C1592 C 0.52863 0.84473 0.90683 0.0
H1593 H 0.53022 0.90219 0.98218 0.0
H1594 H 0.52569 0.89083 0.94625 0.0
H1595 H 0.53141 0.84272 0.94017 0.0
H1596 H 0.5174 0.85341 0.81742 0.0
H1597 H 0.50529 0.84823 0.8533 0.0
H1598 H 0.50996 0.86709 0.88349 0.0
C1599 C 0.52346 0.88171 0.95918 0.0
C1600 C 0.52608 0.84756 0.92798 0.0
C1601 C 0.52626 0.8883 0.9798 0.0
C1602 C 0.52589 0.85427 0.83052 0.0
C1603 C 0.51895 0.85132 0.85105 0.0
C1604 C 0.51413 0.86113 0.89568 0.0
C1605 C 0.5188 0.86391 0.95527 0.0
C1606 C 0.5181 0.85777 0.93319 0.0
C1607 C 0.5297 0.85277 0.86851 0.0
C1608 C 0.52343 0.85221 0.89049 0.0
H1609 H 0.51782 0.85044 0.00616 0.0
H1610 H 0.51271 0.83887 0.97005 0.0
H1611 H 0.50486 0.87139 0.92036 0.0
H1612 H 0.56794 0.86276 0.84238 0.0
H1613 H 0.55606 0.85813 0.87802 0.0
C1614 C 0.13068 0.66381 0.98935 0.0
C1615 C 0.11909 0.64618 -0.00435 0.0
C1616 C 0.1371 0.66752 0.96859 0.0
C1617 C 0.12423 0.64684 0.91561 0.0
H1618 H 0.16722 0.68993 0.89858 0.0
C1619 C 0.13775 0.66717 0.82856 0.0
C1620 C 0.13923 0.6839 0.8251 0.0
C1621 C 0.13976 0.66212 0.84891 0.0
C1622 C 0.15527 0.67776 0.90317 0.0
H1623 H 0.10637 0.61846 0.9861 0.0
H1624 H 0.11832 0.62477 0.95026 0.0
H1625 H 0.16268 0.68115 0.93591 0.0
H1626 H 0.14532 0.70896 0.83989 0.0
H1627 H 0.14889 0.70009 0.87543 0.0
H1628 H 0.11677 0.64357 0.88295 0.0
C1629 C 0.12181 0.63586 0.96087 0.0
C1630 C 0.15258 0.67279 0.92452 0.0
C1631 C 0.11501 0.63222 0.98142 0.0
C1632 C 0.14391 0.69591 0.84211 0.0
C1633 C 0.14613 0.69092 0.8624 0.0
C1634 C 0.12708 0.65164 0.89431 0.0
C1635 C 0.13236 0.65358 0.95392 0.0
C1636 C 0.13676 0.65754 0.93107 0.0
C1637 C 0.14354 0.67379 0.86606 0.0
C1638 C 0.14235 0.66739 0.88799 0.0
H1639 H 0.134 0.67479 0.00012 0.0
H1640 H 0.14501 0.68133 0.96382 0.0
H1641 H 0.1117 0.63523 0.91996 0.0
H1642 H 0.13426 0.65766 0.81575 0.0
H1643 H 0.13776 0.64885 0.85139 0.0
C1644 C 0.36647 0.48391 0.97566 0.0
C1645 C 0.35196 0.47549 0.98963 0.0
C1646 C 0.36372 0.48654 0.9545 0.0
C1647 C 0.32864 0.48189 0.91596 0.0
H1648 H 0.35532 0.46898 0.87753 0.0
C1649 C 0.30205 0.44365 0.838 0.0
C1650 C 0.31341 0.44908 0.82031 0.0
C1651 C 0.30814 0.45231 0.8574 0.0
C1652 C 0.34802 0.47298 0.88799 0.0
H1653 H 0.32334 0.46395 0.9928 0.0
H1654 H 0.31837 0.46763 0.95573 0.0
H1655 H 0.3639 0.47451 0.91454 0.0
H1656 H 0.33983 0.46823 0.80879 0.0
H1657 H 0.35063 0.48301 0.84304 0.0
H1658 H 0.31188 0.47882 0.88938 0.0
C1659 C 0.33196 0.47276 0.96108 0.0
C1660 C 0.35295 0.47624 0.90924 0.0
C1661 C 0.33476 0.47047 0.98234 0.0
C1662 C 0.33079 0.46372 0.82219 0.0
C1663 C 0.33697 0.47219 0.84171 0.0
C1664 C 0.32352 0.47831 0.89473 0.0
C1665 C 0.34636 0.48044 0.94677 0.0
C1666 C 0.343 0.48019 0.92365 0.0
C1667 C 0.32576 0.46637 0.85951 0.0
C1668 C 0.33289 0.47336 0.88076 0.0
H1669 H 0.37992 0.48821 0.98101 0.0
H1670 H 0.37517 0.49292 0.94407 0.0
H1671 H 0.32094 0.48533 0.92649 0.0
H1672 H 0.28854 0.43251 0.83695 0.0
H1673 H 0.29933 0.44746 0.871 0.0
C1674 C 0.15364 0.44966 0.34215 0.0
C1675 C 0.14449 0.45528 0.32868 0.0
C1676 C 0.15784 0.45613 0.36284 0.0
C1677 C 0.15656 0.4889 0.40062 0.0
H1678 H 0.14476 0.45083 0.44102 0.0
C1679 C 0.12127 0.4808 0.47974 0.0
C1680 C 0.12623 0.47431 0.49734 0.0
C1681 C 0.12983 0.4831 0.46033 0.0
C1682 C 0.14853 0.46175 0.43001 0.0
H1683 H 0.1333 0.47268 0.32583 0.0
H1684 H 0.13973 0.48327 0.36218 0.0
H1685 H 0.14822 0.44602 0.40393 0.0
H1686 H 0.14467 0.46607 0.50876 0.0
H1687 H 0.15932 0.46965 0.47451 0.0
H1688 H 0.1553 0.504 0.42683 0.0
C1689 C 0.14421 0.47431 0.35673 0.0
C1690 C 0.15056 0.45903 0.40868 0.0
C1691 C 0.14034 0.4681 0.33592 0.0
C1692 C 0.14052 0.47102 0.49543 0.0
C1693 C 0.14891 0.47307 0.47589 0.0
C1694 C 0.15423 0.4915 0.42196 0.0
C1695 C 0.15263 0.46807 0.37062 0.0
C1696 C 0.15398 0.47234 0.39359 0.0
C1697 C 0.14335 0.47875 0.45809 0.0
C1698 C 0.14963 0.47772 0.43668 0.0
H1699 H 0.15731 0.44002 0.33682 0.0
H1700 H 0.16472 0.45137 0.3729 0.0
H1701 H 0.15963 0.49959 0.38952 0.0
H1702 H 0.11042 0.48362 0.48081 0.0
H1703 H 0.12515 0.4873 0.44677 0.0
C1704 C 0.52777 0.66714 0.49725 0.0
C1705 C 0.524 0.64944 0.49965 0.0
C1706 C 0.52638 0.67343 0.47739 0.0
C1707 C 0.50858 0.66043 0.42346 0.0
H1708 H 0.55501 0.69834 0.40542 0.0
C1709 C 0.53142 0.66877 0.33729 0.0
C1710 C 0.54453 0.68553 0.32985 0.0
C1711 C 0.52565 0.66667 0.35826 0.0
C1712 C 0.54177 0.68812 0.41017 0.0
H1713 H 0.51458 0.62412 0.48361 0.0
H1714 H 0.512 0.63512 0.44896 0.0
H1715 H 0.54974 0.69036 0.44261 0.0
H1716 H 0.56097 0.71349 0.33791 0.0
H1717 H 0.55041 0.71 0.37433 0.0
H1718 H 0.50065 0.65795 0.39098 0.0
C1719 C 0.51609 0.6441 0.46241 0.0
C1720 C 0.53879 0.68353 0.43154 0.0
C1721 C 0.51775 0.63787 0.48216 0.0
C1722 C 0.55108 0.70035 0.34339 0.0
C1723 C 0.54505 0.69832 0.36426 0.0
C1724 C 0.51144 0.66523 0.40209 0.0
C1725 C 0.52087 0.66204 0.45976 0.0
C1726 C 0.52242 0.66921 0.4382 0.0
C1727 C 0.53262 0.68137 0.37212 0.0
C1728 C 0.52832 0.67863 0.39508 0.0
H1729 H 0.53255 0.67634 0.51049 0.0
H1730 H 0.53015 0.68733 0.47564 0.0
H1731 H 0.49579 0.64942 0.42835 0.0
H1732 H 0.52613 0.65712 0.32715 0.0
H1733 H 0.51631 0.65336 0.36378 0.0
C1734 C 0.3162 0.8487 0.33321 0.0
C1735 C 0.30477 0.85543 0.32866 0.0
C1736 C 0.3192 0.84568 0.35414 0.0
C1737 C 0.33468 0.8562 0.39799 0.0
H1738 H 0.3006 0.8458 0.44331 0.0
C1739 C 0.35567 0.88858 0.47895 0.0
C1740 C 0.34651 0.87932 0.49726 0.0
C1741 C 0.35009 0.88086 0.45904 0.0
C1742 C 0.31022 0.84837 0.43089 0.0
H1743 H 0.28684 0.86342 0.34235 0.0
H1744 H 0.29257 0.85883 0.37881 0.0
H1745 H 0.29018 0.83931 0.40677 0.0
H1746 H 0.32459 0.85441 0.50908 0.0
H1747 H 0.31484 0.84087 0.47407 0.0
H1748 H 0.35472 0.86544 0.42204 0.0
C1749 C 0.29892 0.85545 0.36628 0.0
C1750 C 0.30429 0.84486 0.40992 0.0
C1751 C 0.29576 0.85827 0.34535 0.0
C1752 C 0.33187 0.86194 0.49525 0.0
C1753 C 0.32627 0.85419 0.47523 0.0
C1754 C 0.34057 0.85955 0.41892 0.0
C1755 C 0.31101 0.84953 0.37095 0.0
C1756 C 0.31656 0.84948 0.39319 0.0
C1757 C 0.33524 0.86366 0.45692 0.0
C1758 C 0.32853 0.85645 0.43549 0.0
H1759 H 0.32311 0.84609 0.32063 0.0
H1760 H 0.32833 0.84079 0.35717 0.0
H1761 H 0.34454 0.86 0.38555 0.0
H1762 H 0.36701 0.90198 0.4799 0.0
H1763 H 0.35708 0.88868 0.44523 0.0
C1764 C 0.28172 0.2688 0.08616 0.0
C1765 C 0.26297 0.25912 0.08546 0.0
C1766 C 0.291 0.28712 0.08208 0.0
C1767 C 0.28546 0.32357 0.05873 0.0
H1768 H 0.32758 0.35391 0.0921 0.0
C1769 C 0.31734 0.4001 0.06179 0.0
C1770 C 0.33595 0.41011 0.05909 0.0
C1771 C 0.30881 0.38164 0.06457 0.0
C1772 C 0.31592 0.34557 0.08256 0.0
H1773 H 0.23929 0.26113 0.07986 0.0
H1774 H 0.2554 0.29307 0.07339 0.0
H1775 H 0.31192 0.32172 0.0976 0.0
H1776 H 0.36022 0.40858 0.05758 0.0
H1777 H 0.34526 0.37631 0.06276 0.0
H1778 H 0.28926 0.34758 0.04415 0.0
C1779 C 0.263 0.28649 0.07658 0.0
C1780 C 0.30697 0.32711 0.08561 0.0
C1781 C 0.25373 0.26815 0.08042 0.0
C1782 C 0.34586 0.40126 0.05956 0.0
C1783 C 0.33733 0.38281 0.06261 0.0
C1784 C 0.29429 0.34204 0.05586 0.0
C1785 C 0.28176 0.29624 0.07741 0.0
C1786 C 0.29158 0.31587 0.07378 0.0
C1787 C 0.31871 0.37281 0.06498 0.0
C1788 C 0.30957 0.35321 0.06779 0.0
H1789 H 0.28925 0.26222 0.08982 0.0
H1790 H 0.30544 0.2941 0.08248 0.0
H1791 H 0.27388 0.31534 0.04902 0.0
H1792 H 0.3093 0.40648 0.06152 0.0
H1793 H 0.29446 0.37427 0.06658 0.0
C1794 C 0.59762 0.91695 0.07341 0.0
C1795 C 0.58796 0.92581 0.06989 0.0
C1796 C 0.61599 0.92663 0.07718 0.0
C1797 C 0.65542 0.97191 0.07053 0.0
H1798 H 0.67762 0.95361 0.10871 0.0
C1799 C 0.72956 0.01241 0.09635 0.0
C1800 C 0.73923 0.00334 0.09502 0.0
C1801 C 0.71104 0.00322 0.09362 0.0
C1802 C 0.67159 0.95882 0.09792 0.0
H1803 H 0.58995 0.95177 0.06823 0.0
H1804 H 0.62182 0.9686 0.07546 0.0
H1805 H 0.64532 0.93716 0.10399 0.0
H1806 H 0.73697 0.97749 0.08984 0.0
H1807 H 0.70466 0.9615 0.08536 0.0
H1808 H 0.68177 0.99376 0.06483 0.0
C1809 C 0.61534 0.9542 0.07469 0.0
C1810 C 0.65309 0.94937 0.09513 0.0
C1811 C 0.59702 0.94454 0.07067 0.0
C1812 C 0.72996 0.9849 0.09095 0.0
C1813 C 0.71144 0.9757 0.0885 0.0
C1814 C 0.6739 0.98146 0.07353 0.0
C1815 C 0.62512 0.94539 0.07778 0.0
C1816 C 0.64477 0.95572 0.08127 0.0
C1817 C 0.7018 0.98476 0.0898 0.0
C1818 C 0.68216 0.97494 0.08712 0.0
H1819 H 0.59107 0.90253 0.07282 0.0
H1820 H 0.62308 0.91937 0.07916 0.0
H1821 H 0.64956 0.97707 0.05944 0.0
H1822 H 0.7363 0.02661 0.09943 0.0
H1823 H 0.70391 0.0105 0.0948 0.0
C1824 C 0.98473 0.71793 0.09809 0.0
C1825 C 0.99397 0.73667 0.09823 0.0
C1826 C 0.9938 0.7086 0.09445 0.0
C1827 C 0.03645 0.7146 0.07275 0.0
H1828 H 0.02205 0.66998 0.1019 0.0
C1829 C 0.07828 0.67946 0.07146 0.0
C1830 C 0.06895 0.66114 0.06671 0.0
C1831 C 0.06906 0.68856 0.0756 0.0
C1832 C 0.02613 0.68237 0.09356 0.0
H1833 H 0.02007 0.76031 0.09505 0.0
H1834 H 0.03594 0.74409 0.08943 0.0
H1835 H 0.00624 0.6862 0.10885 0.0
H1836 H 0.0426 0.63795 0.06293 0.0
H1837 H 0.02652 0.65385 0.07046 0.0
H1838 H 0.05661 0.71089 0.05786 0.0
C1839 C 0.02161 0.73654 0.09151 0.0
C1840 C 0.01704 0.69165 0.09745 0.0
C1841 C 0.01251 0.74587 0.09489 0.0
C1842 C 0.05019 0.65207 0.06648 0.0
C1843 C 0.04097 0.66113 0.0709 0.0
C1844 C 0.04567 0.70543 0.06908 0.0
C1845 C 0.01237 0.71778 0.09111 0.0
C1846 C 0.02206 0.70788 0.08707 0.0
C1847 C 0.05032 0.67949 0.07534 0.0
C1848 C 0.04058 0.68922 0.07941 0.0
H1849 H 0.97042 0.71044 0.10046 0.0
H1850 H 0.98617 0.69417 0.09391 0.0
H1851 H 0.04049 0.72684 0.06411 0.0
H1852 H 0.09272 0.68686 0.07169 0.0
H1853 H 0.07659 0.70268 0.07914 0.0
C1854 C 0.39644 0.31679 0.42348 0.0
C1855 C 0.40556 0.33522 0.42753 0.0
C1856 C 0.378 0.30755 0.42024 0.0
C1857 C 0.33736 0.31111 0.42873 0.0
H1858 H 0.31667 0.27227 0.38818 0.0
C1859 C 0.26368 0.27715 0.40117 0.0
C1860 C 0.25436 0.25839 0.40048 0.0
C1861 C 0.28207 0.28659 0.4049 0.0
C1862 C 0.32226 0.283 0.39968 0.0
H1863 H 0.40247 0.35846 0.43101 0.0
H1864 H 0.37039 0.34246 0.42474 0.0
H1865 H 0.3489 0.28886 0.39325 0.0
H1866 H 0.25709 0.23488 0.40331 0.0
H1867 H 0.28923 0.25142 0.40957 0.0
H1868 H 0.31062 0.30539 0.43474 0.0
C1869 C 0.3774 0.33502 0.4246 0.0
C1870 C 0.34073 0.29249 0.40265 0.0
C1871 C 0.39583 0.34424 0.42807 0.0
C1872 C 0.26384 0.24931 0.40372 0.0
C1873 C 0.28226 0.25877 0.4072 0.0
C1874 C 0.31889 0.30173 0.42557 0.0
C1875 C 0.36822 0.31654 0.42073 0.0
C1876 C 0.34854 0.30663 0.41729 0.0
C1877 C 0.29156 0.2775 0.40777 0.0
C1878 C 0.31116 0.28753 0.41108 0.0
H1879 H 0.40349 0.30939 0.42308 0.0
H1880 H 0.37138 0.29329 0.41768 0.0
H1881 H 0.34283 0.32169 0.4404 0.0
H1882 H 0.25679 0.28457 0.39878 0.0
H1883 H 0.28892 0.30103 0.40512 0.0
C1884 C 0.71592 0.98045 0.39841 0.0
C1885 C 0.73467 0.98984 0.39938 0.0
C1886 C 0.70629 0.98926 0.40179 0.0
C1887 C 0.71004 0.03284 0.39685 0.0
H1888 H 0.67059 0.01504 0.4365 0.0
C1889 C 0.67684 0.07409 0.4187 0.0
C1890 C 0.65846 0.0651 0.42305 0.0
C1891 C 0.6858 0.06459 0.41568 0.0
C1892 C 0.68136 0.02006 0.42508 0.0
H1893 H 0.758 0.01583 0.40472 0.0
H1894 H 0.74116 0.03122 0.41023 0.0
H1895 H 0.6867 -0.00115 0.43163 0.0
H1896 H 0.63497 0.03905 0.42716 0.0
H1897 H 0.65044 0.02243 0.42109 0.0
H1898 H 0.70453 0.05372 0.38973 0.0
C1899 C 0.73396 0.01704 0.40697 0.0
C1900 C 0.69064 0.01081 0.42241 0.0
C1901 C 0.74357 0.00819 0.40395 0.0
C1902 C 0.64917 0.04638 0.42398 0.0
C1903 C 0.65809 0.03685 0.42065 0.0
C1904 C 0.70061 0.04193 0.39925 0.0
C1905 C 0.71525 0.00767 0.40583 0.0
C1906 C 0.70515 0.01721 0.40841 0.0
C1907 C 0.67656 0.04584 0.4166 0.0
C1908 C 0.68623 0.03577 0.41354 0.0
H1909 H 0.70867 0.96629 0.39497 0.0
H1910 H 0.69187 0.98176 0.40074 0.0
H1911 H 0.72103 0.03791 0.38572 0.0
H1912 H 0.68443 0.08852 0.41804 0.0
H1913 H 0.70007 0.07204 0.41303 0.0
C1914 C 0.94725 0.6036 0.43098 0.0
C1915 C 0.93063 0.59265 0.42129 0.0
C1916 C 0.95665 0.62194 0.42711 0.0
C1917 C 0.96172 0.65631 0.38923 0.0
H1918 H 0.97958 0.68815 0.43764 0.0
C1919 C 0.00748 0.73287 0.38169 0.0
C1920 C 0.00249 0.74326 0.39392 0.0
C1921 C -0.00087 0.71442 0.3847 0.0
C1922 C 0.97464 0.67941 0.42399 0.0
H1923 H 0.91108 0.59236 0.39947 0.0
H1924 H 0.92763 0.6244 0.39257 0.0
H1925 H 0.96428 0.6559 0.44317 0.0
H1926 H 0.98497 0.7424 0.41908 0.0
H1927 H 0.97059 0.71025 0.42444 0.0
H1928 H 0.97205 0.67987 0.37007 0.0
C1929 C 0.93332 0.61874 0.4032 0.0
C1930 C 0.96603 0.66099 0.42713 0.0
C1931 C 0.92381 0.60041 0.40726 0.0
C1932 C 0.9891 0.7348 0.40935 0.0
C1933 C 0.98093 0.71641 0.41252 0.0
C1934 C 0.97054 0.67476 0.38607 0.0
C1935 C 0.94973 0.6297 0.41327 0.0
C1936 C 0.95937 0.64925 0.4098 0.0
C1937 C 0.98582 0.70603 0.40018 0.0
C1938 C 0.97696 0.68648 0.40344 0.0
H1939 H 0.95289 0.59806 0.44187 0.0
H1940 H 0.96935 0.63008 0.43494 0.0
H1941 H 0.9568 0.64756 0.37559 0.0
H1942 H 0.01773 0.73896 0.36966 0.0
H1943 H 0.00324 0.70674 0.37507 0.0
C1944 C 0.65157 0.60342 0.92196 0.0
C1945 C 0.66009 0.5932 0.92136 0.0
C1946 C 0.66112 0.6217 0.9177 0.0
C1947 C 0.70584 0.66028 0.92015 0.0
H1948 H 0.68791 0.68207 0.88086 0.0
C1949 C 0.74781 0.7344 0.89701 0.0
C1950 C 0.73894 0.74404 0.89354 0.0
C1951 C 0.73817 0.71594 0.89988 0.0
C1952 C 0.693 0.67628 0.89214 0.0
H1953 H 0.6853 0.59417 0.91568 0.0
H1954 H 0.70202 0.6262 0.90862 0.0
H1955 H 0.67099 0.64994 0.88682 0.0
H1956 H 0.71296 0.74189 0.89064 0.0
H1957 H 0.69611 0.70979 0.8964 0.0
H1958 H 0.72753 0.68652 0.9261 0.0
C1959 C 0.68794 0.61999 0.91232 0.0
C1960 C 0.68333 0.65785 0.89544 0.0
C1961 C 0.67834 0.60165 0.91626 0.0
C1962 C 0.7202 0.73482 0.89313 0.0
C1963 C 0.71053 0.71637 0.8963 0.0
C1964 C 0.71538 0.67872 0.91711 0.0
C1965 C 0.67943 0.63018 0.91306 0.0
C1966 C 0.6897 0.64968 0.90942 0.0
C1967 C 0.71939 0.70666 0.89966 0.0
C1968 C 0.70913 0.68699 0.903 0.0
H1969 H 0.63751 0.5973 0.92576 0.0
H1970 H 0.65428 0.62929 0.91849 0.0
H1971 H 0.71091 0.65432 0.93125 0.0
H1972 H 0.76225 0.74108 0.89723 0.0
H1973 H 0.7455 0.70893 0.90199 0.0
C1974 C 0.39524 0.07438 0.92603 0.0
C1975 C 0.40496 0.0655 0.92892 0.0
C1976 C 0.37677 0.06473 0.92316 0.0
C1977 C 0.3402 0.02215 0.90489 0.0
H1978 H 0.31054 0.0341 0.93933 0.0
C1979 C 0.26316 0.98138 0.90051 0.0
C1980 C 0.25395 0.99087 0.90208 0.0
C1981 C 0.28149 0.98983 0.9046 0.0
C1982 C 0.3186 0.03072 0.92935 0.0
H1983 H 0.40292 0.0395 0.9306 0.0
H1984 H 0.37062 0.02266 0.92516 0.0
H1985 H 0.34279 0.05034 0.9442 0.0
H1986 H 0.25681 0.01672 0.90892 0.0
H1987 H 0.2887 0.03154 0.91537 0.0
H1988 H 0.31618 0.00295 0.88949 0.0
C1989 C 0.37736 0.0371 0.92529 0.0
C1990 C 0.33707 0.04 0.93224 0.0
C1991 C 0.39582 0.04674 0.92849 0.0
C1992 C 0.26344 0.00896 0.90782 0.0
C1993 C 0.28177 0.01745 0.91164 0.0
C1994 C 0.32173 0.01302 0.90177 0.0
C1995 C 0.36766 0.04601 0.92279 0.0
C1996 C 0.34805 0.03585 0.91998 0.0
C1997 C 0.29106 0.00801 0.9101 0.0
C1998 C 0.31068 0.01725 0.91389 0.0
H1999 H 0.40186 0.08881 0.92628 0.0
H2000 H 0.36961 0.07192 0.92107 0.0
H2001 H 0.3484 0.0188 0.89512 0.0
H2002 H 0.25619 0.96739 0.89623 0.0
H2003 H 0.28811 0.98204 0.90359 0.0
C2004 C 0.92118 0.31926 0.9272 0.0
C2005 C 0.9298 0.33796 0.92849 0.0
C2006 C 0.93107 0.31064 0.92481 0.0
C2007 C 0.97328 0.31656 0.90515 0.0
H2008 H 0.96338 0.27693 0.94223 0.0
C2009 C 0.01431 0.28067 0.90046 0.0
C2010 C 0.0049 0.26203 0.90281 0.0
C2011 C 0.00607 0.29068 0.90496 0.0
C2012 C 0.96619 0.28781 0.93155 0.0
H2013 H 0.95555 0.36229 0.92784 0.0
H2014 H 0.97279 0.34715 0.92324 0.0
H2015 H 0.94692 0.29277 0.94669 0.0
H2016 H 0.97948 0.23931 0.91188 0.0
H2017 H 0.96501 0.2566 0.91906 0.0
H2018 H 0.99206 0.3113 0.88947 0.0
C2019 C 0.95839 0.33923 0.92425 0.0
C2020 C 0.95679 0.29692 0.93419 0.0
C2021 C 0.94852 0.34786 0.92696 0.0
C2022 C 0.98717 0.25366 0.91004 0.0
C2023 C 0.97889 0.26362 0.91429 0.0
C2024 C 0.98252 0.3073 0.90231 0.0
C2025 C 0.94976 0.32053 0.92335 0.0
C2026 C 0.96017 0.3113 0.92094 0.0
C2027 C 0.98817 0.28226 0.91169 0.0
C2028 C 0.979 0.29271 0.91538 0.0
H2029 H 0.90679 0.31123 0.92833 0.0
H2030 H 0.92409 0.29621 0.92393 0.0
H2031 H 0.97602 0.32752 0.89461 0.0
H2032 H 0.02803 0.28754 0.89506 0.0
H2033 H 0.01376 0.30502 0.90314 0.0
C2034 C 0.7295 0.7382 0.58082 0.0
C2035 C 0.73764 0.73241 0.59568 0.0
C2036 C 0.71109 0.72845 0.57749 0.0
C2037 C 0.66911 0.69699 0.60312 0.0
H2038 H 0.65023 0.68682 0.54586 0.0
C2039 C 0.59495 0.67135 0.58281 0.0
C2040 C 0.58694 0.65721 0.56822 0.0
C2041 C 0.6133 0.67985 0.58665 0.0
C2042 C 0.65532 0.68948 0.56193 0.0
H2043 H 0.73279 0.71186 0.61874 0.0
H2044 H 0.70055 0.69495 0.61305 0.0
H2045 H 0.68251 0.70294 0.55147 0.0
H2046 H 0.59195 0.64085 0.54634 0.0
H2047 H 0.62402 0.65588 0.55292 0.0
H2048 H 0.64189 0.68366 0.61357 0.0
C2049 C 0.70848 0.70704 0.604 0.0
C2050 C 0.67377 0.69882 0.56513 0.0
C2051 C 0.72694 0.71667 0.60716 0.0
C2052 C 0.59768 0.6517 0.55768 0.0
C2053 C 0.61605 0.66034 0.56134 0.0
C2054 C 0.65065 0.68784 0.59991 0.0
C2055 C 0.70039 0.71282 0.5891 0.0
C2056 C 0.68083 0.70267 0.58575 0.0
C2057 C 0.62404 0.67453 0.57582 0.0
C2058 C 0.64359 0.684 0.57929 0.0
H2059 H 0.73735 0.75023 0.57168 0.0
H2060 H 0.70517 0.73328 0.56603 0.0
H2061 H 0.67421 0.69989 0.61918 0.0
H2062 H 0.58707 0.67592 0.59123 0.0
H2063 H 0.61915 0.69085 0.59778 0.0
C2064 C 0.32035 0.92224 0.5774 0.0
C2065 C 0.33842 0.9311 0.57149 0.0
C2066 C 0.31175 0.93185 0.58197 0.0
C2067 C 0.31555 0.97593 0.57299 0.0
H2068 H 0.27849 0.95912 0.61581 0.0
C2069 C 0.27986 0.01473 0.59783 0.0
C2070 C 0.26112 0.00453 0.59842 0.0
C2071 C 0.29008 0.00643 0.59548 0.0
C2072 C 0.28878 0.96392 0.60376 0.0
H2073 H 0.36178 0.95708 0.5663 0.0
H2074 H 0.34692 0.9739 0.57485 0.0
H2075 H 0.29521 0.94362 0.61065 0.0
H2076 H 0.23846 0.9776 0.59714 0.0
H2077 H 0.25634 0.96319 0.59329 0.0
H2078 H 0.30914 0.99636 0.56633 0.0
C2079 C 0.33924 0.95947 0.57544 0.0
C2080 C 0.29832 0.95501 0.60072 0.0
C2081 C 0.3478 0.94983 0.57065 0.0
C2082 C 0.25286 0.98587 0.59673 0.0
C2083 C 0.26308 0.97759 0.59466 0.0
C2084 C 0.30613 0.98495 0.5762 0.0
C2085 C 0.32106 0.9506 0.58096 0.0
C2086 C 0.31166 0.96075 0.58509 0.0
C2087 C 0.28178 0.98778 0.59397 0.0
C2088 C 0.2925 0.97889 0.59142 0.0
H2089 H 0.31268 0.90782 0.57799 0.0
H2090 H 0.29767 0.92453 0.58578 0.0
H2091 H 0.32553 0.98057 0.56059 0.0
H2092 H 0.28663 0.02913 0.59905 0.0
H2093 H 0.30449 0.01458 0.59509 0.0
C2094 C 0.00967 0.26724 0.58369 0.0
C2095 C 0.99094 0.25753 0.58467 0.0
C2096 C 0.01868 0.28569 0.58072 0.0
C2097 C 0.01384 0.3224 0.5598 0.0
H2098 H 0.05281 0.35173 0.5979 0.0
C2099 C 0.04927 0.39946 0.55795 0.0
C2100 C 0.06781 0.40882 0.56125 0.0
C2101 C 0.03939 0.38101 0.56115 0.0
C2102 C 0.04213 0.34376 0.58692 0.0
H2103 H 0.96695 0.25955 0.58275 0.0
H2104 H 0.98275 0.29179 0.57724 0.0
H2105 H 0.03678 0.31944 0.60206 0.0
H2106 H 0.09055 0.40609 0.57026 0.0
H2107 H 0.07351 0.37404 0.5752 0.0
H2108 H 0.01942 0.34661 0.54426 0.0
C2109 C 0.99041 0.28507 0.57889 0.0
C2110 C 0.03293 0.32526 0.58937 0.0
C2111 C 0.9814 0.26664 0.58214 0.0
C2112 C 0.07626 0.39934 0.56776 0.0
C2113 C 0.06644 0.38092 0.57073 0.0
C2114 C 0.02319 0.34091 0.55716 0.0
C2115 C 0.00913 0.29479 0.57839 0.0
C2116 C 0.01874 0.31441 0.5758 0.0
C2117 C 0.04787 0.3715 0.56752 0.0
C2118 C 0.03751 0.35183 0.57064 0.0
H2119 H 0.01743 0.26064 0.58556 0.0
H2120 H 0.03313 0.29287 0.58019 0.0
H2121 H 0.00301 0.3143 0.54903 0.0
H2122 H 0.04235 0.40639 0.55304 0.0
H2123 H 0.02508 0.37425 0.55883 0.0
C2124 C 0.06392 0.65237 0.75358 0.0
C2125 C 0.07326 0.67074 0.75806 0.0
C2126 C 0.04539 0.64327 0.75119 0.0
C2127 C 0.00769 0.64925 0.73751 0.0
H2128 H 0.9795 0.60532 0.76878 0.0
C2129 C 0.93072 0.61301 0.73744 0.0
C2130 C 0.92149 0.59427 0.73707 0.0
C2131 C 0.94916 0.62258 0.74073 0.0
C2132 C 0.98715 0.61742 0.75969 0.0
H2133 H 0.07047 0.69404 0.76302 0.0
H2134 H 0.03809 0.67814 0.75845 0.0
H2135 H 0.01189 0.62144 0.77229 0.0
H2136 H 0.92443 0.57089 0.73989 0.0
H2137 H 0.95657 0.58752 0.74494 0.0
H2138 H 0.98312 0.64508 0.72439 0.0
C2139 C 0.04516 0.67082 0.75695 0.0
C2140 C 0.00571 0.62667 0.76178 0.0
C2141 C 0.06368 0.67988 0.75965 0.0
C2142 C 0.9311 0.58532 0.74023 0.0
C2143 C 0.94956 0.59489 0.74325 0.0
C2144 C 0.98914 0.63988 0.73519 0.0
C2145 C 0.03583 0.6524 0.75291 0.0
C2146 C 0.01615 0.64266 0.75071 0.0
C2147 C 0.95887 0.61365 0.74348 0.0
C2148 C 0.97861 0.62382 0.74624 0.0
H2149 H 0.07088 0.64492 0.75226 0.0
H2150 H 0.03852 0.6291 0.74787 0.0
H2151 H 0.01547 0.66147 0.72864 0.0
H2152 H 0.92369 0.62031 0.73522 0.0
H2153 H 0.95578 0.637 0.74121 0.0
C2154 C 0.34075 0.40412 0.74629 0.0
C2155 C 0.32249 0.39492 0.75127 0.0
C2156 C 0.34989 0.39486 0.74289 0.0
C2157 C 0.34667 0.35101 0.7528 0.0
H2158 H 0.38593 0.36931 0.71279 0.0
C2159 C 0.38426 0.31379 0.72839 0.0
C2160 C 0.40296 0.32402 0.72984 0.0
C2161 C 0.37379 0.32182 0.73075 0.0
C2162 C 0.37503 0.36411 0.72406 0.0
H2163 H 0.29936 0.36874 0.75609 0.0
H2164 H 0.31515 0.35248 0.74937 0.0
H2165 H 0.36844 0.38415 0.71639 0.0
H2166 H 0.42532 0.35069 0.73494 0.0
H2167 H 0.40702 0.36472 0.73861 0.0
H2168 H 0.35315 0.33069 0.75997 0.0
C2169 C 0.32257 0.36691 0.74869 0.0
C2170 C 0.36504 0.37264 0.72623 0.0
C2171 C 0.31347 0.37621 0.75241 0.0
C2172 C 0.41096 0.34243 0.73375 0.0
C2173 C 0.40051 0.35049 0.73574 0.0
C2174 C 0.3565 0.34231 0.75035 0.0
C2175 C 0.34094 0.37613 0.74405 0.0
C2176 C 0.35088 0.36637 0.74085 0.0
C2177 C 0.38186 0.34027 0.73424 0.0
C2178 C 0.3709 0.34893 0.73617 0.0
H2179 H 0.34814 0.41854 0.74555 0.0
H2180 H 0.36409 0.40249 0.73982 0.0
H2181 H 0.33607 0.34594 0.76445 0.0
H2182 H 0.37769 0.29957 0.72547 0.0
H2183 H 0.35942 0.31369 0.72947 0.0
C2184 C 0.61301 0.93351 0.75792 0.0
C2185 C 0.59426 0.92385 0.75763 0.0
C2186 C 0.62222 0.95193 0.75449 0.0
C2187 C 0.61626 0.98885 0.73357 0.0
H2188 H 0.65939 0.01845 0.76573 0.0
C2189 C 0.64996 0.06565 0.73706 0.0
C2190 C 0.66846 0.0751 0.7333 0.0
C2191 C 0.64101 0.04719 0.74003 0.0
C2192 C 0.64742 0.01031 0.75655 0.0
H2193 H 0.57049 0.92598 0.75353 0.0
H2194 H 0.58648 0.95807 0.74823 0.0
H2195 H 0.64353 0.9862 0.77072 0.0
H2196 H 0.6921 0.0726 0.73019 0.0
H2197 H 0.67644 0.04038 0.73572 0.0
H2198 H 0.62001 0.01312 0.71984 0.0
C2199 C 0.59414 0.95142 0.75056 0.0
C2200 C 0.63836 0.99183 0.75931 0.0
C2201 C 0.58494 0.93299 0.75374 0.0
C2202 C 0.67784 0.06572 0.73298 0.0
C2203 C 0.66891 0.04729 0.73624 0.0
C2204 C 0.6252 0.00735 0.73103 0.0
C2205 C 0.6129 0.96115 0.75092 0.0
C2206 C 0.62267 0.98084 0.74784 0.0
C2207 C 0.6504 0.03784 0.73962 0.0
C2208 C 0.64087 0.01825 0.74247 0.0
H2209 H 0.6206 0.92685 0.76071 0.0
H2210 H 0.63667 0.9589 0.75448 0.0
H2211 H 0.60443 0.98082 0.72415 0.0
H2212 H 0.64234 0.07247 0.73741 0.0
H2213 H 0.62674 0.04022 0.7428 0.0
C2214 C 0.4084 0.0638 0.23801 0.0
C2215 C 0.39938 0.07306 0.23297 0.0
C2216 C 0.39895 0.04536 0.24108 0.0
C2217 C 0.35517 0.00808 0.25544 0.0
H2218 H 0.37144 0.97918 0.22676 0.0
C2219 C 0.31459 0.93112 0.25738 0.0
C2220 C 0.32413 0.92193 0.25873 0.0
C2221 C 0.32352 0.94952 0.2539 0.0
C2222 C 0.36684 0.98704 0.23514 0.0
H2223 H 0.3733 0.07023 0.22763 0.0
H2224 H 0.35679 0.03799 0.23329 0.0
H2225 H 0.38756 0.01141 0.22187 0.0
H2226 H 0.35055 0.92492 0.25761 0.0
H2227 H 0.36614 0.95701 0.25216 0.0
H2228 H 0.3347 0.98385 0.26914 0.0
C2229 C 0.37119 0.04506 0.23476 0.0
C2230 C 0.37606 0.0055 0.23226 0.0
C2231 C 0.38066 0.0635 0.23143 0.0
C2232 C 0.34278 0.93156 0.25653 0.0
C2233 C 0.35172 0.94998 0.25326 0.0
C2234 C 0.34605 0.98962 0.25852 0.0
C2235 C 0.38026 0.03581 0.23943 0.0
C2236 C 0.37033 0.0162 0.24239 0.0
C2237 C 0.34221 0.95921 0.25188 0.0
C2238 C 0.35178 0.97886 0.24843 0.0
H2239 H 0.42281 0.07074 0.23931 0.0
H2240 H 0.40626 0.03858 0.24488 0.0
H2241 H 0.35058 0.01606 0.26361 0.0
H2242 H 0.30019 0.92408 0.25886 0.0
H2243 H 0.31572 0.95611 0.25255 0.0
C2244 C 0.93299 0.31568 0.23758 0.0
C2245 C 0.92357 0.32498 0.23938 0.0
C2246 C 0.95139 0.32439 0.24132 0.0
C2247 C 0.99094 0.36855 0.23905 0.0
H2248 H 0.01298 0.34938 0.27617 0.0
C2249 C 0.0646 0.41048 0.26286 0.0
C2250 C 0.07473 0.40197 0.26505 0.0
C2251 C 0.04616 0.40053 0.26003 0.0
C2252 C 0.0071 0.3548 0.26549 0.0
H2253 H 0.92611 0.35065 0.24667 0.0
H2254 H 0.95816 0.36579 0.25291 0.0
H2255 H 0.98071 0.33273 0.27061 0.0
H2256 H 0.07339 0.37628 0.26594 0.0
H2257 H 0.04122 0.35889 0.26033 0.0
H2258 H 0.01714 0.39036 0.23342 0.0
C2259 C 0.95129 0.35179 0.24866 0.0
C2260 C 0.98861 0.34528 0.26239 0.0
C2261 C 0.93291 0.34306 0.24523 0.0
C2262 C 0.06596 0.38324 0.26441 0.0
C2263 C 0.04749 0.37327 0.2613 0.0
C2264 C 0.0094 0.37794 0.24191 0.0
C2265 C 0.96073 0.34259 0.24659 0.0
C2266 C 0.98036 0.35219 0.24935 0.0
C2267 C 0.03735 0.38179 0.259 0.0
C2268 C 0.01772 0.37132 0.25538 0.0
H2269 H 0.92618 0.30173 0.23316 0.0
H2270 H 0.9584 0.31702 0.23955 0.0
H2271 H 0.98493 0.37402 0.22862 0.0
H2272 H 0.0709 0.42488 0.26348 0.0
H2273 H 0.03879 0.40757 0.25883 0.0
C2274 C 0.61099 0.67611 0.25927 0.0
C2275 C 0.59223 0.6667 0.25976 0.0
C2276 C 0.62043 0.66712 0.25578 0.0
C2277 C 0.61664 0.62322 0.26089 0.0
H2278 H 0.65506 0.64111 0.21978 0.0
C2279 C 0.6495 0.58226 0.23556 0.0
C2280 C 0.66791 0.59145 0.23132 0.0
C2281 C 0.64045 0.5916 0.23929 0.0
C2282 C 0.64456 0.63606 0.23157 0.0
H2283 H 0.56869 0.64046 0.25693 0.0
H2284 H 0.58521 0.62483 0.25108 0.0
H2285 H 0.6391 0.65728 0.2259 0.0
H2286 H 0.69132 0.61771 0.2281 0.0
H2287 H 0.67567 0.63397 0.23519 0.0
H2288 H 0.62222 0.60218 0.26691 0.0
C2289 C 0.59258 0.63914 0.25343 0.0
C2290 C 0.63539 0.64531 0.235 0.0
C2291 C 0.58313 0.64813 0.25666 0.0
C2292 C 0.67711 0.6102 0.23115 0.0
C2293 C 0.66809 0.61954 0.23509 0.0
C2294 C 0.62593 0.61406 0.25764 0.0
C2295 C 0.61131 0.64853 0.25296 0.0
C2296 C 0.62128 0.63893 0.2496 0.0
C2297 C 0.64963 0.61036 0.23908 0.0
C2298 C 0.63995 0.6203 0.24285 0.0
H2299 H 0.61841 0.69042 0.26155 0.0
H2300 H 0.63488 0.67467 0.25562 0.0
H2301 H 0.60597 0.61812 0.27246 0.0
H2302 H 0.64198 0.56782 0.23571 0.0
H2303 H 0.62619 0.58406 0.24196 0.0
C2304 C 0.29139 0.19323 0.14444 0.0
C2305 C 0.29811 0.20376 0.1261 0.0
C2306 C 0.30015 0.18499 0.15337 0.0
C2307 C 0.33001 0.16812 0.13938 0.0
H2308 H 0.33503 0.16606 0.20026 0.0
C2309 C 0.37167 0.14044 0.1774 0.0
C2310 C 0.36561 0.13072 0.1964 0.0
C2311 C 0.36287 0.14868 0.16859 0.0
C2312 C 0.33348 0.16628 0.18324 0.0
H2313 H 0.31956 0.21429 0.10307 0.0
H2314 H 0.33497 0.19981 0.11877 0.0
H2315 H 0.32195 0.18307 0.18576 0.0
H2316 H 0.34516 0.12154 0.22065 0.0
H2317 H 0.32954 0.13578 0.20501 0.0
H2318 H 0.3414 0.15123 0.13683 0.0
C2319 C 0.32281 0.19789 0.12609 0.0
C2320 C 0.32609 0.17611 0.17494 0.0
C2321 C 0.31408 0.20628 0.11721 0.0
C2322 C 0.35017 0.12894 0.20602 0.0
C2323 C 0.34132 0.13723 0.19716 0.0
C2324 C 0.33734 0.15824 0.14768 0.0
C2325 C 0.3158 0.18699 0.14413 0.0
C2326 C 0.3243 0.17715 0.15292 0.0
C2327 C 0.34774 0.1474 0.17849 0.0
C2328 C 0.3392 0.15723 0.16971 0.0
H2329 H 0.27912 0.19105 0.15173 0.0
H2330 H 0.29433 0.17656 0.16714 0.0
H2331 H 0.3285 0.1684 0.12236 0.0
H2332 H 0.38353 0.14209 0.16953 0.0
H2333 H 0.3683 0.15657 0.15435 0.0
C2334 C 0.86792 0.22217 0.2069 0.0
C2335 C 0.86806 0.23653 0.19636 0.0
C2336 C 0.86004 0.20532 0.19741 0.0
C2337 C 0.82623 0.17847 0.15724 0.0
H2338 H 0.84606 0.1472 0.16227 0.0
C2339 C 0.79726 0.1105 0.11363 0.0
C2340 C 0.79697 0.09646 0.12514 0.0
C2341 C 0.80563 0.12777 0.12205 0.0
C2342 C 0.84026 0.15572 0.16092 0.0
H2343 H 0.86089 0.24471 0.16716 0.0
H2344 H 0.84746 0.21548 0.15059 0.0
H2345 H 0.86225 0.17718 0.17711 0.0
H2346 H 0.80437 0.08933 0.15492 0.0
H2347 H 0.81864 0.11924 0.1696 0.0
H2348 H 0.80421 0.15696 0.1411 0.0
C2349 C 0.85304 0.2171 0.16635 0.0
C2350 C 0.84955 0.17289 0.16941 0.0
C2351 C 0.86086 0.23388 0.17581 0.0
C2352 C 0.80452 0.09988 0.14553 0.0
C2353 C 0.81282 0.11706 0.15391 0.0
C2354 C 0.81694 0.16129 0.14873 0.0
C2355 C 0.8522 0.20254 0.1772 0.0
C2356 C 0.8426 0.18444 0.16774 0.0
C2357 C 0.81382 0.13127 0.14211 0.0
C2358 C 0.8238 0.14969 0.15061 0.0
H2359 H 0.8733 0.22377 0.22277 0.0
H2360 H 0.85951 0.19434 0.20624 0.0
H2361 H 0.82038 0.18695 0.15598 0.0
H2362 H 0.79161 0.10829 0.09785 0.0
H2363 H 0.80623 0.13848 0.11256 0.0
C2364 C 0.89542 0.70976 0.14435 0.0
C2365 C 0.90156 0.70146 0.1302 0.0
C2366 C 0.87811 0.70058 0.15229 0.0
C2367 C 0.84001 0.65562 0.1611 0.0
H2368 H 0.81341 0.68072 0.16473 0.0
C2369 C 0.76533 0.61946 0.18052 0.0
C2370 C 0.75931 0.62753 0.19517 0.0
C2371 C 0.7826 0.62874 0.17246 0.0
C2372 C 0.82074 0.67361 0.16403 0.0
H2373 H 0.8944 0.67689 0.11352 0.0
H2374 H 0.86389 0.66078 0.12734 0.0
H2375 H 0.8437 0.69599 0.15061 0.0
H2376 H 0.76661 0.65185 0.21251 0.0
H2377 H 0.79703 0.66817 0.19838 0.0
H2378 H 0.81702 0.63323 0.17448 0.0
C2379 C 0.87263 0.6744 0.13239 0.0
C2380 C 0.83807 0.68233 0.15593 0.0
C2381 C 0.89007 0.68362 0.12443 0.0
C2382 C 0.77086 0.64529 0.20123 0.0
C2383 C 0.78823 0.65463 0.19311 0.0
C2384 C 0.82267 0.6469 0.16917 0.0
C2385 C 0.86645 0.68287 0.14625 0.0
C2386 C 0.8479 0.67343 0.15441 0.0
C2387 C 0.79431 0.64633 0.17884 0.0
C2388 C 0.81285 0.6558 0.17069 0.0
H2389 H 0.90397 0.72346 0.14929 0.0
H2390 H 0.87389 0.70736 0.16328 0.0
H2391 H 0.84733 0.6485 0.16045 0.0
H2392 H 0.75676 0.60583 0.17534 0.0
H2393 H 0.78676 0.62212 0.16117 0.0
C2394 C 0.12659 0.35213 0.2928 0.0
C2395 C 0.13481 0.37071 0.29517 0.0
C2396 C 0.13459 0.34286 0.30122 0.0
C2397 C 0.16703 0.34661 0.34173 0.0
H2398 H 0.16929 0.3101 0.30858 0.0
C2399 C 0.20764 0.31318 0.36804 0.0
C2400 C 0.19901 0.29459 0.36544 0.0
C2401 C 0.20024 0.32292 0.35936 0.0
C2402 C 0.16864 0.32017 0.3181 0.0
H2403 H 0.15791 0.39414 0.30817 0.0
H2404 H 0.17173 0.37802 0.32268 0.0
H2405 H 0.15488 0.32573 0.29374 0.0
H2406 H 0.17579 0.27165 0.35182 0.0
H2407 H 0.16301 0.28856 0.33695 0.0
H2408 H 0.18072 0.34098 0.36613 0.0
C2409 C 0.15906 0.37058 0.31454 0.0
C2410 C 0.16035 0.32907 0.30961 0.0
C2411 C 0.15116 0.37981 0.30608 0.0
C2412 C 0.18287 0.28597 0.35408 0.0
C2413 C 0.17556 0.29567 0.34539 0.0
C2414 C 0.17531 0.33769 0.35023 0.0
C2415 C 0.15087 0.35202 0.31226 0.0
C2416 C 0.15942 0.34236 0.32136 0.0
C2417 C 0.18416 0.31424 0.34785 0.0
C2418 C 0.17613 0.32432 0.33853 0.0
H2419 H 0.11402 0.34476 0.28448 0.0
H2420 H 0.12792 0.32852 0.29936 0.0
H2421 H 0.16634 0.35666 0.35125 0.0
H2422 H 0.22008 0.32018 0.37671 0.0
H2423 H 0.2072 0.33726 0.3614 0.0
C2424 C 0.68406 0.88757 0.36634 0.0
C2425 C 0.69984 0.90103 0.35708 0.0
C2426 C 0.67466 0.87074 0.35686 0.0
C2427 C 0.6819 0.84131 0.32137 0.0
H2428 H 0.63028 0.81448 0.31812 0.0
C2429 C 0.6431 0.77302 0.27862 0.0
C2430 C 0.62736 0.7601 0.28851 0.0
C2431 C 0.65214 0.79054 0.28631 0.0
C2432 C 0.6447 0.82174 0.3191 0.0
H2433 H 0.71766 0.90764 0.3301 0.0
H2434 H 0.70122 0.87843 0.31363 0.0
H2435 H 0.6451 0.84459 0.33274 0.0
H2436 H 0.60917 0.75521 0.31467 0.0
H2437 H 0.62506 0.78545 0.32821 0.0
H2438 H 0.68153 0.8184 0.30803 0.0
C2439 C 0.69628 0.88076 0.32837 0.0
C2440 C 0.65317 0.83898 0.32746 0.0
C2441 C 0.70563 0.89753 0.33778 0.0
C2442 C 0.62115 0.76489 0.30652 0.0
C2443 C 0.63019 0.78228 0.31422 0.0
C2444 C 0.67343 0.82405 0.31309 0.0
C2445 C 0.6809 0.86708 0.338 0.0
C2446 C 0.67184 0.84892 0.32875 0.0
C2447 C 0.64563 0.79539 0.30405 0.0
C2448 C 0.65473 0.81401 0.31201 0.0
H2449 H 0.67927 0.88985 0.38122 0.0
H2450 H 0.66286 0.8604 0.3647 0.0
H2451 H 0.69632 0.84858 0.32244 0.0
H2452 H 0.64816 0.76973 0.26466 0.0
H2453 H 0.66397 0.80038 0.27805 0.0
C2454 C 0.22302 0.84832 0.29664 0.0
C2455 C 0.23094 0.86433 0.28502 0.0
C2456 C 0.2052 0.84027 0.30276 0.0
C2457 C 0.16888 0.84951 0.3127 0.0
H2458 H 0.13952 0.79795 0.31032 0.0
C2459 C 0.09452 0.81352 0.33456 0.0
C2460 C 0.08832 0.79848 0.34777 0.0
C2461 C 0.11134 0.82105 0.32524 0.0
C2462 C 0.1476 0.81234 0.31123 0.0
H2463 H 0.22632 0.88444 0.27071 0.0
H2464 H 0.19495 0.87022 0.28139 0.0
H2465 H 0.16996 0.81243 0.29669 0.0
H2466 H 0.09474 0.77928 0.3611 0.0
H2467 H 0.12432 0.7926 0.34487 0.0
H2468 H 0.14658 0.84942 0.32742 0.0
C2469 C 0.20269 0.86403 0.28586 0.0
C2470 C 0.16501 0.82064 0.30341 0.0
C2471 C 0.22061 0.87214 0.2797 0.0
C2472 C 0.09913 0.79084 0.35098 0.0
C2473 C 0.11603 0.79843 0.34163 0.0
C2474 C 0.15146 0.84121 0.32049 0.0
C2475 C 0.1948 0.84796 0.29739 0.0
C2476 C 0.17591 0.8393 0.30429 0.0
C2477 C 0.12239 0.81377 0.32891 0.0
C2478 C 0.14068 0.82253 0.32 0.0
H2479 H 0.23057 0.84193 0.3011 0.0
H2480 H 0.19965 0.82809 0.31198 0.0
H2481 H 0.17702 0.86388 0.31388 0.0
H2482 H 0.08647 0.81966 0.33159 0.0
H2483 H 0.11572 0.83267 0.31521 0.0
C2484 C 0.71133 0.81288 0.84275 0.0
C2485 C 0.7045 0.80091 0.85988 0.0
C2486 C 0.70188 0.82063 0.83449 0.0
C2487 C 0.65738 0.81595 0.83116 0.0
H2488 H 0.68403 0.86676 0.81952 0.0
C2489 C 0.62232 0.85539 0.81041 0.0
C2490 C 0.62959 0.86801 0.79397 0.0
C2491 C 0.63166 0.84749 0.81858 0.0
C2492 C 0.67644 0.85254 0.82244 0.0
H2493 H 0.6821 0.78731 0.88138 0.0
H2494 H 0.66549 0.80094 0.86686 0.0
H2495 H 0.69948 0.85185 0.83343 0.0
H2496 H 0.65254 0.88249 0.77349 0.0
H2497 H 0.6689 0.86849 0.78769 0.0
H2498 H 0.63435 0.8166 0.82008 0.0
C2499 C 0.67819 0.80423 0.85983 0.0
C2500 C 0.68528 0.844 0.83043 0.0
C2501 C 0.68771 0.79646 0.86817 0.0
C2502 C 0.64663 0.87286 0.7862 0.0
C2503 C 0.65599 0.86487 0.79436 0.0
C2504 C 0.64855 0.82448 0.82311 0.0
C2505 C 0.68534 0.8166 0.84312 0.0
C2506 C 0.67584 0.82562 0.83486 0.0
C2507 C 0.64849 0.85194 0.81047 0.0
C2508 C 0.65798 0.84288 0.81871 0.0
H2509 H 0.72417 0.81652 0.83585 0.0
H2510 H 0.70756 0.82984 0.82135 0.0
H2511 H 0.64981 0.80174 0.83415 0.0
H2512 H 0.60928 0.85145 0.81691 0.0
H2513 H 0.62568 0.83787 0.83129 0.0
C2514 C 0.18923 0.89862 0.84123 0.0
C2515 C 0.19871 0.90269 0.86044 0.0
C2516 C 0.18131 0.88145 0.83283 0.0
C2517 C 0.16402 0.83497 0.84923 0.0
H2518 H 0.16229 0.82635 0.78871 0.0
C2519 C 0.1386 0.76535 0.81319 0.0
C2520 C 0.12809 0.76087 0.79476 0.0
C2521 C 0.14642 0.78253 0.82152 0.0
C2522 C 0.16247 0.82858 0.80562 0.0
H2523 H 0.20798 0.89211 0.88544 0.0
H2524 H 0.19436 0.86208 0.87051 0.0
H2525 H 0.17916 0.8568 0.80214 0.0
H2526 H 0.11711 0.77072 0.77094 0.0
H2527 H 0.13087 0.80094 0.78559 0.0
H2528 H 0.14745 0.80672 0.8527 0.0
C2529 C 0.1928 0.87215 0.86219 0.0
C2530 C 0.17217 0.846 0.81333 0.0
C2531 C 0.20073 0.88938 0.87064 0.0
C2532 C 0.12511 0.77379 0.78518 0.0
C2533 C 0.13309 0.79109 0.79345 0.0
C2534 C 0.15437 0.81756 0.84153 0.0
C2535 C 0.18273 0.86794 0.84338 0.0
C2536 C 0.17305 0.84939 0.83522 0.0
C2537 C 0.14401 0.79565 0.81156 0.0
C2538 C 0.15351 0.81419 0.81965 0.0
H2539 H 0.18742 0.90856 0.83293 0.0
H2540 H 0.17352 0.87863 0.81844 0.0
H2541 H 0.16413 0.83716 0.86615 0.0
H2542 H 0.14111 0.75567 0.821 0.0
H2543 H 0.15488 0.78568 0.83538 0.0
C2544 C 0.09536 0.2902 0.83853 0.0
C2545 C 0.09226 0.29374 0.85937 0.0
C2546 C 0.11253 0.29895 0.83005 0.0
C2547 C 0.15934 0.32099 0.84674 0.0
H2548 H 0.16875 0.33615 0.78802 0.0
C2549 C 0.23016 0.36308 0.81246 0.0
C2550 C 0.2333 0.35961 0.79161 0.0
C2551 C 0.21303 0.35408 0.82102 0.0
C2552 C 0.16628 0.33173 0.80436 0.0
H2553 H 0.10461 0.30982 0.88731 0.0
H2554 H 0.13468 0.32532 0.87234 0.0
H2555 H 0.13867 0.32401 0.80217 0.0
H2556 H 0.22109 0.34336 0.76373 0.0
H2557 H 0.19107 0.32744 0.77884 0.0
H2558 H 0.18697 0.32875 0.84893 0.0
C2559 C 0.12381 0.31555 0.86272 0.0
C2560 C 0.14908 0.32487 0.81249 0.0
C2561 C 0.10657 0.30681 0.87122 0.0
C2562 C 0.21909 0.34632 0.77984 0.0
C2563 C 0.20189 0.33734 0.78841 0.0
C2564 C 0.17655 0.32786 0.8386 0.0
C2565 C 0.127 0.31144 0.8422 0.0
C2566 C 0.14542 0.31943 0.83377 0.0
C2567 C 0.19863 0.34142 0.80892 0.0
C2568 C 0.1802 0.33331 0.81733 0.0
H2569 H 0.08461 0.28022 0.82895 0.0
H2570 H 0.11456 0.29537 0.81426 0.0
H2571 H 0.15687 0.31658 0.86308 0.0
H2572 H 0.24084 0.37322 0.82196 0.0
H2573 H 0.21095 0.35762 0.8368 0.0
C2574 C 0.85715 0.62596 0.68533 0.0
C2575 C 0.86426 0.62964 0.70596 0.0
C2576 C 0.84881 0.63484 0.67708 0.0
C2577 C 0.84391 0.67435 0.68298 0.0
H2578 H 0.79901 0.64491 0.65381 0.0
C2579 C 0.80007 0.70289 0.65516 0.0
C2580 C 0.79315 0.69844 0.63449 0.0
C2581 C 0.80776 0.69387 0.66481 0.0
C2582 C 0.8116 0.65333 0.66174 0.0
H2583 H 0.86885 0.64608 0.73378 0.0
H2584 H 0.85418 0.66171 0.71925 0.0
H2585 H 0.81531 0.63123 0.6687 0.0
H2586 H 0.78823 0.68059 0.60803 0.0
H2587 H 0.80183 0.66486 0.62487 0.0
H2588 H 0.84029 0.69648 0.67584 0.0
C2589 C 0.85514 0.65192 0.70952 0.0
C2590 C 0.82094 0.64551 0.67027 0.0
C2591 C 0.86354 0.64299 0.71783 0.0
C2592 C 0.79339 0.68426 0.624 0.0
C2593 C 0.80116 0.67525 0.63367 0.0
C2594 C 0.83458 0.68219 0.67441 0.0
C2595 C 0.84735 0.64761 0.68923 0.0
C2596 C 0.83725 0.65596 0.68083 0.0
C2597 C 0.80877 0.68023 0.65401 0.0
C2598 C 0.81836 0.67177 0.66361 0.0
H2599 H 0.85765 0.61588 0.67566 0.0
H2600 H 0.84331 0.63154 0.66121 0.0
H2601 H 0.85653 0.68275 0.69084 0.0
H2602 H 0.79993 0.71365 0.66375 0.0
H2603 H 0.81313 0.69775 0.68067 0.0
C2604 C 0.38163 0.22881 0.68018 0.0
C2605 C 0.37313 0.23774 0.68842 0.0
C2606 C 0.37167 0.21178 0.67157 0.0
C2607 C 0.32704 0.17208 0.67264 0.0
H2608 H 0.34318 0.15938 0.62162 0.0
C2609 C 0.28432 0.10518 0.6304 0.0
C2610 C 0.29291 0.09585 0.62378 0.0
C2611 C 0.29419 0.12272 0.63749 0.0
C2612 C 0.33862 0.1627 0.63599 0.0
H2613 H 0.34749 0.23582 0.69398 0.0
H2614 H 0.33003 0.20598 0.67877 0.0
H2615 H 0.35992 0.18979 0.63531 0.0
H2616 H 0.31863 0.09779 0.61897 0.0
H2617 H 0.33596 0.12861 0.63147 0.0
H2618 H 0.30576 0.145 0.67335 0.0
C2619 C 0.34443 0.21217 0.67917 0.0
C2620 C 0.34817 0.1801 0.64381 0.0
C2621 C 0.35442 0.22928 0.68779 0.0
C2622 C 0.31164 0.10461 0.62399 0.0
C2623 C 0.32155 0.12226 0.63106 0.0
C2624 C 0.31748 0.15471 0.6648 0.0
C2625 C 0.35298 0.20324 0.671 0.0
C2626 C 0.3425 0.18495 0.66226 0.0
C2627 C 0.31288 0.1314 0.6381 0.0
C2628 C 0.32318 0.14984 0.6464 0.0
H2629 H 0.39602 0.2349 0.68048 0.0
H2630 H 0.37864 0.20516 0.66572 0.0
H2631 H 0.32251 0.17532 0.68709 0.0
H2632 H 0.26991 0.0989 0.63031 0.0
H2633 H 0.28715 0.12951 0.64246 0.0
C2634 C 0.89641 0.20198 0.64956 0.0
C2635 C 0.90123 0.19957 0.62908 0.0
C2636 C 0.87847 0.19401 0.65533 0.0
C2637 C 0.83275 0.17367 0.63417 0.0
H2638 H 0.81979 0.14907 0.68825 0.0
C2639 C 0.7593 0.13013 0.65967 0.0
C2640 C 0.75533 0.13238 0.68065 0.0
C2641 C 0.77701 0.13738 0.65311 0.0
C2642 C 0.8232 0.156 0.67319 0.0
H2643 H 0.891 0.18754 0.59832 0.0
H2644 H 0.85967 0.17368 0.60843 0.0
H2645 H 0.85093 0.16477 0.67716 0.0
H2646 H 0.76683 0.14349 0.71136 0.0
H2647 H 0.79761 0.15628 0.69987 0.0
H2648 H 0.80505 0.16507 0.63029 0.0
C2649 C 0.86978 0.18174 0.61999 0.0
C2650 C 0.84104 0.16502 0.66686 0.0
C2651 C 0.88773 0.18965 0.61423 0.0
C2652 C 0.76941 0.1415 0.69509 0.0
C2653 C 0.78709 0.14877 0.68852 0.0
C2654 C 0.8149 0.1647 0.64054 0.0
C2655 C 0.86498 0.18355 0.64072 0.0
C2656 C 0.84601 0.17402 0.64734 0.0
C2657 C 0.7911 0.14703 0.66738 0.0
C2658 C 0.80994 0.15584 0.66017 0.0
H2659 H 0.90648 0.20959 0.66135 0.0
H2660 H 0.87514 0.19588 0.67132 0.0
H2661 H 0.83622 0.18062 0.61912 0.0
H2662 H 0.74875 0.12311 0.64818 0.0
H2663 H 0.77967 0.13556 0.6368 0.0
C2664 C 0.96007 0.52815 0.47931 0.0
C2665 C 0.96586 0.53883 0.46101 0.0
C2666 C 0.96956 0.52028 0.48714 0.0
C2667 C -0.0002 0.50476 0.46986 0.0
H2668 H 0.00631 0.50143 0.53019 0.0
C2669 C 0.04263 0.47674 0.50398 0.0
C2670 C 0.03676 0.46648 0.52261 0.0
C2671 C 0.03363 0.48508 0.49601 0.0
C2672 C 0.00437 0.50203 0.51331 0.0
H2673 H 0.98648 0.55012 0.43695 0.0
H2674 H 0.00319 0.53635 0.45077 0.0
H2675 H 0.99261 0.51845 0.51769 0.0
H2676 H 0.0164 0.45635 0.54702 0.0
H2677 H 0.00047 0.47076 0.53289 0.0
H2678 H 0.01145 0.48825 0.46548 0.0
C2679 C 0.99117 0.53398 0.45889 0.0
C2680 C 0.99662 0.51186 0.50615 0.0
C2681 C 0.9817 0.54197 0.45109 0.0
C2682 C 0.02127 0.46418 0.53266 0.0
C2683 C 0.01225 0.47256 0.52467 0.0
C2684 C 0.00753 0.4949 0.47702 0.0
C2685 C 0.98504 0.52286 0.47683 0.0
C2686 C 0.9942 0.51328 0.48436 0.0
C2687 C 0.01852 0.48335 0.50647 0.0
C2688 C 0.00986 0.49339 0.49883 0.0
H2689 H 0.94793 0.5255 0.48737 0.0
H2690 H 0.96439 0.51165 0.50087 0.0
H2691 H -0.00218 0.50536 0.45299 0.0
H2692 H 0.05453 0.47878 0.49582 0.0
H2693 H 0.03891 0.49341 0.48208 0.0
C2694 C 0.52117 0.56526 0.5069 0.0
C2695 C 0.53338 0.57017 0.52375 0.0
C2696 C 0.51334 0.54818 0.49829 0.0
C2697 C 0.50136 0.50264 0.51258 0.0
H2698 H 0.49283 0.49369 0.45226 0.0
C2699 C 0.47479 0.43316 0.47624 0.0
C2700 C 0.46222 0.42783 0.45973 0.0
C2701 C 0.48301 0.4505 0.48405 0.0
C2702 C 0.4949 0.49599 0.46916 0.0
H2703 H 0.54748 0.56124 0.54426 0.0
H2704 H 0.53379 0.53126 0.52906 0.0
H2705 H 0.50959 0.52434 0.4652 0.0
H2706 H 0.44816 0.43646 0.43874 0.0
H2707 H 0.46254 0.46698 0.45259 0.0
H2708 H 0.48663 0.47433 0.51659 0.0
C2709 C 0.53017 0.54065 0.52272 0.0
C2710 C 0.50457 0.51352 0.47656 0.0
C2711 C 0.5381 0.55783 0.53131 0.0
C2712 C 0.45777 0.44017 0.45148 0.0
C2713 C 0.46609 0.45765 0.45929 0.0
C2714 C 0.49168 0.48513 0.5052 0.0
C2715 C 0.5175 0.53558 0.50635 0.0
C2716 C 0.50792 0.51701 0.49834 0.0
C2717 C 0.47889 0.463 0.47556 0.0
C2718 C 0.48839 0.48162 0.48341 0.0
H2719 H 0.51729 0.57448 0.50065 0.0
H2720 H 0.50352 0.54464 0.48583 0.0
H2721 H 0.5034 0.50492 0.52949 0.0
H2722 H 0.47853 0.42399 0.483 0.0
H2723 H 0.49297 0.45425 0.49638 0.0
C2724 C 0.553 0.01773 0.44737 0.0
C2725 C 0.56747 0.03071 0.45911 0.0
C2726 C 0.5358 0.00923 0.45601 0.0
C2727 C 0.50938 0.01658 0.49638 0.0
H2728 H 0.4755 0.96637 0.48822 0.0
C2729 C 0.44166 0.97895 0.54036 0.0
C2730 C 0.42708 0.96587 0.52885 0.0
C2731 C 0.45871 0.98764 0.53132 0.0
C2732 C 0.48475 0.98047 0.4904 0.0
H2733 H 0.57549 0.04419 0.48951 0.0
H2734 H 0.54566 0.02918 0.50462 0.0
H2735 H 0.50558 0.97901 0.47385 0.0
H2736 H 0.41869 0.95246 0.49844 0.0
H2737 H 0.44828 0.96778 0.48267 0.0
H2738 H 0.48856 0.01803 0.51299 0.0
C2739 C 0.54747 0.02588 0.48859 0.0
C2740 C 0.50197 0.98768 0.4822 0.0
C2741 C 0.56457 0.03437 0.47997 0.0
C2742 C 0.4297 0.96234 0.50781 0.0
C2743 C 0.44667 0.97102 0.49881 0.0
C2744 C 0.49216 0.00936 0.50459 0.0
C2745 C 0.53283 0.01355 0.47654 0.0
C2746 C 0.51449 0.0058 0.48515 0.0
C2747 C 0.46143 0.98341 0.51063 0.0
C2748 C 0.47966 0.99123 0.50169 0.0
H2749 H 0.5548 0.01469 0.43122 0.0
H2750 H 0.52476 -0.00018 0.44631 0.0
H2751 H 0.51863 0.03068 0.49859 0.0
H2752 H 0.44008 0.9819 0.55663 0.0
H2753 H 0.46986 0.99709 0.54086 0.0
C2754 C 0.52344 0.95571 0.01393 0.0
C2755 C 0.53256 0.96134 0.03335 0.0
C2756 C 0.51548 0.96469 0.00495 0.0
C2757 C 0.51463 0.0068 0.00615 0.0
H2758 H 0.46731 0.97751 0.98231 0.0
C2759 C 0.47109 0.03641 0.98158 0.0
C2760 C 0.46263 0.03131 0.96172 0.0
C2761 C 0.47911 0.02744 0.99046 0.0
C2762 C 0.48058 0.98585 0.98871 0.0
H2763 H 0.54099 0.98115 0.05827 0.0
H2764 H 0.52681 0.99686 0.04261 0.0
H2765 H 0.48303 0.96334 -0.00245 0.0
H2766 H 0.45537 0.01236 0.93595 0.0
H2767 H 0.46948 0.99658 0.95158 0.0
H2768 H 0.5121 0.0293 -0.00259 0.0
C2769 C 0.526 0.98554 0.03428 0.0
C2770 C 0.4896 0.97777 -0.00257 0.0
C2771 C 0.53409 0.97656 0.04326 0.0
C2772 C 0.46176 0.01657 0.95129 0.0
C2773 C 0.46982 0.00755 0.96023 0.0
C2774 C 0.50558 0.01488 -0.00251 0.0
C2775 C 0.51633 0.97948 0.01521 0.0
C2776 C 0.50675 0.98816 0.00619 0.0
C2777 C 0.47887 0.01314 0.97972 0.0
C2778 C 0.48846 0.00448 0.9887 0.0
H2779 H 0.52222 0.94414 0.00575 0.0
H2780 H 0.50853 0.95995 0.99 0.0
H2781 H 0.52791 0.01517 0.01251 0.0
H2782 H 0.47185 0.04761 0.99017 0.0
H2783 H 0.48565 0.03181 0.00571 0.0
C2784 C 0.95665 0.43448 0.97608 0.0
C2785 C 0.96275 0.43072 0.95719 0.0
C2786 C 0.96532 0.45158 0.98463 0.0
C2787 C 0.99306 0.49828 0.96981 0.0
H2788 H 0.00155 0.50557 0.03033 0.0
C2789 C 0.03572 0.56754 0.0074 0.0
C2790 C 0.03086 0.57086 0.02742 0.0
C2791 C 0.0264 0.55065 -0.0017 0.0
C2792 C -0.00101 0.50373 0.01345 0.0
H2793 H 0.98293 0.44186 0.93264 0.0
H2794 H -0.00181 0.47203 0.94768 0.0
H2795 H 0.98865 0.47559 0.01569 0.0
H2796 H 0.01185 0.55929 0.05316 0.0
H2797 H 0.99531 0.52968 0.03704 0.0
H2798 H 0.0033 0.5264 0.96757 0.0
C2799 C 0.9866 0.46163 0.95574 0.0
C2800 C 0.99173 0.48658 0.00506 0.0
C2801 C 0.97797 0.44438 0.94723 0.0
C2802 C 0.01592 0.55713 0.03773 0.0
C2803 C 0.00657 0.54015 0.02859 0.0
C2804 C 0.00026 0.51543 0.97822 0.0
C2805 C 0.98024 0.46538 0.97445 0.0
C2806 C 0.9887 0.48369 0.98316 0.0
C2807 C 0.01196 0.53667 0.00897 0.0
C2808 C 0.00334 0.51835 0.00014 0.0
H2809 H 0.94499 0.42422 0.9842 0.0
H2810 H 0.96001 0.45411 -0.00107 0.0
H2811 H 0.99057 0.49638 0.95292 0.0
H2812 H 0.04713 0.57786 -0.00103 0.0
H2813 H 0.03102 0.54841 0.98328 0.0
C2814 C 0.4328 0.48031 0.01126 0.0
C2815 C 0.42853 0.46989 0.02974 0.0
C2816 C 0.45009 0.4888 0.00321 0.0
C2817 C 0.4965 0.50659 0.0191 0.0
H2818 H 0.50478 0.50712 0.95861 0.0
C2819 C 0.56645 0.53373 0.98279 0.0
C2820 C 0.57009 0.54241 0.96305 0.0
C2821 C 0.54942 0.52603 0.99159 0.0
C2822 C 0.50268 0.50735 0.9755 0.0
H2823 H 0.43899 0.45992 0.05407 0.0
H2824 H 0.46945 0.47489 0.03989 0.0
H2825 H 0.4745 0.49004 0.97239 0.0
H2826 H 0.55894 0.55062 0.93758 0.0
H2827 H 0.52915 0.53738 0.95318 0.0
H2828 H 0.52467 0.524 0.02221 0.0
C2829 C 0.45931 0.4765 0.03177 0.0
C2830 C 0.48535 0.49747 0.9834 0.0
C2831 C 0.44188 0.46783 0.03978 0.0
C2832 C 0.55655 0.54399 0.95279 0.0
C2833 C 0.53945 0.53626 0.96163 0.0
C2834 C 0.51385 0.51655 0.01119 0.0
C2835 C 0.46357 0.48716 0.01347 0.0
C2836 C 0.48208 0.497 0.00527 0.0
C2837 C 0.53562 0.52685 0.9809 0.0
C2838 C 0.51713 0.51703 0.98929 0.0
H2839 H 0.42281 0.48214 0.00309 0.0
H2840 H 0.453 0.49707 0.98922 0.0
H2841 H 0.49433 0.5067 0.03599 0.0
H2842 H 0.5766 0.53232 0.99118 0.0
H2843 H 0.54691 0.51876 0.00634 0.0
C2844 C 0.19822 0.04987 0.93857 0.0
C2845 C 0.19968 0.03553 0.94652 0.0
C2846 C 0.20213 0.06444 0.95144 0.0
C2847 C 0.22495 0.08714 0.00099 0.0
H2848 H 0.19454 0.10805 -0.00382 0.0
C2849 C 0.22728 0.13984 0.0593 0.0
C2850 C 0.22698 0.15444 0.05011 0.0
C2851 C 0.22446 0.12534 0.04685 0.0
C2852 C 0.20323 0.10244 -0.00245 0.0
H2853 H 0.20575 0.02474 0.97418 0.0
H2854 H 0.21246 0.05023 -0.00306 0.0
H2855 H 0.18852 0.08247 0.97433 0.0
H2856 H 0.22378 0.16564 0.02089 0.0
H2857 H 0.21861 0.14015 -0.00098 0.0
H2858 H 0.23948 0.10707 0.02451 0.0
C2859 C 0.2088 0.05046 0.98058 0.0
C2860 C 0.19982 0.08782 0.98502 0.0
C2861 C 0.205 0.0359 0.9676 0.0
C2862 C 0.2239 0.15441 0.02829 0.0
C2863 C 0.22094 0.13986 0.01585 0.0
C2864 C 0.22829 0.10172 0.01365 0.0
C2865 C 0.20729 0.06484 0.97265 0.0
C2866 C 0.21073 0.08009 0.98645 0.0
C2867 C 0.22113 0.12517 0.02503 0.0
C2868 C 0.21753 0.10957 0.01192 0.0
H2869 H 0.19412 0.04982 0.92233 0.0
H2870 H 0.20113 0.07543 0.94473 0.0
H2871 H 0.23371 0.08161 0.0023 0.0
H2872 H 0.22944 0.13954 0.07618 0.0
H2873 H 0.22449 0.11409 0.05434 0.0
C2874 C 0.84358 0.08562 0.04116 0.0
C2875 C 0.84351 0.07151 0.05218 0.0
C2876 C 0.85839 0.09732 0.02911 0.0
C2877 C 0.89699 0.10039 0.00137 0.0
H2878 H 0.91592 0.15147 0.00484 0.0
C2879 C 0.96188 0.14942 0.95905 0.0
C2880 C 0.96209 0.16376 0.94845 0.0
C2881 C 0.9481 0.13894 0.97304 0.0
C2882 C 0.91068 0.13724 0.00355 0.0
H2883 H 0.85881 0.05865 0.0597 0.0
H2884 H 0.88463 0.07891 0.03834 0.0
H2885 H 0.8901 0.13138 0.02631 0.0
H2886 H 0.94795 0.17828 0.94381 0.0
H2887 H 0.92375 0.15991 0.96816 0.0
H2888 H 0.91727 0.1061 0.9784 0.0
C2889 C 0.8732 0.08085 0.03884 0.0
C2890 C 0.89592 0.12576 0.01584 0.0
C2891 C 0.85844 0.06924 0.05099 0.0
C2892 C 0.94838 0.16761 0.95224 0.0
C2893 C 0.93449 0.15704 0.96614 0.0
C2894 C 0.91166 0.11184 0.98902 0.0
C2895 C 0.87333 0.09501 0.02781 0.0
C2896 C 0.88896 0.10723 0.01486 0.0
C2897 C 0.93408 0.14244 0.97647 0.0
C2898 C 0.91869 0.13039 0.98998 0.0
H2899 H 0.83214 0.08754 0.04181 0.0
H2900 H 0.85807 0.10801 0.02057 0.0
H2901 H 0.89173 0.08615 7e-05 0.0
H2902 H 0.97233 0.14622 0.95638 0.0
H2903 H 0.94834 0.12799 0.98103 0.0
C2904 C 0.93245 0.77648 0.02954 0.0
C2905 C 0.92802 0.77264 0.051 0.0
C2906 C 0.92133 0.77928 0.01595 0.0
C2907 C 0.87524 0.7701 0.00996 0.0
H2908 H 0.89628 0.81017 0.97115 0.0
C2909 C 0.83298 0.79232 0.96151 0.0
C2910 C 0.83838 0.79785 0.94058 0.0
C2911 C 0.84365 0.78879 0.97501 0.0
C2912 C 0.8902 0.79878 0.98169 0.0
H2913 H 0.90878 0.76888 0.07532 0.0
H2914 H 0.88921 0.7736 0.05155 0.0
H2915 H 0.91549 0.80472 0.99447 0.0
H2916 H 0.85906 0.80404 0.91727 0.0
H2917 H 0.87753 0.79757 0.94063 0.0
H2918 H 0.84994 0.76407 -0.00291 0.0
C2919 C 0.90114 0.77427 0.04514 0.0
C2920 C 0.90121 0.79568 -0.00495 0.0
C2921 C 0.91231 0.77159 0.05872 0.0
C2922 C 0.85461 0.7998 0.93337 0.0
C2923 C 0.86521 0.79619 0.94678 0.0
C2924 C 0.86421 0.77314 -0.0035 0.0
C2925 C 0.90556 0.77818 0.02363 0.0
C2926 C 0.89385 0.78132 0.00932 0.0
C2927 C 0.85994 0.79077 0.96781 0.0
C2928 C 0.87157 0.78751 0.9822 0.0
H2929 H 0.94445 0.77721 0.02326 0.0
H2930 H 0.92497 0.7821 -0.00061 0.0
H2931 H 0.86922 0.7588 0.02066 0.0
H2932 H 0.82078 0.79121 0.96765 0.0
H2933 H 0.83937 0.78494 0.99124 0.0
C2934 C 0.13514 0.21904 0.43249 0.0
C2935 C 0.15024 0.21912 0.44066 0.0
C2936 C 0.1213 0.2166 0.44594 0.0
C2937 C 0.10246 0.20027 0.49936 0.0
H2938 H 0.0798 0.22866 0.48991 0.0
C2939 C 0.05512 0.20456 0.56016 0.0
C2940 C 0.03924 0.20308 0.55226 0.0
C2941 C 0.06856 0.20646 0.54638 0.0
C2942 C 0.08591 0.22054 0.49261 0.0
H2943 H 0.16292 0.21666 0.46899 0.0
H2944 H 0.13886 0.21268 0.49275 0.0
H2945 H 0.10353 0.23195 0.46623 0.0
H2946 H 0.02472 0.20151 0.52353 0.0
H2947 H 0.0484 0.20533 0.4995 0.0
H2948 H 0.08497 0.18908 0.52597 0.0
C2949 C 0.13749 0.21418 0.47593 0.0
C2950 C 0.09946 0.22237 0.47903 0.0
C2951 C 0.15128 0.21651 0.46241 0.0
C2952 C 0.03703 0.20337 0.53023 0.0
C2953 C 0.05054 0.20538 0.51642 0.0
C2954 C 0.08899 0.19853 0.51302 0.0
C2955 C 0.12238 0.21429 0.46785 0.0
C2956 C 0.10789 0.21225 0.48224 0.0
C2957 C 0.0664 0.20687 0.52437 0.0
C2958 C 0.08059 0.20865 0.50978 0.0
H2959 H 0.13406 0.22087 0.41567 0.0
H2960 H 0.10972 0.21643 0.43914 0.0
H2961 H 0.10846 0.19206 0.50207 0.0
H2962 H 0.0572 0.20433 0.57706 0.0
H2963 H 0.08071 0.20774 0.55295 0.0
C2964 C 0.7857 0.92029 0.43369 0.0
C2965 C 0.76862 0.91821 0.43181 0.0
C2966 C 0.78829 0.90817 0.44552 0.0
C2967 C 0.76529 0.86296 0.46831 0.0
H2968 H 0.80557 0.88293 0.50691 0.0
C2969 C 0.77543 0.82235 0.53448 0.0
C2970 C 0.79301 0.82641 0.5386 0.0
C2971 C 0.77205 0.8324 0.5198 0.0
C2972 C 0.79442 0.8771 0.49598 0.0
H2973 H 0.74079 0.90185 0.44034 0.0
H2974 H 0.74529 0.88053 0.46118 0.0
H2975 H 0.80036 0.90269 0.48446 0.0
H2976 H 0.82077 0.84364 0.53024 0.0
H2977 H 0.8149 0.86097 0.50435 0.0
H2978 H 0.75934 0.83732 0.48001 0.0
C2979 C 0.75665 0.89145 0.45338 0.0
C2980 C 0.79142 0.88843 0.48315 0.0
C2981 C 0.75407 0.90363 0.44155 0.0
C2982 C 0.80709 0.84031 0.5274 0.0
C2983 C 0.80373 0.85027 0.51267 0.0
C2984 C 0.76832 0.85157 0.48115 0.0
C2985 C 0.77383 0.89373 0.45566 0.0
C2986 C 0.77686 0.8815 0.46915 0.0
C2987 C 0.78622 0.84669 0.50905 0.0
C2988 C 0.78296 0.85854 0.49509 0.0
H2989 H 0.79705 0.93127 0.42596 0.0
H2990 H 0.80163 0.91009 0.44669 0.0
H2991 H 0.75404 0.85725 0.45752 0.0
H2992 H 0.76436 0.81199 0.54328 0.0
H2993 H 0.75844 0.82947 0.51755 0.0
C2994 C 0.08719 0.85863 0.4308 0.0
C2995 C 0.07327 0.8423 0.43818 0.0
C2996 C 0.09925 0.87122 0.44506 0.0
C2997 C 0.10238 0.8844 0.50083 0.0
H2998 H 0.15304 0.91322 0.48919 0.0
C2999 C 0.15053 0.93338 0.56243 0.0
C3000 C 0.16316 0.9504 0.5551 0.0
C3001 C 0.14075 0.91959 0.54816 0.0
C3002 C 0.1389 0.90535 0.49256 0.0
H3003 H 0.06123 0.82583 0.46584 0.0
H3004 H 0.08235 0.84779 0.49091 0.0
H3005 H 0.13371 0.88997 0.46415 0.0
H3006 H 0.17522 0.96643 0.52705 0.0
H3007 H 0.15816 0.9423 0.50205 0.0
H3008 H 0.10742 0.89983 0.52903 0.0
C3009 C 0.08383 0.85104 0.47418 0.0
C3010 C 0.12785 0.89205 0.47825 0.0
C3011 C 0.0718 0.83848 0.45991 0.0
C3012 C 0.16599 0.95333 0.5332 0.0
C3013 C 0.15615 0.93952 0.51888 0.0
C3014 C 0.11339 0.89765 0.51509 0.0
C3015 C 0.09754 0.86764 0.46694 0.0
C3016 C 0.10947 0.88145 0.48225 0.0
C3017 C 0.14325 0.92257 0.52622 0.0
C3018 C 0.13176 0.90828 0.51113 0.0
H3019 H 0.08845 0.8618 0.41405 0.0
H3020 H 0.10955 0.88396 0.43903 0.0
H3021 H 0.08821 0.8767 0.50415 0.0
H3022 H 0.14813 0.93074 0.57924 0.0
H3023 H 0.1311 0.9066 0.55431 0.0
C3024 C 0.80755 0.96008 0.03545 0.0
C3025 C 0.79355 0.96049 0.04618 0.0
C3026 C 0.804 0.9464 0.02121 0.0
C3027 C 0.7714 0.90002 0.00976 0.0
H3028 H 0.79622 0.90977 0.95595 0.0
C3029 C 0.75786 0.84456 0.94922 0.0
C3030 C 0.77274 0.84589 0.93864 0.0
C3031 C 0.75961 0.85854 0.96194 0.0
C3032 C 0.78933 0.90681 0.97102 0.0
H3033 H 0.76491 0.94671 0.05089 0.0
H3034 H 0.75866 0.92274 0.02579 0.0
H3035 H 0.80044 0.93449 0.97842 0.0
H3036 H 0.80107 0.86264 0.93302 0.0
H3037 H 0.80433 0.88689 0.95578 0.0
H3038 H 0.76058 0.87235 0.00262 0.0
C3039 C 0.77236 0.93313 0.0283 0.0
C3040 C 0.79169 0.92097 0.98382 0.0
C3041 C 0.77591 0.94695 0.04244 0.0
C3042 C 0.78944 0.86128 0.94119 0.0
C3043 C 0.79123 0.87523 0.95398 0.0
C3044 C 0.7691 0.88585 -0.003 0.0
C3045 C 0.7864 0.9327 0.01763 0.0
C3046 C 0.78289 0.91771 0.0034 0.0
C3047 C 0.77631 0.87408 0.96436 0.0
C3048 C 0.77819 0.88909 0.97759 0.0
H3049 H 0.82128 0.97033 0.03815 0.0
H3050 H 0.8151 0.94627 0.01343 0.0
H3051 H 0.76462 0.89714 0.0249 0.0
H3052 H 0.74486 0.83275 0.9475 0.0
H3053 H 0.74783 0.8573 0.96955 0.0
C3054 C 0.0475 0.82637 0.03951 0.0
C3055 C 0.03583 0.83211 0.04662 0.0
C3056 C 0.06027 0.83608 0.02402 0.0
C3057 C 0.08458 0.88161 0.00199 0.0
H3058 H 0.09958 0.86001 0.95878 0.0
C3059 C 0.13346 0.92323 0.93643 0.0
C3060 C 0.14795 0.92046 0.93333 0.0
C3061 C 0.11898 0.9114 0.94875 0.0
C3062 C 0.09554 0.86617 0.97085 0.0
H3063 H 0.02774 0.8519 0.04271 0.0
H3064 H 0.04957 0.86854 0.01526 0.0
H3065 H 0.07521 0.84097 0.98283 0.0
H3066 H 0.15858 0.90303 0.94003 0.0
H3067 H 0.13304 0.8821 0.96154 0.0
H3068 H 0.10479 0.90676 0.98999 0.0
C3069 C 0.04928 0.85687 0.02195 0.0
C3070 C 0.08165 0.85531 0.98463 0.0
C3071 C 0.03671 0.84731 0.03757 0.0
C3072 C 0.14748 0.90535 0.94215 0.0
C3073 C 0.1329 0.89341 0.95439 0.0
C3074 C 0.09831 0.89241 0.98815 0.0
C3075 C 0.06149 0.85163 0.01534 0.0
C3076 C 0.076 0.86293 0.00034 0.0
C3077 C 0.11867 0.89651 0.95807 0.0
C3078 C 0.10392 0.88482 0.97245 0.0
H3079 H 0.0473 0.81487 0.04655 0.0
H3080 H 0.06961 0.8318 0.01948 0.0
H3081 H 0.08092 0.88795 0.01423 0.0
H3082 H 0.13337 0.9346 0.92939 0.0
H3083 H 0.10804 0.91393 0.95108 0.0
C3084 C 0.15117 0.18738 0.02814 0.0
C3085 C 0.16636 0.20215 0.03659 0.0
C3086 C 0.14106 0.18967 0.01257 0.0
C3087 C 0.14075 0.22249 0.97472 0.0
H3088 H 0.0895 0.19343 0.98194 0.0
C3089 C 0.08935 0.23787 0.93554 0.0
C3090 C 0.07393 0.22333 0.9271 0.0
C3091 C 0.10159 0.23513 0.94701 0.0
C3092 C 0.10377 0.20149 0.97955 0.0
H3093 H 0.183 0.23089 0.03545 0.0
H3094 H 0.16512 0.23503 0.00851 0.0
H3095 H 0.10927 0.18896 0.00525 0.0
H3096 H 0.05946 0.19463 0.92323 0.0
H3097 H 0.08067 0.18976 0.94363 0.0
H3098 H 0.13504 0.23537 0.94935 0.0
C3099 C 0.16127 0.2216 0.01345 0.0
C3100 C 0.11514 0.1989 0.99286 0.0
C3101 C 0.17153 0.21925 0.02887 0.0
C3102 C 0.0711 0.20603 0.92994 0.0
C3103 C 0.08324 0.20326 0.94153 0.0
C3104 C 0.12933 0.22518 0.96149 0.0
C3105 C 0.14571 0.20684 0.00541 0.0
C3106 C 0.13377 0.20936 0.99064 0.0
C3107 C 0.09852 0.21777 0.95034 0.0
C3108 C 0.11074 0.2147 0.96381 0.0
H3109 H 0.14698 0.17403 0.03377 0.0
H3110 H 0.1294 0.17798 0.0064 0.0
H3111 H 0.15502 0.23063 0.97242 0.0
H3112 H 0.09174 0.25133 0.93368 0.0
H3113 H 0.11316 0.24653 0.95382 0.0
C3114 C 0.84374 0.75197 0.54845 0.0
C3115 C 0.84304 0.76612 0.55835 0.0
C3116 C 0.85902 0.75511 0.53735 0.0
C3117 C 0.89752 0.79107 0.50988 0.0
H3118 H 0.9174 0.7597 0.51331 0.0
C3119 C 0.96274 0.80919 0.46791 0.0
C3120 C 0.96303 0.7956 0.45612 0.0
C3121 C 0.94918 0.80514 0.48253 0.0
C3122 C 0.91191 0.76849 0.5121 0.0
H3123 H 0.8578 0.79437 0.56539 0.0
H3124 H 0.88445 0.79993 0.54593 0.0
H3125 H 0.89118 0.75328 0.53456 0.0
H3126 H 0.94955 0.7671 0.4505 0.0
H3127 H 0.92569 0.75998 0.47601 0.0
H3128 H 0.9179 0.80613 0.48727 0.0
C3129 C 0.87315 0.78649 0.54636 0.0
C3130 C 0.89692 0.76482 0.52423 0.0
C3131 C 0.85792 0.78334 0.55745 0.0
C3132 C 0.94986 0.7778 0.45973 0.0
C3133 C 0.93617 0.77373 0.47429 0.0
C3134 C 0.91241 0.7947 0.49777 0.0
C3135 C 0.87379 0.77245 0.53601 0.0
C3136 C 0.88963 0.77612 0.52327 0.0
C3137 C 0.93546 0.78743 0.48544 0.0
C3138 C 0.91983 0.78352 0.49879 0.0
H3139 H 0.83237 0.73858 0.54902 0.0
H3140 H 0.8591 0.74407 0.52939 0.0
H3141 H 0.89198 0.79981 0.50847 0.0
H3142 H 0.97281 0.82302 0.46546 0.0
H3143 H 0.94921 0.81595 0.4912 0.0
C3144 C 0.21451 0.07694 0.55771 0.0
C3145 C 0.21494 0.06211 0.54951 0.0
C3146 C 0.21121 0.08782 0.5444 0.0
C3147 C 0.19344 0.08976 0.49188 0.0
H3148 H 0.22386 0.14084 0.49915 0.0
C3149 C 0.19771 0.1404 0.42982 0.0
C3150 C 0.19786 0.15576 0.4373 0.0
C3151 C 0.19933 0.12886 0.44386 0.0
C3152 C 0.21513 0.12662 0.49709 0.0
H3153 H 0.21173 0.0465 0.52139 0.0
H3154 H 0.20608 0.06566 0.49785 0.0
H3155 H 0.22699 0.12046 0.52306 0.0
H3156 H 0.199 0.1706 0.46552 0.0
H3157 H 0.20217 0.1506 0.49005 0.0
H3158 H 0.18173 0.09596 0.46574 0.0
C3159 C 0.20815 0.06882 0.51459 0.0
C3160 C 0.21689 0.11494 0.51078 0.0
C3161 C 0.21141 0.0579 0.52796 0.0
C3162 C 0.19953 0.15928 0.45916 0.0
C3163 C 0.20119 0.14773 0.47323 0.0
C3164 C 0.1917 0.10144 0.47815 0.0
C3165 C 0.20831 0.08407 0.52263 0.0
C3166 C 0.20609 0.09638 0.5083 0.0
C3167 C 0.20103 0.13237 0.46572 0.0
C3168 C 0.20258 0.11999 0.48058 0.0
H3169 H 0.21693 0.08023 0.5744 0.0
H3170 H 0.21105 0.09924 0.55115 0.0
H3171 H 0.18477 0.07554 0.48976 0.0
H3172 H 0.19641 0.13733 0.41305 0.0
H3173 H 0.19938 0.11724 0.43758 0.0
C3174 C 0.91264 0.13682 0.5553 0.0
C3175 C 0.92841 0.1506 0.54649 0.0
C3176 C 0.90157 0.12168 0.54341 0.0
C3177 C 0.90063 0.09563 0.49697 0.0
H3178 H 0.84994 0.07945 0.49693 0.0
C3179 C 0.85258 0.04473 0.43636 0.0
C3180 C 0.83557 0.03181 0.44339 0.0
C3181 C 0.86392 0.05876 0.44958 0.0
C3182 C 0.86401 0.08363 0.497 0.0
H3183 H 0.94536 0.15935 0.51874 0.0
H3184 H 0.92601 0.13272 0.49781 0.0
H3185 H 0.87004 0.10471 0.51898 0.0
H3186 H 0.81733 0.02284 0.47 0.0
H3187 H 0.83717 0.04743 0.49325 0.0
H3188 H 0.89463 0.07455 0.47502 0.0
C3189 C 0.92222 0.13361 0.51393 0.0
C3190 C 0.87552 0.09811 0.50961 0.0
C3191 C 0.93326 0.14881 0.52583 0.0
C3192 C 0.83017 0.03296 0.464 0.0
C3193 C 0.84156 0.04699 0.4773 0.0
C3194 C 0.88911 0.08109 0.48444 0.0
C3195 C 0.90615 0.12 0.52253 0.0
C3196 C 0.89395 0.10432 0.50961 0.0
C3197 C 0.85856 0.06004 0.47022 0.0
C3198 C 0.87069 0.07502 0.48418 0.0
H3199 H 0.90883 0.1378 0.57138 0.0
H3200 H 0.88943 0.11127 0.55057 0.0
H3201 H 0.91474 0.09998 0.4969 0.0
H3202 H 0.85706 0.04408 0.42052 0.0
H3203 H 0.87681 0.06873 0.44352 0.0
C3204 C 0.89318 0.48888 0.36454 0.0
C3205 C 0.89483 0.48818 0.38657 0.0
C3206 C 0.89063 0.47457 0.35188 0.0
C3207 C 0.89674 0.43559 0.35047 0.0
H3208 H 0.85961 0.4185 0.30769 0.0
C3209 C 0.87396 0.37028 0.30341 0.0
C3210 C 0.86979 0.3704 0.28195 0.0
C3211 C 0.87768 0.38482 0.31639 0.0
C3212 C 0.8702 0.42325 0.31935 0.0
H3213 H 0.8952 0.47224 0.4128 0.0
H3214 H 0.89093 0.4472 0.39062 0.0
H3215 H 0.86509 0.44377 0.3298 0.0
H3216 H 0.86626 0.38559 0.25707 0.0
H3217 H 0.87318 0.41117 0.27949 0.0
H3218 H 0.90199 0.41517 0.33986 0.0
C3219 C 0.89171 0.45882 0.38312 0.0
C3220 C 0.8733 0.4377 0.33204 0.0
C3221 C 0.89412 0.47308 0.39578 0.0
C3222 C 0.86947 0.38525 0.27361 0.0
C3223 C 0.87331 0.39981 0.28648 0.0
C3224 C 0.89372 0.42118 0.33766 0.0
C3225 C 0.88981 0.45938 0.36106 0.0
C3226 C 0.88661 0.44404 0.34768 0.0
C3227 C 0.87725 0.3997 0.30808 0.0
C3228 C 0.88045 0.41489 0.3219 0.0
H3229 H 0.89387 0.5005 0.35714 0.0
H3230 H 0.88941 0.47543 0.33489 0.0
H3231 H 0.90719 0.44032 0.36231 0.0
H3232 H 0.87382 0.35874 0.31027 0.0
H3233 H 0.88039 0.3842 0.33303 0.0
C3234 C 0.62466 0.49582 0.29491 0.0
C3235 C 0.62291 0.4916 0.27323 0.0
C3236 C 0.61102 0.48515 0.30908 0.0
C3237 C 0.57262 0.43971 0.31476 0.0
H3238 H 0.55727 0.46075 0.35826 0.0
C3239 C 0.50839 0.39823 0.36299 0.0
C3240 C 0.50918 0.40181 0.38474 0.0
C3241 C 0.52259 0.40937 0.34979 0.0
C3242 C 0.56155 0.45469 0.34634 0.0
H3243 H 0.60561 0.47291 0.24938 0.0
H3244 H 0.58182 0.45441 0.27399 0.0
H3245 H 0.58168 0.48006 0.33456 0.0
H3246 H 0.52524 0.41951 0.40998 0.0
H3247 H 0.55016 0.43905 0.38692 0.0
H3248 H 0.55251 0.41437 0.32645 0.0
C3249 C 0.59375 0.46585 0.28012 0.0
C3250 C 0.57553 0.46574 0.33279 0.0
C3251 C 0.60734 0.47648 0.26602 0.0
C3252 C 0.52433 0.41665 0.39316 0.0
C3253 C 0.53852 0.42782 0.37997 0.0
C3254 C 0.55868 0.42868 0.32829 0.0
C3255 C 0.59547 0.47 0.30182 0.0
C3256 C 0.5811 0.45836 0.31675 0.0
C3257 C 0.53781 0.42428 0.35815 0.0
C3258 C 0.5529 0.43604 0.34412 0.0
H3259 H 0.63673 0.50701 0.30109 0.0
H3260 H 0.61283 0.48851 0.32577 0.0
H3261 H 0.57685 0.43363 0.3028 0.0
H3262 H 0.49674 0.3869 0.35621 0.0
H3263 H 0.52154 0.40644 0.33299 0.0
C3264 C 0.51007 0.13939 0.29366 0.0
C3265 C 0.49546 0.12582 0.28273 0.0
C3266 C 0.51988 0.13523 0.30776 0.0
C3267 C 0.53199 0.10113 0.31813 0.0
H3268 H 0.54898 0.12579 0.37179 0.0
C3269 C 0.57382 0.08531 0.37623 0.0
C3270 C 0.58821 0.09994 0.38613 0.0
C3271 C 0.56142 0.08761 0.3645 0.0
C3272 C 0.54447 0.11891 0.35676 0.0
H3273 H 0.47984 0.09727 0.2776 0.0
H3274 H 0.49688 0.08996 0.30249 0.0
H3275 H 0.52879 0.13117 0.35011 0.0
H3276 H 0.60094 0.12836 0.39183 0.0
H3277 H 0.57962 0.13255 0.37081 0.0
H3278 H 0.54797 0.08917 0.3245 0.0
C3279 C 0.50066 0.10381 0.30023 0.0
C3280 C 0.53287 0.12195 0.3444 0.0
C3281 C 0.49076 0.10798 0.28621 0.0
C3282 C 0.59005 0.11691 0.38411 0.0
C3283 C 0.57771 0.11924 0.37233 0.0
C3284 C 0.54366 0.09814 0.33045 0.0
C3285 C 0.5154 0.11742 0.31102 0.0
C3286 C 0.52666 0.11323 0.32486 0.0
C3287 C 0.56322 0.10461 0.36243 0.0
C3288 C 0.55018 0.10715 0.3498 0.0
H3289 H 0.51404 0.15326 0.29115 0.0
H3290 H 0.53132 0.14602 0.31562 0.0
H3291 H 0.52761 0.09441 0.30299 0.0
H3292 H 0.57218 0.0721 0.37757 0.0
H3293 H 0.55032 0.07603 0.35726 0.0
C3294 C 0.81641 0.5691 0.78681 0.0
C3295 C 0.81602 0.55522 0.77492 0.0
C3296 C 0.80153 0.5662 0.79855 0.0
C3297 C 0.76075 0.53101 0.82341 0.0
H3298 H 0.7452 0.56594 0.82078 0.0
C3299 C 0.69569 0.51827 0.86314 0.0
C3300 C 0.69619 0.53258 0.87418 0.0
C3301 C 0.70971 0.52104 0.84982 0.0
C3302 C 0.74947 0.55615 0.82185 0.0
H3303 H 0.79996 0.52749 0.76584 0.0
H3304 H 0.77393 0.52228 0.78667 0.0
H3305 H 0.7712 0.57071 0.80041 0.0
H3306 H 0.71189 0.56096 0.88034 0.0
H3307 H 0.73645 0.56585 0.85714 0.0
H3308 H 0.73928 0.51658 0.84509 0.0
C3309 C 0.78577 0.53537 0.78703 0.0
C3310 C 0.76435 0.55888 0.81018 0.0
C3311 C 0.80063 0.53832 0.77518 0.0
C3312 C 0.71089 0.54977 0.87153 0.0
C3313 C 0.725 0.55255 0.85829 0.0
C3314 C 0.74595 0.52833 0.83517 0.0
C3315 C 0.78603 0.54933 0.79869 0.0
C3316 C 0.77015 0.54635 0.81089 0.0
C3317 C 0.72466 0.53816 0.84749 0.0
C3318 C 0.74015 0.54087 0.83454 0.0
H3319 H 0.82822 0.58222 0.78695 0.0
H3320 H 0.80219 0.57714 0.80763 0.0
H3321 H 0.76507 0.52125 0.82447 0.0
H3322 H 0.68448 0.50487 0.86494 0.0
H3323 H 0.70889 0.50973 0.84146 0.0
C3324 C 0.45858 0.18112 0.8945 0.0
C3325 C 0.45852 0.16591 0.88672 0.0
C3326 C 0.45541 0.19195 0.88095 0.0
C3327 C 0.43724 0.19307 0.82826 0.0
H3328 H 0.46618 0.24427 0.83585 0.0
C3329 C 0.44029 0.24415 0.76711 0.0
C3330 C 0.4395 0.25883 0.77521 0.0
C3331 C 0.44198 0.23241 0.78079 0.0
C3332 C 0.45788 0.23 0.83369 0.0
H3333 H 0.45563 0.15033 0.85859 0.0
H3334 H 0.45018 0.16932 0.83477 0.0
H3335 H 0.47029 0.22436 0.85948 0.0
H3336 H 0.43958 0.27276 0.80373 0.0
H3337 H 0.44277 0.25232 0.82778 0.0
H3338 H 0.42506 0.19883 0.80218 0.0
C3339 C 0.45218 0.17261 0.85148 0.0
C3340 C 0.46019 0.21858 0.84723 0.0
C3341 C 0.45524 0.16169 0.86511 0.0
C3342 C 0.44038 0.26161 0.79717 0.0
C3343 C 0.4422 0.24995 0.81086 0.0
C3344 C 0.435 0.20451 0.81462 0.0
C3345 C 0.45236 0.18793 0.85924 0.0
C3346 C 0.44986 0.19999 0.84472 0.0
C3347 C 0.44303 0.23525 0.80279 0.0
C3348 C 0.44528 0.22308 0.81725 0.0
H3349 H 0.46105 0.18463 0.91113 0.0
H3350 H 0.45533 0.20347 0.8875 0.0
H3351 H 0.42892 0.17881 0.82608 0.0
H3352 H 0.43981 0.24188 0.75018 0.0
H3353 H 0.44281 0.22131 0.77413 0.0
C3354 C 0.81411 0.27189 0.89648 0.0
C3355 C 0.82859 0.28786 0.88903 0.0
C3356 C 0.80316 0.25844 0.88238 0.0
C3357 C 0.80115 0.24156 0.82847 0.0
H3358 H 0.74998 0.21861 0.83708 0.0
C3359 C 0.75052 0.19286 0.76757 0.0
C3360 C 0.73562 0.1776 0.77565 0.0
C3361 C 0.76203 0.20648 0.78118 0.0
C3362 C 0.76423 0.22474 0.8346 0.0
H3363 H 0.84257 0.30249 0.86081 0.0
H3364 H 0.82361 0.27883 0.83616 0.0
H3365 H 0.77004 0.24205 0.86124 0.0
H3366 H 0.72097 0.16432 0.80402 0.0
H3367 H 0.74117 0.18807 0.82802 0.0
H3368 H 0.79533 0.22416 0.8019 0.0
C3369 C 0.82099 0.27662 0.85299 0.0
C3370 C 0.77572 0.23817 0.84842 0.0
C3371 C 0.83194 0.29012 0.86714 0.0
C3372 C 0.73233 0.1761 0.79751 0.0
C3373 C 0.74385 0.1897 0.81116 0.0
C3374 C 0.78965 0.22807 0.81467 0.0
C3375 C 0.8064 0.26072 0.86048 0.0
C3376 C 0.79428 0.24666 0.84555 0.0
C3377 C 0.75884 0.20504 0.80314 0.0
C3378 C 0.77107 0.21948 0.81763 0.0
H3379 H 0.8112 0.26977 0.91328 0.0
H3380 H 0.79215 0.24623 0.88863 0.0
H3381 H 0.81541 0.24776 0.82602 0.0
H3382 H 0.75317 0.19429 0.75069 0.0
H3383 H 0.7733 0.21824 0.77449 0.0
C3384 C 0.42111 0.17801 0.28155 0.0
C3385 C 0.43547 0.17791 0.27134 0.0
C3386 C 0.42397 0.19262 0.29383 0.0
C3387 C 0.45835 0.22892 0.32494 0.0
H3388 H 0.42864 0.25057 0.31976 0.0
C3389 C 0.4746 0.29193 0.37155 0.0
C3390 C 0.46027 0.29277 0.38066 0.0
C3391 C 0.47153 0.27879 0.3567 0.0
C3392 C 0.43693 0.24455 0.32155 0.0
H3393 H 0.4639 0.19302 0.26533 0.0
H3394 H 0.46901 0.21842 0.28726 0.0
H3395 H 0.42309 0.22552 0.29689 0.0
H3396 H 0.43149 0.28057 0.38164 0.0
H3397 H 0.42601 0.25729 0.35597 0.0
H3398 H 0.4719 0.24744 0.34991 0.0
C3399 C 0.45559 0.20718 0.28586 0.0
C3400 C 0.43377 0.23026 0.30844 0.0
C3401 C 0.45269 0.19267 0.27342 0.0
C3402 C 0.44278 0.28042 0.37448 0.0
C3403 C 0.43967 0.26709 0.35979 0.0
C3404 C 0.4614 0.24305 0.33818 0.0
C3405 C 0.44127 0.20725 0.29624 0.0
C3406 C 0.4445 0.22238 0.31 0.0
C3407 C 0.45401 0.26598 0.35096 0.0
C3408 C 0.45077 0.25109 0.3366 0.0
H3409 H 0.40773 0.16669 0.28023 0.0
H3410 H 0.41275 0.19231 0.30184 0.0
H3411 H 0.46664 0.22288 0.32667 0.0
H3412 H 0.48822 0.3014 0.37602 0.0
H3413 H 0.4829 0.27857 0.34987 0.0
C3414 C 0.80198 0.25732 0.27056 0.0
C3415 C 0.81678 0.25491 0.26868 0.0
C3416 C 0.78701 0.24517 0.28201 0.0
C3417 C 0.76387 0.19943 0.30332 0.0
H3418 H 0.74358 0.21892 0.3426 0.0
C3419 C 0.71258 0.1576 0.36828 0.0
C3420 C 0.69905 0.16159 0.37263 0.0
C3421 C 0.72618 0.16801 0.35396 0.0
C3422 C 0.74889 0.21323 0.33148 0.0
H3423 H 0.82765 0.23795 0.27689 0.0
H3424 H 0.80141 0.21658 0.29702 0.0
H3425 H 0.76882 0.23898 0.32068 0.0
H3426 H 0.68876 0.17919 0.36512 0.0
H3427 H 0.71227 0.19718 0.33986 0.0
H3428 H 0.74392 0.17364 0.31427 0.0
C3429 C 0.8013 0.22778 0.2895 0.0
C3430 C 0.76338 0.22474 0.31894 0.0
C3431 C 0.8163 0.23999 0.27807 0.0
C3432 C 0.6991 0.17588 0.36209 0.0
C3433 C 0.71259 0.18622 0.34772 0.0
C3434 C 0.7493 0.18788 0.31585 0.0
C3435 C 0.78658 0.23035 0.29174 0.0
C3436 C 0.77103 0.21797 0.30475 0.0
C3437 C 0.72647 0.18262 0.3438 0.0
C3438 C 0.74167 0.19468 0.33007 0.0
H3439 H 0.80195 0.26858 0.26309 0.0
H3440 H 0.77575 0.24733 0.28318 0.0
H3441 H 0.7694 0.19384 0.29235 0.0
H3442 H 0.71312 0.14694 0.3766 0.0
H3443 H 0.73682 0.16506 0.3515 0.0
C3444 C 0.83731 0.55341 0.36794 0.0
C3445 C 0.83237 0.53606 0.37455 0.0
C3446 C 0.82666 0.5562 0.35354 0.0
C3447 C 0.79144 0.53403 0.31341 0.0
H3448 H 0.77803 0.56902 0.32936 0.0
C3449 C 0.74981 0.5535 0.25967 0.0
C3450 C 0.73587 0.55457 0.26958 0.0
C3451 C 0.76211 0.55135 0.27173 0.0
C3452 C 0.78163 0.55918 0.32476 0.0
H3453 H 0.81277 0.50805 0.37112 0.0
H3454 H 0.79425 0.51289 0.34584 0.0
H3455 H 0.79944 0.56545 0.35106 0.0
H3456 H 0.72354 0.55409 0.29957 0.0
H3457 H 0.74516 0.55033 0.32088 0.0
H3458 H 0.77345 0.5276 0.28726 0.0
C3459 C 0.80636 0.52431 0.35164 0.0
C3460 C 0.79402 0.55729 0.33701 0.0
C3461 C 0.81689 0.52155 0.36617 0.0
C3462 C 0.73423 0.55326 0.29169 0.0
C3463 C 0.74663 0.55125 0.30381 0.0
C3464 C 0.77918 0.53604 0.30104 0.0
C3465 C 0.81099 0.54168 0.34546 0.0
C3466 C 0.7989 0.54457 0.33156 0.0
C3467 C 0.76073 0.55036 0.29393 0.0
C3468 C 0.77403 0.54851 0.30673 0.0
H3469 H 0.84895 0.56486 0.37451 0.0
H3470 H 0.83053 0.56972 0.34897 0.0
H3471 H 0.79505 0.52418 0.30882 0.0
H3472 H 0.75123 0.55445 0.24258 0.0
H3473 H 0.77291 0.5508 0.26374 0.0
C3474 C 0.62461 0.14418 0.78844 0.0
C3475 C 0.62551 0.12997 0.77905 0.0
C3476 C 0.61117 0.14092 0.80295 0.0
C3477 C 0.57612 0.10566 0.8368 0.0
H3478 H 0.55525 0.13617 0.83317 0.0
C3479 C 0.50959 0.08958 0.877 0.0
C3480 C 0.50966 0.10366 0.8881 0.0
C3481 C 0.52414 0.09267 0.86443 0.0
C3482 C 0.56106 0.12764 0.83447 0.0
H3483 H 0.61297 0.10121 0.7771 0.0
H3484 H 0.5892 0.09541 0.80216 0.0
H3485 H 0.57998 0.14169 0.81 0.0
H3486 H 0.52501 0.13189 0.89522 0.0
H3487 H 0.55029 0.13742 0.87274 0.0
H3488 H 0.55672 0.09135 0.86095 0.0
C3489 C 0.59919 0.10911 0.79886 0.0
C3490 C 0.57528 0.13084 0.82128 0.0
C3491 C 0.61281 0.1124 0.78451 0.0
C3492 C 0.52451 0.12088 0.88647 0.0
C3493 C 0.53896 0.12402 0.87371 0.0
C3494 C 0.56174 0.10236 0.84984 0.0
C3495 C 0.5981 0.12334 0.80807 0.0
C3496 C 0.58304 0.11993 0.82232 0.0
C3497 C 0.53891 0.10994 0.86258 0.0
C3498 C 0.55413 0.11336 0.84882 0.0
H3499 H 0.63432 0.15785 0.78451 0.0
H3500 H 0.61097 0.1522 0.81006 0.0
H3501 H 0.58192 0.09715 0.83822 0.0
H3502 H 0.49821 0.07621 0.87794 0.0
H3503 H 0.52371 0.08163 0.85584 0.0
C3504 C 0.86331 0.47583 0.76772 0.0
C3505 C 0.86478 0.49176 0.77527 0.0
C3506 C 0.86562 0.46449 0.7814 0.0
C3507 C 0.88511 0.46347 0.83294 0.0
H3508 H 0.85391 0.41231 0.82782 0.0
C3509 C 0.8861 0.41432 0.8935 0.0
C3510 C 0.88594 0.39922 0.88521 0.0
C3511 C 0.88276 0.4253 0.88039 0.0
C3512 C 0.86281 0.42656 0.82931 0.0
H3513 H 0.86893 0.50791 0.80325 0.0
H3514 H 0.8731 0.48816 0.82719 0.0
H3515 H 0.8497 0.43233 0.80439 0.0
H3516 H 0.88181 0.38336 0.85705 0.0
H3517 H 0.87593 0.40258 0.83393 0.0
H3518 H 0.89823 0.45769 0.85785 0.0
C3519 C 0.87063 0.48467 0.81056 0.0
C3520 C 0.86042 0.43802 0.81589 0.0
C3521 C 0.86835 0.49604 0.79683 0.0
C3522 C 0.88193 0.39494 0.86373 0.0
C3523 C 0.87854 0.40591 0.85058 0.0
C3524 C 0.88747 0.45201 0.84638 0.0
C3525 C 0.86927 0.46876 0.80298 0.0
C3526 C 0.87159 0.4566 0.81751 0.0
C3527 C 0.87913 0.42132 0.85874 0.0
C3528 C 0.87639 0.43344 0.84467 0.0
H3529 H 0.86051 0.4722 0.75115 0.0
H3530 H 0.86471 0.45245 0.77502 0.0
H3531 H 0.89409 0.4777 0.83437 0.0
H3532 H 0.88891 0.41768 0.91013 0.0
H3533 H 0.88299 0.4369 0.8872 0.0
C3534 C 0.50925 0.37135 0.80052 0.0
C3535 C 0.49443 0.36927 0.78905 0.0
C3536 C 0.51725 0.3847 0.81578 0.0
C3537 C 0.52527 0.42904 0.82713 0.0
H3538 H 0.54303 0.42239 0.8808 0.0
C3539 C 0.56918 0.48825 0.88225 0.0
C3540 C 0.58385 0.48803 0.89137 0.0
C3541 C 0.55592 0.47317 0.87188 0.0
C3542 C 0.53825 0.42448 0.86581 0.0
H3543 H 0.47633 0.37946 0.78441 0.0
H3544 H 0.49041 0.40295 0.81116 0.0
H3545 H 0.52343 0.39647 0.85925 0.0
H3546 H 0.59614 0.47194 0.89726 0.0
H3547 H 0.57345 0.44583 0.87847 0.0
H3548 H 0.54067 0.45705 0.83313 0.0
C3549 C 0.49566 0.39408 0.80848 0.0
C3550 C 0.52696 0.40964 0.85356 0.0
C3551 C 0.48751 0.38055 0.79336 0.0
C3552 C 0.58506 0.4725 0.89008 0.0
C3553 C 0.5719 0.45747 0.87961 0.0
C3554 C 0.53667 0.4439 0.8393 0.0
C3555 C 0.51075 0.39641 0.81962 0.0
C3556 C 0.52067 0.41182 0.83391 0.0
C3557 C 0.55717 0.45762 0.87038 0.0
C3558 C 0.5436 0.4418 0.85856 0.0
H3559 H 0.51485 0.36284 0.79739 0.0
H3560 H 0.529 0.38634 0.82393 0.0
H3561 H 0.52077 0.4311 0.81192 0.0
H3562 H 0.56801 0.50013 0.88306 0.0
H3563 H 0.54468 0.47367 0.86511 0.0
C3564 C 0.55694 0.80416 0.72884 0.0
C3565 C 0.557 0.8188 0.71922 0.0
C3566 C 0.55356 0.78926 0.71681 0.0
C3567 C 0.53212 0.76601 0.66755 0.0
H3568 H 0.56179 0.74433 0.67336 0.0
C3569 C 0.5297 0.71568 0.60713 0.0
C3570 C 0.53036 0.70074 0.61459 0.0
C3571 C 0.53282 0.72956 0.62079 0.0
C3572 C 0.55324 0.75009 0.67179 0.0
H3573 H 0.55382 0.82966 0.68972 0.0
H3574 H 0.5478 0.80354 0.66857 0.0
H3575 H 0.56756 0.76979 0.69561 0.0
H3576 H 0.53424 0.68835 0.64239 0.0
H3577 H 0.53981 0.71276 0.6664 0.0
H3578 H 0.51779 0.7464 0.64379 0.0
C3579 C 0.55021 0.80349 0.68541 0.0
C3580 C 0.55657 0.76466 0.68447 0.0
C3581 C 0.55368 0.8184 0.69743 0.0
C3582 C 0.53415 0.69991 0.63607 0.0
C3583 C 0.53724 0.71384 0.64982 0.0
C3584 C 0.52876 0.75143 0.65495 0.0
C3585 C 0.55008 0.78876 0.695 0.0
C3586 C 0.54617 0.77288 0.68226 0.0
C3587 C 0.53649 0.72875 0.64231 0.0
C3588 C 0.53944 0.74348 0.65672 0.0
H3589 H 0.55927 0.80415 0.74571 0.0
H3590 H 0.55335 0.77802 0.72463 0.0
H3591 H 0.52368 0.77187 0.66581 0.0
H3592 H 0.52689 0.71671 0.59062 0.0
H3593 H 0.53247 0.741 0.61443 0.0
C3594 C 0.29416 0.83577 0.63242 0.0
C3595 C 0.2941 0.83142 0.611 0.0
C3596 C 0.27962 0.82495 0.64539 0.0
C3597 C 0.24106 0.77913 0.64864 0.0
H3598 H 0.2241 0.79961 0.69098 0.0
C3599 C 0.17561 0.73713 0.69465 0.0
C3600 C 0.17652 0.73985 0.71663 0.0
C3601 C 0.1898 0.74867 0.6817 0.0
C3602 C 0.22879 0.79373 0.67931 0.0
H3603 H 0.27909 0.81252 0.58622 0.0
H3604 H 0.25349 0.79382 0.60864 0.0
H3605 H 0.24926 0.81923 0.66837 0.0
H3606 H 0.19273 0.75657 0.74245 0.0
H3607 H 0.21754 0.77698 0.71975 0.0
H3608 H 0.22048 0.75365 0.65945 0.0
C3609 C 0.26479 0.80538 0.6156 0.0
C3610 C 0.24321 0.80494 0.66641 0.0
C3611 C 0.27937 0.81612 0.60273 0.0
C3612 C 0.1917 0.75438 0.72547 0.0
C3613 C 0.20584 0.76602 0.71252 0.0
C3614 C 0.22658 0.76795 0.66142 0.0
C3615 C 0.26479 0.80958 0.63712 0.0
C3616 C 0.2495 0.79776 0.65092 0.0
C3617 C 0.20507 0.7632 0.69052 0.0
C3618 C 0.22031 0.77513 0.67687 0.0
H3619 H 0.30563 0.84727 0.63924 0.0
H3620 H 0.28018 0.82838 0.66198 0.0
H3621 H 0.24579 0.77314 0.63717 0.0
H3622 H 0.16393 0.72605 0.68753 0.0
H3623 H 0.18879 0.74631 0.66476 0.0
C3624 C 0.17343 0.47097 0.63213 0.0
C3625 C 0.15902 0.45815 0.62021 0.0
C3626 C 0.18201 0.46576 0.6468 0.0
C3627 C 0.19143 0.42979 0.65658 0.0
H3628 H 0.20943 0.45389 0.71036 0.0
C3629 C 0.23397 0.41303 0.71227 0.0
C3630 C 0.24908 0.42777 0.72092 0.0
C3631 C 0.22104 0.41532 0.70176 0.0
C3632 C 0.20455 0.4471 0.69534 0.0
H3633 H 0.14238 0.42984 0.61406 0.0
H3634 H 0.15719 0.42071 0.64 0.0
H3635 H 0.18967 0.46029 0.68919 0.0
H3636 H 0.26248 0.45632 0.72591 0.0
H3637 H 0.24018 0.46045 0.70708 0.0
H3638 H 0.20668 0.41696 0.66239 0.0
C3639 C 0.16177 0.43478 0.63806 0.0
C3640 C 0.19323 0.45074 0.68327 0.0
C3641 C 0.15314 0.44 0.62343 0.0
C3642 C 0.25103 0.44479 0.71909 0.0
C3643 C 0.23814 0.4471 0.70859 0.0
C3644 C 0.20278 0.42617 0.66863 0.0
C3645 C 0.17645 0.44763 0.64968 0.0
C3646 C 0.18681 0.44235 0.66359 0.0
C3647 C 0.22302 0.43239 0.69977 0.0
C3648 C 0.20973 0.43504 0.68795 0.0
H3649 H 0.17828 0.48506 0.62984 0.0
H3650 H 0.19344 0.47599 0.65528 0.0
H3651 H 0.18689 0.4233 0.64134 0.0
H3652 H 0.23223 0.39977 0.71351 0.0
H3653 H 0.20946 0.40372 0.69529 0.0
C3654 C 0.4847 0.8855 0.12913 0.0
C3655 C 0.48348 0.88742 0.10725 0.0
C3656 C 0.4708 0.88304 0.14249 0.0
C3657 C 0.43201 0.88981 0.14527 0.0
H3658 H 0.41822 0.85648 0.1921 0.0
C3659 C 0.3702 0.87041 0.19819 0.0
C3660 C 0.37267 0.86957 0.22008 0.0
C3661 C 0.38356 0.87278 0.18391 0.0
C3662 C 0.42204 0.86595 0.1792 0.0
H3663 H 0.46692 0.888 0.08192 0.0
H3664 H 0.44242 0.88353 0.10523 0.0
H3665 H 0.44173 0.8599 0.16801 0.0
H3666 H 0.39099 0.87052 0.24418 0.0
H3667 H 0.41428 0.87466 0.21932 0.0
H3668 H 0.41222 0.89579 0.15651 0.0
C3669 C 0.45421 0.88422 0.11216 0.0
C3670 C 0.4355 0.86792 0.16542 0.0
C3671 C 0.46814 0.8867 0.09883 0.0
C3672 C 0.38871 0.87111 0.22739 0.0
C3673 C 0.40201 0.87341 0.21316 0.0
C3674 C 0.41848 0.8878 0.15904 0.0
C3675 C 0.45541 0.88241 0.13416 0.0
C3676 C 0.44074 0.87997 0.1484 0.0
C3677 C 0.39953 0.87414 0.19127 0.0
C3678 C 0.41348 0.87595 0.17624 0.0
H3679 H 0.49653 0.88615 0.1359 0.0
H3680 H 0.47225 0.88194 0.15939 0.0
H3681 H 0.43589 0.89937 0.13246 0.0
H3682 H 0.35777 0.86863 0.19197 0.0
H3683 H 0.38119 0.87301 0.16709 0.0
C3684 C 0.11598 0.58967 0.10578 0.0
C3685 C 0.0995 0.58882 0.10294 0.0
C3686 C 0.11729 0.57729 0.11871 0.0
C3687 C 0.09434 0.54592 0.16253 0.0
H3688 H 0.12623 0.52828 0.14762 0.0
C3689 C 0.11803 0.49387 0.19545 0.0
C3690 C 0.12033 0.49878 0.21693 0.0
C3691 C 0.11372 0.50318 0.1807 0.0
C3692 C 0.11708 0.53288 0.15189 0.0
H3693 H 0.07147 0.57449 0.11118 0.0
H3694 H 0.07359 0.55254 0.13343 0.0
H3695 H 0.12193 0.54747 0.12295 0.0
H3696 H 0.12005 0.51733 0.23979 0.0
H3697 H 0.1129 0.53375 0.21411 0.0
H3698 H 0.08934 0.53119 0.19136 0.0
C3699 C 0.08557 0.56289 0.12595 0.0
C3700 C 0.1148 0.54407 0.13787 0.0
C3701 C 0.08431 0.57534 0.11309 0.0
C3702 C 0.11825 0.51316 0.22336 0.0
C3703 C 0.11398 0.52247 0.20866 0.0
C3704 C 0.09657 0.53468 0.1765 0.0
C3705 C 0.1021 0.56376 0.12896 0.0
C3706 C 0.10362 0.55093 0.14318 0.0
C3707 C 0.11175 0.51765 0.18715 0.0
C3708 C 0.10818 0.52827 0.17149 0.0
H3709 H 0.12785 0.59986 0.09792 0.0
H3710 H 0.13026 0.57849 0.12093 0.0
H3711 H 0.08573 0.55108 0.16719 0.0
H3712 H 0.12009 0.48324 0.18983 0.0
H3713 H 0.11205 0.49913 0.16423 0.0
C3714 C 0.39341 0.51218 0.12478 0.0
C3715 C 0.39729 0.5139 0.10306 0.0
C3716 C 0.40452 0.52569 0.1388 0.0
C3717 C 0.45055 0.56326 0.14343 0.0
H3718 H 0.43141 0.57664 0.19105 0.0
C3719 C 0.49416 0.62286 0.19847 0.0
C3720 C 0.49072 0.61993 0.22029 0.0
C3721 C 0.48286 0.61011 0.1838 0.0
C3722 C 0.43694 0.57292 0.17792 0.0
H3723 H 0.41515 0.53108 0.07863 0.0
H3724 H 0.43453 0.55488 0.10305 0.0
H3725 H 0.41106 0.55428 0.16595 0.0
H3726 H 0.47275 0.60147 0.24387 0.0
H3727 H 0.45307 0.57921 0.21828 0.0
H3728 H 0.47644 0.58195 0.15542 0.0
C3729 C 0.42318 0.54299 0.10938 0.0
C3730 C 0.4253 0.56013 0.16356 0.0
C3731 C 0.41209 0.52947 0.09541 0.0
C3732 C 0.47575 0.60407 0.22714 0.0
C3733 C 0.46444 0.59137 0.21251 0.0
C3734 C 0.46219 0.57611 0.15775 0.0
C3735 C 0.41965 0.54115 0.13126 0.0
C3736 C 0.43197 0.5551 0.14621 0.0
C3737 C 0.46781 0.5943 0.19069 0.0
C3738 C 0.4555 0.58098 0.1752 0.0
H3739 H 0.38206 0.50019 0.13094 0.0
H3740 H 0.40155 0.52379 0.15558 0.0
H3741 H 0.45612 0.55947 0.13041 0.0
H3742 H 0.50518 0.6352 0.19263 0.0
H3743 H 0.48561 0.61283 0.16705 0.0
C3744 C 0.14257 0.62981 0.69554 0.0
C3745 C 0.12828 0.6305 0.70505 0.0
C3746 C 0.13941 0.61673 0.68058 0.0
C3747 C 0.10482 0.58209 0.64592 0.0
H3748 H 0.13417 0.56015 0.65254 0.0
C3749 C 0.08893 0.51499 0.60717 0.0
C3750 C 0.10345 0.51432 0.59829 0.0
C3751 C 0.09172 0.52989 0.61882 0.0
C3752 C 0.126 0.56627 0.65034 0.0
H3753 H 0.09949 0.61817 0.70642 0.0
H3754 H 0.09389 0.59504 0.68044 0.0
H3755 H 0.1395 0.58511 0.67503 0.0
H3756 H 0.13209 0.52876 0.59375 0.0
H3757 H 0.13704 0.55472 0.61437 0.0
H3758 H 0.09108 0.5628 0.62145 0.0
C3759 C 0.10756 0.6049 0.68413 0.0
C3760 C 0.12908 0.58062 0.66317 0.0
C3761 C 0.11075 0.61815 0.69898 0.0
C3762 C 0.12074 0.52885 0.60086 0.0
C3763 C 0.12355 0.54368 0.61257 0.0
C3764 C 0.10166 0.56761 0.63313 0.0
C3765 C 0.12186 0.60384 0.6751 0.0
C3766 C 0.11858 0.58875 0.66107 0.0
C3767 C 0.10909 0.54428 0.62182 0.0
C3768 C 0.11228 0.55962 0.6352 0.0
H3769 H 0.15622 0.63928 0.6999 0.0
H3770 H 0.15073 0.61652 0.67359 0.0
H3771 H 0.0966 0.58816 0.64381 0.0
H3772 H 0.07549 0.50387 0.60538 0.0
H3773 H 0.08036 0.52996 0.62593 0.0
C3774 C 0.38017 0.50736 0.71579 0.0
C3775 C 0.36531 0.49257 0.70689 0.0
C3776 C 0.39506 0.51812 0.70338 0.0
C3777 C 0.41695 0.51991 0.65224 0.0
H3778 H 0.43994 0.57094 0.66173 0.0
C3779 C 0.46837 0.57277 0.59489 0.0
C3780 C 0.48354 0.58697 0.60422 0.0
C3781 C 0.45435 0.5605 0.60752 0.0
C3782 C 0.43377 0.55671 0.65906 0.0
H3783 H 0.35396 0.47748 0.67813 0.0
H3784 H 0.37994 0.4965 0.65613 0.0
H3785 H 0.4145 0.55085 0.68341 0.0
H3786 H 0.49634 0.59941 0.63382 0.0
H3787 H 0.47166 0.57809 0.65604 0.0
H3788 H 0.4361 0.52598 0.62747 0.0
C3789 C 0.38034 0.49951 0.67285 0.0
C3790 C 0.41922 0.54518 0.6715 0.0
C3791 C 0.36549 0.48863 0.68538 0.0
C3792 C 0.48463 0.58865 0.62634 0.0
C3793 C 0.47056 0.57649 0.63898 0.0
C3794 C 0.43144 0.53149 0.63966 0.0
C3795 C 0.39523 0.51448 0.68169 0.0
C3796 C 0.41068 0.52664 0.66831 0.0
C3797 C 0.45525 0.56237 0.62968 0.0
C3798 C 0.44001 0.54999 0.64302 0.0
H3799 H 0.38028 0.51059 0.73241 0.0
H3800 H 0.40642 0.52932 0.7108 0.0
H3801 H 0.4108 0.50569 0.64955 0.0
H3802 H 0.46724 0.57136 0.57781 0.0
H3803 H 0.44261 0.54985 0.59996 0.0
C3804 C 0.42451 0.91127 0.60771 0.0
C3805 C 0.40959 0.89633 0.59909 0.0
C3806 C 0.43722 0.90929 0.61915 0.0
C3807 C 0.45294 0.87716 0.62977 0.0
H3808 H 0.47198 0.90499 0.6811 0.0
C3809 C 0.48443 0.858 0.69781 0.0
C3810 C 0.49996 0.87164 0.70726 0.0
C3811 C 0.47546 0.86202 0.68234 0.0
C3812 C 0.46699 0.89733 0.66663 0.0
H3813 H 0.39628 0.86766 0.59528 0.0
H3814 H 0.41801 0.86401 0.61603 0.0
H3815 H 0.45205 0.91005 0.65863 0.0
H3816 H 0.51821 0.90016 0.70825 0.0
H3817 H 0.50245 0.90722 0.68116 0.0
H3818 H 0.46738 0.86396 0.63838 0.0
C3819 C 0.42018 0.87734 0.61362 0.0
C3820 C 0.45558 0.90023 0.65372 0.0
C3821 C 0.40758 0.87937 0.60202 0.0
C3822 C 0.50649 0.88937 0.70087 0.0
C3823 C 0.49739 0.89342 0.68556 0.0
C3824 C 0.4642 0.87415 0.6428 0.0
C3825 C 0.43515 0.89228 0.62235 0.0
C3826 C 0.44823 0.89002 0.63528 0.0
C3827 C 0.4817 0.87978 0.67631 0.0
C3828 C 0.47115 0.88406 0.66147 0.0
H3829 H 0.42629 0.9245 0.60575 0.0
H3830 H 0.44869 0.9211 0.62543 0.0
H3831 H 0.44781 0.86931 0.61545 0.0
H3832 H 0.47911 0.84423 0.70256 0.0
H3833 H 0.46328 0.85128 0.67565 0.0
C3834 C 0.19214 0.44369 0.2223 0.0
C3835 C 0.17671 0.44333 0.21477 0.0
C3836 C 0.20572 0.44631 0.20833 0.0
C3837 C 0.22362 0.46316 0.15496 0.0
H3838 H 0.24587 0.43411 0.16184 0.0
C3839 C 0.27028 0.46068 0.09197 0.0
C3840 C 0.28605 0.46154 0.09921 0.0
C3841 C 0.25693 0.45825 0.10621 0.0
C3842 C 0.2399 0.44243 0.15986 0.0
H3843 H 0.16329 0.44563 0.18704 0.0
H3844 H 0.18702 0.45009 0.16238 0.0
H3845 H 0.22259 0.4306 0.18644 0.0
H3846 H 0.30046 0.46121 0.12719 0.0
H3847 H 0.27698 0.45664 0.15205 0.0
H3848 H 0.24086 0.4749 0.12829 0.0
C3849 C 0.18874 0.44854 0.17911 0.0
C3850 C 0.22659 0.44045 0.17394 0.0
C3851 C 0.17516 0.44596 0.19314 0.0
C3852 C 0.28822 0.45994 0.12101 0.0
C3853 C 0.27482 0.45747 0.13528 0.0
C3854 C 0.23689 0.4651 0.14085 0.0
C3855 C 0.2041 0.44859 0.18655 0.0
C3856 C 0.2183 0.45078 0.17164 0.0
C3857 C 0.25911 0.45674 0.12802 0.0
C3858 C 0.24514 0.45473 0.14313 0.0
H3859 H 0.19366 0.44192 0.23902 0.0
H3860 H 0.21752 0.44662 0.21461 0.0
H3861 H 0.21769 0.47151 0.15297 0.0
H3862 H 0.26825 0.46188 0.07525 0.0
H3863 H 0.24487 0.45751 0.10012 0.0
C3864 C 0.54652 0.72635 0.19711 0.0
C3865 C 0.55034 0.73023 0.21867 0.0
C3866 C 0.54325 0.73755 0.18428 0.0
C3867 C 0.55176 0.78363 0.18146 0.0
H3868 H 0.51548 0.76441 0.13766 0.0
C3869 C 0.53344 0.8276 0.13013 0.0
C3870 C 0.53135 0.82373 0.10835 0.0
C3871 C 0.53534 0.81625 0.1443 0.0
C3872 C 0.52575 0.76996 0.14973 0.0
H3873 H 0.5531 0.7482 0.24412 0.0
H3874 H 0.54724 0.76778 0.22177 0.0
H3875 H 0.51911 0.74413 0.16124 0.0
H3876 H 0.52946 0.80493 0.08434 0.0
H3877 H 0.53284 0.78521 0.10903 0.0
H3878 H 0.55842 0.80948 0.16986 0.0
C3879 C 0.54713 0.75634 0.21462 0.0
C3880 C 0.52784 0.75836 0.16321 0.0
C3881 C 0.55042 0.74516 0.2274 0.0
C3882 C 0.53105 0.80826 0.10105 0.0
C3883 C 0.53291 0.79693 0.11519 0.0
C3884 C 0.54964 0.79524 0.168 0.0
C3885 C 0.54368 0.75276 0.19287 0.0
C3886 C 0.54096 0.76507 0.1791 0.0
C3887 C 0.53499 0.80076 0.13696 0.0
C3888 C 0.53673 0.78851 0.15188 0.0
H3889 H 0.54647 0.7149 0.19011 0.0
H3890 H 0.54082 0.73454 0.16754 0.0
H3891 H 0.56216 0.78921 0.19337 0.0
H3892 H 0.53307 0.83905 0.13635 0.0
H3893 H 0.53665 0.81938 0.16106 0.0
C3894 C 0.26653 0.81728 0.19428 0.0
C3895 C 0.2617 0.81756 0.21542 0.0
C3896 C 0.25549 0.80297 0.18114 0.0
C3897 C 0.2089 0.76739 0.17538 0.0
H3898 H 0.22839 0.74602 0.13772 0.0
C3899 C 0.16421 0.70293 0.12856 0.0
C3900 C 0.16922 0.70225 0.1076 0.0
C3901 C 0.17555 0.71701 0.1418 0.0
C3902 C 0.22277 0.75199 0.14796 0.0
H3903 H 0.2421 0.80304 0.23979 0.0
H3904 H 0.22272 0.77805 0.21683 0.0
H3905 H 0.24838 0.77069 0.16064 0.0
H3906 H 0.18996 0.7154 0.08402 0.0
H3907 H 0.20967 0.74019 0.10696 0.0
H3908 H 0.18332 0.74884 0.16262 0.0
C3909 C 0.23484 0.78896 0.21028 0.0
C3910 C 0.23421 0.76608 0.16109 0.0
C3911 C 0.24591 0.80321 0.22339 0.0
C3912 C 0.1858 0.71572 0.10013 0.0
C3913 C 0.1971 0.72982 0.1133 0.0
C3914 C 0.19747 0.75335 0.16219 0.0
C3915 C 0.23945 0.78877 0.18898 0.0
C3916 C 0.22738 0.77389 0.17495 0.0
C3917 C 0.19213 0.7306 0.1343 0.0
C3918 C 0.20427 0.74549 0.14835 0.0
H3919 H 0.27864 0.82829 0.18783 0.0
H3920 H 0.2593 0.80321 0.16473 0.0
H3921 H 0.20331 0.77334 0.1857 0.0
H3922 H 0.15173 0.69237 0.13486 0.0
H3923 H 0.1715 0.71705 0.15803 0.0
loop_
_geom_bond_atom_site_label_1
_geom_bond_atom_site_label_2
_geom_bond_distance
_geom_bond_site_symmetry_2
_ccdc_geom_bond_type
Co0 O3 1.970 . S
Co0 N17 1.989 . S
Co0 O25 1.967 . S
Co0 O32 1.920 . S
Co1 O4 1.966 . S
Co1 N10 2.022 . S
Co1 N18 1.993 . S
Co1 O26 1.941 . S
C2 O3 1.258 . S
C2 O4 1.263 . S
O3 Co0 1.970 . S
O3 C2 1.258 . S
O4 Co1 1.966 . S
O4 C2 1.263 . S
C5 O6 1.235 . S
C5 O32 1.289 . S
O6 C5 1.235 . S
C7 C9 1.400 . S
C7 N10 1.351 . S
C7 C12 1.501 . S
C8 C9 1.387 . S
C8 N11 1.341 . S
C9 C7 1.400 . S
C9 C8 1.387 . S
N10 Co1 2.022 . S
N10 C7 1.351 . S
N10 N11 1.365 . S
N11 C8 1.341 . S
N11 N10 1.365 . S
N11 H31 0.862 . S
C12 C7 1.501 . S
C12 H13 0.961 . S
C12 H14 0.961 . S
C12 H15 0.960 . S
H13 C12 0.961 . S
H14 C12 0.961 . S
H15 C12 0.960 . S
C16 N17 1.342 . S
C16 C20 1.401 . S
C16 C21 1.499 . S
N17 Co0 1.989 . S
N17 C16 1.342 . S
N17 N18 1.388 . S
N18 Co1 1.993 . S
N18 N17 1.388 . S
N18 C19 1.346 . S
C19 N18 1.346 . S
C19 C20 1.396 . S
C19 C29 1.510 . S
C20 C16 1.401 . S
C20 C19 1.396 . S
C21 C16 1.499 . S
C21 H22 0.959 . S
C21 H23 0.960 . S
C21 H24 0.961 . S
H22 C21 0.959 . S
H23 C21 0.960 . S
H24 C21 0.961 . S
O25 Co0 1.967 . S
O25 C33 1.258 . S
O26 Co1 1.941 . S
O26 C33 1.266 . S
H27 C29 0.959 . S
H28 C29 0.961 . S
C29 C19 1.510 . S
C29 H27 0.959 . S
C29 H28 0.961 . S
C29 H30 0.960 . S
H30 C29 0.960 . S
H31 N11 0.862 . S
O32 Co0 1.920 . S
O32 C5 1.289 . S
C33 O25 1.258 . S
C33 O26 1.266 . S
Co34 O37 1.970 . S
Co34 N51 1.989 . S
Co34 O59 1.967 . S
Co34 O66 1.920 . S
Co35 O38 1.966 . S
Co35 N44 2.022 1_545 S
Co35 N52 1.993 . S
Co35 O60 1.941 . S
C36 O37 1.258 . S
C36 O38 1.263 . S
O37 Co34 1.970 . S
O37 C36 1.258 . S
O38 Co35 1.966 . S
O38 C36 1.263 . S
C39 O40 1.235 . S
C39 O66 1.289 . S
O40 C39 1.235 . S
C41 C43 1.400 . S
C41 N44 1.351 . S
C41 C46 1.501 . S
C42 C43 1.387 . S
C42 N45 1.341 . S
C43 C41 1.400 . S
C43 C42 1.387 . S
N44 Co35 2.022 1_565 S
N44 C41 1.351 . S
N44 N45 1.365 . S
N45 C42 1.341 . S
N45 N44 1.365 . S
N45 H65 0.862 . S
C46 C41 1.501 . S
C46 H47 0.961 . S
C46 H48 0.961 . S
C46 H49 0.960 . S
H47 C46 0.961 . S
H48 C46 0.961 . S
H49 C46 0.960 . S
C50 N51 1.342 . S
C50 C54 1.401 . S
C50 C55 1.499 . S
N51 Co34 1.989 . S
N51 C50 1.342 . S
N51 N52 1.388 . S
N52 Co35 1.993 . S
N52 N51 1.388 . S
N52 C53 1.346 . S
C53 N52 1.346 . S
C53 C54 1.396 . S
C53 C63 1.510 . S
C54 C50 1.401 . S
C54 C53 1.396 . S
C55 C50 1.499 . S
C55 H56 0.959 . S
C55 H57 0.960 . S
C55 H58 0.961 . S
H56 C55 0.959 . S
H57 C55 0.960 . S
H58 C55 0.961 . S
O59 Co34 1.967 . S
O59 C67 1.258 . S
O60 Co35 1.941 . S
O60 C67 1.266 . S
H61 C63 0.959 . S
H62 C63 0.961 . S
C63 C53 1.510 . S
C63 H61 0.959 . S
C63 H62 0.961 . S
C63 H64 0.960 . S
H64 C63 0.960 . S
H65 N45 0.862 . S
O66 Co34 1.920 . S
O66 C39 1.289 . S
C67 O59 1.258 . S
C67 O60 1.266 . S
Co68 O71 1.970 . S
Co68 N85 1.989 . S
Co68 O93 1.967 . S
Co68 O100 1.920 . S
Co69 O72 1.966 . S
Co69 N78 2.022 1_655 S
Co69 N86 1.993 . S
Co69 O94 1.941 . S
C70 O71 1.258 . S
C70 O72 1.263 . S
O71 Co68 1.970 . S
O71 C70 1.258 . S
O72 Co69 1.966 . S
O72 C70 1.263 . S
C73 O74 1.235 . S
C73 O100 1.289 . S
O74 C73 1.235 . S
C75 C77 1.400 . S
C75 N78 1.351 . S
C75 C80 1.501 . S
C76 C77 1.387 . S
C76 N79 1.341 . S
C77 C75 1.400 . S
C77 C76 1.387 . S
N78 Co69 2.022 1_455 S
N78 C75 1.351 . S
N78 N79 1.365 . S
N79 C76 1.341 . S
N79 N78 1.365 . S
N79 H99 0.862 . S
C80 C75 1.501 . S
C80 H81 0.961 . S
C80 H82 0.961 . S
C80 H83 0.960 . S
H81 C80 0.961 . S
H82 C80 0.961 . S
H83 C80 0.960 . S
C84 N85 1.342 . S
C84 C88 1.401 . S
C84 C89 1.499 . S
N85 Co68 1.989 . S
N85 C84 1.342 . S
N85 N86 1.388 . S
N86 Co69 1.993 . S
N86 N85 1.388 . S
N86 C87 1.346 . S
C87 N86 1.346 . S
C87 C88 1.396 . S
C87 C97 1.510 . S
C88 C84 1.401 . S
C88 C87 1.396 . S
C89 C84 1.499 . S
C89 H90 0.959 . S
C89 H91 0.960 . S
C89 H92 0.961 . S
H90 C89 0.959 . S
H91 C89 0.960 . S
H92 C89 0.961 . S
O93 Co68 1.967 . S
O93 C101 1.258 . S
O94 Co69 1.941 . S
O94 C101 1.266 . S
H95 C97 0.959 . S
H96 C97 0.961 . S
C97 C87 1.510 . S
C97 H95 0.959 . S
C97 H96 0.961 . S
C97 H98 0.960 . S
H98 C97 0.960 . S
H99 N79 0.862 . S
O100 Co68 1.920 . S
O100 C73 1.289 . S
C101 O93 1.258 . S
C101 O94 1.266 . S
Co102 O105 1.970 . S
Co102 N119 1.989 . S
Co102 O127 1.967 . S
Co102 O134 1.920 . S
Co103 O106 1.966 . S
Co103 N112 2.022 . S
Co103 N120 1.993 . S
Co103 O128 1.941 . S
C104 O105 1.258 . S
C104 O106 1.263 . S
O105 Co102 1.970 . S
O105 C104 1.258 . S
O106 Co103 1.966 . S
O106 C104 1.263 . S
C107 O108 1.235 . S
C107 O134 1.289 . S
O108 C107 1.235 . S
C109 C111 1.400 . S
C109 N112 1.351 . S
C109 C114 1.501 . S
C110 C111 1.387 . S
C110 N113 1.341 . S
C111 C109 1.400 . S
C111 C110 1.387 . S
N112 Co103 2.022 . S
N112 C109 1.351 . S
N112 N113 1.365 . S
N113 C110 1.341 . S
N113 N112 1.365 . S
N113 H133 0.862 . S
C114 C109 1.501 . S
C114 H115 0.961 . S
C114 H116 0.961 . S
C114 H117 0.960 . S
H115 C114 0.961 . S
H116 C114 0.961 . S
H117 C114 0.960 . S
C118 N119 1.342 . S
C118 C122 1.401 . S
C118 C123 1.499 . S
N119 Co102 1.989 . S
N119 C118 1.342 . S
N119 N120 1.388 . S
N120 Co103 1.993 . S
N120 N119 1.388 . S
N120 C121 1.346 . S
C121 N120 1.346 . S
C121 C122 1.396 . S
C121 C131 1.510 . S
C122 C118 1.401 . S
C122 C121 1.396 . S
C123 C118 1.499 . S
C123 H124 0.959 . S
C123 H125 0.960 . S
C123 H126 0.961 . S
H124 C123 0.959 . S
H125 C123 0.960 . S
H126 C123 0.961 . S
O127 Co102 1.967 . S
O127 C135 1.258 . S
O128 Co103 1.941 . S
O128 C135 1.266 . S
H129 C131 0.959 . S
H130 C131 0.961 . S
C131 C121 1.510 . S
C131 H129 0.959 . S
C131 H130 0.961 . S
C131 H132 0.960 . S
H132 C131 0.960 . S
H133 N113 0.862 . S
O134 Co102 1.920 . S
O134 C107 1.289 . S
C135 O127 1.258 . S
C135 O128 1.266 . S
Co136 O139 1.970 . S
Co136 N153 1.989 . S
Co136 O161 1.967 . S
Co136 O168 1.920 . S
Co137 O140 1.966 . S
Co137 N146 2.022 1_565 S
Co137 N154 1.993 . S
Co137 O162 1.941 . S
C138 O139 1.258 . S
C138 O140 1.263 . S
O139 Co136 1.970 . S
O139 C138 1.258 . S
O140 Co137 1.966 . S
O140 C138 1.263 . S
C141 O142 1.235 . S
C141 O168 1.289 . S
O142 C141 1.235 . S
C143 C145 1.400 . S
C143 N146 1.351 . S
C143 C148 1.501 . S
C144 C145 1.387 . S
C144 N147 1.341 . S
C145 C143 1.400 . S
C145 C144 1.387 . S
N146 Co137 2.022 1_545 S
N146 C143 1.351 . S
N146 N147 1.365 . S
N147 C144 1.341 . S
N147 N146 1.365 . S
N147 H167 0.862 . S
C148 C143 1.501 . S
C148 H149 0.961 . S
C148 H150 0.961 . S
C148 H151 0.960 . S
H149 C148 0.961 . S
H150 C148 0.961 . S
H151 C148 0.960 . S
C152 N153 1.342 . S
C152 C156 1.401 . S
C152 C157 1.499 . S
N153 Co136 1.989 . S
N153 C152 1.342 . S
N153 N154 1.388 . S
N154 Co137 1.993 . S
N154 N153 1.388 . S
N154 C155 1.346 . S
C155 N154 1.346 . S
C155 C156 1.396 . S
C155 C165 1.510 . S
C156 C152 1.401 . S
C156 C155 1.396 . S
C157 C152 1.499 . S
C157 H158 0.959 . S
C157 H159 0.960 . S
C157 H160 0.961 . S
H158 C157 0.959 . S
H159 C157 0.960 . S
H160 C157 0.961 . S
O161 Co136 1.967 . S
O161 C169 1.258 . S
O162 Co137 1.941 . S
O162 C169 1.266 . S
H163 C165 0.959 . S
H164 C165 0.961 . S
C165 C155 1.510 . S
C165 H163 0.959 . S
C165 H164 0.961 . S
C165 H166 0.960 . S
H166 C165 0.960 . S
H167 N147 0.862 . S
O168 Co136 1.920 . S
O168 C141 1.289 . S
C169 O161 1.258 . S
C169 O162 1.266 . S
Co170 O173 1.970 . S
Co170 N187 1.989 . S
Co170 O195 1.967 . S
Co170 O202 1.920 . S
Co171 O174 1.966 . S
Co171 N180 2.022 1_455 S
Co171 N188 1.993 . S
Co171 O196 1.941 . S
C172 O173 1.258 . S
C172 O174 1.263 . S
O173 Co170 1.970 . S
O173 C172 1.258 . S
O174 Co171 1.966 . S
O174 C172 1.263 . S
C175 O176 1.235 . S
C175 O202 1.289 . S
O176 C175 1.235 . S
C177 C179 1.400 . S
C177 N180 1.351 . S
C177 C182 1.501 . S
C178 C179 1.387 . S
C178 N181 1.341 . S
C179 C177 1.400 . S
C179 C178 1.387 . S
N180 Co171 2.022 1_655 S
N180 C177 1.351 . S
N180 N181 1.365 . S
N181 C178 1.341 . S
N181 N180 1.365 . S
N181 H201 0.862 . S
C182 C177 1.501 . S
C182 H183 0.961 . S
C182 H184 0.961 . S
C182 H185 0.960 . S
H183 C182 0.961 . S
H184 C182 0.961 . S
H185 C182 0.960 . S
C186 N187 1.342 . S
C186 C190 1.401 . S
C186 C191 1.499 . S
N187 Co170 1.989 . S
N187 C186 1.342 . S
N187 N188 1.388 . S
N188 Co171 1.993 . S
N188 N187 1.388 . S
N188 C189 1.346 . S
C189 N188 1.346 . S
C189 C190 1.396 . S
C189 C199 1.510 . S
C190 C186 1.401 . S
C190 C189 1.396 . S
C191 C186 1.499 . S
C191 H192 0.959 . S
C191 H193 0.960 . S
C191 H194 0.961 . S
H192 C191 0.959 . S
H193 C191 0.960 . S
H194 C191 0.961 . S
O195 Co170 1.967 . S
O195 C203 1.258 . S
O196 Co171 1.941 . S
O196 C203 1.266 . S
H197 C199 0.959 . S
H198 C199 0.961 . S
C199 C189 1.510 . S
C199 H197 0.959 . S
C199 H198 0.961 . S
C199 H200 0.960 . S
H200 C199 0.960 . S
H201 N181 0.862 . S
O202 Co170 1.920 . S
O202 C175 1.289 . S
C203 O195 1.258 . S
C203 O196 1.266 . S
Co204 O207 1.970 . S
Co204 N221 1.989 . S
Co204 O229 1.967 . S
Co204 O236 1.920 . S
Co205 O208 1.966 . S
Co205 N214 2.022 . S
Co205 N222 1.993 . S
Co205 O230 1.941 . S
C206 O207 1.258 . S
C206 O208 1.263 . S
O207 Co204 1.970 . S
O207 C206 1.258 . S
O208 Co205 1.966 . S
O208 C206 1.263 . S
C209 O210 1.235 . S
C209 O236 1.289 . S
O210 C209 1.235 . S
C211 C213 1.400 . S
C211 N214 1.351 . S
C211 C216 1.501 . S
C212 C213 1.387 . S
C212 N215 1.341 . S
C213 C211 1.400 . S
C213 C212 1.387 . S
N214 Co205 2.022 . S
N214 C211 1.351 . S
N214 N215 1.365 . S
N215 C212 1.341 . S
N215 N214 1.365 . S
N215 H235 0.862 . S
C216 C211 1.501 . S
C216 H217 0.961 . S
C216 H218 0.961 . S
C216 H219 0.960 . S
H217 C216 0.961 . S
H218 C216 0.961 . S
H219 C216 0.960 . S
C220 N221 1.342 . S
C220 C224 1.401 . S
C220 C225 1.499 . S
N221 Co204 1.989 . S
N221 C220 1.342 . S
N221 N222 1.388 . S
N222 Co205 1.993 . S
N222 N221 1.388 . S
N222 C223 1.346 . S
C223 N222 1.346 . S
C223 C224 1.396 . S
C223 C233 1.510 . S
C224 C220 1.401 . S
C224 C223 1.396 . S
C225 C220 1.499 . S
C225 H226 0.959 . S
C225 H227 0.960 . S
C225 H228 0.961 . S
H226 C225 0.959 . S
H227 C225 0.960 . S
H228 C225 0.961 . S
O229 Co204 1.967 . S
O229 C237 1.258 . S
O230 Co205 1.941 . S
O230 C237 1.266 . S
H231 C233 0.959 . S
H232 C233 0.961 . S
C233 C223 1.510 . S
C233 H231 0.959 . S
C233 H232 0.961 . S
C233 H234 0.960 . S
H234 C233 0.960 . S
H235 N215 0.862 . S
O236 Co204 1.920 . S
O236 C209 1.289 . S
C237 O229 1.258 . S
C237 O230 1.266 . S
Co238 O241 1.970 . S
Co238 N255 1.989 . S
Co238 O263 1.967 . S
Co238 O270 1.920 . S
Co239 O242 1.966 . S
Co239 N248 2.022 1_565 S
Co239 N256 1.993 . S
Co239 O264 1.941 . S
C240 O241 1.258 . S
C240 O242 1.263 . S
O241 Co238 1.970 . S
O241 C240 1.258 . S
O242 Co239 1.966 . S
O242 C240 1.263 . S
C243 O244 1.235 . S
C243 O270 1.289 . S
O244 C243 1.235 . S
C245 C247 1.400 . S
C245 N248 1.351 . S
C245 C250 1.501 . S
C246 C247 1.387 . S
C246 N249 1.341 . S
C247 C245 1.400 . S
C247 C246 1.387 . S
N248 Co239 2.022 1_545 S
N248 C245 1.351 . S
N248 N249 1.365 . S
N249 C246 1.341 . S
N249 N248 1.365 . S
N249 H269 0.862 . S
C250 C245 1.501 . S
C250 H251 0.961 . S
C250 H252 0.961 . S
C250 H253 0.960 . S
H251 C250 0.961 . S
H252 C250 0.961 . S
H253 C250 0.960 . S
C254 N255 1.342 . S
C254 C258 1.401 . S
C254 C259 1.499 . S
N255 Co238 1.989 . S
N255 C254 1.342 . S
N255 N256 1.388 . S
N256 Co239 1.993 . S
N256 N255 1.388 . S
N256 C257 1.346 . S
C257 N256 1.346 . S
C257 C258 1.396 . S
C257 C267 1.510 . S
C258 C254 1.401 . S
C258 C257 1.396 . S
C259 C254 1.499 . S
C259 H260 0.959 . S
C259 H261 0.960 . S
C259 H262 0.961 . S
H260 C259 0.959 . S
H261 C259 0.960 . S
H262 C259 0.961 . S
O263 Co238 1.967 . S
O263 C271 1.258 . S
O264 Co239 1.941 . S
O264 C271 1.266 . S
H265 C267 0.959 . S
H266 C267 0.961 . S
C267 C257 1.510 . S
C267 H265 0.959 . S
C267 H266 0.961 . S
C267 H268 0.960 . S
H268 C267 0.960 . S
H269 N249 0.862 . S
O270 Co238 1.920 . S
O270 C243 1.289 . S
C271 O263 1.258 . S
C271 O264 1.266 . S
Co272 O275 1.970 . S
Co272 N289 1.989 . S
Co272 O297 1.967 . S
Co272 O304 1.920 . S
Co273 O276 1.966 . S
Co273 N282 2.022 1_455 S
Co273 N290 1.993 . S
Co273 O298 1.941 . S
C274 O275 1.258 . S
C274 O276 1.263 . S
O275 Co272 1.970 . S
O275 C274 1.258 . S
O276 Co273 1.966 . S
O276 C274 1.263 . S
C277 O278 1.235 . S
C277 O304 1.289 . S
O278 C277 1.235 . S
C279 C281 1.400 . S
C279 N282 1.351 . S
C279 C284 1.501 . S
C280 C281 1.387 . S
C280 N283 1.341 . S
C281 C279 1.400 . S
C281 C280 1.387 . S
N282 Co273 2.022 1_655 S
N282 C279 1.351 . S
N282 N283 1.365 . S
N283 C280 1.341 . S
N283 N282 1.365 . S
N283 H303 0.862 . S
C284 C279 1.501 . S
C284 H285 0.961 . S
C284 H286 0.961 . S
C284 H287 0.960 . S
H285 C284 0.961 . S
H286 C284 0.961 . S
H287 C284 0.960 . S
C288 N289 1.342 . S
C288 C292 1.401 . S
C288 C293 1.499 . S
N289 Co272 1.989 . S
N289 C288 1.342 . S
N289 N290 1.388 . S
N290 Co273 1.993 . S
N290 N289 1.388 . S
N290 C291 1.346 . S
C291 N290 1.346 . S
C291 C292 1.396 . S
C291 C301 1.510 . S
C292 C288 1.401 . S
C292 C291 1.396 . S
C293 C288 1.499 . S
C293 H294 0.959 . S
C293 H295 0.960 . S
C293 H296 0.961 . S
H294 C293 0.959 . S
H295 C293 0.960 . S
H296 C293 0.961 . S
O297 Co272 1.967 . S
O297 C305 1.258 . S
O298 Co273 1.941 . S
O298 C305 1.266 . S
H299 C301 0.959 . S
H300 C301 0.961 . S
C301 C291 1.510 . S
C301 H299 0.959 . S
C301 H300 0.961 . S
C301 H302 0.960 . S
H302 C301 0.960 . S
H303 N283 0.862 . S
O304 Co272 1.920 . S
O304 C277 1.289 . S
C305 O297 1.258 . S
C305 O298 1.266 . S
Co306 O309 1.970 . S
Co306 N323 1.989 . S
Co306 O331 1.967 . S
Co306 O338 1.920 . S
Co307 O310 1.966 . S
Co307 N316 2.022 . S
Co307 N324 1.993 . S
Co307 O332 1.941 . S
C308 O309 1.258 . S
C308 O310 1.263 . S
O309 Co306 1.970 . S
O309 C308 1.258 . S
O310 Co307 1.966 . S
O310 C308 1.263 . S
C311 O312 1.235 . S
C311 O338 1.289 . S
O312 C311 1.235 . S
C313 C315 1.400 . S
C313 N316 1.351 . S
C313 C318 1.501 . S
C314 C315 1.387 . S
C314 N317 1.341 . S
C315 C313 1.400 . S
C315 C314 1.387 . S
N316 Co307 2.022 . S
N316 C313 1.351 . S
N316 N317 1.365 . S
N317 C314 1.341 . S
N317 N316 1.365 . S
N317 H337 0.862 . S
C318 C313 1.501 . S
C318 H319 0.961 . S
C318 H320 0.961 . S
C318 H321 0.960 . S
H319 C318 0.961 . S
H320 C318 0.961 . S
H321 C318 0.960 . S
C322 N323 1.342 . S
C322 C326 1.401 . S
C322 C327 1.499 . S
N323 Co306 1.989 . S
N323 C322 1.342 . S
N323 N324 1.388 . S
N324 Co307 1.993 . S
N324 N323 1.388 . S
N324 C325 1.346 . S
C325 N324 1.346 . S
C325 C326 1.396 . S
C325 C335 1.510 . S
C326 C322 1.401 . S
C326 C325 1.396 . S
C327 C322 1.499 . S
C327 H328 0.959 . S
C327 H329 0.960 . S
C327 H330 0.961 . S
H328 C327 0.959 . S
H329 C327 0.960 . S
H330 C327 0.961 . S
O331 Co306 1.967 . S
O331 C339 1.258 . S
O332 Co307 1.941 . S
O332 C339 1.266 . S
H333 C335 0.959 . S
H334 C335 0.961 . S
C335 C325 1.510 . S
C335 H333 0.959 . S
C335 H334 0.961 . S
C335 H336 0.960 . S
H336 C335 0.960 . S
H337 N317 0.862 . S
O338 Co306 1.920 . S
O338 C311 1.289 . S
C339 O331 1.258 . S
C339 O332 1.266 . S
Co340 O343 1.970 . S
Co340 N357 1.989 . S
Co340 O365 1.967 . S
Co340 O372 1.920 . S
Co341 O344 1.966 . S
Co341 N350 2.022 1_545 S
Co341 N358 1.993 . S
Co341 O366 1.941 . S
C342 O343 1.258 . S
C342 O344 1.263 . S
O343 Co340 1.970 . S
O343 C342 1.258 . S
O344 Co341 1.966 . S
O344 C342 1.263 . S
C345 O346 1.235 . S
C345 O372 1.289 . S
O346 C345 1.235 . S
C347 C349 1.400 . S
C347 N350 1.351 . S
C347 C352 1.501 . S
C348 C349 1.387 . S
C348 N351 1.341 . S
C349 C347 1.400 . S
C349 C348 1.387 . S
N350 Co341 2.022 1_565 S
N350 C347 1.351 . S
N350 N351 1.365 . S
N351 C348 1.341 . S
N351 N350 1.365 . S
N351 H371 0.862 . S
C352 C347 1.501 . S
C352 H353 0.961 . S
C352 H354 0.961 . S
C352 H355 0.960 . S
H353 C352 0.961 . S
H354 C352 0.961 . S
H355 C352 0.960 . S
C356 N357 1.342 . S
C356 C360 1.401 . S
C356 C361 1.499 . S
N357 Co340 1.989 . S
N357 C356 1.342 . S
N357 N358 1.388 . S
N358 Co341 1.993 . S
N358 N357 1.388 . S
N358 C359 1.346 . S
C359 N358 1.346 . S
C359 C360 1.396 . S
C359 C369 1.510 . S
C360 C356 1.401 . S
C360 C359 1.396 . S
C361 C356 1.499 . S
C361 H362 0.959 . S
C361 H363 0.960 . S
C361 H364 0.961 . S
H362 C361 0.959 . S
H363 C361 0.960 . S
H364 C361 0.961 . S
O365 Co340 1.967 . S
O365 C373 1.258 . S
O366 Co341 1.941 . S
O366 C373 1.266 . S
H367 C369 0.959 . S
H368 C369 0.961 . S
C369 C359 1.510 . S
C369 H367 0.959 . S
C369 H368 0.961 . S
C369 H370 0.960 . S
H370 C369 0.960 . S
H371 N351 0.862 . S
O372 Co340 1.920 . S
O372 C345 1.289 . S
C373 O365 1.258 . S
C373 O366 1.266 . S
Co374 O377 1.970 . S
Co374 N391 1.989 . S
Co374 O399 1.967 . S
Co374 O406 1.920 . S
Co375 O378 1.966 . S
Co375 N384 2.022 1_655 S
Co375 N392 1.993 . S
Co375 O400 1.941 . S
C376 O377 1.258 . S
C376 O378 1.263 . S
O377 Co374 1.970 . S
O377 C376 1.258 . S
O378 Co375 1.966 . S
O378 C376 1.263 . S
C379 O380 1.235 . S
C379 O406 1.289 . S
O380 C379 1.235 . S
C381 C383 1.400 . S
C381 N384 1.351 . S
C381 C386 1.501 . S
C382 C383 1.387 . S
C382 N385 1.341 . S
C383 C381 1.400 . S
C383 C382 1.387 . S
N384 Co375 2.022 1_455 S
N384 C381 1.351 . S
N384 N385 1.365 . S
N385 C382 1.341 . S
N385 N384 1.365 . S
N385 H405 0.862 . S
C386 C381 1.501 . S
C386 H387 0.961 . S
C386 H388 0.961 . S
C386 H389 0.960 . S
H387 C386 0.961 . S
H388 C386 0.961 . S
H389 C386 0.960 . S
C390 N391 1.342 . S
C390 C394 1.401 . S
C390 C395 1.499 . S
N391 Co374 1.989 . S
N391 C390 1.342 . S
N391 N392 1.388 . S
N392 Co375 1.993 . S
N392 N391 1.388 . S
N392 C393 1.346 . S
C393 N392 1.346 . S
C393 C394 1.396 . S
C393 C403 1.510 . S
C394 C390 1.401 . S
C394 C393 1.396 . S
C395 C390 1.499 . S
C395 H396 0.959 . S
C395 H397 0.960 . S
C395 H398 0.961 . S
H396 C395 0.959 . S
H397 C395 0.960 . S
H398 C395 0.961 . S
O399 Co374 1.967 . S
O399 C407 1.258 . S
O400 Co375 1.941 . S
O400 C407 1.266 . S
H401 C403 0.959 . S
H402 C403 0.961 . S
C403 C393 1.510 . S
C403 H401 0.959 . S
C403 H402 0.961 . S
C403 H404 0.960 . S
H404 C403 0.960 . S
H405 N385 0.862 . S
O406 Co374 1.920 . S
O406 C379 1.289 . S
C407 O399 1.258 . S
C407 O400 1.266 . S
Co408 O411 1.970 . S
Co408 N425 1.989 . S
Co408 O433 1.967 . S
Co408 O440 1.920 . S
Co409 O412 1.966 . S
Co409 N418 2.022 . S
Co409 N426 1.993 . S
Co409 O434 1.941 . S
C410 O411 1.258 . S
C410 O412 1.263 . S
O411 Co408 1.970 . S
O411 C410 1.258 . S
O412 Co409 1.966 . S
O412 C410 1.263 . S
C413 O414 1.235 . S
C413 O440 1.289 . S
O414 C413 1.235 . S
C415 C417 1.400 . S
C415 N418 1.351 . S
C415 C420 1.501 . S
C416 C417 1.387 . S
C416 N419 1.341 . S
C417 C415 1.400 . S
C417 C416 1.387 . S
N418 Co409 2.022 . S
N418 C415 1.351 . S
N418 N419 1.365 . S
N419 C416 1.341 . S
N419 N418 1.365 . S
N419 H439 0.862 . S
C420 C415 1.501 . S
C420 H421 0.961 . S
C420 H422 0.961 . S
C420 H423 0.960 . S
H421 C420 0.961 . S
H422 C420 0.961 . S
H423 C420 0.960 . S
C424 N425 1.342 . S
C424 C428 1.401 . S
C424 C429 1.499 . S
N425 Co408 1.989 . S
N425 C424 1.342 . S
N425 N426 1.388 . S
N426 Co409 1.993 . S
N426 N425 1.388 . S
N426 C427 1.346 . S
C427 N426 1.346 . S
C427 C428 1.396 . S
C427 C437 1.510 . S
C428 C424 1.401 . S
C428 C427 1.396 . S
C429 C424 1.499 . S
C429 H430 0.959 . S
C429 H431 0.960 . S
C429 H432 0.961 . S
H430 C429 0.959 . S
H431 C429 0.960 . S
H432 C429 0.961 . S
O433 Co408 1.967 . S
O433 C441 1.258 . S
O434 Co409 1.941 . S
O434 C441 1.266 . S
H435 C437 0.959 . S
H436 C437 0.961 . S
C437 C427 1.510 . S
C437 H435 0.959 . S
C437 H436 0.961 . S
C437 H438 0.960 . S
H438 C437 0.960 . S
H439 N419 0.862 . S
O440 Co408 1.920 . S
O440 C413 1.289 . S
C441 O433 1.258 . S
C441 O434 1.266 . S
Co442 O445 1.970 . S
Co442 N459 1.989 . S
Co442 O467 1.967 . S
Co442 O474 1.920 . S
Co443 O446 1.966 . S
Co443 N452 2.022 . S
Co443 N460 1.993 . S
Co443 O468 1.941 . S
C444 O445 1.258 . S
C444 O446 1.263 . S
O445 Co442 1.970 . S
O445 C444 1.258 . S
O446 Co443 1.966 . S
O446 C444 1.263 . S
C447 O448 1.235 . S
C447 O474 1.289 . S
O448 C447 1.235 . S
C449 C451 1.400 . S
C449 N452 1.351 . S
C449 C454 1.501 . S
C450 C451 1.387 . S
C450 N453 1.341 . S
C451 C449 1.400 . S
C451 C450 1.387 . S
N452 Co443 2.022 . S
N452 C449 1.351 . S
N452 N453 1.365 . S
N453 C450 1.341 . S
N453 N452 1.365 . S
N453 H473 0.862 . S
C454 C449 1.501 . S
C454 H455 0.961 . S
C454 H456 0.961 . S
C454 H457 0.960 . S
H455 C454 0.961 . S
H456 C454 0.961 . S
H457 C454 0.960 . S
C458 N459 1.342 . S
C458 C462 1.401 . S
C458 C463 1.499 . S
N459 Co442 1.989 . S
N459 C458 1.342 . S
N459 N460 1.388 . S
N460 Co443 1.993 . S
N460 N459 1.388 . S
N460 C461 1.346 . S
C461 N460 1.346 . S
C461 C462 1.396 . S
C461 C471 1.510 . S
C462 C458 1.401 . S
C462 C461 1.396 . S
C463 C458 1.499 . S
C463 H464 0.959 . S
C463 H465 0.960 . S
C463 H466 0.961 . S
H464 C463 0.959 . S
H465 C463 0.960 . S
H466 C463 0.961 . S
O467 Co442 1.967 . S
O467 C475 1.258 . S
O468 Co443 1.941 . S
O468 C475 1.266 . S
H469 C471 0.959 . S
H470 C471 0.961 . S
C471 C461 1.510 . S
C471 H469 0.959 . S
C471 H470 0.961 . S
C471 H472 0.960 . S
H472 C471 0.960 . S
H473 N453 0.862 . S
O474 Co442 1.920 . S
O474 C447 1.289 . S
C475 O467 1.258 . S
C475 O468 1.266 . S
Co476 O479 1.970 . S
Co476 N493 1.989 . S
Co476 O501 1.967 . S
Co476 O508 1.920 . S
Co477 O480 1.966 . S
Co477 N486 2.022 . S
Co477 N494 1.993 . S
Co477 O502 1.941 . S
C478 O479 1.258 . S
C478 O480 1.263 . S
O479 Co476 1.970 . S
O479 C478 1.258 . S
O480 Co477 1.966 . S
O480 C478 1.263 . S
C481 O482 1.235 . S
C481 O508 1.289 . S
O482 C481 1.235 . S
C483 C485 1.400 . S
C483 N486 1.351 . S
C483 C488 1.501 . S
C484 C485 1.387 . S
C484 N487 1.341 . S
C485 C483 1.400 . S
C485 C484 1.387 . S
N486 Co477 2.022 . S
N486 C483 1.351 . S
N486 N487 1.365 . S
N487 C484 1.341 . S
N487 N486 1.365 . S
N487 H507 0.862 . S
C488 C483 1.501 . S
C488 H489 0.961 . S
C488 H490 0.961 . S
C488 H491 0.960 . S
H489 C488 0.961 . S
H490 C488 0.961 . S
H491 C488 0.960 . S
C492 N493 1.342 . S
C492 C496 1.401 . S
C492 C497 1.499 . S
N493 Co476 1.989 . S
N493 C492 1.342 . S
N493 N494 1.388 . S
N494 Co477 1.993 . S
N494 N493 1.388 . S
N494 C495 1.346 . S
C495 N494 1.346 . S
C495 C496 1.396 . S
C495 C505 1.510 . S
C496 C492 1.401 . S
C496 C495 1.396 . S
C497 C492 1.499 . S
C497 H498 0.959 . S
C497 H499 0.960 . S
C497 H500 0.961 . S
H498 C497 0.959 . S
H499 C497 0.960 . S
H500 C497 0.961 . S
O501 Co476 1.967 . S
O501 C509 1.258 . S
O502 Co477 1.941 . S
O502 C509 1.266 . S
H503 C505 0.959 . S
H504 C505 0.961 . S
C505 C495 1.510 . S
C505 H503 0.959 . S
C505 H504 0.961 . S
C505 H506 0.960 . S
H506 C505 0.960 . S
H507 N487 0.862 . S
O508 Co476 1.920 . S
O508 C481 1.289 . S
C509 O501 1.258 . S
C509 O502 1.266 . S
Co510 O513 1.970 . S
Co510 N527 1.989 . S
Co510 O535 1.967 . S
Co510 O542 1.920 . S
Co511 O514 1.966 . S
Co511 N520 2.022 . S
Co511 N528 1.993 . S
Co511 O536 1.941 . S
C512 O513 1.258 . S
C512 O514 1.263 . S
O513 Co510 1.970 . S
O513 C512 1.258 . S
O514 Co511 1.966 . S
O514 C512 1.263 . S
C515 O516 1.235 . S
C515 O542 1.289 . S
O516 C515 1.235 . S
C517 C519 1.400 . S
C517 N520 1.351 . S
C517 C522 1.501 . S
C518 C519 1.387 . S
C518 N521 1.341 . S
C519 C517 1.400 . S
C519 C518 1.387 . S
N520 Co511 2.022 . S
N520 C517 1.351 . S
N520 N521 1.365 . S
N521 C518 1.341 . S
N521 N520 1.365 . S
N521 H541 0.862 . S
C522 C517 1.501 . S
C522 H523 0.961 . S
C522 H524 0.961 . S
C522 H525 0.960 . S
H523 C522 0.961 . S
H524 C522 0.961 . S
H525 C522 0.960 . S
C526 N527 1.342 . S
C526 C530 1.401 . S
C526 C531 1.499 . S
N527 Co510 1.989 . S
N527 C526 1.342 . S
N527 N528 1.388 . S
N528 Co511 1.993 . S
N528 N527 1.388 . S
N528 C529 1.346 . S
C529 N528 1.346 . S
C529 C530 1.396 . S
C529 C539 1.510 . S
C530 C526 1.401 . S
C530 C529 1.396 . S
C531 C526 1.499 . S
C531 H532 0.959 . S
C531 H533 0.960 . S
C531 H534 0.961 . S
H532 C531 0.959 . S
H533 C531 0.960 . S
H534 C531 0.961 . S
O535 Co510 1.967 . S
O535 C543 1.258 . S
O536 Co511 1.941 . S
O536 C543 1.266 . S
H537 C539 0.959 . S
H538 C539 0.961 . S
C539 C529 1.510 . S
C539 H537 0.959 . S
C539 H538 0.961 . S
C539 H540 0.960 . S
H540 C539 0.960 . S
H541 N521 0.862 . S
O542 Co510 1.920 . S
O542 C515 1.289 . S
C543 O535 1.258 . S
C543 O536 1.266 . S
Co544 O547 1.970 . S
Co544 N561 1.989 . S
Co544 O569 1.967 . S
Co544 O576 1.920 . S
Co545 O548 1.966 . S
Co545 N554 2.022 . S
Co545 N562 1.993 . S
Co545 O570 1.941 . S
C546 O547 1.258 . S
C546 O548 1.263 . S
O547 Co544 1.970 . S
O547 C546 1.258 . S
O548 Co545 1.966 . S
O548 C546 1.263 . S
C549 O550 1.235 . S
C549 O576 1.289 . S
O550 C549 1.235 . S
C551 C553 1.400 . S
C551 N554 1.351 . S
C551 C556 1.501 . S
C552 C553 1.387 . S
C552 N555 1.341 . S
C553 C551 1.400 . S
C553 C552 1.387 . S
N554 Co545 2.022 . S
N554 C551 1.351 . S
N554 N555 1.365 . S
N555 C552 1.341 . S
N555 N554 1.365 . S
N555 H575 0.862 . S
C556 C551 1.501 . S
C556 H557 0.961 . S
C556 H558 0.961 . S
C556 H559 0.960 . S
H557 C556 0.961 . S
H558 C556 0.961 . S
H559 C556 0.960 . S
C560 N561 1.342 . S
C560 C564 1.401 . S
C560 C565 1.499 . S
N561 Co544 1.989 . S
N561 C560 1.342 . S
N561 N562 1.388 . S
N562 Co545 1.993 . S
N562 N561 1.388 . S
N562 C563 1.346 . S
C563 N562 1.346 . S
C563 C564 1.396 . S
C563 C573 1.510 . S
C564 C560 1.401 . S
C564 C563 1.396 . S
C565 C560 1.499 . S
C565 H566 0.959 . S
C565 H567 0.960 . S
C565 H568 0.961 . S
H566 C565 0.959 . S
H567 C565 0.960 . S
H568 C565 0.961 . S
O569 Co544 1.967 . S
O569 C577 1.258 . S
O570 Co545 1.941 . S
O570 C577 1.266 . S
H571 C573 0.959 . S
H572 C573 0.961 . S
C573 C563 1.510 . S
C573 H571 0.959 . S
C573 H572 0.961 . S
C573 H574 0.960 . S
H574 C573 0.960 . S
H575 N555 0.862 . S
O576 Co544 1.920 . S
O576 C549 1.289 . S
C577 O569 1.258 . S
C577 O570 1.266 . S
Co578 O581 1.970 . S
Co578 N595 1.989 . S
Co578 O603 1.967 . S
Co578 O610 1.920 . S
Co579 O582 1.966 . S
Co579 N588 2.022 . S
Co579 N596 1.993 . S
Co579 O604 1.941 . S
C580 O581 1.258 . S
C580 O582 1.263 . S
O581 Co578 1.970 . S
O581 C580 1.258 . S
O582 Co579 1.966 . S
O582 C580 1.263 . S
C583 O584 1.235 . S
C583 O610 1.289 . S
O584 C583 1.235 . S
C585 C587 1.400 . S
C585 N588 1.351 . S
C585 C590 1.501 . S
C586 C587 1.387 . S
C586 N589 1.341 . S
C587 C585 1.400 . S
C587 C586 1.387 . S
N588 Co579 2.022 . S
N588 C585 1.351 . S
N588 N589 1.365 . S
N589 C586 1.341 . S
N589 N588 1.365 . S
N589 H609 0.862 . S
C590 C585 1.501 . S
C590 H591 0.961 . S
C590 H592 0.961 . S
C590 H593 0.960 . S
H591 C590 0.961 . S
H592 C590 0.961 . S
H593 C590 0.960 . S
C594 N595 1.342 . S
C594 C598 1.401 . S
C594 C599 1.499 . S
N595 Co578 1.989 . S
N595 C594 1.342 . S
N595 N596 1.388 . S
N596 Co579 1.993 . S
N596 N595 1.388 . S
N596 C597 1.346 . S
C597 N596 1.346 . S
C597 C598 1.396 . S
C597 C607 1.510 . S
C598 C594 1.401 . S
C598 C597 1.396 . S
C599 C594 1.499 . S
C599 H600 0.959 . S
C599 H601 0.960 . S
C599 H602 0.961 . S
H600 C599 0.959 . S
H601 C599 0.960 . S
H602 C599 0.961 . S
O603 Co578 1.967 . S
O603 C611 1.258 . S
O604 Co579 1.941 . S
O604 C611 1.266 . S
H605 C607 0.959 . S
H606 C607 0.961 . S
C607 C597 1.510 . S
C607 H605 0.959 . S
C607 H606 0.961 . S
C607 H608 0.960 . S
H608 C607 0.960 . S
H609 N589 0.862 . S
O610 Co578 1.920 . S
O610 C583 1.289 . S
C611 O603 1.258 . S
C611 O604 1.266 . S
Co612 O615 1.970 . S
Co612 N629 1.989 . S
Co612 O637 1.967 . S
Co612 O644 1.920 . S
Co613 O616 1.966 . S
Co613 N622 2.022 . S
Co613 N630 1.993 . S
Co613 O638 1.941 . S
C614 O615 1.258 . S
C614 O616 1.263 . S
O615 Co612 1.970 . S
O615 C614 1.258 . S
O616 Co613 1.966 . S
O616 C614 1.263 . S
C617 O618 1.235 . S
C617 O644 1.289 . S
O618 C617 1.235 . S
C619 C621 1.400 . S
C619 N622 1.351 . S
C619 C624 1.501 . S
C620 C621 1.387 . S
C620 N623 1.341 . S
C621 C619 1.400 . S
C621 C620 1.387 . S
N622 Co613 2.022 . S
N622 C619 1.351 . S
N622 N623 1.365 . S
N623 C620 1.341 . S
N623 N622 1.365 . S
N623 H643 0.862 . S
C624 C619 1.501 . S
C624 H625 0.961 . S
C624 H626 0.961 . S
C624 H627 0.960 . S
H625 C624 0.961 . S
H626 C624 0.961 . S
H627 C624 0.960 . S
C628 N629 1.342 . S
C628 C632 1.401 . S
C628 C633 1.499 . S
N629 Co612 1.989 . S
N629 C628 1.342 . S
N629 N630 1.388 . S
N630 Co613 1.993 . S
N630 N629 1.388 . S
N630 C631 1.346 . S
C631 N630 1.346 . S
C631 C632 1.396 . S
C631 C641 1.510 . S
C632 C628 1.401 . S
C632 C631 1.396 . S
C633 C628 1.499 . S
C633 H634 0.959 . S
C633 H635 0.960 . S
C633 H636 0.961 . S
H634 C633 0.959 . S
H635 C633 0.960 . S
H636 C633 0.961 . S
O637 Co612 1.967 . S
O637 C645 1.258 . S
O638 Co613 1.941 . S
O638 C645 1.266 . S
H639 C641 0.959 . S
H640 C641 0.961 . S
C641 C631 1.510 . S
C641 H639 0.959 . S
C641 H640 0.961 . S
C641 H642 0.960 . S
H642 C641 0.960 . S
H643 N623 0.862 . S
O644 Co612 1.920 . S
O644 C617 1.289 . S
C645 O637 1.258 . S
C645 O638 1.266 . S
Co646 O649 1.970 . S
Co646 N663 1.989 . S
Co646 O671 1.967 . S
Co646 O678 1.920 . S
Co647 O650 1.966 . S
Co647 N656 2.022 . S
Co647 N664 1.993 . S
Co647 O672 1.941 . S
C648 O649 1.258 . S
C648 O650 1.263 . S
O649 Co646 1.970 . S
O649 C648 1.258 . S
O650 Co647 1.966 . S
O650 C648 1.263 . S
C651 O652 1.235 . S
C651 O678 1.289 . S
O652 C651 1.235 . S
C653 C655 1.400 . S
C653 N656 1.351 . S
C653 C658 1.501 . S
C654 C655 1.387 . S
C654 N657 1.341 . S
C655 C653 1.400 . S
C655 C654 1.387 . S
N656 Co647 2.022 . S
N656 C653 1.351 . S
N656 N657 1.365 . S
N657 C654 1.341 . S
N657 N656 1.365 . S
N657 H677 0.862 . S
C658 C653 1.501 . S
C658 H659 0.961 . S
C658 H660 0.961 . S
C658 H661 0.960 . S
H659 C658 0.961 . S
H660 C658 0.961 . S
H661 C658 0.960 . S
C662 N663 1.342 . S
C662 C666 1.401 . S
C662 C667 1.499 . S
N663 Co646 1.989 . S
N663 C662 1.342 . S
N663 N664 1.388 . S
N664 Co647 1.993 . S
N664 N663 1.388 . S
N664 C665 1.346 . S
C665 N664 1.346 . S
C665 C666 1.396 . S
C665 C675 1.510 . S
C666 C662 1.401 . S
C666 C665 1.396 . S
C667 C662 1.499 . S
C667 H668 0.959 . S
C667 H669 0.960 . S
C667 H670 0.961 . S
H668 C667 0.959 . S
H669 C667 0.960 . S
H670 C667 0.961 . S
O671 Co646 1.967 . S
O671 C679 1.258 . S
O672 Co647 1.941 . S
O672 C679 1.266 . S
H673 C675 0.959 . S
H674 C675 0.961 . S
C675 C665 1.510 . S
C675 H673 0.959 . S
C675 H674 0.961 . S
C675 H676 0.960 . S
H676 C675 0.960 . S
H677 N657 0.862 . S
O678 Co646 1.920 . S
O678 C651 1.289 . S
C679 O671 1.258 . S
C679 O672 1.266 . S
Co680 O683 1.970 . S
Co680 N697 1.989 . S
Co680 O705 1.967 . S
Co680 O712 1.920 . S
Co681 O684 1.966 . S
Co681 N690 2.022 . S
Co681 N698 1.993 . S
Co681 O706 1.941 . S
C682 O683 1.258 . S
C682 O684 1.263 . S
O683 Co680 1.970 . S
O683 C682 1.258 . S
O684 Co681 1.966 . S
O684 C682 1.263 . S
C685 O686 1.235 . S
C685 O712 1.289 . S
O686 C685 1.235 . S
C687 C689 1.400 . S
C687 N690 1.351 . S
C687 C692 1.501 . S
C688 C689 1.387 . S
C688 N691 1.341 . S
C689 C687 1.400 . S
C689 C688 1.387 . S
N690 Co681 2.022 . S
N690 C687 1.351 . S
N690 N691 1.365 . S
N691 C688 1.341 . S
N691 N690 1.365 . S
N691 H711 0.862 . S
C692 C687 1.501 . S
C692 H693 0.961 . S
C692 H694 0.961 . S
C692 H695 0.960 . S
H693 C692 0.961 . S
H694 C692 0.961 . S
H695 C692 0.960 . S
C696 N697 1.342 . S
C696 C700 1.401 . S
C696 C701 1.499 . S
N697 Co680 1.989 . S
N697 C696 1.342 . S
N697 N698 1.388 . S
N698 Co681 1.993 . S
N698 N697 1.388 . S
N698 C699 1.346 . S
C699 N698 1.346 . S
C699 C700 1.396 . S
C699 C709 1.510 . S
C700 C696 1.401 . S
C700 C699 1.396 . S
C701 C696 1.499 . S
C701 H702 0.959 . S
C701 H703 0.960 . S
C701 H704 0.961 . S
H702 C701 0.959 . S
H703 C701 0.960 . S
H704 C701 0.961 . S
O705 Co680 1.967 . S
O705 C713 1.258 . S
O706 Co681 1.941 . S
O706 C713 1.266 . S
H707 C709 0.959 . S
H708 C709 0.961 . S
C709 C699 1.510 . S
C709 H707 0.959 . S
C709 H708 0.961 . S
C709 H710 0.960 . S
H710 C709 0.960 . S
H711 N691 0.862 . S
O712 Co680 1.920 . S
O712 C685 1.289 . S
C713 O705 1.258 . S
C713 O706 1.266 . S
Co714 O717 1.970 . S
Co714 N731 1.989 . S
Co714 O739 1.967 . S
Co714 O746 1.920 . S
Co715 O718 1.966 . S
Co715 N724 2.022 . S
Co715 N732 1.993 . S
Co715 O740 1.941 . S
C716 O717 1.258 . S
C716 O718 1.263 . S
O717 Co714 1.970 . S
O717 C716 1.258 . S
O718 Co715 1.966 . S
O718 C716 1.263 . S
C719 O720 1.235 . S
C719 O746 1.289 . S
O720 C719 1.235 . S
C721 C723 1.400 . S
C721 N724 1.351 . S
C721 C726 1.501 . S
C722 C723 1.387 . S
C722 N725 1.341 . S
C723 C721 1.400 . S
C723 C722 1.387 . S
N724 Co715 2.022 . S
N724 C721 1.351 . S
N724 N725 1.365 . S
N725 C722 1.341 . S
N725 N724 1.365 . S
N725 H745 0.862 . S
C726 C721 1.501 . S
C726 H727 0.961 . S
C726 H728 0.961 . S
C726 H729 0.960 . S
H727 C726 0.961 . S
H728 C726 0.961 . S
H729 C726 0.960 . S
C730 N731 1.342 . S
C730 C734 1.401 . S
C730 C735 1.499 . S
N731 Co714 1.989 . S
N731 C730 1.342 . S
N731 N732 1.388 . S
N732 Co715 1.993 . S
N732 N731 1.388 . S
N732 C733 1.346 . S
C733 N732 1.346 . S
C733 C734 1.396 . S
C733 C743 1.510 . S
C734 C730 1.401 . S
C734 C733 1.396 . S
C735 C730 1.499 . S
C735 H736 0.959 . S
C735 H737 0.960 . S
C735 H738 0.961 . S
H736 C735 0.959 . S
H737 C735 0.960 . S
H738 C735 0.961 . S
O739 Co714 1.967 . S
O739 C747 1.258 . S
O740 Co715 1.941 . S
O740 C747 1.266 . S
H741 C743 0.959 . S
H742 C743 0.961 . S
C743 C733 1.510 . S
C743 H741 0.959 . S
C743 H742 0.961 . S
C743 H744 0.960 . S
H744 C743 0.960 . S
H745 N725 0.862 . S
O746 Co714 1.920 . S
O746 C719 1.289 . S
C747 O739 1.258 . S
C747 O740 1.266 . S
Co748 O751 1.970 . S
Co748 N765 1.989 . S
Co748 O773 1.967 . S
Co748 O780 1.920 . S
Co749 O752 1.966 . S
Co749 N758 2.022 . S
Co749 N766 1.993 . S
Co749 O774 1.941 . S
C750 O751 1.258 . S
C750 O752 1.263 . S
O751 Co748 1.970 . S
O751 C750 1.258 . S
O752 Co749 1.966 . S
O752 C750 1.263 . S
C753 O754 1.235 . S
C753 O780 1.289 . S
O754 C753 1.235 . S
C755 C757 1.400 . S
C755 N758 1.351 . S
C755 C760 1.501 . S
C756 C757 1.387 . S
C756 N759 1.341 . S
C757 C755 1.400 . S
C757 C756 1.387 . S
N758 Co749 2.022 . S
N758 C755 1.351 . S
N758 N759 1.365 . S
N759 C756 1.341 . S
N759 N758 1.365 . S
N759 H779 0.862 . S
C760 C755 1.501 . S
C760 H761 0.961 . S
C760 H762 0.961 . S
C760 H763 0.960 . S
H761 C760 0.961 . S
H762 C760 0.961 . S
H763 C760 0.960 . S
C764 N765 1.342 . S
C764 C768 1.401 . S
C764 C769 1.499 . S
N765 Co748 1.989 . S
N765 C764 1.342 . S
N765 N766 1.388 . S
N766 Co749 1.993 . S
N766 N765 1.388 . S
N766 C767 1.346 . S
C767 N766 1.346 . S
C767 C768 1.396 . S
C767 C777 1.510 . S
C768 C764 1.401 . S
C768 C767 1.396 . S
C769 C764 1.499 . S
C769 H770 0.959 . S
C769 H771 0.960 . S
C769 H772 0.961 . S
H770 C769 0.959 . S
H771 C769 0.960 . S
H772 C769 0.961 . S
O773 Co748 1.967 . S
O773 C781 1.258 . S
O774 Co749 1.941 . S
O774 C781 1.266 . S
H775 C777 0.959 . S
H776 C777 0.961 . S
C777 C767 1.510 . S
C777 H775 0.959 . S
C777 H776 0.961 . S
C777 H778 0.960 . S
H778 C777 0.960 . S
H779 N759 0.862 . S
O780 Co748 1.920 . S
O780 C753 1.289 . S
C781 O773 1.258 . S
C781 O774 1.266 . S
Co782 O785 1.970 . S
Co782 N799 1.989 . S
Co782 O807 1.967 . S
Co782 O814 1.920 . S
Co783 O786 1.966 . S
Co783 N792 2.022 . S
Co783 N800 1.993 . S
Co783 O808 1.941 . S
C784 O785 1.258 . S
C784 O786 1.263 . S
O785 Co782 1.970 . S
O785 C784 1.258 . S
O786 Co783 1.966 . S
O786 C784 1.263 . S
C787 O788 1.235 . S
C787 O814 1.289 . S
O788 C787 1.235 . S
C789 C791 1.400 . S
C789 N792 1.351 . S
C789 C794 1.501 . S
C790 C791 1.387 . S
C790 N793 1.341 . S
C791 C789 1.400 . S
C791 C790 1.387 . S
N792 Co783 2.022 . S
N792 C789 1.351 . S
N792 N793 1.365 . S
N793 C790 1.341 . S
N793 N792 1.365 . S
N793 H813 0.862 . S
C794 C789 1.501 . S
C794 H795 0.961 . S
C794 H796 0.961 . S
C794 H797 0.960 . S
H795 C794 0.961 . S
H796 C794 0.961 . S
H797 C794 0.960 . S
C798 N799 1.342 . S
C798 C802 1.401 . S
C798 C803 1.499 . S
N799 Co782 1.989 . S
N799 C798 1.342 . S
N799 N800 1.388 . S
N800 Co783 1.993 . S
N800 N799 1.388 . S
N800 C801 1.346 . S
C801 N800 1.346 . S
C801 C802 1.396 . S
C801 C811 1.510 . S
C802 C798 1.401 . S
C802 C801 1.396 . S
C803 C798 1.499 . S
C803 H804 0.959 . S
C803 H805 0.960 . S
C803 H806 0.961 . S
H804 C803 0.959 . S
H805 C803 0.960 . S
H806 C803 0.961 . S
O807 Co782 1.967 . S
O807 C815 1.258 . S
O808 Co783 1.941 . S
O808 C815 1.266 . S
H809 C811 0.959 . S
H810 C811 0.961 . S
C811 C801 1.510 . S
C811 H809 0.959 . S
C811 H810 0.961 . S
C811 H812 0.960 . S
H812 C811 0.960 . S
H813 N793 0.862 . S
O814 Co782 1.920 . S
O814 C787 1.289 . S
C815 O807 1.258 . S
C815 O808 1.266 . S
Co816 O819 1.970 . S
Co816 N833 1.989 . S
Co816 O841 1.967 . S
Co816 O848 1.920 . S
Co817 O820 1.966 . S
Co817 N826 2.022 . S
Co817 N834 1.993 . S
Co817 O842 1.941 . S
C818 O819 1.258 . S
C818 O820 1.263 . S
O819 Co816 1.970 . S
O819 C818 1.258 . S
O820 Co817 1.966 . S
O820 C818 1.263 . S
C821 O822 1.235 . S
C821 O848 1.289 . S
O822 C821 1.235 . S
C823 C825 1.400 . S
C823 N826 1.351 . S
C823 C828 1.501 . S
C824 C825 1.387 . S
C824 N827 1.341 . S
C825 C823 1.400 . S
C825 C824 1.387 . S
N826 Co817 2.022 . S
N826 C823 1.351 . S
N826 N827 1.365 . S
N827 C824 1.341 . S
N827 N826 1.365 . S
N827 H847 0.862 . S
C828 C823 1.501 . S
C828 H829 0.961 . S
C828 H830 0.961 . S
C828 H831 0.960 . S
H829 C828 0.961 . S
H830 C828 0.961 . S
H831 C828 0.960 . S
C832 N833 1.342 . S
C832 C836 1.401 . S
C832 C837 1.499 . S
N833 Co816 1.989 . S
N833 C832 1.342 . S
N833 N834 1.388 . S
N834 Co817 1.993 . S
N834 N833 1.388 . S
N834 C835 1.346 . S
C835 N834 1.346 . S
C835 C836 1.396 . S
C835 C845 1.510 . S
C836 C832 1.401 . S
C836 C835 1.396 . S
C837 C832 1.499 . S
C837 H838 0.959 . S
C837 H839 0.960 . S
C837 H840 0.961 . S
H838 C837 0.959 . S
H839 C837 0.960 . S
H840 C837 0.961 . S
O841 Co816 1.967 . S
O841 C849 1.258 . S
O842 Co817 1.941 . S
O842 C849 1.266 . S
H843 C845 0.959 . S
H844 C845 0.961 . S
C845 C835 1.510 . S
C845 H843 0.959 . S
C845 H844 0.961 . S
C845 H846 0.960 . S
H846 C845 0.960 . S
H847 N827 0.862 . S
O848 Co816 1.920 . S
O848 C821 1.289 . S
C849 O841 1.258 . S
C849 O842 1.266 . S
Co850 O853 1.970 . S
Co850 N867 1.989 . S
Co850 O875 1.967 . S
Co850 O882 1.920 . S
Co851 O854 1.966 . S
Co851 N860 2.022 . S
Co851 N868 1.993 . S
Co851 O876 1.941 . S
C852 O853 1.258 . S
C852 O854 1.263 . S
O853 Co850 1.970 . S
O853 C852 1.258 . S
O854 Co851 1.966 . S
O854 C852 1.263 . S
C855 O856 1.235 . S
C855 O882 1.289 . S
O856 C855 1.235 . S
C857 C859 1.400 . S
C857 N860 1.351 . S
C857 C862 1.501 . S
C858 C859 1.387 . S
C858 N861 1.341 . S
C859 C857 1.400 . S
C859 C858 1.387 . S
N860 Co851 2.022 . S
N860 C857 1.351 . S
N860 N861 1.365 . S
N861 C858 1.341 . S
N861 N860 1.365 . S
N861 H881 0.862 . S
C862 C857 1.501 . S
C862 H863 0.961 . S
C862 H864 0.961 . S
C862 H865 0.960 . S
H863 C862 0.961 . S
H864 C862 0.961 . S
H865 C862 0.960 . S
C866 N867 1.342 . S
C866 C870 1.401 . S
C866 C871 1.499 . S
N867 Co850 1.989 . S
N867 C866 1.342 . S
N867 N868 1.388 . S
N868 Co851 1.993 . S
N868 N867 1.388 . S
N868 C869 1.346 . S
C869 N868 1.346 . S
C869 C870 1.396 . S
C869 C879 1.510 . S
C870 C866 1.401 . S
C870 C869 1.396 . S
C871 C866 1.499 . S
C871 H872 0.959 . S
C871 H873 0.960 . S
C871 H874 0.961 . S
H872 C871 0.959 . S
H873 C871 0.960 . S
H874 C871 0.961 . S
O875 Co850 1.967 . S
O875 C883 1.258 . S
O876 Co851 1.941 . S
O876 C883 1.266 . S
H877 C879 0.959 . S
H878 C879 0.961 . S
C879 C869 1.510 . S
C879 H877 0.959 . S
C879 H878 0.961 . S
C879 H880 0.960 . S
H880 C879 0.960 . S
H881 N861 0.862 . S
O882 Co850 1.920 . S
O882 C855 1.289 . S
C883 O875 1.258 . S
C883 O876 1.266 . S
Co884 O887 1.970 . S
Co884 N901 1.989 . S
Co884 O909 1.967 . S
Co884 O916 1.920 . S
Co885 O888 1.966 . S
Co885 N894 2.022 . S
Co885 N902 1.993 . S
Co885 O910 1.941 . S
C886 O887 1.258 . S
C886 O888 1.263 . S
O887 Co884 1.970 . S
O887 C886 1.258 . S
O888 Co885 1.966 . S
O888 C886 1.263 . S
C889 O890 1.235 . S
C889 O916 1.289 . S
O890 C889 1.235 . S
C891 C893 1.400 . S
C891 N894 1.351 . S
C891 C896 1.501 . S
C892 C893 1.387 . S
C892 N895 1.341 . S
C893 C891 1.400 . S
C893 C892 1.387 . S
N894 Co885 2.022 . S
N894 C891 1.351 . S
N894 N895 1.365 . S
N895 C892 1.341 . S
N895 N894 1.365 . S
N895 H915 0.862 . S
C896 C891 1.501 . S
C896 H897 0.961 . S
C896 H898 0.961 . S
C896 H899 0.960 . S
H897 C896 0.961 . S
H898 C896 0.961 . S
H899 C896 0.960 . S
C900 N901 1.342 . S
C900 C904 1.401 . S
C900 C905 1.499 . S
N901 Co884 1.989 . S
N901 C900 1.342 . S
N901 N902 1.388 . S
N902 Co885 1.993 . S
N902 N901 1.388 . S
N902 C903 1.346 . S
C903 N902 1.346 . S
C903 C904 1.396 . S
C903 C913 1.510 . S
C904 C900 1.401 . S
C904 C903 1.396 . S
C905 C900 1.499 . S
C905 H906 0.959 . S
C905 H907 0.960 . S
C905 H908 0.961 . S
H906 C905 0.959 . S
H907 C905 0.960 . S
H908 C905 0.961 . S
O909 Co884 1.967 . S
O909 C917 1.258 . S
O910 Co885 1.941 . S
O910 C917 1.266 . S
H911 C913 0.959 . S
H912 C913 0.961 . S
C913 C903 1.510 . S
C913 H911 0.959 . S
C913 H912 0.961 . S
C913 H914 0.960 . S
H914 C913 0.960 . S
H915 N895 0.862 . S
O916 Co884 1.920 . S
O916 C889 1.289 . S
C917 O909 1.258 . S
C917 O910 1.266 . S
Co918 O921 1.970 . S
Co918 N935 1.989 . S
Co918 O943 1.967 . S
Co918 O950 1.920 . S
Co919 O922 1.966 . S
Co919 N928 2.022 . S
Co919 N936 1.993 . S
Co919 O944 1.941 . S
C920 O921 1.258 . S
C920 O922 1.263 . S
O921 Co918 1.970 . S
O921 C920 1.258 . S
O922 Co919 1.966 . S
O922 C920 1.263 . S
C923 O924 1.235 . S
C923 O950 1.289 . S
O924 C923 1.235 . S
C925 C927 1.400 . S
C925 N928 1.351 . S
C925 C930 1.501 . S
C926 C927 1.387 . S
C926 N929 1.341 . S
C927 C925 1.400 . S
C927 C926 1.387 . S
N928 Co919 2.022 . S
N928 C925 1.351 . S
N928 N929 1.365 . S
N929 C926 1.341 . S
N929 N928 1.365 . S
N929 H949 0.862 . S
C930 C925 1.501 . S
C930 H931 0.961 . S
C930 H932 0.961 . S
C930 H933 0.960 . S
H931 C930 0.961 . S
H932 C930 0.961 . S
H933 C930 0.960 . S
C934 N935 1.342 . S
C934 C938 1.401 . S
C934 C939 1.499 . S
N935 Co918 1.989 . S
N935 C934 1.342 . S
N935 N936 1.388 . S
N936 Co919 1.993 . S
N936 N935 1.388 . S
N936 C937 1.346 . S
C937 N936 1.346 . S
C937 C938 1.396 . S
C937 C947 1.510 . S
C938 C934 1.401 . S
C938 C937 1.396 . S
C939 C934 1.499 . S
C939 H940 0.959 . S
C939 H941 0.960 . S
C939 H942 0.961 . S
H940 C939 0.959 . S
H941 C939 0.960 . S
H942 C939 0.961 . S
O943 Co918 1.967 . S
O943 C951 1.258 . S
O944 Co919 1.941 . S
O944 C951 1.266 . S
H945 C947 0.959 . S
H946 C947 0.961 . S
C947 C937 1.510 . S
C947 H945 0.959 . S
C947 H946 0.961 . S
C947 H948 0.960 . S
H948 C947 0.960 . S
H949 N929 0.862 . S
O950 Co918 1.920 . S
O950 C923 1.289 . S
C951 O943 1.258 . S
C951 O944 1.266 . S
Co952 O955 1.970 . S
Co952 N969 1.989 . S
Co952 O977 1.967 . S
Co952 O984 1.920 . S
Co953 O956 1.966 . S
Co953 N962 2.022 . S
Co953 N970 1.993 . S
Co953 O978 1.941 . S
C954 O955 1.258 . S
C954 O956 1.263 . S
O955 Co952 1.970 . S
O955 C954 1.258 . S
O956 Co953 1.966 . S
O956 C954 1.263 . S
C957 O958 1.235 . S
C957 O984 1.289 . S
O958 C957 1.235 . S
C959 C961 1.400 . S
C959 N962 1.351 . S
C959 C964 1.501 . S
C960 C961 1.387 . S
C960 N963 1.341 . S
C961 C959 1.400 . S
C961 C960 1.387 . S
N962 Co953 2.022 . S
N962 C959 1.351 . S
N962 N963 1.365 . S
N963 C960 1.341 . S
N963 N962 1.365 . S
N963 H983 0.862 . S
C964 C959 1.501 . S
C964 H965 0.961 . S
C964 H966 0.961 . S
C964 H967 0.960 . S
H965 C964 0.961 . S
H966 C964 0.961 . S
H967 C964 0.960 . S
C968 N969 1.342 . S
C968 C972 1.401 . S
C968 C973 1.499 . S
N969 Co952 1.989 . S
N969 C968 1.342 . S
N969 N970 1.388 . S
N970 Co953 1.993 . S
N970 N969 1.388 . S
N970 C971 1.346 . S
C971 N970 1.346 . S
C971 C972 1.396 . S
C971 C981 1.510 . S
C972 C968 1.401 . S
C972 C971 1.396 . S
C973 C968 1.499 . S
C973 H974 0.959 . S
C973 H975 0.960 . S
C973 H976 0.961 . S
H974 C973 0.959 . S
H975 C973 0.960 . S
H976 C973 0.961 . S
O977 Co952 1.967 . S
O977 C985 1.258 . S
O978 Co953 1.941 . S
O978 C985 1.266 . S
H979 C981 0.959 . S
H980 C981 0.961 . S
C981 C971 1.510 . S
C981 H979 0.959 . S
C981 H980 0.961 . S
C981 H982 0.960 . S
H982 C981 0.960 . S
H983 N963 0.862 . S
O984 Co952 1.920 . S
O984 C957 1.289 . S
C985 O977 1.258 . S
C985 O978 1.266 . S
Co986 O989 1.970 . S
Co986 N1003 1.989 . S
Co986 O1011 1.967 . S
Co986 O1018 1.920 . S
Co987 O990 1.966 . S
Co987 N996 2.022 . S
Co987 N1004 1.993 . S
Co987 O1012 1.941 . S
C988 O989 1.258 . S
C988 O990 1.263 . S
O989 Co986 1.970 . S
O989 C988 1.258 . S
O990 Co987 1.966 . S
O990 C988 1.263 . S
C991 O992 1.235 . S
C991 O1018 1.289 . S
O992 C991 1.235 . S
C993 C995 1.400 . S
C993 N996 1.351 . S
C993 C998 1.501 . S
C994 C995 1.387 . S
C994 N997 1.341 . S
C995 C993 1.400 . S
C995 C994 1.387 . S
N996 Co987 2.022 . S
N996 C993 1.351 . S
N996 N997 1.365 . S
N997 C994 1.341 . S
N997 N996 1.365 . S
N997 H1017 0.862 . S
C998 C993 1.501 . S
C998 H999 0.961 . S
C998 H1000 0.961 . S
C998 H1001 0.960 . S
H999 C998 0.961 . S
H1000 C998 0.961 . S
H1001 C998 0.960 . S
C1002 N1003 1.342 . S
C1002 C1006 1.401 . S
C1002 C1007 1.499 . S
N1003 Co986 1.989 . S
N1003 C1002 1.342 . S
N1003 N1004 1.388 . S
N1004 Co987 1.993 . S
N1004 N1003 1.388 . S
N1004 C1005 1.346 . S
C1005 N1004 1.346 . S
C1005 C1006 1.396 . S
C1005 C1015 1.510 . S
C1006 C1002 1.401 . S
C1006 C1005 1.396 . S
C1007 C1002 1.499 . S
C1007 H1008 0.959 . S
C1007 H1009 0.960 . S
C1007 H1010 0.961 . S
H1008 C1007 0.959 . S
H1009 C1007 0.960 . S
H1010 C1007 0.961 . S
O1011 Co986 1.967 . S
O1011 C1019 1.258 . S
O1012 Co987 1.941 . S
O1012 C1019 1.266 . S
H1013 C1015 0.959 . S
H1014 C1015 0.961 . S
C1015 C1005 1.510 . S
C1015 H1013 0.959 . S
C1015 H1014 0.961 . S
C1015 H1016 0.960 . S
H1016 C1015 0.960 . S
H1017 N997 0.862 . S
O1018 Co986 1.920 . S
O1018 C991 1.289 . S
C1019 O1011 1.258 . S
C1019 O1012 1.266 . S
Co1020 O1023 1.970 . S
Co1020 N1037 1.989 . S
Co1020 O1045 1.967 . S
Co1020 O1052 1.920 . S
Co1021 O1024 1.966 . S
Co1021 N1030 2.022 . S
Co1021 N1038 1.993 . S
Co1021 O1046 1.941 . S
C1022 O1023 1.258 . S
C1022 O1024 1.263 . S
O1023 Co1020 1.970 . S
O1023 C1022 1.258 . S
O1024 Co1021 1.966 . S
O1024 C1022 1.263 . S
C1025 O1026 1.235 . S
C1025 O1052 1.289 . S
O1026 C1025 1.235 . S
C1027 C1029 1.400 . S
C1027 N1030 1.351 . S
C1027 C1032 1.501 . S
C1028 C1029 1.387 . S
C1028 N1031 1.341 . S
C1029 C1027 1.400 . S
C1029 C1028 1.387 . S
N1030 Co1021 2.022 . S
N1030 C1027 1.351 . S
N1030 N1031 1.365 . S
N1031 C1028 1.341 . S
N1031 N1030 1.365 . S
N1031 H1051 0.862 . S
C1032 C1027 1.501 . S
C1032 H1033 0.961 . S
C1032 H1034 0.961 . S
C1032 H1035 0.960 . S
H1033 C1032 0.961 . S
H1034 C1032 0.961 . S
H1035 C1032 0.960 . S
C1036 N1037 1.342 . S
C1036 C1040 1.401 . S
C1036 C1041 1.499 . S
N1037 Co1020 1.989 . S
N1037 C1036 1.342 . S
N1037 N1038 1.388 . S
N1038 Co1021 1.993 . S
N1038 N1037 1.388 . S
N1038 C1039 1.346 . S
C1039 N1038 1.346 . S
C1039 C1040 1.396 . S
C1039 C1049 1.510 . S
C1040 C1036 1.401 . S
C1040 C1039 1.396 . S
C1041 C1036 1.499 . S
C1041 H1042 0.959 . S
C1041 H1043 0.960 . S
C1041 H1044 0.961 . S
H1042 C1041 0.959 . S
H1043 C1041 0.960 . S
H1044 C1041 0.961 . S
O1045 Co1020 1.967 . S
O1045 C1053 1.258 . S
O1046 Co1021 1.941 . S
O1046 C1053 1.266 . S
H1047 C1049 0.959 . S
H1048 C1049 0.961 . S
C1049 C1039 1.510 . S
C1049 H1047 0.959 . S
C1049 H1048 0.961 . S
C1049 H1050 0.960 . S
H1050 C1049 0.960 . S
H1051 N1031 0.862 . S
O1052 Co1020 1.920 . S
O1052 C1025 1.289 . S
C1053 O1045 1.258 . S
C1053 O1046 1.266 . S
Co1054 O1057 1.970 . S
Co1054 N1071 1.989 . S
Co1054 O1079 1.967 . S
Co1054 O1086 1.920 . S
Co1055 O1058 1.966 . S
Co1055 N1064 2.022 . S
Co1055 N1072 1.993 . S
Co1055 O1080 1.941 . S
C1056 O1057 1.258 . S
C1056 O1058 1.263 . S
O1057 Co1054 1.970 . S
O1057 C1056 1.258 . S
O1058 Co1055 1.966 . S
O1058 C1056 1.263 . S
C1059 O1060 1.235 . S
C1059 O1086 1.289 . S
O1060 C1059 1.235 . S
C1061 C1063 1.400 . S
C1061 N1064 1.351 . S
C1061 C1066 1.501 . S
C1062 C1063 1.387 . S
C1062 N1065 1.341 . S
C1063 C1061 1.400 . S
C1063 C1062 1.387 . S
N1064 Co1055 2.022 . S
N1064 C1061 1.351 . S
N1064 N1065 1.365 . S
N1065 C1062 1.341 . S
N1065 N1064 1.365 . S
N1065 H1085 0.862 . S
C1066 C1061 1.501 . S
C1066 H1067 0.961 . S
C1066 H1068 0.961 . S
C1066 H1069 0.960 . S
H1067 C1066 0.961 . S
H1068 C1066 0.961 . S
H1069 C1066 0.960 . S
C1070 N1071 1.342 . S
C1070 C1074 1.401 . S
C1070 C1075 1.499 . S
N1071 Co1054 1.989 . S
N1071 C1070 1.342 . S
N1071 N1072 1.388 . S
N1072 Co1055 1.993 . S
N1072 N1071 1.388 . S
N1072 C1073 1.346 . S
C1073 N1072 1.346 . S
C1073 C1074 1.396 . S
C1073 C1083 1.510 . S
C1074 C1070 1.401 . S
C1074 C1073 1.396 . S
C1075 C1070 1.499 . S
C1075 H1076 0.959 . S
C1075 H1077 0.960 . S
C1075 H1078 0.961 . S
H1076 C1075 0.959 . S
H1077 C1075 0.960 . S
H1078 C1075 0.961 . S
O1079 Co1054 1.967 . S
O1079 C1087 1.258 . S
O1080 Co1055 1.941 . S
O1080 C1087 1.266 . S
H1081 C1083 0.959 . S
H1082 C1083 0.961 . S
C1083 C1073 1.510 . S
C1083 H1081 0.959 . S
C1083 H1082 0.961 . S
C1083 H1084 0.960 . S
H1084 C1083 0.960 . S
H1085 N1065 0.862 . S
O1086 Co1054 1.920 . S
O1086 C1059 1.289 . S
C1087 O1079 1.258 . S
C1087 O1080 1.266 . S
Co1088 O1091 1.970 . S
Co1088 N1105 1.989 . S
Co1088 O1113 1.967 . S
Co1088 O1120 1.920 . S
Co1089 O1092 1.966 . S
Co1089 N1098 2.022 . S
Co1089 N1106 1.993 . S
Co1089 O1114 1.941 . S
C1090 O1091 1.258 . S
C1090 O1092 1.263 . S
O1091 Co1088 1.970 . S
O1091 C1090 1.258 . S
O1092 Co1089 1.966 . S
O1092 C1090 1.263 . S
C1093 O1094 1.235 . S
C1093 O1120 1.289 . S
O1094 C1093 1.235 . S
C1095 C1097 1.400 . S
C1095 N1098 1.351 . S
C1095 C1100 1.501 . S
C1096 C1097 1.387 . S
C1096 N1099 1.341 . S
C1097 C1095 1.400 . S
C1097 C1096 1.387 . S
N1098 Co1089 2.022 . S
N1098 C1095 1.351 . S
N1098 N1099 1.365 . S
N1099 C1096 1.341 . S
N1099 N1098 1.365 . S
N1099 H1119 0.862 . S
C1100 C1095 1.501 . S
C1100 H1101 0.961 . S
C1100 H1102 0.961 . S
C1100 H1103 0.960 . S
H1101 C1100 0.961 . S
H1102 C1100 0.961 . S
H1103 C1100 0.960 . S
C1104 N1105 1.342 . S
C1104 C1108 1.401 . S
C1104 C1109 1.499 . S
N1105 Co1088 1.989 . S
N1105 C1104 1.342 . S
N1105 N1106 1.388 . S
N1106 Co1089 1.993 . S
N1106 N1105 1.388 . S
N1106 C1107 1.346 . S
C1107 N1106 1.346 . S
C1107 C1108 1.396 . S
C1107 C1117 1.510 . S
C1108 C1104 1.401 . S
C1108 C1107 1.396 . S
C1109 C1104 1.499 . S
C1109 H1110 0.959 . S
C1109 H1111 0.960 . S
C1109 H1112 0.961 . S
H1110 C1109 0.959 . S
H1111 C1109 0.960 . S
H1112 C1109 0.961 . S
O1113 Co1088 1.967 . S
O1113 C1121 1.258 . S
O1114 Co1089 1.941 . S
O1114 C1121 1.266 . S
H1115 C1117 0.959 . S
H1116 C1117 0.961 . S
C1117 C1107 1.510 . S
C1117 H1115 0.959 . S
C1117 H1116 0.961 . S
C1117 H1118 0.960 . S
H1118 C1117 0.960 . S
H1119 N1099 0.862 . S
O1120 Co1088 1.920 . S
O1120 C1093 1.289 . S
C1121 O1113 1.258 . S
C1121 O1114 1.266 . S
Co1122 O1125 1.970 . S
Co1122 N1139 1.989 . S
Co1122 O1147 1.967 . S
Co1122 O1154 1.920 . S
Co1123 O1126 1.966 . S
Co1123 N1132 2.022 . S
Co1123 N1140 1.993 . S
Co1123 O1148 1.941 . S
C1124 O1125 1.258 . S
C1124 O1126 1.263 . S
O1125 Co1122 1.970 . S
O1125 C1124 1.258 . S
O1126 Co1123 1.966 . S
O1126 C1124 1.263 . S
C1127 O1128 1.235 . S
C1127 O1154 1.289 . S
O1128 C1127 1.235 . S
C1129 C1131 1.400 . S
C1129 N1132 1.351 . S
C1129 C1134 1.501 . S
C1130 C1131 1.387 . S
C1130 N1133 1.341 . S
C1131 C1129 1.400 . S
C1131 C1130 1.387 . S
N1132 Co1123 2.022 . S
N1132 C1129 1.351 . S
N1132 N1133 1.365 . S
N1133 C1130 1.341 . S
N1133 N1132 1.365 . S
N1133 H1153 0.862 . S
C1134 C1129 1.501 . S
C1134 H1135 0.961 . S
C1134 H1136 0.961 . S
C1134 H1137 0.960 . S
H1135 C1134 0.961 . S
H1136 C1134 0.961 . S
H1137 C1134 0.960 . S
C1138 N1139 1.342 . S
C1138 C1142 1.401 . S
C1138 C1143 1.499 . S
N1139 Co1122 1.989 . S
N1139 C1138 1.342 . S
N1139 N1140 1.388 . S
N1140 Co1123 1.993 . S
N1140 N1139 1.388 . S
N1140 C1141 1.346 . S
C1141 N1140 1.346 . S
C1141 C1142 1.396 . S
C1141 C1151 1.510 . S
C1142 C1138 1.401 . S
C1142 C1141 1.396 . S
C1143 C1138 1.499 . S
C1143 H1144 0.959 . S
C1143 H1145 0.960 . S
C1143 H1146 0.961 . S
H1144 C1143 0.959 . S
H1145 C1143 0.960 . S
H1146 C1143 0.961 . S
O1147 Co1122 1.967 . S
O1147 C1155 1.258 . S
O1148 Co1123 1.941 . S
O1148 C1155 1.266 . S
H1149 C1151 0.959 . S
H1150 C1151 0.961 . S
C1151 C1141 1.510 . S
C1151 H1149 0.959 . S
C1151 H1150 0.961 . S
C1151 H1152 0.960 . S
H1152 C1151 0.960 . S
H1153 N1133 0.862 . S
O1154 Co1122 1.920 . S
O1154 C1127 1.289 . S
C1155 O1147 1.258 . S
C1155 O1148 1.266 . S
Co1156 O1159 1.970 . S
Co1156 N1173 1.989 . S
Co1156 O1181 1.967 . S
Co1156 O1188 1.920 . S
Co1157 O1160 1.966 . S
Co1157 N1166 2.022 . S
Co1157 N1174 1.993 . S
Co1157 O1182 1.941 . S
C1158 O1159 1.258 . S
C1158 O1160 1.263 . S
O1159 Co1156 1.970 . S
O1159 C1158 1.258 . S
O1160 Co1157 1.966 . S
O1160 C1158 1.263 . S
C1161 O1162 1.235 . S
C1161 O1188 1.289 . S
O1162 C1161 1.235 . S
C1163 C1165 1.400 . S
C1163 N1166 1.351 . S
C1163 C1168 1.501 . S
C1164 C1165 1.387 . S
C1164 N1167 1.341 . S
C1165 C1163 1.400 . S
C1165 C1164 1.387 . S
N1166 Co1157 2.022 . S
N1166 C1163 1.351 . S
N1166 N1167 1.365 . S
N1167 C1164 1.341 . S
N1167 N1166 1.365 . S
N1167 H1187 0.862 . S
C1168 C1163 1.501 . S
C1168 H1169 0.961 . S
C1168 H1170 0.961 . S
C1168 H1171 0.960 . S
H1169 C1168 0.961 . S
H1170 C1168 0.961 . S
H1171 C1168 0.960 . S
C1172 N1173 1.342 . S
C1172 C1176 1.401 . S
C1172 C1177 1.499 . S
N1173 Co1156 1.989 . S
N1173 C1172 1.342 . S
N1173 N1174 1.388 . S
N1174 Co1157 1.993 . S
N1174 N1173 1.388 . S
N1174 C1175 1.346 . S
C1175 N1174 1.346 . S
C1175 C1176 1.396 . S
C1175 C1185 1.510 . S
C1176 C1172 1.401 . S
C1176 C1175 1.396 . S
C1177 C1172 1.499 . S
C1177 H1178 0.959 . S
C1177 H1179 0.960 . S
C1177 H1180 0.961 . S
H1178 C1177 0.959 . S
H1179 C1177 0.960 . S
H1180 C1177 0.961 . S
O1181 Co1156 1.967 . S
O1181 C1189 1.258 . S
O1182 Co1157 1.941 . S
O1182 C1189 1.266 . S
H1183 C1185 0.959 . S
H1184 C1185 0.961 . S
C1185 C1175 1.510 . S
C1185 H1183 0.959 . S
C1185 H1184 0.961 . S
C1185 H1186 0.960 . S
H1186 C1185 0.960 . S
H1187 N1167 0.862 . S
O1188 Co1156 1.920 . S
O1188 C1161 1.289 . S
C1189 O1181 1.258 . S
C1189 O1182 1.266 . S
Co1190 O1193 1.970 . S
Co1190 N1207 1.989 . S
Co1190 O1215 1.967 . S
Co1190 O1222 1.920 . S
Co1191 O1194 1.966 . S
Co1191 N1200 2.022 . S
Co1191 N1208 1.993 . S
Co1191 O1216 1.941 . S
C1192 O1193 1.258 . S
C1192 O1194 1.263 . S
O1193 Co1190 1.970 . S
O1193 C1192 1.258 . S
O1194 Co1191 1.966 . S
O1194 C1192 1.263 . S
C1195 O1196 1.235 . S
C1195 O1222 1.289 . S
O1196 C1195 1.235 . S
C1197 C1199 1.400 . S
C1197 N1200 1.351 . S
C1197 C1202 1.501 . S
C1198 C1199 1.387 . S
C1198 N1201 1.341 . S
C1199 C1197 1.400 . S
C1199 C1198 1.387 . S
N1200 Co1191 2.022 . S
N1200 C1197 1.351 . S
N1200 N1201 1.365 . S
N1201 C1198 1.341 . S
N1201 N1200 1.365 . S
N1201 H1221 0.862 . S
C1202 C1197 1.501 . S
C1202 H1203 0.961 . S
C1202 H1204 0.961 . S
C1202 H1205 0.960 . S
H1203 C1202 0.961 . S
H1204 C1202 0.961 . S
H1205 C1202 0.960 . S
C1206 N1207 1.342 . S
C1206 C1210 1.401 . S
C1206 C1211 1.499 . S
N1207 Co1190 1.989 . S
N1207 C1206 1.342 . S
N1207 N1208 1.388 . S
N1208 Co1191 1.993 . S
N1208 N1207 1.388 . S
N1208 C1209 1.346 . S
C1209 N1208 1.346 . S
C1209 C1210 1.396 . S
C1209 C1219 1.510 . S
C1210 C1206 1.401 . S
C1210 C1209 1.396 . S
C1211 C1206 1.499 . S
C1211 H1212 0.959 . S
C1211 H1213 0.960 . S
C1211 H1214 0.961 . S
H1212 C1211 0.959 . S
H1213 C1211 0.960 . S
H1214 C1211 0.961 . S
O1215 Co1190 1.967 . S
O1215 C1223 1.258 . S
O1216 Co1191 1.941 . S
O1216 C1223 1.266 . S
H1217 C1219 0.959 . S
H1218 C1219 0.961 . S
C1219 C1209 1.510 . S
C1219 H1217 0.959 . S
C1219 H1218 0.961 . S
C1219 H1220 0.960 . S
H1220 C1219 0.960 . S
H1221 N1201 0.862 . S
O1222 Co1190 1.920 . S
O1222 C1195 1.289 . S
C1223 O1215 1.258 . S
C1223 O1216 1.266 . S
C1224 C1225 1.349 . S
C1224 C1226 1.327 . S
C1224 H1249 0.950 . S
C1225 C1224 1.349 . S
C1225 C1241 1.349 . S
C1226 C1224 1.327 . S
C1226 C1245 1.429 . S
C1226 H1250 0.950 . S
C1227 C1244 1.574 . S
C1227 C1246 1.368 . S
C1227 H1251 0.949 . S
H1228 C1232 0.949 . S
C1229 C1230 1.349 . S
C1229 C1231 1.327 . S
C1229 H1252 0.950 . S
C1230 C1229 1.349 . S
C1230 C1242 1.349 . S
C1231 C1229 1.327 . S
C1231 C1247 1.429 . S
C1231 H1253 0.950 . S
C1232 H1228 0.949 . S
C1232 C1240 1.574 . S
C1232 C1248 1.368 . S
H1233 C1241 0.950 . S
H1234 C1239 0.950 . S
H1235 C1240 0.949 . S
H1236 C1242 0.950 . S
H1237 C1243 0.950 . S
H1238 C1244 0.949 . S
C1239 H1234 0.950 . S
C1239 C1241 1.327 . S
C1239 C1245 1.429 . S
C1240 C1232 1.574 . S
C1240 H1235 0.949 . S
C1240 C1246 1.368 . S
C1241 C1225 1.349 . S
C1241 H1233 0.950 . S
C1241 C1239 1.327 . S
C1242 C1230 1.349 . S
C1242 H1236 0.950 . S
C1242 C1243 1.327 . S
C1243 H1237 0.950 . S
C1243 C1242 1.327 . S
C1243 C1247 1.429 . S
C1244 C1227 1.574 . S
C1244 H1238 0.949 . S
C1244 C1248 1.368 . S
C1245 C1226 1.429 . S
C1245 C1239 1.429 . S
C1245 C1246 1.523 . S
C1246 C1227 1.368 . S
C1246 C1240 1.368 . S
C1246 C1245 1.523 . S
C1247 C1231 1.429 . S
C1247 C1243 1.429 . S
C1247 C1248 1.523 . S
C1248 C1232 1.368 . S
C1248 C1244 1.368 . S
C1248 C1247 1.523 . S
H1249 C1224 0.950 . S
H1250 C1226 0.950 . S
H1251 C1227 0.949 . S
H1252 C1229 0.950 . S
H1253 C1231 0.950 . S
C1254 C1255 1.349 . S
C1254 C1256 1.327 . S
C1254 H1279 0.950 . S
C1255 C1254 1.349 . S
C1255 C1271 1.349 . S
C1256 C1254 1.327 . S
C1256 C1275 1.429 . S
C1256 H1280 0.950 . S
C1257 C1274 1.574 . S
C1257 C1276 1.368 1_565 S
C1257 H1281 0.949 . S
H1258 C1262 0.949 . S
C1259 C1260 1.349 . S
C1259 C1261 1.327 . S
C1259 H1282 0.950 . S
C1260 C1259 1.349 . S
C1260 C1272 1.349 . S
C1261 C1259 1.327 . S
C1261 C1277 1.429 . S
C1261 H1283 0.950 . S
C1262 H1258 0.949 . S
C1262 C1270 1.574 . S
C1262 C1278 1.368 1_545 S
H1263 C1271 0.950 1_565 S
H1264 C1269 0.950 . S
H1265 C1270 0.949 . S
H1266 C1272 0.950 1_545 S
H1267 C1273 0.950 . S
H1268 C1274 0.949 . S
C1269 H1264 0.950 . S
C1269 C1271 1.327 1_565 S
C1269 C1275 1.429 1_565 S
C1270 C1262 1.574 . S
C1270 H1265 0.949 . S
C1270 C1276 1.368 . S
C1271 C1255 1.349 . S
C1271 H1263 0.950 1_545 S
C1271 C1269 1.327 1_545 S
C1272 C1260 1.349 . S
C1272 H1266 0.950 1_565 S
C1272 C1273 1.327 1_565 S
C1273 H1267 0.950 . S
C1273 C1272 1.327 1_545 S
C1273 C1277 1.429 1_545 S
C1274 C1257 1.574 . S
C1274 H1268 0.949 . S
C1274 C1278 1.368 . S
C1275 C1256 1.429 . S
C1275 C1269 1.429 1_545 S
C1275 C1276 1.523 . S
C1276 C1257 1.368 1_545 S
C1276 C1270 1.368 . S
C1276 C1275 1.523 . S
C1277 C1261 1.429 . S
C1277 C1273 1.429 1_565 S
C1277 C1278 1.523 . S
C1278 C1262 1.368 1_565 S
C1278 C1274 1.368 . S
C1278 C1277 1.523 . S
H1279 C1254 0.950 . S
H1280 C1256 0.950 . S
H1281 C1257 0.949 . S
H1282 C1259 0.950 . S
H1283 C1261 0.950 . S
C1284 C1285 1.349 . S
C1284 C1286 1.327 . S
C1284 H1309 0.950 . S
C1285 C1284 1.349 . S
C1285 C1301 1.349 . S
C1286 C1284 1.327 . S
C1286 C1305 1.429 . S
C1286 H1310 0.950 . S
C1287 C1304 1.574 . S
C1287 C1306 1.368 1_655 S
C1287 H1311 0.949 . S
H1288 C1292 0.949 . S
C1289 C1290 1.349 . S
C1289 C1291 1.327 . S
C1289 H1312 0.950 . S
C1290 C1289 1.349 . S
C1290 C1302 1.349 . S
C1291 C1289 1.327 . S
C1291 C1307 1.429 . S
C1291 H1313 0.950 . S
C1292 H1288 0.949 . S
C1292 C1300 1.574 . S
C1292 C1308 1.368 1_455 S
H1293 C1301 0.950 1_655 S
H1294 C1299 0.950 . S
H1295 C1300 0.949 . S
H1296 C1302 0.950 1_455 S
H1297 C1303 0.950 . S
H1298 C1304 0.949 . S
C1299 H1294 0.950 . S
C1299 C1301 1.327 1_655 S
C1299 C1305 1.429 1_655 S
C1300 C1292 1.574 . S
C1300 H1295 0.949 . S
C1300 C1306 1.368 . S
C1301 C1285 1.349 . S
C1301 H1293 0.950 1_455 S
C1301 C1299 1.327 1_455 S
C1302 C1290 1.349 . S
C1302 H1296 0.950 1_655 S
C1302 C1303 1.327 1_655 S
C1303 H1297 0.950 . S
C1303 C1302 1.327 1_455 S
C1303 C1307 1.429 1_455 S
C1304 C1287 1.574 . S
C1304 H1298 0.949 . S
C1304 C1308 1.368 . S
C1305 C1286 1.429 . S
C1305 C1299 1.429 1_455 S
C1305 C1306 1.523 . S
C1306 C1287 1.368 1_455 S
C1306 C1300 1.368 . S
C1306 C1305 1.523 . S
C1307 C1291 1.429 . S
C1307 C1303 1.429 1_655 S
C1307 C1308 1.523 . S
C1308 C1292 1.368 1_655 S
C1308 C1304 1.368 . S
C1308 C1307 1.523 . S
H1309 C1284 0.950 . S
H1310 C1286 0.950 . S
H1311 C1287 0.949 . S
H1312 C1289 0.950 . S
H1313 C1291 0.950 . S
C1314 C1315 1.349 . S
C1314 C1316 1.327 . S
C1314 H1339 0.950 . S
C1315 C1314 1.349 . S
C1315 C1331 1.349 . S
C1316 C1314 1.327 . S
C1316 C1335 1.429 . S
C1316 H1340 0.950 . S
C1317 C1334 1.574 . S
C1317 C1336 1.368 . S
C1317 H1341 0.949 . S
H1318 C1322 0.949 . S
C1319 C1320 1.349 . S
C1319 C1321 1.327 . S
C1319 H1342 0.950 . S
C1320 C1319 1.349 . S
C1320 C1332 1.349 . S
C1321 C1319 1.327 . S
C1321 C1337 1.429 . S
C1321 H1343 0.950 . S
C1322 H1318 0.949 . S
C1322 C1330 1.574 . S
C1322 C1338 1.368 . S
H1323 C1331 0.950 . S
H1324 C1329 0.950 . S
H1325 C1330 0.949 . S
H1326 C1332 0.950 . S
H1327 C1333 0.950 . S
H1328 C1334 0.949 . S
C1329 H1324 0.950 . S
C1329 C1331 1.327 . S
C1329 C1335 1.429 . S
C1330 C1322 1.574 . S
C1330 H1325 0.949 . S
C1330 C1336 1.368 . S
C1331 C1315 1.349 . S
C1331 H1323 0.950 . S
C1331 C1329 1.327 . S
C1332 C1320 1.349 . S
C1332 H1326 0.950 . S
C1332 C1333 1.327 . S
C1333 H1327 0.950 . S
C1333 C1332 1.327 . S
C1333 C1337 1.429 . S
C1334 C1317 1.574 . S
C1334 H1328 0.949 . S
C1334 C1338 1.368 . S
C1335 C1316 1.429 . S
C1335 C1329 1.429 . S
C1335 C1336 1.523 . S
C1336 C1317 1.368 . S
C1336 C1330 1.368 . S
C1336 C1335 1.523 . S
C1337 C1321 1.429 . S
C1337 C1333 1.429 . S
C1337 C1338 1.523 . S
C1338 C1322 1.368 . S
C1338 C1334 1.368 . S
C1338 C1337 1.523 . S
H1339 C1314 0.950 . S
H1340 C1316 0.950 . S
H1341 C1317 0.949 . S
H1342 C1319 0.950 . S
H1343 C1321 0.950 . S
C1344 C1345 1.349 . S
C1344 C1346 1.327 1_565 S
C1344 H1369 0.950 1_565 S
C1345 C1344 1.349 . S
C1345 C1361 1.349 . S
C1346 C1344 1.327 1_545 S
C1346 C1365 1.429 1_545 S
C1346 H1370 0.950 . S
C1347 C1364 1.574 . S
C1347 C1366 1.368 . S
C1347 H1371 0.949 . S
H1348 C1352 0.949 . S
C1349 C1350 1.349 . S
C1349 C1351 1.327 1_545 S
C1349 H1372 0.950 1_545 S
C1350 C1349 1.349 . S
C1350 C1362 1.349 . S
C1351 C1349 1.327 1_565 S
C1351 C1367 1.429 1_565 S
C1351 H1373 0.950 . S
C1352 H1348 0.949 . S
C1352 C1360 1.574 . S
C1352 C1368 1.368 . S
H1353 C1361 0.950 . S
H1354 C1359 0.950 . S
H1355 C1360 0.949 . S
H1356 C1362 0.950 . S
H1357 C1363 0.950 . S
H1358 C1364 0.949 . S
C1359 H1354 0.950 . S
C1359 C1361 1.327 . S
C1359 C1365 1.429 . S
C1360 C1352 1.574 . S
C1360 H1355 0.949 . S
C1360 C1366 1.368 1_545 S
C1361 C1345 1.349 . S
C1361 H1353 0.950 . S
C1361 C1359 1.327 . S
C1362 C1350 1.349 . S
C1362 H1356 0.950 . S
C1362 C1363 1.327 . S
C1363 H1357 0.950 . S
C1363 C1362 1.327 . S
C1363 C1367 1.429 . S
C1364 C1347 1.574 . S
C1364 H1358 0.949 . S
C1364 C1368 1.368 1_565 S
C1365 C1346 1.429 1_565 S
C1365 C1359 1.429 . S
C1365 C1366 1.523 . S
C1366 C1347 1.368 . S
C1366 C1360 1.368 1_565 S
C1366 C1365 1.523 . S
C1367 C1351 1.429 1_545 S
C1367 C1363 1.429 . S
C1367 C1368 1.523 . S
C1368 C1352 1.368 . S
C1368 C1364 1.368 1_545 S
C1368 C1367 1.523 . S
H1369 C1344 0.950 1_545 S
H1370 C1346 0.950 . S
H1371 C1347 0.949 . S
H1372 C1349 0.950 1_565 S
H1373 C1351 0.950 . S
C1374 C1375 1.349 . S
C1374 C1376 1.327 . S
C1374 H1399 0.950 . S
C1375 C1374 1.349 . S
C1375 C1391 1.349 . S
C1376 C1374 1.327 . S
C1376 C1395 1.429 . S
C1376 H1400 0.950 . S
C1377 C1394 1.577 . S
C1377 C1396 1.357 1_455 S
C1377 H1401 0.946 . S
H1378 C1382 0.946 . S
C1379 C1380 1.349 . S
C1379 C1381 1.327 . S
C1379 H1402 0.950 . S
C1380 C1379 1.349 . S
C1380 C1392 1.349 . S
C1381 C1379 1.327 . S
C1381 C1397 1.429 . S
C1381 H1403 0.950 . S
C1382 H1378 0.946 . S
C1382 C1390 1.577 . S
C1382 C1398 1.357 1_655 S
H1383 C1391 0.950 . S
H1384 C1389 0.950 . S
H1385 C1390 0.949 . S
H1386 C1392 0.950 . S
H1387 C1393 0.950 . S
H1388 C1394 0.949 . S
C1389 H1384 0.950 . S
C1389 C1391 1.327 . S
C1389 C1395 1.429 . S
C1390 C1382 1.577 . S
C1390 H1385 0.949 . S
C1390 C1396 1.368 . S
C1391 C1375 1.349 . S
C1391 H1383 0.950 . S
C1391 C1389 1.327 . S
C1392 C1380 1.349 . S
C1392 H1386 0.950 . S
C1392 C1393 1.327 . S
C1393 H1387 0.950 . S
C1393 C1392 1.327 . S
C1393 C1397 1.429 . S
C1394 C1377 1.577 . S
C1394 H1388 0.949 . S
C1394 C1398 1.368 . S
C1395 C1376 1.429 . S
C1395 C1389 1.429 . S
C1395 C1396 1.523 . S
C1396 C1377 1.357 1_655 S
C1396 C1390 1.368 . S
C1396 C1395 1.523 . S
C1397 C1381 1.429 . S
C1397 C1393 1.429 . S
C1397 C1398 1.523 . S
C1398 C1382 1.357 1_455 S
C1398 C1394 1.368 . S
C1398 C1397 1.523 . S
H1399 C1374 0.950 . S
H1400 C1376 0.950 . S
H1401 C1377 0.946 . S
H1402 C1379 0.950 . S
H1403 C1381 0.950 . S
C1404 C1405 1.349 . S
C1404 C1406 1.327 . S
C1404 H1429 0.950 . S
C1405 C1404 1.349 . S
C1405 C1421 1.349 . S
C1406 C1404 1.327 . S
C1406 C1425 1.429 . S
C1406 H1430 0.950 . S
C1407 C1424 1.574 . S
C1407 C1426 1.368 . S
C1407 H1431 0.949 . S
H1408 C1412 0.949 . S
C1409 C1410 1.349 . S
C1409 C1411 1.327 . S
C1409 H1432 0.950 . S
C1410 C1409 1.349 . S
C1410 C1422 1.349 . S
C1411 C1409 1.327 . S
C1411 C1427 1.429 . S
C1411 H1433 0.950 . S
C1412 H1408 0.949 . S
C1412 C1420 1.574 . S
C1412 C1428 1.368 . S
H1413 C1421 0.950 . S
H1414 C1419 0.950 . S
H1415 C1420 0.949 . S
H1416 C1422 0.950 . S
H1417 C1423 0.950 . S
H1418 C1424 0.949 . S
C1419 H1414 0.950 . S
C1419 C1421 1.327 . S
C1419 C1425 1.429 . S
C1420 C1412 1.574 . S
C1420 H1415 0.949 . S
C1420 C1426 1.368 . S
C1421 C1405 1.349 . S
C1421 H1413 0.950 . S
C1421 C1419 1.327 . S
C1422 C1410 1.349 . S
C1422 H1416 0.950 . S
C1422 C1423 1.327 . S
C1423 H1417 0.950 . S
C1423 C1422 1.327 . S
C1423 C1427 1.429 . S
C1424 C1407 1.574 . S
C1424 H1418 0.949 . S
C1424 C1428 1.368 . S
C1425 C1406 1.429 . S
C1425 C1419 1.429 . S
C1425 C1426 1.523 . S
C1426 C1407 1.368 . S
C1426 C1420 1.368 . S
C1426 C1425 1.523 . S
C1427 C1411 1.429 . S
C1427 C1423 1.429 . S
C1427 C1428 1.523 . S
C1428 C1412 1.368 . S
C1428 C1424 1.368 . S
C1428 C1427 1.523 . S
H1429 C1404 0.950 . S
H1430 C1406 0.950 . S
H1431 C1407 0.949 . S
H1432 C1409 0.950 . S
H1433 C1411 0.950 . S
C1434 C1435 1.349 . S
C1434 C1436 1.327 . S
C1434 H1459 0.950 . S
C1435 C1434 1.349 . S
C1435 C1451 1.349 . S
C1436 C1434 1.327 . S
C1436 C1455 1.429 . S
C1436 H1460 0.950 . S
C1437 C1454 1.574 . S
C1437 C1456 1.368 . S
C1437 H1461 0.949 . S
H1438 C1442 0.949 . S
C1439 C1440 1.349 . S
C1439 C1441 1.327 . S
C1439 H1462 0.950 . S
C1440 C1439 1.349 . S
C1440 C1452 1.349 . S
C1441 C1439 1.327 . S
C1441 C1457 1.429 . S
C1441 H1463 0.950 . S
C1442 H1438 0.949 . S
C1442 C1450 1.574 . S
C1442 C1458 1.368 . S
H1443 C1451 0.950 . S
H1444 C1449 0.950 . S
H1445 C1450 0.949 . S
H1446 C1452 0.950 . S
H1447 C1453 0.950 . S
H1448 C1454 0.949 . S
C1449 H1444 0.950 . S
C1449 C1451 1.327 . S
C1449 C1455 1.429 . S
C1450 C1442 1.574 . S
C1450 H1445 0.949 . S
C1450 C1456 1.368 . S
C1451 C1435 1.349 . S
C1451 H1443 0.950 . S
C1451 C1449 1.327 . S
C1452 C1440 1.349 . S
C1452 H1446 0.950 . S
C1452 C1453 1.327 . S
C1453 H1447 0.950 . S
C1453 C1452 1.327 . S
C1453 C1457 1.429 . S
C1454 C1437 1.574 . S
C1454 H1448 0.949 . S
C1454 C1458 1.368 . S
C1455 C1436 1.429 . S
C1455 C1449 1.429 . S
C1455 C1456 1.523 . S
C1456 C1437 1.368 . S
C1456 C1450 1.368 . S
C1456 C1455 1.523 . S
C1457 C1441 1.429 . S
C1457 C1453 1.429 . S
C1457 C1458 1.523 . S
C1458 C1442 1.368 . S
C1458 C1454 1.368 . S
C1458 C1457 1.523 . S
H1459 C1434 0.950 . S
H1460 C1436 0.950 . S
H1461 C1437 0.949 . S
H1462 C1439 0.950 . S
H1463 C1441 0.950 . S
C1464 C1465 1.349 . S
C1464 C1466 1.327 . S
C1464 H1489 0.950 . S
C1465 C1464 1.349 . S
C1465 C1481 1.349 . S
C1466 C1464 1.327 . S
C1466 C1485 1.429 . S
C1466 H1490 0.950 . S
C1467 C1484 1.574 . S
C1467 C1486 1.368 . S
C1467 H1491 0.949 . S
H1468 C1472 0.949 . S
C1469 C1470 1.349 . S
C1469 C1471 1.327 . S
C1469 H1492 0.950 . S
C1470 C1469 1.349 . S
C1470 C1482 1.349 . S
C1471 C1469 1.327 . S
C1471 C1487 1.429 . S
C1471 H1493 0.950 . S
C1472 H1468 0.949 . S
C1472 C1480 1.574 . S
C1472 C1488 1.368 . S
H1473 C1481 0.950 . S
H1474 C1479 0.950 . S
H1475 C1480 0.949 . S
H1476 C1482 0.950 . S
H1477 C1483 0.950 . S
H1478 C1484 0.949 . S
C1479 H1474 0.950 . S
C1479 C1481 1.327 . S
C1479 C1485 1.429 . S
C1480 C1472 1.574 . S
C1480 H1475 0.949 . S
C1480 C1486 1.368 . S
C1481 C1465 1.349 . S
C1481 H1473 0.950 . S
C1481 C1479 1.327 . S
C1482 C1470 1.349 . S
C1482 H1476 0.950 . S
C1482 C1483 1.327 . S
C1483 H1477 0.950 . S
C1483 C1482 1.327 . S
C1483 C1487 1.429 . S
C1484 C1467 1.574 . S
C1484 H1478 0.949 . S
C1484 C1488 1.368 . S
C1485 C1466 1.429 . S
C1485 C1479 1.429 . S
C1485 C1486 1.523 . S
C1486 C1467 1.368 . S
C1486 C1480 1.368 . S
C1486 C1485 1.523 . S
C1487 C1471 1.429 . S
C1487 C1483 1.429 . S
C1487 C1488 1.523 . S
C1488 C1472 1.368 . S
C1488 C1484 1.368 . S
C1488 C1487 1.523 . S
H1489 C1464 0.950 . S
H1490 C1466 0.950 . S
H1491 C1467 0.949 . S
H1492 C1469 0.950 . S
H1493 C1471 0.950 . S
C1494 C1495 1.349 . S
C1494 C1496 1.327 . S
C1494 H1519 0.950 . S
C1495 C1494 1.349 . S
C1495 C1511 1.349 . S
C1496 C1494 1.327 . S
C1496 C1515 1.429 . S
C1496 H1520 0.950 . S
C1497 C1514 1.574 . S
C1497 C1516 1.368 . S
C1497 H1521 0.949 . S
H1498 C1502 0.949 . S
C1499 C1500 1.349 1_554 S
C1499 C1501 1.327 . S
C1499 H1522 0.950 1_554 S
C1500 C1499 1.349 1_556 S
C1500 C1512 1.349 1_556 S
C1501 C1499 1.327 . S
C1501 C1517 1.429 . S
C1501 H1523 0.950 . S
C1502 H1498 0.949 . S
C1502 C1510 1.574 . S
C1502 C1518 1.368 . S
H1503 C1511 0.950 . S
H1504 C1509 0.950 . S
H1505 C1510 0.949 . S
H1506 C1512 0.943 1_556 S
H1507 C1513 0.950 . S
H1508 C1514 0.949 . S
C1509 H1504 0.950 . S
C1509 C1511 1.327 . S
C1509 C1515 1.429 . S
C1510 C1502 1.574 . S
C1510 H1505 0.949 . S
C1510 C1516 1.368 . S
C1511 C1495 1.349 . S
C1511 H1503 0.950 . S
C1511 C1509 1.327 . S
C1512 C1500 1.349 1_554 S
C1512 H1506 0.943 1_554 S
C1512 C1513 1.327 . S
C1513 H1507 0.950 . S
C1513 C1512 1.327 . S
C1513 C1517 1.429 . S
C1514 C1497 1.574 . S
C1514 H1508 0.949 . S
C1514 C1518 1.368 . S
C1515 C1496 1.429 . S
C1515 C1509 1.429 . S
C1515 C1516 1.523 . S
C1516 C1497 1.368 . S
C1516 C1510 1.368 . S
C1516 C1515 1.523 . S
C1517 C1501 1.429 . S
C1517 C1513 1.429 . S
C1517 C1518 1.523 . S
C1518 C1502 1.368 . S
C1518 C1514 1.368 . S
C1518 C1517 1.523 . S
H1519 C1494 0.950 . S
H1520 C1496 0.950 . S
H1521 C1497 0.949 . S
H1522 C1499 0.950 1_556 S
H1523 C1501 0.950 . S
C1524 C1525 1.349 . S
C1524 C1526 1.327 . S
C1524 H1549 0.950 . S
C1525 C1524 1.349 . S
C1525 C1541 1.349 . S
C1526 C1524 1.327 . S
C1526 C1545 1.429 . S
C1526 H1550 0.950 . S
C1527 C1544 1.574 . S
C1527 C1546 1.368 . S
C1527 H1551 0.949 . S
H1528 C1532 0.949 . S
C1529 C1530 1.349 1_554 S
C1529 C1531 1.327 . S
C1529 H1552 0.950 . S
C1530 C1529 1.349 1_556 S
C1530 C1542 1.349 1_556 S
C1531 C1529 1.327 . S
C1531 C1547 1.429 . S
C1531 H1553 0.950 . S
C1532 H1528 0.949 . S
C1532 C1540 1.574 . S
C1532 C1548 1.368 . S
H1533 C1541 0.950 . S
H1534 C1539 0.950 . S
H1535 C1540 0.949 . S
H1536 C1542 0.950 1_556 S
H1537 C1543 0.950 . S
H1538 C1544 0.949 . S
C1539 H1534 0.950 . S
C1539 C1541 1.327 . S
C1539 C1545 1.429 . S
C1540 C1532 1.574 . S
C1540 H1535 0.949 . S
C1540 C1546 1.368 . S
C1541 C1525 1.349 . S
C1541 H1533 0.950 . S
C1541 C1539 1.327 . S
C1542 C1530 1.349 1_554 S
C1542 H1536 0.950 1_554 S
C1542 C1543 1.327 . S
C1543 H1537 0.950 . S
C1543 C1542 1.327 . S
C1543 C1547 1.429 . S
C1544 C1527 1.574 . S
C1544 H1538 0.949 . S
C1544 C1548 1.368 . S
C1545 C1526 1.429 . S
C1545 C1539 1.429 . S
C1545 C1546 1.523 . S
C1546 C1527 1.368 . S
C1546 C1540 1.368 . S
C1546 C1545 1.523 . S
C1547 C1531 1.429 . S
C1547 C1543 1.429 . S
C1547 C1548 1.523 . S
C1548 C1532 1.368 . S
C1548 C1544 1.368 . S
C1548 C1547 1.523 . S
H1549 C1524 0.950 . S
H1550 C1526 0.950 . S
H1551 C1527 0.949 . S
H1552 C1529 0.950 . S
H1553 C1531 0.950 . S
C1554 C1555 1.349 1_554 S
C1554 C1556 1.327 . S
C1554 H1579 0.950 1_554 S
C1555 C1554 1.349 1_556 S
C1555 C1571 1.349 1_556 S
C1556 C1554 1.327 . S
C1556 C1575 1.429 . S
C1556 H1580 0.950 . S
C1557 C1574 1.574 . S
C1557 C1576 1.368 . S
C1557 H1581 0.949 . S
H1558 C1562 0.949 . S
C1559 C1560 1.349 . S
C1559 C1561 1.327 . S
C1559 H1582 0.950 . S
C1560 C1559 1.349 . S
C1560 C1572 1.349 . S
C1561 C1559 1.327 . S
C1561 C1577 1.429 . S
C1561 H1583 0.950 . S
C1562 H1558 0.949 . S
C1562 C1570 1.574 . S
C1562 C1578 1.368 . S
H1563 C1571 0.950 1_556 S
H1564 C1569 0.950 . S
H1565 C1570 0.949 . S
H1566 C1572 0.950 . S
H1567 C1573 0.950 . S
H1568 C1574 0.949 . S
C1569 H1564 0.950 . S
C1569 C1571 1.327 . S
C1569 C1575 1.429 . S
C1570 C1562 1.574 . S
C1570 H1565 0.949 . S
C1570 C1576 1.368 . S
C1571 C1555 1.349 1_554 S
C1571 H1563 0.950 1_554 S
C1571 C1569 1.327 . S
C1572 C1560 1.349 . S
C1572 H1566 0.950 . S
C1572 C1573 1.327 . S
C1573 H1567 0.950 . S
C1573 C1572 1.327 . S
C1573 C1577 1.429 . S
C1574 C1557 1.574 . S
C1574 H1568 0.949 . S
C1574 C1578 1.368 . S
C1575 C1556 1.429 . S
C1575 C1569 1.429 . S
C1575 C1576 1.523 . S
C1576 C1557 1.368 . S
C1576 C1570 1.368 . S
C1576 C1575 1.523 . S
C1577 C1561 1.429 . S
C1577 C1573 1.429 . S
C1577 C1578 1.523 . S
C1578 C1562 1.368 . S
C1578 C1574 1.368 . S
C1578 C1577 1.523 . S
H1579 C1554 0.950 1_556 S
H1580 C1556 0.950 . S
H1581 C1557 0.949 . S
H1582 C1559 0.950 . S
H1583 C1561 0.950 . S
C1584 C1585 1.349 1_556 S
C1584 C1586 1.327 . S
C1584 H1609 0.951 1_556 S
C1585 C1584 1.349 1_554 S
C1585 C1601 1.349 1_554 S
C1586 C1584 1.327 . S
C1586 C1605 1.429 . S
C1586 H1610 0.950 . S
C1587 C1604 1.574 . S
C1587 C1606 1.368 . S
C1587 H1611 0.949 . S
H1588 C1592 0.949 . S
C1589 C1590 1.349 . S
C1589 C1591 1.327 . S
C1589 H1612 0.950 . S
C1590 C1589 1.349 . S
C1590 C1602 1.349 . S
C1591 C1589 1.327 . S
C1591 C1607 1.429 . S
C1591 H1613 0.950 . S
C1592 H1588 0.949 . S
C1592 C1600 1.574 . S
C1592 C1608 1.368 . S
H1593 C1601 0.950 1_554 S
H1594 C1599 0.950 . S
H1595 C1600 0.949 . S
H1596 C1602 0.950 . S
H1597 C1603 0.950 . S
H1598 C1604 0.949 . S
C1599 H1594 0.950 . S
C1599 C1601 1.327 . S
C1599 C1605 1.429 . S
C1600 C1592 1.574 . S
C1600 H1595 0.949 . S
C1600 C1606 1.368 . S
C1601 C1585 1.349 1_556 S
C1601 H1593 0.950 1_556 S
C1601 C1599 1.327 . S
C1602 C1590 1.349 . S
C1602 H1596 0.950 . S
C1602 C1603 1.327 . S
C1603 H1597 0.950 . S
C1603 C1602 1.327 . S
C1603 C1607 1.429 . S
C1604 C1587 1.574 . S
C1604 H1598 0.949 . S
C1604 C1608 1.368 . S
C1605 C1586 1.429 . S
C1605 C1599 1.429 . S
C1605 C1606 1.523 . S
C1606 C1587 1.368 . S
C1606 C1600 1.368 . S
C1606 C1605 1.523 . S
C1607 C1591 1.429 . S
C1607 C1603 1.429 . S
C1607 C1608 1.523 . S
C1608 C1592 1.368 . S
C1608 C1604 1.368 . S
C1608 C1607 1.523 . S
H1609 C1584 0.951 1_554 S
H1610 C1586 0.950 . S
H1611 C1587 0.949 . S
H1612 C1589 0.950 . S
H1613 C1591 0.950 . S
C1614 C1615 1.349 1_556 S
C1614 C1616 1.327 . S
C1614 H1639 0.950 1_556 S
C1615 C1614 1.349 1_554 S
C1615 C1631 1.349 1_554 S
C1616 C1614 1.327 . S
C1616 C1635 1.429 . S
C1616 H1640 0.950 . S
C1617 C1634 1.574 . S
C1617 C1636 1.368 . S
C1617 H1641 0.949 . S
H1618 C1622 0.949 . S
C1619 C1620 1.349 . S
C1619 C1621 1.327 . S
C1619 H1642 0.950 . S
C1620 C1619 1.349 . S
C1620 C1632 1.349 . S
C1621 C1619 1.327 . S
C1621 C1637 1.429 . S
C1621 H1643 0.950 . S
C1622 H1618 0.949 . S
C1622 C1630 1.574 . S
C1622 C1638 1.368 . S
H1623 C1631 0.950 . S
H1624 C1629 0.950 . S
H1625 C1630 0.949 . S
H1626 C1632 0.950 . S
H1627 C1633 0.950 . S
H1628 C1634 0.949 . S
C1629 H1624 0.950 . S
C1629 C1631 1.327 . S
C1629 C1635 1.429 . S
C1630 C1622 1.574 . S
C1630 H1625 0.949 . S
C1630 C1636 1.368 . S
C1631 C1615 1.349 1_556 S
C1631 H1623 0.950 . S
C1631 C1629 1.327 . S
C1632 C1620 1.349 . S
C1632 H1626 0.950 . S
C1632 C1633 1.327 . S
C1633 H1627 0.950 . S
C1633 C1632 1.327 . S
C1633 C1637 1.429 . S
C1634 C1617 1.574 . S
C1634 H1628 0.949 . S
C1634 C1638 1.368 . S
C1635 C1616 1.429 . S
C1635 C1629 1.429 . S
C1635 C1636 1.523 . S
C1636 C1617 1.368 . S
C1636 C1630 1.368 . S
C1636 C1635 1.523 . S
C1637 C1621 1.429 . S
C1637 C1633 1.429 . S
C1637 C1638 1.523 . S
C1638 C1622 1.368 . S
C1638 C1634 1.368 . S
C1638 C1637 1.523 . S
H1639 C1614 0.950 1_554 S
H1640 C1616 0.950 . S
H1641 C1617 0.949 . S
H1642 C1619 0.950 . S
H1643 C1621 0.950 . S
C1644 C1645 1.349 1_556 S
C1644 C1646 1.327 . S
C1644 H1669 0.950 . S
C1645 C1644 1.349 1_554 S
C1645 C1661 1.349 1_554 S
C1646 C1644 1.327 . S
C1646 C1665 1.429 . S
C1646 H1670 0.950 . S
C1647 C1664 1.574 . S
C1647 C1666 1.368 . S
C1647 H1671 0.949 . S
H1648 C1652 0.949 . S
C1649 C1650 1.349 . S
C1649 C1651 1.327 . S
C1649 H1672 0.950 . S
C1650 C1649 1.349 . S
C1650 C1662 1.349 . S
C1651 C1649 1.327 . S
C1651 C1667 1.429 . S
C1651 H1673 0.950 . S
C1652 H1648 0.949 . S
C1652 C1660 1.574 . S
C1652 C1668 1.368 . S
H1653 C1661 0.950 1_554 S
H1654 C1659 0.950 . S
H1655 C1660 0.949 . S
H1656 C1662 0.950 . S
H1657 C1663 0.950 . S
H1658 C1664 0.949 . S
C1659 H1654 0.950 . S
C1659 C1661 1.327 . S
C1659 C1665 1.429 . S
C1660 C1652 1.574 . S
C1660 H1655 0.949 . S
C1660 C1666 1.368 . S
C1661 C1645 1.349 1_556 S
C1661 H1653 0.950 1_556 S
C1661 C1659 1.327 . S
C1662 C1650 1.349 . S
C1662 H1656 0.950 . S
C1662 C1663 1.327 . S
C1663 H1657 0.950 . S
C1663 C1662 1.327 . S
C1663 C1667 1.429 . S
C1664 C1647 1.574 . S
C1664 H1658 0.949 . S
C1664 C1668 1.368 . S
C1665 C1646 1.429 . S
C1665 C1659 1.429 . S
C1665 C1666 1.523 . S
C1666 C1647 1.368 . S
C1666 C1660 1.368 . S
C1666 C1665 1.523 . S
C1667 C1651 1.429 . S
C1667 C1663 1.429 . S
C1667 C1668 1.523 . S
C1668 C1652 1.368 . S
C1668 C1664 1.368 . S
C1668 C1667 1.523 . S
H1669 C1644 0.950 . S
H1670 C1646 0.950 . S
H1671 C1647 0.949 . S
H1672 C1649 0.950 . S
H1673 C1651 0.950 . S
C1674 C1675 1.349 . S
C1674 C1676 1.327 . S
C1674 H1699 0.950 . S
C1675 C1674 1.349 . S
C1675 C1691 1.349 . S
C1676 C1674 1.327 . S
C1676 C1695 1.429 . S
C1676 H1700 0.950 . S
C1677 C1694 1.574 . S
C1677 C1696 1.368 . S
C1677 H1701 0.949 . S
H1678 C1682 0.949 . S
C1679 C1680 1.349 . S
C1679 C1681 1.327 . S
C1679 H1702 0.950 . S
C1680 C1679 1.349 . S
C1680 C1692 1.349 . S
C1681 C1679 1.327 . S
C1681 C1697 1.429 . S
C1681 H1703 0.950 . S
C1682 H1678 0.949 . S
C1682 C1690 1.574 . S
C1682 C1698 1.368 . S
H1683 C1691 0.950 . S
H1684 C1689 0.950 . S
H1685 C1690 0.949 . S
H1686 C1692 0.950 . S
H1687 C1693 0.950 . S
H1688 C1694 0.949 . S
C1689 H1684 0.950 . S
C1689 C1691 1.327 . S
C1689 C1695 1.429 . S
C1690 C1682 1.574 . S
C1690 H1685 0.949 . S
C1690 C1696 1.368 . S
C1691 C1675 1.349 . S
C1691 H1683 0.950 . S
C1691 C1689 1.327 . S
C1692 C1680 1.349 . S
C1692 H1686 0.950 . S
C1692 C1693 1.327 . S
C1693 H1687 0.950 . S
C1693 C1692 1.327 . S
C1693 C1697 1.429 . S
C1694 C1677 1.574 . S
C1694 H1688 0.949 . S
C1694 C1698 1.368 . S
C1695 C1676 1.429 . S
C1695 C1689 1.429 . S
C1695 C1696 1.523 . S
C1696 C1677 1.368 . S
C1696 C1690 1.368 . S
C1696 C1695 1.523 . S
C1697 C1681 1.429 . S
C1697 C1693 1.429 . S
C1697 C1698 1.523 . S
C1698 C1682 1.368 . S
C1698 C1694 1.368 . S
C1698 C1697 1.523 . S
H1699 C1674 0.950 . S
H1700 C1676 0.950 . S
H1701 C1677 0.949 . S
H1702 C1679 0.950 . S
H1703 C1681 0.950 . S
C1704 C1705 1.349 . S
C1704 C1706 1.327 . S
C1704 H1729 0.950 . S
C1705 C1704 1.349 . S
C1705 C1721 1.349 . S
C1706 C1704 1.327 . S
C1706 C1725 1.429 . S
C1706 H1730 0.950 . S
C1707 C1724 1.574 . S
C1707 C1726 1.368 . S
C1707 H1731 0.949 . S
H1708 C1712 0.949 . S
C1709 C1710 1.349 . S
C1709 C1711 1.327 . S
C1709 H1732 0.950 . S
C1710 C1709 1.349 . S
C1710 C1722 1.349 . S
C1711 C1709 1.327 . S
C1711 C1727 1.429 . S
C1711 H1733 0.950 . S
C1712 H1708 0.949 . S
C1712 C1720 1.574 . S
C1712 C1728 1.368 . S
H1713 C1721 0.950 . S
H1714 C1719 0.950 . S
H1715 C1720 0.949 . S
H1716 C1722 0.950 . S
H1717 C1723 0.950 . S
H1718 C1724 0.949 . S
C1719 H1714 0.950 . S
C1719 C1721 1.327 . S
C1719 C1725 1.429 . S
C1720 C1712 1.574 . S
C1720 H1715 0.949 . S
C1720 C1726 1.368 . S
C1721 C1705 1.349 . S
C1721 H1713 0.950 . S
C1721 C1719 1.327 . S
C1722 C1710 1.349 . S
C1722 H1716 0.950 . S
C1722 C1723 1.327 . S
C1723 H1717 0.950 . S
C1723 C1722 1.327 . S
C1723 C1727 1.429 . S
C1724 C1707 1.574 . S
C1724 H1718 0.949 . S
C1724 C1728 1.368 . S
C1725 C1706 1.429 . S
C1725 C1719 1.429 . S
C1725 C1726 1.523 . S
C1726 C1707 1.368 . S
C1726 C1720 1.368 . S
C1726 C1725 1.523 . S
C1727 C1711 1.429 . S
C1727 C1723 1.429 . S
C1727 C1728 1.523 . S
C1728 C1712 1.368 . S
C1728 C1724 1.368 . S
C1728 C1727 1.523 . S
H1729 C1704 0.950 . S
H1730 C1706 0.950 . S
H1731 C1707 0.949 . S
H1732 C1709 0.950 . S
H1733 C1711 0.950 . S
C1734 C1735 1.349 . S
C1734 C1736 1.327 . S
C1734 H1759 0.950 . S
C1735 C1734 1.349 . S
C1735 C1751 1.349 . S
C1736 C1734 1.327 . S
C1736 C1755 1.429 . S
C1736 H1760 0.950 . S
C1737 C1754 1.574 . S
C1737 C1756 1.368 . S
C1737 H1761 0.949 . S
H1738 C1742 0.949 . S
C1739 C1740 1.349 . S
C1739 C1741 1.327 . S
C1739 H1762 0.950 . S
C1740 C1739 1.349 . S
C1740 C1752 1.349 . S
C1741 C1739 1.327 . S
C1741 C1757 1.429 . S
C1741 H1763 0.950 . S
C1742 H1738 0.949 . S
C1742 C1750 1.574 . S
C1742 C1758 1.368 . S
H1743 C1751 0.950 . S
H1744 C1749 0.950 . S
H1745 C1750 0.949 . S
H1746 C1752 0.950 . S
H1747 C1753 0.950 . S
H1748 C1754 0.949 . S
C1749 H1744 0.950 . S
C1749 C1751 1.327 . S
C1749 C1755 1.429 . S
C1750 C1742 1.574 . S
C1750 H1745 0.949 . S
C1750 C1756 1.368 . S
C1751 C1735 1.349 . S
C1751 H1743 0.950 . S
C1751 C1749 1.327 . S
C1752 C1740 1.349 . S
C1752 H1746 0.950 . S
C1752 C1753 1.327 . S
C1753 H1747 0.950 . S
C1753 C1752 1.327 . S
C1753 C1757 1.429 . S
C1754 C1737 1.574 . S
C1754 H1748 0.949 . S
C1754 C1758 1.368 . S
C1755 C1736 1.429 . S
C1755 C1749 1.429 . S
C1755 C1756 1.523 . S
C1756 C1737 1.368 . S
C1756 C1750 1.368 . S
C1756 C1755 1.523 . S
C1757 C1741 1.429 . S
C1757 C1753 1.429 . S
C1757 C1758 1.523 . S
C1758 C1742 1.368 . S
C1758 C1754 1.368 . S
C1758 C1757 1.523 . S
H1759 C1734 0.950 . S
H1760 C1736 0.950 . S
H1761 C1737 0.949 . S
H1762 C1739 0.950 . S
H1763 C1741 0.950 . S
C1764 C1765 1.349 . S
C1764 C1766 1.327 . S
C1764 H1789 0.950 . S
C1765 C1764 1.349 . S
C1765 C1781 1.349 . S
C1766 C1764 1.327 . S
C1766 C1785 1.429 . S
C1766 H1790 0.950 . S
C1767 C1784 1.574 . S
C1767 C1786 1.368 . S
C1767 H1791 0.949 . S
H1768 C1772 0.949 . S
C1769 C1770 1.349 . S
C1769 C1771 1.327 . S
C1769 H1792 0.950 . S
C1770 C1769 1.349 . S
C1770 C1782 1.349 . S
C1771 C1769 1.327 . S
C1771 C1787 1.429 . S
C1771 H1793 0.950 . S
C1772 H1768 0.949 . S
C1772 C1780 1.574 . S
C1772 C1788 1.368 . S
H1773 C1781 0.950 . S
H1774 C1779 0.950 . S
H1775 C1780 0.949 . S
H1776 C1782 0.950 . S
H1777 C1783 0.950 . S
H1778 C1784 0.949 . S
C1779 H1774 0.950 . S
C1779 C1781 1.327 . S
C1779 C1785 1.429 . S
C1780 C1772 1.574 . S
C1780 H1775 0.949 . S
C1780 C1786 1.368 . S
C1781 C1765 1.349 . S
C1781 H1773 0.950 . S
C1781 C1779 1.327 . S
C1782 C1770 1.349 . S
C1782 H1776 0.950 . S
C1782 C1783 1.327 . S
C1783 H1777 0.950 . S
C1783 C1782 1.327 . S
C1783 C1787 1.429 . S
C1784 C1767 1.574 . S
C1784 H1778 0.949 . S
C1784 C1788 1.368 . S
C1785 C1766 1.429 . S
C1785 C1779 1.429 . S
C1785 C1786 1.523 . S
C1786 C1767 1.368 . S
C1786 C1780 1.368 . S
C1786 C1785 1.523 . S
C1787 C1771 1.429 . S
C1787 C1783 1.429 . S
C1787 C1788 1.523 . S
C1788 C1772 1.368 . S
C1788 C1784 1.368 . S
C1788 C1787 1.523 . S
H1789 C1764 0.950 . S
H1790 C1766 0.950 . S
H1791 C1767 0.949 . S
H1792 C1769 0.950 . S
H1793 C1771 0.950 . S
C1794 C1795 1.349 . S
C1794 C1796 1.327 . S
C1794 H1819 0.950 . S
C1795 C1794 1.349 . S
C1795 C1811 1.349 . S
C1796 C1794 1.327 . S
C1796 C1815 1.429 . S
C1796 H1820 0.950 . S
C1797 C1814 1.574 . S
C1797 C1816 1.368 . S
C1797 H1821 0.949 . S
H1798 C1802 0.949 . S
C1799 C1800 1.349 . S
C1799 C1801 1.327 . S
C1799 H1822 0.950 . S
C1800 C1799 1.349 . S
C1800 C1812 1.349 1_545 S
C1801 C1799 1.327 . S
C1801 C1817 1.429 1_545 S
C1801 H1823 0.950 . S
C1802 H1798 0.949 . S
C1802 C1810 1.574 . S
C1802 C1818 1.368 . S
H1803 C1811 0.950 . S
H1804 C1809 0.950 . S
H1805 C1810 0.949 . S
H1806 C1812 0.950 . S
H1807 C1813 0.950 . S
H1808 C1814 0.949 . S
C1809 H1804 0.950 . S
C1809 C1811 1.327 . S
C1809 C1815 1.429 . S
C1810 C1802 1.574 . S
C1810 H1805 0.949 . S
C1810 C1816 1.368 . S
C1811 C1795 1.349 . S
C1811 H1803 0.950 . S
C1811 C1809 1.327 . S
C1812 C1800 1.349 1_565 S
C1812 H1806 0.950 . S
C1812 C1813 1.327 . S
C1813 H1807 0.950 . S
C1813 C1812 1.327 . S
C1813 C1817 1.429 . S
C1814 C1797 1.574 . S
C1814 H1808 0.949 . S
C1814 C1818 1.368 . S
C1815 C1796 1.429 . S
C1815 C1809 1.429 . S
C1815 C1816 1.523 . S
C1816 C1797 1.368 . S
C1816 C1810 1.368 . S
C1816 C1815 1.523 . S
C1817 C1801 1.429 1_565 S
C1817 C1813 1.429 . S
C1817 C1818 1.523 . S
C1818 C1802 1.368 . S
C1818 C1814 1.368 . S
C1818 C1817 1.523 . S
H1819 C1794 0.950 . S
H1820 C1796 0.950 . S
H1821 C1797 0.949 . S
H1822 C1799 0.950 . S
H1823 C1801 0.950 . S
C1824 C1825 1.349 . S
C1824 C1826 1.327 . S
C1824 H1849 0.950 . S
C1825 C1824 1.349 . S
C1825 C1841 1.349 1_655 S
C1826 C1824 1.327 . S
C1826 C1845 1.429 1_655 S
C1826 H1850 0.950 . S
C1827 C1844 1.574 . S
C1827 C1846 1.368 . S
C1827 H1851 0.949 . S
H1828 C1832 0.949 . S
C1829 C1830 1.349 . S
C1829 C1831 1.327 . S
C1829 H1852 0.950 . S
C1830 C1829 1.349 . S
C1830 C1842 1.349 . S
C1831 C1829 1.327 . S
C1831 C1847 1.429 . S
C1831 H1853 0.950 . S
C1832 H1828 0.949 . S
C1832 C1840 1.574 . S
C1832 C1848 1.368 . S
H1833 C1841 0.950 . S
H1834 C1839 0.950 . S
H1835 C1840 0.949 . S
H1836 C1842 0.950 . S
H1837 C1843 0.950 . S
H1838 C1844 0.949 . S
C1839 H1834 0.950 . S
C1839 C1841 1.327 . S
C1839 C1845 1.429 . S
C1840 C1832 1.574 . S
C1840 H1835 0.949 . S
C1840 C1846 1.368 . S
C1841 C1825 1.349 1_455 S
C1841 H1833 0.950 . S
C1841 C1839 1.327 . S
C1842 C1830 1.349 . S
C1842 H1836 0.950 . S
C1842 C1843 1.327 . S
C1843 H1837 0.950 . S
C1843 C1842 1.327 . S
C1843 C1847 1.429 . S
C1844 C1827 1.574 . S
C1844 H1838 0.949 . S
C1844 C1848 1.368 . S
C1845 C1826 1.429 1_455 S
C1845 C1839 1.429 . S
C1845 C1846 1.523 . S
C1846 C1827 1.368 . S
C1846 C1840 1.368 . S
C1846 C1845 1.523 . S
C1847 C1831 1.429 . S
C1847 C1843 1.429 . S
C1847 C1848 1.523 . S
C1848 C1832 1.368 . S
C1848 C1844 1.368 . S
C1848 C1847 1.523 . S
H1849 C1824 0.950 . S
H1850 C1826 0.950 . S
H1851 C1827 0.949 . S
H1852 C1829 0.950 . S
H1853 C1831 0.950 . S
C1854 C1855 1.349 . S
C1854 C1856 1.327 . S
C1854 H1879 0.950 . S
C1855 C1854 1.349 . S
C1855 C1871 1.349 . S
C1856 C1854 1.327 . S
C1856 C1875 1.429 . S
C1856 H1880 0.950 . S
C1857 C1874 1.574 . S
C1857 C1876 1.368 . S
C1857 H1881 0.949 . S
H1858 C1862 0.949 . S
C1859 C1860 1.349 . S
C1859 C1861 1.327 . S
C1859 H1882 0.950 . S
C1860 C1859 1.349 . S
C1860 C1872 1.349 . S
C1861 C1859 1.327 . S
C1861 C1877 1.429 . S
C1861 H1883 0.950 . S
C1862 H1858 0.949 . S
C1862 C1870 1.574 . S
C1862 C1878 1.368 . S
H1863 C1871 0.950 . S
H1864 C1869 0.950 . S
H1865 C1870 0.949 . S
H1866 C1872 0.950 . S
H1867 C1873 0.950 . S
H1868 C1874 0.949 . S
C1869 H1864 0.950 . S
C1869 C1871 1.327 . S
C1869 C1875 1.429 . S
C1870 C1862 1.574 . S
C1870 H1865 0.949 . S
C1870 C1876 1.368 . S
C1871 C1855 1.349 . S
C1871 H1863 0.950 . S
C1871 C1869 1.327 . S
C1872 C1860 1.349 . S
C1872 H1866 0.950 . S
C1872 C1873 1.327 . S
C1873 H1867 0.950 . S
C1873 C1872 1.327 . S
C1873 C1877 1.429 . S
C1874 C1857 1.574 . S
C1874 H1868 0.949 . S
C1874 C1878 1.368 . S
C1875 C1856 1.429 . S
C1875 C1869 1.429 . S
C1875 C1876 1.523 . S
C1876 C1857 1.368 . S
C1876 C1870 1.368 . S
C1876 C1875 1.523 . S
C1877 C1861 1.429 . S
C1877 C1873 1.429 . S
C1877 C1878 1.523 . S
C1878 C1862 1.368 . S
C1878 C1874 1.368 . S
C1878 C1877 1.523 . S
H1879 C1854 0.950 . S
H1880 C1856 0.950 . S
H1881 C1857 0.949 . S
H1882 C1859 0.950 . S
H1883 C1861 0.950 . S
C1884 C1885 1.349 . S
C1884 C1886 1.327 . S
C1884 H1909 0.950 . S
C1885 C1884 1.349 . S
C1885 C1901 1.349 1_565 S
C1886 C1884 1.327 . S
C1886 C1905 1.429 1_565 S
C1886 H1910 0.950 . S
C1887 C1904 1.574 . S
C1887 C1906 1.368 . S
C1887 H1911 0.949 . S
H1888 C1892 0.949 . S
C1889 C1890 1.349 . S
C1889 C1891 1.327 . S
C1889 H1912 0.950 . S
C1890 C1889 1.349 . S
C1890 C1902 1.349 . S
C1891 C1889 1.327 . S
C1891 C1907 1.429 . S
C1891 H1913 0.950 . S
C1892 H1888 0.949 . S
C1892 C1900 1.574 . S
C1892 C1908 1.368 . S
H1893 C1901 0.950 . S
H1894 C1899 0.950 . S
H1895 C1900 0.936 1_565 S
H1896 C1902 0.950 . S
H1897 C1903 0.950 . S
H1898 C1904 0.949 . S
C1899 H1894 0.950 . S
C1899 C1901 1.327 . S
C1899 C1905 1.429 . S
C1900 C1892 1.574 . S
C1900 H1895 0.936 1_545 S
C1900 C1906 1.368 . S
C1901 C1885 1.349 1_545 S
C1901 H1893 0.950 . S
C1901 C1899 1.327 . S
C1902 C1890 1.349 . S
C1902 H1896 0.950 . S
C1902 C1903 1.327 . S
C1903 H1897 0.950 . S
C1903 C1902 1.327 . S
C1903 C1907 1.429 . S
C1904 C1887 1.574 . S
C1904 H1898 0.949 . S
C1904 C1908 1.368 . S
C1905 C1886 1.429 1_545 S
C1905 C1899 1.429 . S
C1905 C1906 1.523 . S
C1906 C1887 1.368 . S
C1906 C1900 1.368 . S
C1906 C1905 1.523 . S
C1907 C1891 1.429 . S
C1907 C1903 1.429 . S
C1907 C1908 1.523 . S
C1908 C1892 1.368 . S
C1908 C1904 1.368 . S
C1908 C1907 1.523 . S
H1909 C1884 0.950 . S
H1910 C1886 0.950 . S
H1911 C1887 0.949 . S
H1912 C1889 0.950 . S
H1913 C1891 0.950 . S
C1914 C1915 1.349 . S
C1914 C1916 1.327 . S
C1914 H1939 0.950 . S
C1915 C1914 1.349 . S
C1915 C1931 1.349 . S
C1916 C1914 1.327 . S
C1916 C1935 1.429 . S
C1916 H1940 0.950 . S
C1917 C1934 1.574 . S
C1917 C1936 1.368 . S
C1917 H1941 0.949 . S
H1918 C1922 0.949 . S
C1919 C1920 1.349 1_655 S
C1919 C1921 1.328 . S
C1919 H1942 0.951 1_655 S
C1920 C1919 1.349 1_455 S
C1920 C1932 1.349 . S
C1921 C1919 1.328 . S
C1921 C1937 1.429 . S
C1921 H1943 0.950 . S
C1922 H1918 0.949 . S
C1922 C1930 1.574 . S
C1922 C1938 1.368 . S
H1923 C1931 0.950 . S
H1924 C1929 0.950 . S
H1925 C1930 0.949 . S
H1926 C1932 0.950 . S
H1927 C1933 0.950 . S
H1928 C1934 0.949 . S
C1929 H1924 0.950 . S
C1929 C1931 1.327 . S
C1929 C1935 1.429 . S
C1930 C1922 1.574 . S
C1930 H1925 0.949 . S
C1930 C1936 1.368 . S
C1931 C1915 1.349 . S
C1931 H1923 0.950 . S
C1931 C1929 1.327 . S
C1932 C1920 1.349 . S
C1932 H1926 0.950 . S
C1932 C1933 1.327 1_455 S
C1933 H1927 0.950 . S
C1933 C1932 1.327 1_655 S
C1933 C1937 1.429 . S
C1934 C1917 1.574 . S
C1934 H1928 0.949 . S
C1934 C1938 1.368 . S
C1935 C1916 1.429 . S
C1935 C1929 1.429 . S
C1935 C1936 1.523 . S
C1936 C1917 1.368 . S
C1936 C1930 1.368 . S
C1936 C1935 1.523 . S
C1937 C1921 1.429 . S
C1937 C1933 1.429 . S
C1937 C1938 1.523 . S
C1938 C1922 1.368 . S
C1938 C1934 1.368 . S
C1938 C1937 1.523 . S
H1939 C1914 0.950 . S
H1940 C1916 0.950 . S
H1941 C1917 0.949 . S
H1942 C1919 0.951 1_455 S
H1943 C1921 0.950 . S
C1944 C1945 1.349 . S
C1944 C1946 1.327 . S
C1944 H1969 0.950 . S
C1945 C1944 1.349 . S
C1945 C1961 1.349 . S
C1946 C1944 1.327 . S
C1946 C1965 1.429 . S
C1946 H1970 0.950 . S
C1947 C1964 1.574 . S
C1947 C1966 1.368 . S
C1947 H1971 0.949 . S
H1948 C1952 0.949 . S
C1949 C1950 1.349 . S
C1949 C1951 1.327 . S
C1949 H1972 0.950 . S
C1950 C1949 1.349 . S
C1950 C1962 1.349 . S
C1951 C1949 1.327 . S
C1951 C1967 1.429 . S
C1951 H1973 0.950 . S
C1952 H1948 0.949 . S
C1952 C1960 1.574 . S
C1952 C1968 1.368 . S
H1953 C1961 0.950 . S
H1954 C1959 0.950 . S
H1955 C1960 0.949 . S
H1956 C1962 0.950 . S
H1957 C1963 0.950 . S
H1958 C1964 0.949 . S
C1959 H1954 0.950 . S
C1959 C1961 1.327 . S
C1959 C1965 1.429 . S
C1960 C1952 1.574 . S
C1960 H1955 0.949 . S
C1960 C1966 1.368 . S
C1961 C1945 1.349 . S
C1961 H1953 0.950 . S
C1961 C1959 1.327 . S
C1962 C1950 1.349 . S
C1962 H1956 0.950 . S
C1962 C1963 1.327 . S
C1963 H1957 0.950 . S
C1963 C1962 1.327 . S
C1963 C1967 1.429 . S
C1964 C1947 1.574 . S
C1964 H1958 0.949 . S
C1964 C1968 1.368 . S
C1965 C1946 1.429 . S
C1965 C1959 1.429 . S
C1965 C1966 1.523 . S
C1966 C1947 1.368 . S
C1966 C1960 1.368 . S
C1966 C1965 1.523 . S
C1967 C1951 1.429 . S
C1967 C1963 1.429 . S
C1967 C1968 1.523 . S
C1968 C1952 1.368 . S
C1968 C1964 1.368 . S
C1968 C1967 1.523 . S
H1969 C1944 0.950 . S
H1970 C1946 0.950 . S
H1971 C1947 0.949 . S
H1972 C1949 0.950 . S
H1973 C1951 0.950 . S
C1974 C1975 1.349 . S
C1974 C1976 1.327 . S
C1974 H1999 0.950 . S
C1975 C1974 1.349 . S
C1975 C1991 1.349 . S
C1976 C1974 1.327 . S
C1976 C1995 1.429 . S
C1976 H2000 0.950 . S
C1977 C1994 1.574 . S
C1977 C1996 1.368 . S
C1977 H2001 0.949 . S
H1978 C1982 0.949 . S
C1979 C1980 1.349 . S
C1979 C1981 1.327 1_565 S
C1979 H2002 0.950 . S
C1980 C1979 1.349 . S
C1980 C1992 1.349 1_565 S
C1981 C1979 1.327 1_545 S
C1981 C1997 1.429 . S
C1981 H2003 0.950 . S
C1982 H1978 0.949 . S
C1982 C1990 1.574 . S
C1982 C1998 1.368 . S
H1983 C1991 0.950 . S
H1984 C1989 0.950 . S
H1985 C1990 0.949 . S
H1986 C1992 0.950 . S
H1987 C1993 0.950 . S
H1988 C1994 0.949 . S
C1989 H1984 0.950 . S
C1989 C1991 1.327 . S
C1989 C1995 1.429 . S
C1990 C1982 1.574 . S
C1990 H1985 0.949 . S
C1990 C1996 1.368 . S
C1991 C1975 1.349 . S
C1991 H1983 0.950 . S
C1991 C1989 1.327 . S
C1992 C1980 1.349 1_545 S
C1992 H1986 0.950 . S
C1992 C1993 1.327 . S
C1993 H1987 0.950 . S
C1993 C1992 1.327 . S
C1993 C1997 1.429 . S
C1994 C1977 1.574 . S
C1994 H1988 0.949 . S
C1994 C1998 1.368 . S
C1995 C1976 1.429 . S
C1995 C1989 1.429 . S
C1995 C1996 1.523 . S
C1996 C1977 1.368 . S
C1996 C1990 1.368 . S
C1996 C1995 1.523 . S
C1997 C1981 1.429 . S
C1997 C1993 1.429 . S
C1997 C1998 1.523 . S
C1998 C1982 1.368 . S
C1998 C1994 1.368 . S
C1998 C1997 1.523 . S
H1999 C1974 0.950 . S
H2000 C1976 0.950 . S
H2001 C1977 0.949 . S
H2002 C1979 0.950 . S
H2003 C1981 0.950 . S
C2004 C2005 1.349 . S
C2004 C2006 1.327 . S
C2004 H2029 0.950 . S
C2005 C2004 1.349 . S
C2005 C2021 1.349 . S
C2006 C2004 1.327 . S
C2006 C2025 1.429 . S
C2006 H2030 0.950 . S
C2007 C2024 1.574 . S
C2007 C2026 1.368 . S
C2007 H2031 0.949 . S
H2008 C2012 0.949 . S
C2009 C2010 1.349 . S
C2009 C2011 1.327 . S
C2009 H2032 0.950 . S
C2010 C2009 1.349 . S
C2010 C2022 1.349 1_455 S
C2011 C2009 1.327 . S
C2011 C2027 1.429 1_455 S
C2011 H2033 0.950 . S
C2012 H2008 0.949 . S
C2012 C2020 1.574 . S
C2012 C2028 1.368 . S
H2013 C2021 0.950 . S
H2014 C2019 0.950 . S
H2015 C2020 0.949 . S
H2016 C2022 0.950 . S
H2017 C2023 0.950 . S
H2018 C2024 0.949 . S
C2019 H2014 0.950 . S
C2019 C2021 1.327 . S
C2019 C2025 1.429 . S
C2020 C2012 1.574 . S
C2020 H2015 0.949 . S
C2020 C2026 1.368 . S
C2021 C2005 1.349 . S
C2021 H2013 0.950 . S
C2021 C2019 1.327 . S
C2022 C2010 1.349 1_655 S
C2022 H2016 0.950 . S
C2022 C2023 1.327 . S
C2023 H2017 0.950 . S
C2023 C2022 1.327 . S
C2023 C2027 1.429 . S
C2024 C2007 1.574 . S
C2024 H2018 0.949 . S
C2024 C2028 1.368 . S
C2025 C2006 1.429 . S
C2025 C2019 1.429 . S
C2025 C2026 1.523 . S
C2026 C2007 1.368 . S
C2026 C2020 1.368 . S
C2026 C2025 1.523 . S
C2027 C2011 1.429 1_655 S
C2027 C2023 1.429 . S
C2027 C2028 1.523 . S
C2028 C2012 1.368 . S
C2028 C2024 1.368 . S
C2028 C2027 1.523 . S
H2029 C2004 0.950 . S
H2030 C2006 0.950 . S
H2031 C2007 0.949 . S
H2032 C2009 0.950 . S
H2033 C2011 0.950 . S
C2034 C2035 1.349 . S
C2034 C2036 1.327 . S
C2034 H2059 0.950 . S
C2035 C2034 1.349 . S
C2035 C2051 1.349 . S
C2036 C2034 1.327 . S
C2036 C2055 1.429 . S
C2036 H2060 0.950 . S
C2037 C2054 1.574 . S
C2037 C2056 1.368 . S
C2037 H2061 0.949 . S
H2038 C2042 0.949 . S
C2039 C2040 1.349 . S
C2039 C2041 1.327 . S
C2039 H2062 0.950 . S
C2040 C2039 1.349 . S
C2040 C2052 1.349 . S
C2041 C2039 1.327 . S
C2041 C2057 1.429 . S
C2041 H2063 0.950 . S
C2042 H2038 0.949 . S
C2042 C2050 1.574 . S
C2042 C2058 1.368 . S
H2043 C2051 0.950 . S
H2044 C2049 0.950 . S
H2045 C2050 0.949 . S
H2046 C2052 0.950 . S
H2047 C2053 0.950 . S
H2048 C2054 0.949 . S
C2049 H2044 0.950 . S
C2049 C2051 1.327 . S
C2049 C2055 1.429 . S
C2050 C2042 1.574 . S
C2050 H2045 0.949 . S
C2050 C2056 1.368 . S
C2051 C2035 1.349 . S
C2051 H2043 0.950 . S
C2051 C2049 1.327 . S
C2052 C2040 1.349 . S
C2052 H2046 0.950 . S
C2052 C2053 1.327 . S
C2053 H2047 0.950 . S
C2053 C2052 1.327 . S
C2053 C2057 1.429 . S
C2054 C2037 1.574 . S
C2054 H2048 0.949 . S
C2054 C2058 1.368 . S
C2055 C2036 1.429 . S
C2055 C2049 1.429 . S
C2055 C2056 1.523 . S
C2056 C2037 1.368 . S
C2056 C2050 1.368 . S
C2056 C2055 1.523 . S
C2057 C2041 1.429 . S
C2057 C2053 1.429 . S
C2057 C2058 1.523 . S
C2058 C2042 1.368 . S
C2058 C2054 1.368 . S
C2058 C2057 1.523 . S
H2059 C2034 0.950 . S
H2060 C2036 0.950 . S
H2061 C2037 0.949 . S
H2062 C2039 0.950 . S
H2063 C2041 0.950 . S
C2064 C2065 1.349 . S
C2064 C2066 1.327 . S
C2064 H2089 0.950 . S
C2065 C2064 1.349 . S
C2065 C2081 1.349 . S
C2066 C2064 1.327 . S
C2066 C2085 1.429 . S
C2066 H2090 0.950 . S
C2067 C2084 1.574 . S
C2067 C2086 1.368 . S
C2067 H2091 0.949 . S
H2068 C2072 0.949 . S
C2069 C2070 1.349 . S
C2069 C2071 1.327 . S
C2069 H2092 0.950 . S
C2070 C2069 1.349 . S
C2070 C2082 1.349 1_545 S
C2071 C2069 1.327 . S
C2071 C2087 1.429 1_545 S
C2071 H2093 0.950 . S
C2072 H2068 0.949 . S
C2072 C2080 1.574 . S
C2072 C2088 1.368 . S
H2073 C2081 0.950 . S
H2074 C2079 0.950 . S
H2075 C2080 0.949 . S
H2076 C2082 0.950 . S
H2077 C2083 0.950 . S
H2078 C2084 0.937 1_545 S
C2079 H2074 0.950 . S
C2079 C2081 1.327 . S
C2079 C2085 1.429 . S
C2080 C2072 1.574 . S
C2080 H2075 0.949 . S
C2080 C2086 1.368 . S
C2081 C2065 1.349 . S
C2081 H2073 0.950 . S
C2081 C2079 1.327 . S
C2082 C2070 1.349 1_565 S
C2082 H2076 0.950 . S
C2082 C2083 1.327 . S
C2083 H2077 0.950 . S
C2083 C2082 1.327 . S
C2083 C2087 1.429 . S
C2084 C2067 1.574 . S
C2084 H2078 0.937 1_565 S
C2084 C2088 1.368 . S
C2085 C2066 1.429 . S
C2085 C2079 1.429 . S
C2085 C2086 1.523 . S
C2086 C2067 1.368 . S
C2086 C2080 1.368 . S
C2086 C2085 1.523 . S
C2087 C2071 1.429 1_565 S
C2087 C2083 1.429 . S
C2087 C2088 1.523 . S
C2088 C2072 1.368 . S
C2088 C2084 1.368 . S
C2088 C2087 1.523 . S
H2089 C2064 0.950 . S
H2090 C2066 0.950 . S
H2091 C2067 0.949 . S
H2092 C2069 0.950 . S
H2093 C2071 0.950 . S
C2094 C2095 1.349 1_455 S
C2094 C2096 1.327 . S
C2094 H2119 0.950 . S
C2095 C2094 1.349 1_655 S
C2095 C2111 1.349 . S
C2096 C2094 1.327 . S
C2096 C2115 1.429 . S
C2096 H2120 0.950 . S
C2097 C2114 1.574 . S
C2097 C2116 1.368 . S
C2097 H2121 0.949 . S
H2098 C2102 0.949 . S
C2099 C2100 1.349 . S
C2099 C2101 1.327 . S
C2099 H2122 0.950 . S
C2100 C2099 1.349 . S
C2100 C2112 1.349 . S
C2101 C2099 1.327 . S
C2101 C2117 1.429 . S
C2101 H2123 0.950 . S
C2102 H2098 0.949 . S
C2102 C2110 1.574 . S
C2102 C2118 1.368 . S
H2103 C2111 0.950 . S
H2104 C2109 0.976 . S
H2105 C2110 0.949 . S
H2106 C2112 0.950 . S
H2107 C2113 0.950 . S
H2108 C2114 0.949 . S
C2109 H2104 0.976 . S
C2109 C2111 1.327 . S
C2109 C2115 1.405 1_655 S
C2110 C2102 1.574 . S
C2110 H2105 0.949 . S
C2110 C2116 1.368 . S
C2111 C2095 1.349 . S
C2111 H2103 0.950 . S
C2111 C2109 1.327 . S
C2112 C2100 1.349 . S
C2112 H2106 0.950 . S
C2112 C2113 1.327 . S
C2113 H2107 0.950 . S
C2113 C2112 1.327 . S
C2113 C2117 1.429 . S
C2114 C2097 1.574 . S
C2114 H2108 0.949 . S
C2114 C2118 1.368 . S
C2115 C2096 1.429 . S
C2115 C2109 1.405 1_455 S
C2115 C2116 1.523 . S
C2116 C2097 1.368 . S
C2116 C2110 1.368 . S
C2116 C2115 1.523 . S
C2117 C2101 1.429 . S
C2117 C2113 1.429 . S
C2117 C2118 1.523 . S
C2118 C2102 1.368 . S
C2118 C2114 1.368 . S
C2118 C2117 1.523 . S
H2119 C2094 0.950 . S
H2120 C2096 0.950 . S
H2121 C2097 0.949 . S
H2122 C2099 0.950 . S
H2123 C2101 0.950 . S
C2124 C2125 1.349 . S
C2124 C2126 1.327 . S
C2124 H2149 0.950 . S
C2125 C2124 1.349 . S
C2125 C2141 1.349 . S
C2126 C2124 1.327 . S
C2126 C2145 1.429 . S
C2126 H2150 0.950 . S
C2127 C2144 1.574 1_455 S
C2127 C2146 1.368 . S
C2127 H2151 0.949 . S
H2128 C2132 0.949 . S
C2129 C2130 1.349 . S
C2129 C2131 1.327 . S
C2129 H2152 0.950 . S
C2130 C2129 1.349 . S
C2130 C2142 1.349 . S
C2131 C2129 1.327 . S
C2131 C2147 1.429 . S
C2131 H2153 0.950 . S
C2132 H2128 0.949 . S
C2132 C2140 1.574 1_655 S
C2132 C2148 1.368 . S
H2133 C2141 0.950 . S
H2134 C2139 0.950 . S
H2135 C2140 0.949 . S
H2136 C2142 0.950 . S
H2137 C2143 0.950 . S
H2138 C2144 0.949 . S
C2139 H2134 0.950 . S
C2139 C2141 1.327 . S
C2139 C2145 1.429 . S
C2140 C2132 1.574 1_455 S
C2140 H2135 0.949 . S
C2140 C2146 1.368 . S
C2141 C2125 1.349 . S
C2141 H2133 0.950 . S
C2141 C2139 1.327 . S
C2142 C2130 1.349 . S
C2142 H2136 0.950 . S
C2142 C2143 1.327 . S
C2143 H2137 0.950 . S
C2143 C2142 1.327 . S
C2143 C2147 1.429 . S
C2144 C2127 1.574 1_655 S
C2144 H2138 0.949 . S
C2144 C2148 1.368 . S
C2145 C2126 1.429 . S
C2145 C2139 1.429 . S
C2145 C2146 1.523 . S
C2146 C2127 1.368 . S
C2146 C2140 1.368 . S
C2146 C2145 1.523 . S
C2147 C2131 1.429 . S
C2147 C2143 1.429 . S
C2147 C2148 1.523 . S
C2148 C2132 1.368 . S
C2148 C2144 1.368 . S
C2148 C2147 1.523 . S
H2149 C2124 0.950 . S
H2150 C2126 0.950 . S
H2151 C2127 0.949 . S
H2152 C2129 0.950 . S
H2153 C2131 0.950 . S
C2154 C2155 1.349 . S
C2154 C2156 1.327 . S
C2154 H2179 0.950 . S
C2155 C2154 1.349 . S
C2155 C2171 1.349 . S
C2156 C2154 1.327 . S
C2156 C2175 1.429 . S
C2156 H2180 0.950 . S
C2157 C2174 1.574 . S
C2157 C2176 1.368 . S
C2157 H2181 0.949 . S
H2158 C2162 0.949 . S
C2159 C2160 1.349 . S
C2159 C2161 1.327 . S
C2159 H2182 0.950 . S
C2160 C2159 1.349 . S
C2160 C2172 1.349 . S
C2161 C2159 1.327 . S
C2161 C2177 1.429 . S
C2161 H2183 0.950 . S
C2162 H2158 0.949 . S
C2162 C2170 1.574 . S
C2162 C2178 1.368 . S
H2163 C2171 0.950 . S
H2164 C2169 0.950 . S
H2165 C2170 0.949 . S
H2166 C2172 0.950 . S
H2167 C2173 0.950 . S
H2168 C2174 0.949 . S
C2169 H2164 0.950 . S
C2169 C2171 1.327 . S
C2169 C2175 1.429 . S
C2170 C2162 1.574 . S
C2170 H2165 0.949 . S
C2170 C2176 1.368 . S
C2171 C2155 1.349 . S
C2171 H2163 0.950 . S
C2171 C2169 1.327 . S
C2172 C2160 1.349 . S
C2172 H2166 0.950 . S
C2172 C2173 1.327 . S
C2173 H2167 0.950 . S
C2173 C2172 1.327 . S
C2173 C2177 1.429 . S
C2174 C2157 1.574 . S
C2174 H2168 0.949 . S
C2174 C2178 1.368 . S
C2175 C2156 1.429 . S
C2175 C2169 1.429 . S
C2175 C2176 1.523 . S
C2176 C2157 1.368 . S
C2176 C2170 1.368 . S
C2176 C2175 1.523 . S
C2177 C2161 1.429 . S
C2177 C2173 1.429 . S
C2177 C2178 1.523 . S
C2178 C2162 1.368 . S
C2178 C2174 1.368 . S
C2178 C2177 1.523 . S
H2179 C2154 0.950 . S
H2180 C2156 0.950 . S
H2181 C2157 0.949 . S
H2182 C2159 0.950 . S
H2183 C2161 0.950 . S
C2184 C2185 1.349 . S
C2184 C2186 1.327 . S
C2184 H2209 0.950 . S
C2185 C2184 1.349 . S
C2185 C2201 1.349 . S
C2186 C2184 1.327 . S
C2186 C2205 1.429 . S
C2186 H2210 0.950 . S
C2187 C2204 1.574 1_565 S
C2187 C2206 1.368 . S
C2187 H2211 0.949 . S
H2188 C2192 0.949 . S
C2189 C2190 1.349 . S
C2189 C2191 1.327 . S
C2189 H2212 0.950 . S
C2190 C2189 1.349 . S
C2190 C2202 1.349 . S
C2191 C2189 1.327 . S
C2191 C2207 1.429 . S
C2191 H2213 0.950 . S
C2192 H2188 0.949 . S
C2192 C2200 1.574 1_545 S
C2192 C2208 1.368 . S
H2193 C2201 0.950 . S
H2194 C2199 0.950 . S
H2195 C2200 0.949 . S
H2196 C2202 0.950 . S
H2197 C2203 0.950 . S
H2198 C2204 0.949 . S
C2199 H2194 0.950 . S
C2199 C2201 1.327 . S
C2199 C2205 1.429 . S
C2200 C2192 1.574 1_565 S
C2200 H2195 0.949 . S
C2200 C2206 1.368 . S
C2201 C2185 1.349 . S
C2201 H2193 0.950 . S
C2201 C2199 1.327 . S
C2202 C2190 1.349 . S
C2202 H2196 0.950 . S
C2202 C2203 1.327 . S
C2203 H2197 0.950 . S
C2203 C2202 1.327 . S
C2203 C2207 1.429 . S
C2204 C2187 1.574 1_545 S
C2204 H2198 0.949 . S
C2204 C2208 1.368 . S
C2205 C2186 1.429 . S
C2205 C2199 1.429 . S
C2205 C2206 1.523 . S
C2206 C2187 1.368 . S
C2206 C2200 1.368 . S
C2206 C2205 1.523 . S
C2207 C2191 1.429 . S
C2207 C2203 1.429 . S
C2207 C2208 1.523 . S
C2208 C2192 1.368 . S
C2208 C2204 1.368 . S
C2208 C2207 1.523 . S
H2209 C2184 0.950 . S
H2210 C2186 0.950 . S
H2211 C2187 0.949 . S
H2212 C2189 0.950 . S
H2213 C2191 0.950 . S
C2214 C2215 1.349 . S
C2214 C2216 1.327 . S
C2214 H2239 0.950 . S
C2215 C2214 1.349 . S
C2215 C2231 1.349 . S
C2216 C2214 1.327 . S
C2216 C2235 1.429 . S
C2216 H2240 0.950 . S
C2217 C2234 1.574 1_545 S
C2217 C2236 1.368 . S
C2217 H2241 0.949 . S
H2218 C2222 0.949 . S
C2219 C2220 1.349 . S
C2219 C2221 1.327 . S
C2219 H2242 0.950 . S
C2220 C2219 1.349 . S
C2220 C2232 1.349 . S
C2221 C2219 1.327 . S
C2221 C2237 1.429 . S
C2221 H2243 0.950 . S
C2222 H2218 0.949 . S
C2222 C2230 1.574 1_565 S
C2222 C2238 1.368 . S
H2223 C2231 0.950 . S
H2224 C2229 0.950 . S
H2225 C2230 0.949 . S
H2226 C2232 0.950 . S
H2227 C2233 0.950 . S
H2228 C2234 0.949 . S
C2229 H2224 0.950 . S
C2229 C2231 1.327 . S
C2229 C2235 1.429 . S
C2230 C2222 1.574 1_545 S
C2230 H2225 0.949 . S
C2230 C2236 1.368 . S
C2231 C2215 1.349 . S
C2231 H2223 0.950 . S
C2231 C2229 1.327 . S
C2232 C2220 1.349 . S
C2232 H2226 0.950 . S
C2232 C2233 1.327 . S
C2233 H2227 0.950 . S
C2233 C2232 1.327 . S
C2233 C2237 1.429 . S
C2234 C2217 1.574 1_565 S
C2234 H2228 0.949 . S
C2234 C2238 1.368 . S
C2235 C2216 1.429 . S
C2235 C2229 1.429 . S
C2235 C2236 1.523 . S
C2236 C2217 1.368 . S
C2236 C2230 1.368 . S
C2236 C2235 1.523 . S
C2237 C2221 1.429 . S
C2237 C2233 1.429 . S
C2237 C2238 1.523 . S
C2238 C2222 1.368 . S
C2238 C2234 1.368 . S
C2238 C2237 1.523 . S
H2239 C2214 0.950 . S
H2240 C2216 0.950 . S
H2241 C2217 0.949 . S
H2242 C2219 0.950 . S
H2243 C2221 0.950 . S
C2244 C2245 1.349 . S
C2244 C2246 1.327 . S
C2244 H2269 0.950 . S
C2245 C2244 1.349 . S
C2245 C2261 1.349 . S
C2246 C2244 1.327 . S
C2246 C2265 1.429 . S
C2246 H2270 0.950 . S
C2247 C2264 1.574 1_655 S
C2247 C2266 1.368 . S
C2247 H2271 0.949 . S
H2248 C2252 0.949 . S
C2249 C2250 1.349 . S
C2249 C2251 1.327 . S
C2249 H2272 0.950 . S
C2250 C2249 1.349 . S
C2250 C2262 1.349 . S
C2251 C2249 1.327 . S
C2251 C2267 1.429 . S
C2251 H2273 0.950 . S
C2252 H2248 0.949 . S
C2252 C2260 1.574 1_455 S
C2252 C2268 1.368 . S
H2253 C2261 0.950 . S
H2254 C2259 0.950 . S
H2255 C2260 0.949 . S
H2256 C2262 0.950 . S
H2257 C2263 0.950 . S
H2258 C2264 0.949 . S
C2259 H2254 0.950 . S
C2259 C2261 1.327 . S
C2259 C2265 1.429 . S
C2260 C2252 1.574 1_655 S
C2260 H2255 0.949 . S
C2260 C2266 1.368 . S
C2261 C2245 1.349 . S
C2261 H2253 0.950 . S
C2261 C2259 1.327 . S
C2262 C2250 1.349 . S
C2262 H2256 0.950 . S
C2262 C2263 1.327 . S
C2263 H2257 0.950 . S
C2263 C2262 1.327 . S
C2263 C2267 1.429 . S
C2264 C2247 1.574 1_455 S
C2264 H2258 0.949 . S
C2264 C2268 1.368 . S
C2265 C2246 1.429 . S
C2265 C2259 1.429 . S
C2265 C2266 1.523 . S
C2266 C2247 1.368 . S
C2266 C2260 1.368 . S
C2266 C2265 1.523 . S
C2267 C2251 1.429 . S
C2267 C2263 1.429 . S
C2267 C2268 1.523 . S
C2268 C2252 1.368 . S
C2268 C2264 1.368 . S
C2268 C2267 1.523 . S
H2269 C2244 0.950 . S
H2270 C2246 0.950 . S
H2271 C2247 0.949 . S
H2272 C2249 0.950 . S
H2273 C2251 0.950 . S
C2274 C2275 1.349 . S
C2274 C2276 1.327 . S
C2274 H2299 0.950 . S
C2275 C2274 1.349 . S
C2275 C2291 1.349 . S
C2276 C2274 1.327 . S
C2276 C2295 1.429 . S
C2276 H2300 0.950 . S
C2277 C2294 1.574 . S
C2277 C2296 1.368 . S
C2277 H2301 0.949 . S
H2278 C2282 0.949 . S
C2279 C2280 1.349 . S
C2279 C2281 1.327 . S
C2279 H2302 0.950 . S
C2280 C2279 1.349 . S
C2280 C2292 1.349 . S
C2281 C2279 1.327 . S
C2281 C2297 1.429 . S
C2281 H2303 0.950 . S
C2282 H2278 0.949 . S
C2282 C2290 1.574 . S
C2282 C2298 1.368 . S
H2283 C2291 0.950 . S
H2284 C2289 0.950 . S
H2285 C2290 0.949 . S
H2286 C2292 0.950 . S
H2287 C2293 0.950 . S
H2288 C2294 0.949 . S
C2289 H2284 0.950 . S
C2289 C2291 1.327 . S
C2289 C2295 1.429 . S
C2290 C2282 1.574 . S
C2290 H2285 0.949 . S
C2290 C2296 1.368 . S
C2291 C2275 1.349 . S
C2291 H2283 0.950 . S
C2291 C2289 1.327 . S
C2292 C2280 1.349 . S
C2292 H2286 0.950 . S
C2292 C2293 1.327 . S
C2293 H2287 0.950 . S
C2293 C2292 1.327 . S
C2293 C2297 1.429 . S
C2294 C2277 1.574 . S
C2294 H2288 0.949 . S
C2294 C2298 1.368 . S
C2295 C2276 1.429 . S
C2295 C2289 1.429 . S
C2295 C2296 1.523 . S
C2296 C2277 1.368 . S
C2296 C2290 1.368 . S
C2296 C2295 1.523 . S
C2297 C2281 1.429 . S
C2297 C2293 1.429 . S
C2297 C2298 1.523 . S
C2298 C2282 1.368 . S
C2298 C2294 1.368 . S
C2298 C2297 1.523 . S
H2299 C2274 0.950 . S
H2300 C2276 0.950 . S
H2301 C2277 0.949 . S
H2302 C2279 0.950 . S
H2303 C2281 0.950 . S
C2304 C2305 1.349 . S
C2304 C2306 1.327 . S
C2304 H2329 0.950 . S
C2305 C2304 1.349 . S
C2305 C2321 1.349 . S
C2306 C2304 1.327 . S
C2306 C2325 1.429 . S
C2306 H2330 0.950 . S
C2307 C2324 1.574 . S
C2307 C2326 1.368 . S
C2307 H2331 0.949 . S
H2308 C2312 0.949 . S
C2309 C2310 1.349 . S
C2309 C2311 1.327 . S
C2309 H2332 0.950 . S
C2310 C2309 1.349 . S
C2310 C2322 1.349 . S
C2311 C2309 1.327 . S
C2311 C2327 1.429 . S
C2311 H2333 0.950 . S
C2312 H2308 0.949 . S
C2312 C2320 1.574 . S
C2312 C2328 1.368 . S
H2313 C2321 0.950 . S
H2314 C2319 0.950 . S
H2315 C2320 0.949 . S
H2316 C2322 0.950 . S
H2317 C2323 0.950 . S
H2318 C2324 0.949 . S
C2319 H2314 0.950 . S
C2319 C2321 1.327 . S
C2319 C2325 1.429 . S
C2320 C2312 1.574 . S
C2320 H2315 0.949 . S
C2320 C2326 1.368 . S
C2321 C2305 1.349 . S
C2321 H2313 0.950 . S
C2321 C2319 1.327 . S
C2322 C2310 1.349 . S
C2322 H2316 0.950 . S
C2322 C2323 1.327 . S
C2323 H2317 0.950 . S
C2323 C2322 1.327 . S
C2323 C2327 1.429 . S
C2324 C2307 1.574 . S
C2324 H2318 0.949 . S
C2324 C2328 1.368 . S
C2325 C2306 1.429 . S
C2325 C2319 1.429 . S
C2325 C2326 1.523 . S
C2326 C2307 1.368 . S
C2326 C2320 1.368 . S
C2326 C2325 1.523 . S
C2327 C2311 1.429 . S
C2327 C2323 1.429 . S
C2327 C2328 1.523 . S
C2328 C2312 1.368 . S
C2328 C2324 1.368 . S
C2328 C2327 1.523 . S
H2329 C2304 0.950 . S
H2330 C2306 0.950 . S
H2331 C2307 0.949 . S
H2332 C2309 0.950 . S
H2333 C2311 0.950 . S
C2334 C2335 1.349 . S
C2334 C2336 1.327 . S
C2334 H2359 0.950 . S
C2335 C2334 1.349 . S
C2335 C2351 1.349 . S
C2336 C2334 1.327 . S
C2336 C2355 1.429 . S
C2336 H2360 0.950 . S
C2337 C2354 1.574 . S
C2337 C2356 1.368 . S
C2337 H2361 0.949 . S
H2338 C2342 0.949 . S
C2339 C2340 1.349 . S
C2339 C2341 1.327 . S
C2339 H2362 0.950 . S
C2340 C2339 1.349 . S
C2340 C2352 1.349 . S
C2341 C2339 1.327 . S
C2341 C2357 1.429 . S
C2341 H2363 0.950 . S
C2342 H2338 0.949 . S
C2342 C2350 1.574 . S
C2342 C2358 1.368 . S
H2343 C2351 0.950 . S
H2344 C2349 0.950 . S
H2345 C2350 0.949 . S
H2346 C2352 0.950 . S
H2347 C2353 0.950 . S
H2348 C2354 0.949 . S
C2349 H2344 0.950 . S
C2349 C2351 1.327 . S
C2349 C2355 1.429 . S
C2350 C2342 1.574 . S
C2350 H2345 0.949 . S
C2350 C2356 1.368 . S
C2351 C2335 1.349 . S
C2351 H2343 0.950 . S
C2351 C2349 1.327 . S
C2352 C2340 1.349 . S
C2352 H2346 0.950 . S
C2352 C2353 1.327 . S
C2353 H2347 0.950 . S
C2353 C2352 1.327 . S
C2353 C2357 1.429 . S
C2354 C2337 1.574 . S
C2354 H2348 0.949 . S
C2354 C2358 1.368 . S
C2355 C2336 1.429 . S
C2355 C2349 1.429 . S
C2355 C2356 1.523 . S
C2356 C2337 1.368 . S
C2356 C2350 1.368 . S
C2356 C2355 1.523 . S
C2357 C2341 1.429 . S
C2357 C2353 1.429 . S
C2357 C2358 1.523 . S
C2358 C2342 1.368 . S
C2358 C2354 1.368 . S
C2358 C2357 1.523 . S
H2359 C2334 0.950 . S
H2360 C2336 0.950 . S
H2361 C2337 0.949 . S
H2362 C2339 0.950 . S
H2363 C2341 0.950 . S
C2364 C2365 1.349 . S
C2364 C2366 1.327 . S
C2364 H2389 0.950 . S
C2365 C2364 1.349 . S
C2365 C2381 1.349 . S
C2366 C2364 1.327 . S
C2366 C2385 1.429 . S
C2366 H2390 0.950 . S
C2367 C2384 1.574 . S
C2367 C2386 1.368 . S
C2367 H2391 0.949 . S
H2368 C2372 0.949 . S
C2369 C2370 1.349 . S
C2369 C2371 1.327 . S
C2369 H2392 0.950 . S
C2370 C2369 1.349 . S
C2370 C2382 1.349 . S
C2371 C2369 1.327 . S
C2371 C2387 1.429 . S
C2371 H2393 0.950 . S
C2372 H2368 0.949 . S
C2372 C2380 1.574 . S
C2372 C2388 1.368 . S
H2373 C2381 0.950 . S
H2374 C2379 0.950 . S
H2375 C2380 0.949 . S
H2376 C2382 0.950 . S
H2377 C2383 0.950 . S
H2378 C2384 0.949 . S
C2379 H2374 0.950 . S
C2379 C2381 1.327 . S
C2379 C2385 1.429 . S
C2380 C2372 1.574 . S
C2380 H2375 0.949 . S
C2380 C2386 1.368 . S
C2381 C2365 1.349 . S
C2381 H2373 0.950 . S
C2381 C2379 1.327 . S
C2382 C2370 1.349 . S
C2382 H2376 0.950 . S
C2382 C2383 1.327 . S
C2383 H2377 0.950 . S
C2383 C2382 1.327 . S
C2383 C2387 1.429 . S
C2384 C2367 1.574 . S
C2384 H2378 0.949 . S
C2384 C2388 1.368 . S
C2385 C2366 1.429 . S
C2385 C2379 1.429 . S
C2385 C2386 1.523 . S
C2386 C2367 1.368 . S
C2386 C2380 1.368 . S
C2386 C2385 1.523 . S
C2387 C2371 1.429 . S
C2387 C2383 1.429 . S
C2387 C2388 1.523 . S
C2388 C2372 1.368 . S
C2388 C2384 1.368 . S
C2388 C2387 1.523 . S
H2389 C2364 0.950 . S
H2390 C2366 0.950 . S
H2391 C2367 0.949 . S
H2392 C2369 0.950 . S
H2393 C2371 0.950 . S
C2394 C2395 1.349 . S
C2394 C2396 1.327 . S
C2394 H2419 0.950 . S
C2395 C2394 1.349 . S
C2395 C2411 1.349 . S
C2396 C2394 1.327 . S
C2396 C2415 1.429 . S
C2396 H2420 0.950 . S
C2397 C2414 1.574 . S
C2397 C2416 1.368 . S
C2397 H2421 0.949 . S
H2398 C2402 0.949 . S
C2399 C2400 1.349 . S
C2399 C2401 1.327 . S
C2399 H2422 0.950 . S
C2400 C2399 1.349 . S
C2400 C2412 1.349 . S
C2401 C2399 1.327 . S
C2401 C2417 1.429 . S
C2401 H2423 0.950 . S
C2402 H2398 0.949 . S
C2402 C2410 1.574 . S
C2402 C2418 1.368 . S
H2403 C2411 0.950 . S
H2404 C2409 0.950 . S
H2405 C2410 0.949 . S
H2406 C2412 0.950 . S
H2407 C2413 0.950 . S
H2408 C2414 0.949 . S
C2409 H2404 0.950 . S
C2409 C2411 1.327 . S
C2409 C2415 1.429 . S
C2410 C2402 1.574 . S
C2410 H2405 0.949 . S
C2410 C2416 1.368 . S
C2411 C2395 1.349 . S
C2411 H2403 0.950 . S
C2411 C2409 1.327 . S
C2412 C2400 1.349 . S
C2412 H2406 0.950 . S
C2412 C2413 1.327 . S
C2413 H2407 0.950 . S
C2413 C2412 1.327 . S
C2413 C2417 1.429 . S
C2414 C2397 1.574 . S
C2414 H2408 0.949 . S
C2414 C2418 1.368 . S
C2415 C2396 1.429 . S
C2415 C2409 1.429 . S
C2415 C2416 1.523 . S
C2416 C2397 1.368 . S
C2416 C2410 1.368 . S
C2416 C2415 1.523 . S
C2417 C2401 1.429 . S
C2417 C2413 1.429 . S
C2417 C2418 1.523 . S
C2418 C2402 1.368 . S
C2418 C2414 1.368 . S
C2418 C2417 1.523 . S
H2419 C2394 0.950 . S
H2420 C2396 0.950 . S
H2421 C2397 0.949 . S
H2422 C2399 0.950 . S
H2423 C2401 0.950 . S
C2424 C2425 1.349 . S
C2424 C2426 1.327 . S
C2424 H2449 0.950 . S
C2425 C2424 1.349 . S
C2425 C2441 1.349 . S
C2426 C2424 1.327 . S
C2426 C2445 1.429 . S
C2426 H2450 0.950 . S
C2427 C2444 1.574 . S
C2427 C2446 1.368 . S
C2427 H2451 0.949 . S
H2428 C2432 0.949 . S
C2429 C2430 1.349 . S
C2429 C2431 1.327 . S
C2429 H2452 0.950 . S
C2430 C2429 1.349 . S
C2430 C2442 1.349 . S
C2431 C2429 1.327 . S
C2431 C2447 1.429 . S
C2431 H2453 0.950 . S
C2432 H2428 0.949 . S
C2432 C2440 1.574 . S
C2432 C2448 1.368 . S
H2433 C2441 0.950 . S
H2434 C2439 0.950 . S
H2435 C2440 0.949 . S
H2436 C2442 0.950 . S
H2437 C2443 0.950 . S
H2438 C2444 0.949 . S
C2439 H2434 0.950 . S
C2439 C2441 1.327 . S
C2439 C2445 1.429 . S
C2440 C2432 1.574 . S
C2440 H2435 0.949 . S
C2440 C2446 1.368 . S
C2441 C2425 1.349 . S
C2441 H2433 0.950 . S
C2441 C2439 1.327 . S
C2442 C2430 1.349 . S
C2442 H2436 0.950 . S
C2442 C2443 1.327 . S
C2443 H2437 0.950 . S
C2443 C2442 1.327 . S
C2443 C2447 1.429 . S
C2444 C2427 1.574 . S
C2444 H2438 0.949 . S
C2444 C2448 1.368 . S
C2445 C2426 1.429 . S
C2445 C2439 1.429 . S
C2445 C2446 1.523 . S
C2446 C2427 1.368 . S
C2446 C2440 1.368 . S
C2446 C2445 1.523 . S
C2447 C2431 1.429 . S
C2447 C2443 1.429 . S
C2447 C2448 1.523 . S
C2448 C2432 1.368 . S
C2448 C2444 1.368 . S
C2448 C2447 1.523 . S
H2449 C2424 0.950 . S
H2450 C2426 0.950 . S
H2451 C2427 0.949 . S
H2452 C2429 0.950 . S
H2453 C2431 0.950 . S
C2454 C2455 1.349 . S
C2454 C2456 1.327 . S
C2454 H2479 0.950 . S
C2455 C2454 1.349 . S
C2455 C2471 1.349 . S
C2456 C2454 1.327 . S
C2456 C2475 1.429 . S
C2456 H2480 0.950 . S
C2457 C2474 1.574 . S
C2457 C2476 1.368 . S
C2457 H2481 0.949 . S
H2458 C2462 0.949 . S
C2459 C2460 1.349 . S
C2459 C2461 1.327 . S
C2459 H2482 0.950 . S
C2460 C2459 1.349 . S
C2460 C2472 1.349 . S
C2461 C2459 1.327 . S
C2461 C2477 1.429 . S
C2461 H2483 0.950 . S
C2462 H2458 0.949 . S
C2462 C2470 1.574 . S
C2462 C2478 1.368 . S
H2463 C2471 0.950 . S
H2464 C2469 0.950 . S
H2465 C2470 0.949 . S
H2466 C2472 0.950 . S
H2467 C2473 0.950 . S
H2468 C2474 0.949 . S
C2469 H2464 0.950 . S
C2469 C2471 1.327 . S
C2469 C2475 1.429 . S
C2470 C2462 1.574 . S
C2470 H2465 0.949 . S
C2470 C2476 1.368 . S
C2471 C2455 1.349 . S
C2471 H2463 0.950 . S
C2471 C2469 1.327 . S
C2472 C2460 1.349 . S
C2472 H2466 0.950 . S
C2472 C2473 1.327 . S
C2473 H2467 0.950 . S
C2473 C2472 1.327 . S
C2473 C2477 1.429 . S
C2474 C2457 1.574 . S
C2474 H2468 0.949 . S
C2474 C2478 1.368 . S
C2475 C2456 1.429 . S
C2475 C2469 1.429 . S
C2475 C2476 1.523 . S
C2476 C2457 1.368 . S
C2476 C2470 1.368 . S
C2476 C2475 1.523 . S
C2477 C2461 1.429 . S
C2477 C2473 1.429 . S
C2477 C2478 1.523 . S
C2478 C2462 1.368 . S
C2478 C2474 1.368 . S
C2478 C2477 1.523 . S
H2479 C2454 0.950 . S
H2480 C2456 0.950 . S
H2481 C2457 0.949 . S
H2482 C2459 0.950 . S
H2483 C2461 0.950 . S
C2484 C2485 1.349 . S
C2484 C2486 1.327 . S
C2484 H2509 0.950 . S
C2485 C2484 1.349 . S
C2485 C2501 1.349 . S
C2486 C2484 1.327 . S
C2486 C2505 1.429 . S
C2486 H2510 0.950 . S
C2487 C2504 1.574 . S
C2487 C2506 1.368 . S
C2487 H2511 0.949 . S
H2488 C2492 0.949 . S
C2489 C2490 1.349 . S
C2489 C2491 1.327 . S
C2489 H2512 0.950 . S
C2490 C2489 1.349 . S
C2490 C2502 1.349 . S
C2491 C2489 1.327 . S
C2491 C2507 1.429 . S
C2491 H2513 0.950 . S
C2492 H2488 0.949 . S
C2492 C2500 1.574 . S
C2492 C2508 1.368 . S
H2493 C2501 0.950 . S
H2494 C2499 0.950 . S
H2495 C2500 0.949 . S
H2496 C2502 0.950 . S
H2497 C2503 0.950 . S
H2498 C2504 0.949 . S
C2499 H2494 0.950 . S
C2499 C2501 1.327 . S
C2499 C2505 1.429 . S
C2500 C2492 1.574 . S
C2500 H2495 0.949 . S
C2500 C2506 1.368 . S
C2501 C2485 1.349 . S
C2501 H2493 0.950 . S
C2501 C2499 1.327 . S
C2502 C2490 1.349 . S
C2502 H2496 0.950 . S
C2502 C2503 1.327 . S
C2503 H2497 0.950 . S
C2503 C2502 1.327 . S
C2503 C2507 1.429 . S
C2504 C2487 1.574 . S
C2504 H2498 0.949 . S
C2504 C2508 1.368 . S
C2505 C2486 1.429 . S
C2505 C2499 1.429 . S
C2505 C2506 1.523 . S
C2506 C2487 1.368 . S
C2506 C2500 1.368 . S
C2506 C2505 1.523 . S
C2507 C2491 1.429 . S
C2507 C2503 1.429 . S
C2507 C2508 1.523 . S
C2508 C2492 1.368 . S
C2508 C2504 1.368 . S
C2508 C2507 1.523 . S
H2509 C2484 0.950 . S
H2510 C2486 0.950 . S
H2511 C2487 0.949 . S
H2512 C2489 0.950 . S
H2513 C2491 0.950 . S
C2514 C2515 1.349 . S
C2514 C2516 1.327 . S
C2514 H2539 0.950 . S
C2515 C2514 1.349 . S
C2515 C2531 1.349 . S
C2516 C2514 1.327 . S
C2516 C2535 1.429 . S
C2516 H2540 0.950 . S
C2517 C2534 1.574 . S
C2517 C2536 1.368 . S
C2517 H2541 0.949 . S
H2518 C2522 0.949 . S
C2519 C2520 1.349 . S
C2519 C2521 1.327 . S
C2519 H2542 0.950 . S
C2520 C2519 1.349 . S
C2520 C2532 1.349 . S
C2521 C2519 1.327 . S
C2521 C2537 1.429 . S
C2521 H2543 0.950 . S
C2522 H2518 0.949 . S
C2522 C2530 1.574 . S
C2522 C2538 1.368 . S
H2523 C2531 0.950 . S
H2524 C2529 0.950 . S
H2525 C2530 0.949 . S
H2526 C2532 0.950 . S
H2527 C2533 0.950 . S
H2528 C2534 0.949 . S
C2529 H2524 0.950 . S
C2529 C2531 1.327 . S
C2529 C2535 1.429 . S
C2530 C2522 1.574 . S
C2530 H2525 0.949 . S
C2530 C2536 1.368 . S
C2531 C2515 1.349 . S
C2531 H2523 0.950 . S
C2531 C2529 1.327 . S
C2532 C2520 1.349 . S
C2532 H2526 0.950 . S
C2532 C2533 1.327 . S
C2533 H2527 0.950 . S
C2533 C2532 1.327 . S
C2533 C2537 1.429 . S
C2534 C2517 1.574 . S
C2534 H2528 0.949 . S
C2534 C2538 1.368 . S
C2535 C2516 1.429 . S
C2535 C2529 1.429 . S
C2535 C2536 1.523 . S
C2536 C2517 1.368 . S
C2536 C2530 1.368 . S
C2536 C2535 1.523 . S
C2537 C2521 1.429 . S
C2537 C2533 1.429 . S
C2537 C2538 1.523 . S
C2538 C2522 1.368 . S
C2538 C2534 1.368 . S
C2538 C2537 1.523 . S
H2539 C2514 0.950 . S
H2540 C2516 0.950 . S
H2541 C2517 0.949 . S
H2542 C2519 0.950 . S
H2543 C2521 0.950 . S
C2544 C2545 1.349 . S
C2544 C2546 1.327 . S
C2544 H2569 0.950 . S
C2545 C2544 1.349 . S
C2545 C2561 1.349 . S
C2546 C2544 1.327 . S
C2546 C2565 1.429 . S
C2546 H2570 0.950 . S
C2547 C2564 1.574 . S
C2547 C2566 1.368 . S
C2547 H2571 0.949 . S
H2548 C2552 0.949 . S
C2549 C2550 1.349 . S
C2549 C2551 1.327 . S
C2549 H2572 0.950 . S
C2550 C2549 1.349 . S
C2550 C2562 1.349 . S
C2551 C2549 1.327 . S
C2551 C2567 1.429 . S
C2551 H2573 0.950 . S
C2552 H2548 0.949 . S
C2552 C2560 1.574 . S
C2552 C2568 1.368 . S
H2553 C2561 0.950 . S
H2554 C2559 0.950 . S
H2555 C2560 0.949 . S
H2556 C2562 0.950 . S
H2557 C2563 0.950 . S
H2558 C2564 0.949 . S
C2559 H2554 0.950 . S
C2559 C2561 1.327 . S
C2559 C2565 1.429 . S
C2560 C2552 1.574 . S
C2560 H2555 0.949 . S
C2560 C2566 1.368 . S
C2561 C2545 1.349 . S
C2561 H2553 0.950 . S
C2561 C2559 1.327 . S
C2562 C2550 1.349 . S
C2562 H2556 0.950 . S
C2562 C2563 1.327 . S
C2563 H2557 0.950 . S
C2563 C2562 1.327 . S
C2563 C2567 1.429 . S
C2564 C2547 1.574 . S
C2564 H2558 0.949 . S
C2564 C2568 1.368 . S
C2565 C2546 1.429 . S
C2565 C2559 1.429 . S
C2565 C2566 1.523 . S
C2566 C2547 1.368 . S
C2566 C2560 1.368 . S
C2566 C2565 1.523 . S
C2567 C2551 1.429 . S
C2567 C2563 1.429 . S
C2567 C2568 1.523 . S
C2568 C2552 1.368 . S
C2568 C2564 1.368 . S
C2568 C2567 1.523 . S
H2569 C2544 0.950 . S
H2570 C2546 0.950 . S
H2571 C2547 0.949 . S
H2572 C2549 0.950 . S
H2573 C2551 0.950 . S
C2574 C2575 1.349 . S
C2574 C2576 1.327 . S
C2574 H2599 0.950 . S
C2575 C2574 1.349 . S
C2575 C2591 1.349 . S
C2576 C2574 1.327 . S
C2576 C2595 1.429 . S
C2576 H2600 0.950 . S
C2577 C2594 1.574 . S
C2577 C2596 1.368 . S
C2577 H2601 0.949 . S
H2578 C2582 0.949 . S
C2579 C2580 1.349 . S
C2579 C2581 1.327 . S
C2579 H2602 0.950 . S
C2580 C2579 1.349 . S
C2580 C2592 1.349 . S
C2581 C2579 1.327 . S
C2581 C2597 1.429 . S
C2581 H2603 0.950 . S
C2582 H2578 0.949 . S
C2582 C2590 1.574 . S
C2582 C2598 1.368 . S
H2583 C2591 0.950 . S
H2584 C2589 0.950 . S
H2585 C2590 0.949 . S
H2586 C2592 0.950 . S
H2587 C2593 0.950 . S
H2588 C2594 0.949 . S
C2589 H2584 0.950 . S
C2589 C2591 1.327 . S
C2589 C2595 1.429 . S
C2590 C2582 1.574 . S
C2590 H2585 0.949 . S
C2590 C2596 1.368 . S
C2591 C2575 1.349 . S
C2591 H2583 0.950 . S
C2591 C2589 1.327 . S
C2592 C2580 1.349 . S
C2592 H2586 0.950 . S
C2592 C2593 1.327 . S
C2593 H2587 0.950 . S
C2593 C2592 1.327 . S
C2593 C2597 1.429 . S
C2594 C2577 1.574 . S
C2594 H2588 0.949 . S
C2594 C2598 1.368 . S
C2595 C2576 1.429 . S
C2595 C2589 1.429 . S
C2595 C2596 1.523 . S
C2596 C2577 1.368 . S
C2596 C2590 1.368 . S
C2596 C2595 1.523 . S
C2597 C2581 1.429 . S
C2597 C2593 1.429 . S
C2597 C2598 1.523 . S
C2598 C2582 1.368 . S
C2598 C2594 1.368 . S
C2598 C2597 1.523 . S
H2599 C2574 0.950 . S
H2600 C2576 0.950 . S
H2601 C2577 0.949 . S
H2602 C2579 0.950 . S
H2603 C2581 0.950 . S
C2604 C2605 1.349 . S
C2604 C2606 1.327 . S
C2604 H2629 0.950 . S
C2605 C2604 1.349 . S
C2605 C2621 1.349 . S
C2606 C2604 1.327 . S
C2606 C2625 1.429 . S
C2606 H2630 0.950 . S
C2607 C2624 1.574 . S
C2607 C2626 1.368 . S
C2607 H2631 0.949 . S
H2608 C2612 0.949 . S
C2609 C2610 1.349 . S
C2609 C2611 1.327 . S
C2609 H2632 0.950 . S
C2610 C2609 1.349 . S
C2610 C2622 1.349 . S
C2611 C2609 1.327 . S
C2611 C2627 1.429 . S
C2611 H2633 0.950 . S
C2612 H2608 0.949 . S
C2612 C2620 1.574 . S
C2612 C2628 1.368 . S
H2613 C2621 0.950 . S
H2614 C2619 0.950 . S
H2615 C2620 0.949 . S
H2616 C2622 0.950 . S
H2617 C2623 0.950 . S
H2618 C2624 0.949 . S
C2619 H2614 0.950 . S
C2619 C2621 1.327 . S
C2619 C2625 1.429 . S
C2620 C2612 1.574 . S
C2620 H2615 0.949 . S
C2620 C2626 1.368 . S
C2621 C2605 1.349 . S
C2621 H2613 0.950 . S
C2621 C2619 1.327 . S
C2622 C2610 1.349 . S
C2622 H2616 0.950 . S
C2622 C2623 1.327 . S
C2623 H2617 0.950 . S
C2623 C2622 1.327 . S
C2623 C2627 1.429 . S
C2624 C2607 1.574 . S
C2624 H2618 0.949 . S
C2624 C2628 1.368 . S
C2625 C2606 1.429 . S
C2625 C2619 1.429 . S
C2625 C2626 1.523 . S
C2626 C2607 1.368 . S
C2626 C2620 1.368 . S
C2626 C2625 1.523 . S
C2627 C2611 1.429 . S
C2627 C2623 1.429 . S
C2627 C2628 1.523 . S
C2628 C2612 1.368 . S
C2628 C2624 1.368 . S
C2628 C2627 1.523 . S
H2629 C2604 0.950 . S
H2630 C2606 0.950 . S
H2631 C2607 0.949 . S
H2632 C2609 0.950 . S
H2633 C2611 0.950 . S
C2634 C2635 1.349 . S
C2634 C2636 1.327 . S
C2634 H2659 0.950 . S
C2635 C2634 1.349 . S
C2635 C2651 1.349 . S
C2636 C2634 1.327 . S
C2636 C2655 1.429 . S
C2636 H2660 0.950 . S
C2637 C2654 1.574 . S
C2637 C2656 1.368 . S
C2637 H2661 0.949 . S
H2638 C2642 0.949 . S
C2639 C2640 1.349 . S
C2639 C2641 1.327 . S
C2639 H2662 0.950 . S
C2640 C2639 1.349 . S
C2640 C2652 1.349 . S
C2641 C2639 1.327 . S
C2641 C2657 1.429 . S
C2641 H2663 0.950 . S
C2642 H2638 0.949 . S
C2642 C2650 1.574 . S
C2642 C2658 1.368 . S
H2643 C2651 0.950 . S
H2644 C2649 0.950 . S
H2645 C2650 0.949 . S
H2646 C2652 0.950 . S
H2647 C2653 0.950 . S
H2648 C2654 0.949 . S
C2649 H2644 0.950 . S
C2649 C2651 1.327 . S
C2649 C2655 1.429 . S
C2650 C2642 1.574 . S
C2650 H2645 0.949 . S
C2650 C2656 1.368 . S
C2651 C2635 1.349 . S
C2651 H2643 0.950 . S
C2651 C2649 1.327 . S
C2652 C2640 1.349 . S
C2652 H2646 0.950 . S
C2652 C2653 1.327 . S
C2653 H2647 0.950 . S
C2653 C2652 1.327 . S
C2653 C2657 1.429 . S
C2654 C2637 1.574 . S
C2654 H2648 0.949 . S
C2654 C2658 1.368 . S
C2655 C2636 1.429 . S
C2655 C2649 1.429 . S
C2655 C2656 1.523 . S
C2656 C2637 1.368 . S
C2656 C2650 1.368 . S
C2656 C2655 1.523 . S
C2657 C2641 1.429 . S
C2657 C2653 1.429 . S
C2657 C2658 1.523 . S
C2658 C2642 1.368 . S
C2658 C2654 1.368 . S
C2658 C2657 1.523 . S
H2659 C2634 0.950 . S
H2660 C2636 0.950 . S
H2661 C2637 0.949 . S
H2662 C2639 0.950 . S
H2663 C2641 0.950 . S
C2664 C2665 1.349 . S
C2664 C2666 1.327 . S
C2664 H2689 0.950 . S
C2665 C2664 1.349 . S
C2665 C2681 1.349 . S
C2666 C2664 1.327 . S
C2666 C2685 1.429 . S
C2666 H2690 0.950 . S
C2667 C2684 1.574 1_655 S
C2667 C2686 1.368 . S
C2667 H2691 0.949 . S
H2668 C2672 0.949 . S
C2669 C2670 1.349 . S
C2669 C2671 1.327 . S
C2669 H2692 0.950 . S
C2670 C2669 1.349 . S
C2670 C2682 1.349 . S
C2671 C2669 1.327 . S
C2671 C2687 1.429 . S
C2671 H2693 0.950 . S
C2672 H2668 0.949 . S
C2672 C2680 1.574 1_455 S
C2672 C2688 1.368 . S
H2673 C2681 0.950 . S
H2674 C2679 0.950 . S
H2675 C2680 0.949 . S
H2676 C2682 0.950 . S
H2677 C2683 0.950 . S
H2678 C2684 0.949 . S
C2679 H2674 0.950 . S
C2679 C2681 1.327 . S
C2679 C2685 1.429 . S
C2680 C2672 1.574 1_655 S
C2680 H2675 0.949 . S
C2680 C2686 1.368 . S
C2681 C2665 1.349 . S
C2681 H2673 0.950 . S
C2681 C2679 1.327 . S
C2682 C2670 1.349 . S
C2682 H2676 0.950 . S
C2682 C2683 1.327 . S
C2683 H2677 0.950 . S
C2683 C2682 1.327 . S
C2683 C2687 1.429 . S
C2684 C2667 1.574 1_455 S
C2684 H2678 0.949 . S
C2684 C2688 1.368 . S
C2685 C2666 1.429 . S
C2685 C2679 1.429 . S
C2685 C2686 1.523 . S
C2686 C2667 1.368 . S
C2686 C2680 1.368 . S
C2686 C2685 1.523 . S
C2687 C2671 1.429 . S
C2687 C2683 1.429 . S
C2687 C2688 1.523 . S
C2688 C2672 1.368 . S
C2688 C2684 1.368 . S
C2688 C2687 1.523 . S
H2689 C2664 0.950 . S
H2690 C2666 0.950 . S
H2691 C2667 0.949 . S
H2692 C2669 0.950 . S
H2693 C2671 0.950 . S
C2694 C2695 1.349 . S
C2694 C2696 1.327 . S
C2694 H2719 0.950 . S
C2695 C2694 1.349 . S
C2695 C2711 1.349 . S
C2696 C2694 1.327 . S
C2696 C2715 1.429 . S
C2696 H2720 0.950 . S
C2697 C2714 1.574 . S
C2697 C2716 1.368 . S
C2697 H2721 0.949 . S
H2698 C2702 0.949 . S
C2699 C2700 1.349 . S
C2699 C2701 1.327 . S
C2699 H2722 0.950 . S
C2700 C2699 1.349 . S
C2700 C2712 1.349 . S
C2701 C2699 1.327 . S
C2701 C2717 1.429 . S
C2701 H2723 0.950 . S
C2702 H2698 0.949 . S
C2702 C2710 1.574 . S
C2702 C2718 1.368 . S
H2703 C2711 0.950 . S
H2704 C2709 0.950 . S
H2705 C2710 0.949 . S
H2706 C2712 0.950 . S
H2707 C2713 0.950 . S
H2708 C2714 0.949 . S
C2709 H2704 0.950 . S
C2709 C2711 1.327 . S
C2709 C2715 1.429 . S
C2710 C2702 1.574 . S
C2710 H2705 0.949 . S
C2710 C2716 1.368 . S
C2711 C2695 1.349 . S
C2711 H2703 0.950 . S
C2711 C2709 1.327 . S
C2712 C2700 1.349 . S
C2712 H2706 0.950 . S
C2712 C2713 1.327 . S
C2713 H2707 0.950 . S
C2713 C2712 1.327 . S
C2713 C2717 1.429 . S
C2714 C2697 1.574 . S
C2714 H2708 0.949 . S
C2714 C2718 1.368 . S
C2715 C2696 1.429 . S
C2715 C2709 1.429 . S
C2715 C2716 1.523 . S
C2716 C2697 1.368 . S
C2716 C2710 1.368 . S
C2716 C2715 1.523 . S
C2717 C2701 1.429 . S
C2717 C2713 1.429 . S
C2717 C2718 1.523 . S
C2718 C2702 1.368 . S
C2718 C2714 1.368 . S
C2718 C2717 1.523 . S
H2719 C2694 0.950 . S
H2720 C2696 0.950 . S
H2721 C2697 0.949 . S
H2722 C2699 0.950 . S
H2723 C2701 0.950 . S
C2724 C2725 1.349 . S
C2724 C2726 1.327 . S
C2724 H2749 0.950 . S
C2725 C2724 1.349 . S
C2725 C2741 1.349 . S
C2726 C2724 1.327 . S
C2726 C2745 1.429 . S
C2726 H2750 0.950 . S
C2727 C2744 1.574 . S
C2727 C2746 1.368 . S
C2727 H2751 0.949 . S
H2728 C2732 0.949 . S
C2729 C2730 1.349 . S
C2729 C2731 1.327 . S
C2729 H2752 0.950 . S
C2730 C2729 1.349 . S
C2730 C2742 1.349 . S
C2731 C2729 1.327 . S
C2731 C2747 1.429 . S
C2731 H2753 0.950 . S
C2732 H2728 0.949 . S
C2732 C2740 1.574 . S
C2732 C2748 1.368 . S
H2733 C2741 0.950 . S
H2734 C2739 0.950 . S
H2735 C2740 0.949 . S
H2736 C2742 0.950 . S
H2737 C2743 0.950 . S
H2738 C2744 0.949 . S
C2739 H2734 0.950 . S
C2739 C2741 1.327 . S
C2739 C2745 1.429 . S
C2740 C2732 1.574 . S
C2740 H2735 0.949 . S
C2740 C2746 1.368 1_565 S
C2741 C2725 1.349 . S
C2741 H2733 0.950 . S
C2741 C2739 1.327 . S
C2742 C2730 1.349 . S
C2742 H2736 0.950 . S
C2742 C2743 1.327 . S
C2743 H2737 0.950 . S
C2743 C2742 1.327 . S
C2743 C2747 1.429 . S
C2744 C2727 1.574 . S
C2744 H2738 0.949 . S
C2744 C2748 1.368 1_545 S
C2745 C2726 1.429 . S
C2745 C2739 1.429 . S
C2745 C2746 1.523 . S
C2746 C2727 1.368 . S
C2746 C2740 1.368 1_545 S
C2746 C2745 1.523 . S
C2747 C2731 1.429 . S
C2747 C2743 1.429 . S
C2747 C2748 1.523 . S
C2748 C2732 1.368 . S
C2748 C2744 1.368 1_565 S
C2748 C2747 1.523 . S
H2749 C2724 0.950 . S
H2750 C2726 0.950 . S
H2751 C2727 0.949 . S
H2752 C2729 0.950 . S
H2753 C2731 0.950 . S
C2754 C2755 1.349 . S
C2754 C2756 1.327 . S
C2754 H2779 0.950 . S
C2755 C2754 1.349 . S
C2755 C2771 1.349 . S
C2756 C2754 1.327 . S
C2756 C2775 1.429 . S
C2756 H2780 0.950 . S
C2757 C2774 1.574 . S
C2757 C2776 1.368 1_545 S
C2757 H2781 0.949 . S
H2758 C2762 0.949 . S
C2759 C2760 1.349 . S
C2759 C2761 1.327 . S
C2759 H2782 0.950 . S
C2760 C2759 1.349 . S
C2760 C2772 1.349 . S
C2761 C2759 1.327 . S
C2761 C2777 1.429 . S
C2761 H2783 0.950 . S
C2762 H2758 0.949 . S
C2762 C2770 1.574 . S
C2762 C2778 1.368 1_565 S
H2763 C2771 0.950 . S
H2764 C2769 0.950 . S
H2765 C2770 0.949 . S
H2766 C2772 0.950 . S
H2767 C2773 0.950 . S
H2768 C2774 0.949 . S
C2769 H2764 0.950 . S
C2769 C2771 1.327 . S
C2769 C2775 1.429 . S
C2770 C2762 1.574 . S
C2770 H2765 0.949 . S
C2770 C2776 1.368 1_556 S
C2771 C2755 1.349 . S
C2771 H2763 0.950 . S
C2771 C2769 1.327 . S
C2772 C2760 1.349 . S
C2772 H2766 0.950 . S
C2772 C2773 1.327 . S
C2773 H2767 0.950 . S
C2773 C2772 1.327 . S
C2773 C2777 1.429 . S
C2774 C2757 1.574 . S
C2774 H2768 0.949 . S
C2774 C2778 1.368 1_554 S
C2775 C2756 1.429 . S
C2775 C2769 1.429 . S
C2775 C2776 1.523 . S
C2776 C2757 1.368 1_565 S
C2776 C2770 1.368 1_554 S
C2776 C2775 1.523 . S
C2777 C2761 1.429 . S
C2777 C2773 1.429 . S
C2777 C2778 1.523 . S
C2778 C2762 1.368 1_545 S
C2778 C2774 1.368 1_556 S
C2778 C2777 1.523 . S
H2779 C2754 0.950 . S
H2780 C2756 0.950 . S
H2781 C2757 0.949 . S
H2782 C2759 0.950 . S
H2783 C2761 0.950 . S
C2784 C2785 1.349 . S
C2784 C2786 1.327 . S
C2784 H2809 0.950 . S
C2785 C2784 1.349 . S
C2785 C2801 1.349 . S
C2786 C2784 1.327 . S
C2786 C2805 1.429 . S
C2786 H2810 0.908 1_556 S
C2787 C2804 1.567 1_655 S
C2787 C2806 1.368 . S
C2787 H2811 0.949 . S
H2788 C2792 0.949 . S
C2789 C2790 1.349 . S
C2789 C2791 1.327 . S
C2789 H2812 0.950 . S
C2790 C2789 1.349 . S
C2790 C2802 1.349 . S
C2791 C2789 1.327 . S
C2791 C2807 1.429 . S
C2791 H2813 0.908 1_554 S
C2792 H2788 0.949 . S
C2792 C2800 1.567 1_455 S
C2792 C2808 1.368 . S
H2793 C2801 0.950 . S
H2794 C2799 0.950 . S
H2795 C2800 0.930 . S
H2796 C2802 0.950 . S
H2797 C2803 0.950 . S
H2798 C2804 0.930 . S
C2799 H2794 0.950 . S
C2799 C2801 1.327 . S
C2799 C2805 1.429 . S
C2800 C2792 1.567 1_655 S
C2800 H2795 0.930 . S
C2800 C2806 1.398 1_554 S
C2801 C2785 1.349 . S
C2801 H2793 0.950 . S
C2801 C2799 1.327 . S
C2802 C2790 1.349 . S
C2802 H2796 0.950 . S
C2802 C2803 1.327 . S
C2803 H2797 0.950 . S
C2803 C2802 1.327 . S
C2803 C2807 1.429 . S
C2804 C2787 1.567 1_455 S
C2804 H2798 0.930 . S
C2804 C2808 1.398 1_556 S
C2805 C2786 1.429 . S
C2805 C2799 1.429 . S
C2805 C2806 1.523 . S
C2806 C2787 1.368 . S
C2806 C2800 1.398 1_556 S
C2806 C2805 1.523 . S
C2807 C2791 1.429 . S
C2807 C2803 1.429 . S
C2807 C2808 1.523 . S
C2808 C2792 1.368 . S
C2808 C2804 1.398 1_554 S
C2808 C2807 1.523 . S
H2809 C2784 0.950 . S
H2810 C2786 0.908 1_554 S
H2811 C2787 0.949 . S
H2812 C2789 0.950 . S
H2813 C2791 0.908 1_556 S
C2814 C2815 1.349 . S
C2814 C2816 1.327 . S
C2814 H2839 0.950 . S
C2815 C2814 1.349 . S
C2815 C2831 1.349 . S
C2816 C2814 1.327 . S
C2816 C2835 1.429 . S
C2816 H2840 0.950 1_554 S
C2817 C2834 1.574 . S
C2817 C2836 1.368 . S
C2817 H2841 0.949 . S
H2818 C2822 0.949 . S
C2819 C2820 1.349 . S
C2819 C2821 1.327 . S
C2819 H2842 0.950 . S
C2820 C2819 1.349 . S
C2820 C2832 1.349 . S
C2821 C2819 1.327 . S
C2821 C2837 1.429 . S
C2821 H2843 0.950 1_556 S
C2822 H2818 0.949 . S
C2822 C2830 1.574 . S
C2822 C2838 1.368 . S
H2823 C2831 0.950 . S
H2824 C2829 0.950 . S
H2825 C2830 0.949 . S
H2826 C2832 0.950 . S
H2827 C2833 0.950 . S
H2828 C2834 0.949 . S
C2829 H2824 0.950 . S
C2829 C2831 1.327 . S
C2829 C2835 1.429 . S
C2830 C2822 1.574 . S
C2830 H2825 0.949 . S
C2830 C2836 1.368 1_556 S
C2831 C2815 1.349 . S
C2831 H2823 0.950 . S
C2831 C2829 1.327 . S
C2832 C2820 1.349 . S
C2832 H2826 0.950 . S
C2832 C2833 1.327 . S
C2833 H2827 0.950 . S
C2833 C2832 1.327 . S
C2833 C2837 1.429 . S
C2834 C2817 1.574 . S
C2834 H2828 0.949 . S
C2834 C2838 1.368 1_554 S
C2835 C2816 1.429 . S
C2835 C2829 1.429 . S
C2835 C2836 1.523 . S
C2836 C2817 1.368 . S
C2836 C2830 1.368 1_554 S
C2836 C2835 1.523 . S
C2837 C2821 1.429 . S
C2837 C2833 1.429 . S
C2837 C2838 1.523 . S
C2838 C2822 1.368 . S
C2838 C2834 1.368 1_556 S
C2838 C2837 1.523 . S
H2839 C2814 0.950 . S
H2840 C2816 0.950 1_556 S
H2841 C2817 0.949 . S
H2842 C2819 0.950 . S
H2843 C2821 0.950 1_554 S
C2844 C2845 1.349 . S
C2844 C2846 1.327 . S
C2844 H2869 0.950 . S
C2845 C2844 1.349 . S
C2845 C2861 1.349 . S
C2846 C2844 1.327 . S
C2846 C2865 1.429 . S
C2846 H2870 0.950 . S
C2847 C2864 1.574 . S
C2847 C2866 1.320 1_554 S
C2847 H2871 0.949 . S
H2848 C2852 0.939 1_556 S
C2849 C2850 1.349 . S
C2849 C2851 1.327 . S
C2849 H2872 0.950 . S
C2850 C2849 1.349 . S
C2850 C2862 1.349 . S
C2851 C2849 1.327 . S
C2851 C2867 1.429 . S
C2851 H2873 0.950 . S
C2852 H2848 0.939 1_554 S
C2852 C2860 1.574 1_554 S
C2852 C2868 1.368 . S
H2853 C2861 0.950 . S
H2854 C2859 0.950 1_554 S
H2855 C2860 0.949 . S
H2856 C2862 0.950 . S
H2857 C2863 0.950 . S
H2858 C2864 0.949 . S
C2859 H2854 0.950 1_556 S
C2859 C2861 1.327 . S
C2859 C2865 1.429 . S
C2860 C2852 1.574 1_556 S
C2860 H2855 0.949 . S
C2860 C2866 1.394 . S
C2861 C2845 1.349 . S
C2861 H2853 0.950 . S
C2861 C2859 1.327 . S
C2862 C2850 1.349 . S
C2862 H2856 0.950 . S
C2862 C2863 1.327 . S
C2863 H2857 0.950 . S
C2863 C2862 1.327 . S
C2863 C2867 1.429 . S
C2864 C2847 1.574 . S
C2864 H2858 0.949 . S
C2864 C2868 1.368 . S
C2865 C2846 1.429 . S
C2865 C2859 1.429 . S
C2865 C2866 1.555 . S
C2866 C2847 1.320 1_556 S
C2866 C2860 1.394 . S
C2866 C2865 1.555 . S
C2867 C2851 1.429 . S
C2867 C2863 1.429 . S
C2867 C2868 1.523 . S
C2868 C2852 1.368 . S
C2868 C2864 1.368 . S
C2868 C2867 1.523 . S
H2869 C2844 0.950 . S
H2870 C2846 0.950 . S
H2871 C2847 0.949 . S
H2872 C2849 0.950 . S
H2873 C2851 0.950 . S
C2874 C2875 1.349 . S
C2874 C2876 1.327 . S
C2874 H2899 0.950 . S
C2875 C2874 1.349 . S
C2875 C2891 1.349 . S
C2876 C2874 1.327 . S
C2876 C2895 1.429 . S
C2876 H2900 0.950 . S
C2877 C2894 1.574 . S
C2877 C2896 1.368 . S
C2877 H2901 0.949 . S
H2878 C2882 0.949 1_556 S
C2879 C2880 1.349 . S
C2879 C2881 1.327 . S
C2879 H2902 0.950 . S
C2880 C2879 1.349 . S
C2880 C2892 1.349 . S
C2881 C2879 1.327 . S
C2881 C2897 1.429 . S
C2881 H2903 0.950 . S
C2882 H2878 0.949 1_554 S
C2882 C2890 1.574 . S
C2882 C2898 1.364 1_554 S
H2883 C2891 0.950 . S
H2884 C2889 0.950 . S
H2885 C2890 0.949 . S
H2886 C2892 0.950 . S
H2887 C2893 0.950 . S
H2888 C2894 0.949 . S
C2889 H2884 0.950 . S
C2889 C2891 1.327 . S
C2889 C2895 1.429 . S
C2890 C2882 1.574 . S
C2890 H2885 0.949 . S
C2890 C2896 1.368 . S
C2891 C2875 1.349 . S
C2891 H2883 0.950 . S
C2891 C2889 1.327 . S
C2892 C2880 1.349 . S
C2892 H2886 0.950 . S
C2892 C2893 1.327 . S
C2893 H2887 0.950 . S
C2893 C2892 1.327 . S
C2893 C2897 1.429 . S
C2894 C2877 1.574 . S
C2894 H2888 0.949 . S
C2894 C2898 1.350 1_554 S
C2895 C2876 1.429 . S
C2895 C2889 1.429 . S
C2895 C2896 1.523 . S
C2896 C2877 1.368 . S
C2896 C2890 1.368 . S
C2896 C2895 1.523 . S
C2897 C2881 1.429 . S
C2897 C2893 1.429 . S
C2897 C2898 1.555 . S
C2898 C2882 1.364 1_556 S
C2898 C2894 1.350 1_556 S
C2898 C2897 1.555 . S
H2899 C2874 0.950 . S
H2900 C2876 0.950 . S
H2901 C2877 0.949 . S
H2902 C2879 0.950 . S
H2903 C2881 0.950 . S
C2904 C2905 1.349 . S
C2904 C2906 1.327 . S
C2904 H2929 0.950 . S
C2905 C2904 1.349 . S
C2905 C2921 1.349 . S
C2906 C2904 1.327 . S
C2906 C2925 1.429 . S
C2906 H2930 0.950 . S
C2907 C2924 1.574 . S
C2907 C2926 1.368 . S
C2907 H2931 0.949 . S
H2908 C2912 0.949 . S
C2909 C2910 1.349 . S
C2909 C2911 1.327 . S
C2909 H2932 0.950 . S
C2910 C2909 1.349 . S
C2910 C2922 1.349 . S
C2911 C2909 1.327 . S
C2911 C2927 1.429 . S
C2911 H2933 0.967 . S
C2912 H2908 0.949 . S
C2912 C2920 1.574 1_556 S
C2912 C2928 1.384 . S
H2913 C2921 0.950 . S
H2914 C2919 0.950 . S
H2915 C2920 0.949 . S
H2916 C2922 0.950 . S
H2917 C2923 0.950 . S
H2918 C2924 0.949 . S
C2919 H2914 0.950 . S
C2919 C2921 1.327 . S
C2919 C2925 1.429 . S
C2920 C2912 1.574 1_554 S
C2920 H2915 0.949 . S
C2920 C2926 1.368 . S
C2921 C2905 1.349 . S
C2921 H2913 0.950 . S
C2921 C2919 1.327 . S
C2922 C2910 1.349 . S
C2922 H2916 0.950 . S
C2922 C2923 1.327 . S
C2923 H2917 0.950 . S
C2923 C2922 1.327 . S
C2923 C2927 1.429 . S
C2924 C2907 1.574 . S
C2924 H2918 0.949 . S
C2924 C2928 1.329 1_554 S
C2925 C2906 1.429 . S
C2925 C2919 1.429 . S
C2925 C2926 1.523 . S
C2926 C2907 1.368 . S
C2926 C2920 1.368 . S
C2926 C2925 1.523 . S
C2927 C2911 1.429 . S
C2927 C2923 1.429 . S
C2927 C2928 1.555 . S
C2928 C2912 1.384 . S
C2928 C2924 1.329 1_556 S
C2928 C2927 1.555 . S
H2929 C2904 0.950 . S
H2930 C2906 0.950 . S
H2931 C2907 0.949 . S
H2932 C2909 0.950 . S
H2933 C2911 0.967 . S
C2934 C2935 1.349 . S
C2934 C2936 1.327 . S
C2934 H2959 0.950 . S
C2935 C2934 1.349 . S
C2935 C2951 1.349 . S
C2936 C2934 1.327 . S
C2936 C2955 1.429 . S
C2936 H2960 0.950 . S
C2937 C2954 1.574 . S
C2937 C2956 1.368 . S
C2937 H2961 0.949 . S
H2938 C2942 0.949 . S
C2939 C2940 1.349 . S
C2939 C2941 1.327 . S
C2939 H2962 0.950 . S
C2940 C2939 1.349 . S
C2940 C2952 1.349 . S
C2941 C2939 1.327 . S
C2941 C2957 1.429 . S
C2941 H2963 0.950 . S
C2942 H2938 0.949 . S
C2942 C2950 1.574 . S
C2942 C2958 1.368 . S
H2943 C2951 0.950 . S
H2944 C2949 0.950 . S
H2945 C2950 0.949 . S
H2946 C2952 0.950 . S
H2947 C2953 0.950 . S
H2948 C2954 0.949 . S
C2949 H2944 0.950 . S
C2949 C2951 1.327 . S
C2949 C2955 1.429 . S
C2950 C2942 1.574 . S
C2950 H2945 0.949 . S
C2950 C2956 1.368 . S
C2951 C2935 1.349 . S
C2951 H2943 0.950 . S
C2951 C2949 1.327 . S
C2952 C2940 1.349 . S
C2952 H2946 0.950 . S
C2952 C2953 1.327 . S
C2953 H2947 0.950 . S
C2953 C2952 1.327 . S
C2953 C2957 1.429 . S
C2954 C2937 1.574 . S
C2954 H2948 0.949 . S
C2954 C2958 1.368 . S
C2955 C2936 1.429 . S
C2955 C2949 1.429 . S
C2955 C2956 1.523 . S
C2956 C2937 1.368 . S
C2956 C2950 1.368 . S
C2956 C2955 1.523 . S
C2957 C2941 1.429 . S
C2957 C2953 1.429 . S
C2957 C2958 1.523 . S
C2958 C2942 1.368 . S
C2958 C2954 1.368 . S
C2958 C2957 1.523 . S
H2959 C2934 0.950 . S
H2960 C2936 0.950 . S
H2961 C2937 0.949 . S
H2962 C2939 0.950 . S
H2963 C2941 0.950 . S
C2964 C2965 1.349 . S
C2964 C2966 1.327 . S
C2964 H2989 0.950 . S
C2965 C2964 1.349 . S
C2965 C2981 1.349 . S
C2966 C2964 1.327 . S
C2966 C2985 1.429 . S
C2966 H2990 0.950 . S
C2967 C2984 1.574 . S
C2967 C2986 1.368 . S
C2967 H2991 0.949 . S
H2968 C2972 0.949 . S
C2969 C2970 1.349 . S
C2969 C2971 1.327 . S
C2969 H2992 0.950 . S
C2970 C2969 1.349 . S
C2970 C2982 1.349 . S
C2971 C2969 1.327 . S
C2971 C2987 1.429 . S
C2971 H2993 0.950 . S
C2972 H2968 0.949 . S
C2972 C2980 1.574 . S
C2972 C2988 1.368 . S
H2973 C2981 0.950 . S
H2974 C2979 0.950 . S
H2975 C2980 0.949 . S
H2976 C2982 0.950 . S
H2977 C2983 0.950 . S
H2978 C2984 0.949 . S
C2979 H2974 0.950 . S
C2979 C2981 1.327 . S
C2979 C2985 1.429 . S
C2980 C2972 1.574 . S
C2980 H2975 0.949 . S
C2980 C2986 1.368 . S
C2981 C2965 1.349 . S
C2981 H2973 0.950 . S
C2981 C2979 1.327 . S
C2982 C2970 1.349 . S
C2982 H2976 0.950 . S
C2982 C2983 1.327 . S
C2983 H2977 0.950 . S
C2983 C2982 1.327 . S
C2983 C2987 1.429 . S
C2984 C2967 1.574 . S
C2984 H2978 0.949 . S
C2984 C2988 1.368 . S
C2985 C2966 1.429 . S
C2985 C2979 1.429 . S
C2985 C2986 1.523 . S
C2986 C2967 1.368 . S
C2986 C2980 1.368 . S
C2986 C2985 1.523 . S
C2987 C2971 1.429 . S
C2987 C2983 1.429 . S
C2987 C2988 1.523 . S
C2988 C2972 1.368 . S
C2988 C2984 1.368 . S
C2988 C2987 1.523 . S
H2989 C2964 0.950 . S
H2990 C2966 0.950 . S
H2991 C2967 0.949 . S
H2992 C2969 0.950 . S
H2993 C2971 0.950 . S
C2994 C2995 1.349 . S
C2994 C2996 1.327 . S
C2994 H3019 0.950 . S
C2995 C2994 1.349 . S
C2995 C3011 1.349 . S
C2996 C2994 1.327 . S
C2996 C3015 1.429 . S
C2996 H3020 0.950 . S
C2997 C3014 1.574 . S
C2997 C3016 1.368 . S
C2997 H3021 0.949 . S
H2998 C3002 0.949 . S
C2999 C3000 1.349 . S
C2999 C3001 1.327 . S
C2999 H3022 0.950 . S
C3000 C2999 1.349 . S
C3000 C3012 1.349 . S
C3001 C2999 1.327 . S
C3001 C3017 1.429 . S
C3001 H3023 0.950 . S
C3002 H2998 0.949 . S
C3002 C3010 1.574 . S
C3002 C3018 1.368 . S
H3003 C3011 0.950 . S
H3004 C3009 0.950 . S
H3005 C3010 0.949 . S
H3006 C3012 0.950 . S
H3007 C3013 0.950 . S
H3008 C3014 0.949 . S
C3009 H3004 0.950 . S
C3009 C3011 1.327 . S
C3009 C3015 1.429 . S
C3010 C3002 1.574 . S
C3010 H3005 0.949 . S
C3010 C3016 1.368 . S
C3011 C2995 1.349 . S
C3011 H3003 0.950 . S
C3011 C3009 1.327 . S
C3012 C3000 1.349 . S
C3012 H3006 0.950 . S
C3012 C3013 1.327 . S
C3013 H3007 0.950 . S
C3013 C3012 1.327 . S
C3013 C3017 1.429 . S
C3014 C2997 1.574 . S
C3014 H3008 0.949 . S
C3014 C3018 1.368 . S
C3015 C2996 1.429 . S
C3015 C3009 1.429 . S
C3015 C3016 1.523 . S
C3016 C2997 1.368 . S
C3016 C3010 1.368 . S
C3016 C3015 1.523 . S
C3017 C3001 1.429 . S
C3017 C3013 1.429 . S
C3017 C3018 1.523 . S
C3018 C3002 1.368 . S
C3018 C3014 1.368 . S
C3018 C3017 1.523 . S
H3019 C2994 0.950 . S
H3020 C2996 0.950 . S
H3021 C2997 0.949 . S
H3022 C2999 0.950 . S
H3023 C3001 0.950 . S
C3024 C3025 1.349 . S
C3024 C3026 1.327 . S
C3024 H3049 0.950 . S
C3025 C3024 1.349 . S
C3025 C3041 1.349 . S
C3026 C3024 1.327 . S
C3026 C3045 1.429 . S
C3026 H3050 0.950 . S
C3027 C3044 1.574 1_554 S
C3027 C3046 1.381 . S
C3027 H3051 0.949 . S
H3028 C3032 0.949 . S
C3029 C3030 1.349 . S
C3029 C3031 1.327 . S
C3029 H3052 0.950 . S
C3030 C3029 1.349 . S
C3030 C3042 1.349 . S
C3031 C3029 1.327 . S
C3031 C3047 1.429 . S
C3031 H3053 0.950 . S
C3032 H3028 0.949 . S
C3032 C3040 1.574 . S
C3032 C3048 1.368 . S
H3033 C3041 0.950 . S
H3034 C3039 0.950 . S
H3035 C3040 0.949 . S
H3036 C3042 0.950 . S
H3037 C3043 0.950 . S
H3038 C3044 0.949 . S
C3039 H3034 0.950 . S
C3039 C3041 1.327 . S
C3039 C3045 1.429 . S
C3040 C3032 1.574 . S
C3040 H3035 0.949 . S
C3040 C3046 1.333 1_556 S
C3041 C3025 1.349 . S
C3041 H3033 0.950 . S
C3041 C3039 1.327 . S
C3042 C3030 1.349 . S
C3042 H3036 0.950 . S
C3042 C3043 1.327 . S
C3043 H3037 0.950 . S
C3043 C3042 1.327 . S
C3043 C3047 1.429 . S
C3044 C3027 1.574 1_556 S
C3044 H3038 0.949 . S
C3044 C3048 1.368 . S
C3045 C3026 1.429 . S
C3045 C3039 1.429 . S
C3045 C3046 1.555 . S
C3046 C3027 1.381 . S
C3046 C3040 1.333 1_554 S
C3046 C3045 1.555 . S
C3047 C3031 1.429 . S
C3047 C3043 1.429 . S
C3047 C3048 1.523 . S
C3048 C3032 1.368 . S
C3048 C3044 1.368 . S
C3048 C3047 1.523 . S
H3049 C3024 0.950 . S
H3050 C3026 0.950 . S
H3051 C3027 0.949 . S
H3052 C3029 0.950 . S
H3053 C3031 0.950 . S
C3054 C3055 1.349 . S
C3054 C3056 1.327 . S
C3054 H3079 0.950 . S
C3055 C3054 1.349 . S
C3055 C3071 1.349 . S
C3056 C3054 1.327 . S
C3056 C3075 1.429 . S
C3056 H3080 0.950 . S
C3057 C3074 1.574 . S
C3057 C3076 1.354 1_556 S
C3057 H3081 0.949 . S
H3058 C3062 0.949 . S
C3059 C3060 1.349 . S
C3059 C3061 1.327 . S
C3059 H3082 0.950 . S
C3060 C3059 1.349 . S
C3060 C3072 1.349 . S
C3061 C3059 1.327 . S
C3061 C3077 1.429 . S
C3061 H3083 0.950 . S
C3062 H3058 0.949 . S
C3062 C3070 1.574 . S
C3062 C3078 1.368 . S
H3063 C3071 0.950 . S
H3064 C3069 0.950 . S
H3065 C3070 0.949 1_554 S
H3066 C3072 0.950 . S
H3067 C3073 0.950 . S
H3068 C3074 0.949 . S
C3069 H3064 0.950 . S
C3069 C3071 1.327 . S
C3069 C3075 1.429 . S
C3070 C3062 1.574 . S
C3070 H3065 0.949 1_556 S
C3070 C3076 1.360 1_556 S
C3071 C3055 1.349 . S
C3071 H3063 0.950 . S
C3071 C3069 1.327 . S
C3072 C3060 1.349 . S
C3072 H3066 0.950 . S
C3072 C3073 1.327 . S
C3073 H3067 0.950 . S
C3073 C3072 1.327 . S
C3073 C3077 1.429 . S
C3074 C3057 1.574 . S
C3074 H3068 0.949 . S
C3074 C3078 1.368 . S
C3075 C3056 1.429 . S
C3075 C3069 1.429 . S
C3075 C3076 1.555 . S
C3076 C3057 1.354 1_554 S
C3076 C3070 1.360 1_554 S
C3076 C3075 1.555 . S
C3077 C3061 1.429 . S
C3077 C3073 1.429 . S
C3077 C3078 1.523 . S
C3078 C3062 1.368 . S
C3078 C3074 1.368 . S
C3078 C3077 1.523 . S
H3079 C3054 0.950 . S
H3080 C3056 0.950 . S
H3081 C3057 0.949 . S
H3082 C3059 0.950 . S
H3083 C3061 0.950 . S
C3084 C3085 1.349 . S
C3084 C3086 1.327 . S
C3084 H3109 0.950 . S
C3085 C3084 1.349 . S
C3085 C3101 1.349 . S
C3086 C3084 1.327 . S
C3086 C3105 1.429 . S
C3086 H3110 0.950 . S
C3087 C3104 1.574 . S
C3087 C3106 1.339 1_556 S
C3087 H3111 0.949 . S
H3088 C3092 0.949 . S
C3089 C3090 1.349 . S
C3089 C3091 1.327 . S
C3089 H3112 0.950 . S
C3090 C3089 1.349 . S
C3090 C3102 1.349 . S
C3091 C3089 1.327 . S
C3091 C3107 1.429 . S
C3091 H3113 0.950 . S
C3092 H3088 0.949 . S
C3092 C3100 1.574 1_556 S
C3092 C3108 1.368 . S
H3093 C3101 0.950 . S
H3094 C3099 0.950 . S
H3095 C3100 0.949 . S
H3096 C3102 0.950 . S
H3097 C3103 0.950 . S
H3098 C3104 0.949 . S
C3099 H3094 0.950 . S
C3099 C3101 1.327 . S
C3099 C3105 1.429 . S
C3100 C3092 1.574 1_554 S
C3100 H3095 0.949 . S
C3100 C3106 1.375 . S
C3101 C3085 1.349 . S
C3101 H3093 0.950 . S
C3101 C3099 1.327 . S
C3102 C3090 1.349 . S
C3102 H3096 0.950 . S
C3102 C3103 1.327 . S
C3103 H3097 0.950 . S
C3103 C3102 1.327 . S
C3103 C3107 1.429 . S
C3104 C3087 1.574 . S
C3104 H3098 0.949 . S
C3104 C3108 1.368 . S
C3105 C3086 1.429 . S
C3105 C3099 1.429 . S
C3105 C3106 1.555 . S
C3106 C3087 1.339 1_554 S
C3106 C3100 1.375 . S
C3106 C3105 1.555 . S
C3107 C3091 1.429 . S
C3107 C3103 1.429 . S
C3107 C3108 1.523 . S
C3108 C3092 1.368 . S
C3108 C3104 1.368 . S
C3108 C3107 1.523 . S
H3109 C3084 0.950 . S
H3110 C3086 0.950 . S
H3111 C3087 0.949 . S
H3112 C3089 0.950 . S
H3113 C3091 0.950 . S
C3114 C3115 1.349 . S
C3114 C3116 1.327 . S
C3114 H3139 0.950 . S
C3115 C3114 1.349 . S
C3115 C3131 1.349 . S
C3116 C3114 1.327 . S
C3116 C3135 1.429 . S
C3116 H3140 0.950 . S
C3117 C3134 1.574 . S
C3117 C3136 1.368 . S
C3117 H3141 0.949 . S
H3118 C3122 0.949 . S
C3119 C3120 1.349 . S
C3119 C3121 1.327 . S
C3119 H3142 0.950 . S
C3120 C3119 1.349 . S
C3120 C3132 1.349 . S
C3121 C3119 1.327 . S
C3121 C3137 1.429 . S
C3121 H3143 0.950 . S
C3122 H3118 0.949 . S
C3122 C3130 1.574 . S
C3122 C3138 1.368 . S
H3123 C3131 0.950 . S
H3124 C3129 0.950 . S
H3125 C3130 0.949 . S
H3126 C3132 0.950 . S
H3127 C3133 0.950 . S
H3128 C3134 0.949 . S
C3129 H3124 0.950 . S
C3129 C3131 1.327 . S
C3129 C3135 1.429 . S
C3130 C3122 1.574 . S
C3130 H3125 0.949 . S
C3130 C3136 1.368 . S
C3131 C3115 1.349 . S
C3131 H3123 0.950 . S
C3131 C3129 1.327 . S
C3132 C3120 1.349 . S
C3132 H3126 0.950 . S
C3132 C3133 1.327 . S
C3133 H3127 0.950 . S
C3133 C3132 1.327 . S
C3133 C3137 1.429 . S
C3134 C3117 1.574 . S
C3134 H3128 0.949 . S
C3134 C3138 1.368 . S
C3135 C3116 1.429 . S
C3135 C3129 1.429 . S
C3135 C3136 1.523 . S
C3136 C3117 1.368 . S
C3136 C3130 1.368 . S
C3136 C3135 1.523 . S
C3137 C3121 1.429 . S
C3137 C3133 1.429 . S
C3137 C3138 1.523 . S
C3138 C3122 1.368 . S
C3138 C3134 1.368 . S
C3138 C3137 1.523 . S
H3139 C3114 0.950 . S
H3140 C3116 0.950 . S
H3141 C3117 0.949 . S
H3142 C3119 0.950 . S
H3143 C3121 0.950 . S
C3144 C3145 1.349 . S
C3144 C3146 1.327 . S
C3144 H3169 0.950 . S
C3145 C3144 1.349 . S
C3145 C3161 1.349 . S
C3146 C3144 1.327 . S
C3146 C3165 1.429 . S
C3146 H3170 0.950 . S
C3147 C3164 1.574 . S
C3147 C3166 1.368 . S
C3147 H3171 0.949 . S
H3148 C3152 0.949 . S
C3149 C3150 1.349 . S
C3149 C3151 1.327 . S
C3149 H3172 0.950 . S
C3150 C3149 1.349 . S
C3150 C3162 1.349 . S
C3151 C3149 1.327 . S
C3151 C3167 1.429 . S
C3151 H3173 0.950 . S
C3152 H3148 0.949 . S
C3152 C3160 1.574 . S
C3152 C3168 1.368 . S
H3153 C3161 0.950 . S
H3154 C3159 0.950 . S
H3155 C3160 0.949 . S
H3156 C3162 0.950 . S
H3157 C3163 0.950 . S
H3158 C3164 0.949 . S
C3159 H3154 0.950 . S
C3159 C3161 1.327 . S
C3159 C3165 1.429 . S
C3160 C3152 1.574 . S
C3160 H3155 0.949 . S
C3160 C3166 1.368 . S
C3161 C3145 1.349 . S
C3161 H3153 0.950 . S
C3161 C3159 1.327 . S
C3162 C3150 1.349 . S
C3162 H3156 0.950 . S
C3162 C3163 1.327 . S
C3163 H3157 0.950 . S
C3163 C3162 1.327 . S
C3163 C3167 1.429 . S
C3164 C3147 1.574 . S
C3164 H3158 0.949 . S
C3164 C3168 1.368 . S
C3165 C3146 1.429 . S
C3165 C3159 1.429 . S
C3165 C3166 1.523 . S
C3166 C3147 1.368 . S
C3166 C3160 1.368 . S
C3166 C3165 1.523 . S
C3167 C3151 1.429 . S
C3167 C3163 1.429 . S
C3167 C3168 1.523 . S
C3168 C3152 1.368 . S
C3168 C3164 1.368 . S
C3168 C3167 1.523 . S
H3169 C3144 0.950 . S
H3170 C3146 0.950 . S
H3171 C3147 0.949 . S
H3172 C3149 0.950 . S
H3173 C3151 0.950 . S
C3174 C3175 1.349 . S
C3174 C3176 1.327 . S
C3174 H3199 0.950 . S
C3175 C3174 1.349 . S
C3175 C3191 1.349 . S
C3176 C3174 1.327 . S
C3176 C3195 1.429 . S
C3176 H3200 0.950 . S
C3177 C3194 1.574 . S
C3177 C3196 1.368 . S
C3177 H3201 0.949 . S
H3178 C3182 0.949 . S
C3179 C3180 1.349 . S
C3179 C3181 1.327 . S
C3179 H3202 0.950 . S
C3180 C3179 1.349 . S
C3180 C3192 1.349 . S
C3181 C3179 1.327 . S
C3181 C3197 1.429 . S
C3181 H3203 0.950 . S
C3182 H3178 0.949 . S
C3182 C3190 1.574 . S
C3182 C3198 1.368 . S
H3183 C3191 0.950 . S
H3184 C3189 0.950 . S
H3185 C3190 0.949 . S
H3186 C3192 0.950 . S
H3187 C3193 0.950 . S
H3188 C3194 0.949 . S
C3189 H3184 0.950 . S
C3189 C3191 1.327 . S
C3189 C3195 1.429 . S
C3190 C3182 1.574 . S
C3190 H3185 0.949 . S
C3190 C3196 1.368 . S
C3191 C3175 1.349 . S
C3191 H3183 0.950 . S
C3191 C3189 1.327 . S
C3192 C3180 1.349 . S
C3192 H3186 0.950 . S
C3192 C3193 1.327 . S
C3193 H3187 0.950 . S
C3193 C3192 1.327 . S
C3193 C3197 1.429 . S
C3194 C3177 1.574 . S
C3194 H3188 0.949 . S
C3194 C3198 1.368 . S
C3195 C3176 1.429 . S
C3195 C3189 1.429 . S
C3195 C3196 1.523 . S
C3196 C3177 1.368 . S
C3196 C3190 1.368 . S
C3196 C3195 1.523 . S
C3197 C3181 1.429 . S
C3197 C3193 1.429 . S
C3197 C3198 1.523 . S
C3198 C3182 1.368 . S
C3198 C3194 1.368 . S
C3198 C3197 1.523 . S
H3199 C3174 0.950 . S
H3200 C3176 0.950 . S
H3201 C3177 0.949 . S
H3202 C3179 0.950 . S
H3203 C3181 0.950 . S
C3204 C3205 1.349 . S
C3204 C3206 1.327 . S
C3204 H3229 0.950 . S
C3205 C3204 1.349 . S
C3205 C3221 1.349 . S
C3206 C3204 1.327 . S
C3206 C3225 1.429 . S
C3206 H3230 0.950 . S
C3207 C3224 1.574 . S
C3207 C3226 1.368 . S
C3207 H3231 0.949 . S
H3208 C3212 0.949 . S
C3209 C3210 1.349 . S
C3209 C3211 1.327 . S
C3209 H3232 0.950 . S
C3210 C3209 1.349 . S
C3210 C3222 1.349 . S
C3211 C3209 1.327 . S
C3211 C3227 1.429 . S
C3211 H3233 0.950 . S
C3212 H3208 0.949 . S
C3212 C3220 1.574 . S
C3212 C3228 1.368 . S
H3213 C3221 0.950 . S
H3214 C3219 0.950 . S
H3215 C3220 0.949 . S
H3216 C3222 0.950 . S
H3217 C3223 0.950 . S
H3218 C3224 0.949 . S
C3219 H3214 0.950 . S
C3219 C3221 1.327 . S
C3219 C3225 1.429 . S
C3220 C3212 1.574 . S
C3220 H3215 0.949 . S
C3220 C3226 1.368 . S
C3221 C3205 1.349 . S
C3221 H3213 0.950 . S
C3221 C3219 1.327 . S
C3222 C3210 1.349 . S
C3222 H3216 0.950 . S
C3222 C3223 1.327 . S
C3223 H3217 0.950 . S
C3223 C3222 1.327 . S
C3223 C3227 1.429 . S
C3224 C3207 1.574 . S
C3224 H3218 0.949 . S
C3224 C3228 1.368 . S
C3225 C3206 1.429 . S
C3225 C3219 1.429 . S
C3225 C3226 1.523 . S
C3226 C3207 1.368 . S
C3226 C3220 1.368 . S
C3226 C3225 1.523 . S
C3227 C3211 1.429 . S
C3227 C3223 1.429 . S
C3227 C3228 1.523 . S
C3228 C3212 1.368 . S
C3228 C3224 1.368 . S
C3228 C3227 1.523 . S
H3229 C3204 0.950 . S
H3230 C3206 0.950 . S
H3231 C3207 0.949 . S
H3232 C3209 0.950 . S
H3233 C3211 0.950 . S
C3234 C3235 1.349 . S
C3234 C3236 1.327 . S
C3234 H3259 0.950 . S
C3235 C3234 1.349 . S
C3235 C3251 1.349 . S
C3236 C3234 1.327 . S
C3236 C3255 1.429 . S
C3236 H3260 0.950 . S
C3237 C3254 1.574 . S
C3237 C3256 1.368 . S
C3237 H3261 0.949 . S
H3238 C3242 0.949 . S
C3239 C3240 1.349 . S
C3239 C3241 1.327 . S
C3239 H3262 0.950 . S
C3240 C3239 1.349 . S
C3240 C3252 1.349 . S
C3241 C3239 1.327 . S
C3241 C3257 1.429 . S
C3241 H3263 0.950 . S
C3242 H3238 0.949 . S
C3242 C3250 1.574 . S
C3242 C3258 1.368 . S
H3243 C3251 0.950 . S
H3244 C3249 0.950 . S
H3245 C3250 0.949 . S
H3246 C3252 0.950 . S
H3247 C3253 0.950 . S
H3248 C3254 0.949 . S
C3249 H3244 0.950 . S
C3249 C3251 1.327 . S
C3249 C3255 1.429 . S
C3250 C3242 1.574 . S
C3250 H3245 0.949 . S
C3250 C3256 1.368 . S
C3251 C3235 1.349 . S
C3251 H3243 0.950 . S
C3251 C3249 1.327 . S
C3252 C3240 1.349 . S
C3252 H3246 0.950 . S
C3252 C3253 1.327 . S
C3253 H3247 0.950 . S
C3253 C3252 1.327 . S
C3253 C3257 1.429 . S
C3254 C3237 1.574 . S
C3254 H3248 0.949 . S
C3254 C3258 1.368 . S
C3255 C3236 1.429 . S
C3255 C3249 1.429 . S
C3255 C3256 1.523 . S
C3256 C3237 1.368 . S
C3256 C3250 1.368 . S
C3256 C3255 1.523 . S
C3257 C3241 1.429 . S
C3257 C3253 1.429 . S
C3257 C3258 1.523 . S
C3258 C3242 1.368 . S
C3258 C3254 1.368 . S
C3258 C3257 1.523 . S
H3259 C3234 0.950 . S
H3260 C3236 0.950 . S
H3261 C3237 0.949 . S
H3262 C3239 0.950 . S
H3263 C3241 0.950 . S
C3264 C3265 1.349 . S
C3264 C3266 1.327 . S
C3264 H3289 0.950 . S
C3265 C3264 1.349 . S
C3265 C3281 1.349 . S
C3266 C3264 1.327 . S
C3266 C3285 1.429 . S
C3266 H3290 0.950 . S
C3267 C3284 1.574 . S
C3267 C3286 1.368 . S
C3267 H3291 0.949 . S
H3268 C3272 0.949 . S
C3269 C3270 1.349 . S
C3269 C3271 1.327 . S
C3269 H3292 0.950 . S
C3270 C3269 1.349 . S
C3270 C3282 1.349 . S
C3271 C3269 1.327 . S
C3271 C3287 1.429 . S
C3271 H3293 0.950 . S
C3272 H3268 0.949 . S
C3272 C3280 1.574 . S
C3272 C3288 1.368 . S
H3273 C3281 0.950 . S
H3274 C3279 0.950 . S
H3275 C3280 0.949 . S
H3276 C3282 0.950 . S
H3277 C3283 0.950 . S
H3278 C3284 0.949 . S
C3279 H3274 0.950 . S
C3279 C3281 1.327 . S
C3279 C3285 1.429 . S
C3280 C3272 1.574 . S
C3280 H3275 0.949 . S
C3280 C3286 1.368 . S
C3281 C3265 1.349 . S
C3281 H3273 0.950 . S
C3281 C3279 1.327 . S
C3282 C3270 1.349 . S
C3282 H3276 0.950 . S
C3282 C3283 1.327 . S
C3283 H3277 0.950 . S
C3283 C3282 1.327 . S
C3283 C3287 1.429 . S
C3284 C3267 1.574 . S
C3284 H3278 0.949 . S
C3284 C3288 1.368 . S
C3285 C3266 1.429 . S
C3285 C3279 1.429 . S
C3285 C3286 1.523 . S
C3286 C3267 1.368 . S
C3286 C3280 1.368 . S
C3286 C3285 1.523 . S
C3287 C3271 1.429 . S
C3287 C3283 1.429 . S
C3287 C3288 1.523 . S
C3288 C3272 1.368 . S
C3288 C3284 1.368 . S
C3288 C3287 1.523 . S
H3289 C3264 0.950 . S
H3290 C3266 0.950 . S
H3291 C3267 0.949 . S
H3292 C3269 0.950 . S
H3293 C3271 0.950 . S
C3294 C3295 1.349 . S
C3294 C3296 1.327 . S
C3294 H3319 0.950 . S
C3295 C3294 1.349 . S
C3295 C3311 1.349 . S
C3296 C3294 1.327 . S
C3296 C3315 1.429 . S
C3296 H3320 0.950 . S
C3297 C3314 1.574 . S
C3297 C3316 1.368 . S
C3297 H3321 0.949 . S
H3298 C3302 0.949 . S
C3299 C3300 1.349 . S
C3299 C3301 1.327 . S
C3299 H3322 0.950 . S
C3300 C3299 1.349 . S
C3300 C3312 1.349 . S
C3301 C3299 1.327 . S
C3301 C3317 1.429 . S
C3301 H3323 0.950 . S
C3302 H3298 0.949 . S
C3302 C3310 1.574 . S
C3302 C3318 1.368 . S
H3303 C3311 0.950 . S
H3304 C3309 0.950 . S
H3305 C3310 0.949 . S
H3306 C3312 0.950 . S
H3307 C3313 0.950 . S
H3308 C3314 0.949 . S
C3309 H3304 0.950 . S
C3309 C3311 1.327 . S
C3309 C3315 1.429 . S
C3310 C3302 1.574 . S
C3310 H3305 0.949 . S
C3310 C3316 1.368 . S
C3311 C3295 1.349 . S
C3311 H3303 0.950 . S
C3311 C3309 1.327 . S
C3312 C3300 1.349 . S
C3312 H3306 0.950 . S
C3312 C3313 1.327 . S
C3313 H3307 0.950 . S
C3313 C3312 1.327 . S
C3313 C3317 1.429 . S
C3314 C3297 1.574 . S
C3314 H3308 0.949 . S
C3314 C3318 1.368 . S
C3315 C3296 1.429 . S
C3315 C3309 1.429 . S
C3315 C3316 1.523 . S
C3316 C3297 1.368 . S
C3316 C3310 1.368 . S
C3316 C3315 1.523 . S
C3317 C3301 1.429 . S
C3317 C3313 1.429 . S
C3317 C3318 1.523 . S
C3318 C3302 1.368 . S
C3318 C3314 1.368 . S
C3318 C3317 1.523 . S
H3319 C3294 0.950 . S
H3320 C3296 0.950 . S
H3321 C3297 0.949 . S
H3322 C3299 0.950 . S
H3323 C3301 0.950 . S
C3324 C3325 1.349 . S
C3324 C3326 1.327 . S
C3324 H3349 0.950 . S
C3325 C3324 1.349 . S
C3325 C3341 1.349 . S
C3326 C3324 1.327 . S
C3326 C3345 1.429 . S
C3326 H3350 0.950 . S
C3327 C3344 1.574 . S
C3327 C3346 1.368 . S
C3327 H3351 0.949 . S
H3328 C3332 0.949 . S
C3329 C3330 1.349 . S
C3329 C3331 1.327 . S
C3329 H3352 0.950 . S
C3330 C3329 1.349 . S
C3330 C3342 1.349 . S
C3331 C3329 1.327 . S
C3331 C3347 1.429 . S
C3331 H3353 0.950 . S
C3332 H3328 0.949 . S
C3332 C3340 1.574 . S
C3332 C3348 1.368 . S
H3333 C3341 0.950 . S
H3334 C3339 0.950 . S
H3335 C3340 0.949 . S
H3336 C3342 0.950 . S
H3337 C3343 0.950 . S
H3338 C3344 0.949 . S
C3339 H3334 0.950 . S
C3339 C3341 1.327 . S
C3339 C3345 1.429 . S
C3340 C3332 1.574 . S
C3340 H3335 0.949 . S
C3340 C3346 1.368 . S
C3341 C3325 1.349 . S
C3341 H3333 0.950 . S
C3341 C3339 1.327 . S
C3342 C3330 1.349 . S
C3342 H3336 0.950 . S
C3342 C3343 1.327 . S
C3343 H3337 0.950 . S
C3343 C3342 1.327 . S
C3343 C3347 1.429 . S
C3344 C3327 1.574 . S
C3344 H3338 0.949 . S
C3344 C3348 1.368 . S
C3345 C3326 1.429 . S
C3345 C3339 1.429 . S
C3345 C3346 1.523 . S
C3346 C3327 1.368 . S
C3346 C3340 1.368 . S
C3346 C3345 1.523 . S
C3347 C3331 1.429 . S
C3347 C3343 1.429 . S
C3347 C3348 1.523 . S
C3348 C3332 1.368 . S
C3348 C3344 1.368 . S
C3348 C3347 1.523 . S
H3349 C3324 0.950 . S
H3350 C3326 0.950 . S
H3351 C3327 0.949 . S
H3352 C3329 0.950 . S
H3353 C3331 0.950 . S
C3354 C3355 1.349 . S
C3354 C3356 1.327 . S
C3354 H3379 0.950 . S
C3355 C3354 1.349 . S
C3355 C3371 1.349 . S
C3356 C3354 1.327 . S
C3356 C3375 1.429 . S
C3356 H3380 0.950 . S
C3357 C3374 1.574 . S
C3357 C3376 1.368 . S
C3357 H3381 0.949 . S
H3358 C3362 0.949 . S
C3359 C3360 1.349 . S
C3359 C3361 1.327 . S
C3359 H3382 0.950 . S
C3360 C3359 1.349 . S
C3360 C3372 1.349 . S
C3361 C3359 1.327 . S
C3361 C3377 1.429 . S
C3361 H3383 0.950 . S
C3362 H3358 0.949 . S
C3362 C3370 1.574 . S
C3362 C3378 1.368 . S
H3363 C3371 0.950 . S
H3364 C3369 0.950 . S
H3365 C3370 0.949 . S
H3366 C3372 0.950 . S
H3367 C3373 0.950 . S
H3368 C3374 0.949 . S
C3369 H3364 0.950 . S
C3369 C3371 1.327 . S
C3369 C3375 1.429 . S
C3370 C3362 1.574 . S
C3370 H3365 0.949 . S
C3370 C3376 1.368 . S
C3371 C3355 1.349 . S
C3371 H3363 0.950 . S
C3371 C3369 1.327 . S
C3372 C3360 1.349 . S
C3372 H3366 0.950 . S
C3372 C3373 1.327 . S
C3373 H3367 0.950 . S
C3373 C3372 1.327 . S
C3373 C3377 1.429 . S
C3374 C3357 1.574 . S
C3374 H3368 0.949 . S
C3374 C3378 1.368 . S
C3375 C3356 1.429 . S
C3375 C3369 1.429 . S
C3375 C3376 1.523 . S
C3376 C3357 1.368 . S
C3376 C3370 1.368 . S
C3376 C3375 1.523 . S
C3377 C3361 1.429 . S
C3377 C3373 1.429 . S
C3377 C3378 1.523 . S
C3378 C3362 1.368 . S
C3378 C3374 1.368 . S
C3378 C3377 1.523 . S
H3379 C3354 0.950 . S
H3380 C3356 0.950 . S
H3381 C3357 0.949 . S
H3382 C3359 0.950 . S
H3383 C3361 0.950 . S
C3384 C3385 1.349 . S
C3384 C3386 1.327 . S
C3384 H3409 0.950 . S
C3385 C3384 1.349 . S
C3385 C3401 1.349 . S
C3386 C3384 1.327 . S
C3386 C3405 1.429 . S
C3386 H3410 0.950 . S
C3387 C3404 1.574 . S
C3387 C3406 1.368 . S
C3387 H3411 0.949 . S
H3388 C3392 0.949 . S
C3389 C3390 1.349 . S
C3389 C3391 1.327 . S
C3389 H3412 0.950 . S
C3390 C3389 1.349 . S
C3390 C3402 1.349 . S
C3391 C3389 1.327 . S
C3391 C3407 1.429 . S
C3391 H3413 0.950 . S
C3392 H3388 0.949 . S
C3392 C3400 1.574 . S
C3392 C3408 1.368 . S
H3393 C3401 0.950 . S
H3394 C3399 0.950 . S
H3395 C3400 0.949 . S
H3396 C3402 0.950 . S
H3397 C3403 0.950 . S
H3398 C3404 0.949 . S
C3399 H3394 0.950 . S
C3399 C3401 1.327 . S
C3399 C3405 1.429 . S
C3400 C3392 1.574 . S
C3400 H3395 0.949 . S
C3400 C3406 1.368 . S
C3401 C3385 1.349 . S
C3401 H3393 0.950 . S
C3401 C3399 1.327 . S
C3402 C3390 1.349 . S
C3402 H3396 0.950 . S
C3402 C3403 1.327 . S
C3403 H3397 0.950 . S
C3403 C3402 1.327 . S
C3403 C3407 1.429 . S
C3404 C3387 1.574 . S
C3404 H3398 0.949 . S
C3404 C3408 1.368 . S
C3405 C3386 1.429 . S
C3405 C3399 1.429 . S
C3405 C3406 1.523 . S
C3406 C3387 1.368 . S
C3406 C3400 1.368 . S
C3406 C3405 1.523 . S
C3407 C3391 1.429 . S
C3407 C3403 1.429 . S
C3407 C3408 1.523 . S
C3408 C3392 1.368 . S
C3408 C3404 1.368 . S
C3408 C3407 1.523 . S
H3409 C3384 0.950 . S
H3410 C3386 0.950 . S
H3411 C3387 0.949 . S
H3412 C3389 0.950 . S
H3413 C3391 0.950 . S
C3414 C3415 1.349 . S
C3414 C3416 1.327 . S
C3414 H3439 0.950 . S
C3415 C3414 1.349 . S
C3415 C3431 1.349 . S
C3416 C3414 1.327 . S
C3416 C3435 1.429 . S
C3416 H3440 0.950 . S
C3417 C3434 1.574 . S
C3417 C3436 1.368 . S
C3417 H3441 0.949 . S
H3418 C3422 0.949 . S
C3419 C3420 1.349 . S
C3419 C3421 1.327 . S
C3419 H3442 0.950 . S
C3420 C3419 1.349 . S
C3420 C3432 1.349 . S
C3421 C3419 1.327 . S
C3421 C3437 1.429 . S
C3421 H3443 0.950 . S
C3422 H3418 0.949 . S
C3422 C3430 1.574 . S
C3422 C3438 1.368 . S
H3423 C3431 0.950 . S
H3424 C3429 0.950 . S
H3425 C3430 0.949 . S
H3426 C3432 0.950 . S
H3427 C3433 0.950 . S
H3428 C3434 0.949 . S
C3429 H3424 0.950 . S
C3429 C3431 1.327 . S
C3429 C3435 1.429 . S
C3430 C3422 1.574 . S
C3430 H3425 0.949 . S
C3430 C3436 1.368 . S
C3431 C3415 1.349 . S
C3431 H3423 0.950 . S
C3431 C3429 1.327 . S
C3432 C3420 1.349 . S
C3432 H3426 0.950 . S
C3432 C3433 1.327 . S
C3433 H3427 0.950 . S
C3433 C3432 1.327 . S
C3433 C3437 1.429 . S
C3434 C3417 1.574 . S
C3434 H3428 0.949 . S
C3434 C3438 1.368 . S
C3435 C3416 1.429 . S
C3435 C3429 1.429 . S
C3435 C3436 1.523 . S
C3436 C3417 1.368 . S
C3436 C3430 1.368 . S
C3436 C3435 1.523 . S
C3437 C3421 1.429 . S
C3437 C3433 1.429 . S
C3437 C3438 1.523 . S
C3438 C3422 1.368 . S
C3438 C3434 1.368 . S
C3438 C3437 1.523 . S
H3439 C3414 0.950 . S
H3440 C3416 0.950 . S
H3441 C3417 0.949 . S
H3442 C3419 0.950 . S
H3443 C3421 0.950 . S
C3444 C3445 1.349 . S
C3444 C3446 1.327 . S
C3444 H3469 0.950 . S
C3445 C3444 1.349 . S
C3445 C3461 1.349 . S
C3446 C3444 1.327 . S
C3446 C3465 1.429 . S
C3446 H3470 0.950 . S
C3447 C3464 1.574 . S
C3447 C3466 1.368 . S
C3447 H3471 0.949 . S
H3448 C3452 0.949 . S
C3449 C3450 1.349 . S
C3449 C3451 1.327 . S
C3449 H3472 0.950 . S
C3450 C3449 1.349 . S
C3450 C3462 1.349 . S
C3451 C3449 1.327 . S
C3451 C3467 1.429 . S
C3451 H3473 0.950 . S
C3452 H3448 0.949 . S
C3452 C3460 1.574 . S
C3452 C3468 1.368 . S
H3453 C3461 0.950 . S
H3454 C3459 0.950 . S
H3455 C3460 0.949 . S
H3456 C3462 0.950 . S
H3457 C3463 0.950 . S
H3458 C3464 0.949 . S
C3459 H3454 0.950 . S
C3459 C3461 1.327 . S
C3459 C3465 1.429 . S
C3460 C3452 1.574 . S
C3460 H3455 0.949 . S
C3460 C3466 1.368 . S
C3461 C3445 1.349 . S
C3461 H3453 0.950 . S
C3461 C3459 1.327 . S
C3462 C3450 1.349 . S
C3462 H3456 0.950 . S
C3462 C3463 1.327 . S
C3463 H3457 0.950 . S
C3463 C3462 1.327 . S
C3463 C3467 1.429 . S
C3464 C3447 1.574 . S
C3464 H3458 0.949 . S
C3464 C3468 1.368 . S
C3465 C3446 1.429 . S
C3465 C3459 1.429 . S
C3465 C3466 1.523 . S
C3466 C3447 1.368 . S
C3466 C3460 1.368 . S
C3466 C3465 1.523 . S
C3467 C3451 1.429 . S
C3467 C3463 1.429 . S
C3467 C3468 1.523 . S
C3468 C3452 1.368 . S
C3468 C3464 1.368 . S
C3468 C3467 1.523 . S
H3469 C3444 0.950 . S
H3470 C3446 0.950 . S
H3471 C3447 0.949 . S
H3472 C3449 0.950 . S
H3473 C3451 0.950 . S
C3474 C3475 1.349 . S
C3474 C3476 1.327 . S
C3474 H3499 0.950 . S
C3475 C3474 1.349 . S
C3475 C3491 1.349 . S
C3476 C3474 1.327 . S
C3476 C3495 1.429 . S
C3476 H3500 0.950 . S
C3477 C3494 1.574 . S
C3477 C3496 1.368 . S
C3477 H3501 0.949 . S
H3478 C3482 0.949 . S
C3479 C3480 1.349 . S
C3479 C3481 1.327 . S
C3479 H3502 0.950 . S
C3480 C3479 1.349 . S
C3480 C3492 1.349 . S
C3481 C3479 1.327 . S
C3481 C3497 1.429 . S
C3481 H3503 0.950 . S
C3482 H3478 0.949 . S
C3482 C3490 1.574 . S
C3482 C3498 1.368 . S
H3483 C3491 0.950 . S
H3484 C3489 0.950 . S
H3485 C3490 0.949 . S
H3486 C3492 0.950 . S
H3487 C3493 0.950 . S
H3488 C3494 0.949 . S
C3489 H3484 0.950 . S
C3489 C3491 1.327 . S
C3489 C3495 1.429 . S
C3490 C3482 1.574 . S
C3490 H3485 0.949 . S
C3490 C3496 1.368 . S
C3491 C3475 1.349 . S
C3491 H3483 0.950 . S
C3491 C3489 1.327 . S
C3492 C3480 1.349 . S
C3492 H3486 0.950 . S
C3492 C3493 1.327 . S
C3493 H3487 0.950 . S
C3493 C3492 1.327 . S
C3493 C3497 1.429 . S
C3494 C3477 1.574 . S
C3494 H3488 0.949 . S
C3494 C3498 1.368 . S
C3495 C3476 1.429 . S
C3495 C3489 1.429 . S
C3495 C3496 1.523 . S
C3496 C3477 1.368 . S
C3496 C3490 1.368 . S
C3496 C3495 1.523 . S
C3497 C3481 1.429 . S
C3497 C3493 1.429 . S
C3497 C3498 1.523 . S
C3498 C3482 1.368 . S
C3498 C3494 1.368 . S
C3498 C3497 1.523 . S
H3499 C3474 0.950 . S
H3500 C3476 0.950 . S
H3501 C3477 0.949 . S
H3502 C3479 0.950 . S
H3503 C3481 0.950 . S
C3504 C3505 1.349 . S
C3504 C3506 1.327 . S
C3504 H3529 0.950 . S
C3505 C3504 1.349 . S
C3505 C3521 1.349 . S
C3506 C3504 1.327 . S
C3506 C3525 1.429 . S
C3506 H3530 0.950 . S
C3507 C3524 1.574 . S
C3507 C3526 1.368 . S
C3507 H3531 0.949 . S
H3508 C3512 0.949 . S
C3509 C3510 1.349 . S
C3509 C3511 1.327 . S
C3509 H3532 0.950 . S
C3510 C3509 1.349 . S
C3510 C3522 1.349 . S
C3511 C3509 1.327 . S
C3511 C3527 1.429 . S
C3511 H3533 0.950 . S
C3512 H3508 0.949 . S
C3512 C3520 1.574 . S
C3512 C3528 1.368 . S
H3513 C3521 0.950 . S
H3514 C3519 0.950 . S
H3515 C3520 0.949 . S
H3516 C3522 0.950 . S
H3517 C3523 0.950 . S
H3518 C3524 0.949 . S
C3519 H3514 0.950 . S
C3519 C3521 1.327 . S
C3519 C3525 1.429 . S
C3520 C3512 1.574 . S
C3520 H3515 0.949 . S
C3520 C3526 1.368 . S
C3521 C3505 1.349 . S
C3521 H3513 0.950 . S
C3521 C3519 1.327 . S
C3522 C3510 1.349 . S
C3522 H3516 0.950 . S
C3522 C3523 1.327 . S
C3523 H3517 0.950 . S
C3523 C3522 1.327 . S
C3523 C3527 1.429 . S
C3524 C3507 1.574 . S
C3524 H3518 0.949 . S
C3524 C3528 1.368 . S
C3525 C3506 1.429 . S
C3525 C3519 1.429 . S
C3525 C3526 1.523 . S
C3526 C3507 1.368 . S
C3526 C3520 1.368 . S
C3526 C3525 1.523 . S
C3527 C3511 1.429 . S
C3527 C3523 1.429 . S
C3527 C3528 1.523 . S
C3528 C3512 1.368 . S
C3528 C3524 1.368 . S
C3528 C3527 1.523 . S
H3529 C3504 0.950 . S
H3530 C3506 0.950 . S
H3531 C3507 0.949 . S
H3532 C3509 0.950 . S
H3533 C3511 0.950 . S
C3534 C3535 1.349 . S
C3534 C3536 1.327 . S
C3534 H3559 0.950 . S
C3535 C3534 1.349 . S
C3535 C3551 1.349 . S
C3536 C3534 1.327 . S
C3536 C3555 1.429 . S
C3536 H3560 0.950 . S
C3537 C3554 1.574 . S
C3537 C3556 1.368 . S
C3537 H3561 0.949 . S
H3538 C3542 0.949 . S
C3539 C3540 1.349 . S
C3539 C3541 1.327 . S
C3539 H3562 0.950 . S
C3540 C3539 1.349 . S
C3540 C3552 1.349 . S
C3541 C3539 1.327 . S
C3541 C3557 1.429 . S
C3541 H3563 0.950 . S
C3542 H3538 0.949 . S
C3542 C3550 1.574 . S
C3542 C3558 1.368 . S
H3543 C3551 0.950 . S
H3544 C3549 0.950 . S
H3545 C3550 0.949 . S
H3546 C3552 0.950 . S
H3547 C3553 0.950 . S
H3548 C3554 0.949 . S
C3549 H3544 0.950 . S
C3549 C3551 1.327 . S
C3549 C3555 1.429 . S
C3550 C3542 1.574 . S
C3550 H3545 0.949 . S
C3550 C3556 1.368 . S
C3551 C3535 1.349 . S
C3551 H3543 0.950 . S
C3551 C3549 1.327 . S
C3552 C3540 1.349 . S
C3552 H3546 0.950 . S
C3552 C3553 1.327 . S
C3553 H3547 0.950 . S
C3553 C3552 1.327 . S
C3553 C3557 1.429 . S
C3554 C3537 1.574 . S
C3554 H3548 0.949 . S
C3554 C3558 1.368 . S
C3555 C3536 1.429 . S
C3555 C3549 1.429 . S
C3555 C3556 1.523 . S
C3556 C3537 1.368 . S
C3556 C3550 1.368 . S
C3556 C3555 1.523 . S
C3557 C3541 1.429 . S
C3557 C3553 1.429 . S
C3557 C3558 1.523 . S
C3558 C3542 1.368 . S
C3558 C3554 1.368 . S
C3558 C3557 1.523 . S
H3559 C3534 0.950 . S
H3560 C3536 0.950 . S
H3561 C3537 0.949 . S
H3562 C3539 0.950 . S
H3563 C3541 0.950 . S
C3564 C3565 1.349 . S
C3564 C3566 1.327 . S
C3564 H3589 0.950 . S
C3565 C3564 1.349 . S
C3565 C3581 1.349 . S
C3566 C3564 1.327 . S
C3566 C3585 1.429 . S
C3566 H3590 0.950 . S
C3567 C3584 1.574 . S
C3567 C3586 1.368 . S
C3567 H3591 0.949 . S
H3568 C3572 0.949 . S
C3569 C3570 1.349 . S
C3569 C3571 1.327 . S
C3569 H3592 0.950 . S
C3570 C3569 1.349 . S
C3570 C3582 1.349 . S
C3571 C3569 1.327 . S
C3571 C3587 1.429 . S
C3571 H3593 0.950 . S
C3572 H3568 0.949 . S
C3572 C3580 1.574 . S
C3572 C3588 1.368 . S
H3573 C3581 0.950 . S
H3574 C3579 0.950 . S
H3575 C3580 0.949 . S
H3576 C3582 0.950 . S
H3577 C3583 0.950 . S
H3578 C3584 0.949 . S
C3579 H3574 0.950 . S
C3579 C3581 1.327 . S
C3579 C3585 1.429 . S
C3580 C3572 1.574 . S
C3580 H3575 0.949 . S
C3580 C3586 1.368 . S
C3581 C3565 1.349 . S
C3581 H3573 0.950 . S
C3581 C3579 1.327 . S
C3582 C3570 1.349 . S
C3582 H3576 0.950 . S
C3582 C3583 1.327 . S
C3583 H3577 0.950 . S
C3583 C3582 1.327 . S
C3583 C3587 1.429 . S
C3584 C3567 1.574 . S
C3584 H3578 0.949 . S
C3584 C3588 1.368 . S
C3585 C3566 1.429 . S
C3585 C3579 1.429 . S
C3585 C3586 1.523 . S
C3586 C3567 1.368 . S
C3586 C3580 1.368 . S
C3586 C3585 1.523 . S
C3587 C3571 1.429 . S
C3587 C3583 1.429 . S
C3587 C3588 1.523 . S
C3588 C3572 1.368 . S
C3588 C3584 1.368 . S
C3588 C3587 1.523 . S
H3589 C3564 0.950 . S
H3590 C3566 0.950 . S
H3591 C3567 0.949 . S
H3592 C3569 0.950 . S
H3593 C3571 0.950 . S
C3594 C3595 1.349 . S
C3594 C3596 1.327 . S
C3594 H3619 0.950 . S
C3595 C3594 1.349 . S
C3595 C3611 1.349 . S
C3596 C3594 1.327 . S
C3596 C3615 1.429 . S
C3596 H3620 0.950 . S
C3597 C3614 1.574 . S
C3597 C3616 1.368 . S
C3597 H3621 0.949 . S
H3598 C3602 0.949 . S
C3599 C3600 1.349 . S
C3599 C3601 1.327 . S
C3599 H3622 0.950 . S
C3600 C3599 1.349 . S
C3600 C3612 1.349 . S
C3601 C3599 1.327 . S
C3601 C3617 1.429 . S
C3601 H3623 0.950 . S
C3602 H3598 0.949 . S
C3602 C3610 1.574 . S
C3602 C3618 1.368 . S
H3603 C3611 0.950 . S
H3604 C3609 0.950 . S
H3605 C3610 0.949 . S
H3606 C3612 0.950 . S
H3607 C3613 0.950 . S
H3608 C3614 0.949 . S
C3609 H3604 0.950 . S
C3609 C3611 1.327 . S
C3609 C3615 1.429 . S
C3610 C3602 1.574 . S
C3610 H3605 0.949 . S
C3610 C3616 1.368 . S
C3611 C3595 1.349 . S
C3611 H3603 0.950 . S
C3611 C3609 1.327 . S
C3612 C3600 1.349 . S
C3612 H3606 0.950 . S
C3612 C3613 1.327 . S
C3613 H3607 0.950 . S
C3613 C3612 1.327 . S
C3613 C3617 1.429 . S
C3614 C3597 1.574 . S
C3614 H3608 0.949 . S
C3614 C3618 1.368 . S
C3615 C3596 1.429 . S
C3615 C3609 1.429 . S
C3615 C3616 1.523 . S
C3616 C3597 1.368 . S
C3616 C3610 1.368 . S
C3616 C3615 1.523 . S
C3617 C3601 1.429 . S
C3617 C3613 1.429 . S
C3617 C3618 1.523 . S
C3618 C3602 1.368 . S
C3618 C3614 1.368 . S
C3618 C3617 1.523 . S
H3619 C3594 0.950 . S
H3620 C3596 0.950 . S
H3621 C3597 0.949 . S
H3622 C3599 0.950 . S
H3623 C3601 0.950 . S
C3624 C3625 1.349 . S
C3624 C3626 1.327 . S
C3624 H3649 0.950 . S
C3625 C3624 1.349 . S
C3625 C3641 1.349 . S
C3626 C3624 1.327 . S
C3626 C3645 1.429 . S
C3626 H3650 0.950 . S
C3627 C3644 1.574 . S
C3627 C3646 1.368 . S
C3627 H3651 0.949 . S
H3628 C3632 0.949 . S
C3629 C3630 1.349 . S
C3629 C3631 1.327 . S
C3629 H3652 0.950 . S
C3630 C3629 1.349 . S
C3630 C3642 1.349 . S
C3631 C3629 1.327 . S
C3631 C3647 1.429 . S
C3631 H3653 0.950 . S
C3632 H3628 0.949 . S
C3632 C3640 1.574 . S
C3632 C3648 1.368 . S
H3633 C3641 0.950 . S
H3634 C3639 0.950 . S
H3635 C3640 0.949 . S
H3636 C3642 0.950 . S
H3637 C3643 0.950 . S
H3638 C3644 0.949 . S
C3639 H3634 0.950 . S
C3639 C3641 1.327 . S
C3639 C3645 1.429 . S
C3640 C3632 1.574 . S
C3640 H3635 0.949 . S
C3640 C3646 1.368 . S
C3641 C3625 1.349 . S
C3641 H3633 0.950 . S
C3641 C3639 1.327 . S
C3642 C3630 1.349 . S
C3642 H3636 0.950 . S
C3642 C3643 1.327 . S
C3643 H3637 0.950 . S
C3643 C3642 1.327 . S
C3643 C3647 1.429 . S
C3644 C3627 1.574 . S
C3644 H3638 0.949 . S
C3644 C3648 1.368 . S
C3645 C3626 1.429 . S
C3645 C3639 1.429 . S
C3645 C3646 1.523 . S
C3646 C3627 1.368 . S
C3646 C3640 1.368 . S
C3646 C3645 1.523 . S
C3647 C3631 1.429 . S
C3647 C3643 1.429 . S
C3647 C3648 1.523 . S
C3648 C3632 1.368 . S
C3648 C3644 1.368 . S
C3648 C3647 1.523 . S
H3649 C3624 0.950 . S
H3650 C3626 0.950 . S
H3651 C3627 0.949 . S
H3652 C3629 0.950 . S
H3653 C3631 0.950 . S
C3654 C3655 1.349 . S
C3654 C3656 1.327 . S
C3654 H3679 0.950 . S
C3655 C3654 1.349 . S
C3655 C3671 1.349 . S
C3656 C3654 1.327 . S
C3656 C3675 1.429 . S
C3656 H3680 0.950 . S
C3657 C3674 1.574 . S
C3657 C3676 1.368 . S
C3657 H3681 0.949 . S
H3658 C3662 0.949 . S
C3659 C3660 1.349 . S
C3659 C3661 1.327 . S
C3659 H3682 0.950 . S
C3660 C3659 1.349 . S
C3660 C3672 1.349 . S
C3661 C3659 1.327 . S
C3661 C3677 1.429 . S
C3661 H3683 0.950 . S
C3662 H3658 0.949 . S
C3662 C3670 1.574 . S
C3662 C3678 1.368 . S
H3663 C3671 0.950 . S
H3664 C3669 0.950 . S
H3665 C3670 0.949 . S
H3666 C3672 0.950 . S
H3667 C3673 0.950 . S
H3668 C3674 0.949 . S
C3669 H3664 0.950 . S
C3669 C3671 1.327 . S
C3669 C3675 1.429 . S
C3670 C3662 1.574 . S
C3670 H3665 0.949 . S
C3670 C3676 1.368 . S
C3671 C3655 1.349 . S
C3671 H3663 0.950 . S
C3671 C3669 1.327 . S
C3672 C3660 1.349 . S
C3672 H3666 0.950 . S
C3672 C3673 1.327 . S
C3673 H3667 0.950 . S
C3673 C3672 1.327 . S
C3673 C3677 1.429 . S
C3674 C3657 1.574 . S
C3674 H3668 0.949 . S
C3674 C3678 1.368 . S
C3675 C3656 1.429 . S
C3675 C3669 1.429 . S
C3675 C3676 1.523 . S
C3676 C3657 1.368 . S
C3676 C3670 1.368 . S
C3676 C3675 1.523 . S
C3677 C3661 1.429 . S
C3677 C3673 1.429 . S
C3677 C3678 1.523 . S
C3678 C3662 1.368 . S
C3678 C3674 1.368 . S
C3678 C3677 1.523 . S
H3679 C3654 0.950 . S
H3680 C3656 0.950 . S
H3681 C3657 0.949 . S
H3682 C3659 0.950 . S
H3683 C3661 0.950 . S
C3684 C3685 1.349 . S
C3684 C3686 1.327 . S
C3684 H3709 0.950 . S
C3685 C3684 1.349 . S
C3685 C3701 1.349 . S
C3686 C3684 1.327 . S
C3686 C3705 1.429 . S
C3686 H3710 0.950 . S
C3687 C3704 1.574 . S
C3687 C3706 1.368 . S
C3687 H3711 0.949 . S
H3688 C3692 0.949 . S
C3689 C3690 1.349 . S
C3689 C3691 1.327 . S
C3689 H3712 0.950 . S
C3690 C3689 1.349 . S
C3690 C3702 1.349 . S
C3691 C3689 1.327 . S
C3691 C3707 1.429 . S
C3691 H3713 0.950 . S
C3692 H3688 0.949 . S
C3692 C3700 1.574 . S
C3692 C3708 1.368 . S
H3693 C3701 0.950 . S
H3694 C3699 0.950 . S
H3695 C3700 0.949 . S
H3696 C3702 0.950 . S
H3697 C3703 0.950 . S
H3698 C3704 0.949 . S
C3699 H3694 0.950 . S
C3699 C3701 1.327 . S
C3699 C3705 1.429 . S
C3700 C3692 1.574 . S
C3700 H3695 0.949 . S
C3700 C3706 1.368 . S
C3701 C3685 1.349 . S
C3701 H3693 0.950 . S
C3701 C3699 1.327 . S
C3702 C3690 1.349 . S
C3702 H3696 0.950 . S
C3702 C3703 1.327 . S
C3703 H3697 0.950 . S
C3703 C3702 1.327 . S
C3703 C3707 1.429 . S
C3704 C3687 1.574 . S
C3704 H3698 0.949 . S
C3704 C3708 1.368 . S
C3705 C3686 1.429 . S
C3705 C3699 1.429 . S
C3705 C3706 1.523 . S
C3706 C3687 1.368 . S
C3706 C3700 1.368 . S
C3706 C3705 1.523 . S
C3707 C3691 1.429 . S
C3707 C3703 1.429 . S
C3707 C3708 1.523 . S
C3708 C3692 1.368 . S
C3708 C3704 1.368 . S
C3708 C3707 1.523 . S
H3709 C3684 0.950 . S
H3710 C3686 0.950 . S
H3711 C3687 0.949 . S
H3712 C3689 0.950 . S
H3713 C3691 0.950 . S
C3714 C3715 1.349 . S
C3714 C3716 1.327 . S
C3714 H3739 0.950 . S
C3715 C3714 1.349 . S
C3715 C3731 1.349 . S
C3716 C3714 1.327 . S
C3716 C3735 1.429 . S
C3716 H3740 0.950 . S
C3717 C3734 1.574 . S
C3717 C3736 1.368 . S
C3717 H3741 0.949 . S
H3718 C3722 0.949 . S
C3719 C3720 1.349 . S
C3719 C3721 1.327 . S
C3719 H3742 0.950 . S
C3720 C3719 1.349 . S
C3720 C3732 1.349 . S
C3721 C3719 1.327 . S
C3721 C3737 1.429 . S
C3721 H3743 0.950 . S
C3722 H3718 0.949 . S
C3722 C3730 1.574 . S
C3722 C3738 1.368 . S
H3723 C3731 0.950 . S
H3724 C3729 0.950 . S
H3725 C3730 0.949 . S
H3726 C3732 0.950 . S
H3727 C3733 0.950 . S
H3728 C3734 0.949 . S
C3729 H3724 0.950 . S
C3729 C3731 1.327 . S
C3729 C3735 1.429 . S
C3730 C3722 1.574 . S
C3730 H3725 0.949 . S
C3730 C3736 1.368 . S
C3731 C3715 1.349 . S
C3731 H3723 0.950 . S
C3731 C3729 1.327 . S
C3732 C3720 1.349 . S
C3732 H3726 0.950 . S
C3732 C3733 1.327 . S
C3733 H3727 0.950 . S
C3733 C3732 1.327 . S
C3733 C3737 1.429 . S
C3734 C3717 1.574 . S
C3734 H3728 0.949 . S
C3734 C3738 1.368 . S
C3735 C3716 1.429 . S
C3735 C3729 1.429 . S
C3735 C3736 1.523 . S
C3736 C3717 1.368 . S
C3736 C3730 1.368 . S
C3736 C3735 1.523 . S
C3737 C3721 1.429 . S
C3737 C3733 1.429 . S
C3737 C3738 1.523 . S
C3738 C3722 1.368 . S
C3738 C3734 1.368 . S
C3738 C3737 1.523 . S
H3739 C3714 0.950 . S
H3740 C3716 0.950 . S
H3741 C3717 0.949 . S
H3742 C3719 0.950 . S
H3743 C3721 0.950 . S
C3744 C3745 1.349 . S
C3744 C3746 1.327 . S
C3744 H3769 0.950 . S
C3745 C3744 1.349 . S
C3745 C3761 1.349 . S
C3746 C3744 1.327 . S
C3746 C3765 1.429 . S
C3746 H3770 0.950 . S
C3747 C3764 1.574 . S
C3747 C3766 1.368 . S
C3747 H3771 0.949 . S
H3748 C3752 0.949 . S
C3749 C3750 1.349 . S
C3749 C3751 1.327 . S
C3749 H3772 0.950 . S
C3750 C3749 1.349 . S
C3750 C3762 1.349 . S
C3751 C3749 1.327 . S
C3751 C3767 1.429 . S
C3751 H3773 0.950 . S
C3752 H3748 0.949 . S
C3752 C3760 1.574 . S
C3752 C3768 1.368 . S
H3753 C3761 0.950 . S
H3754 C3759 0.950 . S
H3755 C3760 0.949 . S
H3756 C3762 0.950 . S
H3757 C3763 0.950 . S
H3758 C3764 0.949 . S
C3759 H3754 0.950 . S
C3759 C3761 1.327 . S
C3759 C3765 1.429 . S
C3760 C3752 1.574 . S
C3760 H3755 0.949 . S
C3760 C3766 1.368 . S
C3761 C3745 1.349 . S
C3761 H3753 0.950 . S
C3761 C3759 1.327 . S
C3762 C3750 1.349 . S
C3762 H3756 0.950 . S
C3762 C3763 1.327 . S
C3763 H3757 0.950 . S
C3763 C3762 1.327 . S
C3763 C3767 1.429 . S
C3764 C3747 1.574 . S
C3764 H3758 0.949 . S
C3764 C3768 1.368 . S
C3765 C3746 1.429 . S
C3765 C3759 1.429 . S
C3765 C3766 1.523 . S
C3766 C3747 1.368 . S
C3766 C3760 1.368 . S
C3766 C3765 1.523 . S
C3767 C3751 1.429 . S
C3767 C3763 1.429 . S
C3767 C3768 1.523 . S
C3768 C3752 1.368 . S
C3768 C3764 1.368 . S
C3768 C3767 1.523 . S
H3769 C3744 0.950 . S
H3770 C3746 0.950 . S
H3771 C3747 0.949 . S
H3772 C3749 0.950 . S
H3773 C3751 0.950 . S
C3774 C3775 1.349 . S
C3774 C3776 1.327 . S
C3774 H3799 0.950 . S
C3775 C3774 1.349 . S
C3775 C3791 1.349 . S
C3776 C3774 1.327 . S
C3776 C3795 1.429 . S
C3776 H3800 0.950 . S
C3777 C3794 1.574 . S
C3777 C3796 1.368 . S
C3777 H3801 0.949 . S
H3778 C3782 0.949 . S
C3779 C3780 1.349 . S
C3779 C3781 1.327 . S
C3779 H3802 0.950 . S
C3780 C3779 1.349 . S
C3780 C3792 1.349 . S
C3781 C3779 1.327 . S
C3781 C3797 1.429 . S
C3781 H3803 0.950 . S
C3782 H3778 0.949 . S
C3782 C3790 1.574 . S
C3782 C3798 1.368 . S
H3783 C3791 0.950 . S
H3784 C3789 0.950 . S
H3785 C3790 0.949 . S
H3786 C3792 0.950 . S
H3787 C3793 0.950 . S
H3788 C3794 0.949 . S
C3789 H3784 0.950 . S
C3789 C3791 1.327 . S
C3789 C3795 1.429 . S
C3790 C3782 1.574 . S
C3790 H3785 0.949 . S
C3790 C3796 1.368 . S
C3791 C3775 1.349 . S
C3791 H3783 0.950 . S
C3791 C3789 1.327 . S
C3792 C3780 1.349 . S
C3792 H3786 0.950 . S
C3792 C3793 1.327 . S
C3793 H3787 0.950 . S
C3793 C3792 1.327 . S
C3793 C3797 1.429 . S
C3794 C3777 1.574 . S
C3794 H3788 0.949 . S
C3794 C3798 1.368 . S
C3795 C3776 1.429 . S
C3795 C3789 1.429 . S
C3795 C3796 1.523 . S
C3796 C3777 1.368 . S
C3796 C3790 1.368 . S
C3796 C3795 1.523 . S
C3797 C3781 1.429 . S
C3797 C3793 1.429 . S
C3797 C3798 1.523 . S
C3798 C3782 1.368 . S
C3798 C3794 1.368 . S
C3798 C3797 1.523 . S
H3799 C3774 0.950 . S
H3800 C3776 0.950 . S
H3801 C3777 0.949 . S
H3802 C3779 0.950 . S
H3803 C3781 0.950 . S
C3804 C3805 1.349 . S
C3804 C3806 1.327 . S
C3804 H3829 0.950 . S
C3805 C3804 1.349 . S
C3805 C3821 1.349 . S
C3806 C3804 1.327 . S
C3806 C3825 1.429 . S
C3806 H3830 0.950 . S
C3807 C3824 1.574 . S
C3807 C3826 1.368 . S
C3807 H3831 0.949 . S
H3808 C3812 0.949 . S
C3809 C3810 1.349 . S
C3809 C3811 1.327 . S
C3809 H3832 0.950 . S
C3810 C3809 1.349 . S
C3810 C3822 1.349 . S
C3811 C3809 1.327 . S
C3811 C3827 1.429 . S
C3811 H3833 0.950 . S
C3812 H3808 0.949 . S
C3812 C3820 1.574 . S
C3812 C3828 1.368 . S
H3813 C3821 0.950 . S
H3814 C3819 0.950 . S
H3815 C3820 0.949 . S
H3816 C3822 0.950 . S
H3817 C3823 0.950 . S
H3818 C3824 0.949 . S
C3819 H3814 0.950 . S
C3819 C3821 1.327 . S
C3819 C3825 1.429 . S
C3820 C3812 1.574 . S
C3820 H3815 0.949 . S
C3820 C3826 1.368 . S
C3821 C3805 1.349 . S
C3821 H3813 0.950 . S
C3821 C3819 1.327 . S
C3822 C3810 1.349 . S
C3822 H3816 0.950 . S
C3822 C3823 1.327 . S
C3823 H3817 0.950 . S
C3823 C3822 1.327 . S
C3823 C3827 1.429 . S
C3824 C3807 1.574 . S
C3824 H3818 0.949 . S
C3824 C3828 1.368 . S
C3825 C3806 1.429 . S
C3825 C3819 1.429 . S
C3825 C3826 1.523 . S
C3826 C3807 1.368 . S
C3826 C3820 1.368 . S
C3826 C3825 1.523 . S
C3827 C3811 1.429 . S
C3827 C3823 1.429 . S
C3827 C3828 1.523 . S
C3828 C3812 1.368 . S
C3828 C3824 1.368 . S
C3828 C3827 1.523 . S
H3829 C3804 0.950 . S
H3830 C3806 0.950 . S
H3831 C3807 0.949 . S
H3832 C3809 0.950 . S
H3833 C3811 0.950 . S
C3834 C3835 1.349 . S
C3834 C3836 1.327 . S
C3834 H3859 0.950 . S
C3835 C3834 1.349 . S
C3835 C3851 1.349 . S
C3836 C3834 1.327 . S
C3836 C3855 1.429 . S
C3836 H3860 0.950 . S
C3837 C3854 1.574 . S
C3837 C3856 1.368 . S
C3837 H3861 0.949 . S
H3838 C3842 0.949 . S
C3839 C3840 1.349 . S
C3839 C3841 1.327 . S
C3839 H3862 0.950 . S
C3840 C3839 1.349 . S
C3840 C3852 1.349 . S
C3841 C3839 1.327 . S
C3841 C3857 1.429 . S
C3841 H3863 0.950 . S
C3842 H3838 0.949 . S
C3842 C3850 1.574 . S
C3842 C3858 1.368 . S
H3843 C3851 0.950 . S
H3844 C3849 0.950 . S
H3845 C3850 0.949 . S
H3846 C3852 0.950 . S
H3847 C3853 0.950 . S
H3848 C3854 0.949 . S
C3849 H3844 0.950 . S
C3849 C3851 1.327 . S
C3849 C3855 1.429 . S
C3850 C3842 1.574 . S
C3850 H3845 0.949 . S
C3850 C3856 1.368 . S
C3851 C3835 1.349 . S
C3851 H3843 0.950 . S
C3851 C3849 1.327 . S
C3852 C3840 1.349 . S
C3852 H3846 0.950 . S
C3852 C3853 1.327 . S
C3853 H3847 0.950 . S
C3853 C3852 1.327 . S
C3853 C3857 1.429 . S
C3854 C3837 1.574 . S
C3854 H3848 0.949 . S
C3854 C3858 1.368 . S
C3855 C3836 1.429 . S
C3855 C3849 1.429 . S
C3855 C3856 1.523 . S
C3856 C3837 1.368 . S
C3856 C3850 1.368 . S
C3856 C3855 1.523 . S
C3857 C3841 1.429 . S
C3857 C3853 1.429 . S
C3857 C3858 1.523 . S
C3858 C3842 1.368 . S
C3858 C3854 1.368 . S
C3858 C3857 1.523 . S
H3859 C3834 0.950 . S
H3860 C3836 0.950 . S
H3861 C3837 0.949 . S
H3862 C3839 0.950 . S
H3863 C3841 0.950 . S
C3864 C3865 1.349 . S
C3864 C3866 1.327 . S
C3864 H3889 0.950 . S
C3865 C3864 1.349 . S
C3865 C3881 1.349 . S
C3866 C3864 1.327 . S
C3866 C3885 1.429 . S
C3866 H3890 0.950 . S
C3867 C3884 1.574 . S
C3867 C3886 1.368 . S
C3867 H3891 0.949 . S
H3868 C3872 0.949 . S
C3869 C3870 1.349 . S
C3869 C3871 1.327 . S
C3869 H3892 0.950 . S
C3870 C3869 1.349 . S
C3870 C3882 1.349 . S
C3871 C3869 1.327 . S
C3871 C3887 1.429 . S
C3871 H3893 0.950 . S
C3872 H3868 0.949 . S
C3872 C3880 1.574 . S
C3872 C3888 1.368 . S
H3873 C3881 0.950 . S
H3874 C3879 0.950 . S
H3875 C3880 0.949 . S
H3876 C3882 0.950 . S
H3877 C3883 0.950 . S
H3878 C3884 0.949 . S
C3879 H3874 0.950 . S
C3879 C3881 1.327 . S
C3879 C3885 1.429 . S
C3880 C3872 1.574 . S
C3880 H3875 0.949 . S
C3880 C3886 1.368 . S
C3881 C3865 1.349 . S
C3881 H3873 0.950 . S
C3881 C3879 1.327 . S
C3882 C3870 1.349 . S
C3882 H3876 0.950 . S
C3882 C3883 1.327 . S
C3883 H3877 0.950 . S
C3883 C3882 1.327 . S
C3883 C3887 1.429 . S
C3884 C3867 1.574 . S
C3884 H3878 0.949 . S
C3884 C3888 1.368 . S
C3885 C3866 1.429 . S
C3885 C3879 1.429 . S
C3885 C3886 1.523 . S
C3886 C3867 1.368 . S
C3886 C3880 1.368 . S
C3886 C3885 1.523 . S
C3887 C3871 1.429 . S
C3887 C3883 1.429 . S
C3887 C3888 1.523 . S
C3888 C3872 1.368 . S
C3888 C3884 1.368 . S
C3888 C3887 1.523 . S
H3889 C3864 0.950 . S
H3890 C3866 0.950 . S
H3891 C3867 0.949 . S
H3892 C3869 0.950 . S
H3893 C3871 0.950 . S
C3894 C3895 1.349 . S
C3894 C3896 1.327 . S
C3894 H3919 0.950 . S
C3895 C3894 1.349 . S
C3895 C3911 1.349 . S
C3896 C3894 1.327 . S
C3896 C3915 1.429 . S
C3896 H3920 0.950 . S
C3897 C3914 1.574 . S
C3897 C3916 1.368 . S
C3897 H3921 0.949 . S
H3898 C3902 0.949 . S
C3899 C3900 1.349 . S
C3899 C3901 1.327 . S
C3899 H3922 0.950 . S
C3900 C3899 1.349 . S
C3900 C3912 1.349 . S
C3901 C3899 1.327 . S
C3901 C3917 1.429 . S
C3901 H3923 0.950 . S
C3902 H3898 0.949 . S
C3902 C3910 1.574 . S
C3902 C3918 1.368 . S
H3903 C3911 0.950 . S
H3904 C3909 0.950 . S
H3905 C3910 0.949 . S
H3906 C3912 0.950 . S
H3907 C3913 0.950 . S
H3908 C3914 0.949 . S
C3909 H3904 0.950 . S
C3909 C3911 1.327 . S
C3909 C3915 1.429 . S
C3910 C3902 1.574 . S
C3910 H3905 0.949 . S
C3910 C3916 1.368 . S
C3911 C3895 1.349 . S
C3911 H3903 0.950 . S
C3911 C3909 1.327 . S
C3912 C3900 1.349 . S
C3912 H3906 0.950 . S
C3912 C3913 1.327 . S
C3913 H3907 0.950 . S
C3913 C3912 1.327 . S
C3913 C3917 1.429 . S
C3914 C3897 1.574 . S
C3914 H3908 0.949 . S
C3914 C3918 1.368 . S
C3915 C3896 1.429 . S
C3915 C3909 1.429 . S
C3915 C3916 1.523 . S
C3916 C3897 1.368 . S
C3916 C3910 1.368 . S
C3916 C3915 1.523 . S
C3917 C3901 1.429 . S
C3917 C3913 1.429 . S
C3917 C3918 1.523 . S
C3918 C3902 1.368 . S
C3918 C3914 1.368 . S
C3918 C3917 1.523 . S
H3919 C3894 0.950 . S
H3920 C3896 0.950 . S
H3921 C3897 0.949 . S
H3922 C3899 0.950 . S
H3923 C3901 0.950 . S
C1225 C135 1.334 . S
C1230 C33 1.334 . S
C1255 C67 1.334 . S
C1260 C169 1.334 . S
C1285 C203 1.334 . S
C1290 C101 1.334 . S
C1315 C339 1.334 . S
C1320 C237 1.334 . S
C1345 C271 1.334 . S
C1350 C373 1.334 . S
C1375 C407 1.334 . S
C1380 C305 1.334 . S
C1405 C543 1.334 . S
C1410 C441 1.334 . S
C1435 C475 1.334 . S
C1440 C577 1.334 . S
C1465 C611 1.334 . S
C1470 C509 1.334 . S
C1495 C645 1.334 . S
C1500 C747 1.334 . S
C1525 C679 1.334 . S
C1530 C781 1.334 . S
C1555 C815 1.334 . S
C1560 C713 1.334 . S
C1585 C951 1.334 . S
C1590 C849 1.334 . S
C1615 C985 1.334 . S
C1620 C883 1.334 . S
C1645 C1019 1.334 . S
C1650 C917 1.334 . S
C1675 C1155 1.334 . S
C1680 C1053 1.334 . S
C1705 C1087 1.334 . S
C1710 C1189 1.334 . S
C1735 C1223 1.334 . S
C1740 C1121 1.334 . S
C1765 C2 2.374 . S
C1770 C988 2.374 . S
C1795 C920 2.374 . S
C1800 C36 2.374 . S
C1825 C70 2.374 . S
C1830 C954 2.374 . S
C1855 C444 2.374 . S
C1860 C104 2.374 . S
C1885 C138 2.374 . S
C1890 C478 2.374 . S
C1915 C410 2.374 . S
C1920 C172 2.374 . S
C1945 C784 2.374 . S
C1950 C206 2.374 . S
C1975 C716 2.374 . S
C1980 C240 2.374 . S
C2005 C750 2.374 . S
C2010 C274 2.374 . S
C2035 C308 2.374 . S
C2040 C1056 2.374 . S
C2065 C1090 2.374 . S
C2070 C342 2.374 . S
C2095 C376 2.374 . S
C2100 C1022 2.374 . S
C2125 C852 2.374 . S
C2130 C512 2.374 . S
C2155 C886 2.374 . S
C2160 C546 2.374 . S
C2185 C818 2.374 . S
C2190 C580 2.374 . S
C2215 C614 2.374 . S
C2220 C1192 2.374 . S
C2245 C648 2.374 . S
C2250 C1124 2.374 . S
C2275 C1158 2.374 . S
C2280 C682 2.374 . S
C2305 C5 1.385 . S
C2310 C617 1.385 . S
C2335 C651 1.385 . S
C2340 C39 1.385 . S
C2365 C73 1.385 . S
C2370 C685 1.385 . S
C2395 C1127 1.385 . S
C2400 C107 1.385 . S
C2425 C141 1.385 . S
C2430 C1161 1.385 . S
C2455 C1195 1.385 . S
C2460 C175 1.385 . S
C2485 C209 1.385 . S
C2490 C821 1.385 . S
C2515 C243 1.385 . S
C2520 C855 1.385 . S
C2545 C277 1.385 . S
C2550 C889 1.385 . S
C2575 C515 1.385 . S
C2580 C311 1.385 . S
C2605 C549 1.385 . S
C2610 C345 1.385 . S
C2635 C379 1.385 . S
C2640 C583 1.385 . S
C2665 C413 1.384 . S
C2670 C1025 1.384 . S
C2695 C1059 1.385 . S
C2700 C447 1.385 . S
C2725 C481 1.385 . S
C2730 C1093 1.385 . S
C2755 C923 1.384 . S
C2760 C719 1.384 . S
C2785 C753 1.385 . S
C2790 C957 1.385 . S
C2815 C991 1.385 . S
C2820 C787 1.385 . S
C2845 C247 1.002 . S
C2850 C20 1.018 . S
C2875 C54 1.019 . S
C2880 C281 1.002 . S
C2905 C88 1.018 . S
C2910 C213 1.002 . S
C2935 C122 1.018 . S
C2940 C383 1.002 . S
C2965 C156 1.018 . S
C2970 C315 1.002 . S
C2995 C190 1.019 . S
C3000 C349 1.002 . S
C3025 C43 1.002 . S
C3030 C224 1.018 . S
C3055 C77 1.002 . S
C3060 C258 1.019 . S
C3085 C9 1.002 . S
C3090 C292 1.018 . S
C3115 C326 1.018 . S
C3120 C179 1.002 . S
C3145 C360 1.018 . S
C3150 C111 1.002 . S
C3175 C394 1.019 . S
C3180 C145 1.002 . S
C3205 C428 1.018 . S
C3210 C655 1.002 . S
C3235 C689 1.002 . S
C3240 C462 1.019 . S
C3265 C621 1.002 . S
C3270 C496 1.018 . S
C3295 C530 1.018 . S
C3300 C791 1.002 . S
C3325 C723 1.002 . S
C3330 C564 1.019 . S
C3355 C757 1.002 . S
C3360 C598 1.019 . S
C3385 C632 1.018 . S
C3390 C451 1.002 . S
C3415 C666 1.019 . S
C3420 C485 1.002 . S
C3445 C417 1.002 . S
C3450 C700 1.019 . S
C3475 C587 1.002 . S
C3480 C734 1.018 . S
C3505 C519 1.002 . S
C3510 C768 1.019 . S
C3535 C553 1.002 . S
C3540 C802 1.019 . S
C3565 C836 1.018 . S
C3570 C1063 1.002 . S
C3595 C1097 1.002 . S
C3600 C870 1.019 . S
C3625 C1029 1.002 . S
C3630 C904 1.019 . S
C3655 C938 1.018 . S
C3660 C1199 1.002 . S
C3685 C972 1.019 . S
C3690 C1131 1.002 . S
C3715 C1006 1.019 . S
C3720 C1165 1.002 . S
C3745 C859 1.002 . S
C3750 C1040 1.018 . S
C3775 C893 1.002 . S
C3780 C1074 1.019 . S
C3805 C1108 1.018 . S
C3810 C825 1.002 . S
C3835 C1142 1.018 . S
C3840 C995 1.002 . S
C3865 C1176 1.019 . S
C3870 C927 1.002 . S
C3895 C1210 1.019 . S
C3900 C961 1.002 . S
