# Generated by pormake.
# Topology ukv, (4)-cn, num edge types: 1
# Building blocks:
#     Node 0, Type 0, BuildingBlock: NAHDIM_clean_sbu_0, # of connection points: 4
#     Node 1, Type 0, BuildingBlock: NAHDIM_clean_sbu_0, # of connection points: 4
#     Node 2, Type 0, BuildingBlock: NAHDIM_clean_sbu_0, # of connection points: 4
#     Node 3, Type 0, BuildingBlock: NAHDIM_clean_sbu_0, # of connection points: 4
#     Node 4, Type 0, BuildingBlock: NAHDIM_clean_sbu_0, # of connection points: 4
#     Node 5, Type 0, BuildingBlock: NAHDIM_clean_sbu_0, # of connection points: 4
#     Node 6, Type 0, BuildingBlock: NAHDIM_clean_sbu_0, # of connection points: 4
#     Node 7, Type 0, BuildingBlock: NAHDIM_clean_sbu_0, # of connection points: 4
#     Node 8, Type 0, BuildingBlock: NAHDIM_clean_sbu_0, # of connection points: 4
#     Node 9, Type 0, BuildingBlock: NAHDIM_clean_sbu_0, # of connection points: 4
#     Node 10, Type 0, BuildingBlock: NAHDIM_clean_sbu_0, # of connection points: 4
#     Node 11, Type 0, BuildingBlock: NAHDIM_clean_sbu_0, # of connection points: 4
#     Node 12, Type 0, BuildingBlock: NAHDIM_clean_sbu_0, # of connection points: 4
#     Node 13, Type 0, BuildingBlock: NAHDIM_clean_sbu_0, # of connection points: 4
#     Node 14, Type 0, BuildingBlock: NAHDIM_clean_sbu_0, # of connection points: 4
#     Node 15, Type 0, BuildingBlock: NAHDIM_clean_sbu_0, # of connection points: 4
#     Node 16, Type 0, BuildingBlock: NAHDIM_clean_sbu_0, # of connection points: 4
#     Node 17, Type 0, BuildingBlock: NAHDIM_clean_sbu_0, # of connection points: 4
#     Node 18, Type 0, BuildingBlock: NAHDIM_clean_sbu_0, # of connection points: 4
#     Node 19, Type 0, BuildingBlock: NAHDIM_clean_sbu_0, # of connection points: 4
#     Node 20, Type 0, BuildingBlock: NAHDIM_clean_sbu_0, # of connection points: 4
#     Node 21, Type 0, BuildingBlock: NAHDIM_clean_sbu_0, # of connection points: 4
#     Node 22, Type 0, BuildingBlock: NAHDIM_clean_sbu_0, # of connection points: 4
#     Node 23, Type 0, BuildingBlock: NAHDIM_clean_sbu_0, # of connection points: 4
#     Node 24, Type 0, BuildingBlock: NAHDIM_clean_sbu_0, # of connection points: 4
#     Node 25, Type 0, BuildingBlock: NAHDIM_clean_sbu_0, # of connection points: 4
#     Node 26, Type 0, BuildingBlock: NAHDIM_clean_sbu_0, # of connection points: 4
#     Node 27, Type 0, BuildingBlock: NAHDIM_clean_sbu_0, # of connection points: 4
#     Node 28, Type 0, BuildingBlock: NAHDIM_clean_sbu_0, # of connection points: 4
#     Node 29, Type 0, BuildingBlock: NAHDIM_clean_sbu_0, # of connection points: 4
#     Node 30, Type 0, BuildingBlock: NAHDIM_clean_sbu_0, # of connection points: 4
#     Node 31, Type 0, BuildingBlock: NAHDIM_clean_sbu_0, # of connection points: 4
#     Node 32, Type 0, BuildingBlock: NAHDIM_clean_sbu_0, # of connection points: 4
#     Node 33, Type 0, BuildingBlock: NAHDIM_clean_sbu_0, # of connection points: 4
#     Node 34, Type 0, BuildingBlock: NAHDIM_clean_sbu_0, # of connection points: 4
#     Node 35, Type 0, BuildingBlock: NAHDIM_clean_sbu_0, # of connection points: 4
#     Edge 36, Type (0, 0), None
#     Edge 37, Type (0, 0), None
#     Edge 38, Type (0, 0), None
#     Edge 39, Type (0, 0), None
#     Edge 40, Type (0, 0), None
#     Edge 41, Type (0, 0), None
#     Edge 42, Type (0, 0), None
#     Edge 43, Type (0, 0), None
#     Edge 44, Type (0, 0), None
#     Edge 45, Type (0, 0), None
#     Edge 46, Type (0, 0), None
#     Edge 47, Type (0, 0), None
#     Edge 48, Type (0, 0), None
#     Edge 49, Type (0, 0), None
#     Edge 50, Type (0, 0), None
#     Edge 51, Type (0, 0), None
#     Edge 52, Type (0, 0), None
#     Edge 53, Type (0, 0), None
#     Edge 54, Type (0, 0), None
#     Edge 55, Type (0, 0), None
#     Edge 56, Type (0, 0), None
#     Edge 57, Type (0, 0), None
#     Edge 58, Type (0, 0), None
#     Edge 59, Type (0, 0), None
#     Edge 60, Type (0, 0), None
#     Edge 61, Type (0, 0), None
#     Edge 62, Type (0, 0), None
#     Edge 63, Type (0, 0), None
#     Edge 64, Type (0, 0), None
#     Edge 65, Type (0, 0), None
#     Edge 66, Type (0, 0), None
#     Edge 67, Type (0, 0), None
#     Edge 68, Type (0, 0), None
#     Edge 69, Type (0, 0), None
#     Edge 70, Type (0, 0), None
#     Edge 71, Type (0, 0), None
#     Edge 72, Type (0, 0), None
#     Edge 73, Type (0, 0), None
#     Edge 74, Type (0, 0), None
#     Edge 75, Type (0, 0), None
#     Edge 76, Type (0, 0), None
#     Edge 77, Type (0, 0), None
#     Edge 78, Type (0, 0), None
#     Edge 79, Type (0, 0), None
#     Edge 80, Type (0, 0), None
#     Edge 81, Type (0, 0), None
#     Edge 82, Type (0, 0), None
#     Edge 83, Type (0, 0), None
#     Edge 84, Type (0, 0), None
#     Edge 85, Type (0, 0), None
#     Edge 86, Type (0, 0), None
#     Edge 87, Type (0, 0), None
#     Edge 88, Type (0, 0), None
#     Edge 89, Type (0, 0), None
#     Edge 90, Type (0, 0), None
#     Edge 91, Type (0, 0), None
#     Edge 92, Type (0, 0), None
#     Edge 93, Type (0, 0), None
#     Edge 94, Type (0, 0), None
#     Edge 95, Type (0, 0), None
#     Edge 96, Type (0, 0), None
#     Edge 97, Type (0, 0), None
#     Edge 98, Type (0, 0), None
#     Edge 99, Type (0, 0), None
#     Edge 100, Type (0, 0), None
#     Edge 101, Type (0, 0), None
#     Edge 102, Type (0, 0), None
#     Edge 103, Type (0, 0), None
#     Edge 104, Type (0, 0), None
#     Edge 105, Type (0, 0), None
#     Edge 106, Type (0, 0), None
#     Edge 107, Type (0, 0), None
# Relax obj value: 0.238
# Max RMSD: 0.181
# Mean RMSD: 0.181
data_MOF--net-ukv--node1-NAHDIM_clean_sbu_0--edge1-none
_symmetry_space_group_name_H-M    P1
_symmetry_Int_Tables_number       1
_symmetry_cell_setting            triclinic
loop_
_symmetry_equiv_pos_as_xyz
'x, y, z'
_cell_length_a     45.035782
_cell_length_b     45.035001
_cell_length_c     9.1755463
_cell_angle_alpha  89.995548
_cell_angle_beta   90.006309
_cell_angle_gamma 119.98586
loop_
_atom_site_label
_atom_site_type_symbol
_atom_site_fract_x
_atom_site_fract_y
_atom_site_fract_z
_atom_type_partial_charge
C0 C 0.20413 0.00805 0.21 0.0
O1 O 0.22053 0.03567 0.29054 0.0
O2 O 0.27614 0.06238 0.88395 0.0
Zn3 Zn 0.2332 0.05696 0.97701 0.0
O4 O 0.24473 0.09323 0.12761 0.0
C5 C 0.23193 0.09937 0.77489 0.0
O6 O 0.2625 0.11603 0.8345 0.0
O7 O 0.20511 0.01052 0.07147 0.0
C8 C 0.22285 0.10189 0.16376 0.0
O9 O 0.19228 0.08673 0.10396 0.0
C10 C 0.30405 0.07308 0.95273 0.0
O11 O 0.30451 0.07703 0.0947 0.0
O12 O 0.21079 0.06912 0.81788 0.0
C13 C 0.96998 0.19167 0.21002 0.0
O14 O 0.94235 0.18044 0.29056 0.0
O15 O 0.91562 0.20935 0.88394 0.0
Zn16 Zn 0.92106 0.17184 0.97703 0.0
O17 O 0.8848 0.14711 0.12763 0.0
C18 C 0.87865 0.12817 0.77492 0.0
O19 O 0.86198 0.14207 0.83452 0.0
O20 O 0.9675 0.19019 0.07149 0.0
C21 C 0.87614 0.11657 0.1638 0.0
O22 O 0.89131 0.10116 0.104 0.0
C23 C 0.90493 0.22658 0.95272 0.0
O24 O 0.901 0.2231 0.0947 0.0
O25 O 0.90891 0.13728 0.81792 0.0
C26 C 0.78638 0.77393 0.20998 0.0
O27 O 0.7976 0.75752 0.2905 0.0
O28 O 0.76873 0.70194 0.88384 0.0
Zn29 Zn 0.80623 0.74487 0.97696 0.0
O30 O 0.83097 0.73333 0.12755 0.0
C31 C 0.84991 0.74615 0.77487 0.0
O32 O 0.83601 0.71558 0.83446 0.0
O33 O 0.78787 0.77295 0.07145 0.0
C34 C 0.8615 0.75521 0.16374 0.0
O35 O 0.87689 0.78579 0.10395 0.0
C36 C 0.75149 0.67403 0.95262 0.0
O37 O 0.75495 0.67357 0.09461 0.0
O38 O 0.84079 0.76729 0.81785 0.0
C39 C 0.00366 0.2085 0.27992 0.0
O40 O 0.03128 0.22491 0.19938 0.0
O41 O 0.058 0.28052 0.60597 0.0
Zn42 Zn 0.05257 0.23758 0.51291 0.0
O43 O 0.08884 0.2491 0.36232 0.0
C44 C 0.09499 0.23631 0.71504 0.0
O45 O 0.11165 0.26688 0.65543 0.0
O46 O 0.00613 0.20949 0.41845 0.0
C47 C 0.09751 0.22723 0.32616 0.0
O48 O 0.08234 0.19665 0.38596 0.0
C49 C 0.06869 0.30843 0.53718 0.0
O50 O 0.07263 0.30888 0.39521 0.0
O51 O 0.06473 0.21516 0.67204 0.0
C52 C 0.76954 0.79077 0.27991 0.0
O53 O 0.75313 0.802 0.19938 0.0
O54 O 0.69754 0.77312 0.60605 0.0
Zn55 Zn 0.74046 0.81062 0.51294 0.0
O56 O 0.72893 0.83535 0.36235 0.0
C57 C 0.74174 0.8543 0.71503 0.0
O58 O 0.71117 0.8404 0.65544 0.0
O59 O 0.76855 0.79226 0.41844 0.0
C60 C 0.7508 0.86589 0.32617 0.0
O61 O 0.78138 0.88128 0.38596 0.0
C62 C 0.66963 0.75588 0.53727 0.0
O63 O 0.66917 0.75933 0.39528 0.0
O64 O 0.76289 0.84518 0.67205 0.0
C65 C 0.18729 0.97437 0.2799 0.0
O66 O 0.17606 0.94674 0.19936 0.0
O67 O 0.20497 0.92001 0.606 0.0
Zn68 Zn 0.16746 0.92545 0.5129 0.0
O69 O 0.14273 0.88919 0.3623 0.0
C70 C 0.12378 0.88305 0.71499 0.0
O71 O 0.13769 0.86637 0.65541 0.0
O72 O 0.18581 0.97189 0.41844 0.0
C73 C 0.11219 0.88053 0.32612 0.0
O74 O 0.09678 0.8957 0.38591 0.0
C75 C 0.22219 0.90932 0.53721 0.0
O76 O 0.21871 0.90539 0.39523 0.0
O77 O 0.1329 0.91331 0.67201 0.0
C78 C 0.76954 0.9744 0.77991 0.0
O79 O 0.75313 0.94678 0.69938 0.0
O80 O 0.69753 0.92007 0.10597 0.0
Zn81 Zn 0.74047 0.92548 0.0129 0.0
O82 O 0.72894 0.88922 0.86231 0.0
C83 C 0.74173 0.88307 0.21503 0.0
O84 O 0.71116 0.86641 0.15541 0.0
O85 O 0.76855 0.97192 0.91845 0.0
C86 C 0.75081 0.88055 0.82615 0.0
O87 O 0.78139 0.89572 0.88595 0.0
C88 C 0.66962 0.90937 0.03718 0.0
O89 O 0.66916 0.90542 0.89521 0.0
O90 O 0.76288 0.91333 0.17204 0.0
C91 C 0.00369 0.79078 0.77989 0.0
O92 O 0.03132 0.80201 0.69935 0.0
O93 O 0.05805 0.7731 0.10598 0.0
Zn94 Zn 0.05261 0.81061 0.01289 0.0
O95 O 0.08887 0.83534 0.86229 0.0
C96 C 0.09502 0.85428 0.21499 0.0
O97 O 0.11169 0.84038 0.1554 0.0
O98 O 0.00617 0.79226 0.91843 0.0
C99 C 0.09753 0.86587 0.82612 0.0
O100 O 0.08236 0.88129 0.88591 0.0
C101 C 0.06873 0.75587 0.03719 0.0
O102 O 0.07267 0.75935 0.89521 0.0
O103 O 0.06476 0.84517 0.172 0.0
C104 C 0.18729 0.20851 0.77993 0.0
O105 O 0.17606 0.22492 0.69941 0.0
O106 O 0.20494 0.28051 0.10607 0.0
Zn107 Zn 0.16744 0.23758 0.01296 0.0
O108 O 0.1427 0.24912 0.86236 0.0
C109 C 0.12376 0.2363 0.21504 0.0
O110 O 0.13765 0.26687 0.15545 0.0
O111 O 0.1858 0.20949 0.91847 0.0
C112 C 0.11217 0.22724 0.82618 0.0
O113 O 0.09678 0.19666 0.88596 0.0
C114 C 0.22218 0.30842 0.03729 0.0
O115 O 0.21872 0.30888 0.8953 0.0
O116 O 0.13288 0.21516 0.17206 0.0
C117 C 0.97001 0.77394 0.70999 0.0
O118 O 0.94239 0.75754 0.79053 0.0
O119 O 0.91567 0.70193 0.38394 0.0
Zn120 Zn 0.92109 0.74487 0.47701 0.0
O121 O 0.88483 0.73334 0.6276 0.0
C122 C 0.87868 0.74614 0.27488 0.0
O123 O 0.86202 0.71557 0.33449 0.0
O124 O 0.96753 0.77296 0.57146 0.0
C125 C 0.87616 0.75522 0.66376 0.0
O126 O 0.89133 0.7858 0.60395 0.0
C127 C 0.90498 0.67402 0.45274 0.0
O128 O 0.90103 0.67357 0.5947 0.0
O129 O 0.90894 0.76729 0.31787 0.0
C130 C 0.20413 0.19167 0.71001 0.0
O131 O 0.22054 0.18044 0.79053 0.0
O132 O 0.27613 0.20933 0.38387 0.0
Zn133 Zn 0.2332 0.17183 0.47698 0.0
O134 O 0.24474 0.14709 0.62757 0.0
C135 C 0.23193 0.12815 0.27489 0.0
O136 O 0.2625 0.14205 0.33448 0.0
O137 O 0.20512 0.19019 0.57147 0.0
C138 C 0.22286 0.11656 0.66375 0.0
O139 O 0.19228 0.10116 0.60396 0.0
C140 C 0.30404 0.22657 0.45264 0.0
O141 O 0.3045 0.22311 0.59463 0.0
O142 O 0.21078 0.13727 0.31787 0.0
C143 C 0.78638 0.00808 0.71001 0.0
O144 O 0.79761 0.0357 0.79055 0.0
O145 O 0.7687 0.06244 0.38391 0.0
Zn146 Zn 0.80621 0.057 0.47701 0.0
O147 O 0.83094 0.09326 0.62761 0.0
C148 C 0.84989 0.0994 0.27492 0.0
O149 O 0.83598 0.11607 0.33451 0.0
O150 O 0.78786 0.01055 0.57148 0.0
C151 C 0.86148 0.10192 0.66379 0.0
O152 O 0.87688 0.08674 0.60401 0.0
C153 C 0.75148 0.07313 0.4527 0.0
O154 O 0.75496 0.07706 0.59468 0.0
O155 O 0.84077 0.06914 0.31791 0.0
C156 C 0.87077 0.34142 0.54334 0.0
O157 O 0.88716 0.36905 0.62386 0.0
O158 O 0.94279 0.39573 0.21725 0.0
Zn159 Zn 0.89986 0.39032 0.3103 0.0
O160 O 0.9114 0.4266 0.46086 0.0
C161 C 0.8986 0.43273 0.10814 0.0
O162 O 0.92917 0.44939 0.16774 0.0
O163 O 0.87176 0.34389 0.4048 0.0
C164 C 0.88953 0.43527 0.49701 0.0
O165 O 0.85895 0.42011 0.43722 0.0
C166 C 0.9707 0.40641 0.28604 0.0
O167 O 0.97115 0.41035 0.42801 0.0
O168 O 0.87745 0.40248 0.15115 0.0
C169 C 0.63666 0.525 0.54332 0.0
O170 O 0.60904 0.51379 0.62384 0.0
O171 O 0.58231 0.54266 0.21722 0.0
Zn172 Zn 0.58775 0.50515 0.31031 0.0
O173 O 0.55149 0.48042 0.4609 0.0
C174 C 0.54535 0.46148 0.1082 0.0
O175 O 0.52868 0.47538 0.16779 0.0
O176 O 0.63419 0.5235 0.40479 0.0
C177 C 0.54283 0.44988 0.49707 0.0
O178 O 0.558 0.43447 0.43729 0.0
C179 C 0.57162 0.55989 0.28602 0.0
O180 O 0.56769 0.55641 0.428 0.0
O181 O 0.57561 0.47059 0.15119 0.0
C182 C 0.45302 0.10725 0.5433 0.0
O183 O 0.46426 0.09085 0.6238 0.0
O184 O 0.43536 0.03524 0.21716 0.0
Zn185 Zn 0.47286 0.07818 0.31024 0.0
O186 O 0.49761 0.06665 0.46081 0.0
C187 C 0.51653 0.07946 0.10811 0.0
O188 O 0.50264 0.04889 0.1677 0.0
O189 O 0.4545 0.10626 0.40476 0.0
C190 C 0.52814 0.08853 0.49698 0.0
O191 O 0.54353 0.11911 0.4372 0.0
C192 C 0.41813 0.00733 0.28596 0.0
O193 O 0.42161 0.00688 0.42794 0.0
O194 O 0.50741 0.1006 0.15111 0.0
C195 C 0.67034 0.54184 0.61324 0.0
O196 O 0.69797 0.55823 0.5327 0.0
O197 O 0.72467 0.61387 0.9393 0.0
Zn198 Zn 0.71925 0.57093 0.84625 0.0
O199 O 0.75552 0.58246 0.69568 0.0
C200 C 0.76166 0.56966 0.0484 0.0
O201 O 0.77832 0.60023 0.9888 0.0
O202 O 0.67282 0.54284 0.75177 0.0
C203 C 0.76419 0.56058 0.65953 0.0
O204 O 0.74903 0.53001 0.71933 0.0
C205 C 0.73537 0.64178 0.87048 0.0
O206 O 0.73931 0.64224 0.72852 0.0
O207 O 0.73141 0.54852 0.0054 0.0
C208 C 0.43618 0.12409 0.61324 0.0
O209 O 0.41976 0.13531 0.53274 0.0
O210 O 0.3642 0.10644 0.93939 0.0
Zn211 Zn 0.40713 0.14394 0.84629 0.0
O212 O 0.3956 0.16868 0.69571 0.0
C213 C 0.40841 0.18762 0.0484 0.0
O214 O 0.37784 0.17372 0.98881 0.0
O215 O 0.43522 0.12558 0.75178 0.0
C216 C 0.41747 0.19922 0.65953 0.0
O217 O 0.44805 0.21461 0.71932 0.0
C218 C 0.3363 0.0892 0.87059 0.0
O219 O 0.33583 0.09265 0.7286 0.0
O220 O 0.42955 0.1785 0.00541 0.0
C221 C 0.85392 0.30774 0.61327 0.0
O222 O 0.8427 0.28012 0.53276 0.0
O223 O 0.87158 0.25339 0.93939 0.0
Zn224 Zn 0.83407 0.25884 0.8463 0.0
O225 O 0.80934 0.22257 0.69572 0.0
C226 C 0.7904 0.21644 0.04841 0.0
O227 O 0.8043 0.19977 0.98882 0.0
O228 O 0.85243 0.30528 0.7518 0.0
C229 C 0.7788 0.21392 0.65954 0.0
O230 O 0.76339 0.22909 0.71932 0.0
C231 C 0.88881 0.24271 0.87059 0.0
O232 O 0.88534 0.23879 0.72861 0.0
O233 O 0.79952 0.2467 0.00541 0.0
C234 C 0.43622 0.30772 0.11324 0.0
O235 O 0.41983 0.28009 0.0327 0.0
O236 O 0.3642 0.25339 0.4393 0.0
Zn237 Zn 0.40713 0.25881 0.34625 0.0
O238 O 0.39561 0.22254 0.19568 0.0
C239 C 0.4084 0.2164 0.54839 0.0
O240 O 0.37783 0.19974 0.48879 0.0
O241 O 0.43522 0.30525 0.25177 0.0
C242 C 0.41748 0.21387 0.15953 0.0
O243 O 0.44806 0.22904 0.21933 0.0
C244 C 0.33629 0.2427 0.37049 0.0
O245 O 0.33582 0.23874 0.22853 0.0
O246 O 0.42955 0.24666 0.5054 0.0
C247 C 0.67032 0.12415 0.11326 0.0
O248 O 0.69794 0.13536 0.03275 0.0
O249 O 0.72467 0.10649 0.43937 0.0
Zn250 Zn 0.71923 0.144 0.34629 0.0
O251 O 0.75549 0.16873 0.19571 0.0
C252 C 0.76162 0.18767 0.5484 0.0
O253 O 0.7783 0.17376 0.48881 0.0
O254 O 0.67279 0.12564 0.2518 0.0
C255 C 0.76415 0.19927 0.15953 0.0
O256 O 0.74898 0.21468 0.21931 0.0
C257 C 0.73535 0.08925 0.37057 0.0
O258 O 0.73927 0.09272 0.22858 0.0
O259 O 0.73136 0.17855 0.50541 0.0
C260 C 0.85398 0.54188 0.11326 0.0
O261 O 0.84276 0.5583 0.03276 0.0
O262 O 0.87162 0.61387 0.4394 0.0
Zn263 Zn 0.83412 0.57094 0.3463 0.0
O264 O 0.80938 0.58247 0.19573 0.0
C265 C 0.79044 0.56966 0.54841 0.0
O266 O 0.80434 0.60023 0.48882 0.0
O267 O 0.85248 0.54285 0.25179 0.0
C268 C 0.77885 0.56059 0.15954 0.0
O269 O 0.76345 0.53001 0.21932 0.0
C270 C 0.88886 0.64177 0.3706 0.0
O271 O 0.8854 0.64223 0.22861 0.0
O272 O 0.79957 0.54851 0.50542 0.0
C273 C 0.63664 0.1073 0.04333 0.0
O274 O 0.60902 0.09091 0.12386 0.0
O275 O 0.58233 0.03527 0.71725 0.0
Zn276 Zn 0.58774 0.0782 0.81029 0.0
O277 O 0.55146 0.06666 0.96085 0.0
C278 C 0.54533 0.07946 0.60813 0.0
O279 O 0.52867 0.04889 0.66772 0.0
O280 O 0.63417 0.1063 0.90479 0.0
C281 C 0.54279 0.08853 -0.00301 0.0
O282 O 0.55795 0.11911 0.9372 0.0
C283 C 0.57165 0.00736 0.78605 0.0
O284 O 0.56771 0.00691 0.92802 0.0
O285 O 0.57558 0.10061 0.65114 0.0
C286 C 0.87081 0.52504 0.04332 0.0
O287 O 0.88721 0.5138 0.12383 0.0
O288 O 0.94282 0.5427 0.71718 0.0
Zn289 Zn 0.89988 0.5052 0.81027 0.0
O290 O 0.91142 0.48045 0.96083 0.0
C291 C 0.8986 0.46153 0.60814 0.0
O292 O 0.92917 0.47542 0.66773 0.0
O293 O 0.8718 0.52356 0.90478 0.0
C294 C 0.88953 0.44992 -0.003 0.0
O295 O 0.85895 0.43453 0.93722 0.0
C296 C 0.97073 0.55992 0.78597 0.0
O297 O 0.97118 0.55645 0.92795 0.0
O298 O 0.87746 0.47065 0.65113 0.0
C299 C 0.45306 0.3414 0.04332 0.0
O300 O 0.46427 0.36902 0.12383 0.0
O301 O 0.4354 0.39575 0.7172 0.0
Zn302 Zn 0.47291 0.39031 0.8103 0.0
O303 O 0.49764 0.42657 0.96089 0.0
C304 C 0.51658 0.43271 0.6082 0.0
O305 O 0.50268 0.44938 0.66778 0.0
O306 O 0.45456 0.34387 0.90478 0.0
C307 C 0.52817 0.43523 -0.00293 0.0
O308 O 0.54358 0.42005 0.93729 0.0
C309 C 0.41817 0.40643 0.78599 0.0
O310 O 0.42165 0.41036 0.92797 0.0
O311 O 0.50747 0.40244 0.65119 0.0
C312 C 0.53745 0.67473 0.87667 0.0
O313 O 0.55384 0.70235 0.9572 0.0
O314 O 0.60947 0.72906 0.55061 0.0
Zn315 Zn 0.56653 0.72364 0.64366 0.0
O316 O 0.57806 0.75991 0.79423 0.0
C317 C 0.56526 0.76604 0.44151 0.0
O318 O 0.59583 0.7827 0.50112 0.0
O319 O 0.53844 0.6772 0.73814 0.0
C320 C 0.55619 0.76857 0.83038 0.0
O321 O 0.52561 0.75341 0.77058 0.0
C322 C 0.63738 0.73975 0.61942 0.0
O323 O 0.63784 0.7437 0.76138 0.0
O324 O 0.54412 0.73579 0.48451 0.0
C325 C 0.30335 0.8583 0.87665 0.0
O326 O 0.27572 0.84709 0.95715 0.0
O327 O 0.249 0.87596 0.55054 0.0
Zn328 Zn 0.25444 0.83845 0.64362 0.0
O329 O 0.21818 0.81372 0.7942 0.0
C330 C 0.21204 0.79478 0.4415 0.0
O331 O 0.19537 0.80868 0.50109 0.0
O332 O 0.30088 0.8568 0.73811 0.0
C333 C 0.20952 0.78318 0.83037 0.0
O334 O 0.22469 0.76777 0.77059 0.0
C335 C 0.23832 0.89319 0.61934 0.0
O336 O 0.2344 0.88973 0.76133 0.0
O337 O 0.2423 0.80389 0.4845 0.0
C338 C 0.11969 0.44057 0.87665 0.0
O339 O 0.13091 0.42415 0.95715 0.0
O340 O 0.10205 0.36858 0.55051 0.0
Zn341 Zn 0.13955 0.41151 0.6436 0.0
O342 O 0.16429 0.39998 0.79418 0.0
C343 C 0.18323 0.41279 0.44149 0.0
O344 O 0.16933 0.38222 0.50108 0.0
O345 O 0.12119 0.4396 0.73812 0.0
C346 C 0.19482 0.42186 0.83036 0.0
O347 O 0.21022 0.45244 0.77058 0.0
C348 C 0.08481 0.34068 0.61931 0.0
O349 O 0.08826 0.34021 0.7613 0.0
O350 O 0.1741 0.43393 0.48448 0.0
C351 C 0.33703 0.87514 0.94658 0.0
O352 O 0.36465 0.89153 0.86606 0.0
O353 O 0.39134 0.94718 0.27266 0.0
Zn354 Zn 0.38593 0.90424 0.17962 0.0
O355 O 0.4222 0.91578 0.02906 0.0
C356 C 0.42834 0.90298 0.38179 0.0
O357 O 0.44499 0.93355 0.32219 0.0
O358 O 0.3395 0.87614 0.08512 0.0
C359 C 0.43088 0.89391 0.99292 0.0
O360 O 0.41572 0.86333 0.05272 0.0
C361 C 0.40201 0.97508 0.20384 0.0
O362 O 0.40595 0.97554 0.06186 0.0
O363 O 0.39808 0.88183 0.33878 0.0
C364 C 0.10286 0.45741 0.9466 0.0
O365 O 0.08646 0.46865 0.86608 0.0
O366 O 0.03085 0.43975 0.27272 0.0
Zn367 Zn 0.07379 0.47725 0.17965 0.0
O368 O 0.06226 0.502 0.02908 0.0
C369 C 0.07507 0.52092 0.38178 0.0
O370 O 0.0445 0.50703 0.32218 0.0
O371 O 0.10187 0.45888 0.08513 0.0
C372 C 0.08414 0.53253 0.99291 0.0
O373 O 0.11472 0.54792 0.0527 0.0
C374 C 0.00295 0.42252 0.20391 0.0
O375 O 0.00248 0.42598 0.06193 0.0
O376 O 0.09621 0.5118 0.33878 0.0
C377 C 0.52061 0.64105 0.9466 0.0
O378 O 0.50939 0.61342 0.86608 0.0
O379 O 0.53827 0.5867 0.2727 0.0
Zn380 Zn 0.50076 0.59214 0.17962 0.0
O381 O 0.47603 0.55588 0.02903 0.0
C382 C 0.45709 0.54974 0.38172 0.0
O383 O 0.47099 0.53307 0.32213 0.0
O384 O 0.51911 0.63858 0.08513 0.0
C385 C 0.44549 0.54722 0.99285 0.0
O386 O 0.43008 0.56239 0.05263 0.0
C387 C 0.5555 0.57602 0.20389 0.0
O388 O 0.55203 0.5721 0.06191 0.0
O389 O 0.4662 0.58001 0.33873 0.0
C390 C 0.1029 0.64103 0.44657 0.0
O391 O 0.08651 0.6134 0.36605 0.0
O392 O 0.03088 0.58672 0.77266 0.0
Zn393 Zn 0.07381 0.59213 0.67961 0.0
O394 O 0.06228 0.55585 0.52905 0.0
C395 C 0.07507 0.54972 0.88177 0.0
O396 O 0.0445 0.53306 0.82217 0.0
O397 O 0.10191 0.63856 0.58511 0.0
C398 C 0.08415 0.54718 0.4929 0.0
O399 O 0.11473 0.56234 0.5527 0.0
C400 C 0.00298 0.57605 0.70384 0.0
O401 O 0.00251 0.57211 0.56187 0.0
O402 O 0.09622 0.57997 0.83877 0.0
C403 C 0.337 0.45745 0.44659 0.0
O404 O 0.36463 0.46866 0.36608 0.0
O405 O 0.39136 0.43979 0.77268 0.0
Zn406 Zn 0.38592 0.4773 0.6796 0.0
O407 O 0.42218 0.50203 0.52902 0.0
C408 C 0.42831 0.52097 0.88172 0.0
O409 O 0.44499 0.50707 0.82213 0.0
O410 O 0.33948 0.45894 0.58512 0.0
C411 C 0.43084 0.53257 0.49284 0.0
O412 O 0.41566 0.54798 0.55263 0.0
C413 C 0.40204 0.42256 0.70387 0.0
O414 O 0.40596 0.42603 0.56189 0.0
O415 O 0.39805 0.51186 0.83872 0.0
C416 C 0.52064 0.8752 0.44662 0.0
O417 O 0.5094 0.89159 0.36611 0.0
O418 O 0.53831 0.94721 0.77275 0.0
Zn419 Zn 0.50081 0.90427 0.67967 0.0
O420 O 0.47606 0.9158 0.52911 0.0
C421 C 0.45713 0.90298 0.8818 0.0
O422 O 0.47102 0.93356 0.82221 0.0
O423 O 0.51917 0.87619 0.58515 0.0
C424 C 0.44553 0.89392 0.49294 0.0
O425 O 0.43013 0.86334 0.55272 0.0
C426 C 0.55554 0.97511 0.70393 0.0
O427 O 0.55207 0.97557 0.56195 0.0
O428 O 0.46626 0.88184 0.8388 0.0
C429 C 0.30332 0.44061 0.37667 0.0
O430 O 0.2757 0.42422 0.4572 0.0
O431 O 0.24899 0.36858 0.05061 0.0
Zn432 Zn 0.25441 0.41152 0.14366 0.0
O433 O 0.21815 0.39999 0.29423 0.0
C434 C 0.21201 0.41279 0.94151 0.0
O435 O 0.19535 0.38221 0.00111 0.0
O436 O 0.30085 0.43961 0.23814 0.0
C437 C 0.20948 0.42186 0.33037 0.0
O438 O 0.22464 0.45244 0.27057 0.0
C439 C 0.2383 0.34067 0.11943 0.0
O440 O 0.23436 0.34021 0.26139 0.0
O441 O 0.24226 0.43393 0.98451 0.0
C442 C 0.53749 0.85836 0.37667 0.0
O443 O 0.55391 0.84714 0.45717 0.0
O444 O 0.60947 0.87601 0.05052 0.0
Zn445 Zn 0.56654 0.83851 0.14362 0.0
O446 O 0.57807 0.81376 0.29419 0.0
C447 C 0.56526 0.79483 0.9415 0.0
O448 O 0.59583 0.80873 0.0011 0.0
O449 O 0.53845 0.85686 0.23813 0.0
C450 C 0.55619 0.78323 0.33037 0.0
O451 O 0.52561 0.76783 0.27059 0.0
C452 C 0.63737 0.89325 0.11932 0.0
O453 O 0.63784 0.8898 0.26131 0.0
O454 O 0.54411 0.80395 0.98449 0.0
C455 C 0.11975 0.6747 0.37664 0.0
O456 O 0.13097 0.70233 0.45715 0.0
O457 O 0.10209 0.72906 0.05052 0.0
Zn458 Zn 0.13959 0.72361 0.1436 0.0
O459 O 0.16433 0.75988 0.29419 0.0
C460 C 0.18327 0.766 0.9415 0.0
O461 O 0.16937 0.78268 0.00108 0.0
O462 O 0.12124 0.67717 0.2381 0.0
C463 C 0.19487 0.76853 0.33037 0.0
O464 O 0.21027 0.75335 0.27059 0.0
C465 C 0.08486 0.73973 0.11932 0.0
O466 O 0.08833 0.74366 0.2613 0.0
O467 O 0.17415 0.73574 0.98449 0.0
loop_
_geom_bond_atom_site_label_1
_geom_bond_atom_site_label_2
_geom_bond_distance
_geom_bond_site_symmetry_2
_ccdc_geom_bond_type
C0 O1 1.160 . S
C0 O7 1.185 . S
O1 C0 1.160 . S
O2 Zn3 1.899 1_556 S
O2 C10 1.284 . S
Zn3 O2 1.899 1_554 S
Zn3 O4 2.032 . S
Zn3 O7 2.086 . S
Zn3 O12 1.977 1_554 S
O4 Zn3 2.032 . S
O4 C8 1.278 . S
C5 O6 1.203 . S
C5 O12 1.267 . S
O6 C5 1.203 . S
O7 C0 1.185 . S
O7 Zn3 2.086 . S
C8 O4 1.278 . S
C8 O9 1.211 . S
O9 C8 1.211 . S
C10 O2 1.284 . S
C10 O11 1.273 1_556 S
O11 C10 1.273 1_554 S
O12 Zn3 1.977 1_556 S
O12 C5 1.267 . S
C13 O14 1.160 . S
C13 O20 1.185 . S
O14 C13 1.160 . S
O15 Zn16 1.899 1_556 S
O15 C23 1.284 . S
Zn16 O15 1.899 1_554 S
Zn16 O17 2.032 . S
Zn16 O20 2.086 . S
Zn16 O25 1.977 1_554 S
O17 Zn16 2.032 . S
O17 C21 1.278 . S
C18 O19 1.203 . S
C18 O25 1.267 . S
O19 C18 1.203 . S
O20 C13 1.185 . S
O20 Zn16 2.086 . S
C21 O17 1.278 . S
C21 O22 1.211 . S
O22 C21 1.211 . S
C23 O15 1.284 . S
C23 O24 1.273 1_556 S
O24 C23 1.273 1_554 S
O25 Zn16 1.977 1_556 S
O25 C18 1.267 . S
C26 O27 1.160 . S
C26 O33 1.185 . S
O27 C26 1.160 . S
O28 Zn29 1.899 1_556 S
O28 C36 1.284 . S
Zn29 O28 1.899 1_554 S
Zn29 O30 2.032 . S
Zn29 O33 2.086 . S
Zn29 O38 1.977 1_554 S
O30 Zn29 2.032 . S
O30 C34 1.278 . S
C31 O32 1.203 . S
C31 O38 1.267 . S
O32 C31 1.203 . S
O33 C26 1.185 . S
O33 Zn29 2.086 . S
C34 O30 1.278 . S
C34 O35 1.211 . S
O35 C34 1.211 . S
C36 O28 1.284 . S
C36 O37 1.273 1_556 S
O37 C36 1.273 1_554 S
O38 Zn29 1.977 1_556 S
O38 C31 1.267 . S
C39 O40 1.160 . S
C39 O46 1.185 . S
O40 C39 1.160 . S
O41 Zn42 1.899 . S
O41 C49 1.284 . S
Zn42 O41 1.899 . S
Zn42 O43 2.032 . S
Zn42 O46 2.086 . S
Zn42 O51 1.977 . S
O43 Zn42 2.032 . S
O43 C47 1.278 . S
C44 O45 1.203 . S
C44 O51 1.267 . S
O45 C44 1.203 . S
O46 C39 1.185 . S
O46 Zn42 2.086 . S
C47 O43 1.278 . S
C47 O48 1.211 . S
O48 C47 1.211 . S
C49 O41 1.284 . S
C49 O50 1.273 . S
O50 C49 1.273 . S
O51 Zn42 1.977 . S
O51 C44 1.267 . S
C52 O53 1.160 . S
C52 O59 1.185 . S
O53 C52 1.160 . S
O54 Zn55 1.899 . S
O54 C62 1.284 . S
Zn55 O54 1.899 . S
Zn55 O56 2.032 . S
Zn55 O59 2.086 . S
Zn55 O64 1.977 . S
O56 Zn55 2.032 . S
O56 C60 1.278 . S
C57 O58 1.203 . S
C57 O64 1.267 . S
O58 C57 1.203 . S
O59 C52 1.185 . S
O59 Zn55 2.086 . S
C60 O56 1.278 . S
C60 O61 1.211 . S
O61 C60 1.211 . S
C62 O54 1.284 . S
C62 O63 1.273 . S
O63 C62 1.273 . S
O64 Zn55 1.977 . S
O64 C57 1.267 . S
C65 O66 1.160 . S
C65 O72 1.185 . S
O66 C65 1.160 . S
O67 Zn68 1.899 . S
O67 C75 1.284 . S
Zn68 O67 1.899 . S
Zn68 O69 2.032 . S
Zn68 O72 2.086 . S
Zn68 O77 1.977 . S
O69 Zn68 2.032 . S
O69 C73 1.278 . S
C70 O71 1.203 . S
C70 O77 1.267 . S
O71 C70 1.203 . S
O72 C65 1.185 . S
O72 Zn68 2.086 . S
C73 O69 1.278 . S
C73 O74 1.211 . S
O74 C73 1.211 . S
C75 O67 1.284 . S
C75 O76 1.273 . S
O76 C75 1.273 . S
O77 Zn68 1.977 . S
O77 C70 1.267 . S
C78 O79 1.160 . S
C78 O85 1.185 . S
O79 C78 1.160 . S
O80 Zn81 1.899 1_554 S
O80 C88 1.284 . S
Zn81 O80 1.899 1_556 S
Zn81 O82 2.032 . S
Zn81 O85 2.086 . S
Zn81 O90 1.977 1_556 S
O82 Zn81 2.032 . S
O82 C86 1.278 . S
C83 O84 1.203 . S
C83 O90 1.267 . S
O84 C83 1.203 . S
O85 C78 1.185 . S
O85 Zn81 2.086 . S
C86 O82 1.278 . S
C86 O87 1.211 . S
O87 C86 1.211 . S
C88 O80 1.284 . S
C88 O89 1.273 1_554 S
O89 C88 1.273 1_556 S
O90 Zn81 1.977 1_554 S
O90 C83 1.267 . S
C91 O92 1.160 . S
C91 O98 1.185 . S
O92 C91 1.160 . S
O93 Zn94 1.899 1_554 S
O93 C101 1.284 . S
Zn94 O93 1.899 1_556 S
Zn94 O95 2.032 . S
Zn94 O98 2.086 . S
Zn94 O103 1.977 1_556 S
O95 Zn94 2.032 . S
O95 C99 1.278 . S
C96 O97 1.203 . S
C96 O103 1.267 . S
O97 C96 1.203 . S
O98 C91 1.185 . S
O98 Zn94 2.086 . S
C99 O95 1.278 . S
C99 O100 1.211 . S
O100 C99 1.211 . S
C101 O93 1.284 . S
C101 O102 1.273 1_554 S
O102 C101 1.273 1_556 S
O103 Zn94 1.977 1_554 S
O103 C96 1.267 . S
C104 O105 1.160 . S
C104 O111 1.185 . S
O105 C104 1.160 . S
O106 Zn107 1.899 1_554 S
O106 C114 1.284 . S
Zn107 O106 1.899 1_556 S
Zn107 O108 2.032 . S
Zn107 O111 2.086 . S
Zn107 O116 1.977 1_556 S
O108 Zn107 2.032 . S
O108 C112 1.278 . S
C109 O110 1.203 . S
C109 O116 1.267 . S
O110 C109 1.203 . S
O111 C104 1.185 . S
O111 Zn107 2.086 . S
C112 O108 1.278 . S
C112 O113 1.211 . S
O113 C112 1.211 . S
C114 O106 1.284 . S
C114 O115 1.273 1_554 S
O115 C114 1.273 1_556 S
O116 Zn107 1.977 1_554 S
O116 C109 1.267 . S
C117 O118 1.160 . S
C117 O124 1.185 . S
O118 C117 1.160 . S
O119 Zn120 1.899 . S
O119 C127 1.284 . S
Zn120 O119 1.899 . S
Zn120 O121 2.032 . S
Zn120 O124 2.086 . S
Zn120 O129 1.977 . S
O121 Zn120 2.032 . S
O121 C125 1.278 . S
C122 O123 1.203 . S
C122 O129 1.267 . S
O123 C122 1.203 . S
O124 C117 1.185 . S
O124 Zn120 2.086 . S
C125 O121 1.278 . S
C125 O126 1.211 . S
O126 C125 1.211 . S
C127 O119 1.284 . S
C127 O128 1.273 . S
O128 C127 1.273 . S
O129 Zn120 1.977 . S
O129 C122 1.267 . S
C130 O131 1.160 . S
C130 O137 1.185 . S
O131 C130 1.160 . S
O132 Zn133 1.899 . S
O132 C140 1.284 . S
Zn133 O132 1.899 . S
Zn133 O134 2.032 . S
Zn133 O137 2.086 . S
Zn133 O142 1.977 . S
O134 Zn133 2.032 . S
O134 C138 1.278 . S
C135 O136 1.203 . S
C135 O142 1.267 . S
O136 C135 1.203 . S
O137 C130 1.185 . S
O137 Zn133 2.086 . S
C138 O134 1.278 . S
C138 O139 1.211 . S
O139 C138 1.211 . S
C140 O132 1.284 . S
C140 O141 1.273 . S
O141 C140 1.273 . S
O142 Zn133 1.977 . S
O142 C135 1.267 . S
C143 O144 1.160 . S
C143 O150 1.185 . S
O144 C143 1.160 . S
O145 Zn146 1.899 . S
O145 C153 1.284 . S
Zn146 O145 1.899 . S
Zn146 O147 2.032 . S
Zn146 O150 2.086 . S
Zn146 O155 1.977 . S
O147 Zn146 2.032 . S
O147 C151 1.278 . S
C148 O149 1.203 . S
C148 O155 1.267 . S
O149 C148 1.203 . S
O150 C143 1.185 . S
O150 Zn146 2.086 . S
C151 O147 1.278 . S
C151 O152 1.211 . S
O152 C151 1.211 . S
C153 O145 1.284 . S
C153 O154 1.273 . S
O154 C153 1.273 . S
O155 Zn146 1.977 . S
O155 C148 1.267 . S
C156 O157 1.160 . S
C156 O163 1.185 . S
O157 C156 1.160 . S
O158 Zn159 1.899 . S
O158 C166 1.284 . S
Zn159 O158 1.899 . S
Zn159 O160 2.032 . S
Zn159 O163 2.086 . S
Zn159 O168 1.977 . S
O160 Zn159 2.032 . S
O160 C164 1.278 . S
C161 O162 1.203 . S
C161 O168 1.267 . S
O162 C161 1.203 . S
O163 C156 1.185 . S
O163 Zn159 2.086 . S
C164 O160 1.278 . S
C164 O165 1.211 . S
O165 C164 1.211 . S
C166 O158 1.284 . S
C166 O167 1.273 . S
O167 C166 1.273 . S
O168 Zn159 1.977 . S
O168 C161 1.267 . S
C169 O170 1.160 . S
C169 O176 1.185 . S
O170 C169 1.160 . S
O171 Zn172 1.899 . S
O171 C179 1.284 . S
Zn172 O171 1.899 . S
Zn172 O173 2.032 . S
Zn172 O176 2.086 . S
Zn172 O181 1.977 . S
O173 Zn172 2.032 . S
O173 C177 1.278 . S
C174 O175 1.203 . S
C174 O181 1.267 . S
O175 C174 1.203 . S
O176 C169 1.185 . S
O176 Zn172 2.086 . S
C177 O173 1.278 . S
C177 O178 1.211 . S
O178 C177 1.211 . S
C179 O171 1.284 . S
C179 O180 1.273 . S
O180 C179 1.273 . S
O181 Zn172 1.977 . S
O181 C174 1.267 . S
C182 O183 1.160 . S
C182 O189 1.185 . S
O183 C182 1.160 . S
O184 Zn185 1.899 . S
O184 C192 1.284 . S
Zn185 O184 1.899 . S
Zn185 O186 2.032 . S
Zn185 O189 2.086 . S
Zn185 O194 1.977 . S
O186 Zn185 2.032 . S
O186 C190 1.278 . S
C187 O188 1.203 . S
C187 O194 1.267 . S
O188 C187 1.203 . S
O189 C182 1.185 . S
O189 Zn185 2.086 . S
C190 O186 1.278 . S
C190 O191 1.211 . S
O191 C190 1.211 . S
C192 O184 1.284 . S
C192 O193 1.273 . S
O193 C192 1.273 . S
O194 Zn185 1.977 . S
O194 C187 1.267 . S
C195 O196 1.160 . S
C195 O202 1.185 . S
O196 C195 1.160 . S
O197 Zn198 1.899 . S
O197 C205 1.284 . S
Zn198 O197 1.899 . S
Zn198 O199 2.032 . S
Zn198 O202 2.086 . S
Zn198 O207 1.977 . S
O199 Zn198 2.032 . S
O199 C203 1.278 . S
C200 O201 1.203 . S
C200 O207 1.267 1_554 S
O201 C200 1.203 . S
O202 C195 1.185 . S
O202 Zn198 2.086 . S
C203 O199 1.278 . S
C203 O204 1.211 . S
O204 C203 1.211 . S
C205 O197 1.284 . S
C205 O206 1.273 . S
O206 C205 1.273 . S
O207 Zn198 1.977 . S
O207 C200 1.267 1_556 S
C208 O209 1.160 . S
C208 O215 1.185 . S
O209 C208 1.160 . S
O210 Zn211 1.899 . S
O210 C218 1.284 . S
Zn211 O210 1.899 . S
Zn211 O212 2.032 . S
Zn211 O215 2.086 . S
Zn211 O220 1.977 . S
O212 Zn211 2.032 . S
O212 C216 1.278 . S
C213 O214 1.203 . S
C213 O220 1.267 1_554 S
O214 C213 1.203 . S
O215 C208 1.185 . S
O215 Zn211 2.086 . S
C216 O212 1.278 . S
C216 O217 1.211 . S
O217 C216 1.211 . S
C218 O210 1.284 . S
C218 O219 1.273 . S
O219 C218 1.273 . S
O220 Zn211 1.977 . S
O220 C213 1.267 1_556 S
C221 O222 1.160 . S
C221 O228 1.185 . S
O222 C221 1.160 . S
O223 Zn224 1.899 . S
O223 C231 1.284 . S
Zn224 O223 1.899 . S
Zn224 O225 2.032 . S
Zn224 O228 2.086 . S
Zn224 O233 1.977 . S
O225 Zn224 2.032 . S
O225 C229 1.278 . S
C226 O227 1.203 . S
C226 O233 1.267 1_554 S
O227 C226 1.203 . S
O228 C221 1.185 . S
O228 Zn224 2.086 . S
C229 O225 1.278 . S
C229 O230 1.211 . S
O230 C229 1.211 . S
C231 O223 1.284 . S
C231 O232 1.273 . S
O232 C231 1.273 . S
O233 Zn224 1.977 . S
O233 C226 1.267 1_556 S
C234 O235 1.160 . S
C234 O241 1.185 . S
O235 C234 1.160 . S
O236 Zn237 1.899 . S
O236 C244 1.284 . S
Zn237 O236 1.899 . S
Zn237 O238 2.032 . S
Zn237 O241 2.086 . S
Zn237 O246 1.977 . S
O238 Zn237 2.032 . S
O238 C242 1.278 . S
C239 O240 1.203 . S
C239 O246 1.267 . S
O240 C239 1.203 . S
O241 C234 1.185 . S
O241 Zn237 2.086 . S
C242 O238 1.278 . S
C242 O243 1.211 . S
O243 C242 1.211 . S
C244 O236 1.284 . S
C244 O245 1.273 . S
O245 C244 1.273 . S
O246 Zn237 1.977 . S
O246 C239 1.267 . S
C247 O248 1.160 . S
C247 O254 1.185 . S
O248 C247 1.160 . S
O249 Zn250 1.899 . S
O249 C257 1.284 . S
Zn250 O249 1.899 . S
Zn250 O251 2.032 . S
Zn250 O254 2.086 . S
Zn250 O259 1.977 . S
O251 Zn250 2.032 . S
O251 C255 1.278 . S
C252 O253 1.203 . S
C252 O259 1.267 . S
O253 C252 1.203 . S
O254 C247 1.185 . S
O254 Zn250 2.086 . S
C255 O251 1.278 . S
C255 O256 1.211 . S
O256 C255 1.211 . S
C257 O249 1.284 . S
C257 O258 1.273 . S
O258 C257 1.273 . S
O259 Zn250 1.977 . S
O259 C252 1.267 . S
C260 O261 1.160 . S
C260 O267 1.185 . S
O261 C260 1.160 . S
O262 Zn263 1.899 . S
O262 C270 1.284 . S
Zn263 O262 1.899 . S
Zn263 O264 2.032 . S
Zn263 O267 2.086 . S
Zn263 O272 1.977 . S
O264 Zn263 2.032 . S
O264 C268 1.278 . S
C265 O266 1.203 . S
C265 O272 1.267 . S
O266 C265 1.203 . S
O267 C260 1.185 . S
O267 Zn263 2.086 . S
C268 O264 1.278 . S
C268 O269 1.211 . S
O269 C268 1.211 . S
C270 O262 1.284 . S
C270 O271 1.273 . S
O271 C270 1.273 . S
O272 Zn263 1.977 . S
O272 C265 1.267 . S
C273 O274 1.160 1_556 S
C273 O280 1.185 . S
O274 C273 1.160 1_554 S
O275 Zn276 1.899 . S
O275 C283 1.284 . S
Zn276 O275 1.899 . S
Zn276 O277 2.032 1_556 S
Zn276 O280 2.086 . S
Zn276 O285 1.977 . S
O277 Zn276 2.032 1_554 S
O277 C281 1.278 . S
C278 O279 1.203 . S
C278 O285 1.267 . S
O279 C278 1.203 . S
O280 C273 1.185 . S
O280 Zn276 2.086 . S
C281 O277 1.278 . S
C281 O282 1.211 1_554 S
O282 C281 1.211 1_556 S
C283 O275 1.284 . S
C283 O284 1.273 . S
O284 C283 1.273 . S
O285 Zn276 1.977 . S
O285 C278 1.267 . S
C286 O287 1.160 1_556 S
C286 O293 1.185 . S
O287 C286 1.160 1_554 S
O288 Zn289 1.899 . S
O288 C296 1.284 . S
Zn289 O288 1.899 . S
Zn289 O290 2.032 1_556 S
Zn289 O293 2.086 . S
Zn289 O298 1.977 . S
O290 Zn289 2.032 1_554 S
O290 C294 1.278 . S
C291 O292 1.203 . S
C291 O298 1.267 . S
O292 C291 1.203 . S
O293 C286 1.185 . S
O293 Zn289 2.086 . S
C294 O290 1.278 . S
C294 O295 1.211 1_554 S
O295 C294 1.211 1_556 S
C296 O288 1.284 . S
C296 O297 1.273 . S
O297 C296 1.273 . S
O298 Zn289 1.977 . S
O298 C291 1.267 . S
C299 O300 1.160 1_556 S
C299 O306 1.185 . S
O300 C299 1.160 1_554 S
O301 Zn302 1.899 . S
O301 C309 1.284 . S
Zn302 O301 1.899 . S
Zn302 O303 2.032 1_556 S
Zn302 O306 2.086 . S
Zn302 O311 1.977 . S
O303 Zn302 2.032 1_554 S
O303 C307 1.278 . S
C304 O305 1.203 . S
C304 O311 1.267 . S
O305 C304 1.203 . S
O306 C299 1.185 . S
O306 Zn302 2.086 . S
C307 O303 1.278 . S
C307 O308 1.211 1_554 S
O308 C307 1.211 1_556 S
C309 O301 1.284 . S
C309 O310 1.273 . S
O310 C309 1.273 . S
O311 Zn302 1.977 . S
O311 C304 1.267 . S
C312 O313 1.160 . S
C312 O319 1.185 . S
O313 C312 1.160 . S
O314 Zn315 1.899 . S
O314 C322 1.284 . S
Zn315 O314 1.899 . S
Zn315 O316 2.032 . S
Zn315 O319 2.086 . S
Zn315 O324 1.977 . S
O316 Zn315 2.032 . S
O316 C320 1.278 . S
C317 O318 1.203 . S
C317 O324 1.267 . S
O318 C317 1.203 . S
O319 C312 1.185 . S
O319 Zn315 2.086 . S
C320 O316 1.278 . S
C320 O321 1.211 . S
O321 C320 1.211 . S
C322 O314 1.284 . S
C322 O323 1.273 . S
O323 C322 1.273 . S
O324 Zn315 1.977 . S
O324 C317 1.267 . S
C325 O326 1.160 . S
C325 O332 1.185 . S
O326 C325 1.160 . S
O327 Zn328 1.899 . S
O327 C335 1.284 . S
Zn328 O327 1.899 . S
Zn328 O329 2.032 . S
Zn328 O332 2.086 . S
Zn328 O337 1.977 . S
O329 Zn328 2.032 . S
O329 C333 1.278 . S
C330 O331 1.203 . S
C330 O337 1.267 . S
O331 C330 1.203 . S
O332 C325 1.185 . S
O332 Zn328 2.086 . S
C333 O329 1.278 . S
C333 O334 1.211 . S
O334 C333 1.211 . S
C335 O327 1.284 . S
C335 O336 1.273 . S
O336 C335 1.273 . S
O337 Zn328 1.977 . S
O337 C330 1.267 . S
C338 O339 1.160 . S
C338 O345 1.185 . S
O339 C338 1.160 . S
O340 Zn341 1.899 . S
O340 C348 1.284 . S
Zn341 O340 1.899 . S
Zn341 O342 2.032 . S
Zn341 O345 2.086 . S
Zn341 O350 1.977 . S
O342 Zn341 2.032 . S
O342 C346 1.278 . S
C343 O344 1.203 . S
C343 O350 1.267 . S
O344 C343 1.203 . S
O345 C338 1.185 . S
O345 Zn341 2.086 . S
C346 O342 1.278 . S
C346 O347 1.211 . S
O347 C346 1.211 . S
C348 O340 1.284 . S
C348 O349 1.273 . S
O349 C348 1.273 . S
O350 Zn341 1.977 . S
O350 C343 1.267 . S
C351 O352 1.160 1_554 S
C351 O358 1.185 . S
O352 C351 1.160 1_556 S
O353 Zn354 1.899 . S
O353 C361 1.284 . S
Zn354 O353 1.899 . S
Zn354 O355 2.032 1_554 S
Zn354 O358 2.086 . S
Zn354 O363 1.977 . S
O355 Zn354 2.032 1_556 S
O355 C359 1.278 . S
C356 O357 1.203 . S
C356 O363 1.267 . S
O357 C356 1.203 . S
O358 C351 1.185 . S
O358 Zn354 2.086 . S
C359 O355 1.278 . S
C359 O360 1.211 1_556 S
O360 C359 1.211 1_554 S
C361 O353 1.284 . S
C361 O362 1.273 . S
O362 C361 1.273 . S
O363 Zn354 1.977 . S
O363 C356 1.267 . S
C364 O365 1.160 1_554 S
C364 O371 1.185 . S
O365 C364 1.160 1_556 S
O366 Zn367 1.899 . S
O366 C374 1.284 . S
Zn367 O366 1.899 . S
Zn367 O368 2.032 1_554 S
Zn367 O371 2.086 . S
Zn367 O376 1.977 . S
O368 Zn367 2.032 1_556 S
O368 C372 1.278 . S
C369 O370 1.203 . S
C369 O376 1.267 . S
O370 C369 1.203 . S
O371 C364 1.185 . S
O371 Zn367 2.086 . S
C372 O368 1.278 . S
C372 O373 1.211 1_556 S
O373 C372 1.211 1_554 S
C374 O366 1.284 . S
C374 O375 1.273 . S
O375 C374 1.273 . S
O376 Zn367 1.977 . S
O376 C369 1.267 . S
C377 O378 1.160 1_554 S
C377 O384 1.185 . S
O378 C377 1.160 1_556 S
O379 Zn380 1.899 . S
O379 C387 1.284 . S
Zn380 O379 1.899 . S
Zn380 O381 2.032 1_554 S
Zn380 O384 2.086 . S
Zn380 O389 1.977 . S
O381 Zn380 2.032 1_556 S
O381 C385 1.278 . S
C382 O383 1.203 . S
C382 O389 1.267 . S
O383 C382 1.203 . S
O384 C377 1.185 . S
O384 Zn380 2.086 . S
C385 O381 1.278 . S
C385 O386 1.211 1_556 S
O386 C385 1.211 1_554 S
C387 O379 1.284 . S
C387 O388 1.273 . S
O388 C387 1.273 . S
O389 Zn380 1.977 . S
O389 C382 1.267 . S
C390 O391 1.160 . S
C390 O397 1.185 . S
O391 C390 1.160 . S
O392 Zn393 1.899 . S
O392 C400 1.284 . S
Zn393 O392 1.899 . S
Zn393 O394 2.032 . S
Zn393 O397 2.086 . S
Zn393 O402 1.977 . S
O394 Zn393 2.032 . S
O394 C398 1.278 . S
C395 O396 1.203 . S
C395 O402 1.267 . S
O396 C395 1.203 . S
O397 C390 1.185 . S
O397 Zn393 2.086 . S
C398 O394 1.278 . S
C398 O399 1.211 . S
O399 C398 1.211 . S
C400 O392 1.284 . S
C400 O401 1.273 . S
O401 C400 1.273 . S
O402 Zn393 1.977 . S
O402 C395 1.267 . S
C403 O404 1.160 . S
C403 O410 1.185 . S
O404 C403 1.160 . S
O405 Zn406 1.899 . S
O405 C413 1.284 . S
Zn406 O405 1.899 . S
Zn406 O407 2.032 . S
Zn406 O410 2.086 . S
Zn406 O415 1.977 . S
O407 Zn406 2.032 . S
O407 C411 1.278 . S
C408 O409 1.203 . S
C408 O415 1.267 . S
O409 C408 1.203 . S
O410 C403 1.185 . S
O410 Zn406 2.086 . S
C411 O407 1.278 . S
C411 O412 1.211 . S
O412 C411 1.211 . S
C413 O405 1.284 . S
C413 O414 1.273 . S
O414 C413 1.273 . S
O415 Zn406 1.977 . S
O415 C408 1.267 . S
C416 O417 1.160 . S
C416 O423 1.185 . S
O417 C416 1.160 . S
O418 Zn419 1.899 . S
O418 C426 1.284 . S
Zn419 O418 1.899 . S
Zn419 O420 2.032 . S
Zn419 O423 2.086 . S
Zn419 O428 1.977 . S
O420 Zn419 2.032 . S
O420 C424 1.278 . S
C421 O422 1.203 . S
C421 O428 1.267 . S
O422 C421 1.203 . S
O423 C416 1.185 . S
O423 Zn419 2.086 . S
C424 O420 1.278 . S
C424 O425 1.211 . S
O425 C424 1.211 . S
C426 O418 1.284 . S
C426 O427 1.273 . S
O427 C426 1.273 . S
O428 Zn419 1.977 . S
O428 C421 1.267 . S
C429 O430 1.160 . S
C429 O436 1.185 . S
O430 C429 1.160 . S
O431 Zn432 1.899 . S
O431 C439 1.284 . S
Zn432 O431 1.899 . S
Zn432 O433 2.032 . S
Zn432 O436 2.086 . S
Zn432 O441 1.977 . S
O433 Zn432 2.032 . S
O433 C437 1.278 . S
C434 O435 1.203 . S
C434 O441 1.267 1_556 S
O435 C434 1.203 . S
O436 C429 1.185 . S
O436 Zn432 2.086 . S
C437 O433 1.278 . S
C437 O438 1.211 . S
O438 C437 1.211 . S
C439 O431 1.284 . S
C439 O440 1.273 . S
O440 C439 1.273 . S
O441 Zn432 1.977 . S
O441 C434 1.267 1_554 S
C442 O443 1.160 . S
C442 O449 1.185 . S
O443 C442 1.160 . S
O444 Zn445 1.899 . S
O444 C452 1.284 . S
Zn445 O444 1.899 . S
Zn445 O446 2.032 . S
Zn445 O449 2.086 . S
Zn445 O454 1.977 . S
O446 Zn445 2.032 . S
O446 C450 1.278 . S
C447 O448 1.203 . S
C447 O454 1.267 1_556 S
O448 C447 1.203 . S
O449 C442 1.185 . S
O449 Zn445 2.086 . S
C450 O446 1.278 . S
C450 O451 1.211 . S
O451 C450 1.211 . S
C452 O444 1.284 . S
C452 O453 1.273 . S
O453 C452 1.273 . S
O454 Zn445 1.977 . S
O454 C447 1.267 1_554 S
C455 O456 1.160 . S
C455 O462 1.185 . S
O456 C455 1.160 . S
O457 Zn458 1.899 . S
O457 C465 1.284 . S
Zn458 O457 1.899 . S
Zn458 O459 2.032 . S
Zn458 O462 2.086 . S
Zn458 O467 1.977 . S
O459 Zn458 2.032 . S
O459 C463 1.278 . S
C460 O461 1.203 . S
C460 O467 1.267 1_556 S
O461 C460 1.203 . S
O462 C455 1.185 . S
O462 Zn458 2.086 . S
C463 O459 1.278 . S
C463 O464 1.211 . S
O464 C463 1.211 . S
C465 O457 1.284 . S
C465 O466 1.273 . S
O466 C465 1.273 . S
O467 Zn458 1.977 . S
O467 C460 1.267 1_554 S
C65 C0 1.988 1_565 S
C13 C39 1.988 1_655 S
C52 C26 1.991 . S
C78 C143 1.988 1_565 S
C91 C117 1.988 1_455 S
C130 C104 1.991 . S
C221 C156 1.991 . S
C169 C195 1.989 . S
C208 C182 1.990 . S
C234 C299 1.989 1_554 S
C247 C273 1.991 1_554 S
C260 C286 1.990 1_554 S
C312 C377 1.989 1_556 S
C351 C325 1.991 1_554 S
C338 C364 1.990 1_556 S
C390 C455 1.991 . S
C403 C429 1.989 . S
C416 C442 1.990 . S
C138 C5 1.142 . S
C151 C18 1.142 . S
C125 C31 1.143 . S
C112 C44 1.142 . S
C57 C86 1.142 . S
C70 C99 1.142 . S
C83 C60 1.142 . S
C96 C73 1.142 . S
C109 C47 1.142 . S
C34 C122 1.142 . S
C8 C135 1.143 . S
C148 C21 1.142 . S
C161 C294 1.142 . S
C174 C307 1.142 . S
C281 C187 1.142 . S
C200 C268 1.141 . S
C213 C242 1.142 . S
C226 C255 1.143 . S
C239 C216 1.142 . S
C229 C252 1.143 . S
C203 C265 1.142 . S
C278 C190 1.142 . S
C164 C291 1.142 . S
C177 C304 1.142 . S
C450 C317 1.142 . S
C330 C463 1.143 . S
C343 C437 1.142 . S
C424 C356 1.142 . S
C398 C369 1.142 . S
C411 C382 1.142 . S
C395 C372 1.142 . S
C385 C408 1.142 . S
C421 C359 1.142 . S
C346 C434 1.142 . S
C320 C447 1.142 . S
C333 C460 1.143 . S
C218 C10 1.628 . S
C23 C231 1.629 . S
C205 C36 1.628 . S
C348 C49 1.628 . S
C62 C322 1.629 . S
C75 C335 1.629 . S
C88 C452 1.628 . S
C465 C101 1.629 . S
C439 C114 1.628 . S
C270 C127 1.628 . S
C140 C244 1.629 . S
C153 C257 1.629 . S
C166 C374 1.628 1_655 S
C387 C179 1.628 . S
C361 C192 1.628 1_565 S
C283 C426 1.628 1_545 S
C400 C296 1.628 1_455 S
C413 C309 1.628 . S
