# Generated by pormake.
# Topology xfg, (7)-cn, num edge types: 1
# Building blocks:
#     Node 0, Type 0, BuildingBlock: HICVOG_clean_sbu_0, # of connection points: 7
#     Node 1, Type 0, BuildingBlock: HICVOG_clean_sbu_0, # of connection points: 7
#     Node 2, Type 0, BuildingBlock: HICVOG_clean_sbu_0, # of connection points: 7
#     Node 3, Type 0, BuildingBlock: HICVOG_clean_sbu_0, # of connection points: 7
#     Node 4, Type 0, BuildingBlock: HICVOG_clean_sbu_0, # of connection points: 7
#     Node 5, Type 0, BuildingBlock: HICVOG_clean_sbu_0, # of connection points: 7
#     Node 6, Type 0, BuildingBlock: HICVOG_clean_sbu_0, # of connection points: 7
#     Node 7, Type 0, BuildingBlock: HICVOG_clean_sbu_0, # of connection points: 7
#     Node 8, Type 0, BuildingBlock: HICVOG_clean_sbu_0, # of connection points: 7
#     Node 9, Type 0, BuildingBlock: HICVOG_clean_sbu_0, # of connection points: 7
#     Node 10, Type 0, BuildingBlock: HICVOG_clean_sbu_0, # of connection points: 7
#     Node 11, Type 0, BuildingBlock: HICVOG_clean_sbu_0, # of connection points: 7
#     Node 12, Type 0, BuildingBlock: HICVOG_clean_sbu_0, # of connection points: 7
#     Node 13, Type 0, BuildingBlock: HICVOG_clean_sbu_0, # of connection points: 7
#     Node 14, Type 0, BuildingBlock: HICVOG_clean_sbu_0, # of connection points: 7
#     Node 15, Type 0, BuildingBlock: HICVOG_clean_sbu_0, # of connection points: 7
#     Edge 16, Type (0, 0), BuildingBlock: OJICUG_clean_linker_0, # of connection points: 2
#     Edge 17, Type (0, 0), BuildingBlock: OJICUG_clean_linker_0, # of connection points: 2
#     Edge 18, Type (0, 0), BuildingBlock: OJICUG_clean_linker_0, # of connection points: 2
#     Edge 19, Type (0, 0), BuildingBlock: OJICUG_clean_linker_0, # of connection points: 2
#     Edge 20, Type (0, 0), BuildingBlock: OJICUG_clean_linker_0, # of connection points: 2
#     Edge 21, Type (0, 0), BuildingBlock: OJICUG_clean_linker_0, # of connection points: 2
#     Edge 22, Type (0, 0), BuildingBlock: OJICUG_clean_linker_0, # of connection points: 2
#     Edge 23, Type (0, 0), BuildingBlock: OJICUG_clean_linker_0, # of connection points: 2
#     Edge 24, Type (0, 0), BuildingBlock: OJICUG_clean_linker_0, # of connection points: 2
#     Edge 25, Type (0, 0), BuildingBlock: OJICUG_clean_linker_0, # of connection points: 2
#     Edge 26, Type (0, 0), BuildingBlock: OJICUG_clean_linker_0, # of connection points: 2
#     Edge 27, Type (0, 0), BuildingBlock: OJICUG_clean_linker_0, # of connection points: 2
#     Edge 28, Type (0, 0), BuildingBlock: OJICUG_clean_linker_0, # of connection points: 2
#     Edge 29, Type (0, 0), BuildingBlock: OJICUG_clean_linker_0, # of connection points: 2
#     Edge 30, Type (0, 0), BuildingBlock: OJICUG_clean_linker_0, # of connection points: 2
#     Edge 31, Type (0, 0), BuildingBlock: OJICUG_clean_linker_0, # of connection points: 2
#     Edge 32, Type (0, 0), BuildingBlock: OJICUG_clean_linker_0, # of connection points: 2
#     Edge 33, Type (0, 0), BuildingBlock: OJICUG_clean_linker_0, # of connection points: 2
#     Edge 34, Type (0, 0), BuildingBlock: OJICUG_clean_linker_0, # of connection points: 2
#     Edge 35, Type (0, 0), BuildingBlock: OJICUG_clean_linker_0, # of connection points: 2
#     Edge 36, Type (0, 0), BuildingBlock: OJICUG_clean_linker_0, # of connection points: 2
#     Edge 37, Type (0, 0), BuildingBlock: OJICUG_clean_linker_0, # of connection points: 2
#     Edge 38, Type (0, 0), BuildingBlock: OJICUG_clean_linker_0, # of connection points: 2
#     Edge 39, Type (0, 0), BuildingBlock: OJICUG_clean_linker_0, # of connection points: 2
#     Edge 40, Type (0, 0), BuildingBlock: OJICUG_clean_linker_0, # of connection points: 2
#     Edge 41, Type (0, 0), BuildingBlock: OJICUG_clean_linker_0, # of connection points: 2
#     Edge 42, Type (0, 0), BuildingBlock: OJICUG_clean_linker_0, # of connection points: 2
#     Edge 43, Type (0, 0), BuildingBlock: OJICUG_clean_linker_0, # of connection points: 2
#     Edge 44, Type (0, 0), BuildingBlock: OJICUG_clean_linker_0, # of connection points: 2
#     Edge 45, Type (0, 0), BuildingBlock: OJICUG_clean_linker_0, # of connection points: 2
#     Edge 46, Type (0, 0), BuildingBlock: OJICUG_clean_linker_0, # of connection points: 2
#     Edge 47, Type (0, 0), BuildingBlock: OJICUG_clean_linker_0, # of connection points: 2
#     Edge 48, Type (0, 0), BuildingBlock: OJICUG_clean_linker_0, # of connection points: 2
#     Edge 49, Type (0, 0), BuildingBlock: OJICUG_clean_linker_0, # of connection points: 2
#     Edge 50, Type (0, 0), BuildingBlock: OJICUG_clean_linker_0, # of connection points: 2
#     Edge 51, Type (0, 0), BuildingBlock: OJICUG_clean_linker_0, # of connection points: 2
#     Edge 52, Type (0, 0), BuildingBlock: OJICUG_clean_linker_0, # of connection points: 2
#     Edge 53, Type (0, 0), BuildingBlock: OJICUG_clean_linker_0, # of connection points: 2
#     Edge 54, Type (0, 0), BuildingBlock: OJICUG_clean_linker_0, # of connection points: 2
#     Edge 55, Type (0, 0), BuildingBlock: OJICUG_clean_linker_0, # of connection points: 2
#     Edge 56, Type (0, 0), BuildingBlock: OJICUG_clean_linker_0, # of connection points: 2
#     Edge 57, Type (0, 0), BuildingBlock: OJICUG_clean_linker_0, # of connection points: 2
#     Edge 58, Type (0, 0), BuildingBlock: OJICUG_clean_linker_0, # of connection points: 2
#     Edge 59, Type (0, 0), BuildingBlock: OJICUG_clean_linker_0, # of connection points: 2
#     Edge 60, Type (0, 0), BuildingBlock: OJICUG_clean_linker_0, # of connection points: 2
#     Edge 61, Type (0, 0), BuildingBlock: OJICUG_clean_linker_0, # of connection points: 2
#     Edge 62, Type (0, 0), BuildingBlock: OJICUG_clean_linker_0, # of connection points: 2
#     Edge 63, Type (0, 0), BuildingBlock: OJICUG_clean_linker_0, # of connection points: 2
#     Edge 64, Type (0, 0), BuildingBlock: OJICUG_clean_linker_0, # of connection points: 2
#     Edge 65, Type (0, 0), BuildingBlock: OJICUG_clean_linker_0, # of connection points: 2
#     Edge 66, Type (0, 0), BuildingBlock: OJICUG_clean_linker_0, # of connection points: 2
#     Edge 67, Type (0, 0), BuildingBlock: OJICUG_clean_linker_0, # of connection points: 2
#     Edge 68, Type (0, 0), BuildingBlock: OJICUG_clean_linker_0, # of connection points: 2
#     Edge 69, Type (0, 0), BuildingBlock: OJICUG_clean_linker_0, # of connection points: 2
#     Edge 70, Type (0, 0), BuildingBlock: OJICUG_clean_linker_0, # of connection points: 2
#     Edge 71, Type (0, 0), BuildingBlock: OJICUG_clean_linker_0, # of connection points: 2
# Relax obj value: 0.181
# Max RMSD: 0.185
# Mean RMSD: 0.181
data_MOF--net-xfg--node1-HICVOG_clean_sbu_0--edge1-OJICUG_clean_linker_0
_symmetry_space_group_name_H-M    P1
_symmetry_Int_Tables_number       1
_symmetry_cell_setting            triclinic
loop_
_symmetry_equiv_pos_as_xyz
'x, y, z'
_cell_length_a     21.591694
_cell_length_b     21.586431
_cell_length_c     54.00398
_cell_angle_alpha  89.998877
_cell_angle_beta   89.971078
_cell_angle_gamma 89.89682
loop_
_atom_site_label
_atom_site_type_symbol
_atom_site_fract_x
_atom_site_fract_y
_atom_site_fract_z
_atom_type_partial_charge
Zn0 Zn 0.22417 0.14048 0.05611 0.0
C1 C 0.25812 0.30228 0.01931 0.0
N2 N 0.24659 0.32277 0.04233 0.0
C3 C 0.23578 0.27076 0.05482 0.0
N4 N 0.24118 0.22006 0.04058 0.0
N5 N 0.25512 0.23881 0.01779 0.0
C6 C 0.21045 0.13936 0.95036 0.0
O7 O 0.19193 0.09827 0.96668 0.0
O8 O 0.26374 0.13904 0.09058 0.0
Zn9 Zn 0.28237 0.17868 0.99222 0.0
N10 N 0.13612 0.13894 0.0609 0.0
C11 C 1.03436 0.17098 0.04971 0.0
C12 C 0.0966 0.16172 0.04353 0.0
C13 C 0.11583 0.12285 0.08372 0.0
N14 N 1.01485 0.15844 0.07313 0.0
C15 C 0.05423 0.1341 0.09023 0.0
O16 O 0.27872 0.08381 0.00156 0.0
C17 C 0.26638 1.04395 0.01838 0.0
O18 O 0.24628 0.06084 0.03934 0.0
H19 H 0.11381 0.17499 0.02548 0.0
H20 H 0.14872 0.10651 0.09737 0.0
C21 C 0.40714 0.14911 0.99448 0.0
C22 C 0.4704 0.15314 0.98949 0.0
C23 C 0.45377 0.25094 0.97055 0.0
C24 C 0.39026 0.24581 0.97512 0.0
N25 N 0.3685 0.19471 0.98693 0.0
N26 N 0.49229 0.20412 0.9775 0.0
H27 H 0.38817 0.10856 0.00329 0.0
C28 C 0.32056 0.13185 0.0963 0.0
O29 O 0.36161 0.12345 0.07865 0.0
O30 O 0.24262 0.18521 0.95782 0.0
H31 H 0.35862 0.28141 0.9689 0.0
H32 H 1.00241 0.19018 0.03632 0.0
H33 H 0.47211 0.29108 0.96107 0.0
Zn34 Zn 0.70208 0.47449 0.30611 0.0
C35 C 0.54035 0.50934 0.26932 0.0
N36 N 0.51987 0.49783 0.29234 0.0
C37 C 0.57185 0.48673 0.3048 0.0
N38 N 0.62255 0.49194 0.29055 0.0
N39 N 0.60381 0.50608 0.26777 0.0
C40 C 0.70305 0.46073 0.2003 0.0
O41 O 0.74398 0.44178 0.21661 0.0
O42 O 0.70344 0.51387 0.34062 0.0
Zn43 Zn 0.66408 0.53292 0.24218 0.0
N44 N 0.70372 0.38637 0.31084 0.0
C45 C 0.67187 0.28462 0.29967 0.0
C46 C 0.68072 0.34692 0.29352 0.0
C47 C 0.72041 0.36596 0.33359 0.0
N48 N 0.68509 0.26497 0.32301 0.0
C49 C 0.70964 0.30428 0.34006 0.0
O50 O 0.75884 0.52824 0.25155 0.0
C51 C 0.7987 0.51597 0.26838 0.0
O52 O 0.7818 0.49635 0.28941 0.0
H53 H 0.667 0.36422 0.27554 0.0
H54 H 0.73696 0.39878 0.3472 0.0
C55 C 0.69572 0.65722 0.24371 0.0
C56 C 0.69234 0.72052 0.23869 0.0
C57 C 0.5929 0.70561 0.22101 0.0
C58 C 0.59731 0.64205 0.22565 0.0
N59 N 0.64889 0.61938 0.23688 0.0
N60 N 0.64081 0.7433 0.22731 0.0
H61 H 0.73663 0.63758 0.25201 0.0
C62 C 0.71027 0.57069 0.34639 0.0
O63 O 0.7183 0.61188 0.32877 0.0
O64 O 0.65734 0.49327 0.20777 0.0
H65 H 0.56075 0.61106 0.21993 0.0
H66 H 0.6525 0.25272 0.28632 0.0
H67 H 0.55237 0.72464 0.212 0.0
Zn68 Zn 0.31203 0.91477 0.49233 0.0
C69 C 0.36036 0.82286 0.5548 0.0
N70 N 0.34951 0.77081 0.54235 0.0
C71 C 0.33716 0.79126 0.51939 0.0
N72 N 0.33966 0.85474 0.51788 0.0
N73 N 0.35416 0.87355 0.5406 0.0
C74 C 0.27457 0.96118 0.59639 0.0
O75 O 0.23339 0.96921 0.57878 0.0
O76 O 0.35169 0.90825 0.4579 0.0
Zn77 Zn 0.37083 0.95321 0.55612 0.0
N78 N 0.22583 0.89874 0.48714 0.0
C79 C 0.14039 0.84238 0.471 0.0
C80 C 0.20391 0.8474 0.47555 0.0
C81 C 0.18732 0.94471 0.49446 0.0
N82 N 0.10202 0.88953 0.47772 0.0
C83 C 0.12406 0.94079 0.48948 0.0
O84 O 0.34831 1.03277 0.53938 0.0
C85 C 0.32804 0.04957 0.51844 0.0
O86 O 0.31569 1.00963 0.50165 0.0
H87 H 0.23544 0.81154 0.46948 0.0
H88 H 0.20641 0.98545 0.50306 0.0
C89 C 0.47911 0.972 0.58359 0.0
C90 C 0.54083 0.96145 0.59008 0.0
C91 C 0.56086 0.92369 0.54969 0.0
C92 C 0.49853 0.93233 0.54353 0.0
N93 N 0.45888 0.95524 0.56084 0.0
N94 N 0.58035 0.937 0.57304 0.0
H95 H 0.44615 0.98846 0.5972 0.0
C96 C 0.38392 0.95405 0.45043 0.0
O97 O 0.40247 0.99515 0.46673 0.0
O98 O 0.33141 0.95443 0.59062 0.0
H99 H 0.48138 0.91852 0.52554 0.0
H100 H 0.12194 0.80205 0.4617 0.0
H101 H 0.59292 0.90441 0.53634 0.0
Zn102 Zn 0.89007 0.6207 0.80605 0.0
C103 C 0.05213 0.5873 0.76928 0.0
N104 N 0.07252 0.59962 0.79223 0.0
C105 C 1.02043 0.61036 0.8047 0.0
N106 N 0.96978 0.60412 0.79052 0.0
N107 N 0.98865 0.58973 0.76777 0.0
C108 C 0.8891 0.63329 0.70036 0.0
O109 O 0.84803 0.65198 0.71668 0.0
O110 O 0.88902 0.58131 0.84055 0.0
Zn111 Zn 0.92876 0.56168 0.74231 0.0
N112 N 0.88774 0.70878 0.81076 0.0
C113 C 0.91888 0.81071 0.79953 0.0
C114 C 0.9103 0.74838 0.79339 0.0
C115 C 0.87122 0.72906 0.83355 0.0
N116 N 0.90587 0.83025 0.82291 0.0
C117 C 0.88175 0.79079 0.84001 0.0
O118 O 0.83387 0.56522 0.75163 0.0
C119 C 0.79389 0.57767 0.76841 0.0
O120 O 0.8106 0.59812 0.78933 0.0
H121 H 0.92392 0.73117 0.77538 0.0
H122 H 0.85506 0.69613 0.8472 0.0
C123 C 0.89981 0.43689 0.74481 0.0
C124 C 0.90413 0.37356 0.73997 0.0
C125 C 1.00215 0.38997 0.72121 0.0
C126 C 0.99671 0.45356 0.72563 0.0
N127 N 0.94535 0.47547 0.73727 0.0
N128 N 0.95537 0.35152 0.72813 0.0
H129 H 0.85906 0.45595 0.75348 0.0
C130 C 0.88242 0.52446 0.84633 0.0
O131 O 0.87444 0.48326 0.82872 0.0
O132 O 0.935 0.60104 0.70782 0.0
H133 H 1.03225 0.48514 0.7194 0.0
H134 H 0.93789 0.84274 0.78613 0.0
H135 H 1.04249 0.37152 0.71187 0.0
Zn136 Zn 0.8707 0.95456 0.94288 0.0
C137 C 0.83737 0.79263 0.97967 0.0
N138 N 0.84948 0.77215 0.95669 0.0
C139 C 0.86024 0.82418 0.94421 0.0
N140 N 0.85419 0.87489 0.95841 0.0
N141 N 0.83996 0.85611 0.98117 0.0
C142 C 0.88423 0.9558 0.04854 0.0
O143 O 0.90249 0.99698 0.03221 0.0
O144 O 0.83134 0.95567 0.90837 0.0
Zn145 Zn 0.81225 0.9161 0.00672 0.0
N146 N 0.95874 0.95672 0.93818 0.0
C147 C 0.06069 0.92531 0.94937 0.0
C148 C 0.99835 0.93397 0.95552 0.0
C149 C 0.97901 0.97334 0.91542 0.0
N150 N 0.08022 0.93842 0.926 0.0
C151 C 1.04074 0.96273 0.90894 0.0
O152 O 0.81534 1.01099 0.99736 0.0
C153 C 0.82757 0.05089 0.98055 0.0
O154 O 0.84795 1.03408 0.95961 0.0
H155 H 0.98115 0.92028 0.97352 0.0
H156 H 0.94607 0.98966 0.90179 0.0
C157 C 0.68735 0.94485 0.00434 0.0
C158 C 0.62411 0.94059 0.00933 0.0
C159 C 0.64121 0.84312 0.02849 0.0
C160 C 0.7047 0.84851 0.02392 0.0
N161 N 0.72622 0.89956 0.012 0.0
N162 N 0.60246 0.88966 0.02144 0.0
H163 H 0.70614 0.98537 0.99545 0.0
C164 C 0.77449 0.96225 0.9026 0.0
O165 O 0.73325 0.97017 0.92022 0.0
O166 O 0.85212 0.90987 0.04111 0.0
H167 H 0.73652 0.81317 0.03023 0.0
H168 H 0.09273 0.90614 0.96274 0.0
H169 H 0.62306 0.80302 0.03805 0.0
Zn170 Zn 0.39028 0.61963 0.69292 0.0
C171 C 0.5522 0.58624 0.72973 0.0
N172 N 0.57265 0.59812 0.70673 0.0
C173 C 0.52061 0.60879 0.69425 0.0
N174 N 0.46992 0.60295 0.70846 0.0
N175 N 0.48872 0.5889 0.73124 0.0
C176 C 0.38903 0.63334 0.79866 0.0
O177 O 0.34803 0.65199 0.78231 0.0
O178 O 0.38926 0.58019 0.65841 0.0
Zn179 Zn 0.42869 0.56138 0.75679 0.0
N180 N 0.38806 0.7077 0.68822 0.0
C181 C 0.41916 0.80963 0.69945 0.0
C182 C 0.4106 0.74729 0.70559 0.0
C183 C 0.37156 0.72799 0.66544 0.0
N184 N 0.40615 0.82919 0.67608 0.0
C185 C 0.38205 0.78973 0.65899 0.0
O186 O 0.33383 0.56506 0.74746 0.0
C187 C 0.29392 0.57724 0.73064 0.0
O188 O 0.31073 0.59724 0.70965 0.0
H189 H 0.42419 0.73007 0.7236 0.0
H190 H 0.3554 0.69507 0.65179 0.0
C191 C 0.39942 0.43665 0.75446 0.0
C192 C 0.40357 0.37335 0.75937 0.0
C193 C 0.50151 0.38967 0.77816 0.0
C194 C 0.49625 0.45323 0.77366 0.0
N195 N 0.44502 0.47518 0.76196 0.0
N196 N 0.45468 0.35127 0.77126 0.0
H197 H 0.35878 0.45575 0.74573 0.0
C198 C 0.38219 0.5234 0.65265 0.0
O199 O 0.37364 0.48232 0.67027 0.0
O200 O 0.43494 0.60102 0.79122 0.0
H201 H 0.53185 0.48478 0.77985 0.0
H202 H 0.43816 0.84165 0.71285 0.0
H203 H 0.54175 0.37119 0.78755 0.0
Zn204 Zn 0.72367 0.13995 0.44282 0.0
C205 C 0.75585 0.30211 0.47957 0.0
N206 N 0.74301 0.32248 0.45665 0.0
C207 C 0.73256 0.27035 0.44419 0.0
N208 N 0.7395 0.2197 0.45836 0.0
N209 N 0.75401 0.2386 0.48107 0.0
C210 C 0.7114 0.13934 0.54855 0.0
O211 O 0.69247 0.09844 0.53224 0.0
O212 O 0.76324 0.13913 0.40834 0.0
Zn213 Zn 0.7827 0.17878 0.5065 0.0
N214 N 0.63569 0.13725 0.43808 0.0
C215 C 0.53341 0.16759 0.4493 0.0
C216 C 0.59583 0.15957 0.45544 0.0
C217 C 0.61563 0.12047 0.41531 0.0
N218 N 0.51403 0.15426 0.42594 0.0
C219 C 0.55379 0.13037 0.40887 0.0
O220 O 0.77928 0.08382 0.49728 0.0
C221 C 0.76693 1.04382 0.48052 0.0
O222 O 0.74653 0.06054 0.45958 0.0
H223 H 0.61286 0.17337 0.47344 0.0
H224 H 0.64874 0.10447 0.40168 0.0
C225 C 0.90757 0.14985 0.50377 0.0
C226 C 0.97094 0.15433 0.50844 0.0
C227 C 0.95432 0.25257 0.52703 0.0
C228 C 0.89071 0.24698 0.52279 0.0
N229 N 0.86889 0.19545 0.51131 0.0
N230 N 0.99289 0.20575 0.52011 0.0
H231 H 0.88859 0.10895 0.49524 0.0
C232 C 0.81988 0.13076 0.40258 0.0
O233 O 0.86063 0.1206 0.42018 0.0
O234 O 0.74373 0.18507 0.54106 0.0
H235 H 0.85906 0.28255 0.52903 0.0
H236 H 0.50116 0.1864 0.46268 0.0
H237 H 0.9727 0.29306 0.53624 0.0
Zn238 Zn 0.20277 0.4737 0.1929 0.0
C239 C 1.04059 0.50487 0.22987 0.0
N240 N 1.0202 0.4918 0.20698 0.0
C241 C 0.07234 0.48173 0.19445 0.0
N242 N 0.123 0.48915 0.20854 0.0
N243 N 0.10411 0.50356 0.23128 0.0
C244 C 0.20348 0.46153 0.29867 0.0
O245 O 0.24424 0.44237 0.28232 0.0
O246 O 0.2032 0.51322 0.15841 0.0
Zn247 Zn 0.16379 0.53277 0.25661 0.0
N248 N 0.20604 0.38571 0.18816 0.0
C249 C 0.17631 0.28337 0.19944 0.0
C250 C 0.184 0.34584 0.20555 0.0
C251 C 0.22286 0.3656 0.16539 0.0
N252 N 0.18966 0.26395 0.17608 0.0
C253 C 0.21327 0.30371 0.15897 0.0
O254 O 0.25872 0.52938 0.24735 0.0
C255 C 0.29874 0.51714 0.23056 0.0
O256 O 0.2821 0.49679 0.20961 0.0
H257 H 0.17016 0.36291 0.22356 0.0
H258 H 0.23861 0.3987 0.15173 0.0
C259 C 0.19219 0.65764 0.2536 0.0
C260 C 0.18739 0.72113 0.25803 0.0
C261 C 0.08902 0.70487 0.27651 0.0
C262 C 0.09494 0.64114 0.27251 0.0
N263 N 0.14669 0.61908 0.26119 0.0
N264 N 0.13575 0.74332 0.26953 0.0
H265 H 0.23326 0.6385 0.2452 0.0
C266 C 0.20984 0.57006 0.15262 0.0
O267 O 0.2182 0.61122 0.17022 0.0
O268 O 0.1578 0.49415 0.29124 0.0
H269 H 0.05941 0.60961 0.27879 0.0
H270 H 0.15772 0.25112 0.21285 0.0
H271 H 0.04835 0.72344 0.28558 0.0
Zn272 Zn 0.72395 0.64018 0.55608 0.0
C273 C 0.75746 0.80219 0.51936 0.0
N274 N 0.74559 0.8226 0.54236 0.0
C275 C 0.73478 0.77055 0.55482 0.0
N276 N 0.74056 0.71989 0.54058 0.0
N277 N 0.75468 0.73872 0.51781 0.0
C278 C 0.7099 0.63969 0.45041 0.0
O279 O 0.69124 0.59872 0.46675 0.0
O280 O 0.76339 0.63889 0.59057 0.0
Zn281 Zn 0.78213 0.67874 0.49222 0.0
N282 N 0.63592 0.63811 0.56084 0.0
C283 C 0.53393 0.66962 0.54974 0.0
C284 C 0.59626 0.66103 0.54355 0.0
C285 C 0.61571 0.62127 0.58359 0.0
N286 N 0.51445 0.65625 0.57308 0.0
C287 C 0.55399 0.63178 0.5901 0.0
O288 O 0.77845 0.58383 0.50147 0.0
C289 C 0.76633 0.54387 0.51828 0.0
O290 O 0.7464 0.56064 0.53929 0.0
H291 H 0.61342 0.67489 0.52556 0.0
H292 H 0.64867 0.60481 0.59718 0.0
C293 C 0.90682 0.64898 0.49447 0.0
C294 C 0.9701 0.65289 0.48951 0.0
C295 C 0.95375 0.75094 0.47073 0.0
C296 C 0.89022 0.74593 0.47527 0.0
N297 N 0.8683 0.69476 0.48699 0.0
N298 N 0.99215 0.70395 0.47761 0.0
H299 H 0.88773 0.60839 0.5032 0.0
C300 C 0.82024 0.63234 0.59634 0.0
O301 O 0.86151 0.62457 0.57872 0.0
O302 O 0.74236 0.68538 0.45783 0.0
H303 H 0.85868 0.78166 0.4691 0.0
H304 H 0.50186 0.68891 0.53641 0.0
H305 H 0.97221 0.79113 0.46132 0.0
Zn306 Zn 0.20446 0.97406 0.80607 0.0
C307 C 1.04247 1.00737 0.7693 0.0
N308 N 1.02203 0.99531 0.79228 0.0
C309 C 0.07409 0.98462 0.80476 0.0
N310 N 0.12476 0.99065 0.79055 0.0
N311 N 0.10595 1.00483 0.76779 0.0
C312 C 0.20544 0.96061 0.70041 0.0
O313 O 0.24643 0.94193 0.71675 0.0
O314 O 0.20547 1.0135 0.84057 0.0
Zn315 Zn 0.16589 1.03259 0.74227 0.0
N316 N 0.20674 0.886 0.8108 0.0
C317 C 0.17564 0.78406 0.79957 0.0
C318 C 0.18426 0.84639 0.79343 0.0
C319 C 0.22314 0.86572 0.83359 0.0
N320 N 0.18852 0.76453 0.82295 0.0
C321 C 0.21257 0.804 0.84006 0.0
O322 O 0.26078 1.02902 0.75156 0.0
C323 C 0.30073 1.01673 0.76836 0.0
O324 O 0.28398 0.99654 0.78932 0.0
H325 H 0.17074 0.86359 0.7754 0.0
H326 H 0.23925 0.89865 0.84725 0.0
C327 C 0.19489 0.15736 0.74473 0.0
C328 C 0.19065 0.22068 0.73986 0.0
C329 C 0.09281 0.20427 0.721 0.0
C330 C 0.09817 0.14069 0.72545 0.0
N331 N 0.1494 0.11879 0.73716 0.0
N332 N 0.13954 0.24272 0.72796 0.0
H333 H 0.23554 0.13829 0.75347 0.0
C334 C 0.21197 0.07035 0.84634 0.0
O335 O 0.21987 0.11158 0.82873 0.0
O336 O 0.1596 0.99302 0.70784 0.0
H337 H 0.06266 0.10911 0.71921 0.0
H338 H 0.15668 0.75203 0.78617 0.0
H339 H 0.05256 0.22272 0.7116 0.0
Zn340 Zn 0.81121 0.41619 0.99217 0.0
C341 C 0.85777 0.32406 0.05476 0.0
N342 N 0.84715 0.27206 0.04224 0.0
C343 C 0.83558 0.29259 0.01923 0.0
N344 N 0.83832 0.35606 0.01775 0.0
N345 N 0.8522 0.3748 0.04055 0.0
C346 C 0.77243 0.46215 0.09631 0.0
O347 O 0.73125 0.46983 0.07867 0.0
O348 O 0.85114 0.40964 0.95779 0.0
Zn349 Zn 0.86897 0.4544 0.0561 0.0
N350 N 0.72511 0.40017 0.98685 0.0
C351 C 0.63987 0.34398 0.97045 0.0
C352 C 0.70337 0.34909 0.97503 0.0
C353 C 0.68645 0.44576 0.99441 0.0
N354 N 0.60134 0.39079 0.97741 0.0
C355 C 0.6232 0.44175 0.98943 0.0
O356 O 0.84681 0.53403 0.03934 0.0
C357 C 0.82694 0.55092 0.01834 0.0
O358 O 0.81481 0.51106 0.0015 0.0
H359 H 0.73503 0.3135 0.96881 0.0
H360 H 0.70539 0.48628 0.00325 0.0
C361 C 0.9772 0.47241 0.0837 0.0
C362 C 1.03883 0.46137 0.09021 0.0
C363 C 0.05888 0.42437 0.04972 0.0
C364 C 0.99663 0.43342 0.04353 0.0
N365 N 0.95701 0.45617 0.06089 0.0
N366 N 0.07831 0.43708 0.07312 0.0
H367 H 0.94425 0.48872 0.09734 0.0
C368 C 0.88338 0.45548 0.95035 0.0
O369 O 0.90184 0.49656 0.96668 0.0
O370 O 0.82933 0.4557 0.09056 0.0
H371 H 0.97949 0.42003 0.02549 0.0
H372 H 0.62156 0.30387 0.96096 0.0
H373 H 0.09091 0.40521 0.03633 0.0
Zn374 Zn 0.39067 0.11902 0.30608 0.0
C375 C 0.55256 0.08494 0.26923 0.0
N376 N 0.573 0.09666 0.29223 0.0
C377 C 0.52097 0.10757 0.30472 0.0
N378 N 0.4703 0.10204 0.2905 0.0
N379 N 0.48909 0.08791 0.26772 0.0
C380 C 0.39014 0.13277 0.20025 0.0
O381 O 0.34937 0.152 0.2166 0.0
O382 O 0.38943 0.07952 0.34057 0.0
Zn383 Zn 0.42896 0.06068 0.24217 0.0
N384 N 0.38866 0.2071 0.31087 0.0
C385 C 0.42003 0.30902 0.29971 0.0
C386 C 0.41143 0.2467 0.29354 0.0
C387 C 0.37195 0.22738 0.33363 0.0
N388 N 0.4068 0.32855 0.32306 0.0
C389 C 0.38247 0.2891 0.34012 0.0
O390 O 0.33413 0.0653 0.25147 0.0
C391 C 0.29422 0.0775 0.2683 0.0
O392 O 0.31106 0.09704 0.28934 0.0
H393 H 0.42517 0.2295 0.27554 0.0
H394 H 0.35558 0.19446 0.34725 0.0
C395 C 0.39788 0.93627 0.24417 0.0
C396 C 0.40149 0.8729 0.23931 0.0
C397 C 0.5006 0.88798 0.22131 0.0
C398 C 0.49594 0.9516 0.22578 0.0
N399 N 0.44439 0.97421 0.23707 0.0
N400 N 0.45296 0.85017 0.22784 0.0
H401 H 0.357 0.95585 0.25254 0.0
C402 C 0.38301 1.02267 0.34636 0.0
O403 O 0.37535 0.98138 0.32877 0.0
O404 O 0.4357 0.10002 0.2077 0.0
H405 H 0.53226 0.98267 0.21988 0.0
H406 H 0.43921 0.34103 0.28634 0.0
H407 H 0.5411 0.86899 0.21224 0.0
Zn408 Zn 0.31119 0.41473 0.50675 0.0
C409 C 0.35993 0.32296 0.44428 0.0
N410 N 0.34968 0.27087 0.45679 0.0
C411 C 0.33729 0.29131 0.47975 0.0
N412 N 0.33919 0.35482 0.48122 0.0
N413 N 0.3533 0.37365 0.45845 0.0
C414 C 0.2729 0.46186 0.40265 0.0
O415 O 0.23197 0.47123 0.42027 0.0
O416 O 0.35061 0.40835 0.54122 0.0
Zn417 Zn 0.36916 0.45336 0.44288 0.0
N418 N 0.22504 0.39831 0.51179 0.0
C419 C 0.13962 0.34159 0.52779 0.0
C420 C 0.20321 0.34698 0.52343 0.0
C421 C 0.18638 0.44386 0.50422 0.0
N422 N 0.10109 0.38838 0.52083 0.0
C423 C 0.12305 0.43958 0.509 0.0
O424 O 0.3464 0.5328 0.45964 0.0
C425 C 0.32657 0.5496 0.48066 0.0
O426 O 0.31464 0.50966 0.4975 0.0
H427 H 0.23485 0.31139 0.52966 0.0
H428 H 0.20538 0.48458 0.49554 0.0
C429 C 0.47723 0.473 0.4154 0.0
C430 C 0.53908 0.46316 0.40893 0.0
C431 C 0.5594 0.42562 0.44931 0.0
C432 C 0.49697 0.43359 0.45546 0.0
N433 N 0.45714 0.45604 0.43814 0.0
N434 N 0.57881 0.43914 0.42597 0.0
H435 H 0.44414 0.4891 0.40178 0.0
C436 C 0.38298 0.4541 0.54865 0.0
O437 O 0.40174 0.49501 0.5323 0.0
O438 O 0.32963 0.45417 0.40839 0.0
H439 H 0.47992 0.41965 0.47346 0.0
H440 H 0.12123 0.30127 0.53713 0.0
H441 H 0.59163 0.40671 0.46266 0.0
Zn442 Zn 0.89018 0.12092 0.19287 0.0
C443 C 0.05238 0.09031 0.22982 0.0
N444 N 0.07277 0.1042 0.207 0.0
C445 C 1.02062 0.11419 0.19449 0.0
N446 N 0.96997 0.10592 0.20852 0.0
N447 N 0.98885 0.09104 0.2312 0.0
C448 C 0.8896 0.13141 0.29862 0.0
O449 O 0.84905 0.15104 0.28228 0.0
O450 O 0.89004 0.08138 0.15838 0.0
Zn451 Zn 0.92927 0.06079 0.25638 0.0
N452 N 0.88656 0.2089 0.18811 0.0
C453 C 0.91568 0.31135 0.19946 0.0
C454 C 0.90819 0.24884 0.20554 0.0
C455 C 0.86993 0.22896 0.16532 0.0
N456 N 0.90254 0.33075 0.17608 0.0
C457 C 0.87932 0.29091 0.15893 0.0
O458 O 0.83429 0.06418 0.24722 0.0
C459 C 0.79427 0.07676 0.23047 0.0
O460 O 0.81093 0.09757 0.2096 0.0
H461 H 0.92187 0.23181 0.22357 0.0
H462 H 0.85451 0.19581 0.15163 0.0
C463 C 0.90143 0.93585 0.25286 0.0
C464 C 0.90662 0.87228 0.25702 0.0
C465 C 1.00505 0.88857 0.27539 0.0
C466 C 0.99873 0.95236 0.2717 0.0
N467 N 0.94678 0.97445 0.26056 0.0
N468 N 0.95848 0.85005 0.26834 0.0
H469 H 0.86018 0.955 0.24462 0.0
C470 C 0.8833 1.02456 0.15259 0.0
O471 O 0.87465 0.98342 0.17017 0.0
O472 O 0.93512 0.09862 0.29114 0.0
H473 H 1.03411 0.98392 0.27807 0.0
H474 H 0.93394 0.34367 0.2129 0.0
H475 H 1.0459 0.86997 0.28432 0.0
Zn476 Zn 0.28134 0.67873 0.00678 0.0
C477 C 0.23345 0.77066 0.94427 0.0
N478 N 0.24401 0.8227 0.95677 0.0
C479 C 0.25613 0.80221 0.97974 0.0
N480 N 0.25377 0.73872 0.98122 0.0
N481 N 0.23963 0.71994 0.95846 0.0
C482 C 0.31963 0.63248 0.90266 0.0
O483 O 0.36077 0.6244 0.92028 0.0
O484 O 0.24134 0.68493 0.04117 0.0
Zn485 Zn 0.22324 0.64028 0.94291 0.0
N486 N 0.36735 0.69526 0.01207 0.0
C487 C 0.45233 0.75169 0.02855 0.0
C488 C 0.38885 0.7463 0.02399 0.0
C489 C 0.40623 0.64999 0.00439 0.0
N490 N 0.4911 0.70517 0.02148 0.0
C491 C 0.46946 0.65425 0.00937 0.0
O492 O 0.2459 0.56075 0.95964 0.0
C493 C 0.26615 0.54395 0.98059 0.0
O494 O 0.27828 0.58386 0.99741 0.0
H495 H 0.35702 0.78164 0.0303 0.0
H496 H 0.38746 0.60948 0.99549 0.0
C497 C 0.11506 0.62157 0.9154 0.0
C498 C 0.05337 0.63221 0.9089 0.0
C499 C 1.03322 0.66956 0.94933 0.0
C500 C 0.09553 0.66087 0.95551 0.0
N501 N 0.13522 0.63813 0.93818 0.0
N502 N 1.01381 0.6565 0.92596 0.0
H503 H 0.14806 0.60527 0.90177 0.0
C504 C 0.20923 0.63898 0.04858 0.0
O505 O 0.19101 0.59783 0.03224 0.0
O506 O 0.26277 0.63921 0.90841 0.0
H507 H 0.11264 0.67452 0.97352 0.0
H508 H 0.47046 0.79178 0.03811 0.0
H509 H 1.00112 0.68872 0.9627 0.0
Zn510 Zn 0.66595 1.03277 0.75667 0.0
C511 C 0.57425 0.98446 0.69422 0.0
N512 N 0.52215 0.99509 0.7067 0.0
C513 C 0.54254 1.00738 0.72966 0.0
N514 N 0.60603 1.00504 0.73115 0.0
N515 N 0.6249 0.99072 0.7084 0.0
C516 C 0.71268 0.07021 0.65257 0.0
O517 O 0.72123 0.11133 0.67017 0.0
O518 O 0.65962 0.99329 0.79113 0.0
Zn519 Zn 0.70461 0.97409 0.69287 0.0
N520 N 0.64956 0.119 0.76178 0.0
C521 C 0.59288 0.20455 0.77787 0.0
C522 C 0.59819 0.14097 0.7734 0.0
C523 C 0.69525 0.15752 0.75433 0.0
N524 N 0.63979 0.24293 0.77103 0.0
C525 C 0.69104 0.22083 0.75922 0.0
O526 O 0.78411 0.99662 0.70959 0.0
C527 C 0.80082 1.0168 0.73055 0.0
O528 O 0.76083 1.0291 0.74735 0.0
H529 H 0.56252 0.10944 0.77955 0.0
H530 H 0.73601 0.13841 0.74568 0.0
C531 C 0.72349 0.86567 0.66543 0.0
C532 C 0.71309 0.8039 0.65901 0.0
C533 C 0.67596 0.78407 0.69949 0.0
C534 C 0.68444 0.84644 0.70559 0.0
N535 N 0.70695 0.88601 0.6882 0.0
N536 N 0.68902 0.76445 0.67613 0.0
H537 H 0.73962 0.89857 0.65176 0.0
C538 C 0.70553 0.96104 0.79859 0.0
O539 O 0.74659 0.94234 0.78227 0.0
O540 O 0.70562 1.01343 0.65835 0.0
H541 H 0.67081 0.86369 0.7236 0.0
H542 H 0.55253 0.22304 0.7872 0.0
H543 H 0.657 0.75206 0.71291 0.0
C544 C 0.19735 1.04548 0.89133 0.0
C545 C 0.20952 0.08956 0.87282 0.0
H546 H 0.18598 1.02698 0.92988 0.0
C547 C 0.2195 0.15151 0.87998 0.0
H548 H 0.19024 0.99726 0.88662 0.0
C549 C 0.21841 0.16856 0.9051 0.0
C550 C 0.20605 0.12424 0.92354 0.0
H551 H 0.22916 0.1867 0.86622 0.0
H552 H 0.2278 0.21622 0.9101 0.0
C553 C 0.19473 0.0627 0.91624 0.0
C554 C 0.7972 0.44781 0.14131 0.0
C555 C 0.75314 0.45982 0.12278 0.0
H556 H 0.81561 0.43662 0.17987 0.0
C557 C 0.69111 0.46972 0.12991 0.0
H558 H 0.84547 0.44078 0.13663 0.0
C559 C 0.67398 0.46867 0.15503 0.0
C560 C 0.71828 0.45641 0.17348 0.0
H561 H 0.65594 0.47926 0.11613 0.0
H562 H 0.62626 0.47795 0.16001 0.0
C563 C 0.7799 0.44523 0.16621 0.0
C564 C 0.39723 0.04773 0.39135 0.0
C565 C 0.38529 1.00357 0.37285 0.0
H566 H 0.40826 0.06639 0.4299 0.0
C567 C 0.37536 0.94162 0.38004 0.0
H568 H 0.40429 0.09595 0.38662 0.0
C569 C 0.37628 0.92466 0.40518 0.0
C570 C 0.38843 0.96907 0.4236 0.0
H571 H 0.36587 0.90636 0.3663 0.0
H572 H 0.36696 0.87701 0.4102 0.0
C573 C 0.39968 1.03061 0.41627 0.0
C574 C 0.79528 0.64673 0.64133 0.0
C575 C 0.8394 0.63461 0.62282 0.0
H576 H 0.7767 0.6579 0.67989 0.0
C577 C 0.90135 0.62451 0.62997 0.0
H578 H 0.74705 0.65392 0.63663 0.0
C579 C 0.91836 0.62544 0.6551 0.0
C580 C 0.874 0.63776 0.67354 0.0
H581 H 0.93658 0.61489 0.61621 0.0
H582 H 0.96603 0.616 0.66009 0.0
C583 C 0.81245 0.64918 0.66625 0.0
C584 C 0.90087 1.03221 0.08269 0.0
C585 C 0.88898 0.97079 0.07537 0.0
H586 H 0.90588 0.09754 0.11234 0.0
C587 C 0.87633 0.92652 0.09379 0.0
H588 H 0.9099 0.06789 0.06907 0.0
C589 C 0.87541 0.94351 0.11892 0.0
C590 C 0.88587 1.00537 0.12611 0.0
H591 H 0.86652 0.87896 0.08878 0.0
H592 H 0.86543 0.90837 0.13266 0.0
C593 C 0.89843 0.04938 0.10762 0.0
C594 C 0.29495 0.64706 0.85765 0.0
C595 C 0.33893 0.63478 0.87619 0.0
H596 H 0.27661 0.65832 0.81908 0.0
C597 C 0.4009 0.62452 0.86905 0.0
H598 H 0.24672 0.65438 0.86233 0.0
C599 C 0.41804 0.62543 0.84394 0.0
C600 C 0.37381 0.63788 0.82548 0.0
H601 H 0.43602 0.61477 0.88283 0.0
H602 H 0.4657 0.61584 0.83896 0.0
C603 C 0.31226 0.64949 0.83274 0.0
C604 C 0.72097 0.1513 0.61893 0.0
C605 C 0.71027 0.08946 0.6261 0.0
H606 H 0.72989 0.21593 0.5888 0.0
C607 C 0.69747 1.04556 0.6076 0.0
H608 H 0.73113 0.18635 0.63268 0.0
C609 C 0.69494 0.06283 0.58269 0.0
C610 C 0.70698 0.12423 0.57538 0.0
H611 H 0.68983 0.99742 0.61231 0.0
H612 H 0.68567 1.02723 0.56905 0.0
C613 C 0.71996 0.16838 0.59381 0.0
C614 C 0.17467 0.47043 0.34396 0.0
C615 C 0.2186 0.4568 0.3255 0.0
H616 H 0.15694 0.48192 0.38283 0.0
C617 C 0.27986 0.44377 0.33276 0.0
H618 H 0.12724 0.48111 0.33898 0.0
C619 C 0.29721 0.44602 0.35767 0.0
C620 C 0.25353 0.45955 0.37619 0.0
H621 H 0.31529 0.43393 0.31911 0.0
H622 H 0.34526 0.43767 0.36234 0.0
C623 C 0.19182 0.47118 0.36907 0.0
C624 C 0.69586 0.54589 0.39139 0.0
C625 C 0.70811 0.5899 0.37287 0.0
H626 H 0.68471 0.52744 0.42996 0.0
C627 C 0.71846 0.6518 0.38002 0.0
H628 H 0.68847 0.4977 0.3867 0.0
C629 C 0.71766 0.66885 0.40514 0.0
C630 C 0.70522 0.62459 0.42359 0.0
H631 H 0.72819 0.68694 0.36625 0.0
H632 H 0.72732 0.71646 0.41013 0.0
C633 C 0.69353 0.56311 0.41631 0.0
C634 C 0.29936 0.9467 0.64139 0.0
C635 C 0.25534 0.95896 0.62287 0.0
H636 H 0.3178 0.9355 0.67995 0.0
C637 C 0.19339 0.96927 0.63002 0.0
H638 H 0.34758 0.93934 0.63669 0.0
C639 C 0.17632 0.96842 0.65515 0.0
C640 C 0.22059 0.95598 0.67359 0.0
H641 H 0.15824 0.97901 0.61626 0.0
H642 H 0.12867 0.97805 0.66014 0.0
C643 C 0.28212 0.94433 0.6663 0.0
C644 C 0.89939 0.5321 0.91623 0.0
C645 C 0.88795 0.47058 0.92353 0.0
H646 H 0.90411 0.59754 0.88661 0.0
C647 C 0.87561 0.42627 0.90509 0.0
H648 H 0.90814 0.56781 0.92987 0.0
C649 C 0.87466 0.44332 0.87997 0.0
C650 C 0.88476 0.50526 0.87281 0.0
H651 H 0.86614 0.37863 0.91009 0.0
H652 H 0.865 0.40814 0.86621 0.0
C653 C 0.89692 0.54932 0.89132 0.0
C654 C 0.29603 0.14666 0.14131 0.0
C655 C 0.33991 0.13407 0.12276 0.0
H656 H 0.27783 0.15821 0.17989 0.0
C657 C 0.40183 0.12344 0.12986 0.0
H658 H 0.24784 0.15424 0.13666 0.0
C659 C 0.41902 0.12437 0.15496 0.0
C660 C 0.3749 0.1372 0.17344 0.0
H661 H 0.43687 0.11343 0.11606 0.0
H662 H 0.46664 0.11452 0.15992 0.0
C663 C 0.31341 0.14911 0.16621 0.0
C664 C 0.39728 0.54796 0.60766 0.0
C665 C 0.38452 0.5041 0.62618 0.0
H666 H 0.40893 0.56621 0.56909 0.0
C667 C 0.37377 0.44225 0.61904 0.0
H668 H 0.40497 0.5961 0.61234 0.0
C669 C 0.37467 0.42513 0.59392 0.0
C670 C 0.38758 0.46924 0.57547 0.0
H671 H 0.36364 0.40723 0.63281 0.0
H672 H 0.36469 0.37758 0.58895 0.0
C673 C 0.3997 0.53064 0.58275 0.0
C674 C 0.91817 0.12173 0.34388 0.0
C675 C 0.87443 0.136 0.32544 0.0
H676 H 0.93568 0.10967 0.38274 0.0
C677 C 0.81329 0.14957 0.33273 0.0
H678 H 0.9655 0.11062 0.3389 0.0
C679 C 0.79584 0.14725 0.35763 0.0
C680 C 0.83934 0.13311 0.37613 0.0
H681 H 0.77799 0.15992 0.31909 0.0
H682 H 0.74787 0.15602 0.36232 0.0
C683 C 0.90095 0.12091 0.36899 0.0
C684 C 0.21696 0.66819 0.09385 0.0
C685 C 0.20443 0.62394 0.07541 0.0
H686 H 0.22767 0.6863 0.13273 0.0
C687 C 0.19259 0.5625 0.08272 0.0
H688 H 0.22671 0.71578 0.08885 0.0
C689 C 0.19494 0.54529 0.10764 0.0
C690 C 0.20738 0.58928 0.12615 0.0
H691 H 0.18365 0.52682 0.06909 0.0
H692 H 0.18752 0.49712 0.11235 0.0
C693 C 0.2178 0.65117 0.11898 0.0
C694 C 0.69334 0.96999 0.86898 0.0
C695 C 0.75531 0.95991 0.87613 0.0
H696 H 0.62864 0.97843 0.83887 0.0
C697 C 0.79941 0.94774 0.85761 0.0
H698 H 0.65814 0.97965 0.88274 0.0
C699 C 0.7822 0.94522 0.8327 0.0
C700 C 0.72065 0.95662 0.82541 0.0
H701 H 0.84764 0.94056 0.86231 0.0
H702 H 0.81794 0.93647 0.81905 0.0
C703 C 0.67631 0.96899 0.84386 0.0
C704 C 0.2782 0.29409 0.12131 0.0
C705 C 0.22113 0.28492 0.13312 0.0
H706 H 0.32729 0.29495 0.08684 0.0
C707 C 0.16931 0.26711 0.11921 0.0
H708 H 0.3184 0.30872 0.13178 0.0
C709 C 0.17392 0.26128 0.09352 0.0
C710 C 0.23099 0.27043 0.08177 0.0
H711 H 0.12456 0.26189 0.12802 0.0
H712 H 0.13256 0.25264 0.08279 0.0
C713 C 0.28315 0.28653 0.09578 0.0
C714 C 0.58158 0.42446 0.34339 0.0
C715 C 0.57218 0.48165 0.33175 0.0
H716 H 0.58125 0.37474 0.37779 0.0
C717 C 0.5559 0.53367 0.34585 0.0
H718 H 0.59037 0.3832 0.33258 0.0
C719 C 0.54842 0.52847 0.37138 0.0
C720 C 0.55784 0.47128 0.38308 0.0
H721 H 0.54729 0.57791 0.337 0.0
H722 H 0.53365 0.56858 0.38192 0.0
C723 C 0.57583 0.41959 0.36908 0.0
C724 C 0.42189 0.83269 0.59358 0.0
C725 C 0.365 0.82322 0.58176 0.0
H726 H 0.47093 0.8322 0.62814 0.0
C727 C 0.31278 0.80686 0.59571 0.0
H728 H 0.46329 0.84167 0.58291 0.0
C729 C 0.31751 0.79927 0.62124 0.0
C730 C 0.37442 0.80861 0.63312 0.0
H731 H 0.26876 0.79825 0.58672 0.0
H732 H 0.27726 0.78444 0.63164 0.0
C733 C 0.42629 0.82678 0.61928 0.0
C734 C 1.04404 0.5676 0.87115 0.0
C735 C 1.03465 0.62459 0.88302 0.0
H736 H 1.04509 0.51874 0.83664 0.0
C737 C 1.01652 0.67649 0.86917 0.0
H738 H 0.05885 0.52731 0.88156 0.0
C739 C 1.01059 0.67203 0.84347 0.0
C740 C 1.02006 0.61505 0.83167 0.0
H741 H 1.01111 0.72119 0.87801 0.0
H742 H 1.00158 0.71344 0.83278 0.0
C743 C 1.03646 0.56282 0.84562 0.0
C744 C 0.92599 0.82802 0.87967 0.0
C745 C 0.87414 0.80966 0.86588 0.0
H746 H 0.96304 0.8432 0.91601 0.0
C747 C 0.81728 0.80023 0.87782 0.0
H748 H 0.9706 0.83351 0.87078 0.0
C749 C 0.81259 0.80792 0.90335 0.0
C750 C 0.86479 0.82449 0.91724 0.0
H751 H 0.77704 0.78527 0.86745 0.0
H752 H 0.76862 0.79922 0.91237 0.0
C753 C 0.92163 0.83406 0.90537 0.0
C754 C 0.51707 0.67561 0.62991 0.0
C755 C 0.53518 0.62385 0.61596 0.0
H756 H 0.502 0.71216 0.66635 0.0
C757 C 0.54444 0.56671 0.62773 0.0
H758 H 0.51179 0.72042 0.62114 0.0
C759 C 0.53672 0.56164 0.65325 0.0
C760 C 0.52031 0.61373 0.66729 0.0
H761 H 0.55926 0.52653 0.61724 0.0
H762 H 0.54527 0.51745 0.66215 0.0
C763 C 0.51099 0.67086 0.65559 0.0
C764 C 0.77465 0.29432 0.37769 0.0
C765 C 0.71755 0.28527 0.36591 0.0
H766 H 0.82386 0.29483 0.41211 0.0
C767 C 0.66584 0.26705 0.37983 0.0
H768 H 0.8148 0.30915 0.36722 0.0
C769 C 0.67058 0.26076 0.40551 0.0
C770 C 0.72765 0.27 0.41723 0.0
H771 H 0.62107 0.26186 0.37106 0.0
H772 H 0.62931 0.25165 0.41626 0.0
C773 C 0.77971 0.28639 0.4032 0.0
C774 C 0.07619 0.41662 0.12981 0.0
C775 C 0.05758 0.46864 0.11611 0.0
H776 H 0.09185 0.3792 0.16607 0.0
C777 C 0.04797 0.52537 0.12814 0.0
H778 H 0.08181 0.37211 0.12084 0.0
C779 C 0.05575 0.52978 0.15367 0.0
C780 C 0.07258 0.47742 0.16747 0.0
H781 H 1.03285 0.56575 0.11786 0.0
H782 H 0.04691 0.57366 0.16278 0.0
C783 C 0.08236 0.4207 0.15551 0.0
C784 C 0.67336 0.76053 0.59365 0.0
C785 C 0.73021 0.77017 0.58179 0.0
H786 H 0.62434 0.761 0.62822 0.0
C787 C 0.78238 0.78675 0.5957 0.0
H788 H 0.63198 0.75141 0.583 0.0
C789 C 0.77764 0.79441 0.62123 0.0
C790 C 0.72077 0.78494 0.63315 0.0
H791 H 0.82636 0.79549 0.58668 0.0
H792 H 0.81786 0.80941 0.6316 0.0
C793 C 0.66896 0.76654 0.61935 0.0
C794 C 0.05792 1.03217 0.84567 0.0
C795 C 0.07439 0.97995 0.83172 0.0
H796 H 1.03537 0.06766 0.88161 0.0
C797 C 0.08382 0.92297 0.84352 0.0
H798 H 0.04932 0.07625 0.83669 0.0
C799 C 0.07778 0.91849 0.86922 0.0
C800 C 0.05958 0.97039 0.88307 0.0
H801 H 0.09287 0.88156 0.83283 0.0
H802 H 0.08314 0.87379 0.87806 0.0
C803 C 0.05024 1.02738 0.8712 0.0
C804 C 0.81478 0.30023 0.12118 0.0
C805 C 0.87165 0.30973 0.13307 0.0
H806 H 0.76609 0.29916 0.08664 0.0
C807 C 0.92351 0.32796 0.11925 0.0
H808 H 0.77455 0.2853 0.13158 0.0
C809 C 0.91915 0.33382 0.09355 0.0
C810 C 0.86228 0.32432 0.08172 0.0
H811 H 0.96811 0.33347 0.12812 0.0
H812 H 0.96057 0.34276 0.08288 0.0
C813 C 0.81007 0.30784 0.09564 0.0
C814 C 0.51674 0.17414 0.36909 0.0
C815 C 0.53504 0.12241 0.38301 0.0
H816 H 0.50196 0.21079 0.33266 0.0
C817 C 0.54469 0.06537 0.37122 0.0
H818 H 0.5111 0.21887 0.37788 0.0
C819 C 0.53718 0.06036 0.34569 0.0
C820 C 0.52063 0.11243 0.33167 0.0
H821 H 0.55966 1.02523 0.38169 0.0
H822 H 0.54599 1.01625 0.33677 0.0
C823 C 0.51097 0.16947 0.3434 0.0
C824 C 0.31266 0.30655 0.40335 0.0
C825 C 0.3647 0.32323 0.41731 0.0
H826 H 0.27748 0.28361 0.36742 0.0
C827 C 0.42166 0.33276 0.40552 0.0
H828 H 0.2686 0.29788 0.41232 0.0
C829 C 0.4263 0.32649 0.37984 0.0
C830 C 0.3746 0.30801 0.36598 0.0
H831 H 0.46294 0.34206 0.41622 0.0
H832 H 0.471 0.33192 0.37102 0.0
C833 C 0.31762 0.29865 0.37784 0.0
C834 C 1.03719 0.06601 0.15374 0.0
C835 C 1.02043 0.11845 0.16751 0.0
H836 H 0.06005 1.02985 0.11795 0.0
C837 C 1.01069 0.17512 0.15551 0.0
H838 H 1.04598 1.02216 0.16287 0.0
C839 C 1.01684 0.17907 0.1298 0.0
C840 C 1.03542 0.12698 0.11614 0.0
H841 H 1.00119 0.21667 0.16605 0.0
H842 H 1.01125 0.22354 0.1208 0.0
C843 C 1.04497 0.0703 0.12821 0.0
C844 C 0.17226 0.76088 0.90541 0.0
C845 C 0.22905 0.77037 0.9173 0.0
H846 H 0.12348 0.76146 0.87079 0.0
C847 C 0.28135 0.78685 0.90343 0.0
H848 H 0.13078 0.7518 0.91603 0.0
C849 C 0.27681 0.79452 0.8779 0.0
C850 C 0.22 0.78515 0.86594 0.0
H851 H 0.32528 0.79548 0.91248 0.0
H852 H 0.31714 0.80941 0.86755 0.0
C853 C 0.16805 0.76689 0.8797 0.0
C854 C 0.55814 1.03159 0.65322 0.0
C855 C 0.57458 0.97951 0.66726 0.0
H856 H 0.53553 0.06668 0.61723 0.0
C857 C 0.58395 0.92239 0.65555 0.0
H858 H 0.54957 0.07577 0.66213 0.0
C859 C 0.57786 0.91763 0.62986 0.0
C860 C 0.55966 0.96938 0.61593 0.0
H861 H 0.59299 0.88109 0.6663 0.0
H862 H 0.58318 0.87283 0.6211 0.0
C863 C 0.55039 1.02651 0.6277 0.0
C864 C 0.59314 1.03013 0.98248 0.0
C865 C 0.58294 0.99328 0.0036 0.0
H866 H 0.5662 0.11039 0.96183 0.0
C867 C 0.53628 1.01013 0.02034 0.0
H868 H 0.62816 1.01777 0.96898 0.0
C869 C 0.50111 0.06336 0.01627 0.0
C870 C 0.51137 0.10026 0.99517 0.0
H871 H 0.52809 0.98314 0.03694 0.0
H872 H 0.46609 0.07573 0.02977 0.0
C873 C 0.55798 0.08337 0.97841 0.0
C874 C 0.76196 0.80778 0.22717 0.0
C875 C 0.74611 0.76064 0.24384 0.0
H876 H 0.82694 0.87817 0.2175 0.0
C877 C 0.78456 0.74932 0.26442 0.0
H878 H 0.73372 0.81688 0.21099 0.0
C879 C 0.83816 0.78397 0.26806 0.0
C880 C 0.85384 0.83128 0.25147 0.0
H881 H 0.77305 0.71399 0.27788 0.0
H882 H 0.86628 0.77501 0.28429 0.0
C883 C 0.81554 0.84252 0.23085 0.0
C884 C 1.0014 0.06377 0.48203 0.0
C885 C 1.01197 0.1014 0.5029 0.0
H886 H 1.02795 0.98271 0.46179 0.0
C887 C 0.05882 0.0851 0.51962 0.0
H888 H 0.96617 0.07567 0.46857 0.0
C889 C 0.09383 1.03165 0.51579 0.0
C890 C 0.08325 0.99398 0.49492 0.0
H891 H 0.06727 0.11269 0.53603 0.0
H892 H 0.12895 1.01972 0.52929 0.0
C893 C 1.03644 1.01033 0.47819 0.0
C894 C 0.78143 0.25105 0.73272 0.0
C895 C 0.74401 0.26163 0.75367 0.0
H896 H 0.8622 0.2775 0.71234 0.0
C897 C 0.76048 0.30835 0.77041 0.0
H898 H 0.7694 0.21597 0.71923 0.0
C899 C 0.81384 0.34326 0.7665 0.0
C900 C 0.85124 0.33269 0.74555 0.0
H901 H 0.73305 0.31682 0.78688 0.0
H902 H 0.82586 0.37837 0.77999 0.0
C903 C 0.83479 0.28596 0.72881 0.0
C904 C 0.28064 0.25101 0.76652 0.0
C905 C 0.2435 0.26153 0.7455 0.0
H906 H 0.36118 0.27747 0.78701 0.0
C907 C 0.26019 0.30819 0.72877 0.0
H908 H 0.26842 0.21595 0.78 0.0
C909 C 0.31352 0.34308 0.73274 0.0
C910 C 0.35067 0.33254 0.75375 0.0
H911 H 0.23298 0.31661 0.71225 0.0
H912 H 0.32574 0.37811 0.71925 0.0
C913 C 0.33396 0.2859 0.77049 0.0
C914 C 0.27829 0.75091 0.23173 0.0
C915 C 0.24026 0.76203 0.25246 0.0
H916 H 0.35983 0.77664 0.21169 0.0
C917 C 0.25622 0.80919 0.26908 0.0
H918 H 0.26666 0.71544 0.21835 0.0
C919 C 0.30979 0.84388 0.26531 0.0
C920 C 0.34792 0.83266 0.24462 0.0
H921 H 0.22831 0.81808 0.28538 0.0
H922 H 0.32148 0.87919 0.27876 0.0
C923 C 0.33184 0.78562 0.22796 0.0
C924 C 0.05763 0.58308 0.47838 0.0
C925 C 1.01091 0.59982 0.49511 0.0
H926 H 0.12775 0.51745 0.46888 0.0
C927 C 1.00037 0.56259 0.5161 0.0
H928 H 0.06608 0.61036 0.46188 0.0
C929 C 1.03533 0.50917 0.52007 0.0
C930 C 0.08208 0.49247 0.50335 0.0
H931 H 0.96529 0.57483 0.52959 0.0
H932 H 1.02691 0.48191 0.53657 0.0
C933 C 0.0926 0.52967 0.48235 0.0
C934 C 0.59243 0.53144 0.01625 0.0
C935 C 0.58222 0.49461 0.99512 0.0
H936 H 0.56541 0.61161 0.03695 0.0
C937 C 0.53565 0.51156 0.97838 0.0
H938 H 0.62741 0.51902 0.02974 0.0
C939 C 0.50049 0.56479 0.98247 0.0
C940 C 0.51065 0.60158 0.00361 0.0
H941 H 0.52747 0.48459 0.96178 0.0
H942 H 0.4655 0.5772 0.96898 0.0
C943 C 0.55726 0.58467 0.02034 0.0
C944 C 0.32167 0.89066 0.99106 0.0
C945 C 0.27459 0.84919 0.9984 0.0
H946 H 0.35463 0.98463 0.99052 0.0
C947 C 0.2303 0.8706 0.01546 0.0
H948 H 0.35568 0.87624 0.97744 0.0
C949 C 0.22995 0.9331 0.02311 0.0
C950 C 0.27281 0.976 0.01333 0.0
H951 H 0.19216 0.84095 0.02083 0.0
H952 H 0.19305 0.94889 0.03517 0.0
C953 C 0.32018 0.95335 0.998 0.0
C954 C 0.95185 0.57063 0.24091 0.0
C955 C 0.99346 0.52371 0.24843 0.0
H956 H 0.8578 0.6036 0.24024 0.0
C957 C 0.97212 0.47975 0.26561 0.0
H958 H 0.9662 0.60436 0.2272 0.0
C959 C 0.90961 0.47955 0.27324 0.0
C960 C 0.86662 0.52223 0.26331 0.0
H961 H 1.00188 0.44172 0.27111 0.0
H962 H 0.89391 0.4429 0.28541 0.0
C963 C 0.88916 0.56929 0.24784 0.0
C964 C 0.27384 0.13991 0.49807 0.0
C965 C 0.32132 0.11748 0.51337 0.0
H966 H 0.23802 0.21681 0.47749 0.0
C967 C 0.36401 0.16057 0.52312 0.0
H968 H 0.23952 0.10847 0.49061 0.0
C969 C 0.36339 0.22306 0.51545 0.0
C970 C 0.319 0.24425 0.49841 0.0
H971 H 0.40099 0.14496 0.53517 0.0
H972 H 0.40141 0.25288 0.5208 0.0
C973 C 0.27209 0.20258 0.4911 0.0
C974 C 0.62027 0.61287 0.76539 0.0
C975 C 0.59926 0.56822 0.74844 0.0
H976 H 0.69819 0.65083 0.785 0.0
C977 C 0.64113 0.5212 0.74123 0.0
H978 H 0.59029 0.65096 0.77065 0.0
C979 C 0.70378 0.52311 0.74818 0.0
C980 C 0.72601 0.57085 0.76337 0.0
H981 H 0.62704 0.4869 0.72771 0.0
H982 H 0.73536 0.48868 0.74079 0.0
C983 C 0.68274 0.61365 0.77304 0.0
C984 C 0.86345 0.16195 0.97593 0.0
C985 C 0.82062 0.1188 0.98556 0.0
H986 H 0.90066 0.25431 0.97835 0.0
C987 C 0.77275 0.14119 0.0007 0.0
H988 H 0.90072 0.14636 0.96401 0.0
C989 C 0.77073 0.20388 0.00763 0.0
C990 C 0.81776 0.24561 0.00048 0.0
H991 H 0.73831 0.10971 0.00805 0.0
H992 H 0.73631 0.21808 0.02111 0.0
C993 C 0.86255 0.22445 0.98358 0.0
C994 C 0.20363 0.52337 0.75106 0.0
C995 C 0.22602 0.5707 0.7357 0.0
H996 H 0.12675 0.48785 0.77167 0.0
C997 C 0.18289 0.61341 0.72587 0.0
H998 H 0.23509 0.48903 0.75858 0.0
C999 C 0.1204 0.61298 0.73354 0.0
C1000 C 0.09923 0.56876 0.75064 0.0
H1001 H 0.19848 0.65026 0.71378 0.0
H1002 H 0.09055 0.65103 0.72813 0.0
C1003 C 0.14095 0.5218 0.75802 0.0
C1004 C 0.82104 0.95351 0.50095 0.0
C1005 C 0.77361 0.97592 0.48562 0.0
H1006 H 0.85675 0.87667 0.52158 0.0
C1007 C 0.73088 0.93282 0.47589 0.0
H1008 H 0.85538 0.98495 0.50839 0.0
C1009 C 0.73142 0.87037 0.48361 0.0
C1010 C 0.77575 0.84921 0.50068 0.0
H1011 H 0.69394 0.94842 0.46383 0.0
H1012 H 0.69338 0.84056 0.47827 0.0
C1013 C 0.82271 0.89087 0.50796 0.0
C1014 C 0.45133 0.57407 0.25771 0.0
C1015 C 0.49331 0.5271 0.25056 0.0
H1016 H 0.35704 0.6064 0.2581 0.0
C1017 C 0.47242 0.48231 0.23364 0.0
H1018 H 0.46533 0.60848 0.2712 0.0
C1019 C 0.40996 0.48136 0.22597 0.0
C1020 C 0.36659 0.52413 0.2356 0.0
H1021 H 0.50248 0.44425 0.22842 0.0
H1022 H 0.39459 0.44409 0.21405 0.0
C1023 C 0.38869 0.572 0.25075 0.0
C1024 C 0.81987 0.45352 0.49761 0.0
C1025 C 0.77285 0.47596 0.51316 0.0
H1026 H 0.85502 0.37665 0.47683 0.0
C1027 C 0.73038 0.43288 0.5231 0.0
H1028 H 0.85402 0.48494 0.49 0.0
C1029 C 0.73072 0.37041 0.51539 0.0
C1030 C 0.77461 0.34922 0.49812 0.0
H1031 H 0.69376 0.4485 0.53532 0.0
H1032 H 0.69283 0.34062 0.52091 0.0
C1033 C 0.82135 0.39087 0.4906 0.0
C1034 C 0.45357 0.07258 0.74098 0.0
C1035 C 0.49541 1.02568 0.74832 0.0
H1036 H 0.35937 0.10516 0.74046 0.0
C1037 C 0.47434 0.98135 0.7654 0.0
H1038 H 0.46771 0.10661 0.72735 0.0
C1039 C 0.41185 0.98076 0.77307 0.0
C1040 C 0.36862 1.02342 0.76329 0.0
H1041 H 0.50428 0.94334 0.77078 0.0
H1042 H 0.39636 0.94382 0.78514 0.0
C1043 C 0.39091 0.07085 0.74795 0.0
C1044 C 0.86332 0.66178 0.02308 0.0
C1045 C 0.82052 0.61886 0.01328 0.0
H1046 H 0.90113 0.75392 0.0208 0.0
C1047 C 0.77324 0.64149 0.99793 0.0
H1048 H 0.90015 0.646 0.03516 0.0
C1049 C 0.77179 0.70418 0.99097 0.0
C1050 C 0.81883 0.74566 0.99832 0.0
H1051 H 0.73884 0.6102 0.99043 0.0
H1052 H 0.73785 0.71856 0.97733 0.0
C1053 C 0.86301 0.72427 0.01541 0.0
C1054 C 0.18332 0.11387 0.27335 0.0
C1055 C 0.2263 0.07147 0.26319 0.0
H1056 H 0.09114 0.15195 0.27141 0.0
C1057 C 0.20375 1.02504 0.24744 0.0
H1058 H 0.19902 0.15005 0.28573 0.0
C1059 C 0.14109 1.02409 0.24046 0.0
C1060 C 0.09953 0.07079 0.24825 0.0
H1061 H 0.23509 0.99097 0.23964 0.0
H1062 H 0.12677 0.9909 0.22654 0.0
C1063 C 0.12085 0.11407 0.26569 0.0
C1064 C 0.27159 0.70269 0.50825 0.0
C1065 C 0.31848 0.74425 0.50078 0.0
H1066 H 0.23876 0.60867 0.50882 0.0
C1067 C 0.36244 0.72298 0.48356 0.0
H1068 H 0.23784 0.71699 0.52198 0.0
C1069 C 0.36271 0.66052 0.47586 0.0
C1070 C 0.3201 0.61752 0.48576 0.0
H1071 H 0.40042 0.75271 0.47809 0.0
H1072 H 0.39939 0.64483 0.46368 0.0
C1073 C 0.27301 0.64003 0.50125 0.0
C1074 C 0.70423 1.02201 0.25071 0.0
C1075 C 0.7264 0.0698 0.23552 0.0
H1076 H 0.62753 0.98569 0.2712 0.0
C1077 C 0.68307 0.11256 0.22587 0.0
H1078 H 0.73584 0.98762 0.25808 0.0
C1079 C 0.62059 0.11169 0.23355 0.0
C1080 C 0.59964 0.067 0.2505 0.0
H1081 H 0.69848 0.14976 0.21392 0.0
H1082 H 0.59058 0.14975 0.22829 0.0
C1083 C 0.64157 1.02002 0.25768 0.0
C1084 C 0.32096 0.4537 0.00075 0.0
C1085 C 0.2731 0.47605 0.98562 0.0
H1086 H 0.35739 0.37684 0.02117 0.0
C1087 C 0.23029 0.43288 0.976 0.0
H1088 H 0.35538 0.48519 0.00809 0.0
C1089 C 0.23119 0.37039 0.98366 0.0
C1090 C 0.27597 0.34927 0.00056 0.0
H1091 H 0.19304 0.44845 0.96409 0.0
H1092 H 0.19311 0.34051 0.97845 0.0
C1093 C 0.32299 0.39102 0.00769 0.0
C1094 C 0.89097 0.07095 0.75093 0.0
C1095 C 0.8687 1.02346 0.73563 0.0
H1096 H 0.9677 0.10674 0.77152 0.0
C1097 C 0.91192 0.98069 0.72589 0.0
H1098 H 0.85943 0.10533 0.75838 0.0
C1099 C 0.97437 0.98126 0.73357 0.0
C1100 C 0.99541 1.02566 0.75062 0.0
H1101 H 0.89643 0.94371 0.71385 0.0
H1102 H 1.00429 0.94319 0.72824 0.0
C1103 C 0.9536 0.07265 0.75791 0.0
loop_
_geom_bond_atom_site_label_1
_geom_bond_atom_site_label_2
_geom_bond_distance
_geom_bond_site_symmetry_2
_ccdc_geom_bond_type
Zn0 N4 2.020 . S
Zn0 O8 2.019 1_545 S
Zn0 N10 2.119 . S
Zn0 O18 1.975 1_545 S
C1 N2 1.334 . S
C1 N5 1.336 . S
N2 C1 1.334 . S
N2 C3 1.334 . S
C3 N2 1.334 . S
C3 N4 1.336 . S
N4 Zn0 2.020 . S
N4 C3 1.336 . S
N4 N5 1.354 . S
N5 C1 1.336 . S
N5 N4 1.354 . S
N5 Zn9 2.020 . S
C6 O7 1.244 . S
C6 O30 1.257 . S
O7 C6 1.244 . S
O8 Zn0 2.019 1_565 S
O8 C28 1.257 1_565 S
Zn9 N5 2.020 . S
Zn9 O16 1.975 1_545 S
Zn9 N25 2.119 . S
Zn9 O30 2.019 1_554 S
N10 Zn0 2.119 . S
N10 C12 1.334 . S
N10 C13 1.328 . S
C11 C12 1.391 . S
C11 N14 1.329 1_455 S
C11 H32 0.930 . S
C12 N10 1.334 . S
C12 C11 1.391 . S
C12 H19 0.930 . S
C13 N10 1.328 . S
C13 C15 1.392 . S
C13 H20 0.930 . S
N14 C11 1.329 1_655 S
N14 C15 1.331 1_655 S
C15 C13 1.392 . S
C15 N14 1.331 1_455 S
O16 Zn9 1.975 1_565 S
O16 C17 1.252 . S
C17 O16 1.252 . S
C17 O18 1.252 . S
O18 Zn0 1.975 1_565 S
O18 C17 1.252 . S
H19 C12 0.930 . S
H20 C13 0.930 . S
C21 C22 1.391 . S
C21 N25 1.328 1_556 S
C21 H27 0.930 . S
C22 C21 1.391 . S
C22 N26 1.331 1_556 S
C23 C24 1.391 . S
C23 N26 1.329 . S
C23 H33 0.928 1_545 S
C24 C23 1.391 . S
C24 N25 1.334 . S
C24 H31 0.930 . S
N25 Zn9 2.119 . S
N25 C21 1.328 1_554 S
N25 C24 1.334 . S
N26 C22 1.331 1_554 S
N26 C23 1.329 . S
H27 C21 0.930 . S
C28 O8 1.257 1_545 S
C28 O29 1.244 . S
O29 C28 1.244 . S
O30 C6 1.257 . S
O30 Zn9 2.019 1_556 S
H31 C24 0.930 . S
H32 C11 0.930 . S
H33 C23 0.928 1_565 S
Zn34 N38 2.020 . S
Zn34 O42 2.019 . S
Zn34 N44 2.119 . S
Zn34 O52 1.975 . S
C35 N36 1.334 . S
C35 N39 1.336 . S
N36 C35 1.334 . S
N36 C37 1.334 . S
C37 N36 1.334 . S
C37 N38 1.336 . S
N38 Zn34 2.020 . S
N38 C37 1.336 . S
N38 N39 1.354 . S
N39 C35 1.336 . S
N39 N38 1.354 . S
N39 Zn43 2.020 . S
C40 O41 1.244 . S
C40 O64 1.257 . S
O41 C40 1.244 . S
O42 Zn34 2.019 . S
O42 C62 1.257 . S
Zn43 N39 2.020 . S
Zn43 O50 1.975 . S
Zn43 N59 2.119 . S
Zn43 O64 2.019 . S
N44 Zn34 2.119 . S
N44 C46 1.334 . S
N44 C47 1.328 . S
C45 C46 1.391 . S
C45 N48 1.329 . S
C45 H66 0.930 . S
C46 N44 1.334 . S
C46 C45 1.391 . S
C46 H53 0.930 . S
C47 N44 1.328 . S
C47 C49 1.392 . S
C47 H54 0.930 . S
N48 C45 1.329 . S
N48 C49 1.331 . S
C49 C47 1.392 . S
C49 N48 1.331 . S
O50 Zn43 1.975 . S
O50 C51 1.252 . S
C51 O50 1.252 . S
C51 O52 1.252 . S
O52 Zn34 1.975 . S
O52 C51 1.252 . S
H53 C46 0.930 . S
H54 C47 0.930 . S
C55 C56 1.392 . S
C55 N59 1.328 . S
C55 H61 0.930 . S
C56 C55 1.392 . S
C56 N60 1.331 . S
C57 C58 1.391 . S
C57 N60 1.329 . S
C57 H67 0.930 . S
C58 C57 1.391 . S
C58 N59 1.334 . S
C58 H65 0.930 . S
N59 Zn43 2.119 . S
N59 C55 1.328 . S
N59 C58 1.334 . S
N60 C56 1.331 . S
N60 C57 1.329 . S
H61 C55 0.930 . S
C62 O42 1.257 . S
C62 O63 1.244 . S
O63 C62 1.244 . S
O64 C40 1.257 . S
O64 Zn43 2.019 . S
H65 C58 0.930 . S
H66 C45 0.930 . S
H67 C57 0.930 . S
Zn68 N72 2.020 . S
Zn68 O76 2.019 . S
Zn68 N78 2.119 . S
Zn68 O86 1.975 1_565 S
C69 N70 1.334 . S
C69 N73 1.336 . S
N70 C69 1.334 . S
N70 C71 1.334 . S
C71 N70 1.334 . S
C71 N72 1.336 . S
N72 Zn68 2.020 . S
N72 C71 1.336 . S
N72 N73 1.354 . S
N73 C69 1.336 . S
N73 N72 1.354 . S
N73 Zn77 2.020 . S
C74 O75 1.244 . S
C74 O98 1.257 1_565 S
O75 C74 1.244 . S
O76 Zn68 2.019 . S
O76 C96 1.257 . S
Zn77 N73 2.020 . S
Zn77 O84 1.975 1_565 S
Zn77 N93 2.119 . S
Zn77 O98 2.019 1_565 S
N78 Zn68 2.119 . S
N78 C80 1.334 . S
N78 C81 1.328 . S
C79 C80 1.391 . S
C79 N82 1.329 . S
C79 H100 0.928 1_565 S
C80 N78 1.334 . S
C80 C79 1.391 . S
C80 H87 0.930 . S
C81 N78 1.328 . S
C81 C83 1.392 . S
C81 H88 0.930 . S
N82 C79 1.329 . S
N82 C83 1.331 . S
C83 C81 1.392 . S
C83 N82 1.331 . S
O84 Zn77 1.975 1_545 S
O84 C85 1.252 . S
C85 O84 1.252 . S
C85 O86 1.252 . S
O86 Zn68 1.975 1_545 S
O86 C85 1.252 . S
H87 C80 0.930 . S
H88 C81 0.930 . S
C89 C90 1.392 . S
C89 N93 1.328 . S
C89 H95 0.930 . S
C90 C89 1.392 . S
C90 N94 1.331 . S
C91 C92 1.391 . S
C91 N94 1.329 . S
C91 H101 0.930 . S
C92 C91 1.391 . S
C92 N93 1.334 . S
C92 H99 0.930 . S
N93 Zn77 2.119 . S
N93 C89 1.328 . S
N93 C92 1.334 . S
N94 C90 1.331 . S
N94 C91 1.329 . S
H95 C89 0.930 . S
C96 O76 1.257 . S
C96 O97 1.244 . S
O97 C96 1.244 . S
O98 C74 1.257 1_545 S
O98 Zn77 2.019 1_545 S
H99 C92 0.930 . S
H100 C79 0.928 1_545 S
H101 C91 0.930 . S
Zn102 N106 2.020 . S
Zn102 O110 2.019 . S
Zn102 N112 2.119 . S
Zn102 O120 1.975 . S
C103 N104 1.334 . S
C103 N107 1.336 . S
N104 C103 1.334 . S
N104 C105 1.334 . S
C105 N104 1.334 . S
C105 N106 1.336 . S
N106 Zn102 2.020 . S
N106 C105 1.336 . S
N106 N107 1.354 . S
N107 C103 1.336 . S
N107 N106 1.354 . S
N107 Zn111 2.020 . S
C108 O109 1.244 . S
C108 O132 1.257 . S
O109 C108 1.244 . S
O110 Zn102 2.019 . S
O110 C130 1.257 . S
Zn111 N107 2.020 . S
Zn111 O118 1.975 . S
Zn111 N127 2.119 . S
Zn111 O132 2.019 . S
N112 Zn102 2.119 . S
N112 C114 1.334 . S
N112 C115 1.328 . S
C113 C114 1.391 . S
C113 N116 1.329 . S
C113 H134 0.930 . S
C114 N112 1.334 . S
C114 C113 1.391 . S
C114 H121 0.930 . S
C115 N112 1.328 . S
C115 C117 1.392 . S
C115 H122 0.930 . S
N116 C113 1.329 . S
N116 C117 1.331 . S
C117 C115 1.392 . S
C117 N116 1.331 . S
O118 Zn111 1.975 . S
O118 C119 1.252 . S
C119 O118 1.252 . S
C119 O120 1.252 . S
O120 Zn102 1.975 . S
O120 C119 1.252 . S
H121 C114 0.930 . S
H122 C115 0.930 . S
C123 C124 1.392 . S
C123 N127 1.328 . S
C123 H129 0.930 . S
C124 C123 1.392 . S
C124 N128 1.331 . S
C125 C126 1.391 . S
C125 N128 1.329 . S
C125 H135 0.930 . S
C126 C125 1.391 . S
C126 N127 1.334 . S
C126 H133 0.930 . S
N127 Zn111 2.119 . S
N127 C123 1.328 . S
N127 C126 1.334 . S
N128 C124 1.331 . S
N128 C125 1.329 . S
H129 C123 0.930 . S
C130 O110 1.257 . S
C130 O131 1.244 . S
O131 C130 1.244 . S
O132 C108 1.257 . S
O132 Zn111 2.019 . S
H133 C126 0.930 . S
H134 C113 0.930 . S
H135 C125 0.930 . S
Zn136 N140 2.020 . S
Zn136 O144 2.019 1_565 S
Zn136 N146 2.119 . S
Zn136 O154 1.975 1_565 S
C137 N138 1.334 . S
C137 N141 1.336 . S
N138 C137 1.334 . S
N138 C139 1.334 . S
C139 N138 1.334 . S
C139 N140 1.336 . S
N140 Zn136 2.020 . S
N140 C139 1.336 . S
N140 N141 1.354 . S
N141 C137 1.336 . S
N141 N140 1.354 . S
N141 Zn145 2.020 . S
C142 O143 1.244 . S
C142 O166 1.257 . S
O143 C142 1.244 . S
O144 Zn136 2.019 1_545 S
O144 C164 1.257 1_545 S
Zn145 N141 2.020 . S
Zn145 O152 1.975 1_565 S
Zn145 N161 2.119 . S
Zn145 O166 2.019 1_556 S
N146 Zn136 2.119 . S
N146 C148 1.334 . S
N146 C149 1.328 . S
C147 C148 1.391 . S
C147 N150 1.329 1_655 S
C147 H168 0.930 . S
C148 N146 1.334 . S
C148 C147 1.391 . S
C148 H155 0.930 . S
C149 N146 1.328 . S
C149 C151 1.392 . S
C149 H156 0.930 . S
N150 C147 1.329 1_455 S
N150 C151 1.331 1_455 S
C151 C149 1.392 . S
C151 N150 1.331 1_655 S
O152 Zn145 1.975 1_545 S
O152 C153 1.252 . S
C153 O152 1.252 . S
C153 O154 1.252 . S
O154 Zn136 1.975 1_545 S
O154 C153 1.252 . S
H155 C148 0.930 . S
H156 C149 0.930 . S
C157 C158 1.391 . S
C157 N161 1.328 1_554 S
C157 H163 0.930 . S
C158 C157 1.391 . S
C158 N162 1.331 1_554 S
C159 C160 1.391 . S
C159 N162 1.329 . S
C159 H169 0.928 1_565 S
C160 C159 1.391 . S
C160 N161 1.334 . S
C160 H167 0.930 . S
N161 Zn145 2.119 . S
N161 C157 1.328 1_556 S
N161 C160 1.334 . S
N162 C158 1.331 1_556 S
N162 C159 1.329 . S
H163 C157 0.930 . S
C164 O144 1.257 1_565 S
C164 O165 1.244 . S
O165 C164 1.244 . S
O166 C142 1.257 . S
O166 Zn145 2.019 1_554 S
H167 C160 0.930 . S
H168 C147 0.930 . S
H169 C159 0.928 1_545 S
Zn170 N174 2.020 . S
Zn170 O178 2.019 . S
Zn170 N180 2.119 . S
Zn170 O188 1.975 . S
C171 N172 1.334 . S
C171 N175 1.336 . S
N172 C171 1.334 . S
N172 C173 1.334 . S
C173 N172 1.334 . S
C173 N174 1.336 . S
N174 Zn170 2.020 . S
N174 C173 1.336 . S
N174 N175 1.354 . S
N175 C171 1.336 . S
N175 N174 1.354 . S
N175 Zn179 2.020 . S
C176 O177 1.244 . S
C176 O200 1.257 . S
O177 C176 1.244 . S
O178 Zn170 2.019 . S
O178 C198 1.257 . S
Zn179 N175 2.020 . S
Zn179 O186 1.975 . S
Zn179 N195 2.119 . S
Zn179 O200 2.019 . S
N180 Zn170 2.119 . S
N180 C182 1.334 . S
N180 C183 1.328 . S
C181 C182 1.391 . S
C181 N184 1.329 . S
C181 H202 0.930 . S
C182 N180 1.334 . S
C182 C181 1.391 . S
C182 H189 0.930 . S
C183 N180 1.328 . S
C183 C185 1.392 . S
C183 H190 0.930 . S
N184 C181 1.329 . S
N184 C185 1.331 . S
C185 C183 1.392 . S
C185 N184 1.331 . S
O186 Zn179 1.975 . S
O186 C187 1.252 . S
C187 O186 1.252 . S
C187 O188 1.252 . S
O188 Zn170 1.975 . S
O188 C187 1.252 . S
H189 C182 0.930 . S
H190 C183 0.930 . S
C191 C192 1.392 . S
C191 N195 1.328 . S
C191 H197 0.930 . S
C192 C191 1.392 . S
C192 N196 1.331 . S
C193 C194 1.391 . S
C193 N196 1.329 . S
C193 H203 0.930 . S
C194 C193 1.391 . S
C194 N195 1.334 . S
C194 H201 0.930 . S
N195 Zn179 2.119 . S
N195 C191 1.328 . S
N195 C194 1.334 . S
N196 C192 1.331 . S
N196 C193 1.329 . S
H197 C191 0.930 . S
C198 O178 1.257 . S
C198 O199 1.244 . S
O199 C198 1.244 . S
O200 C176 1.257 . S
O200 Zn179 2.019 . S
H201 C194 0.930 . S
H202 C181 0.930 . S
H203 C193 0.930 . S
Zn204 N208 2.020 . S
Zn204 O212 2.019 1_545 S
Zn204 N214 2.119 . S
Zn204 O222 1.975 1_545 S
C205 N206 1.334 . S
C205 N209 1.336 . S
N206 C205 1.334 . S
N206 C207 1.334 . S
C207 N206 1.334 . S
C207 N208 1.336 . S
N208 Zn204 2.020 . S
N208 C207 1.336 . S
N208 N209 1.354 . S
N209 C205 1.336 . S
N209 N208 1.354 . S
N209 Zn213 2.020 . S
C210 O211 1.244 . S
C210 O234 1.257 . S
O211 C210 1.244 . S
O212 Zn204 2.019 1_565 S
O212 C232 1.257 1_565 S
Zn213 N209 2.020 . S
Zn213 O220 1.975 1_545 S
Zn213 N229 2.119 . S
Zn213 O234 2.019 . S
N214 Zn204 2.119 . S
N214 C216 1.334 . S
N214 C217 1.328 . S
C215 C216 1.391 . S
C215 N218 1.329 . S
C215 H236 0.930 . S
C216 N214 1.334 . S
C216 C215 1.391 . S
C216 H223 0.930 . S
C217 N214 1.328 . S
C217 C219 1.392 . S
C217 H224 0.930 . S
N218 C215 1.329 . S
N218 C219 1.331 . S
C219 C217 1.392 . S
C219 N218 1.331 . S
O220 Zn213 1.975 1_565 S
O220 C221 1.252 . S
C221 O220 1.252 . S
C221 O222 1.252 . S
O222 Zn204 1.975 1_565 S
O222 C221 1.252 . S
H223 C216 0.930 . S
H224 C217 0.930 . S
C225 C226 1.392 . S
C225 N229 1.328 . S
C225 H231 0.930 . S
C226 C225 1.392 . S
C226 N230 1.331 . S
C227 C228 1.391 . S
C227 N230 1.329 . S
C227 H237 0.928 1_545 S
C228 C227 1.391 . S
C228 N229 1.334 . S
C228 H235 0.930 . S
N229 Zn213 2.119 . S
N229 C225 1.328 . S
N229 C228 1.334 . S
N230 C226 1.331 . S
N230 C227 1.329 . S
H231 C225 0.930 . S
C232 O212 1.257 1_545 S
C232 O233 1.244 . S
O233 C232 1.244 . S
O234 C210 1.257 . S
O234 Zn213 2.019 . S
H235 C228 0.930 . S
H236 C215 0.930 . S
H237 C227 0.928 1_565 S
Zn238 N242 2.020 . S
Zn238 O246 2.019 . S
Zn238 N248 2.119 . S
Zn238 O256 1.975 . S
C239 N240 1.334 . S
C239 N243 1.336 . S
N240 C239 1.334 . S
N240 C241 1.334 . S
C241 N240 1.334 . S
C241 N242 1.336 . S
N242 Zn238 2.020 . S
N242 C241 1.336 . S
N242 N243 1.354 . S
N243 C239 1.336 . S
N243 N242 1.354 . S
N243 Zn247 2.020 . S
C244 O245 1.244 . S
C244 O268 1.257 . S
O245 C244 1.244 . S
O246 Zn238 2.019 . S
O246 C266 1.257 . S
Zn247 N243 2.020 . S
Zn247 O254 1.975 . S
Zn247 N263 2.119 . S
Zn247 O268 2.019 . S
N248 Zn238 2.119 . S
N248 C250 1.334 . S
N248 C251 1.328 . S
C249 C250 1.391 . S
C249 N252 1.329 . S
C249 H270 0.930 . S
C250 N248 1.334 . S
C250 C249 1.391 . S
C250 H257 0.930 . S
C251 N248 1.328 . S
C251 C253 1.392 . S
C251 H258 0.930 . S
N252 C249 1.329 . S
N252 C253 1.331 . S
C253 C251 1.392 . S
C253 N252 1.331 . S
O254 Zn247 1.975 . S
O254 C255 1.252 . S
C255 O254 1.252 . S
C255 O256 1.252 . S
O256 Zn238 1.975 . S
O256 C255 1.252 . S
H257 C250 0.930 . S
H258 C251 0.930 . S
C259 C260 1.392 . S
C259 N263 1.328 . S
C259 H265 0.930 . S
C260 C259 1.392 . S
C260 N264 1.331 . S
C261 C262 1.391 . S
C261 N264 1.329 . S
C261 H271 0.930 . S
C262 C261 1.391 . S
C262 N263 1.334 . S
C262 H269 0.930 . S
N263 Zn247 2.119 . S
N263 C259 1.328 . S
N263 C262 1.334 . S
N264 C260 1.331 . S
N264 C261 1.329 . S
H265 C259 0.930 . S
C266 O246 1.257 . S
C266 O267 1.244 . S
O267 C266 1.244 . S
O268 C244 1.257 . S
O268 Zn247 2.019 . S
H269 C262 0.930 . S
H270 C249 0.930 . S
H271 C261 0.930 . S
Zn272 N276 2.020 . S
Zn272 O280 2.019 . S
Zn272 N282 2.119 . S
Zn272 O290 1.975 . S
C273 N274 1.334 . S
C273 N277 1.336 . S
N274 C273 1.334 . S
N274 C275 1.334 . S
C275 N274 1.334 . S
C275 N276 1.336 . S
N276 Zn272 2.020 . S
N276 C275 1.336 . S
N276 N277 1.354 . S
N277 C273 1.336 . S
N277 N276 1.354 . S
N277 Zn281 2.020 . S
C278 O279 1.244 . S
C278 O302 1.257 . S
O279 C278 1.244 . S
O280 Zn272 2.019 . S
O280 C300 1.257 . S
Zn281 N277 2.020 . S
Zn281 O288 1.975 . S
Zn281 N297 2.119 . S
Zn281 O302 2.019 . S
N282 Zn272 2.119 . S
N282 C284 1.334 . S
N282 C285 1.328 . S
C283 C284 1.391 . S
C283 N286 1.329 . S
C283 H304 0.930 . S
C284 N282 1.334 . S
C284 C283 1.391 . S
C284 H291 0.930 . S
C285 N282 1.328 . S
C285 C287 1.392 . S
C285 H292 0.930 . S
N286 C283 1.329 . S
N286 C287 1.331 . S
C287 C285 1.392 . S
C287 N286 1.331 . S
O288 Zn281 1.975 . S
O288 C289 1.252 . S
C289 O288 1.252 . S
C289 O290 1.252 . S
O290 Zn272 1.975 . S
O290 C289 1.252 . S
H291 C284 0.930 . S
H292 C285 0.930 . S
C293 C294 1.392 . S
C293 N297 1.328 . S
C293 H299 0.930 . S
C294 C293 1.392 . S
C294 N298 1.331 . S
C295 C296 1.391 . S
C295 N298 1.329 . S
C295 H305 0.930 . S
C296 C295 1.391 . S
C296 N297 1.334 . S
C296 H303 0.930 . S
N297 Zn281 2.119 . S
N297 C293 1.328 . S
N297 C296 1.334 . S
N298 C294 1.331 . S
N298 C295 1.329 . S
H299 C293 0.930 . S
C300 O280 1.257 . S
C300 O301 1.244 . S
O301 C300 1.244 . S
O302 C278 1.257 . S
O302 Zn281 2.019 . S
H303 C296 0.930 . S
H304 C283 0.930 . S
H305 C295 0.930 . S
Zn306 N310 2.020 . S
Zn306 O314 2.019 . S
Zn306 N316 2.119 . S
Zn306 O324 1.975 1_565 S
C307 N308 1.334 . S
C307 N311 1.336 . S
N308 C307 1.334 . S
N308 C309 1.334 1_545 S
C309 N308 1.334 1_565 S
C309 N310 1.336 . S
N310 Zn306 2.020 . S
N310 C309 1.336 . S
N310 N311 1.354 1_565 S
N311 C307 1.336 . S
N311 N310 1.354 1_545 S
N311 Zn315 2.020 . S
C312 O313 1.244 . S
C312 O336 1.257 1_565 S
O313 C312 1.244 . S
O314 Zn306 2.019 . S
O314 C334 1.257 1_565 S
Zn315 N311 2.020 . S
Zn315 O322 1.975 1_545 S
Zn315 N331 2.119 . S
Zn315 O336 2.019 . S
N316 Zn306 2.119 . S
N316 C318 1.334 . S
N316 C319 1.328 . S
C317 C318 1.391 . S
C317 N320 1.329 . S
C317 H338 0.930 . S
C318 N316 1.334 . S
C318 C317 1.391 . S
C318 H325 0.930 . S
C319 N316 1.328 . S
C319 C321 1.392 . S
C319 H326 0.930 . S
N320 C317 1.329 . S
N320 C321 1.331 . S
C321 C319 1.392 . S
C321 N320 1.331 . S
O322 Zn315 1.975 1_565 S
O322 C323 1.252 . S
C323 O322 1.252 . S
C323 O324 1.252 1_565 S
O324 Zn306 1.975 1_545 S
O324 C323 1.252 1_545 S
H325 C318 0.930 . S
H326 C319 0.930 . S
C327 C328 1.392 . S
C327 N331 1.328 . S
C327 H333 0.930 . S
C328 C327 1.392 . S
C328 N332 1.331 . S
C329 C330 1.391 . S
C329 N332 1.329 . S
C329 H339 0.930 . S
C330 C329 1.391 . S
C330 N331 1.334 . S
C330 H337 0.930 . S
N331 Zn315 2.119 . S
N331 C327 1.328 . S
N331 C330 1.334 . S
N332 C328 1.331 . S
N332 C329 1.329 . S
H333 C327 0.930 . S
C334 O314 1.257 1_545 S
C334 O335 1.244 . S
O335 C334 1.244 . S
O336 C312 1.257 1_545 S
O336 Zn315 2.019 . S
H337 C330 0.930 . S
H338 C317 0.930 . S
H339 C329 0.930 . S
Zn340 N344 2.020 . S
Zn340 O348 2.019 1_554 S
Zn340 N350 2.119 . S
Zn340 O358 1.975 . S
C341 N342 1.334 . S
C341 N345 1.336 . S
N342 C341 1.334 . S
N342 C343 1.334 . S
C343 N342 1.334 . S
C343 N344 1.336 . S
N344 Zn340 2.020 . S
N344 C343 1.336 . S
N344 N345 1.354 . S
N345 C341 1.336 . S
N345 N344 1.354 . S
N345 Zn349 2.020 . S
C346 O347 1.244 . S
C346 O370 1.257 . S
O347 C346 1.244 . S
O348 Zn340 2.019 1_556 S
O348 C368 1.257 . S
Zn349 N345 2.020 . S
Zn349 O356 1.975 . S
Zn349 N365 2.119 . S
Zn349 O370 2.019 . S
N350 Zn340 2.119 . S
N350 C352 1.334 . S
N350 C353 1.296 1_554 S
C351 C352 1.391 . S
C351 N354 1.329 . S
C351 H372 0.930 . S
C352 N350 1.334 . S
C352 C351 1.391 . S
C352 H359 0.930 . S
C353 N350 1.296 1_556 S
C353 C355 1.390 1_556 S
C353 H360 0.966 . S
N354 C351 1.329 . S
N354 C355 1.352 . S
C355 C353 1.390 1_554 S
C355 N354 1.352 . S
O356 Zn349 1.975 . S
O356 C357 1.252 . S
C357 O356 1.252 . S
C357 O358 1.252 . S
O358 Zn340 1.975 . S
O358 C357 1.252 . S
H359 C352 0.930 . S
H360 C353 0.966 . S
C361 C362 1.392 . S
C361 N365 1.328 . S
C361 H367 0.930 . S
C362 C361 1.392 . S
C362 N366 1.331 1_655 S
C363 C364 1.391 . S
C363 N366 1.329 1_655 S
C363 H373 0.930 . S
C364 C363 1.391 . S
C364 N365 1.334 . S
C364 H371 0.930 . S
N365 Zn349 2.119 . S
N365 C361 1.328 . S
N365 C364 1.334 . S
N366 C362 1.331 1_455 S
N366 C363 1.329 1_455 S
H367 C361 0.930 . S
C368 O348 1.257 . S
C368 O369 1.244 . S
O369 C368 1.244 . S
O370 C346 1.257 . S
O370 Zn349 2.019 . S
H371 C364 0.930 . S
H372 C351 0.930 . S
H373 C363 0.930 . S
Zn374 N378 2.020 . S
Zn374 O382 2.019 . S
Zn374 N384 2.119 . S
Zn374 O392 1.975 1_545 S
C375 N376 1.334 . S
C375 N379 1.336 . S
N376 C375 1.334 . S
N376 C377 1.334 1_565 S
C377 N376 1.334 1_545 S
C377 N378 1.336 . S
N378 Zn374 2.020 . S
N378 C377 1.336 . S
N378 N379 1.354 1_545 S
N379 C375 1.336 . S
N379 N378 1.354 1_565 S
N379 Zn383 2.020 . S
C380 O381 1.244 . S
C380 O404 1.257 1_545 S
O381 C380 1.244 . S
O382 Zn374 2.019 . S
O382 C402 1.257 1_545 S
Zn383 N379 2.020 . S
Zn383 O390 1.975 1_565 S
Zn383 N399 2.119 . S
Zn383 O404 2.019 . S
N384 Zn374 2.119 . S
N384 C386 1.334 . S
N384 C387 1.328 . S
C385 C386 1.391 . S
C385 N388 1.329 . S
C385 H406 0.930 . S
C386 N384 1.334 . S
C386 C385 1.391 . S
C386 H393 0.930 . S
C387 N384 1.328 . S
C387 C389 1.392 . S
C387 H394 0.930 . S
N388 C385 1.329 . S
N388 C389 1.331 . S
C389 C387 1.392 . S
C389 N388 1.331 . S
O390 Zn383 1.975 1_545 S
O390 C391 1.252 . S
C391 O390 1.252 . S
C391 O392 1.252 1_545 S
O392 Zn374 1.975 1_565 S
O392 C391 1.252 1_565 S
H393 C386 0.930 . S
H394 C387 0.930 . S
C395 C396 1.392 . S
C395 N399 1.328 . S
C395 H401 0.930 . S
C396 C395 1.392 . S
C396 N400 1.331 . S
C397 C398 1.391 . S
C397 N400 1.329 . S
C397 H407 0.930 . S
C398 C397 1.391 . S
C398 N399 1.334 . S
C398 H405 0.930 . S
N399 Zn383 2.119 . S
N399 C395 1.328 . S
N399 C398 1.334 . S
N400 C396 1.331 . S
N400 C397 1.329 . S
H401 C395 0.930 . S
C402 O382 1.257 1_565 S
C402 O403 1.244 . S
O403 C402 1.244 . S
O404 C380 1.257 1_565 S
O404 Zn383 2.019 . S
H405 C398 0.930 . S
H406 C385 0.930 . S
H407 C397 0.930 . S
Zn408 N412 2.020 . S
Zn408 O416 2.019 . S
Zn408 N418 2.119 . S
Zn408 O426 1.975 . S
C409 N410 1.334 . S
C409 N413 1.336 . S
N410 C409 1.334 . S
N410 C411 1.334 . S
C411 N410 1.334 . S
C411 N412 1.336 . S
N412 Zn408 2.020 . S
N412 C411 1.336 . S
N412 N413 1.354 . S
N413 C409 1.336 . S
N413 N412 1.354 . S
N413 Zn417 2.020 . S
C414 O415 1.244 . S
C414 O438 1.257 . S
O415 C414 1.244 . S
O416 Zn408 2.019 . S
O416 C436 1.257 . S
Zn417 N413 2.020 . S
Zn417 O424 1.975 . S
Zn417 N433 2.119 . S
Zn417 O438 2.019 . S
N418 Zn408 2.119 . S
N418 C420 1.334 . S
N418 C421 1.328 . S
C419 C420 1.391 . S
C419 N422 1.329 . S
C419 H440 0.930 . S
C420 N418 1.334 . S
C420 C419 1.391 . S
C420 H427 0.930 . S
C421 N418 1.328 . S
C421 C423 1.392 . S
C421 H428 0.930 . S
N422 C419 1.329 . S
N422 C423 1.331 . S
C423 C421 1.392 . S
C423 N422 1.331 . S
O424 Zn417 1.975 . S
O424 C425 1.252 . S
C425 O424 1.252 . S
C425 O426 1.252 . S
O426 Zn408 1.975 . S
O426 C425 1.252 . S
H427 C420 0.930 . S
H428 C421 0.930 . S
C429 C430 1.392 . S
C429 N433 1.328 . S
C429 H435 0.930 . S
C430 C429 1.392 . S
C430 N434 1.331 . S
C431 C432 1.391 . S
C431 N434 1.329 . S
C431 H441 0.930 . S
C432 C431 1.391 . S
C432 N433 1.334 . S
C432 H439 0.930 . S
N433 Zn417 2.119 . S
N433 C429 1.328 . S
N433 C432 1.334 . S
N434 C430 1.331 . S
N434 C431 1.329 . S
H435 C429 0.930 . S
C436 O416 1.257 . S
C436 O437 1.244 . S
O437 C436 1.244 . S
O438 C414 1.257 . S
O438 Zn417 2.019 . S
H439 C432 0.930 . S
H440 C419 0.930 . S
H441 C431 0.930 . S
Zn442 N446 2.020 . S
Zn442 O450 2.019 . S
Zn442 N452 2.119 . S
Zn442 O460 1.975 1_545 S
C443 N444 1.334 . S
C443 N447 1.336 . S
N444 C443 1.334 . S
N444 C445 1.334 1_565 S
C445 N444 1.334 1_545 S
C445 N446 1.336 . S
N446 Zn442 2.020 . S
N446 C445 1.336 . S
N446 N447 1.354 1_545 S
N447 C443 1.336 . S
N447 N446 1.354 1_565 S
N447 Zn451 2.020 . S
C448 O449 1.244 . S
C448 O472 1.257 1_545 S
O449 C448 1.244 . S
O450 Zn442 2.019 . S
O450 C470 1.257 1_545 S
Zn451 N447 2.020 . S
Zn451 O458 1.975 1_565 S
Zn451 N467 2.119 . S
Zn451 O472 2.019 . S
N452 Zn442 2.119 . S
N452 C454 1.334 . S
N452 C455 1.328 . S
C453 C454 1.391 . S
C453 N456 1.329 . S
C453 H474 0.930 . S
C454 N452 1.334 . S
C454 C453 1.391 . S
C454 H461 0.930 . S
C455 N452 1.328 . S
C455 C457 1.392 . S
C455 H462 0.930 . S
N456 C453 1.329 . S
N456 C457 1.331 . S
C457 C455 1.392 . S
C457 N456 1.331 . S
O458 Zn451 1.975 1_545 S
O458 C459 1.252 . S
C459 O458 1.252 . S
C459 O460 1.252 1_545 S
O460 Zn442 1.975 1_565 S
O460 C459 1.252 1_565 S
H461 C454 0.930 . S
H462 C455 0.930 . S
C463 C464 1.392 . S
C463 N467 1.328 . S
C463 H469 0.930 . S
C464 C463 1.392 . S
C464 N468 1.331 . S
C465 C466 1.391 . S
C465 N468 1.329 . S
C465 H475 0.930 . S
C466 C465 1.391 . S
C466 N467 1.334 . S
C466 H473 0.930 . S
N467 Zn451 2.119 . S
N467 C463 1.328 . S
N467 C466 1.334 . S
N468 C464 1.331 . S
N468 C465 1.329 . S
H469 C463 0.930 . S
C470 O450 1.257 1_565 S
C470 O471 1.244 . S
O471 C470 1.244 . S
O472 C448 1.257 1_565 S
O472 Zn451 2.019 . S
H473 C466 0.930 . S
H474 C453 0.930 . S
H475 C465 0.930 . S
Zn476 N480 2.020 . S
Zn476 O484 2.019 1_556 S
Zn476 N486 2.119 . S
Zn476 O494 1.975 . S
C477 N478 1.334 . S
C477 N481 1.336 . S
N478 C477 1.334 . S
N478 C479 1.334 . S
C479 N478 1.334 . S
C479 N480 1.336 . S
N480 Zn476 2.020 . S
N480 C479 1.336 . S
N480 N481 1.354 . S
N481 C477 1.336 . S
N481 N480 1.354 . S
N481 Zn485 2.020 . S
C482 O483 1.244 . S
C482 O506 1.257 . S
O483 C482 1.244 . S
O484 Zn476 2.019 1_554 S
O484 C504 1.257 . S
Zn485 N481 2.020 . S
Zn485 O492 1.975 . S
Zn485 N501 2.119 . S
Zn485 O506 2.019 . S
N486 Zn476 2.119 . S
N486 C488 1.334 . S
N486 C489 1.296 1_556 S
C487 C488 1.391 . S
C487 N490 1.329 . S
C487 H508 0.930 . S
C488 N486 1.334 . S
C488 C487 1.391 . S
C488 H495 0.930 . S
C489 N486 1.296 1_554 S
C489 C491 1.390 1_554 S
C489 H496 0.966 . S
N490 C487 1.329 . S
N490 C491 1.352 . S
C491 C489 1.390 1_556 S
C491 N490 1.352 . S
O492 Zn485 1.975 . S
O492 C493 1.252 . S
C493 O492 1.252 . S
C493 O494 1.252 . S
O494 Zn476 1.975 . S
O494 C493 1.252 . S
H495 C488 0.930 . S
H496 C489 0.966 . S
C497 C498 1.392 . S
C497 N501 1.328 . S
C497 H503 0.930 . S
C498 C497 1.392 . S
C498 N502 1.331 1_455 S
C499 C500 1.391 . S
C499 N502 1.329 1_455 S
C499 H509 0.930 . S
C500 C499 1.391 . S
C500 N501 1.334 . S
C500 H507 0.930 . S
N501 Zn485 2.119 . S
N501 C497 1.328 . S
N501 C500 1.334 . S
N502 C498 1.331 1_655 S
N502 C499 1.329 1_655 S
H503 C497 0.930 . S
C504 O484 1.257 . S
C504 O505 1.244 . S
O505 C504 1.244 . S
O506 C482 1.257 . S
O506 Zn485 2.019 . S
H507 C500 0.930 . S
H508 C487 0.930 . S
H509 C499 0.930 . S
Zn510 N514 2.020 . S
Zn510 O518 2.019 . S
Zn510 N520 2.119 . S
Zn510 O528 1.975 1_545 S
C511 N512 1.334 1_565 S
C511 N515 1.336 . S
N512 C511 1.334 1_545 S
N512 C513 1.334 . S
C513 N512 1.334 . S
C513 N514 1.336 . S
N514 Zn510 2.020 . S
N514 C513 1.336 . S
N514 N515 1.354 1_545 S
N515 C511 1.336 . S
N515 N514 1.354 1_565 S
N515 Zn519 2.020 . S
C516 O517 1.244 . S
C516 O540 1.257 1_545 S
O517 C516 1.244 . S
O518 Zn510 2.019 . S
O518 C538 1.257 1_545 S
Zn519 N515 2.020 . S
Zn519 O526 1.975 1_565 S
Zn519 N535 2.119 . S
Zn519 O540 2.019 . S
N520 Zn510 2.119 . S
N520 C522 1.334 . S
N520 C523 1.328 . S
C521 C522 1.391 . S
C521 N524 1.329 . S
C521 H542 0.930 . S
C522 N520 1.334 . S
C522 C521 1.391 . S
C522 H529 0.930 . S
C523 N520 1.328 . S
C523 C525 1.392 . S
C523 H530 0.930 . S
N524 C521 1.329 . S
N524 C525 1.331 . S
C525 C523 1.392 . S
C525 N524 1.331 . S
O526 Zn519 1.975 1_545 S
O526 C527 1.252 1_545 S
C527 O526 1.252 1_565 S
C527 O528 1.252 . S
O528 Zn510 1.975 1_565 S
O528 C527 1.252 . S
H529 C522 0.930 . S
H530 C523 0.930 . S
C531 C532 1.392 . S
C531 N535 1.328 . S
C531 H537 0.930 . S
C532 C531 1.392 . S
C532 N536 1.331 . S
C533 C534 1.391 . S
C533 N536 1.329 . S
C533 H543 0.930 . S
C534 C533 1.391 . S
C534 N535 1.334 . S
C534 H541 0.930 . S
N535 Zn519 2.119 . S
N535 C531 1.328 . S
N535 C534 1.334 . S
N536 C532 1.331 . S
N536 C533 1.329 . S
H537 C531 0.930 . S
C538 O518 1.257 1_565 S
C538 O539 1.244 . S
O539 C538 1.244 . S
O540 C516 1.257 1_565 S
O540 Zn519 2.019 . S
H541 C534 0.930 . S
H542 C521 0.930 . S
H543 C533 0.930 . S
C544 C545 1.387 1_565 S
C544 H548 0.950 . S
C544 C553 1.390 . S
C545 C544 1.387 1_545 S
C545 C547 1.387 . S
H546 C553 0.950 . S
C547 C545 1.387 . S
C547 C549 1.390 . S
C547 H551 0.950 . S
H548 C544 0.950 . S
C549 C547 1.390 . S
C549 C550 1.387 . S
C549 H552 0.950 . S
C550 C549 1.387 . S
C550 C553 1.387 1_545 S
H551 C547 0.950 . S
H552 C549 0.950 . S
C553 C544 1.390 . S
C553 H546 0.950 . S
C553 C550 1.387 1_565 S
C554 C555 1.387 . S
C554 H558 0.950 . S
C554 C563 1.390 . S
C555 C554 1.387 . S
C555 C557 1.387 . S
H556 C563 0.950 . S
C557 C555 1.387 . S
C557 C559 1.390 . S
C557 H561 0.950 . S
H558 C554 0.950 . S
C559 C557 1.390 . S
C559 C560 1.387 . S
C559 H562 0.950 . S
C560 C559 1.387 . S
C560 C563 1.387 . S
H561 C557 0.950 . S
H562 C559 0.950 . S
C563 C554 1.390 . S
C563 H556 0.950 . S
C563 C560 1.387 . S
C564 C565 1.387 1_545 S
C564 H568 0.950 . S
C564 C573 1.390 . S
C565 C564 1.387 1_565 S
C565 C567 1.387 . S
H566 C573 0.950 . S
C567 C565 1.387 . S
C567 C569 1.390 . S
C567 H571 0.950 . S
H568 C564 0.950 . S
C569 C567 1.390 . S
C569 C570 1.387 . S
C569 H572 0.950 . S
C570 C569 1.387 . S
C570 C573 1.387 1_565 S
H571 C567 0.950 . S
H572 C569 0.950 . S
C573 C564 1.390 . S
C573 H566 0.950 . S
C573 C570 1.387 1_545 S
C574 C575 1.387 . S
C574 H578 0.950 . S
C574 C583 1.390 . S
C575 C574 1.387 . S
C575 C577 1.387 . S
H576 C583 0.950 . S
C577 C575 1.387 . S
C577 C579 1.390 . S
C577 H581 0.950 . S
H578 C574 0.950 . S
C579 C577 1.390 . S
C579 C580 1.387 . S
C579 H582 0.950 . S
C580 C579 1.387 . S
C580 C583 1.387 . S
H581 C577 0.950 . S
H582 C579 0.950 . S
C583 C574 1.390 . S
C583 H576 0.950 . S
C583 C580 1.387 . S
C584 C585 1.387 1_545 S
C584 H588 0.950 . S
C584 C593 1.390 . S
C585 C584 1.387 1_565 S
C585 C587 1.387 . S
H586 C593 0.950 . S
C587 C585 1.387 . S
C587 C589 1.390 . S
C587 H591 0.950 . S
H588 C584 0.950 . S
C589 C587 1.390 . S
C589 C590 1.387 . S
C589 H592 0.950 . S
C590 C589 1.387 . S
C590 C593 1.387 1_565 S
H591 C587 0.950 . S
H592 C589 0.950 . S
C593 C584 1.390 . S
C593 H586 0.950 . S
C593 C590 1.387 1_545 S
C594 C595 1.387 . S
C594 H598 0.950 . S
C594 C603 1.390 . S
C595 C594 1.387 . S
C595 C597 1.387 . S
H596 C603 0.950 . S
C597 C595 1.387 . S
C597 C599 1.390 . S
C597 H601 0.950 . S
H598 C594 0.950 . S
C599 C597 1.390 . S
C599 C600 1.387 . S
C599 H602 0.950 . S
C600 C599 1.387 . S
C600 C603 1.387 . S
H601 C597 0.950 . S
H602 C599 0.950 . S
C603 C594 1.390 . S
C603 H596 0.950 . S
C603 C600 1.387 . S
C604 C605 1.387 . S
C604 H608 0.950 . S
C604 C613 1.390 . S
C605 C604 1.387 . S
C605 C607 1.387 1_545 S
H606 C613 0.950 . S
C607 C605 1.387 1_565 S
C607 C609 1.390 . S
C607 H611 0.950 . S
H608 C604 0.950 . S
C609 C607 1.390 . S
C609 C610 1.387 1_565 S
C609 H612 0.950 . S
C610 C609 1.387 1_545 S
C610 C613 1.387 . S
H611 C607 0.950 . S
H612 C609 0.950 . S
C613 C604 1.390 . S
C613 H606 0.950 . S
C613 C610 1.387 . S
C614 C615 1.387 . S
C614 H618 0.950 . S
C614 C623 1.390 . S
C615 C614 1.387 . S
C615 C617 1.387 . S
H616 C623 0.950 . S
C617 C615 1.387 . S
C617 C619 1.390 . S
C617 H621 0.950 . S
H618 C614 0.950 . S
C619 C617 1.390 . S
C619 C620 1.387 . S
C619 H622 0.950 . S
C620 C619 1.387 . S
C620 C623 1.387 . S
H621 C617 0.950 . S
H622 C619 0.950 . S
C623 C614 1.390 . S
C623 H616 0.950 . S
C623 C620 1.387 . S
C624 C625 1.387 . S
C624 H628 0.950 . S
C624 C633 1.390 . S
C625 C624 1.387 . S
C625 C627 1.387 . S
H626 C633 0.950 . S
C627 C625 1.387 . S
C627 C629 1.390 . S
C627 H631 0.950 . S
H628 C624 0.950 . S
C629 C627 1.390 . S
C629 C630 1.387 . S
C629 H632 0.950 . S
C630 C629 1.387 . S
C630 C633 1.387 . S
H631 C627 0.950 . S
H632 C629 0.950 . S
C633 C624 1.390 . S
C633 H626 0.950 . S
C633 C630 1.387 . S
C634 C635 1.384 1_565 S
C634 H638 0.950 . S
C634 C643 1.390 . S
C635 C634 1.384 1_545 S
C635 C637 1.390 . S
H636 C643 0.950 . S
C637 C635 1.390 . S
C637 C639 1.390 . S
C637 H641 0.950 . S
H638 C634 0.950 . S
C639 C637 1.390 . S
C639 C640 1.387 1_545 S
C639 H642 0.950 . S
C640 C639 1.387 1_565 S
C640 C643 1.387 . S
H641 C637 0.950 . S
H642 C639 0.950 . S
C643 C634 1.390 . S
C643 H636 0.950 . S
C643 C640 1.387 . S
C644 C645 1.387 . S
C644 H648 0.950 . S
C644 C653 1.390 . S
C645 C644 1.387 . S
C645 C647 1.387 . S
H646 C653 0.950 . S
C647 C645 1.387 . S
C647 C649 1.390 . S
C647 H651 0.950 . S
H648 C644 0.950 . S
C649 C647 1.390 . S
C649 C650 1.387 . S
C649 H652 0.950 . S
C650 C649 1.387 . S
C650 C653 1.387 . S
H651 C647 0.950 . S
H652 C649 0.950 . S
C653 C644 1.390 . S
C653 H646 0.950 . S
C653 C650 1.387 . S
C654 C655 1.384 1_545 S
C654 H658 0.950 . S
C654 C663 1.390 . S
C655 C654 1.384 1_565 S
C655 C657 1.391 . S
H656 C663 0.950 . S
C657 C655 1.391 . S
C657 C659 1.390 . S
C657 H661 0.950 . S
H658 C654 0.950 . S
C659 C657 1.390 . S
C659 C660 1.387 1_565 S
C659 H662 0.950 . S
C660 C659 1.387 1_545 S
C660 C663 1.387 . S
H661 C657 0.950 . S
H662 C659 0.950 . S
C663 C654 1.390 . S
C663 H656 0.950 . S
C663 C660 1.387 . S
C664 C665 1.387 . S
C664 H668 0.950 . S
C664 C673 1.390 . S
C665 C664 1.387 . S
C665 C667 1.387 . S
H666 C673 0.950 . S
C667 C665 1.387 . S
C667 C669 1.390 . S
C667 H671 0.950 . S
H668 C664 0.950 . S
C669 C667 1.390 . S
C669 C670 1.387 . S
C669 H672 0.950 . S
C670 C669 1.387 . S
C670 C673 1.387 . S
H671 C667 0.950 . S
H672 C669 0.950 . S
C673 C664 1.390 . S
C673 H666 0.950 . S
C673 C670 1.387 . S
C674 C675 1.387 1_565 S
C674 H678 0.950 . S
C674 C683 1.390 . S
C675 C674 1.387 1_545 S
C675 C677 1.387 . S
H676 C683 0.950 . S
C677 C675 1.387 . S
C677 C679 1.390 . S
C677 H681 0.950 . S
H678 C674 0.950 . S
C679 C677 1.390 . S
C679 C680 1.380 1_545 S
C679 H682 0.950 . S
C680 C679 1.380 1_565 S
C680 C683 1.394 . S
H681 C677 0.950 . S
H682 C679 0.950 . S
C683 C674 1.390 . S
C683 H676 0.950 . S
C683 C680 1.394 . S
C684 C685 1.387 . S
C684 H688 0.950 . S
C684 C693 1.390 . S
C685 C684 1.387 . S
C685 C687 1.387 . S
H686 C693 0.950 . S
C687 C685 1.387 . S
C687 C689 1.390 . S
C687 H691 0.950 . S
H688 C684 0.950 . S
C689 C687 1.390 . S
C689 C690 1.387 . S
C689 H692 0.950 . S
C690 C689 1.387 . S
C690 C693 1.387 . S
H691 C687 0.950 . S
H692 C689 0.950 . S
C693 C684 1.390 . S
C693 H686 0.950 . S
C693 C690 1.387 . S
C694 C695 1.391 . S
C694 H698 0.950 . S
C694 C703 1.390 . S
C695 C694 1.391 . S
C695 C697 1.383 1_545 S
H696 C703 0.950 . S
C697 C695 1.383 1_565 S
C697 C699 1.390 . S
C697 H701 0.950 . S
H698 C694 0.950 . S
C699 C697 1.390 . S
C699 C700 1.387 . S
C699 H702 0.950 . S
C700 C699 1.387 . S
C700 C703 1.387 1_565 S
H701 C697 0.950 . S
H702 C699 0.950 . S
C703 C694 1.390 . S
C703 H696 0.950 . S
C703 C700 1.387 1_545 S
C704 C705 1.387 . S
C704 H708 0.950 . S
C704 C713 1.390 . S
C705 C704 1.387 . S
C705 C707 1.387 . S
H706 C713 0.950 . S
C707 C705 1.387 . S
C707 C709 1.390 . S
C707 H711 0.950 . S
H708 C704 0.950 . S
C709 C707 1.390 . S
C709 C710 1.387 . S
C709 H712 0.950 . S
C710 C709 1.387 . S
C710 C713 1.387 . S
H711 C707 0.950 . S
H712 C709 0.950 . S
C713 C704 1.390 . S
C713 H706 0.950 . S
C713 C710 1.387 . S
C714 C715 1.387 . S
C714 H718 0.950 . S
C714 C723 1.390 . S
C715 C714 1.387 . S
C715 C717 1.387 . S
H716 C723 0.950 . S
C717 C715 1.387 . S
C717 C719 1.390 . S
C717 H721 0.950 . S
H718 C714 0.950 . S
C719 C717 1.390 . S
C719 C720 1.387 . S
C719 H722 0.950 . S
C720 C719 1.387 . S
C720 C723 1.387 . S
H721 C717 0.950 . S
H722 C719 0.950 . S
C723 C714 1.390 . S
C723 H716 0.950 . S
C723 C720 1.387 . S
C724 C725 1.387 . S
C724 H728 0.950 . S
C724 C733 1.390 . S
C725 C724 1.387 . S
C725 C727 1.387 . S
H726 C733 0.950 . S
C727 C725 1.387 . S
C727 C729 1.390 . S
C727 H731 0.950 . S
H728 C724 0.950 . S
C729 C727 1.390 . S
C729 C730 1.387 . S
C729 H732 0.950 . S
C730 C729 1.387 . S
C730 C733 1.387 . S
H731 C727 0.950 . S
H732 C729 0.950 . S
C733 C724 1.390 . S
C733 H726 0.950 . S
C733 C730 1.387 . S
C734 C735 1.387 . S
C734 H738 0.950 . S
C734 C743 1.390 . S
C735 C734 1.387 . S
C735 C737 1.387 . S
H736 C743 0.950 . S
C737 C735 1.387 . S
C737 C739 1.390 . S
C737 H741 0.950 . S
H738 C734 0.950 . S
C739 C737 1.390 . S
C739 C740 1.387 . S
C739 H742 0.950 . S
C740 C739 1.387 . S
C740 C743 1.387 . S
H741 C737 0.950 . S
H742 C739 0.950 . S
C743 C734 1.390 . S
C743 H736 0.950 . S
C743 C740 1.387 . S
C744 C745 1.387 . S
C744 H748 0.950 . S
C744 C753 1.390 . S
C745 C744 1.387 . S
C745 C747 1.387 . S
H746 C753 0.950 . S
C747 C745 1.387 . S
C747 C749 1.390 . S
C747 H751 0.950 . S
H748 C744 0.950 . S
C749 C747 1.390 . S
C749 C750 1.387 . S
C749 H752 0.950 . S
C750 C749 1.387 . S
C750 C753 1.387 . S
H751 C747 0.950 . S
H752 C749 0.950 . S
C753 C744 1.390 . S
C753 H746 0.950 . S
C753 C750 1.387 . S
C754 C755 1.387 . S
C754 H758 0.950 . S
C754 C763 1.390 . S
C755 C754 1.387 . S
C755 C757 1.387 . S
H756 C763 0.950 . S
C757 C755 1.387 . S
C757 C759 1.390 . S
C757 H761 0.950 . S
H758 C754 0.950 . S
C759 C757 1.390 . S
C759 C760 1.387 . S
C759 H762 0.950 . S
C760 C759 1.387 . S
C760 C763 1.387 . S
H761 C757 0.950 . S
H762 C759 0.950 . S
C763 C754 1.390 . S
C763 H756 0.950 . S
C763 C760 1.387 . S
C764 C765 1.387 . S
C764 H768 0.950 . S
C764 C773 1.390 . S
C765 C764 1.387 . S
C765 C767 1.387 . S
H766 C773 0.950 . S
C767 C765 1.387 . S
C767 C769 1.390 . S
C767 H771 0.950 . S
H768 C764 0.950 . S
C769 C767 1.390 . S
C769 C770 1.387 . S
C769 H772 0.950 . S
C770 C769 1.387 . S
C770 C773 1.387 . S
H771 C767 0.950 . S
H772 C769 0.950 . S
C773 C764 1.390 . S
C773 H766 0.950 . S
C773 C770 1.387 . S
C774 C775 1.387 . S
C774 H778 0.950 . S
C774 C783 1.390 . S
C775 C774 1.387 . S
C775 C777 1.387 . S
H776 C783 0.950 . S
C777 C775 1.387 . S
C777 C779 1.390 . S
C777 H781 0.950 1_455 S
H778 C774 0.950 . S
C779 C777 1.390 . S
C779 C780 1.387 . S
C779 H782 0.950 . S
C780 C779 1.387 . S
C780 C783 1.387 . S
H781 C777 0.950 1_655 S
H782 C779 0.950 . S
C783 C774 1.390 . S
C783 H776 0.950 . S
C783 C780 1.387 . S
C784 C785 1.387 . S
C784 H788 0.950 . S
C784 C793 1.390 . S
C785 C784 1.387 . S
C785 C787 1.387 . S
H786 C793 0.950 . S
C787 C785 1.387 . S
C787 C789 1.390 . S
C787 H791 0.950 . S
H788 C784 0.950 . S
C789 C787 1.390 . S
C789 C790 1.387 . S
C789 H792 0.950 . S
C790 C789 1.387 . S
C790 C793 1.387 . S
H791 C787 0.950 . S
H792 C789 0.950 . S
C793 C784 1.390 . S
C793 H786 0.950 . S
C793 C790 1.387 . S
C794 C795 1.387 1_545 S
C794 H798 0.950 . S
C794 C803 1.390 . S
C795 C794 1.387 1_565 S
C795 C797 1.387 . S
H796 C803 0.950 . S
C797 C795 1.387 . S
C797 C799 1.390 . S
C797 H801 0.950 . S
H798 C794 0.950 . S
C799 C797 1.390 . S
C799 C800 1.387 . S
C799 H802 0.950 . S
C800 C799 1.387 . S
C800 C803 1.387 1_565 S
H801 C797 0.950 . S
H802 C799 0.950 . S
C803 C794 1.390 . S
C803 H796 0.950 . S
C803 C800 1.387 1_545 S
C804 C805 1.387 . S
C804 H808 0.950 . S
C804 C813 1.390 . S
C805 C804 1.387 . S
C805 C807 1.387 . S
H806 C813 0.950 . S
C807 C805 1.387 . S
C807 C809 1.390 . S
C807 H811 0.950 . S
H808 C804 0.950 . S
C809 C807 1.390 . S
C809 C810 1.387 . S
C809 H812 0.950 . S
C810 C809 1.387 . S
C810 C813 1.387 . S
H811 C807 0.950 . S
H812 C809 0.950 . S
C813 C804 1.390 . S
C813 H806 0.950 . S
C813 C810 1.387 . S
C814 C815 1.387 . S
C814 H818 0.950 . S
C814 C823 1.390 . S
C815 C814 1.387 . S
C815 C817 1.387 1_545 S
H816 C823 0.950 . S
C817 C815 1.387 1_565 S
C817 C819 1.390 . S
C817 H821 0.950 . S
H818 C814 0.950 . S
C819 C817 1.390 . S
C819 C820 1.387 1_565 S
C819 H822 0.950 . S
C820 C819 1.387 1_545 S
C820 C823 1.387 . S
H821 C817 0.950 . S
H822 C819 0.950 . S
C823 C814 1.390 . S
C823 H816 0.950 . S
C823 C820 1.387 . S
C824 C825 1.387 . S
C824 H828 0.950 . S
C824 C833 1.390 . S
C825 C824 1.387 . S
C825 C827 1.387 . S
H826 C833 0.950 . S
C827 C825 1.387 . S
C827 C829 1.390 . S
C827 H831 0.950 . S
H828 C824 0.950 . S
C829 C827 1.390 . S
C829 C830 1.387 . S
C829 H832 0.950 . S
C830 C829 1.387 . S
C830 C833 1.387 . S
H831 C827 0.950 . S
H832 C829 0.950 . S
C833 C824 1.390 . S
C833 H826 0.950 . S
C833 C830 1.387 . S
C834 C835 1.387 1_565 S
C834 H838 0.950 . S
C834 C843 1.390 . S
C835 C834 1.387 1_545 S
C835 C837 1.387 . S
H836 C843 0.950 1_455 S
C837 C835 1.387 . S
C837 C839 1.390 . S
C837 H841 0.950 . S
H838 C834 0.950 . S
C839 C837 1.390 . S
C839 C840 1.387 . S
C839 H842 0.950 . S
C840 C839 1.387 . S
C840 C843 1.387 1_545 S
H841 C837 0.950 . S
H842 C839 0.950 . S
C843 C834 1.390 . S
C843 H836 0.950 1_655 S
C843 C840 1.387 1_565 S
C844 C845 1.387 . S
C844 H848 0.950 . S
C844 C853 1.390 . S
C845 C844 1.387 . S
C845 C847 1.387 . S
H846 C853 0.950 . S
C847 C845 1.387 . S
C847 C849 1.390 . S
C847 H851 0.950 . S
H848 C844 0.950 . S
C849 C847 1.390 . S
C849 C850 1.387 . S
C849 H852 0.950 . S
C850 C849 1.387 . S
C850 C853 1.387 . S
H851 C847 0.950 . S
H852 C849 0.950 . S
C853 C844 1.390 . S
C853 H846 0.950 . S
C853 C850 1.387 . S
C854 C855 1.387 1_545 S
C854 H858 0.950 . S
C854 C863 1.390 . S
C855 C854 1.387 1_565 S
C855 C857 1.387 . S
H856 C863 0.950 . S
C857 C855 1.387 . S
C857 C859 1.390 . S
C857 H861 0.950 . S
H858 C854 0.950 . S
C859 C857 1.390 . S
C859 C860 1.387 . S
C859 H862 0.950 . S
C860 C859 1.387 . S
C860 C863 1.387 1_565 S
H861 C857 0.950 . S
H862 C859 0.950 . S
C863 C854 1.390 . S
C863 H856 0.950 . S
C863 C860 1.387 1_545 S
C864 C865 1.387 1_545 S
C864 H868 0.950 . S
C864 C873 1.390 . S
C865 C864 1.387 1_565 S
C865 C867 1.387 1_554 S
H866 C873 0.950 . S
C867 C865 1.387 1_556 S
C867 C869 1.390 . S
C867 H871 0.950 . S
H868 C864 0.950 . S
C869 C867 1.390 . S
C869 C870 1.387 1_565 S
C869 H872 0.950 . S
C870 C869 1.387 1_545 S
C870 C873 1.387 1_556 S
H871 C867 0.950 . S
H872 C869 0.950 . S
C873 C864 1.390 . S
C873 H866 0.950 . S
C873 C870 1.387 1_554 S
C874 C875 1.387 . S
C874 H878 0.950 . S
C874 C883 1.390 . S
C875 C874 1.387 . S
C875 C877 1.387 . S
H876 C883 0.950 . S
C877 C875 1.387 . S
C877 C879 1.390 . S
C877 H881 0.950 . S
H878 C874 0.950 . S
C879 C877 1.390 . S
C879 C880 1.387 . S
C879 H882 0.950 . S
C880 C879 1.387 . S
C880 C883 1.387 . S
H881 C877 0.950 . S
H882 C879 0.950 . S
C883 C874 1.390 . S
C883 H876 0.950 . S
C883 C880 1.387 . S
C884 C885 1.387 1_565 S
C884 H888 0.950 . S
C884 C893 1.390 1_655 S
C885 C884 1.387 1_545 S
C885 C887 1.387 . S
H886 C893 0.950 . S
C887 C885 1.387 . S
C887 C889 1.390 1_655 S
C887 H891 0.950 . S
H888 C884 0.950 . S
C889 C887 1.390 1_455 S
C889 C890 1.387 1_545 S
C889 H892 0.950 . S
C890 C889 1.387 1_565 S
C890 C893 1.387 . S
H891 C887 0.950 . S
H892 C889 0.950 . S
C893 C884 1.390 1_455 S
C893 H886 0.950 . S
C893 C890 1.387 . S
C894 C895 1.387 . S
C894 H898 0.950 . S
C894 C903 1.390 . S
C895 C894 1.387 . S
C895 C897 1.387 . S
H896 C903 0.950 . S
C897 C895 1.387 . S
C897 C899 1.390 . S
C897 H901 0.950 . S
H898 C894 0.950 . S
C899 C897 1.390 . S
C899 C900 1.387 . S
C899 H902 0.950 . S
C900 C899 1.387 . S
C900 C903 1.387 . S
H901 C897 0.950 . S
H902 C899 0.950 . S
C903 C894 1.390 . S
C903 H896 0.950 . S
C903 C900 1.387 . S
C904 C905 1.387 . S
C904 H908 0.950 . S
C904 C913 1.390 . S
C905 C904 1.387 . S
C905 C907 1.387 . S
H906 C913 0.950 . S
C907 C905 1.387 . S
C907 C909 1.390 . S
C907 H911 0.950 . S
H908 C904 0.950 . S
C909 C907 1.390 . S
C909 C910 1.387 . S
C909 H912 0.950 . S
C910 C909 1.387 . S
C910 C913 1.387 . S
H911 C907 0.950 . S
H912 C909 0.950 . S
C913 C904 1.390 . S
C913 H906 0.950 . S
C913 C910 1.387 . S
C914 C915 1.387 . S
C914 H918 0.950 . S
C914 C923 1.390 . S
C915 C914 1.387 . S
C915 C917 1.387 . S
H916 C923 0.950 . S
C917 C915 1.387 . S
C917 C919 1.390 . S
C917 H921 0.950 . S
H918 C914 0.950 . S
C919 C917 1.390 . S
C919 C920 1.387 . S
C919 H922 0.950 . S
C920 C919 1.387 . S
C920 C923 1.387 . S
H921 C917 0.950 . S
H922 C919 0.950 . S
C923 C914 1.390 . S
C923 H916 0.950 . S
C923 C920 1.387 . S
C924 C925 1.387 . S
C924 H928 0.950 . S
C924 C933 1.390 1_655 S
C925 C924 1.387 . S
C925 C927 1.387 . S
H926 C933 0.950 . S
C927 C925 1.387 . S
C927 C929 1.390 1_655 S
C927 H931 0.950 . S
H928 C924 0.950 . S
C929 C927 1.390 1_455 S
C929 C930 1.387 . S
C929 H932 0.950 . S
C930 C929 1.387 . S
C930 C933 1.387 . S
H931 C927 0.950 . S
H932 C929 0.950 . S
C933 C924 1.390 1_455 S
C933 H926 0.950 . S
C933 C930 1.387 . S
C934 C935 1.387 . S
C934 H938 0.950 . S
C934 C943 1.390 . S
C935 C934 1.387 . S
C935 C937 1.387 1_556 S
H936 C943 0.950 . S
C937 C935 1.387 1_554 S
C937 C939 1.390 . S
C937 H941 0.950 . S
H938 C934 0.950 . S
C939 C937 1.390 . S
C939 C940 1.387 . S
C939 H942 0.950 . S
C940 C939 1.387 . S
C940 C943 1.387 1_554 S
H941 C937 0.950 . S
H942 C939 0.950 . S
C943 C934 1.390 . S
C943 H936 0.950 . S
C943 C940 1.387 1_556 S
C944 C945 1.387 1_554 S
C944 H948 0.950 . S
C944 C953 1.390 . S
C945 C944 1.387 1_556 S
C945 C947 1.387 . S
H946 C953 0.950 . S
C947 C945 1.387 . S
C947 C949 1.390 1_556 S
C947 H951 0.950 . S
H948 C944 0.950 . S
C949 C947 1.390 1_554 S
C949 C950 1.387 . S
C949 H952 0.950 . S
C950 C949 1.387 . S
C950 C953 1.387 . S
H951 C947 0.950 . S
H952 C949 0.950 . S
C953 C944 1.390 . S
C953 H946 0.950 . S
C953 C950 1.387 . S
C954 C955 1.387 1_655 S
C954 H958 0.950 . S
C954 C963 1.390 . S
C955 C954 1.387 1_455 S
C955 C957 1.387 1_455 S
H956 C963 0.950 . S
C957 C955 1.387 1_655 S
C957 C959 1.390 . S
C957 H961 0.950 1_655 S
H958 C954 0.950 . S
C959 C957 1.390 . S
C959 C960 1.387 . S
C959 H962 0.950 . S
C960 C959 1.387 . S
C960 C963 1.387 . S
H961 C957 0.950 1_455 S
H962 C959 0.950 . S
C963 C954 1.390 . S
C963 H956 0.950 . S
C963 C960 1.387 . S
C964 C965 1.387 . S
C964 H968 0.950 . S
C964 C973 1.390 . S
C965 C964 1.387 . S
C965 C967 1.387 . S
H966 C973 0.950 . S
C967 C965 1.387 . S
C967 C969 1.390 . S
C967 H971 0.950 . S
H968 C964 0.950 . S
C969 C967 1.390 . S
C969 C970 1.387 . S
C969 H972 0.950 . S
C970 C969 1.387 . S
C970 C973 1.387 . S
H971 C967 0.950 . S
H972 C969 0.950 . S
C973 C964 1.390 . S
C973 H966 0.950 . S
C973 C970 1.387 . S
C974 C975 1.387 . S
C974 H978 0.950 . S
C974 C983 1.390 . S
C975 C974 1.387 . S
C975 C977 1.387 . S
H976 C983 0.950 . S
C977 C975 1.387 . S
C977 C979 1.390 . S
C977 H981 0.950 . S
H978 C974 0.950 . S
C979 C977 1.390 . S
C979 C980 1.387 . S
C979 H982 0.950 . S
C980 C979 1.387 . S
C980 C983 1.387 . S
H981 C977 0.950 . S
H982 C979 0.950 . S
C983 C974 1.390 . S
C983 H976 0.950 . S
C983 C980 1.387 . S
C984 C985 1.387 . S
C984 H988 0.950 . S
C984 C993 1.390 1_556 S
C985 C984 1.387 . S
C985 C987 1.387 . S
H986 C993 0.950 . S
C987 C985 1.387 . S
C987 C989 1.390 . S
C987 H991 0.950 . S
H988 C984 0.950 . S
C989 C987 1.390 . S
C989 C990 1.387 1_556 S
C989 H992 0.950 . S
C990 C989 1.387 1_554 S
C990 C993 1.387 . S
H991 C987 0.950 . S
H992 C989 0.950 . S
C993 C984 1.390 1_554 S
C993 H986 0.950 . S
C993 C990 1.387 . S
C994 C995 1.387 . S
C994 H998 0.950 . S
C994 C1003 1.390 . S
C995 C994 1.387 . S
C995 C997 1.387 . S
H996 C1003 0.950 . S
C997 C995 1.387 . S
C997 C999 1.390 . S
C997 H1001 0.950 . S
H998 C994 0.950 . S
C999 C997 1.390 . S
C999 C1000 1.387 1_455 S
C999 H1002 0.950 1_455 S
C1000 C999 1.387 1_655 S
C1000 C1003 1.387 1_655 S
H1001 C997 0.950 . S
H1002 C999 0.950 1_655 S
C1003 C994 1.390 . S
C1003 H996 0.950 . S
C1003 C1000 1.387 1_455 S
C1004 C1005 1.387 . S
C1004 H1008 0.950 . S
C1004 C1013 1.390 . S
C1005 C1004 1.387 . S
C1005 C1007 1.387 . S
H1006 C1013 0.950 . S
C1007 C1005 1.387 . S
C1007 C1009 1.390 . S
C1007 H1011 0.950 . S
H1008 C1004 0.950 . S
C1009 C1007 1.390 . S
C1009 C1010 1.387 . S
C1009 H1012 0.950 . S
C1010 C1009 1.387 . S
C1010 C1013 1.387 . S
H1011 C1007 0.950 . S
H1012 C1009 0.950 . S
C1013 C1004 1.390 . S
C1013 H1006 0.950 . S
C1013 C1010 1.387 . S
C1014 C1015 1.387 . S
C1014 H1018 0.950 . S
C1014 C1023 1.390 . S
C1015 C1014 1.387 . S
C1015 C1017 1.387 . S
H1016 C1023 0.950 . S
C1017 C1015 1.387 . S
C1017 C1019 1.390 . S
C1017 H1021 0.950 . S
H1018 C1014 0.950 . S
C1019 C1017 1.390 . S
C1019 C1020 1.387 . S
C1019 H1022 0.950 . S
C1020 C1019 1.387 . S
C1020 C1023 1.387 . S
H1021 C1017 0.950 . S
H1022 C1019 0.950 . S
C1023 C1014 1.390 . S
C1023 H1016 0.950 . S
C1023 C1020 1.387 . S
C1024 C1025 1.387 . S
C1024 H1028 0.950 . S
C1024 C1033 1.390 . S
C1025 C1024 1.387 . S
C1025 C1027 1.387 . S
H1026 C1033 0.950 . S
C1027 C1025 1.387 . S
C1027 C1029 1.390 . S
C1027 H1031 0.950 . S
H1028 C1024 0.950 . S
C1029 C1027 1.390 . S
C1029 C1030 1.387 . S
C1029 H1032 0.950 . S
C1030 C1029 1.387 . S
C1030 C1033 1.387 . S
H1031 C1027 0.950 . S
H1032 C1029 0.950 . S
C1033 C1024 1.390 . S
C1033 H1026 0.950 . S
C1033 C1030 1.387 . S
C1034 C1035 1.387 . S
C1034 H1038 0.950 . S
C1034 C1043 1.390 . S
C1035 C1034 1.387 . S
C1035 C1037 1.387 1_545 S
H1036 C1043 0.950 . S
C1037 C1035 1.387 1_565 S
C1037 C1039 1.390 . S
C1037 H1041 0.950 . S
H1038 C1034 0.950 . S
C1039 C1037 1.390 . S
C1039 C1040 1.387 1_565 S
C1039 H1042 0.950 . S
C1040 C1039 1.387 1_545 S
C1040 C1043 1.387 . S
H1041 C1037 0.950 . S
H1042 C1039 0.950 . S
C1043 C1034 1.390 . S
C1043 H1036 0.950 . S
C1043 C1040 1.387 . S
C1044 C1045 1.387 . S
C1044 H1048 0.950 . S
C1044 C1053 1.390 . S
C1045 C1044 1.387 . S
C1045 C1047 1.407 . S
H1046 C1053 0.950 . S
C1047 C1045 1.407 . S
C1047 C1049 1.379 1_554 S
C1047 H1051 0.942 1_554 S
H1048 C1044 0.950 . S
C1049 C1047 1.379 1_556 S
C1049 C1050 1.387 . S
C1049 H1052 0.950 . S
C1050 C1049 1.387 . S
C1050 C1053 1.387 1_556 S
H1051 C1047 0.942 1_556 S
H1052 C1049 0.950 . S
C1053 C1044 1.390 . S
C1053 H1046 0.950 . S
C1053 C1050 1.387 1_554 S
C1054 C1055 1.387 1_545 S
C1054 H1058 0.950 . S
C1054 C1063 1.390 . S
C1055 C1054 1.387 1_565 S
C1055 C1057 1.387 . S
H1056 C1063 0.946 1_655 S
C1057 C1055 1.387 . S
C1057 C1059 1.390 . S
C1057 H1061 0.950 . S
H1058 C1054 0.950 . S
C1059 C1057 1.390 . S
C1059 C1060 1.387 1_455 S
C1059 H1062 0.955 . S
C1060 C1059 1.387 1_655 S
C1060 C1063 1.387 1_665 S
H1061 C1057 0.950 . S
H1062 C1059 0.955 . S
C1063 C1054 1.390 . S
C1063 H1056 0.946 1_455 S
C1063 C1060 1.387 1_445 S
C1064 C1065 1.387 . S
C1064 H1068 0.950 . S
C1064 C1073 1.390 . S
C1065 C1064 1.387 . S
C1065 C1067 1.387 . S
H1066 C1073 0.950 . S
C1067 C1065 1.387 . S
C1067 C1069 1.390 . S
C1067 H1071 0.950 . S
H1068 C1064 0.950 . S
C1069 C1067 1.390 . S
C1069 C1070 1.387 . S
C1069 H1072 0.950 . S
C1070 C1069 1.387 . S
C1070 C1073 1.387 . S
H1071 C1067 0.950 . S
H1072 C1069 0.950 . S
C1073 C1064 1.390 . S
C1073 H1066 0.950 . S
C1073 C1070 1.387 . S
C1074 C1075 1.387 . S
C1074 H1078 0.950 . S
C1074 C1083 1.390 . S
C1075 C1074 1.387 . S
C1075 C1077 1.387 1_565 S
H1076 C1083 0.950 . S
C1077 C1075 1.387 1_545 S
C1077 C1079 1.390 . S
C1077 H1081 0.950 . S
H1078 C1074 0.950 . S
C1079 C1077 1.390 . S
C1079 C1080 1.387 1_545 S
C1079 H1082 0.950 . S
C1080 C1079 1.387 1_565 S
C1080 C1083 1.387 . S
H1081 C1077 0.950 . S
H1082 C1079 0.950 . S
C1083 C1074 1.390 . S
C1083 H1076 0.950 . S
C1083 C1080 1.387 . S
C1084 C1085 1.387 . S
C1084 H1088 0.950 . S
C1084 C1093 1.390 . S
C1085 C1084 1.387 . S
C1085 C1087 1.387 . S
H1086 C1093 0.950 . S
C1087 C1085 1.387 . S
C1087 C1089 1.390 1_556 S
C1087 H1091 0.950 . S
H1088 C1084 0.950 . S
C1089 C1087 1.390 1_554 S
C1089 C1090 1.387 . S
C1089 H1092 0.950 . S
C1090 C1089 1.387 . S
C1090 C1093 1.387 1_554 S
H1091 C1087 0.950 . S
H1092 C1089 0.950 . S
C1093 C1084 1.390 . S
C1093 H1086 0.950 . S
C1093 C1090 1.387 1_556 S
C1094 C1095 1.387 . S
C1094 H1098 0.950 . S
C1094 C1103 1.390 . S
C1095 C1094 1.387 . S
C1095 C1097 1.387 1_545 S
H1096 C1103 0.950 1_455 S
C1097 C1095 1.387 1_565 S
C1097 C1099 1.390 . S
C1097 H1101 0.950 . S
H1098 C1094 0.950 . S
C1099 C1097 1.390 . S
C1099 C1100 1.387 1_665 S
C1099 H1102 0.950 . S
C1100 C1099 1.387 1_445 S
C1100 C1103 1.387 1_455 S
H1101 C1097 0.950 . S
H1102 C1099 0.950 . S
C1103 C1094 1.390 . S
C1103 H1096 0.950 1_655 S
C1103 C1100 1.387 1_655 S
C545 C334 1.208 . S
C550 C6 1.203 . S
C555 C346 1.269 . S
C560 C40 1.254 . S
C565 C402 1.208 . S
C570 C96 1.204 . S
C575 C300 1.272 . S
C580 C108 1.256 . S
C585 C142 1.207 . S
C590 C470 1.211 . S
C595 C482 1.272 . S
C600 C176 1.258 . S
C605 C516 1.208 . S
C610 C210 1.203 . S
C615 C244 1.254 . S
C620 C414 1.269 . S
C625 C62 1.314 . S
C630 C278 1.300 . S
C635 C74 1.283 1_545 S
C640 C312 1.276 . S
C645 C368 1.299 . S
C650 C130 1.313 . S
C655 C28 1.283 1_565 S
C660 C380 1.276 . S
C665 C198 1.316 . S
C670 C436 1.302 . S
C675 C448 1.276 . S
C680 C232 1.284 1_565 S
C685 C504 1.300 . S
C690 C266 1.313 . S
C695 C164 1.283 1_545 S
C700 C538 1.276 . S
C705 C253 1.290 . S
C710 C3 1.240 . S
C715 C37 1.266 . S
C720 C430 1.316 . S
C725 C69 1.242 . S
C730 C185 1.292 . S
C735 C498 1.315 1_655 S
C740 C105 1.268 . S
C745 C117 1.290 . S
C750 C139 1.240 . S
C755 C287 1.315 . S
C760 C173 1.267 . S
C765 C49 1.290 . S
C770 C207 1.239 . S
C775 C362 1.315 1_455 S
C780 C241 1.267 . S
C785 C275 1.390 . S
C790 C532 1.455 . S
C795 C309 1.266 . S
C800 C151 1.307 1_455 S
C805 C457 1.452 . S
C810 C341 1.391 . S
C815 C219 1.307 . S
C820 C377 1.265 . S
C825 C409 1.388 . S
C830 C389 1.453 . S
C835 C445 1.265 . S
C840 C15 1.308 1_655 S
C845 C477 1.392 . S
C850 C321 1.455 . S
C855 C511 1.264 . S
C860 C90 1.307 . S
C865 C158 0.771 . S
C870 C22 0.771 . S
C875 C56 0.754 . S
C880 C464 0.752 . S
C885 C226 0.772 . S
C890 C83 0.772 . S
C895 C525 0.750 . S
C900 C124 0.750 . S
C905 C328 0.743 . S
C910 C192 0.743 . S
C915 C260 0.754 . S
C920 C396 0.752 . S
C925 C294 0.766 . S
C930 C423 0.766 . S
C935 C355 0.741 1_556 S
C940 C491 0.741 1_554 S
C945 C479 2.531 . S
C950 C17 2.614 . S
C955 C239 2.592 . S
C960 C51 2.664 . S
C965 C85 2.614 . S
C970 C411 2.532 . S
C975 C171 2.590 . S
C980 C119 2.665 . S
C985 C153 2.614 . S
C990 C343 2.531 . S
C995 C187 2.665 . S
C1000 C103 2.590 . S
C1005 C221 2.616 . S
C1010 C273 2.530 . S
C1015 C35 2.590 . S
C1020 C255 2.665 . S
C1025 C289 2.729 . S
C1030 C205 2.671 . S
C1035 C513 2.630 . S
C1040 C323 2.695 1_545 S
C1045 C357 2.730 . S
C1050 C137 2.670 . S
C1055 C391 2.697 1_565 S
C1060 C443 2.629 . S
C1065 C71 2.669 . S
C1070 C425 2.730 . S
C1075 C459 2.697 1_565 S
C1080 C375 2.628 . S
C1085 C493 2.730 . S
C1090 C1 2.670 . S
C1095 C527 2.697 1_545 S
C1100 C307 2.629 . S
