# Generated by pormake.
# Topology wkf, (6)-cn, num edge types: 1
# Building blocks:
#     Node 0, Type 0, BuildingBlock: KUMBUR_clean_sbu_1, # of connection points: 6
#     Node 1, Type 0, BuildingBlock: KUMBUR_clean_sbu_1, # of connection points: 6
#     Node 2, Type 0, BuildingBlock: KUMBUR_clean_sbu_1, # of connection points: 6
#     Node 3, Type 0, BuildingBlock: KUMBUR_clean_sbu_1, # of connection points: 6
#     Node 4, Type 0, BuildingBlock: KUMBUR_clean_sbu_1, # of connection points: 6
#     Node 5, Type 0, BuildingBlock: KUMBUR_clean_sbu_1, # of connection points: 6
#     Node 6, Type 0, BuildingBlock: KUMBUR_clean_sbu_1, # of connection points: 6
#     Node 7, Type 0, BuildingBlock: KUMBUR_clean_sbu_1, # of connection points: 6
#     Node 8, Type 0, BuildingBlock: KUMBUR_clean_sbu_1, # of connection points: 6
#     Node 9, Type 0, BuildingBlock: KUMBUR_clean_sbu_1, # of connection points: 6
#     Node 10, Type 0, BuildingBlock: KUMBUR_clean_sbu_1, # of connection points: 6
#     Node 11, Type 0, BuildingBlock: KUMBUR_clean_sbu_1, # of connection points: 6
#     Edge 12, Type (0, 0), BuildingBlock: XUDNAN_clean_linker_2, # of connection points: 2
#     Edge 13, Type (0, 0), BuildingBlock: XUDNAN_clean_linker_2, # of connection points: 2
#     Edge 14, Type (0, 0), BuildingBlock: XUDNAN_clean_linker_2, # of connection points: 2
#     Edge 15, Type (0, 0), BuildingBlock: XUDNAN_clean_linker_2, # of connection points: 2
#     Edge 16, Type (0, 0), BuildingBlock: XUDNAN_clean_linker_2, # of connection points: 2
#     Edge 17, Type (0, 0), BuildingBlock: XUDNAN_clean_linker_2, # of connection points: 2
#     Edge 18, Type (0, 0), BuildingBlock: XUDNAN_clean_linker_2, # of connection points: 2
#     Edge 19, Type (0, 0), BuildingBlock: XUDNAN_clean_linker_2, # of connection points: 2
#     Edge 20, Type (0, 0), BuildingBlock: XUDNAN_clean_linker_2, # of connection points: 2
#     Edge 21, Type (0, 0), BuildingBlock: XUDNAN_clean_linker_2, # of connection points: 2
#     Edge 22, Type (0, 0), BuildingBlock: XUDNAN_clean_linker_2, # of connection points: 2
#     Edge 23, Type (0, 0), BuildingBlock: XUDNAN_clean_linker_2, # of connection points: 2
#     Edge 24, Type (0, 0), BuildingBlock: XUDNAN_clean_linker_2, # of connection points: 2
#     Edge 25, Type (0, 0), BuildingBlock: XUDNAN_clean_linker_2, # of connection points: 2
#     Edge 26, Type (0, 0), BuildingBlock: XUDNAN_clean_linker_2, # of connection points: 2
#     Edge 27, Type (0, 0), BuildingBlock: XUDNAN_clean_linker_2, # of connection points: 2
#     Edge 28, Type (0, 0), BuildingBlock: XUDNAN_clean_linker_2, # of connection points: 2
#     Edge 29, Type (0, 0), BuildingBlock: XUDNAN_clean_linker_2, # of connection points: 2
#     Edge 30, Type (0, 0), BuildingBlock: XUDNAN_clean_linker_2, # of connection points: 2
#     Edge 31, Type (0, 0), BuildingBlock: XUDNAN_clean_linker_2, # of connection points: 2
#     Edge 32, Type (0, 0), BuildingBlock: XUDNAN_clean_linker_2, # of connection points: 2
#     Edge 33, Type (0, 0), BuildingBlock: XUDNAN_clean_linker_2, # of connection points: 2
#     Edge 34, Type (0, 0), BuildingBlock: XUDNAN_clean_linker_2, # of connection points: 2
#     Edge 35, Type (0, 0), BuildingBlock: XUDNAN_clean_linker_2, # of connection points: 2
#     Edge 36, Type (0, 0), BuildingBlock: XUDNAN_clean_linker_2, # of connection points: 2
#     Edge 37, Type (0, 0), BuildingBlock: XUDNAN_clean_linker_2, # of connection points: 2
#     Edge 38, Type (0, 0), BuildingBlock: XUDNAN_clean_linker_2, # of connection points: 2
#     Edge 39, Type (0, 0), BuildingBlock: XUDNAN_clean_linker_2, # of connection points: 2
#     Edge 40, Type (0, 0), BuildingBlock: XUDNAN_clean_linker_2, # of connection points: 2
#     Edge 41, Type (0, 0), BuildingBlock: XUDNAN_clean_linker_2, # of connection points: 2
#     Edge 42, Type (0, 0), BuildingBlock: XUDNAN_clean_linker_2, # of connection points: 2
#     Edge 43, Type (0, 0), BuildingBlock: XUDNAN_clean_linker_2, # of connection points: 2
#     Edge 44, Type (0, 0), BuildingBlock: XUDNAN_clean_linker_2, # of connection points: 2
#     Edge 45, Type (0, 0), BuildingBlock: XUDNAN_clean_linker_2, # of connection points: 2
#     Edge 46, Type (0, 0), BuildingBlock: XUDNAN_clean_linker_2, # of connection points: 2
#     Edge 47, Type (0, 0), BuildingBlock: XUDNAN_clean_linker_2, # of connection points: 2
# Relax obj value: 0.238
# Max RMSD: 0.285
# Mean RMSD: 0.277
data_MOF--net-wkf--node1-KUMBUR_clean_sbu_1--edge1-XUDNAN_clean_linker_2
_symmetry_space_group_name_H-M    P1
_symmetry_Int_Tables_number       1
_symmetry_cell_setting            triclinic
loop_
_symmetry_equiv_pos_as_xyz
'x, y, z'
_cell_length_a     29.793241
_cell_length_b     29.804976
_cell_length_c     87.58788
_cell_angle_alpha  90.209025
_cell_angle_beta   90.02652
_cell_angle_gamma 119.70279
loop_
_atom_site_label
_atom_site_type_symbol
_atom_site_fract_x
_atom_site_fract_y
_atom_site_fract_z
_atom_type_partial_charge
Tb0 Tb 0.41173 0.9434 0.35381 0.0
C1 C 0.61441 0.96402 0.3694 0.0
N2 N 0.58127 0.95661 0.38096 0.0
C3 C 0.60753 0.90273 0.394 0.0
C4 C 0.64537 0.94038 0.36965 0.0
C5 C 0.57757 0.92682 0.39324 0.0
C6 C 0.64156 0.90948 0.38214 0.0
C7 C 0.65116 1.00312 0.34508 0.0
C8 C 0.61627 0.99438 0.35716 0.0
C9 C 0.68201 0.97962 0.34527 0.0
C10 C 0.67895 0.94815 0.35748 0.0
Tb11 Tb 0.53478 0.99793 0.3791 0.0
N12 N 0.58478 1.01572 0.35717 0.0
C13 C 0.65484 1.03587 0.33324 0.0
C14 C 0.58956 0.04861 0.34554 0.0
C15 C 0.62438 0.05912 0.33358 0.0
H16 H 0.54992 0.92021 0.40216 0.0
H17 H 0.62692 0.0846 0.32443 0.0
H18 H 0.51659 0.93694 0.33861 0.0
H19 H 0.31933 0.04964 0.33563 0.0
H20 H 0.56634 0.06637 0.34466 0.0
H21 H 0.68127 0.04371 0.32382 0.0
H22 H 0.34196 1.00101 0.35405 0.0
H23 H 0.60399 0.87861 0.40365 0.0
H24 H 0.70863 0.98578 0.33603 0.0
H25 H 0.70298 0.93027 0.35745 0.0
H26 H 0.55822 0.9538 0.31401 0.0
H27 H 0.66458 0.89055 0.3827 0.0
H28 H 0.35919 0.06972 0.30997 0.0
N29 N 0.46698 0.96758 0.33312 0.0
C30 C 0.45459 0.99184 0.322 0.0
C31 C 0.52896 0.96455 0.31608 0.0
C32 C 0.47977 1.0041 0.30771 0.0
C33 C 0.50397 0.95414 0.3302 0.0
C34 C 0.51703 0.98978 0.30482 0.0
N35 N 0.39415 0.99457 0.3389 0.0
C36 C 0.35972 1.01017 0.34289 0.0
C37 C 0.405 1.03282 0.31411 0.0
C38 C 0.41691 1.00547 0.32496 0.0
C39 C 0.36925 0.04852 0.318 0.0
C40 C 0.3468 1.03746 0.3325 0.0
H41 H 0.53705 0.9983 0.29398 0.0
H42 H 0.48601 0.03972 0.28569 0.0
H43 H 0.42112 0.06542 0.29138 0.0
O44 O 0.33009 0.90409 0.35471 0.0
O45 O 0.40228 0.98537 0.37391 0.0
O46 O 0.47989 1.0201 0.38757 0.0
O47 O 0.36694 0.89053 0.33605 0.0
O48 O 0.39305 0.90152 0.37617 0.0
O49 O 0.46824 0.93599 0.39098 0.0
O50 O 0.60686 0.05747 0.3874 0.0
O51 O 0.50807 0.91681 0.37176 0.0
O52 O 0.44332 0.88779 0.3535 0.0
O53 O 0.5466 1.00696 0.40273 0.0
O54 O 0.53206 0.06539 0.36859 0.0
O55 O 0.45796 1.03162 0.35348 0.0
C56 C 0.43317 1.01311 0.38544 0.0
C57 C 0.28127 0.87818 0.33106 0.0
C58 C 0.22254 0.8425 0.30843 0.0
C59 C 0.19551 0.86675 0.31389 0.0
C60 C 0.25176 0.90054 0.33594 0.0
C61 C 0.21009 0.89545 0.32737 0.0
C62 C 0.26644 0.8491 0.31705 0.0
C63 C 0.4182 0.90404 0.389 0.0
C64 C 0.32283 0.88073 0.34163 0.0
C65 C 0.46701 1.03015 0.2967 0.0
C66 C 0.4299 0.04463 0.29991 0.0
C67 C 0.47826 0.88201 0.36153 0.0
C68 C 0.6301 0.05643 0.41362 0.0
C69 C 0.69389 0.1219 0.43049 0.0
C70 C 0.69335 0.08306 0.43964 0.0
C71 C 0.62903 1.01765 0.42293 0.0
C72 C 0.66266 0.10806 0.41744 0.0
C73 C 0.66127 1.03108 0.43576 0.0
C74 C 0.50014 0.07211 0.35943 0.0
C75 C 0.59236 0.04642 0.4015 0.0
H76 H 0.16278 0.86375 0.30762 0.0
H77 H 0.26011 0.9215 0.34663 0.0
H78 H 0.18829 0.91337 0.33136 0.0
H79 H 0.28768 0.83045 0.31316 0.0
H80 H 0.71734 0.09287 0.44977 0.0
H81 H 0.60243 0.97737 0.42071 0.0
H82 H 0.66126 0.13775 0.41064 0.0
H83 H 0.66036 1.00114 0.44293 0.0
Tb84 Tb 0.51565 0.41551 0.51811 0.0
C85 C 0.70342 0.59364 0.53499 0.0
N86 N 0.67882 0.56381 0.54722 0.0
C87 C 0.76027 0.5808 0.55785 0.0
C88 C 0.75758 0.61666 0.53343 0.0
C89 C 0.70659 0.55828 0.55884 0.0
C90 C 0.78583 0.60953 0.54499 0.0
C91 C 0.69955 0.63498 0.51175 0.0
C92 C 0.67421 0.60149 0.52414 0.0
C93 C 0.75302 0.65599 0.50977 0.0
C94 C 0.78195 0.64668 0.52056 0.0
Tb95 Tb 0.59053 0.52612 0.54765 0.0
N96 N 0.62202 0.57962 0.52628 0.0
C97 C 0.67108 0.64857 0.5021 0.0
C98 C 0.59566 0.59719 0.51748 0.0
C99 C 0.61929 0.63066 0.50523 0.0
H100 H 0.68715 0.53429 0.56856 0.0
H101 H 0.59743 0.64308 0.49828 0.0
H102 H 0.62681 0.5201 0.50329 0.0
H103 H 0.31605 0.33456 0.50235 0.0
H104 H 0.55706 0.58851 0.51971 0.0
H105 H 0.68915 0.67449 0.49259 0.0
H106 H 0.38885 0.34893 0.51922 0.0
H107 H 0.78178 0.57519 0.56688 0.0
H108 H 0.77264 0.68088 0.50017 0.0
H109 H 0.82336 0.6641 0.51907 0.0
H110 H 0.64908 0.56818 0.47972 0.0
H111 H 0.8274 0.62647 0.54417 0.0
H112 H 0.33344 0.38233 0.47804 0.0
N113 N 0.54548 0.47558 0.49859 0.0
C114 C 0.50775 0.468 0.48826 0.0
C115 C 0.60909 0.54032 0.48204 0.0
C116 C 0.51944 0.49738 0.47474 0.0
C117 C 0.59579 0.51174 0.49555 0.0
C118 C 0.57085 0.53353 0.47168 0.0
N119 N 0.4461 0.40385 0.50447 0.0
C120 C 0.3965 0.36984 0.5086 0.0
C121 C 0.41644 0.42402 0.48134 0.0
C122 C 0.45666 0.43097 0.49127 0.0
C123 C 0.3654 0.38857 0.48535 0.0
C124 C 0.35538 0.36164 0.49909 0.0
H125 H 0.58144 0.55644 0.46136 0.0
H126 H 0.48806 0.51202 0.45422 0.0
H127 H 0.3979 0.44847 0.46014 0.0
O128 O 0.47271 0.33382 0.51748 0.0
O129 O 0.46541 0.40467 0.53877 0.0
O130 O 0.51261 0.47377 0.55569 0.0
O131 O 0.52006 0.37403 0.49868 0.0
O132 O 0.53991 0.38888 0.53863 0.0
O133 O 0.57427 0.45164 0.5579 0.0
O134 O 0.60522 0.59663 0.55794 0.0
O135 O 0.63575 0.48979 0.53944 0.0
O136 O 0.6025 0.44679 0.51669 0.0
O137 O 0.60792 0.53792 0.57096 0.0
O138 O 0.52148 0.52955 0.53847 0.0
O139 O 0.47727 0.46461 0.52041 0.0
C140 C 0.4705 0.4308 0.55178 0.0
C141 C 0.44758 0.28867 0.49317 0.0
C142 C 0.42249 0.23112 0.4702 0.0
C143 C 0.37108 0.20742 0.4752 0.0
C144 C 0.39546 0.26216 0.49766 0.0
C145 C 0.35785 0.22265 0.48872 0.0
C146 C 0.46114 0.27234 0.47928 0.0
C147 C 0.5574 0.40397 0.55277 0.0
C148 C 0.48727 0.32888 0.50388 0.0
C149 C 0.47959 0.48968 0.46462 0.0
C150 C 0.42824 0.45333 0.46795 0.0
C151 C 0.64203 0.47143 0.52637 0.0
C152 C 0.58468 0.59041 0.58455 0.0
C153 C 0.52598 0.61627 0.59579 0.0
C154 C 0.54054 0.60848 0.61042 0.0
C155 C 0.59805 0.58239 0.59925 0.0
C156 C 0.54803 0.60668 0.58283 0.0
C157 C 0.57584 0.59107 0.61209 0.0
C158 C 0.48299 0.50539 0.52833 0.0
C159 C 0.61097 0.58251 0.57145 0.0
H160 H 0.34072 0.17639 0.46859 0.0
H161 H 0.38338 0.27111 0.50834 0.0
H162 H 0.31797 0.20316 0.49242 0.0
H163 H 0.50109 0.29117 0.47566 0.0
H164 H 0.5255 0.61685 0.62063 0.0
H165 H 0.6262 0.56979 0.60082 0.0
H166 H 0.5373 0.61258 0.5715 0.0
H167 H 0.58671 0.58516 0.62338 0.0
Tb168 Tb 0.15124 0.50108 0.69 0.0
C169 C 0.09729 0.66957 0.70082 0.0
N170 N 0.10557 0.64988 0.71371 0.0
C171 C 0.12562 0.72767 0.72736 0.0
C172 C 0.10195 0.71904 0.70071 0.0
C173 C 0.12076 0.67855 0.72687 0.0
C174 C 0.11557 0.7478 0.71427 0.0
C175 C 0.08341 0.6626 0.67354 0.0
C176 C 0.08792 0.64152 0.6875 0.0
C177 C 0.08512 0.71056 0.67344 0.0
C178 C 0.09445 0.73879 0.68702 0.0
Tb179 Tb 0.08962 0.56678 0.71251 0.0
N180 N 0.08826 0.59608 0.68805 0.0
C181 C 0.08003 0.63622 0.66 0.0
C182 C 0.09038 0.57354 0.67464 0.0
C183 C 0.08487 0.59216 0.66055 0.0
H184 H 0.12952 0.66386 0.73701 0.0
H185 H 0.08582 0.57323 0.65008 0.0
H186 H 0.10027 0.48528 0.65472 0.0
H187 H 0.18908 0.37124 0.72394 0.0
H188 H 0.09926 0.54312 0.67448 0.0
H189 H 0.07667 0.65112 0.64905 0.0
H190 H 0.20337 0.45649 0.71584 0.0
H191 H 0.13732 0.75005 0.73783 0.0
H192 H 0.08119 0.727 0.66285 0.0
H193 H 0.09735 0.77648 0.68672 0.0
H194 H 1.0507 0.41222 0.63707 0.0
H195 H 0.11968 0.786 0.71465 0.0
H196 H 0.12527 0.29231 0.71036 0.0
N197 N 0.10125 0.43774 0.67274 0.0
C198 C 0.09042 0.38933 0.67689 0.0
C199 C 0.06113 0.40524 0.64829 0.0
C200 C 0.06105 0.34652 0.66725 0.0
C201 C 0.08925 0.44649 0.65831 0.0
C202 C 1.04565 0.35494 0.65295 0.0
N203 N 0.14571 0.42583 0.69837 0.0
C204 C 0.17506 0.42225 0.7099 0.0
C205 C 0.10402 0.3338 0.69432 0.0
C206 C 0.1123 0.38311 0.69024 0.0
C207 C 0.13079 0.32956 0.70687 0.0
C208 C 0.16704 0.37403 0.71453 0.0
H209 H 1.02347 0.32305 0.64519 0.0
H210 H 1.0271 0.26364 0.66464 0.0
H211 H 0.06423 0.25246 0.68839 0.0
O212 O 0.22019 0.49871 0.68663 0.0
O213 O 0.11294 0.45987 0.71184 0.0
O214 O 1.05301 0.48506 0.71716 0.0
O215 O 0.18693 0.5165 0.66786 0.0
O216 O 0.19871 0.53785 0.7107 0.0
O217 O 0.14784 0.55811 0.72628 0.0
O218 O 1.02636 0.57305 0.72073 0.0
O219 O 0.17218 0.62122 0.7086 0.0
O220 O 0.18651 0.58992 0.68623 0.0
O221 O 0.08075 0.56985 0.73615 0.0
O222 O 1.02472 0.50429 0.69893 0.0
O223 O 0.06289 0.46474 0.68531 0.0
C224 C 0.07167 0.45419 0.71926 0.0
C225 C 0.23127 0.46747 0.6623 0.0
C226 C 0.26725 0.44327 0.63985 0.0
C227 C 0.25343 0.3963 0.64711 0.0
C228 C 0.22078 0.42041 0.66899 0.0
C229 C 0.23057 0.38513 0.66142 0.0
C230 C 0.25496 0.47887 0.64741 0.0
C231 C 0.18739 0.5498 0.72421 0.0
C232 C 0.22211 0.50504 0.67191 0.0
C233 C 1.05025 0.29704 0.6718 0.0
C234 C 0.07144 0.29067 0.68533 0.0
C235 C 0.19854 0.63015 0.69579 0.0
C236 C 0.99289 0.52135 0.74293 0.0
C237 C 0.90066 0.4615 0.74643 0.0
C238 C 0.91254 0.4352 0.75758 0.0
C239 C 1.00379 0.49481 0.7543 0.0
C240 C 0.94113 0.50437 0.73908 0.0
C241 C 0.96376 0.4521 0.76153 0.0
C242 C 1.02058 0.46769 0.68933 0.0
C243 C 1.03529 0.56544 0.73477 0.0
H244 H 0.26096 0.36791 0.64172 0.0
H245 H 0.20637 0.41089 0.68045 0.0
H246 H 0.22144 0.34909 0.66691 0.0
H247 H 0.26529 0.51542 0.64207 0.0
H248 H 0.88223 0.40271 0.76364 0.0
H249 H 1.0432 0.50677 0.7576 0.0
H250 H 0.93227 0.52458 0.73037 0.0
H251 H 0.9723 0.4322 0.77036 0.0
Tb252 Tb 0.70031 0.13323 0.85346 0.0
C253 C 0.48047 0.09374 0.86637 0.0
N254 N 0.5167 0.1093 0.87754 0.0
C255 C 0.48095 0.15695 0.88971 0.0
C256 C 0.44251 0.10898 0.86653 0.0
C257 C 0.51802 0.14127 0.88902 0.0
C258 C 0.44274 0.14039 0.87848 0.0
C259 C 0.44691 0.04955 0.84231 0.0
C260 C 0.48319 0.06471 0.85438 0.0
C261 C 0.40831 0.06355 0.8426 0.0
C262 C 0.40619 0.09329 0.85466 0.0
Tb263 Tb 0.57143 0.07641 0.87653 0.0
N264 N 0.52203 0.05286 0.85429 0.0
C265 C 0.45066 1.02125 0.83015 0.0
C266 C 0.52605 1.02625 0.84204 0.0
C267 C 0.4905 1.00978 0.83001 0.0
H268 H 0.54812 0.15527 0.8976 0.0
H269 H 0.49466 0.98911 0.82042 0.0
H270 H 0.59816 0.13492 0.83488 0.0
H271 H 0.80725 1.03728 0.83976 0.0
H272 H 0.55758 1.01927 0.84066 0.0
H273 H 0.42361 1.00893 0.8207 0.0
H274 H 0.77512 0.08168 0.85683 0.0
H275 H 0.48214 0.18214 0.89882 0.0
H276 H 0.38027 0.05211 0.83343 0.0
H277 H 0.3767 0.1045 0.8546 0.0
H278 H 0.56164 0.1144 0.80947 0.0
H279 H 0.41431 0.15297 0.87897 0.0
H280 H 0.77454 1.01547 0.81324 0.0
N281 N 0.65073 0.10648 0.83154 0.0
C282 C 0.66734 0.0831 0.82129 0.0
C283 C 0.59158 0.10561 0.81262 0.0
C284 C 0.64599 0.06957 0.80646 0.0
C285 C 0.61351 0.1181 0.82722 0.0
C286 C 0.60775 0.0812 0.80221 0.0
N287 N 0.725 0.08432 0.84006 0.0
C288 C 0.76042 0.07168 0.8453 0.0
C289 C 0.72309 0.04697 0.81553 0.0
C290 C 0.70592 0.0722 0.82564 0.0
C291 C 0.76035 1.03481 0.82067 0.0
C292 C 0.77877 0.04686 0.83566 0.0
H293 H 0.59041 0.07144 0.79094 0.0
H294 H 0.6476 1.03466 0.78485 0.0
H295 H 0.71476 1.01458 0.79284 0.0
O296 O 0.78172 0.17486 0.85538 0.0
O297 O 0.70896 0.09647 0.87463 0.0
O298 O 0.62728 0.05688 0.88601 0.0
O299 O 0.74565 0.18821 0.83642 0.0
O300 O 0.71402 0.17602 0.87538 0.0
O301 O 0.63607 0.14123 0.88868 0.0
O302 O 0.50612 1.01043 0.88557 0.0
O303 O 0.58972 0.15239 0.8665 0.0
O304 O 0.66578 0.18551 0.8526 0.0
O305 O 0.55279 0.07619 0.89951 0.0
O306 O 0.57673 1.00975 0.86624 0.0
O307 O 0.65563 0.04508 0.85344 0.0
C308 C 0.67537 0.06674 0.88523 0.0
C309 C 0.83266 0.20374 0.8323 0.0
C310 C 0.89163 0.24114 0.80996 0.0
C311 C 0.91978 0.21808 0.81541 0.0
C312 C 0.86361 0.18323 0.83732 0.0
C313 C 0.90592 0.18963 0.82887 0.0
C314 C 0.84707 0.23297 0.81844 0.0
C315 C 0.68627 0.17408 0.88745 0.0
C316 C 0.78955 0.19903 0.84248 0.0
C317 C 0.6636 0.04516 0.79627 0.0
C318 C 0.70198 1.03386 0.80079 0.0
C319 C 0.62561 0.18901 0.85793 0.0
C320 C 0.52267 0.99588 0.91117 0.0
C321 C 0.48956 0.91284 0.92374 0.0
C322 C 0.53054 0.93459 0.93422 0.0
C323 C 0.56463 1.01697 0.92152 0.0
C324 C 0.48563 0.94352 0.91229 0.0
C325 C 0.56837 0.9864 0.93294 0.0
C326 C 0.61169 1.00399 0.85825 0.0
C327 C 0.51699 1.02835 0.89944 0.0
H328 H 0.95277 0.22164 0.80918 0.0
H329 H 0.85575 0.16259 0.848 0.0
H330 H 0.92867 0.17283 0.83289 0.0
H331 H 0.82475 0.25044 0.81457 0.0
H332 H 0.5338 0.91121 0.94312 0.0
H333 H 0.59449 0.05714 0.9209 0.0
H334 H 0.45327 0.92671 0.90439 0.0
H335 H 0.60059 1.00297 0.94085 0.0
Tb336 Tb 0.59091 0.65666 0.01778 0.0
C337 C 0.40672 0.47977 0.03894 0.0
N338 N 0.43375 0.5138 0.0502 0.0
C339 C 0.3549 0.50309 0.061 0.0
C340 C 0.35251 0.45734 0.03793 0.0
C341 C 0.40859 0.52454 0.06148 0.0
C342 C 0.32678 0.46991 0.04904 0.0
C343 C 0.40601 0.42861 0.01744 0.0
C344 C 0.43358 0.46681 0.02866 0.0
C345 C 0.3524 0.408 0.01586 0.0
C346 C 0.32571 0.42256 0.02605 0.0
Tb347 Tb 0.52189 0.55244 0.04923 0.0
N348 N 0.48582 0.48837 0.03042 0.0
C349 C 0.43249 0.41018 1.00866 0.0
C350 C 0.51027 0.46619 0.02274 0.0
C351 C 0.48444 0.42796 1.01165 0.0
H352 H 0.43018 0.55178 0.07045 0.0
H353 H 0.50474 0.41191 1.00548 0.0
H354 H 0.48687 0.54038 1.00595 0.0
H355 H 0.79241 0.74546 1.00221 0.0
H356 H 0.54913 0.47531 0.02504 0.0
H357 H 0.4127 0.38058 1.00005 0.0
H358 H 0.7186 0.7305 0.0186 0.0
H359 H 0.33536 0.51281 0.06971 0.0
H360 H 0.33097 0.37947 1.00711 0.0
H361 H 0.28419 0.40549 0.02493 0.0
H362 H 0.46736 0.48336 0.98417 0.0
H363 H 0.28522 0.45366 0.04861 0.0
H364 H 0.77753 0.69253 0.97895 0.0
N365 N 0.5666 0.58972 1.00031 0.0
C366 C 0.60461 0.59726 0.99011 0.0
C367 C 0.50628 0.51504 0.98581 0.0
C368 C 0.59478 0.56345 0.97764 0.0
C369 C 0.51787 0.54859 0.99825 0.0
C370 C 0.54482 0.52223 0.97553 0.0
N371 N 0.66272 0.67041 1.00452 0.0
C372 C 0.7119 0.70719 1.00845 0.0
C373 C 0.69495 0.64658 0.98252 0.0
C374 C 0.65407 0.63926 0.99218 0.0
C375 C 0.74505 0.68595 0.98604 0.0
C376 C 0.75364 0.71581 0.9992 0.0
H377 H 0.53558 0.49574 0.966 0.0
H378 H 0.62788 0.54643 0.95792 0.0
H379 H 0.71571 0.61853 0.9624 0.0
O380 O 0.63722 0.73331 1.00898 0.0
O381 O 0.63956 0.67927 0.03929 0.0
O382 O 0.60321 0.60445 0.05434 0.0
O383 O 0.55949 0.68844 1.00241 0.0
O384 O 0.5736 0.68949 0.03872 0.0
O385 O 0.53474 0.62737 0.05791 0.0
O386 O 0.51092 0.48767 0.06205 0.0
O387 O 0.47499 0.58616 0.03996 0.0
O388 O 0.50344 0.6174 0.01593 0.0
O389 O 0.51336 0.55262 0.07296 0.0
O390 O 0.58916 0.54716 0.0392 0.0
O391 O 0.63114 0.60926 0.02059 0.0
C392 C 0.64068 0.65123 0.0511 0.0
C393 C 0.61523 0.74442 0.98314 0.0
C394 C 0.63905 0.80241 0.9604 0.0
C395 C 0.63769 0.76193 0.95166 0.0
C396 C 0.60868 0.70464 0.97323 0.0
C397 C 0.62166 0.71363 0.95791 0.0
C398 C 0.62952 0.7938 0.97654 0.0
C399 C 0.55333 0.67487 0.05266 0.0
C400 C 0.60203 0.73107 0.99981 0.0
C401 C 0.63494 0.572 0.96757 0.0
C402 C 0.68491 0.61327 0.97004 0.0
C403 C 0.46554 0.59715 0.02614 0.0
C404 C 0.55667 0.5159 0.08553 0.0
C405 C 0.60795 0.48022 0.09613 0.0
C406 C 0.63833 0.52639 0.10418 0.0
C407 C 0.58706 0.56177 0.09389 0.0
C408 C 0.56725 0.47531 0.08683 0.0
C409 C 0.62747 0.56673 0.10316 0.0
C410 C 0.62617 0.56923 0.02861 0.0
C411 C 0.5156 0.51099 0.07499 0.0
H412 H 0.64807 0.76689 0.9397 0.0
H413 H 0.59202 0.66575 0.97724 0.0
H414 H 0.61817 0.68242 0.95072 0.0
H415 H 0.63139 0.82422 0.98376 0.0
H416 H 0.66985 0.53095 0.11141 0.0
H417 H 0.58009 0.59409 0.0932 0.0
H418 H 0.54439 0.44011 0.08033 0.0
H419 H 0.65051 0.60203 0.10955 0.0
Tb420 Tb 0.96409 0.58108 0.18649 0.0
C421 C 0.9857 0.40124 0.20483 0.0
N422 N 0.97174 0.42248 0.21622 0.0
C423 C 0.92836 0.34037 0.22891 0.0
C424 C 0.97274 0.34885 0.20516 0.0
C425 C 0.94197 0.39244 0.228 0.0
C426 C 0.94456 0.31864 0.21756 0.0
C427 C 1.01832 0.40881 0.17921 0.0
C428 C 1.00826 0.43089 0.19215 0.0
C429 C 1.00917 0.35786 0.17984 0.0
C430 C 0.98627 0.32783 0.19281 0.0
Tb431 Tb 1.00261 0.50981 0.21514 0.0
N432 N 1.01407 0.47906 0.19185 0.0
C433 C 1.03387 0.43728 0.16573 0.0
C434 C 1.02295 0.50362 0.17814 0.0
C435 C 1.03461 0.48429 0.16507 0.0
H436 H 0.92821 0.40829 0.23674 0.0
H437 H 1.0425 0.50488 0.15437 0.0
H438 H 1.03854 0.58695 0.15648 0.0
H439 H 0.91205 0.71892 0.20862 0.0
H440 H 1.01789 0.53616 0.17693 0.0
H441 H 1.04178 0.42177 0.15552 0.0
H442 H 0.90294 0.63245 0.20579 0.0
H443 H 0.90518 0.317 0.23834 0.0
H444 H 1.01727 0.34055 0.17009 0.0
H445 H 0.97726 0.28787 0.19292 0.0
H446 H 0.09928 0.65448 0.13907 0.0
H447 H 0.93361 0.27819 0.21822 0.0
H448 H 0.9782 0.79233 0.19379 0.0
N449 N 1.02415 0.6385 0.16981 0.0
C450 C 1.03075 0.68711 0.17092 0.0
C451 C 0.08078 0.66426 0.14809 0.0
C452 C 0.06536 0.72686 0.16118 0.0
C453 C 1.04654 0.62612 0.15805 0.0
C454 C 0.09089 0.71498 0.14981 0.0
N455 N 0.96435 0.65696 0.18971 0.0
C456 C 0.93218 0.66423 0.1993 0.0
C457 C 1.00661 0.74658 0.18248 0.0
C458 C 1.00079 0.69675 0.18131 0.0
C459 C 0.97473 0.75455 0.19257 0.0
C460 C 0.93721 0.71316 0.20094 0.0
H461 H 0.11748 0.74443 0.14207 0.0
H462 H 0.09916 0.80785 0.15543 0.0
H463 H 1.04834 0.82523 0.17418 0.0
O464 O 0.9103 0.59656 0.17457 0.0
O465 O 0.99552 0.62666 0.20838 0.0
O466 O 1.03948 0.59112 0.22085 0.0
O467 O 0.93147 0.54261 0.16574 0.0
O468 O 0.90788 0.55199 0.20562 0.0
O469 O 0.9447 0.52799 0.22521 0.0
O470 O 0.05966 0.50047 0.22703 0.0
O471 O 0.92141 0.46174 0.2085 0.0
O472 O 0.92376 0.49102 0.18434 0.0
O473 O 0.99476 0.49696 0.23855 0.0
O474 O 0.07597 0.56996 0.20375 0.0
O475 O 1.05276 0.61602 0.18716 0.0
C476 C 1.02833 0.62804 0.219 0.0
C477 C 0.90716 0.58592 0.14678 0.0
C478 C 0.87164 0.61262 0.12472 0.0
C479 C 0.9129 0.61649 0.11589 0.0
C480 C 0.94378 0.586 0.13667 0.0
C481 C 0.94771 0.60271 0.1217 0.0
C482 C 0.87003 0.59876 0.14058 0.0
C483 C 0.90988 0.5398 0.22011 0.0
C484 C 0.9057 0.56691 0.16303 0.0
C485 C 0.07222 0.77678 0.16269 0.0
C486 C 1.04317 0.78666 0.17335 0.0
C487 C 0.90229 0.45237 0.19461 0.0
C488 C 0.06975 0.52904 0.25323 0.0
C489 C 0.15249 0.5818 0.26604 0.0
C490 C 0.12627 0.58246 0.27928 0.0
C491 C 1.0444 0.52983 0.26671 0.0
C492 C 0.12407 0.55547 0.25293 0.0
C493 C 0.07252 0.55643 0.27959 0.0
C494 C 0.08925 0.60894 0.19392 0.0
C495 C 1.03813 0.49749 0.2402 0.0
H496 H 0.91823 0.62965 0.10419 0.0
H497 H 0.96924 0.5719 0.14012 0.0
H498 H 0.97757 0.60393 0.11439 0.0
H499 H 0.83943 0.5962 0.14783 0.0
H500 H 0.14746 0.60228 0.28949 0.0
H501 H 1.0026 0.50919 0.26739 0.0
H502 H 0.14412 0.55365 0.24283 0.0
H503 H 1.05255 0.55657 0.2899 0.0
Tb504 Tb 0.14126 0.67099 0.50773 0.0
C505 C 0.12474 0.46493 0.48675 0.0
N506 N 0.13632 0.50201 0.47619 0.0
C507 C 0.18349 0.47061 0.46166 0.0
C508 C 0.1412 0.42822 0.48506 0.0
C509 C 0.16645 0.50623 0.4639 0.0
C510 C 0.17023 0.43096 0.47219 0.0
C511 C 0.09041 0.43092 0.51167 0.0
C512 C 0.09982 0.46652 0.49981 0.0
C513 C 0.10435 0.39259 0.50979 0.0
C514 C 0.1298 0.39129 0.4965 0.0
Tb515 Tb 0.10312 0.55569 0.47975 0.0
N516 N 0.08861 0.5054 0.50135 0.0
C517 C 0.06913 0.43611 0.5253 0.0
C518 C 0.0715 0.51237 0.51513 0.0
C519 C 0.06036 0.47753 0.5271 0.0
H520 H 0.17766 0.53724 0.45582 0.0
H521 H 1.04585 0.48326 0.53783 0.0
H522 H 0.16206 0.59744 0.5339 0.0
H523 H 1.00733 0.74356 0.50746 0.0
H524 H 0.06726 0.54505 0.51728 0.0
H525 H 0.06125 0.40963 0.53468 0.0
H526 H 0.07366 0.72659 0.4965 0.0
H527 H 0.20704 0.47391 0.45186 0.0
H528 H 0.09708 0.36479 0.51873 0.0
H529 H 0.14181 0.36255 0.49539 0.0
H530 H 0.132 0.56493 0.55937 0.0
H531 H 0.18384 0.40366 0.47051 0.0
H532 H 0.97556 0.71509 0.53369 0.0
N533 N 0.11362 0.63137 0.5311 0.0
C534 C 0.07967 0.64263 0.53834 0.0
C535 C 0.11669 0.58643 0.55353 0.0
C536 C 0.06159 0.6243 0.55319 0.0
C537 C 0.1335 0.60509 0.5388 0.0
C538 C 0.08039 0.59572 0.56071 0.0
N539 N 0.07815 0.68703 0.51616 0.0
C540 C 0.0594 0.71293 0.50784 0.0
C541 C 1.02414 0.68104 0.53742 0.0
C542 C 0.06172 0.67166 0.53071 0.0
C543 C 1.00456 0.70726 0.52893 0.0
C544 C 1.02216 0.72313 0.51407 0.0
H545 H 0.06745 0.581 0.57211 0.0
H546 H 1.01091 0.62093 0.57145 0.0
H547 H 0.97765 0.66991 0.55756 0.0
O548 O 0.17378 0.75214 0.50911 0.0
O549 O 0.11617 0.68355 0.48456 0.0
O550 O 0.06476 0.60022 0.47553 0.0
O551 O 0.1964 0.71387 0.5251 0.0
O552 O 0.19475 0.69399 0.488 0.0
O553 O 0.16636 0.62773 0.46995 0.0
O554 O 1.05056 0.48994 0.46717 0.0
O555 O 0.18118 0.58024 0.48906 0.0
O556 O 0.18842 0.63027 0.5102 0.0
O557 O 0.10799 0.55845 0.45596 0.0
O558 O 1.02895 0.54341 0.49113 0.0
O559 O 1.0547 0.61433 0.50722 0.0
C560 C 0.08155 0.64976 0.47475 0.0
C561 C 0.19782 0.79106 0.53415 0.0
C562 C 0.2344 0.84696 0.55724 0.0
C563 C 0.19402 0.85842 0.55632 0.0
C564 C 0.15926 0.80511 0.53374 0.0
C565 C 0.15708 0.83773 0.54476 0.0
C566 C 0.23556 0.81213 0.54613 0.0
C567 C 0.19796 0.67568 0.47444 0.0
C568 C 0.20015 0.7577 0.52149 0.0
C569 C 1.02519 0.63483 0.56007 0.0
C570 C 1.00638 0.66291 0.55219 0.0
C571 C 0.20341 0.60158 0.50218 0.0
C572 C 1.02749 0.51511 0.44395 0.0
C573 C 0.93783 0.48054 0.43628 0.0
C574 C 0.95361 0.51577 0.42415 0.0
C575 C 1.04283 0.5503 0.43176 0.0
C576 C 0.97493 0.4807 0.44616 0.0
C577 C 1.00598 0.55067 0.42198 0.0
C578 C 1.01739 0.57062 0.50107 0.0
C579 C 0.06633 0.5142 0.4542 0.0
H580 H 0.19057 0.88336 0.56469 0.0
H581 H 0.13085 0.79163 0.52472 0.0
H582 H 0.12665 0.84753 0.54424 0.0
H583 H 0.26621 0.80261 0.54656 0.0
H584 H 0.92553 0.5156 0.41625 0.0
H585 H 0.08331 0.57738 0.42973 0.0
H586 H 0.9629 0.45223 0.45517 0.0
H587 H 1.01813 0.5776 0.41258 0.0
Tb588 Tb 0.51339 0.14209 0.67073 0.0
C589 C 0.68518 0.09866 0.66027 0.0
N590 N 0.66367 0.10526 0.64743 0.0
C591 C 0.74581 0.14149 0.63467 0.0
C592 C 0.73763 0.11153 0.66061 0.0
C593 C 0.69389 0.1286 0.6349 0.0
C594 C 0.76755 0.13201 0.64748 0.0
C595 C 0.67899 0.08201 0.68744 0.0
C596 C 0.65608 0.0843 0.67352 0.0
C597 C 0.72995 0.09109 0.68759 0.0
C598 C 0.75926 0.10595 0.6742 0.0
Tb599 Tb 0.57652 0.07668 0.64871 0.0
N600 N 0.60745 0.07781 0.67307 0.0
C601 C 0.65107 0.07334 0.70094 0.0
C602 C 0.58236 0.07369 0.68649 0.0
C603 C 0.603 0.07033 0.70049 0.0
H604 H 0.67795 0.13754 0.62503 0.0
H605 H 0.58205 0.06626 0.71096 0.0
H606 H 0.38695 0.06177 0.67415 0.0
H607 H 0.61465 0.34989 0.66549 0.0
H608 H 0.54714 0.07421 0.68677 0.0
H609 H 0.66731 0.07146 0.71184 0.0
H610 H 0.60471 0.26501 0.67226 0.0
H611 H 0.76913 0.15917 0.62465 0.0
H612 H 0.74778 0.08889 0.69814 0.0
H613 H 0.79924 0.11499 0.67462 0.0
H614 H 0.30605 0.0596 0.66656 0.0
H615 H 0.80798 0.14256 0.64733 0.0
H616 H 0.54089 0.35509 0.65447 0.0
N617 N 0.43568 0.13706 0.66524 0.0
C618 C 0.43797 0.18019 0.65931 0.0
C619 C 0.34293 0.09362 0.66432 0.0
C620 C 0.39273 0.18141 0.65534 0.0
C621 C 0.38885 0.09491 0.66854 0.0
C622 C 0.34489 0.13678 0.65746 0.0
N623 N 0.52724 0.22235 0.66411 0.0
C624 C 0.5726 0.26682 0.6672 0.0
C625 C 0.48902 0.27242 0.65523 0.0
C626 C 0.48543 0.22485 0.65903 0.0
C627 C 0.53653 0.31773 0.65722 0.0
C628 C 0.57826 0.31496 0.66346 0.0
H629 H 0.30921 0.13605 0.65449 0.0
H630 H 0.3623 0.22949 0.64701 0.0
H631 H 0.44663 0.30946 0.64714 0.0
O632 O 0.48258 0.17142 0.68737 0.0
O633 O 0.45908 0.07693 0.65522 0.0
O634 O 0.51156 0.07387 0.63659 0.0
O635 O 0.53439 0.14479 0.6941 0.0
O636 O 0.55096 0.18594 0.64941 0.0
O637 O 0.56747 0.13233 0.63389 0.0
O638 O 0.55315 0.99818 0.64403 0.0
O639 O 0.63409 0.15851 0.653 0.0
O640 O 0.60198 0.17916 0.67417 0.0
O641 O 0.59865 0.05692 0.62819 0.0
O642 O 0.51196 1.01499 0.66264 0.0
O643 O 0.46972 0.05363 0.67468 0.0
C644 C 0.46568 0.06127 0.64161 0.0
C645 C 0.48725 0.1603 0.71453 0.0
C646 C 0.46408 0.19485 0.73743 0.0
C647 C 0.45741 0.15128 0.74551 0.0
C648 C 0.47961 0.11763 0.72317 0.0
C649 C 0.4647 0.1132 0.73845 0.0
C650 C 0.47869 0.19877 0.72171 0.0
C651 C 0.56247 0.17397 0.63594 0.0
C652 C 0.50848 0.16731 0.69858 0.0
C653 C 0.39655 0.22786 0.65027 0.0
C654 C 0.44458 0.27341 0.65035 0.0
C655 C 0.64193 0.18864 0.66497 0.0
C656 C 0.53208 0.98043 0.6178 0.0
C657 C 0.47609 0.90113 0.60385 0.0
C658 C 0.46306 0.92889 0.59362 0.0
C659 C 0.5178 1.00764 0.60756 0.0
C660 C 0.51036 0.92689 0.61599 0.0
C661 C 0.48355 0.98192 0.59558 0.0
C662 C 0.47307 1.01101 0.67112 0.0
C663 C 0.57006 1.00796 0.63011 0.0
H664 H 0.44562 0.14608 0.75737 0.0
H665 H 0.48583 0.08787 0.71815 0.0
H666 H 0.45905 0.07999 0.74496 0.0
H667 H 0.48483 0.23223 0.71524 0.0
H668 H 0.43728 0.90955 0.58411 0.0
H669 H 0.53345 0.04893 0.60867 0.0
H670 H 0.52137 0.90556 0.62369 0.0
H671 H 0.47337 1.00328 0.5877 0.0
Tb672 Tb 0.43637 0.49854 0.84013 0.0
C673 C 0.63636 0.66525 0.80399 0.0
N674 N 0.58799 0.63895 0.79819 0.0
C675 C 0.60584 0.70962 0.78155 0.0
C676 C 0.67207 0.71492 0.7986 0.0
C677 C 0.57184 0.6606 0.78732 0.0
C678 C 0.65642 0.73672 0.7871 0.0
C679 C 0.69751 0.67172 0.82318 0.0
C680 C 0.64849 0.64379 0.81611 0.0
C681 C 0.73419 0.72019 0.81745 0.0
C682 C 0.72146 0.74181 0.80519 0.0
Tb683 Tb 0.53631 0.5572 0.8067 0.0
N684 N 0.61124 0.59728 0.82154 0.0
C685 C 0.70777 0.65102 0.83609 0.0
C686 C 0.62094 0.5788 0.83472 0.0
C687 C 0.66904 0.60472 0.84199 0.0
H688 H 0.53266 0.63997 0.78304 0.0
H689 H 0.67586 0.58918 0.85233 0.0
H690 H 0.55234 0.60542 0.85043 0.0
H691 H 0.35235 0.30059 0.85874 0.0
H692 H 0.59212 0.54494 0.84026 0.0
H693 H 0.74481 0.67126 0.84186 0.0
H694 H 0.3653 0.37067 0.84108 0.0
H695 H 0.59301 0.72647 0.77286 0.0
H696 H 0.77204 0.74189 0.82268 0.0
H697 H 0.74959 0.77983 0.80115 0.0
H698 H 0.61127 0.63017 0.87184 0.0
H699 H 0.68263 0.77484 0.78269 0.0
H700 H 0.40578 0.32095 0.88209 0.0
N701 N 0.50339 0.52755 0.85764 0.0
C702 C 0.49668 0.49194 0.86855 0.0
C703 C 0.57893 0.5912 0.87112 0.0
C704 C 0.53119 0.50474 0.88098 0.0
C705 C 0.54411 0.57682 0.85892 0.0
C706 C 0.57239 0.55517 0.88221 0.0
N707 N 0.42463 0.42991 0.85457 0.0
C708 C 0.38878 0.37976 0.85127 0.0
C709 C 0.44984 0.40289 0.87734 0.0
C710 C 0.45574 0.44164 0.86704 0.0
C711 C 0.41142 0.35182 0.87445 0.0
C712 C 0.38128 0.34012 0.86125 0.0
H713 H 0.59973 0.56651 0.89157 0.0
H714 H 0.55002 0.47609 0.90131 0.0
H715 H 0.47939 0.3868 0.89797 0.0
O716 O 0.3606 0.45269 0.84956 0.0
O717 O 0.41003 0.44576 0.81952 0.0
O718 O 0.48466 0.47462 0.80484 0.0
O719 O 0.40431 0.53193 0.85471 0.0
O720 O 0.40056 0.50581 0.8187 0.0
O721 O 0.46589 0.56228 0.80244 0.0
O722 O 0.58704 0.55574 0.79003 0.0
O723 O 0.52974 0.61861 0.81894 0.0
O724 O 0.47259 0.58669 0.83928 0.0
O725 O 0.51392 0.54829 0.7838 0.0
O726 O 0.54605 0.49607 0.81877 0.0
O727 O 0.48513 0.45919 0.83818 0.0
C728 C 0.43728 0.43981 0.80833 0.0
C729 C 0.34952 0.47928 0.87476 0.0
C730 C 0.28918 0.45329 0.89685 0.0
C731 C 0.33142 0.46706 0.90661 0.0
C732 C 0.39026 0.49416 0.88522 0.0
C733 C 0.38126 0.48736 0.90086 0.0
C734 C 0.29829 0.45915 0.88073 0.0
C735 C 0.41674 0.53513 0.80631 0.0
C736 C 0.36251 0.48931 0.85798 0.0
C737 C 0.52393 0.46676 0.8917 0.0
C738 C 0.48354 0.41594 0.88984 0.0
C739 C 0.50621 0.62624 0.83065 0.0
C740 C 0.54182 0.50115 0.76877 0.0
C741 C 0.57055 0.44939 0.75446 0.0
C742 C 0.52099 0.42061 0.74806 0.0
C743 C 0.49259 0.47223 0.76202 0.0
C744 C 0.5805 0.48937 0.76491 0.0
C745 C 0.48244 0.43231 0.75177 0.0
C746 C 0.52441 0.46201 0.83011 0.0
C747 C 0.55359 0.54523 0.77907 0.0
H748 H 0.3259 0.46298 0.91886 0.0
H749 H 0.42971 0.51258 0.88136 0.0
H750 H 0.41344 0.49886 0.90863 0.0
H751 H 0.26623 0.44886 0.873 0.0
H752 H 0.51238 0.38989 0.73993 0.0
H753 H 0.46188 0.48059 0.76454 0.0
H754 H 0.6185 0.51149 0.77003 0.0
H755 H 0.44458 0.41055 0.74659 0.0
Tb756 Tb 0.96997 0.40564 1.00486 0.0
C757 C 0.98646 0.61397 0.99029 0.0
N758 N 0.97144 0.57863 0.97892 0.0
C759 C 0.92609 0.61674 0.96678 0.0
C760 C 0.97295 0.65311 0.99024 0.0
C761 C 0.94 0.57832 0.96748 0.0
C762 C 0.94349 0.65494 0.97807 0.0
C763 C 1.02229 0.63964 0.01561 0.0
C764 C 1.01112 0.60751 1.00263 0.0
C765 C 1.01195 0.6808 0.01533 0.0
C766 C 0.98732 0.68757 1.00263 0.0
Tb767 Tb 1.00494 0.52419 0.97917 0.0
N768 N 1.01859 0.56607 1.00256 0.0
C769 C 1.04057 0.62757 0.02876 0.0
C770 C 1.03086 0.55145 0.01594 0.0
C771 C 1.04348 0.58237 0.02904 0.0
H772 H 0.92586 0.54866 0.95876 0.0
H773 H 1.05419 0.57056 0.03946 0.0
H774 H 1.02728 0.4704 0.03717 0.0
H775 H 0.95991 0.23303 0.98093 0.0
H776 H 1.02866 0.51506 0.01684 0.0
H777 H 1.04947 0.65105 0.03899 0.0
H778 H 0.93076 0.29692 0.98475 0.0
H779 H 0.90183 0.61674 0.95758 0.0
H780 H 1.02083 0.70621 0.02511 0.0
H781 H 0.9777 0.71818 1.00277 0.0
H782 H 0.09901 0.4809 0.05376 0.0
H783 H 0.93225 0.68437 0.9776 0.0
H784 H 1.03659 0.24284 0.99482 0.0
N785 N 1.03447 0.41879 0.02171 0.0
C786 C 1.05428 0.38647 0.01968 0.0
C787 C 0.08746 0.45502 0.04404 0.0
C788 C 0.09456 0.39047 0.02906 0.0
C789 C 1.04744 0.44967 0.03448 0.0
C790 C 0.11211 0.42642 0.04105 0.0
N791 N 0.99034 0.34208 1.00072 0.0
C792 C 0.96401 0.30109 0.99098 0.0
C793 C 1.04973 0.31191 1.00688 0.0
C794 C 1.03169 0.34728 1.00879 0.0
C795 C 1.02391 0.27083 0.99659 0.0
C796 C 0.98046 0.26501 0.98877 0.0
H797 H 0.14295 0.43058 0.04852 0.0
H798 H 0.14575 0.35986 0.03359 0.0
H799 H 0.10672 0.29131 0.01413 0.0
O800 O 0.91521 0.32958 1.01202 0.0
O801 O 0.99704 0.39839 0.98136 0.0
O802 O 1.04431 0.48242 0.97252 0.0
O803 O 0.9326 0.39402 0.02628 0.0
O804 O 0.91356 0.38418 0.98595 0.0
O805 O 0.945 0.45132 0.9682 0.0
O806 O 0.05758 0.59388 0.96806 0.0
O807 O 0.92552 0.49212 0.98814 0.0
O808 O 0.93313 0.45596 1.01039 0.0
O809 O 0.99673 0.53032 0.95575 0.0
O810 O 0.08028 0.53636 0.98965 0.0
O811 O 0.05604 0.46435 1.00498 0.0
C812 C 1.03183 0.43361 0.97197 0.0
C813 C 0.90558 0.31313 0.03911 0.0
C814 C 0.85977 0.24899 0.05966 0.0
C815 C 0.90794 0.26182 0.066 0.0
C816 C 0.95224 0.32374 0.04606 0.0
C817 C 0.95351 0.29852 0.05923 0.0
C818 C 0.85859 0.27456 0.04598 0.0
C819 C 0.91212 0.40324 0.9724 0.0
C820 C 0.90664 0.34371 0.02524 0.0
C821 C 0.11431 0.35693 0.02664 0.0
C822 C 0.09198 0.31779 0.01557 0.0
C823 C 0.90926 0.47599 1.00208 0.0
C824 C 0.0665 0.58849 0.94084 0.0
C825 C 0.14849 0.62724 0.92716 0.0
C826 C 0.12116 0.61747 0.91328 0.0
C827 C 1.04026 0.57843 0.92682 0.0
C828 C 0.12064 0.61235 0.94099 0.0
C829 C 0.06744 0.59263 0.91315 0.0
C830 C 0.09269 0.50857 0.99902 0.0
C831 C 1.03554 0.57682 0.95484 0.0
H832 H 0.91039 0.24286 0.07625 0.0
H833 H 0.98831 0.35197 0.04152 0.0
H834 H 0.9903 0.30776 0.06428 0.0
H835 H 0.82178 0.26529 0.04094 0.0
H836 H 0.14117 0.6297 0.90248 0.0
H837 H 0.99849 0.5604 0.92647 0.0
H838 H 0.14084 0.61948 0.95179 0.0
H839 H 1.04684 0.58528 0.90243 0.0
Tb840 Tb 0.59729 0.94362 0.16948 0.0
C841 C 0.42738 1.00201 0.16345 0.0
N842 N 0.43833 0.98512 0.1504 0.0
C843 C 0.35479 0.9631 0.14035 0.0
C844 C 0.38038 1.00206 0.16532 0.0
C845 C 0.40191 0.9637 0.13911 0.0
C846 C 0.34437 0.98335 0.15339 0.0
C847 C 0.44872 1.02595 0.18988 0.0
C848 C 0.46097 1.01365 0.17545 0.0
C849 C 0.40418 1.03038 0.19156 0.0
C850 C 0.36989 1.01828 0.17928 0.0
Tb851 Tb 0.51939 0.995 0.14823 0.0
N852 N 0.50207 1.00635 0.17341 0.0
C853 C 0.47961 1.02995 0.20238 0.0
C854 C 0.52795 1.00406 0.18599 0.0
C855 C 0.5185 1.01741 0.20049 0.0
H856 H 0.40894 0.94714 0.12904 0.0
H857 H 0.54038 1.01675 0.21027 0.0
H858 H 0.61112 0.99633 0.20442 0.0
H859 H 0.7361 0.91813 0.13586 0.0
H860 H 0.55467 0.99033 0.18515 0.0
H861 H 0.4716 0.03923 0.21366 0.0
H862 H 0.64861 0.89599 0.14442 0.0
H863 H 0.32648 0.94685 0.13126 0.0
H864 H 0.39456 0.0405 0.2025 0.0
H865 H 0.33439 1.01938 0.18089 0.0
H866 H 0.6833 0.0572 0.22081 0.0
H867 H 0.30769 0.98247 0.15439 0.0
H868 H 0.81289 0.98966 0.1483 0.0
N869 N 0.65984 0.99994 0.18606 0.0
C870 C 0.70931 1.01564 0.18166 0.0
C871 C 0.6911 0.04635 0.20974 0.0
C872 C 0.75163 0.05055 0.19067 0.0
C873 C 0.65028 1.01199 0.2004 0.0
C874 C 0.74192 0.06681 0.20468 0.0
N875 N 0.67559 0.95613 0.16113 0.0
C876 C 0.68192 0.92744 0.14992 0.0
C877 C 0.768 1.00716 0.16421 0.0
C878 C 0.71736 0.99394 0.1686 0.0
C879 C 0.7746 0.98051 0.15202 0.0
C880 C 0.73137 0.93994 0.14501 0.0
H881 H 0.77342 0.09347 0.21195 0.0
H882 H 0.83516 0.09361 0.19245 0.0
H883 H 0.84949 0.05581 0.16925 0.0
O884 O 0.60763 0.87956 0.17322 0.0
O885 O 0.62567 0.97152 0.14591 0.0
O886 O 0.60011 1.03144 0.14155 0.0
O887 O 0.58177 0.90819 0.19151 0.0
O888 O 0.55995 0.89232 0.1495 0.0
O889 O 0.5204 0.93016 0.13588 0.0
O890 O 0.51372 0.05476 0.13689 0.0
O891 O 0.46395 0.91553 0.15552 0.0
O892 O 0.50995 0.90448 0.17502 0.0
O893 O 0.50127 0.98635 0.12503 0.0
O894 O 0.58676 0.06537 0.15916 0.0
O895 O 0.63062 1.03191 0.17279 0.0
C896 C 0.62878 1.01099 0.13826 0.0
C897 C 0.63537 0.87056 0.1981 0.0
C898 C 0.65607 0.83332 0.2206 0.0
C899 C 0.70656 0.85361 0.21502 0.0
C900 C 0.68633 0.889 0.19304 0.0
C901 C 0.72148 0.88129 0.20147 0.0
C902 C 0.62035 0.84263 0.21217 0.0
C903 C 0.53513 0.895 0.13728 0.0
C904 C 0.59781 0.87616 0.18776 0.0
C905 C 0.80215 0.06625 0.18579 0.0
C906 C 0.81032 0.04471 0.17256 0.0
C907 C 0.4648 0.89037 0.16777 0.0
C908 C 0.54478 0.06372 0.11124 0.0
C909 C 0.59181 0.14509 0.09744 0.0
C910 C 0.61078 0.1219 0.08729 0.0
C911 C 0.56386 0.04106 0.10082 0.0
C912 C 0.55912 0.11576 0.10946 0.0
C913 C 0.59657 0.07006 0.08896 0.0
C914 C 0.62582 0.07257 0.16832 0.0
C915 C 0.50885 1.03289 0.1236 0.0
H916 H 0.73482 0.84787 0.22122 0.0
H917 H 0.6991 0.90814 0.18224 0.0
H918 H 0.76047 0.89605 0.19729 0.0
H919 H 0.58109 0.82693 0.21622 0.0
H920 H 0.63571 0.14347 0.0779 0.0
H921 H 0.55348 1.00088 0.10173 0.0
H922 H 0.54483 0.13347 0.1175 0.0
H923 H 0.61067 0.05217 0.08097 0.0
Tb924 Tb 0.6813 0.58146 0.33893 0.0
C925 C 0.46838 0.398 0.32767 0.0
N926 N 0.49961 0.41677 0.3154 0.0
C927 C 0.45547 0.333 0.30349 0.0
C928 C 0.4282 0.34616 0.32823 0.0
C929 C 0.4948 0.38468 0.30354 0.0
C930 C 0.42137 0.31384 0.31578 0.0
C931 C 0.45281 0.40999 0.35397 0.0
C932 C 0.48052 0.42954 0.34024 0.0
C933 C 0.41005 0.35979 0.3543 0.0
C934 C 0.39782 0.32779 0.34143 0.0
Tb935 Tb 0.55657 0.50375 0.315 0.0
N936 N 0.52373 0.47676 0.33953 0.0
C937 C 0.47112 0.43997 0.3672 0.0
C938 C 0.54497 0.50217 0.35293 0.0
C939 C 0.51843 0.48554 0.36676 0.0
H940 H 0.52124 0.39873 0.29403 0.0
H941 H 0.53544 0.50702 0.37717 0.0
H942 H 0.63573 0.58813 0.37346 0.0
H943 H 0.84593 0.73104 0.30859 0.0
H944 H 0.58352 0.53314 0.35342 0.0
H945 H 0.45118 0.42644 0.37799 0.0
H946 H 0.78515 0.64107 0.31616 0.0
H947 H 0.45157 0.30798 0.29399 0.0
H948 H 0.38794 0.34445 0.36468 0.0
H949 H 0.36628 0.28833 0.34202 0.0
H950 H 0.63772 0.65669 0.38995 0.0
H951 H 0.39113 0.27372 0.31578 0.0
H952 H 0.84013 0.80329 0.32054 0.0
N953 N 0.67765 0.63972 0.35537 0.0
C954 C 0.70771 0.69025 0.35121 0.0
C955 C 0.65677 0.66645 0.37896 0.0
C956 C 0.70923 0.73034 0.36018 0.0
C957 C 0.65561 0.62772 0.36961 0.0
C958 C 0.682 0.71765 0.37397 0.0
N959 N 0.74472 0.66237 0.33206 0.0
C960 C 0.78266 0.67248 0.32154 0.0
C961 C 0.77633 0.75359 0.33523 0.0
C962 C 0.74204 0.70174 0.33913 0.0
C963 C 0.81323 0.76395 0.32387 0.0
C964 C 0.81685 0.72328 0.31716 0.0
H965 H 0.68261 0.74743 0.38125 0.0
H966 H 0.74185 0.81321 0.36229 0.0
H967 H 0.79977 0.83351 0.34025 0.0
O968 O 0.75817 0.60051 0.34482 0.0
O969 O 0.68209 0.61862 0.31659 0.0
O970 O 0.59695 0.58451 0.30856 0.0
O971 O 0.69773 0.56033 0.36062 0.0
O972 O 0.70086 0.55032 0.31824 0.0
O973 O 0.62758 0.51793 0.30271 0.0
O974 O 0.48603 0.49025 0.305 0.0
O975 O 0.59486 0.45941 0.32022 0.0
O976 O 0.63266 0.49262 0.34327 0.0
O977 O 0.54558 0.48882 0.29165 0.0
O978 O 0.54739 0.56614 0.32659 0.0
O979 O 0.62145 0.60872 0.3416 0.0
C980 C 0.64577 0.62002 0.30814 0.0
C981 C 0.78302 0.61558 0.37145 0.0
C982 C 0.847 0.63551 0.39254 0.0
C983 C 0.84478 0.68048 0.39569 0.0
C984 C 0.78507 0.66246 0.37491 0.0
C985 C 0.81458 0.69395 0.38689 0.0
C986 C 0.81564 0.6025 0.38029 0.0
C987 C 0.67719 0.53267 0.30487 0.0
C988 C 0.74756 0.5822 0.35858 0.0
C989 C 0.74093 0.78189 0.35571 0.0
C990 C 0.77415 0.79346 0.3432 0.0
C991 C 0.60922 0.4519 0.33367 0.0
C992 C 0.49401 0.5142 0.2785 0.0
C993 C 0.46348 0.56967 0.26758 0.0
C994 C 0.47544 0.55893 0.25292 0.0
C995 C 0.50593 0.50466 0.26376 0.0
C996 C 0.47396 0.54772 0.28041 0.0
C997 C 0.49712 0.52726 0.25109 0.0
C998 C 0.57658 0.60348 0.33646 0.0
C999 C 0.50105 0.48643 0.29134 0.0
H1000 H 0.86801 0.70645 0.40477 0.0
H1001 H 0.76441 0.67573 0.36826 0.0
H1002 H 0.81457 0.72963 0.38925 0.0
H1003 H 0.81667 0.56748 0.37769 0.0
H1004 H 0.46657 0.57348 0.24273 0.0
H1005 H 0.52148 0.47897 0.26201 0.0
H1006 H 0.46545 0.55561 0.2918 0.0
H1007 H 0.50599 0.51921 0.23977 0.0
H1008 H 1.00564 0.65006 0.24788 0.0
H1009 H 0.12557 0.7059 0.21359 0.0
H1010 H 0.18933 0.76386 0.23269 0.0
H1011 H 0.05542 0.77833 0.26765 0.0
H1012 H 1.03696 0.74911 0.28624 0.0
H1013 H 1.00036 0.71444 0.26961 0.0
H1014 H 1.01552 0.63735 0.27604 0.0
H1015 H 1.04995 0.67234 0.29291 0.0
H1016 H 0.08089 0.65115 0.27935 0.0
H1017 H 0.24324 0.80887 0.25695 0.0
H1018 H 0.2778 0.84827 0.28237 0.0
H1019 H 0.12246 0.7683 0.30067 0.0
C1020 C 1.04476 0.67637 0.24422 0.0
C1021 C 0.05992 0.67444 0.22894 0.0
C1022 C 0.11235 0.70766 0.22497 0.0
C1023 C 0.14916 0.74036 0.23587 0.0
C1024 C 0.13338 0.74033 0.2509 0.0
C1025 C 0.08198 0.7103 0.25497 0.0
C1026 C 0.07511 0.71768 0.27189 0.0
C1027 C 1.03988 0.74131 0.27397 0.0
C1028 C 1.05396 0.6665 0.28056 0.0
C1029 C 0.13057 0.75544 0.27677 0.0
C1030 C 0.16382 0.76759 0.26455 0.0
C1031 C 0.21721 0.79998 0.26651 0.0
C1032 C 0.23678 0.82178 0.28109 0.0
C1033 C 0.20331 0.81173 0.29369 0.0
C1034 C 0.14944 0.77724 0.29136 0.0
H1035 H 0.46091 0.16386 0.46488 0.0
H1036 H 0.39836 0.24889 0.44172 0.0
H1037 H 0.39014 0.20051 0.41788 0.0
H1038 H 0.53433 0.15541 0.4313 0.0
H1039 H 0.52102 0.09134 0.43625 0.0
H1040 H 0.52567 0.13574 0.45101 0.0
H1041 H 0.43471 0.06821 0.46054 0.0
H1042 H 0.42928 1.02416 0.44558 0.0
H1043 H 0.38074 0.04313 0.44749 0.0
H1044 H 0.3814 0.13565 0.39656 0.0
H1045 H 0.38519 0.07075 0.37948 0.0
H1046 H 0.45517 1.02914 0.4161 0.0
C1047 C 0.44747 0.17375 0.45463 0.0
C1048 C 0.43185 0.21178 0.45518 0.0
C1049 C 0.41213 0.22139 0.44157 0.0
C1050 C 0.40668 0.19346 0.42797 0.0
C1051 C 0.421 0.15533 0.42789 0.0
C1052 C 0.4421 0.14624 0.44081 0.0
C1053 C 0.45386 0.10267 0.43774 0.0
C1054 C 0.51218 0.12247 0.43916 0.0
C1055 C 0.4228 0.05684 0.44848 0.0
C1056 C 0.43555 0.08829 0.42124 0.0
C1057 C 0.41629 0.11875 0.41575 0.0
C1058 C 0.3966 0.1118 0.40082 0.0
C1059 C 0.39813 0.07417 0.3912 0.0
C1060 C 0.41956 0.04382 0.39638 0.0
C1061 C 0.43784 0.05103 0.41174 0.0
H1062 H 0.35664 0.44074 0.63381 0.0
H1063 H 0.23781 0.4593 0.61115 0.0
H1064 H 0.27169 0.45072 0.58597 0.0
H1065 H 0.45816 0.51104 0.60556 0.0
H1066 H 0.48562 0.46947 0.60779 0.0
H1067 H 0.45304 0.4799 0.62358 0.0
H1068 H 0.39205 0.381 0.62559 0.0
H1069 H 0.42359 0.37028 0.60959 0.0
H1070 H 0.35478 0.34548 0.60915 0.0
H1071 H 0.31759 0.43302 0.56259 0.0
H1072 H 0.37691 0.42356 0.5446 0.0
H1073 H 0.46626 0.41882 0.58287 0.0
C1074 C 0.33845 0.44438 0.62354 0.0
C1075 C 0.29475 0.45168 0.62463 0.0
C1076 C 0.27186 0.45509 0.61079 0.0
C1077 C 0.29054 0.44937 0.59639 0.0
C1078 C 0.33244 0.4402 0.59582 0.0
C1079 C 0.35662 0.4388 0.60914 0.0
C1080 C 0.40123 0.42909 0.60566 0.0
C1081 C 0.45264 0.47508 0.61098 0.0
C1082 C 0.39236 0.37846 0.61294 0.0
C1083 C 0.39863 0.42492 0.58832 0.0
C1084 C 0.35835 0.43075 0.58276 0.0
C1085 C 0.349 0.42839 0.56699 0.0
C1086 C 0.38252 0.42208 0.55677 0.0
C1087 C 0.42563 0.41869 0.56219 0.0
C1088 C 0.43286 0.41952 0.57827 0.0
H1089 H 0.10033 0.4259 0.74655 0.0
H1090 H 0.97041 0.38551 0.71649 0.0
H1091 H 0.91043 0.32937 0.73631 0.0
H1092 H 1.04155 0.29246 0.76423 0.0
H1093 H 0.06914 0.31828 0.7827 0.0
H1094 H 0.10223 0.35198 0.76561 0.0
H1095 H 0.10389 0.43427 0.77565 0.0
H1096 H 0.07021 0.4006 0.79264 0.0
H1097 H 1.04439 0.43191 0.78092 0.0
H1098 H 0.86285 0.28452 0.76056 0.0
H1099 H 0.83273 0.24314 0.78581 0.0
H1100 H 0.99231 0.30898 0.80046 0.0
C1101 C 0.05949 0.40351 0.74395 0.0
C1102 C 1.04024 0.40974 0.72973 0.0
C1103 C 0.98618 0.38109 0.72711 0.0
C1104 C 0.95167 0.34916 0.73839 0.0
C1105 C 0.97136 0.34524 0.75244 0.0
C1106 C 1.02413 0.37055 0.75516 0.0
C1107 C 1.03465 0.35939 0.77137 0.0
C1108 C 0.06361 0.3287 0.77095 0.0
C1109 C 0.06502 0.40951 0.78068 0.0
C1110 C 0.97973 0.32614 0.77746 0.0
C1111 C 0.94382 0.31838 0.76633 0.0
C1112 C 0.89074 0.28972 0.7693 0.0
C1113 C 0.87382 0.26674 0.78379 0.0
C1114 C 0.90963 0.27205 0.79529 0.0
C1115 C 0.96346 0.30322 0.79199 0.0
H1116 H 0.64628 0.96441 0.88595 0.0
H1117 H 0.72734 0.10547 0.91227 0.0
H1118 H 0.72725 0.0548 0.93478 0.0
H1119 H 0.56312 0.88586 0.91424 0.0
H1120 H 0.56526 0.82884 0.90873 0.0
H1121 H 0.57743 0.87794 0.89482 0.0
H1122 H 0.66526 0.88417 0.88865 0.0
H1123 H 0.65328 0.83575 0.90279 0.0
H1124 H 0.71136 0.89778 0.9038 0.0
H1125 H 0.71213 0.98433 0.95543 0.0
H1126 H 0.68916 0.90547 0.97055 0.0
H1127 H 0.61255 0.81197 0.93058 0.0
C1128 C 0.66597 0.98485 0.89626 0.0
C1129 C 0.68894 0.03935 0.89708 0.0
C1130 C 0.71173 0.06417 0.9111 0.0
C1131 C 0.71112 1.03543 0.92403 0.0
C1132 C 0.68729 0.98151 0.92291 0.0
C1133 C 0.66578 0.95672 0.90922 0.0
C1134 C 0.64113 0.89852 0.91091 0.0
C1135 C 0.5833 0.87116 0.90693 0.0
C1136 C 0.66947 0.87785 0.90095 0.0
C1137 C 0.65003 0.894 0.92782 0.0
C1138 C 0.67745 0.94207 0.93459 0.0
C1139 C 0.69078 0.94664 0.95012 0.0
C1140 C 0.67707 0.90135 0.95874 0.0
C1141 C 0.64968 0.85149 0.95197 0.0
C1142 C 0.63501 0.84875 0.93631 0.0
H1143 H 0.83554 0.58809 0.09485 0.0
H1144 H 0.81759 0.66139 0.13545 0.0
H1145 H 0.76331 0.68755 0.12048 0.0
H1146 H 0.85095 0.68818 0.069 0.0
H1147 H 0.81801 0.64444 0.0534 0.0
H1148 H 0.85189 0.6283 0.06744 0.0
H1149 H 0.76705 0.54109 0.07419 0.0
H1150 H 0.73922 0.55787 0.05856 0.0
H1151 H 0.70823 0.5439 0.07685 0.0
H1152 H 0.7094 0.70626 0.0998 0.0
H1153 H 0.65793 0.70677 0.07759 0.0
H1154 H 0.71815 0.62709 0.05054 0.0
C1155 C 0.82074 0.60999 0.10075 0.0
C1156 C 0.83224 0.62308 0.11654 0.0
C1157 C 0.80988 0.65041 0.12353 0.0
C1158 C 0.77928 0.666 0.11499 0.0
C1159 C 0.77114 0.65447 0.09931 0.0
C1160 C 0.79108 0.62651 0.09237 0.0
C1161 C 0.7782 0.6195 0.07536 0.0
C1162 C 0.82772 0.64673 0.06574 0.0
C1163 C 0.74631 0.56209 0.07104 0.0
C1164 C 0.74627 0.64625 0.07376 0.0
C1165 C 0.74292 0.66682 0.08762 0.0
C1166 C 0.71292 0.69095 0.08893 0.0
C1167 C 0.68423 0.69188 0.07611 0.0
C1168 C 0.68562 0.66937 0.06193 0.0
C1169 C 0.71802 0.64708 0.06086 0.0
H1170 H 0.40688 0.07163 0.61859 0.0
H1171 H 0.43277 0.95914 0.64204 0.0
H1172 H 0.37846 0.89256 0.62322 0.0
H1173 H 0.27045 0.97888 0.60688 0.0
H1174 H 0.27767 1.00998 0.58872 0.0
H1175 H 0.31456 0.04719 0.605 0.0
H1176 H 0.39918 0.07849 0.58961 0.0
H1177 H 0.36204 0.0411 0.57341 0.0
H1178 H 0.41274 1.03147 0.58102 0.0
H1179 H 0.32797 0.83946 0.59976 0.0
H1180 H 0.27508 0.80202 0.57637 0.0
H1181 H 0.28109 0.94813 0.56782 0.0
C1182 C 0.3992 1.03241 0.6201 0.0
C1183 C 0.42207 1.0201 0.63244 0.0
C1184 C 0.41335 0.96891 0.63338 0.0
C1185 C 0.3832 0.93091 0.62248 0.0
C1186 C 0.36198 0.94435 0.61033 0.0
C1187 C 0.36881 0.99369 0.60922 0.0
C1188 C 0.34231 0.99812 0.59487 0.0
C1189 C 0.29865 1.00919 0.59912 0.0
C1190 C 0.38142 0.03977 0.5841 0.0
C1191 C 0.32073 0.94421 0.58795 0.0
C1192 C 0.33277 0.9138 0.59699 0.0
C1193 C 0.31778 0.86288 0.59273 0.0
C1194 C 0.28816 0.84197 0.57928 0.0
C1195 C 0.27323 0.87156 0.57013 0.0
C1196 C 0.29103 0.92386 0.57454 0.0
H1197 H 0.4988 0.23895 0.76612 0.0
H1198 H 0.4061 0.23933 0.72806 0.0
H1199 H 0.38039 0.29356 0.74321 0.0
H1200 H 0.41493 0.23257 0.79631 0.0
H1201 H 0.46599 0.27599 0.80894 0.0
H1202 H 0.47782 0.23785 0.79522 0.0
H1203 H 0.55451 0.32079 0.7835 0.0
H1204 H 0.54389 0.35716 0.79811 0.0
H1205 H 0.5443 0.37357 0.77836 0.0
H1206 H 0.36187 0.34673 0.76374 0.0
H1207 H 0.36683 0.40521 0.78476 0.0
H1208 H 0.47248 0.37089 0.80906 0.0
C1209 C 0.47327 0.25061 0.76089 0.0
C1210 C 0.45435 0.23416 0.74576 0.0
C1211 C 0.42154 0.25127 0.73947 0.0
C1212 C 0.40623 0.28174 0.74812 0.0
C1213 C 0.42428 0.29576 0.76314 0.0
C1214 C 0.45827 0.28171 0.76929 0.0
C1215 C 0.4741 0.30348 0.78542 0.0
C1216 C 0.45719 0.25984 0.79716 0.0
C1217 C 0.53267 0.34094 0.78639 0.0
C1218 C 0.44381 0.33194 0.78745 0.0
C1219 C 0.41455 0.32646 0.77461 0.0
C1220 C 0.38444 0.35064 0.77385 0.0
C1221 C 0.38661 0.3832 0.78602 0.0
C1222 C 0.41821 0.39131 0.799 0.0
C1223 C 0.44621 0.36414 0.79968 0.0
H1224 H 0.09716 0.4977 0.94977 0.0
H1225 H 1.03426 0.34156 0.96672 0.0
H1226 H 0.08669 0.32593 0.94761 0.0
H1227 H 0.10235 0.46719 0.90948 0.0
H1228 H 0.1603 0.52804 0.90658 0.0
H1229 H 0.1141 0.52196 0.92095 0.0
H1230 H 0.18902 0.55768 0.94111 0.0
H1231 H 0.23438 0.56057 0.92699 0.0
H1232 H 0.22381 0.52337 0.94407 0.0
H1233 H 0.15282 0.33096 0.92651 0.0
H1234 H 0.22401 0.35638 0.90785 0.0
H1235 H 0.24189 0.50919 0.90512 0.0
C1236 C 0.09369 0.45979 0.94957 0.0
C1237 C 0.06079 0.42079 0.96004 0.0
C1238 C 0.05847 0.37217 0.959 0.0
C1239 C 0.08839 0.36302 0.94808 0.0
C1240 C 0.12056 0.40273 0.93807 0.0
C1241 C 0.12302 0.45012 0.93881 0.0
C1242 C 0.16117 0.48738 0.92725 0.0
C1243 C 0.13292 0.50218 0.91536 0.0
C1244 C 0.20463 0.53512 0.93532 0.0
C1245 C 0.18142 0.45459 0.91999 0.0
C1246 C 0.15713 0.40547 0.9262 0.0
C1247 C 0.17112 0.36913 0.92153 0.0
C1248 C 0.21132 0.38371 0.91072 0.0
C1249 C 0.23744 0.43418 0.90444 0.0
C1250 C 0.22148 0.46969 0.90913 0.0
H1251 H 0.70591 0.11073 0.13572 0.0
H1252 H 0.63111 0.96588 0.11102 0.0
H1253 H 0.67723 1.01134 0.08738 0.0
H1254 H 0.69971 0.18645 0.10873 0.0
H1255 H 0.76254 0.24342 0.11098 0.0
H1256 H 0.73149 0.20033 0.12675 0.0
H1257 H 0.80615 0.17956 0.13089 0.0
H1258 H 0.84103 0.2294 0.11699 0.0
H1259 H 0.83349 0.16596 0.11444 0.0
H1260 H 0.72776 0.07739 0.06554 0.0
H1261 H 0.78808 0.15168 0.04951 0.0
H1262 H 0.82988 0.25211 0.08905 0.0
C1263 C 0.70037 0.08841 0.12542 0.0
C1264 C 0.66528 1.03469 0.12525 0.0
C1265 C 0.65857 1.00686 0.1115 0.0
C1266 C 0.68432 1.0326 0.09798 0.0
C1267 C 0.71716 0.08625 0.09839 0.0
C1268 C 0.72649 0.11329 0.11196 0.0
C1269 C 0.76354 0.17041 0.10963 0.0
C1270 C 0.73804 0.20229 0.11427 0.0
C1271 C 0.81404 0.1874 0.11851 0.0
C1272 C 0.77249 0.17216 0.09252 0.0
C1273 C 0.74547 0.12329 0.08615 0.0
C1274 C 0.74907 0.11564 0.0705 0.0
C1275 C 0.7829 0.15827 0.06139 0.0
C1276 C 0.81303 0.20815 0.06786 0.0
C1277 C 0.8065 0.21487 0.08361 0.0
H1278 H 0.66413 0.62533 0.27726 0.0
H1279 H 0.64813 0.7103 0.31502 0.0
H1280 H 0.64335 0.77138 0.29679 0.0
H1281 H 0.74512 0.74051 0.25334 0.0
H1282 H 0.71578 0.70641 0.23586 0.0
H1283 H 0.72058 0.67184 0.25203 0.0
H1284 H 0.62122 0.60963 0.25102 0.0
H1285 H 0.61684 0.64451 0.23484 0.0
H1286 H 0.57892 0.63674 0.25165 0.0
H1287 H 0.63121 0.81857 0.27366 0.0
H1288 H 0.6304 0.8568 0.24856 0.0
H1289 H 0.65901 0.74398 0.22597 0.0
C1290 C 0.66158 0.65797 0.28168 0.0
C1291 C 0.65794 0.66386 0.29763 0.0
C1292 C 0.65242 0.70583 0.30291 0.0
C1293 C 0.64892 0.7403 0.2926 0.0
C1294 C 0.65117 0.73265 0.27691 0.0
C1295 C 0.65887 0.69328 0.27151 0.0
C1296 C 0.66064 0.69368 0.25415 0.0
C1297 C 0.71369 0.70372 0.24851 0.0
C1298 C 0.61682 0.64306 0.24752 0.0
C1299 C 0.65211 0.73886 0.25056 0.0
C1300 C 0.64594 0.76047 0.26382 0.0
C1301 C 0.63639 0.80199 0.26326 0.0
C1302 C 0.63518 0.82309 0.24891 0.0
C1303 C 0.64373 0.80306 0.23521 0.0
C1304 C 0.6515 0.75978 0.23619 0.0
H1305 H 0.98234 0.63328 0.47198 0.0
H1306 H 0.12629 0.69223 0.44741 0.0
H1307 H 0.08104 0.68859 0.42328 0.0
H1308 H 0.89614 0.54457 0.44308 0.0
H1309 H 0.84652 0.55897 0.44849 0.0
H1310 H 0.89537 0.56655 0.46203 0.0
H1311 H 0.91237 0.66343 0.46537 0.0
H1312 H 0.86587 0.65135 0.45049 0.0
H1313 H 0.93122 0.70387 0.44871 0.0
H1314 H 1.01555 0.66791 0.4009 0.0
H1315 H 0.9423 0.65163 0.38387 0.0
H1316 H 0.84165 0.61094 0.42312 0.0
C1317 C 1.00468 0.6473 0.46161 0.0
C1318 C 0.05859 0.66471 0.4618 0.0
C1319 C 0.08571 0.68076 0.44779 0.0
C1320 C 0.05992 0.67794 0.43393 0.0
C1321 C 1.00648 0.65899 0.43408 0.0
C1322 C 0.97948 0.64534 0.44768 0.0
C1323 C 0.92247 0.62723 0.44483 0.0
C1324 C 0.88806 0.57106 0.44992 0.0
C1325 C 0.90703 0.66359 0.45282 0.0
C1326 C 0.92109 0.63138 0.42753 0.0
C1327 C 0.96978 0.64901 0.42147 0.0
C1328 C 0.9775 0.65448 0.40565 0.0
C1329 C 0.93529 0.64409 0.39597 0.0
C1330 C 0.88547 0.62837 0.40196 0.0
C1331 C 0.87864 0.62133 0.41803 0.0
H1332 H 0.54676 0.66914 0.32032 0.0
H1333 H 0.56086 0.62344 0.36609 0.0
H1334 H 0.53844 0.68674 0.37666 0.0
H1335 H 0.59662 0.80655 0.32838 0.0
H1336 H 0.55142 0.81353 0.31633 0.0
H1337 H 0.56906 0.76516 0.31194 0.0
H1338 H 0.47347 0.69423 0.31219 0.0
H1339 H 0.45498 0.7421 0.31643 0.0
H1340 H 0.43452 0.68704 0.32873 0.0
H1341 H 0.51518 0.75808 0.38284 0.0
H1342 H 0.49189 0.82662 0.384 0.0
H1343 H 0.4872 0.82906 0.33458 0.0
C1344 C 0.54514 0.67233 0.3326 0.0
C1345 C 0.55826 0.64136 0.34232 0.0
C1346 C 0.55431 0.64752 0.35826 0.0
C1347 C 0.54052 0.68331 0.36441 0.0
C1348 C 0.5292 0.71376 0.35467 0.0
C1349 C 0.53086 0.70838 0.33903 0.0
C1350 C 0.51605 0.7459 0.33123 0.0
C1351 C 0.56097 0.78513 0.32138 0.0
C1352 C 0.46685 0.71551 0.32157 0.0
C1353 C 0.50607 0.77322 0.34484 0.0
C1354 C 0.51413 0.75373 0.35824 0.0
C1355 C 0.50865 0.77296 0.37233 0.0
C1356 C 0.49525 0.81258 0.37288 0.0
C1357 C 0.48657 0.83443 0.35955 0.0
C1358 C 0.49204 0.81345 0.3452 0.0
H1359 H 0.7074 0.49594 0.49941 0.0
H1360 H 0.70456 0.46324 0.54767 0.0
H1361 H 0.79549 0.48433 0.54641 0.0
H1362 H 0.79179 0.44259 0.48797 0.0
H1363 H 0.82777 0.4916 0.47406 0.0
H1364 H 0.76201 0.47443 0.47826 0.0
H1365 H 0.79016 0.56871 0.48461 0.0
H1366 H 0.85699 0.58879 0.48105 0.0
H1367 H 0.83822 0.60225 0.49918 0.0
H1368 H 0.89236 0.51594 0.54056 0.0
H1369 H 0.9797 0.54502 0.53021 0.0
H1370 H 0.92491 0.55173 0.48501 0.0
C1371 C 0.72531 0.49186 0.50966 0.0
C1372 C 0.69656 0.47718 0.52376 0.0
C1373 C 0.72387 0.47416 0.53673 0.0
C1374 C 0.77639 0.48629 0.53612 0.0
C1375 C 0.8036 0.50148 0.52233 0.0
C1376 C 0.77871 0.50348 0.50923 0.0
C1377 C 0.81787 0.52146 0.49592 0.0
C1378 C 0.79872 0.48012 0.48329 0.0
C1379 C 0.82625 0.5733 0.4898 0.0
C1380 C 0.86797 0.52813 0.50345 0.0
C1381 C 0.85873 0.51733 0.51883 0.0
C1382 C 0.89916 0.52346 0.52846 0.0
C1383 C 0.94939 0.54024 0.52242 0.0
C1384 C 0.96082 0.55035 0.50663 0.0
C1385 C 0.91847 0.54382 0.49706 0.0
H1386 H 0.44523 0.9075 0.66071 0.0
H1387 H 0.39947 0.98576 0.69381 0.0
H1388 H 0.32987 0.90113 0.70269 0.0
H1389 H 0.30962 0.80512 0.65148 0.0
H1390 H 0.32674 0.75555 0.64857 0.0
H1391 H 0.37371 0.82243 0.64523 0.0
H1392 H 0.43591 0.81317 0.66388 0.0
H1393 H 0.38794 0.74699 0.66762 0.0
H1394 H 0.41526 0.79245 0.68319 0.0
H1395 H 0.26579 0.80622 0.70931 0.0
H1396 H 0.21004 0.71381 0.71193 0.0
H1397 H 0.28326 0.68666 0.67293 0.0
C1398 C 0.42066 0.90722 0.66985 0.0
C1399 C 0.42982 0.95587 0.67647 0.0
C1400 C 0.39518 0.95119 0.68835 0.0
C1401 C 0.35486 0.90242 0.69354 0.0
C1402 C 0.34697 0.85615 0.68677 0.0
C1403 C 0.37847 0.85795 0.67498 0.0
C1404 C 0.35919 0.80162 0.66935 0.0
C1405 C 0.34124 0.79577 0.65266 0.0
C1406 C 0.40215 0.78774 0.67111 0.0
C1407 C 0.31283 0.76777 0.68 0.0
C1408 C 0.30741 0.80097 0.68996 0.0
C1409 C 0.26967 0.78063 0.70129 0.0
C1410 C 0.23697 0.72646 0.7026 0.0
C1411 C 0.23859 0.68933 0.69255 0.0
C1412 C 0.27843 0.71175 0.6809 0.0
H1413 H 0.4859 0.36969 0.84849 0.0
H1414 H 0.61373 0.4683 0.81897 0.0
H1415 H 0.65144 0.41212 0.82285 0.0
H1416 H 0.5606 0.33839 0.87556 0.0
H1417 H 0.51127 0.27187 0.87796 0.0
H1418 H 0.49354 0.31977 0.87312 0.0
H1419 H 0.44388 0.26615 0.84944 0.0
H1420 H 0.46138 0.21809 0.85429 0.0
H1421 H 0.47686 0.24754 0.83572 0.0
H1422 H 0.67806 0.34406 0.83008 0.0
H1423 H 0.6886 0.27164 0.83931 0.0
H1424 H 0.54459 0.21237 0.86412 0.0
C1425 C 0.52202 0.37991 0.84291 0.0
C1426 C 0.54633 0.42513 0.83339 0.0
C1427 C 0.59342 0.43505 0.82631 0.0
C1428 C 0.61557 0.40289 0.82847 0.0
C1429 C 0.59095 0.35925 0.83782 0.0
C1430 C 0.54494 0.34747 0.84491 0.0
C1431 C 0.52629 0.29732 0.85417 0.0
C1432 C 0.5227 0.30744 0.87122 0.0
C1433 C 0.47398 0.25476 0.84805 0.0
C1434 C 0.56905 0.28324 0.85132 0.0
C1435 C 0.60594 0.31975 0.84182 0.0
C1436 C 0.64909 0.3155 0.83753 0.0
C1437 C 0.65489 0.27365 0.84293 0.0
C1438 C 0.61805 0.23483 0.85271 0.0
C1439 C 0.57425 0.24053 0.85684 0.0
H1440 H 0.17914 0.5067 0.98451 0.0
H1441 H 0.13754 0.5553 0.02625 0.0
H1442 H 0.22431 0.58237 0.03683 0.0
H1443 H 0.25807 0.45825 1.00284 0.0
H1444 H 0.30662 0.48009 0.98814 0.0
H1445 H 0.24149 0.46455 0.98347 0.0
H1446 H 0.27545 0.55532 0.97206 0.0
H1447 H 0.34075 0.5712 0.9766 0.0
H1448 H 0.31574 0.61151 0.98353 0.0
H1449 H 0.318 0.6033 0.04373 0.0
H1450 H 0.40658 0.61745 0.0459 0.0
H1451 H 0.39566 0.55913 0.99987 0.0
C1452 C 0.18842 0.52374 0.99582 0.0
C1453 C 0.14971 0.52898 1.00437 0.0
C1454 C 0.16491 0.55071 0.01923 0.0
C1455 C 0.21485 0.56633 0.02541 0.0
C1456 C 0.25164 0.56072 0.01682 0.0
C1457 C 0.23917 0.54002 1.00225 0.0
C1458 C 0.28647 0.53808 0.9956 0.0
C1459 C 0.27231 0.4819 0.9923 0.0
C1460 C 0.30574 0.57097 0.98108 0.0
C1461 C 0.32751 0.56137 1.00851 0.0
C1462 C 0.30588 0.5736 0.02069 0.0
C1463 C 0.3348 0.59404 0.03411 0.0
C1464 C 0.38597 0.60213 0.03526 0.0
C1465 C 0.41068 0.59073 0.02313 0.0
C1466 C 0.37992 0.56988 1.00943 0.0
H1467 H 0.85412 0.38829 0.16663 0.0
H1468 H 0.84444 0.38085 0.21609 0.0
H1469 H 0.779 0.28968 0.21459 0.0
H1470 H 0.7136 0.2987 0.15954 0.0
H1471 H 0.72299 0.26663 0.1434 0.0
H1472 H 0.77034 0.33261 0.14781 0.0
H1473 H 0.84142 0.3077 0.14893 0.0
H1474 H 0.79494 0.24141 0.14481 0.0
H1475 H 0.83442 0.25717 0.16165 0.0
H1476 H 0.71249 0.19401 0.20843 0.0
H1477 H 0.65066 0.10805 0.19797 0.0
H1478 H 0.69288 0.1684 0.15217 0.0
C1479 C 0.83797 0.36797 0.17719 0.0
C1480 C 0.85711 0.39496 0.19163 0.0
C1481 C 0.83323 0.36393 0.20481 0.0
C1482 C 0.79489 0.31082 0.20412 0.0
C1483 C 0.77767 0.28577 0.19003 0.0
C1484 C 0.79798 0.3134 0.17672 0.0
C1485 C 0.77189 0.27548 0.16313 0.0
C1486 C 0.74301 0.2945 0.15285 0.0
C1487 C 0.81313 0.27016 0.15408 0.0
C1488 C 0.73337 0.22325 0.17084 0.0
C1489 C 0.7384 0.23049 0.18646 0.0
C1490 C 0.70868 0.18857 0.19618 0.0
C1491 C 0.67337 0.13882 0.19006 0.0
C1492 C 0.66577 0.12871 0.17411 0.0
C1493 C 0.69673 0.17296 0.16442 0.0
H1494 H 0.24028 0.53418 0.49163 0.0
H1495 H 0.27037 0.64868 0.52671 0.0
H1496 H 0.34165 0.63696 0.53662 0.0
H1497 H 0.26672 0.44916 0.51601 0.0
H1498 H 0.29655 0.43115 0.50111 0.0
H1499 H 0.24824 0.44844 0.49638 0.0
H1500 H 0.31138 0.51812 0.47793 0.0
H1501 H 0.35999 0.501 0.48249 0.0
H1502 H 0.37395 0.56681 0.48478 0.0
H1503 H 0.41388 0.61318 0.54297 0.0
H1504 H 0.47438 0.57957 0.54524 0.0
H1505 H 0.39929 0.47721 0.50685 0.0
C1506 C 0.26166 0.55699 0.50141 0.0
C1507 C 0.2482 0.59309 0.50817 0.0
C1508 C 0.27842 0.62109 0.52106 0.0
C1509 C 0.31962 0.61454 0.52684 0.0
C1510 C 0.33163 0.57909 0.51995 0.0
C1511 C 0.30311 0.5504 0.50752 0.0
C1512 C 0.32361 0.51407 0.50243 0.0
C1513 C 0.28125 0.45732 0.50408 0.0
C1514 C 0.3434 0.52569 0.48592 0.0
C1515 C 0.36845 0.52722 0.5137 0.0
C1516 C 0.37221 0.56492 0.52372 0.0
C1517 C 0.4106 0.58363 0.53509 0.0
C1518 C 0.44545 0.56401 0.53629 0.0
C1519 C 0.44335 0.52508 0.52631 0.0
C1520 C 0.40329 0.50666 0.51482 0.0
H1521 H 0.701 0.25564 0.69135 0.0
H1522 H 0.71826 0.22777 0.6436 0.0
H1523 H 0.81037 0.29004 0.64501 0.0
H1524 H 0.79527 0.39745 0.6895 0.0
H1525 H 0.82296 0.40222 0.70814 0.0
H1526 H 0.7569 0.35356 0.70439 0.0
H1527 H 0.77625 0.28252 0.71307 0.0
H1528 H 0.84226 0.3309 0.71701 0.0
H1529 H 0.82858 0.27777 0.70435 0.0
H1530 H 0.90505 0.35648 0.65089 0.0
H1531 H 0.98979 0.4231 0.66064 0.0
H1532 H 0.92091 0.41907 0.70441 0.0
C1533 C 0.72387 0.26268 0.68112 0.0
C1534 C 0.69956 0.23356 0.66731 0.0
C1535 C 0.73336 0.24628 0.6545 0.0
C1536 C 0.78693 0.28277 0.65512 0.0
C1537 C 0.80942 0.30948 0.66866 0.0
C1538 C 0.77899 0.30073 0.68147 0.0
C1539 C 0.81453 0.33697 0.69439 0.0
C1540 C 0.7963 0.37478 0.69941 0.0
C1541 C 0.81543 0.30512 0.70802 0.0
C1542 C 0.86882 0.36648 0.68682 0.0
C1543 C 0.86444 0.34925 0.67196 0.0
C1544 C 0.90844 0.36949 0.6626 0.0
C1545 C 0.9576 0.40734 0.66837 0.0
C1546 C 0.9651 0.42649 0.68357 0.0
C1547 C 0.91855 0.40568 0.69278 0.0
H1548 H 0.52901 0.90052 0.86637 0.0
H1549 H 0.66863 0.9776 0.83938 0.0
H1550 H 0.65537 0.89426 0.83046 0.0
H1551 H 0.54781 0.7902 0.87735 0.0
H1552 H 0.48056 0.74137 0.87621 0.0
H1553 H 0.49837 0.80712 0.88079 0.0
H1554 H 0.44382 0.8095 0.85845 0.0
H1555 H 0.42496 0.74348 0.85377 0.0
H1556 H 0.45461 0.79307 0.83949 0.0
H1557 H 0.628 0.80255 0.82342 0.0
H1558 H 0.59155 0.71054 0.81943 0.0
H1559 H 0.46713 0.67957 0.85092 0.0
C1560 C 0.5569 0.90006 0.85856 0.0
C1561 C 0.60048 0.94848 0.85356 0.0
C1562 C 0.63515 0.94362 0.84346 0.0
C1563 C 0.62778 0.89538 0.83826 0.0
C1564 C 0.58517 0.84944 0.84321 0.0
C1565 C 0.55023 0.85082 0.85326 0.0
C1566 C 0.50825 0.79407 0.85674 0.0
C1567 C 0.50878 0.7825 0.87379 0.0
C1568 C 0.45471 0.78446 0.85182 0.0
C1569 C 0.52488 0.76118 0.84694 0.0
C1570 C 0.56957 0.79499 0.8393 0.0
C1571 C 0.59308 0.77612 0.82942 0.0
C1572 C 0.5713 0.72236 0.82716 0.0
C1573 C 0.5254 0.68463 0.83457 0.0
C1574 C 0.50208 0.70552 0.84485 0.0
H1575 H 0.71429 0.60143 1.00855 0.0
H1576 H 0.63049 0.48969 0.04388 0.0
H1577 H 0.6911 0.45608 0.04159 0.0
H1578 H 0.74315 0.51703 0.98491 0.0
H1579 H 0.80702 0.56715 0.97967 0.0
H1580 H 0.75779 0.58336 0.98422 0.0
H1581 H 0.81687 0.64767 1.00467 0.0
H1582 H 0.86643 0.63172 1.00039 0.0
H1583 H 0.843 0.62581 0.01962 0.0
H1584 H 0.76755 0.43519 0.03596 0.0
H1585 H 0.84085 0.4259 0.02625 0.0
H1586 H 0.87366 0.54572 0.99316 0.0
C1587 C 0.70809 0.56968 0.01578 0.0
C1588 C 0.66566 0.54896 0.02648 0.0
C1589 C 0.66123 0.50725 0.03556 0.0
C1590 C 0.69617 0.48754 0.03433 0.0
C1591 C 0.73725 0.50895 0.02385 0.0
C1592 C 0.7429 0.54894 0.01458 0.0
C1593 C 0.79 0.56466 1.00406 0.0
C1594 C 0.7735 0.55763 0.98721 0.0
C1595 C 0.83153 0.62081 1.00738 0.0
C1596 C 0.80943 0.52698 1.00857 0.0
C1597 C 0.77899 0.49577 0.02027 0.0
C1598 C 0.7908 0.45948 0.02669 0.0
C1599 C 0.83329 0.45442 0.02106 0.0
C1600 C 0.86481 0.48443 1.0087 0.0
C1601 C 0.85158 0.52139 1.00252 0.0
H1602 H 0.35977 0.86053 0.15978 0.0
H1603 H 0.44589 0.81484 0.18967 0.0
H1604 H 0.36348 0.74162 0.19883 0.0
H1605 H 0.25127 0.82714 0.18645 0.0
H1606 H 0.20257 0.80417 0.1717 0.0
H1607 H 0.26805 0.85294 0.16742 0.0
H1608 H 0.27061 0.79565 0.1457 0.0
H1609 H 0.20539 0.74652 0.15004 0.0
H1610 H 0.25642 0.73069 0.14982 0.0
H1611 H 0.26725 0.66813 0.20472 0.0
H1612 H 0.17364 0.60885 0.20728 0.0
H1613 H 0.14423 0.70077 0.17489 0.0
C1614 C 0.36171 0.83529 0.16828 0.0
C1615 C 0.41175 0.84515 0.17378 0.0
C1616 C 0.41003 0.80994 0.18503 0.0
C1617 C 0.36254 0.76747 0.19036 0.0
C1618 C 0.31464 0.75896 0.18468 0.0
C1619 C 0.31393 0.79246 0.17394 0.0
C1620 C 0.25682 0.77491 0.16989 0.0
C1621 C 0.24392 0.81733 0.17411 0.0
C1622 C 0.24672 0.76115 0.15285 0.0
C1623 C 0.22546 0.72628 0.17986 0.0
C1624 C 0.25994 0.71782 0.18824 0.0
C1625 C 0.24068 0.67517 0.1981 0.0
C1626 C 0.18631 0.64094 0.19948 0.0
C1627 C 0.1487 0.64767 0.19122 0.0
C1628 C 0.17 0.69224 0.18129 0.0
H1629 H 0.60301 0.39155 0.36165 0.0
H1630 H 0.58411 0.37668 0.31236 0.0
H1631 H 0.5537 0.28474 0.31411 0.0
H1632 H 0.65017 0.29603 0.36463 0.0
H1633 H 0.61762 0.26802 0.38232 0.0
H1634 H 0.63722 0.33434 0.37799 0.0
H1635 H 0.54347 0.31495 0.38184 0.0
H1636 H 0.52353 0.24849 0.3861 0.0
H1637 H 0.49203 0.26363 0.37103 0.0
H1638 H 0.52099 0.19034 0.32024 0.0
H1639 H 0.4973 0.10458 0.33038 0.0
H1640 H 0.53998 0.16981 0.37586 0.0
C1641 C 0.59302 0.3693 0.35118 0.0
C1642 C 0.59599 0.39441 0.33674 0.0
C1643 C 0.58193 0.36122 0.32366 0.0
C1644 C 0.5644 0.30764 0.32448 0.0
C1645 C 0.5611 0.28443 0.33854 0.0
C1646 C 0.57579 0.31406 0.35174 0.0
C1647 C 0.56934 0.27752 0.36524 0.0
C1648 C 0.6217 0.29503 0.37302 0.0
C1649 C 0.52976 0.27609 0.37675 0.0
C1650 C 0.54892 0.2237 0.35751 0.0
C1651 C 0.54406 0.22925 0.34206 0.0
C1652 C 0.52492 0.18604 0.33235 0.0
C1653 C 0.51073 0.13648 0.33831 0.0
C1654 C 0.51542 0.12797 0.35404 0.0
C1655 C 0.53552 0.17345 0.36375 0.0
H1656 H 0.19856 0.67306 0.44223 0.0
H1657 H 0.28752 0.765 0.48107 0.0
H1658 H 0.35095 0.82999 0.46356 0.0
H1659 H 0.30755 0.70272 0.41689 0.0
H1660 H 0.27594 0.70744 0.39991 0.0
H1661 H 0.2381 0.66615 0.41534 0.0
H1662 H 0.18542 0.7136 0.41665 0.0
H1663 H 0.2231 0.75513 0.40124 0.0
H1664 H 0.21868 0.78273 0.41913 0.0
H1665 H 0.40567 0.88575 0.44217 0.0
H1666 H 0.44715 0.9306 0.41853 0.0
H1667 H 0.32327 0.80849 0.39202 0.0
C1668 C 0.23166 0.70664 0.44706 0.0
C1669 C 0.2377 0.7132 0.46327 0.0
C1670 C 0.28147 0.75842 0.46889 0.0
C1671 C 0.31795 0.79581 0.45896 0.0
C1672 C 0.31055 0.78858 0.44319 0.0
C1673 C 0.26838 0.74534 0.4372 0.0
C1674 C 0.26917 0.74874 0.4197 0.0
C1675 C 0.27291 0.70356 0.41253 0.0
C1676 C 0.22124 0.75012 0.41383 0.0
C1677 C 0.31862 0.80034 0.41682 0.0
C1678 C 0.34168 0.82211 0.43066 0.0
C1679 C 0.38785 0.86892 0.43131 0.0
C1680 C 0.41139 0.89417 0.41764 0.0
C1681 C 0.38932 0.87363 0.40309 0.0
C1682 C 0.34158 0.8258 0.4028 0.0
H1683 H 0.56238 0.4036 0.58486 0.0
H1684 H 0.55642 0.31421 0.54492 0.0
H1685 H 0.55913 0.24904 0.56157 0.0
H1686 H 0.64759 0.37626 0.60815 0.0
H1687 H 0.6135 0.37009 0.62571 0.0
H1688 H 0.61307 0.41119 0.61073 0.0
H1689 H 0.51281 0.36115 0.61035 0.0
H1690 H 0.51403 0.32161 0.62559 0.0
H1691 H 0.47915 0.29179 0.6083 0.0
H1692 H 0.56373 0.19292 0.58259 0.0
H1693 H 0.56472 0.14818 0.60599 0.0
H1694 H 0.56426 0.26973 0.63325 0.0
C1695 C 0.56206 0.37052 0.57959 0.0
C1696 C 0.55947 0.36479 0.56336 0.0
C1697 C 0.5583 0.32013 0.55716 0.0
C1698 C 0.56 0.28268 0.5666 0.0
C1699 C 0.56239 0.28939 0.58243 0.0
C1700 C 0.56307 0.33204 0.58892 0.0
C1701 C 0.56342 0.32841 0.60635 0.0
C1702 C 0.61231 0.37423 0.61313 0.0
C1703 C 0.5144 0.32553 0.61303 0.0
C1704 C 0.56365 0.27756 0.60865 0.0
C1705 C 0.56327 0.25601 0.59462 0.0
C1706 C 0.56394 0.20959 0.59361 0.0
C1707 C 0.56473 0.18437 0.60712 0.0
C1708 C 0.56455 0.20471 0.62182 0.0
C1709 C 0.5641 0.25242 0.62242 0.0
H1710 H 0.42005 0.55233 0.7747 0.0
H1711 H 0.32142 0.52115 0.81421 0.0
H1712 H 0.25506 0.52365 0.79785 0.0
H1713 H 0.38585 0.6381 0.75487 0.0
H1714 H 0.38542 0.61273 0.73612 0.0
H1715 H 0.42621 0.61017 0.7509 0.0
H1716 H 0.38415 0.51135 0.74714 0.0
H1717 H 0.34334 0.51365 0.73231 0.0
H1718 H 0.31492 0.4716 0.74845 0.0
H1719 H 0.19915 0.53182 0.77719 0.0
H1720 H 0.15592 0.53816 0.754 0.0
H1721 H 0.28614 0.55828 0.72671 0.0
C1722 C 0.38464 0.54639 0.77995 0.0
C1723 C 0.37672 0.53708 0.79598 0.0
C1724 C 0.32905 0.52849 0.80213 0.0
C1725 C 0.29094 0.52996 0.79286 0.0
C1726 C 0.29992 0.53921 0.7772 0.0
C1727 C 0.34536 0.54662 0.77072 0.0
C1728 C 0.34404 0.55358 0.75343 0.0
C1729 C 0.388 0.60681 0.74854 0.0
C1730 C 0.34679 0.50996 0.74482 0.0
C1731 C 0.29122 0.54975 0.75122 0.0
C1732 C 0.26674 0.54184 0.76517 0.0
C1733 C 0.21816 0.53795 0.76625 0.0
C1734 C 0.19387 0.54198 0.75289 0.0
C1735 C 0.2172 0.54927 0.73828 0.0
C1736 C 0.26684 0.55295 0.73757 0.0
H1737 H 0.78703 0.26064 0.89089 0.0
H1738 H 0.64754 0.16182 0.91641 0.0
H1739 H 0.68922 0.20938 0.9399 0.0
H1740 H 0.87828 0.27469 0.92055 0.0
H1741 H 0.923 0.34185 0.91686 0.0
H1742 H 0.88289 0.30043 0.90166 0.0
H1743 H 0.84756 0.36268 0.89665 0.0
H1744 H 0.88763 0.40432 0.91183 0.0
H1745 H 0.81884 0.37971 0.91211 0.0
H1746 H 0.74687 0.26428 0.96143 0.0
H1747 H 0.81432 0.32646 0.97887 0.0
H1748 H 0.91708 0.3964 0.94041 0.0
C1749 C 0.76509 0.24919 0.90139 0.0
C1750 C 0.71324 0.20689 0.90147 0.0
C1751 C 0.68669 0.19381 0.91567 0.0
C1752 C 0.71028 0.22068 0.92925 0.0
C1753 C 0.76093 0.26171 0.92879 0.0
C1754 C 0.78804 0.27648 0.91522 0.0
C1755 C 0.84204 0.32279 0.91811 0.0
C1756 C 0.88404 0.30912 0.91405 0.0
C1757 C 0.84945 0.37019 0.90914 0.0
C1758 C 0.84092 0.33133 0.93535 0.0
C1759 C 0.79372 0.2951 0.94123 0.0
C1760 C 0.78371 0.29314 0.95688 0.0
C1761 C 0.8225 0.32879 0.96676 0.0
C1762 C 0.87116 0.3672 0.96118 0.0
C1763 C 0.88012 0.36839 0.94513 0.0
H1764 H 0.55274 0.81031 0.13386 0.0
H1765 H 0.51074 0.90804 0.10801 0.0
H1766 H 0.51387 0.86563 0.08424 0.0
H1767 H 0.63886 0.80387 0.10605 0.0
H1768 H 0.61827 0.73662 0.10905 0.0
H1769 H 0.61369 0.77479 0.12434 0.0
H1770 H 0.51611 0.70966 0.12708 0.0
H1771 H 0.52053 0.67106 0.1119 0.0
H1772 H 0.47454 0.69355 0.1106 0.0
H1773 H 0.52733 0.81607 0.0624 0.0
H1774 H 0.53783 0.75579 0.04518 0.0
H1775 H 0.56227 0.68249 0.0845 0.0
C1776 C 0.54359 0.82246 0.12324 0.0
C1777 C 0.53153 0.8633 0.12313 0.0
C1778 C 0.52 0.87731 0.10875 0.0
C1779 C 0.52193 0.8534 0.09502 0.0
C1780 C 0.53452 0.81411 0.0955 0.0
C1781 C 0.54411 0.79787 0.10928 0.0
C1782 C 0.55481 0.75324 0.10651 0.0
C1783 C 0.60966 0.76801 0.11181 0.0
C1784 C 0.51407 0.70395 0.1145 0.0
C1785 C 0.54993 0.7472 0.08911 0.0
C1786 C 0.53914 0.78346 0.08299 0.0
C1787 C 0.53517 0.7872 0.06716 0.0
C1788 C 0.54152 0.75282 0.05739 0.0
C1789 C 0.55071 0.71386 0.06329 0.0
C1790 C 0.55491 0.71139 0.07948 0.0
H1791 H 0.77818 0.54467 0.30195 0.0
H1792 H 0.64495 0.52024 0.27521 0.0
H1793 H 0.68949 0.52043 0.25173 0.0
H1794 H 0.87594 0.62909 0.27428 0.0
H1795 H 0.91814 0.60277 0.27731 0.0
H1796 H 0.87699 0.60182 0.29253 0.0
H1797 H 0.83762 0.50294 0.29496 0.0
H1798 H 0.87885 0.50371 0.27979 0.0
H1799 H 0.80982 0.46246 0.27836 0.0
H1800 H 0.74807 0.52489 0.23045 0.0
H1801 H 0.81525 0.52893 0.21319 0.0
H1802 H 0.91228 0.54649 0.25229 0.0
C1803 C 0.75828 0.53917 0.29117 0.0
C1804 C 0.7071 0.532 0.2908 0.0
C1805 C 0.68338 0.52522 0.27622 0.0
C1806 C 0.70866 0.5255 0.26262 0.0
C1807 C 0.75837 0.53228 0.26337 0.0
C1808 C 0.7831 0.53873 0.27724 0.0
C1809 C 0.83661 0.54447 0.27451 0.0
C1810 C 0.87946 0.5977 0.27999 0.0
C1811 C 0.84097 0.50079 0.28238 0.0
C1812 C 0.83755 0.5398 0.25706 0.0
C1813 C 0.79203 0.53342 0.25094 0.0
C1814 C 0.78372 0.52956 0.23517 0.0
C1815 C 0.82244 0.53199 0.22537 0.0
C1816 C 0.86946 0.53759 0.23114 0.0
C1817 C 0.87676 0.54152 0.24735 0.0
H1818 H 0.88257 0.41566 0.41358 0.0
H1819 H 0.87639 0.44655 0.46164 0.0
H1820 H 0.80393 0.35765 0.46508 0.0
H1821 H 0.73792 0.31647 0.40836 0.0
H1822 H 0.7548 0.27961 0.3956 0.0
H1823 H 0.79364 0.34905 0.39618 0.0
H1824 H 0.87434 0.33987 0.40134 0.0
H1825 H 0.83589 0.27076 0.40151 0.0
H1826 H 0.87544 0.3043 0.41781 0.0
H1827 H 0.74822 0.261 0.46435 0.0
H1828 H 0.70378 0.16712 0.45863 0.0
H1829 H 0.75214 0.20098 0.41139 0.0
C1830 C 0.86372 0.40469 0.4246 0.0
C1831 C 0.88445 0.43752 0.43732 0.0
C1832 C 0.86042 0.42159 0.45176 0.0
C1833 C 0.81947 0.37122 0.4538 0.0
C1834 C 0.80298 0.33797 0.44124 0.0
C1835 C 0.82343 0.35452 0.42681 0.0
C1836 C 0.80495 0.31 0.41569 0.0
C1837 C 0.77078 0.31402 0.40322 0.0
C1838 C 0.85037 0.30605 0.4087 0.0
C1839 C 0.77365 0.26565 0.4263 0.0
C1840 C 0.772 0.28227 0.44092 0.0
C1841 C 0.74819 0.24756 0.45286 0.0
C1842 C 0.72394 0.19448 0.44959 0.0
C1843 C 0.72445 0.17709 0.43457 0.0
C1844 C 0.75038 0.2133 0.42292 0.0
H1845 H 0.50652 0.86193 0.58099 0.0
H1846 H 0.40965 0.81897 0.62106 0.0
H1847 H 0.39284 0.7291 0.61868 0.0
H1848 H 0.43814 0.72916 0.56058 0.0
H1849 H 0.49964 0.73787 0.55442 0.0
H1850 H 0.49013 0.79293 0.55615 0.0
H1851 H 0.56951 0.83749 0.57423 0.0
H1852 H 0.57922 0.78302 0.57249 0.0
H1853 H 0.57142 0.80407 0.59113 0.0
H1854 H 0.40085 0.65082 0.61511 0.0
H1855 H 0.44009 0.59519 0.61274 0.0
H1856 H 0.53741 0.69179 0.57608 0.0
C1857 C 0.47986 0.83271 0.58877 0.0
C1858 C 0.4584 0.84629 0.60101 0.0
C1859 C 0.42557 0.80842 0.6115 0.0
C1860 C 0.41559 0.7574 0.61013 0.0
C1861 C 0.43898 0.7453 0.59822 0.0
C1862 C 0.47047 0.78201 0.58768 0.0
C1863 C 0.49935 0.76266 0.57794 0.0
C1864 C 0.48068 0.75521 0.56129 0.0
C1865 C 0.55831 0.79892 0.57904 0.0
C1866 C 0.48264 0.71119 0.58547 0.0
C1867 C 0.44598 0.70077 0.59664 0.0
C1868 C 0.42891 0.65819 0.60623 0.0
C1869 C 0.45178 0.62709 0.6049 0.0
C1870 C 0.4923 0.63962 0.59434 0.0
C1871 C 0.50589 0.68062 0.58404 0.0
H1872 H 0.67062 0.52017 0.74825 0.0
H1873 H 0.56518 0.35506 0.75074 0.0
H1874 H 0.63759 0.33906 0.74535 0.0
H1875 H 0.75662 0.51679 0.71848 0.0
H1876 H 0.81324 0.56824 0.72751 0.0
H1877 H 0.75183 0.5659 0.72926 0.0
H1878 H 0.75997 0.56786 0.75879 0.0
H1879 H 0.8213 0.57045 0.75712 0.0
H1880 H 0.77037 0.51998 0.76815 0.0
H1881 H 0.72399 0.3422 0.74266 0.0
H1882 H 0.81576 0.36421 0.74358 0.0
H1883 H 0.86261 0.52716 0.74363 0.0
C1884 C 0.66259 0.48058 0.74755 0.0
C1885 C 0.61244 0.43889 0.75003 0.0
C1886 C 0.60336 0.38761 0.74879 0.0
C1887 C 0.64421 0.37818 0.74572 0.0
C1888 C 0.69358 0.42043 0.74372 0.0
C1889 C 0.70269 0.4706 0.74452 0.0
C1890 C 0.75952 0.50947 0.74333 0.0
C1891 C 0.77095 0.54201 0.72878 0.0
C1892 C 0.7789 0.54392 0.7577 0.0
C1893 C 0.78138 0.47347 0.74231 0.0
C1894 C 0.7429 0.42223 0.74227 0.0
C1895 C 0.75437 0.38219 0.74249 0.0
C1896 C 0.80648 0.39502 0.74311 0.0
C1897 C 0.84623 0.4474 0.7436 0.0
C1898 C 0.83323 0.48682 0.74286 0.0
H1899 H 0.41869 0.86767 0.94611 0.0
H1900 H 0.46938 0.8378 0.90291 0.0
H1901 H 0.39347 0.74997 0.90228 0.0
H1902 H 0.3485 0.72779 0.96091 0.0
H1903 H 0.2975 0.73675 0.96871 0.0
H1904 H 0.36284 0.79014 0.96822 0.0
H1905 H 0.33117 0.84454 0.95344 0.0
H1906 H 0.26618 0.79148 0.9538 0.0
H1907 H 0.29601 0.81965 0.93581 0.0
H1908 H 0.30623 0.67484 0.90364 0.0
H1909 H 0.21243 0.61929 0.90602 0.0
H1910 H 0.21464 0.69999 0.94764 0.0
C1911 C 0.41469 0.84143 0.93694 0.0
C1912 C 0.44994 0.85822 0.92475 0.0
C1913 C 0.44299 0.82454 0.91248 0.0
C1914 C 0.40019 0.77472 0.91209 0.0
C1915 C 0.36474 0.75963 0.92402 0.0
C1916 C 0.37154 0.79195 0.93627 0.0
C1917 C 0.3235 0.7705 0.94607 0.0
C1918 C 0.33371 0.75539 0.96192 0.0
C1919 C 0.30303 0.8088 0.94733 0.0
C1920 C 0.28752 0.72315 0.93683 0.0
C1921 C 0.31264 0.71663 0.92449 0.0
C1922 C 0.28635 0.67889 0.91343 0.0
C1923 C 0.23282 0.64787 0.9148 0.0
C1924 C 0.20586 0.65507 0.92704 0.0
C1925 C 0.23404 0.69239 0.93839 0.0
H1926 H 0.52705 0.18453 0.10011 0.0
H1927 H 0.68589 0.22857 0.08944 0.0
H1928 H 0.70894 0.32028 0.08946 0.0
H1929 H 0.523 0.27962 0.07562 0.0
H1930 H 0.4812 0.2897 0.08833 0.0
H1931 H 0.47822 0.22789 0.0877 0.0
H1932 H 0.49471 0.23339 0.11691 0.0
H1933 H 0.49844 0.29553 0.11761 0.0
H1934 H 0.55129 0.28836 0.12475 0.0
H1935 H 0.71538 0.40783 0.09288 0.0
H1936 H 0.70148 0.48288 0.09455 0.0
H1937 H 0.5372 0.3794 0.10069 0.0
C1938 C 0.56682 0.21343 0.09791 0.0
C1939 C 0.60517 0.19958 0.09554 0.0
C1940 C 0.65621 0.23834 0.09191 0.0
C1941 C 0.66968 0.29055 0.09185 0.0
C1942 C 0.63125 0.30292 0.09495 0.0
C1943 C 0.58061 0.26531 0.09749 0.0
C1944 C 0.54591 0.28822 0.09975 0.0
C1945 C 0.50467 0.2703 0.08709 0.0
C1946 C 0.52115 0.27562 0.1157 0.0
C1947 C 0.58507 0.34478 0.0983 0.0
C1948 C 0.63422 0.35269 0.09574 0.0
C1949 C 0.6769 0.40208 0.09456 0.0
C1950 C 0.66867 0.44442 0.09552 0.0
C1951 C 0.61805 0.43667 0.0972 0.0
C1952 C 0.57613 0.38628 0.09899 0.0
H1953 H 0.38796 0.5522 0.28837 0.0
H1954 H 0.4706 0.64966 0.24989 0.0
H1955 H 0.40476 0.6764 0.24783 0.0
H1956 H 0.27157 0.50297 0.27573 0.0
H1957 H 0.23935 0.50395 0.29304 0.0
H1958 H 0.29875 0.5027 0.29412 0.0
H1959 H 0.34051 0.58624 0.31049 0.0
H1960 H 0.28054 0.58733 0.30985 0.0
H1961 H 0.33973 0.64291 0.30376 0.0
H1962 H 0.31874 0.672 0.2455 0.0
H1963 H 0.22603 0.64714 0.24572 0.0
H1964 H 0.20476 0.56018 0.28718 0.0
C1965 C 0.39417 0.58137 0.28003 0.0
C1966 C 0.434 0.59777 0.26909 0.0
C1967 C 0.43954 0.63515 0.25814 0.0
C1968 C 0.40265 0.65115 0.25699 0.0
C1969 C 0.36167 0.63111 0.26727 0.0
C1970 C 0.35841 0.59855 0.27896 0.0
C1971 C 0.30809 0.57802 0.28755 0.0
C1972 C 0.2777 0.51843 0.28759 0.0
C1973 C 0.3178 0.59995 0.30388 0.0
C1974 C 0.28153 0.60009 0.27798 0.0
C1975 C 0.31321 0.63138 0.26647 0.0
C1976 C 0.29423 0.64938 0.25482 0.0
C1977 C 0.24158 0.63475 0.25493 0.0
C1978 C 0.20889 0.60268 0.26664 0.0
C1979 C 0.22951 0.58626 0.27842 0.0
loop_
_geom_bond_atom_site_label_1
_geom_bond_atom_site_label_2
_geom_bond_distance
_geom_bond_site_symmetry_2
_ccdc_geom_bond_type
Tb0 N29 2.617 1_565 S
Tb0 N35 2.572 . S
Tb0 O44 2.465 . S
Tb0 O45 2.387 1_565 S
Tb0 O47 2.428 . S
Tb0 O48 2.308 . S
Tb0 O52 2.349 . S
Tb0 O55 2.393 1_565 S
Tb0 C64 2.802 . S
C1 N2 1.379 . S
C1 C4 1.416 . S
C1 C8 1.424 . S
N2 C1 1.379 . S
N2 C5 1.334 . S
N2 Tb11 2.617 1_565 S
C3 C5 1.390 . S
C3 C6 1.339 . S
C3 H23 0.930 . S
C4 C1 1.416 . S
C4 C6 1.416 . S
C4 C10 1.448 . S
C5 N2 1.334 . S
C5 C3 1.390 . S
C5 H16 0.930 . S
C6 C3 1.339 . S
C6 C4 1.416 . S
C6 H27 0.930 . S
C7 C8 1.413 . S
C7 C9 1.427 . S
C7 C13 1.416 1_565 S
C8 C1 1.424 . S
C8 C7 1.413 . S
C8 N12 1.361 1_565 S
C9 C7 1.427 . S
C9 C10 1.328 . S
C9 H24 0.929 . S
C10 C4 1.448 . S
C10 C9 1.328 . S
C10 H25 0.930 . S
Tb11 N2 2.617 1_545 S
Tb11 N12 2.572 . S
Tb11 O46 2.349 . S
Tb11 O49 2.393 1_545 S
Tb11 O50 2.465 . S
Tb11 O51 2.387 1_545 S
Tb11 O53 2.428 . S
Tb11 O54 2.308 . S
Tb11 C75 2.802 . S
N12 C8 1.361 1_545 S
N12 Tb11 2.572 . S
N12 C14 1.340 . S
C13 C7 1.416 1_545 S
C13 C15 1.332 . S
C13 H21 0.931 . S
C14 N12 1.340 . S
C14 C15 1.407 . S
C14 H20 0.930 . S
C15 C13 1.332 . S
C15 C14 1.407 . S
C15 H17 0.929 . S
H16 C5 0.930 . S
H17 C15 0.929 . S
H18 C33 0.930 . S
H19 C40 0.929 . S
H20 C14 0.930 . S
H21 C13 0.931 . S
H22 C36 0.930 . S
H23 C3 0.930 . S
H24 C9 0.929 . S
H25 C10 0.930 . S
H26 C31 0.930 . S
H27 C6 0.930 . S
H28 C39 0.931 . S
N29 Tb0 2.617 1_545 S
N29 C30 1.379 . S
N29 C33 1.334 . S
C30 N29 1.379 . S
C30 C32 1.416 . S
C30 C38 1.424 . S
C31 H26 0.930 . S
C31 C33 1.390 . S
C31 C34 1.339 . S
C32 C30 1.416 . S
C32 C34 1.416 . S
C32 C65 1.448 . S
C33 H18 0.930 . S
C33 N29 1.334 . S
C33 C31 1.390 . S
C34 C31 1.339 . S
C34 C32 1.416 . S
C34 H41 0.930 . S
N35 Tb0 2.572 . S
N35 C36 1.340 . S
N35 C38 1.361 1_565 S
C36 H22 0.930 . S
C36 N35 1.340 . S
C36 C40 1.407 . S
C37 C38 1.413 . S
C37 C39 1.416 1_545 S
C37 C66 1.427 . S
C38 C30 1.424 . S
C38 N35 1.361 1_545 S
C38 C37 1.413 . S
C39 H28 0.931 . S
C39 C37 1.416 1_565 S
C39 C40 1.332 . S
C40 H19 0.929 . S
C40 C36 1.407 . S
C40 C39 1.332 . S
H41 C34 0.930 . S
H42 C65 0.930 . S
H43 C66 0.929 . S
O44 Tb0 2.465 . S
O44 C64 1.264 . S
O45 Tb0 2.387 1_545 S
O45 C56 1.264 . S
O46 Tb11 2.349 . S
O46 C56 1.243 . S
O47 Tb0 2.428 . S
O47 C64 1.256 . S
O48 Tb0 2.308 . S
O48 C63 1.266 . S
O49 Tb11 2.393 1_565 S
O49 C63 1.248 . S
O50 Tb11 2.465 . S
O50 C75 1.264 . S
O51 Tb11 2.387 1_565 S
O51 C67 1.264 . S
O52 Tb0 2.349 . S
O52 C67 1.243 . S
O53 Tb11 2.428 . S
O53 C75 1.256 . S
O54 Tb11 2.308 . S
O54 C74 1.266 . S
O55 Tb0 2.393 1_545 S
O55 C74 1.248 . S
C56 O45 1.264 . S
C56 O46 1.243 . S
C57 C60 1.399 . S
C57 C62 1.383 . S
C57 C64 1.496 . S
C58 C59 1.399 . S
C58 C62 1.389 . S
C59 C58 1.399 . S
C59 C61 1.380 . S
C59 H76 0.929 . S
C60 C57 1.399 . S
C60 C61 1.392 . S
C60 H77 0.929 . S
C61 C59 1.380 . S
C61 C60 1.392 . S
C61 H78 0.929 . S
C62 C57 1.383 . S
C62 C58 1.389 . S
C62 H79 0.931 . S
C63 O48 1.266 . S
C63 O49 1.248 . S
C64 Tb0 2.802 . S
C64 O44 1.264 . S
C64 O47 1.256 . S
C64 C57 1.496 . S
C65 C32 1.448 . S
C65 H42 0.930 . S
C65 C66 1.328 . S
C66 C37 1.427 . S
C66 H43 0.929 . S
C66 C65 1.328 . S
C67 O51 1.264 . S
C67 O52 1.243 . S
C68 C71 1.399 . S
C68 C72 1.383 . S
C68 C75 1.496 . S
C69 C70 1.399 . S
C69 C72 1.389 . S
C70 C69 1.399 . S
C70 C73 1.380 . S
C70 H80 0.929 . S
C71 C68 1.399 . S
C71 C73 1.392 . S
C71 H81 0.929 . S
C72 C68 1.383 . S
C72 C69 1.389 . S
C72 H82 0.931 . S
C73 C70 1.380 . S
C73 C71 1.392 . S
C73 H83 0.929 . S
C74 O54 1.266 . S
C74 O55 1.248 . S
C75 Tb11 2.802 . S
C75 O50 1.264 . S
C75 O53 1.256 . S
C75 C68 1.496 . S
H76 C59 0.929 . S
H77 C60 0.929 . S
H78 C61 0.929 . S
H79 C62 0.931 . S
H80 C70 0.929 . S
H81 C71 0.929 . S
H82 C72 0.931 . S
H83 C73 0.929 . S
Tb84 N113 2.617 . S
Tb84 N119 2.572 . S
Tb84 O128 2.465 . S
Tb84 O129 2.387 . S
Tb84 O131 2.428 . S
Tb84 O132 2.308 . S
Tb84 O136 2.349 . S
Tb84 O139 2.393 . S
Tb84 C148 2.802 . S
C85 N86 1.379 . S
C85 C88 1.416 . S
C85 C92 1.424 . S
N86 C85 1.379 . S
N86 C89 1.334 . S
N86 Tb95 2.617 . S
C87 C89 1.390 . S
C87 C90 1.339 . S
C87 H107 0.930 . S
C88 C85 1.416 . S
C88 C90 1.416 . S
C88 C94 1.448 . S
C89 N86 1.334 . S
C89 C87 1.390 . S
C89 H100 0.930 . S
C90 C87 1.339 . S
C90 C88 1.416 . S
C90 H111 0.930 . S
C91 C92 1.413 . S
C91 C93 1.427 . S
C91 C97 1.416 . S
C92 C85 1.424 . S
C92 C91 1.413 . S
C92 N96 1.361 . S
C93 C91 1.427 . S
C93 C94 1.328 . S
C93 H108 0.929 . S
C94 C88 1.448 . S
C94 C93 1.328 . S
C94 H109 0.930 . S
Tb95 N86 2.617 . S
Tb95 N96 2.572 . S
Tb95 O130 2.349 . S
Tb95 O133 2.393 . S
Tb95 O134 2.465 . S
Tb95 O135 2.387 . S
Tb95 O137 2.428 . S
Tb95 O138 2.308 . S
Tb95 C159 2.802 . S
N96 C92 1.361 . S
N96 Tb95 2.572 . S
N96 C98 1.340 . S
C97 C91 1.416 . S
C97 C99 1.332 . S
C97 H105 0.931 . S
C98 N96 1.340 . S
C98 C99 1.407 . S
C98 H104 0.930 . S
C99 C97 1.332 . S
C99 C98 1.407 . S
C99 H101 0.929 . S
H100 C89 0.930 . S
H101 C99 0.929 . S
H102 C117 0.930 . S
H103 C124 0.929 . S
H104 C98 0.930 . S
H105 C97 0.931 . S
H106 C120 0.930 . S
H107 C87 0.930 . S
H108 C93 0.929 . S
H109 C94 0.930 . S
H110 C115 0.930 . S
H111 C90 0.930 . S
H112 C123 0.931 . S
N113 Tb84 2.617 . S
N113 C114 1.379 . S
N113 C117 1.334 . S
C114 N113 1.379 . S
C114 C116 1.416 . S
C114 C122 1.424 . S
C115 H110 0.930 . S
C115 C117 1.390 . S
C115 C118 1.339 . S
C116 C114 1.416 . S
C116 C118 1.416 . S
C116 C149 1.448 . S
C117 H102 0.930 . S
C117 N113 1.334 . S
C117 C115 1.390 . S
C118 C115 1.339 . S
C118 C116 1.416 . S
C118 H125 0.930 . S
N119 Tb84 2.572 . S
N119 C120 1.340 . S
N119 C122 1.361 . S
C120 H106 0.930 . S
C120 N119 1.340 . S
C120 C124 1.407 . S
C121 C122 1.413 . S
C121 C123 1.416 . S
C121 C150 1.427 . S
C122 C114 1.424 . S
C122 N119 1.361 . S
C122 C121 1.413 . S
C123 H112 0.931 . S
C123 C121 1.416 . S
C123 C124 1.332 . S
C124 H103 0.929 . S
C124 C120 1.407 . S
C124 C123 1.332 . S
H125 C118 0.930 . S
H126 C149 0.930 . S
H127 C150 0.929 . S
O128 Tb84 2.465 . S
O128 C148 1.264 . S
O129 Tb84 2.387 . S
O129 C140 1.264 . S
O130 Tb95 2.349 . S
O130 C140 1.243 . S
O131 Tb84 2.428 . S
O131 C148 1.256 . S
O132 Tb84 2.308 . S
O132 C147 1.266 . S
O133 Tb95 2.393 . S
O133 C147 1.248 . S
O134 Tb95 2.465 . S
O134 C159 1.264 . S
O135 Tb95 2.387 . S
O135 C151 1.264 . S
O136 Tb84 2.349 . S
O136 C151 1.243 . S
O137 Tb95 2.428 . S
O137 C159 1.256 . S
O138 Tb95 2.308 . S
O138 C158 1.266 . S
O139 Tb84 2.393 . S
O139 C158 1.248 . S
C140 O129 1.264 . S
C140 O130 1.243 . S
C141 C144 1.399 . S
C141 C146 1.383 . S
C141 C148 1.496 . S
C142 C143 1.399 . S
C142 C146 1.389 . S
C143 C142 1.399 . S
C143 C145 1.380 . S
C143 H160 0.929 . S
C144 C141 1.399 . S
C144 C145 1.392 . S
C144 H161 0.929 . S
C145 C143 1.380 . S
C145 C144 1.392 . S
C145 H162 0.929 . S
C146 C141 1.383 . S
C146 C142 1.389 . S
C146 H163 0.931 . S
C147 O132 1.266 . S
C147 O133 1.248 . S
C148 Tb84 2.802 . S
C148 O128 1.264 . S
C148 O131 1.256 . S
C148 C141 1.496 . S
C149 C116 1.448 . S
C149 H126 0.930 . S
C149 C150 1.328 . S
C150 C121 1.427 . S
C150 H127 0.929 . S
C150 C149 1.328 . S
C151 O135 1.264 . S
C151 O136 1.243 . S
C152 C155 1.399 . S
C152 C156 1.383 . S
C152 C159 1.496 . S
C153 C154 1.399 . S
C153 C156 1.389 . S
C154 C153 1.399 . S
C154 C157 1.380 . S
C154 H164 0.929 . S
C155 C152 1.399 . S
C155 C157 1.392 . S
C155 H165 0.929 . S
C156 C152 1.383 . S
C156 C153 1.389 . S
C156 H166 0.931 . S
C157 C154 1.380 . S
C157 C155 1.392 . S
C157 H167 0.929 . S
C158 O138 1.266 . S
C158 O139 1.248 . S
C159 Tb95 2.802 . S
C159 O134 1.264 . S
C159 O137 1.256 . S
C159 C152 1.496 . S
H160 C143 0.929 . S
H161 C144 0.929 . S
H162 C145 0.929 . S
H163 C146 0.931 . S
H164 C154 0.929 . S
H165 C155 0.929 . S
H166 C156 0.931 . S
H167 C157 0.929 . S
Tb168 N197 2.617 1_455 S
Tb168 N203 2.572 . S
Tb168 O212 2.465 . S
Tb168 O213 2.387 1_455 S
Tb168 O215 2.428 . S
Tb168 O216 2.308 . S
Tb168 O220 2.349 . S
Tb168 O223 2.393 1_455 S
Tb168 C232 2.802 . S
C169 N170 1.379 . S
C169 C172 1.416 . S
C169 C176 1.424 . S
N170 C169 1.379 . S
N170 C173 1.334 . S
N170 Tb179 2.617 1_455 S
C171 C173 1.390 . S
C171 C174 1.339 . S
C171 H191 0.930 . S
C172 C169 1.416 . S
C172 C174 1.416 . S
C172 C178 1.448 . S
C173 N170 1.334 . S
C173 C171 1.390 . S
C173 H184 0.930 . S
C174 C171 1.339 . S
C174 C172 1.416 . S
C174 H195 0.930 . S
C175 C176 1.413 . S
C175 C177 1.427 . S
C175 C181 1.416 1_455 S
C176 C169 1.424 . S
C176 C175 1.413 . S
C176 N180 1.361 1_455 S
C177 C175 1.427 . S
C177 C178 1.328 . S
C177 H192 0.929 . S
C178 C172 1.448 . S
C178 C177 1.328 . S
C178 H193 0.930 . S
Tb179 N170 2.617 1_655 S
Tb179 N180 2.572 . S
Tb179 O214 2.349 . S
Tb179 O217 2.393 1_655 S
Tb179 O218 2.465 . S
Tb179 O219 2.387 1_655 S
Tb179 O221 2.428 . S
Tb179 O222 2.308 . S
Tb179 C243 2.802 . S
N180 C176 1.361 1_655 S
N180 Tb179 2.572 . S
N180 C182 1.340 . S
C181 C175 1.416 1_655 S
C181 C183 1.332 . S
C181 H189 0.931 . S
C182 N180 1.340 . S
C182 C183 1.407 . S
C182 H188 0.930 . S
C183 C181 1.332 . S
C183 C182 1.407 . S
C183 H185 0.929 . S
H184 C173 0.930 . S
H185 C183 0.929 . S
H186 C201 0.930 . S
H187 C208 0.929 . S
H188 C182 0.930 . S
H189 C181 0.931 . S
H190 C204 0.930 . S
H191 C171 0.930 . S
H192 C177 0.929 . S
H193 C178 0.930 . S
H194 C199 0.930 . S
H195 C174 0.930 . S
H196 C207 0.931 . S
N197 Tb168 2.617 1_655 S
N197 C198 1.379 . S
N197 C201 1.334 . S
C198 N197 1.379 . S
C198 C200 1.416 . S
C198 C206 1.424 . S
C199 H194 0.930 . S
C199 C201 1.390 . S
C199 C202 1.339 . S
C200 C198 1.416 . S
C200 C202 1.416 . S
C200 C233 1.448 . S
C201 H186 0.930 . S
C201 N197 1.334 . S
C201 C199 1.390 . S
C202 C199 1.339 . S
C202 C200 1.416 . S
C202 H209 0.930 . S
N203 Tb168 2.572 . S
N203 C204 1.340 . S
N203 C206 1.361 1_455 S
C204 H190 0.930 . S
C204 N203 1.340 . S
C204 C208 1.407 . S
C205 C206 1.413 . S
C205 C207 1.416 1_655 S
C205 C234 1.427 . S
C206 C198 1.424 . S
C206 N203 1.361 1_655 S
C206 C205 1.413 . S
C207 H196 0.931 . S
C207 C205 1.416 1_455 S
C207 C208 1.332 . S
C208 H187 0.929 . S
C208 C204 1.407 . S
C208 C207 1.332 . S
H209 C202 0.930 . S
H210 C233 0.930 . S
H211 C234 0.929 . S
O212 Tb168 2.465 . S
O212 C232 1.264 . S
O213 Tb168 2.387 1_655 S
O213 C224 1.264 . S
O214 Tb179 2.349 . S
O214 C224 1.243 . S
O215 Tb168 2.428 . S
O215 C232 1.256 . S
O216 Tb168 2.308 . S
O216 C231 1.266 . S
O217 Tb179 2.393 1_455 S
O217 C231 1.248 . S
O218 Tb179 2.465 . S
O218 C243 1.264 . S
O219 Tb179 2.387 1_455 S
O219 C235 1.264 . S
O220 Tb168 2.349 . S
O220 C235 1.243 . S
O221 Tb179 2.428 . S
O221 C243 1.256 . S
O222 Tb179 2.308 . S
O222 C242 1.266 . S
O223 Tb168 2.393 1_655 S
O223 C242 1.248 . S
C224 O213 1.264 . S
C224 O214 1.243 . S
C225 C228 1.399 . S
C225 C230 1.383 . S
C225 C232 1.496 . S
C226 C227 1.399 . S
C226 C230 1.389 . S
C227 C226 1.399 . S
C227 C229 1.380 . S
C227 H244 0.929 . S
C228 C225 1.399 . S
C228 C229 1.392 . S
C228 H245 0.929 . S
C229 C227 1.380 . S
C229 C228 1.392 . S
C229 H246 0.929 . S
C230 C225 1.383 . S
C230 C226 1.389 . S
C230 H247 0.931 . S
C231 O216 1.266 . S
C231 O217 1.248 . S
C232 Tb168 2.802 . S
C232 O212 1.264 . S
C232 O215 1.256 . S
C232 C225 1.496 . S
C233 C200 1.448 . S
C233 H210 0.930 . S
C233 C234 1.328 . S
C234 C205 1.427 . S
C234 H211 0.929 . S
C234 C233 1.328 . S
C235 O219 1.264 . S
C235 O220 1.243 . S
C236 C239 1.399 . S
C236 C240 1.383 . S
C236 C243 1.496 . S
C237 C238 1.399 . S
C237 C240 1.389 . S
C238 C237 1.399 . S
C238 C241 1.380 . S
C238 H248 0.929 . S
C239 C236 1.399 . S
C239 C241 1.392 . S
C239 H249 0.929 . S
C240 C236 1.383 . S
C240 C237 1.389 . S
C240 H250 0.931 . S
C241 C238 1.380 . S
C241 C239 1.392 . S
C241 H251 0.929 . S
C242 O222 1.266 . S
C242 O223 1.248 . S
C243 Tb179 2.802 . S
C243 O218 1.264 . S
C243 O221 1.256 . S
C243 C236 1.496 . S
H244 C227 0.929 . S
H245 C228 0.929 . S
H246 C229 0.929 . S
H247 C230 0.931 . S
H248 C238 0.929 . S
H249 C239 0.929 . S
H250 C240 0.931 . S
H251 C241 0.929 . S
Tb252 N281 2.617 1_545 S
Tb252 N287 2.572 . S
Tb252 O296 2.465 . S
Tb252 O297 2.387 1_545 S
Tb252 O299 2.428 . S
Tb252 O300 2.308 . S
Tb252 O304 2.349 . S
Tb252 O307 2.393 1_545 S
Tb252 C316 2.802 . S
C253 N254 1.379 . S
C253 C256 1.416 . S
C253 C260 1.424 . S
N254 C253 1.379 . S
N254 C257 1.334 . S
N254 Tb263 2.617 1_545 S
C255 C257 1.390 . S
C255 C258 1.339 . S
C255 H275 0.930 . S
C256 C253 1.416 . S
C256 C258 1.416 . S
C256 C262 1.448 . S
C257 N254 1.334 . S
C257 C255 1.390 . S
C257 H268 0.930 . S
C258 C255 1.339 . S
C258 C256 1.416 . S
C258 H279 0.930 . S
C259 C260 1.413 . S
C259 C261 1.427 . S
C259 C265 1.416 1_545 S
C260 C253 1.424 . S
C260 C259 1.413 . S
C260 N264 1.361 1_545 S
C261 C259 1.427 . S
C261 C262 1.328 . S
C261 H276 0.929 . S
C262 C256 1.448 . S
C262 C261 1.328 . S
C262 H277 0.930 . S
Tb263 N254 2.617 1_565 S
Tb263 N264 2.572 . S
Tb263 O298 2.349 . S
Tb263 O301 2.393 1_565 S
Tb263 O302 2.465 . S
Tb263 O303 2.387 1_565 S
Tb263 O305 2.428 . S
Tb263 O306 2.308 . S
Tb263 C327 2.802 . S
N264 C260 1.361 1_565 S
N264 Tb263 2.572 . S
N264 C266 1.340 . S
C265 C259 1.416 1_565 S
C265 C267 1.332 . S
C265 H273 0.931 . S
C266 N264 1.340 . S
C266 C267 1.407 . S
C266 H272 0.930 . S
C267 C265 1.332 . S
C267 C266 1.407 . S
C267 H269 0.929 . S
H268 C257 0.930 . S
H269 C267 0.929 . S
H270 C285 0.930 . S
H271 C292 0.929 . S
H272 C266 0.930 . S
H273 C265 0.931 . S
H274 C288 0.930 . S
H275 C255 0.930 . S
H276 C261 0.929 . S
H277 C262 0.930 . S
H278 C283 0.930 . S
H279 C258 0.930 . S
H280 C291 0.931 . S
N281 Tb252 2.617 1_565 S
N281 C282 1.379 . S
N281 C285 1.334 . S
C282 N281 1.379 . S
C282 C284 1.416 . S
C282 C290 1.424 . S
C283 H278 0.930 . S
C283 C285 1.390 . S
C283 C286 1.339 . S
C284 C282 1.416 . S
C284 C286 1.416 . S
C284 C317 1.448 . S
C285 H270 0.930 . S
C285 N281 1.334 . S
C285 C283 1.390 . S
C286 C283 1.339 . S
C286 C284 1.416 . S
C286 H293 0.930 . S
N287 Tb252 2.572 . S
N287 C288 1.340 . S
N287 C290 1.361 1_545 S
C288 H274 0.930 . S
C288 N287 1.340 . S
C288 C292 1.407 . S
C289 C290 1.413 . S
C289 C291 1.416 1_565 S
C289 C318 1.427 . S
C290 C282 1.424 . S
C290 N287 1.361 1_565 S
C290 C289 1.413 . S
C291 H280 0.931 . S
C291 C289 1.416 1_545 S
C291 C292 1.332 . S
C292 H271 0.929 . S
C292 C288 1.407 . S
C292 C291 1.332 . S
H293 C286 0.930 . S
H294 C317 0.930 . S
H295 C318 0.929 . S
O296 Tb252 2.465 . S
O296 C316 1.264 . S
O297 Tb252 2.387 1_565 S
O297 C308 1.264 . S
O298 Tb263 2.349 . S
O298 C308 1.243 . S
O299 Tb252 2.428 . S
O299 C316 1.256 . S
O300 Tb252 2.308 . S
O300 C315 1.266 . S
O301 Tb263 2.393 1_545 S
O301 C315 1.248 . S
O302 Tb263 2.465 . S
O302 C327 1.264 . S
O303 Tb263 2.387 1_545 S
O303 C319 1.264 . S
O304 Tb252 2.349 . S
O304 C319 1.243 . S
O305 Tb263 2.428 . S
O305 C327 1.256 . S
O306 Tb263 2.308 . S
O306 C326 1.266 . S
O307 Tb252 2.393 1_565 S
O307 C326 1.248 . S
C308 O297 1.264 . S
C308 O298 1.243 . S
C309 C312 1.399 . S
C309 C314 1.383 . S
C309 C316 1.496 . S
C310 C311 1.399 . S
C310 C314 1.389 . S
C311 C310 1.399 . S
C311 C313 1.380 . S
C311 H328 0.929 . S
C312 C309 1.399 . S
C312 C313 1.392 . S
C312 H329 0.929 . S
C313 C311 1.380 . S
C313 C312 1.392 . S
C313 H330 0.929 . S
C314 C309 1.383 . S
C314 C310 1.389 . S
C314 H331 0.931 . S
C315 O300 1.266 . S
C315 O301 1.248 . S
C316 Tb252 2.802 . S
C316 O296 1.264 . S
C316 O299 1.256 . S
C316 C309 1.496 . S
C317 C284 1.448 . S
C317 H294 0.930 . S
C317 C318 1.328 . S
C318 C289 1.427 . S
C318 H295 0.929 . S
C318 C317 1.328 . S
C319 O303 1.264 . S
C319 O304 1.243 . S
C320 C323 1.399 . S
C320 C324 1.383 . S
C320 C327 1.496 . S
C321 C322 1.399 . S
C321 C324 1.389 . S
C322 C321 1.399 . S
C322 C325 1.380 . S
C322 H332 0.929 . S
C323 C320 1.399 . S
C323 C325 1.392 . S
C323 H333 0.929 . S
C324 C320 1.383 . S
C324 C321 1.389 . S
C324 H334 0.931 . S
C325 C322 1.380 . S
C325 C323 1.392 . S
C325 H335 0.929 . S
C326 O306 1.266 . S
C326 O307 1.248 . S
C327 Tb263 2.802 . S
C327 O302 1.264 . S
C327 O305 1.256 . S
C327 C320 1.496 . S
H328 C311 0.929 . S
H329 C312 0.929 . S
H330 C313 0.929 . S
H331 C314 0.931 . S
H332 C322 0.929 . S
H333 C323 0.929 . S
H334 C324 0.931 . S
H335 C325 0.929 . S
Tb336 N365 2.617 . S
Tb336 N371 2.572 . S
Tb336 O380 2.465 . S
Tb336 O381 2.387 . S
Tb336 O383 2.428 1_554 S
Tb336 O384 2.308 . S
Tb336 O388 2.349 . S
Tb336 O391 2.393 . S
Tb336 C400 2.802 1_554 S
C337 N338 1.379 . S
C337 C340 1.416 . S
C337 C344 1.424 . S
N338 C337 1.379 . S
N338 C341 1.334 . S
N338 Tb347 2.617 . S
C339 C341 1.390 . S
C339 C342 1.339 . S
C339 H359 0.930 . S
C340 C337 1.416 . S
C340 C342 1.416 . S
C340 C346 1.448 . S
C341 N338 1.334 . S
C341 C339 1.390 . S
C341 H352 0.930 . S
C342 C339 1.339 . S
C342 C340 1.416 . S
C342 H363 0.930 . S
C343 C344 1.413 . S
C343 C345 1.427 . S
C343 C349 1.416 . S
C344 C337 1.424 . S
C344 C343 1.413 . S
C344 N348 1.361 . S
C345 C343 1.427 . S
C345 C346 1.328 . S
C345 H360 0.929 . S
C346 C340 1.448 . S
C346 C345 1.328 . S
C346 H361 0.930 . S
Tb347 N338 2.617 . S
Tb347 N348 2.572 . S
Tb347 O382 2.349 . S
Tb347 O385 2.393 . S
Tb347 O386 2.465 . S
Tb347 O387 2.387 . S
Tb347 O389 2.428 . S
Tb347 O390 2.308 . S
Tb347 C411 2.802 . S
N348 C344 1.361 . S
N348 Tb347 2.572 . S
N348 C350 1.340 . S
C349 C343 1.416 . S
C349 C351 1.332 . S
C349 H357 0.931 . S
C350 N348 1.340 . S
C350 C351 1.407 . S
C350 H356 0.930 . S
C351 C349 1.332 . S
C351 C350 1.407 . S
C351 H353 0.929 . S
H352 C341 0.930 . S
H353 C351 0.929 . S
H354 C369 0.930 . S
H355 C376 0.929 . S
H356 C350 0.930 . S
H357 C349 0.931 . S
H358 C372 0.930 . S
H359 C339 0.930 . S
H360 C345 0.929 . S
H361 C346 0.930 . S
H362 C367 0.930 . S
H363 C342 0.930 . S
H364 C375 0.931 . S
N365 Tb336 2.617 . S
N365 C366 1.379 . S
N365 C369 1.334 1_554 S
C366 N365 1.379 . S
C366 C368 1.416 . S
C366 C374 1.424 . S
C367 H362 0.930 . S
C367 C369 1.390 . S
C367 C370 1.339 1_556 S
C368 C366 1.416 . S
C368 C370 1.416 . S
C368 C401 1.448 . S
C369 H354 0.930 . S
C369 N365 1.334 1_556 S
C369 C367 1.390 . S
C370 C367 1.339 1_554 S
C370 C368 1.416 . S
C370 H377 0.930 1_554 S
N371 Tb336 2.572 . S
N371 C372 1.340 . S
N371 C374 1.361 . S
C372 H358 0.930 . S
C372 N371 1.340 . S
C372 C376 1.407 . S
C373 C374 1.413 . S
C373 C375 1.416 . S
C373 C402 1.427 . S
C374 C366 1.424 . S
C374 N371 1.361 . S
C374 C373 1.413 . S
C375 H364 0.931 . S
C375 C373 1.416 . S
C375 C376 1.332 . S
C376 H355 0.929 . S
C376 C372 1.407 . S
C376 C375 1.332 . S
H377 C370 0.930 1_556 S
H378 C401 0.930 . S
H379 C402 0.929 . S
O380 Tb336 2.465 . S
O380 C400 1.264 1_554 S
O381 Tb336 2.387 . S
O381 C392 1.264 . S
O382 Tb347 2.349 . S
O382 C392 1.243 . S
O383 Tb336 2.428 1_556 S
O383 C400 1.256 . S
O384 Tb336 2.308 . S
O384 C399 1.266 . S
O385 Tb347 2.393 . S
O385 C399 1.248 . S
O386 Tb347 2.465 . S
O386 C411 1.264 . S
O387 Tb347 2.387 . S
O387 C403 1.264 . S
O388 Tb336 2.349 . S
O388 C403 1.243 . S
O389 Tb347 2.428 . S
O389 C411 1.256 . S
O390 Tb347 2.308 . S
O390 C410 1.266 . S
O391 Tb336 2.393 . S
O391 C410 1.248 . S
C392 O381 1.264 . S
C392 O382 1.243 . S
C393 C396 1.399 . S
C393 C398 1.383 . S
C393 C400 1.496 . S
C394 C395 1.399 . S
C394 C398 1.389 . S
C395 C394 1.399 . S
C395 C397 1.380 . S
C395 H412 0.929 . S
C396 C393 1.399 . S
C396 C397 1.392 . S
C396 H413 0.929 . S
C397 C395 1.380 . S
C397 C396 1.392 . S
C397 H414 0.929 . S
C398 C393 1.383 . S
C398 C394 1.389 . S
C398 H415 0.966 . S
C399 O384 1.266 . S
C399 O385 1.248 . S
C400 Tb336 2.802 1_556 S
C400 O380 1.264 1_556 S
C400 O383 1.256 . S
C400 C393 1.496 . S
C401 C368 1.448 . S
C401 H378 0.930 . S
C401 C402 1.328 . S
C402 C373 1.427 . S
C402 H379 0.929 . S
C402 C401 1.328 . S
C403 O387 1.264 . S
C403 O388 1.243 . S
C404 C407 1.399 . S
C404 C408 1.383 . S
C404 C411 1.496 . S
C405 C406 1.399 . S
C405 C408 1.389 . S
C406 C405 1.399 . S
C406 C409 1.380 . S
C406 H416 0.929 . S
C407 C404 1.399 . S
C407 C409 1.392 . S
C407 H417 0.929 . S
C408 C404 1.383 . S
C408 C405 1.389 . S
C408 H418 0.931 . S
C409 C406 1.380 . S
C409 C407 1.392 . S
C409 H419 0.929 . S
C410 O390 1.266 . S
C410 O391 1.248 . S
C411 Tb347 2.802 . S
C411 O386 1.264 . S
C411 O389 1.256 . S
C411 C404 1.496 . S
H412 C395 0.929 . S
H413 C396 0.929 . S
H414 C397 0.929 . S
H415 C398 0.966 . S
H416 C406 0.929 . S
H417 C407 0.929 . S
H418 C408 0.931 . S
H419 C409 0.929 . S
Tb420 N449 2.617 1_655 S
Tb420 N455 2.572 . S
Tb420 O464 2.465 . S
Tb420 O465 2.387 1_655 S
Tb420 O467 2.428 . S
Tb420 O468 2.308 . S
Tb420 O472 2.349 . S
Tb420 O475 2.393 1_655 S
Tb420 C484 2.802 . S
C421 N422 1.379 . S
C421 C424 1.416 . S
C421 C428 1.424 . S
N422 C421 1.379 . S
N422 C425 1.334 . S
N422 Tb431 2.617 1_655 S
C423 C425 1.390 . S
C423 C426 1.339 . S
C423 H443 0.930 . S
C424 C421 1.416 . S
C424 C426 1.416 . S
C424 C430 1.448 . S
C425 N422 1.334 . S
C425 C423 1.390 . S
C425 H436 0.930 . S
C426 C423 1.339 . S
C426 C424 1.416 . S
C426 H447 0.930 . S
C427 C428 1.413 . S
C427 C429 1.427 . S
C427 C433 1.416 1_655 S
C428 C421 1.424 . S
C428 C427 1.413 . S
C428 N432 1.361 1_655 S
C429 C427 1.427 . S
C429 C430 1.328 . S
C429 H444 0.929 . S
C430 C424 1.448 . S
C430 C429 1.328 . S
C430 H445 0.930 . S
Tb431 N422 2.617 1_455 S
Tb431 N432 2.572 . S
Tb431 O466 2.349 . S
Tb431 O469 2.393 1_455 S
Tb431 O470 2.465 . S
Tb431 O471 2.387 1_455 S
Tb431 O473 2.428 . S
Tb431 O474 2.308 . S
Tb431 C495 2.802 . S
N432 C428 1.361 1_455 S
N432 Tb431 2.572 . S
N432 C434 1.340 . S
C433 C427 1.416 1_455 S
C433 C435 1.332 . S
C433 H441 0.931 . S
C434 N432 1.340 . S
C434 C435 1.407 . S
C434 H440 0.930 . S
C435 C433 1.332 . S
C435 C434 1.407 . S
C435 H437 0.929 . S
H436 C425 0.930 . S
H437 C435 0.929 . S
H438 C453 0.930 . S
H439 C460 0.929 . S
H440 C434 0.930 . S
H441 C433 0.931 . S
H442 C456 0.930 . S
H443 C423 0.930 . S
H444 C429 0.929 . S
H445 C430 0.930 . S
H446 C451 0.930 . S
H447 C426 0.930 . S
H448 C459 0.931 . S
N449 Tb420 2.617 1_455 S
N449 C450 1.379 . S
N449 C453 1.334 . S
C450 N449 1.379 . S
C450 C452 1.416 . S
C450 C458 1.424 . S
C451 H446 0.930 . S
C451 C453 1.390 . S
C451 C454 1.339 . S
C452 C450 1.416 . S
C452 C454 1.416 . S
C452 C485 1.448 . S
C453 H438 0.930 . S
C453 N449 1.334 . S
C453 C451 1.390 . S
C454 C451 1.339 . S
C454 C452 1.416 . S
C454 H461 0.930 . S
N455 Tb420 2.572 . S
N455 C456 1.340 . S
N455 C458 1.361 1_655 S
C456 H442 0.930 . S
C456 N455 1.340 . S
C456 C460 1.407 . S
C457 C458 1.413 . S
C457 C459 1.416 1_455 S
C457 C486 1.427 . S
C458 C450 1.424 . S
C458 N455 1.361 1_455 S
C458 C457 1.413 . S
C459 H448 0.931 . S
C459 C457 1.416 1_655 S
C459 C460 1.332 . S
C460 H439 0.929 . S
C460 C456 1.407 . S
C460 C459 1.332 . S
H461 C454 0.930 . S
H462 C485 0.930 . S
H463 C486 0.929 . S
O464 Tb420 2.465 . S
O464 C484 1.264 . S
O465 Tb420 2.387 1_455 S
O465 C476 1.264 . S
O466 Tb431 2.349 . S
O466 C476 1.243 . S
O467 Tb420 2.428 . S
O467 C484 1.256 . S
O468 Tb420 2.308 . S
O468 C483 1.266 . S
O469 Tb431 2.393 1_655 S
O469 C483 1.248 . S
O470 Tb431 2.465 . S
O470 C495 1.264 . S
O471 Tb431 2.387 1_655 S
O471 C487 1.264 . S
O472 Tb420 2.349 . S
O472 C487 1.243 . S
O473 Tb431 2.428 . S
O473 C495 1.256 . S
O474 Tb431 2.308 . S
O474 C494 1.266 . S
O475 Tb420 2.393 1_455 S
O475 C494 1.248 . S
C476 O465 1.264 . S
C476 O466 1.243 . S
C477 C480 1.399 . S
C477 C482 1.383 . S
C477 C484 1.496 . S
C478 C479 1.399 . S
C478 C482 1.389 . S
C479 C478 1.399 . S
C479 C481 1.380 . S
C479 H496 0.929 . S
C480 C477 1.399 . S
C480 C481 1.392 . S
C480 H497 0.929 . S
C481 C479 1.380 . S
C481 C480 1.392 . S
C481 H498 0.929 . S
C482 C477 1.383 . S
C482 C478 1.389 . S
C482 H499 0.931 . S
C483 O468 1.266 . S
C483 O469 1.248 . S
C484 Tb420 2.802 . S
C484 O464 1.264 . S
C484 O467 1.256 . S
C484 C477 1.496 . S
C485 C452 1.448 . S
C485 H462 0.930 . S
C485 C486 1.328 . S
C486 C457 1.427 . S
C486 H463 0.929 . S
C486 C485 1.328 . S
C487 O471 1.264 . S
C487 O472 1.243 . S
C488 C491 1.399 . S
C488 C492 1.383 . S
C488 C495 1.496 . S
C489 C490 1.399 . S
C489 C492 1.389 . S
C490 C489 1.399 . S
C490 C493 1.380 . S
C490 H500 0.929 . S
C491 C488 1.399 . S
C491 C493 1.392 . S
C491 H501 0.929 . S
C492 C488 1.383 . S
C492 C489 1.389 . S
C492 H502 0.931 . S
C493 C490 1.380 . S
C493 C491 1.392 . S
C493 H503 0.929 . S
C494 O474 1.266 . S
C494 O475 1.248 . S
C495 Tb431 2.802 . S
C495 O470 1.264 . S
C495 O473 1.256 . S
C495 C488 1.496 . S
H496 C479 0.929 . S
H497 C480 0.929 . S
H498 C481 0.929 . S
H499 C482 0.931 . S
H500 C490 0.929 . S
H501 C491 0.929 . S
H502 C492 0.931 . S
H503 C493 0.929 . S
Tb504 N533 2.617 1_455 S
Tb504 N539 2.572 . S
Tb504 O548 2.465 . S
Tb504 O549 2.387 1_455 S
Tb504 O551 2.428 . S
Tb504 O552 2.308 . S
Tb504 O556 2.349 . S
Tb504 O559 2.393 1_455 S
Tb504 C568 2.802 . S
C505 N506 1.379 . S
C505 C508 1.416 . S
C505 C512 1.424 . S
N506 C505 1.379 . S
N506 C509 1.334 . S
N506 Tb515 2.617 1_455 S
C507 C509 1.390 . S
C507 C510 1.339 . S
C507 H527 0.930 . S
C508 C505 1.416 . S
C508 C510 1.416 . S
C508 C514 1.448 . S
C509 N506 1.334 . S
C509 C507 1.390 . S
C509 H520 0.930 . S
C510 C507 1.339 . S
C510 C508 1.416 . S
C510 H531 0.930 . S
C511 C512 1.413 . S
C511 C513 1.427 . S
C511 C517 1.416 1_455 S
C512 C505 1.424 . S
C512 C511 1.413 . S
C512 N516 1.361 1_455 S
C513 C511 1.427 . S
C513 C514 1.328 . S
C513 H528 0.929 . S
C514 C508 1.448 . S
C514 C513 1.328 . S
C514 H529 0.930 . S
Tb515 N506 2.617 1_655 S
Tb515 N516 2.572 . S
Tb515 O550 2.349 . S
Tb515 O553 2.393 1_655 S
Tb515 O554 2.465 . S
Tb515 O555 2.387 1_655 S
Tb515 O557 2.428 . S
Tb515 O558 2.308 . S
Tb515 C579 2.802 . S
N516 C512 1.361 1_655 S
N516 Tb515 2.572 . S
N516 C518 1.340 . S
C517 C511 1.416 1_655 S
C517 C519 1.332 . S
C517 H525 0.931 . S
C518 N516 1.340 . S
C518 C519 1.407 . S
C518 H524 0.930 . S
C519 C517 1.332 . S
C519 C518 1.407 . S
C519 H521 0.929 . S
H520 C509 0.930 . S
H521 C519 0.929 . S
H522 C537 0.930 . S
H523 C544 0.929 . S
H524 C518 0.930 . S
H525 C517 0.931 . S
H526 C540 0.930 . S
H527 C507 0.930 . S
H528 C513 0.929 . S
H529 C514 0.930 . S
H530 C535 0.930 . S
H531 C510 0.930 . S
H532 C543 0.931 . S
N533 Tb504 2.617 1_655 S
N533 C534 1.379 . S
N533 C537 1.334 . S
C534 N533 1.379 . S
C534 C536 1.416 . S
C534 C542 1.424 . S
C535 H530 0.930 . S
C535 C537 1.390 . S
C535 C538 1.339 . S
C536 C534 1.416 . S
C536 C538 1.416 . S
C536 C569 1.448 . S
C537 H522 0.930 . S
C537 N533 1.334 . S
C537 C535 1.390 . S
C538 C535 1.339 . S
C538 C536 1.416 . S
C538 H545 0.930 . S
N539 Tb504 2.572 . S
N539 C540 1.340 . S
N539 C542 1.361 1_455 S
C540 H526 0.930 . S
C540 N539 1.340 . S
C540 C544 1.407 . S
C541 C542 1.413 . S
C541 C543 1.416 1_655 S
C541 C570 1.427 . S
C542 C534 1.424 . S
C542 N539 1.361 1_655 S
C542 C541 1.413 . S
C543 H532 0.931 . S
C543 C541 1.416 1_455 S
C543 C544 1.332 . S
C544 H523 0.929 . S
C544 C540 1.407 . S
C544 C543 1.332 . S
H545 C538 0.930 . S
H546 C569 0.930 . S
H547 C570 0.929 . S
O548 Tb504 2.465 . S
O548 C568 1.264 . S
O549 Tb504 2.387 1_655 S
O549 C560 1.264 . S
O550 Tb515 2.349 . S
O550 C560 1.243 . S
O551 Tb504 2.428 . S
O551 C568 1.256 . S
O552 Tb504 2.308 . S
O552 C567 1.266 . S
O553 Tb515 2.393 1_455 S
O553 C567 1.248 . S
O554 Tb515 2.465 . S
O554 C579 1.264 . S
O555 Tb515 2.387 1_455 S
O555 C571 1.264 . S
O556 Tb504 2.349 . S
O556 C571 1.243 . S
O557 Tb515 2.428 . S
O557 C579 1.256 . S
O558 Tb515 2.308 . S
O558 C578 1.266 . S
O559 Tb504 2.393 1_655 S
O559 C578 1.248 . S
C560 O549 1.264 . S
C560 O550 1.243 . S
C561 C564 1.399 . S
C561 C566 1.383 . S
C561 C568 1.496 . S
C562 C563 1.399 . S
C562 C566 1.389 . S
C563 C562 1.399 . S
C563 C565 1.380 . S
C563 H580 0.929 . S
C564 C561 1.399 . S
C564 C565 1.392 . S
C564 H581 0.929 . S
C565 C563 1.380 . S
C565 C564 1.392 . S
C565 H582 0.929 . S
C566 C561 1.383 . S
C566 C562 1.389 . S
C566 H583 0.931 . S
C567 O552 1.266 . S
C567 O553 1.248 . S
C568 Tb504 2.802 . S
C568 O548 1.264 . S
C568 O551 1.256 . S
C568 C561 1.496 . S
C569 C536 1.448 . S
C569 H546 0.930 . S
C569 C570 1.328 . S
C570 C541 1.427 . S
C570 H547 0.929 . S
C570 C569 1.328 . S
C571 O555 1.264 . S
C571 O556 1.243 . S
C572 C575 1.399 . S
C572 C576 1.383 . S
C572 C579 1.496 . S
C573 C574 1.399 . S
C573 C576 1.389 . S
C574 C573 1.399 . S
C574 C577 1.380 . S
C574 H584 0.929 . S
C575 C572 1.399 . S
C575 C577 1.392 . S
C575 H585 0.929 . S
C576 C572 1.383 . S
C576 C573 1.389 . S
C576 H586 0.931 . S
C577 C574 1.380 . S
C577 C575 1.392 . S
C577 H587 0.929 . S
C578 O558 1.266 . S
C578 O559 1.248 . S
C579 Tb515 2.802 . S
C579 O554 1.264 . S
C579 O557 1.256 . S
C579 C572 1.496 . S
H580 C563 0.929 . S
H581 C564 0.929 . S
H582 C565 0.929 . S
H583 C566 0.931 . S
H584 C574 0.929 . S
H585 C575 0.929 . S
H586 C576 0.931 . S
H587 C577 0.929 . S
Tb588 N617 2.617 1_545 S
Tb588 N623 2.572 . S
Tb588 O632 2.465 . S
Tb588 O633 2.387 1_545 S
Tb588 O635 2.428 . S
Tb588 O636 2.308 . S
Tb588 O640 2.349 . S
Tb588 O643 2.393 1_545 S
Tb588 C652 2.802 . S
C589 N590 1.379 . S
C589 C592 1.416 . S
C589 C596 1.424 . S
N590 C589 1.379 . S
N590 C593 1.334 . S
N590 Tb599 2.617 1_545 S
C591 C593 1.390 . S
C591 C594 1.339 . S
C591 H611 0.930 . S
C592 C589 1.416 . S
C592 C594 1.416 . S
C592 C598 1.448 . S
C593 N590 1.334 . S
C593 C591 1.390 . S
C593 H604 0.930 . S
C594 C591 1.339 . S
C594 C592 1.416 . S
C594 H615 0.930 . S
C595 C596 1.413 . S
C595 C597 1.427 . S
C595 C601 1.416 1_545 S
C596 C589 1.424 . S
C596 C595 1.413 . S
C596 N600 1.361 1_545 S
C597 C595 1.427 . S
C597 C598 1.328 . S
C597 H612 0.929 . S
C598 C592 1.448 . S
C598 C597 1.328 . S
C598 H613 0.930 . S
Tb599 N590 2.617 1_565 S
Tb599 N600 2.572 . S
Tb599 O634 2.349 . S
Tb599 O637 2.393 1_565 S
Tb599 O638 2.465 . S
Tb599 O639 2.387 1_565 S
Tb599 O641 2.428 . S
Tb599 O642 2.308 . S
Tb599 C663 2.802 . S
N600 C596 1.361 1_565 S
N600 Tb599 2.572 . S
N600 C602 1.340 . S
C601 C595 1.416 1_565 S
C601 C603 1.332 . S
C601 H609 0.931 . S
C602 N600 1.340 . S
C602 C603 1.407 . S
C602 H608 0.930 . S
C603 C601 1.332 . S
C603 C602 1.407 . S
C603 H605 0.929 . S
H604 C593 0.930 . S
H605 C603 0.929 . S
H606 C621 0.930 . S
H607 C628 0.929 . S
H608 C602 0.930 . S
H609 C601 0.931 . S
H610 C624 0.930 . S
H611 C591 0.930 . S
H612 C597 0.929 . S
H613 C598 0.930 . S
H614 C619 0.930 . S
H615 C594 0.930 . S
H616 C627 0.931 . S
N617 Tb588 2.617 1_565 S
N617 C618 1.379 . S
N617 C621 1.334 . S
C618 N617 1.379 . S
C618 C620 1.416 . S
C618 C626 1.424 . S
C619 H614 0.930 . S
C619 C621 1.390 . S
C619 C622 1.339 . S
C620 C618 1.416 . S
C620 C622 1.416 . S
C620 C653 1.448 . S
C621 H606 0.930 . S
C621 N617 1.334 . S
C621 C619 1.390 . S
C622 C619 1.339 . S
C622 C620 1.416 . S
C622 H629 0.930 . S
N623 Tb588 2.572 . S
N623 C624 1.340 . S
N623 C626 1.361 1_545 S
C624 H610 0.930 . S
C624 N623 1.340 . S
C624 C628 1.407 . S
C625 C626 1.413 . S
C625 C627 1.416 1_565 S
C625 C654 1.427 . S
C626 C618 1.424 . S
C626 N623 1.361 1_565 S
C626 C625 1.413 . S
C627 H616 0.931 . S
C627 C625 1.416 1_545 S
C627 C628 1.332 . S
C628 H607 0.929 . S
C628 C624 1.407 . S
C628 C627 1.332 . S
H629 C622 0.930 . S
H630 C653 0.930 . S
H631 C654 0.929 . S
O632 Tb588 2.465 . S
O632 C652 1.264 . S
O633 Tb588 2.387 1_565 S
O633 C644 1.264 . S
O634 Tb599 2.349 . S
O634 C644 1.243 . S
O635 Tb588 2.428 . S
O635 C652 1.256 . S
O636 Tb588 2.308 . S
O636 C651 1.266 . S
O637 Tb599 2.393 1_545 S
O637 C651 1.248 . S
O638 Tb599 2.465 . S
O638 C663 1.264 . S
O639 Tb599 2.387 1_545 S
O639 C655 1.264 . S
O640 Tb588 2.349 . S
O640 C655 1.243 . S
O641 Tb599 2.428 . S
O641 C663 1.256 . S
O642 Tb599 2.308 . S
O642 C662 1.266 . S
O643 Tb588 2.393 1_565 S
O643 C662 1.248 . S
C644 O633 1.264 . S
C644 O634 1.243 . S
C645 C648 1.399 . S
C645 C650 1.383 . S
C645 C652 1.496 . S
C646 C647 1.399 . S
C646 C650 1.389 . S
C647 C646 1.399 . S
C647 C649 1.380 . S
C647 H664 0.929 . S
C648 C645 1.399 . S
C648 C649 1.392 . S
C648 H665 0.929 . S
C649 C647 1.380 . S
C649 C648 1.392 . S
C649 H666 0.929 . S
C650 C645 1.383 . S
C650 C646 1.389 . S
C650 H667 0.931 . S
C651 O636 1.266 . S
C651 O637 1.248 . S
C652 Tb588 2.802 . S
C652 O632 1.264 . S
C652 O635 1.256 . S
C652 C645 1.496 . S
C653 C620 1.448 . S
C653 H630 0.930 . S
C653 C654 1.328 . S
C654 C625 1.427 . S
C654 H631 0.929 . S
C654 C653 1.328 . S
C655 O639 1.264 . S
C655 O640 1.243 . S
C656 C659 1.399 . S
C656 C660 1.383 . S
C656 C663 1.496 . S
C657 C658 1.399 . S
C657 C660 1.389 . S
C658 C657 1.399 . S
C658 C661 1.380 . S
C658 H668 0.929 . S
C659 C656 1.399 . S
C659 C661 1.392 . S
C659 H669 0.929 . S
C660 C656 1.383 . S
C660 C657 1.389 . S
C660 H670 0.931 . S
C661 C658 1.380 . S
C661 C659 1.392 . S
C661 H671 0.929 . S
C662 O642 1.266 . S
C662 O643 1.248 . S
C663 Tb599 2.802 . S
C663 O638 1.264 . S
C663 O641 1.256 . S
C663 C656 1.496 . S
H664 C647 0.929 . S
H665 C648 0.929 . S
H666 C649 0.929 . S
H667 C650 0.931 . S
H668 C658 0.929 . S
H669 C659 0.929 . S
H670 C660 0.931 . S
H671 C661 0.929 . S
Tb672 N701 2.617 . S
Tb672 N707 2.572 . S
Tb672 O716 2.465 . S
Tb672 O717 2.387 . S
Tb672 O719 2.428 . S
Tb672 O720 2.308 . S
Tb672 O724 2.349 . S
Tb672 O727 2.393 . S
Tb672 C736 2.802 . S
C673 N674 1.379 . S
C673 C676 1.416 . S
C673 C680 1.424 . S
N674 C673 1.379 . S
N674 C677 1.334 . S
N674 Tb683 2.617 . S
C675 C677 1.390 . S
C675 C678 1.339 . S
C675 H695 0.930 . S
C676 C673 1.416 . S
C676 C678 1.416 . S
C676 C682 1.448 . S
C677 N674 1.334 . S
C677 C675 1.390 . S
C677 H688 0.930 . S
C678 C675 1.339 . S
C678 C676 1.416 . S
C678 H699 0.930 . S
C679 C680 1.413 . S
C679 C681 1.427 . S
C679 C685 1.416 . S
C680 C673 1.424 . S
C680 C679 1.413 . S
C680 N684 1.361 . S
C681 C679 1.427 . S
C681 C682 1.328 . S
C681 H696 0.929 . S
C682 C676 1.448 . S
C682 C681 1.328 . S
C682 H697 0.930 . S
Tb683 N674 2.617 . S
Tb683 N684 2.572 . S
Tb683 O718 2.349 . S
Tb683 O721 2.393 . S
Tb683 O722 2.465 . S
Tb683 O723 2.387 . S
Tb683 O725 2.428 . S
Tb683 O726 2.308 . S
Tb683 C747 2.802 . S
N684 C680 1.361 . S
N684 Tb683 2.572 . S
N684 C686 1.340 . S
C685 C679 1.416 . S
C685 C687 1.332 . S
C685 H693 0.931 . S
C686 N684 1.340 . S
C686 C687 1.407 . S
C686 H692 0.930 . S
C687 C685 1.332 . S
C687 C686 1.407 . S
C687 H689 0.929 . S
H688 C677 0.930 . S
H689 C687 0.929 . S
H690 C705 0.930 . S
H691 C712 0.929 . S
H692 C686 0.930 . S
H693 C685 0.931 . S
H694 C708 0.930 . S
H695 C675 0.930 . S
H696 C681 0.929 . S
H697 C682 0.930 . S
H698 C703 0.930 . S
H699 C678 0.930 . S
H700 C711 0.931 . S
N701 Tb672 2.617 . S
N701 C702 1.379 . S
N701 C705 1.334 . S
C702 N701 1.379 . S
C702 C704 1.416 . S
C702 C710 1.424 . S
C703 H698 0.930 . S
C703 C705 1.390 . S
C703 C706 1.339 . S
C704 C702 1.416 . S
C704 C706 1.416 . S
C704 C737 1.448 . S
C705 H690 0.930 . S
C705 N701 1.334 . S
C705 C703 1.390 . S
C706 C703 1.339 . S
C706 C704 1.416 . S
C706 H713 0.930 . S
N707 Tb672 2.572 . S
N707 C708 1.340 . S
N707 C710 1.361 . S
C708 H694 0.930 . S
C708 N707 1.340 . S
C708 C712 1.407 . S
C709 C710 1.413 . S
C709 C711 1.416 . S
C709 C738 1.427 . S
C710 C702 1.424 . S
C710 N707 1.361 . S
C710 C709 1.413 . S
C711 H700 0.931 . S
C711 C709 1.416 . S
C711 C712 1.332 . S
C712 H691 0.929 . S
C712 C708 1.407 . S
C712 C711 1.332 . S
H713 C706 0.930 . S
H714 C737 0.930 . S
H715 C738 0.929 . S
O716 Tb672 2.465 . S
O716 C736 1.264 . S
O717 Tb672 2.387 . S
O717 C728 1.264 . S
O718 Tb683 2.349 . S
O718 C728 1.243 . S
O719 Tb672 2.428 . S
O719 C736 1.256 . S
O720 Tb672 2.308 . S
O720 C735 1.266 . S
O721 Tb683 2.393 . S
O721 C735 1.248 . S
O722 Tb683 2.465 . S
O722 C747 1.264 . S
O723 Tb683 2.387 . S
O723 C739 1.264 . S
O724 Tb672 2.349 . S
O724 C739 1.243 . S
O725 Tb683 2.428 . S
O725 C747 1.256 . S
O726 Tb683 2.308 . S
O726 C746 1.266 . S
O727 Tb672 2.393 . S
O727 C746 1.248 . S
C728 O717 1.264 . S
C728 O718 1.243 . S
C729 C732 1.399 . S
C729 C734 1.383 . S
C729 C736 1.496 . S
C730 C731 1.399 . S
C730 C734 1.389 . S
C731 C730 1.399 . S
C731 C733 1.380 . S
C731 H748 0.929 . S
C732 C729 1.399 . S
C732 C733 1.392 . S
C732 H749 0.929 . S
C733 C731 1.380 . S
C733 C732 1.392 . S
C733 H750 0.929 . S
C734 C729 1.383 . S
C734 C730 1.389 . S
C734 H751 0.931 . S
C735 O720 1.266 . S
C735 O721 1.248 . S
C736 Tb672 2.802 . S
C736 O716 1.264 . S
C736 O719 1.256 . S
C736 C729 1.496 . S
C737 C704 1.448 . S
C737 H714 0.930 . S
C737 C738 1.328 . S
C738 C709 1.427 . S
C738 H715 0.929 . S
C738 C737 1.328 . S
C739 O723 1.264 . S
C739 O724 1.243 . S
C740 C743 1.399 . S
C740 C744 1.383 . S
C740 C747 1.496 . S
C741 C742 1.399 . S
C741 C744 1.389 . S
C742 C741 1.399 . S
C742 C745 1.380 . S
C742 H752 0.929 . S
C743 C740 1.399 . S
C743 C745 1.392 . S
C743 H753 0.929 . S
C744 C740 1.383 . S
C744 C741 1.389 . S
C744 H754 0.931 . S
C745 C742 1.380 . S
C745 C743 1.392 . S
C745 H755 0.929 . S
C746 O726 1.266 . S
C746 O727 1.248 . S
C747 Tb683 2.802 . S
C747 O722 1.264 . S
C747 O725 1.256 . S
C747 C740 1.496 . S
H748 C731 0.929 . S
H749 C732 0.929 . S
H750 C733 0.929 . S
H751 C734 0.931 . S
H752 C742 0.929 . S
H753 C743 0.929 . S
H754 C744 0.931 . S
H755 C745 0.929 . S
Tb756 N785 2.617 1_655 S
Tb756 N791 2.572 . S
Tb756 O800 2.465 . S
Tb756 O801 2.387 1_655 S
Tb756 O803 2.428 1_556 S
Tb756 O804 2.308 . S
Tb756 O808 2.349 . S
Tb756 O811 2.393 1_655 S
Tb756 C820 2.802 1_556 S
C757 N758 1.379 . S
C757 C760 1.416 . S
C757 C764 1.424 . S
N758 C757 1.379 . S
N758 C761 1.334 . S
N758 Tb767 2.617 1_655 S
C759 C761 1.390 . S
C759 C762 1.339 . S
C759 H779 0.930 . S
C760 C757 1.416 . S
C760 C762 1.416 . S
C760 C766 1.448 . S
C761 N758 1.334 . S
C761 C759 1.390 . S
C761 H772 0.930 . S
C762 C759 1.339 . S
C762 C760 1.416 . S
C762 H783 0.930 . S
C763 C764 1.413 . S
C763 C765 1.427 . S
C763 C769 1.416 1_655 S
C764 C757 1.424 . S
C764 C763 1.413 . S
C764 N768 1.361 1_655 S
C765 C763 1.427 . S
C765 C766 1.328 . S
C765 H780 0.929 . S
C766 C760 1.448 . S
C766 C765 1.328 . S
C766 H781 0.930 . S
Tb767 N758 2.617 1_455 S
Tb767 N768 2.572 . S
Tb767 O802 2.349 . S
Tb767 O805 2.393 1_455 S
Tb767 O806 2.465 . S
Tb767 O807 2.387 1_455 S
Tb767 O809 2.428 . S
Tb767 O810 2.308 . S
Tb767 C831 2.802 . S
N768 C764 1.361 1_455 S
N768 Tb767 2.572 . S
N768 C770 1.340 . S
C769 C763 1.416 1_455 S
C769 C771 1.332 . S
C769 H777 0.931 . S
C770 N768 1.340 . S
C770 C771 1.407 . S
C770 H776 0.930 . S
C771 C769 1.332 . S
C771 C770 1.407 . S
C771 H773 0.929 . S
H772 C761 0.930 . S
H773 C771 0.929 . S
H774 C789 0.930 . S
H775 C796 0.929 . S
H776 C770 0.930 . S
H777 C769 0.931 . S
H778 C792 0.930 . S
H779 C759 0.930 . S
H780 C765 0.929 . S
H781 C766 0.930 . S
H782 C787 0.930 . S
H783 C762 0.930 . S
H784 C795 0.931 . S
N785 Tb756 2.617 1_455 S
N785 C786 1.379 . S
N785 C789 1.334 1_556 S
C786 N785 1.379 . S
C786 C788 1.416 . S
C786 C794 1.424 . S
C787 H782 0.930 . S
C787 C789 1.390 . S
C787 C790 1.341 1_554 S
C788 C786 1.416 . S
C788 C790 1.414 . S
C788 C821 1.448 . S
C789 H774 0.930 . S
C789 N785 1.334 1_554 S
C789 C787 1.390 . S
C790 C787 1.341 1_556 S
C790 C788 1.414 . S
C790 H797 0.931 1_556 S
N791 Tb756 2.572 . S
N791 C792 1.340 . S
N791 C794 1.361 1_655 S
C792 H778 0.930 . S
C792 N791 1.340 . S
C792 C796 1.407 . S
C793 C794 1.413 . S
C793 C795 1.416 1_455 S
C793 C822 1.427 . S
C794 C786 1.424 . S
C794 N791 1.361 1_455 S
C794 C793 1.413 . S
C795 H784 0.931 . S
C795 C793 1.416 1_655 S
C795 C796 1.332 . S
C796 H775 0.929 . S
C796 C792 1.407 . S
C796 C795 1.332 . S
H797 C790 0.931 1_554 S
H798 C821 0.930 . S
H799 C822 0.929 . S
O800 Tb756 2.465 . S
O800 C820 1.264 1_556 S
O801 Tb756 2.387 1_455 S
O801 C812 1.264 . S
O802 Tb767 2.349 . S
O802 C812 1.243 . S
O803 Tb756 2.428 1_554 S
O803 C820 1.256 . S
O804 Tb756 2.308 . S
O804 C819 1.266 . S
O805 Tb767 2.393 1_655 S
O805 C819 1.248 . S
O806 Tb767 2.465 . S
O806 C831 1.264 . S
O807 Tb767 2.387 1_655 S
O807 C823 1.264 . S
O808 Tb756 2.349 . S
O808 C823 1.243 . S
O809 Tb767 2.428 . S
O809 C831 1.256 . S
O810 Tb767 2.308 . S
O810 C830 1.266 . S
O811 Tb756 2.393 1_455 S
O811 C830 1.248 . S
C812 O801 1.264 . S
C812 O802 1.243 . S
C813 C816 1.399 . S
C813 C818 1.383 . S
C813 C820 1.496 . S
C814 C815 1.399 . S
C814 C818 1.389 . S
C815 C814 1.399 . S
C815 C817 1.380 . S
C815 H832 0.929 . S
C816 C813 1.399 . S
C816 C817 1.392 . S
C816 H833 0.929 . S
C817 C815 1.380 . S
C817 C816 1.392 . S
C817 H834 0.929 . S
C818 C813 1.383 . S
C818 C814 1.389 . S
C818 H835 0.931 . S
C819 O804 1.266 . S
C819 O805 1.248 . S
C820 Tb756 2.802 1_554 S
C820 O800 1.264 1_554 S
C820 O803 1.256 . S
C820 C813 1.496 . S
C821 C788 1.448 . S
C821 H798 0.930 . S
C821 C822 1.328 . S
C822 C793 1.427 . S
C822 H799 0.929 . S
C822 C821 1.328 . S
C823 O807 1.264 . S
C823 O808 1.243 . S
C824 C827 1.399 . S
C824 C828 1.383 . S
C824 C831 1.496 . S
C825 C826 1.399 . S
C825 C828 1.389 . S
C826 C825 1.399 . S
C826 C829 1.380 . S
C826 H836 0.929 . S
C827 C824 1.399 . S
C827 C829 1.392 . S
C827 H837 0.929 . S
C828 C824 1.383 . S
C828 C825 1.389 . S
C828 H838 0.931 . S
C829 C826 1.380 . S
C829 C827 1.392 . S
C829 H839 0.929 . S
C830 O810 1.266 . S
C830 O811 1.248 . S
C831 Tb767 2.802 . S
C831 O806 1.264 . S
C831 O809 1.256 . S
C831 C824 1.496 . S
H832 C815 0.929 . S
H833 C816 0.929 . S
H834 C817 0.929 . S
H835 C818 0.931 . S
H836 C826 0.929 . S
H837 C827 0.929 . S
H838 C828 0.931 . S
H839 C829 0.929 . S
Tb840 N869 2.617 1_565 S
Tb840 N875 2.572 . S
Tb840 O884 2.465 . S
Tb840 O885 2.387 1_565 S
Tb840 O887 2.428 . S
Tb840 O888 2.308 . S
Tb840 O892 2.349 . S
Tb840 O895 2.393 1_565 S
Tb840 C904 2.802 . S
C841 N842 1.379 . S
C841 C844 1.416 . S
C841 C848 1.424 . S
N842 C841 1.379 . S
N842 C845 1.334 . S
N842 Tb851 2.617 1_565 S
C843 C845 1.390 . S
C843 C846 1.339 . S
C843 H863 0.930 . S
C844 C841 1.416 . S
C844 C846 1.416 . S
C844 C850 1.448 . S
C845 N842 1.334 . S
C845 C843 1.390 . S
C845 H856 0.930 . S
C846 C843 1.339 . S
C846 C844 1.416 . S
C846 H867 0.930 . S
C847 C848 1.413 . S
C847 C849 1.427 . S
C847 C853 1.416 1_565 S
C848 C841 1.424 . S
C848 C847 1.413 . S
C848 N852 1.361 1_565 S
C849 C847 1.427 . S
C849 C850 1.328 . S
C849 H864 0.929 . S
C850 C844 1.448 . S
C850 C849 1.328 . S
C850 H865 0.930 . S
Tb851 N842 2.617 1_545 S
Tb851 N852 2.572 . S
Tb851 O886 2.349 . S
Tb851 O889 2.393 1_545 S
Tb851 O890 2.465 . S
Tb851 O891 2.387 1_545 S
Tb851 O893 2.428 . S
Tb851 O894 2.308 . S
Tb851 C915 2.802 . S
N852 C848 1.361 1_545 S
N852 Tb851 2.572 . S
N852 C854 1.340 . S
C853 C847 1.416 1_545 S
C853 C855 1.332 . S
C853 H861 0.931 . S
C854 N852 1.340 . S
C854 C855 1.407 . S
C854 H860 0.930 . S
C855 C853 1.332 . S
C855 C854 1.407 . S
C855 H857 0.929 . S
H856 C845 0.930 . S
H857 C855 0.929 . S
H858 C873 0.930 . S
H859 C880 0.929 . S
H860 C854 0.930 . S
H861 C853 0.931 . S
H862 C876 0.930 . S
H863 C843 0.930 . S
H864 C849 0.929 . S
H865 C850 0.930 . S
H866 C871 0.930 . S
H867 C846 0.930 . S
H868 C879 0.931 . S
N869 Tb840 2.617 1_545 S
N869 C870 1.379 . S
N869 C873 1.334 . S
C870 N869 1.379 . S
C870 C872 1.416 . S
C870 C878 1.424 . S
C871 H866 0.930 . S
C871 C873 1.390 . S
C871 C874 1.339 . S
C872 C870 1.416 . S
C872 C874 1.416 . S
C872 C905 1.448 . S
C873 H858 0.930 . S
C873 N869 1.334 . S
C873 C871 1.390 . S
C874 C871 1.339 . S
C874 C872 1.416 . S
C874 H881 0.930 . S
N875 Tb840 2.572 . S
N875 C876 1.340 . S
N875 C878 1.361 1_565 S
C876 H862 0.930 . S
C876 N875 1.340 . S
C876 C880 1.407 . S
C877 C878 1.413 . S
C877 C879 1.416 1_545 S
C877 C906 1.427 . S
C878 C870 1.424 . S
C878 N875 1.361 1_545 S
C878 C877 1.413 . S
C879 H868 0.931 . S
C879 C877 1.416 1_565 S
C879 C880 1.332 . S
C880 H859 0.929 . S
C880 C876 1.407 . S
C880 C879 1.332 . S
H881 C874 0.930 . S
H882 C905 0.930 . S
H883 C906 0.929 . S
O884 Tb840 2.465 . S
O884 C904 1.264 . S
O885 Tb840 2.387 1_545 S
O885 C896 1.264 . S
O886 Tb851 2.349 . S
O886 C896 1.243 . S
O887 Tb840 2.428 . S
O887 C904 1.256 . S
O888 Tb840 2.308 . S
O888 C903 1.266 . S
O889 Tb851 2.393 1_565 S
O889 C903 1.248 . S
O890 Tb851 2.465 . S
O890 C915 1.264 . S
O891 Tb851 2.387 1_565 S
O891 C907 1.264 . S
O892 Tb840 2.349 . S
O892 C907 1.243 . S
O893 Tb851 2.428 . S
O893 C915 1.256 . S
O894 Tb851 2.308 . S
O894 C914 1.266 . S
O895 Tb840 2.393 1_545 S
O895 C914 1.248 . S
C896 O885 1.264 . S
C896 O886 1.243 . S
C897 C900 1.399 . S
C897 C902 1.383 . S
C897 C904 1.496 . S
C898 C899 1.399 . S
C898 C902 1.389 . S
C899 C898 1.399 . S
C899 C901 1.380 . S
C899 H916 0.929 . S
C900 C897 1.399 . S
C900 C901 1.392 . S
C900 H917 0.929 . S
C901 C899 1.380 . S
C901 C900 1.392 . S
C901 H918 0.929 . S
C902 C897 1.383 . S
C902 C898 1.389 . S
C902 H919 0.931 . S
C903 O888 1.266 . S
C903 O889 1.248 . S
C904 Tb840 2.802 . S
C904 O884 1.264 . S
C904 O887 1.256 . S
C904 C897 1.496 . S
C905 C872 1.448 . S
C905 H882 0.930 . S
C905 C906 1.328 . S
C906 C877 1.427 . S
C906 H883 0.929 . S
C906 C905 1.328 . S
C907 O891 1.264 . S
C907 O892 1.243 . S
C908 C911 1.399 . S
C908 C912 1.383 . S
C908 C915 1.496 . S
C909 C910 1.399 . S
C909 C912 1.389 . S
C910 C909 1.399 . S
C910 C913 1.380 . S
C910 H920 0.929 . S
C911 C908 1.399 . S
C911 C913 1.392 . S
C911 H921 0.929 . S
C912 C908 1.383 . S
C912 C909 1.389 . S
C912 H922 0.931 . S
C913 C910 1.380 . S
C913 C911 1.392 . S
C913 H923 0.929 . S
C914 O894 1.266 . S
C914 O895 1.248 . S
C915 Tb851 2.802 . S
C915 O890 1.264 . S
C915 O893 1.256 . S
C915 C908 1.496 . S
H916 C899 0.929 . S
H917 C900 0.929 . S
H918 C901 0.929 . S
H919 C902 0.931 . S
H920 C910 0.929 . S
H921 C911 0.929 . S
H922 C912 0.931 . S
H923 C913 0.929 . S
Tb924 N953 2.617 . S
Tb924 N959 2.572 . S
Tb924 O968 2.465 . S
Tb924 O969 2.387 . S
Tb924 O971 2.428 . S
Tb924 O972 2.308 . S
Tb924 O976 2.349 . S
Tb924 O979 2.393 . S
Tb924 C988 2.802 . S
C925 N926 1.379 . S
C925 C928 1.416 . S
C925 C932 1.424 . S
N926 C925 1.379 . S
N926 C929 1.334 . S
N926 Tb935 2.617 . S
C927 C929 1.390 . S
C927 C930 1.339 . S
C927 H947 0.930 . S
C928 C925 1.416 . S
C928 C930 1.416 . S
C928 C934 1.448 . S
C929 N926 1.334 . S
C929 C927 1.390 . S
C929 H940 0.930 . S
C930 C927 1.339 . S
C930 C928 1.416 . S
C930 H951 0.930 . S
C931 C932 1.413 . S
C931 C933 1.427 . S
C931 C937 1.416 . S
C932 C925 1.424 . S
C932 C931 1.413 . S
C932 N936 1.361 . S
C933 C931 1.427 . S
C933 C934 1.328 . S
C933 H948 0.929 . S
C934 C928 1.448 . S
C934 C933 1.328 . S
C934 H949 0.930 . S
Tb935 N926 2.617 . S
Tb935 N936 2.572 . S
Tb935 O970 2.349 . S
Tb935 O973 2.393 . S
Tb935 O974 2.465 . S
Tb935 O975 2.387 . S
Tb935 O977 2.428 . S
Tb935 O978 2.308 . S
Tb935 C999 2.802 . S
N936 C932 1.361 . S
N936 Tb935 2.572 . S
N936 C938 1.340 . S
C937 C931 1.416 . S
C937 C939 1.332 . S
C937 H945 0.931 . S
C938 N936 1.340 . S
C938 C939 1.407 . S
C938 H944 0.930 . S
C939 C937 1.332 . S
C939 C938 1.407 . S
C939 H941 0.929 . S
H940 C929 0.930 . S
H941 C939 0.929 . S
H942 C957 0.930 . S
H943 C964 0.929 . S
H944 C938 0.930 . S
H945 C937 0.931 . S
H946 C960 0.930 . S
H947 C927 0.930 . S
H948 C933 0.929 . S
H949 C934 0.930 . S
H950 C955 0.930 . S
H951 C930 0.930 . S
H952 C963 0.931 . S
N953 Tb924 2.617 . S
N953 C954 1.379 . S
N953 C957 1.334 . S
C954 N953 1.379 . S
C954 C956 1.416 . S
C954 C962 1.424 . S
C955 H950 0.930 . S
C955 C957 1.390 . S
C955 C958 1.339 . S
C956 C954 1.416 . S
C956 C958 1.416 . S
C956 C989 1.448 . S
C957 H942 0.930 . S
C957 N953 1.334 . S
C957 C955 1.390 . S
C958 C955 1.339 . S
C958 C956 1.416 . S
C958 H965 0.930 . S
N959 Tb924 2.572 . S
N959 C960 1.340 . S
N959 C962 1.361 . S
C960 H946 0.930 . S
C960 N959 1.340 . S
C960 C964 1.407 . S
C961 C962 1.413 . S
C961 C963 1.416 . S
C961 C990 1.427 . S
C962 C954 1.424 . S
C962 N959 1.361 . S
C962 C961 1.413 . S
C963 H952 0.931 . S
C963 C961 1.416 . S
C963 C964 1.332 . S
C964 H943 0.929 . S
C964 C960 1.407 . S
C964 C963 1.332 . S
H965 C958 0.930 . S
H966 C989 0.930 . S
H967 C990 0.929 . S
O968 Tb924 2.465 . S
O968 C988 1.264 . S
O969 Tb924 2.387 . S
O969 C980 1.264 . S
O970 Tb935 2.349 . S
O970 C980 1.243 . S
O971 Tb924 2.428 . S
O971 C988 1.256 . S
O972 Tb924 2.308 . S
O972 C987 1.266 . S
O973 Tb935 2.393 . S
O973 C987 1.248 . S
O974 Tb935 2.465 . S
O974 C999 1.264 . S
O975 Tb935 2.387 . S
O975 C991 1.264 . S
O976 Tb924 2.349 . S
O976 C991 1.243 . S
O977 Tb935 2.428 . S
O977 C999 1.256 . S
O978 Tb935 2.308 . S
O978 C998 1.266 . S
O979 Tb924 2.393 . S
O979 C998 1.248 . S
C980 O969 1.264 . S
C980 O970 1.243 . S
C981 C984 1.399 . S
C981 C986 1.383 . S
C981 C988 1.496 . S
C982 C983 1.399 . S
C982 C986 1.389 . S
C983 C982 1.399 . S
C983 C985 1.380 . S
C983 H1000 0.929 . S
C984 C981 1.399 . S
C984 C985 1.392 . S
C984 H1001 0.929 . S
C985 C983 1.380 . S
C985 C984 1.392 . S
C985 H1002 0.929 . S
C986 C981 1.383 . S
C986 C982 1.389 . S
C986 H1003 0.931 . S
C987 O972 1.266 . S
C987 O973 1.248 . S
C988 Tb924 2.802 . S
C988 O968 1.264 . S
C988 O971 1.256 . S
C988 C981 1.496 . S
C989 C956 1.448 . S
C989 H966 0.930 . S
C989 C990 1.328 . S
C990 C961 1.427 . S
C990 H967 0.929 . S
C990 C989 1.328 . S
C991 O975 1.264 . S
C991 O976 1.243 . S
C992 C995 1.399 . S
C992 C996 1.383 . S
C992 C999 1.496 . S
C993 C994 1.399 . S
C993 C996 1.389 . S
C994 C993 1.399 . S
C994 C997 1.380 . S
C994 H1004 0.929 . S
C995 C992 1.399 . S
C995 C997 1.392 . S
C995 H1005 0.929 . S
C996 C992 1.383 . S
C996 C993 1.389 . S
C996 H1006 0.931 . S
C997 C994 1.380 . S
C997 C995 1.392 . S
C997 H1007 0.929 . S
C998 O978 1.266 . S
C998 O979 1.248 . S
C999 Tb935 2.802 . S
C999 O974 1.264 . S
C999 O977 1.256 . S
C999 C992 1.496 . S
H1000 C983 0.929 . S
H1001 C984 0.929 . S
H1002 C985 0.929 . S
H1003 C986 0.931 . S
H1004 C994 0.929 . S
H1005 C995 0.929 . S
H1006 C996 0.931 . S
H1007 C997 0.929 . S
H1008 C1020 0.930 . S
H1009 C1022 0.930 . S
H1010 C1023 0.930 . S
H1011 C1027 0.959 . S
H1012 C1027 0.959 . S
H1013 C1027 0.961 . S
H1014 C1028 0.960 . S
H1015 C1028 0.961 . S
H1016 C1028 0.959 . S
H1017 C1031 0.929 . S
H1018 C1032 0.931 . S
H1019 C1034 0.930 . S
C1020 H1008 0.930 . S
C1020 C1021 1.399 . S
C1020 C1025 1.399 . S
C1021 C1020 1.399 . S
C1021 C1022 1.376 . S
C1022 H1009 0.930 . S
C1022 C1021 1.376 . S
C1022 C1023 1.388 . S
C1023 H1010 0.930 . S
C1023 C1022 1.388 . S
C1023 C1024 1.390 . S
C1024 C1023 1.390 . S
C1024 C1025 1.394 . S
C1024 C1030 1.465 . S
C1025 C1020 1.399 . S
C1025 C1024 1.394 . S
C1025 C1026 1.516 . S
C1026 C1025 1.516 . S
C1026 C1027 1.502 . S
C1026 C1028 1.561 . S
C1026 C1029 1.526 . S
C1027 H1011 0.959 . S
C1027 H1012 0.959 . S
C1027 H1013 0.961 . S
C1027 C1026 1.502 . S
C1028 H1014 0.960 . S
C1028 H1015 0.961 . S
C1028 H1016 0.959 . S
C1028 C1026 1.561 . S
C1029 C1026 1.526 . S
C1029 C1030 1.396 . S
C1029 C1034 1.390 . S
C1030 C1024 1.465 . S
C1030 C1029 1.396 . S
C1030 C1031 1.399 . S
C1031 H1017 0.929 . S
C1031 C1030 1.399 . S
C1031 C1032 1.385 . S
C1032 H1018 0.931 . S
C1032 C1031 1.385 . S
C1032 C1033 1.389 . S
C1033 C1032 1.389 . S
C1033 C1034 1.387 . S
C1034 H1019 0.930 . S
C1034 C1029 1.390 . S
C1034 C1033 1.387 . S
H1035 C1047 0.930 . S
H1036 C1049 0.930 . S
H1037 C1050 0.930 . S
H1038 C1054 0.959 . S
H1039 C1054 0.959 . S
H1040 C1054 0.961 . S
H1041 C1055 0.954 1_565 S
H1042 C1055 0.961 1_565 S
H1043 C1055 0.959 . S
H1044 C1058 0.929 . S
H1045 C1059 0.931 . S
H1046 C1061 0.930 . S
C1047 H1035 0.930 . S
C1047 C1048 1.399 . S
C1047 C1052 1.399 . S
C1048 C1047 1.399 . S
C1048 C1049 1.376 . S
C1049 H1036 0.930 . S
C1049 C1048 1.376 . S
C1049 C1050 1.388 . S
C1050 H1037 0.930 . S
C1050 C1049 1.388 . S
C1050 C1051 1.390 . S
C1051 C1050 1.390 . S
C1051 C1052 1.394 . S
C1051 C1057 1.465 . S
C1052 C1047 1.399 . S
C1052 C1051 1.394 . S
C1052 C1053 1.516 . S
C1053 C1052 1.516 . S
C1053 C1054 1.502 . S
C1053 C1055 1.561 . S
C1053 C1056 1.526 . S
C1054 H1038 0.959 . S
C1054 H1039 0.959 . S
C1054 H1040 0.961 . S
C1054 C1053 1.502 . S
C1055 H1041 0.954 1_545 S
C1055 H1042 0.961 1_545 S
C1055 H1043 0.959 . S
C1055 C1053 1.561 . S
C1056 C1053 1.526 . S
C1056 C1057 1.396 . S
C1056 C1061 1.390 . S
C1057 C1051 1.465 . S
C1057 C1056 1.396 . S
C1057 C1058 1.399 . S
C1058 H1044 0.929 . S
C1058 C1057 1.399 . S
C1058 C1059 1.385 . S
C1059 H1045 0.931 . S
C1059 C1058 1.385 . S
C1059 C1060 1.389 . S
C1060 C1059 1.389 . S
C1060 C1061 1.387 . S
C1061 H1046 0.930 . S
C1061 C1056 1.390 . S
C1061 C1060 1.387 . S
H1062 C1074 0.930 . S
H1063 C1076 0.930 . S
H1064 C1077 0.930 . S
H1065 C1081 0.959 . S
H1066 C1081 0.959 . S
H1067 C1081 0.961 . S
H1068 C1082 0.960 . S
H1069 C1082 0.961 . S
H1070 C1082 0.959 . S
H1071 C1085 0.929 . S
H1072 C1086 0.931 . S
H1073 C1088 0.930 . S
C1074 H1062 0.930 . S
C1074 C1075 1.399 . S
C1074 C1079 1.399 . S
C1075 C1074 1.399 . S
C1075 C1076 1.376 . S
C1076 H1063 0.930 . S
C1076 C1075 1.376 . S
C1076 C1077 1.388 . S
C1077 H1064 0.930 . S
C1077 C1076 1.388 . S
C1077 C1078 1.390 . S
C1078 C1077 1.390 . S
C1078 C1079 1.394 . S
C1078 C1084 1.465 . S
C1079 C1074 1.399 . S
C1079 C1078 1.394 . S
C1079 C1080 1.516 . S
C1080 C1079 1.516 . S
C1080 C1081 1.502 . S
C1080 C1082 1.561 . S
C1080 C1083 1.526 . S
C1081 H1065 0.959 . S
C1081 H1066 0.959 . S
C1081 H1067 0.961 . S
C1081 C1080 1.502 . S
C1082 H1068 0.960 . S
C1082 H1069 0.961 . S
C1082 H1070 0.959 . S
C1082 C1080 1.561 . S
C1083 C1080 1.526 . S
C1083 C1084 1.396 . S
C1083 C1088 1.390 . S
C1084 C1078 1.465 . S
C1084 C1083 1.396 . S
C1084 C1085 1.399 . S
C1085 H1071 0.929 . S
C1085 C1084 1.399 . S
C1085 C1086 1.385 . S
C1086 H1072 0.931 . S
C1086 C1085 1.385 . S
C1086 C1087 1.389 . S
C1087 C1086 1.389 . S
C1087 C1088 1.387 . S
C1088 H1073 0.930 . S
C1088 C1083 1.390 . S
C1088 C1087 1.387 . S
H1089 C1101 0.930 . S
H1090 C1103 0.930 . S
H1091 C1104 0.930 . S
H1092 C1108 0.959 . S
H1093 C1108 0.959 . S
H1094 C1108 0.961 . S
H1095 C1109 0.960 . S
H1096 C1109 0.961 . S
H1097 C1109 0.959 . S
H1098 C1112 0.929 . S
H1099 C1113 0.931 . S
H1100 C1115 0.930 . S
C1101 H1089 0.930 . S
C1101 C1102 1.399 . S
C1101 C1106 1.399 . S
C1102 C1101 1.399 . S
C1102 C1103 1.376 . S
C1103 H1090 0.930 . S
C1103 C1102 1.376 . S
C1103 C1104 1.388 . S
C1104 H1091 0.930 . S
C1104 C1103 1.388 . S
C1104 C1105 1.390 . S
C1105 C1104 1.390 . S
C1105 C1106 1.394 . S
C1105 C1111 1.465 . S
C1106 C1101 1.399 . S
C1106 C1105 1.394 . S
C1106 C1107 1.516 . S
C1107 C1106 1.516 . S
C1107 C1108 1.502 . S
C1107 C1109 1.561 . S
C1107 C1110 1.526 . S
C1108 H1092 0.959 . S
C1108 H1093 0.959 . S
C1108 H1094 0.961 . S
C1108 C1107 1.502 . S
C1109 H1095 0.960 . S
C1109 H1096 0.961 . S
C1109 H1097 0.959 . S
C1109 C1107 1.561 . S
C1110 C1107 1.526 . S
C1110 C1111 1.396 . S
C1110 C1115 1.390 . S
C1111 C1105 1.465 . S
C1111 C1110 1.396 . S
C1111 C1112 1.399 . S
C1112 H1098 0.929 . S
C1112 C1111 1.399 . S
C1112 C1113 1.385 . S
C1113 H1099 0.931 . S
C1113 C1112 1.385 . S
C1113 C1114 1.389 . S
C1114 C1113 1.389 . S
C1114 C1115 1.387 . S
C1115 H1100 0.930 . S
C1115 C1110 1.390 . S
C1115 C1114 1.387 . S
H1116 C1128 0.930 . S
H1117 C1130 0.930 . S
H1118 C1131 0.930 . S
H1119 C1135 0.959 . S
H1120 C1135 0.959 . S
H1121 C1135 0.961 . S
H1122 C1136 0.960 . S
H1123 C1136 0.961 . S
H1124 C1136 0.959 . S
H1125 C1139 0.929 . S
H1126 C1140 0.931 . S
H1127 C1142 0.930 . S
C1128 H1116 0.930 . S
C1128 C1129 1.399 . S
C1128 C1133 1.399 . S
C1129 C1128 1.399 . S
C1129 C1130 1.376 . S
C1130 H1117 0.930 . S
C1130 C1129 1.376 . S
C1130 C1131 1.388 . S
C1131 H1118 0.930 . S
C1131 C1130 1.388 . S
C1131 C1132 1.390 . S
C1132 C1131 1.390 . S
C1132 C1133 1.394 . S
C1132 C1138 1.465 . S
C1133 C1128 1.399 . S
C1133 C1132 1.394 . S
C1133 C1134 1.516 . S
C1134 C1133 1.516 . S
C1134 C1135 1.502 . S
C1134 C1136 1.561 . S
C1134 C1137 1.526 . S
C1135 H1119 0.959 . S
C1135 H1120 0.959 . S
C1135 H1121 0.961 . S
C1135 C1134 1.502 . S
C1136 H1122 0.960 . S
C1136 H1123 0.961 . S
C1136 H1124 0.959 . S
C1136 C1134 1.561 . S
C1137 C1134 1.526 . S
C1137 C1138 1.396 . S
C1137 C1142 1.390 . S
C1138 C1132 1.465 . S
C1138 C1137 1.396 . S
C1138 C1139 1.399 . S
C1139 H1125 0.929 . S
C1139 C1138 1.399 . S
C1139 C1140 1.385 . S
C1140 H1126 0.931 . S
C1140 C1139 1.385 . S
C1140 C1141 1.389 . S
C1141 C1140 1.389 . S
C1141 C1142 1.387 . S
C1142 H1127 0.930 . S
C1142 C1137 1.390 . S
C1142 C1141 1.387 . S
H1143 C1155 0.930 . S
H1144 C1157 0.930 . S
H1145 C1158 0.930 . S
H1146 C1162 0.959 . S
H1147 C1162 0.959 . S
H1148 C1162 0.961 . S
H1149 C1163 0.960 . S
H1150 C1163 0.961 . S
H1151 C1163 0.959 . S
H1152 C1166 0.929 . S
H1153 C1167 0.931 . S
H1154 C1169 0.930 . S
C1155 H1143 0.930 . S
C1155 C1156 1.399 . S
C1155 C1160 1.399 . S
C1156 C1155 1.399 . S
C1156 C1157 1.376 . S
C1157 H1144 0.930 . S
C1157 C1156 1.376 . S
C1157 C1158 1.388 . S
C1158 H1145 0.930 . S
C1158 C1157 1.388 . S
C1158 C1159 1.390 . S
C1159 C1158 1.390 . S
C1159 C1160 1.394 . S
C1159 C1165 1.465 . S
C1160 C1155 1.399 . S
C1160 C1159 1.394 . S
C1160 C1161 1.516 . S
C1161 C1160 1.516 . S
C1161 C1162 1.502 . S
C1161 C1163 1.561 . S
C1161 C1164 1.526 . S
C1162 H1146 0.959 . S
C1162 H1147 0.959 . S
C1162 H1148 0.961 . S
C1162 C1161 1.502 . S
C1163 H1149 0.960 . S
C1163 H1150 0.961 . S
C1163 H1151 0.959 . S
C1163 C1161 1.561 . S
C1164 C1161 1.526 . S
C1164 C1165 1.396 . S
C1164 C1169 1.390 . S
C1165 C1159 1.465 . S
C1165 C1164 1.396 . S
C1165 C1166 1.399 . S
C1166 H1152 0.929 . S
C1166 C1165 1.399 . S
C1166 C1167 1.385 . S
C1167 H1153 0.931 . S
C1167 C1166 1.385 . S
C1167 C1168 1.389 . S
C1168 C1167 1.389 . S
C1168 C1169 1.387 . S
C1169 H1154 0.930 . S
C1169 C1164 1.390 . S
C1169 C1168 1.387 . S
H1170 C1182 0.930 . S
H1171 C1184 0.930 . S
H1172 C1185 0.930 . S
H1173 C1189 0.959 . S
H1174 C1189 0.959 . S
H1175 C1189 0.961 . S
H1176 C1190 0.960 . S
H1177 C1190 0.961 . S
H1178 C1190 0.959 . S
H1179 C1193 0.929 . S
H1180 C1194 0.931 . S
H1181 C1196 0.930 . S
C1182 H1170 0.930 . S
C1182 C1183 1.399 . S
C1182 C1187 1.399 . S
C1183 C1182 1.399 . S
C1183 C1184 1.376 . S
C1184 H1171 0.930 . S
C1184 C1183 1.376 . S
C1184 C1185 1.388 . S
C1185 H1172 0.930 . S
C1185 C1184 1.388 . S
C1185 C1186 1.390 . S
C1186 C1185 1.390 . S
C1186 C1187 1.394 . S
C1186 C1192 1.465 . S
C1187 C1182 1.399 . S
C1187 C1186 1.394 . S
C1187 C1188 1.516 . S
C1188 C1187 1.516 . S
C1188 C1189 1.502 . S
C1188 C1190 1.561 . S
C1188 C1191 1.526 . S
C1189 H1173 0.959 . S
C1189 H1174 0.959 . S
C1189 H1175 0.961 . S
C1189 C1188 1.502 . S
C1190 H1176 0.960 . S
C1190 H1177 0.961 . S
C1190 H1178 0.959 . S
C1190 C1188 1.561 . S
C1191 C1188 1.526 . S
C1191 C1192 1.396 . S
C1191 C1196 1.390 . S
C1192 C1186 1.465 . S
C1192 C1191 1.396 . S
C1192 C1193 1.399 . S
C1193 H1179 0.929 . S
C1193 C1192 1.399 . S
C1193 C1194 1.385 . S
C1194 H1180 0.931 . S
C1194 C1193 1.385 . S
C1194 C1195 1.389 . S
C1195 C1194 1.389 . S
C1195 C1196 1.387 . S
C1196 H1181 0.930 . S
C1196 C1191 1.390 . S
C1196 C1195 1.387 . S
H1197 C1209 0.930 . S
H1198 C1211 0.930 . S
H1199 C1212 0.930 . S
H1200 C1216 0.959 . S
H1201 C1216 0.959 . S
H1202 C1216 0.961 . S
H1203 C1217 0.960 . S
H1204 C1217 0.961 . S
H1205 C1217 0.959 . S
H1206 C1220 0.929 . S
H1207 C1221 0.931 . S
H1208 C1223 0.930 . S
C1209 H1197 0.930 . S
C1209 C1210 1.399 . S
C1209 C1214 1.399 . S
C1210 C1209 1.399 . S
C1210 C1211 1.376 . S
C1211 H1198 0.930 . S
C1211 C1210 1.376 . S
C1211 C1212 1.388 . S
C1212 H1199 0.930 . S
C1212 C1211 1.388 . S
C1212 C1213 1.390 . S
C1213 C1212 1.390 . S
C1213 C1214 1.394 . S
C1213 C1219 1.465 . S
C1214 C1209 1.399 . S
C1214 C1213 1.394 . S
C1214 C1215 1.516 . S
C1215 C1214 1.516 . S
C1215 C1216 1.502 . S
C1215 C1217 1.561 . S
C1215 C1218 1.526 . S
C1216 H1200 0.959 . S
C1216 H1201 0.959 . S
C1216 H1202 0.961 . S
C1216 C1215 1.502 . S
C1217 H1203 0.960 . S
C1217 H1204 0.961 . S
C1217 H1205 0.959 . S
C1217 C1215 1.561 . S
C1218 C1215 1.526 . S
C1218 C1219 1.396 . S
C1218 C1223 1.390 . S
C1219 C1213 1.465 . S
C1219 C1218 1.396 . S
C1219 C1220 1.399 . S
C1220 H1206 0.929 . S
C1220 C1219 1.399 . S
C1220 C1221 1.385 . S
C1221 H1207 0.931 . S
C1221 C1220 1.385 . S
C1221 C1222 1.389 . S
C1222 C1221 1.389 . S
C1222 C1223 1.387 . S
C1223 H1208 0.930 . S
C1223 C1218 1.390 . S
C1223 C1222 1.387 . S
H1224 C1236 0.930 . S
H1225 C1238 0.930 . S
H1226 C1239 0.930 . S
H1227 C1243 0.959 . S
H1228 C1243 0.959 . S
H1229 C1243 0.961 . S
H1230 C1244 0.960 . S
H1231 C1244 0.961 . S
H1232 C1244 0.959 . S
H1233 C1247 0.929 . S
H1234 C1248 0.931 . S
H1235 C1250 0.930 . S
C1236 H1224 0.930 . S
C1236 C1237 1.399 . S
C1236 C1241 1.399 . S
C1237 C1236 1.399 . S
C1237 C1238 1.376 . S
C1238 H1225 0.930 . S
C1238 C1237 1.376 . S
C1238 C1239 1.388 . S
C1239 H1226 0.930 . S
C1239 C1238 1.388 . S
C1239 C1240 1.390 . S
C1240 C1239 1.390 . S
C1240 C1241 1.394 . S
C1240 C1246 1.465 . S
C1241 C1236 1.399 . S
C1241 C1240 1.394 . S
C1241 C1242 1.516 . S
C1242 C1241 1.516 . S
C1242 C1243 1.502 . S
C1242 C1244 1.561 . S
C1242 C1245 1.526 . S
C1243 H1227 0.959 . S
C1243 H1228 0.959 . S
C1243 H1229 0.961 . S
C1243 C1242 1.502 . S
C1244 H1230 0.960 . S
C1244 H1231 0.961 . S
C1244 H1232 0.959 . S
C1244 C1242 1.561 . S
C1245 C1242 1.526 . S
C1245 C1246 1.396 . S
C1245 C1250 1.390 . S
C1246 C1240 1.465 . S
C1246 C1245 1.396 . S
C1246 C1247 1.399 . S
C1247 H1233 0.929 . S
C1247 C1246 1.399 . S
C1247 C1248 1.385 . S
C1248 H1234 0.931 . S
C1248 C1247 1.385 . S
C1248 C1249 1.389 . S
C1249 C1248 1.389 . S
C1249 C1250 1.387 . S
C1250 H1235 0.930 . S
C1250 C1245 1.390 . S
C1250 C1249 1.387 . S
H1251 C1263 0.930 . S
H1252 C1265 0.930 . S
H1253 C1266 0.930 . S
H1254 C1270 0.959 . S
H1255 C1270 0.959 . S
H1256 C1270 0.961 . S
H1257 C1271 0.960 . S
H1258 C1271 0.961 . S
H1259 C1271 0.959 . S
H1260 C1274 0.929 . S
H1261 C1275 0.931 . S
H1262 C1277 0.930 . S
C1263 H1251 0.930 . S
C1263 C1264 1.399 . S
C1263 C1268 1.399 . S
C1264 C1263 1.399 . S
C1264 C1265 1.376 . S
C1265 H1252 0.930 . S
C1265 C1264 1.376 . S
C1265 C1266 1.388 . S
C1266 H1253 0.930 . S
C1266 C1265 1.388 . S
C1266 C1267 1.390 . S
C1267 C1266 1.390 . S
C1267 C1268 1.394 . S
C1267 C1273 1.465 . S
C1268 C1263 1.399 . S
C1268 C1267 1.394 . S
C1268 C1269 1.516 . S
C1269 C1268 1.516 . S
C1269 C1270 1.502 . S
C1269 C1271 1.561 . S
C1269 C1272 1.526 . S
C1270 H1254 0.959 . S
C1270 H1255 0.959 . S
C1270 H1256 0.961 . S
C1270 C1269 1.502 . S
C1271 H1257 0.960 . S
C1271 H1258 0.961 . S
C1271 H1259 0.959 . S
C1271 C1269 1.561 . S
C1272 C1269 1.526 . S
C1272 C1273 1.396 . S
C1272 C1277 1.390 . S
C1273 C1267 1.465 . S
C1273 C1272 1.396 . S
C1273 C1274 1.399 . S
C1274 H1260 0.929 . S
C1274 C1273 1.399 . S
C1274 C1275 1.385 . S
C1275 H1261 0.931 . S
C1275 C1274 1.385 . S
C1275 C1276 1.389 . S
C1276 C1275 1.389 . S
C1276 C1277 1.387 . S
C1277 H1262 0.930 . S
C1277 C1272 1.390 . S
C1277 C1276 1.387 . S
H1278 C1290 0.930 . S
H1279 C1292 0.930 . S
H1280 C1293 0.930 . S
H1281 C1297 0.959 . S
H1282 C1297 0.959 . S
H1283 C1297 0.961 . S
H1284 C1298 0.960 . S
H1285 C1298 0.961 . S
H1286 C1298 0.959 . S
H1287 C1301 0.929 . S
H1288 C1302 0.931 . S
H1289 C1304 0.930 . S
C1290 H1278 0.930 . S
C1290 C1291 1.399 . S
C1290 C1295 1.399 . S
C1291 C1290 1.399 . S
C1291 C1292 1.376 . S
C1292 H1279 0.930 . S
C1292 C1291 1.376 . S
C1292 C1293 1.388 . S
C1293 H1280 0.930 . S
C1293 C1292 1.388 . S
C1293 C1294 1.390 . S
C1294 C1293 1.390 . S
C1294 C1295 1.394 . S
C1294 C1300 1.465 . S
C1295 C1290 1.399 . S
C1295 C1294 1.394 . S
C1295 C1296 1.516 . S
C1296 C1295 1.516 . S
C1296 C1297 1.502 . S
C1296 C1298 1.561 . S
C1296 C1299 1.526 . S
C1297 H1281 0.959 . S
C1297 H1282 0.959 . S
C1297 H1283 0.961 . S
C1297 C1296 1.502 . S
C1298 H1284 0.960 . S
C1298 H1285 0.961 . S
C1298 H1286 0.959 . S
C1298 C1296 1.561 . S
C1299 C1296 1.526 . S
C1299 C1300 1.396 . S
C1299 C1304 1.390 . S
C1300 C1294 1.465 . S
C1300 C1299 1.396 . S
C1300 C1301 1.399 . S
C1301 H1287 0.929 . S
C1301 C1300 1.399 . S
C1301 C1302 1.385 . S
C1302 H1288 0.931 . S
C1302 C1301 1.385 . S
C1302 C1303 1.389 . S
C1303 C1302 1.389 . S
C1303 C1304 1.387 . S
C1304 H1289 0.930 . S
C1304 C1299 1.390 . S
C1304 C1303 1.387 . S
H1305 C1317 0.930 . S
H1306 C1319 0.930 1_455 S
H1307 C1320 0.930 . S
H1308 C1324 0.959 . S
H1309 C1324 0.959 . S
H1310 C1324 0.961 . S
H1311 C1325 0.960 . S
H1312 C1325 0.961 . S
H1313 C1325 0.959 . S
H1314 C1328 0.929 . S
H1315 C1329 0.931 . S
H1316 C1331 0.930 . S
C1317 H1305 0.930 . S
C1317 C1318 1.399 . S
C1317 C1322 1.399 . S
C1318 C1317 1.399 . S
C1318 C1319 1.376 . S
C1319 H1306 0.930 1_655 S
C1319 C1318 1.376 . S
C1319 C1320 1.388 . S
C1320 H1307 0.930 . S
C1320 C1319 1.388 . S
C1320 C1321 1.390 . S
C1321 C1320 1.390 . S
C1321 C1322 1.394 . S
C1321 C1327 1.465 . S
C1322 C1317 1.399 . S
C1322 C1321 1.394 . S
C1322 C1323 1.516 . S
C1323 C1322 1.516 . S
C1323 C1324 1.502 . S
C1323 C1325 1.561 . S
C1323 C1326 1.526 . S
C1324 H1308 0.959 . S
C1324 H1309 0.959 . S
C1324 H1310 0.961 . S
C1324 C1323 1.502 . S
C1325 H1311 0.960 . S
C1325 H1312 0.961 . S
C1325 H1313 0.959 . S
C1325 C1323 1.561 . S
C1326 C1323 1.526 . S
C1326 C1327 1.396 . S
C1326 C1331 1.390 . S
C1327 C1321 1.465 . S
C1327 C1326 1.396 . S
C1327 C1328 1.399 . S
C1328 H1314 0.929 . S
C1328 C1327 1.399 . S
C1328 C1329 1.385 . S
C1329 H1315 0.931 . S
C1329 C1328 1.385 . S
C1329 C1330 1.389 . S
C1330 C1329 1.389 . S
C1330 C1331 1.387 . S
C1331 H1316 0.930 . S
C1331 C1326 1.390 . S
C1331 C1330 1.387 . S
H1332 C1344 0.930 . S
H1333 C1346 0.930 . S
H1334 C1347 0.930 . S
H1335 C1351 0.959 . S
H1336 C1351 0.959 . S
H1337 C1351 0.961 . S
H1338 C1352 0.960 . S
H1339 C1352 0.961 . S
H1340 C1352 0.959 . S
H1341 C1355 0.929 . S
H1342 C1356 0.931 . S
H1343 C1358 0.930 . S
C1344 H1332 0.930 . S
C1344 C1345 1.399 . S
C1344 C1349 1.399 . S
C1345 C1344 1.399 . S
C1345 C1346 1.376 . S
C1346 H1333 0.930 . S
C1346 C1345 1.376 . S
C1346 C1347 1.388 . S
C1347 H1334 0.930 . S
C1347 C1346 1.388 . S
C1347 C1348 1.390 . S
C1348 C1347 1.390 . S
C1348 C1349 1.394 . S
C1348 C1354 1.465 . S
C1349 C1344 1.399 . S
C1349 C1348 1.394 . S
C1349 C1350 1.516 . S
C1350 C1349 1.516 . S
C1350 C1351 1.502 . S
C1350 C1352 1.561 . S
C1350 C1353 1.526 . S
C1351 H1335 0.959 . S
C1351 H1336 0.959 . S
C1351 H1337 0.961 . S
C1351 C1350 1.502 . S
C1352 H1338 0.960 . S
C1352 H1339 0.961 . S
C1352 H1340 0.959 . S
C1352 C1350 1.561 . S
C1353 C1350 1.526 . S
C1353 C1354 1.396 . S
C1353 C1358 1.390 . S
C1354 C1348 1.465 . S
C1354 C1353 1.396 . S
C1354 C1355 1.399 . S
C1355 H1341 0.929 . S
C1355 C1354 1.399 . S
C1355 C1356 1.385 . S
C1356 H1342 0.931 . S
C1356 C1355 1.385 . S
C1356 C1357 1.389 . S
C1357 C1356 1.389 . S
C1357 C1358 1.387 . S
C1358 H1343 0.930 . S
C1358 C1353 1.390 . S
C1358 C1357 1.387 . S
H1359 C1371 0.930 . S
H1360 C1373 0.930 . S
H1361 C1374 0.930 . S
H1362 C1378 0.959 . S
H1363 C1378 0.959 . S
H1364 C1378 0.961 . S
H1365 C1379 0.960 . S
H1366 C1379 0.961 . S
H1367 C1379 0.959 . S
H1368 C1382 0.929 . S
H1369 C1383 0.931 . S
H1370 C1385 0.930 . S
C1371 H1359 0.930 . S
C1371 C1372 1.399 . S
C1371 C1376 1.399 . S
C1372 C1371 1.399 . S
C1372 C1373 1.376 . S
C1373 H1360 0.930 . S
C1373 C1372 1.376 . S
C1373 C1374 1.388 . S
C1374 H1361 0.930 . S
C1374 C1373 1.388 . S
C1374 C1375 1.390 . S
C1375 C1374 1.390 . S
C1375 C1376 1.394 . S
C1375 C1381 1.465 . S
C1376 C1371 1.399 . S
C1376 C1375 1.394 . S
C1376 C1377 1.516 . S
C1377 C1376 1.516 . S
C1377 C1378 1.502 . S
C1377 C1379 1.561 . S
C1377 C1380 1.526 . S
C1378 H1362 0.959 . S
C1378 H1363 0.959 . S
C1378 H1364 0.961 . S
C1378 C1377 1.502 . S
C1379 H1365 0.960 . S
C1379 H1366 0.961 . S
C1379 H1367 0.959 . S
C1379 C1377 1.561 . S
C1380 C1377 1.526 . S
C1380 C1381 1.396 . S
C1380 C1385 1.390 . S
C1381 C1375 1.465 . S
C1381 C1380 1.396 . S
C1381 C1382 1.399 . S
C1382 H1368 0.929 . S
C1382 C1381 1.399 . S
C1382 C1383 1.385 . S
C1383 H1369 0.931 . S
C1383 C1382 1.385 . S
C1383 C1384 1.389 . S
C1384 C1383 1.389 . S
C1384 C1385 1.387 . S
C1385 H1370 0.930 . S
C1385 C1380 1.390 . S
C1385 C1384 1.387 . S
H1386 C1398 0.930 . S
H1387 C1400 0.930 . S
H1388 C1401 0.930 . S
H1389 C1405 0.959 . S
H1390 C1405 0.959 . S
H1391 C1405 0.961 . S
H1392 C1406 0.960 . S
H1393 C1406 0.961 . S
H1394 C1406 0.959 . S
H1395 C1409 0.929 . S
H1396 C1410 0.931 . S
H1397 C1412 0.930 . S
C1398 H1386 0.930 . S
C1398 C1399 1.399 . S
C1398 C1403 1.399 . S
C1399 C1398 1.399 . S
C1399 C1400 1.376 . S
C1400 H1387 0.930 . S
C1400 C1399 1.376 . S
C1400 C1401 1.388 . S
C1401 H1388 0.930 . S
C1401 C1400 1.388 . S
C1401 C1402 1.390 . S
C1402 C1401 1.390 . S
C1402 C1403 1.394 . S
C1402 C1408 1.465 . S
C1403 C1398 1.399 . S
C1403 C1402 1.394 . S
C1403 C1404 1.516 . S
C1404 C1403 1.516 . S
C1404 C1405 1.502 . S
C1404 C1406 1.561 . S
C1404 C1407 1.526 . S
C1405 H1389 0.959 . S
C1405 H1390 0.959 . S
C1405 H1391 0.961 . S
C1405 C1404 1.502 . S
C1406 H1392 0.960 . S
C1406 H1393 0.961 . S
C1406 H1394 0.959 . S
C1406 C1404 1.561 . S
C1407 C1404 1.526 . S
C1407 C1408 1.396 . S
C1407 C1412 1.390 . S
C1408 C1402 1.465 . S
C1408 C1407 1.396 . S
C1408 C1409 1.399 . S
C1409 H1395 0.929 . S
C1409 C1408 1.399 . S
C1409 C1410 1.385 . S
C1410 H1396 0.931 . S
C1410 C1409 1.385 . S
C1410 C1411 1.389 . S
C1411 C1410 1.389 . S
C1411 C1412 1.387 . S
C1412 H1397 0.930 . S
C1412 C1407 1.390 . S
C1412 C1411 1.387 . S
H1413 C1425 0.930 . S
H1414 C1427 0.930 . S
H1415 C1428 0.930 . S
H1416 C1432 0.959 . S
H1417 C1432 0.959 . S
H1418 C1432 0.961 . S
H1419 C1433 0.960 . S
H1420 C1433 0.961 . S
H1421 C1433 0.959 . S
H1422 C1436 0.929 . S
H1423 C1437 0.931 . S
H1424 C1439 0.930 . S
C1425 H1413 0.930 . S
C1425 C1426 1.399 . S
C1425 C1430 1.399 . S
C1426 C1425 1.399 . S
C1426 C1427 1.376 . S
C1427 H1414 0.930 . S
C1427 C1426 1.376 . S
C1427 C1428 1.388 . S
C1428 H1415 0.930 . S
C1428 C1427 1.388 . S
C1428 C1429 1.390 . S
C1429 C1428 1.390 . S
C1429 C1430 1.394 . S
C1429 C1435 1.465 . S
C1430 C1425 1.399 . S
C1430 C1429 1.394 . S
C1430 C1431 1.516 . S
C1431 C1430 1.516 . S
C1431 C1432 1.502 . S
C1431 C1433 1.561 . S
C1431 C1434 1.526 . S
C1432 H1416 0.959 . S
C1432 H1417 0.959 . S
C1432 H1418 0.961 . S
C1432 C1431 1.502 . S
C1433 H1419 0.960 . S
C1433 H1420 0.961 . S
C1433 H1421 0.959 . S
C1433 C1431 1.561 . S
C1434 C1431 1.526 . S
C1434 C1435 1.396 . S
C1434 C1439 1.390 . S
C1435 C1429 1.465 . S
C1435 C1434 1.396 . S
C1435 C1436 1.399 . S
C1436 H1422 0.929 . S
C1436 C1435 1.399 . S
C1436 C1437 1.385 . S
C1437 H1423 0.931 . S
C1437 C1436 1.385 . S
C1437 C1438 1.389 . S
C1438 C1437 1.389 . S
C1438 C1439 1.387 . S
C1439 H1424 0.930 . S
C1439 C1434 1.390 . S
C1439 C1438 1.387 . S
H1440 C1452 0.930 . S
H1441 C1454 0.930 . S
H1442 C1455 0.930 . S
H1443 C1459 0.959 . S
H1444 C1459 0.959 . S
H1445 C1459 0.961 . S
H1446 C1460 0.960 . S
H1447 C1460 0.961 . S
H1448 C1460 0.959 . S
H1449 C1463 0.929 . S
H1450 C1464 0.931 . S
H1451 C1466 0.930 . S
C1452 H1440 0.930 . S
C1452 C1453 1.399 . S
C1452 C1457 1.399 . S
C1453 C1452 1.399 . S
C1453 C1454 1.376 1_556 S
C1454 H1441 0.930 . S
C1454 C1453 1.376 1_554 S
C1454 C1455 1.388 . S
C1455 H1442 0.930 . S
C1455 C1454 1.388 . S
C1455 C1456 1.398 . S
C1456 C1455 1.398 . S
C1456 C1457 1.379 1_554 S
C1456 C1462 1.470 . S
C1457 C1452 1.399 . S
C1457 C1456 1.379 1_556 S
C1457 C1458 1.516 . S
C1458 C1457 1.516 . S
C1458 C1459 1.502 . S
C1458 C1460 1.561 . S
C1458 C1461 1.526 . S
C1459 H1443 0.959 . S
C1459 H1444 0.959 . S
C1459 H1445 0.961 . S
C1459 C1458 1.502 . S
C1460 H1446 0.960 . S
C1460 H1447 0.961 . S
C1460 H1448 0.959 . S
C1460 C1458 1.561 . S
C1461 C1458 1.526 . S
C1461 C1462 1.396 1_556 S
C1461 C1466 1.390 . S
C1462 C1456 1.470 . S
C1462 C1461 1.396 1_554 S
C1462 C1463 1.399 . S
C1463 H1449 0.929 . S
C1463 C1462 1.399 . S
C1463 C1464 1.385 . S
C1464 H1450 0.931 . S
C1464 C1463 1.385 . S
C1464 C1465 1.389 . S
C1465 C1464 1.389 . S
C1465 C1466 1.387 1_554 S
C1466 H1451 0.930 . S
C1466 C1461 1.390 . S
C1466 C1465 1.387 1_556 S
H1467 C1479 0.930 . S
H1468 C1481 0.930 . S
H1469 C1482 0.930 . S
H1470 C1486 0.959 . S
H1471 C1486 0.959 . S
H1472 C1486 0.961 . S
H1473 C1487 0.960 . S
H1474 C1487 0.961 . S
H1475 C1487 0.959 . S
H1476 C1490 0.929 . S
H1477 C1491 0.931 . S
H1478 C1493 0.930 . S
C1479 H1467 0.930 . S
C1479 C1480 1.399 . S
C1479 C1484 1.399 . S
C1480 C1479 1.399 . S
C1480 C1481 1.376 . S
C1481 H1468 0.930 . S
C1481 C1480 1.376 . S
C1481 C1482 1.388 . S
C1482 H1469 0.930 . S
C1482 C1481 1.388 . S
C1482 C1483 1.390 . S
C1483 C1482 1.390 . S
C1483 C1484 1.394 . S
C1483 C1489 1.465 . S
C1484 C1479 1.399 . S
C1484 C1483 1.394 . S
C1484 C1485 1.516 . S
C1485 C1484 1.516 . S
C1485 C1486 1.502 . S
C1485 C1487 1.561 . S
C1485 C1488 1.526 . S
C1486 H1470 0.959 . S
C1486 H1471 0.959 . S
C1486 H1472 0.961 . S
C1486 C1485 1.502 . S
C1487 H1473 0.960 . S
C1487 H1474 0.961 . S
C1487 H1475 0.959 . S
C1487 C1485 1.561 . S
C1488 C1485 1.526 . S
C1488 C1489 1.396 . S
C1488 C1493 1.390 . S
C1489 C1483 1.465 . S
C1489 C1488 1.396 . S
C1489 C1490 1.399 . S
C1490 H1476 0.929 . S
C1490 C1489 1.399 . S
C1490 C1491 1.385 . S
C1491 H1477 0.931 . S
C1491 C1490 1.385 . S
C1491 C1492 1.389 . S
C1492 C1491 1.389 . S
C1492 C1493 1.387 . S
C1493 H1478 0.930 . S
C1493 C1488 1.390 . S
C1493 C1492 1.387 . S
H1494 C1506 0.930 . S
H1495 C1508 0.930 . S
H1496 C1509 0.930 . S
H1497 C1513 0.959 . S
H1498 C1513 0.959 . S
H1499 C1513 0.961 . S
H1500 C1514 0.960 . S
H1501 C1514 0.961 . S
H1502 C1514 0.959 . S
H1503 C1517 0.929 . S
H1504 C1518 0.931 . S
H1505 C1520 0.930 . S
C1506 H1494 0.930 . S
C1506 C1507 1.399 . S
C1506 C1511 1.399 . S
C1507 C1506 1.399 . S
C1507 C1508 1.376 . S
C1508 H1495 0.930 . S
C1508 C1507 1.376 . S
C1508 C1509 1.388 . S
C1509 H1496 0.930 . S
C1509 C1508 1.388 . S
C1509 C1510 1.390 . S
C1510 C1509 1.390 . S
C1510 C1511 1.394 . S
C1510 C1516 1.465 . S
C1511 C1506 1.399 . S
C1511 C1510 1.394 . S
C1511 C1512 1.516 . S
C1512 C1511 1.516 . S
C1512 C1513 1.502 . S
C1512 C1514 1.561 . S
C1512 C1515 1.526 . S
C1513 H1497 0.959 . S
C1513 H1498 0.959 . S
C1513 H1499 0.961 . S
C1513 C1512 1.502 . S
C1514 H1500 0.960 . S
C1514 H1501 0.961 . S
C1514 H1502 0.959 . S
C1514 C1512 1.561 . S
C1515 C1512 1.526 . S
C1515 C1516 1.396 . S
C1515 C1520 1.390 . S
C1516 C1510 1.465 . S
C1516 C1515 1.396 . S
C1516 C1517 1.399 . S
C1517 H1503 0.929 . S
C1517 C1516 1.399 . S
C1517 C1518 1.385 . S
C1518 H1504 0.931 . S
C1518 C1517 1.385 . S
C1518 C1519 1.389 . S
C1519 C1518 1.389 . S
C1519 C1520 1.387 . S
C1520 H1505 0.930 . S
C1520 C1515 1.390 . S
C1520 C1519 1.387 . S
H1521 C1533 0.930 . S
H1522 C1535 0.930 . S
H1523 C1536 0.930 . S
H1524 C1540 0.959 . S
H1525 C1540 0.959 . S
H1526 C1540 0.961 . S
H1527 C1541 0.960 . S
H1528 C1541 0.961 . S
H1529 C1541 0.959 . S
H1530 C1544 0.929 . S
H1531 C1545 0.931 . S
H1532 C1547 0.930 . S
C1533 H1521 0.930 . S
C1533 C1534 1.399 . S
C1533 C1538 1.399 . S
C1534 C1533 1.399 . S
C1534 C1535 1.376 . S
C1535 H1522 0.930 . S
C1535 C1534 1.376 . S
C1535 C1536 1.388 . S
C1536 H1523 0.930 . S
C1536 C1535 1.388 . S
C1536 C1537 1.390 . S
C1537 C1536 1.390 . S
C1537 C1538 1.394 . S
C1537 C1543 1.465 . S
C1538 C1533 1.399 . S
C1538 C1537 1.394 . S
C1538 C1539 1.516 . S
C1539 C1538 1.516 . S
C1539 C1540 1.502 . S
C1539 C1541 1.561 . S
C1539 C1542 1.526 . S
C1540 H1524 0.959 . S
C1540 H1525 0.959 . S
C1540 H1526 0.961 . S
C1540 C1539 1.502 . S
C1541 H1527 0.960 . S
C1541 H1528 0.961 . S
C1541 H1529 0.959 . S
C1541 C1539 1.561 . S
C1542 C1539 1.526 . S
C1542 C1543 1.396 . S
C1542 C1547 1.390 . S
C1543 C1537 1.465 . S
C1543 C1542 1.396 . S
C1543 C1544 1.399 . S
C1544 H1530 0.929 . S
C1544 C1543 1.399 . S
C1544 C1545 1.385 . S
C1545 H1531 0.931 . S
C1545 C1544 1.385 . S
C1545 C1546 1.389 . S
C1546 C1545 1.389 . S
C1546 C1547 1.387 . S
C1547 H1532 0.930 . S
C1547 C1542 1.390 . S
C1547 C1546 1.387 . S
H1548 C1560 0.930 . S
H1549 C1562 0.930 . S
H1550 C1563 0.930 . S
H1551 C1567 0.959 . S
H1552 C1567 0.959 . S
H1553 C1567 0.961 . S
H1554 C1568 0.960 . S
H1555 C1568 0.961 . S
H1556 C1568 0.959 . S
H1557 C1571 0.929 . S
H1558 C1572 0.931 . S
H1559 C1574 0.930 . S
C1560 H1548 0.930 . S
C1560 C1561 1.399 . S
C1560 C1565 1.399 . S
C1561 C1560 1.399 . S
C1561 C1562 1.376 . S
C1562 H1549 0.930 . S
C1562 C1561 1.376 . S
C1562 C1563 1.388 . S
C1563 H1550 0.930 . S
C1563 C1562 1.388 . S
C1563 C1564 1.390 . S
C1564 C1563 1.390 . S
C1564 C1565 1.394 . S
C1564 C1570 1.465 . S
C1565 C1560 1.399 . S
C1565 C1564 1.394 . S
C1565 C1566 1.516 . S
C1566 C1565 1.516 . S
C1566 C1567 1.502 . S
C1566 C1568 1.561 . S
C1566 C1569 1.526 . S
C1567 H1551 0.959 . S
C1567 H1552 0.959 . S
C1567 H1553 0.961 . S
C1567 C1566 1.502 . S
C1568 H1554 0.960 . S
C1568 H1555 0.961 . S
C1568 H1556 0.959 . S
C1568 C1566 1.561 . S
C1569 C1566 1.526 . S
C1569 C1570 1.396 . S
C1569 C1574 1.390 . S
C1570 C1564 1.465 . S
C1570 C1569 1.396 . S
C1570 C1571 1.399 . S
C1571 H1557 0.929 . S
C1571 C1570 1.399 . S
C1571 C1572 1.385 . S
C1572 H1558 0.931 . S
C1572 C1571 1.385 . S
C1572 C1573 1.389 . S
C1573 C1572 1.389 . S
C1573 C1574 1.387 . S
C1574 H1559 0.930 . S
C1574 C1569 1.390 . S
C1574 C1573 1.387 . S
H1575 C1587 0.930 . S
H1576 C1589 0.930 . S
H1577 C1590 0.930 . S
H1578 C1594 0.959 . S
H1579 C1594 0.959 . S
H1580 C1594 0.961 . S
H1581 C1595 0.960 . S
H1582 C1595 0.961 . S
H1583 C1595 0.959 . S
H1584 C1598 0.929 . S
H1585 C1599 0.931 . S
H1586 C1601 0.930 . S
C1587 H1575 0.930 . S
C1587 C1588 1.399 1_556 S
C1587 C1592 1.399 . S
C1588 C1587 1.399 1_554 S
C1588 C1589 1.376 . S
C1589 H1576 0.930 . S
C1589 C1588 1.376 . S
C1589 C1590 1.388 . S
C1590 H1577 0.930 . S
C1590 C1589 1.388 . S
C1590 C1591 1.390 . S
C1591 C1590 1.390 . S
C1591 C1592 1.394 1_554 S
C1591 C1597 1.465 . S
C1592 C1587 1.399 . S
C1592 C1591 1.394 1_556 S
C1592 C1593 1.516 . S
C1593 C1592 1.516 . S
C1593 C1594 1.502 . S
C1593 C1595 1.561 . S
C1593 C1596 1.526 . S
C1594 H1578 0.959 . S
C1594 H1579 0.959 . S
C1594 H1580 0.961 . S
C1594 C1593 1.502 . S
C1595 H1581 0.960 . S
C1595 H1582 0.961 . S
C1595 H1583 0.959 . S
C1595 C1593 1.561 . S
C1596 C1593 1.526 . S
C1596 C1597 1.396 1_556 S
C1596 C1601 1.390 . S
C1597 C1591 1.465 . S
C1597 C1596 1.396 1_554 S
C1597 C1598 1.399 . S
C1598 H1584 0.929 . S
C1598 C1597 1.399 . S
C1598 C1599 1.385 . S
C1599 H1585 0.931 . S
C1599 C1598 1.385 . S
C1599 C1600 1.389 1_554 S
C1600 C1599 1.389 1_556 S
C1600 C1601 1.387 . S
C1601 H1586 0.930 . S
C1601 C1596 1.390 . S
C1601 C1600 1.387 . S
H1602 C1614 0.930 . S
H1603 C1616 0.930 . S
H1604 C1617 0.930 . S
H1605 C1621 0.959 . S
H1606 C1621 0.959 . S
H1607 C1621 0.961 . S
H1608 C1622 0.960 . S
H1609 C1622 0.961 . S
H1610 C1622 0.959 . S
H1611 C1625 0.929 . S
H1612 C1626 0.931 . S
H1613 C1628 0.930 . S
C1614 H1602 0.930 . S
C1614 C1615 1.399 . S
C1614 C1619 1.399 . S
C1615 C1614 1.399 . S
C1615 C1616 1.376 . S
C1616 H1603 0.930 . S
C1616 C1615 1.376 . S
C1616 C1617 1.388 . S
C1617 H1604 0.930 . S
C1617 C1616 1.388 . S
C1617 C1618 1.390 . S
C1618 C1617 1.390 . S
C1618 C1619 1.394 . S
C1618 C1624 1.465 . S
C1619 C1614 1.399 . S
C1619 C1618 1.394 . S
C1619 C1620 1.516 . S
C1620 C1619 1.516 . S
C1620 C1621 1.502 . S
C1620 C1622 1.561 . S
C1620 C1623 1.526 . S
C1621 H1605 0.959 . S
C1621 H1606 0.959 . S
C1621 H1607 0.961 . S
C1621 C1620 1.502 . S
C1622 H1608 0.960 . S
C1622 H1609 0.961 . S
C1622 H1610 0.959 . S
C1622 C1620 1.561 . S
C1623 C1620 1.526 . S
C1623 C1624 1.396 . S
C1623 C1628 1.390 . S
C1624 C1618 1.465 . S
C1624 C1623 1.396 . S
C1624 C1625 1.399 . S
C1625 H1611 0.929 . S
C1625 C1624 1.399 . S
C1625 C1626 1.385 . S
C1626 H1612 0.931 . S
C1626 C1625 1.385 . S
C1626 C1627 1.389 . S
C1627 C1626 1.389 . S
C1627 C1628 1.387 . S
C1628 H1613 0.930 . S
C1628 C1623 1.390 . S
C1628 C1627 1.387 . S
H1629 C1641 0.930 . S
H1630 C1643 0.930 . S
H1631 C1644 0.930 . S
H1632 C1648 0.959 . S
H1633 C1648 0.959 . S
H1634 C1648 0.961 . S
H1635 C1649 0.960 . S
H1636 C1649 0.961 . S
H1637 C1649 0.959 . S
H1638 C1652 0.929 . S
H1639 C1653 0.931 . S
H1640 C1655 0.930 . S
C1641 H1629 0.930 . S
C1641 C1642 1.399 . S
C1641 C1646 1.399 . S
C1642 C1641 1.399 . S
C1642 C1643 1.376 . S
C1643 H1630 0.930 . S
C1643 C1642 1.376 . S
C1643 C1644 1.388 . S
C1644 H1631 0.930 . S
C1644 C1643 1.388 . S
C1644 C1645 1.390 . S
C1645 C1644 1.390 . S
C1645 C1646 1.394 . S
C1645 C1651 1.465 . S
C1646 C1641 1.399 . S
C1646 C1645 1.394 . S
C1646 C1647 1.516 . S
C1647 C1646 1.516 . S
C1647 C1648 1.502 . S
C1647 C1649 1.561 . S
C1647 C1650 1.526 . S
C1648 H1632 0.959 . S
C1648 H1633 0.959 . S
C1648 H1634 0.961 . S
C1648 C1647 1.502 . S
C1649 H1635 0.960 . S
C1649 H1636 0.961 . S
C1649 H1637 0.959 . S
C1649 C1647 1.561 . S
C1650 C1647 1.526 . S
C1650 C1651 1.396 . S
C1650 C1655 1.390 . S
C1651 C1645 1.465 . S
C1651 C1650 1.396 . S
C1651 C1652 1.399 . S
C1652 H1638 0.929 . S
C1652 C1651 1.399 . S
C1652 C1653 1.385 . S
C1653 H1639 0.931 . S
C1653 C1652 1.385 . S
C1653 C1654 1.389 . S
C1654 C1653 1.389 . S
C1654 C1655 1.387 . S
C1655 H1640 0.930 . S
C1655 C1650 1.390 . S
C1655 C1654 1.387 . S
H1656 C1668 0.930 . S
H1657 C1670 0.930 . S
H1658 C1671 0.930 . S
H1659 C1675 0.959 . S
H1660 C1675 0.959 . S
H1661 C1675 0.961 . S
H1662 C1676 0.960 . S
H1663 C1676 0.961 . S
H1664 C1676 0.959 . S
H1665 C1679 0.929 . S
H1666 C1680 0.931 . S
H1667 C1682 0.930 . S
C1668 H1656 0.930 . S
C1668 C1669 1.399 . S
C1668 C1673 1.399 . S
C1669 C1668 1.399 . S
C1669 C1670 1.376 . S
C1670 H1657 0.930 . S
C1670 C1669 1.376 . S
C1670 C1671 1.388 . S
C1671 H1658 0.930 . S
C1671 C1670 1.388 . S
C1671 C1672 1.390 . S
C1672 C1671 1.390 . S
C1672 C1673 1.394 . S
C1672 C1678 1.465 . S
C1673 C1668 1.399 . S
C1673 C1672 1.394 . S
C1673 C1674 1.516 . S
C1674 C1673 1.516 . S
C1674 C1675 1.502 . S
C1674 C1676 1.561 . S
C1674 C1677 1.526 . S
C1675 H1659 0.959 . S
C1675 H1660 0.959 . S
C1675 H1661 0.961 . S
C1675 C1674 1.502 . S
C1676 H1662 0.960 . S
C1676 H1663 0.961 . S
C1676 H1664 0.959 . S
C1676 C1674 1.561 . S
C1677 C1674 1.526 . S
C1677 C1678 1.396 . S
C1677 C1682 1.390 . S
C1678 C1672 1.465 . S
C1678 C1677 1.396 . S
C1678 C1679 1.399 . S
C1679 H1665 0.929 . S
C1679 C1678 1.399 . S
C1679 C1680 1.385 . S
C1680 H1666 0.931 . S
C1680 C1679 1.385 . S
C1680 C1681 1.389 . S
C1681 C1680 1.389 . S
C1681 C1682 1.387 . S
C1682 H1667 0.930 . S
C1682 C1677 1.390 . S
C1682 C1681 1.387 . S
H1683 C1695 0.930 . S
H1684 C1697 0.930 . S
H1685 C1698 0.930 . S
H1686 C1702 0.959 . S
H1687 C1702 0.959 . S
H1688 C1702 0.961 . S
H1689 C1703 0.960 . S
H1690 C1703 0.961 . S
H1691 C1703 0.959 . S
H1692 C1706 0.929 . S
H1693 C1707 0.931 . S
H1694 C1709 0.930 . S
C1695 H1683 0.930 . S
C1695 C1696 1.399 . S
C1695 C1700 1.399 . S
C1696 C1695 1.399 . S
C1696 C1697 1.376 . S
C1697 H1684 0.930 . S
C1697 C1696 1.376 . S
C1697 C1698 1.388 . S
C1698 H1685 0.930 . S
C1698 C1697 1.388 . S
C1698 C1699 1.390 . S
C1699 C1698 1.390 . S
C1699 C1700 1.394 . S
C1699 C1705 1.465 . S
C1700 C1695 1.399 . S
C1700 C1699 1.394 . S
C1700 C1701 1.516 . S
C1701 C1700 1.516 . S
C1701 C1702 1.502 . S
C1701 C1703 1.561 . S
C1701 C1704 1.526 . S
C1702 H1686 0.959 . S
C1702 H1687 0.959 . S
C1702 H1688 0.961 . S
C1702 C1701 1.502 . S
C1703 H1689 0.960 . S
C1703 H1690 0.961 . S
C1703 H1691 0.959 . S
C1703 C1701 1.561 . S
C1704 C1701 1.526 . S
C1704 C1705 1.396 . S
C1704 C1709 1.390 . S
C1705 C1699 1.465 . S
C1705 C1704 1.396 . S
C1705 C1706 1.399 . S
C1706 H1692 0.929 . S
C1706 C1705 1.399 . S
C1706 C1707 1.385 . S
C1707 H1693 0.931 . S
C1707 C1706 1.385 . S
C1707 C1708 1.389 . S
C1708 C1707 1.389 . S
C1708 C1709 1.387 . S
C1709 H1694 0.930 . S
C1709 C1704 1.390 . S
C1709 C1708 1.387 . S
H1710 C1722 0.930 . S
H1711 C1724 0.930 . S
H1712 C1725 0.930 . S
H1713 C1729 0.959 . S
H1714 C1729 0.959 . S
H1715 C1729 0.961 . S
H1716 C1730 0.960 . S
H1717 C1730 0.961 . S
H1718 C1730 0.959 . S
H1719 C1733 0.929 . S
H1720 C1734 0.931 . S
H1721 C1736 0.930 . S
C1722 H1710 0.930 . S
C1722 C1723 1.399 . S
C1722 C1727 1.399 . S
C1723 C1722 1.399 . S
C1723 C1724 1.376 . S
C1724 H1711 0.930 . S
C1724 C1723 1.376 . S
C1724 C1725 1.388 . S
C1725 H1712 0.930 . S
C1725 C1724 1.388 . S
C1725 C1726 1.390 . S
C1726 C1725 1.390 . S
C1726 C1727 1.394 . S
C1726 C1732 1.465 . S
C1727 C1722 1.399 . S
C1727 C1726 1.394 . S
C1727 C1728 1.516 . S
C1728 C1727 1.516 . S
C1728 C1729 1.502 . S
C1728 C1730 1.561 . S
C1728 C1731 1.526 . S
C1729 H1713 0.959 . S
C1729 H1714 0.959 . S
C1729 H1715 0.961 . S
C1729 C1728 1.502 . S
C1730 H1716 0.960 . S
C1730 H1717 0.961 . S
C1730 H1718 0.959 . S
C1730 C1728 1.561 . S
C1731 C1728 1.526 . S
C1731 C1732 1.396 . S
C1731 C1736 1.390 . S
C1732 C1726 1.465 . S
C1732 C1731 1.396 . S
C1732 C1733 1.399 . S
C1733 H1719 0.929 . S
C1733 C1732 1.399 . S
C1733 C1734 1.385 . S
C1734 H1720 0.931 . S
C1734 C1733 1.385 . S
C1734 C1735 1.389 . S
C1735 C1734 1.389 . S
C1735 C1736 1.387 . S
C1736 H1721 0.930 . S
C1736 C1731 1.390 . S
C1736 C1735 1.387 . S
H1737 C1749 0.930 . S
H1738 C1751 0.930 . S
H1739 C1752 0.930 . S
H1740 C1756 0.959 . S
H1741 C1756 0.959 . S
H1742 C1756 0.961 . S
H1743 C1757 0.960 . S
H1744 C1757 0.961 . S
H1745 C1757 0.959 . S
H1746 C1760 0.929 . S
H1747 C1761 0.931 . S
H1748 C1763 0.930 . S
C1749 H1737 0.930 . S
C1749 C1750 1.399 . S
C1749 C1754 1.399 . S
C1750 C1749 1.399 . S
C1750 C1751 1.376 . S
C1751 H1738 0.930 . S
C1751 C1750 1.376 . S
C1751 C1752 1.388 . S
C1752 H1739 0.930 . S
C1752 C1751 1.388 . S
C1752 C1753 1.390 . S
C1753 C1752 1.390 . S
C1753 C1754 1.394 . S
C1753 C1759 1.465 . S
C1754 C1749 1.399 . S
C1754 C1753 1.394 . S
C1754 C1755 1.516 . S
C1755 C1754 1.516 . S
C1755 C1756 1.502 . S
C1755 C1757 1.561 . S
C1755 C1758 1.526 . S
C1756 H1740 0.959 . S
C1756 H1741 0.959 . S
C1756 H1742 0.961 . S
C1756 C1755 1.502 . S
C1757 H1743 0.960 . S
C1757 H1744 0.961 . S
C1757 H1745 0.959 . S
C1757 C1755 1.561 . S
C1758 C1755 1.526 . S
C1758 C1759 1.396 . S
C1758 C1763 1.390 . S
C1759 C1753 1.465 . S
C1759 C1758 1.396 . S
C1759 C1760 1.399 . S
C1760 H1746 0.929 . S
C1760 C1759 1.399 . S
C1760 C1761 1.385 . S
C1761 H1747 0.931 . S
C1761 C1760 1.385 . S
C1761 C1762 1.389 . S
C1762 C1761 1.389 . S
C1762 C1763 1.387 . S
C1763 H1748 0.930 . S
C1763 C1758 1.390 . S
C1763 C1762 1.387 . S
H1764 C1776 0.930 . S
H1765 C1778 0.930 . S
H1766 C1779 0.930 . S
H1767 C1783 0.959 . S
H1768 C1783 0.959 . S
H1769 C1783 0.961 . S
H1770 C1784 0.960 . S
H1771 C1784 0.961 . S
H1772 C1784 0.959 . S
H1773 C1787 0.929 . S
H1774 C1788 0.931 . S
H1775 C1790 0.930 . S
C1776 H1764 0.930 . S
C1776 C1777 1.399 . S
C1776 C1781 1.399 . S
C1777 C1776 1.399 . S
C1777 C1778 1.376 . S
C1778 H1765 0.930 . S
C1778 C1777 1.376 . S
C1778 C1779 1.388 . S
C1779 H1766 0.930 . S
C1779 C1778 1.388 . S
C1779 C1780 1.390 . S
C1780 C1779 1.390 . S
C1780 C1781 1.394 . S
C1780 C1786 1.465 . S
C1781 C1776 1.399 . S
C1781 C1780 1.394 . S
C1781 C1782 1.516 . S
C1782 C1781 1.516 . S
C1782 C1783 1.502 . S
C1782 C1784 1.561 . S
C1782 C1785 1.526 . S
C1783 H1767 0.959 . S
C1783 H1768 0.959 . S
C1783 H1769 0.961 . S
C1783 C1782 1.502 . S
C1784 H1770 0.960 . S
C1784 H1771 0.961 . S
C1784 H1772 0.959 . S
C1784 C1782 1.561 . S
C1785 C1782 1.526 . S
C1785 C1786 1.396 . S
C1785 C1790 1.390 . S
C1786 C1780 1.465 . S
C1786 C1785 1.396 . S
C1786 C1787 1.399 . S
C1787 H1773 0.929 . S
C1787 C1786 1.399 . S
C1787 C1788 1.385 . S
C1788 H1774 0.931 . S
C1788 C1787 1.385 . S
C1788 C1789 1.389 . S
C1789 C1788 1.389 . S
C1789 C1790 1.387 . S
C1790 H1775 0.930 . S
C1790 C1785 1.390 . S
C1790 C1789 1.387 . S
H1791 C1803 0.930 . S
H1792 C1805 0.930 . S
H1793 C1806 0.930 . S
H1794 C1810 0.959 . S
H1795 C1810 0.959 . S
H1796 C1810 0.961 . S
H1797 C1811 0.960 . S
H1798 C1811 0.961 . S
H1799 C1811 0.959 . S
H1800 C1814 0.929 . S
H1801 C1815 0.931 . S
H1802 C1817 0.930 . S
C1803 H1791 0.930 . S
C1803 C1804 1.399 . S
C1803 C1808 1.399 . S
C1804 C1803 1.399 . S
C1804 C1805 1.376 . S
C1805 H1792 0.930 . S
C1805 C1804 1.376 . S
C1805 C1806 1.388 . S
C1806 H1793 0.930 . S
C1806 C1805 1.388 . S
C1806 C1807 1.390 . S
C1807 C1806 1.390 . S
C1807 C1808 1.394 . S
C1807 C1813 1.465 . S
C1808 C1803 1.399 . S
C1808 C1807 1.394 . S
C1808 C1809 1.516 . S
C1809 C1808 1.516 . S
C1809 C1810 1.502 . S
C1809 C1811 1.561 . S
C1809 C1812 1.526 . S
C1810 H1794 0.959 . S
C1810 H1795 0.959 . S
C1810 H1796 0.961 . S
C1810 C1809 1.502 . S
C1811 H1797 0.960 . S
C1811 H1798 0.961 . S
C1811 H1799 0.959 . S
C1811 C1809 1.561 . S
C1812 C1809 1.526 . S
C1812 C1813 1.396 . S
C1812 C1817 1.390 . S
C1813 C1807 1.465 . S
C1813 C1812 1.396 . S
C1813 C1814 1.399 . S
C1814 H1800 0.929 . S
C1814 C1813 1.399 . S
C1814 C1815 1.385 . S
C1815 H1801 0.931 . S
C1815 C1814 1.385 . S
C1815 C1816 1.389 . S
C1816 C1815 1.389 . S
C1816 C1817 1.387 . S
C1817 H1802 0.930 . S
C1817 C1812 1.390 . S
C1817 C1816 1.387 . S
H1818 C1830 0.930 . S
H1819 C1832 0.930 . S
H1820 C1833 0.930 . S
H1821 C1837 0.959 . S
H1822 C1837 0.959 . S
H1823 C1837 0.961 . S
H1824 C1838 0.960 . S
H1825 C1838 0.961 . S
H1826 C1838 0.959 . S
H1827 C1841 0.929 . S
H1828 C1842 0.931 . S
H1829 C1844 0.930 . S
C1830 H1818 0.930 . S
C1830 C1831 1.399 . S
C1830 C1835 1.399 . S
C1831 C1830 1.399 . S
C1831 C1832 1.376 . S
C1832 H1819 0.930 . S
C1832 C1831 1.376 . S
C1832 C1833 1.388 . S
C1833 H1820 0.930 . S
C1833 C1832 1.388 . S
C1833 C1834 1.390 . S
C1834 C1833 1.390 . S
C1834 C1835 1.394 . S
C1834 C1840 1.465 . S
C1835 C1830 1.399 . S
C1835 C1834 1.394 . S
C1835 C1836 1.516 . S
C1836 C1835 1.516 . S
C1836 C1837 1.502 . S
C1836 C1838 1.561 . S
C1836 C1839 1.526 . S
C1837 H1821 0.959 . S
C1837 H1822 0.959 . S
C1837 H1823 0.961 . S
C1837 C1836 1.502 . S
C1838 H1824 0.960 . S
C1838 H1825 0.961 . S
C1838 H1826 0.959 . S
C1838 C1836 1.561 . S
C1839 C1836 1.526 . S
C1839 C1840 1.396 . S
C1839 C1844 1.390 . S
C1840 C1834 1.465 . S
C1840 C1839 1.396 . S
C1840 C1841 1.399 . S
C1841 H1827 0.929 . S
C1841 C1840 1.399 . S
C1841 C1842 1.385 . S
C1842 H1828 0.931 . S
C1842 C1841 1.385 . S
C1842 C1843 1.389 . S
C1843 C1842 1.389 . S
C1843 C1844 1.387 . S
C1844 H1829 0.930 . S
C1844 C1839 1.390 . S
C1844 C1843 1.387 . S
H1845 C1857 0.930 . S
H1846 C1859 0.930 . S
H1847 C1860 0.930 . S
H1848 C1864 0.959 . S
H1849 C1864 0.959 . S
H1850 C1864 0.961 . S
H1851 C1865 0.960 . S
H1852 C1865 0.961 . S
H1853 C1865 0.959 . S
H1854 C1868 0.929 . S
H1855 C1869 0.931 . S
H1856 C1871 0.930 . S
C1857 H1845 0.930 . S
C1857 C1858 1.399 . S
C1857 C1862 1.399 . S
C1858 C1857 1.399 . S
C1858 C1859 1.376 . S
C1859 H1846 0.930 . S
C1859 C1858 1.376 . S
C1859 C1860 1.388 . S
C1860 H1847 0.930 . S
C1860 C1859 1.388 . S
C1860 C1861 1.390 . S
C1861 C1860 1.390 . S
C1861 C1862 1.394 . S
C1861 C1867 1.465 . S
C1862 C1857 1.399 . S
C1862 C1861 1.394 . S
C1862 C1863 1.516 . S
C1863 C1862 1.516 . S
C1863 C1864 1.502 . S
C1863 C1865 1.561 . S
C1863 C1866 1.526 . S
C1864 H1848 0.959 . S
C1864 H1849 0.959 . S
C1864 H1850 0.961 . S
C1864 C1863 1.502 . S
C1865 H1851 0.960 . S
C1865 H1852 0.961 . S
C1865 H1853 0.959 . S
C1865 C1863 1.561 . S
C1866 C1863 1.526 . S
C1866 C1867 1.396 . S
C1866 C1871 1.390 . S
C1867 C1861 1.465 . S
C1867 C1866 1.396 . S
C1867 C1868 1.399 . S
C1868 H1854 0.929 . S
C1868 C1867 1.399 . S
C1868 C1869 1.385 . S
C1869 H1855 0.931 . S
C1869 C1868 1.385 . S
C1869 C1870 1.389 . S
C1870 C1869 1.389 . S
C1870 C1871 1.387 . S
C1871 H1856 0.930 . S
C1871 C1866 1.390 . S
C1871 C1870 1.387 . S
H1872 C1884 0.930 . S
H1873 C1886 0.930 . S
H1874 C1887 0.930 . S
H1875 C1891 0.959 . S
H1876 C1891 0.959 . S
H1877 C1891 0.961 . S
H1878 C1892 0.960 . S
H1879 C1892 0.961 . S
H1880 C1892 0.959 . S
H1881 C1895 0.929 . S
H1882 C1896 0.931 . S
H1883 C1898 0.930 . S
C1884 H1872 0.930 . S
C1884 C1885 1.399 . S
C1884 C1889 1.399 . S
C1885 C1884 1.399 . S
C1885 C1886 1.376 . S
C1886 H1873 0.930 . S
C1886 C1885 1.376 . S
C1886 C1887 1.388 . S
C1887 H1874 0.930 . S
C1887 C1886 1.388 . S
C1887 C1888 1.390 . S
C1888 C1887 1.390 . S
C1888 C1889 1.394 . S
C1888 C1894 1.465 . S
C1889 C1884 1.399 . S
C1889 C1888 1.394 . S
C1889 C1890 1.516 . S
C1890 C1889 1.516 . S
C1890 C1891 1.502 . S
C1890 C1892 1.561 . S
C1890 C1893 1.526 . S
C1891 H1875 0.959 . S
C1891 H1876 0.959 . S
C1891 H1877 0.961 . S
C1891 C1890 1.502 . S
C1892 H1878 0.960 . S
C1892 H1879 0.961 . S
C1892 H1880 0.959 . S
C1892 C1890 1.561 . S
C1893 C1890 1.526 . S
C1893 C1894 1.396 . S
C1893 C1898 1.390 . S
C1894 C1888 1.465 . S
C1894 C1893 1.396 . S
C1894 C1895 1.399 . S
C1895 H1881 0.929 . S
C1895 C1894 1.399 . S
C1895 C1896 1.385 . S
C1896 H1882 0.931 . S
C1896 C1895 1.385 . S
C1896 C1897 1.389 . S
C1897 C1896 1.389 . S
C1897 C1898 1.387 . S
C1898 H1883 0.930 . S
C1898 C1893 1.390 . S
C1898 C1897 1.387 . S
H1899 C1911 0.930 . S
H1900 C1913 0.930 . S
H1901 C1914 0.930 . S
H1902 C1918 0.959 . S
H1903 C1918 0.959 . S
H1904 C1918 0.961 . S
H1905 C1919 0.960 . S
H1906 C1919 0.961 . S
H1907 C1919 0.959 . S
H1908 C1922 0.929 . S
H1909 C1923 0.931 . S
H1910 C1925 0.930 . S
C1911 H1899 0.930 . S
C1911 C1912 1.399 . S
C1911 C1916 1.399 . S
C1912 C1911 1.399 . S
C1912 C1913 1.376 . S
C1913 H1900 0.930 . S
C1913 C1912 1.376 . S
C1913 C1914 1.388 . S
C1914 H1901 0.930 . S
C1914 C1913 1.388 . S
C1914 C1915 1.390 . S
C1915 C1914 1.390 . S
C1915 C1916 1.394 . S
C1915 C1921 1.465 . S
C1916 C1911 1.399 . S
C1916 C1915 1.394 . S
C1916 C1917 1.516 . S
C1917 C1916 1.516 . S
C1917 C1918 1.502 . S
C1917 C1919 1.561 . S
C1917 C1920 1.526 . S
C1918 H1902 0.959 . S
C1918 H1903 0.959 . S
C1918 H1904 0.961 . S
C1918 C1917 1.502 . S
C1919 H1905 0.960 . S
C1919 H1906 0.961 . S
C1919 H1907 0.959 . S
C1919 C1917 1.561 . S
C1920 C1917 1.526 . S
C1920 C1921 1.396 . S
C1920 C1925 1.390 . S
C1921 C1915 1.465 . S
C1921 C1920 1.396 . S
C1921 C1922 1.399 . S
C1922 H1908 0.929 . S
C1922 C1921 1.399 . S
C1922 C1923 1.385 . S
C1923 H1909 0.931 . S
C1923 C1922 1.385 . S
C1923 C1924 1.389 . S
C1924 C1923 1.389 . S
C1924 C1925 1.387 . S
C1925 H1910 0.930 . S
C1925 C1920 1.390 . S
C1925 C1924 1.387 . S
H1926 C1938 0.930 . S
H1927 C1940 0.930 . S
H1928 C1941 0.930 . S
H1929 C1945 0.959 . S
H1930 C1945 0.959 . S
H1931 C1945 0.961 . S
H1932 C1946 0.960 . S
H1933 C1946 0.961 . S
H1934 C1946 0.959 . S
H1935 C1949 0.929 . S
H1936 C1950 0.931 . S
H1937 C1952 0.930 . S
C1938 H1926 0.930 . S
C1938 C1939 1.399 . S
C1938 C1943 1.399 . S
C1939 C1938 1.399 . S
C1939 C1940 1.376 . S
C1940 H1927 0.930 . S
C1940 C1939 1.376 . S
C1940 C1941 1.388 . S
C1941 H1928 0.930 . S
C1941 C1940 1.388 . S
C1941 C1942 1.390 . S
C1942 C1941 1.390 . S
C1942 C1943 1.394 . S
C1942 C1948 1.465 . S
C1943 C1938 1.399 . S
C1943 C1942 1.394 . S
C1943 C1944 1.516 . S
C1944 C1943 1.516 . S
C1944 C1945 1.502 . S
C1944 C1946 1.561 . S
C1944 C1947 1.526 . S
C1945 H1929 0.959 . S
C1945 H1930 0.959 . S
C1945 H1931 0.961 . S
C1945 C1944 1.502 . S
C1946 H1932 0.960 . S
C1946 H1933 0.961 . S
C1946 H1934 0.959 . S
C1946 C1944 1.561 . S
C1947 C1944 1.526 . S
C1947 C1948 1.396 . S
C1947 C1952 1.390 . S
C1948 C1942 1.465 . S
C1948 C1947 1.396 . S
C1948 C1949 1.399 . S
C1949 H1935 0.929 . S
C1949 C1948 1.399 . S
C1949 C1950 1.385 . S
C1950 H1936 0.931 . S
C1950 C1949 1.385 . S
C1950 C1951 1.389 . S
C1951 C1950 1.389 . S
C1951 C1952 1.387 . S
C1952 H1937 0.930 . S
C1952 C1947 1.390 . S
C1952 C1951 1.387 . S
H1953 C1965 0.930 . S
H1954 C1967 0.930 . S
H1955 C1968 0.930 . S
H1956 C1972 0.959 . S
H1957 C1972 0.959 . S
H1958 C1972 0.961 . S
H1959 C1973 0.960 . S
H1960 C1973 0.961 . S
H1961 C1973 0.959 . S
H1962 C1976 0.929 . S
H1963 C1977 0.931 . S
H1964 C1979 0.930 . S
C1965 H1953 0.930 . S
C1965 C1966 1.399 . S
C1965 C1970 1.399 . S
C1966 C1965 1.399 . S
C1966 C1967 1.376 . S
C1967 H1954 0.930 . S
C1967 C1966 1.376 . S
C1967 C1968 1.388 . S
C1968 H1955 0.930 . S
C1968 C1967 1.388 . S
C1968 C1969 1.390 . S
C1969 C1968 1.390 . S
C1969 C1970 1.394 . S
C1969 C1975 1.465 . S
C1970 C1965 1.399 . S
C1970 C1969 1.394 . S
C1970 C1971 1.516 . S
C1971 C1970 1.516 . S
C1971 C1972 1.502 . S
C1971 C1973 1.561 . S
C1971 C1974 1.526 . S
C1972 H1956 0.959 . S
C1972 H1957 0.959 . S
C1972 H1958 0.961 . S
C1972 C1971 1.502 . S
C1973 H1959 0.960 . S
C1973 H1960 0.961 . S
C1973 H1961 0.959 . S
C1973 C1971 1.561 . S
C1974 C1971 1.526 . S
C1974 C1975 1.396 . S
C1974 C1979 1.390 . S
C1975 C1969 1.465 . S
C1975 C1974 1.396 . S
C1975 C1976 1.399 . S
C1976 H1962 0.929 . S
C1976 C1975 1.399 . S
C1976 C1977 1.385 . S
C1977 H1963 0.931 . S
C1977 C1976 1.385 . S
C1977 C1978 1.389 . S
C1978 C1977 1.389 . S
C1978 C1979 1.387 . S
C1979 H1964 0.930 . S
C1979 C1974 1.390 . S
C1979 C1978 1.387 . S
C1021 C476 1.599 . S
C1033 C58 1.164 . S
C1048 C142 1.184 . S
C1060 C56 1.729 . S
C1075 C226 1.277 . S
C1087 C140 1.683 . S
C1102 C224 1.612 . S
C1114 C310 1.154 . S
C1129 C308 1.721 . S
C1141 C394 1.288 . S
C1156 C478 1.359 . S
C1168 C392 1.711 . S
C1183 C644 1.590 . S
C1195 C562 1.176 . S
C1210 C646 1.370 . S
C1222 C728 1.659 . S
C1237 C812 1.741 . S
C1249 C730 1.212 . S
C1264 C896 1.616 . S
C1276 C814 1.250 . S
C1291 C980 1.691 . S
C1303 C898 1.262 . S
C1318 C560 1.707 . S
C1330 C982 1.317 . S
C1345 C998 3.466 . S
C1357 C67 3.387 . S
C1372 C151 2.963 . S
C1384 C578 2.979 . S
C1399 C662 3.252 . S
C1411 C235 3.161 . S
C1426 C746 3.441 . S
C1438 C319 3.422 . S
C1453 C830 3.012 . S
C1465 C403 2.932 . S
C1480 C487 3.174 . S
C1492 C914 3.231 . S
C1507 C571 3.392 . S
C1519 C158 3.471 . S
C1534 C655 3.174 . S
C1546 C242 3.231 . S
C1561 C326 2.999 . S
C1573 C739 2.929 . S
C1588 C410 3.449 . S
C1600 C823 3.422 . S
C1615 C907 3.185 . S
C1627 C494 3.247 . S
C1642 C991 2.965 . S
C1654 C74 2.979 . S
C1669 C567 2.183 . S
C1681 C63 2.197 . S
C1696 C147 1.459 . S
C1708 C651 1.467 . S
C1723 C735 1.524 . S
C1735 C231 1.495 . S
C1750 C315 2.187 . S
C1762 C819 2.231 . S
C1777 C903 1.464 . S
C1789 C399 1.518 . S
C1804 C987 1.499 . S
C1816 C483 1.530 . S
C1831 C573 0.512 . S
C1843 C69 0.437 . S
C1858 C657 0.395 . S
C1870 C153 0.428 . S
C1885 C741 0.432 . S
C1897 C237 0.451 . S
C1912 C321 0.514 . S
C1924 C825 0.438 . S
C1939 C909 0.375 . S
C1951 C405 0.420 . S
C1966 C993 0.425 . S
C1978 C489 0.457 . S
