# Generated by pormake.
# Topology smd, (6)-cn, num edge types: 1
# Building blocks:
#     Node 0, Type 0, BuildingBlock: FUNLAD_clean_sbu_0, # of connection points: 6
#     Node 1, Type 0, BuildingBlock: FUNLAD_clean_sbu_0, # of connection points: 6
#     Node 2, Type 0, BuildingBlock: FUNLAD_clean_sbu_0, # of connection points: 6
#     Node 3, Type 0, BuildingBlock: FUNLAD_clean_sbu_0, # of connection points: 6
#     Node 4, Type 0, BuildingBlock: FUNLAD_clean_sbu_0, # of connection points: 6
#     Node 5, Type 0, BuildingBlock: FUNLAD_clean_sbu_0, # of connection points: 6
#     Node 6, Type 0, BuildingBlock: FUNLAD_clean_sbu_0, # of connection points: 6
#     Node 7, Type 0, BuildingBlock: FUNLAD_clean_sbu_0, # of connection points: 6
#     Node 8, Type 0, BuildingBlock: FUNLAD_clean_sbu_0, # of connection points: 6
#     Node 9, Type 0, BuildingBlock: FUNLAD_clean_sbu_0, # of connection points: 6
#     Node 10, Type 0, BuildingBlock: FUNLAD_clean_sbu_0, # of connection points: 6
#     Node 11, Type 0, BuildingBlock: FUNLAD_clean_sbu_0, # of connection points: 6
#     Node 12, Type 0, BuildingBlock: FUNLAD_clean_sbu_0, # of connection points: 6
#     Node 13, Type 0, BuildingBlock: FUNLAD_clean_sbu_0, # of connection points: 6
#     Node 14, Type 0, BuildingBlock: FUNLAD_clean_sbu_0, # of connection points: 6
#     Node 15, Type 0, BuildingBlock: FUNLAD_clean_sbu_0, # of connection points: 6
#     Node 16, Type 0, BuildingBlock: FUNLAD_clean_sbu_0, # of connection points: 6
#     Node 17, Type 0, BuildingBlock: FUNLAD_clean_sbu_0, # of connection points: 6
#     Edge 18, Type (0, 0), None
#     Edge 19, Type (0, 0), None
#     Edge 20, Type (0, 0), None
#     Edge 21, Type (0, 0), None
#     Edge 22, Type (0, 0), None
#     Edge 23, Type (0, 0), None
#     Edge 24, Type (0, 0), None
#     Edge 25, Type (0, 0), None
#     Edge 26, Type (0, 0), None
#     Edge 27, Type (0, 0), None
#     Edge 28, Type (0, 0), None
#     Edge 29, Type (0, 0), None
#     Edge 30, Type (0, 0), None
#     Edge 31, Type (0, 0), None
#     Edge 32, Type (0, 0), None
#     Edge 33, Type (0, 0), None
#     Edge 34, Type (0, 0), None
#     Edge 35, Type (0, 0), None
#     Edge 36, Type (0, 0), None
#     Edge 37, Type (0, 0), None
#     Edge 38, Type (0, 0), None
#     Edge 39, Type (0, 0), None
#     Edge 40, Type (0, 0), None
#     Edge 41, Type (0, 0), None
#     Edge 42, Type (0, 0), None
#     Edge 43, Type (0, 0), None
#     Edge 44, Type (0, 0), None
#     Edge 45, Type (0, 0), None
#     Edge 46, Type (0, 0), None
#     Edge 47, Type (0, 0), None
#     Edge 48, Type (0, 0), None
#     Edge 49, Type (0, 0), None
#     Edge 50, Type (0, 0), None
#     Edge 51, Type (0, 0), None
#     Edge 52, Type (0, 0), None
#     Edge 53, Type (0, 0), None
#     Edge 54, Type (0, 0), None
#     Edge 55, Type (0, 0), None
#     Edge 56, Type (0, 0), None
#     Edge 57, Type (0, 0), None
#     Edge 58, Type (0, 0), None
#     Edge 59, Type (0, 0), None
#     Edge 60, Type (0, 0), None
#     Edge 61, Type (0, 0), None
#     Edge 62, Type (0, 0), None
#     Edge 63, Type (0, 0), None
#     Edge 64, Type (0, 0), None
#     Edge 65, Type (0, 0), None
#     Edge 66, Type (0, 0), None
#     Edge 67, Type (0, 0), None
#     Edge 68, Type (0, 0), None
#     Edge 69, Type (0, 0), None
#     Edge 70, Type (0, 0), None
#     Edge 71, Type (0, 0), None
# Relax obj value: 0.330
# Max RMSD: 0.205
# Mean RMSD: 0.205
data_MOF--net-smd--node1-FUNLAD_clean_sbu_0--edge1-none
_symmetry_space_group_name_H-M    P1
_symmetry_Int_Tables_number       1
_symmetry_cell_setting            triclinic
loop_
_symmetry_equiv_pos_as_xyz
'x, y, z'
_cell_length_a     46.797934
_cell_length_b     46.798288
_cell_length_c     6.9169128
_cell_angle_alpha  89.99982
_cell_angle_beta   90.000737
_cell_angle_gamma 119.99898
loop_
_atom_site_label
_atom_site_type_symbol
_atom_site_fract_x
_atom_site_fract_y
_atom_site_fract_z
_atom_type_partial_charge
C0 C 0.0474 0.25757 0.09771 0.0
N1 N 0.10483 0.2393 0.48935 0.0
C2 C 0.10767 0.21886 0.35978 0.0
C3 C 0.13735 0.21818 0.34646 0.0
C4 C 0.16391 0.23906 0.46622 0.0
C5 C 0.15942 0.2582 0.60497 0.0
C6 C 0.12977 0.25802 0.61387 0.0
Zn7 Zn 0.06833 0.25151 0.49028 0.0
C8 C 0.09701 0.32373 0.44539 0.0
N9 N 0.99648 0.2838 0.54582 0.0
C10 C 0.96398 0.27131 0.49926 0.0
C11 C 0.01117 0.30907 0.67571 0.0
C12 C 0.99414 0.32266 0.76219 0.0
C13 C 0.96127 0.31142 0.71432 0.0
C14 C 0.94584 0.2852 0.58083 0.0
Zn15 Zn 0.02858 0.26525 0.49367 0.0
O16 O 0.0658 0.24968 0.19051 0.0
C17 C 0.99834 0.1937 0.50079 0.0
O18 O 0.02793 0.26502 0.18576 0.0
H19 H 0.03622 0.31831 0.72265 0.0
H20 H 0.08777 0.20458 0.25979 0.0
H21 H 0.95202 0.25054 0.40166 0.0
O22 O 0.02839 0.20031 0.50591 0.0
O23 O 0.99161 0.21688 0.49787 0.0
H24 H 0.12768 0.27477 0.71244 0.0
O25 O 0.02961 0.26405 0.79496 0.0
O26 O 0.06987 0.25329 0.79986 0.0
O27 O 0.06674 0.31358 0.47251 0.0
O28 O 0.10712 0.30315 0.45539 0.0
C29 C 0.04913 0.25834 0.88868 0.0
H30 H 0.1402 0.20334 0.23636 0.0
H31 H 0.17938 0.27457 0.69999 0.0
H32 H 1.00722 0.34266 0.86425 0.0
H33 H 0.92053 0.27613 0.53696 0.0
C34 C 0.83822 0.83176 0.09771 0.0
N35 N 0.85648 0.90746 0.48935 0.0
C36 C 0.87692 0.93074 0.35978 0.0
C37 C 0.8776 0.96109 0.34647 0.0
C38 C 0.85674 0.96679 0.46624 0.0
C39 C 0.83759 0.94316 0.60498 0.0
C40 C 0.83776 0.91368 0.61387 0.0
Zn41 Zn 0.84427 0.85874 0.49028 0.0
C42 C 0.77206 0.81522 0.44539 0.0
N43 N 0.81198 0.75461 0.54583 0.0
C44 C 0.82447 0.7346 0.49928 0.0
C45 C 0.78671 0.74403 0.67572 0.0
C46 C 0.77312 0.71342 0.7622 0.0
C47 C 0.78436 0.69178 0.71433 0.0
C48 C 0.81059 0.70257 0.58085 0.0
Zn49 Zn 0.83053 0.80526 0.49367 0.0
O50 O 0.8461 0.85805 0.19051 0.0
C51 C 0.90209 0.84657 0.50079 0.0
O52 O 0.83076 0.80484 0.18577 0.0
H53 H 0.77747 0.75984 0.72265 0.0
H54 H 0.8912 0.92511 0.2598 0.0
H55 H 0.84525 0.74342 0.40169 0.0
O56 O 0.89547 0.87 0.50591 0.0
O57 O 0.8789 0.81666 0.49788 0.0
H58 H 0.82101 0.89484 0.71244 0.0
O59 O 0.83173 0.80748 0.79496 0.0
O60 O 0.84249 0.85851 0.79986 0.0
O61 O 0.7822 0.7951 0.47251 0.0
O62 O 0.79263 0.8459 0.45539 0.0
C63 C 0.83745 0.83273 0.88869 0.0
H64 H 0.89245 0.97879 0.23638 0.0
H65 H 0.82122 0.94675 0.7 0.0
H66 H 0.75312 0.70649 0.86425 0.0
H67 H 0.81965 0.68633 0.53698 0.0
C68 C 0.26402 0.04838 0.09771 0.0
N69 N 0.18832 0.99095 0.48934 0.0
C70 C 0.16504 0.98812 0.35977 0.0
C71 C 0.13469 0.95844 0.34645 0.0
C72 C 0.129 0.93188 0.46622 0.0
C73 C 0.15262 0.93637 0.60498 0.0
C74 C 0.1821 0.96602 0.61387 0.0
Zn75 Zn 0.23704 0.02746 0.49028 0.0
C76 C 0.28056 0.99877 0.44539 0.0
N77 N 0.34117 0.09931 0.54583 0.0
C78 C 0.36118 0.1318 0.49928 0.0
C79 C 0.35176 0.08462 0.67572 0.0
C80 C 0.38237 0.10164 0.7622 0.0
C81 C 0.404 0.13452 0.71433 0.0
C82 C 0.39321 0.14995 0.58085 0.0
Zn83 Zn 0.29052 0.0672 0.49367 0.0
O84 O 0.23773 0.02998 0.1905 0.0
C85 C 0.24921 0.09745 0.50078 0.0
O86 O 0.29094 0.06785 0.18576 0.0
H87 H 0.33594 0.05956 0.72265 0.0
H88 H 0.17067 0.00802 0.25978 0.0
H89 H 0.35236 0.14376 0.40168 0.0
O90 O 0.22578 0.0674 0.5059 0.0
O91 O 0.27912 0.10417 0.49787 0.0
H92 H 0.20094 0.96811 0.71244 0.0
O93 O 0.2883 0.06618 0.79496 0.0
O94 O 0.23727 0.02591 0.79985 0.0
O95 O 0.30069 0.02904 0.47251 0.0
O96 O 0.24988 0.98866 0.45539 0.0
C97 C 0.26305 0.04665 0.88868 0.0
H98 H 0.117 0.95559 0.23635 0.0
H99 H 0.14904 0.91641 0.7 0.0
H100 H 0.3893 0.08857 0.86426 0.0
H101 H 0.40945 0.17525 0.53698 0.0
C102 C 0.05063 0.83348 0.04917 0.0
N103 N 0.10328 0.808 0.39215 0.0
C104 C 0.08859 0.78274 0.26223 0.0
C105 C 0.10562 0.76915 0.1757 0.0
C106 C 0.1385 0.78041 0.22348 0.0
C107 C 0.15394 0.80664 0.35686 0.0
C108 C 0.13579 0.82052 0.43846 0.0
Zn109 Zn 0.07117 0.82656 0.44418 0.0
C110 C 0.10142 0.89811 0.43707 0.0
N111 N 0.99493 0.85253 0.44849 0.0
C112 C 0.96999 0.8338 0.32398 0.0
C113 C 0.99209 0.87295 0.57813 0.0
C114 C 0.96241 0.87363 0.59146 0.0
C115 C 0.93585 0.85276 0.47166 0.0
C116 C 0.94034 0.83363 0.33288 0.0
Zn117 Zn 0.03143 0.8403 0.44757 0.0
O118 O 0.07015 0.82775 0.14288 0.0
C119 C 1.00274 0.76809 0.49243 0.0
O120 O 0.02989 0.83853 0.138 0.0
H121 H 0.01199 0.88723 0.67815 0.0
H122 H 0.06354 0.77349 0.21534 0.0
H123 H 0.97209 0.81706 0.2254 0.0
O124 O 0.03301 0.77823 0.46535 0.0
O125 O 0.99263 0.78866 0.48243 0.0
H126 H 0.14776 0.84132 0.53594 0.0
O127 O 0.03395 0.84213 0.74735 0.0
O128 O 0.07182 0.82679 0.75208 0.0
O129 O 0.07137 0.8915 0.43198 0.0
O130 O 0.10815 0.87493 0.43997 0.0
C131 C 0.05236 0.83425 0.84014 0.0
H132 H 0.09254 0.74915 0.07367 0.0
H133 H 0.17925 0.81572 0.40061 0.0
H134 H 0.95956 0.88847 0.70159 0.0
H135 H 0.92039 0.81726 0.23785 0.0
C136 C 0.26231 0.25909 0.04917 0.0
N137 N 0.28779 0.33721 0.39215 0.0
C138 C 0.31306 0.34779 0.26223 0.0
C139 C 0.32664 0.3784 0.1757 0.0
C140 C 0.31538 0.40003 0.22347 0.0
C141 C 0.28915 0.38923 0.35684 0.0
C142 C 0.27527 0.3572 0.43845 0.0
Zn143 Zn 0.26923 0.28655 0.44417 0.0
C144 C 0.19768 0.24525 0.43706 0.0
N145 N 0.24326 0.18435 0.44849 0.0
C146 C 0.26198 0.17813 0.32399 0.0
C147 C 0.22284 0.16108 0.57813 0.0
C148 C 0.22215 0.13072 0.59145 0.0
C149 C 0.24302 0.12502 0.47165 0.0
C150 C 0.26215 0.14865 0.33287 0.0
Zn151 Zn 0.25549 0.23307 0.44758 0.0
O152 O 0.26804 0.28434 0.14288 0.0
C153 C 0.3277 0.27658 0.49244 0.0
O154 O 0.25726 0.2333 0.13801 0.0
H155 H 0.20856 0.1667 0.67815 0.0
H156 H 0.3223 0.33198 0.21534 0.0
H157 H 0.27873 0.19697 0.2254 0.0
O158 O 0.31756 0.29671 0.46535 0.0
O159 O 0.30713 0.2459 0.48243 0.0
H160 H 0.25447 0.34838 0.53592 0.0
O161 O 0.25366 0.23376 0.74736 0.0
O162 O 0.269 0.28697 0.75208 0.0
O163 O 0.20429 0.22182 0.43198 0.0
O164 O 0.22086 0.27516 0.43996 0.0
C165 C 0.26155 0.26005 0.84014 0.0
H166 H 0.34664 0.38533 0.07368 0.0
H167 H 0.28007 0.40546 0.40059 0.0
H168 H 0.20732 0.11303 0.70158 0.0
H169 H 0.27852 0.14506 0.23785 0.0
C170 C 0.8367 0.04516 0.04918 0.0
N171 N 0.75858 0.99251 0.39216 0.0
C172 C 0.748 0.0072 0.26223 0.0
C173 C 0.71739 0.99017 0.1757 0.0
C174 C 0.69576 0.95729 0.22348 0.0
C175 C 0.70656 0.94185 0.35686 0.0
C176 C 0.73859 0.96 0.43846 0.0
Zn177 Zn 0.80924 0.02462 0.44418 0.0
C178 C 0.85055 0.99437 0.43708 0.0
N179 N 0.91145 0.10085 0.4485 0.0
C180 C 0.91766 0.12579 0.32399 0.0
C181 C 0.93472 0.1037 0.57815 0.0
C182 C 0.96507 0.13337 0.59147 0.0
C183 C 0.97076 0.15993 0.47166 0.0
C184 C 0.94714 0.15544 0.33288 0.0
Zn185 Zn 0.86272 0.06436 0.44759 0.0
O186 O 0.81145 0.02564 0.14288 0.0
C187 C 0.81921 0.09305 0.49244 0.0
O188 O 0.86249 0.06589 0.13802 0.0
H189 H 0.92909 0.0838 0.67818 0.0
H190 H 0.76381 0.03225 0.21535 0.0
H191 H 0.89882 0.1237 0.22541 0.0
O192 O 0.79908 0.06278 0.46535 0.0
O193 O 0.84989 0.10316 0.48244 0.0
H194 H 0.74742 0.94803 0.53594 0.0
O195 O 0.86203 0.06184 0.74737 0.0
O196 O 0.80882 0.02397 0.75208 0.0
O197 O 0.87398 0.02441 0.432 0.0
O198 O 0.82063 0.98764 0.43997 0.0
C199 C 0.83574 0.04343 0.84015 0.0
H200 H 0.71046 1.00325 0.07368 0.0
H201 H 0.69033 0.91654 0.40061 0.0
H202 H 0.98276 0.13622 0.7016 0.0
H203 H 0.95073 0.1754 0.23785 0.0
C204 C 0.71407 0.5909 0.43104 0.0
N205 N 0.7715 0.57263 0.82268 0.0
C206 C 0.77434 0.5522 0.6931 0.0
C207 C 0.80401 0.55152 0.67977 0.0
C208 C 0.83058 0.57239 0.79954 0.0
C209 C 0.82609 0.59153 0.93831 0.0
C210 C 0.79644 0.59135 0.94721 0.0
Zn211 Zn 0.73499 0.58485 0.82362 0.0
C212 C 0.76368 0.65706 0.7787 0.0
N213 N 0.66315 0.61713 0.87915 0.0
C214 C 0.63065 0.60465 0.8326 0.0
C215 C 0.67784 0.64241 0.00903 0.0
C216 C 0.66081 0.65599 0.09552 0.0
C217 C 0.62794 0.64475 0.04765 0.0
C218 C 0.6125 0.61853 0.91417 0.0
Zn219 Zn 0.69525 0.59859 0.82699 0.0
O220 O 0.73247 0.58302 0.52384 0.0
C221 C 0.66501 0.52703 0.83412 0.0
O222 O 0.6946 0.59835 0.51909 0.0
H223 H 0.70289 0.65165 0.05596 0.0
H224 H 0.75443 0.53792 0.59311 0.0
H225 H 0.61869 0.58387 0.73501 0.0
O226 O 0.69505 0.53364 0.83923 0.0
O227 O 0.65828 0.55022 0.8312 0.0
H228 H 0.79434 0.6081 0.04579 0.0
O229 O 0.69628 0.59739 0.12828 0.0
O230 O 0.73654 0.58662 0.13319 0.0
O231 O 0.73341 0.64692 0.80582 0.0
O232 O 0.77379 0.63648 0.78874 0.0
C233 C 0.7158 0.59167 0.22201 0.0
H234 H 0.80686 0.53668 0.56967 0.0
H235 H 0.84605 0.6079 0.03333 0.0
H236 H 0.67389 0.676 0.19757 0.0
H237 H 0.5872 0.60947 0.87031 0.0
C238 C 0.50488 0.1651 0.43104 0.0
N239 N 0.52315 0.2408 0.82268 0.0
C240 C 0.54359 0.26407 0.6931 0.0
C241 C 0.54427 0.29443 0.67979 0.0
C242 C 0.5234 0.30012 0.79956 0.0
C243 C 0.50426 0.2765 0.93832 0.0
C244 C 0.50443 0.24702 0.94721 0.0
Zn245 Zn 0.51094 0.19208 0.82362 0.0
C246 C 0.43873 0.14856 0.7787 0.0
N247 N 0.47865 0.08794 0.87916 0.0
C248 C 0.49114 0.06794 0.83262 0.0
C249 C 0.45337 0.07736 0.00904 0.0
C250 C 0.43979 0.04675 0.09552 0.0
C251 C 0.45103 0.02512 0.04767 0.0
C252 C 0.47725 0.03591 0.91419 0.0
Zn253 Zn 0.4972 0.1386 0.827 0.0
O254 O 0.51277 0.19139 0.52384 0.0
C255 C 0.56875 0.17991 0.83412 0.0
O256 O 0.49743 0.13818 0.51909 0.0
H257 H 0.44413 0.09317 0.05596 0.0
H258 H 0.55787 0.25845 0.59311 0.0
H259 H 0.51192 0.07675 0.73503 0.0
O260 O 0.56214 0.20334 0.83923 0.0
O261 O 0.54557 0.14999 0.83121 0.0
H262 H 0.48768 0.22818 0.04579 0.0
O263 O 0.49839 0.14082 0.12829 0.0
O264 O 0.50916 0.19185 0.13319 0.0
O265 O 0.44887 0.12843 0.80583 0.0
O266 O 0.4593 0.17924 0.78874 0.0
C267 C 0.50411 0.16606 0.22202 0.0
H268 H 0.55911 0.31212 0.56968 0.0
H269 H 0.48789 0.28009 0.03334 0.0
H270 H 0.41978 0.03982 0.19757 0.0
H271 H 0.48632 0.01966 0.87033 0.0
C272 C 0.93068 0.38172 0.43102 0.0
N273 N 0.85498 0.32429 0.82266 0.0
C274 C 0.83171 0.32145 0.69307 0.0
C275 C 0.80135 0.29177 0.67976 0.0
C276 C 0.79566 0.26521 0.79954 0.0
C277 C 0.81929 0.2697 0.9383 0.0
C278 C 0.84876 0.29935 0.94719 0.0
Zn279 Zn 0.9037 0.36079 0.82359 0.0
C280 C 0.94722 0.3321 0.77869 0.0
N281 N 1.00784 0.43264 0.87914 0.0
C282 C 0.02784 0.46513 0.83259 0.0
C283 C 0.01842 0.41795 0.00902 0.0
C284 C 0.04903 0.43497 0.09551 0.0
C285 C 0.07066 0.46785 0.04765 0.0
C286 C 0.05987 0.48328 0.91417 0.0
Zn287 Zn 0.95718 0.40053 0.82698 0.0
O288 O 0.90439 0.36331 0.52382 0.0
C289 C 0.91587 0.43078 0.8341 0.0
O290 O 0.9576 0.40118 0.51907 0.0
H291 H 1.00261 0.39289 0.05594 0.0
H292 H 0.83733 0.34135 0.59308 0.0
H293 H 0.01903 0.47709 0.735 0.0
O294 O 0.89244 0.40073 0.8392 0.0
O295 O 0.94579 0.43751 0.83119 0.0
H296 H 0.86761 0.30144 0.04577 0.0
O297 O 0.95496 0.39951 0.12827 0.0
O298 O 0.90393 0.35925 0.13316 0.0
O299 O 0.96735 0.36237 0.80581 0.0
O300 O 0.91654 0.322 0.78872 0.0
C301 C 0.92972 0.37999 0.22199 0.0
H302 H 0.78366 0.28892 0.56965 0.0
H303 H 0.8157 0.24974 0.03333 0.0
H304 H 0.05596 0.4219 0.19756 0.0
H305 H 0.07612 0.50859 0.87031 0.0
C306 C 0.71729 0.16681 0.38249 0.0
N307 N 0.76995 0.14133 0.72548 0.0
C308 C 0.75526 0.11607 0.59556 0.0
C309 C 0.77228 0.10248 0.50903 0.0
C310 C 0.80516 0.11373 0.55683 0.0
C311 C 0.8206 0.13998 0.69017 0.0
C312 C 0.80246 0.15385 0.77177 0.0
Zn313 Zn 0.73784 0.15989 0.7775 0.0
C314 C 0.76809 0.23144 0.77039 0.0
N315 N 0.6616 0.18586 0.78181 0.0
C316 C 0.63666 0.16713 0.65732 0.0
C317 C 0.65875 0.20628 0.91146 0.0
C318 C 0.62908 0.20696 0.92478 0.0
C319 C 0.60252 0.1861 0.80499 0.0
C320 C 0.60701 0.16696 0.66621 0.0
Zn321 Zn 0.6981 0.17363 0.7809 0.0
O322 O 0.73682 0.16108 0.47621 0.0
C323 C 0.6694 0.10142 0.82577 0.0
O324 O 0.69656 0.17186 0.47133 0.0
H325 H 0.67866 0.22056 0.01147 0.0
H326 H 0.7302 0.10682 0.54867 0.0
H327 H 0.63875 0.15039 0.55873 0.0
O328 O 0.69967 0.11156 0.79868 0.0
O329 O 0.65929 0.12199 0.81575 0.0
H330 H 0.81443 0.17465 0.86923 0.0
O331 O 0.70062 0.17546 0.08068 0.0
O332 O 0.73849 0.16012 0.08541 0.0
O333 O 0.73804 0.22483 0.7653 0.0
O334 O 0.77482 0.20826 0.77329 0.0
C335 C 0.71902 0.16758 0.17347 0.0
H336 H 0.7592 0.08247 0.40702 0.0
H337 H 0.84592 0.14906 0.7339 0.0
H338 H 0.62623 0.2218 0.03491 0.0
H339 H 0.58705 0.15059 0.57119 0.0
C340 C 0.92898 0.59242 0.38249 0.0
N341 N 0.95446 0.67055 0.72547 0.0
C342 C 0.97973 0.68112 0.59556 0.0
C343 C 0.99331 0.71173 0.50904 0.0
C344 C 0.98206 0.73336 0.55683 0.0
C345 C 0.95581 0.72256 0.69016 0.0
C346 C 0.94194 0.69054 0.77176 0.0
Zn347 Zn 0.9359 0.61989 0.7775 0.0
C348 C 0.86435 0.57858 0.77039 0.0
N349 N 0.90993 0.51768 0.78181 0.0
C350 C 0.92865 0.51146 0.65731 0.0
C351 C 0.8895 0.49441 0.91145 0.0
C352 C 0.88882 0.46405 0.92477 0.0
C353 C 0.90968 0.45836 0.80497 0.0
C354 C 0.92882 0.48198 0.6662 0.0
Zn355 Zn 0.92216 0.5664 0.7809 0.0
O356 O 0.93471 0.61767 0.4762 0.0
C357 C 0.99437 0.60992 0.82577 0.0
O358 O 0.92393 0.56664 0.47133 0.0
H359 H 0.87523 0.50004 0.01147 0.0
H360 H 0.98897 0.66531 0.54868 0.0
H361 H 0.9454 0.5303 0.55874 0.0
O362 O 0.98423 0.63004 0.79868 0.0
O363 O 0.9738 0.57924 0.81576 0.0
H364 H 0.92114 0.68171 0.86922 0.0
O365 O 0.92033 0.56709 0.08068 0.0
O366 O 0.93566 0.6203 0.0854 0.0
O367 O 0.87096 0.55515 0.7653 0.0
O368 O 0.88753 0.6085 0.77328 0.0
C369 C 0.92821 0.59338 0.17347 0.0
H370 H 0.01332 0.71866 0.40702 0.0
H371 H 0.94673 0.7388 0.73388 0.0
H372 H 0.87398 0.44637 0.03489 0.0
H373 H 0.94519 0.47839 0.57117 0.0
C374 C 0.50337 0.37849 0.38251 0.0
N375 N 0.42524 0.32584 0.72548 0.0
C376 C 0.41467 0.34053 0.59557 0.0
C377 C 0.38406 0.32351 0.50904 0.0
C378 C 0.36243 0.29063 0.55683 0.0
C379 C 0.37323 0.27519 0.69017 0.0
C380 C 0.40525 0.29333 0.77177 0.0
Zn381 Zn 0.47591 0.35795 0.77751 0.0
C382 C 0.51721 0.3277 0.7704 0.0
N383 N 0.57811 0.43418 0.78183 0.0
C384 C 0.58433 0.45912 0.65732 0.0
C385 C 0.60138 0.43703 0.91148 0.0
C386 C 0.63174 0.4667 0.9248 0.0
C387 C 0.63743 0.49326 0.80499 0.0
C388 C 0.6138 0.48877 0.66621 0.0
Zn389 Zn 0.52939 0.39769 0.78092 0.0
O390 O 0.47812 0.35897 0.47621 0.0
C391 C 0.48587 0.42639 0.82577 0.0
O392 O 0.52915 0.39923 0.47135 0.0
H393 H 0.59576 0.41713 0.0115 0.0
H394 H 0.43048 0.36559 0.54868 0.0
H395 H 0.56549 0.45703 0.55874 0.0
O396 O 0.46575 0.39612 0.79869 0.0
O397 O 0.51655 0.43649 0.81577 0.0
H398 H 0.41408 0.28136 0.86923 0.0
O399 O 0.5287 0.39517 0.0807 0.0
O400 O 0.47549 0.3573 0.08541 0.0
O401 O 0.54064 0.35774 0.76532 0.0
O402 O 0.48729 0.32097 0.77329 0.0
C403 C 0.50241 0.37676 0.17348 0.0
H404 H 0.37713 0.33659 0.40702 0.0
H405 H 0.35699 0.24987 0.73389 0.0
H406 H 0.64943 0.46956 0.03492 0.0
H407 H 0.61739 0.50873 0.57118 0.0
C408 C 0.38073 0.92423 0.76438 0.0
N409 N 0.43817 0.90597 0.15603 0.0
C410 C 0.44101 0.88553 0.02645 0.0
C411 C 0.47068 0.88485 0.01312 0.0
C412 C 0.49724 0.90572 0.13289 0.0
C413 C 0.49275 0.92486 0.27165 0.0
C414 C 0.46311 0.92469 0.28055 0.0
Zn415 Zn 0.40166 0.91818 0.15696 0.0
C416 C 0.43035 0.99039 0.11204 0.0
N417 N 0.32981 0.95047 0.2125 0.0
C418 C 0.29732 0.93798 0.16596 0.0
C419 C 0.3445 0.97574 0.34237 0.0
C420 C 0.32748 0.98933 0.42885 0.0
C421 C 0.29461 0.97809 0.38097 0.0
C422 C 0.27917 0.95186 0.24753 0.0
Zn423 Zn 0.36192 0.93192 0.16034 0.0
O424 O 0.39914 0.91635 0.85719 0.0
C425 C 0.33168 0.86036 0.16747 0.0
O426 O 0.36127 0.93169 0.85243 0.0
H427 H 0.36956 0.98498 0.3893 0.0
H428 H 0.4211 0.87125 0.92646 0.0
H429 H 0.28535 0.9172 0.06839 0.0
O430 O 0.36172 0.86698 0.17258 0.0
O431 O 0.32495 0.88355 0.16455 0.0
H432 H 0.46101 0.94144 0.37913 0.0
O433 O 0.36294 0.93072 0.46163 0.0
O434 O 0.40321 0.91995 0.46654 0.0
O435 O 0.40008 0.98025 0.13916 0.0
O436 O 0.44046 0.96982 0.12208 0.0
C437 C 0.38247 0.925 0.55536 0.0
H438 H 0.47353 0.87001 0.90302 0.0
H439 H 0.51272 0.94123 0.36667 0.0
H440 H 0.34056 0.00934 0.5309 0.0
H441 H 0.25386 0.9428 0.20369 0.0
C442 C 0.17155 0.49843 0.76437 0.0
N443 N 0.18982 0.57413 0.15601 0.0
C444 C 0.21025 0.5974 0.02644 0.0
C445 C 0.21094 0.62776 0.01312 0.0
C446 C 0.19007 0.63346 0.1329 0.0
C447 C 0.17093 0.60983 0.27165 0.0
C448 C 0.1711 0.58035 0.28054 0.0
Zn449 Zn 0.1776 0.52541 0.15695 0.0
C450 C 0.10539 0.48189 0.11202 0.0
N451 N 0.14531 0.42128 0.21249 0.0
C452 C 0.1578 0.40127 0.16596 0.0
C453 C 0.12004 0.41069 0.34236 0.0
C454 C 0.10645 0.38008 0.42884 0.0
C455 C 0.11769 0.35845 0.38097 0.0
C456 C 0.14392 0.36924 0.24753 0.0
Zn457 Zn 0.16386 0.47193 0.16033 0.0
O458 O 0.17943 0.52472 0.85717 0.0
C459 C 0.23542 0.51324 0.16746 0.0
O460 O 0.16409 0.47151 0.85242 0.0
H461 H 0.1108 0.42651 0.38928 0.0
H462 H 0.22453 0.59178 0.92645 0.0
H463 H 0.17858 0.41009 0.06839 0.0
O464 O 0.2288 0.53667 0.17256 0.0
O465 O 0.21223 0.48332 0.16455 0.0
H466 H 0.15435 0.56151 0.37911 0.0
O467 O 0.16506 0.47415 0.46162 0.0
O468 O 0.17583 0.52518 0.46652 0.0
O469 O 0.11553 0.46176 0.13915 0.0
O470 O 0.12596 0.51257 0.12206 0.0
C471 C 0.17078 0.4994 0.55534 0.0
H472 H 0.22578 0.64545 0.90303 0.0
H473 H 0.15456 0.61342 0.36667 0.0
H474 H 0.08644 0.37315 0.53088 0.0
H475 H 0.15299 0.353 0.2037 0.0
C476 C 0.59735 0.71505 0.76437 0.0
N477 N 0.52165 0.65762 0.156 0.0
C478 C 0.49838 0.65478 0.02642 0.0
C479 C 0.46802 0.62511 0.0131 0.0
C480 C 0.46233 0.59855 0.13288 0.0
C481 C 0.48596 0.60304 0.27164 0.0
C482 C 0.51543 0.63268 0.28053 0.0
Zn483 Zn 0.57037 0.69412 0.15694 0.0
C484 C 0.61389 0.66544 0.11203 0.0
N485 N 0.67451 0.76597 0.21249 0.0
C486 C 0.69451 0.79847 0.16596 0.0
C487 C 0.68509 0.75128 0.34236 0.0
C488 C 0.7157 0.7683 0.42884 0.0
C489 C 0.73733 0.80117 0.38097 0.0
C490 C 0.72654 0.81661 0.24753 0.0
Zn491 Zn 0.62385 0.73386 0.16033 0.0
O492 O 0.57106 0.69665 0.85716 0.0
C493 C 0.58254 0.76411 0.16745 0.0
O494 O 0.62427 0.73452 0.85242 0.0
H495 H 0.66928 0.72622 0.38928 0.0
H496 H 0.504 0.67468 0.92643 0.0
H497 H 0.68569 0.81043 0.06839 0.0
O498 O 0.55911 0.73407 0.17255 0.0
O499 O 0.61246 0.77084 0.16454 0.0
H500 H 0.53427 0.63478 0.37911 0.0
O501 O 0.62163 0.73284 0.46162 0.0
O502 O 0.5706 0.69258 0.46651 0.0
O503 O 0.63402 0.6957 0.13915 0.0
O504 O 0.58321 0.65533 0.12206 0.0
C505 C 0.59639 0.71332 0.55534 0.0
H506 H 0.45033 0.62226 0.903 0.0
H507 H 0.48237 0.58308 0.36667 0.0
H508 H 0.72263 0.75523 0.53089 0.0
H509 H 0.74278 0.84192 0.2037 0.0
C510 C 0.38396 0.50014 0.71583 0.0
N511 N 0.43661 0.47467 0.05882 0.0
C512 C 0.42192 0.4494 0.92891 0.0
C513 C 0.43894 0.43581 0.84238 0.0
C514 C 0.47182 0.44707 0.89017 0.0
C515 C 0.48727 0.47331 0.0235 0.0
C516 C 0.46912 0.48719 0.1051 0.0
Zn517 Zn 0.40451 0.49322 0.11085 0.0
C518 C 0.43475 0.56478 0.10373 0.0
N519 N 0.32827 0.51919 0.11515 0.0
C520 C 0.30333 0.50047 -0.00936 0.0
C521 C 0.32542 0.53962 0.2448 0.0
C522 C 0.29575 0.5403 0.25813 0.0
C523 C 0.26919 0.51943 0.13832 0.0
C524 C 0.27368 0.5003 -0.00046 0.0
Zn525 Zn 0.36476 0.50696 0.11423 0.0
O526 O 0.40348 0.49441 0.80955 0.0
C527 C 0.33607 0.43475 0.15912 0.0
O528 O 0.36322 0.50519 0.80467 0.0
H529 H 0.34532 0.55389 0.34483 0.0
H530 H 0.39686 0.44015 0.88203 0.0
H531 H 0.30542 0.48372 0.89205 0.0
O532 O 0.36634 0.4449 0.13203 0.0
O533 O 0.32596 0.45533 0.14908 0.0
H534 H 0.48109 0.50799 0.20256 0.0
O535 O 0.36728 0.50879 0.41402 0.0
O536 O 0.40516 0.49346 0.41875 0.0
O537 O 0.40471 0.55816 0.09864 0.0
O538 O 0.44148 0.54159 0.10662 0.0
C539 C 0.38569 0.50091 0.50681 0.0
H540 H 0.42586 0.4158 0.74037 0.0
H541 H 0.51259 0.48239 0.06722 0.0
H542 H 0.29289 0.55513 0.36826 0.0
H543 H 0.25372 0.48393 0.90451 0.0
C544 C 0.59565 0.92575 0.71584 0.0
N545 N 0.62112 1.00388 0.05882 0.0
C546 C 0.64639 0.01446 0.92892 0.0
C547 C 0.65998 0.04506 0.84239 0.0
C548 C 0.64872 0.06669 0.89017 0.0
C549 C 0.62248 0.05589 0.02349 0.0
C550 C 0.6086 0.02387 0.1051 0.0
Zn551 Zn 0.60257 0.95322 0.11085 0.0
C552 C 0.53101 0.91191 0.10373 0.0
N553 N 0.57659 0.85101 0.11516 0.0
C554 C 0.59532 0.84479 -0.00935 0.0
C555 C 0.55617 0.82774 0.24481 0.0
C556 C 0.55549 0.79739 0.25813 0.0
C557 C 0.57635 0.79169 0.13832 0.0
C558 C 0.59549 0.81531 -0.00046 0.0
Zn559 Zn 0.58882 0.89973 0.11425 0.0
O560 O 0.60138 0.951 0.80955 0.0
C561 C 0.66104 0.94325 0.15913 0.0
O562 O 0.59059 0.89997 0.80468 0.0
H563 H 0.5419 0.83337 0.34483 0.0
H564 H 0.65564 0.99865 0.88204 0.0
H565 H 0.61206 0.86363 0.89206 0.0
O566 O 0.65089 0.96338 0.13204 0.0
O567 O 0.64046 0.91257 0.14909 0.0
H568 H 0.5878 0.01504 0.20255 0.0
O569 O 0.587 0.90043 0.41403 0.0
O570 O 0.60233 0.95363 0.41875 0.0
O571 O 0.53763 0.88848 0.09865 0.0
O572 O 0.5542 0.94183 0.10662 0.0
C573 C 0.59488 0.92671 0.50682 0.0
H574 H 0.67999 0.05199 0.74038 0.0
H575 H 0.6134 0.07213 0.0672 0.0
H576 H 0.54065 0.7797 0.36826 0.0
H577 H 0.61186 0.81172 0.90451 0.0
C578 C 0.17004 0.71183 0.71585 0.0
N579 N 0.09191 0.65918 0.05883 0.0
C580 C 0.08133 0.67387 0.92892 0.0
C581 C 0.05072 0.65685 0.84239 0.0
C582 C 0.0291 0.62397 0.89017 0.0
C583 C 0.0399 0.60852 0.0235 0.0
C584 C 0.07192 0.62667 0.1051 0.0
Zn585 Zn 0.14257 0.69128 0.11086 0.0
C586 C 0.18388 0.66103 0.10374 0.0
N587 N 0.24478 0.76752 0.11517 0.0
C588 C 0.251 0.79246 -0.00934 0.0
C589 C 0.26805 0.77036 0.24483 0.0
C590 C 0.2984 0.80004 0.25815 0.0
C591 C 0.3041 0.8266 0.13834 0.0
C592 C 0.28047 0.8221 -0.00045 0.0
Zn593 Zn 0.19606 0.73102 0.11426 0.0
O594 O 0.14479 0.69231 0.80956 0.0
C595 C 0.15254 0.75972 0.15913 0.0
O596 O 0.19582 0.73256 0.80469 0.0
H597 H 0.26242 0.75046 0.34486 0.0
H598 H 0.09714 0.69893 0.88204 0.0
H599 H 0.23216 0.79036 0.89207 0.0
O600 O 0.13241 0.72945 0.13204 0.0
O601 O 0.18322 0.76983 0.14909 0.0
H602 H 0.08075 0.6147 0.20256 0.0
O603 O 0.19537 0.72851 0.41404 0.0
O604 O 0.14216 0.69063 0.41876 0.0
O605 O 0.20731 0.69108 0.09867 0.0
O606 O 0.15396 0.6543 0.10663 0.0
C607 C 0.16908 0.7101 0.50682 0.0
H608 H 0.04379 0.66993 0.74038 0.0
H609 H 0.02366 0.5832 0.06721 0.0
H610 H 0.31609 0.80289 0.36829 0.0
H611 H 0.28406 0.84206 0.90451 0.0
loop_
_geom_bond_atom_site_label_1
_geom_bond_atom_site_label_2
_geom_bond_distance
_geom_bond_site_symmetry_2
_ccdc_geom_bond_type
C0 O16 1.251 . S
C0 O18 1.254 . S
N1 C2 1.333 . S
N1 C6 1.307 . S
N1 Zn7 2.020 . S
C2 N1 1.333 . S
C2 C3 1.379 . S
C2 H20 0.952 . S
C3 C2 1.379 . S
C3 C4 1.390 . S
C3 H30 0.949 . S
C4 C3 1.390 . S
C4 C5 1.357 . S
C5 C4 1.357 . S
C5 C6 1.370 . S
C5 H31 0.950 . S
C6 N1 1.307 . S
C6 C5 1.370 . S
C6 H24 0.948 . S
Zn7 N1 2.020 . S
Zn7 O16 2.039 . S
Zn7 O22 2.034 . S
Zn7 O26 2.025 . S
Zn7 O28 2.024 . S
C8 O27 1.246 . S
C8 O28 1.249 . S
N9 C10 1.307 . S
N9 C11 1.333 . S
N9 Zn15 2.020 1_655 S
C10 N9 1.307 . S
C10 C14 1.370 . S
C10 H21 0.948 . S
C11 N9 1.333 . S
C11 C12 1.379 . S
C11 H19 0.952 . S
C12 C11 1.379 . S
C12 C13 1.390 . S
C12 H32 0.949 . S
C13 C12 1.390 . S
C13 C14 1.357 . S
C14 C10 1.370 . S
C14 C13 1.357 . S
C14 H33 0.950 . S
Zn15 N9 2.020 1_455 S
Zn15 O18 2.025 . S
Zn15 O23 2.024 1_455 S
Zn15 O25 2.039 . S
Zn15 O27 2.034 . S
O16 C0 1.251 . S
O16 Zn7 2.039 . S
C17 O22 1.246 1_655 S
C17 O23 1.249 . S
O18 C0 1.254 . S
O18 Zn15 2.025 . S
H19 C11 0.952 . S
H20 C2 0.952 . S
H21 C10 0.948 . S
O22 Zn7 2.034 . S
O22 C17 1.246 1_455 S
O23 Zn15 2.024 1_655 S
O23 C17 1.249 . S
H24 C6 0.948 . S
O25 Zn15 2.039 . S
O25 C29 1.251 . S
O26 Zn7 2.025 . S
O26 C29 1.254 . S
O27 C8 1.246 . S
O27 Zn15 2.034 . S
O28 Zn7 2.024 . S
O28 C8 1.249 . S
C29 O25 1.251 . S
C29 O26 1.254 . S
H30 C3 0.949 . S
H31 C5 0.950 . S
H32 C12 0.949 . S
H33 C14 0.950 . S
C34 O50 1.251 . S
C34 O52 1.254 . S
N35 C36 1.333 . S
N35 C40 1.307 . S
N35 Zn41 2.020 . S
C36 N35 1.333 . S
C36 C37 1.379 . S
C36 H54 0.952 . S
C37 C36 1.379 . S
C37 C38 1.390 . S
C37 H64 0.949 . S
C38 C37 1.390 . S
C38 C39 1.357 . S
C39 C38 1.357 . S
C39 C40 1.370 . S
C39 H65 0.950 . S
C40 N35 1.307 . S
C40 C39 1.370 . S
C40 H58 0.948 . S
Zn41 N35 2.020 . S
Zn41 O50 2.039 . S
Zn41 O56 2.034 . S
Zn41 O60 2.025 . S
Zn41 O62 2.024 . S
C42 O61 1.246 . S
C42 O62 1.249 . S
N43 C44 1.307 . S
N43 C45 1.333 . S
N43 Zn49 2.020 . S
C44 N43 1.307 . S
C44 C48 1.370 . S
C44 H55 0.948 . S
C45 N43 1.333 . S
C45 C46 1.379 . S
C45 H53 0.952 . S
C46 C45 1.379 . S
C46 C47 1.390 . S
C46 H66 0.949 . S
C47 C46 1.390 . S
C47 C48 1.357 . S
C48 C44 1.370 . S
C48 C47 1.357 . S
C48 H67 0.950 . S
Zn49 N43 2.020 . S
Zn49 O52 2.025 . S
Zn49 O57 2.024 . S
Zn49 O59 2.039 . S
Zn49 O61 2.034 . S
O50 C34 1.251 . S
O50 Zn41 2.039 . S
C51 O56 1.246 . S
C51 O57 1.249 . S
O52 C34 1.254 . S
O52 Zn49 2.025 . S
H53 C45 0.952 . S
H54 C36 0.952 . S
H55 C44 0.948 . S
O56 Zn41 2.034 . S
O56 C51 1.246 . S
O57 Zn49 2.024 . S
O57 C51 1.249 . S
H58 C40 0.948 . S
O59 Zn49 2.039 . S
O59 C63 1.251 . S
O60 Zn41 2.025 . S
O60 C63 1.254 . S
O61 C42 1.246 . S
O61 Zn49 2.034 . S
O62 Zn41 2.024 . S
O62 C42 1.249 . S
C63 O59 1.251 . S
C63 O60 1.254 . S
H64 C37 0.949 . S
H65 C39 0.950 . S
H66 C46 0.949 . S
H67 C48 0.950 . S
C68 O84 1.251 . S
C68 O86 1.254 . S
N69 C70 1.333 . S
N69 C74 1.307 . S
N69 Zn75 2.020 1_565 S
C70 N69 1.333 . S
C70 C71 1.379 . S
C70 H88 0.952 . S
C71 C70 1.379 . S
C71 C72 1.390 . S
C71 H98 0.949 . S
C72 C71 1.390 . S
C72 C73 1.357 . S
C73 C72 1.357 . S
C73 C74 1.370 . S
C73 H99 0.950 . S
C74 N69 1.307 . S
C74 C73 1.370 . S
C74 H92 0.948 . S
Zn75 N69 2.020 1_545 S
Zn75 O84 2.039 . S
Zn75 O90 2.034 . S
Zn75 O94 2.025 . S
Zn75 O96 2.024 1_545 S
C76 O95 1.246 1_565 S
C76 O96 1.249 . S
N77 C78 1.307 . S
N77 C79 1.333 . S
N77 Zn83 2.020 . S
C78 N77 1.307 . S
C78 C82 1.370 . S
C78 H89 0.948 . S
C79 N77 1.333 . S
C79 C80 1.379 . S
C79 H87 0.952 . S
C80 C79 1.379 . S
C80 C81 1.390 . S
C80 H100 0.949 . S
C81 C80 1.390 . S
C81 C82 1.357 . S
C82 C78 1.370 . S
C82 C81 1.357 . S
C82 H101 0.950 . S
Zn83 N77 2.020 . S
Zn83 O86 2.025 . S
Zn83 O91 2.024 . S
Zn83 O93 2.039 . S
Zn83 O95 2.034 . S
O84 C68 1.251 . S
O84 Zn75 2.039 . S
C85 O90 1.246 . S
C85 O91 1.249 . S
O86 C68 1.254 . S
O86 Zn83 2.025 . S
H87 C79 0.952 . S
H88 C70 0.952 . S
H89 C78 0.948 . S
O90 Zn75 2.034 . S
O90 C85 1.246 . S
O91 Zn83 2.024 . S
O91 C85 1.249 . S
H92 C74 0.948 . S
O93 Zn83 2.039 . S
O93 C97 1.251 . S
O94 Zn75 2.025 . S
O94 C97 1.254 . S
O95 C76 1.246 1_545 S
O95 Zn83 2.034 . S
O96 Zn75 2.024 1_565 S
O96 C76 1.249 . S
C97 O93 1.251 . S
C97 O94 1.254 . S
H98 C71 0.949 . S
H99 C73 0.950 . S
H100 C80 0.949 . S
H101 C82 0.950 . S
C102 O118 1.251 . S
C102 O120 1.254 . S
N103 C104 1.333 . S
N103 C108 1.307 . S
N103 Zn109 2.020 . S
C104 N103 1.333 . S
C104 C105 1.379 . S
C104 H122 0.952 . S
C105 C104 1.379 . S
C105 C106 1.390 . S
C105 H132 0.949 . S
C106 C105 1.390 . S
C106 C107 1.357 . S
C107 C106 1.357 . S
C107 C108 1.370 . S
C107 H133 0.950 . S
C108 N103 1.307 . S
C108 C107 1.370 . S
C108 H126 0.948 . S
Zn109 N103 2.020 . S
Zn109 O118 2.039 . S
Zn109 O124 2.034 . S
Zn109 O128 2.025 . S
Zn109 O130 2.024 . S
C110 O129 1.246 . S
C110 O130 1.249 . S
N111 C112 1.307 . S
N111 C113 1.333 . S
N111 Zn117 2.020 1_655 S
C112 N111 1.307 . S
C112 C116 1.370 . S
C112 H123 0.948 . S
C113 N111 1.333 . S
C113 C114 1.379 . S
C113 H121 0.952 . S
C114 C113 1.379 . S
C114 C115 1.390 . S
C114 H134 0.949 . S
C115 C114 1.390 . S
C115 C116 1.357 . S
C116 C112 1.370 . S
C116 C115 1.357 . S
C116 H135 0.950 . S
Zn117 N111 2.020 1_455 S
Zn117 O120 2.025 . S
Zn117 O125 2.024 1_455 S
Zn117 O127 2.039 . S
Zn117 O129 2.034 . S
O118 C102 1.251 . S
O118 Zn109 2.039 . S
C119 O124 1.246 1_655 S
C119 O125 1.249 . S
O120 C102 1.254 . S
O120 Zn117 2.025 . S
H121 C113 0.952 . S
H122 C104 0.952 . S
H123 C112 0.948 . S
O124 Zn109 2.034 . S
O124 C119 1.246 1_455 S
O125 Zn117 2.024 1_655 S
O125 C119 1.249 . S
H126 C108 0.948 . S
O127 Zn117 2.039 . S
O127 C131 1.251 . S
O128 Zn109 2.025 . S
O128 C131 1.254 . S
O129 C110 1.246 . S
O129 Zn117 2.034 . S
O130 Zn109 2.024 . S
O130 C110 1.249 . S
C131 O127 1.251 . S
C131 O128 1.254 . S
H132 C105 0.949 . S
H133 C107 0.950 . S
H134 C114 0.949 . S
H135 C116 0.950 . S
C136 O152 1.251 . S
C136 O154 1.254 . S
N137 C138 1.333 . S
N137 C142 1.307 . S
N137 Zn143 2.020 . S
C138 N137 1.333 . S
C138 C139 1.379 . S
C138 H156 0.952 . S
C139 C138 1.379 . S
C139 C140 1.390 . S
C139 H166 0.949 . S
C140 C139 1.390 . S
C140 C141 1.357 . S
C141 C140 1.357 . S
C141 C142 1.370 . S
C141 H167 0.950 . S
C142 N137 1.307 . S
C142 C141 1.370 . S
C142 H160 0.948 . S
Zn143 N137 2.020 . S
Zn143 O152 2.039 . S
Zn143 O158 2.034 . S
Zn143 O162 2.025 . S
Zn143 O164 2.024 . S
C144 O163 1.246 . S
C144 O164 1.249 . S
N145 C146 1.307 . S
N145 C147 1.333 . S
N145 Zn151 2.020 . S
C146 N145 1.307 . S
C146 C150 1.370 . S
C146 H157 0.948 . S
C147 N145 1.333 . S
C147 C148 1.379 . S
C147 H155 0.952 . S
C148 C147 1.379 . S
C148 C149 1.390 . S
C148 H168 0.949 . S
C149 C148 1.390 . S
C149 C150 1.357 . S
C150 C146 1.370 . S
C150 C149 1.357 . S
C150 H169 0.950 . S
Zn151 N145 2.020 . S
Zn151 O154 2.025 . S
Zn151 O159 2.024 . S
Zn151 O161 2.039 . S
Zn151 O163 2.034 . S
O152 C136 1.251 . S
O152 Zn143 2.039 . S
C153 O158 1.246 . S
C153 O159 1.249 . S
O154 C136 1.254 . S
O154 Zn151 2.025 . S
H155 C147 0.952 . S
H156 C138 0.952 . S
H157 C146 0.948 . S
O158 Zn143 2.034 . S
O158 C153 1.246 . S
O159 Zn151 2.024 . S
O159 C153 1.249 . S
H160 C142 0.948 . S
O161 Zn151 2.039 . S
O161 C165 1.251 . S
O162 Zn143 2.025 . S
O162 C165 1.254 . S
O163 C144 1.246 . S
O163 Zn151 2.034 . S
O164 Zn143 2.024 . S
O164 C144 1.249 . S
C165 O161 1.251 . S
C165 O162 1.254 . S
H166 C139 0.949 . S
H167 C141 0.950 . S
H168 C148 0.949 . S
H169 C150 0.950 . S
C170 O186 1.251 . S
C170 O188 1.254 . S
N171 C172 1.333 . S
N171 C176 1.307 . S
N171 Zn177 2.020 1_565 S
C172 N171 1.333 . S
C172 C173 1.379 . S
C172 H190 0.952 . S
C173 C172 1.379 . S
C173 C174 1.390 . S
C173 H200 0.949 . S
C174 C173 1.390 . S
C174 C175 1.357 . S
C175 C174 1.357 . S
C175 C176 1.370 . S
C175 H201 0.950 . S
C176 N171 1.307 . S
C176 C175 1.370 . S
C176 H194 0.948 . S
Zn177 N171 2.020 1_545 S
Zn177 O186 2.039 . S
Zn177 O192 2.034 . S
Zn177 O196 2.025 . S
Zn177 O198 2.024 1_545 S
C178 O197 1.246 1_565 S
C178 O198 1.249 . S
N179 C180 1.307 . S
N179 C181 1.333 . S
N179 Zn185 2.020 . S
C180 N179 1.307 . S
C180 C184 1.370 . S
C180 H191 0.948 . S
C181 N179 1.333 . S
C181 C182 1.379 . S
C181 H189 0.952 . S
C182 C181 1.379 . S
C182 C183 1.390 . S
C182 H202 0.949 . S
C183 C182 1.390 . S
C183 C184 1.357 . S
C184 C180 1.370 . S
C184 C183 1.357 . S
C184 H203 0.950 . S
Zn185 N179 2.020 . S
Zn185 O188 2.025 . S
Zn185 O193 2.024 . S
Zn185 O195 2.039 . S
Zn185 O197 2.034 . S
O186 C170 1.251 . S
O186 Zn177 2.039 . S
C187 O192 1.246 . S
C187 O193 1.249 . S
O188 C170 1.254 . S
O188 Zn185 2.025 . S
H189 C181 0.952 . S
H190 C172 0.952 . S
H191 C180 0.948 . S
O192 Zn177 2.034 . S
O192 C187 1.246 . S
O193 Zn185 2.024 . S
O193 C187 1.249 . S
H194 C176 0.948 . S
O195 Zn185 2.039 . S
O195 C199 1.251 . S
O196 Zn177 2.025 . S
O196 C199 1.254 . S
O197 C178 1.246 1_545 S
O197 Zn185 2.034 . S
O198 Zn177 2.024 1_565 S
O198 C178 1.249 . S
C199 O195 1.251 . S
C199 O196 1.254 . S
H200 C173 0.949 . S
H201 C175 0.950 . S
H202 C182 0.949 . S
H203 C184 0.950 . S
C204 O220 1.251 . S
C204 O222 1.254 . S
N205 C206 1.333 . S
N205 C210 1.307 . S
N205 Zn211 2.020 . S
C206 N205 1.333 . S
C206 C207 1.379 . S
C206 H224 0.952 . S
C207 C206 1.379 . S
C207 C208 1.390 . S
C207 H234 0.949 . S
C208 C207 1.390 . S
C208 C209 1.357 . S
C209 C208 1.357 . S
C209 C210 1.370 . S
C209 H235 0.950 . S
C210 N205 1.307 . S
C210 C209 1.370 . S
C210 H228 0.948 1_556 S
Zn211 N205 2.020 . S
Zn211 O220 2.039 . S
Zn211 O226 2.034 . S
Zn211 O230 2.025 1_556 S
Zn211 O232 2.024 . S
C212 O231 1.246 . S
C212 O232 1.249 . S
N213 C214 1.307 . S
N213 C215 1.333 . S
N213 Zn219 2.020 . S
C214 N213 1.307 . S
C214 C218 1.370 . S
C214 H225 0.948 . S
C215 N213 1.333 . S
C215 C216 1.379 1_556 S
C215 H223 0.952 1_556 S
C216 C215 1.379 1_554 S
C216 C217 1.390 1_554 S
C216 H236 0.949 . S
C217 C216 1.390 1_556 S
C217 C218 1.357 . S
C218 C214 1.370 . S
C218 C217 1.357 . S
C218 H237 0.950 . S
Zn219 N213 2.020 . S
Zn219 O222 2.025 . S
Zn219 O227 2.024 . S
Zn219 O229 2.039 1_556 S
Zn219 O231 2.034 . S
O220 C204 1.251 . S
O220 Zn211 2.039 . S
C221 O226 1.246 . S
C221 O227 1.249 . S
O222 C204 1.254 . S
O222 Zn219 2.025 . S
H223 C215 0.952 1_554 S
H224 C206 0.952 . S
H225 C214 0.948 . S
O226 Zn211 2.034 . S
O226 C221 1.246 . S
O227 Zn219 2.024 . S
O227 C221 1.249 . S
H228 C210 0.948 1_554 S
O229 Zn219 2.039 1_554 S
O229 C233 1.251 . S
O230 Zn211 2.025 1_554 S
O230 C233 1.254 . S
O231 C212 1.246 . S
O231 Zn219 2.034 . S
O232 Zn211 2.024 . S
O232 C212 1.249 . S
C233 O229 1.251 . S
C233 O230 1.254 . S
H234 C207 0.949 . S
H235 C209 0.950 . S
H236 C216 0.949 . S
H237 C218 0.950 . S
C238 O254 1.251 . S
C238 O256 1.254 . S
N239 C240 1.333 . S
N239 C244 1.307 . S
N239 Zn245 2.020 . S
C240 N239 1.333 . S
C240 C241 1.379 . S
C240 H258 0.952 . S
C241 C240 1.379 . S
C241 C242 1.390 . S
C241 H268 0.949 . S
C242 C241 1.390 . S
C242 C243 1.357 . S
C243 C242 1.357 . S
C243 C244 1.370 . S
C243 H269 0.950 . S
C244 N239 1.307 . S
C244 C243 1.370 . S
C244 H262 0.948 1_556 S
Zn245 N239 2.020 . S
Zn245 O254 2.039 . S
Zn245 O260 2.034 . S
Zn245 O264 2.025 1_556 S
Zn245 O266 2.024 . S
C246 O265 1.246 . S
C246 O266 1.249 . S
N247 C248 1.307 . S
N247 C249 1.333 . S
N247 Zn253 2.020 . S
C248 N247 1.307 . S
C248 C252 1.370 . S
C248 H259 0.948 . S
C249 N247 1.333 . S
C249 C250 1.379 1_556 S
C249 H257 0.952 1_556 S
C250 C249 1.379 1_554 S
C250 C251 1.390 1_554 S
C250 H270 0.949 . S
C251 C250 1.390 1_556 S
C251 C252 1.357 . S
C252 C248 1.370 . S
C252 C251 1.357 . S
C252 H271 0.950 . S
Zn253 N247 2.020 . S
Zn253 O256 2.025 . S
Zn253 O261 2.024 . S
Zn253 O263 2.039 1_556 S
Zn253 O265 2.034 . S
O254 C238 1.251 . S
O254 Zn245 2.039 . S
C255 O260 1.246 . S
C255 O261 1.249 . S
O256 C238 1.254 . S
O256 Zn253 2.025 . S
H257 C249 0.952 1_554 S
H258 C240 0.952 . S
H259 C248 0.948 . S
O260 Zn245 2.034 . S
O260 C255 1.246 . S
O261 Zn253 2.024 . S
O261 C255 1.249 . S
H262 C244 0.948 1_554 S
O263 Zn253 2.039 1_554 S
O263 C267 1.251 . S
O264 Zn245 2.025 1_554 S
O264 C267 1.254 . S
O265 C246 1.246 . S
O265 Zn253 2.034 . S
O266 Zn245 2.024 . S
O266 C246 1.249 . S
C267 O263 1.251 . S
C267 O264 1.254 . S
H268 C241 0.949 . S
H269 C243 0.950 . S
H270 C250 0.949 . S
H271 C252 0.950 . S
C272 O288 1.251 . S
C272 O290 1.254 . S
N273 C274 1.333 . S
N273 C278 1.307 . S
N273 Zn279 2.020 . S
C274 N273 1.333 . S
C274 C275 1.379 . S
C274 H292 0.952 . S
C275 C274 1.379 . S
C275 C276 1.390 . S
C275 H302 0.949 . S
C276 C275 1.390 . S
C276 C277 1.357 . S
C277 C276 1.357 . S
C277 C278 1.370 . S
C277 H303 0.950 . S
C278 N273 1.307 . S
C278 C277 1.370 . S
C278 H296 0.948 1_556 S
Zn279 N273 2.020 . S
Zn279 O288 2.039 . S
Zn279 O294 2.034 . S
Zn279 O298 2.025 1_556 S
Zn279 O300 2.024 . S
C280 O299 1.246 . S
C280 O300 1.249 . S
N281 C282 1.310 . S
N281 C283 1.347 . S
N281 Zn287 2.002 1_455 S
C282 N281 1.310 . S
C282 C286 1.370 . S
C282 H293 0.948 . S
C283 N281 1.347 . S
C283 C284 1.379 1_556 S
C283 H291 0.952 1_556 S
C284 C283 1.379 1_554 S
C284 C285 1.390 1_554 S
C284 H304 0.949 . S
C285 C284 1.390 1_556 S
C285 C286 1.357 . S
C286 C282 1.370 . S
C286 C285 1.357 . S
C286 H305 0.950 . S
Zn287 N281 2.002 1_655 S
Zn287 O290 2.025 . S
Zn287 O295 2.024 . S
Zn287 O297 2.039 1_556 S
Zn287 O299 2.034 . S
O288 C272 1.251 . S
O288 Zn279 2.039 . S
C289 O294 1.246 . S
C289 O295 1.249 . S
O290 C272 1.254 . S
O290 Zn287 2.025 . S
H291 C283 0.952 1_554 S
H292 C274 0.952 . S
H293 C282 0.948 . S
O294 Zn279 2.034 . S
O294 C289 1.246 . S
O295 Zn287 2.024 . S
O295 C289 1.249 . S
H296 C278 0.948 1_554 S
O297 Zn287 2.039 1_554 S
O297 C301 1.251 . S
O298 Zn279 2.025 1_554 S
O298 C301 1.254 . S
O299 C280 1.246 . S
O299 Zn287 2.034 . S
O300 Zn279 2.024 . S
O300 C280 1.249 . S
C301 O297 1.251 . S
C301 O298 1.254 . S
H302 C275 0.949 . S
H303 C277 0.950 . S
H304 C284 0.949 . S
H305 C286 0.950 . S
C306 O322 1.251 . S
C306 O324 1.254 . S
N307 C308 1.333 . S
N307 C312 1.307 . S
N307 Zn313 2.020 . S
C308 N307 1.333 . S
C308 C309 1.379 . S
C308 H326 0.952 . S
C309 C308 1.379 . S
C309 C310 1.390 . S
C309 H336 0.949 . S
C310 C309 1.390 . S
C310 C311 1.357 . S
C311 C310 1.357 . S
C311 C312 1.370 . S
C311 H337 0.950 1_556 S
C312 N307 1.307 . S
C312 C311 1.370 . S
C312 H330 0.948 1_556 S
Zn313 N307 2.020 . S
Zn313 O322 2.039 . S
Zn313 O328 2.034 . S
Zn313 O332 2.025 1_556 S
Zn313 O334 2.024 . S
C314 O333 1.246 . S
C314 O334 1.249 . S
N315 C316 1.307 . S
N315 C317 1.333 1_556 S
N315 Zn321 2.020 . S
C316 N315 1.307 . S
C316 C320 1.370 . S
C316 H327 0.948 . S
C317 N315 1.333 1_554 S
C317 C318 1.379 . S
C317 H325 0.952 . S
C318 C317 1.379 . S
C318 C319 1.390 1_554 S
C318 H338 0.949 . S
C319 C318 1.390 1_556 S
C319 C320 1.357 . S
C320 C316 1.370 . S
C320 C319 1.357 . S
C320 H339 0.950 . S
Zn321 N315 2.020 . S
Zn321 O324 2.025 . S
Zn321 O329 2.024 . S
Zn321 O331 2.039 1_556 S
Zn321 O333 2.034 . S
O322 C306 1.251 . S
O322 Zn313 2.039 . S
C323 O328 1.246 . S
C323 O329 1.249 . S
O324 C306 1.254 . S
O324 Zn321 2.025 . S
H325 C317 0.952 . S
H326 C308 0.952 . S
H327 C316 0.948 . S
O328 Zn313 2.034 . S
O328 C323 1.246 . S
O329 Zn321 2.024 . S
O329 C323 1.249 . S
H330 C312 0.948 1_554 S
O331 Zn321 2.039 1_554 S
O331 C335 1.251 . S
O332 Zn313 2.025 1_554 S
O332 C335 1.254 . S
O333 C314 1.246 . S
O333 Zn321 2.034 . S
O334 Zn313 2.024 . S
O334 C314 1.249 . S
C335 O331 1.251 . S
C335 O332 1.254 . S
H336 C309 0.949 . S
H337 C311 0.950 1_554 S
H338 C318 0.949 . S
H339 C320 0.950 . S
C340 O356 1.251 . S
C340 O358 1.254 . S
N341 C342 1.333 . S
N341 C346 1.307 . S
N341 Zn347 2.020 . S
C342 N341 1.333 . S
C342 C343 1.379 . S
C342 H360 0.952 . S
C343 C342 1.379 . S
C343 C344 1.390 . S
C343 H370 0.949 . S
C344 C343 1.390 . S
C344 C345 1.357 . S
C345 C344 1.357 . S
C345 C346 1.370 . S
C345 H371 0.950 1_556 S
C346 N341 1.307 . S
C346 C345 1.370 . S
C346 H364 0.948 1_556 S
Zn347 N341 2.020 . S
Zn347 O356 2.039 . S
Zn347 O362 2.034 . S
Zn347 O366 2.025 1_556 S
Zn347 O368 2.024 . S
C348 O367 1.246 . S
C348 O368 1.249 . S
N349 C350 1.307 . S
N349 C351 1.333 1_556 S
N349 Zn355 2.020 . S
C350 N349 1.307 . S
C350 C354 1.370 . S
C350 H361 0.948 . S
C351 N349 1.333 1_554 S
C351 C352 1.379 . S
C351 H359 0.952 . S
C352 C351 1.379 . S
C352 C353 1.390 1_554 S
C352 H372 0.949 . S
C353 C352 1.390 1_556 S
C353 C354 1.357 . S
C354 C350 1.370 . S
C354 C353 1.357 . S
C354 H373 0.950 . S
Zn355 N349 2.020 . S
Zn355 O358 2.025 . S
Zn355 O363 2.024 . S
Zn355 O365 2.039 1_556 S
Zn355 O367 2.034 . S
O356 C340 1.251 . S
O356 Zn347 2.039 . S
C357 O362 1.246 . S
C357 O363 1.249 . S
O358 C340 1.254 . S
O358 Zn355 2.025 . S
H359 C351 0.952 . S
H360 C342 0.952 . S
H361 C350 0.948 . S
O362 Zn347 2.034 . S
O362 C357 1.246 . S
O363 Zn355 2.024 . S
O363 C357 1.249 . S
H364 C346 0.948 1_554 S
O365 Zn355 2.039 1_554 S
O365 C369 1.251 . S
O366 Zn347 2.025 1_554 S
O366 C369 1.254 . S
O367 C348 1.246 . S
O367 Zn355 2.034 . S
O368 Zn347 2.024 . S
O368 C348 1.249 . S
C369 O365 1.251 . S
C369 O366 1.254 . S
H370 C343 0.949 . S
H371 C345 0.950 1_554 S
H372 C352 0.949 . S
H373 C354 0.950 . S
C374 O390 1.251 . S
C374 O392 1.254 . S
N375 C376 1.333 . S
N375 C380 1.307 . S
N375 Zn381 2.020 . S
C376 N375 1.333 . S
C376 C377 1.379 . S
C376 H394 0.952 . S
C377 C376 1.379 . S
C377 C378 1.390 . S
C377 H404 0.949 . S
C378 C377 1.390 . S
C378 C379 1.357 . S
C379 C378 1.357 . S
C379 C380 1.370 . S
C379 H405 0.950 1_556 S
C380 N375 1.307 . S
C380 C379 1.370 . S
C380 H398 0.948 1_556 S
Zn381 N375 2.020 . S
Zn381 O390 2.039 . S
Zn381 O396 2.034 . S
Zn381 O400 2.025 1_556 S
Zn381 O402 2.024 . S
C382 O401 1.246 . S
C382 O402 1.249 . S
N383 C384 1.307 . S
N383 C385 1.333 1_556 S
N383 Zn389 2.020 . S
C384 N383 1.307 . S
C384 C388 1.370 . S
C384 H395 0.948 . S
C385 N383 1.333 1_554 S
C385 C386 1.379 . S
C385 H393 0.952 . S
C386 C385 1.379 . S
C386 C387 1.390 1_554 S
C386 H406 0.949 . S
C387 C386 1.390 1_556 S
C387 C388 1.357 . S
C388 C384 1.370 . S
C388 C387 1.357 . S
C388 H407 0.950 . S
Zn389 N383 2.020 . S
Zn389 O392 2.025 . S
Zn389 O397 2.024 . S
Zn389 O399 2.039 1_556 S
Zn389 O401 2.034 . S
O390 C374 1.251 . S
O390 Zn381 2.039 . S
C391 O396 1.246 . S
C391 O397 1.249 . S
O392 C374 1.254 . S
O392 Zn389 2.025 . S
H393 C385 0.952 . S
H394 C376 0.952 . S
H395 C384 0.948 . S
O396 Zn381 2.034 . S
O396 C391 1.246 . S
O397 Zn389 2.024 . S
O397 C391 1.249 . S
H398 C380 0.948 1_554 S
O399 Zn389 2.039 1_554 S
O399 C403 1.251 . S
O400 Zn381 2.025 1_554 S
O400 C403 1.254 . S
O401 C382 1.246 . S
O401 Zn389 2.034 . S
O402 Zn381 2.024 . S
O402 C382 1.249 . S
C403 O399 1.251 . S
C403 O400 1.254 . S
H404 C377 0.949 . S
H405 C379 0.950 1_554 S
H406 C386 0.949 . S
H407 C388 0.950 . S
C408 O424 1.251 . S
C408 O426 1.254 . S
N409 C410 1.333 1_554 S
N409 C414 1.307 . S
N409 Zn415 2.020 . S
C410 N409 1.333 1_556 S
C410 C411 1.379 . S
C410 H428 0.952 . S
C411 C410 1.379 . S
C411 C412 1.390 1_556 S
C411 H438 0.949 . S
C412 C411 1.390 1_554 S
C412 C413 1.357 . S
C413 C412 1.357 . S
C413 C414 1.370 . S
C413 H439 0.950 . S
C414 N409 1.307 . S
C414 C413 1.370 . S
C414 H432 0.948 . S
Zn415 N409 2.020 . S
Zn415 O424 2.039 1_554 S
Zn415 O430 2.034 . S
Zn415 O434 2.025 . S
Zn415 O436 2.024 . S
C416 O435 1.246 . S
C416 O436 1.249 . S
N417 C418 1.307 . S
N417 C419 1.333 . S
N417 Zn423 2.020 . S
C418 N417 1.307 . S
C418 C422 1.370 . S
C418 H429 0.948 1_554 S
C419 N417 1.333 . S
C419 C420 1.379 . S
C419 H427 0.952 . S
C420 C419 1.379 . S
C420 C421 1.390 . S
C420 H440 0.949 . S
C421 C420 1.390 . S
C421 C422 1.357 . S
C422 C418 1.370 . S
C422 C421 1.357 . S
C422 H441 0.950 1_554 S
Zn423 N417 2.020 . S
Zn423 O426 2.025 1_554 S
Zn423 O431 2.024 . S
Zn423 O433 2.039 . S
Zn423 O435 2.034 . S
O424 C408 1.251 . S
O424 Zn415 2.039 1_556 S
C425 O430 1.246 . S
C425 O431 1.249 . S
O426 C408 1.254 . S
O426 Zn423 2.025 1_556 S
H427 C419 0.952 . S
H428 C410 0.952 . S
H429 C418 0.948 1_556 S
O430 Zn415 2.034 . S
O430 C425 1.246 . S
O431 Zn423 2.024 . S
O431 C425 1.249 . S
H432 C414 0.948 . S
O433 Zn423 2.039 . S
O433 C437 1.251 . S
O434 Zn415 2.025 . S
O434 C437 1.254 . S
O435 C416 1.246 . S
O435 Zn423 2.034 . S
O436 Zn415 2.024 . S
O436 C416 1.249 . S
C437 O433 1.251 . S
C437 O434 1.254 . S
H438 C411 0.949 . S
H439 C413 0.950 . S
H440 C420 0.949 . S
H441 C422 0.950 1_556 S
C442 O458 1.251 . S
C442 O460 1.254 . S
N443 C444 1.333 1_554 S
N443 C448 1.307 . S
N443 Zn449 2.020 . S
C444 N443 1.333 1_556 S
C444 C445 1.379 . S
C444 H462 0.952 . S
C445 C444 1.379 . S
C445 C446 1.390 1_556 S
C445 H472 0.949 . S
C446 C445 1.390 1_554 S
C446 C447 1.357 . S
C447 C446 1.357 . S
C447 C448 1.370 . S
C447 H473 0.950 . S
C448 N443 1.307 . S
C448 C447 1.370 . S
C448 H466 0.948 . S
Zn449 N443 2.020 . S
Zn449 O458 2.039 1_554 S
Zn449 O464 2.034 . S
Zn449 O468 2.025 . S
Zn449 O470 2.024 . S
C450 O469 1.246 . S
C450 O470 1.249 . S
N451 C452 1.307 . S
N451 C453 1.333 . S
N451 Zn457 2.020 . S
C452 N451 1.307 . S
C452 C456 1.370 . S
C452 H463 0.948 1_554 S
C453 N451 1.333 . S
C453 C454 1.379 . S
C453 H461 0.952 . S
C454 C453 1.379 . S
C454 C455 1.390 . S
C454 H474 0.949 . S
C455 C454 1.390 . S
C455 C456 1.357 . S
C456 C452 1.370 . S
C456 C455 1.357 . S
C456 H475 0.950 1_554 S
Zn457 N451 2.020 . S
Zn457 O460 2.025 1_554 S
Zn457 O465 2.024 . S
Zn457 O467 2.039 . S
Zn457 O469 2.034 . S
O458 C442 1.251 . S
O458 Zn449 2.039 1_556 S
C459 O464 1.246 . S
C459 O465 1.249 . S
O460 C442 1.254 . S
O460 Zn457 2.025 1_556 S
H461 C453 0.952 . S
H462 C444 0.952 . S
H463 C452 0.948 1_556 S
O464 Zn449 2.034 . S
O464 C459 1.246 . S
O465 Zn457 2.024 . S
O465 C459 1.249 . S
H466 C448 0.948 . S
O467 Zn457 2.039 . S
O467 C471 1.251 . S
O468 Zn449 2.025 . S
O468 C471 1.254 . S
O469 C450 1.246 . S
O469 Zn457 2.034 . S
O470 Zn449 2.024 . S
O470 C450 1.249 . S
C471 O467 1.251 . S
C471 O468 1.254 . S
H472 C445 0.949 . S
H473 C447 0.950 . S
H474 C454 0.949 . S
H475 C456 0.950 1_556 S
C476 O492 1.251 . S
C476 O494 1.254 . S
N477 C478 1.333 1_554 S
N477 C482 1.307 . S
N477 Zn483 2.020 . S
C478 N477 1.333 1_556 S
C478 C479 1.379 . S
C478 H496 0.952 . S
C479 C478 1.379 . S
C479 C480 1.390 1_556 S
C479 H506 0.949 . S
C480 C479 1.390 1_554 S
C480 C481 1.357 . S
C481 C480 1.357 . S
C481 C482 1.370 . S
C481 H507 0.950 . S
C482 N477 1.307 . S
C482 C481 1.370 . S
C482 H500 0.948 . S
Zn483 N477 2.020 . S
Zn483 O492 2.039 1_554 S
Zn483 O498 2.034 . S
Zn483 O502 2.025 . S
Zn483 O504 2.024 . S
C484 O503 1.246 . S
C484 O504 1.249 . S
N485 C486 1.307 . S
N485 C487 1.333 . S
N485 Zn491 2.020 . S
C486 N485 1.307 . S
C486 C490 1.370 . S
C486 H497 0.948 1_554 S
C487 N485 1.333 . S
C487 C488 1.379 . S
C487 H495 0.952 . S
C488 C487 1.379 . S
C488 C489 1.390 . S
C488 H508 0.949 . S
C489 C488 1.390 . S
C489 C490 1.357 . S
C490 C486 1.370 . S
C490 C489 1.357 . S
C490 H509 0.950 1_554 S
Zn491 N485 2.020 . S
Zn491 O494 2.025 1_554 S
Zn491 O499 2.024 . S
Zn491 O501 2.039 . S
Zn491 O503 2.034 . S
O492 C476 1.251 . S
O492 Zn483 2.039 1_556 S
C493 O498 1.246 . S
C493 O499 1.249 . S
O494 C476 1.254 . S
O494 Zn491 2.025 1_556 S
H495 C487 0.952 . S
H496 C478 0.952 . S
H497 C486 0.948 1_556 S
O498 Zn483 2.034 . S
O498 C493 1.246 . S
O499 Zn491 2.024 . S
O499 C493 1.249 . S
H500 C482 0.948 . S
O501 Zn491 2.039 . S
O501 C505 1.251 . S
O502 Zn483 2.025 . S
O502 C505 1.254 . S
O503 C484 1.246 . S
O503 Zn491 2.034 . S
O504 Zn483 2.024 . S
O504 C484 1.249 . S
C505 O501 1.251 . S
C505 O502 1.254 . S
H506 C479 0.949 . S
H507 C481 0.950 . S
H508 C488 0.949 . S
H509 C490 0.950 1_556 S
C510 O526 1.251 . S
C510 O528 1.254 . S
N511 C512 1.333 . S
N511 C516 1.307 . S
N511 Zn517 2.020 . S
C512 N511 1.333 . S
C512 C513 1.379 1_554 S
C512 H530 0.952 1_554 S
C513 C512 1.379 1_556 S
C513 C514 1.390 1_556 S
C513 H540 0.949 . S
C514 C513 1.390 1_554 S
C514 C515 1.357 . S
C515 C514 1.357 . S
C515 C516 1.370 . S
C515 H541 0.950 . S
C516 N511 1.307 . S
C516 C515 1.370 . S
C516 H534 0.948 . S
Zn517 N511 2.020 . S
Zn517 O526 2.039 1_554 S
Zn517 O532 2.034 . S
Zn517 O536 2.025 . S
Zn517 O538 2.024 . S
C518 O537 1.246 . S
C518 O538 1.249 . S
N519 C520 1.307 . S
N519 C521 1.333 . S
N519 Zn525 2.020 . S
C520 N519 1.307 . S
C520 C524 1.370 . S
C520 H531 0.948 1_554 S
C521 N519 1.333 . S
C521 C522 1.379 . S
C521 H529 0.952 . S
C522 C521 1.379 . S
C522 C523 1.390 . S
C522 H542 0.949 . S
C523 C522 1.390 . S
C523 C524 1.357 . S
C524 C520 1.370 . S
C524 C523 1.357 . S
C524 H543 0.950 . S
Zn525 N519 2.020 . S
Zn525 O528 2.025 1_554 S
Zn525 O533 2.024 . S
Zn525 O535 2.039 . S
Zn525 O537 2.034 . S
O526 C510 1.251 . S
O526 Zn517 2.039 1_556 S
C527 O532 1.246 . S
C527 O533 1.249 . S
O528 C510 1.254 . S
O528 Zn525 2.025 1_556 S
H529 C521 0.952 . S
H530 C512 0.952 1_556 S
H531 C520 0.948 1_556 S
O532 Zn517 2.034 . S
O532 C527 1.246 . S
O533 Zn525 2.024 . S
O533 C527 1.249 . S
H534 C516 0.948 . S
O535 Zn525 2.039 . S
O535 C539 1.251 . S
O536 Zn517 2.025 . S
O536 C539 1.254 . S
O537 C518 1.246 . S
O537 Zn525 2.034 . S
O538 Zn517 2.024 . S
O538 C518 1.249 . S
C539 O535 1.251 . S
C539 O536 1.254 . S
H540 C513 0.949 . S
H541 C515 0.950 . S
H542 C522 0.949 . S
H543 C524 0.950 . S
C544 O560 1.251 . S
C544 O562 1.254 . S
N545 C546 1.332 . S
N545 C550 1.305 . S
N545 Zn551 2.023 1_545 S
C546 N545 1.332 . S
C546 C547 1.379 1_554 S
C546 H564 0.952 1_554 S
C547 C546 1.379 1_556 S
C547 C548 1.390 1_556 S
C547 H574 0.949 . S
C548 C547 1.390 1_554 S
C548 C549 1.357 . S
C549 C548 1.357 . S
C549 C550 1.370 . S
C549 H575 0.950 . S
C550 N545 1.305 . S
C550 C549 1.370 . S
C550 H568 0.948 . S
Zn551 N545 2.023 1_565 S
Zn551 O560 2.039 1_554 S
Zn551 O566 2.034 . S
Zn551 O570 2.025 . S
Zn551 O572 2.024 . S
C552 O571 1.246 . S
C552 O572 1.249 . S
N553 C554 1.307 . S
N553 C555 1.333 . S
N553 Zn559 2.020 . S
C554 N553 1.307 . S
C554 C558 1.370 . S
C554 H565 0.948 1_554 S
C555 N553 1.333 . S
C555 C556 1.379 . S
C555 H563 0.952 . S
C556 C555 1.379 . S
C556 C557 1.390 . S
C556 H576 0.949 . S
C557 C556 1.390 . S
C557 C558 1.357 . S
C558 C554 1.370 . S
C558 C557 1.357 . S
C558 H577 0.950 . S
Zn559 N553 2.020 . S
Zn559 O562 2.025 1_554 S
Zn559 O567 2.024 . S
Zn559 O569 2.039 . S
Zn559 O571 2.034 . S
O560 C544 1.251 . S
O560 Zn551 2.039 1_556 S
C561 O566 1.246 . S
C561 O567 1.249 . S
O562 C544 1.254 . S
O562 Zn559 2.025 1_556 S
H563 C555 0.952 . S
H564 C546 0.952 1_556 S
H565 C554 0.948 1_556 S
O566 Zn551 2.034 . S
O566 C561 1.246 . S
O567 Zn559 2.024 . S
O567 C561 1.249 . S
H568 C550 0.948 . S
O569 Zn559 2.039 . S
O569 C573 1.251 . S
O570 Zn551 2.025 . S
O570 C573 1.254 . S
O571 C552 1.246 . S
O571 Zn559 2.034 . S
O572 Zn551 2.024 . S
O572 C552 1.249 . S
C573 O569 1.251 . S
C573 O570 1.254 . S
H574 C547 0.949 . S
H575 C549 0.950 . S
H576 C556 0.949 . S
H577 C558 0.950 . S
C578 O594 1.251 . S
C578 O596 1.254 . S
N579 C580 1.333 . S
N579 C584 1.307 . S
N579 Zn585 2.020 . S
C580 N579 1.333 . S
C580 C581 1.379 1_554 S
C580 H598 0.952 1_554 S
C581 C580 1.379 1_556 S
C581 C582 1.390 1_556 S
C581 H608 0.949 . S
C582 C581 1.390 1_554 S
C582 C583 1.357 . S
C583 C582 1.357 . S
C583 C584 1.370 . S
C583 H609 0.950 . S
C584 N579 1.307 . S
C584 C583 1.370 . S
C584 H602 0.948 . S
Zn585 N579 2.020 . S
Zn585 O594 2.039 1_554 S
Zn585 O600 2.034 . S
Zn585 O604 2.025 . S
Zn585 O606 2.024 . S
C586 O605 1.246 . S
C586 O606 1.249 . S
N587 C588 1.307 . S
N587 C589 1.333 . S
N587 Zn593 2.020 . S
C588 N587 1.307 . S
C588 C592 1.370 . S
C588 H599 0.948 1_554 S
C589 N587 1.333 . S
C589 C590 1.379 . S
C589 H597 0.952 . S
C590 C589 1.379 . S
C590 C591 1.390 . S
C590 H610 0.949 . S
C591 C590 1.390 . S
C591 C592 1.357 . S
C592 C588 1.370 . S
C592 C591 1.357 . S
C592 H611 0.950 . S
Zn593 N587 2.020 . S
Zn593 O596 2.025 1_554 S
Zn593 O601 2.024 . S
Zn593 O603 2.039 . S
Zn593 O605 2.034 . S
O594 C578 1.251 . S
O594 Zn585 2.039 1_556 S
C595 O600 1.246 . S
C595 O601 1.249 . S
O596 C578 1.254 . S
O596 Zn593 2.025 1_556 S
H597 C589 0.952 . S
H598 C580 0.952 1_556 S
H599 C588 0.948 1_556 S
O600 Zn585 2.034 . S
O600 C595 1.246 . S
O601 Zn593 2.024 . S
O601 C595 1.249 . S
H602 C584 0.948 . S
O603 Zn593 2.039 . S
O603 C607 1.251 . S
O604 Zn585 2.025 . S
O604 C607 1.254 . S
O605 C586 1.246 . S
O605 Zn593 2.034 . S
O606 Zn585 2.024 . S
O606 C586 1.249 . S
C607 O603 1.251 . S
C607 O604 1.254 . S
H608 C581 0.949 . S
H609 C583 0.950 . S
H610 C590 0.949 . S
H611 C592 0.950 . S
C455 C8 2.262 . S
C42 C489 2.262 . S
C76 C421 2.262 . S
C81 C246 2.262 . S
C280 C13 2.262 . S
C47 C212 2.262 . S
C119 C344 2.262 . S
C153 C378 2.262 . S
C310 C187 2.262 . S
C561 C174 2.262 . S
C106 C595 2.262 . S
C527 C140 2.262 . S
C285 C450 2.262 1_556 S
C217 C484 2.262 1_556 S
C251 C416 2.262 1_546 S
C323 C548 2.262 1_556 S
C582 C357 2.262 1_454 S
C514 C391 2.262 1_554 S
C4 C144 2.020 . S
C178 C38 2.020 . S
C110 C72 2.020 . S
C149 C85 2.020 . S
C183 C17 2.020 . S
C115 C51 2.021 . S
C348 C208 2.021 . S
C382 C242 2.020 . S
C314 C276 2.021 . S
C353 C289 2.020 . S
C387 C221 2.020 . S
C319 C255 2.020 . S
C552 C412 2.020 . S
C586 C446 2.020 . S
C480 C518 2.021 . S
C493 C557 2.020 . S
C425 C591 2.020 . S
C523 C459 2.020 . S
C0 C29 1.352 1_554 S
C34 C63 1.352 1_554 S
C68 C97 1.352 1_554 S
C131 C102 1.352 1_556 S
C136 C165 1.352 1_554 S
C170 C199 1.352 1_554 S
C233 C204 1.352 . S
C238 C267 1.352 . S
C301 C272 1.352 . S
C335 C306 1.352 . S
C369 C340 1.352 . S
C403 C374 1.352 . S
C437 C408 1.352 . S
C442 C471 1.352 . S
C476 C505 1.352 . S
C510 C539 1.352 . S
C544 C573 1.352 . S
C607 C578 1.352 . S
