# Generated by pormake.
# Topology wna, (6)-cn, num edge types: 1
# Building blocks:
#     Node 0, Type 0, BuildingBlock: BETGAK_clean_sbu_0, # of connection points: 6
#     Node 1, Type 0, BuildingBlock: BETGAK_clean_sbu_0, # of connection points: 6
#     Node 2, Type 0, BuildingBlock: BETGAK_clean_sbu_0, # of connection points: 6
#     Node 3, Type 0, BuildingBlock: BETGAK_clean_sbu_0, # of connection points: 6
#     Node 4, Type 0, BuildingBlock: BETGAK_clean_sbu_0, # of connection points: 6
#     Node 5, Type 0, BuildingBlock: BETGAK_clean_sbu_0, # of connection points: 6
#     Node 6, Type 0, BuildingBlock: BETGAK_clean_sbu_0, # of connection points: 6
#     Node 7, Type 0, BuildingBlock: BETGAK_clean_sbu_0, # of connection points: 6
#     Node 8, Type 0, BuildingBlock: BETGAK_clean_sbu_0, # of connection points: 6
#     Node 9, Type 0, BuildingBlock: BETGAK_clean_sbu_0, # of connection points: 6
#     Node 10, Type 0, BuildingBlock: BETGAK_clean_sbu_0, # of connection points: 6
#     Node 11, Type 0, BuildingBlock: BETGAK_clean_sbu_0, # of connection points: 6
#     Node 12, Type 0, BuildingBlock: BETGAK_clean_sbu_0, # of connection points: 6
#     Node 13, Type 0, BuildingBlock: BETGAK_clean_sbu_0, # of connection points: 6
#     Node 14, Type 0, BuildingBlock: BETGAK_clean_sbu_0, # of connection points: 6
#     Node 15, Type 0, BuildingBlock: BETGAK_clean_sbu_0, # of connection points: 6
#     Node 16, Type 0, BuildingBlock: BETGAK_clean_sbu_0, # of connection points: 6
#     Node 17, Type 0, BuildingBlock: BETGAK_clean_sbu_0, # of connection points: 6
#     Node 18, Type 0, BuildingBlock: BETGAK_clean_sbu_0, # of connection points: 6
#     Node 19, Type 0, BuildingBlock: BETGAK_clean_sbu_0, # of connection points: 6
#     Node 20, Type 0, BuildingBlock: BETGAK_clean_sbu_0, # of connection points: 6
#     Node 21, Type 0, BuildingBlock: BETGAK_clean_sbu_0, # of connection points: 6
#     Node 22, Type 0, BuildingBlock: BETGAK_clean_sbu_0, # of connection points: 6
#     Node 23, Type 0, BuildingBlock: BETGAK_clean_sbu_0, # of connection points: 6
#     Node 24, Type 0, BuildingBlock: BETGAK_clean_sbu_0, # of connection points: 6
#     Node 25, Type 0, BuildingBlock: BETGAK_clean_sbu_0, # of connection points: 6
#     Node 26, Type 0, BuildingBlock: BETGAK_clean_sbu_0, # of connection points: 6
#     Node 27, Type 0, BuildingBlock: BETGAK_clean_sbu_0, # of connection points: 6
#     Node 28, Type 0, BuildingBlock: BETGAK_clean_sbu_0, # of connection points: 6
#     Node 29, Type 0, BuildingBlock: BETGAK_clean_sbu_0, # of connection points: 6
#     Node 30, Type 0, BuildingBlock: BETGAK_clean_sbu_0, # of connection points: 6
#     Node 31, Type 0, BuildingBlock: BETGAK_clean_sbu_0, # of connection points: 6
#     Node 32, Type 0, BuildingBlock: BETGAK_clean_sbu_0, # of connection points: 6
#     Node 33, Type 0, BuildingBlock: BETGAK_clean_sbu_0, # of connection points: 6
#     Node 34, Type 0, BuildingBlock: BETGAK_clean_sbu_0, # of connection points: 6
#     Node 35, Type 0, BuildingBlock: BETGAK_clean_sbu_0, # of connection points: 6
#     Edge 36, Type (0, 0), BuildingBlock: XIVTED_clean_linker_0, # of connection points: 2
#     Edge 37, Type (0, 0), BuildingBlock: XIVTED_clean_linker_0, # of connection points: 2
#     Edge 38, Type (0, 0), BuildingBlock: XIVTED_clean_linker_0, # of connection points: 2
#     Edge 39, Type (0, 0), BuildingBlock: XIVTED_clean_linker_0, # of connection points: 2
#     Edge 40, Type (0, 0), BuildingBlock: XIVTED_clean_linker_0, # of connection points: 2
#     Edge 41, Type (0, 0), BuildingBlock: XIVTED_clean_linker_0, # of connection points: 2
#     Edge 42, Type (0, 0), BuildingBlock: XIVTED_clean_linker_0, # of connection points: 2
#     Edge 43, Type (0, 0), BuildingBlock: XIVTED_clean_linker_0, # of connection points: 2
#     Edge 44, Type (0, 0), BuildingBlock: XIVTED_clean_linker_0, # of connection points: 2
#     Edge 45, Type (0, 0), BuildingBlock: XIVTED_clean_linker_0, # of connection points: 2
#     Edge 46, Type (0, 0), BuildingBlock: XIVTED_clean_linker_0, # of connection points: 2
#     Edge 47, Type (0, 0), BuildingBlock: XIVTED_clean_linker_0, # of connection points: 2
#     Edge 48, Type (0, 0), BuildingBlock: XIVTED_clean_linker_0, # of connection points: 2
#     Edge 49, Type (0, 0), BuildingBlock: XIVTED_clean_linker_0, # of connection points: 2
#     Edge 50, Type (0, 0), BuildingBlock: XIVTED_clean_linker_0, # of connection points: 2
#     Edge 51, Type (0, 0), BuildingBlock: XIVTED_clean_linker_0, # of connection points: 2
#     Edge 52, Type (0, 0), BuildingBlock: XIVTED_clean_linker_0, # of connection points: 2
#     Edge 53, Type (0, 0), BuildingBlock: XIVTED_clean_linker_0, # of connection points: 2
#     Edge 54, Type (0, 0), BuildingBlock: XIVTED_clean_linker_0, # of connection points: 2
#     Edge 55, Type (0, 0), BuildingBlock: XIVTED_clean_linker_0, # of connection points: 2
#     Edge 56, Type (0, 0), BuildingBlock: XIVTED_clean_linker_0, # of connection points: 2
#     Edge 57, Type (0, 0), BuildingBlock: XIVTED_clean_linker_0, # of connection points: 2
#     Edge 58, Type (0, 0), BuildingBlock: XIVTED_clean_linker_0, # of connection points: 2
#     Edge 59, Type (0, 0), BuildingBlock: XIVTED_clean_linker_0, # of connection points: 2
#     Edge 60, Type (0, 0), BuildingBlock: XIVTED_clean_linker_0, # of connection points: 2
#     Edge 61, Type (0, 0), BuildingBlock: XIVTED_clean_linker_0, # of connection points: 2
#     Edge 62, Type (0, 0), BuildingBlock: XIVTED_clean_linker_0, # of connection points: 2
#     Edge 63, Type (0, 0), BuildingBlock: XIVTED_clean_linker_0, # of connection points: 2
#     Edge 64, Type (0, 0), BuildingBlock: XIVTED_clean_linker_0, # of connection points: 2
#     Edge 65, Type (0, 0), BuildingBlock: XIVTED_clean_linker_0, # of connection points: 2
#     Edge 66, Type (0, 0), BuildingBlock: XIVTED_clean_linker_0, # of connection points: 2
#     Edge 67, Type (0, 0), BuildingBlock: XIVTED_clean_linker_0, # of connection points: 2
#     Edge 68, Type (0, 0), BuildingBlock: XIVTED_clean_linker_0, # of connection points: 2
#     Edge 69, Type (0, 0), BuildingBlock: XIVTED_clean_linker_0, # of connection points: 2
#     Edge 70, Type (0, 0), BuildingBlock: XIVTED_clean_linker_0, # of connection points: 2
#     Edge 71, Type (0, 0), BuildingBlock: XIVTED_clean_linker_0, # of connection points: 2
#     Edge 72, Type (0, 0), BuildingBlock: XIVTED_clean_linker_0, # of connection points: 2
#     Edge 73, Type (0, 0), BuildingBlock: XIVTED_clean_linker_0, # of connection points: 2
#     Edge 74, Type (0, 0), BuildingBlock: XIVTED_clean_linker_0, # of connection points: 2
#     Edge 75, Type (0, 0), BuildingBlock: XIVTED_clean_linker_0, # of connection points: 2
#     Edge 76, Type (0, 0), BuildingBlock: XIVTED_clean_linker_0, # of connection points: 2
#     Edge 77, Type (0, 0), BuildingBlock: XIVTED_clean_linker_0, # of connection points: 2
#     Edge 78, Type (0, 0), BuildingBlock: XIVTED_clean_linker_0, # of connection points: 2
#     Edge 79, Type (0, 0), BuildingBlock: XIVTED_clean_linker_0, # of connection points: 2
#     Edge 80, Type (0, 0), BuildingBlock: XIVTED_clean_linker_0, # of connection points: 2
#     Edge 81, Type (0, 0), BuildingBlock: XIVTED_clean_linker_0, # of connection points: 2
#     Edge 82, Type (0, 0), BuildingBlock: XIVTED_clean_linker_0, # of connection points: 2
#     Edge 83, Type (0, 0), BuildingBlock: XIVTED_clean_linker_0, # of connection points: 2
#     Edge 84, Type (0, 0), BuildingBlock: XIVTED_clean_linker_0, # of connection points: 2
#     Edge 85, Type (0, 0), BuildingBlock: XIVTED_clean_linker_0, # of connection points: 2
#     Edge 86, Type (0, 0), BuildingBlock: XIVTED_clean_linker_0, # of connection points: 2
#     Edge 87, Type (0, 0), BuildingBlock: XIVTED_clean_linker_0, # of connection points: 2
#     Edge 88, Type (0, 0), BuildingBlock: XIVTED_clean_linker_0, # of connection points: 2
#     Edge 89, Type (0, 0), BuildingBlock: XIVTED_clean_linker_0, # of connection points: 2
#     Edge 90, Type (0, 0), BuildingBlock: XIVTED_clean_linker_0, # of connection points: 2
#     Edge 91, Type (0, 0), BuildingBlock: XIVTED_clean_linker_0, # of connection points: 2
#     Edge 92, Type (0, 0), BuildingBlock: XIVTED_clean_linker_0, # of connection points: 2
#     Edge 93, Type (0, 0), BuildingBlock: XIVTED_clean_linker_0, # of connection points: 2
#     Edge 94, Type (0, 0), BuildingBlock: XIVTED_clean_linker_0, # of connection points: 2
#     Edge 95, Type (0, 0), BuildingBlock: XIVTED_clean_linker_0, # of connection points: 2
#     Edge 96, Type (0, 0), BuildingBlock: XIVTED_clean_linker_0, # of connection points: 2
#     Edge 97, Type (0, 0), BuildingBlock: XIVTED_clean_linker_0, # of connection points: 2
#     Edge 98, Type (0, 0), BuildingBlock: XIVTED_clean_linker_0, # of connection points: 2
#     Edge 99, Type (0, 0), BuildingBlock: XIVTED_clean_linker_0, # of connection points: 2
#     Edge 100, Type (0, 0), BuildingBlock: XIVTED_clean_linker_0, # of connection points: 2
#     Edge 101, Type (0, 0), BuildingBlock: XIVTED_clean_linker_0, # of connection points: 2
#     Edge 102, Type (0, 0), BuildingBlock: XIVTED_clean_linker_0, # of connection points: 2
#     Edge 103, Type (0, 0), BuildingBlock: XIVTED_clean_linker_0, # of connection points: 2
#     Edge 104, Type (0, 0), BuildingBlock: XIVTED_clean_linker_0, # of connection points: 2
#     Edge 105, Type (0, 0), BuildingBlock: XIVTED_clean_linker_0, # of connection points: 2
#     Edge 106, Type (0, 0), BuildingBlock: XIVTED_clean_linker_0, # of connection points: 2
#     Edge 107, Type (0, 0), BuildingBlock: XIVTED_clean_linker_0, # of connection points: 2
#     Edge 108, Type (0, 0), BuildingBlock: XIVTED_clean_linker_0, # of connection points: 2
#     Edge 109, Type (0, 0), BuildingBlock: XIVTED_clean_linker_0, # of connection points: 2
#     Edge 110, Type (0, 0), BuildingBlock: XIVTED_clean_linker_0, # of connection points: 2
#     Edge 111, Type (0, 0), BuildingBlock: XIVTED_clean_linker_0, # of connection points: 2
#     Edge 112, Type (0, 0), BuildingBlock: XIVTED_clean_linker_0, # of connection points: 2
#     Edge 113, Type (0, 0), BuildingBlock: XIVTED_clean_linker_0, # of connection points: 2
#     Edge 114, Type (0, 0), BuildingBlock: XIVTED_clean_linker_0, # of connection points: 2
#     Edge 115, Type (0, 0), BuildingBlock: XIVTED_clean_linker_0, # of connection points: 2
#     Edge 116, Type (0, 0), BuildingBlock: XIVTED_clean_linker_0, # of connection points: 2
#     Edge 117, Type (0, 0), BuildingBlock: XIVTED_clean_linker_0, # of connection points: 2
#     Edge 118, Type (0, 0), BuildingBlock: XIVTED_clean_linker_0, # of connection points: 2
#     Edge 119, Type (0, 0), BuildingBlock: XIVTED_clean_linker_0, # of connection points: 2
#     Edge 120, Type (0, 0), BuildingBlock: XIVTED_clean_linker_0, # of connection points: 2
#     Edge 121, Type (0, 0), BuildingBlock: XIVTED_clean_linker_0, # of connection points: 2
#     Edge 122, Type (0, 0), BuildingBlock: XIVTED_clean_linker_0, # of connection points: 2
#     Edge 123, Type (0, 0), BuildingBlock: XIVTED_clean_linker_0, # of connection points: 2
#     Edge 124, Type (0, 0), BuildingBlock: XIVTED_clean_linker_0, # of connection points: 2
#     Edge 125, Type (0, 0), BuildingBlock: XIVTED_clean_linker_0, # of connection points: 2
#     Edge 126, Type (0, 0), BuildingBlock: XIVTED_clean_linker_0, # of connection points: 2
#     Edge 127, Type (0, 0), BuildingBlock: XIVTED_clean_linker_0, # of connection points: 2
#     Edge 128, Type (0, 0), BuildingBlock: XIVTED_clean_linker_0, # of connection points: 2
#     Edge 129, Type (0, 0), BuildingBlock: XIVTED_clean_linker_0, # of connection points: 2
#     Edge 130, Type (0, 0), BuildingBlock: XIVTED_clean_linker_0, # of connection points: 2
#     Edge 131, Type (0, 0), BuildingBlock: XIVTED_clean_linker_0, # of connection points: 2
#     Edge 132, Type (0, 0), BuildingBlock: XIVTED_clean_linker_0, # of connection points: 2
#     Edge 133, Type (0, 0), BuildingBlock: XIVTED_clean_linker_0, # of connection points: 2
#     Edge 134, Type (0, 0), BuildingBlock: XIVTED_clean_linker_0, # of connection points: 2
#     Edge 135, Type (0, 0), BuildingBlock: XIVTED_clean_linker_0, # of connection points: 2
#     Edge 136, Type (0, 0), BuildingBlock: XIVTED_clean_linker_0, # of connection points: 2
#     Edge 137, Type (0, 0), BuildingBlock: XIVTED_clean_linker_0, # of connection points: 2
#     Edge 138, Type (0, 0), BuildingBlock: XIVTED_clean_linker_0, # of connection points: 2
#     Edge 139, Type (0, 0), BuildingBlock: XIVTED_clean_linker_0, # of connection points: 2
#     Edge 140, Type (0, 0), BuildingBlock: XIVTED_clean_linker_0, # of connection points: 2
#     Edge 141, Type (0, 0), BuildingBlock: XIVTED_clean_linker_0, # of connection points: 2
#     Edge 142, Type (0, 0), BuildingBlock: XIVTED_clean_linker_0, # of connection points: 2
#     Edge 143, Type (0, 0), BuildingBlock: XIVTED_clean_linker_0, # of connection points: 2
# Relax obj value: 0.155
# Max RMSD: 0.223
# Mean RMSD: 0.207
data_MOF--net-wna--node1-BETGAK_clean_sbu_0--edge1-XIVTED_clean_linker_0
_symmetry_space_group_name_H-M    P1
_symmetry_Int_Tables_number       1
_symmetry_cell_setting            triclinic
loop_
_symmetry_equiv_pos_as_xyz
'x, y, z'
_cell_length_a     40.790694
_cell_length_b     40.820005
_cell_length_c     150.51285
_cell_angle_alpha  89.971817
_cell_angle_beta   90.056939
_cell_angle_gamma 119.96682
loop_
_atom_site_label
_atom_site_type_symbol
_atom_site_fract_x
_atom_site_fract_y
_atom_site_fract_z
_atom_type_partial_charge
La0 La 0.1268 0.26446 0.18376 0.0
La1 La 0.13443 0.25619 0.20332 0.0
C2 C 0.12246 0.28882 0.16859 0.0
C3 C 0.14148 0.30283 0.15989 0.0
C4 C 0.15419 0.28238 0.15483 0.0
C5 C 0.1656 0.2924 0.14598 0.0
C6 C 0.16461 0.32311 0.14198 0.0
C7 C 0.15355 0.34454 0.14721 0.0
C8 C 0.14204 0.33443 0.15604 0.0
C9 C 0.14017 0.20919 0.18775 0.0
C10 C 0.20884 0.30895 0.19275 0.0
C11 C 0.1345 0.23542 0.2192 0.0
C12 C 0.11302 0.22803 0.22766 0.0
C13 C 0.12027 0.25772 0.23354 0.0
C14 C 0.10298 0.25026 0.24191 0.0
C15 C 0.07812 0.2129 0.24467 0.0
C16 C 0.07034 0.18327 0.23872 0.0
C17 C 0.08764 0.19074 0.23034 0.0
C18 C 0.11662 0.3087 0.19879 0.0
C19 C 0.05598 0.20265 0.19379 0.0
O20 O 0.10998 0.25324 0.17047 0.0
O21 O 0.1362 0.31062 0.17559 0.0
O22 O 0.12323 0.21069 0.18062 0.0
O23 O 0.15365 0.24045 0.19175 0.0
O24 O 0.18684 0.30752 0.18607 0.0
O25 O 0.1943 0.28615 0.19968 0.0
O26 O 0.15376 0.27044 0.21646 0.0
O27 O 0.11814 0.21196 0.21259 0.0
O28 O 0.13657 0.31053 0.20563 0.0
O29 O 0.10485 0.27689 0.19529 0.0
O30 O 0.07863 0.20719 0.20055 0.0
O31 O 0.06743 0.22704 0.18713 0.0
H32 H 0.15405 0.25781 0.1576 0.0
H33 H 0.17453 0.27562 0.14222 0.0
H34 H 0.15201 0.3681 0.14436 0.0
H35 H 0.13194 0.35039 0.15974 0.0
H36 H 0.14009 0.28678 0.23179 0.0
H37 H 0.11013 0.27381 0.24634 0.0
H38 H 0.05099 0.15418 0.24054 0.0
H39 H 0.0817 0.16716 0.22603 0.0
La40 La 0.7784 0.87375 0.18411 0.0
La41 La 0.78707 0.88998 0.20366 0.0
C42 C 0.75379 0.84417 0.16903 0.0
C43 C 0.73805 0.84649 0.16031 0.0
C44 C 0.75623 0.8789 0.15491 0.0
C45 C 0.74534 0.87763 0.146 0.0
C46 C 0.71626 0.84387 0.14229 0.0
C47 C 0.69681 0.8122 0.14788 0.0
C48 C 0.70763 0.81351 0.15676 0.0
C49 C 0.83353 0.94243 0.18801 0.0
C50 C 0.73374 0.91118 0.19312 0.0
C51 C 0.80817 0.91082 0.21952 0.0
C52 C 0.81702 0.89711 0.22786 0.0
C53 C 0.79059 0.88339 0.23484 0.0
C54 C 0.79958 0.87355 0.24304 0.0
C55 C 0.83543 0.87743 0.24452 0.0
C56 C 0.86173 0.89068 0.23749 0.0
C57 C 0.85268 0.90044 0.22928 0.0
C58 C 0.73473 0.81969 0.19918 0.0
C59 C 0.8409 0.86536 0.19414 0.0
O60 O 0.78906 0.86922 0.17071 0.0
O61 O 0.7324 0.83518 0.17613 0.0
O62 O 0.83208 0.92383 0.18092 0.0
O63 O 0.80232 0.92466 0.19204 0.0
O64 O 0.7353 0.89079 0.18642 0.0
O65 O 0.75654 0.9194 0.20007 0.0
O66 O 0.77287 0.89345 0.21692 0.0
O67 O 0.83143 0.91951 0.21281 0.0
O68 O 0.73271 0.83786 0.20597 0.0
O69 O 0.76654 0.83973 0.19567 0.0
O70 O 0.83595 0.88293 0.20094 0.0
O71 O 0.81682 0.85279 0.1874 0.0
H72 H 0.77997 0.90472 0.15743 0.0
H73 H 0.76107 0.90252 0.14191 0.0
H74 H 0.67383 0.78594 0.14531 0.0
H75 H 0.69329 0.78807 0.16075 0.0
H76 H 0.7631 0.88106 0.23405 0.0
H77 H 0.77876 0.86404 0.2483 0.0
H78 H 0.88945 0.89365 0.23834 0.0
H79 H 0.8739 0.91119 0.22409 0.0
La80 La 0.17 0.91589 0.18416 0.0
La81 La 0.15255 0.90747 0.20364 0.0
C82 C 0.20169 0.92209 0.16935 0.0
C83 C 0.19961 0.90464 0.16059 0.0
C84 C 0.16953 0.89553 0.15468 0.0
C85 C 0.17186 0.88654 0.14581 0.0
C86 C 0.20431 0.88648 0.14264 0.0
C87 C 0.2334 0.89356 0.14871 0.0
C88 C 0.2311 0.90265 0.15757 0.0
C89 C 0.10098 0.90211 0.18772 0.0
C90 C 0.13159 0.83334 0.19291 0.0
C91 C 0.1301 0.90624 0.21938 0.0
C92 C 0.14286 0.92743 0.22786 0.0
C93 C 0.17747 0.93612 0.23185 0.0
C94 C 0.1869 0.95268 0.24032 0.0
C95 C 0.16194 0.96092 0.24498 0.0
C96 C 0.12791 0.95327 0.24081 0.0
C97 C 0.11849 0.93665 0.23237 0.0
C98 C 0.22337 0.92627 0.19933 0.0
C99 C 0.17703 0.986 0.19421 0.0
O100 O 0.1774 0.93344 0.17092 0.0
O101 O 0.20884 0.90802 0.17644 0.0
O102 O 0.11999 0.91917 0.18067 0.0
O103 O 0.1185 0.88864 0.19188 0.0
O104 O 0.15234 0.85551 0.18628 0.0
O105 O 0.12329 0.84774 0.19987 0.0
O106 O 0.14713 0.88802 0.21675 0.0
O107 O 0.12306 0.92257 0.21275 0.0
O108 O 0.20524 0.90598 0.20612 0.0
O109 O 0.20307 0.93767 0.19582 0.0
O110 O 0.15892 0.96319 0.20093 0.0
O111 O 0.19054 0.97493 0.18759 0.0
H112 H 0.14494 0.89705 0.15678 0.0
H113 H 0.149 0.88152 0.14134 0.0
H114 H 0.25847 0.89302 0.14657 0.0
H115 H 0.25479 0.9098 0.16197 0.0
H116 H 0.19688 0.92931 0.22854 0.0
H117 H 0.2132 0.95787 0.24332 0.0
H118 H 0.1083 0.95987 0.24409 0.0
H119 H 0.09166 0.93026 0.22944 0.0
La120 La 0.27128 0.11835 0.36761 0.0
La121 La 0.2635 0.12651 0.3481 0.0
C122 C 0.29523 0.11383 0.38283 0.0
C123 C 0.30662 0.13231 0.39167 0.0
C124 C 0.28029 0.13467 0.39728 0.0
C125 C 0.2892 0.14549 0.40618 0.0
C126 C 0.32467 0.15438 0.40969 0.0
C127 C 0.35166 0.1539 0.40396 0.0
C128 C 0.34264 0.14278 0.39506 0.0
C129 C 0.21628 0.13223 0.36373 0.0
C130 C 0.31624 0.20063 0.35874 0.0
C131 C 0.24285 0.12734 0.33227 0.0
C132 C 0.23416 0.10547 0.3239 0.0
C133 C 0.25859 0.09379 0.32036 0.0
C134 C 0.25115 0.07601 0.31204 0.0
C135 C 0.21906 0.06937 0.30709 0.0
C136 C 0.19431 0.08038 0.31076 0.0
C137 C 0.20185 0.09827 0.31905 0.0
C138 C 0.31562 0.10807 0.35269 0.0
C139 C 0.2094 0.04793 0.35742 0.0
O140 O 0.25952 0.09857 0.38067 0.0
O141 O 0.31757 0.12993 0.376 0.0
O142 O 0.21789 0.11527 0.37083 0.0
O143 O 0.2475 0.14563 0.3597 0.0
O144 O 0.31454 0.17849 0.36541 0.0
O145 O 0.2937 0.18623 0.35176 0.0
O146 O 0.27806 0.14506 0.33494 0.0
O147 O 0.21928 0.11175 0.33889 0.0
O148 O 0.31784 0.12822 0.34586 0.0
O149 O 0.28374 0.09652 0.35612 0.0
O150 O 0.21431 0.07076 0.3507 0.0
O151 O 0.23365 0.0591 0.36412 0.0
H152 H 0.25221 0.12676 0.39492 0.0
H153 H 0.26795 0.14612 0.41038 0.0
H154 H 0.37915 0.16029 0.40645 0.0
H155 H 0.36331 0.14078 0.39093 0.0
H156 H 0.28371 0.09887 0.32396 0.0
H157 H 0.27055 0.06748 0.30948 0.0
H158 H 0.16961 0.0762 0.30712 0.0
H159 H 0.18274 0.10724 0.3216 0.0
La160 La 0.92276 0.16007 0.36763 0.0
La161 La 0.91387 0.14348 0.3482 0.0
C162 C 0.92774 0.18942 0.38273 0.0
C163 C 0.90864 0.18461 0.3914 0.0
C164 C 0.89517 0.15125 0.39642 0.0
C165 C 0.88345 0.14986 0.40524 0.0
C166 C 0.88489 0.18174 0.40924 0.0
C167 C 0.89674 0.21447 0.40405 0.0
C168 C 0.90856 0.21587 0.39525 0.0
C169 C 0.9093 0.09123 0.36384 0.0
C170 C 0.84 0.12187 0.35899 0.0
C171 C 0.91296 0.12256 0.3323 0.0
C172 C 0.93422 0.13669 0.32381 0.0
C173 C 0.92069 0.15103 0.31713 0.0
C174 C 0.93825 0.16116 0.3088 0.0
C175 C 0.96971 0.15696 0.30687 0.0
C176 C 0.98361 0.14312 0.3136 0.0
C177 C 0.96607 0.13306 0.32195 0.0
C178 C 0.932 0.21404 0.35261 0.0
C179 C 0.99305 0.16874 0.35738 0.0
O180 O 0.93999 0.16609 0.3809 0.0
O181 O 0.914 0.19743 0.37571 0.0
O182 O 0.92702 0.11035 0.37082 0.0
O183 O 0.89534 0.10865 0.35984 0.0
O184 O 0.86242 0.1427 0.36558 0.0
O185 O 0.85421 0.11356 0.352 0.0
O186 O 0.89415 0.13873 0.33509 0.0
O187 O 0.9292 0.11503 0.33887 0.0
O188 O 0.91123 0.1955 0.34592 0.0
O189 O 0.94411 0.19415 0.35605 0.0
O190 O 0.96992 0.15042 0.35072 0.0
O191 O 0.98197 0.18178 0.3641 0.0
H192 H 0.8949 0.12664 0.39364 0.0
H193 H 0.87392 0.12399 0.40898 0.0
H194 H 0.89863 0.2397 0.4069 0.0
H195 H 0.91922 0.24206 0.39157 0.0
H196 H 0.89585 0.1536 0.31826 0.0
H197 H 0.92634 0.17114 0.30376 0.0
H198 H 1.00802 0.13989 0.31241 0.0
H199 H 0.97711 0.12181 0.3269 0.0
La200 La 0.88031 0.76967 0.36786 0.0
La201 La 0.90027 0.78181 0.34736 0.0
C202 C 0.84796 0.7421 0.38252 0.0
C203 C 0.85345 0.73002 0.39142 0.0
C204 C 0.88581 0.75267 0.39658 0.0
C205 C 0.88761 0.74347 0.40548 0.0
C206 C 0.85715 0.71142 0.40944 0.0
C207 C 0.82549 0.68807 0.40413 0.0
C208 C 0.82367 0.69734 0.39525 0.0
C209 C 0.94861 0.82609 0.36412 0.0
C210 C 0.91953 0.72671 0.35867 0.0
C211 C 0.92938 0.80526 0.33227 0.0
C212 C 0.91732 0.81171 0.3234 0.0
C213 C 0.89359 0.78136 0.31781 0.0
C214 C 0.88394 0.78794 0.30931 0.0
C215 C 0.89779 0.82504 0.30615 0.0
C216 C 0.92132 0.85536 0.31179 0.0
C217 C 0.93102 0.84876 0.32028 0.0
C218 C 0.82594 0.7346 0.35038 0.0
C219 C 0.87194 0.83132 0.35726 0.0
O220 O 0.86716 0.77833 0.38075 0.0
O221 O 0.84548 0.72135 0.37562 0.0
O222 O 0.93052 0.8227 0.37146 0.0
O223 O 0.93061 0.79568 0.35978 0.0
O224 O 0.90295 0.73114 0.36584 0.0
O225 O 0.92348 0.7454 0.35112 0.0
O226 O 0.91508 0.77007 0.33492 0.0
O227 O 0.93147 0.82774 0.33876 0.0
O228 O 0.84129 0.74297 0.34258 0.0
O229 O 0.85267 0.75272 0.35563 0.0
O230 O 0.89356 0.82988 0.35089 0.0
O231 O 0.85705 0.80527 0.36361 0.0
H232 H 0.90926 0.77809 0.39382 0.0
H233 H 0.9127 0.7618 0.40931 0.0
H234 H 0.80131 0.66342 0.40693 0.0
H235 H 0.79826 0.67965 0.39145 0.0
H236 H 0.88272 0.7524 0.31993 0.0
H237 H 0.86623 0.76384 0.30515 0.0
H238 H 0.93216 0.88431 0.30967 0.0
H239 H 0.94952 0.87276 0.32439 0.0
La240 La 0.91707 0.77836 0.84725 0.0
La241 La 0.924 0.7704 0.8668 0.0
C242 C 0.91743 0.79927 0.83138 0.0
C243 C 0.93953 0.80772 0.82302 0.0
C244 C 0.94535 0.78043 0.81872 0.0
C245 C 0.9631 0.78803 0.81039 0.0
C246 C 0.97553 0.82309 0.80616 0.0
C247 C 0.97037 0.85058 0.81059 0.0
C248 C 0.95252 0.84292 0.81889 0.0
C249 C 0.93441 0.7256 0.85191 0.0
C250 C 0.99539 0.83149 0.85682 0.0
C251 C 0.92791 0.74724 0.88217 0.0
C252 C 0.90966 0.73628 0.89107 0.0
C253 C 0.92154 0.76347 0.89788 0.0
C254 C 0.9094 0.75291 0.90663 0.0
C255 C 0.88505 0.71478 0.90888 0.0
C256 C 0.8722 0.68765 0.90202 0.0
C257 C 0.8845 0.69825 0.89323 0.0
C258 C 0.91097 0.82587 0.86265 0.0
C259 C 0.8422 0.72592 0.8577 0.0
O260 O 0.89899 0.7641 0.83404 0.0
O261 O 0.93296 0.82271 0.83802 0.0
O262 O 0.91474 0.72388 0.84502 0.0
O263 O 0.9462 0.75741 0.85542 0.0
O264 O 0.97296 0.82718 0.85004 0.0
O265 O 0.98356 0.80693 0.86345 0.0
O266 O 0.94298 0.7828 0.87993 0.0
O267 O 0.91207 0.72464 0.87537 0.0
O268 O 0.92773 0.82437 0.8698 0.0
O269 O 0.89749 0.79446 0.85873 0.0
O270 O 0.86395 0.72732 0.86444 0.0
O271 O 0.85709 0.74855 0.85075 0.0
H272 H 0.93568 0.75297 0.82171 0.0
H273 H 0.96702 0.76637 0.80725 0.0
H274 H 0.97908 0.8777 0.80752 0.0
H275 H 0.94806 0.86431 0.822 0.0
H276 H 0.94154 0.79293 0.89652 0.0
H277 H 0.92057 0.77463 0.9117 0.0
H278 H 0.85307 0.65807 0.90344 0.0
H279 H 0.87517 0.67648 0.88818 0.0
La280 La 0.26451 0.14461 0.84783 0.0
La281 La 0.27295 0.16007 0.86742 0.0
C282 C 0.24307 0.12334 0.83201 0.0
C283 C 0.23412 0.13645 0.82364 0.0
C284 C 0.25814 0.17267 0.82013 0.0
C285 C 0.25059 0.1829 0.81179 0.0
C286 C 0.2188 0.15721 0.80679 0.0
C287 C 0.19444 0.12132 0.81045 0.0
C288 C 0.20207 0.1111 0.81876 0.0
C289 C 0.31739 0.21468 0.85237 0.0
C290 C 0.2116 0.17014 0.85739 0.0
C291 C 0.29667 0.18762 0.88272 0.0
C292 C 0.30795 0.18075 0.89163 0.0
C293 C 0.28088 0.15435 0.89754 0.0
C294 C 0.29006 0.15315 0.90646 0.0
C295 C 0.32654 0.17821 0.90973 0.0
C296 C 0.3541 0.20334 0.90372 0.0
C297 C 0.34483 0.20473 0.89479 0.0
C298 C 0.21758 0.09151 0.86334 0.0
C299 C 0.31741 0.12269 0.85831 0.0
O300 O 0.27839 0.14064 0.8346 0.0
O301 O 0.21982 0.11554 0.83869 0.0
O302 O 0.3189 0.19662 0.84549 0.0
O303 O 0.28566 0.19479 0.85594 0.0
O304 O 0.21587 0.15202 0.85062 0.0
O305 O 0.23614 0.18283 0.86404 0.0
O306 O 0.261 0.16726 0.88053 0.0
O307 O 0.31913 0.194 0.87591 0.0
O308 O 0.21915 0.10968 0.87051 0.0
O309 O 0.2489 0.10953 0.85939 0.0
O310 O 0.31608 0.14315 0.86502 0.0
O311 O 0.29459 0.11471 0.85138 0.0
H312 H 0.28305 0.1929 0.82375 0.0
H313 H 0.2697 0.21094 0.80925 0.0
H314 H 0.16999 0.10059 0.80678 0.0
H315 H 0.18328 0.08293 0.82128 0.0
H316 H 0.2521 0.13553 0.89538 0.0
H317 H 0.26829 0.13304 0.91086 0.0
H318 H 0.38238 0.22326 0.906 0.0
H319 H 0.36613 0.22574 0.89045 0.0
La320 La 0.89904 0.12763 0.84775 0.0
La321 La 0.88243 0.11898 0.86726 0.0
C322 C 0.92133 0.12881 0.83198 0.0
C323 C 0.90876 0.1076 0.8235 0.0
C324 C 0.87318 0.09672 0.81974 0.0
C325 C 0.86374 0.08013 0.81127 0.0
C326 C 0.88968 0.07408 0.80637 0.0
C327 C 0.92475 0.08395 0.81031 0.0
C328 C 0.93416 0.10056 0.81875 0.0
C329 C 0.82853 0.10977 0.85209 0.0
C330 C 0.87321 0.04851 0.857 0.0
C331 C 0.85405 0.11427 0.88249 0.0
C332 C 0.86088 0.13247 0.89137 0.0
C333 C 0.88892 0.134 0.8971 0.0
C334 C 0.89047 0.14455 0.90601 0.0
C335 C 0.86414 0.15396 0.90943 0.0
C336 C 0.83732 0.15426 0.90359 0.0
C337 C 0.8356 0.14344 0.89468 0.0
C338 C 0.95134 0.13265 0.86336 0.0
C339 C 0.92022 0.2015 0.85854 0.0
O340 O 0.90398 0.14672 0.83461 0.0
O341 O 0.92861 0.11269 0.83861 0.0
O342 O 0.84696 0.12991 0.84531 0.0
O343 O 0.84835 0.09781 0.85565 0.0
O344 O 0.89172 0.07149 0.85034 0.0
O345 O 0.86003 0.05976 0.86366 0.0
O346 O 0.87463 0.09917 0.88032 0.0
O347 O 0.84773 0.13041 0.87567 0.0
O348 O 0.93271 0.11539 0.87043 0.0
O349 O 0.93351 0.14623 0.85943 0.0
O350 O 0.8994 0.17914 0.86513 0.0
O351 O 0.92862 0.1873 0.85155 0.0
H352 H 0.85297 0.10182 0.82324 0.0
H353 H 0.83659 0.07319 0.80846 0.0
H354 H 0.94518 0.07906 0.80685 0.0
H355 H 0.96175 0.10865 0.8215 0.0
H356 H 0.90885 0.12565 0.89481 0.0
H357 H 0.91187 0.14457 0.91028 0.0
H358 H 0.81642 0.16106 0.906 0.0
H359 H 0.81338 0.14206 0.89047 0.0
La360 La 0.78728 0.90764 0.70321 0.0
La361 La 0.77875 0.91545 0.68365 0.0
C362 C 0.80861 0.90727 0.71901 0.0
C363 C 0.81711 0.92915 0.7274 0.0
C364 C 0.79132 0.9384 0.73123 0.0
C365 C 0.79868 0.95605 0.73957 0.0
C366 C 0.83205 0.96502 0.74425 0.0
C367 C 0.85814 0.95647 0.74029 0.0
C368 C 0.85069 0.93869 0.73198 0.0
C369 C 0.73522 0.92617 0.69877 0.0
C370 C 0.84093 0.98612 0.69374 0.0
C371 C 0.7541 0.9199 0.66853 0.0
C372 C 0.73979 0.90071 0.65985 0.0
C373 C 0.75993 0.88757 0.65481 0.0
C374 C 0.74965 0.87594 0.64598 0.0
C375 C 0.71901 0.87712 0.64199 0.0
C376 C 0.69788 0.8886 0.6472 0.0
C377 C 0.70824 0.90034 0.65601 0.0
C378 C 0.83394 0.90182 0.68756 0.0
C379 C 0.73403 0.83339 0.69263 0.0
O380 O 0.77334 0.88894 0.71638 0.0
O381 O 0.83192 0.92307 0.71236 0.0
O382 O 0.73329 0.90628 0.70562 0.0
O383 O 0.76684 0.93748 0.69521 0.0
O384 O 0.83623 0.96344 0.70048 0.0
O385 O 0.81665 0.97476 0.68703 0.0
O386 O 0.78972 0.93223 0.67036 0.0
O387 O 0.73245 0.90634 0.67556 0.0
O388 O 0.83241 0.91891 0.68047 0.0
O389 O 0.80267 0.88839 0.69156 0.0
O390 O 0.73562 0.85541 0.68595 0.0
O391 O 0.75677 0.84784 0.69959 0.0
H392 H 0.76518 0.93149 0.72785 0.0
H393 H 0.77819 0.96266 0.74235 0.0
H394 H 0.8839 0.96247 0.74372 0.0
H395 H 0.87089 0.93161 0.72921 0.0
H396 H 0.78444 0.88754 0.65758 0.0
H397 H 0.7662 0.86669 0.64223 0.0
H398 H 0.67438 0.89028 0.64436 0.0
H399 H 0.69253 0.91076 0.65971 0.0
La400 La 0.13636 0.89061 0.70242 0.0
La401 La 0.12919 0.87547 0.68278 0.0
C402 C 0.13685 0.91184 0.71826 0.0
C403 C 0.11537 0.89891 0.72669 0.0
C404 C 0.10223 0.8623 0.73007 0.0
C405 C 0.08549 0.85231 0.73851 0.0
C406 C 0.08155 0.87871 0.74377 0.0
C407 C 0.09369 0.9149 0.74022 0.0
C408 C 0.11043 0.92485 0.7318 0.0
C409 C 0.11823 0.82051 0.69771 0.0
C410 C 0.05802 0.86614 0.69284 0.0
C411 C 0.12491 0.84686 0.66762 0.0
C412 C 0.14413 0.8514 0.65897 0.0
C413 C 0.15729 0.88446 0.65385 0.0
C414 C 0.1688 0.88543 0.64503 0.0
C415 C 0.16746 0.85342 0.64112 0.0
C416 C 0.156 0.82105 0.64642 0.0
C417 C 0.14439 0.82006 0.65522 0.0
C418 C 0.14255 0.9439 0.68692 0.0
C419 C 0.21107 0.91247 0.6919 0.0
O420 O 0.15465 0.89442 0.71561 0.0
O421 O 0.12105 0.91961 0.71164 0.0
O422 O 0.13785 0.83793 0.70464 0.0
O423 O 0.10692 0.84097 0.69424 0.0
O424 O 0.08041 0.88359 0.69968 0.0
O425 O 0.06974 0.85388 0.68608 0.0
O426 O 0.11316 0.87061 0.66944 0.0
O427 O 0.13794 0.83818 0.67466 0.0
O428 O 0.12573 0.92581 0.67975 0.0
O429 O 0.15586 0.9258 0.69087 0.0
O430 O 0.18932 0.89253 0.68512 0.0
O431 O 0.1963 0.92013 0.69888 0.0
H432 H 0.1057 0.84168 0.72628 0.0
H433 H 0.07675 0.82427 0.74103 0.0
H434 H 0.09048 0.93577 0.74396 0.0
H435 H 0.12029 0.95323 0.72935 0.0
H436 H 0.1574 0.90912 0.65654 0.0
H437 H 0.17804 0.91105 0.6412 0.0
H438 H 0.15419 0.79573 0.64364 0.0
H439 H 0.13394 0.79409 0.65898 0.0
La440 La 0.15216 0.25494 0.70328 0.0
La441 La 0.16915 0.26542 0.68375 0.0
C442 C 0.12993 0.23225 0.71898 0.0
C443 C 0.14291 0.22365 0.72743 0.0
C444 C 0.17689 0.25005 0.73158 0.0
C445 C 0.1863 0.24271 0.74004 0.0
C446 C 0.16196 0.20884 0.74455 0.0
C447 C 0.12861 0.18204 0.74022 0.0
C448 C 0.11921 0.18942 0.73179 0.0
C449 C 0.22255 0.30809 0.6991 0.0
C450 C 0.17829 0.20295 0.69352 0.0
C451 C 0.19849 0.29106 0.66869 0.0
C452 C 0.1933 0.30464 0.65995 0.0
C453 C 0.15995 0.28401 0.65495 0.0
C454 C 0.15838 0.29342 0.64605 0.0
C455 C 0.19007 0.32367 0.64194 0.0
C456 C 0.22274 0.34533 0.64711 0.0
C457 C 0.22432 0.33584 0.65599 0.0
C458 C 0.10043 0.20952 0.6874 0.0
C459 C 0.13085 0.30869 0.693 0.0
O460 O 0.14624 0.26763 0.71649 0.0
O461 O 0.12349 0.20952 0.71225 0.0
O462 O 0.20421 0.30896 0.70599 0.0
O463 O 0.2028 0.27678 0.69536 0.0
O464 O 0.15966 0.20659 0.70027 0.0
O465 O 0.19139 0.22803 0.68699 0.0
O466 O 0.17638 0.25523 0.67049 0.0
O467 O 0.20519 0.3125 0.67572 0.0
O468 O 0.11927 0.21193 0.68029 0.0
O469 O 0.11795 0.24039 0.69156 0.0
O470 O 0.15173 0.30806 0.6863 0.0
O471 O 0.12238 0.28517 0.6998 0.0
H472 H 0.19578 0.27678 0.72841 0.0
H473 H 0.21206 0.26418 0.74316 0.0
H474 H 0.1095 0.15533 0.74337 0.0
H475 H 0.09286 0.1686 0.72874 0.0
H476 H 0.13553 0.25974 0.65781 0.0
H477 H 0.13253 0.27648 0.64234 0.0
H478 H 0.24784 0.36857 0.64418 0.0
H479 H 0.25051 0.35192 0.65965 0.0
La480 La 0.79549 0.59665 0.51695 0.0
La481 La 0.80255 0.58752 0.53654 0.0
C482 C 0.79126 0.6219 0.50189 0.0
C483 C 0.81023 0.63677 0.49322 0.0
C484 C 0.82429 0.61761 0.48813 0.0
C485 C 0.83559 0.62822 0.47929 0.0
C486 C 0.83311 0.65822 0.47534 0.0
C487 C 0.82068 0.6784 0.48062 0.0
C488 C 0.80932 0.66772 0.48943 0.0
C489 C 0.80854 0.54112 0.52081 0.0
C490 C 0.87736 0.64047 0.52608 0.0
C491 C 0.80254 0.56599 0.55233 0.0
C492 C 0.78101 0.55783 0.56077 0.0
C493 C 0.77241 0.58397 0.56466 0.0
C494 C 0.75554 0.5771 0.57309 0.0
C495 C 0.74688 0.54396 0.57783 0.0
C496 C 0.7545 0.51739 0.57376 0.0
C497 C 0.77141 0.52431 0.56536 0.0
C498 C 0.78466 0.64001 0.53206 0.0
C499 C 0.7243 0.53443 0.52688 0.0
O500 O 0.77927 0.58628 0.50361 0.0
O501 O 0.80463 0.64324 0.50898 0.0
O502 O 0.79189 0.54305 0.51367 0.0
O503 O 0.82194 0.57218 0.52491 0.0
O504 O 0.85567 0.63926 0.51934 0.0
O505 O 0.86248 0.61763 0.53299 0.0
O506 O 0.82134 0.60121 0.54971 0.0
O507 O 0.78629 0.54277 0.54569 0.0
O508 O 0.80422 0.64165 0.53896 0.0
O509 O 0.77328 0.60839 0.5285 0.0
O510 O 0.74672 0.53881 0.53368 0.0
O511 O 0.73602 0.55888 0.52022 0.0
H512 H 0.82529 0.59356 0.49085 0.0
H513 H 0.8456 0.61241 0.4755 0.0
H514 H 0.81795 0.70136 0.47781 0.0
H515 H 0.79816 0.68267 0.49317 0.0
H516 H 0.77951 0.61015 0.56129 0.0
H517 H 0.75041 0.59838 0.576 0.0
H518 H 0.7476 0.49121 0.5771 0.0
H519 H 0.77774 0.5037 0.56252 0.0
La520 La 0.44545 0.20673 0.51702 0.0
La521 La 0.45298 0.2217 0.53656 0.0
C522 C 0.42222 0.17893 0.50172 0.0
C523 C 0.41111 0.18581 0.4928 0.0
C524 C 0.4383 0.20121 0.48599 0.0
C525 C 0.42765 0.20241 0.47722 0.0
C526 C 0.38941 0.18814 0.47495 0.0
C527 C 0.36227 0.1738 0.48181 0.0
C528 C 0.37297 0.17248 0.49062 0.0
C529 C 0.50074 0.27515 0.52109 0.0
C530 C 0.40095 0.24431 0.52597 0.0
C531 C 0.47264 0.24181 0.55251 0.0
C532 C 0.47881 0.22714 0.56103 0.0
C533 C 0.45127 0.21496 0.56775 0.0
C534 C 0.45794 0.20443 0.57611 0.0
C535 C 0.49251 0.20608 0.57803 0.0
C536 C 0.51984 0.21763 0.57124 0.0
C537 C 0.51313 0.22813 0.56285 0.0
C538 C 0.4006 0.15157 0.53183 0.0
C539 C 0.50695 0.19732 0.52719 0.0
O540 O 0.45782 0.19965 0.50393 0.0
O541 O 0.39963 0.17237 0.50851 0.0
O542 O 0.49918 0.2569 0.51394 0.0
O543 O 0.46942 0.25735 0.52507 0.0
O544 O 0.40239 0.22395 0.51925 0.0
O545 O 0.42356 0.25207 0.53293 0.0
O546 O 0.43783 0.22656 0.54963 0.0
O547 O 0.49654 0.24876 0.54601 0.0
O548 O 0.39847 0.16927 0.5387 0.0
O549 O 0.43255 0.17184 0.52843 0.0
O550 O 0.50231 0.21539 0.53391 0.0
O551 O 0.48256 0.18441 0.52051 0.0
H552 H 0.46785 0.21102 0.48736 0.0
H553 H 0.44938 0.21303 0.47215 0.0
H554 H 0.33261 0.16298 0.48037 0.0
H555 H 0.35121 0.15997 0.49566 0.0
H556 H 0.42468 0.21422 0.56661 0.0
H557 H 0.43597 0.19515 0.5811 0.0
H558 H 0.54698 0.21973 0.57248 0.0
H559 H 0.5352 0.23783 0.55788 0.0
La560 La 0.83503 0.24578 0.51665 0.0
La561 La 0.8188 0.23864 0.53613 0.0
C562 C 0.8644 0.24987 0.50159 0.0
C563 C 0.85949 0.23075 0.49292 0.0
C564 C 0.82643 0.21817 0.48781 0.0
C565 C 0.82517 0.20667 0.47898 0.0
C566 C 0.85688 0.20743 0.47505 0.0
C567 C 0.88923 0.21831 0.48033 0.0
C568 C 0.89051 0.22992 0.48914 0.0
C569 C 0.7665 0.2332 0.5204 0.0
C570 C 0.7963 0.16383 0.52567 0.0
C571 C 0.79788 0.23819 0.552 0.0
C572 C 0.8127 0.25783 0.56063 0.0
C573 C 0.82088 0.23951 0.56746 0.0
C574 C 0.8316 0.25579 0.57591 0.0
C575 C 0.83416 0.29075 0.57779 0.0
C576 C 0.82664 0.30945 0.5709 0.0
C577 C 0.81593 0.29315 0.56243 0.0
C578 C 0.88926 0.25617 0.53174 0.0
C579 C 0.84357 0.31673 0.52657 0.0
O580 O 0.84153 0.26276 0.50336 0.0
O581 O 0.87189 0.23589 0.50864 0.0
O582 O 0.78529 0.24984 0.5133 0.0
O583 O 0.78388 0.21951 0.52452 0.0
O584 O 0.81717 0.18545 0.51898 0.0
O585 O 0.78818 0.17889 0.53251 0.0
O586 O 0.81151 0.21721 0.54911 0.0
O587 O 0.79298 0.25676 0.54553 0.0
O588 O 0.871 0.23641 0.53857 0.0
O589 O 0.86927 0.26789 0.52818 0.0
O590 O 0.82507 0.2941 0.53328 0.0
O591 O 0.85683 0.30521 0.51998 0.0
H592 H 0.80202 0.21851 0.49052 0.0
H593 H 0.79958 0.19789 0.47516 0.0
H594 H 0.91432 0.21965 0.47753 0.0
H595 H 0.91647 0.23989 0.49289 0.0
H596 H 0.81834 0.21213 0.56633 0.0
H597 H 0.83773 0.24079 0.58098 0.0
H598 H 0.82788 0.33619 0.57211 0.0
H599 H 0.80943 0.30788 0.55736 0.0
La600 La 0.93997 0.46032 0.70041 0.0
La601 La 0.93185 0.46209 0.68099 0.0
C602 C 0.9611 0.46619 0.71631 0.0
C603 C 0.97273 0.47088 0.72577 0.0
C604 C 0.96415 0.49305 0.7314 0.0
C605 C 0.97411 0.49727 0.74038 0.0
C606 C 0.99299 0.47947 0.74401 0.0
C607 C 1.00167 0.45728 0.73837 0.0
C608 C 0.99169 0.45308 0.72934 0.0
C609 C 0.88185 0.46758 0.69548 0.0
C610 C 0.98536 0.53769 0.69024 0.0
C611 C 0.91157 0.45891 0.66494 0.0
C612 C 0.90599 0.43743 0.65655 0.0
C613 C 0.93507 0.45061 0.65018 0.0
C614 C 0.92874 0.43347 0.64182 0.0
C615 C 0.89306 0.40283 0.63956 0.0
C616 C 0.86422 0.38901 0.64601 0.0
C617 C 0.87056 0.4062 0.65439 0.0
C618 C 0.98643 0.44818 0.6862 0.0
C619 C 0.87821 0.38571 0.69166 0.0
O620 O 0.94255 0.482 0.71312 0.0
O621 O 0.96837 0.44691 0.71044 0.0
O622 O 0.8826 0.4489 0.70234 0.0
O623 O 0.91402 0.48353 0.69179 0.0
O624 O 0.98735 0.51608 0.69652 0.0
O625 O 0.95916 0.52224 0.68402 0.0
O626 O 0.94628 0.47988 0.66777 0.0
O627 O 0.88797 0.44215 0.6715 0.0
O628 O 0.98752 0.46662 0.67914 0.0
O629 O 0.95443 0.43606 0.68965 0.0
O630 O 0.88494 0.40534 0.6842 0.0
O631 O 0.89948 0.40039 0.69883 0.0
H632 H 0.9494 0.50703 0.72889 0.0
H633 H 0.96635 0.51401 0.74452 0.0
H634 H 1.01649 0.44343 0.74092 0.0
H635 H 0.99869 0.43583 0.72517 0.0
H636 H 0.96259 0.47486 0.65157 0.0
H637 H 0.9518 0.44455 0.63709 0.0
H638 H 0.83626 0.36577 0.64449 0.0
H639 H 0.84733 0.39566 0.65907 0.0
La640 La 0.58799 0.49514 0.70064 0.0
La641 La 0.58019 0.47991 0.681 0.0
C642 C 0.59256 0.52362 0.71585 0.0
C643 C 0.57398 0.51871 0.72462 0.0
C644 C 0.56124 0.48548 0.72965 0.0
C645 C 0.55041 0.48414 0.73855 0.0
C646 C 0.55203 0.51598 0.74263 0.0
C647 C 0.56309 0.54855 0.73744 0.0
C648 C 0.57401 0.54989 0.72856 0.0
C649 C 0.57491 0.42683 0.69652 0.0
C650 C 0.50576 0.45761 0.69165 0.0
C651 C 0.57989 0.45894 0.66515 0.0
C652 C 0.60231 0.47185 0.65683 0.0
C653 C 0.61361 0.50752 0.65308 0.0
C654 C 0.63173 0.51745 0.64479 0.0
C655 C 0.6391 0.49202 0.64007 0.0
C656 C 0.62847 0.4567 0.64395 0.0
C657 C 0.61025 0.44676 0.65221 0.0
C658 C 0.59795 0.54992 0.68575 0.0
C659 C 0.65902 0.50509 0.69037 0.0
O660 O 0.60503 0.50056 0.71392 0.0
O661 O 0.57856 0.53169 0.70889 0.0
O662 O 0.59184 0.44508 0.70366 0.0
O663 O 0.56129 0.44465 0.69256 0.0
O664 O 0.52761 0.47746 0.69842 0.0
O665 O 0.52042 0.45026 0.6846 0.0
O666 O 0.56278 0.47711 0.66776 0.0
O667 O 0.59451 0.45003 0.67182 0.0
O668 O 0.57802 0.53226 0.67887 0.0
O669 O 0.60964 0.52962 0.68915 0.0
O670 O 0.63646 0.4877 0.68356 0.0
O671 O 0.64742 0.51698 0.69722 0.0
H672 H 0.56094 0.46094 0.72681 0.0
H673 H 0.54145 0.45836 0.74228 0.0
H674 H 0.5651 0.57375 0.74034 0.0
H675 H 0.58415 0.57601 0.72487 0.0
H676 H 0.60796 0.52755 0.65649 0.0
H677 H 0.63995 0.54506 0.64207 0.0
H678 H 0.63318 0.43617 0.64049 0.0
H679 H 0.60156 0.41899 0.65491 0.0
La680 La 0.54928 0.10651 0.70091 0.0
La681 La 0.56557 0.11454 0.68146 0.0
C682 C 0.52091 0.08246 0.71611 0.0
C683 C 0.52803 0.07095 0.72493 0.0
C684 C 0.55665 0.09717 0.73058 0.0
C685 C 0.55861 0.08806 0.73946 0.0
C686 C 0.53212 0.0525 0.74292 0.0
C687 C 0.5047 0.02564 0.73715 0.0
C688 C 0.50258 0.03486 0.72827 0.0
C689 C 0.61793 0.16214 0.6971 0.0
C690 C 0.58749 0.06235 0.69213 0.0
C691 C 0.58648 0.13449 0.66556 0.0
C692 C 0.57179 0.14005 0.65699 0.0
C693 C 0.56276 0.11362 0.65011 0.0
C694 C 0.5519 0.1197 0.64172 0.0
C695 C 0.55007 0.1526 0.63995 0.0
C696 C 0.55852 0.17881 0.64689 0.0
C697 C 0.56934 0.17267 0.6553 0.0
C698 C 0.49515 0.06176 0.68591 0.0
C699 C 0.53984 0.16772 0.6907 0.0
O700 O 0.54128 0.11817 0.71398 0.0
O701 O 0.51472 0.0602 0.70927 0.0
O702 O 0.59901 0.16039 0.70414 0.0
O703 O 0.60058 0.13088 0.69308 0.0
O704 O 0.56646 0.06349 0.69872 0.0
O705 O 0.59598 0.08531 0.68523 0.0
O706 O 0.57177 0.09977 0.66845 0.0
O707 O 0.59254 0.15823 0.67205 0.0
O708 O 0.51344 0.05995 0.67912 0.0
O709 O 0.51503 0.09364 0.68937 0.0
O710 O 0.55877 0.16363 0.68408 0.0
O711 O 0.52645 0.14302 0.6973 0.0
H712 H 0.57674 0.1253 0.72826 0.0
H713 H 0.58043 0.10921 0.74369 0.0
H714 H 0.48368 0.99809 0.7396 0.0
H715 H 0.47995 1.01426 0.72412 0.0
H716 H 0.56468 0.08837 0.65116 0.0
H717 H 0.54505 0.09857 0.63662 0.0
H718 H 0.55788 0.20468 0.64576 0.0
H719 H 0.57649 0.19387 0.6604 0.0
La720 La 0.5815 0.11142 0.181 0.0
La721 La 0.58326 0.10397 0.20051 0.0
C722 C 0.58465 0.13219 0.16502 0.0
C723 C 0.60744 0.14101 0.15676 0.0
C724 C 0.61125 0.11315 0.15213 0.0
C725 C 0.62841 0.1209 0.14373 0.0
C726 C 0.642 0.1566 0.13975 0.0
C727 C 0.63937 0.18478 0.14456 0.0
C728 C 0.62221 0.17702 0.15294 0.0
C729 C 0.59622 0.05769 0.18636 0.0
C730 C 0.65786 0.16572 0.19169 0.0
C731 C 0.57763 0.08323 0.21642 0.0
C732 C 0.57311 0.07184 0.2259 0.0
C733 C 0.55143 0.08098 0.23154 0.0
C734 C 0.5471 0.07095 0.24052 0.0
C735 C 0.56433 0.05146 0.24411 0.0
C736 C 0.5861 0.0423 0.23846 0.0
C737 C 0.59038 0.05233 0.22943 0.0
C738 C 0.57511 0.16124 0.19533 0.0
C739 C 0.50569 0.05766 0.1903 0.0
O740 O 0.56625 0.09698 0.16766 0.0
O741 O 0.59906 0.15571 0.17169 0.0
O742 O 0.57778 0.05614 0.17925 0.0
O743 O 0.60789 0.08965 0.1898 0.0
O744 O 0.63838 0.15832 0.18418 0.0
O745 O 0.64314 0.14493 0.19892 0.0
O746 O 0.56249 0.10245 0.21327 0.0
O747 O 0.5962 0.07518 0.21051 0.0
O748 O 0.59389 0.16118 0.20225 0.0
O749 O 0.55955 0.12886 0.19177 0.0
O750 O 0.52728 0.05646 0.19671 0.0
O751 O 0.52113 0.08309 0.18392 0.0
H752 H 0.59997 0.08499 0.15486 0.0
H753 H 0.62963 0.09839 0.14022 0.0
H754 H 0.65013 0.21281 0.1418 0.0
H755 H 0.61951 0.19897 0.15632 0.0
H756 H 0.53783 0.09614 0.22905 0.0
H757 H 0.5307 0.07909 0.24468 0.0
H758 H 0.59951 0.02702 0.24098 0.0
H759 H 0.60724 0.04489 0.22524 0.0
La760 La 0.92865 0.47944 0.18119 0.0
La761 La 0.93703 0.4949 0.20074 0.0
C762 C 0.90764 0.45838 0.16535 0.0
C763 C 0.89945 0.4716 0.15688 0.0
C764 C 0.92605 0.50571 0.15282 0.0
C765 C 0.91917 0.51533 0.14434 0.0
C766 C 0.88558 0.49108 0.13972 0.0
C767 C 0.85856 0.45759 0.14395 0.0
C768 C 0.86548 0.44798 0.1524 0.0
C769 C 0.98119 0.54968 0.18577 0.0
C770 C 0.87531 0.50454 0.1907 0.0
C771 C 0.96168 0.52336 0.21592 0.0
C772 C 0.97621 0.51855 0.22458 0.0
C773 C 0.95613 0.48545 0.22968 0.0
C774 C 0.96658 0.48424 0.2385 0.0
C775 C 0.99735 0.51607 0.24245 0.0
C776 C 1.01841 0.5485 0.23718 0.0
C777 C 1.00788 0.54972 0.22837 0.0
C778 C 0.88116 0.42662 0.19674 0.0
C779 C 0.98088 0.45674 0.19168 0.0
O780 O 0.94282 0.47501 0.16802 0.0
O781 O 0.88418 0.45105 0.17196 0.0
O782 O 0.98302 0.53179 0.1789 0.0
O783 O 0.94945 0.5295 0.18929 0.0
O784 O 0.87999 0.4868 0.18391 0.0
O785 O 0.8994 0.51686 0.19745 0.0
O786 O 0.92611 0.49992 0.21409 0.0
O787 O 0.9833 0.53184 0.20887 0.0
O788 O 0.88285 0.44535 0.20382 0.0
O789 O 0.91256 0.4441 0.19276 0.0
O790 O 0.97949 0.47696 0.19844 0.0
O791 O 0.95838 0.44927 0.18472 0.0
H792 H 0.95261 0.52453 0.15609 0.0
H793 H 0.94079 0.54119 0.1413 0.0
H794 H 0.83205 0.43853 0.1407 0.0
H795 H 0.84453 0.42152 0.15536 0.0
H796 H 0.93152 0.46092 0.22696 0.0
H797 H 0.95007 0.45857 0.2423 0.0
H798 H 0.042 0.5737 0.23998 0.0
H799 H 1.02355 0.57574 0.22464 0.0
La800 La 0.56262 0.46183 0.18123 0.0
La801 La 0.54681 0.45453 0.20083 0.0
C802 C 0.58395 0.46176 0.16542 0.0
C803 C 0.571 0.4398 0.15702 0.0
C804 C 0.53654 0.4312 0.15295 0.0
C805 C 0.52702 0.41398 0.14455 0.0
C806 C 0.55172 0.405 0.14001 0.0
C807 C 0.58561 0.41264 0.14426 0.0
C808 C 0.59512 0.42988 0.15263 0.0
C809 C 0.49242 0.44427 0.18578 0.0
C810 C 0.53684 0.38325 0.1907 0.0
C811 C 0.51808 0.45037 0.21599 0.0
C812 C 0.52307 0.46905 0.22474 0.0
C813 C 0.55624 0.48151 0.2298 0.0
C814 C 0.55757 0.4924 0.23869 0.0
C815 C 0.52582 0.49112 0.24274 0.0
C816 C 0.49335 0.48036 0.23752 0.0
C817 C 0.492 0.46938 0.22864 0.0
C818 C 0.61518 0.46706 0.19687 0.0
C819 C 0.58508 0.53654 0.19175 0.0
O820 O 0.56662 0.47975 0.168 0.0
O821 O 0.59187 0.4464 0.17211 0.0
O822 O 0.51026 0.46389 0.17889 0.0
O823 O 0.5126 0.43272 0.18931 0.0
O824 O 0.55481 0.4057 0.18393 0.0
O825 O 0.52456 0.39503 0.19745 0.0
O826 O 0.54086 0.43749 0.21411 0.0
O827 O 0.51042 0.46456 0.20899 0.0
O828 O 0.59653 0.45021 0.20398 0.0
O829 O 0.5976 0.48083 0.19286 0.0
O830 O 0.56481 0.51489 0.19851 0.0
O831 O 0.59261 0.52162 0.18478 0.0
H832 H 0.51732 0.43856 0.15615 0.0
H833 H 0.50083 0.40886 0.14149 0.0
H834 H 0.60504 0.4055 0.14108 0.0
H835 H 0.62186 0.43622 0.15561 0.0
H836 H 0.58069 0.48153 0.22699 0.0
H837 H 0.58329 0.50112 0.24245 0.0
H838 H 0.46821 0.47863 0.2404 0.0
H839 H 0.46594 0.45946 0.22493 0.0
La840 La 0.45358 0.23613 0.03702 0.0
La841 La 0.44548 0.24428 1.01746 0.0
C842 C 0.4748 0.23597 0.05285 0.0
C843 C 0.48376 0.2583 0.06118 0.0
C844 C 0.45925 0.2698 0.06475 0.0
C845 C 0.46694 0.28799 0.07303 0.0
C846 C 0.49938 0.29524 0.07792 0.0
C847 C 0.52421 0.28439 0.0742 0.0
C848 C 0.51642 0.2661 0.06596 0.0
C849 C 0.4011 0.25401 0.03251 0.0
C850 C 0.50665 0.31509 0.0277 0.0
C851 C 0.42196 0.24914 1.0022 0.0
C852 C 0.41048 0.23157 0.99323 0.0
C853 C 0.43765 0.24247 0.98643 0.0
C854 C 0.42678 0.23137 0.97762 0.0
C855 C 0.38836 0.20906 0.9753 0.0
C856 C 0.36121 0.19707 0.98216 0.0
C857 C 0.37212 0.20834 0.991 0.0
C858 C 0.50092 0.23105 1.0214 0.0
C859 C 0.40084 0.16192 0.02637 0.0
O860 O 0.43951 0.21812 0.05024 0.0
O861 O 0.49813 0.25114 0.04617 0.0
O862 O 0.39923 0.23413 0.03936 0.0
O863 O 0.43286 0.2657 0.02901 0.0
O864 O 0.50229 0.29227 0.03438 0.0
O865 O 0.48223 0.30362 1.02102 0.0
O866 O 0.45759 0.26372 1.00437 0.0
O867 O 0.3995 0.23312 1.00901 0.0
O868 O 0.49934 0.24825 1.01433 0.0
O869 O 0.46955 0.2173 1.02537 0.0
O870 O 0.40268 0.18405 1.01968 0.0
O871 O 0.42313 0.17628 0.03341 0.0
H872 H 0.43385 0.26428 0.06121 0.0
H873 H 0.44745 0.29637 0.07561 0.0
H874 H 0.54919 0.28902 0.07779 0.0
H875 H 0.53562 0.25728 0.06339 0.0
H876 H 0.46741 0.261 0.98784 0.0
H877 H 0.44859 0.24183 0.97258 0.0
H878 H 0.33139 0.17945 0.98069 0.0
H879 H 0.35039 0.19984 0.99602 0.0
La880 La 0.80401 0.22252 0.03638 0.0
La881 La 0.79589 0.20661 1.01686 0.0
C882 C 0.80503 0.24446 0.05216 0.0
C883 C 0.78341 0.2315 0.06056 0.0
C884 C 0.76824 0.19417 0.06363 0.0
C885 C 0.75067 0.18369 0.07198 0.0
C886 C 0.74775 0.21026 0.0774 0.0
C887 C 0.76228 0.24735 0.07417 0.0
C888 C 0.77992 0.2578 0.06587 0.0
C889 C 0.78666 0.15233 0.03189 0.0
C890 C 0.7248 0.19602 0.02717 0.0
C891 C 0.79116 0.17876 1.00155 0.0
C892 C 0.80891 0.18551 0.9926 0.0
C893 C 0.79698 0.20086 0.9858 0.0
C894 C 0.80856 0.20189 0.97701 0.0
C895 C 0.83237 0.18748 0.97471 0.0
C896 C 0.8453 0.17318 0.98157 0.0
C897 C 0.83357 0.17204 0.99039 0.0
C898 C 0.80872 0.27509 1.02086 0.0
C899 C 0.87822 0.24444 0.02574 0.0
O900 O 0.82274 0.22692 0.04954 0.0
O901 O 0.78913 0.25204 0.04553 0.0
O902 O 0.80664 0.17057 0.03871 0.0
O903 O 0.77463 0.17216 0.02837 0.0
O904 O 0.74761 0.21444 0.03386 0.0
O905 O 0.73643 0.18356 1.02043 0.0
O906 O 0.77623 0.19942 1.00377 0.0
O907 O 0.80736 0.17231 1.00833 0.0
O908 O 0.79155 0.25644 1.01378 0.0
O909 O 0.82264 0.25751 1.02478 0.0
O910 O 0.85624 0.22397 1.01905 0.0
O911 O 0.86362 0.25242 0.0327 0.0
H912 H 0.77044 0.17325 0.05965 0.0
H913 H 0.73938 0.15477 0.07418 0.0
H914 H 0.76104 0.26872 0.07818 0.0
H915 H 0.79161 0.28679 0.06366 0.0
H916 H 0.77735 0.21079 0.98719 0.0
H917 H 0.79735 0.2125 0.97195 0.0
H918 H 0.86405 0.16227 0.98011 0.0
H919 H 0.84291 0.15955 0.99543 0.0
La920 La 0.81909 0.58776 0.03597 0.0
La921 La 0.83283 0.59535 1.01634 0.0
C922 C 0.79923 0.56726 0.05189 0.0
C923 C 0.81257 0.55829 0.06023 0.0
C924 C 0.84833 0.58299 0.0639 0.0
C925 C 0.85853 0.57538 0.07224 0.0
C926 C 0.83328 0.54288 0.07708 0.0
C927 C 0.79789 0.51788 0.07326 0.0
C928 C 0.78769 0.52555 0.06496 0.0
C929 C 0.88883 0.64026 0.03102 0.0
C930 C 0.84386 0.53443 0.02634 0.0
C931 C 0.85982 0.61903 1.00101 0.0
C932 C 0.85292 0.63081 0.99218 0.0
C933 C 0.8246 0.60466 0.98646 0.0
C934 C 0.8232 0.61381 0.97755 0.0
C935 C 0.84997 0.64933 0.97413 0.0
C936 C 0.87703 0.67616 0.97997 0.0
C937 C 0.8786 0.66691 0.98888 0.0
C938 C 0.76481 0.53976 1.02063 0.0
C939 C 0.79551 0.63964 0.0256 0.0
O940 O 0.8168 0.60244 0.04922 0.0
O941 O 0.7905 0.54366 0.04525 0.0
O942 O 0.87156 0.64237 0.03799 0.0
O943 O 0.86841 0.60834 0.02762 0.0
O944 O 0.82648 0.53913 0.03321 0.0
O945 O 0.8557 0.55848 1.0196 0.0
O946 O 0.83895 0.5834 1.00316 0.0
O947 O 0.86694 0.64145 1.00786 0.0
O948 O 0.78274 0.5414 1.01341 0.0
O949 O 0.78274 0.5712 1.02456 0.0
O950 O 0.81518 0.63796 1.01875 0.0
O951 O 0.78867 0.61748 0.03261 0.0
H952 H 0.86819 0.60848 0.06041 0.0
H953 H 0.8862 0.59502 0.0749 0.0
H954 H 0.77747 0.49286 0.07681 0.0
H955 H 0.75984 0.50625 0.06232 0.0
H956 H 0.80438 0.57651 0.98875 0.0
H957 H 0.80162 0.59267 0.97328 0.0
H958 H 0.89827 0.70368 0.97755 0.0
H959 H 0.90105 0.68744 0.99308 0.0
La960 La 0.46213 0.92848 0.84997 0.0
La961 La 0.47013 0.92103 0.86945 0.0
C962 C 0.45742 0.95187 0.8347 0.0
C963 C 0.47553 0.96328 0.8258 0.0
C964 C 0.46354 0.93641 0.81892 0.0
C965 C 0.47564 0.94735 0.81018 0.0
C966 C 0.50004 0.98558 0.80803 0.0
C967 C 0.51299 1.01239 0.81496 0.0
C968 C 0.50075 1.0014 0.82373 0.0
C969 C 0.47548 0.87322 0.85394 0.0
C970 C 0.54455 0.97309 0.85887 0.0
C971 C 0.47031 0.90083 0.88535 0.0
C972 C 0.44778 0.89241 0.89367 0.0
C973 C 0.45516 0.92129 0.8998 0.0
C974 C 0.43662 0.91288 0.90802 0.0
C975 C 0.4104 0.87532 0.91036 0.0
C976 C 0.40255 0.84651 0.90415 0.0
C977 C 0.42106 0.85493 0.89592 0.0
C978 C 0.45225 0.97343 0.86479 0.0
C979 C 0.3913 0.86723 0.8602 0.0
O980 O 0.44284 0.91628 0.83686 0.0
O981 O 0.47318 0.97433 0.84153 0.0
O982 O 0.4583 0.8747 0.84686 0.0
O983 O 0.4892 0.90456 0.85792 0.0
O984 O 0.52257 0.97139 0.85215 0.0
O985 O 0.52988 0.95074 0.86586 0.0
O986 O 0.48831 0.93594 0.88264 0.0
O987 O 0.45547 0.87719 0.87872 0.0
O988 O 0.47262 0.97573 0.87158 0.0
O989 O 0.44032 0.94142 0.8614 0.0
O990 O 0.41413 0.87216 0.86693 0.0
O991 O 0.4027 0.89116 0.85344 0.0
H992 H 0.4435 0.9069 0.82021 0.0
H993 H 0.46439 0.92589 0.80506 0.0
H994 H 0.53216 0.04203 0.8136 0.0
H995 H 0.51017 0.02292 0.82884 0.0
H996 H 0.47599 0.95041 0.89836 0.0
H997 H 0.44383 0.93576 0.91266 0.0
H998 H 0.3822 0.81733 0.90567 0.0
H999 H 0.41495 0.83193 0.8914 0.0
La1000 La 0.11294 0.53806 0.85132 0.0
La1001 La 0.12212 0.5556 0.87079 0.0
C1002 C 0.0873 0.50621 0.83652 0.0
C1003 C 0.07171 0.50806 0.82777 0.0
C1004 C 0.09154 0.53899 0.82202 0.0
C1005 C 0.0803 0.53683 0.81313 0.0
C1006 C 0.04905 0.50367 0.8098 0.0
C1007 C 0.0281 0.47362 0.81572 0.0
C1008 C 0.03939 0.47578 0.82459 0.0
C1009 C 0.16816 0.60707 0.85484 0.0
C1010 C 0.06887 0.57662 0.86009 0.0
C1011 C 0.14348 0.57799 0.88654 0.0
C1012 C 0.152 0.56505 0.895 0.0
C1013 C 0.12463 0.53247 0.89945 0.0
C1014 C 0.13222 0.52314 0.90788 0.0
C1015 C 0.16731 0.54616 0.91207 0.0
C1016 C 0.19497 0.57808 0.90746 0.0
C1017 C 0.18734 0.58743 0.89906 0.0
C1018 C 0.07039 0.48465 0.86652 0.0
C1019 C 0.1763 0.53126 0.8614 0.0
O1020 O 0.12289 0.53066 0.83807 0.0
O1021 O 0.06618 0.49904 0.84363 0.0
O1022 O 0.16611 0.58789 0.8478 0.0
O1023 O 0.13724 0.58964 0.85902 0.0
O1024 O 0.07032 0.55597 0.85343 0.0
O1025 O 0.0915 0.58475 0.86706 0.0
O1026 O 0.10822 0.56113 0.88391 0.0
O1027 O 0.16678 0.5851 0.8799 0.0
O1028 O 0.06821 0.50273 0.87331 0.0
O1029 O 0.10197 0.50511 0.86298 0.0
O1030 O 0.1715 0.54931 0.86811 0.0
O1031 O 0.15183 0.51783 0.85474 0.0
H1032 H 0.11674 0.56422 0.82426 0.0
H1033 H 0.09729 0.56046 0.80878 0.0
H1034 H 1.00345 0.44795 0.81345 0.0
H1035 H 1.02375 0.45146 0.82886 0.0
H1036 H 0.09702 0.51463 0.89652 0.0
H1037 H 0.11008 0.49854 0.91122 0.0
H1038 H 0.22257 0.59611 0.91037 0.0
H1039 H 0.20892 0.61272 0.89579 0.0
La1040 La 0.50431 0.58007 0.85046 0.0
La1041 La 0.48866 0.57307 0.87005 0.0
C1042 C 0.53305 0.58406 0.83531 0.0
C1043 C 0.528 0.56532 0.82656 0.0
C1044 C 0.49474 0.55268 0.82153 0.0
C1045 C 0.49333 0.54177 0.81263 0.0
C1046 C 0.5251 0.54321 0.80855 0.0
C1047 C 0.55768 0.55415 0.81375 0.0
C1048 C 0.55911 0.56515 0.82263 0.0
C1049 C 0.43593 0.56742 0.8544 0.0
C1050 C 0.46614 0.49816 0.85958 0.0
C1051 C 0.46734 0.5731 0.88587 0.0
C1052 C 0.47983 0.59479 0.89431 0.0
C1053 C 0.51403 0.60321 0.8985 0.0
C1054 C 0.5229 0.61985 0.90697 0.0
C1055 C 0.49777 0.62839 0.91146 0.0
C1056 C 0.46421 0.62103 0.90709 0.0
C1057 C 0.45536 0.60438 0.89865 0.0
C1058 C 0.55882 0.59043 0.86548 0.0
C1059 C 0.51395 0.65143 0.86047 0.0
O1060 O 0.51034 0.59704 0.83717 0.0
O1061 O 0.54064 0.56987 0.84231 0.0
O1062 O 0.45441 0.58399 0.84725 0.0
O1063 O 0.45356 0.55384 0.85846 0.0
O1064 O 0.48638 0.51975 0.85281 0.0
O1065 O 0.45863 0.51317 0.86654 0.0
O1066 O 0.48491 0.55534 0.88329 0.0
O1067 O 0.4594 0.58845 0.87918 0.0
O1068 O 0.54088 0.57076 0.87236 0.0
O1069 O 0.5387 0.60213 0.86197 0.0
O1070 O 0.49626 0.62912 0.86729 0.0
O1071 O 0.52624 0.63959 0.85375 0.0
H1072 H 0.47026 0.55254 0.82436 0.0
H1073 H 0.46753 0.53291 0.8089 0.0
H1074 H 0.58284 0.55601 0.81085 0.0
H1075 H 0.58524 0.57522 0.82631 0.0
H1076 H 0.53349 0.59607 0.89534 0.0
H1077 H 0.54886 0.6248 0.91011 0.0
H1078 H 0.44448 0.62784 0.91023 0.0
H1079 H 0.4288 0.59815 0.89559 0.0
La1080 La 0.60439 0.78702 0.03434 0.0
La1081 La 0.59443 0.79351 1.01486 0.0
C1082 C 0.62985 0.78281 0.04938 0.0
C1083 C 0.64563 0.80105 0.05807 0.0
C1084 C 0.62804 0.81637 0.06332 0.0
C1085 C 0.63883 0.82623 0.07222 0.0
C1086 C 0.6672 0.82071 0.07607 0.0
C1087 C 0.68609 0.80737 0.07063 0.0
C1088 C 0.67539 0.79765 0.06175 0.0
C1089 C 0.54831 0.79962 0.03062 0.0
C1090 C 0.64782 0.86859 1.02515 0.0
C1091 C 0.57243 0.79298 0.99907 0.0
C1092 C 0.56419 0.77111 0.99069 0.0
C1093 C 0.58921 0.76015 0.98717 0.0
C1094 C 0.58234 0.74263 0.97882 0.0
C1095 C 0.55024 0.73553 0.97381 0.0
C1096 C 0.52487 0.74577 0.97747 0.0
C1097 C 0.53183 0.76339 0.98579 0.0
C1098 C 0.64743 0.77596 1.01917 0.0
C1099 C 0.54188 0.71546 1.02459 0.0
O1100 O 0.59441 0.77209 0.04776 0.0
O1101 O 0.65098 0.79539 0.04224 0.0
O1102 O 0.5505 0.78268 0.03767 0.0
O1103 O 0.57931 0.81329 0.02647 0.0
O1104 O 0.64699 0.84709 0.03188 0.0
O1105 O 0.62456 0.85352 1.0183 0.0
O1106 O 0.60773 0.81189 1.00165 0.0
O1107 O 0.54939 0.77693 1.00576 0.0
O1108 O 0.64874 0.79569 1.01235 0.0
O1109 O 0.61588 0.76439 1.0228 0.0
O1110 O 0.54588 0.73766 1.01779 0.0
O1111 O 0.56663 0.72745 0.0312 0.0
H1112 H 0.60481 0.81912 0.06069 0.0
H1113 H 0.62355 0.83628 0.07621 0.0
H1114 H 0.70853 0.80341 0.07331 0.0
H1115 H 0.68927 0.78571 0.05787 0.0
H1116 H 0.6144 0.76565 0.99081 0.0
H1117 H 0.60223 0.73469 0.97628 0.0
H1118 H 0.50013 0.74124 0.97379 0.0
H1119 H 0.51227 0.77181 0.98832 0.0
La1120 La 0.24991 0.82118 0.03352 0.0
La1121 La 0.24682 0.8074 1.01304 0.0
C1122 C 0.24404 0.8372 0.04928 0.0
C1123 C 0.23909 0.84453 0.05869 0.0
C1124 C 0.21367 0.81449 0.06412 0.0
C1125 C 0.20938 0.82039 0.07308 0.0
C1126 C 0.23035 0.85653 0.07689 0.0
C1127 C 0.25572 0.88673 0.07145 0.0
C1128 C 0.26001 0.88079 0.06244 0.0
C1129 C 0.2445 0.75661 0.02852 0.0
C1130 C 0.1719 0.78951 1.02308 0.0
C1131 C 0.24375 0.7808 0.99776 0.0
C1132 C 0.26327 0.79367 0.98904 0.0
C1133 C 0.24921 0.80795 0.98247 0.0
C1134 C 0.2661 0.8179 0.97406 0.0
C1135 C 0.29733 0.81355 0.97197 0.0
C1136 C 0.31156 0.79953 0.97857 0.0
C1137 C 0.29471 0.78964 0.98699 0.0
C1138 C 0.26904 0.88008 1.01665 0.0
C1139 C 0.32381 0.83482 1.02391 0.0
O1140 O 0.22442 0.80319 0.04591 0.0
O1141 O 0.26722 0.86302 0.04365 0.0
O1142 O 0.2619 0.7755 0.03556 0.0
O1143 O 0.22867 0.77283 1.02478 0.0
O1144 O 0.19315 0.81032 0.02981 0.0
O1145 O 0.18667 0.781 1.01624 0.0
O1146 O 0.22262 0.79498 1.00031 0.0
O1147 O 0.26311 0.77777 1.00438 0.0
O1148 O 0.26496 0.86611 1.00875 0.0
O1149 O 0.26005 0.85291 1.02184 0.0
O1150 O 0.30318 0.81784 1.01676 0.0
O1151 O 0.31003 0.84392 0.03089 0.0
H1152 H 0.19724 0.78612 0.06147 0.0
H1153 H 0.19011 0.79631 0.07706 0.0
H1154 H 0.27207 0.91503 0.07413 0.0
H1155 H 0.27982 0.90449 0.05842 0.0
H1156 H 0.22469 0.8109 0.98376 0.0
H1157 H 0.25398 0.82805 0.96912 0.0
H1158 H 0.33582 0.7962 0.97725 0.0
H1159 H 0.30611 0.77842 0.99185 0.0
La1160 La 0.21508 0.43413 0.03427 0.0
La1161 La 0.23259 0.44278 1.01476 0.0
C1162 C 0.1851 0.40941 0.04931 0.0
C1163 C 0.1897 0.39546 0.05806 0.0
C1164 C 0.22267 0.4159 0.0632 0.0
C1165 C 0.2237 0.40593 0.07207 0.0
C1166 C 0.19183 0.37528 0.07602 0.0
C1167 C 0.15954 0.35386 0.07073 0.0
C1168 C 0.15849 0.36392 0.06187 0.0
C1169 C 0.28398 0.48934 0.03059 0.0
C1170 C 0.25315 0.38961 1.02552 0.0
C1171 C 0.25542 0.46439 0.99905 0.0
C1172 C 0.24266 0.47363 0.99069 0.0
C1173 C 0.20526 0.45195 0.9876 0.0
C1174 C 0.19486 0.45971 0.97932 0.0
C1175 C 0.22156 0.48944 0.97398 0.0
C1176 C 0.25873 0.51152 0.97721 0.0
C1177 C 0.26912 0.50364 0.98546 0.0
C1178 C 0.16196 0.39038 1.01899 0.0
C1179 C 0.20667 0.49604 1.02398 0.0
O1180 O 0.20808 0.44506 0.04749 0.0
O1181 O 0.17781 0.38773 0.04231 0.0
O1182 O 0.26504 0.4877 0.03762 0.0
O1183 O 0.26648 0.45818 0.02653 0.0
O1184 O 0.23241 0.39118 0.03213 0.0
O1185 O 0.26172 0.41232 1.01856 0.0
O1186 O 0.23754 0.42902 1.00159 0.0
O1187 O 0.26302 0.48752 1.00575 0.0
O1188 O 0.18046 0.38859 1.01224 0.0
O1189 O 0.18183 0.42208 1.02256 0.0
O1190 O 0.22492 0.49132 1.0173 0.0
O1191 O 0.1937 0.47194 0.03071 0.0
H1192 H 0.24723 0.44042 0.06046 0.0
H1193 H 0.24927 0.42271 0.07589 0.0
H1194 H 0.13432 0.33034 0.07353 0.0
H1195 H 0.13258 0.34797 0.0581 0.0
H1196 H 0.18421 0.4287 0.99153 0.0
H1197 H 0.16588 0.44245 0.9771 0.0
H1198 H 0.28019 0.53431 0.97326 0.0
H1199 H 0.29816 0.52061 0.98768 0.0
La1200 La 0.24837 0.44588 0.5147 0.0
La1201 La 0.25475 0.43582 0.53424 0.0
C1202 C 0.24914 0.46828 0.49896 0.0
C1203 C 0.27128 0.47691 0.49061 0.0
C1204 C 0.28111 0.45144 0.48685 0.0
C1205 C 0.29902 0.4589 0.47854 0.0
C1206 C 0.30764 0.49206 0.47381 0.0
C1207 C 0.29847 0.51782 0.47771 0.0
C1208 C 0.28046 0.51026 0.48598 0.0
C1209 C 0.26562 0.39278 0.51899 0.0
C1210 C 0.32639 0.49824 0.5245 0.0
C1211 C 0.25831 0.41032 0.54933 0.0
C1212 C 0.23937 0.39651 0.55805 0.0
C1213 C 0.22623 0.41683 0.56301 0.0
C1214 C 0.21515 0.4073 0.57189 0.0
C1215 C 0.2169 0.37722 0.57602 0.0
C1216 C 0.22831 0.35584 0.57089 0.0
C1217 C 0.23948 0.36546 0.56202 0.0
C1218 C 0.24207 0.49175 0.53046 0.0
C1219 C 0.17313 0.39262 0.52496 0.0
O1220 O 0.23023 0.43292 0.50146 0.0
O1221 O 0.26498 0.49112 0.50569 0.0
O1222 O 0.24621 0.39172 0.51212 0.0
O1223 O 0.27723 0.4242 0.52269 0.0
O1224 O 0.30421 0.4943 0.5177 0.0
O1225 O 0.3144 0.47339 0.53108 0.0
O1226 O 0.27167 0.4461 0.54753 0.0
O1227 O 0.24399 0.38887 0.54229 0.0
O1228 O 0.25851 0.48947 0.5376 0.0
O1229 O 0.22866 0.46077 0.52634 0.0
O1230 O 0.19458 0.3934 0.5317 0.0
O1231 O 0.18831 0.41583 0.51812 0.0
H1232 H 0.27448 0.42547 0.49026 0.0
H1233 H 0.3061 0.43867 0.47581 0.0
H1234 H 0.30419 0.54339 0.47424 0.0
H1235 H 0.27292 0.5302 0.4887 0.0
H1236 H 0.22585 0.44098 0.56014 0.0
H1237 H 0.20592 0.42401 0.57558 0.0
H1238 H 0.23042 0.33275 0.57383 0.0
H1239 H 0.24992 0.34962 0.55838 0.0
La1240 La 0.59595 0.80954 0.51493 0.0
La1241 La 0.60534 0.82663 0.53445 0.0
C1242 C 0.57388 0.78691 0.49923 0.0
C1243 C 0.56533 0.79978 0.49078 0.0
C1244 C 0.59042 0.83519 0.48703 0.0
C1245 C 0.58329 0.84493 0.47859 0.0
C1246 C 0.55093 0.81952 0.47372 0.0
C1247 C 0.52536 0.78462 0.47766 0.0
C1248 C 0.53255 0.77488 0.48606 0.0
C1249 C 0.64863 0.88008 0.51914 0.0
C1250 C 0.54309 0.83535 0.52443 0.0
C1251 C 0.63044 0.85611 0.54952 0.0
C1252 C 0.64471 0.8514 0.55821 0.0
C1253 C 0.62439 0.8184 0.56333 0.0
C1254 C 0.63464 0.81729 0.57218 0.0
C1255 C 0.66543 0.84911 0.57612 0.0
C1256 C 0.68673 0.88141 0.57083 0.0
C1257 C 0.6764 0.88253 0.562 0.0
C1258 C 0.54989 0.75779 0.53068 0.0
C1259 C 0.64947 0.78865 0.52548 0.0
O1260 O 0.60923 0.80367 0.50179 0.0
O1261 O 0.55086 0.78028 0.50591 0.0
O1262 O 0.64997 0.86163 0.51232 0.0
O1263 O 0.61714 0.86026 0.52281 0.0
O1264 O 0.54732 0.81695 0.51771 0.0
O1265 O 0.56769 0.84839 0.53107 0.0
O1266 O 0.59473 0.83311 0.54773 0.0
O1267 O 0.65196 0.86367 0.54248 0.0
O1268 O 0.55163 0.77655 0.53777 0.0
O1269 O 0.58104 0.77549 0.52665 0.0
O1270 O 0.6483 0.80943 0.53213 0.0
O1271 O 0.62637 0.78014 0.51859 0.0
H1272 H 0.61599 0.85501 0.49051 0.0
H1273 H 0.60379 0.87192 0.47578 0.0
H1274 H 0.49976 0.7646 0.47422 0.0
H1275 H 0.51276 0.74744 0.48881 0.0
H1276 H 0.59976 0.79389 0.56061 0.0
H1277 H 0.61795 0.79172 0.57599 0.0
H1278 H 0.71036 0.90659 0.57363 0.0
H1279 H 0.69226 0.90846 0.55824 0.0
La1280 La 0.23126 0.79382 0.51422 0.0
La1281 La 0.21454 0.78589 0.53375 0.0
C1282 C 0.25354 0.79457 0.49847 0.0
C1283 C 0.24072 0.77325 0.49001 0.0
C1284 C 0.20461 0.7614 0.48645 0.0
C1285 C 0.19478 0.74464 0.478 0.0
C1286 C 0.22082 0.73938 0.47293 0.0
C1287 C 0.25648 0.75025 0.47667 0.0
C1288 C 0.26628 0.76703 0.48509 0.0
C1289 C 0.16072 0.77567 0.51854 0.0
C1290 C 0.20604 0.7152 0.52369 0.0
C1291 C 0.18522 0.78144 0.54883 0.0
C1292 C 0.19015 0.80066 0.5575 0.0
C1293 C 0.22339 0.81368 0.56256 0.0
C1294 C 0.2248 0.82541 0.57138 0.0
C1295 C 0.19306 0.82446 0.57534 0.0
C1296 C 0.16049 0.81308 0.5701 0.0
C1297 C 0.15906 0.80124 0.56131 0.0
C1298 C 0.28338 0.79942 0.52993 0.0
C1299 C 0.25231 0.86806 0.52482 0.0
O1300 O 0.23647 0.8128 0.50106 0.0
O1301 O 0.26056 0.77835 0.50512 0.0
O1302 O 0.1789 0.79557 0.51172 0.0
O1303 O 0.18076 0.7641 0.52214 0.0
O1304 O 0.22414 0.73788 0.51695 0.0
O1305 O 0.19307 0.72659 0.53037 0.0
O1306 O 0.20836 0.7689 0.54704 0.0
O1307 O 0.17736 0.79516 0.54179 0.0
O1308 O 0.2647 0.78234 0.53702 0.0
O1309 O 0.2656 0.81288 0.52591 0.0
O1310 O 0.2317 0.84602 0.53148 0.0
O1311 O 0.26065 0.8536 0.51789 0.0
H1312 H 0.18428 0.76585 0.49009 0.0
H1313 H 0.16718 0.73693 0.47534 0.0
H1314 H 0.27703 0.746 0.47307 0.0
H1315 H 0.29427 0.77587 0.48769 0.0
H1316 H 0.24787 0.81355 0.55981 0.0
H1317 H 0.25056 0.83456 0.57515 0.0
H1318 H 0.13537 0.81158 0.57293 0.0
H1319 H 0.13296 0.79093 0.55759 0.0
La1320 La 0.1206 0.57312 0.36964 0.0
La1321 La 0.11233 0.58001 0.35007 0.0
C1322 C 0.14168 0.5735 0.3855 0.0
C1323 C 0.15041 0.59582 0.39383 0.0
C1324 C 0.12399 0.60364 0.39788 0.0
C1325 C 0.13169 0.62161 0.40619 0.0
C1326 C 0.16601 0.6323 0.41062 0.0
C1327 C 0.19268 0.62517 0.40644 0.0
C1328 C 0.18491 0.60708 0.39817 0.0
C1329 C 0.06827 0.59111 0.36501 0.0
C1330 C 0.17431 0.65133 0.36008 0.0
C1331 C 0.08774 0.58394 0.33489 0.0
C1332 C 0.07325 0.56484 0.32621 0.0
C1333 C 0.09367 0.55246 0.32103 0.0
C1334 C 0.08328 0.54119 0.31218 0.0
C1335 C 0.05224 0.54201 0.3083 0.0
C1336 C 0.03085 0.5527 0.31365 0.0
C1337 C 0.04132 0.56407 0.32248 0.0
C1338 C 0.16793 0.56721 0.35415 0.0
C1339 C 0.06827 0.49808 0.35921 0.0
O1340 O 0.10643 0.55531 0.38286 0.0
O1341 O 0.16509 0.58874 0.37884 0.0
O1342 O 0.06633 0.57132 0.37189 0.0
O1343 O 0.10001 0.60251 0.36149 0.0
O1344 O 0.16932 0.629 0.36692 0.0
O1345 O 0.15042 0.63955 0.35329 0.0
O1346 O 0.12329 0.59596 0.33673 0.0
O1347 O 0.06607 0.57077 0.34193 0.0
O1348 O 0.1663 0.58403 0.34701 0.0
O1349 O 0.13656 0.5536 0.35812 0.0
O1350 O 0.06982 0.51963 0.35241 0.0
O1351 O 0.09062 0.51316 0.36619 0.0
H1352 H 0.09711 0.59536 0.39471 0.0
H1353 H 0.1107 0.62709 0.40914 0.0
H1354 H 0.2192 0.63251 0.40968 0.0
H1355 H 0.20561 0.60109 0.39524 0.0
H1356 H 0.11851 0.55278 0.32369 0.0
H1357 H 0.10006 0.53254 0.30832 0.0
H1358 H 1.00703 0.55409 0.31091 0.0
H1359 H 1.02539 0.57394 0.32628 0.0
La1360 La 0.46963 0.55454 0.37014 0.0
La1361 La 0.46127 0.53896 0.35051 0.0
C1362 C 0.47039 0.57596 0.38598 0.0
C1363 C 0.44885 0.56318 0.39442 0.0
C1364 C 0.43911 0.52814 0.39832 0.0
C1365 C 0.42227 0.51864 0.40676 0.0
C1366 C 0.41482 0.54397 0.41151 0.0
C1367 C 0.42359 0.57849 0.40744 0.0
C1368 C 0.44045 0.58796 0.39903 0.0
C1369 C 0.45146 0.48432 0.36551 0.0
C1370 C 0.39066 0.52966 0.36078 0.0
C1371 C 0.45651 0.51035 0.33531 0.0
C1372 C 0.47525 0.51521 0.32657 0.0
C1373 C 0.4885 0.54859 0.32158 0.0
C1374 C 0.49957 0.54997 0.3127 0.0
C1375 C 0.49771 0.51804 0.3086 0.0
C1376 C 0.48614 0.4853 0.31377 0.0
C1377 C 0.47497 0.48391 0.32263 0.0
C1378 C 0.47443 0.60729 0.35468 0.0
C1379 C 0.54392 0.57694 0.35933 0.0
O1380 O 0.48813 0.55849 0.38332 0.0
O1381 O 0.4547 0.58385 0.37936 0.0
O1382 O 0.47144 0.50209 0.37237 0.0
O1383 O 0.43985 0.50459 0.36204 0.0
O1384 O 0.41342 0.54725 0.36755 0.0
O1385 O 0.402 0.51723 0.35399 0.0
O1386 O 0.4443 0.53365 0.33723 0.0
O1387 O 0.47028 0.50208 0.34229 0.0
O1388 O 0.45725 0.58906 0.34754 0.0
O1389 O 0.48816 0.58941 0.35854 0.0
O1390 O 0.52174 0.55698 0.35261 0.0
O1391 O 0.52952 0.58418 0.36646 0.0
H1392 H 0.44528 0.50841 0.39494 0.0
H1393 H 0.41622 0.49194 0.40967 0.0
H1394 H 0.41764 0.59843 0.41078 0.0
H1395 H 0.44768 0.61515 0.39619 0.0
H1396 H 0.48902 0.57322 0.32442 0.0
H1397 H 0.50892 0.57588 0.30898 0.0
H1398 H 0.48393 0.46003 0.31085 0.0
H1399 H 0.46445 0.45769 0.32629 0.0
La1400 La 0.48551 0.92009 0.37072 0.0
La1401 La 0.50377 0.92991 0.35128 0.0
C1402 C 0.46256 0.898 0.3864 0.0
C1403 C 0.47567 0.88921 0.39478 0.0
C1404 C 0.51113 0.91431 0.39854 0.0
C1405 C 0.52141 0.9066 0.40684 0.0
C1406 C 0.49659 0.87354 0.41155 0.0
C1407 C 0.46149 0.84816 0.40767 0.0
C1408 C 0.45117 0.85598 0.3994 0.0
C1409 C 0.55664 0.97187 0.36666 0.0
C1410 C 0.51061 0.86658 0.36128 0.0
C1411 C 0.53585 0.95572 0.33652 0.0
C1412 C 0.53414 0.9714 0.32778 0.0
C1413 C 0.50324 0.95171 0.322 0.0
C1414 C 0.50556 0.96305 0.31312 0.0
C1415 C 0.53883 0.99425 0.30982 0.0
C1416 C 0.56885 1.01506 0.31577 0.0
C1417 C 0.56653 1.00369 0.32463 0.0
C1418 C 0.43457 0.87458 0.35469 0.0
C1419 C 0.46527 0.97396 0.36005 0.0
O1420 O 0.47952 0.93336 0.38387 0.0
O1421 O 0.4556 0.87503 0.3797 0.0
O1422 O 0.53833 0.97373 0.37344 0.0
O1423 O 0.53633 0.94054 0.36301 0.0
O1424 O 0.49202 0.87088 0.36795 0.0
O1425 O 0.52441 0.89147 0.35472 0.0
O1426 O 0.51136 0.92012 0.33803 0.0
O1427 O 0.5429 0.97674 0.34364 0.0
O1428 O 0.45395 0.8767 0.34769 0.0
O1429 O 0.45196 0.90549 0.35887 0.0
O1430 O 0.48622 0.97269 0.35345 0.0
O1431 O 0.45666 0.95102 0.36698 0.0
H1432 H 0.53072 0.94015 0.39512 0.0
H1433 H 0.54884 0.92653 0.40957 0.0
H1434 H 0.44145 0.82267 0.41113 0.0
H1435 H 0.4236 0.83631 0.39668 0.0
H1436 H 0.47793 0.92654 0.32421 0.0
H1437 H 0.48195 0.94617 0.30874 0.0
H1438 H 0.5946 0.03967 0.31353 0.0
H1439 H 0.59082 0.01921 0.32893 0.0
H1440 H 0.16571 0.19239 0.20313 0.0
H1441 H 0.1947 0.03263 0.1798 0.0
H1442 H 0.13924 0.15957 0.17567 0.0
H1443 H 0.16469 0.02489 0.20753 0.0
H1444 H 0.19056 0.09014 0.17859 0.0
H1445 H 0.18005 0.14079 0.20521 0.0
C1446 C 0.16322 0.17457 0.19755 0.0
C1447 C 0.15108 0.18005 0.18923 0.0
C1448 C 0.18528 0.07605 0.18496 0.0
C1449 C 0.16811 0.12199 0.19149 0.0
C1450 C 0.18788 0.04332 0.18568 0.0
C1451 C 0.1798 0.02367 0.19377 0.0
C1452 C 0.17503 0.08969 0.1924 0.0
C1453 C 0.17091 0.03897 0.20115 0.0
C1454 C 0.1713 0.14519 0.19874 0.0
C1455 C 0.1483 0.15622 0.1822 0.0
N1456 N 0.16867 0.07105 0.20028 0.0
N1457 N 0.15691 0.12844 0.18348 0.0
H1458 H 1.00957 0.17304 0.17935 0.0
H1459 H 0.84992 0.9857 0.2032 0.0
H1460 H 1.01655 0.15268 0.20725 0.0
H1461 H 0.88283 0.99053 0.1758 0.0
H1462 H 0.90107 0.05192 0.20507 0.0
H1463 H 0.95193 0.1114 0.17826 0.0
C1464 C 0.99866 0.15596 0.18529 0.0
C1465 C 1.01814 0.16802 0.19339 0.0
C1466 C 0.89677 0.03837 0.19865 0.0
C1467 C 0.95206 0.0973 0.19217 0.0
C1468 C 0.86767 1.00075 0.19759 0.0
C1469 C 0.86237 0.98262 0.18936 0.0
C1470 C 0.91988 0.05801 0.19137 0.0
C1471 C 0.88607 1.00333 0.18228 0.0
C1472 C 0.96587 0.12065 0.18464 0.0
C1473 C 1.0026 0.14442 0.20085 0.0
N1474 N 0.91359 0.03987 0.18343 0.0
N1475 N 0.97051 0.1101 0.20006 0.0
H1476 H 0.05374 0.90343 0.17526 0.0
H1477 H 0.88995 0.87487 0.20775 0.0
H1478 H 0.05665 0.87576 0.2028 0.0
H1479 H 0.8718 0.84998 0.17972 0.0
H1480 H 0.95164 0.87838 0.2065 0.0
H1481 H 0.98823 0.88809 0.17708 0.0
C1482 C 0.0405 0.89398 0.18171 0.0
C1483 C 0.06069 0.89091 0.1889 0.0
C1484 C 0.93385 0.8716 0.20067 0.0
C1485 C 0.98553 0.87375 0.19106 0.0
C1486 C 0.89866 0.86963 0.20136 0.0
C1487 C 0.87564 0.86224 0.19381 0.0
C1488 C 0.94645 0.86696 0.19234 0.0
C1489 C 0.88845 0.85569 0.18572 0.0
C1490 C 1.00299 0.88505 0.18272 0.0
C1491 C 0.04202 0.87846 0.19709 0.0
N1492 N 0.92317 0.85877 0.18517 0.0
N1493 N 1.00554 0.87077 0.19799 0.0
H1494 H 0.16952 0.13369 0.37625 0.0
H1495 H 0.03118 0.15725 0.34377 0.0
H1496 H 0.19751 0.15705 0.34849 0.0
H1497 H 0.04109 0.18686 0.37156 0.0
H1498 H 0.08967 0.15425 0.34494 0.0
H1499 H 0.11958 0.1493 0.37438 0.0
C1500 C 0.16523 0.14228 0.36974 0.0
C1501 C 0.18765 0.14401 0.3625 0.0
C1502 C 0.07929 0.16197 0.35073 0.0
C1503 C 0.12988 0.16144 0.36028 0.0
C1504 C 0.04589 0.16364 0.35009 0.0
C1505 C 0.03104 0.17216 0.3576 0.0
C1506 C 0.0975 0.16807 0.35898 0.0
C1507 C 0.05138 0.1802 0.36559 0.0
C1508 C 0.13678 0.15137 0.36869 0.0
C1509 C 0.18083 0.1554 0.35423 0.0
N1510 N 0.08317 0.17739 0.3661 0.0
N1511 N 0.15211 0.16321 0.3533 0.0
H1512 H 0.87989 0.87995 0.34378 0.0
H1513 H 0.91035 0.04394 0.37634 0.0
H1514 H 0.85621 0.86141 0.37183 0.0
H1515 H 0.88183 0.0465 0.34885 0.0
H1516 H 0.89411 0.97813 0.37458 0.0
H1517 H 0.88311 0.94136 0.34514 0.0
C1518 C 0.8748 0.88852 0.3502 0.0
C1519 C 0.86785 0.86546 0.35771 0.0
C1520 C 0.89105 0.99288 0.36894 0.0
C1521 C 0.87233 0.93611 0.35932 0.0
C1522 C 0.90051 0.03056 0.36992 0.0
C1523 C 0.89749 0.05075 0.36272 0.0
C1524 C 0.87929 0.97524 0.36063 0.0
C1525 C 0.8845 0.03189 0.35457 0.0
C1526 C 0.87661 0.92357 0.35096 0.0
C1527 C 0.86148 0.87809 0.36586 0.0
N1528 N 0.87635 0.99527 0.3537 0.0
N1529 N 0.86449 0.91278 0.36647 0.0
H1530 H 0.99535 0.87675 0.37626 0.0
H1531 H 0.16034 1.00881 0.34378 0.0
H1532 H 0.9929 0.84312 0.349 0.0
H1533 H 0.17805 1.00183 0.37183 0.0
H1534 H 0.09813 0.95132 0.34504 0.0
H1535 H 0.06082 0.92659 0.37435 0.0
C1536 C 1.00862 0.87986 0.36984 0.0
C1537 C 0.98856 0.8558 0.36276 0.0
C1538 C 0.11595 0.96212 0.35087 0.0
C1539 C 0.06378 0.91339 0.3605 0.0
C1540 C 0.15144 0.99493 0.35018 0.0
C1541 C 0.17448 1.01029 0.35773 0.0
C1542 C 0.10309 0.94509 0.35921 0.0
C1543 C 0.1614 0.99106 0.36583 0.0
C1544 C 0.04613 0.90825 0.36878 0.0
C1545 C 1.00733 0.86119 0.35461 0.0
N1546 N 0.12641 0.95987 0.36638 0.0
N1547 N 0.04387 0.88978 0.35366 0.0
H1548 H 0.88547 0.84317 0.84732 0.0
H1549 H 0.85489 1.00103 0.87128 0.0
H1550 H 0.91013 0.87388 0.87494 0.0
H1551 H 0.8848 1.00982 0.84353 0.0
H1552 H 0.85867 0.94323 0.87229 0.0
H1553 H 0.87025 0.89427 0.84544 0.0
C1554 C 0.88734 0.86039 0.85298 0.0
C1555 C 0.89928 0.8545 0.86128 0.0
C1556 C 0.86397 0.9576 0.86595 0.0
C1557 C 0.88127 0.91199 0.85924 0.0
C1558 C 0.86157 0.99049 0.86535 0.0
C1559 C 0.86979 1.01054 0.85732 0.0
C1560 C 0.87419 0.94424 0.85846 0.0
C1561 C 0.87849 0.99544 0.84987 0.0
C1562 C 0.87876 0.88949 0.85191 0.0
C1563 C 0.90126 0.87757 0.86841 0.0
N1564 N 0.8806 0.96325 0.85062 0.0
N1565 N 0.89223 0.90509 0.86724 0.0
H1566 H 0.20164 0.04902 0.84802 0.0
H1567 H 0.04142 0.86039 0.87134 0.0
H1568 H 0.16796 0.04274 0.8754 0.0
H1569 H 0.03531 0.88202 0.84349 0.0
H1570 H 0.09899 0.922 0.87261 0.0
H1571 H 0.15061 0.98286 0.84597 0.0
C1572 C 0.18374 0.03366 0.85359 0.0
C1573 C 0.1888 0.05137 0.86187 0.0
C1574 C 0.08526 0.91304 0.8662 0.0
C1575 C 0.13142 0.97603 0.85964 0.0
C1576 C 0.05252 0.87774 0.86545 0.0
C1577 C 0.03329 0.86604 0.85731 0.0
C1578 C 0.0993 0.93675 0.85874 0.0
C1579 C 0.04906 0.88999 0.84991 0.0
C1580 C 0.15471 0.99608 0.85242 0.0
C1581 C 0.16492 0.03027 0.86889 0.0
N1582 N 0.0811 0.92429 0.8508 0.0
N1583 N 0.13747 0.99377 0.86763 0.0
H1584 H 0.99467 0.16013 0.8482 0.0
H1585 H 0.18221 0.18669 0.87191 0.0
H1586 H 0.99956 0.13118 0.87553 0.0
H1587 H 0.16166 0.16045 0.84397 0.0
H1588 H 0.12059 0.18286 0.87306 0.0
H1589 H 0.06096 0.17528 0.8463 0.0
C1590 C 1.00975 0.15726 0.85379 0.0
C1591 C 0.99161 0.14415 0.86201 0.0
C1592 C 0.1298 0.17838 0.86666 0.0
C1593 C 0.06709 0.16213 0.85997 0.0
C1594 C 0.1651 0.18082 0.86597 0.0
C1595 C 0.17709 0.17364 0.85784 0.0
C1596 C 0.1064 0.16919 0.85914 0.0
C1597 C 0.15345 0.16594 0.85039 0.0
C1598 C 0.04741 0.16583 0.85271 0.0
C1599 C 1.01237 0.14097 0.86907 0.0
N1600 N 0.11916 0.1638 0.85122 0.0
N1601 N 0.04894 0.15002 0.8679 0.0
H1602 H 0.85141 0.87578 0.70277 0.0
H1603 H 1.01109 0.84899 0.67847 0.0
H1604 H 0.88206 0.90181 0.6752 0.0
H1605 H 1.01849 0.87598 0.70639 0.0
H1606 H 0.95286 0.85205 0.67753 0.0
H1607 H 0.9029 0.86099 0.70452 0.0
C1608 C 0.8687 0.87804 0.6971 0.0
C1609 C 0.8627 0.89026 0.68885 0.0
C1610 C 0.96703 0.85689 0.68388 0.0
C1611 C 0.92063 0.87276 0.69073 0.0
C1612 C 1.00018 0.85492 0.68445 0.0
C1613 C 1.01995 0.86253 0.69251 0.0
C1614 C 0.95317 0.8661 0.69145 0.0
C1615 C 1.00435 0.87021 0.70002 0.0
C1616 C 0.89801 0.8697 0.69809 0.0
C1617 C 0.88584 0.89273 0.68169 0.0
N1618 N 0.97194 0.87194 0.69931 0.0
N1619 N 0.91359 0.88395 0.68279 0.0
H1620 H 0.19593 0.17465 0.67897 0.0
H1621 H 0.16874 0.98625 0.70228 0.0
H1622 H 0.16823 0.15246 0.7068 0.0
H1623 H 0.1422 0.99282 0.67482 0.0
H1624 H 0.1836 0.05233 0.70433 0.0
H1625 H 0.19275 0.1134 0.67768 0.0
C1626 C 0.18986 0.15726 0.68485 0.0
C1627 C 0.18207 0.16866 0.69299 0.0
C1628 C 0.17475 0.0392 0.69786 0.0
C1629 C 0.17836 0.09841 0.69154 0.0
C1630 C 0.16635 1.00166 0.69669 0.0
C1631 C 0.15398 0.98405 0.68839 0.0
C1632 C 0.17161 0.05928 0.69062 0.0
C1633 C 0.1514 1.00521 0.68135 0.0
C1634 C 0.1878 0.12217 0.68409 0.0
C1635 C 0.17416 0.14469 0.70038 0.0
N1636 N 0.16025 0.04165 0.68262 0.0
N1637 N 0.17238 0.11062 0.69947 0.0
H1638 H 0.88996 0.02531 0.70735 0.0
H1639 H 0.05312 0.1615 0.6749 0.0
H1640 H 0.87145 0.0328 0.67937 0.0
H1641 H 0.05635 0.19103 0.70252 0.0
H1642 H 0.98767 0.11136 0.67671 0.0
H1643 H 0.9515 0.08356 0.70614 0.0
C1644 C 0.89856 0.03944 0.70098 0.0
C1645 C 0.8755 0.024 0.69343 0.0
C1646 C 1.00248 0.12893 0.68237 0.0
C1647 C 0.94611 0.09018 0.692 0.0
C1648 C 0.03996 0.15749 0.68136 0.0
C1649 C 0.06021 0.18043 0.68859 0.0
C1650 C 0.98512 0.12248 0.69073 0.0
C1651 C 0.04165 0.17394 0.69679 0.0
C1652 C 0.93365 0.0727 0.70031 0.0
C1653 C 0.88815 0.0436 0.68536 0.0
N1654 N 1.00519 0.14516 0.69768 0.0
N1655 N 0.92278 0.07528 0.68484 0.0
H1656 H 0.86084 0.36326 0.51213 0.0
H1657 H 0.834 0.52347 0.53608 0.0
H1658 H 0.83312 0.35631 0.53999 0.0
H1659 H 0.80793 0.49236 0.50853 0.0
H1660 H 0.84833 0.47176 0.53793 0.0
H1661 H 0.85751 0.42131 0.51105 0.0
C1662 C 0.85471 0.37425 0.51806 0.0
C1663 C 0.847 0.35468 0.52615 0.0
C1664 C 0.83969 0.47658 0.53149 0.0
C1665 C 0.84313 0.42123 0.52494 0.0
C1666 C 0.83161 0.50601 0.53043 0.0
C1667 C 0.81955 0.51198 0.52216 0.0
C1668 C 0.83654 0.45378 0.52416 0.0
C1669 C 0.8169 0.48862 0.51503 0.0
C1670 C 0.85256 0.40727 0.51742 0.0
C1671 C 0.839 0.37032 0.5336 0.0
N1672 N 0.82546 0.46074 0.51619 0.0
N1673 N 0.83716 0.40263 0.53282 0.0
H1674 H 0.51828 0.31778 0.53642 0.0
H1675 H 0.67752 0.50544 0.51247 0.0
H1676 H 0.54871 0.32386 0.50879 0.0
H1677 H 0.68473 0.48448 0.54032 0.0
H1678 H 0.61939 0.44419 0.5114 0.0
H1679 H 0.56956 0.38396 0.53829 0.0
C1680 C 0.53548 0.33312 0.53075 0.0
C1681 C 0.52947 0.31535 0.52245 0.0
C1682 C 0.6335 0.45322 0.51776 0.0
C1683 C 0.58719 0.39065 0.52448 0.0
C1684 C 0.66658 0.4883 0.5184 0.0
C1685 C 0.68627 0.50006 0.52648 0.0
C1686 C 0.61963 0.42979 0.52528 0.0
C1687 C 0.67066 0.47643 0.53394 0.0
C1688 C 0.56467 0.37071 0.53182 0.0
C1689 C 0.55251 0.33638 0.51532 0.0
N1690 N 0.63831 0.44233 0.53315 0.0
N1691 N 0.58017 0.37284 0.51648 0.0
H1692 H 0.55657 0.20767 0.54072 0.0
H1693 H 0.71877 0.23384 0.50798 0.0
H1694 H 0.5371 0.18089 0.51279 0.0
H1695 H 0.72302 0.20826 0.53561 0.0
H1696 H 0.65338 0.21875 0.50991 0.0
H1697 H 0.6182 0.2111 0.5394 0.0
C1698 C 0.56498 0.20199 0.53434 0.0
C1699 C 0.54161 0.1941 0.52684 0.0
C1700 C 0.66841 0.21611 0.51555 0.0
C1701 C 0.61234 0.19873 0.52528 0.0
C1702 C 0.70584 0.2249 0.51447 0.0
C1703 C 0.72634 0.2223 0.52165 0.0
C1704 C 0.65134 0.20542 0.52394 0.0
C1705 C 0.7081 0.21052 0.5299 0.0
C1706 C 0.60013 0.20392 0.53361 0.0
C1707 C 0.55403 0.187 0.51875 0.0
N1708 N 0.67168 0.20295 0.53086 0.0
N1709 N 0.58872 0.19004 0.51817 0.0
H1710 H 0.83283 0.46421 0.70801 0.0
H1711 H 0.69863 0.49795 0.67647 0.0
H1712 H 0.86433 0.496 0.68068 0.0
H1713 H 0.70575 0.51951 0.70467 0.0
H1714 H 0.75691 0.49452 0.67738 0.0
H1715 H 0.78316 0.48034 0.70653 0.0
C1716 C 0.82931 0.47469 0.70168 0.0
C1717 C 0.8527 0.47874 0.69444 0.0
C1718 C 0.74599 0.50061 0.68333 0.0
C1719 C 0.79532 0.49693 0.69268 0.0
C1720 C 0.71271 0.50252 0.68283 0.0
C1721 C 0.69711 0.50883 0.69052 0.0
C1722 C 0.76331 0.50423 0.69161 0.0
C1723 C 0.71666 0.51461 0.69857 0.0
C1724 C 0.80105 0.48412 0.70086 0.0
C1725 C 0.84689 0.49258 0.68641 0.0
N1726 N 0.74834 0.51157 0.69892 0.0
N1727 N 0.81835 0.50075 0.68569 0.0
H1728 H 0.5209 0.19626 0.70498 0.0
H1729 H 0.54908 0.38404 0.6812 0.0
H1730 H 0.55127 0.21811 0.67726 0.0
H1731 H 0.57517 0.37826 0.70873 0.0
H1732 H 0.53457 0.318 0.67927 0.0
H1733 H 0.52397 0.2575 0.70603 0.0
C1734 C 0.52754 0.21358 0.69907 0.0
C1735 C 0.53611 0.20207 0.69104 0.0
C1736 C 0.54325 0.33131 0.68573 0.0
C1737 C 0.53966 0.27233 0.69221 0.0
C1738 C 0.55145 0.36882 0.68683 0.0
C1739 C 0.5636 0.38666 0.69512 0.0
C1740 C 0.54633 0.31146 0.69303 0.0
C1741 C 0.56614 0.36571 0.70221 0.0
C1742 C 0.52953 0.24866 0.69969 0.0
C1743 C 0.54473 0.22596 0.68361 0.0
N1744 N 0.55745 0.32929 0.70102 0.0
N1745 N 0.54641 0.26004 0.68438 0.0
H1746 H 0.84559 0.3432 0.70655 0.0
H1747 H 0.66271 0.17806 0.68216 0.0
H1748 H 0.83134 0.34204 0.6781 0.0
H1749 H 0.66461 0.21256 0.70932 0.0
H1750 H 0.72903 0.2294 0.68053 0.0
H1751 H 0.78414 0.28548 0.70764 0.0
C1752 C 0.82988 0.33054 0.70051 0.0
C1753 C 0.84366 0.34779 0.69223 0.0
C1754 C 0.71483 0.22542 0.68684 0.0
C1755 C 0.77294 0.28155 0.69345 0.0
C1756 C 0.67715 0.19619 0.68778 0.0
C1757 C 0.65818 0.19121 0.69587 0.0
C1758 C 0.73364 0.24913 0.69412 0.0
C1759 C 0.67807 0.21547 0.70295 0.0
C1760 C 0.79463 0.29767 0.70114 0.0
C1761 C 0.82177 0.32992 0.68464 0.0
N1762 N 0.71462 0.24319 0.70192 0.0
N1763 N 0.78742 0.29786 0.68543 0.0
H1764 H 0.54668 0.1773 0.18032 0.0
H1765 H 0.52065 0.33651 0.20506 0.0
H1766 H 0.57691 0.21024 0.20767 0.0
H1767 H 0.54491 0.34342 0.17699 0.0
H1768 H 0.5241 0.27847 0.20585 0.0
H1769 H 0.53051 0.22791 0.17876 0.0
C1770 C 0.54959 0.19492 0.18599 0.0
C1771 C 0.56337 0.18984 0.19411 0.0
C1772 C 0.5282 0.29248 0.1995 0.0
C1773 C 0.54429 0.24663 0.19245 0.0
C1774 C 0.52599 0.32548 0.19903 0.0
C1775 C 0.53283 0.34509 0.19096 0.0
C1776 C 0.53687 0.27864 0.19184 0.0
C1777 C 0.53978 0.3294 0.18337 0.0
C1778 C 0.54046 0.2237 0.1851 0.0
C1779 C 0.56668 0.21336 0.20126 0.0
N1780 N 0.5418 0.29716 0.18399 0.0
N1781 N 0.55708 0.24054 0.20028 0.0
H1782 H 0.86515 0.38143 0.18183 0.0
H1783 H 0.70045 0.19926 0.20654 0.0
H1784 H 0.83097 0.3801 0.209 0.0
H1785 H 0.70145 0.21201 0.17805 0.0
H1786 H 0.75808 0.26082 0.20751 0.0
H1787 H 0.81388 0.315 0.18029 0.0
C1788 C 0.84711 0.36711 0.18747 0.0
C1789 C 0.85217 0.38629 0.19554 0.0
C1790 C 0.74589 0.24999 0.20103 0.0
C1791 C 0.79433 0.3107 0.19389 0.0
C1792 C 0.71305 0.21466 0.20047 0.0
C1793 C 0.69577 0.20041 0.19221 0.0
C1794 C 0.76195 0.27131 0.19329 0.0
C1795 C 0.71359 0.22194 0.18457 0.0
C1796 C 0.81791 0.32936 0.18659 0.0
C1797 C 0.82802 0.36652 0.20264 0.0
N1798 N 0.7456 0.25638 0.1853 0.0
N1799 N 0.80036 0.32993 0.20166 0.0
H1800 H 0.82685 0.49586 0.17704 0.0
H1801 H 0.66264 0.46669 0.20939 0.0
H1802 H 0.84442 0.52009 0.2051 0.0
H1803 H 0.65957 0.49356 0.1818 0.0
H1804 H 0.72831 0.48268 0.20764 0.0
H1805 H 0.76527 0.49255 0.17822 0.0
C1806 C 0.81805 0.50102 0.18342 0.0
C1807 C 0.84084 0.5081 0.191 0.0
C1808 C 0.7135 0.48543 0.20197 0.0
C1809 C 0.77014 0.50364 0.1924 0.0
C1810 C 0.67588 0.47611 0.20294 0.0
C1811 C 0.65558 0.47873 0.19571 0.0
C1812 C 0.731 0.49668 0.19364 0.0
C1813 C 0.67428 0.4912 0.18753 0.0
C1814 C 0.78291 0.49917 0.18408 0.0
C1815 C 0.82792 0.5146 0.19909 0.0
N1816 N 0.7109 0.49926 0.18667 0.0
N1817 N 0.79325 0.51163 0.19959 0.0
H1818 H 0.68572 0.20518 0.04089 0.0
H1819 H 0.54722 0.22969 1.00874 0.0
H1820 H 0.67689 0.17808 1.01296 0.0
H1821 H 0.51969 0.20546 0.03651 0.0
H1822 H 0.59699 0.21379 1.01043 0.0
H1823 H 0.62679 0.20731 0.03984 0.0
C1824 C 0.67114 0.19913 0.03457 0.0
C1825 C 0.68645 0.19165 0.02698 0.0
C1826 C 0.57992 0.21157 1.01616 0.0
C1827 C 0.61944 0.19472 0.02573 0.0
C1828 C 0.55157 0.22083 1.01521 0.0
C1829 C 0.52937 0.219 1.02251 0.0
C1830 C 0.58694 0.20119 1.02452 0.0
C1831 C 0.53623 0.20723 0.03072 0.0
C1832 C 0.63748 0.2003 0.03399 0.0
C1833 C 0.66624 0.18396 1.01898 0.0
N1834 N 0.56487 0.19926 0.03155 0.0
N1835 N 0.63416 0.18629 1.01854 0.0
H1836 H 0.83591 0.31889 0.036 0.0
H1837 H 0.86007 0.50461 1.01185 0.0
H1838 H 0.80717 0.3228 1.00858 0.0
H1839 H 0.83534 0.4854 0.03987 0.0
H1840 H 0.85701 0.44337 1.01082 0.0
H1841 H 0.85057 0.38505 0.03776 0.0
C1842 C 0.83301 0.33373 0.03036 0.0
C1843 C 0.82008 0.31534 1.02215 0.0
C1844 C 0.85268 0.45278 1.01722 0.0
C1845 C 0.83746 0.39066 1.02405 0.0
C1846 C 0.85467 0.48788 1.01782 0.0
C1847 C 0.84769 0.50013 0.02594 0.0
C1848 C 0.84411 0.42983 1.0248 0.0
C1849 C 0.84064 0.47698 0.03345 0.0
C1850 C 0.84128 0.37131 0.03136 0.0
C1851 C 0.81682 0.33579 1.01504 0.0
N1852 N 0.8389 0.44286 0.0327 0.0
N1853 N 0.82556 0.37228 1.01615 0.0
H1854 H 0.55698 0.35376 0.04117 0.0
H1855 H 0.71572 0.493 1.00823 0.0
H1856 H 0.53526 0.36303 1.01348 0.0
H1857 H 0.7224 0.52061 0.03606 0.0
H1858 H 0.65057 0.44273 1.0103 0.0
H1859 H 0.618 0.41258 0.03986 0.0
C1860 C 0.56475 0.36839 0.03485 0.0
C1861 C 0.54094 0.35325 0.0274 0.0
C1862 C 0.66605 0.45991 1.01596 0.0
C1863 C 0.61098 0.42013 0.02585 0.0
C1864 C 0.70337 0.48856 1.0148 0.0
C1865 C 0.72455 0.51098 1.022 0.0
C1866 C 0.64974 0.45277 1.02445 0.0
C1867 C 0.70699 0.50394 0.03035 0.0
C1868 C 0.59956 0.40198 0.03412 0.0
C1869 C 0.55255 0.37352 1.0194 0.0
N1870 N 0.67065 0.47501 0.03139 0.0
N1871 N 0.58691 0.40552 1.01881 0.0
H1872 H 0.47526 0.82533 0.84148 0.0
H1873 H 0.5052 0.69136 0.87407 0.0
H1874 H 0.50231 0.85582 0.86904 0.0
H1875 H 0.52938 0.69756 0.84601 0.0
H1876 H 0.50168 0.74946 0.87279 0.0
H1877 H 0.49153 0.77588 0.84332 0.0
C1878 C 0.48479 0.82168 0.84794 0.0
C1879 C 0.48738 0.84468 0.85514 0.0
C1880 C 0.50834 0.73837 0.86696 0.0
C1881 C 0.50564 0.78749 0.85731 0.0
C1882 C 0.51032 0.70519 0.86767 0.0
C1883 C 0.51744 0.6894 0.86012 0.0
C1884 C 0.51273 0.75543 0.85861 0.0
C1885 C 0.52386 0.70863 0.85201 0.0
C1886 C 0.49426 0.79351 0.84896 0.0
C1887 C 0.49997 0.83867 0.86333 0.0
N1888 N 0.52077 0.74024 0.85145 0.0
N1889 N 0.50818 0.81024 0.86424 0.0
H1890 H 0.21498 0.65394 0.84212 0.0
H1891 H 0.35232 0.81932 0.87399 0.0
H1892 H 0.18717 0.65214 0.86981 0.0
H1893 H 0.34409 0.83575 0.84593 0.0
H1894 H 0.29401 0.75778 0.873 0.0
H1895 H 0.26485 0.71962 0.84366 0.0
C1896 C 0.2193 0.66747 0.84854 0.0
C1897 C 0.19693 0.64753 0.85586 0.0
C1898 C 0.3047 0.77516 0.8671 0.0
C1899 C 0.25463 0.72293 0.85771 0.0
C1900 C 0.338 0.81027 0.86764 0.0
C1901 C 0.35328 0.83275 0.86001 0.0
C1902 C 0.28697 0.76207 0.85883 0.0
C1903 C 0.33343 0.81952 0.85198 0.0
C1904 C 0.24771 0.70509 0.8494 0.0
C1905 C 0.2038 0.66658 0.86401 0.0
N1906 N 0.30169 0.78486 0.85158 0.0
N1907 N 0.23246 0.70318 0.86476 0.0
H1908 H 0.38801 0.56823 0.84207 0.0
H1909 H 0.2265 0.54266 0.87489 0.0
H1910 H 0.39258 0.54207 0.86965 0.0
H1911 H 0.20628 0.51443 0.84704 0.0
H1912 H 0.28816 0.54612 0.87355 0.0
H1913 H 0.32271 0.55321 0.84408 0.0
C1914 C 0.37519 0.55919 0.84857 0.0
C1915 C 0.39578 0.55644 0.85571 0.0
C1916 C 0.26991 0.53862 0.86778 0.0
C1917 C 0.32085 0.53967 0.85809 0.0
C1918 C 0.23475 0.53669 0.86853 0.0
C1919 C 0.21116 0.52836 0.86105 0.0
C1920 C 0.28189 0.533 0.85947 0.0
C1921 C 0.22339 0.52089 0.85299 0.0
C1922 C 0.33779 0.55044 0.8497 0.0
C1923 C 0.37763 0.54452 0.86397 0.0
N1924 N 0.25807 0.52395 0.85238 0.0
N1925 N 0.34124 0.53701 0.86498 0.0
H1926 H 0.49839 0.79593 0.043 0.0
H1927 H 0.36783 0.83251 1.01038 0.0
H1928 H 0.53111 0.82793 1.01573 0.0
H1929 H 0.36678 0.84532 0.03882 0.0
H1930 H 0.42607 0.82932 1.0118 0.0
H1931 H 0.44816 0.81123 0.04127 0.0
C1932 C 0.49507 0.80634 0.03663 0.0
C1933 C 0.51898 0.81063 0.02949 0.0
C1934 C 0.41338 0.8334 1.01771 0.0
C1935 C 0.46087 0.82786 0.02743 0.0
C1936 C 0.3801 0.83522 1.01691 0.0
C1937 C 0.36216 0.83905 1.0245 0.0
C1938 C 0.4285 0.83467 0.02617 0.0
C1939 C 0.3795 0.84244 0.03278 0.0
C1940 C 0.46642 0.81524 0.03567 0.0
C1941 C 0.5133 0.82428 1.0214 0.0
N1942 N 0.41129 0.83961 0.0334 0.0
N1943 N 0.48449 0.83201 1.02055 0.0
H1944 H 0.21396 0.71113 1.01371 0.0
H1945 H 0.19227 0.52787 0.03834 0.0
H1946 H 0.25231 0.71142 0.04044 0.0
H1947 H 0.2147 0.54363 1.01018 0.0
H1948 H 0.19696 0.58993 0.03905 0.0
H1949 H 0.19891 0.64473 1.01213 0.0
C1950 C 0.21911 0.69725 1.01922 0.0
C1951 C 0.23466 0.71682 0.02719 0.0
C1952 C 0.20038 0.57954 0.0327 0.0
C1953 C 0.21658 0.64125 1.02554 0.0
C1954 C 0.19743 0.544 0.03227 0.0
C1955 C 0.20337 0.53061 1.0242 0.0
C1956 C 0.20878 0.60171 1.02499 0.0
C1957 C 0.21022 0.553 1.01656 0.0
C1958 C 0.21052 0.65952 1.01833 0.0
C1959 C 0.2406 0.69754 0.03416 0.0
N1960 N 0.21286 0.58756 1.01714 0.0
N1961 N 0.23134 0.66087 0.0332 0.0
H1962 H 0.32768 0.50591 1.01545 0.0
H1963 H 0.51298 0.66975 0.03916 0.0
H1964 H 0.33132 0.53963 0.04275 0.0
H1965 H 0.49216 0.67469 1.0112 0.0
H1966 H 0.45205 0.61127 0.04033 0.0
H1967 H 0.39339 0.55815 1.01357 0.0
C1968 C 0.34237 0.52407 1.02104 0.0
C1969 C 0.32403 0.51868 0.02925 0.0
C1970 C 0.46105 0.62497 0.03392 0.0
C1971 C 0.39888 0.57745 0.02722 0.0
C1972 C 0.49595 0.65823 0.03323 0.0
C1973 C 0.50765 0.67735 1.02508 0.0
C1974 C 0.43778 0.6103 0.02639 0.0
C1975 C 0.48414 0.66104 1.01763 0.0
C1976 C 0.3797 0.55379 1.01997 0.0
C1977 C 0.3443 0.5429 0.0363 0.0
N1978 N 0.45026 0.62848 1.01846 0.0
N1979 N 0.38058 0.57104 0.03513 0.0
H1980 H 0.24281 0.54009 0.54287 0.0
H1981 H 0.21619 0.67591 0.51015 0.0
H1982 H 0.21656 0.51001 0.51527 0.0
H1983 H 0.18964 0.6686 0.53809 0.0
H1984 H 0.21951 0.61768 0.51146 0.0
H1985 H 0.22757 0.59026 0.54094 0.0
C1986 C 0.2337 0.54399 0.53639 0.0
C1987 C 0.23099 0.52088 0.5292 0.0
C1988 C 0.2124 0.62858 0.51726 0.0
C1989 C 0.21395 0.57887 0.52693 0.0
C1990 C 0.21055 0.66182 0.51653 0.0
C1991 C 0.20276 0.67731 0.52404 0.0
C1992 C 0.20725 0.61116 0.52559 0.0
C1993 C 0.19568 0.65777 0.53212 0.0
C1994 C 0.22482 0.57257 0.53531 0.0
C1995 C 0.21897 0.52723 0.52097 0.0
N1996 N 0.19866 0.62611 0.53271 0.0
N1997 N 0.21134 0.55603 0.52001 0.0
H1998 H 0.53373 0.71437 0.51553 0.0
H1999 H 0.37164 0.52765 0.53915 0.0
H2000 H 0.49988 0.70996 0.54284 0.0
H2001 H 0.3672 0.548 0.51115 0.0
H2002 H 0.42947 0.58914 0.54039 0.0
H2003 H 0.48234 0.6483 0.51363 0.0
C2004 C 0.51572 0.69944 0.52112 0.0
C2005 C 0.52084 0.71765 0.52933 0.0
C2006 C 0.41604 0.57992 0.53396 0.0
C2007 C 0.463 0.64239 0.52728 0.0
C2008 C 0.38316 0.54469 0.53322 0.0
C2009 C 0.36434 0.53268 0.52504 0.0
C2010 C 0.43062 0.60321 0.52644 0.0
C2011 C 0.38062 0.55623 0.5176 0.0
C2012 C 0.48647 0.6619 0.52003 0.0
C2013 C 0.4968 0.69709 0.53638 0.0
N2014 N 0.41278 0.59043 0.51848 0.0
N2015 N 0.46911 0.66061 0.5352 0.0
H2016 H 0.51375 0.85269 0.53883 0.0
H2017 H 0.3268 0.82592 0.51475 0.0
H2018 H 0.49335 0.82528 0.51095 0.0
H2019 H 0.33147 0.7987 0.54224 0.0
H2020 H 0.39303 0.84074 0.51296 0.0
H2021 H 0.45235 0.8494 0.53986 0.0
C2022 C 0.49671 0.84665 0.53289 0.0
C2023 C 0.50867 0.83898 0.52481 0.0
C2024 C 0.37945 0.83175 0.51938 0.0
C2025 C 0.43824 0.83517 0.52595 0.0
C2026 C 0.34182 0.82338 0.5204 0.0
C2027 C 0.32364 0.81083 0.52863 0.0
C2028 C 0.39904 0.82841 0.52671 0.0
C2029 C 0.34432 0.80804 0.53576 0.0
C2030 C 0.46154 0.84454 0.53349 0.0
C2031 C 0.48515 0.83112 0.51733 0.0
N2032 N 0.38085 0.81688 0.53465 0.0
N2033 N 0.45098 0.82929 0.51808 0.0
H2034 H 0.2156 0.56672 0.34173 0.0
H2035 H 0.35198 0.54053 0.37438 0.0
H2036 H 0.18617 0.54189 0.3694 0.0
H2037 H 0.34335 0.51276 0.34649 0.0
H2038 H 0.29379 0.54408 0.37314 0.0
H2039 H 0.26546 0.55106 0.34367 0.0
C2040 C 0.21957 0.55782 0.34823 0.0
C2041 C 0.19672 0.55566 0.35543 0.0
C2042 C 0.30439 0.53664 0.36734 0.0
C2043 C 0.25443 0.53812 0.35772 0.0
C2044 C 0.33762 0.53465 0.36803 0.0
C2045 C 0.35275 0.52648 0.36051 0.0
C2046 C 0.28663 0.53122 0.35905 0.0
C2047 C 0.33284 0.51912 0.35247 0.0
C2048 C 0.24798 0.5487 0.34932 0.0
C2049 C 0.20317 0.54387 0.36369 0.0
N2050 N 0.30122 0.52223 0.35192 0.0
N2051 N 0.23184 0.536 0.36465 0.0
H2052 H 0.50089 0.64956 0.37003 0.0
H2053 H 0.5291 0.83828 0.34689 0.0
H2054 H 0.47316 0.65603 0.34267 0.0
H2055 H 0.49836 0.81531 0.37457 0.0
H2056 H 0.52548 0.77688 0.34566 0.0
H2057 H 0.51533 0.71548 0.37217 0.0
C2058 C 0.49812 0.6649 0.36449 0.0
C2059 C 0.48556 0.64732 0.35619 0.0
C2060 C 0.51995 0.7855 0.35202 0.0
C2061 C 0.50278 0.72236 0.3585 0.0
C2062 C 0.52224 0.82066 0.35276 0.0
C2063 C 0.51375 0.83192 0.36083 0.0
C2064 C 0.50962 0.76149 0.35944 0.0
C2065 C 0.50485 0.80766 0.36819 0.0
C2066 C 0.50628 0.70234 0.3657 0.0
C2067 C 0.48252 0.6684 0.3492 0.0
N2068 N 0.50291 0.77349 0.36732 0.0
N2069 N 0.49123 0.70477 0.3505 0.0
H2070 H 0.22176 0.69132 0.37386 0.0
H2071 H 0.38814 0.82709 0.342 0.0
H2072 H 0.20631 0.69744 0.34566 0.0
H2073 H 0.38901 0.85609 0.36958 0.0
H2074 H 0.32246 0.77713 0.3435 0.0
H2075 H 0.28331 0.74959 0.37283 0.0
C2076 C 0.23103 0.70516 0.36747 0.0
C2077 C 0.20882 0.68931 0.35982 0.0
C2078 C 0.33678 0.79454 0.34922 0.0
C2079 C 0.27952 0.75559 0.3586 0.0
C2080 C 0.37441 0.82302 0.34839 0.0
C2081 C 0.3941 0.84575 0.35569 0.0
C2082 C 0.31867 0.78795 0.35748 0.0
C2083 C 0.37478 0.83918 0.36379 0.0
C2084 C 0.26615 0.73845 0.3669 0.0
C2085 C 0.22233 0.70857 0.35174 0.0
N2086 N 0.33818 0.81048 0.36451 0.0
N2087 N 0.25699 0.74031 0.35132 0.0
H2088 H 0.25098 0.35808 0.17932 0.0
H2089 H 0.45003 0.39717 0.19924 0.0
H2090 H 0.26278 0.31345 0.20437 0.0
H2091 H 0.44086 0.45297 0.17584 0.0
H2092 H 0.38141 0.36676 0.20125 0.0
H2093 H 0.32011 0.39348 0.17791 0.0
C2094 C 0.26801 0.35584 0.18455 0.0
C2095 C 0.25081 0.33255 0.19196 0.0
C2096 C 0.39434 0.38579 0.19569 0.0
C2097 C 0.3302 0.37295 0.19036 0.0
C2098 C 0.43356 0.40318 0.19455 0.0
C2099 C 0.45118 0.42758 0.18735 0.0
C2100 C 0.37235 0.39256 0.18955 0.0
C2101 C 0.42842 0.43434 0.18148 0.0
C2102 C 0.30755 0.37608 0.18373 0.0
C2103 C 0.27456 0.33089 0.19852 0.0
N2104 N 0.39022 0.41677 0.18267 0.0
N2105 N 0.31284 0.35057 0.19754 0.0
H2106 H 0.64539 0.0641 0.19956 0.0
H2107 H 0.6837 0.90357 0.17982 0.0
H2108 H 0.58649 0.99644 0.17672 0.0
H2109 H 0.72965 0.96089 0.2047 0.0
H2110 H 0.64784 0.9369 0.17849 0.0
H2111 H 0.67633 0.02634 0.20153 0.0
C2112 C 0.63871 0.04108 0.19501 0.0
C2113 C 0.61326 0.03342 0.18798 0.0
C2114 C 0.66563 0.94202 0.18426 0.0
C2115 C 0.64905 0.99021 0.19011 0.0
C2116 C 0.68615 0.92296 0.18503 0.0
C2117 C 0.70993 0.92938 0.19237 0.0
C2118 C 0.669 0.96795 0.19086 0.0
C2119 C 0.71182 0.95493 0.1989 0.0
C2120 C 0.65647 0.01953 0.19612 0.0
C2121 C 0.60591 1.00334 0.18224 0.0
N2122 N 0.69189 0.97332 0.19797 0.0
N2123 N 0.62385 0.98302 0.18339 0.0
H2124 H 0.13793 0.791 0.1794 0.0
H2125 H 0.97658 0.59249 0.19918 0.0
H2126 H 0.08193 0.77944 0.20447 0.0
H2127 H 0.04158 0.60098 0.17585 0.0
H2128 H 1.0152 0.66106 0.20119 0.0
H2129 H 0.1035 0.72187 0.17791 0.0
C2130 C 0.11862 0.77403 0.18461 0.0
C2131 C 0.11288 0.79133 0.19206 0.0
C2132 C 1.0212 0.64799 0.19564 0.0
C2133 C 0.07305 0.71193 0.19037 0.0
C2134 C 0.99913 0.60879 0.1945 0.0
C2135 C 1.0058 0.59096 0.18733 0.0
C2136 C 0.05012 0.66979 0.18953 0.0
C2137 C 0.03543 0.61355 0.18147 0.0
C2138 C 0.09892 0.73449 0.18376 0.0
C2139 C 0.08738 0.76764 0.1986 0.0
N2140 N 0.05631 0.65173 0.18267 0.0
N2141 N 0.06838 0.72938 0.19757 0.0
H2142 H 0.36507 0.24301 0.37224 0.0
H2143 H 0.4034 0.44149 0.35218 0.0
H2144 H 0.32088 0.25438 0.34708 0.0
H2145 H 0.46059 0.43304 0.37542 0.0
H2146 H 0.37292 0.37282 0.35026 0.0
H2147 H 0.40028 0.31217 0.37362 0.0
C2148 C 0.36289 0.25994 0.36698 0.0
C2149 C 0.33979 0.2426 0.35954 0.0
C2150 C 0.39226 0.38593 0.35576 0.0
C2151 C 0.37992 0.322 0.36111 0.0
C2152 C 0.40969 0.42518 0.35685 0.0
C2153 C 0.43452 0.44302 0.36398 0.0
C2154 C 0.39943 0.36415 0.36188 0.0
C2155 C 0.44162 0.42044 0.36983 0.0
C2156 C 0.38302 0.29949 0.36778 0.0
C2157 C 0.33818 0.26623 0.35295 0.0
N2158 N 0.42402 0.38223 0.36869 0.0
N2159 N 0.35771 0.3045 0.35391 0.0
H2160 H 0.5991 0.96694 0.35326 0.0
H2161 H 0.79836 0.12852 0.37262 0.0
H2162 H 0.60823 0.03235 0.37656 0.0
H2163 H 0.78558 0.07212 0.34754 0.0
H2164 H 0.72927 0.0942 0.37427 0.0
H2165 H 0.66755 1.00552 0.35112 0.0
C2166 C 0.61552 0.98959 0.3579 0.0
C2167 C 0.59791 0.99641 0.3651 0.0
C2168 C 0.74162 0.08951 0.36839 0.0
C2169 C 0.67664 0.04067 0.36275 0.0
C2170 C 0.78112 0.10914 0.36743 0.0
C2171 C 0.79805 0.10324 0.35993 0.0
C2172 C 0.71874 0.06357 0.36182 0.0
C2173 C 0.77405 0.07768 0.35344 0.0
C2174 C 0.65467 1.01164 0.35669 0.0
C2175 C 0.62065 0.02612 0.37092 0.0
N2176 N 0.73583 0.05875 0.35456 0.0
N2177 N 0.65882 0.047 0.36965 0.0
H2178 H 0.91653 0.68073 0.37247 0.0
H2179 H 0.07247 0.63828 0.35155 0.0
H2180 H 0.96573 0.71938 0.3465 0.0
H2181 H 1.00899 0.58324 0.37516 0.0
H2182 H 0.03429 0.66896 0.3497 0.0
H2183 H 0.95058 0.64562 0.37373 0.0
C2184 C 0.93429 0.68174 0.36701 0.0
C2185 C 0.93816 0.70323 0.35937 0.0
C2186 C 0.02854 0.65003 0.35527 0.0
C2187 C 0.97764 0.66316 0.36081 0.0
C2188 C 0.05035 0.63251 0.35632 0.0
C2189 C 0.04396 0.60821 0.36352 0.0
C2190 C 1.00026 0.64355 0.36151 0.0
C2191 C 1.01491 0.60177 0.36951 0.0
C2192 C 0.95375 0.66163 0.36773 0.0
C2193 C 0.96169 0.70329 0.35252 0.0
N2194 N 0.99435 0.61949 0.3684 0.0
N2195 N 0.98062 0.68385 0.35343 0.0
H2196 H 0.60946 0.58031 0.87538 0.0
H2197 H 0.78903 0.72173 0.84589 0.0
H2198 H 0.60228 0.63846 0.85219 0.0
H2199 H 0.79903 0.67723 0.87113 0.0
H2200 H 0.72033 0.68682 0.84745 0.0
H2201 H 0.67817 0.61082 0.87329 0.0
C2202 C 0.62233 0.59933 0.86981 0.0
C2203 C 0.60011 0.60696 0.86397 0.0
C2204 C 0.73747 0.68454 0.85264 0.0
C2205 C 0.67886 0.64203 0.86152 0.0
C2206 C 0.77686 0.70445 0.85175 0.0
C2207 C 0.80015 0.70265 0.85841 0.0
C2208 C 0.72083 0.66234 0.86023 0.0
C2209 C 0.78239 0.67963 0.86583 0.0
C2210 C 0.66159 0.61683 0.86864 0.0
C2211 C 0.61831 0.63184 0.85687 0.0
N2212 N 0.74388 0.66048 0.86655 0.0
N2213 N 0.65654 0.64848 0.85586 0.0
H2214 H 0.36699 0.12933 0.87164 0.0
H2215 H 0.40369 0.96811 0.85157 0.0
H2216 H 0.32106 0.07298 0.84666 0.0
H2217 H 0.46194 0.03412 0.87466 0.0
H2218 H 0.37324 1.00642 0.8497 0.0
H2219 H 0.40205 0.09517 0.87294 0.0
C2220 C 0.36439 0.10999 0.8664 0.0
C2221 C 0.34086 0.10409 0.85903 0.0
C2222 C 0.3928 1.01271 0.85516 0.0
C2223 C 0.38084 0.06455 0.86051 0.0
C2224 C 0.4102 0.99081 0.85622 0.0
C2225 C 0.43531 0.99785 0.86329 0.0
C2226 C 0.40029 0.04181 0.86125 0.0
C2227 C 0.44273 0.02768 0.86912 0.0
C2228 C 0.38444 0.09044 0.86715 0.0
C2229 C 0.33873 0.07856 0.85247 0.0
N2230 N 0.42516 0.04838 0.868 0.0
N2231 N 0.35821 0.05969 0.85339 0.0
H2232 H 0.91305 0.2431 0.87209 0.0
H2233 H 0.07604 0.4424 0.85315 0.0
H2234 H 0.97055 0.25597 0.84718 0.0
H2235 H 1.0093 0.43295 0.87621 0.0
H2236 H 0.03744 0.37401 0.85091 0.0
H2237 H 0.94744 0.31211 0.8738 0.0
C2238 C 0.93268 0.26034 0.86695 0.0
C2239 C 0.93886 0.24345 0.85949 0.0
C2240 C 0.03104 0.38682 0.85645 0.0
C2241 C 0.97866 0.32271 0.86144 0.0
C2242 C 0.0531 0.42593 0.85772 0.0
C2243 C 0.04591 0.44343 0.86488 0.0
C2244 C 1.00162 0.36477 0.86242 0.0
C2245 C 1.01584 0.42062 0.87061 0.0
C2246 C 0.95236 0.29981 0.86794 0.0
C2247 C 0.96476 0.26747 0.85306 0.0
N2248 N 0.99496 0.3825 0.86929 0.0
N2249 N 0.98374 0.30566 0.85421 0.0
H2250 H 0.64605 0.5924 0.6991 0.0
H2251 H 0.68466 0.79117 0.67922 0.0
H2252 H 0.58875 0.60137 0.67594 0.0
H2253 H 0.72955 0.77958 0.70426 0.0
H2254 H 0.64915 0.72206 0.67785 0.0
H2255 H 0.67669 0.66104 0.70109 0.0
C2256 C 0.63976 0.60883 0.69446 0.0
C2257 C 0.61488 0.59115 0.68734 0.0
C2258 C 0.66662 0.73467 0.68366 0.0
C2259 C 0.65014 0.66997 0.68951 0.0
C2260 C 0.68693 0.7742 0.68446 0.0
C2261 C 0.71032 0.79145 0.69186 0.0
C2262 C 0.66982 0.71209 0.69029 0.0
C2263 C 0.71202 0.76777 0.69842 0.0
C2264 C 0.65728 0.64805 0.69559 0.0
C2265 C 0.60777 0.61385 0.68153 0.0
N2266 N 0.6923 0.7295 0.69746 0.0
N2267 N 0.62546 0.65204 0.6827 0.0
H2268 H 0.45163 0.06604 0.69917 0.0
H2269 H 0.25415 0.90685 0.67846 0.0
H2270 H 0.44445 1.00182 0.67579 0.0
H2271 H 0.26426 0.96088 0.70376 0.0
H2272 H 0.32341 0.94093 0.67727 0.0
H2273 H 0.38286 0.0276 0.70091 0.0
C2274 C 0.43557 0.04371 0.69443 0.0
C2275 C 0.45379 0.0372 0.68732 0.0
C2276 C 0.31043 0.94515 0.6831 0.0
C2277 C 0.37481 0.99312 0.68921 0.0
C2278 C 0.27083 0.92566 0.68379 0.0
C2279 C 0.25311 0.93096 0.69121 0.0
C2280 C 0.33262 0.97038 0.68986 0.0
C2281 C 0.27641 0.9558 0.6979 0.0
C2282 C 0.39626 0.02173 0.69542 0.0
C2283 C 0.43154 1.00782 0.68137 0.0
N2284 N 0.31475 0.97463 0.69704 0.0
N2285 N 0.39326 0.98705 0.68241 0.0
H2286 H 0.04789 0.45931 0.67647 0.0
H2287 H 0.08146 0.31195 0.70481 0.0
H2288 H 0.98054 0.39824 0.69915 0.0
H2289 H 0.13785 0.35939 0.67992 0.0
H2290 H 0.04871 0.34797 0.70353 0.0
H2291 H 0.08527 0.42779 0.67833 0.0
C2292 C 0.04115 0.43948 0.68189 0.0
C2293 C 1.01098 0.43136 0.68766 0.0
C2294 C 0.06831 0.35064 0.69835 0.0
C2295 C 0.0537 0.39508 0.68983 0.0
C2296 C 0.08718 0.33008 0.69908 0.0
C2297 C 0.1125 0.3324 0.69244 0.0
C2298 C 0.07471 0.37402 0.69095 0.0
C2299 C 0.11859 0.35656 0.6852 0.0
C2300 C 0.06245 0.4214 0.68293 0.0
C2301 C 1.00355 0.4054 0.69456 0.0
N2302 N 0.09981 0.37633 0.68464 0.0
N2303 N 1.02466 0.38819 0.69544 0.0
H2304 H 0.93035 0.64468 0.53794 0.0
H2305 H 0.11033 0.78589 0.50856 0.0
H2306 H 0.92067 0.68915 0.51266 0.0
H2307 H 0.117 0.72764 0.53178 0.0
H2308 H 0.04159 0.7555 0.51059 0.0
H2309 H 0.99904 0.67957 0.53643 0.0
C2310 C 0.94258 0.66194 0.53208 0.0
C2311 C 0.9194 0.66374 0.5254 0.0
C2312 C 0.05807 0.74944 0.51526 0.0
C2313 C 0.99871 0.70402 0.52363 0.0
C2314 C 0.09735 0.76687 0.51412 0.0
C2315 C 0.11942 0.75918 0.51999 0.0
C2316 C 0.04067 0.72426 0.52237 0.0
C2317 C 0.10107 0.7343 0.52708 0.0
C2318 C 0.98197 0.68184 0.53121 0.0
C2319 C 0.93724 0.68676 0.51798 0.0
N2320 N 0.06285 0.71774 0.52806 0.0
N2321 N 0.97575 0.70589 0.51728 0.0
H2322 H 0.3959 0.2919 0.538 0.0
H2323 H 0.25609 0.33332 0.50869 0.0
H2324 H 0.35309 0.24022 0.51242 0.0
H2325 H 0.31298 0.39576 0.53229 0.0
H2326 H 0.28657 0.29493 0.51052 0.0
H2327 H 0.36105 0.32574 0.53659 0.0
C2328 C 0.37902 0.28743 0.53208 0.0
C2329 C 0.37769 0.26312 0.5253 0.0
C2330 C 0.2923 0.31693 0.51532 0.0
C2331 C 0.33739 0.30222 0.52365 0.0
C2332 C 0.27483 0.3388 0.51429 0.0
C2333 C 0.28212 0.36789 0.52033 0.0
C2334 C 0.31713 0.324 0.52248 0.0
C2335 C 0.30664 0.37371 0.52746 0.0
C2336 C 0.35912 0.30694 0.53128 0.0
C2337 C 0.35512 0.25865 0.51782 0.0
N2338 N 0.32325 0.35204 0.52833 0.0
N2339 N 0.33596 0.27805 0.51719 0.0
H2340 H 0.70845 0.92983 0.5089 0.0
H2341 H 0.74781 0.11154 0.53763 0.0
H2342 H 0.64485 0.92468 0.53224 0.0
H2343 H 0.80117 0.11979 0.51233 0.0
H2344 H 0.71409 0.04287 0.53633 0.0
H2345 H 0.74654 0.99869 0.51063 0.0
C2346 C 0.70265 0.94318 0.51442 0.0
C2347 C 0.67332 0.92148 0.52042 0.0
C2348 C 0.73322 0.0596 0.53106 0.0
C2349 C 0.71687 1.0004 0.52244 0.0
C2350 C 0.75265 0.09899 0.5318 0.0
C2351 C 0.77742 0.12178 0.52506 0.0
C2352 C 0.73848 0.04242 0.52354 0.0
C2353 C 0.78238 0.10352 0.51769 0.0
C2354 C 0.72435 0.98252 0.51539 0.0
C2355 C 0.66709 0.9403 0.52745 0.0
N2356 N 0.76305 0.06499 0.51712 0.0
N2357 N 0.6886 0.97858 0.52825 0.0
H2358 H 0.06966 0.7784 0.68439 0.0
H2359 H 0.03979 0.5804 0.70265 0.0
H2360 H 0.12949 0.76918 0.707 0.0
H2361 H 0.98493 0.59096 0.67918 0.0
H2362 H 0.07475 0.64941 0.70405 0.0
H2363 H 0.04019 0.71004 0.68206 0.0
C2364 C 0.07675 0.76199 0.68884 0.0
C2365 C 0.10196 0.7795 0.69592 0.0
C2366 C 0.05524 0.63665 0.69856 0.0
C2367 C 0.06813 0.70101 0.69334 0.0
C2368 C 0.03528 0.59717 0.69774 0.0
C2369 C 1.00921 0.57965 0.69079 0.0
C2370 C 0.04907 0.65897 0.6924 0.0
C2371 C 1.00463 0.60304 0.68465 0.0
C2372 C 0.05989 0.72292 0.68751 0.0
C2373 C 0.11014 0.75683 0.70147 0.0
N2374 N 1.02414 0.64133 0.68563 0.0
N2375 N 0.09315 0.7188 0.7001 0.0
H2376 H 0.27261 0.36748 0.70941 0.0
H2377 H 0.45278 0.41069 0.67958 0.0
H2378 H 0.26648 0.30569 0.68566 0.0
H2379 H 0.46247 0.46108 0.70536 0.0
H2380 H 0.38415 0.37667 0.6811 0.0
H2381 H 0.34135 0.40627 0.70745 0.0
C2382 C 0.28571 0.36223 0.70375 0.0
C2383 C 0.26381 0.33321 0.6977 0.0
C2384 C 0.4012 0.39524 0.68643 0.0
C2385 C 0.34252 0.37756 0.6954 0.0
C2386 C 0.44056 0.41485 0.68556 0.0
C2387 C 0.46374 0.43883 0.69237 0.0
C2388 C 0.38446 0.39953 0.69415 0.0
C2389 C 0.44589 0.44291 0.69994 0.0
C2390 C 0.32498 0.38433 0.70265 0.0
C2391 C 0.28228 0.32768 0.69049 0.0
N2392 N 0.40738 0.42342 0.70063 0.0
N2393 N 0.32048 0.34957 0.68955 0.0
H2394 H 0.74017 0.97395 0.68543 0.0
H2395 H 0.58056 1.01304 0.70554 0.0
H2396 H 0.67522 0.91753 0.70877 0.0
H2397 H 0.63703 0.05815 0.68054 0.0
H2398 H 0.61429 0.97756 0.7069 0.0
H2399 H 0.7022 1.00471 0.68354 0.0
C2400 C 0.71776 0.96789 0.69013 0.0
C2401 C 0.71092 0.94321 0.69728 0.0
C2402 C 0.61913 0.99509 0.7011 0.0
C2403 C 0.66736 0.97861 0.69522 0.0
C2404 C 0.59985 1.01539 0.70032 0.0
C2405 C 0.60594 0.03881 0.69293 0.0
C2406 C 0.6449 0.99833 0.69447 0.0
C2407 C 0.63136 0.0406 0.68638 0.0
C2408 C 0.69606 0.98548 0.68906 0.0
C2409 C 0.68148 0.93639 0.70317 0.0
N2410 N 0.64993 0.02088 0.68733 0.0
N2411 N 0.66096 0.95414 0.70205 0.0
H2412 H 0.27391 0.91354 0.20856 0.0
H2413 H 0.45251 0.05703 0.17901 0.0
H2414 H 0.26633 0.97519 0.18615 0.0
H2415 H 0.46264 1.00514 0.20306 0.0
H2416 H 0.3838 0.0228 0.18079 0.0
H2417 H 0.34221 0.94244 0.20598 0.0
C2418 C 0.2866 0.93301 0.20307 0.0
C2419 C 0.2644 0.94207 0.19758 0.0
C2420 C 0.40098 0.0187 0.18566 0.0
C2421 C 0.34266 0.9753 0.19457 0.0
C2422 C 0.44035 0.03819 0.18464 0.0
C2423 C 0.46365 0.03415 0.19091 0.0
C2424 C 0.38446 0.9948 0.19302 0.0
C2425 C 0.44596 1.00925 0.19805 0.0
C2426 C 0.32562 0.94956 0.2016 0.0
C2427 C 0.28235 0.96746 0.19055 0.0
N2428 N 0.40755 0.99068 0.19893 0.0
N2429 N 0.32034 0.98319 0.18926 0.0
H2430 H 0.98482 0.40811 0.17977 0.0
H2431 H 0.12715 0.36927 0.20876 0.0
H2432 H 0.02953 0.46153 0.20509 0.0
H2433 H 0.06773 0.30406 0.18568 0.0
H2434 H 0.09645 0.40739 0.20687 0.0
H2435 H 1.01964 0.37419 0.18118 0.0
C2436 C 1.00212 0.41294 0.18562 0.0
C2437 C 1.00401 0.43778 0.19234 0.0
C2438 C 0.09019 0.38483 0.2022 0.0
C2439 C 0.04425 0.39862 0.19399 0.0
C2440 C 0.10779 0.36311 0.20326 0.0
C2441 C 0.09987 0.33333 0.19739 0.0
C2442 C 0.0646 0.37694 0.19517 0.0
C2443 C 0.07458 0.32666 0.19037 0.0
C2444 C 1.02198 0.39339 0.18642 0.0
C2445 C 0.02706 0.44269 0.19975 0.0
N2446 N 0.05785 0.34822 0.18947 0.0
N2447 N 0.04619 0.42327 0.20038 0.0
H2448 H 0.63391 0.58914 0.17988 0.0
H2449 H 0.67356 0.76986 0.20902 0.0
H2450 H 0.58037 0.58021 0.20519 0.0
H2451 H 0.73953 0.77551 0.18611 0.0
H2452 H 0.63497 0.7012 0.20704 0.0
H2453 H 0.66823 0.65777 0.18137 0.0
C2454 C 0.62913 0.60153 0.18575 0.0
C2455 C 0.60416 0.57856 0.19244 0.0
C2456 C 0.65779 0.71743 0.20242 0.0
C2457 C 0.64378 0.65782 0.19418 0.0
C2458 C 0.67979 0.75666 0.20353 0.0
C2459 C 0.70991 0.77843 0.19773 0.0
C2460 C 0.66575 0.69975 0.19541 0.0
C2461 C 0.71666 0.75982 0.19074 0.0
C2462 C 0.64892 0.64088 0.1866 0.0
C2463 C 0.59932 0.59661 0.19987 0.0
N2464 N 0.69482 0.72163 0.18979 0.0
N2465 N 0.61896 0.6351 0.20054 0.0
H2466 H 0.27634 0.93437 1.00518 0.0
H2467 H 0.38944 0.10762 0.03874 0.0
H2468 H 0.29701 0.91884 0.0325 0.0
H2469 H 0.35878 0.12006 1.01202 0.0
H2470 H 0.35452 0.03888 0.03686 0.0
H2471 H 0.30499 1.00219 1.00781 0.0
C2472 C 0.28666 0.94524 1.01178 0.0
C2473 C 0.28406 0.92078 1.01865 0.0
C2474 C 0.35523 0.05661 0.03143 0.0
C2475 C 0.31753 0.99901 1.02171 0.0
C2476 C 0.3752 0.09599 0.03249 0.0
C2477 C 0.37731 0.11995 1.02552 0.0
C2478 C 0.33724 0.04079 1.02331 0.0
C2479 C 0.35809 0.10294 1.01759 0.0
C2480 C 0.30307 0.98407 1.01328 0.0
C2481 C 0.29802 0.93654 0.02705 0.0
N2482 N 0.33915 0.06457 1.0167 0.0
N2483 N 0.31438 0.97468 0.02834 0.0
H2484 H 0.11193 0.33045 1.00881 0.0
H2485 H 0.93102 0.29216 0.03771 0.0
H2486 H 0.11762 0.39477 0.03205 0.0
H2487 H 0.92168 0.23953 1.01225 0.0
H2488 H 0.99965 0.3254 0.03634 0.0
H2489 H 0.04299 0.2927 1.01056 0.0
C2490 C 0.09868 0.33647 1.01432 0.0
C2491 C 0.12054 0.36589 1.02028 0.0
C2492 C 0.9827 0.30654 0.03105 0.0
C2493 C 0.0416 0.32275 1.02234 0.0
C2494 C 0.94332 0.28737 0.03183 0.0
C2495 C 0.92023 0.26296 1.02507 0.0
C2496 C 0.99958 0.30137 1.02347 0.0
C2497 C 0.93819 0.25806 1.01763 0.0
C2498 C 0.05931 0.31498 1.0153 0.0
C2499 C 0.10187 0.37244 0.02729 0.0
N2500 N 0.97674 0.27713 1.01702 0.0
N2501 N 0.06357 0.35111 0.02812 0.0
H2502 H 0.74765 0.64402 0.0377 0.0
H2503 H 0.70715 0.78578 1.00893 0.0
H2504 H 0.7994 0.6879 1.0122 0.0
H2505 H 0.64362 0.72737 0.03227 0.0
H2506 H 0.74519 0.75488 1.01063 0.0
H2507 H 0.7137 0.6789 0.03643 0.0
C2508 C 0.75212 0.66114 0.03183 0.0
C2509 C 0.7765 0.66278 1.02503 0.0
C2510 C 0.72303 0.74889 1.0154 0.0
C2511 C 0.73729 0.7031 1.02354 0.0
C2512 C 0.70134 0.76661 1.01445 0.0
C2513 C 0.67205 0.75906 1.02045 0.0
C2514 C 0.7156 0.72353 1.02246 0.0
C2515 C 0.66584 0.73396 0.02747 0.0
C2516 C 0.73254 0.68104 0.03111 0.0
C2517 C 0.78093 0.68562 1.01761 0.0
N2518 N 0.68735 0.71713 0.02828 0.0
N2519 N 0.76151 0.70479 1.01706 0.0
H2520 H 0.77845 0.11947 0.84184 0.0
H2521 H 0.59736 0.97831 0.87089 0.0
H2522 H 0.78411 0.06153 0.86523 0.0
H2523 H 0.58815 0.02098 0.84532 0.0
H2524 H 0.66602 1.01337 0.86951 0.0
H2525 H 0.70952 0.08855 0.84359 0.0
C2526 C 0.76521 0.10041 0.84738 0.0
C2527 C 0.78707 0.09296 0.85338 0.0
C2528 C 0.64909 1.01521 0.8642 0.0
C2529 C 0.70808 0.05746 0.85544 0.0
C2530 C 0.60969 0.99519 0.86498 0.0
C2531 C 0.58661 0.99643 0.85819 0.0
C2532 C 0.66602 0.03699 0.85657 0.0
C2533 C 0.60463 0.01903 0.85072 0.0
C2534 C 0.72582 0.08268 0.84836 0.0
C2535 C 0.76837 0.06801 0.86043 0.0
N2536 N 0.6432 0.03833 0.85011 0.0
N2537 N 0.73006 0.05118 0.86126 0.0
H2538 H 0.92459 0.66515 0.84194 0.0
H2539 H 0.06414 0.62534 0.87184 0.0
H2540 H 0.98194 0.7296 0.86529 0.0
H2541 H 1.02089 0.57165 0.84647 0.0
H2542 H 0.02959 0.65941 0.87015 0.0
H2543 H 0.95485 0.62672 0.84409 0.0
C2544 C 0.94339 0.67108 0.84755 0.0
C2545 C 0.95086 0.70075 0.85343 0.0
C2546 C 0.0275 0.64012 0.86495 0.0
C2547 C 0.98564 0.65676 0.85594 0.0
C2548 C 0.04722 0.62046 0.86592 0.0
C2549 C 0.04568 0.59551 0.85927 0.0
C2550 C 1.00574 0.63489 0.85729 0.0
C2551 C 1.02307 0.59057 0.85177 0.0
C2552 C 0.96075 0.64917 0.84876 0.0
C2553 C 0.97546 0.70711 0.86058 0.0
N2554 N 1.0041 0.6101 0.85097 0.0
N2555 N 0.99195 0.68539 0.86162 0.0
H2556 H 0.37754 0.26478 0.84228 0.0
H2557 H 0.41776 0.44554 0.87153 0.0
H2558 H 0.31365 0.25874 0.86564 0.0
H2559 H 0.47065 0.45441 0.84613 0.0
H2560 H 0.38375 0.37687 0.87009 0.0
H2561 H 0.41589 0.3335 0.84421 0.0
C2562 C 0.37173 0.2779 0.84785 0.0
C2563 C 0.34223 0.25599 0.85379 0.0
C2564 C 0.40285 0.39375 0.86484 0.0
C2565 C 0.38611 0.33479 0.85604 0.0
C2566 C 0.42247 0.43314 0.86565 0.0
C2567 C 0.44718 0.45611 0.85892 0.0
C2568 C 0.40789 0.37677 0.85724 0.0
C2569 C 0.45192 0.43802 0.85149 0.0
C2570 C 0.39358 0.31717 0.84893 0.0
C2571 C 0.33601 0.27453 0.86088 0.0
N2572 N 0.43244 0.39951 0.85084 0.0
N2573 N 0.35768 0.31277 0.8618 0.0
H2574 H 0.65165 0.92124 1.01325 0.0
H2575 H 0.79656 0.10199 0.04197 0.0
H2576 H 0.69765 0.91225 0.03837 0.0
H2577 H 0.73797 0.10835 1.01876 0.0
H2578 H 0.76515 0.03312 0.04015 0.0
H2579 H 0.68742 0.98995 1.01456 0.0
C2580 C 0.66941 0.93363 1.01904 0.0
C2581 C 0.6714 0.91063 0.02573 0.0
C2582 C 0.75925 0.04955 0.03543 0.0
C2583 C 0.71273 0.98999 0.02727 0.0
C2584 C 0.77726 0.08891 0.03645 0.0
C2585 C 0.76976 0.11094 0.03053 0.0
C2586 C 0.73364 0.03202 0.02839 0.0
C2587 C 0.7445 0.09246 1.0235 0.0
C2588 C 0.68984 0.97304 1.01978 0.0
C2589 C 0.69508 0.92867 0.03305 0.0
N2590 N 0.72735 0.05417 1.02264 0.0
N2591 N 0.71472 0.9672 0.03363 0.0
H2592 H 0.93034 0.63488 1.0174 0.0
H2593 H 0.12973 0.79905 0.03606 0.0
H2594 H 0.94081 0.70199 0.04046 0.0
H2595 H 0.11777 0.739 1.01158 0.0
H2596 H 0.06077 0.76532 0.03757 0.0
H2597 H 0.99871 0.6738 1.01495 0.0
C2598 C 0.94702 0.65795 1.02192 0.0
C2599 C 0.92985 0.66509 0.02917 0.0
C2600 C 0.07321 0.75971 0.03183 0.0
C2601 C 1.00837 0.70978 0.02644 0.0
C2602 C 0.1127 0.77906 0.03095 0.0
C2603 C 0.12988 0.77194 1.02368 0.0
C2604 C 0.05046 0.73274 1.02543 0.0
C2605 C 0.10603 0.74556 1.0173 0.0
C2606 C 0.9861 0.6802 1.02053 0.0
C2607 C 0.95287 0.69543 0.03481 0.0
N2608 N 0.06773 0.72683 1.01836 0.0
N2609 N 0.99089 0.71646 0.03336 0.0
H2610 H 0.24654 0.34106 0.03909 0.0
H2611 H 0.40546 0.30091 1.01904 0.0
H2612 H 0.30183 0.38424 1.01388 0.0
H2613 H 0.34117 0.24551 0.04254 0.0
H2614 H 0.36726 0.33135 1.01707 0.0
H2615 H 0.28019 0.30552 0.04054 0.0
C2616 C 0.26553 0.34295 0.03384 0.0
C2617 C 0.27134 0.36588 0.02636 0.0
C2618 C 0.3613 0.3124 1.02264 0.0
C2619 C 0.31021 0.32537 0.02801 0.0
C2620 C 0.38314 0.29501 1.02376 0.0
C2621 C 0.37655 0.27072 0.03097 0.0
C2622 C 0.33273 0.30575 0.02881 0.0
C2623 C 0.34722 0.26407 0.03688 0.0
C2624 C 0.28477 0.32263 0.03467 0.0
C2625 C 0.29639 0.3671 1.01978 0.0
N2626 N 0.32656 0.28164 0.03571 0.0
N2627 N 0.31494 0.34739 1.02078 0.0
H2628 H 0.12064 0.38909 0.51303 0.0
H2629 H 0.93937 0.24585 0.5418 0.0
H2630 H 0.1292 0.34319 0.5382 0.0
H2631 H 0.93349 0.30486 0.51864 0.0
H2632 H 1.00823 0.27666 0.53996 0.0
H2633 H 0.05187 0.35401 0.51436 0.0
C2634 C 0.10815 0.37148 0.51883 0.0
C2635 C 0.13105 0.36933 0.52554 0.0
C2636 C 0.9919 0.2828 0.53526 0.0
C2637 C 0.05163 0.3288 0.52709 0.0
C2638 C 0.95256 0.26514 0.53629 0.0
C2639 C 0.93066 0.27291 0.53038 0.0
C2640 C 1.00958 0.30832 0.52823 0.0
C2641 C 0.94927 0.29812 0.52336 0.0
C2642 C 0.06871 0.35146 0.51959 0.0
C2643 C 0.11286 0.34587 0.53287 0.0
N2644 N 0.98757 0.31492 0.52249 0.0
N2645 N 0.07432 0.32662 0.53346 0.0
H2646 H 0.69884 0.79537 0.53887 0.0
H2647 H 0.73701 0.63534 0.51868 0.0
H2648 H 0.65373 0.7394 0.5138 0.0
H2649 H 0.79364 0.70009 0.54205 0.0
H2650 H 0.70662 0.67366 0.51679 0.0
H2651 H 0.73414 0.76145 0.54019 0.0
C2652 C 0.69648 0.77617 0.53362 0.0
C2653 C 0.67308 0.77026 0.52622 0.0
C2654 C 0.72582 0.67968 0.52231 0.0
C2655 C 0.71333 0.73105 0.52773 0.0
C2656 C 0.7432 0.65778 0.52339 0.0
C2657 C 0.76782 0.66447 0.53054 0.0
C2658 C 0.73285 0.70841 0.52847 0.0
C2659 C 0.77481 0.69395 0.53644 0.0
C2660 C 0.71666 0.75677 0.53438 0.0
C2661 C 0.67126 0.74494 0.51964 0.0
N2662 N 0.75727 0.71465 0.53531 0.0
N2663 N 0.69086 0.72622 0.52057 0.0
H2664 H 0.24533 0.91031 0.53824 0.0
H2665 H 0.40588 0.10907 0.51844 0.0
H2666 H 0.30187 0.9219 0.51324 0.0
H2667 H 0.34011 0.10011 0.54166 0.0
H2668 H 0.36774 0.04043 0.51644 0.0
H2669 H 0.2792 0.97942 0.53966 0.0
C2670 C 0.26465 0.92729 0.53302 0.0
C2671 C 0.27071 0.91002 0.52562 0.0
C2672 C 0.36147 0.05342 0.52196 0.0
C2673 C 0.30989 0.98939 0.52724 0.0
C2674 C 0.38327 0.09264 0.5231 0.0
C2675 C 0.37624 0.11032 0.53024 0.0
C2676 C 0.33249 0.03151 0.52804 0.0
C2677 C 0.34652 0.08763 0.53606 0.0
C2678 C 0.28403 0.96681 0.53384 0.0
C2679 C 0.2962 0.93371 0.51908 0.0
N2680 N 0.32592 0.04945 0.53487 0.0
N2681 N 0.31489 0.97197 0.52007 0.0
H2682 H 0.06442 0.44569 0.37118 0.0
H2683 H 0.92111 0.26385 0.34258 0.0
H2684 H 1.01954 0.45397 0.34583 0.0
H2685 H 0.98181 0.25879 0.36551 0.0
H2686 H 0.95205 0.33273 0.34431 0.0
H2687 H 0.02964 0.37699 0.36986 0.0
C2688 C 0.0471 0.43315 0.36534 0.0
C2689 C 0.04515 0.45598 0.35859 0.0
C2690 C 0.95854 0.31658 0.34898 0.0
C2691 C 1.00492 0.37656 0.35704 0.0
C2692 C 0.9408 0.27722 0.34801 0.0
C2693 C 0.94898 0.25552 0.35389 0.0
C2694 C 0.98452 0.3345 0.35593 0.0
C2695 C 0.97473 0.27439 0.36081 0.0
C2696 C 0.02726 0.39374 0.36458 0.0
C2697 C 1.02206 0.4377 0.35119 0.0
N2698 N 0.99155 0.31269 0.36163 0.0
N2699 N 1.00293 0.39915 0.35062 0.0
H2700 H 0.78791 0.72246 0.36629 0.0
H2701 H 0.58534 0.57805 0.34478 0.0
H2702 H 0.77114 0.68872 0.33879 0.0
H2703 H 0.59865 0.62052 0.37157 0.0
H2704 H 0.65407 0.61409 0.34295 0.0
H2705 H 0.71956 0.68137 0.36884 0.0
C2706 C 0.76992 0.70612 0.36082 0.0
C2707 C 0.78523 0.70887 0.35233 0.0
C2708 C 0.64201 0.61542 0.34925 0.0
C2709 C 0.70705 0.66202 0.35515 0.0
C2710 C 0.60264 0.59467 0.35031 0.0
C2711 C 0.58591 0.59624 0.35834 0.0
C2712 C 0.66511 0.63797 0.35626 0.0
C2713 C 0.6101 0.61846 0.36525 0.0
C2714 C 0.73089 0.6828 0.36226 0.0
C2715 C 0.76054 0.68744 0.34544 0.0
N2716 N 0.64832 0.63847 0.36404 0.0
N2717 N 0.72284 0.66503 0.347 0.0
H2718 H 0.31053 0.06046 0.3661 0.0
H2719 H 0.47222 0.02304 0.34658 0.0
H2720 H 0.37619 0.11707 0.34285 0.0
H2721 H 0.41532 0.97812 0.37154 0.0
H2722 H 0.43796 0.05794 0.34504 0.0
H2723 H 0.34897 0.03026 0.36817 0.0
C2724 C 0.33317 0.06665 0.36145 0.0
C2725 C 0.34008 0.09124 0.35428 0.0
C2726 C 0.43314 0.04058 0.35088 0.0
C2727 C 0.38422 0.05652 0.35657 0.0
C2728 C 0.45275 0.02064 0.35176 0.0
C2729 C 0.44671 0.99741 0.35919 0.0
C2730 C 0.40706 0.0372 0.35744 0.0
C2731 C 0.42101 0.99553 0.36568 0.0
C2732 C 0.35515 0.04941 0.36263 0.0
C2733 C 0.36986 0.09828 0.34847 0.0
N2734 N 0.4021 1.0149 0.36463 0.0
N2735 N 0.39065 0.08087 0.34971 0.0
H2736 H 0.16052 0.30592 0.08436 0.0
H2737 H 0.20295 0.39249 0.13366 0.0
H2738 H 0.22155 0.42562 0.08991 0.0
H2739 H 0.14453 0.27279 0.1281 0.0
H2740 H 0.21205 0.40518 0.1177 0.0
H2741 H 0.1564 0.29325 0.10032 0.0
C2742 C 0.17312 0.32958 0.08892 0.0
C2743 C 0.19135 0.36694 0.08573 0.0
C2744 C 0.19742 0.37612 0.11997 0.0
C2745 C 0.18683 0.35256 0.10411 0.0
C2746 C 0.19206 0.36883 0.1291 0.0
C2747 C 0.17284 0.33146 0.13229 0.0
C2748 C 0.18333 0.34587 0.11391 0.0
C2749 C 0.15991 0.30205 0.12601 0.0
C2750 C 0.17089 0.3223 0.09805 0.0
C2751 C 0.2076 0.39636 0.09201 0.0
N2752 N 0.16519 0.30988 0.11716 0.0
N2753 N 0.20477 0.38855 0.10087 0.0
H2754 H 0.67249 0.87756 0.08704 0.0
H2755 H 0.70189 0.78496 0.13121 0.0
H2756 H 0.67945 0.77552 0.08746 0.0
H2757 H 0.71263 0.89562 0.13102 0.0
H2758 H 0.68995 0.78005 0.11527 0.0
H2759 H 0.68392 0.88388 0.10315 0.0
C2760 C 0.67642 0.8565 0.0905 0.0
C2761 C 0.67523 0.82608 0.08583 0.0
C2762 C 0.69484 0.80543 0.11869 0.0
C2763 C 0.6882 0.83309 0.10429 0.0
C2764 C 0.70135 0.80814 0.12784 0.0
C2765 C 0.70804 0.84067 0.13254 0.0
C2766 C 0.69481 0.83539 0.1141 0.0
C2767 C 0.70782 0.87008 0.1277 0.0
C2768 C 0.68309 0.86022 0.09969 0.0
C2769 C 0.68075 0.79981 0.0907 0.0
N2770 N 0.70121 0.8667 0.11876 0.0
N2771 N 0.68683 0.80386 0.09962 0.0
H2772 H 0.26859 0.92338 0.13245 0.0
H2773 H 0.16515 0.82449 0.08684 0.0
H2774 H 0.15029 0.83873 0.13066 0.0
H2775 H 0.28542 0.90126 0.08899 0.0
H2776 H 0.15891 0.83104 0.10277 0.0
H2777 H 0.2751 0.91669 0.11654 0.0
C2778 C 0.24402 0.90304 0.12875 0.0
C2779 C 0.20882 0.88146 0.13297 0.0
C2780 C 0.18668 0.8465 0.09976 0.0
C2781 C 0.21602 0.87427 0.11461 0.0
C2782 C 0.19032 0.84267 0.09065 0.0
C2783 C 0.22595 0.86216 0.08652 0.0
C2784 C 0.21885 0.87008 0.10485 0.0
C2785 C 0.25734 0.88594 0.09183 0.0
C2786 C 0.24773 0.89949 0.11963 0.0
C2787 C 0.17789 0.85627 0.12772 0.0
N2788 N 0.25307 0.88913 0.1007 0.0
N2789 N 0.18222 0.85341 0.11884 0.0
H2790 H 0.427 0.23942 0.46151 0.0
H2791 H 0.27765 0.11636 0.42362 0.0
H2792 H 0.32596 0.13243 0.4665 0.0
H2793 H 0.38974 0.20849 0.41793 0.0
H2794 H 0.29165 0.12654 0.43951 0.0
H2795 H 0.41066 0.23289 0.44573 0.0
C2796 C 0.40137 0.21454 0.45932 0.0
C2797 C 0.37804 0.18631 0.46542 0.0
C2798 C 0.31316 0.14465 0.43479 0.0
C2799 C 0.35887 0.17899 0.44728 0.0
C2800 C 0.30509 0.13905 0.42571 0.0
C2801 C 0.33253 0.16165 0.4194 0.0
C2802 C 0.34889 0.17327 0.43765 0.0
C2803 C 0.36783 0.19018 0.42254 0.0
C2804 C 0.392 0.21093 0.45029 0.0
C2805 C 0.3447 0.1552 0.46214 0.0
N2806 N 0.37496 0.1952 0.43142 0.0
N2807 N 0.33623 0.15234 0.45332 0.0
H2808 H 0.8469 0.21341 0.41743 0.0
H2809 H 0.88751 0.16849 0.46684 0.0
H2810 H 0.90386 0.15072 0.42316 0.0
H2811 H 0.82754 0.22821 0.46111 0.0
H2812 H 0.89162 0.15957 0.45089 0.0
H2813 H 0.83739 0.21699 0.43337 0.0
C2814 C 0.85737 0.20032 0.42203 0.0
C2815 C 0.87632 0.1818 0.4189 0.0
C2816 C 0.87735 0.17444 0.45312 0.0
C2817 C 0.86538 0.18572 0.43724 0.0
C2818 C 0.87512 0.17969 0.46224 0.0
C2819 C 0.85721 0.19923 0.46537 0.0
C2820 C 0.86174 0.18899 0.44702 0.0
C2821 C 0.84124 0.21258 0.45905 0.0
C2822 C 0.85178 0.20225 0.43114 0.0
C2823 C 0.88872 0.16492 0.42521 0.0
N2824 N 0.84408 0.20742 0.45021 0.0
N2825 N 0.88324 0.16748 0.43405 0.0
H2826 H 0.83062 0.64245 0.41771 0.0
H2827 H 0.86856 0.72792 0.46711 0.0
H2828 H 0.88381 0.76184 0.42337 0.0
H2829 H 0.81544 0.60857 0.46139 0.0
H2830 H 0.87705 0.7411 0.45116 0.0
H2831 H 0.82748 0.62974 0.43366 0.0
C2832 C 0.84169 0.66604 0.42229 0.0
C2833 C 0.8574 0.70331 0.41913 0.0
C2834 C 0.86372 0.71203 0.45339 0.0
C2835 C 0.85403 0.68888 0.4375 0.0
C2836 C 0.85871 0.70444 0.46252 0.0
C2837 C 0.84113 0.66702 0.46566 0.0
C2838 C 0.85096 0.68201 0.4473 0.0
C2839 C 0.82954 0.63789 0.45934 0.0
C2840 C 0.84002 0.65875 0.43142 0.0
C2841 C 0.87182 0.73268 0.42544 0.0
N2842 N 0.83446 0.64598 0.4505 0.0
N2843 N 0.8696 0.72483 0.43429 0.0
H2844 H 0.87158 0.75285 0.92226 0.0
H2845 H 0.84166 0.60249 0.9602 0.0
H2846 H 0.87615 0.65096 0.91739 0.0
H2847 H 0.86185 0.71468 0.96586 0.0
H2848 H 0.84663 0.61677 0.94433 0.0
H2849 H 0.86088 0.73642 0.93802 0.0
C2850 C 0.87035 0.72701 0.92447 0.0
C2851 C 0.8751 0.70346 0.91841 0.0
C2852 C 0.84982 0.63824 0.94903 0.0
C2853 C 0.86225 0.6842 0.93653 0.0
C2854 C 0.8467 0.63001 0.95811 0.0
C2855 C 0.85125 0.65739 0.96441 0.0
C2856 C 0.85733 0.67408 0.94616 0.0
C2857 C 0.85844 0.6928 0.96126 0.0
C2858 C 0.86409 0.7176 0.93349 0.0
C2859 C 0.87227 0.6699 0.92172 0.0
N2860 N 0.8612 0.70009 0.95238 0.0
N2861 N 0.86617 0.66138 0.93053 0.0
H2862 H 0.39066 0.18585 0.91784 0.0
H2863 H 0.32606 0.2046 0.96693 0.0
H2864 H 0.28204 0.17452 0.9238 0.0
H2865 H 0.42455 0.19423 0.96168 0.0
H2866 H 0.30998 0.19441 0.95117 0.0
H2867 H 0.4046 0.19073 0.93379 0.0
C2868 C 0.36972 0.18436 0.92249 0.0
C2869 C 0.33506 0.17966 0.91943 0.0
C2870 C 0.33502 0.19417 0.95347 0.0
C2871 C 0.35089 0.18532 0.93776 0.0
C2872 C 0.34412 0.1997 0.96252 0.0
C2873 C 0.37685 0.20038 0.96574 0.0
C2874 C 0.35886 0.1895 0.9475 0.0
C2875 C 0.39941 0.19464 0.95956 0.0
C2876 C 0.37762 0.18696 0.93161 0.0
C2877 C 0.30892 0.1776 0.92582 0.0
N2878 N 0.39012 0.18967 0.95077 0.0
N2879 N 0.31744 0.18065 0.93463 0.0
H2880 H 0.872 0.11528 0.92341 0.0
H2881 H 0.84568 0.23855 0.96122 0.0
H2882 H 0.85341 0.20829 0.91765 0.0
H2883 H 0.83999 0.13168 0.96627 0.0
H2884 H 0.85544 0.23195 0.94545 0.0
H2885 H 0.86772 0.12526 0.93928 0.0
C2886 C 0.86744 0.13811 0.92548 0.0
C2887 C 0.86315 0.16103 0.91914 0.0
C2888 C 0.85219 0.21002 0.95002 0.0
C2889 C 0.85787 0.17242 0.93739 0.0
C2890 C 0.84646 0.21367 0.95905 0.0
C2891 C 0.84169 0.18552 0.96516 0.0
C2892 C 0.85347 0.17811 0.94702 0.0
C2893 C 0.84392 0.1544 0.96189 0.0
C2894 C 0.86472 0.1436 0.93455 0.0
C2895 C 0.85659 0.18972 0.92226 0.0
N2896 N 0.84952 0.15152 0.95307 0.0
N2897 N 0.85422 0.19462 0.93115 0.0
H2898 H 0.73501 0.88027 0.58437 0.0
H2899 H 0.6494 0.83887 0.63375 0.0
H2900 H 0.61534 0.8195 0.59004 0.0
H2901 H 0.76906 0.8966 0.62808 0.0
H2902 H 0.63637 0.82945 0.6178 0.0
H2903 H 0.74803 0.88447 0.60033 0.0
C2904 C 0.71143 0.86773 0.58896 0.0
C2905 C 0.67397 0.84956 0.5858 0.0
C2906 C 0.66549 0.84399 0.62004 0.0
C2907 C 0.68875 0.8542 0.60417 0.0
C2908 C 0.67297 0.84953 0.62917 0.0
C2909 C 0.71043 0.86866 0.63232 0.0
C2910 C 0.69564 0.85783 0.61396 0.0
C2911 C 0.73973 0.88131 0.62602 0.0
C2912 C 0.7189 0.87001 0.59808 0.0
C2913 C 0.64466 0.8334 0.59211 0.0
N2914 N 0.73172 0.87587 0.61717 0.0
N2915 N 0.65266 0.83629 0.60096 0.0
H2916 H 0.16217 0.86325 0.58349 0.0
H2917 H 0.20539 0.82159 0.63297 0.0
H2918 H 0.22326 0.80473 0.5893 0.0
H2919 H 0.14761 0.88339 0.62714 0.0
H2920 H 0.21425 0.81714 0.61703 0.0
H2921 H 0.1586 0.87291 0.59942 0.0
C2922 C 0.17491 0.85247 0.5881 0.0
C2923 C 0.19299 0.83304 0.585 0.0
C2924 C 0.19983 0.83188 0.61923 0.0
C2925 C 0.18907 0.84415 0.60333 0.0
C2926 C 0.19462 0.8343 0.62835 0.0
C2927 C 0.17563 0.85284 0.63145 0.0
C2928 C 0.18582 0.84792 0.61311 0.0
C2929 C 0.16281 0.86921 0.62511 0.0
C2930 C 0.17299 0.85814 0.59721 0.0
C2931 C 0.20942 0.82024 0.59133 0.0
N2932 N 0.16793 0.86617 0.61627 0.0
N2933 N 0.20687 0.82581 0.60016 0.0
H2934 H 0.23672 0.42859 0.58966 0.0
H2935 H 0.15911 0.27221 0.6283 0.0
H2936 H 0.18007 0.30847 0.58469 0.0
H2937 H 0.2214 0.39237 0.63327 0.0
H2938 H 0.16247 0.28493 0.61236 0.0
H2939 H 0.2273 0.41582 0.60559 0.0
C2940 C 0.22186 0.39948 0.59189 0.0
C2941 C 0.20919 0.36959 0.58575 0.0
C2942 C 0.17526 0.30854 0.61693 0.0
C2943 C 0.19878 0.35474 0.60412 0.0
C2944 C 0.1731 0.30131 0.62607 0.0
C2945 C 0.19 0.33123 0.6322 0.0
C2946 C 0.19442 0.34603 0.61384 0.0
C2947 C 0.20834 0.36833 0.62883 0.0
C2948 C 0.21676 0.39222 0.60102 0.0
C2949 C 0.19077 0.33249 0.58913 0.0
N2950 N 0.2101 0.37464 0.6199 0.0
N2951 N 0.18619 0.32616 0.59805 0.0
H2952 H 1.01964 0.54324 0.75436 0.0
H2953 H 0.02591 0.44091 0.79927 0.0
H2954 H 0.98899 0.42572 0.75573 0.0
H2955 H 0.05168 0.55706 0.79812 0.0
H2956 H 1.01277 0.43499 0.78336 0.0
H2957 H 0.03262 0.5491 0.77029 0.0
C2958 C 1.01551 0.51858 0.758 0.0
C2959 C 1.00295 0.48383 0.75365 0.0
C2960 C 1.02121 0.46176 0.78658 0.0
C2961 C 1.01817 0.49052 0.77198 0.0
C2962 C 0.02843 0.46512 0.79571 0.0
C2963 C 0.03978 0.49954 0.80011 0.0
C2964 C 1.02538 0.49304 0.78174 0.0
C2965 C 0.04338 0.53008 0.79503 0.0
C2966 C 1.0231 0.52203 0.76712 0.0
C2967 C 0.99893 0.45315 0.75874 0.0
N2968 N 0.03621 0.5261 0.78614 0.0
N2969 N 1.00638 0.45719 0.76762 0.0
H2970 H 0.57227 0.48488 0.75632 0.0
H2971 H 0.49417 0.56364 0.79486 0.0
H2972 H 0.51509 0.5479 0.75127 0.0
H2973 H 0.55674 0.50599 0.79992 0.0
H2974 H 0.49766 0.55425 0.77893 0.0
H2975 H 0.56294 0.48845 0.77225 0.0
C2976 C 0.55732 0.49909 0.75853 0.0
C2977 C 0.54447 0.51611 0.75237 0.0
C2978 C 0.5105 0.54349 0.78352 0.0
C2979 C 0.53414 0.52078 0.77073 0.0
C2980 C 0.50826 0.54857 0.79265 0.0
C2981 C 0.52518 0.53561 0.79881 0.0
C2982 C 0.52976 0.52521 0.78045 0.0
C2983 C 0.54365 0.51692 0.79546 0.0
C2984 C 0.55227 0.50137 0.76766 0.0
C2985 C 0.52593 0.53473 0.75573 0.0
N2986 N 0.54548 0.51236 0.78654 0.0
N2987 N 0.5214 0.5366 0.76465 0.0
H2988 H 0.54116 0.09914 0.75695 0.0
H2989 H 0.51356 0.94818 0.79451 0.0
H2990 H 0.52116 0.98721 0.75103 0.0
H2991 H 0.50866 0.04965 0.79973 0.0
H2992 H 0.5238 0.96512 0.77878 0.0
H2993 H 0.53721 0.08465 0.7728 0.0
C2994 C 0.53638 0.07163 0.75898 0.0
C2995 C 0.53155 0.04438 0.75261 0.0
C2996 C 0.52064 0.98374 0.78338 0.0
C2997 C 0.52665 0.02745 0.77083 0.0
C2998 C 0.51464 0.97404 0.79238 0.0
C2999 C 0.50989 0.99731 0.79853 0.0
C3000 C 0.52221 0.01715 0.78044 0.0
C3001 C 0.51253 0.03093 0.79532 0.0
C3002 C 0.53384 0.06329 0.76804 0.0
C3003 C 0.52474 1.00898 0.75568 0.0
N3004 N 0.51836 0.03972 0.78652 0.0
N3005 N 0.52253 1.00157 0.76455 0.0
H3006 H 0.50051 0.02545 0.25442 0.0
H3007 H 0.60169 0.0171 0.29935 0.0
H3008 H 0.61762 0.05436 0.25584 0.0
H3009 H 0.4857 0.9921 0.29811 0.0
H3010 H 0.6079 0.03047 0.28345 0.0
H3011 H 0.4943 1.01211 0.27033 0.0
C3012 C 0.525 0.02912 0.25807 0.0
C3013 C 0.55974 0.0413 0.25374 0.0
C3014 C 0.5811 0.02214 0.28665 0.0
C3015 C 0.55266 0.02568 0.27205 0.0
C3016 C 0.57758 1.0148 0.29577 0.0
C3017 C 0.54313 1.00361 0.30014 0.0
C3018 C 0.54995 0.01828 0.28179 0.0
C3019 C 0.51271 1.00028 0.29505 0.0
C3020 C 0.52136 0.02132 0.26717 0.0
C3021 C 0.5902 0.04474 0.25884 0.0
N3022 N 0.51685 1.00759 0.28616 0.0
N3023 N 0.58598 0.03711 0.2677 0.0
H3024 H 0.98251 0.50348 0.30011 0.0
H3025 H 0.06714 0.54761 0.25063 0.0
H3026 H 0.10207 0.5628 0.29431 0.0
H3027 H 0.94759 0.48572 0.25643 0.0
H3028 H 0.08049 0.55145 0.26656 0.0
H3029 H 0.96919 0.49471 0.28417 0.0
C3030 C 1.00601 0.51464 0.2955 0.0
C3031 C 0.04352 0.53401 0.29862 0.0
C3032 C 0.05132 0.53684 0.26435 0.0
C3033 C 0.02839 0.5239 0.28026 0.0
C3034 C 0.04365 0.53476 0.25523 0.0
C3035 C 1.00613 0.51637 0.25212 0.0
C3036 C 1.02131 0.52058 0.27047 0.0
C3037 C 0.97696 0.49981 0.25846 0.0
C3038 C 0.99836 0.50946 0.28638 0.0
C3039 C 0.07271 0.54729 0.29227 0.0
N3040 N 0.98516 0.50249 0.2673 0.0
N3041 N 0.06454 0.54219 0.28343 0.0
H3042 H 0.55625 0.47032 0.25646 0.0
H3043 H 0.47831 0.54973 0.29489 0.0
H3044 H 0.49446 0.52869 0.25133 0.0
H3045 H 0.5344 0.48572 0.30003 0.0
H3046 H 0.48799 0.54627 0.27898 0.0
H3047 H 0.55254 0.47966 0.27239 0.0
C3048 C 0.54229 0.48553 0.25866 0.0
C3049 C 0.52565 0.49871 0.25248 0.0
C3050 C 0.49835 0.53311 0.28358 0.0
C3051 C 0.52081 0.50906 0.27083 0.0
C3052 C 0.4931 0.53533 0.2927 0.0
C3053 C 0.50553 0.518 0.29888 0.0
C3054 C 0.51626 0.51345 0.28053 0.0
C3055 C 0.52388 0.49914 0.29555 0.0
C3056 C 0.53992 0.49059 0.26778 0.0
C3057 C 0.50733 0.51759 0.2558 0.0
N3058 N 0.52861 0.49734 0.28664 0.0
N3059 N 0.50537 0.52213 0.26472 0.0
H3060 H 0.99655 0.11806 0.29721 0.0
H3061 H 0.05199 0.25259 0.25435 0.0
H3062 H 0.98203 0.21564 0.2957 0.0
H3063 H 0.06647 0.15501 0.25598 0.0
H3064 H 0.02672 0.23987 0.26947 0.0
H3065 H 1.02293 0.13171 0.28221 0.0
C3066 C 0.99919 0.14258 0.29377 0.0
C3067 C 0.98698 0.16572 0.29779 0.0
C3068 C 0.03537 0.22119 0.26652 0.0
C3069 C 1.01686 0.18127 0.28046 0.0
C3070 C 0.04999 0.22854 0.25788 0.0
C3071 C 0.06147 0.20487 0.25382 0.0
C3072 C 0.03216 0.18993 0.27121 0.0
C3073 C 0.05756 0.17379 0.25874 0.0
C3074 C 1.01404 0.1502 0.28516 0.0
C3075 C 0.99057 0.19669 0.29288 0.0
N3076 N 0.04336 0.16732 0.26714 0.0
N3077 N 1.00514 0.20353 0.2845 0.0
H3078 H 0.8302 0.78561 0.2971 0.0
H3079 H 0.90321 0.91601 0.25348 0.0
H3080 H 0.94335 0.88046 0.29421 0.0
H3081 H 0.79087 0.8196 0.25607 0.0
H3082 H 0.91861 0.90287 0.26827 0.0
H3083 H 0.81547 0.7972 0.28207 0.0
C3084 C 0.85207 0.80877 0.29331 0.0
C3085 C 0.88815 0.83205 0.297 0.0
C3086 C 0.8906 0.88452 0.2656 0.0
C3087 C 0.8712 0.84577 0.27972 0.0
C3088 C 0.88184 0.89184 0.2571 0.0
C3089 C 0.84562 0.86891 0.25346 0.0
C3090 C 0.86303 0.85397 0.27056 0.0
C3091 C 0.81899 0.83841 0.25861 0.0
C3092 C 0.84353 0.8155 0.28473 0.0
C3093 C 0.91499 0.86202 0.29175 0.0
N3094 N 0.8282 0.83188 0.26687 0.0
N3095 N 0.90599 0.86796 0.28342 0.0
H3096 H 0.27032 0.08233 0.29375 0.0
H3097 H 0.11287 0.94306 0.25902 0.0
H3098 H 0.15113 0.01681 0.29974 0.0
H3099 H 0.23078 1.01332 0.25221 0.0
H3100 H 0.12703 0.96839 0.27408 0.0
H3101 H 0.25722 0.05533 0.27877 0.0
C3102 C 0.24143 0.06202 0.29195 0.0
C3103 C 0.21179 0.05197 0.29805 0.0
C3104 C 0.14985 0.97833 0.2693 0.0
C3105 C 0.19652 0.02118 0.28082 0.0
C3106 C 0.14174 0.96405 0.26065 0.0
C3107 C 0.17058 0.9762 0.25425 0.0
C3108 C 0.18717 1.00503 0.27166 0.0
C3109 C 0.20761 1.00281 0.2569 0.0
C3110 C 0.23394 0.04681 0.28336 0.0
C3111 C 0.17486 0.02588 0.29526 0.0
N3112 N 0.2148 1.01636 0.26537 0.0
N3113 N 0.16832 1.01148 0.28688 0.0
H3114 H 0.0356 0.88891 0.79978 0.0
H3115 H 1.02288 0.8113 0.75014 0.0
H3116 H 0.95497 0.77492 0.7918 0.0
H3117 H 0.10486 0.92413 0.7586 0.0
H3118 H 0.99824 0.79683 0.76533 0.0
H3119 H 0.06158 0.90182 0.78474 0.0
C3120 C 1.02325 0.86656 0.79487 0.0
C3121 C 0.99286 0.83077 0.7971 0.0
C3122 C 1.02162 0.82476 0.76386 0.0
C3123 C 1.02281 0.84538 0.77978 0.0
C3124 C 0.03586 0.83302 0.75518 0.0
C3125 C 0.06597 0.86912 0.75301 0.0
C3126 C 0.03755 0.85274 0.77048 0.0
C3127 C 0.08121 0.89614 0.75986 0.0
C3128 C 0.03826 0.87392 0.78627 0.0
C3129 C 0.97861 0.80282 0.79044 0.0
N3130 N 0.06687 0.88742 0.76824 0.0
N3131 N 0.99356 0.81075 0.7821 0.0
H3132 H 0.1123 0.17487 0.75839 0.0
H3133 H 0.27019 0.19691 0.79355 0.0
H3134 H 0.23111 0.22739 0.75201 0.0
H3135 H 0.15057 0.14019 0.79924 0.0
H3136 H 0.25708 0.21068 0.77855 0.0
H3137 H 0.12631 0.16347 0.77346 0.0
C3138 C 0.14135 0.18378 0.76011 0.0
C3139 C 0.17048 0.20193 0.75383 0.0
C3140 C 0.23371 0.19528 0.78309 0.0
C3141 C 0.18688 0.1894 0.77126 0.0
C3142 C 0.24119 0.18762 0.79169 0.0
C3143 C 0.21146 0.16722 0.79772 0.0
C3144 C 0.19619 0.1826 0.78044 0.0
C3145 C 0.17441 0.15549 0.79483 0.0
C3146 C 0.14937 0.17747 0.76877 0.0
C3147 C 0.20769 0.21359 0.7566 0.0
N3148 N 0.16789 0.16331 0.78643 0.0
N3149 N 0.21478 0.20707 0.76508 0.0
H3150 H 0.93763 0.09474 0.79202 0.0
H3151 H 0.78149 0.94868 0.75797 0.0
H3152 H 0.82154 0.01862 0.79944 0.0
H3153 H 0.89927 0.02062 0.75131 0.0
H3154 H 0.79463 0.97572 0.77294 0.0
H3155 H 0.92332 0.06914 0.77698 0.0
C3156 C 0.90915 0.07242 0.79053 0.0
C3157 C 0.88087 0.0587 0.7971 0.0
C3158 C 0.81759 0.98564 0.7682 0.0
C3159 C 0.86407 0.0295 0.77971 0.0
C3160 C 0.81006 0.97039 0.75961 0.0
C3161 C 0.83931 0.98226 0.75332 0.0
C3162 C 0.85465 1.01315 0.77056 0.0
C3163 C 0.87587 1.01013 0.75594 0.0
C3164 C 0.90093 0.05797 0.78189 0.0
C3165 C 0.84426 0.03037 0.79462 0.0
N3166 N 0.88245 0.02454 0.76432 0.0
N3167 N 0.83697 1.01669 0.78615 0.0
H3168 H 0.69242 0.47679 0.6331 0.0
H3169 H 0.69457 0.56119 0.58476 0.0
H3170 H 0.62624 0.5291 0.62637 0.0
H3171 H 0.76333 0.51234 0.59207 0.0
H3172 H 0.66972 0.55053 0.59993 0.0
H3173 H 0.71879 0.49003 0.6181 0.0
C3174 C 0.68332 0.491 0.62847 0.0
C3175 C 0.65686 0.50167 0.63105 0.0
C3176 C 0.69024 0.54214 0.59821 0.0
C3177 C 0.68731 0.51721 0.61377 0.0
C3178 C 0.70462 0.54838 0.58954 0.0
C3179 C 0.73108 0.53753 0.58705 0.0
C3180 C 0.70234 0.52491 0.6045 0.0
C3181 C 0.74253 0.52059 0.59357 0.0
C3182 C 0.69857 0.49873 0.6199 0.0
C3183 C 0.64679 0.52064 0.62476 0.0
N3184 N 0.72813 0.51483 0.60195 0.0
N3185 N 0.66186 0.52763 0.61642 0.0
H3186 H 0.50691 0.18465 0.63524 0.0
H3187 H 0.53042 0.16852 0.58273 0.0
H3188 H 0.57128 0.13746 0.6238 0.0
H3189 H 0.4728 0.22287 0.59417 0.0
H3190 H 0.54397 0.15515 0.5977 0.0
H3191 H 0.49251 0.19715 0.62027 0.0
C3192 C 0.51817 0.17702 0.6296 0.0
C3193 C 0.54039 0.15991 0.63085 0.0
C3194 C 0.52831 0.16996 0.59694 0.0
C3195 C 0.5236 0.17388 0.6136 0.0
C3196 C 0.5207 0.17779 0.58837 0.0
C3197 C 0.50038 0.1969 0.58713 0.0
C3198 C 0.51558 0.18129 0.60437 0.0
C3199 C 0.48806 0.2076 0.59475 0.0
C3200 C 0.50974 0.18401 0.62103 0.0
C3201 C 0.5536 0.15016 0.62322 0.0
N3202 N 0.49587 0.19971 0.60301 0.0
N3203 N 0.54505 0.15731 0.61496 0.0
H3204 H 0.91816 0.44021 0.62364 0.0
H3205 H 0.81072 0.2532 0.59374 0.0
H3206 H 0.85066 0.32806 0.63451 0.0
H3207 H 0.87867 0.36528 0.58285 0.0
H3208 H 0.82598 0.27996 0.60868 0.0
H3209 H 0.90503 0.41321 0.60871 0.0
C3210 C 0.90084 0.40985 0.62291 0.0
C3211 C 0.88562 0.38643 0.6304 0.0
C3212 C 0.83761 0.29873 0.60303 0.0
C3213 C 0.86997 0.35525 0.61321 0.0
C3214 C 0.82911 0.28343 0.59447 0.0
C3215 C 0.84349 0.30693 0.58697 0.0
C3216 C 0.86071 0.33795 0.60417 0.0
C3217 C 0.86655 0.34602 0.5884 0.0
C3218 C 0.89313 0.39446 0.61435 0.0
C3219 C 0.86271 0.34734 0.62897 0.0
N3220 N 0.87443 0.36024 0.59681 0.0
N3221 N 0.85563 0.33303 0.62057 0.0
H3222 H 0.75527 0.16529 0.08995 0.0
H3223 H 0.63123 0.19706 0.12663 0.0
H3224 H 0.70112 0.23166 0.08558 0.0
H3225 H 0.68704 0.13264 0.13159 0.0
H3226 H 0.65587 0.20888 0.11151 0.0
H3227 H 0.72901 0.15105 0.105 0.0
C3228 C 0.73759 0.17661 0.09211 0.0
C3229 C 0.73056 0.19985 0.08646 0.0
C3230 C 0.66281 0.19218 0.11589 0.0
C3231 C 0.7007 0.18396 0.10377 0.0
C3232 C 0.64896 0.18564 0.12458 0.0
C3233 C 0.65723 0.16402 0.13048 0.0
C3234 C 0.6852 0.17703 0.11299 0.0
C3235 C 0.67963 0.14923 0.1273 0.0
C3236 C 0.72281 0.16866 0.10074 0.0
C3237 C 0.70785 0.2141 0.08971 0.0
N3238 N 0.69287 0.15607 0.1188 0.0
N3239 N 0.69384 0.20598 0.09813 0.0
H3240 H 0.90414 0.56034 0.13239 0.0
H3241 H 0.81812 0.47488 0.08436 0.0
H3242 H 0.85266 0.44197 0.12572 0.0
H3243 H 0.87084 0.59374 0.09058 0.0
H3244 H 0.83148 0.46275 0.09944 0.0
H3245 H 0.8935 0.57358 0.11712 0.0
C3246 C 0.89075 0.53712 0.12773 0.0
C3247 C 0.87915 0.49989 0.13043 0.0
C3248 C 0.84024 0.49153 0.09752 0.0
C3249 C 0.86659 0.51493 0.11287 0.0
C3250 C 0.83245 0.49848 0.08889 0.0
C3251 C 0.84316 0.53541 0.08615 0.0
C3252 C 0.85888 0.52166 0.10353 0.0
C3253 C 0.86232 0.56485 0.09233 0.0
C3254 C 0.88452 0.54471 0.119 0.0
C3255 C 0.86151 0.47101 0.12405 0.0
N3256 N 0.86939 0.55733 0.10072 0.0
N3257 N 0.8558 0.47913 0.11562 0.0
H3258 H 0.48255 0.35272 0.13289 0.0
H3259 H 0.56758 0.34837 0.08508 0.0
H3260 H 0.60064 0.4206 0.126 0.0
H3261 H 0.44867 0.28305 0.09137 0.0
H3262 H 0.57988 0.37516 0.10004 0.0
H3263 H 0.46924 0.32733 0.11776 0.0
C3264 C 0.5057 0.36246 0.12821 0.0
C3265 C 0.54288 0.38883 0.13081 0.0
C3266 C 0.55106 0.35503 0.09816 0.0
C3267 C 0.52776 0.35947 0.1134 0.0
C3268 C 0.54401 0.33954 0.0896 0.0
C3269 C 0.50701 0.3132 0.08692 0.0
C3270 C 0.52096 0.34414 0.10415 0.0
C3271 C 0.47761 0.30349 0.09308 0.0
C3272 C 0.49807 0.34777 0.11956 0.0
C3273 C 0.57166 0.39988 0.12441 0.0
N3274 N 0.48523 0.3188 0.10139 0.0
N3275 N 0.5635 0.38519 0.11605 0.0
H3276 H 0.38412 0.91454 0.92013 0.0
H3277 H 0.32324 0.77462 0.96204 0.0
H3278 H 0.39609 0.81536 0.92119 0.0
H3279 H 0.30998 0.87305 0.96108 0.0
H3280 H 0.35029 0.78947 0.94713 0.0
H3281 H 0.35698 0.90002 0.93508 0.0
C3282 C 0.38114 0.88975 0.9235 0.0
C3283 C 0.39248 0.86617 0.91935 0.0
C3284 C 0.3415 0.80786 0.95017 0.0
C3285 C 0.36111 0.84922 0.93651 0.0
C3286 C 0.32626 0.79954 0.95873 0.0
C3287 C 0.31432 0.82264 0.96288 0.0
C3288 C 0.34499 0.8396 0.94566 0.0
C3289 C 0.31836 0.85416 0.95814 0.0
C3290 C 0.36546 0.88138 0.93204 0.0
C3291 C 0.38734 0.83413 0.92404 0.0
N3292 N 0.33336 0.86171 0.94981 0.0
N3293 N 0.37217 0.82669 0.93234 0.0
H3294 H 0.17649 0.43805 0.96126 0.0
H3295 H 0.20588 0.59639 0.92553 0.0
H3296 H 0.24309 0.55808 0.9661 0.0
H3297 H 0.14522 0.47677 0.9198 0.0
H3298 H 0.21792 0.58251 0.94054 0.0
H3299 H 0.16207 0.45126 0.94634 0.0
C3300 C 0.18783 0.46719 0.95923 0.0
C3301 C 0.21117 0.49698 0.96498 0.0
C3302 C 0.20199 0.55925 0.93601 0.0
C3303 C 0.19504 0.51232 0.94781 0.0
C3304 C 0.19531 0.56717 0.92738 0.0
C3305 C 0.17468 0.53777 0.9213 0.0
C3306 C 0.18793 0.52157 0.93867 0.0
C3307 C 0.16097 0.50042 0.92424 0.0
C3308 C 0.17979 0.4747 0.95067 0.0
C3309 C 0.22544 0.53416 0.96189 0.0
N3310 N 0.16788 0.49343 0.93269 0.0
N3311 N 0.21718 0.54073 0.95354 0.0
H3312 H 0.44753 0.61093 0.92524 0.0
H3313 H 0.60239 0.7493 0.9606 0.0
H3314 H 0.56616 0.68026 0.91901 0.0
H3315 H 0.48288 0.68289 0.96617 0.0
H3316 H 0.59039 0.72277 0.94558 0.0
H3317 H 0.46052 0.63604 0.94033 0.0
C3318 C 0.47632 0.63168 0.927 0.0
C3319 C 0.5057 0.64361 0.92075 0.0
C3320 C 0.5668 0.71395 0.95009 0.0
C3321 C 0.52094 0.67222 0.93821 0.0
C3322 C 0.57365 0.7289 0.95871 0.0
C3323 C 0.54361 0.71847 0.96471 0.0
C3324 C 0.52961 0.68819 0.94741 0.0
C3325 C 0.50692 0.69229 0.96178 0.0
C3326 C 0.48376 0.64583 0.93568 0.0
C3327 C 0.54257 0.66992 0.92358 0.0
N3328 N 0.501 0.67815 0.95337 0.0
N3329 N 0.5491 0.68336 0.93207 0.0
H3330 H 0.36277 0.55956 0.46681 0.0
H3331 H 0.3608 0.47532 0.41847 0.0
H3332 H 0.29262 0.4416 0.46012 0.0
H3333 H 0.43315 0.59232 0.42574 0.0
H3334 H 0.33601 0.46199 0.43366 0.0
H3335 H 0.38899 0.57169 0.4518 0.0
C3336 C 0.35277 0.53616 0.46219 0.0
C3337 C 0.32524 0.49948 0.46478 0.0
C3338 C 0.3573 0.49058 0.43193 0.0
C3339 C 0.35551 0.51323 0.44748 0.0
C3340 C 0.37165 0.49822 0.42325 0.0
C3341 C 0.39909 0.53511 0.42074 0.0
C3342 C 0.37044 0.51999 0.4382 0.0
C3343 C 0.41158 0.56359 0.42726 0.0
C3344 C 0.36793 0.54311 0.45361 0.0
C3345 C 0.31401 0.47027 0.45849 0.0
N3346 N 0.39719 0.55544 0.43564 0.0
N3347 N 0.32903 0.47779 0.45015 0.0
H3348 H 0.484 0.8058 0.41842 0.0
H3349 H 0.56481 0.88821 0.46695 0.0
H3350 H 0.53205 0.92359 0.4253 0.0
H3351 H 0.52222 0.7719 0.45934 0.0
H3352 H 0.55368 0.9021 0.45178 0.0
H3353 H 0.498 0.79316 0.4334 0.0
C3354 C 0.49743 0.82904 0.42308 0.0
C3355 C 0.50668 0.86582 0.42056 0.0
C3356 C 0.54677 0.87354 0.45344 0.0
C3357 C 0.52306 0.85152 0.43781 0.0
C3358 C 0.55329 0.86559 0.4621 0.0
C3359 C 0.5443 0.82872 0.4645 0.0
C3360 C 0.53113 0.84446 0.44707 0.0
C3361 C 0.52897 0.80058 0.4579 0.0
C3362 C 0.5056 0.82182 0.43164 0.0
C3363 C 0.52469 0.89486 0.42688 0.0
N3364 N 0.52287 0.80902 0.44953 0.0
N3365 N 0.53211 0.88706 0.43521 0.0
H3366 H 0.15273 0.68249 0.46636 0.0
H3367 H 0.23285 0.69023 0.41723 0.0
H3368 H 0.26741 0.76066 0.45831 0.0
H3369 H 0.11684 0.61439 0.42472 0.0
H3370 H 0.24563 0.71649 0.43224 0.0
H3371 H 0.13856 0.65768 0.45118 0.0
C3372 C 0.17492 0.69461 0.46141 0.0
C3373 C 0.21144 0.72369 0.46369 0.0
C3374 C 0.21733 0.69417 0.43061 0.0
C3375 C 0.19539 0.69505 0.44624 0.0
C3376 C 0.21003 0.679 0.42202 0.0
C3377 C 0.17371 0.64987 0.41966 0.0
C3378 C 0.18817 0.68014 0.43695 0.0
C3379 C 0.14518 0.63704 0.42617 0.0
C3380 C 0.16683 0.68026 0.45274 0.0
C3381 C 0.23905 0.73781 0.45696 0.0
N3382 N 0.15305 0.6521 0.43451 0.0
N3383 N 0.23048 0.72338 0.44859 0.0
loop_
_geom_bond_atom_site_label_1
_geom_bond_atom_site_label_2
_geom_bond_distance
_geom_bond_site_symmetry_2
_ccdc_geom_bond_type
La0 C2 2.928 . S
La0 O20 2.521 . S
La0 O21 2.628 . S
La0 O22 2.554 . S
La0 O23 2.757 . S
La0 O24 2.470 . S
La0 O29 2.482 . S
La0 O31 2.503 . S
La1 C11 2.928 . S
La1 O23 2.482 . S
La1 O25 2.503 . S
La1 O26 2.521 . S
La1 O27 2.628 . S
La1 O28 2.554 . S
La1 O29 2.757 . S
La1 O30 2.470 . S
C2 La0 2.928 . S
C2 C3 1.503 . S
C2 O20 1.261 . S
C2 O21 1.243 . S
C3 C2 1.503 . S
C3 C4 1.394 . S
C3 C8 1.373 . S
C4 C3 1.394 . S
C4 C5 1.380 . S
C4 H32 0.930 . S
C5 C4 1.380 . S
C5 C6 1.376 . S
C5 H33 0.930 . S
C6 C5 1.376 . S
C6 C7 1.370 . S
C7 C6 1.370 . S
C7 C8 1.396 . S
C7 H34 0.929 . S
C8 C3 1.373 . S
C8 C7 1.396 . S
C8 H35 0.929 . S
C9 O22 1.240 . S
C9 O23 1.289 . S
C10 O24 1.258 . S
C10 O25 1.256 . S
C11 La1 2.928 . S
C11 C12 1.503 . S
C11 O26 1.261 . S
C11 O27 1.243 . S
C12 C11 1.503 . S
C12 C13 1.394 . S
C12 C17 1.373 . S
C13 C12 1.394 . S
C13 C14 1.380 . S
C13 H36 0.930 . S
C14 C13 1.380 . S
C14 C15 1.376 . S
C14 H37 0.930 . S
C15 C14 1.376 . S
C15 C16 1.370 . S
C16 C15 1.370 . S
C16 C17 1.396 . S
C16 H38 0.929 . S
C17 C12 1.373 . S
C17 C16 1.396 . S
C17 H39 0.929 . S
C18 O28 1.240 . S
C18 O29 1.289 . S
C19 O30 1.258 . S
C19 O31 1.256 . S
O20 La0 2.521 . S
O20 C2 1.261 . S
O21 La0 2.628 . S
O21 C2 1.243 . S
O22 La0 2.554 . S
O22 C9 1.240 . S
O23 La0 2.757 . S
O23 La1 2.482 . S
O23 C9 1.289 . S
O24 La0 2.470 . S
O24 C10 1.258 . S
O25 La1 2.503 . S
O25 C10 1.256 . S
O26 La1 2.521 . S
O26 C11 1.261 . S
O27 La1 2.628 . S
O27 C11 1.243 . S
O28 La1 2.554 . S
O28 C18 1.240 . S
O29 La0 2.482 . S
O29 La1 2.757 . S
O29 C18 1.289 . S
O30 La1 2.470 . S
O30 C19 1.258 . S
O31 La0 2.503 . S
O31 C19 1.256 . S
H32 C4 0.930 . S
H33 C5 0.930 . S
H34 C7 0.929 . S
H35 C8 0.929 . S
H36 C13 0.930 . S
H37 C14 0.930 . S
H38 C16 0.929 . S
H39 C17 0.929 . S
La40 C42 2.928 . S
La40 O60 2.521 . S
La40 O61 2.628 . S
La40 O62 2.554 . S
La40 O63 2.757 . S
La40 O64 2.470 . S
La40 O69 2.482 . S
La40 O71 2.503 . S
La41 C51 2.928 . S
La41 O63 2.482 . S
La41 O65 2.503 . S
La41 O66 2.521 . S
La41 O67 2.628 . S
La41 O68 2.554 . S
La41 O69 2.757 . S
La41 O70 2.470 . S
C42 La40 2.928 . S
C42 C43 1.503 . S
C42 O60 1.261 . S
C42 O61 1.243 . S
C43 C42 1.503 . S
C43 C44 1.394 . S
C43 C48 1.373 . S
C44 C43 1.394 . S
C44 C45 1.380 . S
C44 H72 0.930 . S
C45 C44 1.380 . S
C45 C46 1.376 . S
C45 H73 0.930 . S
C46 C45 1.376 . S
C46 C47 1.370 . S
C47 C46 1.370 . S
C47 C48 1.396 . S
C47 H74 0.929 . S
C48 C43 1.373 . S
C48 C47 1.396 . S
C48 H75 0.929 . S
C49 O62 1.240 . S
C49 O63 1.289 . S
C50 O64 1.258 . S
C50 O65 1.256 . S
C51 La41 2.928 . S
C51 C52 1.503 . S
C51 O66 1.261 . S
C51 O67 1.243 . S
C52 C51 1.503 . S
C52 C53 1.394 . S
C52 C57 1.373 . S
C53 C52 1.394 . S
C53 C54 1.380 . S
C53 H76 0.930 . S
C54 C53 1.380 . S
C54 C55 1.376 . S
C54 H77 0.930 . S
C55 C54 1.376 . S
C55 C56 1.370 . S
C56 C55 1.370 . S
C56 C57 1.396 . S
C56 H78 0.929 . S
C57 C52 1.373 . S
C57 C56 1.396 . S
C57 H79 0.929 . S
C58 O68 1.240 . S
C58 O69 1.289 . S
C59 O70 1.258 . S
C59 O71 1.256 . S
O60 La40 2.521 . S
O60 C42 1.261 . S
O61 La40 2.628 . S
O61 C42 1.243 . S
O62 La40 2.554 . S
O62 C49 1.240 . S
O63 La40 2.757 . S
O63 La41 2.482 . S
O63 C49 1.289 . S
O64 La40 2.470 . S
O64 C50 1.258 . S
O65 La41 2.503 . S
O65 C50 1.256 . S
O66 La41 2.521 . S
O66 C51 1.261 . S
O67 La41 2.628 . S
O67 C51 1.243 . S
O68 La41 2.554 . S
O68 C58 1.240 . S
O69 La40 2.482 . S
O69 La41 2.757 . S
O69 C58 1.289 . S
O70 La41 2.470 . S
O70 C59 1.258 . S
O71 La40 2.503 . S
O71 C59 1.256 . S
H72 C44 0.930 . S
H73 C45 0.930 . S
H74 C47 0.929 . S
H75 C48 0.929 . S
H76 C53 0.930 . S
H77 C54 0.930 . S
H78 C56 0.929 . S
H79 C57 0.929 . S
La80 C82 2.928 . S
La80 O100 2.521 . S
La80 O101 2.628 . S
La80 O102 2.554 . S
La80 O103 2.757 . S
La80 O104 2.470 . S
La80 O109 2.482 . S
La80 O111 2.503 . S
La81 C91 2.928 . S
La81 O103 2.482 . S
La81 O105 2.503 . S
La81 O106 2.521 . S
La81 O107 2.628 . S
La81 O108 2.554 . S
La81 O109 2.757 . S
La81 O110 2.470 . S
C82 La80 2.928 . S
C82 C83 1.503 . S
C82 O100 1.261 . S
C82 O101 1.243 . S
C83 C82 1.503 . S
C83 C84 1.394 . S
C83 C88 1.373 . S
C84 C83 1.394 . S
C84 C85 1.380 . S
C84 H112 0.930 . S
C85 C84 1.380 . S
C85 C86 1.376 . S
C85 H113 0.930 . S
C86 C85 1.376 . S
C86 C87 1.370 . S
C87 C86 1.370 . S
C87 C88 1.396 . S
C87 H114 0.929 . S
C88 C83 1.373 . S
C88 C87 1.396 . S
C88 H115 0.929 . S
C89 O102 1.240 . S
C89 O103 1.289 . S
C90 O104 1.258 . S
C90 O105 1.256 . S
C91 La81 2.928 . S
C91 C92 1.503 . S
C91 O106 1.261 . S
C91 O107 1.243 . S
C92 C91 1.503 . S
C92 C93 1.394 . S
C92 C97 1.373 . S
C93 C92 1.394 . S
C93 C94 1.380 . S
C93 H116 0.930 . S
C94 C93 1.380 . S
C94 C95 1.376 . S
C94 H117 0.930 . S
C95 C94 1.376 . S
C95 C96 1.370 . S
C96 C95 1.370 . S
C96 C97 1.396 . S
C96 H118 0.929 . S
C97 C92 1.373 . S
C97 C96 1.396 . S
C97 H119 0.929 . S
C98 O108 1.240 . S
C98 O109 1.289 . S
C99 O110 1.258 . S
C99 O111 1.256 . S
O100 La80 2.521 . S
O100 C82 1.261 . S
O101 La80 2.628 . S
O101 C82 1.243 . S
O102 La80 2.554 . S
O102 C89 1.240 . S
O103 La80 2.757 . S
O103 La81 2.482 . S
O103 C89 1.289 . S
O104 La80 2.470 . S
O104 C90 1.258 . S
O105 La81 2.503 . S
O105 C90 1.256 . S
O106 La81 2.521 . S
O106 C91 1.261 . S
O107 La81 2.628 . S
O107 C91 1.243 . S
O108 La81 2.554 . S
O108 C98 1.240 . S
O109 La80 2.482 . S
O109 La81 2.757 . S
O109 C98 1.289 . S
O110 La81 2.470 . S
O110 C99 1.258 . S
O111 La80 2.503 . S
O111 C99 1.256 . S
H112 C84 0.930 . S
H113 C85 0.930 . S
H114 C87 0.929 . S
H115 C88 0.929 . S
H116 C93 0.930 . S
H117 C94 0.930 . S
H118 C96 0.929 . S
H119 C97 0.929 . S
La120 C122 2.928 . S
La120 O140 2.521 . S
La120 O141 2.628 . S
La120 O142 2.554 . S
La120 O143 2.757 . S
La120 O144 2.470 . S
La120 O149 2.482 . S
La120 O151 2.503 . S
La121 C131 2.928 . S
La121 O143 2.482 . S
La121 O145 2.503 . S
La121 O146 2.521 . S
La121 O147 2.628 . S
La121 O148 2.554 . S
La121 O149 2.757 . S
La121 O150 2.470 . S
C122 La120 2.928 . S
C122 C123 1.503 . S
C122 O140 1.261 . S
C122 O141 1.243 . S
C123 C122 1.503 . S
C123 C124 1.394 . S
C123 C128 1.373 . S
C124 C123 1.394 . S
C124 C125 1.380 . S
C124 H152 0.930 . S
C125 C124 1.380 . S
C125 C126 1.376 . S
C125 H153 0.930 . S
C126 C125 1.376 . S
C126 C127 1.370 . S
C127 C126 1.370 . S
C127 C128 1.396 . S
C127 H154 0.929 . S
C128 C123 1.373 . S
C128 C127 1.396 . S
C128 H155 0.929 . S
C129 O142 1.240 . S
C129 O143 1.289 . S
C130 O144 1.258 . S
C130 O145 1.256 . S
C131 La121 2.928 . S
C131 C132 1.503 . S
C131 O146 1.261 . S
C131 O147 1.243 . S
C132 C131 1.503 . S
C132 C133 1.394 . S
C132 C137 1.373 . S
C133 C132 1.394 . S
C133 C134 1.380 . S
C133 H156 0.930 . S
C134 C133 1.380 . S
C134 C135 1.376 . S
C134 H157 0.930 . S
C135 C134 1.376 . S
C135 C136 1.370 . S
C136 C135 1.370 . S
C136 C137 1.396 . S
C136 H158 0.929 . S
C137 C132 1.373 . S
C137 C136 1.396 . S
C137 H159 0.929 . S
C138 O148 1.240 . S
C138 O149 1.289 . S
C139 O150 1.258 . S
C139 O151 1.256 . S
O140 La120 2.521 . S
O140 C122 1.261 . S
O141 La120 2.628 . S
O141 C122 1.243 . S
O142 La120 2.554 . S
O142 C129 1.240 . S
O143 La120 2.757 . S
O143 La121 2.482 . S
O143 C129 1.289 . S
O144 La120 2.470 . S
O144 C130 1.258 . S
O145 La121 2.503 . S
O145 C130 1.256 . S
O146 La121 2.521 . S
O146 C131 1.261 . S
O147 La121 2.628 . S
O147 C131 1.243 . S
O148 La121 2.554 . S
O148 C138 1.240 . S
O149 La120 2.482 . S
O149 La121 2.757 . S
O149 C138 1.289 . S
O150 La121 2.470 . S
O150 C139 1.258 . S
O151 La120 2.503 . S
O151 C139 1.256 . S
H152 C124 0.930 . S
H153 C125 0.930 . S
H154 C127 0.929 . S
H155 C128 0.929 . S
H156 C133 0.930 . S
H157 C134 0.930 . S
H158 C136 0.929 . S
H159 C137 0.929 . S
La160 C162 2.928 . S
La160 O180 2.521 . S
La160 O181 2.628 . S
La160 O182 2.554 . S
La160 O183 2.757 . S
La160 O184 2.470 . S
La160 O189 2.482 . S
La160 O191 2.503 . S
La161 C171 2.928 . S
La161 O183 2.482 . S
La161 O185 2.503 . S
La161 O186 2.521 . S
La161 O187 2.628 . S
La161 O188 2.554 . S
La161 O189 2.757 . S
La161 O190 2.470 . S
C162 La160 2.928 . S
C162 C163 1.503 . S
C162 O180 1.261 . S
C162 O181 1.243 . S
C163 C162 1.503 . S
C163 C164 1.394 . S
C163 C168 1.373 . S
C164 C163 1.394 . S
C164 C165 1.380 . S
C164 H192 0.930 . S
C165 C164 1.380 . S
C165 C166 1.376 . S
C165 H193 0.930 . S
C166 C165 1.376 . S
C166 C167 1.370 . S
C167 C166 1.370 . S
C167 C168 1.396 . S
C167 H194 0.929 . S
C168 C163 1.373 . S
C168 C167 1.396 . S
C168 H195 0.929 . S
C169 O182 1.240 . S
C169 O183 1.289 . S
C170 O184 1.258 . S
C170 O185 1.256 . S
C171 La161 2.928 . S
C171 C172 1.503 . S
C171 O186 1.261 . S
C171 O187 1.243 . S
C172 C171 1.503 . S
C172 C173 1.394 . S
C172 C177 1.373 . S
C173 C172 1.394 . S
C173 C174 1.380 . S
C173 H196 0.930 . S
C174 C173 1.380 . S
C174 C175 1.376 . S
C174 H197 0.930 . S
C175 C174 1.376 . S
C175 C176 1.370 . S
C176 C175 1.370 . S
C176 C177 1.396 . S
C176 H198 0.929 . S
C177 C172 1.373 . S
C177 C176 1.396 . S
C177 H199 0.929 . S
C178 O188 1.240 . S
C178 O189 1.289 . S
C179 O190 1.258 . S
C179 O191 1.256 . S
O180 La160 2.521 . S
O180 C162 1.261 . S
O181 La160 2.628 . S
O181 C162 1.243 . S
O182 La160 2.554 . S
O182 C169 1.240 . S
O183 La160 2.757 . S
O183 La161 2.482 . S
O183 C169 1.289 . S
O184 La160 2.470 . S
O184 C170 1.258 . S
O185 La161 2.503 . S
O185 C170 1.256 . S
O186 La161 2.521 . S
O186 C171 1.261 . S
O187 La161 2.628 . S
O187 C171 1.243 . S
O188 La161 2.554 . S
O188 C178 1.240 . S
O189 La160 2.482 . S
O189 La161 2.757 . S
O189 C178 1.289 . S
O190 La161 2.470 . S
O190 C179 1.258 . S
O191 La160 2.503 . S
O191 C179 1.256 . S
H192 C164 0.930 . S
H193 C165 0.930 . S
H194 C167 0.929 . S
H195 C168 0.929 . S
H196 C173 0.930 . S
H197 C174 0.930 . S
H198 C176 0.929 . S
H199 C177 0.929 . S
La200 C202 2.928 . S
La200 O220 2.521 . S
La200 O221 2.628 . S
La200 O222 2.554 . S
La200 O223 2.757 . S
La200 O224 2.470 . S
La200 O229 2.482 . S
La200 O231 2.503 . S
La201 C211 2.928 . S
La201 O223 2.482 . S
La201 O225 2.503 . S
La201 O226 2.521 . S
La201 O227 2.628 . S
La201 O228 2.554 . S
La201 O229 2.757 . S
La201 O230 2.470 . S
C202 La200 2.928 . S
C202 C203 1.503 . S
C202 O220 1.261 . S
C202 O221 1.243 . S
C203 C202 1.503 . S
C203 C204 1.394 . S
C203 C208 1.373 . S
C204 C203 1.394 . S
C204 C205 1.380 . S
C204 H232 0.930 . S
C205 C204 1.380 . S
C205 C206 1.376 . S
C205 H233 0.930 . S
C206 C205 1.376 . S
C206 C207 1.370 . S
C207 C206 1.370 . S
C207 C208 1.396 . S
C207 H234 0.929 . S
C208 C203 1.373 . S
C208 C207 1.396 . S
C208 H235 0.929 . S
C209 O222 1.240 . S
C209 O223 1.289 . S
C210 O224 1.258 . S
C210 O225 1.256 . S
C211 La201 2.928 . S
C211 C212 1.503 . S
C211 O226 1.261 . S
C211 O227 1.243 . S
C212 C211 1.503 . S
C212 C213 1.394 . S
C212 C217 1.373 . S
C213 C212 1.394 . S
C213 C214 1.380 . S
C213 H236 0.930 . S
C214 C213 1.380 . S
C214 C215 1.376 . S
C214 H237 0.930 . S
C215 C214 1.376 . S
C215 C216 1.370 . S
C216 C215 1.370 . S
C216 C217 1.396 . S
C216 H238 0.929 . S
C217 C212 1.373 . S
C217 C216 1.396 . S
C217 H239 0.929 . S
C218 O228 1.240 . S
C218 O229 1.289 . S
C219 O230 1.258 . S
C219 O231 1.256 . S
O220 La200 2.521 . S
O220 C202 1.261 . S
O221 La200 2.628 . S
O221 C202 1.243 . S
O222 La200 2.554 . S
O222 C209 1.240 . S
O223 La200 2.757 . S
O223 La201 2.482 . S
O223 C209 1.289 . S
O224 La200 2.470 . S
O224 C210 1.258 . S
O225 La201 2.503 . S
O225 C210 1.256 . S
O226 La201 2.521 . S
O226 C211 1.261 . S
O227 La201 2.628 . S
O227 C211 1.243 . S
O228 La201 2.554 . S
O228 C218 1.240 . S
O229 La200 2.482 . S
O229 La201 2.757 . S
O229 C218 1.289 . S
O230 La201 2.470 . S
O230 C219 1.258 . S
O231 La200 2.503 . S
O231 C219 1.256 . S
H232 C204 0.930 . S
H233 C205 0.930 . S
H234 C207 0.929 . S
H235 C208 0.929 . S
H236 C213 0.930 . S
H237 C214 0.930 . S
H238 C216 0.929 . S
H239 C217 0.929 . S
La240 C242 2.928 . S
La240 O260 2.521 . S
La240 O261 2.628 . S
La240 O262 2.554 . S
La240 O263 2.757 . S
La240 O264 2.470 . S
La240 O269 2.482 . S
La240 O271 2.503 . S
La241 C251 2.928 . S
La241 O263 2.482 . S
La241 O265 2.503 . S
La241 O266 2.521 . S
La241 O267 2.628 . S
La241 O268 2.554 . S
La241 O269 2.757 . S
La241 O270 2.470 . S
C242 La240 2.928 . S
C242 C243 1.503 . S
C242 O260 1.261 . S
C242 O261 1.243 . S
C243 C242 1.503 . S
C243 C244 1.394 . S
C243 C248 1.373 . S
C244 C243 1.394 . S
C244 C245 1.380 . S
C244 H272 0.930 . S
C245 C244 1.380 . S
C245 C246 1.376 . S
C245 H273 0.930 . S
C246 C245 1.376 . S
C246 C247 1.370 . S
C247 C246 1.370 . S
C247 C248 1.396 . S
C247 H274 0.929 . S
C248 C243 1.373 . S
C248 C247 1.396 . S
C248 H275 0.929 . S
C249 O262 1.240 . S
C249 O263 1.289 . S
C250 O264 1.258 . S
C250 O265 1.256 . S
C251 La241 2.928 . S
C251 C252 1.503 . S
C251 O266 1.261 . S
C251 O267 1.243 . S
C252 C251 1.503 . S
C252 C253 1.394 . S
C252 C257 1.373 . S
C253 C252 1.394 . S
C253 C254 1.380 . S
C253 H276 0.930 . S
C254 C253 1.380 . S
C254 C255 1.376 . S
C254 H277 0.930 . S
C255 C254 1.376 . S
C255 C256 1.370 . S
C256 C255 1.370 . S
C256 C257 1.396 . S
C256 H278 0.929 . S
C257 C252 1.373 . S
C257 C256 1.396 . S
C257 H279 0.929 . S
C258 O268 1.240 . S
C258 O269 1.289 . S
C259 O270 1.258 . S
C259 O271 1.256 . S
O260 La240 2.521 . S
O260 C242 1.261 . S
O261 La240 2.628 . S
O261 C242 1.243 . S
O262 La240 2.554 . S
O262 C249 1.240 . S
O263 La240 2.757 . S
O263 La241 2.482 . S
O263 C249 1.289 . S
O264 La240 2.470 . S
O264 C250 1.258 . S
O265 La241 2.503 . S
O265 C250 1.256 . S
O266 La241 2.521 . S
O266 C251 1.261 . S
O267 La241 2.628 . S
O267 C251 1.243 . S
O268 La241 2.554 . S
O268 C258 1.240 . S
O269 La240 2.482 . S
O269 La241 2.757 . S
O269 C258 1.289 . S
O270 La241 2.470 . S
O270 C259 1.258 . S
O271 La240 2.503 . S
O271 C259 1.256 . S
H272 C244 0.930 . S
H273 C245 0.930 . S
H274 C247 0.929 . S
H275 C248 0.929 . S
H276 C253 0.930 . S
H277 C254 0.930 . S
H278 C256 0.929 . S
H279 C257 0.929 . S
La280 C282 2.928 . S
La280 O300 2.521 . S
La280 O301 2.628 . S
La280 O302 2.554 . S
La280 O303 2.757 . S
La280 O304 2.470 . S
La280 O309 2.482 . S
La280 O311 2.503 . S
La281 C291 2.928 . S
La281 O303 2.482 . S
La281 O305 2.503 . S
La281 O306 2.521 . S
La281 O307 2.628 . S
La281 O308 2.554 . S
La281 O309 2.757 . S
La281 O310 2.470 . S
C282 La280 2.928 . S
C282 C283 1.503 . S
C282 O300 1.261 . S
C282 O301 1.243 . S
C283 C282 1.503 . S
C283 C284 1.394 . S
C283 C288 1.373 . S
C284 C283 1.394 . S
C284 C285 1.380 . S
C284 H312 0.930 . S
C285 C284 1.380 . S
C285 C286 1.376 . S
C285 H313 0.930 . S
C286 C285 1.376 . S
C286 C287 1.370 . S
C287 C286 1.370 . S
C287 C288 1.396 . S
C287 H314 0.929 . S
C288 C283 1.373 . S
C288 C287 1.396 . S
C288 H315 0.929 . S
C289 O302 1.240 . S
C289 O303 1.289 . S
C290 O304 1.258 . S
C290 O305 1.256 . S
C291 La281 2.928 . S
C291 C292 1.503 . S
C291 O306 1.261 . S
C291 O307 1.243 . S
C292 C291 1.503 . S
C292 C293 1.394 . S
C292 C297 1.373 . S
C293 C292 1.394 . S
C293 C294 1.380 . S
C293 H316 0.930 . S
C294 C293 1.380 . S
C294 C295 1.376 . S
C294 H317 0.930 . S
C295 C294 1.376 . S
C295 C296 1.370 . S
C296 C295 1.370 . S
C296 C297 1.396 . S
C296 H318 0.929 . S
C297 C292 1.373 . S
C297 C296 1.396 . S
C297 H319 0.929 . S
C298 O308 1.240 . S
C298 O309 1.289 . S
C299 O310 1.258 . S
C299 O311 1.256 . S
O300 La280 2.521 . S
O300 C282 1.261 . S
O301 La280 2.628 . S
O301 C282 1.243 . S
O302 La280 2.554 . S
O302 C289 1.240 . S
O303 La280 2.757 . S
O303 La281 2.482 . S
O303 C289 1.289 . S
O304 La280 2.470 . S
O304 C290 1.258 . S
O305 La281 2.503 . S
O305 C290 1.256 . S
O306 La281 2.521 . S
O306 C291 1.261 . S
O307 La281 2.628 . S
O307 C291 1.243 . S
O308 La281 2.554 . S
O308 C298 1.240 . S
O309 La280 2.482 . S
O309 La281 2.757 . S
O309 C298 1.289 . S
O310 La281 2.470 . S
O310 C299 1.258 . S
O311 La280 2.503 . S
O311 C299 1.256 . S
H312 C284 0.930 . S
H313 C285 0.930 . S
H314 C287 0.929 . S
H315 C288 0.929 . S
H316 C293 0.930 . S
H317 C294 0.930 . S
H318 C296 0.929 . S
H319 C297 0.929 . S
La320 C322 2.928 . S
La320 O340 2.521 . S
La320 O341 2.628 . S
La320 O342 2.554 . S
La320 O343 2.757 . S
La320 O344 2.470 . S
La320 O349 2.482 . S
La320 O351 2.503 . S
La321 C331 2.928 . S
La321 O343 2.482 . S
La321 O345 2.503 . S
La321 O346 2.521 . S
La321 O347 2.628 . S
La321 O348 2.554 . S
La321 O349 2.757 . S
La321 O350 2.470 . S
C322 La320 2.928 . S
C322 C323 1.503 . S
C322 O340 1.261 . S
C322 O341 1.243 . S
C323 C322 1.503 . S
C323 C324 1.394 . S
C323 C328 1.373 . S
C324 C323 1.394 . S
C324 C325 1.380 . S
C324 H352 0.930 . S
C325 C324 1.380 . S
C325 C326 1.376 . S
C325 H353 0.930 . S
C326 C325 1.376 . S
C326 C327 1.370 . S
C327 C326 1.370 . S
C327 C328 1.396 . S
C327 H354 0.929 . S
C328 C323 1.373 . S
C328 C327 1.396 . S
C328 H355 0.929 . S
C329 O342 1.240 . S
C329 O343 1.289 . S
C330 O344 1.258 . S
C330 O345 1.256 . S
C331 La321 2.928 . S
C331 C332 1.503 . S
C331 O346 1.261 . S
C331 O347 1.243 . S
C332 C331 1.503 . S
C332 C333 1.394 . S
C332 C337 1.373 . S
C333 C332 1.394 . S
C333 C334 1.380 . S
C333 H356 0.930 . S
C334 C333 1.380 . S
C334 C335 1.376 . S
C334 H357 0.930 . S
C335 C334 1.376 . S
C335 C336 1.370 . S
C336 C335 1.370 . S
C336 C337 1.396 . S
C336 H358 0.929 . S
C337 C332 1.373 . S
C337 C336 1.396 . S
C337 H359 0.929 . S
C338 O348 1.240 . S
C338 O349 1.289 . S
C339 O350 1.258 . S
C339 O351 1.256 . S
O340 La320 2.521 . S
O340 C322 1.261 . S
O341 La320 2.628 . S
O341 C322 1.243 . S
O342 La320 2.554 . S
O342 C329 1.240 . S
O343 La320 2.757 . S
O343 La321 2.482 . S
O343 C329 1.289 . S
O344 La320 2.470 . S
O344 C330 1.258 . S
O345 La321 2.503 . S
O345 C330 1.256 . S
O346 La321 2.521 . S
O346 C331 1.261 . S
O347 La321 2.628 . S
O347 C331 1.243 . S
O348 La321 2.554 . S
O348 C338 1.240 . S
O349 La320 2.482 . S
O349 La321 2.757 . S
O349 C338 1.289 . S
O350 La321 2.470 . S
O350 C339 1.258 . S
O351 La320 2.503 . S
O351 C339 1.256 . S
H352 C324 0.930 . S
H353 C325 0.930 . S
H354 C327 0.929 . S
H355 C328 0.929 . S
H356 C333 0.930 . S
H357 C334 0.930 . S
H358 C336 0.929 . S
H359 C337 0.929 . S
La360 C362 2.928 . S
La360 O380 2.521 . S
La360 O381 2.628 . S
La360 O382 2.554 . S
La360 O383 2.757 . S
La360 O384 2.470 . S
La360 O389 2.482 . S
La360 O391 2.503 . S
La361 C371 2.928 . S
La361 O383 2.482 . S
La361 O385 2.503 . S
La361 O386 2.521 . S
La361 O387 2.628 . S
La361 O388 2.554 . S
La361 O389 2.757 . S
La361 O390 2.470 . S
C362 La360 2.928 . S
C362 C363 1.503 . S
C362 O380 1.261 . S
C362 O381 1.243 . S
C363 C362 1.503 . S
C363 C364 1.394 . S
C363 C368 1.373 . S
C364 C363 1.394 . S
C364 C365 1.380 . S
C364 H392 0.930 . S
C365 C364 1.380 . S
C365 C366 1.376 . S
C365 H393 0.930 . S
C366 C365 1.376 . S
C366 C367 1.370 . S
C367 C366 1.370 . S
C367 C368 1.396 . S
C367 H394 0.929 . S
C368 C363 1.373 . S
C368 C367 1.396 . S
C368 H395 0.929 . S
C369 O382 1.240 . S
C369 O383 1.289 . S
C370 O384 1.258 . S
C370 O385 1.256 . S
C371 La361 2.928 . S
C371 C372 1.503 . S
C371 O386 1.261 . S
C371 O387 1.243 . S
C372 C371 1.503 . S
C372 C373 1.394 . S
C372 C377 1.373 . S
C373 C372 1.394 . S
C373 C374 1.380 . S
C373 H396 0.930 . S
C374 C373 1.380 . S
C374 C375 1.376 . S
C374 H397 0.930 . S
C375 C374 1.376 . S
C375 C376 1.370 . S
C376 C375 1.370 . S
C376 C377 1.396 . S
C376 H398 0.929 . S
C377 C372 1.373 . S
C377 C376 1.396 . S
C377 H399 0.929 . S
C378 O388 1.240 . S
C378 O389 1.289 . S
C379 O390 1.258 . S
C379 O391 1.256 . S
O380 La360 2.521 . S
O380 C362 1.261 . S
O381 La360 2.628 . S
O381 C362 1.243 . S
O382 La360 2.554 . S
O382 C369 1.240 . S
O383 La360 2.757 . S
O383 La361 2.482 . S
O383 C369 1.289 . S
O384 La360 2.470 . S
O384 C370 1.258 . S
O385 La361 2.503 . S
O385 C370 1.256 . S
O386 La361 2.521 . S
O386 C371 1.261 . S
O387 La361 2.628 . S
O387 C371 1.243 . S
O388 La361 2.554 . S
O388 C378 1.240 . S
O389 La360 2.482 . S
O389 La361 2.757 . S
O389 C378 1.289 . S
O390 La361 2.470 . S
O390 C379 1.258 . S
O391 La360 2.503 . S
O391 C379 1.256 . S
H392 C364 0.930 . S
H393 C365 0.930 . S
H394 C367 0.929 . S
H395 C368 0.929 . S
H396 C373 0.930 . S
H397 C374 0.930 . S
H398 C376 0.929 . S
H399 C377 0.929 . S
La400 C402 2.928 . S
La400 O420 2.521 . S
La400 O421 2.628 . S
La400 O422 2.554 . S
La400 O423 2.757 . S
La400 O424 2.470 . S
La400 O429 2.482 . S
La400 O431 2.503 . S
La401 C411 2.928 . S
La401 O423 2.482 . S
La401 O425 2.503 . S
La401 O426 2.521 . S
La401 O427 2.628 . S
La401 O428 2.554 . S
La401 O429 2.757 . S
La401 O430 2.470 . S
C402 La400 2.928 . S
C402 C403 1.503 . S
C402 O420 1.261 . S
C402 O421 1.243 . S
C403 C402 1.503 . S
C403 C404 1.394 . S
C403 C408 1.373 . S
C404 C403 1.394 . S
C404 C405 1.380 . S
C404 H432 0.930 . S
C405 C404 1.380 . S
C405 C406 1.376 . S
C405 H433 0.930 . S
C406 C405 1.376 . S
C406 C407 1.370 . S
C407 C406 1.370 . S
C407 C408 1.396 . S
C407 H434 0.929 . S
C408 C403 1.373 . S
C408 C407 1.396 . S
C408 H435 0.929 . S
C409 O422 1.240 . S
C409 O423 1.289 . S
C410 O424 1.258 . S
C410 O425 1.256 . S
C411 La401 2.928 . S
C411 C412 1.503 . S
C411 O426 1.261 . S
C411 O427 1.243 . S
C412 C411 1.503 . S
C412 C413 1.394 . S
C412 C417 1.373 . S
C413 C412 1.394 . S
C413 C414 1.380 . S
C413 H436 0.930 . S
C414 C413 1.380 . S
C414 C415 1.376 . S
C414 H437 0.930 . S
C415 C414 1.376 . S
C415 C416 1.370 . S
C416 C415 1.370 . S
C416 C417 1.396 . S
C416 H438 0.929 . S
C417 C412 1.373 . S
C417 C416 1.396 . S
C417 H439 0.929 . S
C418 O428 1.240 . S
C418 O429 1.289 . S
C419 O430 1.258 . S
C419 O431 1.256 . S
O420 La400 2.521 . S
O420 C402 1.261 . S
O421 La400 2.628 . S
O421 C402 1.243 . S
O422 La400 2.554 . S
O422 C409 1.240 . S
O423 La400 2.757 . S
O423 La401 2.482 . S
O423 C409 1.289 . S
O424 La400 2.470 . S
O424 C410 1.258 . S
O425 La401 2.503 . S
O425 C410 1.256 . S
O426 La401 2.521 . S
O426 C411 1.261 . S
O427 La401 2.628 . S
O427 C411 1.243 . S
O428 La401 2.554 . S
O428 C418 1.240 . S
O429 La400 2.482 . S
O429 La401 2.757 . S
O429 C418 1.289 . S
O430 La401 2.470 . S
O430 C419 1.258 . S
O431 La400 2.503 . S
O431 C419 1.256 . S
H432 C404 0.930 . S
H433 C405 0.930 . S
H434 C407 0.929 . S
H435 C408 0.929 . S
H436 C413 0.930 . S
H437 C414 0.930 . S
H438 C416 0.929 . S
H439 C417 0.929 . S
La440 C442 2.928 . S
La440 O460 2.521 . S
La440 O461 2.628 . S
La440 O462 2.554 . S
La440 O463 2.757 . S
La440 O464 2.470 . S
La440 O469 2.482 . S
La440 O471 2.503 . S
La441 C451 2.928 . S
La441 O463 2.482 . S
La441 O465 2.503 . S
La441 O466 2.521 . S
La441 O467 2.628 . S
La441 O468 2.554 . S
La441 O469 2.757 . S
La441 O470 2.470 . S
C442 La440 2.928 . S
C442 C443 1.503 . S
C442 O460 1.261 . S
C442 O461 1.243 . S
C443 C442 1.503 . S
C443 C444 1.394 . S
C443 C448 1.373 . S
C444 C443 1.394 . S
C444 C445 1.380 . S
C444 H472 0.930 . S
C445 C444 1.380 . S
C445 C446 1.376 . S
C445 H473 0.930 . S
C446 C445 1.376 . S
C446 C447 1.370 . S
C447 C446 1.370 . S
C447 C448 1.396 . S
C447 H474 0.929 . S
C448 C443 1.373 . S
C448 C447 1.396 . S
C448 H475 0.929 . S
C449 O462 1.240 . S
C449 O463 1.289 . S
C450 O464 1.258 . S
C450 O465 1.256 . S
C451 La441 2.928 . S
C451 C452 1.503 . S
C451 O466 1.261 . S
C451 O467 1.243 . S
C452 C451 1.503 . S
C452 C453 1.394 . S
C452 C457 1.373 . S
C453 C452 1.394 . S
C453 C454 1.380 . S
C453 H476 0.930 . S
C454 C453 1.380 . S
C454 C455 1.376 . S
C454 H477 0.930 . S
C455 C454 1.376 . S
C455 C456 1.370 . S
C456 C455 1.370 . S
C456 C457 1.396 . S
C456 H478 0.929 . S
C457 C452 1.373 . S
C457 C456 1.396 . S
C457 H479 0.929 . S
C458 O468 1.240 . S
C458 O469 1.289 . S
C459 O470 1.258 . S
C459 O471 1.256 . S
O460 La440 2.521 . S
O460 C442 1.261 . S
O461 La440 2.628 . S
O461 C442 1.243 . S
O462 La440 2.554 . S
O462 C449 1.240 . S
O463 La440 2.757 . S
O463 La441 2.482 . S
O463 C449 1.289 . S
O464 La440 2.470 . S
O464 C450 1.258 . S
O465 La441 2.503 . S
O465 C450 1.256 . S
O466 La441 2.521 . S
O466 C451 1.261 . S
O467 La441 2.628 . S
O467 C451 1.243 . S
O468 La441 2.554 . S
O468 C458 1.240 . S
O469 La440 2.482 . S
O469 La441 2.757 . S
O469 C458 1.289 . S
O470 La441 2.470 . S
O470 C459 1.258 . S
O471 La440 2.503 . S
O471 C459 1.256 . S
H472 C444 0.930 . S
H473 C445 0.930 . S
H474 C447 0.929 . S
H475 C448 0.929 . S
H476 C453 0.930 . S
H477 C454 0.930 . S
H478 C456 0.929 . S
H479 C457 0.929 . S
La480 C482 2.928 . S
La480 O500 2.521 . S
La480 O501 2.628 . S
La480 O502 2.554 . S
La480 O503 2.757 . S
La480 O504 2.470 . S
La480 O509 2.482 . S
La480 O511 2.503 . S
La481 C491 2.928 . S
La481 O503 2.482 . S
La481 O505 2.503 . S
La481 O506 2.521 . S
La481 O507 2.628 . S
La481 O508 2.554 . S
La481 O509 2.757 . S
La481 O510 2.470 . S
C482 La480 2.928 . S
C482 C483 1.503 . S
C482 O500 1.261 . S
C482 O501 1.243 . S
C483 C482 1.503 . S
C483 C484 1.394 . S
C483 C488 1.373 . S
C484 C483 1.394 . S
C484 C485 1.380 . S
C484 H512 0.930 . S
C485 C484 1.380 . S
C485 C486 1.376 . S
C485 H513 0.930 . S
C486 C485 1.376 . S
C486 C487 1.370 . S
C487 C486 1.370 . S
C487 C488 1.396 . S
C487 H514 0.929 . S
C488 C483 1.373 . S
C488 C487 1.396 . S
C488 H515 0.929 . S
C489 O502 1.240 . S
C489 O503 1.289 . S
C490 O504 1.258 . S
C490 O505 1.256 . S
C491 La481 2.928 . S
C491 C492 1.503 . S
C491 O506 1.261 . S
C491 O507 1.243 . S
C492 C491 1.503 . S
C492 C493 1.394 . S
C492 C497 1.373 . S
C493 C492 1.394 . S
C493 C494 1.380 . S
C493 H516 0.930 . S
C494 C493 1.380 . S
C494 C495 1.376 . S
C494 H517 0.930 . S
C495 C494 1.376 . S
C495 C496 1.370 . S
C496 C495 1.370 . S
C496 C497 1.396 . S
C496 H518 0.929 . S
C497 C492 1.373 . S
C497 C496 1.396 . S
C497 H519 0.929 . S
C498 O508 1.240 . S
C498 O509 1.289 . S
C499 O510 1.258 . S
C499 O511 1.256 . S
O500 La480 2.521 . S
O500 C482 1.261 . S
O501 La480 2.628 . S
O501 C482 1.243 . S
O502 La480 2.554 . S
O502 C489 1.240 . S
O503 La480 2.757 . S
O503 La481 2.482 . S
O503 C489 1.289 . S
O504 La480 2.470 . S
O504 C490 1.258 . S
O505 La481 2.503 . S
O505 C490 1.256 . S
O506 La481 2.521 . S
O506 C491 1.261 . S
O507 La481 2.628 . S
O507 C491 1.243 . S
O508 La481 2.554 . S
O508 C498 1.240 . S
O509 La480 2.482 . S
O509 La481 2.757 . S
O509 C498 1.289 . S
O510 La481 2.470 . S
O510 C499 1.258 . S
O511 La480 2.503 . S
O511 C499 1.256 . S
H512 C484 0.930 . S
H513 C485 0.930 . S
H514 C487 0.929 . S
H515 C488 0.929 . S
H516 C493 0.930 . S
H517 C494 0.930 . S
H518 C496 0.929 . S
H519 C497 0.929 . S
La520 C522 2.928 . S
La520 O540 2.521 . S
La520 O541 2.628 . S
La520 O542 2.554 . S
La520 O543 2.757 . S
La520 O544 2.470 . S
La520 O549 2.482 . S
La520 O551 2.503 . S
La521 C531 2.928 . S
La521 O543 2.482 . S
La521 O545 2.503 . S
La521 O546 2.521 . S
La521 O547 2.628 . S
La521 O548 2.554 . S
La521 O549 2.757 . S
La521 O550 2.470 . S
C522 La520 2.928 . S
C522 C523 1.503 . S
C522 O540 1.261 . S
C522 O541 1.243 . S
C523 C522 1.503 . S
C523 C524 1.394 . S
C523 C528 1.373 . S
C524 C523 1.394 . S
C524 C525 1.380 . S
C524 H552 0.930 . S
C525 C524 1.380 . S
C525 C526 1.376 . S
C525 H553 0.930 . S
C526 C525 1.376 . S
C526 C527 1.370 . S
C527 C526 1.370 . S
C527 C528 1.396 . S
C527 H554 0.929 . S
C528 C523 1.373 . S
C528 C527 1.396 . S
C528 H555 0.929 . S
C529 O542 1.240 . S
C529 O543 1.289 . S
C530 O544 1.258 . S
C530 O545 1.256 . S
C531 La521 2.928 . S
C531 C532 1.503 . S
C531 O546 1.261 . S
C531 O547 1.243 . S
C532 C531 1.503 . S
C532 C533 1.394 . S
C532 C537 1.373 . S
C533 C532 1.394 . S
C533 C534 1.380 . S
C533 H556 0.930 . S
C534 C533 1.380 . S
C534 C535 1.376 . S
C534 H557 0.930 . S
C535 C534 1.376 . S
C535 C536 1.370 . S
C536 C535 1.370 . S
C536 C537 1.396 . S
C536 H558 0.929 . S
C537 C532 1.373 . S
C537 C536 1.396 . S
C537 H559 0.929 . S
C538 O548 1.240 . S
C538 O549 1.289 . S
C539 O550 1.258 . S
C539 O551 1.256 . S
O540 La520 2.521 . S
O540 C522 1.261 . S
O541 La520 2.628 . S
O541 C522 1.243 . S
O542 La520 2.554 . S
O542 C529 1.240 . S
O543 La520 2.757 . S
O543 La521 2.482 . S
O543 C529 1.289 . S
O544 La520 2.470 . S
O544 C530 1.258 . S
O545 La521 2.503 . S
O545 C530 1.256 . S
O546 La521 2.521 . S
O546 C531 1.261 . S
O547 La521 2.628 . S
O547 C531 1.243 . S
O548 La521 2.554 . S
O548 C538 1.240 . S
O549 La520 2.482 . S
O549 La521 2.757 . S
O549 C538 1.289 . S
O550 La521 2.470 . S
O550 C539 1.258 . S
O551 La520 2.503 . S
O551 C539 1.256 . S
H552 C524 0.930 . S
H553 C525 0.930 . S
H554 C527 0.929 . S
H555 C528 0.929 . S
H556 C533 0.930 . S
H557 C534 0.930 . S
H558 C536 0.929 . S
H559 C537 0.929 . S
La560 C562 2.928 . S
La560 O580 2.521 . S
La560 O581 2.628 . S
La560 O582 2.554 . S
La560 O583 2.757 . S
La560 O584 2.470 . S
La560 O589 2.482 . S
La560 O591 2.503 . S
La561 C571 2.928 . S
La561 O583 2.482 . S
La561 O585 2.503 . S
La561 O586 2.521 . S
La561 O587 2.628 . S
La561 O588 2.554 . S
La561 O589 2.757 . S
La561 O590 2.470 . S
C562 La560 2.928 . S
C562 C563 1.503 . S
C562 O580 1.261 . S
C562 O581 1.243 . S
C563 C562 1.503 . S
C563 C564 1.394 . S
C563 C568 1.373 . S
C564 C563 1.394 . S
C564 C565 1.380 . S
C564 H592 0.930 . S
C565 C564 1.380 . S
C565 C566 1.376 . S
C565 H593 0.930 . S
C566 C565 1.376 . S
C566 C567 1.370 . S
C567 C566 1.370 . S
C567 C568 1.396 . S
C567 H594 0.929 . S
C568 C563 1.373 . S
C568 C567 1.396 . S
C568 H595 0.929 . S
C569 O582 1.240 . S
C569 O583 1.289 . S
C570 O584 1.258 . S
C570 O585 1.256 . S
C571 La561 2.928 . S
C571 C572 1.503 . S
C571 O586 1.261 . S
C571 O587 1.243 . S
C572 C571 1.503 . S
C572 C573 1.394 . S
C572 C577 1.373 . S
C573 C572 1.394 . S
C573 C574 1.380 . S
C573 H596 0.930 . S
C574 C573 1.380 . S
C574 C575 1.376 . S
C574 H597 0.930 . S
C575 C574 1.376 . S
C575 C576 1.370 . S
C576 C575 1.370 . S
C576 C577 1.396 . S
C576 H598 0.929 . S
C577 C572 1.373 . S
C577 C576 1.396 . S
C577 H599 0.929 . S
C578 O588 1.240 . S
C578 O589 1.289 . S
C579 O590 1.258 . S
C579 O591 1.256 . S
O580 La560 2.521 . S
O580 C562 1.261 . S
O581 La560 2.628 . S
O581 C562 1.243 . S
O582 La560 2.554 . S
O582 C569 1.240 . S
O583 La560 2.757 . S
O583 La561 2.482 . S
O583 C569 1.289 . S
O584 La560 2.470 . S
O584 C570 1.258 . S
O585 La561 2.503 . S
O585 C570 1.256 . S
O586 La561 2.521 . S
O586 C571 1.261 . S
O587 La561 2.628 . S
O587 C571 1.243 . S
O588 La561 2.554 . S
O588 C578 1.240 . S
O589 La560 2.482 . S
O589 La561 2.757 . S
O589 C578 1.289 . S
O590 La561 2.470 . S
O590 C579 1.258 . S
O591 La560 2.503 . S
O591 C579 1.256 . S
H592 C564 0.930 . S
H593 C565 0.930 . S
H594 C567 0.929 . S
H595 C568 0.929 . S
H596 C573 0.930 . S
H597 C574 0.930 . S
H598 C576 0.929 . S
H599 C577 0.929 . S
La600 C602 2.928 . S
La600 O620 2.521 . S
La600 O621 2.628 . S
La600 O622 2.554 . S
La600 O623 2.757 . S
La600 O624 2.470 . S
La600 O629 2.482 . S
La600 O631 2.503 . S
La601 C611 2.928 . S
La601 O623 2.482 . S
La601 O625 2.503 . S
La601 O626 2.521 . S
La601 O627 2.628 . S
La601 O628 2.554 . S
La601 O629 2.757 . S
La601 O630 2.470 . S
C602 La600 2.928 . S
C602 C603 1.503 . S
C602 O620 1.261 . S
C602 O621 1.243 . S
C603 C602 1.503 . S
C603 C604 1.394 . S
C603 C608 1.373 . S
C604 C603 1.394 . S
C604 C605 1.380 . S
C604 H632 0.930 . S
C605 C604 1.380 . S
C605 C606 1.376 . S
C605 H633 0.930 . S
C606 C605 1.376 . S
C606 C607 1.370 1_655 S
C607 C606 1.370 1_455 S
C607 C608 1.396 1_455 S
C607 H634 0.929 . S
C608 C603 1.373 . S
C608 C607 1.396 1_655 S
C608 H635 0.929 1_655 S
C609 O622 1.240 . S
C609 O623 1.289 . S
C610 O624 1.258 . S
C610 O625 1.256 . S
C611 La601 2.928 . S
C611 C612 1.503 . S
C611 O626 1.261 . S
C611 O627 1.243 . S
C612 C611 1.503 . S
C612 C613 1.394 . S
C612 C617 1.373 . S
C613 C612 1.394 . S
C613 C614 1.380 . S
C613 H636 0.930 . S
C614 C613 1.380 . S
C614 C615 1.376 . S
C614 H637 0.930 . S
C615 C614 1.376 . S
C615 C616 1.370 . S
C616 C615 1.370 . S
C616 C617 1.396 . S
C616 H638 0.929 . S
C617 C612 1.373 . S
C617 C616 1.396 . S
C617 H639 0.929 . S
C618 O628 1.240 . S
C618 O629 1.289 . S
C619 O630 1.258 . S
C619 O631 1.256 . S
O620 La600 2.521 . S
O620 C602 1.261 . S
O621 La600 2.628 . S
O621 C602 1.243 . S
O622 La600 2.554 . S
O622 C609 1.240 . S
O623 La600 2.757 . S
O623 La601 2.482 . S
O623 C609 1.289 . S
O624 La600 2.470 . S
O624 C610 1.258 . S
O625 La601 2.503 . S
O625 C610 1.256 . S
O626 La601 2.521 . S
O626 C611 1.261 . S
O627 La601 2.628 . S
O627 C611 1.243 . S
O628 La601 2.554 . S
O628 C618 1.240 . S
O629 La600 2.482 . S
O629 La601 2.757 . S
O629 C618 1.289 . S
O630 La601 2.470 . S
O630 C619 1.258 . S
O631 La600 2.503 . S
O631 C619 1.256 . S
H632 C604 0.930 . S
H633 C605 0.930 . S
H634 C607 0.929 . S
H635 C608 0.929 1_455 S
H636 C613 0.930 . S
H637 C614 0.930 . S
H638 C616 0.929 . S
H639 C617 0.929 . S
La640 C642 2.928 . S
La640 O660 2.521 . S
La640 O661 2.628 . S
La640 O662 2.554 . S
La640 O663 2.757 . S
La640 O664 2.470 . S
La640 O669 2.482 . S
La640 O671 2.503 . S
La641 C651 2.928 . S
La641 O663 2.482 . S
La641 O665 2.503 . S
La641 O666 2.521 . S
La641 O667 2.628 . S
La641 O668 2.554 . S
La641 O669 2.757 . S
La641 O670 2.470 . S
C642 La640 2.928 . S
C642 C643 1.503 . S
C642 O660 1.261 . S
C642 O661 1.243 . S
C643 C642 1.503 . S
C643 C644 1.394 . S
C643 C648 1.373 . S
C644 C643 1.394 . S
C644 C645 1.380 . S
C644 H672 0.930 . S
C645 C644 1.380 . S
C645 C646 1.376 . S
C645 H673 0.930 . S
C646 C645 1.376 . S
C646 C647 1.370 . S
C647 C646 1.370 . S
C647 C648 1.396 . S
C647 H674 0.929 . S
C648 C643 1.373 . S
C648 C647 1.396 . S
C648 H675 0.929 . S
C649 O662 1.240 . S
C649 O663 1.289 . S
C650 O664 1.258 . S
C650 O665 1.256 . S
C651 La641 2.928 . S
C651 C652 1.503 . S
C651 O666 1.261 . S
C651 O667 1.243 . S
C652 C651 1.503 . S
C652 C653 1.394 . S
C652 C657 1.373 . S
C653 C652 1.394 . S
C653 C654 1.380 . S
C653 H676 0.930 . S
C654 C653 1.380 . S
C654 C655 1.376 . S
C654 H677 0.930 . S
C655 C654 1.376 . S
C655 C656 1.370 . S
C656 C655 1.370 . S
C656 C657 1.396 . S
C656 H678 0.929 . S
C657 C652 1.373 . S
C657 C656 1.396 . S
C657 H679 0.929 . S
C658 O668 1.240 . S
C658 O669 1.289 . S
C659 O670 1.258 . S
C659 O671 1.256 . S
O660 La640 2.521 . S
O660 C642 1.261 . S
O661 La640 2.628 . S
O661 C642 1.243 . S
O662 La640 2.554 . S
O662 C649 1.240 . S
O663 La640 2.757 . S
O663 La641 2.482 . S
O663 C649 1.289 . S
O664 La640 2.470 . S
O664 C650 1.258 . S
O665 La641 2.503 . S
O665 C650 1.256 . S
O666 La641 2.521 . S
O666 C651 1.261 . S
O667 La641 2.628 . S
O667 C651 1.243 . S
O668 La641 2.554 . S
O668 C658 1.240 . S
O669 La640 2.482 . S
O669 La641 2.757 . S
O669 C658 1.289 . S
O670 La641 2.470 . S
O670 C659 1.258 . S
O671 La640 2.503 . S
O671 C659 1.256 . S
H672 C644 0.930 . S
H673 C645 0.930 . S
H674 C647 0.929 . S
H675 C648 0.929 . S
H676 C653 0.930 . S
H677 C654 0.930 . S
H678 C656 0.929 . S
H679 C657 0.929 . S
La680 C682 2.928 . S
La680 O700 2.521 . S
La680 O701 2.628 . S
La680 O702 2.554 . S
La680 O703 2.757 . S
La680 O704 2.470 . S
La680 O709 2.482 . S
La680 O711 2.503 . S
La681 C691 2.928 . S
La681 O703 2.482 . S
La681 O705 2.503 . S
La681 O706 2.521 . S
La681 O707 2.628 . S
La681 O708 2.554 . S
La681 O709 2.757 . S
La681 O710 2.470 . S
C682 La680 2.928 . S
C682 C683 1.503 . S
C682 O700 1.261 . S
C682 O701 1.243 . S
C683 C682 1.503 . S
C683 C684 1.394 . S
C683 C688 1.373 . S
C684 C683 1.394 . S
C684 C685 1.380 . S
C684 H712 0.930 . S
C685 C684 1.380 . S
C685 C686 1.376 . S
C685 H713 0.930 . S
C686 C685 1.376 . S
C686 C687 1.370 1_545 S
C687 C686 1.370 1_565 S
C687 C688 1.396 1_565 S
C687 H714 0.929 . S
C688 C683 1.373 . S
C688 C687 1.396 1_545 S
C688 H715 0.929 1_545 S
C689 O702 1.240 . S
C689 O703 1.289 . S
C690 O704 1.258 . S
C690 O705 1.256 . S
C691 La681 2.928 . S
C691 C692 1.503 . S
C691 O706 1.261 . S
C691 O707 1.243 . S
C692 C691 1.503 . S
C692 C693 1.394 . S
C692 C697 1.373 . S
C693 C692 1.394 . S
C693 C694 1.380 . S
C693 H716 0.930 . S
C694 C693 1.380 . S
C694 C695 1.376 . S
C694 H717 0.930 . S
C695 C694 1.376 . S
C695 C696 1.370 . S
C696 C695 1.370 . S
C696 C697 1.396 . S
C696 H718 0.929 . S
C697 C692 1.373 . S
C697 C696 1.396 . S
C697 H719 0.929 . S
C698 O708 1.240 . S
C698 O709 1.289 . S
C699 O710 1.258 . S
C699 O711 1.256 . S
O700 La680 2.521 . S
O700 C682 1.261 . S
O701 La680 2.628 . S
O701 C682 1.243 . S
O702 La680 2.554 . S
O702 C689 1.240 . S
O703 La680 2.757 . S
O703 La681 2.482 . S
O703 C689 1.289 . S
O704 La680 2.470 . S
O704 C690 1.258 . S
O705 La681 2.503 . S
O705 C690 1.256 . S
O706 La681 2.521 . S
O706 C691 1.261 . S
O707 La681 2.628 . S
O707 C691 1.243 . S
O708 La681 2.554 . S
O708 C698 1.240 . S
O709 La680 2.482 . S
O709 La681 2.757 . S
O709 C698 1.289 . S
O710 La681 2.470 . S
O710 C699 1.258 . S
O711 La680 2.503 . S
O711 C699 1.256 . S
H712 C684 0.930 . S
H713 C685 0.930 . S
H714 C687 0.929 . S
H715 C688 0.929 1_565 S
H716 C693 0.930 . S
H717 C694 0.930 . S
H718 C696 0.929 . S
H719 C697 0.929 . S
La720 C722 2.928 . S
La720 O740 2.521 . S
La720 O741 2.628 . S
La720 O742 2.554 . S
La720 O743 2.757 . S
La720 O744 2.470 . S
La720 O749 2.482 . S
La720 O751 2.503 . S
La721 C731 2.928 . S
La721 O743 2.482 . S
La721 O745 2.503 . S
La721 O746 2.521 . S
La721 O747 2.628 . S
La721 O748 2.554 . S
La721 O749 2.757 . S
La721 O750 2.470 . S
C722 La720 2.928 . S
C722 C723 1.503 . S
C722 O740 1.261 . S
C722 O741 1.243 . S
C723 C722 1.503 . S
C723 C724 1.394 . S
C723 C728 1.373 . S
C724 C723 1.394 . S
C724 C725 1.380 . S
C724 H752 0.930 . S
C725 C724 1.380 . S
C725 C726 1.376 . S
C725 H753 0.930 . S
C726 C725 1.376 . S
C726 C727 1.370 . S
C727 C726 1.370 . S
C727 C728 1.396 . S
C727 H754 0.929 . S
C728 C723 1.373 . S
C728 C727 1.396 . S
C728 H755 0.929 . S
C729 O742 1.240 . S
C729 O743 1.289 . S
C730 O744 1.258 . S
C730 O745 1.256 . S
C731 La721 2.928 . S
C731 C732 1.503 . S
C731 O746 1.261 . S
C731 O747 1.243 . S
C732 C731 1.503 . S
C732 C733 1.394 . S
C732 C737 1.373 . S
C733 C732 1.394 . S
C733 C734 1.380 . S
C733 H756 0.930 . S
C734 C733 1.380 . S
C734 C735 1.376 . S
C734 H757 0.930 . S
C735 C734 1.376 . S
C735 C736 1.370 1_545 S
C736 C735 1.370 1_565 S
C736 C737 1.396 1_565 S
C736 H758 0.929 . S
C737 C732 1.373 . S
C737 C736 1.396 1_545 S
C737 H759 0.929 1_545 S
C738 O748 1.240 . S
C738 O749 1.289 . S
C739 O750 1.258 . S
C739 O751 1.256 . S
O740 La720 2.521 . S
O740 C722 1.261 . S
O741 La720 2.628 . S
O741 C722 1.243 . S
O742 La720 2.554 . S
O742 C729 1.240 . S
O743 La720 2.757 . S
O743 La721 2.482 . S
O743 C729 1.289 . S
O744 La720 2.470 . S
O744 C730 1.258 . S
O745 La721 2.503 . S
O745 C730 1.256 . S
O746 La721 2.521 . S
O746 C731 1.261 . S
O747 La721 2.628 . S
O747 C731 1.243 . S
O748 La721 2.554 . S
O748 C738 1.240 . S
O749 La720 2.482 . S
O749 La721 2.757 . S
O749 C738 1.289 . S
O750 La721 2.470 . S
O750 C739 1.258 . S
O751 La720 2.503 . S
O751 C739 1.256 . S
H752 C724 0.930 . S
H753 C725 0.930 . S
H754 C727 0.929 . S
H755 C728 0.929 . S
H756 C733 0.930 . S
H757 C734 0.930 . S
H758 C736 0.929 . S
H759 C737 0.929 1_565 S
La760 C762 2.928 . S
La760 O780 2.521 . S
La760 O781 2.628 . S
La760 O782 2.554 . S
La760 O783 2.757 . S
La760 O784 2.470 . S
La760 O789 2.482 . S
La760 O791 2.503 . S
La761 C771 2.928 . S
La761 O783 2.482 . S
La761 O785 2.503 . S
La761 O786 2.521 . S
La761 O787 2.628 . S
La761 O788 2.554 . S
La761 O789 2.757 . S
La761 O790 2.470 . S
C762 La760 2.928 . S
C762 C763 1.503 . S
C762 O780 1.261 . S
C762 O781 1.243 . S
C763 C762 1.503 . S
C763 C764 1.394 . S
C763 C768 1.373 . S
C764 C763 1.394 . S
C764 C765 1.380 . S
C764 H792 0.930 . S
C765 C764 1.380 . S
C765 C766 1.376 . S
C765 H793 0.930 . S
C766 C765 1.376 . S
C766 C767 1.370 . S
C767 C766 1.370 . S
C767 C768 1.396 . S
C767 H794 0.929 . S
C768 C763 1.373 . S
C768 C767 1.396 . S
C768 H795 0.929 . S
C769 O782 1.240 . S
C769 O783 1.289 . S
C770 O784 1.258 . S
C770 O785 1.256 . S
C771 La761 2.928 . S
C771 C772 1.503 . S
C771 O786 1.261 . S
C771 O787 1.243 . S
C772 C771 1.503 . S
C772 C773 1.394 . S
C772 C777 1.373 . S
C773 C772 1.394 . S
C773 C774 1.380 . S
C773 H796 0.930 . S
C774 C773 1.380 . S
C774 C775 1.376 . S
C774 H797 0.930 . S
C775 C774 1.376 . S
C775 C776 1.370 1_655 S
C776 C775 1.370 1_455 S
C776 C777 1.396 1_455 S
C776 H798 0.929 . S
C777 C772 1.373 . S
C777 C776 1.396 1_655 S
C777 H799 0.929 1_655 S
C778 O788 1.240 . S
C778 O789 1.289 . S
C779 O790 1.258 . S
C779 O791 1.256 . S
O780 La760 2.521 . S
O780 C762 1.261 . S
O781 La760 2.628 . S
O781 C762 1.243 . S
O782 La760 2.554 . S
O782 C769 1.240 . S
O783 La760 2.757 . S
O783 La761 2.482 . S
O783 C769 1.289 . S
O784 La760 2.470 . S
O784 C770 1.258 . S
O785 La761 2.503 . S
O785 C770 1.256 . S
O786 La761 2.521 . S
O786 C771 1.261 . S
O787 La761 2.628 . S
O787 C771 1.243 . S
O788 La761 2.554 . S
O788 C778 1.240 . S
O789 La760 2.482 . S
O789 La761 2.757 . S
O789 C778 1.289 . S
O790 La761 2.470 . S
O790 C779 1.258 . S
O791 La760 2.503 . S
O791 C779 1.256 . S
H792 C764 0.930 . S
H793 C765 0.930 . S
H794 C767 0.929 . S
H795 C768 0.929 . S
H796 C773 0.930 . S
H797 C774 0.930 . S
H798 C776 0.929 . S
H799 C777 0.929 1_455 S
La800 C802 2.928 . S
La800 O820 2.521 . S
La800 O821 2.628 . S
La800 O822 2.554 . S
La800 O823 2.757 . S
La800 O824 2.470 . S
La800 O829 2.482 . S
La800 O831 2.503 . S
La801 C811 2.928 . S
La801 O823 2.482 . S
La801 O825 2.503 . S
La801 O826 2.521 . S
La801 O827 2.628 . S
La801 O828 2.554 . S
La801 O829 2.757 . S
La801 O830 2.470 . S
C802 La800 2.928 . S
C802 C803 1.503 . S
C802 O820 1.261 . S
C802 O821 1.243 . S
C803 C802 1.503 . S
C803 C804 1.394 . S
C803 C808 1.373 . S
C804 C803 1.394 . S
C804 C805 1.380 . S
C804 H832 0.930 . S
C805 C804 1.380 . S
C805 C806 1.376 . S
C805 H833 0.930 . S
C806 C805 1.376 . S
C806 C807 1.370 . S
C807 C806 1.370 . S
C807 C808 1.396 . S
C807 H834 0.929 . S
C808 C803 1.373 . S
C808 C807 1.396 . S
C808 H835 0.929 . S
C809 O822 1.240 . S
C809 O823 1.289 . S
C810 O824 1.258 . S
C810 O825 1.256 . S
C811 La801 2.928 . S
C811 C812 1.503 . S
C811 O826 1.261 . S
C811 O827 1.243 . S
C812 C811 1.503 . S
C812 C813 1.394 . S
C812 C817 1.373 . S
C813 C812 1.394 . S
C813 C814 1.380 . S
C813 H836 0.930 . S
C814 C813 1.380 . S
C814 C815 1.376 . S
C814 H837 0.930 . S
C815 C814 1.376 . S
C815 C816 1.370 . S
C816 C815 1.370 . S
C816 C817 1.396 . S
C816 H838 0.929 . S
C817 C812 1.373 . S
C817 C816 1.396 . S
C817 H839 0.929 . S
C818 O828 1.240 . S
C818 O829 1.289 . S
C819 O830 1.258 . S
C819 O831 1.256 . S
O820 La800 2.521 . S
O820 C802 1.261 . S
O821 La800 2.628 . S
O821 C802 1.243 . S
O822 La800 2.554 . S
O822 C809 1.240 . S
O823 La800 2.757 . S
O823 La801 2.482 . S
O823 C809 1.289 . S
O824 La800 2.470 . S
O824 C810 1.258 . S
O825 La801 2.503 . S
O825 C810 1.256 . S
O826 La801 2.521 . S
O826 C811 1.261 . S
O827 La801 2.628 . S
O827 C811 1.243 . S
O828 La801 2.554 . S
O828 C818 1.240 . S
O829 La800 2.482 . S
O829 La801 2.757 . S
O829 C818 1.289 . S
O830 La801 2.470 . S
O830 C819 1.258 . S
O831 La800 2.503 . S
O831 C819 1.256 . S
H832 C804 0.930 . S
H833 C805 0.930 . S
H834 C807 0.929 . S
H835 C808 0.929 . S
H836 C813 0.930 . S
H837 C814 0.930 . S
H838 C816 0.929 . S
H839 C817 0.929 . S
La840 C842 2.928 . S
La840 O860 2.521 . S
La840 O861 2.628 . S
La840 O862 2.554 . S
La840 O863 2.757 1_554 S
La840 O864 2.470 . S
La840 O869 2.482 . S
La840 O871 2.503 . S
La841 C851 2.928 . S
La841 O863 2.482 . S
La841 O865 2.503 . S
La841 O866 2.521 . S
La841 O867 2.628 . S
La841 O868 2.554 . S
La841 O869 2.757 1_556 S
La841 O870 2.470 . S
C842 La840 2.928 . S
C842 C843 1.503 . S
C842 O860 1.261 . S
C842 O861 1.243 . S
C843 C842 1.503 . S
C843 C844 1.394 . S
C843 C848 1.373 . S
C844 C843 1.394 . S
C844 C845 1.380 . S
C844 H872 0.930 . S
C845 C844 1.380 . S
C845 C846 1.376 . S
C845 H873 0.930 . S
C846 C845 1.376 . S
C846 C847 1.370 . S
C847 C846 1.370 . S
C847 C848 1.396 . S
C847 H874 0.929 . S
C848 C843 1.373 . S
C848 C847 1.396 . S
C848 H875 0.929 . S
C849 O862 1.240 . S
C849 O863 1.289 1_554 S
C850 O864 1.258 . S
C850 O865 1.256 1_554 S
C851 La841 2.928 . S
C851 C852 1.503 . S
C851 O866 1.261 . S
C851 O867 1.243 . S
C852 C851 1.503 . S
C852 C853 1.394 . S
C852 C857 1.373 . S
C853 C852 1.394 . S
C853 C854 1.380 . S
C853 H876 0.930 . S
C854 C853 1.380 . S
C854 C855 1.376 . S
C854 H877 0.930 . S
C855 C854 1.376 . S
C855 C856 1.370 . S
C856 C855 1.370 . S
C856 C857 1.396 . S
C856 H878 0.929 . S
C857 C852 1.373 . S
C857 C856 1.396 . S
C857 H879 0.929 . S
C858 O868 1.240 . S
C858 O869 1.289 1_556 S
C859 O870 1.258 . S
C859 O871 1.256 1_556 S
O860 La840 2.521 . S
O860 C842 1.261 . S
O861 La840 2.628 . S
O861 C842 1.243 . S
O862 La840 2.554 . S
O862 C849 1.240 . S
O863 La840 2.757 1_556 S
O863 La841 2.482 . S
O863 C849 1.289 1_556 S
O864 La840 2.470 . S
O864 C850 1.258 . S
O865 La841 2.503 . S
O865 C850 1.256 1_556 S
O866 La841 2.521 . S
O866 C851 1.261 . S
O867 La841 2.628 . S
O867 C851 1.243 . S
O868 La841 2.554 . S
O868 C858 1.240 . S
O869 La840 2.482 . S
O869 La841 2.757 1_554 S
O869 C858 1.289 1_554 S
O870 La841 2.470 . S
O870 C859 1.258 . S
O871 La840 2.503 . S
O871 C859 1.256 1_554 S
H872 C844 0.930 . S
H873 C845 0.930 . S
H874 C847 0.929 . S
H875 C848 0.929 . S
H876 C853 0.930 . S
H877 C854 0.930 . S
H878 C856 0.929 . S
H879 C857 0.929 . S
La880 C882 2.928 . S
La880 O900 2.521 . S
La880 O901 2.628 . S
La880 O902 2.554 . S
La880 O903 2.757 1_554 S
La880 O904 2.470 . S
La880 O909 2.482 . S
La880 O911 2.503 . S
La881 C891 2.928 . S
La881 O903 2.482 . S
La881 O905 2.503 . S
La881 O906 2.521 . S
La881 O907 2.628 . S
La881 O908 2.554 . S
La881 O909 2.757 1_556 S
La881 O910 2.470 . S
C882 La880 2.928 . S
C882 C883 1.503 . S
C882 O900 1.261 . S
C882 O901 1.243 . S
C883 C882 1.503 . S
C883 C884 1.394 . S
C883 C888 1.373 . S
C884 C883 1.394 . S
C884 C885 1.380 . S
C884 H912 0.930 . S
C885 C884 1.380 . S
C885 C886 1.376 . S
C885 H913 0.930 . S
C886 C885 1.376 . S
C886 C887 1.370 . S
C887 C886 1.370 . S
C887 C888 1.396 . S
C887 H914 0.929 . S
C888 C883 1.373 . S
C888 C887 1.396 . S
C888 H915 0.929 . S
C889 O902 1.240 . S
C889 O903 1.289 1_554 S
C890 O904 1.258 . S
C890 O905 1.256 1_554 S
C891 La881 2.928 . S
C891 C892 1.503 . S
C891 O906 1.261 . S
C891 O907 1.243 . S
C892 C891 1.503 . S
C892 C893 1.394 . S
C892 C897 1.373 . S
C893 C892 1.394 . S
C893 C894 1.380 . S
C893 H916 0.930 . S
C894 C893 1.380 . S
C894 C895 1.376 . S
C894 H917 0.930 . S
C895 C894 1.376 . S
C895 C896 1.370 . S
C896 C895 1.370 . S
C896 C897 1.396 . S
C896 H918 0.929 . S
C897 C892 1.373 . S
C897 C896 1.396 . S
C897 H919 0.929 . S
C898 O908 1.240 . S
C898 O909 1.289 1_556 S
C899 O910 1.258 . S
C899 O911 1.256 1_556 S
O900 La880 2.521 . S
O900 C882 1.261 . S
O901 La880 2.628 . S
O901 C882 1.243 . S
O902 La880 2.554 . S
O902 C889 1.240 . S
O903 La880 2.757 1_556 S
O903 La881 2.482 . S
O903 C889 1.289 1_556 S
O904 La880 2.470 . S
O904 C890 1.258 . S
O905 La881 2.503 . S
O905 C890 1.256 1_556 S
O906 La881 2.521 . S
O906 C891 1.261 . S
O907 La881 2.628 . S
O907 C891 1.243 . S
O908 La881 2.554 . S
O908 C898 1.240 . S
O909 La880 2.482 . S
O909 La881 2.757 1_554 S
O909 C898 1.289 1_554 S
O910 La881 2.470 . S
O910 C899 1.258 . S
O911 La880 2.503 . S
O911 C899 1.256 1_554 S
H912 C884 0.930 . S
H913 C885 0.930 . S
H914 C887 0.929 . S
H915 C888 0.929 . S
H916 C893 0.930 . S
H917 C894 0.930 . S
H918 C896 0.929 . S
H919 C897 0.929 . S
La920 C922 2.928 . S
La920 O940 2.521 . S
La920 O941 2.628 . S
La920 O942 2.554 . S
La920 O943 2.757 1_554 S
La920 O944 2.470 . S
La920 O949 2.482 . S
La920 O951 2.503 . S
La921 C931 2.928 . S
La921 O943 2.482 . S
La921 O945 2.503 . S
La921 O946 2.521 . S
La921 O947 2.628 . S
La921 O948 2.554 . S
La921 O949 2.757 1_556 S
La921 O950 2.470 . S
C922 La920 2.928 . S
C922 C923 1.503 . S
C922 O940 1.261 . S
C922 O941 1.243 . S
C923 C922 1.503 . S
C923 C924 1.394 . S
C923 C928 1.373 . S
C924 C923 1.394 . S
C924 C925 1.380 . S
C924 H952 0.930 . S
C925 C924 1.380 . S
C925 C926 1.376 . S
C925 H953 0.930 . S
C926 C925 1.376 . S
C926 C927 1.370 . S
C927 C926 1.370 . S
C927 C928 1.396 . S
C927 H954 0.929 . S
C928 C923 1.373 . S
C928 C927 1.396 . S
C928 H955 0.929 . S
C929 O942 1.240 . S
C929 O943 1.289 1_554 S
C930 O944 1.258 . S
C930 O945 1.256 1_554 S
C931 La921 2.928 . S
C931 C932 1.503 . S
C931 O946 1.261 . S
C931 O947 1.243 . S
C932 C931 1.503 . S
C932 C933 1.394 . S
C932 C937 1.373 . S
C933 C932 1.394 . S
C933 C934 1.380 . S
C933 H956 0.930 . S
C934 C933 1.380 . S
C934 C935 1.376 . S
C934 H957 0.930 . S
C935 C934 1.376 . S
C935 C936 1.370 . S
C936 C935 1.370 . S
C936 C937 1.396 . S
C936 H958 0.929 . S
C937 C932 1.373 . S
C937 C936 1.396 . S
C937 H959 0.929 . S
C938 O948 1.240 . S
C938 O949 1.289 1_556 S
C939 O950 1.258 . S
C939 O951 1.256 1_556 S
O940 La920 2.521 . S
O940 C922 1.261 . S
O941 La920 2.628 . S
O941 C922 1.243 . S
O942 La920 2.554 . S
O942 C929 1.240 . S
O943 La920 2.757 1_556 S
O943 La921 2.482 . S
O943 C929 1.289 1_556 S
O944 La920 2.470 . S
O944 C930 1.258 . S
O945 La921 2.503 . S
O945 C930 1.256 1_556 S
O946 La921 2.521 . S
O946 C931 1.261 . S
O947 La921 2.628 . S
O947 C931 1.243 . S
O948 La921 2.554 . S
O948 C938 1.240 . S
O949 La920 2.482 . S
O949 La921 2.757 1_554 S
O949 C938 1.289 1_554 S
O950 La921 2.470 . S
O950 C939 1.258 . S
O951 La920 2.503 . S
O951 C939 1.256 1_554 S
H952 C924 0.930 . S
H953 C925 0.930 . S
H954 C927 0.929 . S
H955 C928 0.929 . S
H956 C933 0.930 . S
H957 C934 0.930 . S
H958 C936 0.929 . S
H959 C937 0.929 . S
La960 C962 2.928 . S
La960 O980 2.521 . S
La960 O981 2.628 . S
La960 O982 2.554 . S
La960 O983 2.757 . S
La960 O984 2.470 . S
La960 O989 2.482 . S
La960 O991 2.503 . S
La961 C971 2.928 . S
La961 O983 2.482 . S
La961 O985 2.503 . S
La961 O986 2.521 . S
La961 O987 2.628 . S
La961 O988 2.554 . S
La961 O989 2.757 . S
La961 O990 2.470 . S
C962 La960 2.928 . S
C962 C963 1.503 . S
C962 O980 1.261 . S
C962 O981 1.243 . S
C963 C962 1.503 . S
C963 C964 1.394 . S
C963 C968 1.373 . S
C964 C963 1.394 . S
C964 C965 1.380 . S
C964 H992 0.930 . S
C965 C964 1.380 . S
C965 C966 1.376 . S
C965 H993 0.930 . S
C966 C965 1.376 . S
C966 C967 1.370 1_565 S
C967 C966 1.370 1_545 S
C967 C968 1.396 1_545 S
C967 H994 0.929 . S
C968 C963 1.373 . S
C968 C967 1.396 1_565 S
C968 H995 0.929 1_565 S
C969 O982 1.240 . S
C969 O983 1.289 . S
C970 O984 1.258 . S
C970 O985 1.256 . S
C971 La961 2.928 . S
C971 C972 1.503 . S
C971 O986 1.261 . S
C971 O987 1.243 . S
C972 C971 1.503 . S
C972 C973 1.394 . S
C972 C977 1.373 . S
C973 C972 1.394 . S
C973 C974 1.380 . S
C973 H996 0.930 . S
C974 C973 1.380 . S
C974 C975 1.376 . S
C974 H997 0.930 . S
C975 C974 1.376 . S
C975 C976 1.370 . S
C976 C975 1.370 . S
C976 C977 1.396 . S
C976 H998 0.929 . S
C977 C972 1.373 . S
C977 C976 1.396 . S
C977 H999 0.929 . S
C978 O988 1.240 . S
C978 O989 1.289 . S
C979 O990 1.258 . S
C979 O991 1.256 . S
O980 La960 2.521 . S
O980 C962 1.261 . S
O981 La960 2.628 . S
O981 C962 1.243 . S
O982 La960 2.554 . S
O982 C969 1.240 . S
O983 La960 2.757 . S
O983 La961 2.482 . S
O983 C969 1.289 . S
O984 La960 2.470 . S
O984 C970 1.258 . S
O985 La961 2.503 . S
O985 C970 1.256 . S
O986 La961 2.521 . S
O986 C971 1.261 . S
O987 La961 2.628 . S
O987 C971 1.243 . S
O988 La961 2.554 . S
O988 C978 1.240 . S
O989 La960 2.482 . S
O989 La961 2.757 . S
O989 C978 1.289 . S
O990 La961 2.470 . S
O990 C979 1.258 . S
O991 La960 2.503 . S
O991 C979 1.256 . S
H992 C964 0.930 . S
H993 C965 0.930 . S
H994 C967 0.929 . S
H995 C968 0.929 1_545 S
H996 C973 0.930 . S
H997 C974 0.930 . S
H998 C976 0.929 . S
H999 C977 0.929 . S
La1000 C1002 2.928 . S
La1000 O1020 2.521 . S
La1000 O1021 2.628 . S
La1000 O1022 2.554 . S
La1000 O1023 2.757 . S
La1000 O1024 2.470 . S
La1000 O1029 2.482 . S
La1000 O1031 2.503 . S
La1001 C1011 2.928 . S
La1001 O1023 2.482 . S
La1001 O1025 2.503 . S
La1001 O1026 2.521 . S
La1001 O1027 2.628 . S
La1001 O1028 2.554 . S
La1001 O1029 2.757 . S
La1001 O1030 2.470 . S
C1002 La1000 2.928 . S
C1002 C1003 1.503 . S
C1002 O1020 1.261 . S
C1002 O1021 1.243 . S
C1003 C1002 1.503 . S
C1003 C1004 1.394 . S
C1003 C1008 1.373 . S
C1004 C1003 1.394 . S
C1004 C1005 1.380 . S
C1004 H1032 0.930 . S
C1005 C1004 1.380 . S
C1005 C1006 1.376 . S
C1005 H1033 0.930 . S
C1006 C1005 1.376 . S
C1006 C1007 1.370 1_455 S
C1007 C1006 1.370 1_655 S
C1007 C1008 1.396 1_655 S
C1007 H1034 0.929 . S
C1008 C1003 1.373 . S
C1008 C1007 1.396 1_455 S
C1008 H1035 0.929 1_455 S
C1009 O1022 1.240 . S
C1009 O1023 1.289 . S
C1010 O1024 1.258 . S
C1010 O1025 1.256 . S
C1011 La1001 2.928 . S
C1011 C1012 1.503 . S
C1011 O1026 1.261 . S
C1011 O1027 1.243 . S
C1012 C1011 1.503 . S
C1012 C1013 1.394 . S
C1012 C1017 1.373 . S
C1013 C1012 1.394 . S
C1013 C1014 1.380 . S
C1013 H1036 0.930 . S
C1014 C1013 1.380 . S
C1014 C1015 1.376 . S
C1014 H1037 0.930 . S
C1015 C1014 1.376 . S
C1015 C1016 1.370 . S
C1016 C1015 1.370 . S
C1016 C1017 1.396 . S
C1016 H1038 0.929 . S
C1017 C1012 1.373 . S
C1017 C1016 1.396 . S
C1017 H1039 0.929 . S
C1018 O1028 1.240 . S
C1018 O1029 1.289 . S
C1019 O1030 1.258 . S
C1019 O1031 1.256 . S
O1020 La1000 2.521 . S
O1020 C1002 1.261 . S
O1021 La1000 2.628 . S
O1021 C1002 1.243 . S
O1022 La1000 2.554 . S
O1022 C1009 1.240 . S
O1023 La1000 2.757 . S
O1023 La1001 2.482 . S
O1023 C1009 1.289 . S
O1024 La1000 2.470 . S
O1024 C1010 1.258 . S
O1025 La1001 2.503 . S
O1025 C1010 1.256 . S
O1026 La1001 2.521 . S
O1026 C1011 1.261 . S
O1027 La1001 2.628 . S
O1027 C1011 1.243 . S
O1028 La1001 2.554 . S
O1028 C1018 1.240 . S
O1029 La1000 2.482 . S
O1029 La1001 2.757 . S
O1029 C1018 1.289 . S
O1030 La1001 2.470 . S
O1030 C1019 1.258 . S
O1031 La1000 2.503 . S
O1031 C1019 1.256 . S
H1032 C1004 0.930 . S
H1033 C1005 0.930 . S
H1034 C1007 0.929 . S
H1035 C1008 0.929 1_655 S
H1036 C1013 0.930 . S
H1037 C1014 0.930 . S
H1038 C1016 0.929 . S
H1039 C1017 0.929 . S
La1040 C1042 2.928 . S
La1040 O1060 2.521 . S
La1040 O1061 2.628 . S
La1040 O1062 2.554 . S
La1040 O1063 2.757 . S
La1040 O1064 2.470 . S
La1040 O1069 2.482 . S
La1040 O1071 2.503 . S
La1041 C1051 2.928 . S
La1041 O1063 2.482 . S
La1041 O1065 2.503 . S
La1041 O1066 2.521 . S
La1041 O1067 2.628 . S
La1041 O1068 2.554 . S
La1041 O1069 2.757 . S
La1041 O1070 2.470 . S
C1042 La1040 2.928 . S
C1042 C1043 1.503 . S
C1042 O1060 1.261 . S
C1042 O1061 1.243 . S
C1043 C1042 1.503 . S
C1043 C1044 1.394 . S
C1043 C1048 1.373 . S
C1044 C1043 1.394 . S
C1044 C1045 1.380 . S
C1044 H1072 0.930 . S
C1045 C1044 1.380 . S
C1045 C1046 1.376 . S
C1045 H1073 0.930 . S
C1046 C1045 1.376 . S
C1046 C1047 1.370 . S
C1047 C1046 1.370 . S
C1047 C1048 1.396 . S
C1047 H1074 0.929 . S
C1048 C1043 1.373 . S
C1048 C1047 1.396 . S
C1048 H1075 0.929 . S
C1049 O1062 1.240 . S
C1049 O1063 1.289 . S
C1050 O1064 1.258 . S
C1050 O1065 1.256 . S
C1051 La1041 2.928 . S
C1051 C1052 1.503 . S
C1051 O1066 1.261 . S
C1051 O1067 1.243 . S
C1052 C1051 1.503 . S
C1052 C1053 1.394 . S
C1052 C1057 1.373 . S
C1053 C1052 1.394 . S
C1053 C1054 1.380 . S
C1053 H1076 0.930 . S
C1054 C1053 1.380 . S
C1054 C1055 1.376 . S
C1054 H1077 0.930 . S
C1055 C1054 1.376 . S
C1055 C1056 1.370 . S
C1056 C1055 1.370 . S
C1056 C1057 1.396 . S
C1056 H1078 0.929 . S
C1057 C1052 1.373 . S
C1057 C1056 1.396 . S
C1057 H1079 0.929 . S
C1058 O1068 1.240 . S
C1058 O1069 1.289 . S
C1059 O1070 1.258 . S
C1059 O1071 1.256 . S
O1060 La1040 2.521 . S
O1060 C1042 1.261 . S
O1061 La1040 2.628 . S
O1061 C1042 1.243 . S
O1062 La1040 2.554 . S
O1062 C1049 1.240 . S
O1063 La1040 2.757 . S
O1063 La1041 2.482 . S
O1063 C1049 1.289 . S
O1064 La1040 2.470 . S
O1064 C1050 1.258 . S
O1065 La1041 2.503 . S
O1065 C1050 1.256 . S
O1066 La1041 2.521 . S
O1066 C1051 1.261 . S
O1067 La1041 2.628 . S
O1067 C1051 1.243 . S
O1068 La1041 2.554 . S
O1068 C1058 1.240 . S
O1069 La1040 2.482 . S
O1069 La1041 2.757 . S
O1069 C1058 1.289 . S
O1070 La1041 2.470 . S
O1070 C1059 1.258 . S
O1071 La1040 2.503 . S
O1071 C1059 1.256 . S
H1072 C1044 0.930 . S
H1073 C1045 0.930 . S
H1074 C1047 0.929 . S
H1075 C1048 0.929 . S
H1076 C1053 0.930 . S
H1077 C1054 0.930 . S
H1078 C1056 0.929 . S
H1079 C1057 0.929 . S
La1080 C1082 2.928 . S
La1080 O1100 2.521 . S
La1080 O1101 2.628 . S
La1080 O1102 2.554 . S
La1080 O1103 2.757 1_554 S
La1080 O1104 2.470 . S
La1080 O1109 2.482 . S
La1080 O1111 2.503 . S
La1081 C1091 2.928 . S
La1081 O1103 2.482 . S
La1081 O1105 2.503 . S
La1081 O1106 2.521 . S
La1081 O1107 2.628 . S
La1081 O1108 2.554 . S
La1081 O1109 2.757 1_556 S
La1081 O1110 2.470 . S
C1082 La1080 2.928 . S
C1082 C1083 1.503 . S
C1082 O1100 1.261 . S
C1082 O1101 1.243 . S
C1083 C1082 1.503 . S
C1083 C1084 1.394 . S
C1083 C1088 1.373 . S
C1084 C1083 1.394 . S
C1084 C1085 1.380 . S
C1084 H1112 0.930 . S
C1085 C1084 1.380 . S
C1085 C1086 1.376 . S
C1085 H1113 0.930 . S
C1086 C1085 1.376 . S
C1086 C1087 1.370 . S
C1087 C1086 1.370 . S
C1087 C1088 1.396 . S
C1087 H1114 0.929 . S
C1088 C1083 1.373 . S
C1088 C1087 1.396 . S
C1088 H1115 0.929 . S
C1089 O1102 1.240 . S
C1089 O1103 1.289 1_554 S
C1090 O1104 1.258 . S
C1090 O1105 1.256 1_554 S
C1091 La1081 2.928 . S
C1091 C1092 1.503 . S
C1091 O1106 1.261 . S
C1091 O1107 1.243 . S
C1092 C1091 1.503 . S
C1092 C1093 1.394 . S
C1092 C1097 1.373 . S
C1093 C1092 1.394 . S
C1093 C1094 1.380 . S
C1093 H1116 0.930 . S
C1094 C1093 1.380 . S
C1094 C1095 1.376 . S
C1094 H1117 0.930 . S
C1095 C1094 1.376 . S
C1095 C1096 1.370 . S
C1096 C1095 1.370 . S
C1096 C1097 1.396 . S
C1096 H1118 0.929 . S
C1097 C1092 1.373 . S
C1097 C1096 1.396 . S
C1097 H1119 0.929 . S
C1098 O1108 1.240 . S
C1098 O1109 1.289 1_556 S
C1099 O1110 1.258 . S
C1099 O1111 1.256 1_556 S
O1100 La1080 2.521 . S
O1100 C1082 1.261 . S
O1101 La1080 2.628 . S
O1101 C1082 1.243 . S
O1102 La1080 2.554 . S
O1102 C1089 1.240 . S
O1103 La1080 2.757 1_556 S
O1103 La1081 2.482 . S
O1103 C1089 1.289 1_556 S
O1104 La1080 2.470 . S
O1104 C1090 1.258 . S
O1105 La1081 2.503 . S
O1105 C1090 1.256 1_556 S
O1106 La1081 2.521 . S
O1106 C1091 1.261 . S
O1107 La1081 2.628 . S
O1107 C1091 1.243 . S
O1108 La1081 2.554 . S
O1108 C1098 1.240 . S
O1109 La1080 2.482 . S
O1109 La1081 2.757 1_554 S
O1109 C1098 1.289 1_554 S
O1110 La1081 2.470 . S
O1110 C1099 1.258 . S
O1111 La1080 2.503 . S
O1111 C1099 1.256 1_554 S
H1112 C1084 0.930 . S
H1113 C1085 0.930 . S
H1114 C1087 0.929 . S
H1115 C1088 0.929 . S
H1116 C1093 0.930 . S
H1117 C1094 0.930 . S
H1118 C1096 0.929 . S
H1119 C1097 0.929 . S
La1120 C1122 2.928 . S
La1120 O1140 2.521 . S
La1120 O1141 2.628 . S
La1120 O1142 2.554 . S
La1120 O1143 2.757 1_554 S
La1120 O1144 2.470 . S
La1120 O1149 2.482 . S
La1120 O1151 2.503 . S
La1121 C1131 2.928 . S
La1121 O1143 2.482 . S
La1121 O1145 2.503 . S
La1121 O1146 2.521 . S
La1121 O1147 2.628 . S
La1121 O1148 2.554 . S
La1121 O1149 2.757 1_556 S
La1121 O1150 2.470 . S
C1122 La1120 2.928 . S
C1122 C1123 1.503 . S
C1122 O1140 1.261 . S
C1122 O1141 1.243 . S
C1123 C1122 1.503 . S
C1123 C1124 1.394 . S
C1123 C1128 1.373 . S
C1124 C1123 1.394 . S
C1124 C1125 1.380 . S
C1124 H1152 0.930 . S
C1125 C1124 1.380 . S
C1125 C1126 1.376 . S
C1125 H1153 0.930 . S
C1126 C1125 1.376 . S
C1126 C1127 1.370 . S
C1127 C1126 1.370 . S
C1127 C1128 1.396 . S
C1127 H1154 0.929 . S
C1128 C1123 1.373 . S
C1128 C1127 1.396 . S
C1128 H1155 0.929 . S
C1129 O1142 1.240 . S
C1129 O1143 1.289 1_554 S
C1130 O1144 1.258 . S
C1130 O1145 1.256 1_554 S
C1131 La1121 2.928 . S
C1131 C1132 1.503 . S
C1131 O1146 1.261 . S
C1131 O1147 1.243 . S
C1132 C1131 1.503 . S
C1132 C1133 1.394 . S
C1132 C1137 1.373 . S
C1133 C1132 1.394 . S
C1133 C1134 1.380 . S
C1133 H1156 0.930 . S
C1134 C1133 1.380 . S
C1134 C1135 1.376 . S
C1134 H1157 0.930 . S
C1135 C1134 1.376 . S
C1135 C1136 1.370 . S
C1136 C1135 1.370 . S
C1136 C1137 1.396 . S
C1136 H1158 0.929 . S
C1137 C1132 1.373 . S
C1137 C1136 1.396 . S
C1137 H1159 0.929 . S
C1138 O1148 1.240 . S
C1138 O1149 1.289 1_556 S
C1139 O1150 1.258 . S
C1139 O1151 1.256 1_556 S
O1140 La1120 2.521 . S
O1140 C1122 1.261 . S
O1141 La1120 2.628 . S
O1141 C1122 1.243 . S
O1142 La1120 2.554 . S
O1142 C1129 1.240 . S
O1143 La1120 2.757 1_556 S
O1143 La1121 2.482 . S
O1143 C1129 1.289 1_556 S
O1144 La1120 2.470 . S
O1144 C1130 1.258 . S
O1145 La1121 2.503 . S
O1145 C1130 1.256 1_556 S
O1146 La1121 2.521 . S
O1146 C1131 1.261 . S
O1147 La1121 2.628 . S
O1147 C1131 1.243 . S
O1148 La1121 2.554 . S
O1148 C1138 1.240 . S
O1149 La1120 2.482 . S
O1149 La1121 2.757 1_554 S
O1149 C1138 1.289 1_554 S
O1150 La1121 2.470 . S
O1150 C1139 1.258 . S
O1151 La1120 2.503 . S
O1151 C1139 1.256 1_554 S
H1152 C1124 0.930 . S
H1153 C1125 0.930 . S
H1154 C1127 0.929 . S
H1155 C1128 0.929 . S
H1156 C1133 0.930 . S
H1157 C1134 0.930 . S
H1158 C1136 0.929 . S
H1159 C1137 0.929 . S
La1160 C1162 2.928 . S
La1160 O1180 2.521 . S
La1160 O1181 2.628 . S
La1160 O1182 2.554 . S
La1160 O1183 2.757 1_554 S
La1160 O1184 2.470 . S
La1160 O1189 2.482 . S
La1160 O1191 2.503 . S
La1161 C1171 2.928 . S
La1161 O1183 2.482 . S
La1161 O1185 2.503 . S
La1161 O1186 2.521 . S
La1161 O1187 2.628 . S
La1161 O1188 2.554 . S
La1161 O1189 2.757 1_556 S
La1161 O1190 2.470 . S
C1162 La1160 2.928 . S
C1162 C1163 1.503 . S
C1162 O1180 1.261 . S
C1162 O1181 1.243 . S
C1163 C1162 1.503 . S
C1163 C1164 1.394 . S
C1163 C1168 1.373 . S
C1164 C1163 1.394 . S
C1164 C1165 1.380 . S
C1164 H1192 0.930 . S
C1165 C1164 1.380 . S
C1165 C1166 1.376 . S
C1165 H1193 0.930 . S
C1166 C1165 1.376 . S
C1166 C1167 1.370 . S
C1167 C1166 1.370 . S
C1167 C1168 1.396 . S
C1167 H1194 0.929 . S
C1168 C1163 1.373 . S
C1168 C1167 1.396 . S
C1168 H1195 0.929 . S
C1169 O1182 1.240 . S
C1169 O1183 1.289 1_554 S
C1170 O1184 1.258 . S
C1170 O1185 1.256 1_554 S
C1171 La1161 2.928 . S
C1171 C1172 1.503 . S
C1171 O1186 1.261 . S
C1171 O1187 1.243 . S
C1172 C1171 1.503 . S
C1172 C1173 1.394 . S
C1172 C1177 1.373 . S
C1173 C1172 1.394 . S
C1173 C1174 1.380 . S
C1173 H1196 0.930 . S
C1174 C1173 1.380 . S
C1174 C1175 1.376 . S
C1174 H1197 0.930 . S
C1175 C1174 1.376 . S
C1175 C1176 1.370 . S
C1176 C1175 1.370 . S
C1176 C1177 1.396 . S
C1176 H1198 0.929 . S
C1177 C1172 1.373 . S
C1177 C1176 1.396 . S
C1177 H1199 0.929 . S
C1178 O1188 1.240 . S
C1178 O1189 1.289 1_556 S
C1179 O1190 1.258 . S
C1179 O1191 1.256 1_556 S
O1180 La1160 2.521 . S
O1180 C1162 1.261 . S
O1181 La1160 2.628 . S
O1181 C1162 1.243 . S
O1182 La1160 2.554 . S
O1182 C1169 1.240 . S
O1183 La1160 2.757 1_556 S
O1183 La1161 2.482 . S
O1183 C1169 1.289 1_556 S
O1184 La1160 2.470 . S
O1184 C1170 1.258 . S
O1185 La1161 2.503 . S
O1185 C1170 1.256 1_556 S
O1186 La1161 2.521 . S
O1186 C1171 1.261 . S
O1187 La1161 2.628 . S
O1187 C1171 1.243 . S
O1188 La1161 2.554 . S
O1188 C1178 1.240 . S
O1189 La1160 2.482 . S
O1189 La1161 2.757 1_554 S
O1189 C1178 1.289 1_554 S
O1190 La1161 2.470 . S
O1190 C1179 1.258 . S
O1191 La1160 2.503 . S
O1191 C1179 1.256 1_554 S
H1192 C1164 0.930 . S
H1193 C1165 0.930 . S
H1194 C1167 0.929 . S
H1195 C1168 0.929 . S
H1196 C1173 0.930 . S
H1197 C1174 0.930 . S
H1198 C1176 0.929 . S
H1199 C1177 0.929 . S
La1200 C1202 2.928 . S
La1200 O1220 2.521 . S
La1200 O1221 2.628 . S
La1200 O1222 2.554 . S
La1200 O1223 2.757 . S
La1200 O1224 2.470 . S
La1200 O1229 2.482 . S
La1200 O1231 2.503 . S
La1201 C1211 2.928 . S
La1201 O1223 2.482 . S
La1201 O1225 2.503 . S
La1201 O1226 2.521 . S
La1201 O1227 2.628 . S
La1201 O1228 2.554 . S
La1201 O1229 2.757 . S
La1201 O1230 2.470 . S
C1202 La1200 2.928 . S
C1202 C1203 1.503 . S
C1202 O1220 1.261 . S
C1202 O1221 1.243 . S
C1203 C1202 1.503 . S
C1203 C1204 1.394 . S
C1203 C1208 1.373 . S
C1204 C1203 1.394 . S
C1204 C1205 1.380 . S
C1204 H1232 0.930 . S
C1205 C1204 1.380 . S
C1205 C1206 1.376 . S
C1205 H1233 0.930 . S
C1206 C1205 1.376 . S
C1206 C1207 1.370 . S
C1207 C1206 1.370 . S
C1207 C1208 1.396 . S
C1207 H1234 0.929 . S
C1208 C1203 1.373 . S
C1208 C1207 1.396 . S
C1208 H1235 0.929 . S
C1209 O1222 1.240 . S
C1209 O1223 1.289 . S
C1210 O1224 1.258 . S
C1210 O1225 1.256 . S
C1211 La1201 2.928 . S
C1211 C1212 1.503 . S
C1211 O1226 1.261 . S
C1211 O1227 1.243 . S
C1212 C1211 1.503 . S
C1212 C1213 1.394 . S
C1212 C1217 1.373 . S
C1213 C1212 1.394 . S
C1213 C1214 1.380 . S
C1213 H1236 0.930 . S
C1214 C1213 1.380 . S
C1214 C1215 1.376 . S
C1214 H1237 0.930 . S
C1215 C1214 1.376 . S
C1215 C1216 1.370 . S
C1216 C1215 1.370 . S
C1216 C1217 1.396 . S
C1216 H1238 0.929 . S
C1217 C1212 1.373 . S
C1217 C1216 1.396 . S
C1217 H1239 0.929 . S
C1218 O1228 1.240 . S
C1218 O1229 1.289 . S
C1219 O1230 1.258 . S
C1219 O1231 1.256 . S
O1220 La1200 2.521 . S
O1220 C1202 1.261 . S
O1221 La1200 2.628 . S
O1221 C1202 1.243 . S
O1222 La1200 2.554 . S
O1222 C1209 1.240 . S
O1223 La1200 2.757 . S
O1223 La1201 2.482 . S
O1223 C1209 1.289 . S
O1224 La1200 2.470 . S
O1224 C1210 1.258 . S
O1225 La1201 2.503 . S
O1225 C1210 1.256 . S
O1226 La1201 2.521 . S
O1226 C1211 1.261 . S
O1227 La1201 2.628 . S
O1227 C1211 1.243 . S
O1228 La1201 2.554 . S
O1228 C1218 1.240 . S
O1229 La1200 2.482 . S
O1229 La1201 2.757 . S
O1229 C1218 1.289 . S
O1230 La1201 2.470 . S
O1230 C1219 1.258 . S
O1231 La1200 2.503 . S
O1231 C1219 1.256 . S
H1232 C1204 0.930 . S
H1233 C1205 0.930 . S
H1234 C1207 0.929 . S
H1235 C1208 0.929 . S
H1236 C1213 0.930 . S
H1237 C1214 0.930 . S
H1238 C1216 0.929 . S
H1239 C1217 0.929 . S
La1240 C1242 2.928 . S
La1240 O1260 2.521 . S
La1240 O1261 2.628 . S
La1240 O1262 2.554 . S
La1240 O1263 2.757 . S
La1240 O1264 2.470 . S
La1240 O1269 2.482 . S
La1240 O1271 2.503 . S
La1241 C1251 2.928 . S
La1241 O1263 2.482 . S
La1241 O1265 2.503 . S
La1241 O1266 2.521 . S
La1241 O1267 2.628 . S
La1241 O1268 2.554 . S
La1241 O1269 2.757 . S
La1241 O1270 2.470 . S
C1242 La1240 2.928 . S
C1242 C1243 1.503 . S
C1242 O1260 1.261 . S
C1242 O1261 1.243 . S
C1243 C1242 1.503 . S
C1243 C1244 1.394 . S
C1243 C1248 1.373 . S
C1244 C1243 1.394 . S
C1244 C1245 1.380 . S
C1244 H1272 0.930 . S
C1245 C1244 1.380 . S
C1245 C1246 1.376 . S
C1245 H1273 0.930 . S
C1246 C1245 1.376 . S
C1246 C1247 1.370 . S
C1247 C1246 1.370 . S
C1247 C1248 1.396 . S
C1247 H1274 0.929 . S
C1248 C1243 1.373 . S
C1248 C1247 1.396 . S
C1248 H1275 0.929 . S
C1249 O1262 1.240 . S
C1249 O1263 1.289 . S
C1250 O1264 1.258 . S
C1250 O1265 1.256 . S
C1251 La1241 2.928 . S
C1251 C1252 1.503 . S
C1251 O1266 1.261 . S
C1251 O1267 1.243 . S
C1252 C1251 1.503 . S
C1252 C1253 1.394 . S
C1252 C1257 1.373 . S
C1253 C1252 1.394 . S
C1253 C1254 1.380 . S
C1253 H1276 0.930 . S
C1254 C1253 1.380 . S
C1254 C1255 1.376 . S
C1254 H1277 0.930 . S
C1255 C1254 1.376 . S
C1255 C1256 1.370 . S
C1256 C1255 1.370 . S
C1256 C1257 1.396 . S
C1256 H1278 0.929 . S
C1257 C1252 1.373 . S
C1257 C1256 1.396 . S
C1257 H1279 0.929 . S
C1258 O1268 1.240 . S
C1258 O1269 1.289 . S
C1259 O1270 1.258 . S
C1259 O1271 1.256 . S
O1260 La1240 2.521 . S
O1260 C1242 1.261 . S
O1261 La1240 2.628 . S
O1261 C1242 1.243 . S
O1262 La1240 2.554 . S
O1262 C1249 1.240 . S
O1263 La1240 2.757 . S
O1263 La1241 2.482 . S
O1263 C1249 1.289 . S
O1264 La1240 2.470 . S
O1264 C1250 1.258 . S
O1265 La1241 2.503 . S
O1265 C1250 1.256 . S
O1266 La1241 2.521 . S
O1266 C1251 1.261 . S
O1267 La1241 2.628 . S
O1267 C1251 1.243 . S
O1268 La1241 2.554 . S
O1268 C1258 1.240 . S
O1269 La1240 2.482 . S
O1269 La1241 2.757 . S
O1269 C1258 1.289 . S
O1270 La1241 2.470 . S
O1270 C1259 1.258 . S
O1271 La1240 2.503 . S
O1271 C1259 1.256 . S
H1272 C1244 0.930 . S
H1273 C1245 0.930 . S
H1274 C1247 0.929 . S
H1275 C1248 0.929 . S
H1276 C1253 0.930 . S
H1277 C1254 0.930 . S
H1278 C1256 0.929 . S
H1279 C1257 0.929 . S
La1280 C1282 2.928 . S
La1280 O1300 2.521 . S
La1280 O1301 2.628 . S
La1280 O1302 2.554 . S
La1280 O1303 2.757 . S
La1280 O1304 2.470 . S
La1280 O1309 2.482 . S
La1280 O1311 2.503 . S
La1281 C1291 2.928 . S
La1281 O1303 2.482 . S
La1281 O1305 2.503 . S
La1281 O1306 2.521 . S
La1281 O1307 2.628 . S
La1281 O1308 2.554 . S
La1281 O1309 2.757 . S
La1281 O1310 2.470 . S
C1282 La1280 2.928 . S
C1282 C1283 1.503 . S
C1282 O1300 1.261 . S
C1282 O1301 1.243 . S
C1283 C1282 1.503 . S
C1283 C1284 1.394 . S
C1283 C1288 1.373 . S
C1284 C1283 1.394 . S
C1284 C1285 1.380 . S
C1284 H1312 0.930 . S
C1285 C1284 1.380 . S
C1285 C1286 1.376 . S
C1285 H1313 0.930 . S
C1286 C1285 1.376 . S
C1286 C1287 1.370 . S
C1287 C1286 1.370 . S
C1287 C1288 1.396 . S
C1287 H1314 0.929 . S
C1288 C1283 1.373 . S
C1288 C1287 1.396 . S
C1288 H1315 0.929 . S
C1289 O1302 1.240 . S
C1289 O1303 1.289 . S
C1290 O1304 1.258 . S
C1290 O1305 1.256 . S
C1291 La1281 2.928 . S
C1291 C1292 1.503 . S
C1291 O1306 1.261 . S
C1291 O1307 1.243 . S
C1292 C1291 1.503 . S
C1292 C1293 1.394 . S
C1292 C1297 1.373 . S
C1293 C1292 1.394 . S
C1293 C1294 1.380 . S
C1293 H1316 0.930 . S
C1294 C1293 1.380 . S
C1294 C1295 1.376 . S
C1294 H1317 0.930 . S
C1295 C1294 1.376 . S
C1295 C1296 1.370 . S
C1296 C1295 1.370 . S
C1296 C1297 1.396 . S
C1296 H1318 0.929 . S
C1297 C1292 1.373 . S
C1297 C1296 1.396 . S
C1297 H1319 0.929 . S
C1298 O1308 1.240 . S
C1298 O1309 1.289 . S
C1299 O1310 1.258 . S
C1299 O1311 1.256 . S
O1300 La1280 2.521 . S
O1300 C1282 1.261 . S
O1301 La1280 2.628 . S
O1301 C1282 1.243 . S
O1302 La1280 2.554 . S
O1302 C1289 1.240 . S
O1303 La1280 2.757 . S
O1303 La1281 2.482 . S
O1303 C1289 1.289 . S
O1304 La1280 2.470 . S
O1304 C1290 1.258 . S
O1305 La1281 2.503 . S
O1305 C1290 1.256 . S
O1306 La1281 2.521 . S
O1306 C1291 1.261 . S
O1307 La1281 2.628 . S
O1307 C1291 1.243 . S
O1308 La1281 2.554 . S
O1308 C1298 1.240 . S
O1309 La1280 2.482 . S
O1309 La1281 2.757 . S
O1309 C1298 1.289 . S
O1310 La1281 2.470 . S
O1310 C1299 1.258 . S
O1311 La1280 2.503 . S
O1311 C1299 1.256 . S
H1312 C1284 0.930 . S
H1313 C1285 0.930 . S
H1314 C1287 0.929 . S
H1315 C1288 0.929 . S
H1316 C1293 0.930 . S
H1317 C1294 0.930 . S
H1318 C1296 0.929 . S
H1319 C1297 0.929 . S
La1320 C1322 2.928 . S
La1320 O1340 2.521 . S
La1320 O1341 2.628 . S
La1320 O1342 2.554 . S
La1320 O1343 2.757 . S
La1320 O1344 2.470 . S
La1320 O1349 2.482 . S
La1320 O1351 2.503 . S
La1321 C1331 2.928 . S
La1321 O1343 2.482 . S
La1321 O1345 2.503 . S
La1321 O1346 2.521 . S
La1321 O1347 2.628 . S
La1321 O1348 2.554 . S
La1321 O1349 2.757 . S
La1321 O1350 2.470 . S
C1322 La1320 2.928 . S
C1322 C1323 1.503 . S
C1322 O1340 1.261 . S
C1322 O1341 1.243 . S
C1323 C1322 1.503 . S
C1323 C1324 1.394 . S
C1323 C1328 1.373 . S
C1324 C1323 1.394 . S
C1324 C1325 1.380 . S
C1324 H1352 0.930 . S
C1325 C1324 1.380 . S
C1325 C1326 1.376 . S
C1325 H1353 0.930 . S
C1326 C1325 1.376 . S
C1326 C1327 1.370 . S
C1327 C1326 1.370 . S
C1327 C1328 1.396 . S
C1327 H1354 0.929 . S
C1328 C1323 1.373 . S
C1328 C1327 1.396 . S
C1328 H1355 0.929 . S
C1329 O1342 1.240 . S
C1329 O1343 1.289 . S
C1330 O1344 1.258 . S
C1330 O1345 1.256 . S
C1331 La1321 2.928 . S
C1331 C1332 1.503 . S
C1331 O1346 1.261 . S
C1331 O1347 1.243 . S
C1332 C1331 1.503 . S
C1332 C1333 1.394 . S
C1332 C1337 1.373 . S
C1333 C1332 1.394 . S
C1333 C1334 1.380 . S
C1333 H1356 0.930 . S
C1334 C1333 1.380 . S
C1334 C1335 1.376 . S
C1334 H1357 0.930 . S
C1335 C1334 1.376 . S
C1335 C1336 1.370 1_455 S
C1336 C1335 1.370 1_655 S
C1336 C1337 1.396 1_655 S
C1336 H1358 0.929 . S
C1337 C1332 1.373 . S
C1337 C1336 1.396 1_455 S
C1337 H1359 0.929 1_455 S
C1338 O1348 1.240 . S
C1338 O1349 1.289 . S
C1339 O1350 1.258 . S
C1339 O1351 1.256 . S
O1340 La1320 2.521 . S
O1340 C1322 1.261 . S
O1341 La1320 2.628 . S
O1341 C1322 1.243 . S
O1342 La1320 2.554 . S
O1342 C1329 1.240 . S
O1343 La1320 2.757 . S
O1343 La1321 2.482 . S
O1343 C1329 1.289 . S
O1344 La1320 2.470 . S
O1344 C1330 1.258 . S
O1345 La1321 2.503 . S
O1345 C1330 1.256 . S
O1346 La1321 2.521 . S
O1346 C1331 1.261 . S
O1347 La1321 2.628 . S
O1347 C1331 1.243 . S
O1348 La1321 2.554 . S
O1348 C1338 1.240 . S
O1349 La1320 2.482 . S
O1349 La1321 2.757 . S
O1349 C1338 1.289 . S
O1350 La1321 2.470 . S
O1350 C1339 1.258 . S
O1351 La1320 2.503 . S
O1351 C1339 1.256 . S
H1352 C1324 0.930 . S
H1353 C1325 0.930 . S
H1354 C1327 0.929 . S
H1355 C1328 0.929 . S
H1356 C1333 0.930 . S
H1357 C1334 0.930 . S
H1358 C1336 0.929 . S
H1359 C1337 0.929 1_655 S
La1360 C1362 2.928 . S
La1360 O1380 2.521 . S
La1360 O1381 2.628 . S
La1360 O1382 2.554 . S
La1360 O1383 2.757 . S
La1360 O1384 2.470 . S
La1360 O1389 2.482 . S
La1360 O1391 2.503 . S
La1361 C1371 2.928 . S
La1361 O1383 2.482 . S
La1361 O1385 2.503 . S
La1361 O1386 2.521 . S
La1361 O1387 2.628 . S
La1361 O1388 2.554 . S
La1361 O1389 2.757 . S
La1361 O1390 2.470 . S
C1362 La1360 2.928 . S
C1362 C1363 1.503 . S
C1362 O1380 1.261 . S
C1362 O1381 1.243 . S
C1363 C1362 1.503 . S
C1363 C1364 1.394 . S
C1363 C1368 1.373 . S
C1364 C1363 1.394 . S
C1364 C1365 1.380 . S
C1364 H1392 0.930 . S
C1365 C1364 1.380 . S
C1365 C1366 1.376 . S
C1365 H1393 0.930 . S
C1366 C1365 1.376 . S
C1366 C1367 1.370 . S
C1367 C1366 1.370 . S
C1367 C1368 1.396 . S
C1367 H1394 0.929 . S
C1368 C1363 1.373 . S
C1368 C1367 1.396 . S
C1368 H1395 0.929 . S
C1369 O1382 1.240 . S
C1369 O1383 1.289 . S
C1370 O1384 1.258 . S
C1370 O1385 1.256 . S
C1371 La1361 2.928 . S
C1371 C1372 1.503 . S
C1371 O1386 1.261 . S
C1371 O1387 1.243 . S
C1372 C1371 1.503 . S
C1372 C1373 1.394 . S
C1372 C1377 1.373 . S
C1373 C1372 1.394 . S
C1373 C1374 1.380 . S
C1373 H1396 0.930 . S
C1374 C1373 1.380 . S
C1374 C1375 1.376 . S
C1374 H1397 0.930 . S
C1375 C1374 1.376 . S
C1375 C1376 1.370 . S
C1376 C1375 1.370 . S
C1376 C1377 1.396 . S
C1376 H1398 0.929 . S
C1377 C1372 1.373 . S
C1377 C1376 1.396 . S
C1377 H1399 0.929 . S
C1378 O1388 1.240 . S
C1378 O1389 1.289 . S
C1379 O1390 1.258 . S
C1379 O1391 1.256 . S
O1380 La1360 2.521 . S
O1380 C1362 1.261 . S
O1381 La1360 2.628 . S
O1381 C1362 1.243 . S
O1382 La1360 2.554 . S
O1382 C1369 1.240 . S
O1383 La1360 2.757 . S
O1383 La1361 2.482 . S
O1383 C1369 1.289 . S
O1384 La1360 2.470 . S
O1384 C1370 1.258 . S
O1385 La1361 2.503 . S
O1385 C1370 1.256 . S
O1386 La1361 2.521 . S
O1386 C1371 1.261 . S
O1387 La1361 2.628 . S
O1387 C1371 1.243 . S
O1388 La1361 2.554 . S
O1388 C1378 1.240 . S
O1389 La1360 2.482 . S
O1389 La1361 2.757 . S
O1389 C1378 1.289 . S
O1390 La1361 2.470 . S
O1390 C1379 1.258 . S
O1391 La1360 2.503 . S
O1391 C1379 1.256 . S
H1392 C1364 0.930 . S
H1393 C1365 0.930 . S
H1394 C1367 0.929 . S
H1395 C1368 0.929 . S
H1396 C1373 0.930 . S
H1397 C1374 0.930 . S
H1398 C1376 0.929 . S
H1399 C1377 0.929 . S
La1400 C1402 2.928 . S
La1400 O1420 2.521 . S
La1400 O1421 2.628 . S
La1400 O1422 2.554 . S
La1400 O1423 2.757 . S
La1400 O1424 2.470 . S
La1400 O1429 2.482 . S
La1400 O1431 2.503 . S
La1401 C1411 2.928 . S
La1401 O1423 2.482 . S
La1401 O1425 2.503 . S
La1401 O1426 2.521 . S
La1401 O1427 2.628 . S
La1401 O1428 2.554 . S
La1401 O1429 2.757 . S
La1401 O1430 2.470 . S
C1402 La1400 2.928 . S
C1402 C1403 1.503 . S
C1402 O1420 1.261 . S
C1402 O1421 1.243 . S
C1403 C1402 1.503 . S
C1403 C1404 1.394 . S
C1403 C1408 1.373 . S
C1404 C1403 1.394 . S
C1404 C1405 1.380 . S
C1404 H1432 0.930 . S
C1405 C1404 1.380 . S
C1405 C1406 1.376 . S
C1405 H1433 0.930 . S
C1406 C1405 1.376 . S
C1406 C1407 1.370 . S
C1407 C1406 1.370 . S
C1407 C1408 1.396 . S
C1407 H1434 0.929 . S
C1408 C1403 1.373 . S
C1408 C1407 1.396 . S
C1408 H1435 0.929 . S
C1409 O1422 1.240 . S
C1409 O1423 1.289 . S
C1410 O1424 1.258 . S
C1410 O1425 1.256 . S
C1411 La1401 2.928 . S
C1411 C1412 1.503 . S
C1411 O1426 1.261 . S
C1411 O1427 1.243 . S
C1412 C1411 1.503 . S
C1412 C1413 1.394 . S
C1412 C1417 1.373 . S
C1413 C1412 1.394 . S
C1413 C1414 1.380 . S
C1413 H1436 0.930 . S
C1414 C1413 1.380 . S
C1414 C1415 1.376 . S
C1414 H1437 0.930 . S
C1415 C1414 1.376 . S
C1415 C1416 1.370 1_565 S
C1416 C1415 1.370 1_545 S
C1416 C1417 1.396 1_545 S
C1416 H1438 0.929 . S
C1417 C1412 1.373 . S
C1417 C1416 1.396 1_565 S
C1417 H1439 0.929 1_565 S
C1418 O1428 1.240 . S
C1418 O1429 1.289 . S
C1419 O1430 1.258 . S
C1419 O1431 1.256 . S
O1420 La1400 2.521 . S
O1420 C1402 1.261 . S
O1421 La1400 2.628 . S
O1421 C1402 1.243 . S
O1422 La1400 2.554 . S
O1422 C1409 1.240 . S
O1423 La1400 2.757 . S
O1423 La1401 2.482 . S
O1423 C1409 1.289 . S
O1424 La1400 2.470 . S
O1424 C1410 1.258 . S
O1425 La1401 2.503 . S
O1425 C1410 1.256 . S
O1426 La1401 2.521 . S
O1426 C1411 1.261 . S
O1427 La1401 2.628 . S
O1427 C1411 1.243 . S
O1428 La1401 2.554 . S
O1428 C1418 1.240 . S
O1429 La1400 2.482 . S
O1429 La1401 2.757 . S
O1429 C1418 1.289 . S
O1430 La1401 2.470 . S
O1430 C1419 1.258 . S
O1431 La1400 2.503 . S
O1431 C1419 1.256 . S
H1432 C1404 0.930 . S
H1433 C1405 0.930 . S
H1434 C1407 0.929 . S
H1435 C1408 0.929 . S
H1436 C1413 0.930 . S
H1437 C1414 0.930 . S
H1438 C1416 0.929 . S
H1439 C1417 0.929 1_545 S
H1440 C1446 0.930 . S
H1441 C1450 0.930 1_565 S
H1442 C1455 0.929 . S
H1443 C1453 0.929 . S
H1444 C1448 0.929 . S
H1445 C1454 0.929 . S
C1446 H1440 0.930 . S
C1446 C1447 1.367 . S
C1446 C1454 1.378 . S
C1447 C1446 1.367 . S
C1447 C1455 1.433 . S
C1448 H1444 0.929 . S
C1448 C1450 1.378 . S
C1448 C1452 1.350 . S
C1449 C1452 1.463 . S
C1449 C1454 1.350 . S
C1449 N1457 1.427 . S
C1450 H1441 0.930 1_545 S
C1450 C1448 1.378 . S
C1450 C1451 1.367 1_545 S
C1451 C1450 1.367 1_565 S
C1451 C1453 1.433 . S
C1452 C1448 1.350 . S
C1452 C1449 1.463 . S
C1452 N1456 1.427 . S
C1453 H1443 0.929 . S
C1453 C1451 1.433 . S
C1453 N1456 1.384 1_565 S
C1454 H1445 0.929 . S
C1454 C1446 1.378 . S
C1454 C1449 1.350 . S
C1455 H1442 0.929 . S
C1455 C1447 1.433 . S
C1455 N1457 1.384 . S
N1456 C1452 1.427 . S
N1456 C1453 1.384 1_545 S
N1457 C1449 1.427 . S
N1457 C1455 1.384 . S
H1458 C1464 0.930 . S
H1459 C1468 0.930 . S
H1460 C1473 0.929 1_455 S
H1461 C1471 0.929 1_565 S
H1462 C1466 0.929 . S
H1463 C1472 0.929 . S
C1464 H1458 0.930 . S
C1464 C1465 1.367 . S
C1464 C1472 1.378 1_455 S
C1465 C1464 1.367 . S
C1465 C1473 1.433 1_455 S
C1466 H1462 0.929 . S
C1466 C1468 1.378 . S
C1466 C1470 1.350 . S
C1467 C1470 1.463 . S
C1467 C1472 1.350 . S
C1467 N1475 1.427 . S
C1468 H1459 0.930 . S
C1468 C1466 1.378 . S
C1468 C1469 1.367 . S
C1469 C1468 1.367 . S
C1469 C1471 1.433 . S
C1470 C1466 1.350 . S
C1470 C1467 1.463 . S
C1470 N1474 1.427 . S
C1471 H1461 0.929 1_545 S
C1471 C1469 1.433 . S
C1471 N1474 1.384 . S
C1472 H1463 0.929 . S
C1472 C1464 1.378 1_655 S
C1472 C1467 1.350 . S
C1473 H1460 0.929 1_655 S
C1473 C1465 1.433 1_655 S
C1473 N1475 1.384 . S
N1474 C1470 1.427 . S
N1474 C1471 1.384 . S
N1475 C1467 1.427 . S
N1475 C1473 1.384 . S
H1476 C1482 0.930 . S
H1477 C1486 0.930 . S
H1478 C1491 0.929 . S
H1479 C1489 0.929 . S
H1480 C1484 0.929 . S
H1481 C1490 0.929 . S
C1482 H1476 0.930 . S
C1482 C1483 1.367 . S
C1482 C1490 1.378 . S
C1483 C1482 1.367 . S
C1483 C1491 1.433 . S
C1484 H1480 0.929 . S
C1484 C1486 1.378 . S
C1484 C1488 1.350 . S
C1485 C1488 1.463 . S
C1485 C1490 1.350 . S
C1485 N1493 1.427 . S
C1486 H1477 0.930 . S
C1486 C1484 1.378 . S
C1486 C1487 1.367 . S
C1487 C1486 1.367 . S
C1487 C1489 1.433 . S
C1488 C1484 1.350 . S
C1488 C1485 1.463 . S
C1488 N1492 1.427 . S
C1489 H1479 0.929 . S
C1489 C1487 1.433 . S
C1489 N1492 1.384 . S
C1490 H1481 0.929 . S
C1490 C1482 1.378 . S
C1490 C1485 1.350 . S
C1491 H1478 0.929 . S
C1491 C1483 1.433 . S
C1491 N1493 1.384 . S
N1492 C1488 1.427 . S
N1492 C1489 1.384 . S
N1493 C1485 1.427 . S
N1493 C1491 1.384 . S
H1494 C1500 0.930 . S
H1495 C1504 0.930 . S
H1496 C1509 0.929 . S
H1497 C1507 0.944 . S
H1498 C1502 0.929 . S
H1499 C1508 0.929 . S
C1500 H1494 0.930 . S
C1500 C1501 1.367 . S
C1500 C1508 1.378 . S
C1501 C1500 1.367 . S
C1501 C1509 1.433 . S
C1502 H1498 0.929 . S
C1502 C1504 1.378 1_455 S
C1502 C1506 1.350 . S
C1503 C1506 1.463 . S
C1503 C1508 1.350 . S
C1503 N1511 1.427 . S
C1504 H1495 0.930 . S
C1504 C1502 1.378 1_655 S
C1504 C1505 1.367 . S
C1505 C1504 1.367 . S
C1505 C1507 1.442 . S
C1506 C1502 1.350 . S
C1506 C1503 1.463 . S
C1506 N1510 1.427 . S
C1507 H1497 0.944 . S
C1507 C1505 1.442 . S
C1507 N1510 1.359 1_655 S
C1508 H1499 0.929 . S
C1508 C1500 1.378 . S
C1508 C1503 1.350 . S
C1509 H1496 0.929 . S
C1509 C1501 1.433 . S
C1509 N1511 1.384 . S
N1510 C1506 1.427 . S
N1510 C1507 1.359 1_455 S
N1511 C1503 1.427 . S
N1511 C1509 1.384 . S
H1512 C1518 0.930 . S
H1513 C1522 0.930 1_545 S
H1514 C1527 0.929 . S
H1515 C1525 0.929 . S
H1516 C1520 0.929 . S
H1517 C1526 0.929 . S
C1518 H1512 0.930 . S
C1518 C1519 1.367 . S
C1518 C1526 1.378 . S
C1519 C1518 1.367 . S
C1519 C1527 1.433 . S
C1520 H1516 0.929 . S
C1520 C1522 1.378 . S
C1520 C1524 1.350 . S
C1521 C1524 1.463 . S
C1521 C1526 1.350 . S
C1521 N1529 1.427 . S
C1522 H1513 0.930 1_565 S
C1522 C1520 1.378 . S
C1522 C1523 1.367 . S
C1523 C1522 1.367 . S
C1523 C1525 1.433 . S
C1524 C1520 1.350 . S
C1524 C1521 1.463 . S
C1524 N1528 1.427 . S
C1525 H1515 0.929 . S
C1525 C1523 1.433 . S
C1525 N1528 1.384 . S
C1526 H1517 0.929 . S
C1526 C1518 1.378 . S
C1526 C1521 1.350 . S
C1527 H1514 0.929 . S
C1527 C1519 1.433 . S
C1527 N1529 1.384 . S
N1528 C1524 1.427 . S
N1528 C1525 1.384 . S
N1529 C1521 1.427 . S
N1529 C1527 1.384 . S
H1530 C1536 0.930 . S
H1531 C1540 0.930 . S
H1532 C1545 0.929 1_655 S
H1533 C1543 0.929 . S
H1534 C1538 0.929 . S
H1535 C1544 0.929 . S
C1536 H1530 0.930 . S
C1536 C1537 1.367 . S
C1536 C1544 1.378 . S
C1537 C1536 1.367 . S
C1537 C1545 1.433 . S
C1538 H1534 0.929 . S
C1538 C1540 1.378 1_565 S
C1538 C1542 1.350 . S
C1539 C1542 1.463 . S
C1539 C1544 1.350 . S
C1539 N1547 1.427 . S
C1540 H1531 0.930 . S
C1540 C1538 1.378 1_545 S
C1540 C1541 1.367 . S
C1541 C1540 1.367 . S
C1541 C1543 1.457 . S
C1542 C1538 1.350 . S
C1542 C1539 1.463 . S
C1542 N1546 1.427 . S
C1543 H1533 0.929 . S
C1543 C1541 1.457 . S
C1543 N1546 1.362 1_545 S
C1544 H1535 0.929 . S
C1544 C1536 1.378 . S
C1544 C1539 1.350 . S
C1545 H1532 0.929 1_455 S
C1545 C1537 1.433 . S
C1545 N1547 1.384 . S
N1546 C1542 1.427 . S
N1546 C1543 1.362 1_565 S
N1547 C1539 1.427 . S
N1547 C1545 1.384 . S
H1548 C1554 0.930 . S
H1549 C1558 0.930 . S
H1550 C1563 0.929 . S
H1551 C1561 0.919 1_545 S
H1552 C1556 0.929 . S
H1553 C1562 0.929 . S
C1554 H1548 0.930 . S
C1554 C1555 1.367 . S
C1554 C1562 1.378 . S
C1555 C1554 1.367 . S
C1555 C1563 1.433 . S
C1556 H1552 0.929 . S
C1556 C1558 1.378 1_565 S
C1556 C1560 1.350 . S
C1557 C1560 1.463 . S
C1557 C1562 1.350 . S
C1557 N1565 1.427 . S
C1558 H1549 0.930 . S
C1558 C1556 1.378 1_545 S
C1558 C1559 1.367 . S
C1559 C1558 1.367 . S
C1559 C1561 1.433 1_545 S
C1560 C1556 1.350 . S
C1560 C1557 1.463 . S
C1560 N1564 1.427 . S
C1561 H1551 0.919 1_565 S
C1561 C1559 1.433 1_565 S
C1561 N1564 1.384 . S
C1562 H1553 0.929 . S
C1562 C1554 1.378 . S
C1562 C1557 1.350 . S
C1563 H1550 0.929 . S
C1563 C1555 1.433 . S
C1563 N1565 1.384 . S
N1564 C1560 1.427 . S
N1564 C1561 1.384 . S
N1565 C1557 1.427 . S
N1565 C1563 1.384 . S
H1566 C1572 0.930 . S
H1567 C1576 0.930 . S
H1568 C1581 0.929 . S
H1569 C1579 0.929 . S
H1570 C1574 0.929 . S
H1571 C1580 0.929 . S
C1572 H1566 0.930 . S
C1572 C1573 1.367 . S
C1572 C1580 1.378 . S
C1573 C1572 1.367 . S
C1573 C1581 1.433 . S
C1574 H1570 0.929 . S
C1574 C1576 1.378 1_455 S
C1574 C1578 1.350 . S
C1575 C1578 1.463 . S
C1575 C1580 1.350 . S
C1575 N1583 1.427 . S
C1576 H1567 0.930 . S
C1576 C1574 1.378 1_655 S
C1576 C1577 1.367 . S
C1577 C1576 1.367 . S
C1577 C1579 1.433 . S
C1578 C1574 1.350 . S
C1578 C1575 1.463 . S
C1578 N1582 1.427 . S
C1579 H1569 0.929 . S
C1579 C1577 1.433 . S
C1579 N1582 1.384 1_655 S
C1580 H1571 0.929 . S
C1580 C1572 1.378 . S
C1580 C1575 1.350 . S
C1581 H1568 0.929 . S
C1581 C1573 1.433 . S
C1581 N1583 1.384 . S
N1582 C1578 1.427 . S
N1582 C1579 1.384 1_455 S
N1583 C1575 1.427 . S
N1583 C1581 1.384 . S
H1584 C1590 0.930 1_655 S
H1585 C1594 0.930 . S
H1586 C1599 0.929 . S
H1587 C1597 0.929 . S
H1588 C1592 0.929 . S
H1589 C1598 0.929 . S
C1590 H1584 0.930 1_455 S
C1590 C1591 1.367 . S
C1590 C1598 1.378 . S
C1591 C1590 1.367 . S
C1591 C1599 1.433 . S
C1592 H1588 0.929 . S
C1592 C1594 1.378 . S
C1592 C1596 1.350 . S
C1593 C1596 1.463 . S
C1593 C1598 1.350 . S
C1593 N1601 1.427 . S
C1594 H1585 0.930 . S
C1594 C1592 1.378 . S
C1594 C1595 1.367 . S
C1595 C1594 1.367 . S
C1595 C1597 1.433 . S
C1596 C1592 1.350 . S
C1596 C1593 1.463 . S
C1596 N1600 1.427 . S
C1597 H1587 0.929 . S
C1597 C1595 1.433 . S
C1597 N1600 1.384 . S
C1598 H1589 0.929 . S
C1598 C1590 1.378 . S
C1598 C1593 1.350 . S
C1599 H1586 0.929 . S
C1599 C1591 1.433 . S
C1599 N1601 1.384 . S
N1600 C1596 1.427 . S
N1600 C1597 1.384 . S
N1601 C1593 1.427 . S
N1601 C1599 1.384 . S
H1602 C1608 0.930 . S
H1603 C1612 0.930 . S
H1604 C1617 0.929 . S
H1605 C1615 0.929 . S
H1606 C1610 0.929 . S
H1607 C1616 0.929 . S
C1608 H1602 0.930 . S
C1608 C1609 1.367 . S
C1608 C1616 1.378 . S
C1609 C1608 1.367 . S
C1609 C1617 1.433 . S
C1610 H1606 0.929 . S
C1610 C1612 1.378 1_655 S
C1610 C1614 1.350 . S
C1611 C1614 1.463 . S
C1611 C1616 1.350 . S
C1611 N1619 1.427 . S
C1612 H1603 0.930 . S
C1612 C1610 1.378 1_455 S
C1612 C1613 1.367 . S
C1613 C1612 1.367 . S
C1613 C1615 1.433 . S
C1614 C1610 1.350 . S
C1614 C1611 1.463 . S
C1614 N1618 1.427 . S
C1615 H1605 0.929 . S
C1615 C1613 1.433 . S
C1615 N1618 1.384 1_455 S
C1616 H1607 0.929 . S
C1616 C1608 1.378 . S
C1616 C1611 1.350 . S
C1617 H1604 0.929 . S
C1617 C1609 1.433 . S
C1617 N1619 1.384 . S
N1618 C1614 1.427 . S
N1618 C1615 1.384 1_655 S
N1619 C1611 1.427 . S
N1619 C1617 1.384 . S
H1620 C1626 0.930 . S
H1621 C1630 0.930 1_565 S
H1622 C1635 0.929 . S
H1623 C1633 0.929 . S
H1624 C1628 0.929 . S
H1625 C1634 0.929 . S
C1626 H1620 0.930 . S
C1626 C1627 1.367 . S
C1626 C1634 1.378 . S
C1627 C1626 1.367 . S
C1627 C1635 1.433 . S
C1628 H1624 0.929 . S
C1628 C1630 1.378 . S
C1628 C1632 1.350 . S
C1629 C1632 1.463 . S
C1629 C1634 1.350 . S
C1629 N1637 1.427 . S
C1630 H1621 0.930 1_545 S
C1630 C1628 1.378 . S
C1630 C1631 1.367 . S
C1631 C1630 1.367 . S
C1631 C1633 1.433 . S
C1632 C1628 1.350 . S
C1632 C1629 1.463 . S
C1632 N1636 1.427 . S
C1633 H1623 0.929 . S
C1633 C1631 1.433 . S
C1633 N1636 1.384 . S
C1634 H1625 0.929 . S
C1634 C1626 1.378 . S
C1634 C1629 1.350 . S
C1635 H1622 0.929 . S
C1635 C1627 1.433 . S
C1635 N1637 1.384 . S
N1636 C1632 1.427 . S
N1636 C1633 1.384 . S
N1637 C1629 1.427 . S
N1637 C1635 1.384 . S
H1638 C1644 0.930 1_565 S
H1639 C1648 0.930 1_455 S
H1640 C1653 0.929 . S
H1641 C1651 0.929 . S
H1642 C1646 0.929 . S
H1643 C1652 0.929 . S
C1644 H1638 0.930 1_545 S
C1644 C1645 1.367 1_545 S
C1644 C1652 1.378 . S
C1645 C1644 1.367 1_565 S
C1645 C1653 1.433 . S
C1646 H1642 0.929 . S
C1646 C1648 1.378 . S
C1646 C1650 1.350 . S
C1647 C1650 1.463 . S
C1647 C1652 1.350 . S
C1647 N1655 1.427 . S
C1648 H1639 0.930 1_655 S
C1648 C1646 1.378 . S
C1648 C1649 1.367 . S
C1649 C1648 1.367 . S
C1649 C1651 1.433 . S
C1650 C1646 1.350 . S
C1650 C1647 1.463 . S
C1650 N1654 1.427 . S
C1651 H1641 0.929 . S
C1651 C1649 1.433 . S
C1651 N1654 1.384 . S
C1652 H1643 0.929 . S
C1652 C1644 1.378 . S
C1652 C1647 1.350 . S
C1653 H1640 0.929 . S
C1653 C1645 1.433 . S
C1653 N1655 1.384 1_565 S
N1654 C1650 1.427 . S
N1654 C1651 1.384 . S
N1655 C1647 1.427 . S
N1655 C1653 1.384 1_545 S
H1656 C1662 0.930 . S
H1657 C1666 0.930 . S
H1658 C1671 0.929 . S
H1659 C1669 0.929 . S
H1660 C1664 0.929 . S
H1661 C1670 0.929 . S
C1662 H1656 0.930 . S
C1662 C1663 1.367 . S
C1662 C1670 1.378 . S
C1663 C1662 1.367 . S
C1663 C1671 1.433 . S
C1664 H1660 0.929 . S
C1664 C1666 1.378 . S
C1664 C1668 1.350 . S
C1665 C1668 1.463 . S
C1665 C1670 1.350 . S
C1665 N1673 1.427 . S
C1666 H1657 0.930 . S
C1666 C1664 1.378 . S
C1666 C1667 1.367 . S
C1667 C1666 1.367 . S
C1667 C1669 1.433 . S
C1668 C1664 1.350 . S
C1668 C1665 1.463 . S
C1668 N1672 1.427 . S
C1669 H1659 0.929 . S
C1669 C1667 1.433 . S
C1669 N1672 1.384 . S
C1670 H1661 0.929 . S
C1670 C1662 1.378 . S
C1670 C1665 1.350 . S
C1671 H1658 0.929 . S
C1671 C1663 1.433 . S
C1671 N1673 1.384 . S
N1672 C1668 1.427 . S
N1672 C1669 1.384 . S
N1673 C1665 1.427 . S
N1673 C1671 1.384 . S
H1674 C1680 0.930 . S
H1675 C1684 0.930 . S
H1676 C1689 0.929 . S
H1677 C1687 0.929 . S
H1678 C1682 0.929 . S
H1679 C1688 0.929 . S
C1680 H1674 0.930 . S
C1680 C1681 1.367 . S
C1680 C1688 1.378 . S
C1681 C1680 1.367 . S
C1681 C1689 1.433 . S
C1682 H1678 0.929 . S
C1682 C1684 1.378 . S
C1682 C1686 1.350 . S
C1683 C1686 1.463 . S
C1683 C1688 1.350 . S
C1683 N1691 1.427 . S
C1684 H1675 0.930 . S
C1684 C1682 1.378 . S
C1684 C1685 1.367 . S
C1685 C1684 1.367 . S
C1685 C1687 1.433 . S
C1686 C1682 1.350 . S
C1686 C1683 1.463 . S
C1686 N1690 1.427 . S
C1687 H1677 0.929 . S
C1687 C1685 1.433 . S
C1687 N1690 1.384 . S
C1688 H1679 0.929 . S
C1688 C1680 1.378 . S
C1688 C1683 1.350 . S
C1689 H1676 0.929 . S
C1689 C1681 1.433 . S
C1689 N1691 1.384 . S
N1690 C1686 1.427 . S
N1690 C1687 1.384 . S
N1691 C1683 1.427 . S
N1691 C1689 1.384 . S
H1692 C1698 0.930 . S
H1693 C1702 0.930 . S
H1694 C1707 0.929 . S
H1695 C1705 0.929 . S
H1696 C1700 0.929 . S
H1697 C1706 0.929 . S
C1698 H1692 0.930 . S
C1698 C1699 1.367 . S
C1698 C1706 1.378 . S
C1699 C1698 1.367 . S
C1699 C1707 1.433 . S
C1700 H1696 0.929 . S
C1700 C1702 1.378 . S
C1700 C1704 1.350 . S
C1701 C1704 1.463 . S
C1701 C1706 1.350 . S
C1701 N1709 1.427 . S
C1702 H1693 0.930 . S
C1702 C1700 1.378 . S
C1702 C1703 1.367 . S
C1703 C1702 1.367 . S
C1703 C1705 1.433 . S
C1704 C1700 1.350 . S
C1704 C1701 1.463 . S
C1704 N1708 1.427 . S
C1705 H1695 0.929 . S
C1705 C1703 1.433 . S
C1705 N1708 1.384 . S
C1706 H1697 0.929 . S
C1706 C1698 1.378 . S
C1706 C1701 1.350 . S
C1707 H1694 0.929 . S
C1707 C1699 1.433 . S
C1707 N1709 1.384 . S
N1708 C1704 1.427 . S
N1708 C1705 1.384 . S
N1709 C1701 1.427 . S
N1709 C1707 1.384 . S
H1710 C1716 0.930 . S
H1711 C1720 0.930 . S
H1712 C1725 0.929 . S
H1713 C1723 0.929 . S
H1714 C1718 0.929 . S
H1715 C1724 0.929 . S
C1716 H1710 0.930 . S
C1716 C1717 1.367 . S
C1716 C1724 1.378 . S
C1717 C1716 1.367 . S
C1717 C1725 1.433 . S
C1718 H1714 0.929 . S
C1718 C1720 1.378 . S
C1718 C1722 1.350 . S
C1719 C1722 1.463 . S
C1719 C1724 1.350 . S
C1719 N1727 1.427 . S
C1720 H1711 0.930 . S
C1720 C1718 1.378 . S
C1720 C1721 1.367 . S
C1721 C1720 1.367 . S
C1721 C1723 1.433 . S
C1722 C1718 1.350 . S
C1722 C1719 1.463 . S
C1722 N1726 1.427 . S
C1723 H1713 0.929 . S
C1723 C1721 1.433 . S
C1723 N1726 1.384 . S
C1724 H1715 0.929 . S
C1724 C1716 1.378 . S
C1724 C1719 1.350 . S
C1725 H1712 0.929 . S
C1725 C1717 1.433 . S
C1725 N1727 1.384 . S
N1726 C1722 1.427 . S
N1726 C1723 1.384 . S
N1727 C1719 1.427 . S
N1727 C1725 1.384 . S
H1728 C1734 0.930 . S
H1729 C1738 0.930 . S
H1730 C1743 0.929 . S
H1731 C1741 0.929 . S
H1732 C1736 0.929 . S
H1733 C1742 0.929 . S
C1734 H1728 0.930 . S
C1734 C1735 1.367 . S
C1734 C1742 1.378 . S
C1735 C1734 1.367 . S
C1735 C1743 1.433 . S
C1736 H1732 0.929 . S
C1736 C1738 1.378 . S
C1736 C1740 1.350 . S
C1737 C1740 1.463 . S
C1737 C1742 1.350 . S
C1737 N1745 1.427 . S
C1738 H1729 0.930 . S
C1738 C1736 1.378 . S
C1738 C1739 1.367 . S
C1739 C1738 1.367 . S
C1739 C1741 1.433 . S
C1740 C1736 1.350 . S
C1740 C1737 1.463 . S
C1740 N1744 1.427 . S
C1741 H1731 0.929 . S
C1741 C1739 1.433 . S
C1741 N1744 1.384 . S
C1742 H1733 0.929 . S
C1742 C1734 1.378 . S
C1742 C1737 1.350 . S
C1743 H1730 0.929 . S
C1743 C1735 1.433 . S
C1743 N1745 1.384 . S
N1744 C1740 1.427 . S
N1744 C1741 1.384 . S
N1745 C1737 1.427 . S
N1745 C1743 1.384 . S
H1746 C1752 0.930 . S
H1747 C1756 0.930 . S
H1748 C1761 0.929 . S
H1749 C1759 0.929 . S
H1750 C1754 0.929 . S
H1751 C1760 0.929 . S
C1752 H1746 0.930 . S
C1752 C1753 1.367 . S
C1752 C1760 1.378 . S
C1753 C1752 1.367 . S
C1753 C1761 1.433 . S
C1754 H1750 0.929 . S
C1754 C1756 1.378 . S
C1754 C1758 1.350 . S
C1755 C1758 1.463 . S
C1755 C1760 1.350 . S
C1755 N1763 1.427 . S
C1756 H1747 0.930 . S
C1756 C1754 1.378 . S
C1756 C1757 1.367 . S
C1757 C1756 1.367 . S
C1757 C1759 1.433 . S
C1758 C1754 1.350 . S
C1758 C1755 1.463 . S
C1758 N1762 1.427 . S
C1759 H1749 0.929 . S
C1759 C1757 1.433 . S
C1759 N1762 1.384 . S
C1760 H1751 0.929 . S
C1760 C1752 1.378 . S
C1760 C1755 1.350 . S
C1761 H1748 0.929 . S
C1761 C1753 1.433 . S
C1761 N1763 1.384 . S
N1762 C1758 1.427 . S
N1762 C1759 1.384 . S
N1763 C1755 1.427 . S
N1763 C1761 1.384 . S
H1764 C1770 0.930 . S
H1765 C1774 0.930 . S
H1766 C1779 0.929 . S
H1767 C1777 0.929 . S
H1768 C1772 0.929 . S
H1769 C1778 0.929 . S
C1770 H1764 0.930 . S
C1770 C1771 1.367 . S
C1770 C1778 1.378 . S
C1771 C1770 1.367 . S
C1771 C1779 1.433 . S
C1772 H1768 0.929 . S
C1772 C1774 1.378 . S
C1772 C1776 1.350 . S
C1773 C1776 1.463 . S
C1773 C1778 1.350 . S
C1773 N1781 1.427 . S
C1774 H1765 0.930 . S
C1774 C1772 1.378 . S
C1774 C1775 1.367 . S
C1775 C1774 1.367 . S
C1775 C1777 1.433 . S
C1776 C1772 1.350 . S
C1776 C1773 1.463 . S
C1776 N1780 1.427 . S
C1777 H1767 0.929 . S
C1777 C1775 1.433 . S
C1777 N1780 1.384 . S
C1778 H1769 0.929 . S
C1778 C1770 1.378 . S
C1778 C1773 1.350 . S
C1779 H1766 0.929 . S
C1779 C1771 1.433 . S
C1779 N1781 1.384 . S
N1780 C1776 1.427 . S
N1780 C1777 1.384 . S
N1781 C1773 1.427 . S
N1781 C1779 1.384 . S
H1782 C1788 0.930 . S
H1783 C1792 0.930 . S
H1784 C1797 0.929 . S
H1785 C1795 0.929 . S
H1786 C1790 0.929 . S
H1787 C1796 0.929 . S
C1788 H1782 0.930 . S
C1788 C1789 1.367 . S
C1788 C1796 1.378 . S
C1789 C1788 1.367 . S
C1789 C1797 1.433 . S
C1790 H1786 0.929 . S
C1790 C1792 1.378 . S
C1790 C1794 1.350 . S
C1791 C1794 1.463 . S
C1791 C1796 1.350 . S
C1791 N1799 1.427 . S
C1792 H1783 0.930 . S
C1792 C1790 1.378 . S
C1792 C1793 1.367 . S
C1793 C1792 1.367 . S
C1793 C1795 1.433 . S
C1794 C1790 1.350 . S
C1794 C1791 1.463 . S
C1794 N1798 1.427 . S
C1795 H1785 0.929 . S
C1795 C1793 1.433 . S
C1795 N1798 1.384 . S
C1796 H1787 0.929 . S
C1796 C1788 1.378 . S
C1796 C1791 1.350 . S
C1797 H1784 0.929 . S
C1797 C1789 1.433 . S
C1797 N1799 1.384 . S
N1798 C1794 1.427 . S
N1798 C1795 1.384 . S
N1799 C1791 1.427 . S
N1799 C1797 1.384 . S
H1800 C1806 0.930 . S
H1801 C1810 0.930 . S
H1802 C1815 0.929 . S
H1803 C1813 0.929 . S
H1804 C1808 0.929 . S
H1805 C1814 0.929 . S
C1806 H1800 0.930 . S
C1806 C1807 1.367 . S
C1806 C1814 1.378 . S
C1807 C1806 1.367 . S
C1807 C1815 1.433 . S
C1808 H1804 0.929 . S
C1808 C1810 1.378 . S
C1808 C1812 1.350 . S
C1809 C1812 1.463 . S
C1809 C1814 1.350 . S
C1809 N1817 1.427 . S
C1810 H1801 0.930 . S
C1810 C1808 1.378 . S
C1810 C1811 1.367 . S
C1811 C1810 1.367 . S
C1811 C1813 1.433 . S
C1812 C1808 1.350 . S
C1812 C1809 1.463 . S
C1812 N1816 1.427 . S
C1813 H1803 0.929 . S
C1813 C1811 1.433 . S
C1813 N1816 1.384 . S
C1814 H1805 0.929 . S
C1814 C1806 1.378 . S
C1814 C1809 1.350 . S
C1815 H1802 0.929 . S
C1815 C1807 1.433 . S
C1815 N1817 1.384 . S
N1816 C1812 1.427 . S
N1816 C1813 1.384 . S
N1817 C1809 1.427 . S
N1817 C1815 1.384 . S
H1818 C1824 0.930 . S
H1819 C1828 0.930 . S
H1820 C1833 0.929 . S
H1821 C1831 0.929 . S
H1822 C1826 0.929 . S
H1823 C1832 0.929 . S
C1824 H1818 0.930 . S
C1824 C1825 1.367 . S
C1824 C1832 1.378 . S
C1825 C1824 1.367 . S
C1825 C1833 1.433 1_554 S
C1826 H1822 0.929 . S
C1826 C1828 1.378 . S
C1826 C1830 1.350 1_556 S
C1827 C1830 1.463 . S
C1827 C1832 1.350 . S
C1827 N1835 1.427 1_554 S
C1828 H1819 0.930 . S
C1828 C1826 1.378 . S
C1828 C1829 1.314 1_556 S
C1829 C1828 1.314 1_554 S
C1829 C1831 1.496 . S
C1830 C1826 1.350 1_554 S
C1830 C1827 1.463 . S
C1830 N1834 1.427 . S
C1831 H1821 0.929 . S
C1831 C1829 1.496 . S
C1831 N1834 1.384 . S
C1832 H1823 0.929 . S
C1832 C1824 1.378 . S
C1832 C1827 1.350 . S
C1833 H1820 0.929 . S
C1833 C1825 1.433 1_556 S
C1833 N1835 1.384 . S
N1834 C1830 1.427 . S
N1834 C1831 1.384 . S
N1835 C1827 1.427 1_556 S
N1835 C1833 1.384 . S
H1836 C1842 0.930 . S
H1837 C1846 0.930 . S
H1838 C1851 0.929 . S
H1839 C1849 0.929 . S
H1840 C1844 0.929 . S
H1841 C1850 0.929 . S
C1842 H1836 0.930 . S
C1842 C1843 1.494 . S
C1842 C1850 1.378 . S
C1843 C1842 1.494 . S
C1843 C1851 1.315 1_554 S
C1844 H1840 0.929 . S
C1844 C1846 1.378 . S
C1844 C1848 1.350 1_556 S
C1845 C1848 1.463 . S
C1845 C1850 1.350 . S
C1845 N1853 1.427 1_554 S
C1846 H1837 0.930 . S
C1846 C1844 1.378 . S
C1846 C1847 1.367 1_556 S
C1847 C1846 1.367 1_554 S
C1847 C1849 1.433 . S
C1848 C1844 1.350 1_554 S
C1848 C1845 1.463 . S
C1848 N1852 1.427 . S
C1849 H1839 0.929 . S
C1849 C1847 1.433 . S
C1849 N1852 1.384 . S
C1850 H1841 0.929 . S
C1850 C1842 1.378 . S
C1850 C1845 1.350 . S
C1851 H1838 0.929 . S
C1851 C1843 1.315 1_556 S
C1851 N1853 1.384 . S
N1852 C1848 1.427 . S
N1852 C1849 1.384 . S
N1853 C1845 1.427 1_556 S
N1853 C1851 1.384 . S
H1854 C1860 0.930 . S
H1855 C1864 0.930 . S
H1856 C1869 0.909 1_556 S
H1857 C1867 0.929 . S
H1858 C1862 0.947 . S
H1859 C1868 0.929 . S
C1860 H1854 0.930 . S
C1860 C1861 1.367 . S
C1860 C1868 1.378 . S
C1861 C1860 1.367 . S
C1861 C1869 1.478 . S
C1862 H1858 0.947 . S
C1862 C1864 1.384 . S
C1862 C1866 1.331 1_556 S
C1863 C1866 1.463 . S
C1863 C1868 1.350 . S
C1863 N1871 1.442 . S
C1864 H1855 0.930 . S
C1864 C1862 1.384 . S
C1864 C1865 1.348 1_556 S
C1865 C1864 1.348 1_554 S
C1865 C1867 1.466 . S
C1866 C1862 1.331 1_554 S
C1866 C1863 1.463 . S
C1866 N1870 1.427 . S
C1867 H1857 0.929 . S
C1867 C1865 1.466 . S
C1867 N1870 1.384 . S
C1868 H1859 0.929 . S
C1868 C1860 1.378 . S
C1868 C1863 1.350 . S
C1869 H1856 0.909 1_554 S
C1869 C1861 1.478 . S
C1869 N1871 1.381 . S
N1870 C1866 1.427 . S
N1870 C1867 1.384 . S
N1871 C1863 1.442 . S
N1871 C1869 1.381 . S
H1872 C1878 0.930 . S
H1873 C1882 0.930 . S
H1874 C1887 0.929 . S
H1875 C1885 0.929 . S
H1876 C1880 0.929 . S
H1877 C1886 0.929 . S
C1878 H1872 0.930 . S
C1878 C1879 1.367 . S
C1878 C1886 1.378 . S
C1879 C1878 1.367 . S
C1879 C1887 1.433 . S
C1880 H1876 0.929 . S
C1880 C1882 1.378 . S
C1880 C1884 1.350 . S
C1881 C1884 1.463 . S
C1881 C1886 1.350 . S
C1881 N1889 1.427 . S
C1882 H1873 0.930 . S
C1882 C1880 1.378 . S
C1882 C1883 1.367 . S
C1883 C1882 1.367 . S
C1883 C1885 1.433 . S
C1884 C1880 1.350 . S
C1884 C1881 1.463 . S
C1884 N1888 1.427 . S
C1885 H1875 0.929 . S
C1885 C1883 1.433 . S
C1885 N1888 1.384 . S
C1886 H1877 0.929 . S
C1886 C1878 1.378 . S
C1886 C1881 1.350 . S
C1887 H1874 0.929 . S
C1887 C1879 1.433 . S
C1887 N1889 1.384 . S
N1888 C1884 1.427 . S
N1888 C1885 1.384 . S
N1889 C1881 1.427 . S
N1889 C1887 1.384 . S
H1890 C1896 0.930 . S
H1891 C1900 0.930 . S
H1892 C1905 0.929 . S
H1893 C1903 0.929 . S
H1894 C1898 0.929 . S
H1895 C1904 0.929 . S
C1896 H1890 0.930 . S
C1896 C1897 1.367 . S
C1896 C1904 1.378 . S
C1897 C1896 1.367 . S
C1897 C1905 1.433 . S
C1898 H1894 0.929 . S
C1898 C1900 1.378 . S
C1898 C1902 1.350 . S
C1899 C1902 1.463 . S
C1899 C1904 1.350 . S
C1899 N1907 1.427 . S
C1900 H1891 0.930 . S
C1900 C1898 1.378 . S
C1900 C1901 1.367 . S
C1901 C1900 1.367 . S
C1901 C1903 1.433 . S
C1902 C1898 1.350 . S
C1902 C1899 1.463 . S
C1902 N1906 1.427 . S
C1903 H1893 0.929 . S
C1903 C1901 1.433 . S
C1903 N1906 1.384 . S
C1904 H1895 0.929 . S
C1904 C1896 1.378 . S
C1904 C1899 1.350 . S
C1905 H1892 0.929 . S
C1905 C1897 1.433 . S
C1905 N1907 1.384 . S
N1906 C1902 1.427 . S
N1906 C1903 1.384 . S
N1907 C1899 1.427 . S
N1907 C1905 1.384 . S
H1908 C1914 0.930 . S
H1909 C1918 0.930 . S
H1910 C1923 0.929 . S
H1911 C1921 0.929 . S
H1912 C1916 0.929 . S
H1913 C1922 0.929 . S
C1914 H1908 0.930 . S
C1914 C1915 1.367 . S
C1914 C1922 1.378 . S
C1915 C1914 1.367 . S
C1915 C1923 1.433 . S
C1916 H1912 0.929 . S
C1916 C1918 1.378 . S
C1916 C1920 1.350 . S
C1917 C1920 1.463 . S
C1917 C1922 1.350 . S
C1917 N1925 1.427 . S
C1918 H1909 0.930 . S
C1918 C1916 1.378 . S
C1918 C1919 1.367 . S
C1919 C1918 1.367 . S
C1919 C1921 1.433 . S
C1920 C1916 1.350 . S
C1920 C1917 1.463 . S
C1920 N1924 1.427 . S
C1921 H1911 0.929 . S
C1921 C1919 1.433 . S
C1921 N1924 1.384 . S
C1922 H1913 0.929 . S
C1922 C1914 1.378 . S
C1922 C1917 1.350 . S
C1923 H1910 0.929 . S
C1923 C1915 1.433 . S
C1923 N1925 1.384 . S
N1924 C1920 1.427 . S
N1924 C1921 1.384 . S
N1925 C1917 1.427 . S
N1925 C1923 1.384 . S
H1926 C1932 0.930 . S
H1927 C1936 0.930 . S
H1928 C1941 0.929 . S
H1929 C1939 0.929 . S
H1930 C1934 0.929 . S
H1931 C1940 0.929 . S
C1932 H1926 0.930 . S
C1932 C1933 1.315 1_554 S
C1932 C1940 1.378 . S
C1933 C1932 1.315 1_556 S
C1933 C1941 1.495 . S
C1934 H1930 0.929 . S
C1934 C1936 1.378 . S
C1934 C1938 1.350 . S
C1935 C1938 1.463 . S
C1935 C1940 1.350 1_556 S
C1935 N1943 1.427 . S
C1936 H1927 0.930 . S
C1936 C1934 1.378 . S
C1936 C1937 1.367 . S
C1937 C1936 1.367 . S
C1937 C1939 1.433 1_556 S
C1938 C1934 1.350 . S
C1938 C1935 1.463 . S
C1938 N1942 1.427 1_556 S
C1939 H1929 0.929 . S
C1939 C1937 1.433 1_554 S
C1939 N1942 1.384 . S
C1940 H1931 0.929 . S
C1940 C1932 1.378 . S
C1940 C1935 1.350 1_554 S
C1941 H1928 0.929 . S
C1941 C1933 1.495 . S
C1941 N1943 1.384 . S
N1942 C1938 1.427 1_554 S
N1942 C1939 1.384 . S
N1943 C1935 1.427 . S
N1943 C1941 1.384 . S
H1944 C1950 0.930 . S
H1945 C1954 0.929 1_554 S
H1946 C1959 0.929 . S
H1947 C1957 0.929 . S
H1948 C1952 0.947 . S
H1949 C1958 0.929 . S
C1950 H1944 0.930 . S
C1950 C1951 1.418 . S
C1950 C1958 1.378 . S
C1951 C1950 1.418 . S
C1951 C1959 1.398 1_556 S
C1952 H1948 0.947 . S
C1952 C1954 1.376 1_554 S
C1952 C1956 1.336 1_554 S
C1953 C1956 1.463 . S
C1953 C1958 1.350 . S
C1953 N1961 1.427 1_556 S
C1954 H1945 0.929 1_556 S
C1954 C1952 1.376 1_556 S
C1954 C1955 1.369 . S
C1955 C1954 1.369 . S
C1955 C1957 1.433 . S
C1956 C1952 1.336 1_556 S
C1956 C1953 1.463 . S
C1956 N1960 1.427 . S
C1957 H1947 0.929 . S
C1957 C1955 1.433 . S
C1957 N1960 1.384 . S
C1958 H1949 0.929 . S
C1958 C1950 1.378 . S
C1958 C1953 1.350 . S
C1959 H1946 0.929 . S
C1959 C1951 1.398 1_554 S
C1959 N1961 1.384 . S
N1960 C1956 1.427 . S
N1960 C1957 1.384 . S
N1961 C1953 1.427 1_554 S
N1961 C1959 1.384 . S
H1962 C1968 0.930 . S
H1963 C1972 0.930 . S
H1964 C1977 0.929 . S
H1965 C1975 0.929 . S
H1966 C1970 0.929 . S
H1967 C1976 0.929 . S
C1968 H1962 0.930 . S
C1968 C1969 1.442 . S
C1968 C1976 1.378 . S
C1969 C1968 1.442 . S
C1969 C1977 1.373 1_556 S
C1970 H1966 0.929 . S
C1970 C1972 1.378 . S
C1970 C1974 1.350 1_554 S
C1971 C1974 1.463 . S
C1971 C1976 1.350 . S
C1971 N1979 1.427 1_556 S
C1972 H1963 0.930 . S
C1972 C1970 1.378 . S
C1972 C1973 1.367 1_554 S
C1973 C1972 1.367 1_556 S
C1973 C1975 1.433 . S
C1974 C1970 1.350 1_556 S
C1974 C1971 1.463 . S
C1974 N1978 1.427 . S
C1975 H1965 0.929 . S
C1975 C1973 1.433 . S
C1975 N1978 1.384 . S
C1976 H1967 0.929 . S
C1976 C1968 1.378 . S
C1976 C1971 1.350 . S
C1977 H1964 0.929 . S
C1977 C1969 1.373 1_554 S
C1977 N1979 1.384 . S
N1978 C1974 1.427 . S
N1978 C1975 1.384 . S
N1979 C1971 1.427 1_554 S
N1979 C1977 1.384 . S
H1980 C1986 0.930 . S
H1981 C1990 0.930 . S
H1982 C1995 0.929 . S
H1983 C1993 0.929 . S
H1984 C1988 0.929 . S
H1985 C1994 0.929 . S
C1986 H1980 0.930 . S
C1986 C1987 1.367 . S
C1986 C1994 1.378 . S
C1987 C1986 1.367 . S
C1987 C1995 1.433 . S
C1988 H1984 0.929 . S
C1988 C1990 1.378 . S
C1988 C1992 1.350 . S
C1989 C1992 1.463 . S
C1989 C1994 1.350 . S
C1989 N1997 1.427 . S
C1990 H1981 0.930 . S
C1990 C1988 1.378 . S
C1990 C1991 1.367 . S
C1991 C1990 1.367 . S
C1991 C1993 1.433 . S
C1992 C1988 1.350 . S
C1992 C1989 1.463 . S
C1992 N1996 1.427 . S
C1993 H1983 0.929 . S
C1993 C1991 1.433 . S
C1993 N1996 1.384 . S
C1994 H1985 0.929 . S
C1994 C1986 1.378 . S
C1994 C1989 1.350 . S
C1995 H1982 0.929 . S
C1995 C1987 1.433 . S
C1995 N1997 1.384 . S
N1996 C1992 1.427 . S
N1996 C1993 1.384 . S
N1997 C1989 1.427 . S
N1997 C1995 1.384 . S
H1998 C2004 0.930 . S
H1999 C2008 0.930 . S
H2000 C2013 0.929 . S
H2001 C2011 0.929 . S
H2002 C2006 0.929 . S
H2003 C2012 0.929 . S
C2004 H1998 0.930 . S
C2004 C2005 1.367 . S
C2004 C2012 1.378 . S
C2005 C2004 1.367 . S
C2005 C2013 1.433 . S
C2006 H2002 0.929 . S
C2006 C2008 1.378 . S
C2006 C2010 1.350 . S
C2007 C2010 1.463 . S
C2007 C2012 1.350 . S
C2007 N2015 1.427 . S
C2008 H1999 0.930 . S
C2008 C2006 1.378 . S
C2008 C2009 1.367 . S
C2009 C2008 1.367 . S
C2009 C2011 1.433 . S
C2010 C2006 1.350 . S
C2010 C2007 1.463 . S
C2010 N2014 1.427 . S
C2011 H2001 0.929 . S
C2011 C2009 1.433 . S
C2011 N2014 1.384 . S
C2012 H2003 0.929 . S
C2012 C2004 1.378 . S
C2012 C2007 1.350 . S
C2013 H2000 0.929 . S
C2013 C2005 1.433 . S
C2013 N2015 1.384 . S
N2014 C2010 1.427 . S
N2014 C2011 1.384 . S
N2015 C2007 1.427 . S
N2015 C2013 1.384 . S
H2016 C2022 0.930 . S
H2017 C2026 0.930 . S
H2018 C2031 0.929 . S
H2019 C2029 0.929 . S
H2020 C2024 0.929 . S
H2021 C2030 0.929 . S
C2022 H2016 0.930 . S
C2022 C2023 1.367 . S
C2022 C2030 1.378 . S
C2023 C2022 1.367 . S
C2023 C2031 1.433 . S
C2024 H2020 0.929 . S
C2024 C2026 1.378 . S
C2024 C2028 1.350 . S
C2025 C2028 1.463 . S
C2025 C2030 1.350 . S
C2025 N2033 1.427 . S
C2026 H2017 0.930 . S
C2026 C2024 1.378 . S
C2026 C2027 1.367 . S
C2027 C2026 1.367 . S
C2027 C2029 1.433 . S
C2028 C2024 1.350 . S
C2028 C2025 1.463 . S
C2028 N2032 1.427 . S
C2029 H2019 0.929 . S
C2029 C2027 1.433 . S
C2029 N2032 1.384 . S
C2030 H2021 0.929 . S
C2030 C2022 1.378 . S
C2030 C2025 1.350 . S
C2031 H2018 0.929 . S
C2031 C2023 1.433 . S
C2031 N2033 1.384 . S
N2032 C2028 1.427 . S
N2032 C2029 1.384 . S
N2033 C2025 1.427 . S
N2033 C2031 1.384 . S
H2034 C2040 0.930 . S
H2035 C2044 0.930 . S
H2036 C2049 0.929 . S
H2037 C2047 0.929 . S
H2038 C2042 0.929 . S
H2039 C2048 0.929 . S
C2040 H2034 0.930 . S
C2040 C2041 1.367 . S
C2040 C2048 1.378 . S
C2041 C2040 1.367 . S
C2041 C2049 1.433 . S
C2042 H2038 0.929 . S
C2042 C2044 1.378 . S
C2042 C2046 1.350 . S
C2043 C2046 1.463 . S
C2043 C2048 1.350 . S
C2043 N2051 1.427 . S
C2044 H2035 0.930 . S
C2044 C2042 1.378 . S
C2044 C2045 1.367 . S
C2045 C2044 1.367 . S
C2045 C2047 1.433 . S
C2046 C2042 1.350 . S
C2046 C2043 1.463 . S
C2046 N2050 1.427 . S
C2047 H2037 0.929 . S
C2047 C2045 1.433 . S
C2047 N2050 1.384 . S
C2048 H2039 0.929 . S
C2048 C2040 1.378 . S
C2048 C2043 1.350 . S
C2049 H2036 0.929 . S
C2049 C2041 1.433 . S
C2049 N2051 1.384 . S
N2050 C2046 1.427 . S
N2050 C2047 1.384 . S
N2051 C2043 1.427 . S
N2051 C2049 1.384 . S
H2052 C2058 0.930 . S
H2053 C2062 0.930 . S
H2054 C2067 0.929 . S
H2055 C2065 0.929 . S
H2056 C2060 0.929 . S
H2057 C2066 0.929 . S
C2058 H2052 0.930 . S
C2058 C2059 1.367 . S
C2058 C2066 1.378 . S
C2059 C2058 1.367 . S
C2059 C2067 1.433 . S
C2060 H2056 0.929 . S
C2060 C2062 1.378 . S
C2060 C2064 1.350 . S
C2061 C2064 1.463 . S
C2061 C2066 1.350 . S
C2061 N2069 1.427 . S
C2062 H2053 0.930 . S
C2062 C2060 1.378 . S
C2062 C2063 1.367 . S
C2063 C2062 1.367 . S
C2063 C2065 1.433 . S
C2064 C2060 1.350 . S
C2064 C2061 1.463 . S
C2064 N2068 1.427 . S
C2065 H2055 0.929 . S
C2065 C2063 1.433 . S
C2065 N2068 1.384 . S
C2066 H2057 0.929 . S
C2066 C2058 1.378 . S
C2066 C2061 1.350 . S
C2067 H2054 0.929 . S
C2067 C2059 1.433 . S
C2067 N2069 1.384 . S
N2068 C2064 1.427 . S
N2068 C2065 1.384 . S
N2069 C2061 1.427 . S
N2069 C2067 1.384 . S
H2070 C2076 0.930 . S
H2071 C2080 0.930 . S
H2072 C2085 0.929 . S
H2073 C2083 0.929 . S
H2074 C2078 0.929 . S
H2075 C2084 0.929 . S
C2076 H2070 0.930 . S
C2076 C2077 1.367 . S
C2076 C2084 1.378 . S
C2077 C2076 1.367 . S
C2077 C2085 1.433 . S
C2078 H2074 0.929 . S
C2078 C2080 1.378 . S
C2078 C2082 1.350 . S
C2079 C2082 1.463 . S
C2079 C2084 1.350 . S
C2079 N2087 1.427 . S
C2080 H2071 0.930 . S
C2080 C2078 1.378 . S
C2080 C2081 1.367 . S
C2081 C2080 1.367 . S
C2081 C2083 1.433 . S
C2082 C2078 1.350 . S
C2082 C2079 1.463 . S
C2082 N2086 1.427 . S
C2083 H2073 0.929 . S
C2083 C2081 1.433 . S
C2083 N2086 1.384 . S
C2084 H2075 0.929 . S
C2084 C2076 1.378 . S
C2084 C2079 1.350 . S
C2085 H2072 0.929 . S
C2085 C2077 1.433 . S
C2085 N2087 1.384 . S
N2086 C2082 1.427 . S
N2086 C2083 1.384 . S
N2087 C2079 1.427 . S
N2087 C2085 1.384 . S
H2088 C2094 0.930 . S
H2089 C2098 0.930 . S
H2090 C2103 0.929 . S
H2091 C2101 0.929 . S
H2092 C2096 0.929 . S
H2093 C2102 0.929 . S
C2094 H2088 0.930 . S
C2094 C2095 1.367 . S
C2094 C2102 1.378 . S
C2095 C2094 1.367 . S
C2095 C2103 1.433 . S
C2096 H2092 0.929 . S
C2096 C2098 1.378 . S
C2096 C2100 1.350 . S
C2097 C2100 1.463 . S
C2097 C2102 1.350 . S
C2097 N2105 1.427 . S
C2098 H2089 0.930 . S
C2098 C2096 1.378 . S
C2098 C2099 1.367 . S
C2099 C2098 1.367 . S
C2099 C2101 1.433 . S
C2100 C2096 1.350 . S
C2100 C2097 1.463 . S
C2100 N2104 1.427 . S
C2101 H2091 0.929 . S
C2101 C2099 1.433 . S
C2101 N2104 1.384 . S
C2102 H2093 0.929 . S
C2102 C2094 1.378 . S
C2102 C2097 1.350 . S
C2103 H2090 0.929 . S
C2103 C2095 1.433 . S
C2103 N2105 1.384 . S
N2104 C2100 1.427 . S
N2104 C2101 1.384 . S
N2105 C2097 1.427 . S
N2105 C2103 1.384 . S
H2106 C2112 0.930 . S
H2107 C2116 0.930 . S
H2108 C2121 0.929 . S
H2109 C2119 0.929 . S
H2110 C2114 0.929 . S
H2111 C2120 0.929 . S
C2112 H2106 0.930 . S
C2112 C2113 1.367 1_565 S
C2112 C2120 1.378 . S
C2113 C2112 1.367 1_545 S
C2113 C2121 1.433 . S
C2114 H2110 0.929 . S
C2114 C2116 1.378 . S
C2114 C2118 1.350 . S
C2115 C2118 1.463 . S
C2115 C2120 1.350 . S
C2115 N2123 1.427 1_565 S
C2116 H2107 0.930 . S
C2116 C2114 1.378 . S
C2116 C2117 1.367 . S
C2117 C2116 1.367 . S
C2117 C2119 1.433 . S
C2118 C2114 1.350 . S
C2118 C2115 1.463 . S
C2118 N2122 1.427 . S
C2119 H2109 0.929 . S
C2119 C2117 1.433 . S
C2119 N2122 1.384 . S
C2120 H2111 0.929 . S
C2120 C2112 1.378 . S
C2120 C2115 1.350 . S
C2121 H2108 0.929 . S
C2121 C2113 1.433 . S
C2121 N2123 1.384 . S
N2122 C2118 1.427 . S
N2122 C2119 1.384 . S
N2123 C2115 1.427 1_545 S
N2123 C2121 1.384 . S
H2124 C2130 0.930 . S
H2125 C2134 0.930 . S
H2126 C2139 0.929 . S
H2127 C2137 0.929 . S
H2128 C2132 0.929 . S
H2129 C2138 0.929 . S
C2130 H2124 0.930 . S
C2130 C2131 1.367 . S
C2130 C2138 1.378 . S
C2131 C2130 1.367 . S
C2131 C2139 1.433 . S
C2132 H2128 0.929 . S
C2132 C2134 1.378 . S
C2132 C2136 1.350 1_655 S
C2133 C2136 1.463 . S
C2133 C2138 1.350 . S
C2133 N2141 1.427 . S
C2134 H2125 0.930 . S
C2134 C2132 1.378 . S
C2134 C2135 1.367 . S
C2135 C2134 1.367 . S
C2135 C2137 1.433 1_655 S
C2136 C2132 1.350 1_455 S
C2136 C2133 1.463 . S
C2136 N2140 1.427 . S
C2137 H2127 0.929 . S
C2137 C2135 1.433 1_455 S
C2137 N2140 1.384 . S
C2138 H2129 0.929 . S
C2138 C2130 1.378 . S
C2138 C2133 1.350 . S
C2139 H2126 0.929 . S
C2139 C2131 1.433 . S
C2139 N2141 1.384 . S
N2140 C2136 1.427 . S
N2140 C2137 1.384 . S
N2141 C2133 1.427 . S
N2141 C2139 1.384 . S
H2142 C2148 0.930 . S
H2143 C2152 0.930 . S
H2144 C2157 0.929 . S
H2145 C2155 0.929 . S
H2146 C2150 0.929 . S
H2147 C2156 0.929 . S
C2148 H2142 0.930 . S
C2148 C2149 1.367 . S
C2148 C2156 1.378 . S
C2149 C2148 1.367 . S
C2149 C2157 1.433 . S
C2150 H2146 0.929 . S
C2150 C2152 1.378 . S
C2150 C2154 1.350 . S
C2151 C2154 1.463 . S
C2151 C2156 1.350 . S
C2151 N2159 1.427 . S
C2152 H2143 0.930 . S
C2152 C2150 1.378 . S
C2152 C2153 1.367 . S
C2153 C2152 1.367 . S
C2153 C2155 1.433 . S
C2154 C2150 1.350 . S
C2154 C2151 1.463 . S
C2154 N2158 1.427 . S
C2155 H2145 0.929 . S
C2155 C2153 1.433 . S
C2155 N2158 1.384 . S
C2156 H2147 0.929 . S
C2156 C2148 1.378 . S
C2156 C2151 1.350 . S
C2157 H2144 0.929 . S
C2157 C2149 1.433 . S
C2157 N2159 1.384 . S
N2158 C2154 1.427 . S
N2158 C2155 1.384 . S
N2159 C2151 1.427 . S
N2159 C2157 1.384 . S
H2160 C2166 0.930 . S
H2161 C2170 0.930 . S
H2162 C2175 0.929 . S
H2163 C2173 0.929 . S
H2164 C2168 0.929 . S
H2165 C2174 0.929 . S
C2166 H2160 0.930 . S
C2166 C2167 1.367 . S
C2166 C2174 1.378 1_565 S
C2167 C2166 1.367 . S
C2167 C2175 1.433 1_565 S
C2168 H2164 0.929 . S
C2168 C2170 1.378 . S
C2168 C2172 1.350 . S
C2169 C2172 1.463 . S
C2169 C2174 1.350 . S
C2169 N2177 1.427 . S
C2170 H2161 0.930 . S
C2170 C2168 1.378 . S
C2170 C2171 1.367 . S
C2171 C2170 1.367 . S
C2171 C2173 1.433 . S
C2172 C2168 1.350 . S
C2172 C2169 1.463 . S
C2172 N2176 1.427 . S
C2173 H2163 0.929 . S
C2173 C2171 1.433 . S
C2173 N2176 1.384 . S
C2174 H2165 0.929 . S
C2174 C2166 1.378 1_545 S
C2174 C2169 1.350 . S
C2175 H2162 0.929 . S
C2175 C2167 1.433 1_545 S
C2175 N2177 1.384 . S
N2176 C2172 1.427 . S
N2176 C2173 1.384 . S
N2177 C2169 1.427 . S
N2177 C2175 1.384 . S
H2178 C2184 0.930 . S
H2179 C2188 0.930 . S
H2180 C2193 0.929 . S
H2181 C2191 0.929 . S
H2182 C2186 0.929 . S
H2183 C2192 0.929 1_455 S
C2184 H2178 0.930 . S
C2184 C2185 1.367 . S
C2184 C2192 1.378 . S
C2185 C2184 1.367 . S
C2185 C2193 1.433 . S
C2186 H2182 0.929 . S
C2186 C2188 1.378 . S
C2186 C2190 1.350 . S
C2187 C2190 1.463 . S
C2187 C2192 1.350 . S
C2187 N2195 1.427 . S
C2188 H2179 0.930 . S
C2188 C2186 1.378 . S
C2188 C2189 1.367 1_655 S
C2189 C2188 1.367 1_455 S
C2189 C2191 1.433 . S
C2190 C2186 1.350 . S
C2190 C2187 1.463 . S
C2190 N2194 1.427 1_655 S
C2191 H2181 0.929 . S
C2191 C2189 1.433 . S
C2191 N2194 1.384 . S
C2192 H2183 0.929 1_655 S
C2192 C2184 1.378 . S
C2192 C2187 1.350 . S
C2193 H2180 0.929 . S
C2193 C2185 1.433 . S
C2193 N2195 1.384 . S
N2194 C2190 1.427 1_455 S
N2194 C2191 1.384 . S
N2195 C2187 1.427 . S
N2195 C2193 1.384 . S
H2196 C2202 0.930 . S
H2197 C2206 0.930 . S
H2198 C2211 0.929 . S
H2199 C2209 0.929 . S
H2200 C2204 0.929 . S
H2201 C2210 0.929 . S
C2202 H2196 0.930 . S
C2202 C2203 1.367 . S
C2202 C2210 1.378 . S
C2203 C2202 1.367 . S
C2203 C2211 1.433 . S
C2204 H2200 0.929 . S
C2204 C2206 1.378 . S
C2204 C2208 1.350 . S
C2205 C2208 1.463 . S
C2205 C2210 1.350 . S
C2205 N2213 1.427 . S
C2206 H2197 0.930 . S
C2206 C2204 1.378 . S
C2206 C2207 1.367 . S
C2207 C2206 1.367 . S
C2207 C2209 1.433 . S
C2208 C2204 1.350 . S
C2208 C2205 1.463 . S
C2208 N2212 1.427 . S
C2209 H2199 0.929 . S
C2209 C2207 1.433 . S
C2209 N2212 1.384 . S
C2210 H2201 0.929 . S
C2210 C2202 1.378 . S
C2210 C2205 1.350 . S
C2211 H2198 0.929 . S
C2211 C2203 1.433 . S
C2211 N2213 1.384 . S
N2212 C2208 1.427 . S
N2212 C2209 1.384 . S
N2213 C2205 1.427 . S
N2213 C2211 1.384 . S
H2214 C2220 0.930 . S
H2215 C2224 0.930 . S
H2216 C2229 0.929 . S
H2217 C2227 0.929 . S
H2218 C2222 0.929 . S
H2219 C2228 0.929 . S
C2220 H2214 0.930 . S
C2220 C2221 1.367 . S
C2220 C2228 1.378 . S
C2221 C2220 1.367 . S
C2221 C2229 1.433 . S
C2222 H2218 0.929 . S
C2222 C2224 1.378 . S
C2222 C2226 1.350 1_565 S
C2223 C2226 1.463 . S
C2223 C2228 1.350 . S
C2223 N2231 1.427 . S
C2224 H2215 0.930 . S
C2224 C2222 1.378 . S
C2224 C2225 1.367 . S
C2225 C2224 1.367 . S
C2225 C2227 1.433 1_565 S
C2226 C2222 1.350 1_545 S
C2226 C2223 1.463 . S
C2226 N2230 1.427 . S
C2227 H2217 0.929 . S
C2227 C2225 1.433 1_545 S
C2227 N2230 1.384 . S
C2228 H2219 0.929 . S
C2228 C2220 1.378 . S
C2228 C2223 1.350 . S
C2229 H2216 0.929 . S
C2229 C2221 1.433 . S
C2229 N2231 1.384 . S
N2230 C2226 1.427 . S
N2230 C2227 1.384 . S
N2231 C2223 1.427 . S
N2231 C2229 1.384 . S
H2232 C2238 0.930 . S
H2233 C2242 0.930 . S
H2234 C2247 0.929 . S
H2235 C2245 0.929 . S
H2236 C2240 0.929 . S
H2237 C2246 0.929 . S
C2238 H2232 0.930 . S
C2238 C2239 1.367 . S
C2238 C2246 1.378 . S
C2239 C2238 1.367 . S
C2239 C2247 1.433 . S
C2240 H2236 0.929 . S
C2240 C2242 1.378 . S
C2240 C2244 1.350 . S
C2241 C2244 1.463 . S
C2241 C2246 1.350 . S
C2241 N2249 1.427 . S
C2242 H2233 0.930 . S
C2242 C2240 1.378 . S
C2242 C2243 1.367 1_655 S
C2243 C2242 1.367 1_455 S
C2243 C2245 1.433 . S
C2244 C2240 1.350 . S
C2244 C2241 1.463 . S
C2244 N2248 1.427 1_655 S
C2245 H2235 0.929 . S
C2245 C2243 1.433 . S
C2245 N2248 1.384 . S
C2246 H2237 0.929 . S
C2246 C2238 1.378 . S
C2246 C2241 1.350 . S
C2247 H2234 0.929 . S
C2247 C2239 1.433 . S
C2247 N2249 1.384 . S
N2248 C2244 1.427 1_455 S
N2248 C2245 1.384 . S
N2249 C2241 1.427 . S
N2249 C2247 1.384 . S
H2250 C2256 0.930 . S
H2251 C2260 0.930 . S
H2252 C2265 0.929 . S
H2253 C2263 0.929 . S
H2254 C2258 0.929 . S
H2255 C2264 0.929 . S
C2256 H2250 0.930 . S
C2256 C2257 1.367 . S
C2256 C2264 1.378 . S
C2257 C2256 1.367 . S
C2257 C2265 1.433 . S
C2258 H2254 0.929 . S
C2258 C2260 1.378 . S
C2258 C2262 1.350 . S
C2259 C2262 1.463 . S
C2259 C2264 1.350 . S
C2259 N2267 1.427 . S
C2260 H2251 0.930 . S
C2260 C2258 1.378 . S
C2260 C2261 1.367 . S
C2261 C2260 1.367 . S
C2261 C2263 1.433 . S
C2262 C2258 1.350 . S
C2262 C2259 1.463 . S
C2262 N2266 1.427 . S
C2263 H2253 0.929 . S
C2263 C2261 1.433 . S
C2263 N2266 1.384 . S
C2264 H2255 0.929 . S
C2264 C2256 1.378 . S
C2264 C2259 1.350 . S
C2265 H2252 0.929 . S
C2265 C2257 1.433 . S
C2265 N2267 1.384 . S
N2266 C2262 1.427 . S
N2266 C2263 1.384 . S
N2267 C2259 1.427 . S
N2267 C2265 1.384 . S
H2268 C2274 0.930 . S
H2269 C2278 0.930 . S
H2270 C2283 0.929 . S
H2271 C2281 0.929 . S
H2272 C2276 0.929 . S
H2273 C2282 0.929 . S
C2274 H2268 0.930 . S
C2274 C2275 1.367 1_565 S
C2274 C2282 1.378 . S
C2275 C2274 1.367 1_545 S
C2275 C2283 1.433 . S
C2276 H2272 0.929 . S
C2276 C2278 1.378 . S
C2276 C2280 1.350 . S
C2277 C2280 1.463 . S
C2277 C2282 1.350 . S
C2277 N2285 1.427 1_565 S
C2278 H2269 0.930 . S
C2278 C2276 1.378 . S
C2278 C2279 1.367 . S
C2279 C2278 1.367 . S
C2279 C2281 1.433 . S
C2280 C2276 1.350 . S
C2280 C2277 1.463 . S
C2280 N2284 1.427 . S
C2281 H2271 0.929 . S
C2281 C2279 1.433 . S
C2281 N2284 1.384 . S
C2282 H2273 0.929 . S
C2282 C2274 1.378 . S
C2282 C2277 1.350 . S
C2283 H2270 0.929 . S
C2283 C2275 1.433 . S
C2283 N2285 1.384 . S
N2284 C2280 1.427 . S
N2284 C2281 1.384 . S
N2285 C2277 1.427 1_545 S
N2285 C2283 1.384 . S
H2286 C2292 0.930 . S
H2287 C2296 0.930 . S
H2288 C2301 0.929 . S
H2289 C2299 0.929 . S
H2290 C2294 0.929 1_655 S
H2291 C2300 0.929 . S
C2292 H2286 0.930 . S
C2292 C2293 1.367 1_455 S
C2292 C2300 1.378 . S
C2293 C2292 1.367 1_655 S
C2293 C2301 1.433 . S
C2294 H2290 0.929 1_455 S
C2294 C2296 1.378 . S
C2294 C2298 1.350 . S
C2295 C2298 1.463 . S
C2295 C2300 1.350 . S
C2295 N2303 1.427 1_455 S
C2296 H2287 0.930 . S
C2296 C2294 1.378 . S
C2296 C2297 1.367 . S
C2297 C2296 1.367 . S
C2297 C2299 1.433 . S
C2298 C2294 1.350 . S
C2298 C2295 1.463 . S
C2298 N2302 1.427 . S
C2299 H2289 0.929 . S
C2299 C2297 1.433 . S
C2299 N2302 1.384 . S
C2300 H2291 0.929 . S
C2300 C2292 1.378 . S
C2300 C2295 1.350 . S
C2301 H2288 0.929 . S
C2301 C2293 1.433 . S
C2301 N2303 1.384 . S
N2302 C2298 1.427 . S
N2302 C2299 1.384 . S
N2303 C2295 1.427 1_655 S
N2303 C2301 1.384 . S
H2304 C2310 0.930 . S
H2305 C2314 0.930 . S
H2306 C2319 0.929 . S
H2307 C2317 0.929 . S
H2308 C2312 0.929 . S
H2309 C2318 0.929 . S
C2310 H2304 0.930 . S
C2310 C2311 1.367 . S
C2310 C2318 1.378 . S
C2311 C2310 1.367 . S
C2311 C2319 1.433 . S
C2312 H2308 0.929 . S
C2312 C2314 1.378 . S
C2312 C2316 1.350 . S
C2313 C2316 1.463 . S
C2313 C2318 1.350 1_455 S
C2313 N2321 1.427 1_455 S
C2314 H2305 0.930 . S
C2314 C2312 1.378 . S
C2314 C2315 1.367 . S
C2315 C2314 1.367 . S
C2315 C2317 1.433 . S
C2316 C2312 1.350 . S
C2316 C2313 1.463 . S
C2316 N2320 1.427 . S
C2317 H2307 0.929 . S
C2317 C2315 1.433 . S
C2317 N2320 1.384 . S
C2318 H2309 0.929 . S
C2318 C2310 1.378 . S
C2318 C2313 1.350 1_655 S
C2319 H2306 0.929 . S
C2319 C2311 1.433 . S
C2319 N2321 1.384 . S
N2320 C2316 1.427 . S
N2320 C2317 1.384 . S
N2321 C2313 1.427 1_655 S
N2321 C2319 1.384 . S
H2322 C2328 0.930 . S
H2323 C2332 0.930 . S
H2324 C2337 0.929 . S
H2325 C2335 0.929 . S
H2326 C2330 0.929 . S
H2327 C2336 0.929 . S
C2328 H2322 0.930 . S
C2328 C2329 1.367 . S
C2328 C2336 1.378 . S
C2329 C2328 1.367 . S
C2329 C2337 1.433 . S
C2330 H2326 0.929 . S
C2330 C2332 1.378 . S
C2330 C2334 1.350 . S
C2331 C2334 1.463 . S
C2331 C2336 1.350 . S
C2331 N2339 1.427 . S
C2332 H2323 0.930 . S
C2332 C2330 1.378 . S
C2332 C2333 1.367 . S
C2333 C2332 1.367 . S
C2333 C2335 1.433 . S
C2334 C2330 1.350 . S
C2334 C2331 1.463 . S
C2334 N2338 1.427 . S
C2335 H2325 0.929 . S
C2335 C2333 1.433 . S
C2335 N2338 1.384 . S
C2336 H2327 0.929 . S
C2336 C2328 1.378 . S
C2336 C2331 1.350 . S
C2337 H2324 0.929 . S
C2337 C2329 1.433 . S
C2337 N2339 1.384 . S
N2338 C2334 1.427 . S
N2338 C2335 1.384 . S
N2339 C2331 1.427 . S
N2339 C2337 1.384 . S
H2340 C2346 0.930 . S
H2341 C2350 0.930 . S
H2342 C2355 0.929 . S
H2343 C2353 0.929 . S
H2344 C2348 0.929 1_565 S
H2345 C2354 0.929 . S
C2346 H2340 0.930 . S
C2346 C2347 1.367 . S
C2346 C2354 1.378 . S
C2347 C2346 1.367 . S
C2347 C2355 1.433 . S
C2348 H2344 0.929 1_545 S
C2348 C2350 1.378 . S
C2348 C2352 1.350 1_545 S
C2349 C2352 1.463 . S
C2349 C2354 1.350 . S
C2349 N2357 1.427 . S
C2350 H2341 0.930 . S
C2350 C2348 1.378 . S
C2350 C2351 1.367 . S
C2351 C2350 1.367 . S
C2351 C2353 1.433 . S
C2352 C2348 1.350 1_565 S
C2352 C2349 1.463 . S
C2352 N2356 1.427 1_565 S
C2353 H2343 0.929 . S
C2353 C2351 1.433 . S
C2353 N2356 1.384 . S
C2354 H2345 0.929 . S
C2354 C2346 1.378 . S
C2354 C2349 1.350 . S
C2355 H2342 0.929 . S
C2355 C2347 1.433 . S
C2355 N2357 1.384 . S
N2356 C2352 1.427 1_545 S
N2356 C2353 1.384 . S
N2357 C2349 1.427 . S
N2357 C2355 1.384 . S
H2358 C2364 0.930 . S
H2359 C2368 0.930 . S
H2360 C2373 0.929 . S
H2361 C2371 0.929 . S
H2362 C2366 0.929 . S
H2363 C2372 0.929 . S
C2364 H2358 0.930 . S
C2364 C2365 1.367 . S
C2364 C2372 1.378 . S
C2365 C2364 1.367 . S
C2365 C2373 1.433 . S
C2366 H2362 0.929 . S
C2366 C2368 1.378 . S
C2366 C2370 1.350 . S
C2367 C2370 1.463 . S
C2367 C2372 1.350 . S
C2367 N2375 1.427 . S
C2368 H2359 0.930 . S
C2368 C2366 1.378 . S
C2368 C2369 1.357 1_455 S
C2369 C2368 1.357 1_655 S
C2369 C2371 1.442 . S
C2370 C2366 1.350 . S
C2370 C2367 1.463 . S
C2370 N2374 1.427 . S
C2371 H2361 0.929 . S
C2371 C2369 1.442 . S
C2371 N2374 1.384 1_655 S
C2372 H2363 0.929 . S
C2372 C2364 1.378 . S
C2372 C2367 1.350 . S
C2373 H2360 0.929 . S
C2373 C2365 1.433 . S
C2373 N2375 1.384 . S
N2374 C2370 1.427 . S
N2374 C2371 1.384 1_455 S
N2375 C2367 1.427 . S
N2375 C2373 1.384 . S
H2376 C2382 0.930 . S
H2377 C2386 0.930 . S
H2378 C2391 0.929 . S
H2379 C2389 0.929 . S
H2380 C2384 0.929 . S
H2381 C2390 0.929 . S
C2382 H2376 0.930 . S
C2382 C2383 1.367 . S
C2382 C2390 1.378 . S
C2383 C2382 1.367 . S
C2383 C2391 1.433 . S
C2384 H2380 0.929 . S
C2384 C2386 1.378 . S
C2384 C2388 1.350 . S
C2385 C2388 1.463 . S
C2385 C2390 1.350 . S
C2385 N2393 1.427 . S
C2386 H2377 0.930 . S
C2386 C2384 1.378 . S
C2386 C2387 1.367 . S
C2387 C2386 1.367 . S
C2387 C2389 1.433 . S
C2388 C2384 1.350 . S
C2388 C2385 1.463 . S
C2388 N2392 1.427 . S
C2389 H2379 0.929 . S
C2389 C2387 1.433 . S
C2389 N2392 1.384 . S
C2390 H2381 0.929 . S
C2390 C2382 1.378 . S
C2390 C2385 1.350 . S
C2391 H2378 0.929 . S
C2391 C2383 1.433 . S
C2391 N2393 1.384 . S
N2392 C2388 1.427 . S
N2392 C2389 1.384 . S
N2393 C2385 1.427 . S
N2393 C2391 1.384 . S
H2394 C2400 0.930 . S
H2395 C2404 0.930 . S
H2396 C2409 0.929 . S
H2397 C2407 0.929 . S
H2398 C2402 0.929 . S
H2399 C2408 0.929 . S
C2400 H2394 0.930 . S
C2400 C2401 1.367 . S
C2400 C2408 1.378 . S
C2401 C2400 1.367 . S
C2401 C2409 1.433 . S
C2402 H2398 0.929 . S
C2402 C2404 1.378 1_565 S
C2402 C2406 1.350 . S
C2403 C2406 1.463 . S
C2403 C2408 1.350 . S
C2403 N2411 1.427 . S
C2404 H2395 0.930 . S
C2404 C2402 1.378 1_545 S
C2404 C2405 1.367 . S
C2405 C2404 1.367 . S
C2405 C2407 1.433 1_545 S
C2406 C2402 1.350 . S
C2406 C2403 1.463 . S
C2406 N2410 1.427 . S
C2407 H2397 0.929 . S
C2407 C2405 1.433 1_565 S
C2407 N2410 1.384 . S
C2408 H2399 0.929 . S
C2408 C2400 1.378 . S
C2408 C2403 1.350 . S
C2409 H2396 0.929 . S
C2409 C2401 1.433 . S
C2409 N2411 1.384 . S
N2410 C2406 1.427 . S
N2410 C2407 1.384 . S
N2411 C2403 1.427 . S
N2411 C2409 1.384 . S
H2412 C2418 0.930 . S
H2413 C2422 0.930 . S
H2414 C2427 0.929 . S
H2415 C2425 0.929 . S
H2416 C2420 0.929 . S
H2417 C2426 0.929 . S
C2418 H2412 0.930 . S
C2418 C2419 1.367 . S
C2418 C2426 1.378 . S
C2419 C2418 1.367 . S
C2419 C2427 1.433 . S
C2420 H2416 0.929 . S
C2420 C2422 1.378 1_565 S
C2420 C2424 1.350 . S
C2421 C2424 1.463 . S
C2421 C2426 1.350 . S
C2421 N2429 1.427 . S
C2422 H2413 0.930 . S
C2422 C2420 1.378 1_545 S
C2422 C2423 1.367 . S
C2423 C2422 1.367 . S
C2423 C2425 1.433 1_545 S
C2424 C2420 1.350 . S
C2424 C2421 1.463 . S
C2424 N2428 1.427 . S
C2425 H2415 0.929 . S
C2425 C2423 1.433 1_565 S
C2425 N2428 1.384 . S
C2426 H2417 0.929 . S
C2426 C2418 1.378 . S
C2426 C2421 1.350 . S
C2427 H2414 0.929 . S
C2427 C2419 1.433 . S
C2427 N2429 1.384 . S
N2428 C2424 1.427 . S
N2428 C2425 1.384 . S
N2429 C2421 1.427 . S
N2429 C2427 1.384 . S
H2430 C2436 0.930 . S
H2431 C2440 0.930 . S
H2432 C2445 0.929 . S
H2433 C2443 0.929 . S
H2434 C2438 0.929 . S
H2435 C2444 0.929 . S
C2436 H2430 0.930 . S
C2436 C2437 1.367 1_455 S
C2436 C2444 1.378 . S
C2437 C2436 1.367 1_655 S
C2437 C2445 1.433 . S
C2438 H2434 0.929 . S
C2438 C2440 1.378 . S
C2438 C2442 1.350 . S
C2439 C2442 1.463 . S
C2439 C2444 1.350 . S
C2439 N2447 1.427 . S
C2440 H2431 0.930 . S
C2440 C2438 1.378 . S
C2440 C2441 1.367 . S
C2441 C2440 1.367 . S
C2441 C2443 1.433 . S
C2442 C2438 1.350 . S
C2442 C2439 1.463 . S
C2442 N2446 1.427 . S
C2443 H2433 0.929 . S
C2443 C2441 1.433 . S
C2443 N2446 1.384 . S
C2444 H2435 0.929 . S
C2444 C2436 1.378 . S
C2444 C2439 1.350 . S
C2445 H2432 0.929 . S
C2445 C2437 1.433 . S
C2445 N2447 1.384 1_655 S
N2446 C2442 1.427 . S
N2446 C2443 1.384 . S
N2447 C2439 1.427 . S
N2447 C2445 1.384 1_455 S
H2448 C2454 0.930 . S
H2449 C2458 0.930 . S
H2450 C2463 0.929 . S
H2451 C2461 0.929 . S
H2452 C2456 0.929 . S
H2453 C2462 0.929 . S
C2454 H2448 0.930 . S
C2454 C2455 1.367 . S
C2454 C2462 1.378 . S
C2455 C2454 1.367 . S
C2455 C2463 1.433 . S
C2456 H2452 0.929 . S
C2456 C2458 1.378 . S
C2456 C2460 1.350 . S
C2457 C2460 1.463 . S
C2457 C2462 1.350 . S
C2457 N2465 1.427 . S
C2458 H2449 0.930 . S
C2458 C2456 1.378 . S
C2458 C2459 1.367 . S
C2459 C2458 1.367 . S
C2459 C2461 1.433 . S
C2460 C2456 1.350 . S
C2460 C2457 1.463 . S
C2460 N2464 1.427 . S
C2461 H2451 0.929 . S
C2461 C2459 1.433 . S
C2461 N2464 1.384 . S
C2462 H2453 0.929 . S
C2462 C2454 1.378 . S
C2462 C2457 1.350 . S
C2463 H2450 0.929 . S
C2463 C2455 1.433 . S
C2463 N2465 1.384 . S
N2464 C2460 1.427 . S
N2464 C2461 1.384 . S
N2465 C2457 1.427 . S
N2465 C2463 1.384 . S
H2466 C2472 0.930 . S
H2467 C2476 0.930 . S
H2468 C2481 0.929 . S
H2469 C2479 0.929 . S
H2470 C2474 0.929 . S
H2471 C2480 0.929 . S
C2472 H2466 0.930 . S
C2472 C2473 1.360 . S
C2472 C2480 1.378 . S
C2473 C2472 1.360 . S
C2473 C2481 1.440 1_556 S
C2474 H2470 0.929 . S
C2474 C2476 1.378 . S
C2474 C2478 1.350 1_554 S
C2475 C2478 1.463 1_565 S
C2475 C2480 1.350 . S
C2475 N2483 1.427 1_556 S
C2476 H2467 0.930 . S
C2476 C2474 1.378 . S
C2476 C2477 1.367 1_554 S
C2477 C2476 1.367 1_556 S
C2477 C2479 1.433 . S
C2478 C2474 1.350 1_556 S
C2478 C2475 1.463 1_545 S
C2478 N2482 1.427 . S
C2479 H2469 0.929 . S
C2479 C2477 1.433 . S
C2479 N2482 1.384 . S
C2480 H2471 0.929 . S
C2480 C2472 1.378 . S
C2480 C2475 1.350 . S
C2481 H2468 0.929 . S
C2481 C2473 1.440 1_554 S
C2481 N2483 1.384 . S
N2482 C2478 1.427 . S
N2482 C2479 1.384 . S
N2483 C2475 1.427 1_554 S
N2483 C2481 1.384 . S
H2484 C2490 0.930 . S
H2485 C2494 0.930 . S
H2486 C2499 0.929 . S
H2487 C2497 0.929 . S
H2488 C2492 0.929 . S
H2489 C2498 0.929 . S
C2490 H2484 0.930 . S
C2490 C2491 1.362 . S
C2490 C2498 1.378 . S
C2491 C2490 1.362 . S
C2491 C2499 1.438 1_556 S
C2492 H2488 0.929 . S
C2492 C2494 1.378 . S
C2492 C2496 1.350 1_554 S
C2493 C2496 1.463 1_455 S
C2493 C2498 1.350 . S
C2493 N2501 1.427 1_556 S
C2494 H2485 0.930 . S
C2494 C2492 1.378 . S
C2494 C2495 1.367 1_554 S
C2495 C2494 1.367 1_556 S
C2495 C2497 1.433 . S
C2496 C2492 1.350 1_556 S
C2496 C2493 1.463 1_655 S
C2496 N2500 1.427 . S
C2497 H2487 0.929 . S
C2497 C2495 1.433 . S
C2497 N2500 1.384 . S
C2498 H2489 0.929 . S
C2498 C2490 1.378 . S
C2498 C2493 1.350 . S
C2499 H2486 0.929 . S
C2499 C2491 1.438 1_554 S
C2499 N2501 1.384 . S
N2500 C2496 1.427 . S
N2500 C2497 1.384 . S
N2501 C2493 1.427 1_554 S
N2501 C2499 1.384 . S
H2502 C2508 0.930 . S
H2503 C2512 0.930 . S
H2504 C2517 0.929 . S
H2505 C2515 0.929 . S
H2506 C2510 0.929 . S
H2507 C2516 0.929 . S
C2508 H2502 0.930 . S
C2508 C2509 1.367 1_554 S
C2508 C2516 1.378 . S
C2509 C2508 1.367 1_556 S
C2509 C2517 1.433 . S
C2510 H2506 0.929 . S
C2510 C2512 1.378 . S
C2510 C2514 1.350 . S
C2511 C2514 1.463 . S
C2511 C2516 1.350 1_556 S
C2511 N2519 1.427 . S
C2512 H2503 0.930 . S
C2512 C2510 1.378 . S
C2512 C2513 1.376 . S
C2513 C2512 1.376 . S
C2513 C2515 1.425 1_556 S
C2514 C2510 1.350 . S
C2514 C2511 1.463 . S
C2514 N2518 1.427 1_556 S
C2515 H2505 0.929 . S
C2515 C2513 1.425 1_554 S
C2515 N2518 1.384 . S
C2516 H2507 0.929 . S
C2516 C2508 1.378 . S
C2516 C2511 1.350 1_554 S
C2517 H2504 0.929 . S
C2517 C2509 1.433 . S
C2517 N2519 1.384 . S
N2518 C2514 1.427 1_554 S
N2518 C2515 1.384 . S
N2519 C2511 1.427 . S
N2519 C2517 1.384 . S
H2520 C2526 0.930 . S
H2521 C2530 0.930 . S
H2522 C2535 0.929 . S
H2523 C2533 0.929 . S
H2524 C2528 0.929 . S
H2525 C2534 0.929 . S
C2526 H2520 0.930 . S
C2526 C2527 1.367 . S
C2526 C2534 1.378 . S
C2527 C2526 1.367 . S
C2527 C2535 1.433 . S
C2528 H2524 0.929 . S
C2528 C2530 1.378 . S
C2528 C2532 1.350 . S
C2529 C2532 1.463 . S
C2529 C2534 1.350 . S
C2529 N2537 1.427 . S
C2530 H2521 0.930 . S
C2530 C2528 1.378 . S
C2530 C2531 1.367 1_545 S
C2531 C2530 1.367 1_565 S
C2531 C2533 1.433 . S
C2532 C2528 1.350 . S
C2532 C2529 1.463 . S
C2532 N2536 1.427 . S
C2533 H2523 0.929 . S
C2533 C2531 1.433 . S
C2533 N2536 1.384 1_565 S
C2534 H2525 0.929 . S
C2534 C2526 1.378 . S
C2534 C2529 1.350 . S
C2535 H2522 0.929 . S
C2535 C2527 1.433 . S
C2535 N2537 1.384 . S
N2536 C2532 1.427 . S
N2536 C2533 1.384 1_545 S
N2537 C2529 1.427 . S
N2537 C2535 1.384 . S
H2538 C2544 0.930 . S
H2539 C2548 0.930 . S
H2540 C2553 0.929 . S
H2541 C2551 0.929 . S
H2542 C2546 0.929 1_455 S
H2543 C2552 0.929 . S
C2544 H2538 0.930 . S
C2544 C2545 1.367 . S
C2544 C2552 1.378 . S
C2545 C2544 1.367 . S
C2545 C2553 1.433 . S
C2546 H2542 0.929 1_655 S
C2546 C2548 1.378 1_655 S
C2546 C2550 1.350 . S
C2547 C2550 1.463 . S
C2547 C2552 1.350 . S
C2547 N2555 1.427 . S
C2548 H2539 0.930 . S
C2548 C2546 1.378 1_455 S
C2548 C2549 1.367 . S
C2549 C2548 1.367 . S
C2549 C2551 1.433 1_455 S
C2550 C2546 1.350 . S
C2550 C2547 1.463 . S
C2550 N2554 1.427 . S
C2551 H2541 0.929 . S
C2551 C2549 1.433 1_655 S
C2551 N2554 1.384 . S
C2552 H2543 0.929 . S
C2552 C2544 1.378 . S
C2552 C2547 1.350 . S
C2553 H2540 0.929 . S
C2553 C2545 1.433 . S
C2553 N2555 1.384 . S
N2554 C2550 1.427 . S
N2554 C2551 1.384 . S
N2555 C2547 1.427 . S
N2555 C2553 1.384 . S
H2556 C2562 0.930 . S
H2557 C2566 0.930 . S
H2558 C2571 0.929 . S
H2559 C2569 0.929 . S
H2560 C2564 0.929 . S
H2561 C2570 0.929 . S
C2562 H2556 0.930 . S
C2562 C2563 1.367 . S
C2562 C2570 1.378 . S
C2563 C2562 1.367 . S
C2563 C2571 1.433 . S
C2564 H2560 0.929 . S
C2564 C2566 1.378 . S
C2564 C2568 1.350 . S
C2565 C2568 1.463 . S
C2565 C2570 1.350 . S
C2565 N2573 1.427 . S
C2566 H2557 0.930 . S
C2566 C2564 1.378 . S
C2566 C2567 1.367 . S
C2567 C2566 1.367 . S
C2567 C2569 1.433 . S
C2568 C2564 1.350 . S
C2568 C2565 1.463 . S
C2568 N2572 1.427 . S
C2569 H2559 0.929 . S
C2569 C2567 1.433 . S
C2569 N2572 1.384 . S
C2570 H2561 0.929 . S
C2570 C2562 1.378 . S
C2570 C2565 1.350 . S
C2571 H2558 0.929 . S
C2571 C2563 1.433 . S
C2571 N2573 1.384 . S
N2572 C2568 1.427 . S
N2572 C2569 1.384 . S
N2573 C2565 1.427 . S
N2573 C2571 1.384 . S
H2574 C2580 0.930 . S
H2575 C2584 0.930 . S
H2576 C2589 0.929 . S
H2577 C2587 0.929 . S
H2578 C2582 0.929 . S
H2579 C2588 0.929 . S
C2580 H2574 0.930 . S
C2580 C2581 1.367 1_556 S
C2580 C2588 1.378 . S
C2581 C2580 1.367 1_554 S
C2581 C2589 1.433 . S
C2582 H2578 0.929 . S
C2582 C2584 1.378 . S
C2582 C2586 1.350 . S
C2583 C2586 1.463 1_565 S
C2583 C2588 1.350 1_554 S
C2583 N2591 1.427 . S
C2584 H2575 0.930 . S
C2584 C2582 1.378 . S
C2584 C2585 1.390 . S
C2585 C2584 1.390 . S
C2585 C2587 1.411 1_554 S
C2586 C2582 1.350 . S
C2586 C2583 1.463 1_545 S
C2586 N2590 1.427 1_554 S
C2587 H2577 0.929 . S
C2587 C2585 1.411 1_556 S
C2587 N2590 1.384 . S
C2588 H2579 0.929 . S
C2588 C2580 1.378 . S
C2588 C2583 1.350 1_556 S
C2589 H2576 0.929 . S
C2589 C2581 1.433 . S
C2589 N2591 1.384 . S
N2590 C2586 1.427 1_556 S
N2590 C2587 1.384 . S
N2591 C2583 1.427 . S
N2591 C2589 1.384 . S
H2592 C2598 0.930 . S
H2593 C2602 0.930 . S
H2594 C2607 0.929 . S
H2595 C2605 0.939 . S
H2596 C2600 0.929 . S
H2597 C2606 0.929 . S
C2598 H2592 0.930 . S
C2598 C2599 1.371 . S
C2598 C2606 1.378 . S
C2599 C2598 1.371 . S
C2599 C2607 1.428 1_556 S
C2600 H2596 0.929 . S
C2600 C2602 1.378 . S
C2600 C2604 1.350 . S
C2601 C2604 1.463 1_655 S
C2601 C2606 1.350 1_554 S
C2601 N2609 1.427 . S
C2602 H2593 0.930 . S
C2602 C2600 1.378 . S
C2602 C2603 1.367 . S
C2603 C2602 1.367 . S
C2603 C2605 1.421 1_554 S
C2604 C2600 1.350 . S
C2604 C2601 1.463 1_455 S
C2604 N2608 1.389 1_554 S
C2605 H2595 0.939 . S
C2605 C2603 1.421 1_556 S
C2605 N2608 1.380 . S
C2606 H2597 0.929 . S
C2606 C2598 1.378 . S
C2606 C2601 1.350 1_556 S
C2607 H2594 0.929 . S
C2607 C2599 1.428 1_554 S
C2607 N2609 1.384 . S
N2608 C2604 1.389 1_556 S
N2608 C2605 1.380 . S
N2609 C2601 1.427 . S
N2609 C2607 1.384 . S
H2610 C2616 0.930 . S
H2611 C2620 0.930 . S
H2612 C2625 0.929 . S
H2613 C2623 0.929 . S
H2614 C2618 0.929 . S
H2615 C2624 0.929 . S
C2616 H2610 0.930 . S
C2616 C2617 1.367 . S
C2616 C2624 1.378 . S
C2617 C2616 1.367 . S
C2617 C2625 1.433 1_554 S
C2618 H2614 0.929 . S
C2618 C2620 1.378 . S
C2618 C2622 1.350 1_556 S
C2619 C2622 1.463 . S
C2619 C2624 1.350 . S
C2619 N2627 1.427 1_554 S
C2620 H2611 0.930 . S
C2620 C2618 1.378 . S
C2620 C2621 1.364 . S
C2621 C2620 1.364 . S
C2621 C2623 1.436 1_556 S
C2622 C2618 1.350 1_554 S
C2622 C2619 1.463 . S
C2622 N2626 1.427 . S
C2623 H2613 0.929 . S
C2623 C2621 1.436 1_554 S
C2623 N2626 1.384 . S
C2624 H2615 0.929 . S
C2624 C2616 1.378 . S
C2624 C2619 1.350 . S
C2625 H2612 0.929 . S
C2625 C2617 1.433 1_556 S
C2625 N2627 1.384 . S
N2626 C2622 1.427 . S
N2626 C2623 1.384 . S
N2627 C2619 1.427 1_556 S
N2627 C2625 1.384 . S
H2628 C2634 0.930 . S
H2629 C2638 0.930 . S
H2630 C2643 0.929 . S
H2631 C2641 0.929 . S
H2632 C2636 0.929 . S
H2633 C2642 0.930 . S
C2634 H2628 0.930 . S
C2634 C2635 1.367 . S
C2634 C2642 1.378 . S
C2635 C2634 1.367 . S
C2635 C2643 1.433 . S
C2636 H2632 0.929 . S
C2636 C2638 1.378 . S
C2636 C2640 1.350 . S
C2637 C2640 1.463 . S
C2637 C2642 1.350 1_655 S
C2637 N2645 1.427 1_655 S
C2638 H2629 0.930 . S
C2638 C2636 1.378 . S
C2638 C2639 1.367 . S
C2639 C2638 1.367 . S
C2639 C2641 1.433 . S
C2640 C2636 1.350 . S
C2640 C2637 1.463 . S
C2640 N2644 1.427 . S
C2641 H2631 0.929 . S
C2641 C2639 1.433 . S
C2641 N2644 1.384 . S
C2642 H2633 0.930 . S
C2642 C2634 1.378 . S
C2642 C2637 1.350 1_455 S
C2643 H2630 0.929 . S
C2643 C2635 1.433 . S
C2643 N2645 1.384 . S
N2644 C2640 1.427 . S
N2644 C2641 1.384 . S
N2645 C2637 1.427 1_455 S
N2645 C2643 1.384 . S
H2646 C2652 0.930 . S
H2647 C2656 0.930 . S
H2648 C2661 0.929 . S
H2649 C2659 0.929 . S
H2650 C2654 0.929 . S
H2651 C2660 0.929 . S
C2652 H2646 0.930 . S
C2652 C2653 1.367 . S
C2652 C2660 1.378 . S
C2653 C2652 1.367 . S
C2653 C2661 1.433 . S
C2654 H2650 0.929 . S
C2654 C2656 1.378 . S
C2654 C2658 1.350 . S
C2655 C2658 1.463 . S
C2655 C2660 1.350 . S
C2655 N2663 1.427 . S
C2656 H2647 0.930 . S
C2656 C2654 1.378 . S
C2656 C2657 1.367 . S
C2657 C2656 1.367 . S
C2657 C2659 1.433 . S
C2658 C2654 1.350 . S
C2658 C2655 1.463 . S
C2658 N2662 1.427 . S
C2659 H2649 0.929 . S
C2659 C2657 1.433 . S
C2659 N2662 1.384 . S
C2660 H2651 0.929 . S
C2660 C2652 1.378 . S
C2660 C2655 1.350 . S
C2661 H2648 0.929 . S
C2661 C2653 1.433 . S
C2661 N2663 1.384 . S
N2662 C2658 1.427 . S
N2662 C2659 1.384 . S
N2663 C2655 1.427 . S
N2663 C2661 1.384 . S
H2664 C2670 0.930 . S
H2665 C2674 0.930 . S
H2666 C2679 0.929 . S
H2667 C2677 0.929 . S
H2668 C2672 0.929 . S
H2669 C2678 0.929 . S
C2670 H2664 0.930 . S
C2670 C2671 1.367 . S
C2670 C2678 1.378 . S
C2671 C2670 1.367 . S
C2671 C2679 1.433 . S
C2672 H2668 0.929 . S
C2672 C2674 1.378 . S
C2672 C2676 1.350 . S
C2673 C2676 1.463 . S
C2673 C2678 1.350 1_545 S
C2673 N2681 1.427 1_545 S
C2674 H2665 0.930 . S
C2674 C2672 1.378 . S
C2674 C2675 1.367 . S
C2675 C2674 1.367 . S
C2675 C2677 1.433 . S
C2676 C2672 1.350 . S
C2676 C2673 1.463 . S
C2676 N2680 1.427 . S
C2677 H2667 0.929 . S
C2677 C2675 1.433 . S
C2677 N2680 1.384 . S
C2678 H2669 0.929 . S
C2678 C2670 1.378 . S
C2678 C2673 1.350 1_565 S
C2679 H2666 0.929 . S
C2679 C2671 1.433 . S
C2679 N2681 1.384 . S
N2680 C2676 1.427 . S
N2680 C2677 1.384 . S
N2681 C2673 1.427 1_565 S
N2681 C2679 1.384 . S
H2682 C2688 0.930 . S
H2683 C2692 0.930 . S
H2684 C2697 0.929 . S
H2685 C2695 0.929 . S
H2686 C2690 0.929 . S
H2687 C2696 0.929 . S
C2688 H2682 0.930 . S
C2688 C2689 1.359 1_655 S
C2688 C2696 1.378 . S
C2689 C2688 1.359 1_455 S
C2689 C2697 1.440 . S
C2690 H2686 0.929 . S
C2690 C2692 1.378 . S
C2690 C2694 1.350 . S
C2691 C2694 1.463 . S
C2691 C2696 1.350 . S
C2691 N2699 1.427 . S
C2692 H2683 0.930 . S
C2692 C2690 1.378 . S
C2692 C2693 1.367 . S
C2693 C2692 1.367 . S
C2693 C2695 1.433 . S
C2694 C2690 1.350 . S
C2694 C2691 1.463 . S
C2694 N2698 1.427 . S
C2695 H2685 0.929 . S
C2695 C2693 1.433 . S
C2695 N2698 1.384 . S
C2696 H2687 0.929 . S
C2696 C2688 1.378 . S
C2696 C2691 1.350 . S
C2697 H2684 0.929 . S
C2697 C2689 1.440 . S
C2697 N2699 1.384 1_455 S
N2698 C2694 1.427 . S
N2698 C2695 1.384 . S
N2699 C2691 1.427 . S
N2699 C2697 1.384 1_655 S
H2700 C2706 0.930 . S
H2701 C2710 0.930 . S
H2702 C2715 0.929 . S
H2703 C2713 0.929 . S
H2704 C2708 0.929 . S
H2705 C2714 0.929 . S
C2706 H2700 0.930 . S
C2706 C2707 1.367 . S
C2706 C2714 1.378 . S
C2707 C2706 1.367 . S
C2707 C2715 1.433 . S
C2708 H2704 0.929 . S
C2708 C2710 1.378 . S
C2708 C2712 1.350 . S
C2709 C2712 1.463 . S
C2709 C2714 1.350 . S
C2709 N2717 1.427 . S
C2710 H2701 0.930 . S
C2710 C2708 1.378 . S
C2710 C2711 1.367 . S
C2711 C2710 1.367 . S
C2711 C2713 1.433 . S
C2712 C2708 1.350 . S
C2712 C2709 1.463 . S
C2712 N2716 1.427 . S
C2713 H2703 0.929 . S
C2713 C2711 1.433 . S
C2713 N2716 1.384 . S
C2714 H2705 0.929 . S
C2714 C2706 1.378 . S
C2714 C2709 1.350 . S
C2715 H2702 0.929 . S
C2715 C2707 1.433 . S
C2715 N2717 1.384 . S
N2716 C2712 1.427 . S
N2716 C2713 1.384 . S
N2717 C2709 1.427 . S
N2717 C2715 1.384 . S
H2718 C2724 0.930 . S
H2719 C2728 0.930 1_565 S
H2720 C2733 0.929 . S
H2721 C2731 0.929 . S
H2722 C2726 0.929 . S
H2723 C2732 0.929 . S
C2724 H2718 0.930 . S
C2724 C2725 1.367 . S
C2724 C2732 1.378 . S
C2725 C2724 1.367 . S
C2725 C2733 1.433 . S
C2726 H2722 0.929 . S
C2726 C2728 1.378 . S
C2726 C2730 1.350 . S
C2727 C2730 1.463 . S
C2727 C2732 1.350 . S
C2727 N2735 1.427 . S
C2728 H2719 0.930 1_545 S
C2728 C2726 1.378 . S
C2728 C2729 1.367 1_545 S
C2729 C2728 1.367 1_565 S
C2729 C2731 1.433 1_565 S
C2730 C2726 1.350 . S
C2730 C2727 1.463 . S
C2730 N2734 1.427 . S
C2731 H2721 0.929 . S
C2731 C2729 1.433 1_545 S
C2731 N2734 1.384 . S
C2732 H2723 0.929 . S
C2732 C2724 1.378 . S
C2732 C2727 1.350 . S
C2733 H2720 0.929 . S
C2733 C2725 1.433 . S
C2733 N2735 1.384 . S
N2734 C2730 1.427 . S
N2734 C2731 1.384 . S
N2735 C2727 1.427 . S
N2735 C2733 1.384 . S
H2736 C2742 0.930 . S
H2737 C2746 0.930 . S
H2738 C2751 0.929 . S
H2739 C2749 0.929 . S
H2740 C2744 0.929 . S
H2741 C2750 0.929 . S
C2742 H2736 0.930 . S
C2742 C2743 1.367 . S
C2742 C2750 1.378 . S
C2743 C2742 1.367 . S
C2743 C2751 1.433 . S
C2744 H2740 0.929 . S
C2744 C2746 1.378 . S
C2744 C2748 1.350 . S
C2745 C2748 1.463 . S
C2745 C2750 1.350 . S
C2745 N2753 1.427 . S
C2746 H2737 0.930 . S
C2746 C2744 1.378 . S
C2746 C2747 1.367 . S
C2747 C2746 1.367 . S
C2747 C2749 1.433 . S
C2748 C2744 1.350 . S
C2748 C2745 1.463 . S
C2748 N2752 1.427 . S
C2749 H2739 0.929 . S
C2749 C2747 1.433 . S
C2749 N2752 1.384 . S
C2750 H2741 0.929 . S
C2750 C2742 1.378 . S
C2750 C2745 1.350 . S
C2751 H2738 0.929 . S
C2751 C2743 1.433 . S
C2751 N2753 1.384 . S
N2752 C2748 1.427 . S
N2752 C2749 1.384 . S
N2753 C2745 1.427 . S
N2753 C2751 1.384 . S
H2754 C2760 0.930 . S
H2755 C2764 0.930 . S
H2756 C2769 0.929 . S
H2757 C2767 0.929 . S
H2758 C2762 0.929 . S
H2759 C2768 0.929 . S
C2760 H2754 0.930 . S
C2760 C2761 1.367 . S
C2760 C2768 1.378 . S
C2761 C2760 1.367 . S
C2761 C2769 1.433 . S
C2762 H2758 0.929 . S
C2762 C2764 1.378 . S
C2762 C2766 1.350 . S
C2763 C2766 1.463 . S
C2763 C2768 1.350 . S
C2763 N2771 1.427 . S
C2764 H2755 0.930 . S
C2764 C2762 1.378 . S
C2764 C2765 1.367 . S
C2765 C2764 1.367 . S
C2765 C2767 1.433 . S
C2766 C2762 1.350 . S
C2766 C2763 1.463 . S
C2766 N2770 1.427 . S
C2767 H2757 0.929 . S
C2767 C2765 1.433 . S
C2767 N2770 1.384 . S
C2768 H2759 0.929 . S
C2768 C2760 1.378 . S
C2768 C2763 1.350 . S
C2769 H2756 0.929 . S
C2769 C2761 1.433 . S
C2769 N2771 1.384 . S
N2770 C2766 1.427 . S
N2770 C2767 1.384 . S
N2771 C2763 1.427 . S
N2771 C2769 1.384 . S
H2772 C2778 0.930 . S
H2773 C2782 0.930 . S
H2774 C2787 0.929 . S
H2775 C2785 0.929 . S
H2776 C2780 0.929 . S
H2777 C2786 0.929 . S
C2778 H2772 0.930 . S
C2778 C2779 1.367 . S
C2778 C2786 1.378 . S
C2779 C2778 1.367 . S
C2779 C2787 1.433 . S
C2780 H2776 0.929 . S
C2780 C2782 1.378 . S
C2780 C2784 1.350 . S
C2781 C2784 1.463 . S
C2781 C2786 1.350 . S
C2781 N2789 1.427 . S
C2782 H2773 0.930 . S
C2782 C2780 1.378 . S
C2782 C2783 1.367 . S
C2783 C2782 1.367 . S
C2783 C2785 1.433 . S
C2784 C2780 1.350 . S
C2784 C2781 1.463 . S
C2784 N2788 1.427 . S
C2785 H2775 0.929 . S
C2785 C2783 1.433 . S
C2785 N2788 1.384 . S
C2786 H2777 0.929 . S
C2786 C2778 1.378 . S
C2786 C2781 1.350 . S
C2787 H2774 0.929 . S
C2787 C2779 1.433 . S
C2787 N2789 1.384 . S
N2788 C2784 1.427 . S
N2788 C2785 1.384 . S
N2789 C2781 1.427 . S
N2789 C2787 1.384 . S
H2790 C2796 0.930 . S
H2791 C2800 0.930 . S
H2792 C2805 0.929 . S
H2793 C2803 0.929 . S
H2794 C2798 0.929 . S
H2795 C2804 0.929 . S
C2796 H2790 0.930 . S
C2796 C2797 1.367 . S
C2796 C2804 1.378 . S
C2797 C2796 1.367 . S
C2797 C2805 1.433 . S
C2798 H2794 0.929 . S
C2798 C2800 1.378 . S
C2798 C2802 1.350 . S
C2799 C2802 1.463 . S
C2799 C2804 1.350 . S
C2799 N2807 1.427 . S
C2800 H2791 0.930 . S
C2800 C2798 1.378 . S
C2800 C2801 1.367 . S
C2801 C2800 1.367 . S
C2801 C2803 1.433 . S
C2802 C2798 1.350 . S
C2802 C2799 1.463 . S
C2802 N2806 1.427 . S
C2803 H2793 0.929 . S
C2803 C2801 1.433 . S
C2803 N2806 1.384 . S
C2804 H2795 0.929 . S
C2804 C2796 1.378 . S
C2804 C2799 1.350 . S
C2805 H2792 0.929 . S
C2805 C2797 1.433 . S
C2805 N2807 1.384 . S
N2806 C2802 1.427 . S
N2806 C2803 1.384 . S
N2807 C2799 1.427 . S
N2807 C2805 1.384 . S
H2808 C2814 0.930 . S
H2809 C2818 0.930 . S
H2810 C2823 0.929 . S
H2811 C2821 0.929 . S
H2812 C2816 0.929 . S
H2813 C2822 0.929 . S
C2814 H2808 0.930 . S
C2814 C2815 1.367 . S
C2814 C2822 1.378 . S
C2815 C2814 1.367 . S
C2815 C2823 1.433 . S
C2816 H2812 0.929 . S
C2816 C2818 1.378 . S
C2816 C2820 1.350 . S
C2817 C2820 1.463 . S
C2817 C2822 1.350 . S
C2817 N2825 1.427 . S
C2818 H2809 0.930 . S
C2818 C2816 1.378 . S
C2818 C2819 1.367 . S
C2819 C2818 1.367 . S
C2819 C2821 1.433 . S
C2820 C2816 1.350 . S
C2820 C2817 1.463 . S
C2820 N2824 1.427 . S
C2821 H2811 0.929 . S
C2821 C2819 1.433 . S
C2821 N2824 1.384 . S
C2822 H2813 0.929 . S
C2822 C2814 1.378 . S
C2822 C2817 1.350 . S
C2823 H2810 0.929 . S
C2823 C2815 1.433 . S
C2823 N2825 1.384 . S
N2824 C2820 1.427 . S
N2824 C2821 1.384 . S
N2825 C2817 1.427 . S
N2825 C2823 1.384 . S
H2826 C2832 0.930 . S
H2827 C2836 0.930 . S
H2828 C2841 0.929 . S
H2829 C2839 0.929 . S
H2830 C2834 0.929 . S
H2831 C2840 0.929 . S
C2832 H2826 0.930 . S
C2832 C2833 1.367 . S
C2832 C2840 1.378 . S
C2833 C2832 1.367 . S
C2833 C2841 1.433 . S
C2834 H2830 0.929 . S
C2834 C2836 1.378 . S
C2834 C2838 1.350 . S
C2835 C2838 1.463 . S
C2835 C2840 1.350 . S
C2835 N2843 1.427 . S
C2836 H2827 0.930 . S
C2836 C2834 1.378 . S
C2836 C2837 1.367 . S
C2837 C2836 1.367 . S
C2837 C2839 1.433 . S
C2838 C2834 1.350 . S
C2838 C2835 1.463 . S
C2838 N2842 1.427 . S
C2839 H2829 0.929 . S
C2839 C2837 1.433 . S
C2839 N2842 1.384 . S
C2840 H2831 0.929 . S
C2840 C2832 1.378 . S
C2840 C2835 1.350 . S
C2841 H2828 0.929 . S
C2841 C2833 1.433 . S
C2841 N2843 1.384 . S
N2842 C2838 1.427 . S
N2842 C2839 1.384 . S
N2843 C2835 1.427 . S
N2843 C2841 1.384 . S
H2844 C2850 0.930 . S
H2845 C2854 0.930 . S
H2846 C2859 0.929 . S
H2847 C2857 0.929 . S
H2848 C2852 0.929 . S
H2849 C2858 0.929 . S
C2850 H2844 0.930 . S
C2850 C2851 1.367 . S
C2850 C2858 1.378 . S
C2851 C2850 1.367 . S
C2851 C2859 1.433 . S
C2852 H2848 0.929 . S
C2852 C2854 1.378 . S
C2852 C2856 1.350 . S
C2853 C2856 1.463 . S
C2853 C2858 1.350 . S
C2853 N2861 1.427 . S
C2854 H2845 0.930 . S
C2854 C2852 1.378 . S
C2854 C2855 1.367 . S
C2855 C2854 1.367 . S
C2855 C2857 1.433 . S
C2856 C2852 1.350 . S
C2856 C2853 1.463 . S
C2856 N2860 1.427 . S
C2857 H2847 0.929 . S
C2857 C2855 1.433 . S
C2857 N2860 1.384 . S
C2858 H2849 0.929 . S
C2858 C2850 1.378 . S
C2858 C2853 1.350 . S
C2859 H2846 0.929 . S
C2859 C2851 1.433 . S
C2859 N2861 1.384 . S
N2860 C2856 1.427 . S
N2860 C2857 1.384 . S
N2861 C2853 1.427 . S
N2861 C2859 1.384 . S
H2862 C2868 0.930 . S
H2863 C2872 0.930 . S
H2864 C2877 0.929 . S
H2865 C2875 0.929 . S
H2866 C2870 0.929 . S
H2867 C2876 0.929 . S
C2868 H2862 0.930 . S
C2868 C2869 1.367 . S
C2868 C2876 1.378 . S
C2869 C2868 1.367 . S
C2869 C2877 1.433 . S
C2870 H2866 0.929 . S
C2870 C2872 1.378 . S
C2870 C2874 1.350 . S
C2871 C2874 1.463 . S
C2871 C2876 1.350 . S
C2871 N2879 1.427 . S
C2872 H2863 0.930 . S
C2872 C2870 1.378 . S
C2872 C2873 1.367 . S
C2873 C2872 1.367 . S
C2873 C2875 1.433 . S
C2874 C2870 1.350 . S
C2874 C2871 1.463 . S
C2874 N2878 1.427 . S
C2875 H2865 0.929 . S
C2875 C2873 1.433 . S
C2875 N2878 1.384 . S
C2876 H2867 0.929 . S
C2876 C2868 1.378 . S
C2876 C2871 1.350 . S
C2877 H2864 0.929 . S
C2877 C2869 1.433 . S
C2877 N2879 1.384 . S
N2878 C2874 1.427 . S
N2878 C2875 1.384 . S
N2879 C2871 1.427 . S
N2879 C2877 1.384 . S
H2880 C2886 0.930 . S
H2881 C2890 0.930 . S
H2882 C2895 0.929 . S
H2883 C2893 0.929 . S
H2884 C2888 0.929 . S
H2885 C2894 0.929 . S
C2886 H2880 0.930 . S
C2886 C2887 1.367 . S
C2886 C2894 1.378 . S
C2887 C2886 1.367 . S
C2887 C2895 1.433 . S
C2888 H2884 0.929 . S
C2888 C2890 1.378 . S
C2888 C2892 1.350 . S
C2889 C2892 1.463 . S
C2889 C2894 1.350 . S
C2889 N2897 1.427 . S
C2890 H2881 0.930 . S
C2890 C2888 1.378 . S
C2890 C2891 1.367 . S
C2891 C2890 1.367 . S
C2891 C2893 1.433 . S
C2892 C2888 1.350 . S
C2892 C2889 1.463 . S
C2892 N2896 1.427 . S
C2893 H2883 0.929 . S
C2893 C2891 1.433 . S
C2893 N2896 1.384 . S
C2894 H2885 0.929 . S
C2894 C2886 1.378 . S
C2894 C2889 1.350 . S
C2895 H2882 0.929 . S
C2895 C2887 1.433 . S
C2895 N2897 1.384 . S
N2896 C2892 1.427 . S
N2896 C2893 1.384 . S
N2897 C2889 1.427 . S
N2897 C2895 1.384 . S
H2898 C2904 0.930 . S
H2899 C2908 0.930 . S
H2900 C2913 0.929 . S
H2901 C2911 0.929 . S
H2902 C2906 0.929 . S
H2903 C2912 0.929 . S
C2904 H2898 0.930 . S
C2904 C2905 1.367 . S
C2904 C2912 1.378 . S
C2905 C2904 1.367 . S
C2905 C2913 1.433 . S
C2906 H2902 0.929 . S
C2906 C2908 1.378 . S
C2906 C2910 1.350 . S
C2907 C2910 1.463 . S
C2907 C2912 1.350 . S
C2907 N2915 1.427 . S
C2908 H2899 0.930 . S
C2908 C2906 1.378 . S
C2908 C2909 1.367 . S
C2909 C2908 1.367 . S
C2909 C2911 1.433 . S
C2910 C2906 1.350 . S
C2910 C2907 1.463 . S
C2910 N2914 1.427 . S
C2911 H2901 0.929 . S
C2911 C2909 1.433 . S
C2911 N2914 1.384 . S
C2912 H2903 0.929 . S
C2912 C2904 1.378 . S
C2912 C2907 1.350 . S
C2913 H2900 0.929 . S
C2913 C2905 1.433 . S
C2913 N2915 1.384 . S
N2914 C2910 1.427 . S
N2914 C2911 1.384 . S
N2915 C2907 1.427 . S
N2915 C2913 1.384 . S
H2916 C2922 0.930 . S
H2917 C2926 0.930 . S
H2918 C2931 0.929 . S
H2919 C2929 0.929 . S
H2920 C2924 0.929 . S
H2921 C2930 0.929 . S
C2922 H2916 0.930 . S
C2922 C2923 1.367 . S
C2922 C2930 1.378 . S
C2923 C2922 1.367 . S
C2923 C2931 1.433 . S
C2924 H2920 0.929 . S
C2924 C2926 1.378 . S
C2924 C2928 1.350 . S
C2925 C2928 1.463 . S
C2925 C2930 1.350 . S
C2925 N2933 1.427 . S
C2926 H2917 0.930 . S
C2926 C2924 1.378 . S
C2926 C2927 1.367 . S
C2927 C2926 1.367 . S
C2927 C2929 1.433 . S
C2928 C2924 1.350 . S
C2928 C2925 1.463 . S
C2928 N2932 1.427 . S
C2929 H2919 0.929 . S
C2929 C2927 1.433 . S
C2929 N2932 1.384 . S
C2930 H2921 0.929 . S
C2930 C2922 1.378 . S
C2930 C2925 1.350 . S
C2931 H2918 0.929 . S
C2931 C2923 1.433 . S
C2931 N2933 1.384 . S
N2932 C2928 1.427 . S
N2932 C2929 1.384 . S
N2933 C2925 1.427 . S
N2933 C2931 1.384 . S
H2934 C2940 0.930 . S
H2935 C2944 0.930 . S
H2936 C2949 0.929 . S
H2937 C2947 0.929 . S
H2938 C2942 0.929 . S
H2939 C2948 0.929 . S
C2940 H2934 0.930 . S
C2940 C2941 1.367 . S
C2940 C2948 1.378 . S
C2941 C2940 1.367 . S
C2941 C2949 1.433 . S
C2942 H2938 0.929 . S
C2942 C2944 1.378 . S
C2942 C2946 1.350 . S
C2943 C2946 1.463 . S
C2943 C2948 1.350 . S
C2943 N2951 1.427 . S
C2944 H2935 0.930 . S
C2944 C2942 1.378 . S
C2944 C2945 1.367 . S
C2945 C2944 1.367 . S
C2945 C2947 1.433 . S
C2946 C2942 1.350 . S
C2946 C2943 1.463 . S
C2946 N2950 1.427 . S
C2947 H2937 0.929 . S
C2947 C2945 1.433 . S
C2947 N2950 1.384 . S
C2948 H2939 0.929 . S
C2948 C2940 1.378 . S
C2948 C2943 1.350 . S
C2949 H2936 0.929 . S
C2949 C2941 1.433 . S
C2949 N2951 1.384 . S
N2950 C2946 1.427 . S
N2950 C2947 1.384 . S
N2951 C2943 1.427 . S
N2951 C2949 1.384 . S
H2952 C2958 0.930 . S
H2953 C2962 0.930 . S
H2954 C2967 0.929 . S
H2955 C2965 0.929 . S
H2956 C2960 0.929 1_655 S
H2957 C2966 0.929 . S
C2958 H2952 0.930 . S
C2958 C2959 1.367 1_455 S
C2958 C2966 1.378 . S
C2959 C2958 1.367 1_655 S
C2959 C2967 1.433 . S
C2960 H2956 0.929 1_455 S
C2960 C2962 1.378 . S
C2960 C2964 1.350 . S
C2961 C2964 1.463 . S
C2961 C2966 1.350 . S
C2961 N2969 1.427 1_455 S
C2962 H2953 0.930 . S
C2962 C2960 1.378 . S
C2962 C2963 1.367 . S
C2963 C2962 1.367 . S
C2963 C2965 1.433 . S
C2964 C2960 1.350 . S
C2964 C2961 1.463 . S
C2964 N2968 1.427 . S
C2965 H2955 0.929 . S
C2965 C2963 1.433 . S
C2965 N2968 1.384 . S
C2966 H2957 0.929 . S
C2966 C2958 1.378 . S
C2966 C2961 1.350 . S
C2967 H2954 0.929 . S
C2967 C2959 1.433 . S
C2967 N2969 1.384 . S
N2968 C2964 1.427 . S
N2968 C2965 1.384 . S
N2969 C2961 1.427 1_655 S
N2969 C2967 1.384 . S
H2970 C2976 0.930 . S
H2971 C2980 0.930 . S
H2972 C2985 0.929 . S
H2973 C2983 0.929 . S
H2974 C2978 0.929 . S
H2975 C2984 0.929 . S
C2976 H2970 0.930 . S
C2976 C2977 1.367 . S
C2976 C2984 1.378 . S
C2977 C2976 1.367 . S
C2977 C2985 1.433 . S
C2978 H2974 0.929 . S
C2978 C2980 1.378 . S
C2978 C2982 1.350 . S
C2979 C2982 1.463 . S
C2979 C2984 1.350 . S
C2979 N2987 1.427 . S
C2980 H2971 0.930 . S
C2980 C2978 1.378 . S
C2980 C2981 1.367 . S
C2981 C2980 1.367 . S
C2981 C2983 1.433 . S
C2982 C2978 1.350 . S
C2982 C2979 1.463 . S
C2982 N2986 1.427 . S
C2983 H2973 0.929 . S
C2983 C2981 1.433 . S
C2983 N2986 1.384 . S
C2984 H2975 0.929 . S
C2984 C2976 1.378 . S
C2984 C2979 1.350 . S
C2985 H2972 0.929 . S
C2985 C2977 1.433 . S
C2985 N2987 1.384 . S
N2986 C2982 1.427 . S
N2986 C2983 1.384 . S
N2987 C2979 1.427 . S
N2987 C2985 1.384 . S
H2988 C2994 0.930 . S
H2989 C2998 0.930 . S
H2990 C3003 0.929 . S
H2991 C3001 0.929 . S
H2992 C2996 0.929 . S
H2993 C3002 0.929 . S
C2994 H2988 0.930 . S
C2994 C2995 1.367 . S
C2994 C3002 1.378 . S
C2995 C2994 1.367 . S
C2995 C3003 1.433 1_545 S
C2996 H2992 0.929 . S
C2996 C2998 1.378 . S
C2996 C3000 1.350 . S
C2997 C3000 1.463 . S
C2997 C3002 1.350 1_565 S
C2997 N3005 1.427 . S
C2998 H2989 0.930 . S
C2998 C2996 1.378 . S
C2998 C2999 1.367 . S
C2999 C2998 1.367 . S
C2999 C3001 1.433 1_565 S
C3000 C2996 1.350 . S
C3000 C2997 1.463 . S
C3000 N3004 1.427 1_565 S
C3001 H2991 0.929 . S
C3001 C2999 1.433 1_545 S
C3001 N3004 1.384 . S
C3002 H2993 0.929 . S
C3002 C2994 1.378 . S
C3002 C2997 1.350 1_545 S
C3003 H2990 0.929 . S
C3003 C2995 1.433 1_565 S
C3003 N3005 1.384 . S
N3004 C3000 1.427 1_545 S
N3004 C3001 1.384 . S
N3005 C2997 1.427 . S
N3005 C3003 1.384 . S
H3006 C3012 0.930 . S
H3007 C3016 0.918 . S
H3008 C3021 0.929 . S
H3009 C3019 0.929 . S
H3010 C3014 0.929 . S
H3011 C3020 0.929 . S
C3012 H3006 0.930 . S
C3012 C3013 1.367 . S
C3012 C3020 1.378 . S
C3013 C3012 1.367 . S
C3013 C3021 1.433 . S
C3014 H3010 0.929 . S
C3014 C3016 1.380 . S
C3014 C3018 1.350 . S
C3015 C3018 1.463 . S
C3015 C3020 1.350 . S
C3015 N3023 1.427 . S
C3016 H3007 0.918 . S
C3016 C3014 1.380 . S
C3016 C3017 1.379 1_545 S
C3017 C3016 1.379 1_565 S
C3017 C3019 1.433 . S
C3018 C3014 1.350 . S
C3018 C3015 1.463 . S
C3018 N3022 1.441 1_545 S
C3019 H3009 0.929 . S
C3019 C3017 1.433 . S
C3019 N3022 1.385 . S
C3020 H3011 0.929 . S
C3020 C3012 1.378 . S
C3020 C3015 1.350 . S
C3021 H3008 0.929 . S
C3021 C3013 1.433 . S
C3021 N3023 1.384 . S
N3022 C3018 1.441 1_565 S
N3022 C3019 1.385 . S
N3023 C3015 1.427 . S
N3023 C3021 1.384 . S
H3024 C3030 0.930 . S
H3025 C3034 0.930 . S
H3026 C3039 0.929 . S
H3027 C3037 0.929 . S
H3028 C3032 0.929 . S
H3029 C3038 0.929 . S
C3030 H3024 0.930 . S
C3030 C3031 1.367 1_655 S
C3030 C3038 1.378 . S
C3031 C3030 1.367 1_455 S
C3031 C3039 1.433 . S
C3032 H3028 0.929 . S
C3032 C3034 1.378 . S
C3032 C3036 1.350 1_455 S
C3033 C3036 1.463 . S
C3033 C3038 1.350 . S
C3033 N3041 1.427 1_655 S
C3034 H3025 0.930 . S
C3034 C3032 1.378 . S
C3034 C3035 1.367 1_455 S
C3035 C3034 1.367 1_655 S
C3035 C3037 1.433 . S
C3036 C3032 1.350 1_655 S
C3036 C3033 1.463 . S
C3036 N3040 1.427 . S
C3037 H3027 0.929 . S
C3037 C3035 1.433 . S
C3037 N3040 1.384 . S
C3038 H3029 0.929 . S
C3038 C3030 1.378 . S
C3038 C3033 1.350 . S
C3039 H3026 0.929 . S
C3039 C3031 1.433 . S
C3039 N3041 1.384 . S
N3040 C3036 1.427 . S
N3040 C3037 1.384 . S
N3041 C3033 1.427 1_455 S
N3041 C3039 1.384 . S
H3042 C3048 0.930 . S
H3043 C3052 0.930 . S
H3044 C3057 0.929 . S
H3045 C3055 0.929 . S
H3046 C3050 0.929 . S
H3047 C3056 0.929 . S
C3048 H3042 0.930 . S
C3048 C3049 1.367 . S
C3048 C3056 1.378 . S
C3049 C3048 1.367 . S
C3049 C3057 1.433 . S
C3050 H3046 0.929 . S
C3050 C3052 1.378 . S
C3050 C3054 1.350 . S
C3051 C3054 1.463 . S
C3051 C3056 1.350 . S
C3051 N3059 1.427 . S
C3052 H3043 0.930 . S
C3052 C3050 1.378 . S
C3052 C3053 1.367 . S
C3053 C3052 1.367 . S
C3053 C3055 1.433 . S
C3054 C3050 1.350 . S
C3054 C3051 1.463 . S
C3054 N3058 1.427 . S
C3055 H3045 0.929 . S
C3055 C3053 1.433 . S
C3055 N3058 1.384 . S
C3056 H3047 0.929 . S
C3056 C3048 1.378 . S
C3056 C3051 1.350 . S
C3057 H3044 0.929 . S
C3057 C3049 1.433 . S
C3057 N3059 1.384 . S
N3058 C3054 1.427 . S
N3058 C3055 1.384 . S
N3059 C3051 1.427 . S
N3059 C3057 1.384 . S
H3060 C3066 0.930 . S
H3061 C3070 0.930 . S
H3062 C3075 0.929 . S
H3063 C3073 0.929 . S
H3064 C3068 0.929 . S
H3065 C3074 0.929 . S
C3066 H3060 0.930 . S
C3066 C3067 1.367 . S
C3066 C3074 1.378 . S
C3067 C3066 1.367 . S
C3067 C3075 1.433 . S
C3068 H3064 0.929 . S
C3068 C3070 1.378 . S
C3068 C3072 1.350 . S
C3069 C3072 1.463 1_655 S
C3069 C3074 1.350 . S
C3069 N3077 1.427 . S
C3070 H3061 0.930 . S
C3070 C3068 1.378 . S
C3070 C3071 1.367 . S
C3071 C3070 1.367 . S
C3071 C3073 1.433 . S
C3072 C3068 1.350 . S
C3072 C3069 1.463 1_455 S
C3072 N3076 1.427 . S
C3073 H3063 0.929 . S
C3073 C3071 1.433 . S
C3073 N3076 1.384 . S
C3074 H3065 0.929 . S
C3074 C3066 1.378 . S
C3074 C3069 1.350 . S
C3075 H3062 0.929 . S
C3075 C3067 1.433 . S
C3075 N3077 1.384 . S
N3076 C3072 1.427 . S
N3076 C3073 1.384 . S
N3077 C3069 1.427 . S
N3077 C3075 1.384 . S
H3078 C3084 0.930 . S
H3079 C3088 0.930 . S
H3080 C3093 0.929 . S
H3081 C3091 0.929 . S
H3082 C3086 0.929 . S
H3083 C3092 0.929 . S
C3084 H3078 0.930 . S
C3084 C3085 1.367 . S
C3084 C3092 1.378 . S
C3085 C3084 1.367 . S
C3085 C3093 1.433 . S
C3086 H3082 0.929 . S
C3086 C3088 1.378 . S
C3086 C3090 1.350 . S
C3087 C3090 1.463 . S
C3087 C3092 1.350 . S
C3087 N3095 1.427 . S
C3088 H3079 0.930 . S
C3088 C3086 1.378 . S
C3088 C3089 1.367 . S
C3089 C3088 1.367 . S
C3089 C3091 1.433 . S
C3090 C3086 1.350 . S
C3090 C3087 1.463 . S
C3090 N3094 1.427 . S
C3091 H3081 0.929 . S
C3091 C3089 1.433 . S
C3091 N3094 1.384 . S
C3092 H3083 0.929 . S
C3092 C3084 1.378 . S
C3092 C3087 1.350 . S
C3093 H3080 0.929 . S
C3093 C3085 1.433 . S
C3093 N3095 1.384 . S
N3094 C3090 1.427 . S
N3094 C3091 1.384 . S
N3095 C3087 1.427 . S
N3095 C3093 1.384 . S
H3096 C3102 0.930 . S
H3097 C3106 0.930 . S
H3098 C3111 0.929 . S
H3099 C3109 0.929 . S
H3100 C3104 0.929 . S
H3101 C3110 0.929 . S
C3102 H3096 0.930 . S
C3102 C3103 1.367 . S
C3102 C3110 1.378 . S
C3103 C3102 1.367 . S
C3103 C3111 1.433 . S
C3104 H3100 0.929 . S
C3104 C3106 1.378 . S
C3104 C3108 1.350 . S
C3105 C3108 1.463 1_545 S
C3105 C3110 1.350 . S
C3105 N3113 1.427 1_545 S
C3106 H3097 0.930 . S
C3106 C3104 1.378 . S
C3106 C3107 1.367 . S
C3107 C3106 1.367 . S
C3107 C3109 1.433 . S
C3108 C3104 1.350 . S
C3108 C3105 1.463 1_565 S
C3108 N3112 1.427 1_565 S
C3109 H3099 0.929 . S
C3109 C3107 1.433 . S
C3109 N3112 1.384 1_565 S
C3110 H3101 0.929 . S
C3110 C3102 1.378 . S
C3110 C3105 1.350 . S
C3111 H3098 0.929 . S
C3111 C3103 1.433 . S
C3111 N3113 1.384 1_545 S
N3112 C3108 1.427 1_545 S
N3112 C3109 1.384 1_545 S
N3113 C3105 1.427 1_565 S
N3113 C3111 1.384 1_565 S
H3114 C3120 0.930 1_455 S
H3115 C3124 0.930 1_655 S
H3116 C3129 0.929 . S
H3117 C3127 0.929 . S
H3118 C3122 0.929 . S
H3119 C3128 0.929 . S
C3120 H3114 0.930 1_655 S
C3120 C3121 1.367 . S
C3120 C3128 1.378 1_655 S
C3121 C3120 1.367 . S
C3121 C3129 1.433 . S
C3122 H3118 0.929 . S
C3122 C3124 1.378 1_655 S
C3122 C3126 1.350 1_655 S
C3123 C3126 1.463 1_655 S
C3123 C3128 1.350 1_655 S
C3123 N3131 1.427 . S
C3124 H3115 0.930 1_455 S
C3124 C3122 1.378 1_455 S
C3124 C3125 1.367 . S
C3125 C3124 1.367 . S
C3125 C3127 1.433 . S
C3126 C3122 1.350 1_455 S
C3126 C3123 1.463 1_455 S
C3126 N3130 1.427 . S
C3127 H3117 0.929 . S
C3127 C3125 1.433 . S
C3127 N3130 1.384 . S
C3128 H3119 0.929 . S
C3128 C3120 1.378 1_455 S
C3128 C3123 1.350 1_455 S
C3129 H3116 0.929 . S
C3129 C3121 1.433 . S
C3129 N3131 1.384 . S
N3130 C3126 1.427 . S
N3130 C3127 1.384 . S
N3131 C3123 1.427 . S
N3131 C3129 1.384 . S
H3132 C3138 0.930 . S
H3133 C3142 0.930 . S
H3134 C3147 0.929 . S
H3135 C3145 0.929 . S
H3136 C3140 0.929 . S
H3137 C3146 0.929 . S
C3138 H3132 0.930 . S
C3138 C3139 1.367 . S
C3138 C3146 1.378 . S
C3139 C3138 1.367 . S
C3139 C3147 1.433 . S
C3140 H3136 0.929 . S
C3140 C3142 1.378 . S
C3140 C3144 1.350 . S
C3141 C3144 1.463 . S
C3141 C3146 1.350 . S
C3141 N3149 1.427 . S
C3142 H3133 0.930 . S
C3142 C3140 1.378 . S
C3142 C3143 1.367 . S
C3143 C3142 1.367 . S
C3143 C3145 1.433 . S
C3144 C3140 1.350 . S
C3144 C3141 1.463 . S
C3144 N3148 1.427 . S
C3145 H3135 0.929 . S
C3145 C3143 1.433 . S
C3145 N3148 1.384 . S
C3146 H3137 0.929 . S
C3146 C3138 1.378 . S
C3146 C3141 1.350 . S
C3147 H3134 0.929 . S
C3147 C3139 1.433 . S
C3147 N3149 1.384 . S
N3148 C3144 1.427 . S
N3148 C3145 1.384 . S
N3149 C3141 1.427 . S
N3149 C3147 1.384 . S
H3150 C3156 0.930 . S
H3151 C3160 0.930 . S
H3152 C3165 0.929 1_565 S
H3153 C3163 0.929 1_545 S
H3154 C3158 0.929 . S
H3155 C3164 0.929 . S
C3156 H3150 0.930 . S
C3156 C3157 1.367 . S
C3156 C3164 1.378 . S
C3157 C3156 1.367 . S
C3157 C3165 1.433 . S
C3158 H3154 0.929 . S
C3158 C3160 1.378 . S
C3158 C3162 1.350 . S
C3159 C3162 1.463 1_545 S
C3159 C3164 1.350 . S
C3159 N3167 1.427 1_545 S
C3160 H3151 0.930 . S
C3160 C3158 1.378 . S
C3160 C3161 1.367 . S
C3161 C3160 1.367 . S
C3161 C3163 1.433 . S
C3162 C3158 1.350 . S
C3162 C3159 1.463 1_565 S
C3162 N3166 1.427 1_565 S
C3163 H3153 0.929 1_565 S
C3163 C3161 1.433 . S
C3163 N3166 1.384 1_565 S
C3164 H3155 0.929 . S
C3164 C3156 1.378 . S
C3164 C3159 1.350 . S
C3165 H3152 0.929 1_545 S
C3165 C3157 1.433 . S
C3165 N3167 1.384 1_545 S
N3166 C3162 1.427 1_545 S
N3166 C3163 1.384 1_545 S
N3167 C3159 1.427 1_565 S
N3167 C3165 1.384 1_565 S
H3168 C3174 0.930 . S
H3169 C3178 0.930 . S
H3170 C3183 0.929 . S
H3171 C3181 0.929 . S
H3172 C3176 0.929 . S
H3173 C3182 0.929 . S
C3174 H3168 0.930 . S
C3174 C3175 1.367 . S
C3174 C3182 1.378 . S
C3175 C3174 1.367 . S
C3175 C3183 1.433 . S
C3176 H3172 0.929 . S
C3176 C3178 1.378 . S
C3176 C3180 1.350 . S
C3177 C3180 1.463 . S
C3177 C3182 1.350 . S
C3177 N3185 1.427 . S
C3178 H3169 0.930 . S
C3178 C3176 1.378 . S
C3178 C3179 1.367 . S
C3179 C3178 1.367 . S
C3179 C3181 1.433 . S
C3180 C3176 1.350 . S
C3180 C3177 1.463 . S
C3180 N3184 1.427 . S
C3181 H3171 0.929 . S
C3181 C3179 1.433 . S
C3181 N3184 1.384 . S
C3182 H3173 0.929 . S
C3182 C3174 1.378 . S
C3182 C3177 1.350 . S
C3183 H3170 0.929 . S
C3183 C3175 1.433 . S
C3183 N3185 1.384 . S
N3184 C3180 1.427 . S
N3184 C3181 1.384 . S
N3185 C3177 1.427 . S
N3185 C3183 1.384 . S
H3186 C3192 0.930 . S
H3187 C3196 0.930 . S
H3188 C3201 0.929 . S
H3189 C3199 0.929 . S
H3190 C3194 0.929 . S
H3191 C3200 0.929 . S
C3192 H3186 0.930 . S
C3192 C3193 1.367 . S
C3192 C3200 1.378 . S
C3193 C3192 1.367 . S
C3193 C3201 1.433 . S
C3194 H3190 0.929 . S
C3194 C3196 1.378 . S
C3194 C3198 1.350 . S
C3195 C3198 1.463 . S
C3195 C3200 1.350 . S
C3195 N3203 1.427 . S
C3196 H3187 0.930 . S
C3196 C3194 1.378 . S
C3196 C3197 1.367 . S
C3197 C3196 1.367 . S
C3197 C3199 1.433 . S
C3198 C3194 1.350 . S
C3198 C3195 1.463 . S
C3198 N3202 1.427 . S
C3199 H3189 0.929 . S
C3199 C3197 1.433 . S
C3199 N3202 1.384 . S
C3200 H3191 0.929 . S
C3200 C3192 1.378 . S
C3200 C3195 1.350 . S
C3201 H3188 0.929 . S
C3201 C3193 1.433 . S
C3201 N3203 1.384 . S
N3202 C3198 1.427 . S
N3202 C3199 1.384 . S
N3203 C3195 1.427 . S
N3203 C3201 1.384 . S
H3204 C3210 0.930 . S
H3205 C3214 0.930 . S
H3206 C3219 0.929 . S
H3207 C3217 0.929 . S
H3208 C3212 0.929 . S
H3209 C3218 0.929 . S
C3210 H3204 0.930 . S
C3210 C3211 1.367 . S
C3210 C3218 1.378 . S
C3211 C3210 1.367 . S
C3211 C3219 1.433 . S
C3212 H3208 0.929 . S
C3212 C3214 1.378 . S
C3212 C3216 1.350 . S
C3213 C3216 1.463 . S
C3213 C3218 1.350 . S
C3213 N3221 1.427 . S
C3214 H3205 0.930 . S
C3214 C3212 1.378 . S
C3214 C3215 1.367 . S
C3215 C3214 1.367 . S
C3215 C3217 1.433 . S
C3216 C3212 1.350 . S
C3216 C3213 1.463 . S
C3216 N3220 1.427 . S
C3217 H3207 0.929 . S
C3217 C3215 1.433 . S
C3217 N3220 1.384 . S
C3218 H3209 0.929 . S
C3218 C3210 1.378 . S
C3218 C3213 1.350 . S
C3219 H3206 0.929 . S
C3219 C3211 1.433 . S
C3219 N3221 1.384 . S
N3220 C3216 1.427 . S
N3220 C3217 1.384 . S
N3221 C3213 1.427 . S
N3221 C3219 1.384 . S
H3222 C3228 0.930 . S
H3223 C3232 0.930 . S
H3224 C3237 0.929 . S
H3225 C3235 0.929 . S
H3226 C3230 0.929 . S
H3227 C3236 0.929 . S
C3228 H3222 0.930 . S
C3228 C3229 1.367 . S
C3228 C3236 1.378 . S
C3229 C3228 1.367 . S
C3229 C3237 1.433 . S
C3230 H3226 0.929 . S
C3230 C3232 1.378 . S
C3230 C3234 1.350 . S
C3231 C3234 1.463 . S
C3231 C3236 1.350 . S
C3231 N3239 1.427 . S
C3232 H3223 0.930 . S
C3232 C3230 1.378 . S
C3232 C3233 1.367 . S
C3233 C3232 1.367 . S
C3233 C3235 1.433 . S
C3234 C3230 1.350 . S
C3234 C3231 1.463 . S
C3234 N3238 1.427 . S
C3235 H3225 0.929 . S
C3235 C3233 1.433 . S
C3235 N3238 1.384 . S
C3236 H3227 0.929 . S
C3236 C3228 1.378 . S
C3236 C3231 1.350 . S
C3237 H3224 0.929 . S
C3237 C3229 1.433 . S
C3237 N3239 1.384 . S
N3238 C3234 1.427 . S
N3238 C3235 1.384 . S
N3239 C3231 1.427 . S
N3239 C3237 1.384 . S
H3240 C3246 0.930 . S
H3241 C3250 0.930 . S
H3242 C3255 0.929 . S
H3243 C3253 0.929 . S
H3244 C3248 0.929 . S
H3245 C3254 0.929 . S
C3246 H3240 0.930 . S
C3246 C3247 1.367 . S
C3246 C3254 1.378 . S
C3247 C3246 1.367 . S
C3247 C3255 1.433 . S
C3248 H3244 0.929 . S
C3248 C3250 1.378 . S
C3248 C3252 1.350 . S
C3249 C3252 1.463 . S
C3249 C3254 1.350 . S
C3249 N3257 1.427 . S
C3250 H3241 0.930 . S
C3250 C3248 1.378 . S
C3250 C3251 1.367 . S
C3251 C3250 1.367 . S
C3251 C3253 1.433 . S
C3252 C3248 1.350 . S
C3252 C3249 1.463 . S
C3252 N3256 1.427 . S
C3253 H3243 0.929 . S
C3253 C3251 1.433 . S
C3253 N3256 1.384 . S
C3254 H3245 0.929 . S
C3254 C3246 1.378 . S
C3254 C3249 1.350 . S
C3255 H3242 0.929 . S
C3255 C3247 1.433 . S
C3255 N3257 1.384 . S
N3256 C3252 1.427 . S
N3256 C3253 1.384 . S
N3257 C3249 1.427 . S
N3257 C3255 1.384 . S
H3258 C3264 0.930 . S
H3259 C3268 0.930 . S
H3260 C3273 0.929 . S
H3261 C3271 0.929 . S
H3262 C3266 0.929 . S
H3263 C3272 0.929 . S
C3264 H3258 0.930 . S
C3264 C3265 1.367 . S
C3264 C3272 1.378 . S
C3265 C3264 1.367 . S
C3265 C3273 1.433 . S
C3266 H3262 0.929 . S
C3266 C3268 1.378 . S
C3266 C3270 1.350 . S
C3267 C3270 1.463 . S
C3267 C3272 1.350 . S
C3267 N3275 1.427 . S
C3268 H3259 0.930 . S
C3268 C3266 1.378 . S
C3268 C3269 1.367 . S
C3269 C3268 1.367 . S
C3269 C3271 1.433 . S
C3270 C3266 1.350 . S
C3270 C3267 1.463 . S
C3270 N3274 1.427 . S
C3271 H3261 0.929 . S
C3271 C3269 1.433 . S
C3271 N3274 1.384 . S
C3272 H3263 0.929 . S
C3272 C3264 1.378 . S
C3272 C3267 1.350 . S
C3273 H3260 0.929 . S
C3273 C3265 1.433 . S
C3273 N3275 1.384 . S
N3274 C3270 1.427 . S
N3274 C3271 1.384 . S
N3275 C3267 1.427 . S
N3275 C3273 1.384 . S
H3276 C3282 0.930 . S
H3277 C3286 0.930 . S
H3278 C3291 0.929 . S
H3279 C3289 0.929 . S
H3280 C3284 0.929 . S
H3281 C3290 0.929 . S
C3282 H3276 0.930 . S
C3282 C3283 1.367 . S
C3282 C3290 1.378 . S
C3283 C3282 1.367 . S
C3283 C3291 1.433 . S
C3284 H3280 0.929 . S
C3284 C3286 1.378 . S
C3284 C3288 1.350 . S
C3285 C3288 1.463 . S
C3285 C3290 1.350 . S
C3285 N3293 1.427 . S
C3286 H3277 0.930 . S
C3286 C3284 1.378 . S
C3286 C3287 1.367 . S
C3287 C3286 1.367 . S
C3287 C3289 1.433 . S
C3288 C3284 1.350 . S
C3288 C3285 1.463 . S
C3288 N3292 1.427 . S
C3289 H3279 0.929 . S
C3289 C3287 1.433 . S
C3289 N3292 1.384 . S
C3290 H3281 0.929 . S
C3290 C3282 1.378 . S
C3290 C3285 1.350 . S
C3291 H3278 0.929 . S
C3291 C3283 1.433 . S
C3291 N3293 1.384 . S
N3292 C3288 1.427 . S
N3292 C3289 1.384 . S
N3293 C3285 1.427 . S
N3293 C3291 1.384 . S
H3294 C3300 0.930 . S
H3295 C3304 0.930 . S
H3296 C3309 0.929 . S
H3297 C3307 0.929 . S
H3298 C3302 0.929 . S
H3299 C3308 0.929 . S
C3300 H3294 0.930 . S
C3300 C3301 1.367 . S
C3300 C3308 1.378 . S
C3301 C3300 1.367 . S
C3301 C3309 1.433 . S
C3302 H3298 0.929 . S
C3302 C3304 1.378 . S
C3302 C3306 1.350 . S
C3303 C3306 1.463 . S
C3303 C3308 1.350 . S
C3303 N3311 1.427 . S
C3304 H3295 0.930 . S
C3304 C3302 1.378 . S
C3304 C3305 1.367 . S
C3305 C3304 1.367 . S
C3305 C3307 1.433 . S
C3306 C3302 1.350 . S
C3306 C3303 1.463 . S
C3306 N3310 1.427 . S
C3307 H3297 0.929 . S
C3307 C3305 1.433 . S
C3307 N3310 1.384 . S
C3308 H3299 0.929 . S
C3308 C3300 1.378 . S
C3308 C3303 1.350 . S
C3309 H3296 0.929 . S
C3309 C3301 1.433 . S
C3309 N3311 1.384 . S
N3310 C3306 1.427 . S
N3310 C3307 1.384 . S
N3311 C3303 1.427 . S
N3311 C3309 1.384 . S
H3312 C3318 0.930 . S
H3313 C3322 0.930 . S
H3314 C3327 0.929 . S
H3315 C3325 0.929 . S
H3316 C3320 0.929 . S
H3317 C3326 0.929 . S
C3318 H3312 0.930 . S
C3318 C3319 1.367 . S
C3318 C3326 1.378 . S
C3319 C3318 1.367 . S
C3319 C3327 1.433 . S
C3320 H3316 0.929 . S
C3320 C3322 1.378 . S
C3320 C3324 1.350 . S
C3321 C3324 1.463 . S
C3321 C3326 1.350 . S
C3321 N3329 1.427 . S
C3322 H3313 0.930 . S
C3322 C3320 1.378 . S
C3322 C3323 1.367 . S
C3323 C3322 1.367 . S
C3323 C3325 1.433 . S
C3324 C3320 1.350 . S
C3324 C3321 1.463 . S
C3324 N3328 1.427 . S
C3325 H3315 0.929 . S
C3325 C3323 1.433 . S
C3325 N3328 1.384 . S
C3326 H3317 0.929 . S
C3326 C3318 1.378 . S
C3326 C3321 1.350 . S
C3327 H3314 0.929 . S
C3327 C3319 1.433 . S
C3327 N3329 1.384 . S
N3328 C3324 1.427 . S
N3328 C3325 1.384 . S
N3329 C3321 1.427 . S
N3329 C3327 1.384 . S
H3330 C3336 0.930 . S
H3331 C3340 0.930 . S
H3332 C3345 0.929 . S
H3333 C3343 0.929 . S
H3334 C3338 0.929 . S
H3335 C3344 0.929 . S
C3336 H3330 0.930 . S
C3336 C3337 1.367 . S
C3336 C3344 1.378 . S
C3337 C3336 1.367 . S
C3337 C3345 1.433 . S
C3338 H3334 0.929 . S
C3338 C3340 1.378 . S
C3338 C3342 1.350 . S
C3339 C3342 1.463 . S
C3339 C3344 1.350 . S
C3339 N3347 1.427 . S
C3340 H3331 0.930 . S
C3340 C3338 1.378 . S
C3340 C3341 1.367 . S
C3341 C3340 1.367 . S
C3341 C3343 1.433 . S
C3342 C3338 1.350 . S
C3342 C3339 1.463 . S
C3342 N3346 1.427 . S
C3343 H3333 0.929 . S
C3343 C3341 1.433 . S
C3343 N3346 1.384 . S
C3344 H3335 0.929 . S
C3344 C3336 1.378 . S
C3344 C3339 1.350 . S
C3345 H3332 0.929 . S
C3345 C3337 1.433 . S
C3345 N3347 1.384 . S
N3346 C3342 1.427 . S
N3346 C3343 1.384 . S
N3347 C3339 1.427 . S
N3347 C3345 1.384 . S
H3348 C3354 0.930 . S
H3349 C3358 0.930 . S
H3350 C3363 0.929 . S
H3351 C3361 0.929 . S
H3352 C3356 0.929 . S
H3353 C3362 0.929 . S
C3354 H3348 0.930 . S
C3354 C3355 1.367 . S
C3354 C3362 1.378 . S
C3355 C3354 1.367 . S
C3355 C3363 1.433 . S
C3356 H3352 0.929 . S
C3356 C3358 1.378 . S
C3356 C3360 1.350 . S
C3357 C3360 1.463 . S
C3357 C3362 1.350 . S
C3357 N3365 1.427 . S
C3358 H3349 0.930 . S
C3358 C3356 1.378 . S
C3358 C3359 1.367 . S
C3359 C3358 1.367 . S
C3359 C3361 1.433 . S
C3360 C3356 1.350 . S
C3360 C3357 1.463 . S
C3360 N3364 1.427 . S
C3361 H3351 0.929 . S
C3361 C3359 1.433 . S
C3361 N3364 1.384 . S
C3362 H3353 0.929 . S
C3362 C3354 1.378 . S
C3362 C3357 1.350 . S
C3363 H3350 0.929 . S
C3363 C3355 1.433 . S
C3363 N3365 1.384 . S
N3364 C3360 1.427 . S
N3364 C3361 1.384 . S
N3365 C3357 1.427 . S
N3365 C3363 1.384 . S
H3366 C3372 0.930 . S
H3367 C3376 0.930 . S
H3368 C3381 0.929 . S
H3369 C3379 0.929 . S
H3370 C3374 0.929 . S
H3371 C3380 0.929 . S
C3372 H3366 0.930 . S
C3372 C3373 1.367 . S
C3372 C3380 1.378 . S
C3373 C3372 1.367 . S
C3373 C3381 1.433 . S
C3374 H3370 0.929 . S
C3374 C3376 1.378 . S
C3374 C3378 1.350 . S
C3375 C3378 1.463 . S
C3375 C3380 1.350 . S
C3375 N3383 1.427 . S
C3376 H3367 0.930 . S
C3376 C3374 1.378 . S
C3376 C3377 1.367 . S
C3377 C3376 1.367 . S
C3377 C3379 1.433 . S
C3378 C3374 1.350 . S
C3378 C3375 1.463 . S
C3378 N3382 1.427 . S
C3379 H3369 0.929 . S
C3379 C3377 1.433 . S
C3379 N3382 1.384 . S
C3380 H3371 0.929 . S
C3380 C3372 1.378 . S
C3380 C3375 1.350 . S
C3381 H3368 0.929 . S
C3381 C3373 1.433 . S
C3381 N3383 1.384 . S
N3382 C3378 1.427 . S
N3382 C3379 1.384 . S
N3383 C3375 1.427 . S
N3383 C3381 1.384 . S
C1447 C9 1.707 . S
C1451 C99 1.770 . S
C1465 C19 1.773 . S
C1469 C49 1.716 1_545 S
C1483 C89 1.702 1_655 S
C1487 C59 1.779 . S
C1501 C129 1.781 . S
C1505 C179 1.854 . S
C1519 C219 1.852 . S
C1523 C169 1.777 1_565 S
C1537 C209 1.781 1_455 S
C1541 C139 1.855 . S
C1555 C258 1.716 . S
C1559 C330 1.774 . S
C1573 C298 1.715 1_565 S
C1577 C250 1.771 . S
C1591 C338 1.712 1_455 S
C1595 C290 1.770 . S
C1609 C378 1.790 . S
C1613 C410 1.846 . S
C1627 C450 1.846 . S
C1631 C418 1.785 1_545 S
C1645 C370 1.852 . S
C1649 C458 1.776 1_655 S
C1663 C579 1.836 . S
C1667 C489 1.767 . S
C1681 C529 1.776 . S
C1685 C499 1.834 . S
C1699 C539 1.841 . S
C1703 C569 1.764 . S
C1717 C609 1.806 . S
C1721 C659 1.872 . S
C1735 C699 1.867 . S
C1739 C649 1.810 . S
C1753 C619 1.865 . S
C1757 C689 1.809 . S
C1771 C738 1.749 . S
C1775 C810 1.806 . S
C1789 C778 1.749 . S
C1793 C730 1.805 . S
C1807 C770 1.808 . S
C1811 C818 1.734 . S
C1825 C890 1.703 . S
C1829 C858 1.617 1_554 S
C1843 C898 1.618 1_554 S
C1847 C930 1.698 . S
C1861 C850 1.705 . S
C1865 C938 1.625 1_554 S
C1879 C969 1.738 . S
C1883 C1059 1.813 . S
C1897 C1009 1.733 . S
C1901 C979 1.810 . S
C1915 C1049 1.741 . S
C1919 C1019 1.812 . S
C1933 C1089 1.624 1_556 S
C1937 C1139 1.706 . S
C1951 C1129 1.615 1_556 S
C1955 C1179 1.698 . S
C1969 C1169 1.615 1_556 S
C1973 C1099 1.698 . S
C1987 C1218 1.776 . S
C1991 C1290 1.841 . S
C2005 C1258 1.779 . S
C2009 C1210 1.837 . S
C2023 C1250 1.835 . S
C2027 C1298 1.778 . S
C2041 C1338 1.795 . S
C2045 C1370 1.872 . S
C2059 C1378 1.809 . S
C2063 C1410 1.865 . S
C2077 C1330 1.871 . S
C2081 C1418 1.807 . S
C2095 C10 1.776 . S
C2099 C809 1.776 . S
C2113 C729 1.779 . S
C2117 C50 1.770 . S
C2131 C90 1.777 . S
C2135 C769 1.776 . S
C2149 C130 1.678 . S
C2153 C1369 1.668 . S
C2167 C1409 1.672 . S
C2171 C170 1.677 . S
C2185 C210 1.667 . S
C2189 C1329 1.671 . S
C2203 C1058 1.768 . S
C2207 C259 1.769 . S
C2221 C299 1.777 . S
C2225 C978 1.773 . S
C2239 C339 1.769 . S
C2243 C1018 1.779 . S
C2257 C658 1.672 . S
C2261 C379 1.675 . S
C2275 C698 1.673 . S
C2279 C419 1.671 . S
C2293 C618 1.671 . S
C2297 C459 1.667 . S
C2311 C490 1.722 . S
C2315 C1289 1.714 . S
C2329 C530 1.716 . S
C2333 C1209 1.723 . S
C2347 C1249 1.718 . S
C2351 C570 1.717 . S
C2365 C409 1.710 . S
C2369 C610 1.721 . S
C2383 C449 1.703 . S
C2387 C650 1.706 . S
C2401 C369 1.714 . S
C2405 C690 1.710 . S
C2419 C98 1.766 . S
C2423 C739 1.759 . S
C2437 C779 1.768 . S
C2441 C18 1.764 . S
C2455 C819 1.766 . S
C2459 C58 1.764 . S
C2473 C1138 1.718 . S
C2477 C859 1.729 . S
C2491 C1178 1.718 . S
C2495 C899 1.731 . S
C2509 C939 1.739 . S
C2513 C1098 1.717 . S
C2527 C329 1.763 . S
C2531 C970 1.766 . S
C2545 C249 1.772 . S
C2549 C1010 1.760 . S
C2563 C289 1.768 . S
C2567 C1050 1.760 . S
C2581 C1090 1.733 . S
C2585 C889 1.717 . S
C2599 C929 1.729 1_556 S
C2603 C1130 1.732 . S
C2617 C1170 1.743 . S
C2621 C849 1.726 1_556 S
C2635 C1219 1.721 . S
C2639 C578 1.714 . S
C2653 C1259 1.721 . S
C2657 C498 1.726 . S
C2671 C1299 1.728 . S
C2675 C538 1.723 . S
C2689 C1339 1.716 . S
C2693 C178 1.702 . S
C2707 C218 1.711 . S
C2711 C1379 1.716 . S
C2725 C138 1.714 . S
C2729 C1419 1.714 . S
C2743 C1166 2.286 . S
C2747 C6 2.271 . S
C2761 C1086 2.284 . S
C2765 C46 2.266 . S
C2779 C86 2.282 . S
C2783 C1126 2.269 . S
C2797 C526 2.518 . S
C2801 C126 2.513 . S
C2815 C166 2.517 . S
C2819 C566 2.522 . S
C2833 C206 2.520 . S
C2837 C486 2.519 . S
C2851 C255 2.284 . S
C2855 C935 2.262 . S
C2869 C295 2.288 . S
C2873 C855 2.265 . S
C2887 C335 2.281 . S
C2891 C895 2.266 . S
C2905 C1255 2.520 . S
C2909 C375 2.520 . S
C2923 C1295 2.521 . S
C2927 C415 2.519 . S
C2941 C1215 2.517 . S
C2945 C455 2.513 . S
C2959 C606 2.574 . S
C2963 C1006 2.572 . S
C2977 C646 2.568 . S
C2981 C1046 2.571 . S
C2995 C686 2.567 . S
C2999 C966 2.573 . S
C3013 C735 2.576 . S
C3017 C1415 2.569 . S
C3031 C1335 2.574 . S
C3035 C775 2.575 . S
C3049 C815 2.570 . S
C3053 C1375 2.569 . S
C3067 C175 1.160 . S
C3071 C15 1.155 . S
C3085 C215 1.154 . S
C3089 C55 1.160 . S
C3103 C135 1.155 . S
C3107 C95 1.160 . S
C3121 C246 1.158 . S
C3125 C406 1.157 . S
C3139 C446 1.160 . S
C3143 C286 1.155 . S
C3157 C326 1.159 . S
C3161 C366 1.156 . S
C3175 C655 1.243 . S
C3179 C495 1.239 . S
C3193 C695 1.242 . S
C3197 C535 1.243 . S
C3211 C615 1.241 . S
C3215 C575 1.241 . S
C3229 C886 1.497 . S
C3233 C726 1.526 . S
C3247 C766 1.509 . S
C3251 C926 1.518 . S
C3265 C806 1.509 . S
C3269 C846 1.518 . S
C3283 C975 1.509 . S
C3287 C1135 1.518 . S
C3301 C1175 1.497 . S
C3305 C1015 1.526 . S
C3319 C1055 1.510 . S
C3323 C1095 1.511 . S
C3337 C1206 1.244 . S
C3341 C1366 1.239 . S
C3355 C1406 1.244 . S
C3359 C1246 1.240 . S
C3373 C1286 1.241 . S
C3377 C1326 1.243 . S
