# Generated by pormake.
# Topology yfl, (5)-cn, num edge types: 1
# Building blocks:
#     Node 0, Type 0, BuildingBlock: BEQFEK_clean_sbu_0, # of connection points: 5
#     Node 1, Type 0, BuildingBlock: BEQFEK_clean_sbu_0, # of connection points: 5
#     Node 2, Type 0, BuildingBlock: BEQFEK_clean_sbu_0, # of connection points: 5
#     Node 3, Type 0, BuildingBlock: BEQFEK_clean_sbu_0, # of connection points: 5
#     Node 4, Type 0, BuildingBlock: BEQFEK_clean_sbu_0, # of connection points: 5
#     Node 5, Type 0, BuildingBlock: BEQFEK_clean_sbu_0, # of connection points: 5
#     Node 6, Type 0, BuildingBlock: BEQFEK_clean_sbu_0, # of connection points: 5
#     Node 7, Type 0, BuildingBlock: BEQFEK_clean_sbu_0, # of connection points: 5
#     Node 8, Type 0, BuildingBlock: BEQFEK_clean_sbu_0, # of connection points: 5
#     Node 9, Type 0, BuildingBlock: BEQFEK_clean_sbu_0, # of connection points: 5
#     Node 10, Type 0, BuildingBlock: BEQFEK_clean_sbu_0, # of connection points: 5
#     Node 11, Type 0, BuildingBlock: BEQFEK_clean_sbu_0, # of connection points: 5
#     Node 12, Type 0, BuildingBlock: BEQFEK_clean_sbu_0, # of connection points: 5
#     Node 13, Type 0, BuildingBlock: BEQFEK_clean_sbu_0, # of connection points: 5
#     Node 14, Type 0, BuildingBlock: BEQFEK_clean_sbu_0, # of connection points: 5
#     Node 15, Type 0, BuildingBlock: BEQFEK_clean_sbu_0, # of connection points: 5
#     Edge 16, Type (0, 0), BuildingBlock: MIFKUJ_clean_linker_0, # of connection points: 2
#     Edge 17, Type (0, 0), BuildingBlock: MIFKUJ_clean_linker_0, # of connection points: 2
#     Edge 18, Type (0, 0), BuildingBlock: MIFKUJ_clean_linker_0, # of connection points: 2
#     Edge 19, Type (0, 0), BuildingBlock: MIFKUJ_clean_linker_0, # of connection points: 2
#     Edge 20, Type (0, 0), BuildingBlock: MIFKUJ_clean_linker_0, # of connection points: 2
#     Edge 21, Type (0, 0), BuildingBlock: MIFKUJ_clean_linker_0, # of connection points: 2
#     Edge 22, Type (0, 0), BuildingBlock: MIFKUJ_clean_linker_0, # of connection points: 2
#     Edge 23, Type (0, 0), BuildingBlock: MIFKUJ_clean_linker_0, # of connection points: 2
#     Edge 24, Type (0, 0), BuildingBlock: MIFKUJ_clean_linker_0, # of connection points: 2
#     Edge 25, Type (0, 0), BuildingBlock: MIFKUJ_clean_linker_0, # of connection points: 2
#     Edge 26, Type (0, 0), BuildingBlock: MIFKUJ_clean_linker_0, # of connection points: 2
#     Edge 27, Type (0, 0), BuildingBlock: MIFKUJ_clean_linker_0, # of connection points: 2
#     Edge 28, Type (0, 0), BuildingBlock: MIFKUJ_clean_linker_0, # of connection points: 2
#     Edge 29, Type (0, 0), BuildingBlock: MIFKUJ_clean_linker_0, # of connection points: 2
#     Edge 30, Type (0, 0), BuildingBlock: MIFKUJ_clean_linker_0, # of connection points: 2
#     Edge 31, Type (0, 0), BuildingBlock: MIFKUJ_clean_linker_0, # of connection points: 2
#     Edge 32, Type (0, 0), BuildingBlock: MIFKUJ_clean_linker_0, # of connection points: 2
#     Edge 33, Type (0, 0), BuildingBlock: MIFKUJ_clean_linker_0, # of connection points: 2
#     Edge 34, Type (0, 0), BuildingBlock: MIFKUJ_clean_linker_0, # of connection points: 2
#     Edge 35, Type (0, 0), BuildingBlock: MIFKUJ_clean_linker_0, # of connection points: 2
#     Edge 36, Type (0, 0), BuildingBlock: MIFKUJ_clean_linker_0, # of connection points: 2
#     Edge 37, Type (0, 0), BuildingBlock: MIFKUJ_clean_linker_0, # of connection points: 2
#     Edge 38, Type (0, 0), BuildingBlock: MIFKUJ_clean_linker_0, # of connection points: 2
#     Edge 39, Type (0, 0), BuildingBlock: MIFKUJ_clean_linker_0, # of connection points: 2
#     Edge 40, Type (0, 0), BuildingBlock: MIFKUJ_clean_linker_0, # of connection points: 2
#     Edge 41, Type (0, 0), BuildingBlock: MIFKUJ_clean_linker_0, # of connection points: 2
#     Edge 42, Type (0, 0), BuildingBlock: MIFKUJ_clean_linker_0, # of connection points: 2
#     Edge 43, Type (0, 0), BuildingBlock: MIFKUJ_clean_linker_0, # of connection points: 2
#     Edge 44, Type (0, 0), BuildingBlock: MIFKUJ_clean_linker_0, # of connection points: 2
#     Edge 45, Type (0, 0), BuildingBlock: MIFKUJ_clean_linker_0, # of connection points: 2
#     Edge 46, Type (0, 0), BuildingBlock: MIFKUJ_clean_linker_0, # of connection points: 2
#     Edge 47, Type (0, 0), BuildingBlock: MIFKUJ_clean_linker_0, # of connection points: 2
#     Edge 48, Type (0, 0), BuildingBlock: MIFKUJ_clean_linker_0, # of connection points: 2
#     Edge 49, Type (0, 0), BuildingBlock: MIFKUJ_clean_linker_0, # of connection points: 2
#     Edge 50, Type (0, 0), BuildingBlock: MIFKUJ_clean_linker_0, # of connection points: 2
#     Edge 51, Type (0, 0), BuildingBlock: MIFKUJ_clean_linker_0, # of connection points: 2
#     Edge 52, Type (0, 0), BuildingBlock: MIFKUJ_clean_linker_0, # of connection points: 2
#     Edge 53, Type (0, 0), BuildingBlock: MIFKUJ_clean_linker_0, # of connection points: 2
#     Edge 54, Type (0, 0), BuildingBlock: MIFKUJ_clean_linker_0, # of connection points: 2
#     Edge 55, Type (0, 0), BuildingBlock: MIFKUJ_clean_linker_0, # of connection points: 2
# Relax obj value: 0.269
# Max RMSD: 0.170
# Mean RMSD: 0.170
data_MOF--net-yfl--node1-BEQFEK_clean_sbu_0--edge1-MIFKUJ_clean_linker_0
_symmetry_space_group_name_H-M    P1
_symmetry_Int_Tables_number       1
_symmetry_cell_setting            triclinic
loop_
_symmetry_equiv_pos_as_xyz
'x, y, z'
_cell_length_a     38.168318
_cell_length_b     38.160128
_cell_length_c     139.66838
_cell_angle_alpha  89.995679
_cell_angle_beta   90.023989
_cell_angle_gamma 89.988804
loop_
_atom_site_label
_atom_site_type_symbol
_atom_site_fract_x
_atom_site_fract_y
_atom_site_fract_z
_atom_type_partial_charge
Co0 Co 0.02954 0.26614 0.29534 0.0
Co1 Co 0.09973 0.26293 0.30683 0.0
C2 C 0.04528 0.3193 0.31008 0.0
O3 O 0.0241 0.30608 0.30405 0.0
O4 O 0.07526 0.30571 0.3116 0.0
C5 C 0.95536 0.26765 0.29019 0.0
O6 O 0.94884 0.27551 0.29917 0.0
C7 C 0.14029 0.2552 0.32437 0.0
C8 C 0.19462 0.25279 0.31893 0.0
C9 C 0.17492 0.25303 0.32725 0.0
N10 N 0.13948 0.25596 0.31476 0.0
N11 N 0.172 0.25426 0.31154 0.0
C12 C 0.10871 0.25995 0.33059 0.0
H13 H 0.08479 0.26366 0.32619 0.0
H14 H 0.10505 0.23656 0.33518 0.0
H15 H 0.11261 0.28287 0.33536 0.0
C16 C 0.02286 0.19447 0.30306 0.0
N17 N 0.04005 0.22504 0.30225 0.0
N18 N 0.06982 0.22314 0.307 0.0
C19 C 0.07273 0.1909 0.31087 0.0
C20 C 0.04303 0.17184 0.30853 0.0
C21 C 0.98738 0.18767 0.29888 0.0
H22 H 0.96893 0.20796 0.30147 0.0
H23 H 0.97694 0.16162 0.30093 0.0
H24 H 0.9888 0.18968 0.29097 0.0
O25 O 0.06678 0.2764 0.2859 0.0
O26 O 0.11706 0.27143 0.29374 0.0
H27 H 0.12858 0.18803 0.31258 0.0
H28 H 0.10551 0.14846 0.31588 0.0
C29 C 0.10453 0.17753 0.31597 0.0
H30 H 0.10376 0.18634 0.32353 0.0
H31 H 0.17881 0.25508 0.30431 0.0
O32 O 0.98664 0.2616 0.28755 0.0
C33 C 0.1001 0.27707 0.28605 0.0
Co34 Co 0.25952 0.96661 0.70126 0.0
Co35 Co 0.26585 0.89562 0.69019 0.0
C36 C 0.32061 0.95199 0.68865 0.0
O37 O 0.30364 0.97261 0.6941 0.0
O38 O 0.30918 0.92146 0.68669 0.0
C39 C 0.2579 0.04093 0.70495 0.0
O40 O 0.27286 0.04395 0.69652 0.0
C41 C 0.2724 0.8505 0.67339 0.0
C42 C 0.24501 0.80241 0.67806 0.0
C43 C 0.26111 0.81791 0.67025 0.0
N44 N 0.2625 0.85445 0.68255 0.0
N45 N 0.24665 0.82543 0.68536 0.0
C46 C 0.29314 0.8773 0.66797 0.0
H47 H 0.31723 0.88361 0.67204 0.0
H48 H 0.27759 0.90175 0.66729 0.0
H49 H 0.30118 0.86786 0.6608 0.0
C50 C 0.19277 0.96972 0.69078 0.0
N51 N 0.22301 0.95363 0.69299 0.0
N52 N 0.22541 0.92409 0.68818 0.0
C53 C 0.19661 0.9206 0.68264 0.0
C54 C 0.17514 0.94951 0.68408 0.0
C55 C 0.18014 0.00253 0.69554 0.0
H56 H 0.18478 0.00082 0.70337 0.0
H57 H 0.19516 0.02518 0.69273 0.0
H58 H 0.15185 0.00708 0.69429 0.0
O59 O 0.26632 0.93137 0.7114 0.0
O60 O 0.26982 0.88056 0.70377 0.0
H61 H 0.18917 0.86595 0.67993 0.0
H62 H 0.16579 0.89426 0.67173 0.0
C63 C 0.19037 0.89087 0.67586 0.0
H64 H 0.21242 0.88926 0.67074 0.0
H65 H 0.23595 0.82178 0.69216 0.0
O66 O 0.24923 0.01077 0.70797 0.0
C67 C 0.27 0.89824 0.7115 0.0
Co68 Co 0.96721 0.72529 0.29595 0.0
Co69 Co 0.89544 0.72351 0.30678 0.0
C70 C 0.95081 0.6686 0.30983 0.0
O71 O 0.97209 0.68381 0.30419 0.0
O72 O 0.92006 0.68047 0.31128 0.0
C73 C 0.0412 0.72151 0.29192 0.0
O74 O 0.04302 0.70479 0.30013 0.0
C75 C 0.8508 0.72298 0.32362 0.0
C76 C 0.80101 0.74475 0.31814 0.0
C77 C 0.81727 0.73252 0.32635 0.0
N78 N 0.85423 0.72915 0.31421 0.0
N79 N 0.82429 0.74181 0.31093 0.0
C80 C 0.88031 0.71149 0.32994 0.0
H81 H 0.9058 0.71963 0.32683 0.0
H82 H 0.87754 0.72267 0.33724 0.0
H83 H 0.88003 0.68248 0.3305 0.0
C84 C 0.96996 0.79546 0.30458 0.0
N85 N 0.95438 0.76425 0.30334 0.0
N86 N 0.92438 0.76385 0.30798 0.0
C87 C 0.91991 0.7951 0.31233 0.0
C88 C 0.94866 0.81602 0.3103 0.0
C89 C 0.00434 0.80541 0.3002 0.0
H90 H 0.00177 0.80543 0.29228 0.0
H91 H 0.02433 0.78557 0.30215 0.0
H92 H 0.01334 0.83155 0.30265 0.0
O93 O 0.93196 0.7163 0.28586 0.0
O94 O 0.88072 0.71715 0.29334 0.0
H95 H 0.86426 0.80122 0.31291 0.0
H96 H 0.88808 0.83392 0.31961 0.0
C97 C 0.88739 0.80587 0.31753 0.0
H98 H 0.88453 0.78971 0.32408 0.0
H99 H 0.82007 0.74928 0.30384 0.0
O100 O 0.01184 0.73336 0.2891 0.0
C101 C 0.89869 0.71421 0.28571 0.0
Co102 Co 0.7358 0.02953 0.70358 0.0
Co103 Co 0.73352 0.10067 0.69244 0.0
C104 C 0.6761 0.04754 0.6907 0.0
O105 O 0.69224 0.026 0.69608 0.0
O106 O 0.68849 0.07782 0.68891 0.0
C107 C 0.73108 0.95546 0.70714 0.0
O108 O 0.71308 0.95465 0.69912 0.0
C109 C 0.72826 0.14824 0.67605 0.0
C110 C 0.76423 0.1909 0.68029 0.0
C111 C 0.74375 0.1789 0.67279 0.0
N112 N 0.73999 0.14184 0.68495 0.0
N113 N 0.76093 0.16777 0.68752 0.0
C114 C 0.70222 0.12552 0.67096 0.0
H115 H 0.67923 0.12123 0.67565 0.0
H116 H 0.7142 0.09961 0.66944 0.0
H117 H 0.69276 0.13762 0.66422 0.0
C118 C 0.80367 0.02391 0.69371 0.0
N119 N 0.77357 0.04089 0.69557 0.0
N120 N 0.77198 0.06962 0.69039 0.0
C121 C 0.80076 0.07128 0.6848 0.0
C122 C 0.82188 0.04245 0.68676 0.0
C123 C 0.81572 0.99224 0.69913 0.0
H124 H 0.80819 0.99462 0.70676 0.0
H125 H 0.80277 0.96864 0.69613 0.0
H126 H 0.84454 0.98889 0.6987 0.0
O127 O 0.7298 0.06477 0.71373 0.0
O128 O 0.7314 0.11573 0.70607 0.0
H129 H 0.81414 0.12381 0.68095 0.0
H130 H 0.82821 0.0913 0.67237 0.0
C131 C 0.807 0.09886 0.67738 0.0
H132 H 0.78276 0.10304 0.67318 0.0
H133 H 0.77407 0.16895 0.69406 0.0
O134 O 0.74358 0.98436 0.71008 0.0
C135 C 0.72914 0.09809 0.71378 0.0
Co136 Co 0.02644 0.22836 0.95029 0.0
Co137 Co 0.09866 0.22895 0.93969 0.0
C138 C 0.04603 0.17119 0.93699 0.0
O139 O 0.02389 0.18613 0.94241 0.0
O140 O 0.07635 0.18408 0.93557 0.0
C141 C 0.95397 0.21706 0.9551 0.0
O142 O 0.95334 0.19747 0.94737 0.0
C143 C 0.141 0.23552 0.92241 0.0
C144 C 0.19314 0.24912 0.92821 0.0
C145 C 0.17497 0.24406 0.91972 0.0
N146 N 0.13912 0.23621 0.93201 0.0
N147 N 0.17038 0.24421 0.93545 0.0
C148 C 0.11097 0.22559 0.91605 0.0
H149 H 0.09116 0.21026 0.92001 0.0
H150 H 0.09791 0.24962 0.91337 0.0
H151 H 0.12036 0.21017 0.90982 0.0
C152 C 0.02017 0.29735 0.94129 0.0
N153 N 0.03722 0.267 0.94266 0.0
N154 N 0.06782 0.26816 0.93833 0.0
C155 C 0.07139 0.29992 0.93417 0.0
C156 C 0.04119 0.31915 0.93586 0.0
C157 C 0.98512 0.30567 0.94552 0.0
H158 H 0.98774 0.30805 0.9534 0.0
H159 H 0.9667 0.28388 0.94401 0.0
H160 H 0.97424 0.33041 0.94258 0.0
O161 O 0.06204 0.2228 0.96046 0.0
O162 O 0.11373 0.22379 0.95319 0.0
H163 H 0.12741 0.30469 0.93409 0.0
H164 H 0.10461 0.34244 0.92939 0.0
C165 C 0.10458 0.3134 0.92981 0.0
H166 H 0.10722 0.30289 0.92245 0.0
H167 H 0.17609 0.24661 0.94272 0.0
O168 O 0.98165 0.23396 0.95716 0.0
C169 C 0.09533 0.22157 0.96077 0.0
Co170 Co 0.23244 0.97098 0.04366 0.0
Co171 Co 0.23264 0.90058 0.05524 0.0
C172 C 0.17504 0.95236 0.05749 0.0
O173 O 0.18994 0.97287 0.05158 0.0
O174 O 0.18808 0.92256 0.05953 0.0
C175 C 0.22418 0.04475 0.04081 0.0
O176 O 0.21111 0.04383 0.04951 0.0
C177 C 0.22988 0.85154 0.07136 0.0
C178 C 0.2645 0.80886 0.06634 0.0
C179 C 0.24428 0.81965 0.07402 0.0
N180 N 0.24101 0.85922 0.06248 0.0
N181 N 0.26133 0.83343 0.05947 0.0
C182 C 0.20919 0.87621 0.07748 0.0
H183 H 0.21566 0.90374 0.07565 0.0
H184 H 0.2145 0.87177 0.0852 0.0
H185 H 0.18086 0.87202 0.07613 0.0
C186 C 0.30134 0.97827 0.05298 0.0
N187 N 0.27136 0.96075 0.0514 0.0
N188 N 0.27072 0.93235 0.05674 0.0
C189 C 0.29998 0.93143 0.06213 0.0
C190 C 0.32046 0.96043 0.0599 0.0
C191 C 0.31235 0.00984 0.04737 0.0
H192 H 0.30226 0.00808 0.03994 0.0
H193 H 0.30116 0.03364 0.05076 0.0
H194 H 0.34129 0.01236 0.04713 0.0
O195 O 0.22631 0.93548 0.03363 0.0
O196 O 0.22833 0.88529 0.04166 0.0
H197 H 0.3148 0.87938 0.0661 0.0
H198 H 0.32846 0.91261 0.07455 0.0
C199 C 0.30723 0.90431 0.06962 0.0
H200 H 0.28329 0.89966 0.0739 0.0
H201 H 0.27384 0.83309 0.05283 0.0
O202 O 0.23653 0.01685 0.03716 0.0
C203 C 0.22558 0.90218 0.03383 0.0
Co204 Co 0.96116 0.76402 0.95447 0.0
Co205 Co 0.89058 0.76536 0.94318 0.0
C206 C 0.94552 0.82092 0.94058 0.0
O207 O 0.96621 0.80623 0.94649 0.0
O208 O 0.91547 0.80808 0.93875 0.0
C209 C 0.03565 0.76447 0.9584 0.0
O210 O 0.03926 0.77504 0.9495 0.0
C211 C 0.84818 0.76436 0.926 0.0
C212 C 0.79538 0.75185 0.93151 0.0
C213 C 0.81368 0.75917 0.92317 0.0
N214 N 0.84998 0.76052 0.93552 0.0
N215 N 0.81838 0.75319 0.93881 0.0
C216 C 0.8797 0.77037 0.91983 0.0
H217 H 0.9038 0.76168 0.92359 0.0
H218 H 0.87717 0.75611 0.91294 0.0
H219 H 0.88223 0.79881 0.91833 0.0
C220 C 0.96579 0.69421 0.94551 0.0
N221 N 0.94946 0.72498 0.94688 0.0
N222 N 0.91947 0.72493 0.94222 0.0
C223 C 0.91559 0.69375 0.9378 0.0
C224 C 0.94484 0.67339 0.93973 0.0
C225 C 0.00115 0.68547 0.94951 0.0
H226 H 0.02019 0.70562 0.94716 0.0
H227 H 0.01069 0.65952 0.94707 0.0
H228 H -1e-05 0.686 0.95744 0.0
O229 O 0.92504 0.77179 0.96444 0.0
O230 O 0.8748 0.77234 0.95647 0.0
H231 H 0.88256 0.65375 0.93152 0.0
H232 H 0.88311 0.69521 0.92535 0.0
C233 C 0.88337 0.68259 0.9325 0.0
H234 H 0.85969 0.69106 0.93646 0.0
H235 H 0.81257 0.74892 0.94602 0.0
O236 O 0.00532 0.75713 0.96156 0.0
C237 C 0.89181 0.77446 0.96428 0.0
Co238 Co 0.76799 0.02338 0.04855 0.0
Co239 Co 0.77167 0.09643 0.05863 0.0
C240 C 0.82383 0.03994 0.0628 0.0
O241 O 0.80859 0.01898 0.05709 0.0
O242 O 0.81274 0.07109 0.064 0.0
C243 C 0.77274 0.94892 0.04563 0.0
O244 O 0.79098 0.9491 0.0536 0.0
C245 C 0.77486 0.14528 0.07451 0.0
C246 C 0.75648 0.19483 0.06802 0.0
C247 C 0.76841 0.18029 0.07652 0.0
N248 N 0.76736 0.13954 0.06526 0.0
N249 N 0.75656 0.16923 0.06139 0.0
C250 C 0.78491 0.11677 0.08135 0.0
H251 H 0.77529 0.09104 0.07875 0.0
H252 H 0.77399 0.1219 0.08858 0.0
H253 H 0.81389 0.11551 0.08187 0.0
C254 C 0.69746 0.02414 0.05697 0.0
N255 N 0.72877 0.03912 0.05543 0.0
N256 N 0.73011 0.06946 0.05989 0.0
C257 C 0.69951 0.07469 0.0645 0.0
C258 C 0.67795 0.04598 0.06285 0.0
C259 C 0.686 0.99064 0.05234 0.0
H260 H 0.69414 0.9905 0.04472 0.0
H261 H 0.69903 0.96829 0.05597 0.0
H262 H 0.6572 0.98711 0.05269 0.0
O263 O 0.77982 0.05569 0.03802 0.0
O264 O 0.78082 0.10787 0.04502 0.0
H265 H 0.69336 0.13006 0.06621 0.0
H266 H 0.66555 0.1043 0.07401 0.0
C267 C 0.69174 0.10595 0.07062 0.0
H268 H 0.71162 0.10785 0.07636 0.0
H269 H 0.74898 0.17193 0.05425 0.0
O270 O 0.75953 0.97733 0.04255 0.0
C271 C 0.78389 0.08873 0.0376 0.0
Co272 Co 0.53915 0.7629 0.79323 0.0
Co273 Co 0.60529 0.76183 0.80643 0.0
C274 C 0.55384 0.8205 0.80727 0.0
O275 O 0.53475 0.80628 0.80089 0.0
O276 O 0.58223 0.8063 0.81006 0.0
C277 C 0.46576 0.76628 0.78847 0.0
O278 O 0.46147 0.77399 0.79756 0.0
C279 C 0.64481 0.76121 0.82424 0.0
C280 C 0.69609 0.73995 0.81969 0.0
C281 C 0.67774 0.75212 0.82756 0.0
N282 N 0.64355 0.75436 0.81483 0.0
N283 N 0.67426 0.74177 0.81213 0.0
C284 C 0.61566 0.77835 0.82968 0.0
H285 H 0.58995 0.7696 0.82684 0.0
H286 H 0.61728 0.77283 0.83746 0.0
H287 H 0.61744 0.80713 0.82865 0.0
C288 C 0.52754 0.6942 0.8025 0.0
N289 N 0.54591 0.72393 0.8013 0.0
N290 N 0.57337 0.72355 0.80701 0.0
C291 C 0.57312 0.69357 0.81212 0.0
C292 C 0.54398 0.6741 0.80946 0.0
C293 C 0.49651 0.68414 0.79653 0.0
H294 H 0.50031 0.69307 0.78905 0.0
H295 H 0.47279 0.69713 0.79945 0.0
H296 H 0.49229 0.65538 0.79655 0.0
O297 O 0.57838 0.76735 0.78411 0.0
O298 O 0.62534 0.7669 0.79346 0.0
H299 H 0.62614 0.6836 0.81632 0.0
H300 H 0.59404 0.65889 0.82307 0.0
C301 C 0.59969 0.68437 0.8196 0.0
H302 H 0.59964 0.7048 0.82522 0.0
H303 H 0.68032 0.73445 0.80512 0.0
O304 O 0.49627 0.75915 0.78539 0.0
C305 C 0.61145 0.76871 0.78519 0.0
Co306 Co 0.75558 0.46768 0.20359 0.0
Co307 Co 0.76346 0.3991 0.19164 0.0
C308 C 0.8184 0.45511 0.19135 0.0
O309 O 0.80092 0.47376 0.19719 0.0
O310 O 0.80706 0.42556 0.18847 0.0
C311 C 0.75428 0.54147 0.20715 0.0
O312 O 0.76785 0.54357 0.19852 0.0
C313 C 0.76811 0.35838 0.17416 0.0
C314 C 0.7568 0.30452 0.17912 0.0
C315 C 0.76468 0.32415 0.17107 0.0
N316 N 0.76216 0.35914 0.18362 0.0
N317 N 0.75553 0.3269 0.18657 0.0
C318 C 0.77916 0.38962 0.16842 0.0
H319 H 0.80805 0.38904 0.16755 0.0
H320 H 0.7718 0.41422 0.17215 0.0
H321 H 0.76727 0.38923 0.16119 0.0
C322 C 0.68981 0.47231 0.19263 0.0
N323 N 0.72011 0.4562 0.19477 0.0
N324 N 0.72279 0.42718 0.18973 0.0
C325 C 0.69389 0.42378 0.18423 0.0
C326 C 0.67231 0.4525 0.18582 0.0
C327 C 0.67685 0.5046 0.19758 0.0
H328 H 0.68111 0.50216 0.20541 0.0
H329 H 0.69193 0.52756 0.19499 0.0
H330 H 0.64862 0.50919 0.19623 0.0
O331 O 0.76072 0.43118 0.21344 0.0
O332 O 0.76583 0.38201 0.20507 0.0
H333 H 0.69235 0.36871 0.18123 0.0
H334 H 0.66018 0.39406 0.17469 0.0
C335 C 0.68729 0.3939 0.17752 0.0
H336 H 0.70541 0.39599 0.17136 0.0
H337 H 0.75013 0.32019 0.19366 0.0
O338 O 0.74559 0.51166 0.21043 0.0
C339 C 0.76463 0.39812 0.21305 0.0
Co340 Co 0.46595 0.22649 0.79336 0.0
Co341 Co 0.39623 0.22582 0.80518 0.0
C342 C 0.45126 0.17095 0.80784 0.0
O343 O 0.47167 0.18583 0.8019 0.0
O344 O 0.42077 0.18286 0.80958 0.0
C345 C 0.54047 0.22733 0.78958 0.0
O346 O 0.54413 0.22069 0.79876 0.0
C347 C 0.34891 0.22334 0.82175 0.0
C348 C 0.30707 0.25982 0.81722 0.0
C349 C 0.31863 0.23994 0.82489 0.0
N350 N 0.35552 0.23396 0.81276 0.0
N351 N 0.33005 0.25519 0.81002 0.0
C352 C 0.37072 0.19692 0.82698 0.0
H353 H 0.37564 0.17411 0.82226 0.0
H354 H 0.39638 0.20875 0.82886 0.0
H355 H 0.35753 0.18719 0.83353 0.0
C356 C 0.47053 0.29766 0.80154 0.0
N357 N 0.45451 0.26651 0.80053 0.0
N358 N 0.4264 0.26561 0.80598 0.0
C359 C 0.42431 0.29595 0.81089 0.0
C360 C 0.45201 0.31736 0.80819 0.0
C361 C 0.50137 0.30905 0.7957 0.0
H362 H 0.49961 0.29785 0.78839 0.0
H363 H 0.52573 0.29926 0.79911 0.0
H364 H 0.50279 0.33801 0.79515 0.0
O365 O 0.42951 0.21674 0.78375 0.0
O366 O 0.37965 0.21855 0.79187 0.0
H367 H 0.37238 0.31042 0.81503 0.0
H368 H 0.40594 0.32542 0.82316 0.0
C369 C 0.39762 0.30347 0.81847 0.0
H370 H 0.39372 0.27993 0.82298 0.0
H371 H 0.32911 0.26758 0.80337 0.0
O372 O 0.50999 0.23194 0.78615 0.0
C373 C 0.39627 0.21478 0.78404 0.0
Co374 Co 0.23403 0.54491 0.2041 0.0
Co375 Co 0.23013 0.60965 0.19048 0.0
C376 C 0.1732 0.55674 0.19066 0.0
O377 O 0.18932 0.53951 0.19711 0.0
O378 O 0.18584 0.58501 0.18726 0.0
C379 C 0.23642 0.47142 0.20957 0.0
O380 O 0.23146 0.4641 0.20048 0.0
C381 C 0.2261 0.6525 0.17303 0.0
C382 C 0.26022 0.69711 0.17693 0.0
C383 C 0.24046 0.68331 0.16953 0.0
N384 N 0.23701 0.64826 0.1821 0.0
N385 N 0.25696 0.67525 0.18444 0.0
C386 C 0.20575 0.62557 0.16757 0.0
H387 H 0.21152 0.59896 0.17036 0.0
H388 H 0.21202 0.62662 0.15982 0.0
H389 H 0.17735 0.63073 0.16851 0.0
C390 C 0.30159 0.53477 0.19421 0.0
N391 N 0.27125 0.55196 0.19556 0.0
N392 N 0.26926 0.57839 0.18953 0.0
C393 C 0.29802 0.57814 0.18391 0.0
C394 C 0.3195 0.55056 0.18672 0.0
C395 C 0.31448 0.506 0.2006 0.0
H396 H 0.30478 0.50998 0.20799 0.0
H397 H 0.30447 0.48054 0.19792 0.0
H398 H 0.34353 0.50502 0.20073 0.0
O399 O 0.23115 0.58411 0.21304 0.0
O400 O 0.22599 0.63045 0.20358 0.0
H401 H 0.31048 0.62915 0.17858 0.0
H402 H 0.32557 0.59377 0.17103 0.0
C403 C 0.30402 0.6028 0.17574 0.0
H404 H 0.27986 0.60482 0.1714 0.0
H405 H 0.26934 0.6781 0.19105 0.0
O406 O 0.23967 0.50311 0.21219 0.0
C407 C 0.22758 0.61692 0.2119 0.0
Co408 Co 0.53214 0.73606 0.45216 0.0
Co409 Co 0.60297 0.73463 0.44082 0.0
C410 C 0.55038 0.67822 0.43838 0.0
O411 O 0.52979 0.6936 0.44416 0.0
O412 O 0.58062 0.6904 0.43647 0.0
C413 C 0.45832 0.72792 0.45485 0.0
O414 O 0.45965 0.71407 0.44624 0.0
C415 C 0.65241 0.73088 0.42486 0.0
C416 C 0.6943 0.76694 0.42961 0.0
C417 C 0.68384 0.74583 0.42208 0.0
N418 N 0.64461 0.74255 0.43368 0.0
N419 N 0.66998 0.76369 0.43654 0.0
C420 C 0.62814 0.70919 0.41888 0.0
H421 H 0.63051 0.68134 0.42107 0.0
H422 H 0.60066 0.71755 0.4201 0.0
H423 H 0.63438 0.71141 0.41114 0.0
C424 C 0.52666 0.80532 0.44303 0.0
N425 N 0.54331 0.77479 0.44452 0.0
N426 N 0.57196 0.77367 0.43929 0.0
C427 C 0.57386 0.80328 0.43404 0.0
C428 C 0.54531 0.82443 0.43627 0.0
C429 C 0.49527 0.81688 0.44863 0.0
H430 H 0.49656 0.80628 0.45601 0.0
H431 H 0.47126 0.80654 0.44515 0.0
H432 H 0.49353 0.84586 0.449 0.0
O433 O 0.56725 0.72992 0.46233 0.0
O434 O 0.61761 0.72895 0.45442 0.0
H435 H 0.62619 0.818 0.43038 0.0
H436 H 0.59363 0.83178 0.42177 0.0
C437 C 0.60154 0.81045 0.42671 0.0
H438 H 0.60645 0.78651 0.42245 0.0
H439 H 0.67003 0.77688 0.44308 0.0
O440 O 0.48603 0.74069 0.4585 0.0
C441 C 0.60048 0.72745 0.46223 0.0
Co442 Co 0.73655 0.46425 0.54535 0.0
Co443 Co 0.73659 0.39413 0.55714 0.0
C444 C 0.67868 0.44638 0.55889 0.0
O445 O 0.69352 0.46714 0.55305 0.0
O446 O 0.69184 0.41672 0.56098 0.0
C447 C 0.72661 0.53696 0.54124 0.0
O448 O 0.71043 0.53683 0.54954 0.0
C449 C 0.73588 0.35047 0.5743 0.0
C450 C 0.76477 0.30333 0.56957 0.0
C451 C 0.74913 0.31865 0.57748 0.0
N452 N 0.74417 0.35415 0.56502 0.0
N453 N 0.76102 0.32571 0.56219 0.0
C454 C 0.71431 0.3765 0.57976 0.0
H455 H 0.68915 0.38065 0.57597 0.0
H456 H 0.72826 0.402 0.58001 0.0
H457 H 0.70811 0.36755 0.58711 0.0
C458 C 0.80408 0.47329 0.55519 0.0
N459 N 0.77467 0.45506 0.55343 0.0
N460 N 0.77508 0.42574 0.5584 0.0
C461 C 0.80519 0.42431 0.56345 0.0
C462 C 0.82429 0.45448 0.56163 0.0
C463 C 0.81348 0.50678 0.55024 0.0
H464 H 0.81021 0.5035 0.54239 0.0
H465 H 0.79526 0.52771 0.5526 0.0
H466 H 0.84079 0.51491 0.55179 0.0
O467 O 0.73168 0.42718 0.53552 0.0
O468 O 0.73196 0.37754 0.5438 0.0
H469 H 0.81667 0.37006 0.56564 0.0
H470 H 0.8415 0.39929 0.57324 0.0
C471 C 0.81563 0.39466 0.56985 0.0
H472 H 0.79577 0.39153 0.57557 0.0
H473 H 0.77069 0.32198 0.55527 0.0
O474 O 0.74153 0.50912 0.53834 0.0
C475 C 0.73017 0.39388 0.53587 0.0
Co476 Co 0.46373 0.26772 0.4536 0.0
Co477 Co 0.39358 0.26873 0.442 0.0
C478 C 0.44475 0.32759 0.44066 0.0
O479 O 0.46554 0.31235 0.44644 0.0
O480 O 0.4156 0.31385 0.4383 0.0
C481 C 0.5374 0.27581 0.45745 0.0
O482 O 0.53772 0.29353 0.44939 0.0
C483 C 0.3481 0.27068 0.42523 0.0
C484 C 0.2996 0.24613 0.43068 0.0
C485 C 0.3145 0.26065 0.42254 0.0
N486 N 0.35264 0.26243 0.43449 0.0
N487 N 0.3235 0.24806 0.43774 0.0
C488 C 0.37679 0.28483 0.41903 0.0
H489 H 0.40279 0.27893 0.4222 0.0
H490 H 0.37536 0.27345 0.41173 0.0
H491 H 0.37406 0.31372 0.41849 0.0
C492 C 0.47215 0.20065 0.44348 0.0
N493 N 0.45425 0.23023 0.44528 0.0
N494 N 0.42508 0.23039 0.44025 0.0
C495 C 0.42366 0.20077 0.43499 0.0
C496 C 0.45356 0.18105 0.43683 0.0
C497 C 0.50473 0.19023 0.44874 0.0
H498 H 0.5019 0.19659 0.45645 0.0
H499 H 0.52722 0.2054 0.44589 0.0
H500 H 0.51031 0.16184 0.44804 0.0
O501 O 0.42771 0.27033 0.46368 0.0
O502 O 0.37789 0.27192 0.45551 0.0
H503 H 0.3695 0.1904 0.43221 0.0
H504 H 0.39925 0.16695 0.42439 0.0
C505 C 0.39456 0.19195 0.42821 0.0
H506 H 0.39216 0.21299 0.4228 0.0
H507 H 0.32015 0.23904 0.44474 0.0
O508 O 0.50902 0.26179 0.46027 0.0
C509 C 0.39445 0.27206 0.46342 0.0
Co510 Co 0.2652 0.53362 0.54292 0.0
Co511 Co 0.26959 0.60411 0.5544 0.0
C512 C 0.32702 0.55092 0.55522 0.0
O513 O 0.31056 0.53034 0.54964 0.0
O514 O 0.31432 0.58049 0.5576 0.0
C515 C 0.26753 0.45961 0.54039 0.0
O516 O 0.28073 0.46024 0.54908 0.0
C517 C 0.27554 0.64942 0.57123 0.0
C518 C 0.2429 0.6948 0.56707 0.0
C519 C 0.26162 0.68062 0.57464 0.0
N520 N 0.26454 0.64485 0.56217 0.0
N521 N 0.24561 0.67237 0.55967 0.0
C522 C 0.29968 0.62459 0.57628 0.0
H523 H 0.32271 0.6193 0.57169 0.0
H524 H 0.28595 0.59938 0.57755 0.0
H525 H 0.30948 0.63539 0.58314 0.0
C526 C 0.19888 0.52759 0.55354 0.0
N527 N 0.22907 0.54421 0.55156 0.0
N528 N 0.23072 0.57355 0.55649 0.0
C529 C 0.20151 0.5763 0.56188 0.0
C530 C 0.18049 0.5473 0.56019 0.0
C531 C 0.18652 0.49545 0.54841 0.0
H532 H 0.19235 0.4978 0.54066 0.0
H533 H 0.20083 0.47234 0.55123 0.0
H534 H 0.15799 0.49118 0.54935 0.0
O535 O 0.26787 0.56958 0.53279 0.0
O536 O 0.27171 0.61963 0.54084 0.0
H537 H 0.19003 0.6304 0.56428 0.0
H538 H 0.16977 0.60116 0.57281 0.0
C539 C 0.19368 0.6061 0.56851 0.0
H540 H 0.216 0.60991 0.57346 0.0
H541 H 0.23341 0.67518 0.55302 0.0
O542 O 0.25768 0.48813 0.53654 0.0
C543 C 0.27063 0.60281 0.53297 0.0
H544 H 0.16942 0.26604 0.28193 0.0
H545 H 0.20152 0.28618 0.26779 0.0
H546 H 0.10626 0.3309 0.25642 0.0
H547 H 0.07394 0.30952 0.27025 0.0
H548 H 0.14173 0.3068 0.2424 0.0
H549 H 0.1681 0.37987 0.26973 0.0
H550 H 0.18923 0.39195 0.2861 0.0
H551 H 0.29056 0.35109 0.27875 0.0
H552 H 0.26986 0.33845 0.26235 0.0
H553 H 0.22599 0.48097 0.2286 0.0
H554 H 0.21257 0.43697 0.24054 0.0
H555 H 0.22736 0.35531 0.21952 0.0
H556 H 0.23911 0.39992 0.20727 0.0
H557 H 0.24154 0.38651 0.24892 0.0
H558 H 0.17192 0.28775 0.22446 0.0
H559 H 0.14214 0.28529 0.20877 0.0
H560 H 0.11349 0.39371 0.21139 0.0
H561 H 0.14277 0.39665 0.22713 0.0
C562 C 0.15531 0.27978 0.27634 0.0
C563 C 0.11924 0.28652 0.27724 0.0
C564 C 0.17367 0.29131 0.26828 0.0
C565 C 0.15644 0.31057 0.26111 0.0
C566 C 0.12016 0.31601 0.26183 0.0
C567 C 0.10171 0.30393 0.26978 0.0
C568 C 0.17617 0.32762 0.25322 0.0
C569 C 0.16384 0.32392 0.24381 0.0
C570 C 0.20481 0.35023 0.25505 0.0
C571 C 0.21733 0.35779 0.26488 0.0
C572 C 0.19482 0.37325 0.27164 0.0
C573 C 0.20671 0.38023 0.28091 0.0
C574 C 0.24118 0.37217 0.28347 0.0
C575 C 0.26385 0.35723 0.27676 0.0
C576 C 0.25206 0.35015 0.26748 0.0
C577 C 0.22681 0.45366 0.2265 0.0
C578 C 0.23321 0.44393 0.21696 0.0
C579 C 0.21927 0.42841 0.23338 0.0
C580 C 0.21848 0.39275 0.23094 0.0
C581 C 0.22708 0.38271 0.22153 0.0
C582 C 0.23393 0.40817 0.21456 0.0
C583 C 0.20603 0.36703 0.23816 0.0
C584 C 0.22002 0.36873 0.24745 0.0
C585 C 0.17773 0.344 0.23631 0.0
C586 C 0.15994 0.3425 0.22689 0.0
C587 C 0.15923 0.31102 0.22168 0.0
C588 C 0.14244 0.30955 0.21279 0.0
C589 C 0.12607 0.33937 0.20907 0.0
C590 C 0.12631 0.37068 0.21426 0.0
C591 C 0.14301 0.37226 0.22316 0.0
H592 H 0.11311 0.33818 0.20218 0.0
H593 H 0.25036 0.37759 0.29065 0.0
H594 H 0.46913 0.76186 0.76901 0.0
H595 H 0.42454 0.77986 0.75753 0.0
H596 H 0.35216 0.79972 0.78057 0.0
H597 H 0.39699 0.78221 0.79224 0.0
H598 H 0.32454 0.76556 0.76152 0.0
H599 H 0.38403 0.86594 0.77517 0.0
H600 H 0.43657 0.89819 0.78046 0.0
H601 H 0.47799 0.89446 0.7519 0.0
H602 H 0.42593 0.86161 0.74648 0.0
H603 H 0.27126 0.92772 0.72933 0.0
H604 H 0.29228 0.90125 0.74413 0.0
H605 H 0.30851 0.80317 0.72943 0.0
H606 H 0.28703 0.8293 0.71457 0.0
H607 H 0.35692 0.87898 0.74652 0.0
H608 H 0.30566 0.73554 0.74551 0.0
H609 H 0.25267 0.70339 0.74052 0.0
H610 H 0.19067 0.79616 0.74448 0.0
H611 H 0.24317 0.82874 0.74963 0.0
C612 C 0.44355 0.76936 0.77167 0.0
C613 C 0.43677 0.77109 0.78156 0.0
C614 C 0.41809 0.77954 0.76508 0.0
C615 C 0.38529 0.79124 0.76824 0.0
C616 C 0.37739 0.79062 0.77804 0.0
C617 C 0.40307 0.78078 0.78468 0.0
C618 C 0.36139 0.80819 0.76134 0.0
C619 C 0.33129 0.79044 0.75825 0.0
C620 C 0.37014 0.84089 0.75725 0.0
C621 C 0.40126 0.86103 0.76045 0.0
C622 C 0.40449 0.87172 0.77004 0.0
C623 C 0.43416 0.89015 0.77306 0.0
C624 C 0.46065 0.89829 0.76652 0.0
C625 C 0.45747 0.8881 0.75695 0.0
C626 C 0.42788 0.86959 0.7539 0.0
C627 C 0.27862 0.9003 0.72926 0.0
C628 C 0.27775 0.8807 0.72072 0.0
C629 C 0.29064 0.88522 0.73775 0.0
C630 C 0.30192 0.85024 0.7379 0.0
C631 C 0.29948 0.83008 0.72951 0.0
C632 C 0.28736 0.84513 0.721 0.0
C633 C 0.31998 0.83619 0.74648 0.0
C634 C 0.34945 0.85439 0.74985 0.0
C635 C 0.31028 0.80414 0.75086 0.0
C636 C 0.27845 0.78465 0.74789 0.0
C637 C 0.2807 0.74904 0.74537 0.0
C638 C 0.25074 0.73075 0.7425 0.0
C639 C 0.21834 0.74775 0.74216 0.0
C640 C 0.2158 0.78306 0.74471 0.0
C641 C 0.24567 0.80146 0.74759 0.0
H642 H 0.19519 0.73355 0.73993 0.0
H643 H 0.48359 0.91257 0.76887 0.0
H644 H 0.78728 0.60435 0.20435 0.0
H645 H 0.80415 0.64587 0.21687 0.0
H646 H 0.74307 0.5879 0.23743 0.0
H647 H 0.72604 0.54634 0.22502 0.0
H648 H 0.77203 0.68762 0.23297 0.0
H649 H 0.80315 0.5634 0.25401 0.0
H650 H 0.81229 0.50024 0.25107 0.0
H651 H 0.85452 0.52316 0.22327 0.0
H652 H 0.84622 0.58642 0.22613 0.0
H653 H 0.82833 0.71686 0.28183 0.0
H654 H 0.79886 0.69835 0.26709 0.0
H655 H 0.89892 0.6748 0.2543 0.0
H656 H 0.92864 0.69344 0.2689 0.0
H657 H 0.85132 0.61907 0.25407 0.0
H658 H 0.85656 0.74094 0.2459 0.0
H659 H 0.84731 0.80424 0.24836 0.0
H660 H 0.73614 0.78786 0.2498 0.0
H661 H 0.74477 0.72434 0.24749 0.0
C662 C 0.77639 0.60115 0.21145 0.0
C663 C 0.75612 0.57157 0.21377 0.0
C664 C 0.78591 0.62503 0.21858 0.0
C665 C 0.77525 0.61949 0.22807 0.0
C666 C 0.75169 0.59237 0.23014 0.0
C667 C 0.74218 0.56854 0.22305 0.0
C668 C 0.7941 0.63688 0.23596 0.0
C669 C 0.78928 0.67278 0.23763 0.0
C670 C 0.81708 0.61742 0.24187 0.0
C671 C 0.82373 0.57957 0.24025 0.0
C672 C 0.81462 0.55494 0.2473 0.0
C673 C 0.81962 0.51914 0.24565 0.0
C674 C 0.83387 0.50769 0.23697 0.0
C675 C 0.84339 0.53204 0.22997 0.0
C676 C 0.83854 0.56786 0.23161 0.0
C677 C 0.84409 0.70816 0.27583 0.0
C678 C 0.88082 0.70634 0.27656 0.0
C679 C 0.82721 0.6978 0.26741 0.0
C680 C 0.84679 0.68528 0.25964 0.0
C681 C 0.88343 0.68445 0.26024 0.0
C682 C 0.90033 0.69513 0.26859 0.0
C683 C 0.82907 0.66994 0.25123 0.0
C684 C 0.83408 0.63414 0.24946 0.0
C685 C 0.80661 0.68966 0.24522 0.0
C686 C 0.80135 0.72782 0.24662 0.0
C687 C 0.83016 0.75078 0.24684 0.0
C688 C 0.82503 0.78671 0.24819 0.0
C689 C 0.79117 0.80005 0.24927 0.0
C690 C 0.76236 0.77748 0.24898 0.0
C691 C 0.76736 0.74151 0.24764 0.0
H692 H 0.78725 0.82789 0.2503 0.0
H693 H 0.83757 0.47996 0.23569 0.0
H694 H 0.61009 0.2194 0.79412 0.0
H695 H 0.65874 0.20962 0.78298 0.0
H696 H 0.58704 0.21837 0.75918 0.0
H697 H 0.53918 0.22958 0.77013 0.0
H698 H 0.67013 0.15875 0.77192 0.0
H699 H 0.62104 0.24346 0.73928 0.0
H700 H 0.59641 0.30236 0.73663 0.0
H701 H 0.63973 0.3373 0.76335 0.0
H702 H 0.66512 0.27877 0.76611 0.0
H703 H 0.69404 0.0731 0.72919 0.0
H704 H 0.67824 0.10433 0.74368 0.0
H705 H 0.73578 0.19502 0.7339 0.0
H706 H 0.7495 0.16432 0.71894 0.0
H707 H 0.68076 0.21738 0.74036 0.0
H708 H 0.76205 0.14167 0.7544 0.0
H709 H 0.7938 0.08686 0.75787 0.0
H710 H 0.70039 0.04212 0.76984 0.0
H711 H 0.6679 0.09646 0.76634 0.0
C712 C 0.60495 0.22 0.7865 0.0
C713 C 0.57077 0.22524 0.78302 0.0
C714 C 0.63275 0.21433 0.78014 0.0
C715 C 0.62677 0.21372 0.77021 0.0
C716 C 0.59273 0.21975 0.76677 0.0
C717 C 0.56518 0.22585 0.77308 0.0
C718 C 0.65475 0.20322 0.76339 0.0
C719 C 0.67292 0.17184 0.76507 0.0
C720 C 0.65983 0.22111 0.75462 0.0
C721 C 0.64496 0.25659 0.75291 0.0
C722 C 0.6256 0.26375 0.74456 0.0
C723 C 0.61142 0.29708 0.74305 0.0
C724 C 0.61647 0.32354 0.74982 0.0
C725 C 0.63577 0.31675 0.75811 0.0
C726 C 0.65003 0.28348 0.75966 0.0
C727 C 0.70374 0.09954 0.73017 0.0
C728 C 0.72299 0.11631 0.72294 0.0
C729 C 0.69502 0.11734 0.73854 0.0
C730 C 0.70647 0.15191 0.74007 0.0
C731 C 0.72666 0.16837 0.73294 0.0
C732 C 0.73454 0.15084 0.72441 0.0
C733 C 0.69412 0.17156 0.74864 0.0
C734 C 0.67896 0.20475 0.7473 0.0
C735 C 0.69312 0.15605 0.75786 0.0
C736 C 0.71252 0.12325 0.76009 0.0
C737 C 0.74822 0.12012 0.75774 0.0
C738 C 0.76635 0.08912 0.75972 0.0
C739 C 0.74913 0.06106 0.76409 0.0
C740 C 0.71372 0.06394 0.76649 0.0
C741 C 0.69545 0.09488 0.76453 0.0
H742 H 0.76324 0.0371 0.76561 0.0
H743 H 0.60544 0.34931 0.74864 0.0
H744 H 0.25545 0.05944 0.02372 0.0
H745 H 0.2374 0.10376 0.0121 0.0
H746 H 0.16099 0.14337 0.0321 0.0
H747 H 0.17905 0.09921 0.04381 0.0
H748 H 0.13256 0.12301 0.01484 0.0
H749 H 0.22528 0.19578 0.02567 0.0
H750 H 0.28559 0.21086 0.03043 0.0
H751 H 0.32222 0.1867 0.00213 0.0
H752 H 0.26218 0.17094 0.99722 0.0
H753 H 0.06849 0.23362 0.97856 0.0
H754 H 0.09391 0.21687 0.99394 0.0
H755 H 0.18554 0.17719 0.97944 0.0
H756 H 0.16083 0.19518 0.96405 0.0
H757 H 0.20417 0.20605 0.99577 0.0
H758 H 0.11414 0.12425 0.98585 0.0
H759 H 0.05458 0.10622 0.98107 0.0
H760 H 0.01375 0.14437 0.00775 0.0
H761 H 0.07304 0.16314 0.01263 0.0
C762 C 0.23541 0.07814 0.02574 0.0
C763 C 0.21842 0.07563 0.03463 0.0
C764 C 0.22525 0.10356 0.01911 0.0
C765 C 0.19784 0.12679 0.02125 0.0
C766 C 0.18224 0.12569 0.03034 0.0
C767 C 0.19267 0.1005 0.03702 0.0
C768 C 0.18258 0.14868 0.01356 0.0
C769 C 0.14791 0.14186 0.01081 0.0
C770 C 0.20299 0.17251 0.00819 0.0
C771 C 0.2392 0.18193 0.01109 0.0
C772 C 0.24622 0.19338 0.02048 0.0
C773 C 0.28037 0.20212 0.0232 0.0
C774 C 0.30773 0.19968 0.01659 0.0
C775 C 0.30099 0.18856 0.00724 0.0
C776 C 0.26689 0.17977 0.00448 0.0
C777 C 0.09427 0.22176 0.97866 0.0
C778 C 0.11249 0.21527 0.97009 0.0
C779 C 0.10873 0.21212 0.98746 0.0
C780 C 0.14125 0.195 0.98783 0.0
C781 C 0.16033 0.19023 0.97933 0.0
C782 C 0.14615 0.20044 0.97053 0.0
C783 C 0.15435 0.17983 0.99693 0.0
C784 C 0.18859 0.18776 -8e-05 0.0
C785 C 0.13364 0.15669 0.0025 0.0
C786 C 0.09796 0.14553 -0.00045 0.0
C787 C 0.09242 0.12908 0.99066 0.0
C788 C 0.05871 0.11869 0.98794 0.0
C789 C 0.03038 0.12427 0.99409 0.0
C790 C 0.03571 0.14017 0.00299 0.0
C791 C 0.06935 0.1507 0.00573 0.0
H792 H 0.00431 0.11617 0.99198 0.0
H793 H 0.33415 0.20647 0.01872 0.0
H794 H 0.03306 0.76065 0.97781 0.0
H795 H 0.07976 0.77341 0.98905 0.0
H796 H 0.15315 0.78276 0.96566 0.0
H797 H 0.1056 0.77177 0.95425 0.0
H798 H 0.13792 0.75069 0.99496 0.0
H799 H 0.21167 0.84691 0.97076 0.0
H800 H 0.20217 0.88303 0.95632 0.0
H801 H 0.09253 0.89054 0.96291 0.0
H802 H 0.10151 0.85481 0.97744 0.0
H803 H 0.24793 0.83659 0.02866 0.0
H804 H 0.23212 0.80419 0.01411 0.0
H805 H 0.16891 0.89181 0.00482 0.0
H806 H 0.18672 0.92479 0.01888 0.0
H807 H 0.19477 0.86619 0.99017 0.0
H808 H 0.1368 0.81392 0.01788 0.0
H809 H 0.13536 0.78391 0.03353 0.0
H810 H 0.19503 0.69853 0.02189 0.0
H811 H 0.19708 0.72825 0.0062 0.0
C812 C 0.05919 0.76493 0.97503 0.0
C813 C 0.0655 0.7659 0.96512 0.0
C814 C 0.08604 0.77202 0.98149 0.0
C815 C 0.11994 0.77973 0.97822 0.0
C816 C 0.12703 0.77772 0.96835 0.0
C817 C 0.09988 0.77133 0.96184 0.0
C818 C 0.14615 0.79346 0.98514 0.0
C819 C 0.15074 0.77576 0.99386 0.0
C820 C 0.16285 0.82621 0.98376 0.0
C821 C 0.1572 0.84779 0.97508 0.0
C822 C 0.18557 0.8563 0.96912 0.0
C823 C 0.18027 0.87671 0.96093 0.0
C824 C 0.14674 0.88893 0.95868 0.0
C825 C 0.11846 0.88093 0.96464 0.0
C826 C 0.12364 0.86061 0.97285 0.0
C827 C 0.23108 0.84894 0.02341 0.0
C828 C 0.21838 0.88307 0.02489 0.0
C829 C 0.22192 0.8304 0.01513 0.0
C830 C 0.19874 0.8452 0.00841 0.0
C831 C 0.18698 0.87973 0.00982 0.0
C832 C 0.19702 0.89857 0.0179 0.0
C833 C 0.18444 0.82463 0.00025 0.0
C834 C 0.1827 0.84072 0.99121 0.0
C835 C 0.16872 0.79131 0.00152 0.0
C836 C 0.1675 0.77347 0.01093 0.0
C837 C 0.14978 0.78884 0.01869 0.0
C838 C 0.14883 0.77188 0.02756 0.0
C839 C 0.16521 0.73939 0.02872 0.0
C840 C 0.18245 0.72374 0.02099 0.0
C841 C 0.18352 0.74062 0.01211 0.0
H842 H 0.16445 0.72631 0.03559 0.0
H843 H 0.14269 0.9047 0.95233 0.0
H844 H 0.91757 0.77313 0.98256 0.0
H845 H 0.88773 0.79173 0.99718 0.0
H846 H 0.79366 0.81217 0.981 0.0
H847 H 0.82316 0.79352 0.96633 0.0
H848 H 0.81724 0.86889 0.99184 0.0
H849 H 0.79373 0.74617 0.9963 0.0
H850 H 0.80942 0.68362 0.9974 0.0
H851 H 0.87727 0.70559 0.02119 0.0
H852 H 0.86238 0.76838 0.02014 0.0
H853 H 0.728 0.93345 0.03104 0.0
H854 H 0.73839 0.8917 0.01808 0.0
H855 H 0.83175 0.85524 0.03239 0.0
H856 H 0.82082 0.89604 0.04553 0.0
H857 H 0.80286 0.80307 0.02224 0.0
H858 H 0.83667 0.92242 0.0168 0.0
H859 H 0.82786 0.9864 0.01601 0.0
H860 H 0.74942 0.97254 0.99429 0.0
H861 H 0.75743 0.90839 0.99506 0.0
C862 C 0.89038 0.78111 0.98212 0.0
C863 C 0.87282 0.78212 0.97327 0.0
C864 C 0.87332 0.7915 0.99049 0.0
C865 C 0.83848 0.80314 0.99015 0.0
C866 C 0.82053 0.80314 0.98139 0.0
C867 C 0.83746 0.79247 0.97303 0.0
C868 C 0.82207 0.81865 0.99874 0.0
C869 C 0.81327 0.85429 0.99842 0.0
C870 C 0.81833 0.79984 0.00741 0.0
C871 C 0.8271 0.76204 0.0081 0.0
C872 C 0.81219 0.73772 0.00172 0.0
C873 C 0.82091 0.7022 0.00235 0.0
C874 C 0.84437 0.69065 0.00935 0.0
C875 C 0.8591 0.71458 0.01576 0.0
C876 C 0.85049 0.75013 0.01517 0.0
C877 C 0.75015 0.91578 0.03155 0.0
C878 C 0.77399 0.9184 0.03918 0.0
C879 C 0.75608 0.892 0.02415 0.0
C880 C 0.78638 0.87114 0.02416 0.0
C881 C 0.80833 0.87127 0.03222 0.0
C882 C 0.80208 0.89467 0.03972 0.0
C883 C 0.7978 0.85322 0.01529 0.0
C884 C 0.80606 0.81739 0.01559 0.0
C885 C 0.802 0.87202 0.00662 0.0
C886 C 0.79734 0.9106 0.00607 0.0
C887 C 0.81737 0.93301 0.0119 0.0
C888 C 0.81254 0.9693 0.01145 0.0
C889 C 0.78802 0.98352 0.00512 0.0
C890 C 0.76836 0.96147 -0.0008 0.0
C891 C 0.77303 0.92515 -0.00036 0.0
H892 H 0.78432 0.01162 0.00479 0.0
H893 H 0.85109 0.66314 0.00982 0.0
H894 H 0.81263 0.05623 0.02207 0.0
H895 H 0.83487 0.08368 0.00747 0.0
H896 H 0.80108 0.18481 0.01769 0.0
H897 H 0.77928 0.15771 0.03244 0.0
H898 H 0.78624 0.16852 0.99722 0.0
H899 H 0.87885 0.16969 0.02092 0.0
H900 H 0.92021 0.14459 0.03262 0.0
H901 H 0.96372 0.0784 0.0108 0.0
H902 H 0.92211 0.10258 -0.001 0.0
H903 H 0.94892 0.2522 0.97203 0.0
H904 H 0.9114 0.23727 0.98556 0.0
H905 H 0.85903 0.1592 0.96843 0.0
H906 H 0.89676 0.17367 0.95483 0.0
H907 H 0.91518 0.16809 0.99269 0.0
H908 H 0.77331 0.15327 0.9789 0.0
H909 H 0.73395 0.18022 0.96697 0.0
H910 H 0.79113 0.27684 0.96894 0.0
H911 H 0.83049 0.25066 0.98097 0.0
C912 C 0.80955 0.08426 0.02118 0.0
C913 C 0.79439 0.10488 0.02843 0.0
C914 C 0.8223 0.09985 0.01284 0.0
C915 C 0.81966 0.13619 0.01156 0.0
C916 C 0.80324 0.15668 0.01858 0.0
C917 C 0.79099 0.1412 0.027 0.0
C918 C 0.83598 0.153 0.00317 0.0
C919 C 0.81442 0.16847 0.9962 0.0
C920 C 0.87273 0.15301 0.00193 0.0
C921 C 0.89698 0.13761 0.00911 0.0
C922 C 0.89683 0.14938 0.01865 0.0
C923 C 0.92043 0.13541 0.02529 0.0
C924 C 0.94453 0.10988 0.02246 0.0
C925 C 0.94498 0.09812 0.01299 0.0
C926 C 0.92138 0.11194 0.00632 0.0
C927 C 0.9289 0.23241 0.97105 0.0
C928 C 0.92618 0.21372 0.9624 0.0
C929 C 0.90749 0.22395 0.97879 0.0
C930 C 0.88269 0.19705 0.97798 0.0
C931 C 0.87794 0.18021 0.96915 0.0
C932 C 0.89954 0.1885 0.96139 0.0
C933 C 0.86552 0.18344 0.98669 0.0
C934 C 0.88698 0.16825 0.9937 0.0
C935 C 0.82879 0.18369 0.98793 0.0
C936 C 0.80507 0.19984 0.98076 0.0
C937 C 0.77741 0.1803 0.97681 0.0
C938 C 0.7551 0.19544 0.97002 0.0
C939 C 0.76011 0.23018 0.96717 0.0
C940 C 0.78737 0.24989 0.97112 0.0
C941 C 0.80973 0.23488 0.97791 0.0
H942 H 0.74282 0.24185 0.96192 0.0
H943 H 0.96293 0.09927 0.02759 0.0
H944 H 0.59345 0.76354 0.76631 0.0
H945 H 0.62747 0.78344 0.75254 0.0
H946 H 0.7136 0.80994 0.77118 0.0
H947 H 0.67987 0.78987 0.78501 0.0
H948 H 0.68906 0.86545 0.76017 0.0
H949 H 0.72594 0.74734 0.75543 0.0
H950 H 0.71864 0.68348 0.7537 0.0
H951 H 0.6553 0.6992 0.72866 0.0
H952 H 0.66177 0.76322 0.73031 0.0
H953 H 0.77551 0.94361 0.72205 0.0
H954 H 0.76851 0.89996 0.7347 0.0
H955 H 0.68026 0.85559 0.71967 0.0
H956 H 0.68775 0.89855 0.70685 0.0
H957 H 0.71531 0.80545 0.72948 0.0
H958 H 0.66807 0.9204 0.73568 0.0
H959 H 0.67041 0.98474 0.73725 0.0
H960 H 0.74716 0.97515 0.75958 0.0
H961 H 0.74571 0.91073 0.75802 0.0
C962 C 0.61989 0.77294 0.76747 0.0
C963 C 0.63382 0.77551 0.77676 0.0
C964 C 0.63938 0.78406 0.75958 0.0
C965 C 0.67304 0.79805 0.76086 0.0
C966 C 0.68769 0.79907 0.77006 0.0
C967 C 0.66837 0.78759 0.77795 0.0
C968 C 0.69065 0.8159 0.7528 0.0
C969 C 0.69573 0.85217 0.75355 0.0
C970 C 0.69811 0.79865 0.74408 0.0
C971 C 0.69417 0.76014 0.74304 0.0
C972 C 0.71021 0.73722 0.7496 0.0
C973 C 0.70626 0.70097 0.74862 0.0
C974 C 0.68647 0.68729 0.74108 0.0
C975 C 0.67062 0.70984 0.73449 0.0
C976 C 0.67447 0.74611 0.73544 0.0
C977 C 0.75518 0.92398 0.72133 0.0
C978 C 0.7317 0.92487 0.71358 0.0
C979 C 0.75123 0.89907 0.72855 0.0
C980 C 0.72332 0.87516 0.72823 0.0
C981 C 0.70186 0.87395 0.72007 0.0
C982 C 0.7061 0.89859 0.71277 0.0
C983 C 0.7135 0.85496 0.73686 0.0
C984 C 0.70954 0.81847 0.7362 0.0
C985 C 0.70636 0.87204 0.74565 0.0
C986 C 0.70714 0.91078 0.74664 0.0
C987 C 0.68566 0.93203 0.74087 0.0
C988 C 0.6868 0.96851 0.74176 0.0
C989 C 0.70902 0.98404 0.74848 0.0
C990 C 0.73005 0.96311 0.75435 0.0
C991 C 0.72909 0.92661 0.75347 0.0
H992 H 0.70987 0.01229 0.74916 0.0
H993 H 0.68345 0.65922 0.74034 0.0
H994 H 0.79115 0.42424 0.2296 0.0
H995 H 0.8105 0.39168 0.24357 0.0
H996 H 0.77122 0.29587 0.23108 0.0
H997 H 0.75377 0.32834 0.2167 0.0
H998 H 0.78705 0.35539 0.25706 0.0
H999 H 0.82214 0.22776 0.23759 0.0
H1000 H 0.83601 0.20639 0.22133 0.0
H1001 H 0.87637 0.30775 0.2138 0.0
H1002 H 0.86306 0.32955 0.23003 0.0
H1003 H 0.88406 0.26422 0.29271 0.0
H1004 H 0.83877 0.2736 0.28049 0.0
H1005 H 0.91938 0.28832 0.25917 0.0
H1006 H 0.96406 0.27691 0.2711 0.0
H1007 H 0.86995 0.25779 0.25104 0.0
H1008 H 0.87611 0.35865 0.27239 0.0
H1009 H 0.87171 0.38861 0.288 0.0
H1010 H 0.76474 0.35517 0.29069 0.0
H1011 H 0.76867 0.32472 0.27513 0.0
C1012 C 0.78624 0.39629 0.22986 0.0
C1013 C 0.77138 0.37873 0.22201 0.0
C1014 C 0.79717 0.37765 0.2379 0.0
C1015 C 0.79291 0.34112 0.23835 0.0
C1016 C 0.77565 0.32388 0.23081 0.0
C1017 C 0.76555 0.34244 0.22261 0.0
C1018 C 0.80945 0.32142 0.24636 0.0
C1019 C 0.8049 0.33378 0.25575 0.0
C1020 C 0.83284 0.29323 0.2447 0.0
C1021 C 0.84114 0.28036 0.23496 0.0
C1022 C 0.83399 0.24543 0.23245 0.0
C1023 C 0.84176 0.23326 0.22325 0.0
C1024 C 0.85691 0.25575 0.21653 0.0
C1025 C 0.8645 0.29041 0.219 0.0
C1026 C 0.85684 0.30268 0.2282 0.0
C1027 C 0.89192 0.26892 0.28537 0.0
C1028 C 0.92756 0.27009 0.28287 0.0
C1029 C 0.86607 0.27443 0.2784 0.0
C1030 C 0.87557 0.28232 0.26891 0.0
C1031 C 0.91118 0.28214 0.2664 0.0
C1032 C 0.93683 0.27577 0.27326 0.0
C1033 C 0.84931 0.29333 0.26163 0.0
C1034 C 0.85153 0.27888 0.2524 0.0
C1035 C 0.8252 0.32086 0.26334 0.0
C1036 C 0.82283 0.33905 0.27268 0.0
C1037 C 0.85174 0.35752 0.27635 0.0
C1038 C 0.84932 0.37461 0.28518 0.0
C1039 C 0.818 0.37368 0.29035 0.0
C1040 C 0.78901 0.35577 0.28669 0.0
C1041 C 0.79131 0.3386 0.27787 0.0
H1042 H 0.81617 0.38693 0.29718 0.0
H1043 H 0.86287 0.24628 0.2094 0.0
H1044 H 0.29104 0.10425 0.70315 0.0
H1045 H 0.30398 0.14503 0.71619 0.0
H1046 H 0.23787 0.08523 0.73514 0.0
H1047 H 0.22476 0.04439 0.72219 0.0
H1048 H 0.26779 0.18556 0.73176 0.0
H1049 H 0.29288 0.06102 0.753 0.0
H1050 H 0.30181 0.99773 0.75021 0.0
H1051 H 0.35119 0.02007 0.72328 0.0
H1052 H 0.34304 0.08345 0.72599 0.0
H1053 H 0.32521 0.21633 0.78096 0.0
H1054 H 0.29377 0.19639 0.76663 0.0
H1055 H 0.39216 0.17259 0.75294 0.0
H1056 H 0.42375 0.19268 0.76708 0.0
H1057 H 0.34331 0.11625 0.75368 0.0
H1058 H 0.35055 0.23852 0.74498 0.0
H1059 H 0.34129 0.30183 0.74743 0.0
H1060 H 0.23013 0.28541 0.74891 0.0
H1061 H 0.23878 0.22188 0.74661 0.0
C1062 C 0.27823 0.10049 0.70999 0.0
C1063 C 0.25768 0.0706 0.71173 0.0
C1064 C 0.28549 0.12396 0.71741 0.0
C1065 C 0.27228 0.11769 0.72662 0.0
C1066 C 0.24845 0.09027 0.72807 0.0
C1067 C 0.2412 0.06685 0.72068 0.0
C1068 C 0.28895 0.13459 0.73496 0.0
C1069 C 0.28412 0.17051 0.7366 0.0
C1070 C 0.31055 0.11483 0.74118 0.0
C1071 C 0.31702 0.07689 0.73966 0.0
C1072 C 0.30584 0.05239 0.74652 0.0
C1073 C 0.31073 0.01652 0.74495 0.0
C1074 C 0.32693 0.00488 0.73656 0.0
C1075 C 0.33853 0.02911 0.72976 0.0
C1076 C 0.33378 0.06499 0.73131 0.0
C1077 C 0.34015 0.20724 0.77485 0.0
C1078 C 0.37698 0.20587 0.77518 0.0
C1079 C 0.32215 0.19602 0.76668 0.0
C1080 C 0.34074 0.18304 0.75878 0.0
C1081 C 0.37743 0.18254 0.75899 0.0
C1082 C 0.39541 0.19408 0.76708 0.0
C1083 C 0.32221 0.16737 0.75055 0.0
C1084 C 0.32672 0.13143 0.74892 0.0
C1085 C 0.30056 0.18723 0.74437 0.0
C1086 C 0.29535 0.2254 0.74573 0.0
C1087 C 0.32416 0.24835 0.74593 0.0
C1088 C 0.31901 0.2843 0.74726 0.0
C1089 C 0.28515 0.29763 0.74835 0.0
C1090 C 0.25635 0.27504 0.74808 0.0
C1091 C 0.26136 0.23907 0.74675 0.0
H1092 H 0.28122 0.32546 0.74938 0.0
H1093 H 0.33055 0.9771 0.73533 0.0
H1094 H 0.25254 0.60472 0.22979 0.0
H1095 H 0.23382 0.63301 0.24459 0.0
H1096 H 0.17048 0.7054 0.22836 0.0
H1097 H 0.19008 0.67779 0.21344 0.0
H1098 H 0.19642 0.73574 0.24491 0.0
H1099 H 0.13517 0.63041 0.23575 0.0
H1100 H 0.13111 0.56838 0.23092 0.0
H1101 H 0.17975 0.53709 0.2573 0.0
H1102 H 0.18458 0.59904 0.26222 0.0
H1103 H 0.04708 0.75671 0.27497 0.0
H1104 H 0.09201 0.74866 0.26275 0.0
H1105 H 0.14852 0.67908 0.28158 0.0
H1106 H 0.10349 0.68678 0.29385 0.0
H1107 H 0.13244 0.64876 0.26471 0.0
H1108 H 0.18482 0.75599 0.27476 0.0
H1109 H 0.18666 0.81846 0.27921 0.0
H1110 H 0.15146 0.84703 0.25107 0.0
H1111 H 0.1489 0.78468 0.24648 0.0
C1112 C 0.23534 0.62725 0.22936 0.0
C1113 C 0.22223 0.63871 0.22049 0.0
C1114 C 0.2247 0.6434 0.23782 0.0
C1115 C 0.20011 0.67071 0.23757 0.0
C1116 C 0.18937 0.68425 0.22869 0.0
C1117 C 0.2005 0.66842 0.22018 0.0
C1118 C 0.18204 0.6815 0.24648 0.0
C1119 C 0.18228 0.71686 0.24924 0.0
C1120 C 0.16401 0.65667 0.25218 0.0
C1121 C 0.1606 0.61936 0.2493 0.0
C1122 C 0.1452 0.61031 0.24049 0.0
C1123 C 0.14275 0.57517 0.23774 0.0
C1124 C 0.15527 0.54881 0.24379 0.0
C1125 C 0.17013 0.55754 0.25262 0.0
C1126 C 0.17273 0.59266 0.25539 0.0
C1127 C 0.06945 0.74028 0.2766 0.0
C1128 C 0.07148 0.72196 0.28532 0.0
C1129 C 0.09527 0.73592 0.26963 0.0
C1130 C 0.1236 0.71328 0.27126 0.0
C1131 C 0.12683 0.69669 0.28019 0.0
C1132 C 0.10109 0.70115 0.28719 0.0
C1133 C 0.14677 0.70311 0.26322 0.0
C1134 C 0.14715 0.66771 0.26053 0.0
C1135 C 0.1649 0.72802 0.25758 0.0
C1136 C 0.16642 0.76559 0.2603 0.0
C1137 C 0.17718 0.77556 0.26954 0.0
C1138 C 0.17841 0.81097 0.27209 0.0
C1139 C 0.16912 0.8367 0.26544 0.0
C1140 C 0.15864 0.82707 0.25622 0.0
C1141 C 0.15734 0.79169 0.25364 0.0
H1142 H 0.17009 0.8641 0.26742 0.0
H1143 H 0.15339 0.52162 0.24164 0.0
H1144 H 0.67937 0.59034 0.54261 0.0
H1145 H 0.66323 0.63186 0.53003 0.0
H1146 H 0.74651 0.59243 0.51219 0.0
H1147 H 0.7623 0.55 0.52464 0.0
H1148 H 0.73492 0.66962 0.51178 0.0
H1149 H 0.67675 0.55889 0.50813 0.0
H1150 H 0.64025 0.5079 0.5123 0.0
H1151 H 0.55276 0.57576 0.51774 0.0
H1152 H 0.58906 0.62732 0.51385 0.0
H1153 H 0.66887 0.70717 0.46467 0.0
H1154 H 0.69593 0.68542 0.47939 0.0
H1155 H 0.60122 0.70861 0.495 0.0
H1156 H 0.57381 0.72985 0.48034 0.0
H1157 H 0.61985 0.64215 0.49706 0.0
H1158 H 0.67747 0.75311 0.49939 0.0
H1159 H 0.71333 0.80279 0.4938 0.0
H1160 H 0.80123 0.73409 0.48983 0.0
H1161 H 0.76575 0.68387 0.49526 0.0
C1162 C 0.69475 0.59094 0.5361 0.0
C1163 C 0.72175 0.56654 0.53454 0.0
C1164 C 0.68546 0.61468 0.52893 0.0
C1165 C 0.7035 0.61486 0.52018 0.0
C1166 C 0.73231 0.59256 0.5189 0.0
C1167 C 0.74118 0.5683 0.526 0.0
C1168 C 0.68996 0.6356 0.51206 0.0
C1169 C 0.70987 0.66362 0.5085 0.0
C1170 C 0.65707 0.62785 0.50791 0.0
C1171 C 0.63584 0.59706 0.51084 0.0
C1172 C 0.64996 0.56305 0.5104 0.0
C1173 C 0.62923 0.534 0.51265 0.0
C1174 C 0.59417 0.53858 0.51524 0.0
C1175 C 0.57988 0.57225 0.51569 0.0
C1176 C 0.60057 0.6014 0.51351 0.0
C1177 C 0.65404 0.70832 0.47128 0.0
C1178 C 0.619 0.71977 0.47131 0.0
C1179 C 0.66963 0.69603 0.4797 0.0
C1180 C 0.65056 0.69537 0.48829 0.0
C1181 C 0.61634 0.70877 0.48844 0.0
C1182 C 0.60071 0.72086 0.48004 0.0
C1183 C 0.66442 0.67676 0.4968 0.0
C1184 C 0.64465 0.64874 0.50041 0.0
C1185 C 0.6974 0.68451 0.50092 0.0
C1186 C 0.71883 0.71465 0.49765 0.0
C1187 C 0.70436 0.74852 0.49724 0.0
C1188 C 0.72464 0.7768 0.49412 0.0
C1189 C 0.75951 0.77159 0.49144 0.0
C1190 C 0.7742 0.73809 0.4919 0.0
C1191 C 0.75403 0.70971 0.49501 0.0
H1192 H 0.77517 0.79352 0.48903 0.0
H1193 H 0.57811 0.51604 0.51693 0.0
H1194 H 0.59444 0.31899 0.4565 0.0
H1195 H 0.638 0.32874 0.46902 0.0
H1196 H 0.59268 0.24512 0.48574 0.0
H1197 H 0.54852 0.23581 0.47334 0.0
H1198 H 0.59516 0.30276 0.49575 0.0
H1199 H 0.67721 0.24006 0.47654 0.0
H1200 H 0.70997 0.22468 0.46192 0.0
H1201 H 0.75526 0.32763 0.46121 0.0
H1202 H 0.72239 0.34383 0.47575 0.0
H1203 H 0.71038 0.3253 0.53422 0.0
H1204 H 0.68846 0.29595 0.51988 0.0
H1205 H 0.71108 0.38798 0.50309 0.0
H1206 H 0.73284 0.4178 0.5174 0.0
H1207 H 0.72365 0.32059 0.49339 0.0
H1208 H 0.63511 0.38498 0.51091 0.0
H1209 H 0.60236 0.40136 0.52545 0.0
H1210 H 0.56905 0.29465 0.52899 0.0
H1211 H 0.60213 0.27756 0.51453 0.0
C1212 C 0.59428 0.3021 0.46273 0.0
C1213 C 0.56776 0.27697 0.46401 0.0
C1214 C 0.61934 0.30759 0.46988 0.0
C1215 C 0.61861 0.28767 0.47833 0.0
C1216 C 0.59363 0.26091 0.47929 0.0
C1217 C 0.56841 0.25562 0.4722 0.0
C1218 C 0.64057 0.29782 0.48665 0.0
C1219 C 0.62337 0.30578 0.49526 0.0
C1220 C 0.67725 0.30287 0.48595 0.0
C1221 C 0.69709 0.29324 0.4772 0.0
C1222 C 0.69393 0.25953 0.47322 0.0
C1223 C 0.71257 0.25064 0.46496 0.0
C1224 C 0.73462 0.27518 0.46063 0.0
C1225 C 0.73815 0.30865 0.46457 0.0
C1226 C 0.71955 0.31768 0.47283 0.0
C1227 C 0.71147 0.33909 0.52745 0.0
C1228 C 0.72285 0.3741 0.52698 0.0
C1229 C 0.69899 0.32222 0.51927 0.0
C1230 C 0.69796 0.33996 0.51048 0.0
C1231 C 0.71179 0.37389 0.50982 0.0
C1232 C 0.72396 0.39094 0.51802 0.0
C1233 C 0.67808 0.32511 0.50236 0.0
C1234 C 0.69555 0.31673 0.49383 0.0
C1235 C 0.64156 0.31967 0.50307 0.0
C1236 C 0.62145 0.32992 0.51172 0.0
C1237 C 0.62108 0.36496 0.51484 0.0
C1238 C 0.60241 0.37438 0.52306 0.0
C1239 C 0.58373 0.34903 0.52816 0.0
C1240 C 0.5836 0.31424 0.52504 0.0
C1241 C 0.6023 0.30467 0.51683 0.0
H1242 H 0.56928 0.35638 0.53452 0.0
H1243 H 0.74903 0.26825 0.45423 0.0
H1244 H 0.30342 0.39939 0.5444 0.0
H1245 H 0.3175 0.35234 0.53316 0.0
H1246 H 0.25149 0.40049 0.51182 0.0
H1247 H 0.23726 0.44765 0.52299 0.0
H1248 H 0.25194 0.325 0.5112 0.0
H1249 H 0.33183 0.42479 0.51187 0.0
H1250 H 0.37116 0.46638 0.52007 0.0
H1251 H 0.43484 0.38088 0.52994 0.0
H1252 H 0.39557 0.33876 0.52187 0.0
H1253 H 0.32835 0.29813 0.46573 0.0
H1254 H 0.30039 0.31524 0.4807 0.0
H1255 H 0.38828 0.27392 0.49656 0.0
H1256 H 0.41702 0.258 0.48156 0.0
H1257 H 0.37682 0.33689 0.50187 0.0
H1258 H 0.30286 0.23766 0.49794 0.0
H1259 H 0.26321 0.19698 0.48953 0.0
H1260 H 0.18826 0.27971 0.48568 0.0
H1261 H 0.22765 0.32104 0.49394 0.0
C1262 C 0.29109 0.39946 0.53741 0.0
C1263 C 0.26978 0.42756 0.5345 0.0
C1264 C 0.29914 0.37253 0.53101 0.0
C1265 C 0.28585 0.37328 0.52165 0.0
C1266 C 0.26198 0.3995 0.51903 0.0
C1267 C 0.2541 0.42655 0.5254 0.0
C1268 C 0.301 0.35052 0.51416 0.0
C1269 C 0.27922 0.32738 0.50912 0.0
C1270 C 0.33673 0.35335 0.51163 0.0
C1271 C 0.36057 0.37864 0.51637 0.0
C1272 C 0.35408 0.41487 0.51584 0.0
C1273 C 0.37637 0.43853 0.52046 0.0
C1274 C 0.40541 0.42627 0.52556 0.0
C1275 C 0.41229 0.39033 0.52601 0.0
C1276 C 0.39005 0.36656 0.52141 0.0
C1277 C 0.3414 0.29203 0.47241 0.0
C1278 C 0.37506 0.27708 0.47247 0.0
C1279 C 0.32525 0.3016 0.48099 0.0
C1280 C 0.34209 0.29567 0.48979 0.0
C1281 C 0.37481 0.27884 0.48987 0.0
C1282 C 0.39122 0.26978 0.48129 0.0
C1283 C 0.3278 0.3111 0.49873 0.0
C1284 C 0.34974 0.33337 0.50404 0.0
C1285 C 0.29224 0.30732 0.50147 0.0
C1286 C 0.26835 0.28252 0.49652 0.0
C1287 C 0.27803 0.24725 0.49524 0.0
C1288 C 0.25557 0.22406 0.49051 0.0
C1289 C 0.22326 0.23577 0.48706 0.0
C1290 C 0.2133 0.27068 0.48836 0.0
C1291 C 0.23566 0.29399 0.49308 0.0
H1292 H 0.20592 0.21777 0.4834 0.0
H1293 H 0.42262 0.44462 0.52913 0.0
H1294 H 0.25379 0.58069 0.51495 0.0
H1295 H 0.2714 0.60746 0.49981 0.0
H1296 H 0.31879 0.69326 0.51522 0.0
H1297 H 0.30007 0.66733 0.53036 0.0
H1298 H 0.29255 0.71636 0.49886 0.0
H1299 H 0.36593 0.61939 0.50861 0.0
H1300 H 0.37777 0.55822 0.51333 0.0
H1301 H 0.33705 0.52197 0.48644 0.0
H1302 H 0.32451 0.58294 0.48161 0.0
H1303 H 0.44403 0.759 0.472 0.0
H1304 H 0.3979 0.74301 0.48327 0.0
H1305 H 0.35611 0.66926 0.46283 0.0
H1306 H 0.40233 0.685 0.45151 0.0
H1307 H 0.37072 0.63916 0.47987 0.0
H1308 H 0.30813 0.7401 0.4693 0.0
H1309 H 0.30001 0.80229 0.46505 0.0
H1310 H 0.32491 0.83252 0.49387 0.0
H1311 H 0.33368 0.77055 0.49827 0.0
C1312 C 0.26736 0.60561 0.5151 0.0
C1313 C 0.27605 0.62165 0.52385 0.0
C1314 C 0.27746 0.62085 0.50644 0.0
C1315 C 0.2972 0.65189 0.50639 0.0
C1316 C 0.30372 0.6692 0.51508 0.0
C1317 C 0.29309 0.65429 0.52374 0.0
C1318 C 0.31412 0.66445 0.49747 0.0
C1319 C 0.3097 0.69955 0.49471 0.0
C1320 C 0.33602 0.6423 0.49195 0.0
C1321 C 0.34387 0.60566 0.4948 0.0
C1322 C 0.35929 0.59835 0.50373 0.0
C1323 C 0.36614 0.56372 0.50642 0.0
C1324 C 0.35805 0.53621 0.5002 0.0
C1325 C 0.34321 0.54329 0.49126 0.0
C1326 C 0.33623 0.57787 0.48854 0.0
C1327 C 0.42455 0.73995 0.46981 0.0
C1328 C 0.42695 0.72309 0.46089 0.0
C1329 C 0.39806 0.731 0.47625 0.0
C1330 C 0.37348 0.70506 0.47387 0.0
C1331 C 0.37474 0.68946 0.46478 0.0
C1332 C 0.40112 0.69857 0.45831 0.0
C1333 C 0.34959 0.69124 0.48132 0.0
C1334 C 0.35291 0.65584 0.48386 0.0
C1335 C 0.32719 0.71329 0.48669 0.0
C1336 C 0.32175 0.75063 0.4841 0.0
C1337 C 0.31212 0.76001 0.47472 0.0
C1338 C 0.30736 0.79523 0.47229 0.0
C1339 C 0.31199 0.82134 0.47919 0.0
C1340 C 0.32132 0.81227 0.48854 0.0
C1341 C 0.32613 0.77709 0.49101 0.0
H1342 H 0.3083 0.84859 0.47729 0.0
H1343 H 0.36335 0.50942 0.5023 0.0
H1344 H 0.02862 0.12039 0.29587 0.0
H1345 H 0.00956 0.06063 0.29942 0.0
H1346 H 0.02158 0.08048 0.32966 0.0
H1347 H 0.04076 0.14074 0.32608 0.0
H1348 H 0.04564 0.01287 0.32344 0.0
H1349 H 0.9434 0.0842 0.32173 0.0
H1350 H 0.90537 0.12972 0.31473 0.0
H1351 H 0.89312 0.06793 0.28926 0.0
H1352 H 0.93164 0.02231 0.29602 0.0
H1353 H 0.95482 0.84798 0.32765 0.0
H1354 H 0.96646 0.91059 0.33061 0.0
H1355 H 0.96344 0.93002 0.30016 0.0
H1356 H 0.95195 0.86787 0.29726 0.0
H1357 H 0.92852 0.98075 0.31069 0.0
H1358 H 0.03946 0.91739 0.31086 0.0
H1359 H 0.0803 0.87257 0.31697 0.0
H1360 H 0.07699 0.91969 0.34487 0.0
H1361 H 0.03566 0.96452 0.33895 0.0
C1362 C 0.02735 0.11185 0.30326 0.0
C1363 C 0.03542 0.13497 0.31073 0.0
C1364 C 0.01653 0.07787 0.30528 0.0
C1365 C 0.01354 0.06656 0.3148 0.0
C1366 C 0.02352 0.08897 0.32228 0.0
C1367 C 0.03441 0.12316 0.32024 0.0
C1368 C 0.9984 0.03177 0.31677 0.0
C1369 C 0.01968 0.00595 0.3209 0.0
C1370 C 0.96461 0.02295 0.31338 0.0
C1371 C 0.94054 0.04986 0.30938 0.0
C1372 C 0.93273 0.08037 0.31462 0.0
C1373 C 0.91109 0.10621 0.31069 0.0
C1374 C 0.89686 0.10173 0.30156 0.0
C1375 C 0.90415 0.07135 0.29634 0.0
C1376 C 0.92585 0.04546 0.30022 0.0
C1377 C 0.95631 0.86592 0.32166 0.0
C1378 C 0.95288 0.85357 0.31225 0.0
C1379 C 0.96294 0.90143 0.32333 0.0
C1380 C 0.96593 0.92473 0.31559 0.0
C1381 C 0.9611 0.91242 0.30622 0.0
C1382 C 0.95477 0.87705 0.30456 0.0
C1383 C 0.97625 0.96159 0.31703 0.0
C1384 C 0.954 0.98786 0.31353 0.0
C1385 C 0.00916 0.97075 0.32096 0.0
C1386 C 0.03414 0.94398 0.3245 0.0
C1387 C 0.04721 0.918 0.31832 0.0
C1388 C 0.07048 0.89263 0.32174 0.0
C1389 C 0.08114 0.89321 0.33131 0.0
C1390 C 0.06864 0.91922 0.33747 0.0
C1391 C 0.04529 0.94461 0.33408 0.0
H1392 H 0.09918 0.87355 0.33395 0.0
H1393 H 0.88015 0.12179 0.29852 0.0
H1394 H 0.15303 0.00893 0.67531 0.0
H1395 H 0.09227 0.0252 0.67175 0.0
H1396 H 0.05793 0.92213 0.68024 0.0
H1397 H 0.11856 0.90613 0.6841 0.0
H1398 H 0.02006 0.95854 0.66324 0.0
H1399 H 0.05482 0.97097 0.69699 0.0
H1400 H 0.09544 0.99171 0.70951 0.0
H1401 H 0.08422 0.09734 0.69936 0.0
H1402 H 0.04379 0.07709 0.6867 0.0
H1403 H 0.84694 0.97957 0.68055 0.0
H1404 H 0.90748 0.96511 0.67652 0.0
H1405 H 0.93628 0.07392 0.67979 0.0
H1406 H 0.87643 0.08774 0.68465 0.0
H1407 H 0.97907 0.03773 0.68911 0.0
H1408 H 0.93555 0.02811 0.65727 0.0
H1409 H 0.89618 0.00879 0.64431 0.0
H1410 H 0.92424 0.90159 0.64966 0.0
H1411 H 0.96342 0.92021 0.66275 0.0
C1412 C 0.13254 0.98956 0.67619 0.0
C1413 C 0.14015 0.95648 0.68005 0.0
C1414 C 0.09803 0.99876 0.6741 0.0
C1415 C 0.07086 0.97482 0.67576 0.0
C1416 C 0.07874 0.94075 0.67884 0.0
C1417 C 0.11325 0.93169 0.68105 0.0
C1418 C 0.03432 0.98715 0.67592 0.0
C1419 C 0.01079 0.97574 0.66888 0.0
C1420 C 0.02286 0.01024 0.68316 0.0
C1421 C 0.04661 0.0225 0.69086 0.0
C1422 C 0.0612 0.99858 0.6974 0.0
C1423 C 0.08409 0.01025 0.70453 0.0
C1424 C 0.09245 0.04582 0.70522 0.0
C1425 C 0.07777 0.0698 0.69881 0.0
C1426 C 0.05482 0.05825 0.69166 0.0
C1427 C 0.86626 0.00035 0.68037 0.0
C1428 C 0.85716 0.03468 0.68297 0.0
C1429 C 0.90074 0.9922 0.67791 0.0
C1430 C 0.92649 0.01849 0.67773 0.0
C1431 C 0.91692 0.05317 0.67987 0.0
C1432 C 0.88264 0.06113 0.68255 0.0
C1433 C 0.96394 0.00927 0.67639 0.0
C1434 C 0.98793 0.02108 0.6833 0.0
C1435 C 0.97569 0.9869 0.66894 0.0
C1436 C 0.95226 0.97557 0.66104 0.0
C1437 C 0.93315 0.0004 0.65573 0.0
C1438 C 0.91089 0.98957 0.64835 0.0
C1439 C 0.90766 0.95398 0.64617 0.0
C1440 C 0.92676 0.92915 0.65136 0.0
C1441 C 0.94904 0.93983 0.65875 0.0
H1442 H 0.89041 0.94565 0.64046 0.0
H1443 H 0.11029 0.05479 0.71072 0.0
H1444 H 0.95699 0.61953 0.95178 0.0
H1445 H 0.9751 0.56006 0.94757 0.0
H1446 H 0.96471 0.58497 0.91756 0.0
H1447 H 0.94663 0.64504 0.92181 0.0
H1448 H 0.93945 0.51489 0.92361 0.0
H1449 H 0.04124 0.58716 0.92469 0.0
H1450 H 0.07924 0.63303 0.93151 0.0
H1451 H 0.09407 0.57111 0.95686 0.0
H1452 H 0.05558 0.52514 0.95028 0.0
H1453 H 0.03507 0.35172 0.91861 0.0
H1454 H 0.02156 0.41409 0.91581 0.0
H1455 H 0.02186 0.43213 0.94632 0.0
H1456 H 0.03476 0.37011 0.94908 0.0
H1457 H 0.05804 0.48373 0.93554 0.0
H1458 H 0.94768 0.41936 0.93602 0.0
H1459 H 0.90687 0.37416 0.93012 0.0
H1460 H 0.90751 0.42152 0.90223 0.0
H1461 H 0.94884 0.46671 0.90794 0.0
C1462 C 0.95828 0.61215 0.9443 0.0
C1463 C 0.95114 0.63666 0.93709 0.0
C1464 C 0.96852 0.57832 0.9419 0.0
C1465 C 0.97175 0.56853 0.93227 0.0
C1466 C 0.96248 0.59228 0.92503 0.0
C1467 C 0.95225 0.62637 0.92745 0.0
C1468 C 0.98713 0.53413 0.92997 0.0
C1469 C 0.96573 0.50819 0.92595 0.0
C1470 C 0.02132 0.52562 0.9331 0.0
C1471 C 0.04539 0.55273 0.93699 0.0
C1472 C 0.05246 0.58338 0.93174 0.0
C1473 C 0.07408 0.60942 0.93557 0.0
C1474 C 0.08904 0.605 0.94462 0.0
C1475 C 0.08248 0.57448 0.94985 0.0
C1476 C 0.06079 0.5484 0.94606 0.0
C1477 C 0.03246 0.36929 0.92466 0.0
C1478 C 0.03554 0.35658 0.93404 0.0
C1479 C 0.02481 0.40465 0.92307 0.0
C1480 C 0.0207 0.42748 0.93087 0.0
C1481 C 0.02508 0.41485 0.94022 0.0
C1482 C 0.03221 0.37957 0.9418 0.0
C1483 C 0.00996 0.46423 0.92949 0.0
C1484 C 0.03227 0.49064 0.93286 0.0
C1485 C 0.97664 0.4731 0.92577 0.0
C1486 C 0.95171 0.44608 0.92236 0.0
C1487 C 0.93939 0.41992 0.92861 0.0
C1488 C 0.91612 0.39435 0.9253 0.0
C1489 C 0.9047 0.39489 0.9158 0.0
C1490 C 0.91646 0.42108 0.90958 0.0
C1491 C 0.93981 0.44667 0.91285 0.0
H1492 H 0.88666 0.37509 0.91326 0.0
H1493 H 0.10573 0.62521 0.94758 0.0
H1494 H 0.62224 0.09025 0.06133 0.0
H1495 H 0.56068 0.07646 0.0647 0.0
H1496 H 0.59083 0.97366 0.07452 0.0
H1497 H 0.65254 0.98789 0.07158 0.0
H1498 H 0.54196 0.98352 0.057 0.0
H1499 H 0.56028 0.01328 0.09031 0.0
H1500 H 0.5786 0.05248 0.10341 0.0
H1501 H 0.50284 0.12895 0.09445 0.0
H1502 H 0.48444 0.09041 0.08119 0.0
H1503 H 0.37518 0.91539 0.06209 0.0
H1504 H 0.43543 0.92981 0.06632 0.0
H1505 H 0.40716 0.03901 0.06876 0.0
H1506 H 0.346 0.02408 0.0654 0.0
H1507 H 0.45623 0.02556 0.08111 0.0
H1508 H 0.44047 0.00388 0.04772 0.0
H1509 H 0.42214 0.97102 0.03337 0.0
H1510 H 0.49307 0.8878 0.04064 0.0
H1511 H 0.51146 0.91996 0.05512 0.0
C1512 C 0.61578 0.06525 0.06454 0.0
C1513 C 0.64186 0.04003 0.06619 0.0
C1514 C 0.58075 0.0574 0.06644 0.0
C1515 C 0.57154 0.02415 0.06988 0.0
C1516 C 0.59769 -0.00048 0.07193 0.0
C1517 C 0.63272 0.00758 0.0702 0.0
C1518 C 0.5346 0.01333 0.06991 0.0
C1519 C 0.52324 0.99208 0.06237 0.0
C1520 C 0.51032 0.02598 0.0767 0.0
C1521 C 0.52125 0.0491 0.08469 0.0
C1522 C 0.54778 0.0386 0.09107 0.0
C1523 C 0.55812 0.06067 0.09854 0.0
C1524 C 0.54196 0.09323 0.09975 0.0
C1525 C 0.51536 0.10374 0.0935 0.0
C1526 C 0.50495 0.08178 0.08601 0.0
C1527 C 0.38155 0.94228 0.06385 0.0
C1528 C 0.35607 0.96871 0.06335 0.0
C1529 C 0.41608 0.95057 0.06614 0.0
C1530 C 0.42597 0.98562 0.06759 0.0
C1531 C 0.40017 0.01182 0.0676 0.0
C1532 C 0.36539 0.00336 0.06556 0.0
C1533 C 0.46347 0.99517 0.06824 0.0
C1534 C 0.47493 0.01652 0.07581 0.0
C1535 C 0.48788 0.98349 0.0613 0.0
C1536 C 0.47706 0.96416 0.05256 0.0
C1537 C 0.45199 0.97846 0.04629 0.0
C1538 C 0.4416 0.95998 0.03813 0.0
C1539 C 0.45636 0.9273 0.03611 0.0
C1540 C 0.48162 0.91309 0.04223 0.0
C1541 C 0.49204 0.93144 0.05041 0.0
H1542 H 0.44829 0.91302 0.02978 0.0
H1543 H 0.55 0.11027 0.10554 0.0
H1544 H 0.51431 0.34648 0.81341 0.0
H1545 H 0.52622 0.40826 0.81666 0.0
H1546 H 0.41623 0.43188 0.8133 0.0
H1547 H 0.40476 0.37055 0.80938 0.0
H1548 H 0.45146 0.47559 0.80357 0.0
H1549 H 0.4597 0.43541 0.83565 0.0
H1550 H 0.47876 0.39791 0.84904 0.0
H1551 H 0.58561 0.42853 0.84432 0.0
H1552 H 0.56727 0.46584 0.8308 0.0
H1553 H 0.48005 0.65299 0.81571 0.0
H1554 H 0.46104 0.59267 0.81887 0.0
H1555 H 0.56607 0.55574 0.81357 0.0
H1556 H 0.58489 0.6158 0.81011 0.0
H1557 H 0.52775 0.52115 0.82952 0.0
H1558 H 0.51703 0.55431 0.79583 0.0
H1559 H 0.49614 0.59357 0.78301 0.0
H1560 H 0.38976 0.57665 0.79188 0.0
H1561 H 0.41014 0.53772 0.80486 0.0
C1562 C 0.49274 0.36494 0.81338 0.0
C1563 C 0.45868 0.3539 0.81112 0.0
C1564 C 0.49944 0.40012 0.81538 0.0
C1565 C 0.47202 0.42469 0.81536 0.0
C1566 C 0.43777 0.41339 0.8134 0.0
C1567 C 0.43119 0.37833 0.81124 0.0
C1568 C 0.47959 0.46254 0.8165 0.0
C1569 C 0.46747 0.48553 0.80939 0.0
C1570 C 0.50091 0.47561 0.82401 0.0
C1571 C 0.51211 0.45325 0.83216 0.0
C1572 C 0.4873 0.43396 0.83741 0.0
C1573 C 0.49797 0.41276 0.84504 0.0
C1574 C 0.53338 0.41079 0.84752 0.0
C1575 C 0.55819 0.43007 0.84239 0.0
C1576 C 0.54766 0.45129 0.83475 0.0
C1577 C 0.49909 0.63197 0.81537 0.0
C1578 C 0.53383 0.63878 0.81267 0.0
C1579 C 0.48831 0.59773 0.81723 0.0
C1580 C 0.51224 0.56999 0.81645 0.0
C1581 C 0.54741 0.57698 0.8143 0.0
C1582 C 0.55809 0.61118 0.81233 0.0
C1583 C 0.49979 0.53347 0.81658 0.0
C1584 C 0.51116 0.51094 0.82386 0.0
C1585 C 0.4774 0.52077 0.80932 0.0
C1586 C 0.46512 0.54344 0.80137 0.0
C1587 C 0.48921 0.55916 0.79508 0.0
C1588 C 0.47746 0.58131 0.78778 0.0
C1589 C 0.44165 0.58768 0.78665 0.0
C1590 C 0.4175 0.57175 0.79278 0.0
C1591 C 0.42913 0.54963 0.80011 0.0
H1592 H 0.43261 0.60488 0.781 0.0
H1593 H 0.54159 0.39436 0.85343 0.0
H1594 H 0.65118 0.51144 0.1767 0.0
H1595 H 0.59073 0.52843 0.17299 0.0
H1596 H 0.55442 0.42719 0.18246 0.0
H1597 H 0.61478 0.41047 0.18643 0.0
H1598 H 0.51747 0.45925 0.16538 0.0
H1599 H 0.55245 0.48173 0.19855 0.0
H1600 H 0.59264 0.50584 0.21072 0.0
H1601 H 0.58142 0.6085 0.1985 0.0
H1602 H 0.54133 0.58488 0.18621 0.0
H1603 H 0.34498 0.48581 0.18244 0.0
H1604 H 0.40552 0.47022 0.17874 0.0
H1605 H 0.43377 0.57982 0.17885 0.0
H1606 H 0.37379 0.59516 0.18329 0.0
H1607 H 0.47686 0.54678 0.18921 0.0
H1608 H 0.43298 0.52679 0.15777 0.0
H1609 H 0.39342 0.50331 0.14538 0.0
H1610 H 0.42147 0.39828 0.15332 0.0
H1611 H 0.46085 0.4211 0.16586 0.0
C1612 C 0.63031 0.49259 0.17776 0.0
C1613 C 0.63733 0.45975 0.18184 0.0
C1614 C 0.59597 0.50222 0.1756 0.0
C1615 C 0.56833 0.47901 0.17747 0.0
C1616 C 0.57557 0.44523 0.18089 0.0
C1617 C 0.60993 0.43572 0.18314 0.0
C1618 C 0.53192 0.4918 0.17731 0.0
C1619 C 0.50832 0.47829 0.17058 0.0
C1620 C 0.52056 0.51721 0.18397 0.0
C1621 C 0.54423 0.53151 0.19142 0.0
C1622 C 0.55873 0.50941 0.19843 0.0
C1623 C 0.58138 0.52299 0.20537 0.0
C1624 C 0.58964 0.55867 0.20537 0.0
C1625 C 0.57505 0.58087 0.19848 0.0
C1626 C 0.55231 0.56741 0.19154 0.0
C1627 C 0.36415 0.50652 0.18163 0.0
C1628 C 0.35485 0.54163 0.18318 0.0
C1629 C 0.39863 0.49766 0.17937 0.0
C1630 C 0.42421 0.52388 0.17839 0.0
C1631 C 0.41449 0.55913 0.17953 0.0
C1632 C 0.38017 0.56792 0.18198 0.0
C1633 C 0.46164 0.51433 0.17724 0.0
C1634 C 0.48569 0.52828 0.18382 0.0
C1635 C 0.47327 0.48956 0.17037 0.0
C1636 C 0.44971 0.47569 0.16281 0.0
C1637 C 0.43054 0.49868 0.15693 0.0
C1638 C 0.40817 0.48548 0.14987 0.0
C1639 C 0.40489 0.44933 0.14857 0.0
C1640 C 0.42403 0.42628 0.15433 0.0
C1641 C 0.44642 0.43934 0.1614 0.0
H1642 H 0.38755 0.43916 0.14311 0.0
H1643 H 0.60731 0.56911 0.21072 0.0
H1644 H 0.59179 0.87829 0.4346 0.0
H1645 H 0.57887 0.93944 0.43092 0.0
H1646 H 0.46926 0.91387 0.42782 0.0
H1647 H 0.48267 0.85206 0.43069 0.0
H1648 H 0.48422 0.96405 0.41599 0.0
H1649 H 0.50469 0.94351 0.44934 0.0
H1650 H 0.53723 0.92305 0.46353 0.0
H1651 H 0.62103 0.99426 0.45705 0.0
H1652 H 0.58918 0.01479 0.44272 0.0
H1653 H 0.41227 0.12281 0.43673 0.0
H1654 H 0.43001 0.06282 0.43274 0.0
H1655 H 0.5337 0.09958 0.42573 0.0
H1656 H 0.51557 0.1599 0.42926 0.0
H1657 H 0.52491 0.04581 0.44129 0.0
H1658 H 0.49545 0.07068 0.40846 0.0
H1659 H 0.4567 0.09095 0.39547 0.0
H1660 H 0.38174 0.01131 0.40266 0.0
H1661 H 0.41981 0.99089 0.41581 0.0
C1662 C 0.56514 0.88551 0.43282 0.0
C1663 C 0.53813 0.86057 0.43302 0.0
C1664 C 0.5577 0.92053 0.43083 0.0
C1665 C 0.52295 0.9314 0.42936 0.0
C1666 C 0.49623 0.90617 0.42901 0.0
C1667 C 0.50383 0.87097 0.43077 0.0
C1668 C 0.51407 0.96919 0.42903 0.0
C1669 C 0.49301 0.98189 0.42154 0.0
C1670 C 0.52559 0.99254 0.43627 0.0
C1671 C 0.54474 0.98039 0.4449 0.0
C1672 C 0.53017 0.95463 0.4509 0.0
C1673 C 0.54847 0.94304 0.45898 0.0
C1674 C 0.58123 0.95727 0.46118 0.0
C1675 C 0.59569 0.9832 0.45532 0.0
C1676 C 0.57753 0.99483 0.44723 0.0
C1677 C 0.43843 0.11821 0.434 0.0
C1678 C 0.4626 0.1458 0.43327 0.0
C1679 C 0.44854 0.08403 0.43176 0.0
C1680 C 0.48306 0.07702 0.42892 0.0
C1681 C 0.50689 0.10467 0.42787 0.0
C1682 C 0.4966 0.13893 0.42992 0.0
C1683 C 0.4953 0.04051 0.42826 0.0
C1684 C 0.51672 0.02803 0.43565 0.0
C1685 C 0.48324 0.01733 0.42111 0.0
C1686 C 0.46036 0.02946 0.41318 0.0
C1687 C 0.47056 0.0577 0.40734 0.0
C1688 C 0.44875 0.06917 0.39993 0.0
C1689 C 0.41674 0.05248 0.39825 0.0
C1690 C 0.40653 0.02423 0.40397 0.0
C1691 C 0.42823 0.01267 0.4114 0.0
H1692 H 0.3999 0.0614 0.39251 0.0
H1693 H 0.59536 0.94827 0.46743 0.0
H1694 H 0.12574 0.59181 0.55812 0.0
H1695 H 0.06391 0.57972 0.56147 0.0
H1696 H 0.09168 0.47744 0.57226 0.0
H1697 H 0.15369 0.48969 0.56898 0.0
H1698 H 0.02843 0.5265 0.55267 0.0
H1699 H 0.02852 0.45461 0.58919 0.0
H1700 H 0.06111 0.45563 0.60444 0.0
H1701 H 0.08761 0.56368 0.59986 0.0
H1702 H 0.05478 0.56347 0.58465 0.0
H1703 H 0.88262 0.41708 0.55767 0.0
H1704 H 0.9435 0.43496 0.56049 0.0
H1705 H 0.9074 0.52799 0.575 0.0
H1706 H 0.84634 0.51035 0.57204 0.0
H1707 H 0.97253 0.48892 0.58308 0.0
H1708 H 0.92204 0.54453 0.55483 0.0
H1709 H 0.88887 0.54282 0.53968 0.0
H1710 H 0.96353 0.47049 0.52792 0.0
H1711 H 0.99683 0.47135 0.54308 0.0
C1712 C 0.11862 0.56713 0.56143 0.0
C1713 C 0.14414 0.54163 0.56333 0.0
C1714 C 0.08342 0.56021 0.56329 0.0
C1715 C 0.07335 0.52779 0.56714 0.0
C1716 C 0.09903 0.50278 0.5694 0.0
C1717 C 0.13427 0.50967 0.56749 0.0
C1718 C 0.03584 0.51875 0.56783 0.0
C1719 C 0.01621 0.5186 0.55934 0.0
C1720 C 0.02 0.50832 0.57653 0.0
C1721 C 0.03943 0.5089 0.58574 0.0
C1722 C 0.04117 0.47863 0.59146 0.0
C1723 C 0.05971 0.47906 0.60009 0.0
C1724 C 0.07651 0.50967 0.6031 0.0
C1725 C 0.07471 0.53995 0.5975 0.0
C1726 C 0.05618 0.53967 0.58886 0.0
C1727 C 0.88782 0.44087 0.56167 0.0
C1728 C 0.86025 0.46252 0.56464 0.0
C1729 C 0.9224 0.45098 0.56328 0.0
C1730 C 0.92967 0.48269 0.56795 0.0
C1731 C 0.9021 0.50328 0.57146 0.0
C1732 C 0.86746 0.49337 0.56973 0.0
C1733 C 0.96566 0.49649 0.56792 0.0
C1734 C 0.9849 0.49725 0.57647 0.0
C1735 C 0.98127 0.50771 0.55929 0.0
C1736 C 0.96172 0.50777 0.55011 0.0
C1737 C 0.93122 0.52806 0.54904 0.0
C1738 C 0.91242 0.52728 0.54045 0.0
C1739 C 0.92403 0.50649 0.53285 0.0
C1740 C 0.95454 0.48655 0.53382 0.0
C1741 C 0.97341 0.4872 0.5424 0.0
H1742 H 0.90942 0.50589 0.52621 0.0
H1743 H 0.09086 0.50995 0.60979 0.0
H1744 H 0.90932 0.6131 0.31452 0.0
H1745 H 0.9286 0.55455 0.31917 0.0
H1746 H 0.03578 0.59073 0.32012 0.0
H1747 H 0.01668 0.64876 0.31489 0.0
H1748 H 0.03426 0.53667 0.31012 0.0
H1749 H 0.98725 0.5616 0.34081 0.0
H1750 H 0.94386 0.5819 0.35265 0.0
H1751 H 0.87216 0.50192 0.34351 0.0
H1752 H 0.9149 0.48143 0.33152 0.0
H1753 H 0.0886 0.36439 0.31969 0.0
H1754 H 0.0751 0.42446 0.32458 0.0
H1755 H 0.96772 0.4102 0.3158 0.0
H1756 H 0.98088 0.35028 0.31086 0.0
H1757 H 0.97646 0.45402 0.33252 0.0
H1758 H 0.02104 0.43917 0.29988 0.0
H1759 H 0.06524 0.41875 0.28826 0.0
H1760 H 0.14366 0.48163 0.30209 0.0
H1761 H 0.09996 0.50199 0.31388 0.0
C1762 C 0.9369 0.60867 0.31591 0.0
C1763 C 0.96157 0.63525 0.31426 0.0
C1764 C 0.94792 0.57523 0.31865 0.0
C1765 C 0.98371 0.56812 0.32009 0.0
C1766 C 0.00808 0.59543 0.31902 0.0
C1767 C 0.99716 0.62858 0.31604 0.0
C1768 C 0.99605 0.53151 0.32144 0.0
C1769 C 0.02221 0.51901 0.31524 0.0
C1770 C 0.98004 0.50802 0.32797 0.0
C1771 C 0.95427 0.5201 0.33522 0.0
C1772 C 0.96215 0.54847 0.34128 0.0
C1773 C 0.93767 0.56 0.34802 0.0
C1774 C 0.90526 0.54324 0.34882 0.0
C1775 C 0.89729 0.51487 0.34289 0.0
C1776 C 0.92166 0.50325 0.33612 0.0
C1777 C 0.06191 0.37372 0.31902 0.0
C1778 C 0.03595 0.35284 0.31471 0.0
C1779 C 0.05425 0.408 0.32184 0.0
C1780 C 0.02053 0.42174 0.32045 0.0
C1781 C 0.99389 0.4 0.31693 0.0
C1782 C 0.00156 0.36586 0.31404 0.0
C1783 C 0.01414 0.45982 0.32119 0.0
C1784 C 0.98904 0.4723 0.32767 0.0
C1785 C 0.0313 0.48354 0.315 0.0
C1786 C 0.05738 0.47175 0.30782 0.0
C1787 C 0.04777 0.44843 0.30048 0.0
C1788 C 0.07271 0.4369 0.29386 0.0
C1789 C 0.10727 0.44879 0.29446 0.0
C1790 C 0.11691 0.47237 0.30165 0.0
C1791 C 0.09207 0.48392 0.3083 0.0
H1792 H 0.12656 0.43981 0.28933 0.0
H1793 H 0.88634 0.55222 0.35404 0.0
H1794 H 0.37168 0.9104 0.68094 0.0
H1795 H 0.43245 0.92663 0.67768 0.0
H1796 H 0.40975 0.03374 0.68529 0.0
H1797 H 0.34891 0.01781 0.68865 0.0
H1798 H 0.45896 0.02413 0.66914 0.0
H1799 H 0.43808 0.98808 0.70208 0.0
H1800 H 0.41622 0.94723 0.71439 0.0
H1801 H 0.48399 0.86653 0.70361 0.0
H1802 H 0.50584 0.90681 0.69113 0.0
H1803 H 0.62185 0.09086 0.68596 0.0
H1804 H 0.56174 0.07371 0.68218 0.0
H1805 H 0.59214 0.96473 0.68297 0.0
H1806 H 0.65177 0.98178 0.68723 0.0
H1807 H 0.53872 0.97239 0.69339 0.0
H1808 H 0.56593 0.00986 0.66167 0.0
H1809 H 0.58766 0.04972 0.64911 0.0
H1810 H 0.50962 0.12573 0.65679 0.0
H1811 H 0.48771 0.08653 0.66949 0.0
C1812 C 0.37935 0.93757 0.68172 0.0
C1813 C 0.35559 0.96273 0.68518 0.0
C1814 C 0.41407 0.94677 0.67984 0.0
C1815 C 0.42548 0.98129 0.68131 0.0
C1816 C 0.40131 0.00699 0.68409 0.0
C1817 C 0.36666 0.99776 0.68607 0.0
C1818 C 0.46328 0.98953 0.68124 0.0
C1819 C 0.47656 0.01303 0.67444 0.0
C1820 C 0.48609 0.97438 0.68805 0.0
C1821 C 0.47327 0.9503 0.69561 0.0
C1822 C 0.44809 0.96154 0.70229 0.0
C1823 C 0.43574 0.93851 0.7093 0.0
C1824 C 0.44863 0.90427 0.70976 0.0
C1825 C 0.47398 0.89304 0.70323 0.0
C1826 C 0.48636 0.91595 0.69619 0.0
C1827 C 0.61579 0.06328 0.68515 0.0
C1828 C 0.64133 0.03763 0.68698 0.0
C1829 C 0.58144 0.05347 0.68293 0.0
C1830 C 0.57232 0.01786 0.68223 0.0
C1831 C 0.59842 0.99234 0.68353 0.0
C1832 C 0.6325 0.0021 0.68595 0.0
C1833 C 0.5351 0.00708 0.68121 0.0
C1834 C 0.52164 0.98319 0.68792 0.0
C1835 C 0.51236 0.02172 0.67425 0.0
C1836 C 0.52535 0.04533 0.66658 0.0
C1837 C 0.55356 0.03517 0.66073 0.0
C1838 C 0.56588 0.05764 0.65358 0.0
C1839 C 0.55008 0.09027 0.65217 0.0
C1840 C 0.52185 0.10046 0.65789 0.0
C1841 C 0.50944 0.0781 0.66506 0.0
H1842 H 0.55967 0.10763 0.64663 0.0
H1843 H 0.43904 0.88648 0.7152 0.0
H1844 H 0.98183 0.15021 0.931 0.0
H1845 H 0.96363 0.09051 0.92714 0.0
H1846 H 0.07034 0.055 0.93042 0.0
H1847 H 0.08895 0.1152 0.93383 0.0
H1848 H 0.03698 0.0161 0.91726 0.0
H1849 H 0.01423 0.05509 0.94946 0.0
H1850 H 0.99049 0.09568 0.96158 0.0
H1851 H 0.88633 0.07772 0.95105 0.0
H1852 H 0.90954 0.03734 0.93878 0.0
H1853 H 0.011 0.84948 0.93963 0.0
H1854 H 0.02641 0.90896 0.93471 0.0
H1855 H 0.91855 0.92911 0.92733 0.0
H1856 H 0.90287 0.86944 0.93213 0.0
H1857 H 0.94831 0.97603 0.94084 0.0
H1858 H 0.97393 0.92833 0.90996 0.0
H1859 H 0.00094 0.8872 0.89853 0.0
H1860 H 0.10338 0.91948 0.90768 0.0
H1861 H 0.07699 0.96046 0.91927 0.0
C1862 C 0.00151 0.12978 0.93065 0.0
C1863 C 0.03665 0.13701 0.93287 0.0
C1864 C 0.99111 0.09574 0.92845 0.0
C1865 C 0.01547 0.06821 0.92877 0.0
C1866 C 0.05109 0.07586 0.93019 0.0
C1867 C 0.06168 0.11018 0.93217 0.0
C1868 C 0.00321 0.0314 0.92889 0.0
C1869 C 0.01771 0.00725 0.92243 0.0
C1870 C 0.9778 0.01999 0.9356 0.0
C1871 C 0.96365 0.04348 0.94314 0.0
C1872 C 0.98628 0.05991 0.94971 0.0
C1873 C 0.97292 0.08288 0.9566 0.0
C1874 C 0.93693 0.08936 0.95706 0.0
C1875 C 0.91421 0.07272 0.95067 0.0
C1876 C 0.92744 0.04977 0.94375 0.0
C1877 C 0.99065 0.86634 0.9368 0.0
C1878 C 0.95566 0.85491 0.93636 0.0
C1879 C -0.00045 0.90022 0.93393 0.0
C1880 C 0.97359 0.92328 0.93065 0.0
C1881 C 0.93891 0.91155 0.92982 0.0
C1882 C 0.93005 0.87748 0.93256 0.0
C1883 C 0.98206 0.96067 0.92921 0.0
C1884 C 0.96707 0.98495 0.93553 0.0
C1885 C 0.00746 0.97189 0.92252 0.0
C1886 C 0.02345 0.94729 0.91555 0.0
C1887 C 0.00222 0.92644 0.9096 0.0
C1888 C 0.01742 0.9032 0.90307 0.0
C1889 C 0.05385 0.90067 0.90239 0.0
C1890 C 0.07516 0.92145 0.90822 0.0
C1891 C 0.06009 0.94473 0.91476 0.0
H1892 H 0.06556 0.88267 0.89733 0.0
H1893 H 0.92665 0.10721 0.96239 0.0
H1894 H 0.86897 0.07916 0.07374 0.0
H1895 H 0.92971 0.06417 0.07765 0.0
H1896 H 0.91483 0.96111 0.06572 0.0
H1897 H 0.85434 0.97542 0.06188 0.0
H1898 H 0.97129 0.99458 0.08609 0.0
H1899 H 0.96845 0.97002 0.04642 0.0
H1900 H 0.93309 0.98592 0.03225 0.0
H1901 H 0.91361 0.0877 0.04422 0.0
H1902 H 0.94949 0.07265 0.05834 0.0
H1903 H 0.12838 0.91263 0.06782 0.0
H1904 H 0.06936 0.92982 0.0729 0.0
H1905 H 0.08673 0.0339 0.06182 0.0
H1906 H 0.14516 0.01703 0.05665 0.0
H1907 H 0.02922 0.00434 0.05437 0.0
H1908 H 0.07931 0.02038 0.08562 0.0
H1909 H 0.11242 0.00292 0.10001 0.0
H1910 H 0.03892 0.92001 0.10533 0.0
H1911 H 0.00563 0.93665 0.09088 0.0
C1912 C 0.87824 0.0529 0.07225 0.0
C1913 C 0.85712 0.02879 0.06727 0.0
C1914 C 0.91283 0.04431 0.07458 0.0
C1915 C 0.92654 0.01167 0.07191 0.0
C1916 C 0.9045 0.98639 0.06785 0.0
C1917 C 0.87002 0.99482 0.06557 0.0
C1918 C 0.96467 0.00679 0.07116 0.0
C1919 C 0.98422 0.99685 0.07921 0.0
C1920 C 0.98118 0.01002 0.06216 0.0
C1921 C 0.96132 0.02008 0.05346 0.0
C1922 C 0.95685 0.99588 0.04597 0.0
C1923 C 0.93671 0.00474 0.03796 0.0
C1924 C 0.92099 0.03775 0.03735 0.0
C1925 C 0.92569 0.0621 0.04471 0.0
C1926 C 0.94595 0.05344 0.05271 0.0
C1927 C 0.1198 0.93932 0.06661 0.0
C1928 C 0.14123 0.96329 0.06169 0.0
C1929 C 0.08618 0.94914 0.06956 0.0
C1930 C 0.07374 0.98311 0.06772 0.0
C1931 C 0.09582 0.00752 0.06328 0.0
C1932 C 0.1292 0.99775 0.0603 0.0
C1933 C 0.03657 0.99223 0.06933 0.0
C1934 C 0.01683 0.00256 0.06135 0.0
C1935 C 0.02024 0.98957 0.07841 0.0
C1936 C 0.04014 0.97959 0.08712 0.0
C1937 C 0.07036 0.99824 0.08981 0.0
C1938 C 0.08913 0.98853 0.09799 0.0
C1939 C 0.07782 0.96032 0.10357 0.0
C1940 C 0.04766 0.94183 0.10099 0.0
C1941 C 0.02881 0.95142 0.09282 0.0
H1942 H 0.09239 0.95284 0.1099 0.0
H1943 H 0.90526 0.04449 0.03117 0.0
H1944 H 0.51678 0.15259 0.81359 0.0
H1945 H 0.53698 0.09401 0.81807 0.0
H1946 H 0.43129 0.05488 0.81532 0.0
H1947 H 0.41074 0.11395 0.81151 0.0
H1948 H 0.46235 0.01872 0.82827 0.0
H1949 H 0.49338 0.05471 0.79622 0.0
H1950 H 0.52061 0.09323 0.78415 0.0
H1951 H 0.62166 0.07586 0.79682 0.0
H1952 H 0.59492 0.0376 0.80905 0.0
H1953 H 0.48969 0.85194 0.80639 0.0
H1954 H 0.47507 0.91211 0.81087 0.0
H1955 H 0.58078 0.92826 0.82084 0.0
H1956 H 0.5956 0.86784 0.81652 0.0
H1957 H 0.55608 0.97642 0.80654 0.0
H1958 H 0.52149 0.9297 0.8369 0.0
H1959 H 0.49056 0.88905 0.84769 0.0
H1960 H 0.39163 0.92354 0.83648 0.0
H1961 H 0.42198 0.96404 0.82551 0.0
C1962 C 0.49782 0.13158 0.81418 0.0
C1963 C 0.46234 0.13749 0.81209 0.0
C1964 C 0.50936 0.09812 0.81669 0.0
C1965 C 0.48587 0.06977 0.81671 0.0
C1966 C 0.44999 0.07624 0.81529 0.0
C1967 C 0.43826 0.10996 0.81309 0.0
C1968 C 0.4989 0.03315 0.81718 0.0
C1969 C 0.48278 0.00947 0.8235 0.0
C1970 C 0.52592 0.02106 0.81105 0.0
C1971 C 0.5421 0.04365 0.80361 0.0
C1972 C 0.52138 0.05926 0.79646 0.0
C1973 C 0.53672 0.08104 0.78959 0.0
C1974 C 0.57283 0.08709 0.78973 0.0
C1975 C 0.59369 0.07123 0.79673 0.0
C1976 C 0.57846 0.04949 0.80363 0.0
C1977 C 0.50969 0.86808 0.80969 0.0
C1978 C 0.54388 0.85527 0.81103 0.0
C1979 C 0.50122 0.90235 0.81229 0.0
C1980 C 0.52685 0.92445 0.8162 0.0
C1981 C 0.56066 0.91144 0.81786 0.0
C1982 C 0.56903 0.87696 0.8154 0.0
C1983 C 0.51919 0.96207 0.81751 0.0
C1984 C 0.5362 0.98588 0.81146 0.0
C1985 C 0.49244 0.97396 0.8237 0.0
C1986 C 0.47406 0.94977 0.83033 0.0
C1987 C 0.49315 0.92843 0.83667 0.0
C1988 C 0.47572 0.90545 0.84284 0.0
C1989 C 0.43915 0.90367 0.84276 0.0
C1990 C 0.41995 0.92494 0.83653 0.0
C1991 C 0.43726 0.94795 0.83035 0.0
H1992 H 0.4257 0.88585 0.84754 0.0
H1993 H 0.58466 0.10399 0.78442 0.0
H1994 H 0.85588 0.43737 0.17528 0.0
H1995 H 0.91535 0.45644 0.1711 0.0
H1996 H 0.91991 0.51749 0.19712 0.0
H1997 H 0.86034 0.50029 0.20097 0.0
H1998 H 0.95011 0.55238 0.18433 0.0
H1999 H 0.95628 0.42976 0.19413 0.0
H2000 H 0.94203 0.36687 0.19278 0.0
H2001 H 0.98302 0.36521 0.16416 0.0
H2002 H 0.99719 0.4282 0.16531 0.0
H2003 H 0.1364 0.501 0.19758 0.0
H2004 H 0.07663 0.48415 0.19376 0.0
H2005 H 0.07102 0.56638 0.1726 0.0
H2006 H 0.1309 0.58423 0.1766 0.0
H2007 H 0.04106 0.46156 0.17906 0.0
H2008 H 0.98851 0.60103 0.17315 0.0
H2009 H 0.00323 0.66222 0.17726 0.0
H2010 H 0.05588 0.62721 0.20271 0.0
H2011 H 0.04109 0.56593 0.1988 0.0
C2012 C 0.86959 0.45512 0.18003 0.0
C2013 C 0.85356 0.46726 0.18846 0.0
C2014 C 0.90359 0.4659 0.17767 0.0
C2015 C 0.92243 0.48807 0.18386 0.0
C2016 C 0.906 0.50061 0.19217 0.0
C2017 C 0.8719 0.4906 0.1944 0.0
C2018 C 0.95973 0.49729 0.18209 0.0
C2019 C 0.96991 0.5325 0.18306 0.0
C2020 C 0.98577 0.47151 0.18044 0.0
C2021 C 0.97738 0.4337 0.17976 0.0
C2022 C 0.96206 0.41599 0.18753 0.0
C2023 C 0.95402 0.38034 0.18681 0.0
C2024 C 0.9615 0.36208 0.17838 0.0
C2025 C 0.97716 0.3794 0.17067 0.0
C2026 C 0.98521 0.41506 0.17136 0.0
C2027 C 0.12268 0.51541 0.19205 0.0
C2028 C 0.1383 0.54436 0.1875 0.0
C2029 C 0.0885 0.50553 0.18982 0.0
C2030 C 0.06915 0.52422 0.18297 0.0
C2031 C 0.08529 0.55191 0.17801 0.0
C2032 C 0.11951 0.56206 0.1803 0.0
C2033 C 0.03135 0.51631 0.18174 0.0
C2034 C 0.02112 0.48149 0.1801 0.0
C2035 C 0.00531 0.5422 0.18316 0.0
C2036 C 0.01413 0.57894 0.1856 0.0
C2037 C 0.0032 0.60645 0.17962 0.0
C2038 C 0.01154 0.64112 0.18192 0.0
C2039 C 0.03062 0.64858 0.19022 0.0
C2040 C 0.04125 0.62139 0.19626 0.0
C2041 C 0.03292 0.58669 0.194 0.0
H2042 H 0.03707 0.67544 0.19198 0.0
H2043 H 0.95526 0.33449 0.17783 0.0
H2044 H 0.48506 0.65997 0.43261 0.0
H2045 H 0.46414 0.60114 0.42874 0.0
H2046 H 0.56923 0.56096 0.43199 0.0
H2047 H 0.59054 0.62029 0.4353 0.0
H2048 H 0.53652 0.52417 0.41901 0.0
H2049 H 0.50844 0.56374 0.45099 0.0
H2050 H 0.48269 0.60434 0.4628 0.0
H2051 H 0.38062 0.58758 0.45071 0.0
H2052 H 0.40587 0.54719 0.43874 0.0
H2053 H 0.50923 0.35832 0.44066 0.0
H2054 H 0.52372 0.41847 0.43624 0.0
H2055 H 0.41614 0.437 0.42826 0.0
H2056 H 0.40136 0.37651 0.43257 0.0
H2057 H 0.44369 0.48541 0.44151 0.0
H2058 H 0.47388 0.43652 0.41115 0.0
H2059 H 0.50236 0.39481 0.40015 0.0
H2060 H 0.60352 0.42706 0.41031 0.0
H2061 H 0.57564 0.46862 0.42148 0.0
C2062 C 0.50377 0.63866 0.43227 0.0
C2063 C 0.53927 0.64437 0.43438 0.0
C2064 C 0.4918 0.60507 0.43009 0.0
C2065 C 0.51491 0.57646 0.43039 0.0
C2066 C 0.55086 0.58259 0.43179 0.0
C2067 C 0.56303 0.61643 0.4337 0.0
C2068 C 0.50128 0.54006 0.43024 0.0
C2069 C 0.51632 0.51565 0.42395 0.0
C2070 C 0.47443 0.52905 0.43659 0.0
C2071 C 0.45909 0.55274 0.44391 0.0
C2072 C 0.48053 0.56883 0.45083 0.0
C2073 C 0.46602 0.59181 0.45754 0.0
C2074 C 0.43005 0.59861 0.45748 0.0
C2075 C 0.40848 0.58233 0.45073 0.0
C2076 C 0.42287 0.55938 0.44398 0.0
C2077 C 0.48871 0.375 0.43784 0.0
C2078 C 0.45409 0.36275 0.43703 0.0
C2079 C 0.49709 0.40929 0.43526 0.0
C2080 C 0.47101 0.43205 0.43189 0.0
C2081 C 0.43662 0.4197 0.43082 0.0
C2082 C 0.42827 0.38518 0.43327 0.0
C2083 C 0.4793 0.46948 0.43038 0.0
C2084 C 0.46336 0.49407 0.43643 0.0
C2085 C 0.50571 0.48042 0.42395 0.0
C2086 C 0.52262 0.45555 0.4172 0.0
C2087 C 0.50219 0.43454 0.4111 0.0
C2088 C 0.51823 0.41095 0.40482 0.0
C2089 C 0.55472 0.40824 0.40454 0.0
C2090 C 0.57525 0.42918 0.41053 0.0
C2091 C 0.55934 0.4528 0.41683 0.0
H2092 H 0.56709 0.38996 0.39968 0.0
H2093 H 0.41887 0.61643 0.46269 0.0
H2094 H 0.3564 0.4857 0.55505 0.0
H2095 H 0.41636 0.46981 0.55939 0.0
H2096 H 0.43755 0.57706 0.56721 0.0
H2097 H 0.37746 0.59324 0.56296 0.0
H2098 H 0.48524 0.54763 0.55397 0.0
H2099 H 0.43441 0.52039 0.5844 0.0
H2100 H 0.39176 0.49301 0.59533 0.0
H2101 H 0.4236 0.3909 0.58579 0.0
H2102 H 0.4661 0.41769 0.57468 0.0
H2103 H 0.65833 0.51104 0.56468 0.0
H2104 H 0.59866 0.53021 0.56829 0.0
H2105 H 0.56172 0.42408 0.56473 0.0
H2106 H 0.62186 0.40451 0.5617 0.0
H2107 H 0.52206 0.45713 0.57745 0.0
H2108 H 0.56639 0.4821 0.54593 0.0
H2109 H 0.60979 0.50674 0.53474 0.0
H2110 H 0.58807 0.61029 0.54518 0.0
H2111 H 0.5453 0.58612 0.55668 0.0
C2112 C 0.37366 0.50585 0.5578 0.0
C2113 C 0.36224 0.54077 0.55863 0.0
C2114 C 0.40782 0.49667 0.56033 0.0
C2115 C 0.4312 0.52225 0.56366 0.0
C2116 C 0.41974 0.55696 0.56469 0.0
C2117 C 0.38542 0.56611 0.56228 0.0
C2118 C 0.46838 0.51318 0.56527 0.0
C2119 C 0.49344 0.52841 0.55924 0.0
C2120 C 0.4787 0.48731 0.57195 0.0
C2121 C 0.45326 0.47108 0.57865 0.0
C2122 C 0.43212 0.49211 0.58457 0.0
C2123 C 0.40801 0.47669 0.59081 0.0
C2124 C 0.40492 0.44024 0.59124 0.0
C2125 C 0.426 0.41913 0.58544 0.0
C2126 C 0.45014 0.43442 0.57918 0.0
C2127 C 0.63755 0.49172 0.56493 0.0
C2128 C 0.64437 0.45646 0.56278 0.0
C2129 C 0.60352 0.50265 0.56698 0.0
C2130 C 0.5756 0.47875 0.56648 0.0
C2131 C 0.58283 0.44301 0.56509 0.0
C2132 C 0.61711 0.43186 0.56333 0.0
C2133 C 0.53894 0.49154 0.56613 0.0
C2134 C 0.51395 0.4768 0.5723 0.0
C2135 C 0.52844 0.51749 0.55945 0.0
C2136 C 0.55295 0.53226 0.55224 0.0
C2137 C 0.57098 0.51011 0.54587 0.0
C2138 C 0.59554 0.52398 0.5395 0.0
C2139 C 0.60174 0.56004 0.53927 0.0
C2140 C 0.5833 0.58234 0.5454 0.0
C2141 C 0.55896 0.56857 0.55186 0.0
H2142 H 0.62067 0.57072 0.53431 0.0
H2143 H 0.38624 0.42835 0.59608 0.0
H2144 H 0.32245 0.31035 0.40842 0.0
H2145 H 0.29786 0.3092 0.39232 0.0
H2146 H 0.24163 0.21436 0.3992 0.0
H2147 H 0.268 0.21416 0.41513 0.0
H2148 H 0.2709 0.2078 0.38246 0.0
H2149 H 0.20052 0.29553 0.39752 0.0
H2150 H 0.18847 0.34936 0.40671 0.0
H2151 H 0.24087 0.41079 0.3853 0.0
H2152 H 0.25366 0.35724 0.37604 0.0
H2153 H 0.1552 0.2126 0.3424 0.0
H2154 H 0.17795 0.21509 0.35879 0.0
H2155 H 0.2494 0.29724 0.35049 0.0
H2156 H 0.22654 0.29491 0.33407 0.0
H2157 H 0.21145 0.31037 0.36785 0.0
H2158 H 0.28163 0.22052 0.35298 0.0
H2159 H 0.29123 0.16596 0.3439 0.0
H2160 H 0.23539 0.10767 0.36531 0.0
H2161 H 0.22502 0.16201 0.37446 0.0
C2162 C 0.3055 0.28882 0.40646 0.0
C2163 C 0.29804 0.26175 0.41296 0.0
C2164 C 0.29087 0.28858 0.3973 0.0
C2165 C 0.26774 0.26177 0.39456 0.0
C2166 C 0.25952 0.23522 0.40113 0.0
C2167 C 0.27445 0.23526 0.41026 0.0
C2168 C 0.253 0.26075 0.38475 0.0
C2169 C 0.25743 0.23008 0.37933 0.0
C2170 C 0.23603 0.29005 0.38059 0.0
C2171 C 0.22834 0.32232 0.38613 0.0
C2172 C 0.20972 0.32048 0.39481 0.0
C2173 C 0.20271 0.35095 0.40002 0.0
C2174 C 0.21398 0.38346 0.39661 0.0
C2175 C 0.2322 0.38558 0.38795 0.0
C2176 C 0.2393 0.35518 0.38271 0.0
C2177 C 0.17538 0.2315 0.34412 0.0
C2178 C 0.1888 0.25398 0.33707 0.0
C2179 C 0.18856 0.23267 0.35344 0.0
C2180 C 0.21527 0.25639 0.35581 0.0
C2181 C 0.22868 0.27888 0.34877 0.0
C2182 C 0.21579 0.27741 0.33943 0.0
C2183 C 0.22938 0.25751 0.36565 0.0
C2184 C 0.22485 0.28816 0.37103 0.0
C2185 C 0.2459 0.2281 0.36982 0.0
C2186 C 0.25223 0.19539 0.36435 0.0
C2187 C 0.27113 0.19612 0.35571 0.0
C2188 C 0.27676 0.16522 0.35056 0.0
C2189 C 0.26384 0.13338 0.35401 0.0
C2190 C 0.24534 0.13236 0.36264 0.0
C2191 C 0.2396 0.16319 0.36781 0.0
H2192 H 0.26824 0.10949 0.35001 0.0
H2193 H 0.20852 0.40702 0.40065 0.0
H2194 H 0.27359 0.75059 0.66487 0.0
H2195 H 0.27309 0.72657 0.6486 0.0
H2196 H 0.24829 0.82903 0.63737 0.0
H2197 H 0.24673 0.85249 0.65361 0.0
H2198 H 0.21069 0.78252 0.62869 0.0
H2199 H 0.33258 0.79359 0.63615 0.0
H2200 H 0.38654 0.78511 0.64559 0.0
H2201 H 0.37765 0.67362 0.64221 0.0
H2202 H 0.32333 0.68141 0.63286 0.0
H2203 H 0.2644 0.74894 0.58014 0.0
H2204 H 0.26333 0.77216 0.59654 0.0
H2205 H 0.25759 0.66697 0.60769 0.0
H2206 H 0.25656 0.64376 0.5914 0.0
H2207 H 0.31157 0.71442 0.61619 0.0
H2208 H 0.18839 0.70578 0.6085 0.0
H2209 H 0.13596 0.71673 0.59862 0.0
H2210 H 0.15005 0.82771 0.60194 0.0
H2211 H 0.20294 0.8174 0.61172 0.0
C2212 C 0.26816 0.7679 0.6589 0.0
C2213 C 0.26159 0.80364 0.66044 0.0
C2214 C 0.26807 0.75426 0.64962 0.0
C2215 C 0.26152 0.77621 0.64174 0.0
C2216 C 0.25389 0.8117 0.64332 0.0
C2217 C 0.25362 0.82522 0.65259 0.0
C2218 C 0.26217 0.76221 0.63185 0.0
C2219 C 0.23297 0.76803 0.62593 0.0
C2220 C 0.29101 0.74286 0.62828 0.0
C2221 C 0.32369 0.73807 0.63389 0.0
C2222 C 0.34198 0.76725 0.63749 0.0
C2223 C 0.37265 0.76257 0.64281 0.0
C2224 C 0.38546 0.72884 0.64452 0.0
C2225 C 0.36767 0.69972 0.64089 0.0
C2226 C 0.33695 0.70426 0.63557 0.0
C2227 C 0.26302 0.73083 0.5861 0.0
C2228 C 0.26205 0.6945 0.58451 0.0
C2229 C 0.26243 0.74408 0.59543 0.0
C2230 C 0.26086 0.72115 0.60326 0.0
C2231 C 0.25946 0.68494 0.6017 0.0
C2232 C 0.2594 0.67174 0.5924 0.0
C2233 C 0.26025 0.7349 0.61312 0.0
C2234 C 0.28942 0.72899 0.619 0.0
C2235 C 0.23165 0.75458 0.61661 0.0
C2236 C 0.19986 0.76082 0.61074 0.0
C2237 C 0.18053 0.73252 0.60704 0.0
C2238 C 0.15068 0.73861 0.60148 0.0
C2239 C 0.13975 0.77289 0.59963 0.0
C2240 C 0.15859 0.80116 0.60336 0.0
C2241 C 0.1885 0.79521 0.60892 0.0
H2242 H 0.11661 0.77756 0.59533 0.0
H2243 H 0.40922 0.72527 0.64864 0.0
H2244 H 0.81952 0.68012 0.33958 0.0
H2245 H 0.7968 0.6817 0.35601 0.0
H2246 H 0.7594 0.78704 0.35141 0.0
H2247 H 0.78161 0.78538 0.33492 0.0
H2248 H 0.80267 0.77394 0.36883 0.0
H2249 H 0.70124 0.73115 0.35157 0.0
H2250 H 0.67052 0.69087 0.34061 0.0
H2251 H 0.69667 0.60388 0.35876 0.0
H2252 H 0.72801 0.64361 0.36976 0.0
H2253 H 0.70163 0.79997 0.41056 0.0
H2254 H 0.72523 0.79685 0.39431 0.0
H2255 H 0.72834 0.68389 0.39628 0.0
H2256 H 0.70279 0.68714 0.41236 0.0
H2257 H 0.70408 0.69978 0.38001 0.0
H2258 H 0.80444 0.73883 0.3974 0.0
H2259 H 0.8385 0.77602 0.40844 0.0
H2260 H 0.81983 0.86548 0.3905 0.0
H2261 H 0.78526 0.82891 0.37941 0.0
C2262 C 0.80646 0.70357 0.3421 0.0
C2263 C 0.80249 0.73276 0.33608 0.0
C2264 C 0.79342 0.70438 0.35143 0.0
C2265 C 0.77659 0.73452 0.35487 0.0
C2266 C 0.77242 0.76363 0.34885 0.0
C2267 C 0.78491 0.76258 0.33946 0.0
C2268 C 0.76382 0.73585 0.36482 0.0
C2269 C 0.78085 0.75811 0.3713 0.0
C2270 C 0.73624 0.71417 0.36802 0.0
C2271 C 0.7173 0.6903 0.36143 0.0
C2272 C 0.70074 0.70339 0.35317 0.0
C2273 C 0.68315 0.68067 0.34696 0.0
C2274 C 0.68173 0.64482 0.34897 0.0
C2275 C 0.69783 0.63164 0.35721 0.0
C2276 C 0.71549 0.65425 0.36343 0.0
C2277 C 0.7077 0.77457 0.40752 0.0
C2278 C 0.70054 0.74378 0.41262 0.0
C2279 C 0.72134 0.77276 0.39826 0.0
C2280 C 0.72916 0.74014 0.3941 0.0
C2281 C 0.72252 0.70935 0.39932 0.0
C2282 C 0.70809 0.71117 0.40849 0.0
C2283 C 0.74285 0.73808 0.38417 0.0
C2284 C 0.72603 0.71562 0.37765 0.0
C2285 C 0.77115 0.7591 0.38098 0.0
C2286 C 0.79199 0.78117 0.38762 0.0
C2287 C 0.80739 0.76648 0.39585 0.0
C2288 C 0.82682 0.78744 0.40211 0.0
C2289 C 0.83125 0.8231 0.40019 0.0
C2290 C 0.81634 0.83786 0.39199 0.0
C2291 C 0.79686 0.81702 0.3857 0.0
H2292 H 0.84631 0.83929 0.40504 0.0
H2293 H 0.66809 0.62727 0.34416 0.0
H2294 H 0.74362 0.24768 0.66772 0.0
H2295 H 0.74588 0.27217 0.65151 0.0
H2296 H 0.74681 0.16758 0.63973 0.0
H2297 H 0.74689 0.14323 0.65587 0.0
H2298 H 0.7916 0.20559 0.63066 0.0
H2299 H 0.67151 0.22041 0.63978 0.0
H2300 H 0.62249 0.23975 0.64999 0.0
H2301 H 0.65474 0.34687 0.64669 0.0
H2302 H 0.70426 0.32811 0.63656 0.0
H2303 H 0.73926 0.25101 0.58293 0.0
H2304 H 0.74002 0.22737 0.59928 0.0
H2305 H 0.76199 0.33053 0.61037 0.0
H2306 H 0.7627 0.35394 0.59407 0.0
H2307 H 0.70533 0.29421 0.61967 0.0
H2308 H 0.82535 0.27698 0.60999 0.0
H2309 H 0.87229 0.25559 0.59937 0.0
H2310 H 0.83674 0.1498 0.60326 0.0
H2311 H 0.78923 0.17062 0.6138 0.0
C2312 C 0.74412 0.23003 0.66165 0.0
C2313 C 0.7436 0.1936 0.66302 0.0
C2314 C 0.74522 0.24398 0.6524 0.0
C2315 C 0.74563 0.22169 0.6444 0.0
C2316 C 0.74602 0.18529 0.64579 0.0
C2317 C 0.74536 0.17138 0.65502 0.0
C2318 C 0.74624 0.23616 0.63455 0.0
C2319 C 0.77243 0.22463 0.62823 0.0
C2320 C 0.72161 0.26144 0.63142 0.0
C2321 C 0.6918 0.27282 0.63749 0.0
C2322 C 0.66831 0.24807 0.64129 0.0
C2323 C 0.6404 0.25893 0.64705 0.0
C2324 C 0.63556 0.29451 0.64901 0.0
C2325 C 0.65855 0.31932 0.64518 0.0
C2326 C 0.68653 0.30859 0.63942 0.0
C2327 C 0.74426 0.26855 0.58887 0.0
C2328 C 0.74962 0.30448 0.5873 0.0
C2329 C 0.74469 0.25507 0.59817 0.0
C2330 C 0.75071 0.27736 0.60599 0.0
C2331 C 0.75676 0.3131 0.60442 0.0
C2332 C 0.75675 0.32647 0.59513 0.0
C2333 C 0.75049 0.26346 0.61585 0.0
C2334 C 0.72441 0.27515 0.62215 0.0
C2335 C 0.77487 0.23798 0.61891 0.0
C2336 C 0.8035 0.2254 0.6126 0.0
C2337 C 0.82733 0.24919 0.60851 0.0
C2338 C 0.85409 0.23716 0.60252 0.0
C2339 C 0.85743 0.20137 0.60062 0.0
C2340 C 0.83408 0.17752 0.60472 0.0
C2341 C 0.80726 0.18942 0.61071 0.0
H2342 H 0.87817 0.19211 0.59598 0.0
H2343 H 0.61394 0.30287 0.65347 0.0
H2344 H 0.24143 0.22855 0.91414 0.0
H2345 H 0.26587 0.23136 0.89793 0.0
H2346 H 0.16695 0.26925 0.8872 0.0
H2347 H 0.143 0.26844 0.90337 0.0
H2348 H 0.19746 0.20834 0.87729 0.0
H2349 H 0.22548 0.32502 0.88821 0.0
H2350 H 0.25092 0.36818 0.89935 0.0
H2351 H 0.35292 0.32314 0.89525 0.0
H2352 H 0.32797 0.27934 0.88418 0.0
H2353 H 0.24981 0.24471 0.82972 0.0
H2354 H 0.22472 0.24854 0.8458 0.0
H2355 H 0.32842 0.24156 0.85801 0.0
H2356 H 0.35359 0.24066 0.842 0.0
H2357 H 0.29399 0.28734 0.86731 0.0
H2358 H 0.26894 0.16988 0.85726 0.0
H2359 H 0.24585 0.12362 0.84666 0.0
H2360 H 0.14191 0.16518 0.84976 0.0
H2361 H 0.16447 0.21199 0.86028 0.0
C2362 C 0.22497 0.23769 0.90833 0.0
C2363 C 0.18985 0.24697 0.90998 0.0
C2364 C 0.23894 0.23924 0.8991 0.0
C2365 C 0.21797 0.2501 0.89141 0.0
C2366 C 0.18325 0.26025 0.89306 0.0
C2367 C 0.16946 0.25924 0.90229 0.0
C2368 C 0.232 0.25004 0.88158 0.0
C2369 C 0.21825 0.22588 0.87503 0.0
C2370 C 0.25974 0.27229 0.87881 0.0
C2371 C 0.27479 0.29866 0.88545 0.0
C2372 C 0.25328 0.32409 0.88975 0.0
C2373 C 0.26762 0.34872 0.89604 0.0
C2374 C 0.3035 0.34834 0.89803 0.0
C2375 C 0.32512 0.32337 0.89371 0.0
C2376 C 0.3109 0.29866 0.88743 0.0
C2377 C 0.26716 0.24387 0.83585 0.0
C2378 C 0.30353 0.24079 0.83462 0.0
C2379 C 0.25282 0.24583 0.84503 0.0
C2380 C 0.27462 0.24432 0.85314 0.0
C2381 C 0.31103 0.24223 0.85189 0.0
C2382 C 0.32536 0.24093 0.84272 0.0
C2383 C 0.25965 0.24536 0.86293 0.0
C2384 C 0.27318 0.26973 0.8695 0.0
C2385 C 0.2321 0.2228 0.86578 0.0
C2386 C 0.21845 0.19465 0.85947 0.0
C2387 C 0.2412 0.16931 0.85562 0.0
C2388 C 0.2282 0.14297 0.84964 0.0
C2389 C 0.19245 0.14152 0.84752 0.0
C2390 C 0.16961 0.16637 0.8514 0.0
C2391 C 0.18248 0.1928 0.85737 0.0
H2392 H 0.18244 0.1211 0.84289 0.0
H2393 H 0.31456 0.36744 0.9029 0.0
H2394 H 0.2951 0.70639 0.15895 0.0
H2395 H 0.29397 0.72824 0.14251 0.0
H2396 H 0.18173 0.71423 0.14166 0.0
H2397 H 0.18313 0.69095 0.15802 0.0
H2398 H 0.20795 0.69323 0.12563 0.0
H2399 H 0.22156 0.79695 0.14435 0.0
H2400 H 0.24762 0.8356 0.15658 0.0
H2401 H 0.34556 0.83461 0.14147 0.0
H2402 H 0.32023 0.79555 0.12921 0.0
H2403 H 0.18609 0.80752 0.08484 0.0
H2404 H 0.18394 0.78205 0.10098 0.0
H2405 H 0.29605 0.76793 0.10046 0.0
H2406 H 0.29827 0.79299 0.0843 0.0
H2407 H 0.26763 0.80439 0.11706 0.0
H2408 H 0.25127 0.69927 0.09832 0.0
H2409 H 0.22234 0.66273 0.08609 0.0
H2410 H 0.12509 0.67005 0.10141 0.0
H2411 H 0.15335 0.7071 0.11366 0.0
C2412 C 0.27022 0.7081 0.15524 0.0
C2413 C 0.23921 0.69699 0.15968 0.0
C2414 C 0.26954 0.72071 0.14587 0.0
C2415 C 0.23767 0.72349 0.1409 0.0
C2416 C 0.20662 0.71233 0.14536 0.0
C2417 C 0.2074 0.69907 0.15468 0.0
C2418 C 0.23695 0.73759 0.131 0.0
C2419 C 0.22054 0.71782 0.1238 0.0
C2420 C 0.25376 0.76947 0.12856 0.0
C2421 C 0.26906 0.79307 0.13591 0.0
C2422 C 0.24873 0.80478 0.14367 0.0
C2423 C 0.26336 0.82679 0.1506 0.0
C2424 C 0.29825 0.83749 0.14982 0.0
C2425 C 0.31855 0.82627 0.14208 0.0
C2426 C 0.30406 0.80423 0.13513 0.0
C2427 C 0.21019 0.79884 0.08819 0.0
C2428 C 0.24239 0.80244 0.08343 0.0
C2429 C 0.20892 0.7842 0.09735 0.0
C2430 C 0.23986 0.77326 0.10187 0.0
C2431 C 0.27196 0.77632 0.09706 0.0
C2432 C 0.27316 0.79044 0.08785 0.0
C2433 C 0.23897 0.75987 0.11177 0.0
C2434 C 0.25499 0.77988 0.11895 0.0
C2435 C 0.22132 0.72859 0.1142 0.0
C2436 C 0.20433 0.70628 0.10685 0.0
C2437 C 0.22363 0.69338 0.09903 0.0
C2438 C 0.20737 0.67251 0.09211 0.0
C2439 C 0.17187 0.66416 0.09296 0.0
C2440 C 0.15257 0.67659 0.10075 0.0
C2441 C 0.1687 0.6975 0.10769 0.0
H2442 H 0.15933 0.64799 0.08759 0.0
H2443 H 0.30952 0.85453 0.15519 0.0
H2444 H 0.7598 0.71977 0.91644 0.0
H2445 H 0.73517 0.71951 0.90029 0.0
H2446 H 0.80884 0.79942 0.89177 0.0
H2447 H 0.83201 0.80133 0.90802 0.0
H2448 H 0.74729 0.81297 0.88448 0.0
H2449 H 0.82132 0.71177 0.88609 0.0
H2450 H 0.84366 0.65626 0.89275 0.0
H2451 H 0.74308 0.6083 0.88852 0.0
H2452 H 0.71998 0.66372 0.88195 0.0
H2453 H 0.73607 0.78516 0.83395 0.0
H2454 H 0.7581 0.78715 0.85048 0.0
H2455 H 0.67161 0.7226 0.85967 0.0
H2456 H 0.64949 0.72078 0.84317 0.0
H2457 H 0.73903 0.70111 0.86649 0.0
H2458 H 0.66636 0.80406 0.86447 0.0
H2459 H 0.64644 0.85976 0.85737 0.0
H2460 H 0.74834 0.90452 0.86187 0.0
H2461 H 0.76904 0.84885 0.86886 0.0
C2462 C 0.77065 0.73737 0.91113 0.0
C2463 C 0.79868 0.7597 0.91342 0.0
C2464 C 0.75673 0.73701 0.90189 0.0
C2465 C 0.7708 0.7588 0.89477 0.0
C2466 C 0.79794 0.78202 0.89713 0.0
C2467 C 0.81161 0.78263 0.90639 0.0
C2468 C 0.75728 0.75736 0.88484 0.0
C2469 C 0.74591 0.78857 0.88051 0.0
C2470 C 0.75496 0.72542 0.87971 0.0
C2471 C 0.76883 0.692 0.88362 0.0
C2472 C 0.80389 0.68947 0.88664 0.0
C2473 C 0.8167 0.65801 0.89039 0.0
C2474 C 0.79478 0.6288 0.89108 0.0
C2475 C 0.76002 0.63097 0.88799 0.0
C2476 C 0.74706 0.66238 0.88425 0.0
C2477 C 0.72183 0.77157 0.83954 0.0
C2478 C 0.69085 0.75342 0.83743 0.0
C2479 C 0.73431 0.77274 0.84893 0.0
C2480 C 0.71621 0.75528 0.85626 0.0
C2481 C 0.68573 0.73638 0.85409 0.0
C2482 C 0.67302 0.7356 0.84473 0.0
C2483 C 0.7292 0.75663 0.86619 0.0
C2484 C 0.74045 0.72543 0.8705 0.0
C2485 C 0.73181 0.7886 0.87125 0.0
C2486 C 0.71935 0.82216 0.8671 0.0
C2487 C 0.68461 0.82567 0.86387 0.0
C2488 C 0.67316 0.85726 0.85988 0.0
C2489 C 0.69614 0.88564 0.85915 0.0
C2490 C 0.73059 0.8825 0.86243 0.0
C2491 C 0.74218 0.85095 0.86641 0.0
H2492 H 0.68722 0.91007 0.85606 0.0
H2493 H 0.80475 0.60446 0.89399 0.0
H2494 H 0.7257 0.23128 0.08349 0.0
H2495 H 0.72796 0.25874 0.09933 0.0
H2496 H 0.82004 0.19822 0.10623 0.0
H2497 H 0.81857 0.17154 0.09034 0.0
H2498 H 0.76664 0.19365 0.11996 0.0
H2499 H 0.82903 0.28204 0.10217 0.0
H2500 H 0.83711 0.32461 0.08907 0.0
H2501 H 0.74562 0.38079 0.09825 0.0
H2502 H 0.7367 0.33825 0.11133 0.0
H2503 H 0.80697 0.27258 0.1644 0.0
H2504 H 0.81011 0.25008 0.14797 0.0
H2505 H 0.7287 0.32228 0.13945 0.0
H2506 H 0.72631 0.34529 0.1558 0.0
H2507 H 0.77739 0.32108 0.12637 0.0
H2508 H 0.71228 0.23415 0.14346 0.0
H2509 H 0.70029 0.19146 0.1563 0.0
H2510 H 0.7913 0.13232 0.14821 0.0
H2511 H 0.80412 0.17495 0.1354 0.0
C2512 C 0.74662 0.22414 0.08835 0.0
C2513 C 0.77133 0.1985 0.0858 0.0
C2514 C 0.74788 0.23981 0.09738 0.0
C2515 C 0.77403 0.23024 0.10394 0.0
C2516 C 0.79942 0.20556 0.10128 0.0
C2517 C 0.79831 0.19009 0.09225 0.0
C2518 C 0.77402 0.24473 0.11373 0.0
C2519 C 0.76953 0.22145 0.1214 0.0
C2520 C 0.7766 0.28108 0.11551 0.0
C2521 C 0.78202 0.30676 0.10767 0.0
C2522 C 0.81047 0.3033 0.10134 0.0
C2523 C 0.81523 0.32746 0.09393 0.0
C2524 C 0.79184 0.35534 0.09281 0.0
C2525 C 0.76369 0.35916 0.09912 0.0
C2526 C 0.75879 0.33506 0.10654 0.0
C2527 C 0.78995 0.28362 0.15897 0.0
C2528 C 0.76683 0.3109 0.16123 0.0
C2529 C 0.7916 0.27072 0.14963 0.0
C2530 C 0.7694 0.28431 0.1425 0.0
C2531 C 0.74622 0.31159 0.14481 0.0
C2532 C 0.74494 0.32477 0.15412 0.0
C2533 C 0.77012 0.26998 0.13265 0.0
C2534 C 0.77463 0.29325 0.12496 0.0
C2535 C 0.76698 0.23362 0.13083 0.0
C2536 C 0.75936 0.20795 0.13854 0.0
C2537 C 0.7299 0.2122 0.14447 0.0
C2538 C 0.72293 0.18798 0.15173 0.0
C2539 C 0.74508 0.15925 0.15309 0.0
C2540 C 0.7742 0.15462 0.14716 0.0
C2541 C 0.78132 0.17879 0.1399 0.0
H2542 H 0.73963 0.14053 0.15872 0.0
H2543 H 0.79558 0.37402 0.08707 0.0
loop_
_geom_bond_atom_site_label_1
_geom_bond_atom_site_label_2
_geom_bond_distance
_geom_bond_site_symmetry_2
_ccdc_geom_bond_type
Co0 O3 1.970 . S
Co0 N17 1.989 . S
Co0 O25 1.967 . S
Co0 O32 1.920 1_455 S
Co1 O4 1.966 . S
Co1 N10 2.022 . S
Co1 N18 1.993 . S
Co1 O26 1.941 . S
C2 O3 1.258 . S
C2 O4 1.263 . S
O3 Co0 1.970 . S
O3 C2 1.258 . S
O4 Co1 1.966 . S
O4 C2 1.263 . S
C5 O6 1.235 . S
C5 O32 1.289 . S
O6 C5 1.235 . S
C7 C9 1.400 . S
C7 N10 1.351 . S
C7 C12 1.501 . S
C8 C9 1.387 . S
C8 N11 1.341 . S
C9 C7 1.400 . S
C9 C8 1.387 . S
N10 Co1 2.022 . S
N10 C7 1.351 . S
N10 N11 1.365 . S
N11 C8 1.341 . S
N11 N10 1.365 . S
N11 H31 0.862 . S
C12 C7 1.501 . S
C12 H13 0.961 . S
C12 H14 0.961 . S
C12 H15 0.960 . S
H13 C12 0.961 . S
H14 C12 0.961 . S
H15 C12 0.960 . S
C16 N17 1.342 . S
C16 C20 1.401 . S
C16 C21 1.499 1_455 S
N17 Co0 1.989 . S
N17 C16 1.342 . S
N17 N18 1.388 . S
N18 Co1 1.993 . S
N18 N17 1.388 . S
N18 C19 1.346 . S
C19 N18 1.346 . S
C19 C20 1.396 . S
C19 C29 1.510 . S
C20 C16 1.401 . S
C20 C19 1.396 . S
C21 C16 1.499 1_655 S
C21 H22 0.959 . S
C21 H23 0.960 . S
C21 H24 0.961 1_655 S
H22 C21 0.959 . S
H23 C21 0.960 . S
H24 C21 0.961 1_455 S
O25 Co0 1.967 . S
O25 C33 1.258 . S
O26 Co1 1.941 . S
O26 C33 1.266 . S
H27 C29 0.959 . S
H28 C29 0.961 . S
C29 C19 1.510 . S
C29 H27 0.959 . S
C29 H28 0.961 . S
C29 H30 0.960 . S
H30 C29 0.960 . S
H31 N11 0.862 . S
O32 Co0 1.920 1_655 S
O32 C5 1.289 . S
C33 O25 1.258 . S
C33 O26 1.266 . S
Co34 O37 1.970 . S
Co34 N51 1.989 . S
Co34 O59 1.967 . S
Co34 O66 1.920 1_565 S
Co35 O38 1.966 . S
Co35 N44 2.022 . S
Co35 N52 1.993 . S
Co35 O60 1.941 . S
C36 O37 1.258 . S
C36 O38 1.263 . S
O37 Co34 1.970 . S
O37 C36 1.258 . S
O38 Co35 1.966 . S
O38 C36 1.263 . S
C39 O40 1.235 . S
C39 O66 1.289 . S
O40 C39 1.235 . S
C41 C43 1.400 . S
C41 N44 1.351 . S
C41 C46 1.501 . S
C42 C43 1.387 . S
C42 N45 1.341 . S
C43 C41 1.400 . S
C43 C42 1.387 . S
N44 Co35 2.022 . S
N44 C41 1.351 . S
N44 N45 1.365 . S
N45 C42 1.341 . S
N45 N44 1.365 . S
N45 H65 0.862 . S
C46 C41 1.501 . S
C46 H47 0.961 . S
C46 H48 0.961 . S
C46 H49 0.960 . S
H47 C46 0.961 . S
H48 C46 0.961 . S
H49 C46 0.960 . S
C50 N51 1.342 . S
C50 C54 1.401 . S
C50 C55 1.499 1_565 S
N51 Co34 1.989 . S
N51 C50 1.342 . S
N51 N52 1.388 . S
N52 Co35 1.993 . S
N52 N51 1.388 . S
N52 C53 1.346 . S
C53 N52 1.346 . S
C53 C54 1.396 . S
C53 C63 1.510 . S
C54 C50 1.401 . S
C54 C53 1.396 . S
C55 C50 1.499 1_545 S
C55 H56 0.959 . S
C55 H57 0.960 . S
C55 H58 0.961 1_545 S
H56 C55 0.959 . S
H57 C55 0.960 . S
H58 C55 0.961 1_565 S
O59 Co34 1.967 . S
O59 C67 1.258 . S
O60 Co35 1.941 . S
O60 C67 1.266 . S
H61 C63 0.959 . S
H62 C63 0.961 . S
C63 C53 1.510 . S
C63 H61 0.959 . S
C63 H62 0.961 . S
C63 H64 0.960 . S
H64 C63 0.960 . S
H65 N45 0.862 . S
O66 Co34 1.920 1_545 S
O66 C39 1.289 . S
C67 O59 1.258 . S
C67 O60 1.266 . S
Co68 O71 1.970 . S
Co68 N85 1.989 . S
Co68 O93 1.967 . S
Co68 O100 1.920 1_655 S
Co69 O72 1.966 . S
Co69 N78 2.022 . S
Co69 N86 1.993 . S
Co69 O94 1.941 . S
C70 O71 1.258 . S
C70 O72 1.263 . S
O71 Co68 1.970 . S
O71 C70 1.258 . S
O72 Co69 1.966 . S
O72 C70 1.263 . S
C73 O74 1.235 . S
C73 O100 1.289 . S
O74 C73 1.235 . S
C75 C77 1.400 . S
C75 N78 1.351 . S
C75 C80 1.501 . S
C76 C77 1.387 . S
C76 N79 1.341 . S
C77 C75 1.400 . S
C77 C76 1.387 . S
N78 Co69 2.022 . S
N78 C75 1.351 . S
N78 N79 1.365 . S
N79 C76 1.341 . S
N79 N78 1.365 . S
N79 H99 0.862 . S
C80 C75 1.501 . S
C80 H81 0.961 . S
C80 H82 0.961 . S
C80 H83 0.960 . S
H81 C80 0.961 . S
H82 C80 0.961 . S
H83 C80 0.960 . S
C84 N85 1.342 . S
C84 C88 1.401 . S
C84 C89 1.499 1_655 S
N85 Co68 1.989 . S
N85 C84 1.342 . S
N85 N86 1.388 . S
N86 Co69 1.993 . S
N86 N85 1.388 . S
N86 C87 1.346 . S
C87 N86 1.346 . S
C87 C88 1.396 . S
C87 C97 1.510 . S
C88 C84 1.401 . S
C88 C87 1.396 . S
C89 C84 1.499 1_455 S
C89 H90 0.959 . S
C89 H91 0.960 . S
C89 H92 0.961 1_455 S
H90 C89 0.959 . S
H91 C89 0.960 . S
H92 C89 0.961 1_655 S
O93 Co68 1.967 . S
O93 C101 1.258 . S
O94 Co69 1.941 . S
O94 C101 1.266 . S
H95 C97 0.959 . S
H96 C97 0.961 . S
C97 C87 1.510 . S
C97 H95 0.959 . S
C97 H96 0.961 . S
C97 H98 0.960 . S
H98 C97 0.960 . S
H99 N79 0.862 . S
O100 Co68 1.920 1_455 S
O100 C73 1.289 . S
C101 O93 1.258 . S
C101 O94 1.266 . S
Co102 O105 1.970 . S
Co102 N119 1.989 . S
Co102 O127 1.967 . S
Co102 O134 1.920 1_545 S
Co103 O106 1.966 . S
Co103 N112 2.022 . S
Co103 N120 1.993 . S
Co103 O128 1.941 . S
C104 O105 1.258 . S
C104 O106 1.263 . S
O105 Co102 1.970 . S
O105 C104 1.258 . S
O106 Co103 1.966 . S
O106 C104 1.263 . S
C107 O108 1.235 . S
C107 O134 1.289 . S
O108 C107 1.235 . S
C109 C111 1.400 . S
C109 N112 1.351 . S
C109 C114 1.501 . S
C110 C111 1.387 . S
C110 N113 1.341 . S
C111 C109 1.400 . S
C111 C110 1.387 . S
N112 Co103 2.022 . S
N112 C109 1.351 . S
N112 N113 1.365 . S
N113 C110 1.341 . S
N113 N112 1.365 . S
N113 H133 0.862 . S
C114 C109 1.501 . S
C114 H115 0.961 . S
C114 H116 0.961 . S
C114 H117 0.960 . S
H115 C114 0.961 . S
H116 C114 0.961 . S
H117 C114 0.960 . S
C118 N119 1.342 . S
C118 C122 1.401 . S
C118 C123 1.499 1_545 S
N119 Co102 1.989 . S
N119 C118 1.342 . S
N119 N120 1.388 . S
N120 Co103 1.993 . S
N120 N119 1.388 . S
N120 C121 1.346 . S
C121 N120 1.346 . S
C121 C122 1.396 . S
C121 C131 1.510 . S
C122 C118 1.401 . S
C122 C121 1.396 . S
C123 C118 1.499 1_565 S
C123 H124 0.959 . S
C123 H125 0.960 . S
C123 H126 0.961 1_565 S
H124 C123 0.959 . S
H125 C123 0.960 . S
H126 C123 0.961 1_545 S
O127 Co102 1.967 . S
O127 C135 1.258 . S
O128 Co103 1.941 . S
O128 C135 1.266 . S
H129 C131 0.959 . S
H130 C131 0.961 . S
C131 C121 1.510 . S
C131 H129 0.959 . S
C131 H130 0.961 . S
C131 H132 0.960 . S
H132 C131 0.960 . S
H133 N113 0.862 . S
O134 Co102 1.920 1_565 S
O134 C107 1.289 . S
C135 O127 1.258 . S
C135 O128 1.266 . S
Co136 O139 1.970 . S
Co136 N153 1.989 . S
Co136 O161 1.967 . S
Co136 O168 1.920 1_455 S
Co137 O140 1.966 . S
Co137 N146 2.022 . S
Co137 N154 1.993 . S
Co137 O162 1.941 . S
C138 O139 1.258 . S
C138 O140 1.263 . S
O139 Co136 1.970 . S
O139 C138 1.258 . S
O140 Co137 1.966 . S
O140 C138 1.263 . S
C141 O142 1.235 . S
C141 O168 1.289 . S
O142 C141 1.235 . S
C143 C145 1.400 . S
C143 N146 1.351 . S
C143 C148 1.501 . S
C144 C145 1.387 . S
C144 N147 1.341 . S
C145 C143 1.400 . S
C145 C144 1.387 . S
N146 Co137 2.022 . S
N146 C143 1.351 . S
N146 N147 1.365 . S
N147 C144 1.341 . S
N147 N146 1.365 . S
N147 H167 0.862 . S
C148 C143 1.501 . S
C148 H149 0.961 . S
C148 H150 0.961 . S
C148 H151 0.960 . S
H149 C148 0.961 . S
H150 C148 0.961 . S
H151 C148 0.960 . S
C152 N153 1.342 . S
C152 C156 1.401 . S
C152 C157 1.499 1_455 S
N153 Co136 1.989 . S
N153 C152 1.342 . S
N153 N154 1.388 . S
N154 Co137 1.993 . S
N154 N153 1.388 . S
N154 C155 1.346 . S
C155 N154 1.346 . S
C155 C156 1.396 . S
C155 C165 1.510 . S
C156 C152 1.401 . S
C156 C155 1.396 . S
C157 C152 1.499 1_655 S
C157 H158 0.959 . S
C157 H159 0.960 . S
C157 H160 0.961 1_655 S
H158 C157 0.959 . S
H159 C157 0.960 . S
H160 C157 0.961 1_455 S
O161 Co136 1.967 . S
O161 C169 1.258 . S
O162 Co137 1.941 . S
O162 C169 1.266 . S
H163 C165 0.959 . S
H164 C165 0.961 . S
C165 C155 1.510 . S
C165 H163 0.959 . S
C165 H164 0.961 . S
C165 H166 0.960 . S
H166 C165 0.960 . S
H167 N147 0.862 . S
O168 Co136 1.920 1_655 S
O168 C141 1.289 . S
C169 O161 1.258 . S
C169 O162 1.266 . S
Co170 O173 1.970 . S
Co170 N187 1.989 . S
Co170 O195 1.967 . S
Co170 O202 1.920 1_565 S
Co171 O174 1.966 . S
Co171 N180 2.022 . S
Co171 N188 1.993 . S
Co171 O196 1.941 . S
C172 O173 1.258 . S
C172 O174 1.263 . S
O173 Co170 1.970 . S
O173 C172 1.258 . S
O174 Co171 1.966 . S
O174 C172 1.263 . S
C175 O176 1.235 . S
C175 O202 1.289 . S
O176 C175 1.235 . S
C177 C179 1.400 . S
C177 N180 1.351 . S
C177 C182 1.501 . S
C178 C179 1.387 . S
C178 N181 1.341 . S
C179 C177 1.400 . S
C179 C178 1.387 . S
N180 Co171 2.022 . S
N180 C177 1.351 . S
N180 N181 1.365 . S
N181 C178 1.341 . S
N181 N180 1.365 . S
N181 H201 0.862 . S
C182 C177 1.501 . S
C182 H183 0.961 . S
C182 H184 0.961 . S
C182 H185 0.960 . S
H183 C182 0.961 . S
H184 C182 0.961 . S
H185 C182 0.960 . S
C186 N187 1.342 . S
C186 C190 1.401 . S
C186 C191 1.499 1_565 S
N187 Co170 1.989 . S
N187 C186 1.342 . S
N187 N188 1.388 . S
N188 Co171 1.993 . S
N188 N187 1.388 . S
N188 C189 1.346 . S
C189 N188 1.346 . S
C189 C190 1.396 . S
C189 C199 1.510 . S
C190 C186 1.401 . S
C190 C189 1.396 . S
C191 C186 1.499 1_545 S
C191 H192 0.959 . S
C191 H193 0.960 . S
C191 H194 0.961 1_545 S
H192 C191 0.959 . S
H193 C191 0.960 . S
H194 C191 0.961 1_565 S
O195 Co170 1.967 . S
O195 C203 1.258 . S
O196 Co171 1.941 . S
O196 C203 1.266 . S
H197 C199 0.959 . S
H198 C199 0.961 . S
C199 C189 1.510 . S
C199 H197 0.959 . S
C199 H198 0.961 . S
C199 H200 0.960 . S
H200 C199 0.960 . S
H201 N181 0.862 . S
O202 Co170 1.920 1_545 S
O202 C175 1.289 . S
C203 O195 1.258 . S
C203 O196 1.266 . S
Co204 O207 1.970 . S
Co204 N221 1.989 . S
Co204 O229 1.967 . S
Co204 O236 1.920 1_655 S
Co205 O208 1.966 . S
Co205 N214 2.022 . S
Co205 N222 1.993 . S
Co205 O230 1.941 . S
C206 O207 1.258 . S
C206 O208 1.263 . S
O207 Co204 1.970 . S
O207 C206 1.258 . S
O208 Co205 1.966 . S
O208 C206 1.263 . S
C209 O210 1.235 . S
C209 O236 1.289 . S
O210 C209 1.235 . S
C211 C213 1.400 . S
C211 N214 1.351 . S
C211 C216 1.501 . S
C212 C213 1.387 . S
C212 N215 1.341 . S
C213 C211 1.400 . S
C213 C212 1.387 . S
N214 Co205 2.022 . S
N214 C211 1.351 . S
N214 N215 1.365 . S
N215 C212 1.341 . S
N215 N214 1.365 . S
N215 H235 0.862 . S
C216 C211 1.501 . S
C216 H217 0.961 . S
C216 H218 0.961 . S
C216 H219 0.960 . S
H217 C216 0.961 . S
H218 C216 0.961 . S
H219 C216 0.960 . S
C220 N221 1.342 . S
C220 C224 1.401 . S
C220 C225 1.499 1_655 S
N221 Co204 1.989 . S
N221 C220 1.342 . S
N221 N222 1.388 . S
N222 Co205 1.993 . S
N222 N221 1.388 . S
N222 C223 1.346 . S
C223 N222 1.346 . S
C223 C224 1.396 . S
C223 C233 1.510 . S
C224 C220 1.401 . S
C224 C223 1.396 . S
C225 C220 1.499 1_455 S
C225 H226 0.959 . S
C225 H227 0.960 . S
C225 H228 0.961 1_455 S
H226 C225 0.959 . S
H227 C225 0.960 . S
H228 C225 0.961 1_655 S
O229 Co204 1.967 . S
O229 C237 1.258 . S
O230 Co205 1.941 . S
O230 C237 1.266 . S
H231 C233 0.959 . S
H232 C233 0.961 . S
C233 C223 1.510 . S
C233 H231 0.959 . S
C233 H232 0.961 . S
C233 H234 0.960 . S
H234 C233 0.960 . S
H235 N215 0.862 . S
O236 Co204 1.920 1_455 S
O236 C209 1.289 . S
C237 O229 1.258 . S
C237 O230 1.266 . S
Co238 O241 1.970 . S
Co238 N255 1.989 . S
Co238 O263 1.967 . S
Co238 O270 1.920 1_545 S
Co239 O242 1.966 . S
Co239 N248 2.022 . S
Co239 N256 1.993 . S
Co239 O264 1.941 . S
C240 O241 1.258 . S
C240 O242 1.263 . S
O241 Co238 1.970 . S
O241 C240 1.258 . S
O242 Co239 1.966 . S
O242 C240 1.263 . S
C243 O244 1.235 . S
C243 O270 1.289 . S
O244 C243 1.235 . S
C245 C247 1.400 . S
C245 N248 1.351 . S
C245 C250 1.501 . S
C246 C247 1.387 . S
C246 N249 1.341 . S
C247 C245 1.400 . S
C247 C246 1.387 . S
N248 Co239 2.022 . S
N248 C245 1.351 . S
N248 N249 1.365 . S
N249 C246 1.341 . S
N249 N248 1.365 . S
N249 H269 0.862 . S
C250 C245 1.501 . S
C250 H251 0.961 . S
C250 H252 0.961 . S
C250 H253 0.960 . S
H251 C250 0.961 . S
H252 C250 0.961 . S
H253 C250 0.960 . S
C254 N255 1.342 . S
C254 C258 1.401 . S
C254 C259 1.499 1_545 S
N255 Co238 1.989 . S
N255 C254 1.342 . S
N255 N256 1.388 . S
N256 Co239 1.993 . S
N256 N255 1.388 . S
N256 C257 1.346 . S
C257 N256 1.346 . S
C257 C258 1.396 . S
C257 C267 1.510 . S
C258 C254 1.401 . S
C258 C257 1.396 . S
C259 C254 1.499 1_565 S
C259 H260 0.959 . S
C259 H261 0.960 . S
C259 H262 0.961 1_565 S
H260 C259 0.959 . S
H261 C259 0.960 . S
H262 C259 0.961 1_545 S
O263 Co238 1.967 . S
O263 C271 1.258 . S
O264 Co239 1.941 . S
O264 C271 1.266 . S
H265 C267 0.959 . S
H266 C267 0.961 . S
C267 C257 1.510 . S
C267 H265 0.959 . S
C267 H266 0.961 . S
C267 H268 0.960 . S
H268 C267 0.960 . S
H269 N249 0.862 . S
O270 Co238 1.920 1_565 S
O270 C243 1.289 . S
C271 O263 1.258 . S
C271 O264 1.266 . S
Co272 O275 1.970 . S
Co272 N289 1.989 . S
Co272 O297 1.967 . S
Co272 O304 1.920 . S
Co273 O276 1.966 . S
Co273 N282 2.022 . S
Co273 N290 1.993 . S
Co273 O298 1.941 . S
C274 O275 1.258 . S
C274 O276 1.263 . S
O275 Co272 1.970 . S
O275 C274 1.258 . S
O276 Co273 1.966 . S
O276 C274 1.263 . S
C277 O278 1.235 . S
C277 O304 1.289 . S
O278 C277 1.235 . S
C279 C281 1.400 . S
C279 N282 1.351 . S
C279 C284 1.501 . S
C280 C281 1.387 . S
C280 N283 1.341 . S
C281 C279 1.400 . S
C281 C280 1.387 . S
N282 Co273 2.022 . S
N282 C279 1.351 . S
N282 N283 1.365 . S
N283 C280 1.341 . S
N283 N282 1.365 . S
N283 H303 0.862 . S
C284 C279 1.501 . S
C284 H285 0.961 . S
C284 H286 0.961 . S
C284 H287 0.960 . S
H285 C284 0.961 . S
H286 C284 0.961 . S
H287 C284 0.960 . S
C288 N289 1.342 . S
C288 C292 1.401 . S
C288 C293 1.499 . S
N289 Co272 1.989 . S
N289 C288 1.342 . S
N289 N290 1.388 . S
N290 Co273 1.993 . S
N290 N289 1.388 . S
N290 C291 1.346 . S
C291 N290 1.346 . S
C291 C292 1.396 . S
C291 C301 1.510 . S
C292 C288 1.401 . S
C292 C291 1.396 . S
C293 C288 1.499 . S
C293 H294 0.959 . S
C293 H295 0.960 . S
C293 H296 0.961 . S
H294 C293 0.959 . S
H295 C293 0.960 . S
H296 C293 0.961 . S
O297 Co272 1.967 . S
O297 C305 1.258 . S
O298 Co273 1.941 . S
O298 C305 1.266 . S
H299 C301 0.959 . S
H300 C301 0.961 . S
C301 C291 1.510 . S
C301 H299 0.959 . S
C301 H300 0.961 . S
C301 H302 0.960 . S
H302 C301 0.960 . S
H303 N283 0.862 . S
O304 Co272 1.920 . S
O304 C277 1.289 . S
C305 O297 1.258 . S
C305 O298 1.266 . S
Co306 O309 1.970 . S
Co306 N323 1.989 . S
Co306 O331 1.967 . S
Co306 O338 1.920 . S
Co307 O310 1.966 . S
Co307 N316 2.022 . S
Co307 N324 1.993 . S
Co307 O332 1.941 . S
C308 O309 1.258 . S
C308 O310 1.263 . S
O309 Co306 1.970 . S
O309 C308 1.258 . S
O310 Co307 1.966 . S
O310 C308 1.263 . S
C311 O312 1.235 . S
C311 O338 1.289 . S
O312 C311 1.235 . S
C313 C315 1.400 . S
C313 N316 1.351 . S
C313 C318 1.501 . S
C314 C315 1.387 . S
C314 N317 1.341 . S
C315 C313 1.400 . S
C315 C314 1.387 . S
N316 Co307 2.022 . S
N316 C313 1.351 . S
N316 N317 1.365 . S
N317 C314 1.341 . S
N317 N316 1.365 . S
N317 H337 0.862 . S
C318 C313 1.501 . S
C318 H319 0.961 . S
C318 H320 0.961 . S
C318 H321 0.960 . S
H319 C318 0.961 . S
H320 C318 0.961 . S
H321 C318 0.960 . S
C322 N323 1.342 . S
C322 C326 1.401 . S
C322 C327 1.499 . S
N323 Co306 1.989 . S
N323 C322 1.342 . S
N323 N324 1.388 . S
N324 Co307 1.993 . S
N324 N323 1.388 . S
N324 C325 1.346 . S
C325 N324 1.346 . S
C325 C326 1.396 . S
C325 C335 1.510 . S
C326 C322 1.401 . S
C326 C325 1.396 . S
C327 C322 1.499 . S
C327 H328 0.959 . S
C327 H329 0.960 . S
C327 H330 0.961 . S
H328 C327 0.959 . S
H329 C327 0.960 . S
H330 C327 0.961 . S
O331 Co306 1.967 . S
O331 C339 1.258 . S
O332 Co307 1.941 . S
O332 C339 1.266 . S
H333 C335 0.959 . S
H334 C335 0.961 . S
C335 C325 1.510 . S
C335 H333 0.959 . S
C335 H334 0.961 . S
C335 H336 0.960 . S
H336 C335 0.960 . S
H337 N317 0.862 . S
O338 Co306 1.920 . S
O338 C311 1.289 . S
C339 O331 1.258 . S
C339 O332 1.266 . S
Co340 O343 1.970 . S
Co340 N357 1.989 . S
Co340 O365 1.967 . S
Co340 O372 1.920 . S
Co341 O344 1.966 . S
Co341 N350 2.022 . S
Co341 N358 1.993 . S
Co341 O366 1.941 . S
C342 O343 1.258 . S
C342 O344 1.263 . S
O343 Co340 1.970 . S
O343 C342 1.258 . S
O344 Co341 1.966 . S
O344 C342 1.263 . S
C345 O346 1.235 . S
C345 O372 1.289 . S
O346 C345 1.235 . S
C347 C349 1.400 . S
C347 N350 1.351 . S
C347 C352 1.501 . S
C348 C349 1.387 . S
C348 N351 1.341 . S
C349 C347 1.400 . S
C349 C348 1.387 . S
N350 Co341 2.022 . S
N350 C347 1.351 . S
N350 N351 1.365 . S
N351 C348 1.341 . S
N351 N350 1.365 . S
N351 H371 0.862 . S
C352 C347 1.501 . S
C352 H353 0.961 . S
C352 H354 0.961 . S
C352 H355 0.960 . S
H353 C352 0.961 . S
H354 C352 0.961 . S
H355 C352 0.960 . S
C356 N357 1.342 . S
C356 C360 1.401 . S
C356 C361 1.499 . S
N357 Co340 1.989 . S
N357 C356 1.342 . S
N357 N358 1.388 . S
N358 Co341 1.993 . S
N358 N357 1.388 . S
N358 C359 1.346 . S
C359 N358 1.346 . S
C359 C360 1.396 . S
C359 C369 1.510 . S
C360 C356 1.401 . S
C360 C359 1.396 . S
C361 C356 1.499 . S
C361 H362 0.959 . S
C361 H363 0.960 . S
C361 H364 0.961 . S
H362 C361 0.959 . S
H363 C361 0.960 . S
H364 C361 0.961 . S
O365 Co340 1.967 . S
O365 C373 1.258 . S
O366 Co341 1.941 . S
O366 C373 1.266 . S
H367 C369 0.959 . S
H368 C369 0.961 . S
C369 C359 1.510 . S
C369 H367 0.959 . S
C369 H368 0.961 . S
C369 H370 0.960 . S
H370 C369 0.960 . S
H371 N351 0.862 . S
O372 Co340 1.920 . S
O372 C345 1.289 . S
C373 O365 1.258 . S
C373 O366 1.266 . S
Co374 O377 1.970 . S
Co374 N391 1.989 . S
Co374 O399 1.967 . S
Co374 O406 1.920 . S
Co375 O378 1.966 . S
Co375 N384 2.022 . S
Co375 N392 1.993 . S
Co375 O400 1.941 . S
C376 O377 1.258 . S
C376 O378 1.263 . S
O377 Co374 1.970 . S
O377 C376 1.258 . S
O378 Co375 1.966 . S
O378 C376 1.263 . S
C379 O380 1.235 . S
C379 O406 1.289 . S
O380 C379 1.235 . S
C381 C383 1.400 . S
C381 N384 1.351 . S
C381 C386 1.501 . S
C382 C383 1.387 . S
C382 N385 1.341 . S
C383 C381 1.400 . S
C383 C382 1.387 . S
N384 Co375 2.022 . S
N384 C381 1.351 . S
N384 N385 1.365 . S
N385 C382 1.341 . S
N385 N384 1.365 . S
N385 H405 0.862 . S
C386 C381 1.501 . S
C386 H387 0.961 . S
C386 H388 0.961 . S
C386 H389 0.960 . S
H387 C386 0.961 . S
H388 C386 0.961 . S
H389 C386 0.960 . S
C390 N391 1.342 . S
C390 C394 1.401 . S
C390 C395 1.499 . S
N391 Co374 1.989 . S
N391 C390 1.342 . S
N391 N392 1.388 . S
N392 Co375 1.993 . S
N392 N391 1.388 . S
N392 C393 1.346 . S
C393 N392 1.346 . S
C393 C394 1.396 . S
C393 C403 1.510 . S
C394 C390 1.401 . S
C394 C393 1.396 . S
C395 C390 1.499 . S
C395 H396 0.959 . S
C395 H397 0.960 . S
C395 H398 0.961 . S
H396 C395 0.959 . S
H397 C395 0.960 . S
H398 C395 0.961 . S
O399 Co374 1.967 . S
O399 C407 1.258 . S
O400 Co375 1.941 . S
O400 C407 1.266 . S
H401 C403 0.959 . S
H402 C403 0.961 . S
C403 C393 1.510 . S
C403 H401 0.959 . S
C403 H402 0.961 . S
C403 H404 0.960 . S
H404 C403 0.960 . S
H405 N385 0.862 . S
O406 Co374 1.920 . S
O406 C379 1.289 . S
C407 O399 1.258 . S
C407 O400 1.266 . S
Co408 O411 1.970 . S
Co408 N425 1.989 . S
Co408 O433 1.967 . S
Co408 O440 1.920 . S
Co409 O412 1.966 . S
Co409 N418 2.022 . S
Co409 N426 1.993 . S
Co409 O434 1.941 . S
C410 O411 1.258 . S
C410 O412 1.263 . S
O411 Co408 1.970 . S
O411 C410 1.258 . S
O412 Co409 1.966 . S
O412 C410 1.263 . S
C413 O414 1.235 . S
C413 O440 1.289 . S
O414 C413 1.235 . S
C415 C417 1.400 . S
C415 N418 1.351 . S
C415 C420 1.501 . S
C416 C417 1.387 . S
C416 N419 1.341 . S
C417 C415 1.400 . S
C417 C416 1.387 . S
N418 Co409 2.022 . S
N418 C415 1.351 . S
N418 N419 1.365 . S
N419 C416 1.341 . S
N419 N418 1.365 . S
N419 H439 0.862 . S
C420 C415 1.501 . S
C420 H421 0.961 . S
C420 H422 0.961 . S
C420 H423 0.960 . S
H421 C420 0.961 . S
H422 C420 0.961 . S
H423 C420 0.960 . S
C424 N425 1.342 . S
C424 C428 1.401 . S
C424 C429 1.499 . S
N425 Co408 1.989 . S
N425 C424 1.342 . S
N425 N426 1.388 . S
N426 Co409 1.993 . S
N426 N425 1.388 . S
N426 C427 1.346 . S
C427 N426 1.346 . S
C427 C428 1.396 . S
C427 C437 1.510 . S
C428 C424 1.401 . S
C428 C427 1.396 . S
C429 C424 1.499 . S
C429 H430 0.959 . S
C429 H431 0.960 . S
C429 H432 0.961 . S
H430 C429 0.959 . S
H431 C429 0.960 . S
H432 C429 0.961 . S
O433 Co408 1.967 . S
O433 C441 1.258 . S
O434 Co409 1.941 . S
O434 C441 1.266 . S
H435 C437 0.959 . S
H436 C437 0.961 . S
C437 C427 1.510 . S
C437 H435 0.959 . S
C437 H436 0.961 . S
C437 H438 0.960 . S
H438 C437 0.960 . S
H439 N419 0.862 . S
O440 Co408 1.920 . S
O440 C413 1.289 . S
C441 O433 1.258 . S
C441 O434 1.266 . S
Co442 O445 1.970 . S
Co442 N459 1.989 . S
Co442 O467 1.967 . S
Co442 O474 1.920 . S
Co443 O446 1.966 . S
Co443 N452 2.022 . S
Co443 N460 1.993 . S
Co443 O468 1.941 . S
C444 O445 1.258 . S
C444 O446 1.263 . S
O445 Co442 1.970 . S
O445 C444 1.258 . S
O446 Co443 1.966 . S
O446 C444 1.263 . S
C447 O448 1.235 . S
C447 O474 1.289 . S
O448 C447 1.235 . S
C449 C451 1.400 . S
C449 N452 1.351 . S
C449 C454 1.501 . S
C450 C451 1.387 . S
C450 N453 1.341 . S
C451 C449 1.400 . S
C451 C450 1.387 . S
N452 Co443 2.022 . S
N452 C449 1.351 . S
N452 N453 1.365 . S
N453 C450 1.341 . S
N453 N452 1.365 . S
N453 H473 0.862 . S
C454 C449 1.501 . S
C454 H455 0.961 . S
C454 H456 0.961 . S
C454 H457 0.960 . S
H455 C454 0.961 . S
H456 C454 0.961 . S
H457 C454 0.960 . S
C458 N459 1.342 . S
C458 C462 1.401 . S
C458 C463 1.499 . S
N459 Co442 1.989 . S
N459 C458 1.342 . S
N459 N460 1.388 . S
N460 Co443 1.993 . S
N460 N459 1.388 . S
N460 C461 1.346 . S
C461 N460 1.346 . S
C461 C462 1.396 . S
C461 C471 1.510 . S
C462 C458 1.401 . S
C462 C461 1.396 . S
C463 C458 1.499 . S
C463 H464 0.959 . S
C463 H465 0.960 . S
C463 H466 0.961 . S
H464 C463 0.959 . S
H465 C463 0.960 . S
H466 C463 0.961 . S
O467 Co442 1.967 . S
O467 C475 1.258 . S
O468 Co443 1.941 . S
O468 C475 1.266 . S
H469 C471 0.959 . S
H470 C471 0.961 . S
C471 C461 1.510 . S
C471 H469 0.959 . S
C471 H470 0.961 . S
C471 H472 0.960 . S
H472 C471 0.960 . S
H473 N453 0.862 . S
O474 Co442 1.920 . S
O474 C447 1.289 . S
C475 O467 1.258 . S
C475 O468 1.266 . S
Co476 O479 1.970 . S
Co476 N493 1.989 . S
Co476 O501 1.967 . S
Co476 O508 1.920 . S
Co477 O480 1.966 . S
Co477 N486 2.022 . S
Co477 N494 1.993 . S
Co477 O502 1.941 . S
C478 O479 1.258 . S
C478 O480 1.263 . S
O479 Co476 1.970 . S
O479 C478 1.258 . S
O480 Co477 1.966 . S
O480 C478 1.263 . S
C481 O482 1.235 . S
C481 O508 1.289 . S
O482 C481 1.235 . S
C483 C485 1.400 . S
C483 N486 1.351 . S
C483 C488 1.501 . S
C484 C485 1.387 . S
C484 N487 1.341 . S
C485 C483 1.400 . S
C485 C484 1.387 . S
N486 Co477 2.022 . S
N486 C483 1.351 . S
N486 N487 1.365 . S
N487 C484 1.341 . S
N487 N486 1.365 . S
N487 H507 0.862 . S
C488 C483 1.501 . S
C488 H489 0.961 . S
C488 H490 0.961 . S
C488 H491 0.960 . S
H489 C488 0.961 . S
H490 C488 0.961 . S
H491 C488 0.960 . S
C492 N493 1.342 . S
C492 C496 1.401 . S
C492 C497 1.499 . S
N493 Co476 1.989 . S
N493 C492 1.342 . S
N493 N494 1.388 . S
N494 Co477 1.993 . S
N494 N493 1.388 . S
N494 C495 1.346 . S
C495 N494 1.346 . S
C495 C496 1.396 . S
C495 C505 1.510 . S
C496 C492 1.401 . S
C496 C495 1.396 . S
C497 C492 1.499 . S
C497 H498 0.959 . S
C497 H499 0.960 . S
C497 H500 0.961 . S
H498 C497 0.959 . S
H499 C497 0.960 . S
H500 C497 0.961 . S
O501 Co476 1.967 . S
O501 C509 1.258 . S
O502 Co477 1.941 . S
O502 C509 1.266 . S
H503 C505 0.959 . S
H504 C505 0.961 . S
C505 C495 1.510 . S
C505 H503 0.959 . S
C505 H504 0.961 . S
C505 H506 0.960 . S
H506 C505 0.960 . S
H507 N487 0.862 . S
O508 Co476 1.920 . S
O508 C481 1.289 . S
C509 O501 1.258 . S
C509 O502 1.266 . S
Co510 O513 1.970 . S
Co510 N527 1.989 . S
Co510 O535 1.967 . S
Co510 O542 1.920 . S
Co511 O514 1.966 . S
Co511 N520 2.022 . S
Co511 N528 1.993 . S
Co511 O536 1.941 . S
C512 O513 1.258 . S
C512 O514 1.263 . S
O513 Co510 1.970 . S
O513 C512 1.258 . S
O514 Co511 1.966 . S
O514 C512 1.263 . S
C515 O516 1.235 . S
C515 O542 1.289 . S
O516 C515 1.235 . S
C517 C519 1.400 . S
C517 N520 1.351 . S
C517 C522 1.501 . S
C518 C519 1.387 . S
C518 N521 1.341 . S
C519 C517 1.400 . S
C519 C518 1.387 . S
N520 Co511 2.022 . S
N520 C517 1.351 . S
N520 N521 1.365 . S
N521 C518 1.341 . S
N521 N520 1.365 . S
N521 H541 0.862 . S
C522 C517 1.501 . S
C522 H523 0.961 . S
C522 H524 0.961 . S
C522 H525 0.960 . S
H523 C522 0.961 . S
H524 C522 0.961 . S
H525 C522 0.960 . S
C526 N527 1.342 . S
C526 C530 1.401 . S
C526 C531 1.499 . S
N527 Co510 1.989 . S
N527 C526 1.342 . S
N527 N528 1.388 . S
N528 Co511 1.993 . S
N528 N527 1.388 . S
N528 C529 1.346 . S
C529 N528 1.346 . S
C529 C530 1.396 . S
C529 C539 1.510 . S
C530 C526 1.401 . S
C530 C529 1.396 . S
C531 C526 1.499 . S
C531 H532 0.959 . S
C531 H533 0.960 . S
C531 H534 0.961 . S
H532 C531 0.959 . S
H533 C531 0.960 . S
H534 C531 0.961 . S
O535 Co510 1.967 . S
O535 C543 1.258 . S
O536 Co511 1.941 . S
O536 C543 1.266 . S
H537 C539 0.959 . S
H538 C539 0.961 . S
C539 C529 1.510 . S
C539 H537 0.959 . S
C539 H538 0.961 . S
C539 H540 0.960 . S
H540 C539 0.960 . S
H541 N521 0.862 . S
O542 Co510 1.920 . S
O542 C515 1.289 . S
C543 O535 1.258 . S
C543 O536 1.266 . S
H544 C562 0.951 . S
H545 C564 0.951 . S
H546 C566 0.950 . S
H547 C567 0.950 . S
H548 C569 0.950 . S
H549 C572 0.950 . S
H550 C573 0.950 . S
H551 C575 0.950 . S
H552 C576 0.950 . S
H553 C577 0.951 . S
H554 C579 0.951 . S
H555 C581 0.950 . S
H556 C582 0.950 . S
H557 C584 0.950 . S
H558 C587 0.950 . S
H559 C588 0.950 . S
H560 C590 0.950 . S
H561 C591 0.950 . S
C562 H544 0.951 . S
C562 C563 1.366 . S
C562 C564 1.388 . S
C563 C562 1.366 . S
C563 C567 1.385 . S
C564 H545 0.951 . S
C564 C562 1.388 . S
C564 C565 1.366 . S
C565 C564 1.366 . S
C565 C566 1.414 . S
C565 C568 1.499 . S
C566 H546 0.950 . S
C566 C565 1.414 . S
C566 C567 1.374 . S
C567 H547 0.950 . S
C567 C563 1.385 . S
C567 C566 1.374 . S
C568 C565 1.499 . S
C568 C569 1.373 . S
C568 C570 1.389 . S
C569 H548 0.950 . S
C569 C568 1.373 . S
C569 C585 1.377 . S
C570 C568 1.389 . S
C570 C571 1.524 . S
C570 C584 1.377 . S
C571 C570 1.524 . S
C571 C572 1.397 . S
C571 C576 1.363 . S
C572 H549 0.950 . S
C572 C571 1.397 . S
C572 C573 1.334 . S
C573 H550 0.950 . S
C573 C572 1.334 . S
C573 C574 1.287 . S
C574 C573 1.287 . S
C574 C575 1.524 . S
C574 H593 0.913 . S
C575 H551 0.950 . S
C575 C574 1.524 . S
C575 C576 1.415 . S
C576 H552 0.950 . S
C576 C571 1.363 . S
C576 C575 1.415 . S
C577 H553 0.951 . S
C577 C578 1.366 . S
C577 C579 1.388 . S
C578 C577 1.366 . S
C578 C582 1.385 . S
C579 H554 0.951 . S
C579 C577 1.388 . S
C579 C580 1.366 . S
C580 C579 1.366 . S
C580 C581 1.414 . S
C580 C583 1.499 . S
C581 H555 0.950 . S
C581 C580 1.414 . S
C581 C582 1.374 . S
C582 H556 0.950 . S
C582 C578 1.385 . S
C582 C581 1.374 . S
C583 C580 1.499 . S
C583 C584 1.373 . S
C583 C585 1.389 . S
C584 H557 0.950 . S
C584 C570 1.377 . S
C584 C583 1.373 . S
C585 C569 1.377 . S
C585 C583 1.389 . S
C585 C586 1.524 . S
C586 C585 1.524 . S
C586 C587 1.397 . S
C586 C591 1.363 . S
C587 H558 0.950 . S
C587 C586 1.397 . S
C587 C588 1.334 . S
C588 H559 0.950 . S
C588 C587 1.334 . S
C588 C589 1.287 . S
C589 C588 1.287 . S
C589 C590 1.524 . S
C589 H592 0.999 . S
C590 H560 0.950 . S
C590 C589 1.524 . S
C590 C591 1.415 . S
C591 H561 0.950 . S
C591 C586 1.363 . S
C591 C590 1.415 . S
H592 C589 0.999 . S
H593 C574 0.913 . S
H594 C612 0.951 . S
H595 C614 0.951 . S
H596 C616 0.950 . S
H597 C617 0.950 . S
H598 C619 0.950 . S
H599 C622 0.950 . S
H600 C623 0.950 . S
H601 C625 0.950 . S
H602 C626 0.950 . S
H603 C627 0.951 . S
H604 C629 0.951 . S
H605 C631 0.950 . S
H606 C632 0.950 . S
H607 C634 0.950 . S
H608 C637 0.950 . S
H609 C638 0.950 . S
H610 C640 0.950 . S
H611 C641 0.950 . S
C612 H594 0.951 . S
C612 C613 1.366 . S
C612 C614 1.388 . S
C613 C612 1.366 . S
C613 C617 1.385 . S
C614 H595 0.951 . S
C614 C612 1.388 . S
C614 C615 1.366 . S
C615 C614 1.366 . S
C615 C616 1.414 . S
C615 C618 1.499 . S
C616 H596 0.950 . S
C616 C615 1.414 . S
C616 C617 1.374 . S
C617 H597 0.950 . S
C617 C613 1.385 . S
C617 C616 1.374 . S
C618 C615 1.499 . S
C618 C619 1.373 . S
C618 C620 1.389 . S
C619 H598 0.950 . S
C619 C618 1.373 . S
C619 C635 1.377 . S
C620 C618 1.389 . S
C620 C621 1.524 . S
C620 C634 1.377 . S
C621 C620 1.524 . S
C621 C622 1.397 . S
C621 C626 1.363 . S
C622 H599 0.950 . S
C622 C621 1.397 . S
C622 C623 1.334 . S
C623 H600 0.950 . S
C623 C622 1.334 . S
C623 C624 1.287 . S
C624 C623 1.287 . S
C624 C625 1.524 . S
C624 H643 0.913 . S
C625 H601 0.950 . S
C625 C624 1.524 . S
C625 C626 1.415 . S
C626 H602 0.950 . S
C626 C621 1.363 . S
C626 C625 1.415 . S
C627 H603 0.951 . S
C627 C628 1.366 . S
C627 C629 1.388 . S
C628 C627 1.366 . S
C628 C632 1.385 . S
C629 H604 0.951 . S
C629 C627 1.388 . S
C629 C630 1.366 . S
C630 C629 1.366 . S
C630 C631 1.414 . S
C630 C633 1.499 . S
C631 H605 0.950 . S
C631 C630 1.414 . S
C631 C632 1.374 . S
C632 H606 0.950 . S
C632 C628 1.385 . S
C632 C631 1.374 . S
C633 C630 1.499 . S
C633 C634 1.373 . S
C633 C635 1.389 . S
C634 H607 0.950 . S
C634 C620 1.377 . S
C634 C633 1.373 . S
C635 C619 1.377 . S
C635 C633 1.389 . S
C635 C636 1.524 . S
C636 C635 1.524 . S
C636 C637 1.397 . S
C636 C641 1.363 . S
C637 H608 0.950 . S
C637 C636 1.397 . S
C637 C638 1.334 . S
C638 H609 0.950 . S
C638 C637 1.334 . S
C638 C639 1.287 . S
C639 C638 1.287 . S
C639 C640 1.524 . S
C639 H642 0.999 . S
C640 H610 0.950 . S
C640 C639 1.524 . S
C640 C641 1.415 . S
C641 H611 0.950 . S
C641 C636 1.363 . S
C641 C640 1.415 . S
H642 C639 0.999 . S
H643 C624 0.913 . S
H644 C662 0.951 . S
H645 C664 0.951 . S
H646 C666 0.950 . S
H647 C667 0.950 . S
H648 C669 0.950 . S
H649 C672 0.950 . S
H650 C673 0.950 . S
H651 C675 0.950 . S
H652 C676 0.950 . S
H653 C677 0.951 . S
H654 C679 0.951 . S
H655 C681 0.950 . S
H656 C682 0.950 . S
H657 C684 0.950 . S
H658 C687 0.950 . S
H659 C688 0.950 . S
H660 C690 0.950 . S
H661 C691 0.950 . S
C662 H644 0.951 . S
C662 C663 1.366 . S
C662 C664 1.388 . S
C663 C662 1.366 . S
C663 C667 1.385 . S
C664 H645 0.951 . S
C664 C662 1.388 . S
C664 C665 1.366 . S
C665 C664 1.366 . S
C665 C666 1.414 . S
C665 C668 1.499 . S
C666 H646 0.950 . S
C666 C665 1.414 . S
C666 C667 1.374 . S
C667 H647 0.950 . S
C667 C663 1.385 . S
C667 C666 1.374 . S
C668 C665 1.499 . S
C668 C669 1.373 . S
C668 C670 1.389 . S
C669 H648 0.950 . S
C669 C668 1.373 . S
C669 C685 1.377 . S
C670 C668 1.389 . S
C670 C671 1.524 . S
C670 C684 1.377 . S
C671 C670 1.524 . S
C671 C672 1.397 . S
C671 C676 1.363 . S
C672 H649 0.950 . S
C672 C671 1.397 . S
C672 C673 1.334 . S
C673 H650 0.950 . S
C673 C672 1.334 . S
C673 C674 1.287 . S
C674 C673 1.287 . S
C674 C675 1.524 . S
C674 H693 0.913 . S
C675 H651 0.950 . S
C675 C674 1.524 . S
C675 C676 1.415 . S
C676 H652 0.950 . S
C676 C671 1.363 . S
C676 C675 1.415 . S
C677 H653 0.951 . S
C677 C678 1.366 . S
C677 C679 1.388 . S
C678 C677 1.366 . S
C678 C682 1.385 . S
C679 H654 0.951 . S
C679 C677 1.388 . S
C679 C680 1.366 . S
C680 C679 1.366 . S
C680 C681 1.414 . S
C680 C683 1.499 . S
C681 H655 0.950 . S
C681 C680 1.414 . S
C681 C682 1.374 . S
C682 H656 0.950 . S
C682 C678 1.385 . S
C682 C681 1.374 . S
C683 C680 1.499 . S
C683 C684 1.373 . S
C683 C685 1.389 . S
C684 H657 0.950 . S
C684 C670 1.377 . S
C684 C683 1.373 . S
C685 C669 1.377 . S
C685 C683 1.389 . S
C685 C686 1.524 . S
C686 C685 1.524 . S
C686 C687 1.397 . S
C686 C691 1.363 . S
C687 H658 0.950 . S
C687 C686 1.397 . S
C687 C688 1.334 . S
C688 H659 0.950 . S
C688 C687 1.334 . S
C688 C689 1.287 . S
C689 C688 1.287 . S
C689 C690 1.524 . S
C689 H692 0.999 . S
C690 H660 0.950 . S
C690 C689 1.524 . S
C690 C691 1.415 . S
C691 H661 0.950 . S
C691 C686 1.363 . S
C691 C690 1.415 . S
H692 C689 0.999 . S
H693 C674 0.913 . S
H694 C712 0.951 . S
H695 C714 0.951 . S
H696 C716 0.950 . S
H697 C717 0.950 . S
H698 C719 0.950 . S
H699 C722 0.950 . S
H700 C723 0.950 . S
H701 C725 0.950 . S
H702 C726 0.950 . S
H703 C727 0.951 . S
H704 C729 0.951 . S
H705 C731 0.950 . S
H706 C732 0.950 . S
H707 C734 0.950 . S
H708 C737 0.950 . S
H709 C738 0.950 . S
H710 C740 0.950 . S
H711 C741 0.950 . S
C712 H694 0.951 . S
C712 C713 1.366 . S
C712 C714 1.388 . S
C713 C712 1.366 . S
C713 C717 1.385 . S
C714 H695 0.951 . S
C714 C712 1.388 . S
C714 C715 1.366 . S
C715 C714 1.366 . S
C715 C716 1.414 . S
C715 C718 1.499 . S
C716 H696 0.950 . S
C716 C715 1.414 . S
C716 C717 1.374 . S
C717 H697 0.950 . S
C717 C713 1.385 . S
C717 C716 1.374 . S
C718 C715 1.499 . S
C718 C719 1.373 . S
C718 C720 1.389 . S
C719 H698 0.950 . S
C719 C718 1.373 . S
C719 C735 1.377 . S
C720 C718 1.389 . S
C720 C721 1.524 . S
C720 C734 1.377 . S
C721 C720 1.524 . S
C721 C722 1.397 . S
C721 C726 1.363 . S
C722 H699 0.950 . S
C722 C721 1.397 . S
C722 C723 1.334 . S
C723 H700 0.950 . S
C723 C722 1.334 . S
C723 C724 1.287 . S
C724 C723 1.287 . S
C724 C725 1.524 . S
C724 H743 0.913 . S
C725 H701 0.950 . S
C725 C724 1.524 . S
C725 C726 1.415 . S
C726 H702 0.950 . S
C726 C721 1.363 . S
C726 C725 1.415 . S
C727 H703 0.951 . S
C727 C728 1.366 . S
C727 C729 1.388 . S
C728 C727 1.366 . S
C728 C732 1.385 . S
C729 H704 0.951 . S
C729 C727 1.388 . S
C729 C730 1.366 . S
C730 C729 1.366 . S
C730 C731 1.414 . S
C730 C733 1.499 . S
C731 H705 0.950 . S
C731 C730 1.414 . S
C731 C732 1.374 . S
C732 H706 0.950 . S
C732 C728 1.385 . S
C732 C731 1.374 . S
C733 C730 1.499 . S
C733 C734 1.373 . S
C733 C735 1.389 . S
C734 H707 0.950 . S
C734 C720 1.377 . S
C734 C733 1.373 . S
C735 C719 1.377 . S
C735 C733 1.389 . S
C735 C736 1.524 . S
C736 C735 1.524 . S
C736 C737 1.397 . S
C736 C741 1.363 . S
C737 H708 0.950 . S
C737 C736 1.397 . S
C737 C738 1.334 . S
C738 H709 0.950 . S
C738 C737 1.334 . S
C738 C739 1.287 . S
C739 C738 1.287 . S
C739 C740 1.524 . S
C739 H742 0.999 . S
C740 H710 0.950 . S
C740 C739 1.524 . S
C740 C741 1.415 . S
C741 H711 0.950 . S
C741 C736 1.363 . S
C741 C740 1.415 . S
H742 C739 0.999 . S
H743 C724 0.913 . S
H744 C762 0.951 . S
H745 C764 0.951 . S
H746 C766 0.950 . S
H747 C767 0.950 . S
H748 C769 0.930 1_554 S
H749 C772 0.950 . S
H750 C773 0.950 . S
H751 C775 0.950 . S
H752 C776 0.899 1_556 S
H753 C777 0.951 . S
H754 C779 0.951 . S
H755 C781 0.950 . S
H756 C782 0.950 . S
H757 C784 0.950 . S
H758 C787 0.950 . S
H759 C788 0.950 . S
H760 C790 0.950 . S
H761 C791 0.950 . S
C762 H744 0.951 . S
C762 C763 1.366 . S
C762 C764 1.388 . S
C763 C762 1.366 . S
C763 C767 1.385 . S
C764 H745 0.951 . S
C764 C762 1.388 . S
C764 C765 1.366 . S
C765 C764 1.366 . S
C765 C766 1.414 . S
C765 C768 1.499 . S
C766 H746 0.950 . S
C766 C765 1.414 . S
C766 C767 1.374 . S
C767 H747 0.950 . S
C767 C763 1.385 . S
C767 C766 1.374 . S
C768 C765 1.499 . S
C768 C769 1.321 1_554 S
C768 C770 1.389 . S
C769 H748 0.930 1_556 S
C769 C768 1.321 1_556 S
C769 C785 1.450 . S
C770 C768 1.389 . S
C770 C771 1.524 . S
C770 C784 1.377 1_554 S
C771 C770 1.524 . S
C771 C772 1.397 . S
C771 C776 1.363 . S
C772 H749 0.950 . S
C772 C771 1.397 . S
C772 C773 1.334 . S
C773 H750 0.950 . S
C773 C772 1.334 . S
C773 C774 1.287 . S
C774 C773 1.287 . S
C774 C775 1.524 . S
C774 H793 0.913 . S
C775 H751 0.950 . S
C775 C774 1.524 . S
C775 C776 1.415 . S
C776 H752 0.899 1_554 S
C776 C771 1.363 . S
C776 C775 1.415 . S
C777 H753 0.951 . S
C777 C778 1.366 . S
C777 C779 1.388 . S
C778 C777 1.366 . S
C778 C782 1.385 . S
C779 H754 0.951 . S
C779 C777 1.388 . S
C779 C780 1.366 . S
C780 C779 1.366 . S
C780 C781 1.414 . S
C780 C783 1.499 . S
C781 H755 0.950 . S
C781 C780 1.414 . S
C781 C782 1.374 . S
C782 H756 0.950 . S
C782 C778 1.385 . S
C782 C781 1.374 . S
C783 C780 1.499 . S
C783 C784 1.373 . S
C783 C785 1.389 . S
C784 H757 0.950 . S
C784 C770 1.377 1_556 S
C784 C783 1.373 . S
C785 C769 1.450 . S
C785 C783 1.389 . S
C785 C786 1.524 . S
C786 C785 1.524 . S
C786 C787 1.397 . S
C786 C791 1.363 . S
C787 H758 0.950 . S
C787 C786 1.397 . S
C787 C788 1.334 . S
C788 H759 0.950 . S
C788 C787 1.334 . S
C788 C789 1.287 . S
C789 C788 1.287 . S
C789 C790 1.524 . S
C789 H792 0.999 . S
C790 H760 0.950 . S
C790 C789 1.524 . S
C790 C791 1.415 . S
C791 H761 0.950 . S
C791 C786 1.363 . S
C791 C790 1.415 . S
H792 C789 0.999 . S
H793 C774 0.913 . S
H794 C812 0.951 . S
H795 C814 0.951 . S
H796 C816 0.950 . S
H797 C817 0.950 . S
H798 C819 0.953 . S
H799 C822 0.950 . S
H800 C823 0.950 . S
H801 C825 0.950 . S
H802 C826 0.950 . S
H803 C827 0.951 . S
H804 C829 0.951 . S
H805 C831 0.950 . S
H806 C832 0.950 . S
H807 C834 0.950 . S
H808 C837 0.950 . S
H809 C838 0.950 . S
H810 C840 0.950 . S
H811 C841 0.950 . S
C812 H794 0.951 . S
C812 C813 1.366 . S
C812 C814 1.388 . S
C813 C812 1.366 . S
C813 C817 1.385 . S
C814 H795 0.951 . S
C814 C812 1.388 . S
C814 C815 1.366 . S
C815 C814 1.366 . S
C815 C816 1.414 . S
C815 C818 1.499 . S
C816 H796 0.950 . S
C816 C815 1.414 . S
C816 C817 1.374 . S
C817 H797 0.950 . S
C817 C813 1.385 . S
C817 C816 1.374 . S
C818 C815 1.499 . S
C818 C819 1.373 1_556 S
C818 C820 1.389 . S
C819 H798 0.953 . S
C819 C818 1.373 1_554 S
C819 C835 1.377 . S
C820 C818 1.389 . S
C820 C821 1.524 . S
C820 C834 1.377 1_556 S
C821 C820 1.524 . S
C821 C822 1.397 . S
C821 C826 1.363 . S
C822 H799 0.950 . S
C822 C821 1.397 . S
C822 C823 1.334 . S
C823 H800 0.950 . S
C823 C822 1.334 . S
C823 C824 1.287 . S
C824 C823 1.287 . S
C824 C825 1.524 . S
C824 H843 0.913 . S
C825 H801 0.950 . S
C825 C824 1.524 . S
C825 C826 1.415 . S
C826 H802 0.950 . S
C826 C821 1.363 . S
C826 C825 1.415 . S
C827 H803 0.951 . S
C827 C828 1.366 . S
C827 C829 1.388 . S
C828 C827 1.366 . S
C828 C832 1.385 . S
C829 H804 0.951 . S
C829 C827 1.388 . S
C829 C830 1.366 . S
C830 C829 1.366 . S
C830 C831 1.414 . S
C830 C833 1.499 . S
C831 H805 0.950 . S
C831 C830 1.414 . S
C831 C832 1.374 . S
C832 H806 0.950 . S
C832 C828 1.385 . S
C832 C831 1.374 . S
C833 C830 1.499 . S
C833 C834 1.373 . S
C833 C835 1.389 . S
C834 H807 0.950 . S
C834 C820 1.377 1_554 S
C834 C833 1.373 . S
C835 C819 1.377 . S
C835 C833 1.389 . S
C835 C836 1.524 . S
C836 C835 1.524 . S
C836 C837 1.397 . S
C836 C841 1.363 . S
C837 H808 0.950 . S
C837 C836 1.397 . S
C837 C838 1.334 . S
C838 H809 0.950 . S
C838 C837 1.334 . S
C838 C839 1.287 . S
C839 C838 1.287 . S
C839 C840 1.524 . S
C839 H842 0.999 . S
C840 H810 0.950 . S
C840 C839 1.524 . S
C840 C841 1.415 . S
C841 H811 0.950 . S
C841 C836 1.363 . S
C841 C840 1.415 . S
H842 C839 0.999 . S
H843 C824 0.913 . S
H844 C862 0.951 . S
H845 C864 0.951 . S
H846 C866 0.950 . S
H847 C867 0.950 . S
H848 C869 0.950 . S
H849 C872 1.004 . S
H850 C873 0.934 1_556 S
H851 C875 0.950 . S
H852 C876 0.950 . S
H853 C877 0.951 . S
H854 C879 0.951 . S
H855 C881 0.950 . S
H856 C882 0.950 . S
H857 C884 0.950 . S
H858 C887 0.950 . S
H859 C888 0.950 1_545 S
H860 C890 0.950 . S
H861 C891 0.950 . S
C862 H844 0.951 . S
C862 C863 1.366 . S
C862 C864 1.388 . S
C863 C862 1.366 . S
C863 C867 1.385 . S
C864 H845 0.951 . S
C864 C862 1.388 . S
C864 C865 1.366 . S
C865 C864 1.366 . S
C865 C866 1.414 . S
C865 C868 1.499 . S
C866 H846 0.950 . S
C866 C865 1.414 . S
C866 C867 1.374 . S
C867 H847 0.950 . S
C867 C863 1.385 . S
C867 C866 1.374 . S
C868 C865 1.499 . S
C868 C869 1.373 . S
C868 C870 1.389 . S
C869 H848 0.950 . S
C869 C868 1.373 . S
C869 C885 1.377 . S
C870 C868 1.389 . S
C870 C871 1.524 1_556 S
C870 C884 1.377 1_556 S
C871 C870 1.524 1_554 S
C871 C872 1.376 1_554 S
C871 C876 1.363 . S
C872 H849 1.004 . S
C872 C871 1.376 1_556 S
C872 C873 1.313 1_556 S
C873 H850 0.934 1_554 S
C873 C872 1.313 1_554 S
C873 C874 1.287 . S
C874 C873 1.287 . S
C874 C875 1.524 . S
C874 H893 0.913 . S
C875 H851 0.950 . S
C875 C874 1.524 . S
C875 C876 1.415 . S
C876 H852 0.950 . S
C876 C871 1.363 . S
C876 C875 1.415 . S
C877 H853 0.951 . S
C877 C878 1.366 . S
C877 C879 1.388 . S
C878 C877 1.366 . S
C878 C882 1.385 . S
C879 H854 0.951 . S
C879 C877 1.388 . S
C879 C880 1.366 . S
C880 C879 1.366 . S
C880 C881 1.414 . S
C880 C883 1.499 . S
C881 H855 0.950 . S
C881 C880 1.414 . S
C881 C882 1.374 . S
C882 H856 0.950 . S
C882 C878 1.385 . S
C882 C881 1.374 . S
C883 C880 1.499 . S
C883 C884 1.373 . S
C883 C885 1.389 1_554 S
C884 H857 0.950 . S
C884 C870 1.377 1_554 S
C884 C883 1.373 . S
C885 C869 1.377 . S
C885 C883 1.389 1_556 S
C885 C886 1.524 . S
C886 C885 1.524 . S
C886 C887 1.397 . S
C886 C891 1.363 . S
C887 H858 0.950 . S
C887 C886 1.397 . S
C887 C888 1.334 . S
C888 H859 0.950 1_565 S
C888 C887 1.334 . S
C888 C889 1.287 . S
C889 C888 1.287 . S
C889 C890 1.524 . S
C889 H892 0.999 1_565 S
C890 H860 0.950 . S
C890 C889 1.524 . S
C890 C891 1.415 . S
C891 H861 0.950 . S
C891 C886 1.363 . S
C891 C890 1.415 . S
H892 C889 0.999 1_545 S
H893 C874 0.913 . S
H894 C912 0.951 . S
H895 C914 0.951 . S
H896 C916 0.950 . S
H897 C917 0.950 . S
H898 C919 0.950 . S
H899 C922 0.950 . S
H900 C923 0.950 . S
H901 C925 0.950 . S
H902 C926 0.950 . S
H903 C927 0.951 . S
H904 C929 0.951 . S
H905 C931 0.950 . S
H906 C932 0.950 . S
H907 C934 0.954 . S
H908 C937 0.950 . S
H909 C938 0.950 . S
H910 C940 0.950 . S
H911 C941 0.950 . S
C912 H894 0.951 . S
C912 C913 1.366 . S
C912 C914 1.388 . S
C913 C912 1.366 . S
C913 C917 1.385 . S
C914 H895 0.951 . S
C914 C912 1.388 . S
C914 C915 1.366 . S
C915 C914 1.366 . S
C915 C916 1.414 . S
C915 C918 1.499 . S
C916 H896 0.950 . S
C916 C915 1.414 . S
C916 C917 1.374 . S
C917 H897 0.950 . S
C917 C913 1.385 . S
C917 C916 1.374 . S
C918 C915 1.499 . S
C918 C919 1.373 . S
C918 C920 1.389 . S
C919 H898 0.950 . S
C919 C918 1.373 . S
C919 C935 1.377 1_554 S
C920 C918 1.389 . S
C920 C921 1.524 . S
C920 C934 1.377 . S
C921 C920 1.524 . S
C921 C922 1.397 . S
C921 C926 1.363 . S
C922 H899 0.950 . S
C922 C921 1.397 . S
C922 C923 1.334 . S
C923 H900 0.950 . S
C923 C922 1.334 . S
C923 C924 1.287 . S
C924 C923 1.287 . S
C924 C925 1.524 . S
C924 H943 0.913 . S
C925 H901 0.950 . S
C925 C924 1.524 . S
C925 C926 1.415 . S
C926 H902 0.950 . S
C926 C921 1.363 . S
C926 C925 1.415 . S
C927 H903 0.951 . S
C927 C928 1.366 . S
C927 C929 1.388 . S
C928 C927 1.366 . S
C928 C932 1.385 . S
C929 H904 0.951 . S
C929 C927 1.388 . S
C929 C930 1.366 . S
C930 C929 1.366 . S
C930 C931 1.414 . S
C930 C933 1.499 . S
C931 H905 0.950 . S
C931 C930 1.414 . S
C931 C932 1.374 . S
C932 H906 0.950 . S
C932 C928 1.385 . S
C932 C931 1.374 . S
C933 C930 1.499 . S
C933 C934 1.373 1_556 S
C933 C935 1.389 . S
C934 H907 0.954 . S
C934 C920 1.377 . S
C934 C933 1.373 1_554 S
C935 C919 1.377 1_556 S
C935 C933 1.389 . S
C935 C936 1.524 . S
C936 C935 1.524 . S
C936 C937 1.397 . S
C936 C941 1.363 . S
C937 H908 0.950 . S
C937 C936 1.397 . S
C937 C938 1.334 . S
C938 H909 0.950 . S
C938 C937 1.334 . S
C938 C939 1.287 . S
C939 C938 1.287 . S
C939 C940 1.524 . S
C939 H942 0.999 . S
C940 H910 0.950 . S
C940 C939 1.524 . S
C940 C941 1.415 . S
C941 H911 0.950 . S
C941 C936 1.363 . S
C941 C940 1.415 . S
H942 C939 0.999 . S
H943 C924 0.913 . S
H944 C962 0.951 . S
H945 C964 0.951 . S
H946 C966 0.950 . S
H947 C967 0.950 . S
H948 C969 0.950 . S
H949 C972 0.950 . S
H950 C973 0.950 . S
H951 C975 0.950 . S
H952 C976 0.950 . S
H953 C977 0.951 . S
H954 C979 0.951 . S
H955 C981 0.950 . S
H956 C982 0.950 . S
H957 C984 0.950 . S
H958 C987 0.950 . S
H959 C988 0.950 . S
H960 C990 0.950 . S
H961 C991 0.950 . S
C962 H944 0.951 . S
C962 C963 1.366 . S
C962 C964 1.388 . S
C963 C962 1.366 . S
C963 C967 1.385 . S
C964 H945 0.951 . S
C964 C962 1.388 . S
C964 C965 1.366 . S
C965 C964 1.366 . S
C965 C966 1.414 . S
C965 C968 1.499 . S
C966 H946 0.950 . S
C966 C965 1.414 . S
C966 C967 1.374 . S
C967 H947 0.950 . S
C967 C963 1.385 . S
C967 C966 1.374 . S
C968 C965 1.499 . S
C968 C969 1.373 . S
C968 C970 1.389 . S
C969 H948 0.950 . S
C969 C968 1.373 . S
C969 C985 1.377 . S
C970 C968 1.389 . S
C970 C971 1.524 . S
C970 C984 1.377 . S
C971 C970 1.524 . S
C971 C972 1.397 . S
C971 C976 1.363 . S
C972 H949 0.950 . S
C972 C971 1.397 . S
C972 C973 1.334 . S
C973 H950 0.950 . S
C973 C972 1.334 . S
C973 C974 1.287 . S
C974 C973 1.287 . S
C974 C975 1.524 . S
C974 H993 0.913 . S
C975 H951 0.950 . S
C975 C974 1.524 . S
C975 C976 1.415 . S
C976 H952 0.950 . S
C976 C971 1.363 . S
C976 C975 1.415 . S
C977 H953 0.951 . S
C977 C978 1.366 . S
C977 C979 1.388 . S
C978 C977 1.366 . S
C978 C982 1.385 . S
C979 H954 0.951 . S
C979 C977 1.388 . S
C979 C980 1.366 . S
C980 C979 1.366 . S
C980 C981 1.414 . S
C980 C983 1.499 . S
C981 H955 0.950 . S
C981 C980 1.414 . S
C981 C982 1.374 . S
C982 H956 0.950 . S
C982 C978 1.385 . S
C982 C981 1.374 . S
C983 C980 1.499 . S
C983 C984 1.373 . S
C983 C985 1.389 . S
C984 H957 0.950 . S
C984 C970 1.377 . S
C984 C983 1.373 . S
C985 C969 1.377 . S
C985 C983 1.389 . S
C985 C986 1.524 . S
C986 C985 1.524 . S
C986 C987 1.397 . S
C986 C991 1.363 . S
C987 H958 0.950 . S
C987 C986 1.397 . S
C987 C988 1.334 . S
C988 H959 0.950 . S
C988 C987 1.334 . S
C988 C989 1.287 1_565 S
C989 C988 1.287 1_545 S
C989 C990 1.524 . S
C989 H992 0.999 . S
C990 H960 0.950 . S
C990 C989 1.524 . S
C990 C991 1.415 1_545 S
C991 H961 0.950 . S
C991 C986 1.363 . S
C991 C990 1.415 1_565 S
H992 C989 0.999 . S
H993 C974 0.913 . S
H994 C1012 0.951 . S
H995 C1014 0.951 . S
H996 C1016 0.950 . S
H997 C1017 0.950 . S
H998 C1019 0.950 . S
H999 C1022 0.950 . S
H1000 C1023 0.950 . S
H1001 C1025 0.950 . S
H1002 C1026 0.950 . S
H1003 C1027 0.951 . S
H1004 C1029 0.951 . S
H1005 C1031 0.950 . S
H1006 C1032 0.950 . S
H1007 C1034 0.950 . S
H1008 C1037 0.950 . S
H1009 C1038 0.950 . S
H1010 C1040 0.950 . S
H1011 C1041 0.950 . S
C1012 H994 0.951 . S
C1012 C1013 1.366 . S
C1012 C1014 1.388 . S
C1013 C1012 1.366 . S
C1013 C1017 1.385 . S
C1014 H995 0.951 . S
C1014 C1012 1.388 . S
C1014 C1015 1.366 . S
C1015 C1014 1.366 . S
C1015 C1016 1.414 . S
C1015 C1018 1.499 . S
C1016 H996 0.950 . S
C1016 C1015 1.414 . S
C1016 C1017 1.374 . S
C1017 H997 0.950 . S
C1017 C1013 1.385 . S
C1017 C1016 1.374 . S
C1018 C1015 1.499 . S
C1018 C1019 1.373 . S
C1018 C1020 1.389 . S
C1019 H998 0.950 . S
C1019 C1018 1.373 . S
C1019 C1035 1.377 . S
C1020 C1018 1.389 . S
C1020 C1021 1.524 . S
C1020 C1034 1.377 . S
C1021 C1020 1.524 . S
C1021 C1022 1.397 . S
C1021 C1026 1.363 . S
C1022 H999 0.950 . S
C1022 C1021 1.397 . S
C1022 C1023 1.334 . S
C1023 H1000 0.950 . S
C1023 C1022 1.334 . S
C1023 C1024 1.287 . S
C1024 C1023 1.287 . S
C1024 C1025 1.524 . S
C1024 H1043 0.913 . S
C1025 H1001 0.950 . S
C1025 C1024 1.524 . S
C1025 C1026 1.415 . S
C1026 H1002 0.950 . S
C1026 C1021 1.363 . S
C1026 C1025 1.415 . S
C1027 H1003 0.951 . S
C1027 C1028 1.366 . S
C1027 C1029 1.388 . S
C1028 C1027 1.366 . S
C1028 C1032 1.385 . S
C1029 H1004 0.951 . S
C1029 C1027 1.388 . S
C1029 C1030 1.366 . S
C1030 C1029 1.366 . S
C1030 C1031 1.414 . S
C1030 C1033 1.499 . S
C1031 H1005 0.950 . S
C1031 C1030 1.414 . S
C1031 C1032 1.374 . S
C1032 H1006 0.950 . S
C1032 C1028 1.385 . S
C1032 C1031 1.374 . S
C1033 C1030 1.499 . S
C1033 C1034 1.373 . S
C1033 C1035 1.389 . S
C1034 H1007 0.950 . S
C1034 C1020 1.377 . S
C1034 C1033 1.373 . S
C1035 C1019 1.377 . S
C1035 C1033 1.389 . S
C1035 C1036 1.524 . S
C1036 C1035 1.524 . S
C1036 C1037 1.397 . S
C1036 C1041 1.363 . S
C1037 H1008 0.950 . S
C1037 C1036 1.397 . S
C1037 C1038 1.334 . S
C1038 H1009 0.950 . S
C1038 C1037 1.334 . S
C1038 C1039 1.287 . S
C1039 C1038 1.287 . S
C1039 C1040 1.524 . S
C1039 H1042 0.999 . S
C1040 H1010 0.950 . S
C1040 C1039 1.524 . S
C1040 C1041 1.415 . S
C1041 H1011 0.950 . S
C1041 C1036 1.363 . S
C1041 C1040 1.415 . S
H1042 C1039 0.999 . S
H1043 C1024 0.913 . S
H1044 C1062 0.951 . S
H1045 C1064 0.951 . S
H1046 C1066 0.950 . S
H1047 C1067 0.950 . S
H1048 C1069 0.950 . S
H1049 C1072 0.950 . S
H1050 C1073 0.950 . S
H1051 C1075 0.950 . S
H1052 C1076 0.950 . S
H1053 C1077 0.951 . S
H1054 C1079 0.951 . S
H1055 C1081 0.950 . S
H1056 C1082 0.950 . S
H1057 C1084 0.950 . S
H1058 C1087 0.950 . S
H1059 C1088 0.950 . S
H1060 C1090 0.950 . S
H1061 C1091 0.950 . S
C1062 H1044 0.951 . S
C1062 C1063 1.366 . S
C1062 C1064 1.388 . S
C1063 C1062 1.366 . S
C1063 C1067 1.385 . S
C1064 H1045 0.951 . S
C1064 C1062 1.388 . S
C1064 C1065 1.366 . S
C1065 C1064 1.366 . S
C1065 C1066 1.414 . S
C1065 C1068 1.499 . S
C1066 H1046 0.950 . S
C1066 C1065 1.414 . S
C1066 C1067 1.374 . S
C1067 H1047 0.950 . S
C1067 C1063 1.385 . S
C1067 C1066 1.374 . S
C1068 C1065 1.499 . S
C1068 C1069 1.373 . S
C1068 C1070 1.389 . S
C1069 H1048 0.950 . S
C1069 C1068 1.373 . S
C1069 C1085 1.377 . S
C1070 C1068 1.389 . S
C1070 C1071 1.524 . S
C1070 C1084 1.377 . S
C1071 C1070 1.524 . S
C1071 C1072 1.397 . S
C1071 C1076 1.363 . S
C1072 H1049 0.950 . S
C1072 C1071 1.397 . S
C1072 C1073 1.334 1_545 S
C1073 H1050 0.950 . S
C1073 C1072 1.334 1_565 S
C1073 C1074 1.287 . S
C1074 C1073 1.287 . S
C1074 C1075 1.524 . S
C1074 H1093 0.913 . S
C1075 H1051 0.950 . S
C1075 C1074 1.524 . S
C1075 C1076 1.415 1_565 S
C1076 H1052 0.950 . S
C1076 C1071 1.363 . S
C1076 C1075 1.415 1_545 S
C1077 H1053 0.951 . S
C1077 C1078 1.366 . S
C1077 C1079 1.388 . S
C1078 C1077 1.366 . S
C1078 C1082 1.385 . S
C1079 H1054 0.951 . S
C1079 C1077 1.388 . S
C1079 C1080 1.366 . S
C1080 C1079 1.366 . S
C1080 C1081 1.414 . S
C1080 C1083 1.499 . S
C1081 H1055 0.950 . S
C1081 C1080 1.414 . S
C1081 C1082 1.374 . S
C1082 H1056 0.950 . S
C1082 C1078 1.385 . S
C1082 C1081 1.374 . S
C1083 C1080 1.499 . S
C1083 C1084 1.373 . S
C1083 C1085 1.389 . S
C1084 H1057 0.950 . S
C1084 C1070 1.377 . S
C1084 C1083 1.373 . S
C1085 C1069 1.377 . S
C1085 C1083 1.389 . S
C1085 C1086 1.524 . S
C1086 C1085 1.524 . S
C1086 C1087 1.397 . S
C1086 C1091 1.363 . S
C1087 H1058 0.950 . S
C1087 C1086 1.397 . S
C1087 C1088 1.334 . S
C1088 H1059 0.950 . S
C1088 C1087 1.334 . S
C1088 C1089 1.287 . S
C1089 C1088 1.287 . S
C1089 C1090 1.524 . S
C1089 H1092 0.999 . S
C1090 H1060 0.950 . S
C1090 C1089 1.524 . S
C1090 C1091 1.415 . S
C1091 H1061 0.950 . S
C1091 C1086 1.363 . S
C1091 C1090 1.415 . S
H1092 C1089 0.999 . S
H1093 C1074 0.913 . S
H1094 C1112 0.951 . S
H1095 C1114 0.951 . S
H1096 C1116 0.950 . S
H1097 C1117 0.950 . S
H1098 C1119 0.950 . S
H1099 C1122 0.950 . S
H1100 C1123 0.950 . S
H1101 C1125 0.950 . S
H1102 C1126 0.950 . S
H1103 C1127 0.951 . S
H1104 C1129 0.951 . S
H1105 C1131 0.950 . S
H1106 C1132 0.950 . S
H1107 C1134 0.950 . S
H1108 C1137 0.950 . S
H1109 C1138 0.950 . S
H1110 C1140 0.950 . S
H1111 C1141 0.950 . S
C1112 H1094 0.951 . S
C1112 C1113 1.366 . S
C1112 C1114 1.388 . S
C1113 C1112 1.366 . S
C1113 C1117 1.385 . S
C1114 H1095 0.951 . S
C1114 C1112 1.388 . S
C1114 C1115 1.366 . S
C1115 C1114 1.366 . S
C1115 C1116 1.414 . S
C1115 C1118 1.499 . S
C1116 H1096 0.950 . S
C1116 C1115 1.414 . S
C1116 C1117 1.374 . S
C1117 H1097 0.950 . S
C1117 C1113 1.385 . S
C1117 C1116 1.374 . S
C1118 C1115 1.499 . S
C1118 C1119 1.373 . S
C1118 C1120 1.389 . S
C1119 H1098 0.950 . S
C1119 C1118 1.373 . S
C1119 C1135 1.377 . S
C1120 C1118 1.389 . S
C1120 C1121 1.524 . S
C1120 C1134 1.377 . S
C1121 C1120 1.524 . S
C1121 C1122 1.397 . S
C1121 C1126 1.363 . S
C1122 H1099 0.950 . S
C1122 C1121 1.397 . S
C1122 C1123 1.334 . S
C1123 H1100 0.950 . S
C1123 C1122 1.334 . S
C1123 C1124 1.287 . S
C1124 C1123 1.287 . S
C1124 C1125 1.524 . S
C1124 H1143 0.913 . S
C1125 H1101 0.950 . S
C1125 C1124 1.524 . S
C1125 C1126 1.415 . S
C1126 H1102 0.950 . S
C1126 C1121 1.363 . S
C1126 C1125 1.415 . S
C1127 H1103 0.951 . S
C1127 C1128 1.366 . S
C1127 C1129 1.388 . S
C1128 C1127 1.366 . S
C1128 C1132 1.385 . S
C1129 H1104 0.951 . S
C1129 C1127 1.388 . S
C1129 C1130 1.366 . S
C1130 C1129 1.366 . S
C1130 C1131 1.414 . S
C1130 C1133 1.499 . S
C1131 H1105 0.950 . S
C1131 C1130 1.414 . S
C1131 C1132 1.374 . S
C1132 H1106 0.950 . S
C1132 C1128 1.385 . S
C1132 C1131 1.374 . S
C1133 C1130 1.499 . S
C1133 C1134 1.373 . S
C1133 C1135 1.389 . S
C1134 H1107 0.950 . S
C1134 C1120 1.377 . S
C1134 C1133 1.373 . S
C1135 C1119 1.377 . S
C1135 C1133 1.389 . S
C1135 C1136 1.524 . S
C1136 C1135 1.524 . S
C1136 C1137 1.397 . S
C1136 C1141 1.363 . S
C1137 H1108 0.950 . S
C1137 C1136 1.397 . S
C1137 C1138 1.334 . S
C1138 H1109 0.950 . S
C1138 C1137 1.334 . S
C1138 C1139 1.287 . S
C1139 C1138 1.287 . S
C1139 C1140 1.524 . S
C1139 H1142 0.999 . S
C1140 H1110 0.950 . S
C1140 C1139 1.524 . S
C1140 C1141 1.415 . S
C1141 H1111 0.950 . S
C1141 C1136 1.363 . S
C1141 C1140 1.415 . S
H1142 C1139 0.999 . S
H1143 C1124 0.913 . S
H1144 C1162 0.951 . S
H1145 C1164 0.951 . S
H1146 C1166 0.950 . S
H1147 C1167 0.950 . S
H1148 C1169 0.950 . S
H1149 C1172 0.950 . S
H1150 C1173 0.950 . S
H1151 C1175 0.950 . S
H1152 C1176 0.950 . S
H1153 C1177 0.951 . S
H1154 C1179 0.951 . S
H1155 C1181 0.950 . S
H1156 C1182 0.950 . S
H1157 C1184 0.950 . S
H1158 C1187 0.950 . S
H1159 C1188 0.950 . S
H1160 C1190 0.950 . S
H1161 C1191 0.950 . S
C1162 H1144 0.951 . S
C1162 C1163 1.366 . S
C1162 C1164 1.388 . S
C1163 C1162 1.366 . S
C1163 C1167 1.385 . S
C1164 H1145 0.951 . S
C1164 C1162 1.388 . S
C1164 C1165 1.366 . S
C1165 C1164 1.366 . S
C1165 C1166 1.414 . S
C1165 C1168 1.499 . S
C1166 H1146 0.950 . S
C1166 C1165 1.414 . S
C1166 C1167 1.374 . S
C1167 H1147 0.950 . S
C1167 C1163 1.385 . S
C1167 C1166 1.374 . S
C1168 C1165 1.499 . S
C1168 C1169 1.373 . S
C1168 C1170 1.389 . S
C1169 H1148 0.950 . S
C1169 C1168 1.373 . S
C1169 C1185 1.377 . S
C1170 C1168 1.389 . S
C1170 C1171 1.524 . S
C1170 C1184 1.377 . S
C1171 C1170 1.524 . S
C1171 C1172 1.397 . S
C1171 C1176 1.363 . S
C1172 H1149 0.950 . S
C1172 C1171 1.397 . S
C1172 C1173 1.334 . S
C1173 H1150 0.950 . S
C1173 C1172 1.334 . S
C1173 C1174 1.287 . S
C1174 C1173 1.287 . S
C1174 C1175 1.524 . S
C1174 H1193 0.913 . S
C1175 H1151 0.950 . S
C1175 C1174 1.524 . S
C1175 C1176 1.415 . S
C1176 H1152 0.950 . S
C1176 C1171 1.363 . S
C1176 C1175 1.415 . S
C1177 H1153 0.951 . S
C1177 C1178 1.366 . S
C1177 C1179 1.388 . S
C1178 C1177 1.366 . S
C1178 C1182 1.385 . S
C1179 H1154 0.951 . S
C1179 C1177 1.388 . S
C1179 C1180 1.366 . S
C1180 C1179 1.366 . S
C1180 C1181 1.414 . S
C1180 C1183 1.499 . S
C1181 H1155 0.950 . S
C1181 C1180 1.414 . S
C1181 C1182 1.374 . S
C1182 H1156 0.950 . S
C1182 C1178 1.385 . S
C1182 C1181 1.374 . S
C1183 C1180 1.499 . S
C1183 C1184 1.373 . S
C1183 C1185 1.389 . S
C1184 H1157 0.950 . S
C1184 C1170 1.377 . S
C1184 C1183 1.373 . S
C1185 C1169 1.377 . S
C1185 C1183 1.389 . S
C1185 C1186 1.524 . S
C1186 C1185 1.524 . S
C1186 C1187 1.397 . S
C1186 C1191 1.363 . S
C1187 H1158 0.950 . S
C1187 C1186 1.397 . S
C1187 C1188 1.334 . S
C1188 H1159 0.950 . S
C1188 C1187 1.334 . S
C1188 C1189 1.287 . S
C1189 C1188 1.287 . S
C1189 C1190 1.524 . S
C1189 H1192 0.999 . S
C1190 H1160 0.950 . S
C1190 C1189 1.524 . S
C1190 C1191 1.415 . S
C1191 H1161 0.950 . S
C1191 C1186 1.363 . S
C1191 C1190 1.415 . S
H1192 C1189 0.999 . S
H1193 C1174 0.913 . S
H1194 C1212 0.951 . S
H1195 C1214 0.951 . S
H1196 C1216 0.950 . S
H1197 C1217 0.950 . S
H1198 C1219 0.950 . S
H1199 C1222 0.950 . S
H1200 C1223 0.950 . S
H1201 C1225 0.950 . S
H1202 C1226 0.950 . S
H1203 C1227 0.951 . S
H1204 C1229 0.951 . S
H1205 C1231 0.950 . S
H1206 C1232 0.950 . S
H1207 C1234 0.950 . S
H1208 C1237 0.950 . S
H1209 C1238 0.950 . S
H1210 C1240 0.950 . S
H1211 C1241 0.950 . S
C1212 H1194 0.951 . S
C1212 C1213 1.366 . S
C1212 C1214 1.388 . S
C1213 C1212 1.366 . S
C1213 C1217 1.385 . S
C1214 H1195 0.951 . S
C1214 C1212 1.388 . S
C1214 C1215 1.366 . S
C1215 C1214 1.366 . S
C1215 C1216 1.414 . S
C1215 C1218 1.499 . S
C1216 H1196 0.950 . S
C1216 C1215 1.414 . S
C1216 C1217 1.374 . S
C1217 H1197 0.950 . S
C1217 C1213 1.385 . S
C1217 C1216 1.374 . S
C1218 C1215 1.499 . S
C1218 C1219 1.373 . S
C1218 C1220 1.389 . S
C1219 H1198 0.950 . S
C1219 C1218 1.373 . S
C1219 C1235 1.377 . S
C1220 C1218 1.389 . S
C1220 C1221 1.524 . S
C1220 C1234 1.377 . S
C1221 C1220 1.524 . S
C1221 C1222 1.397 . S
C1221 C1226 1.363 . S
C1222 H1199 0.950 . S
C1222 C1221 1.397 . S
C1222 C1223 1.334 . S
C1223 H1200 0.950 . S
C1223 C1222 1.334 . S
C1223 C1224 1.287 . S
C1224 C1223 1.287 . S
C1224 C1225 1.524 . S
C1224 H1243 0.913 . S
C1225 H1201 0.950 . S
C1225 C1224 1.524 . S
C1225 C1226 1.415 . S
C1226 H1202 0.950 . S
C1226 C1221 1.363 . S
C1226 C1225 1.415 . S
C1227 H1203 0.951 . S
C1227 C1228 1.366 . S
C1227 C1229 1.388 . S
C1228 C1227 1.366 . S
C1228 C1232 1.385 . S
C1229 H1204 0.951 . S
C1229 C1227 1.388 . S
C1229 C1230 1.366 . S
C1230 C1229 1.366 . S
C1230 C1231 1.414 . S
C1230 C1233 1.499 . S
C1231 H1205 0.950 . S
C1231 C1230 1.414 . S
C1231 C1232 1.374 . S
C1232 H1206 0.950 . S
C1232 C1228 1.385 . S
C1232 C1231 1.374 . S
C1233 C1230 1.499 . S
C1233 C1234 1.373 . S
C1233 C1235 1.389 . S
C1234 H1207 0.950 . S
C1234 C1220 1.377 . S
C1234 C1233 1.373 . S
C1235 C1219 1.377 . S
C1235 C1233 1.389 . S
C1235 C1236 1.524 . S
C1236 C1235 1.524 . S
C1236 C1237 1.397 . S
C1236 C1241 1.363 . S
C1237 H1208 0.950 . S
C1237 C1236 1.397 . S
C1237 C1238 1.334 . S
C1238 H1209 0.950 . S
C1238 C1237 1.334 . S
C1238 C1239 1.287 . S
C1239 C1238 1.287 . S
C1239 C1240 1.524 . S
C1239 H1242 0.999 . S
C1240 H1210 0.950 . S
C1240 C1239 1.524 . S
C1240 C1241 1.415 . S
C1241 H1211 0.950 . S
C1241 C1236 1.363 . S
C1241 C1240 1.415 . S
H1242 C1239 0.999 . S
H1243 C1224 0.913 . S
H1244 C1262 0.951 . S
H1245 C1264 0.951 . S
H1246 C1266 0.950 . S
H1247 C1267 0.950 . S
H1248 C1269 0.950 . S
H1249 C1272 0.950 . S
H1250 C1273 0.950 . S
H1251 C1275 0.950 . S
H1252 C1276 0.950 . S
H1253 C1277 0.951 . S
H1254 C1279 0.951 . S
H1255 C1281 0.950 . S
H1256 C1282 0.950 . S
H1257 C1284 0.950 . S
H1258 C1287 0.950 . S
H1259 C1288 0.950 . S
H1260 C1290 0.950 . S
H1261 C1291 0.950 . S
C1262 H1244 0.951 . S
C1262 C1263 1.366 . S
C1262 C1264 1.388 . S
C1263 C1262 1.366 . S
C1263 C1267 1.385 . S
C1264 H1245 0.951 . S
C1264 C1262 1.388 . S
C1264 C1265 1.366 . S
C1265 C1264 1.366 . S
C1265 C1266 1.414 . S
C1265 C1268 1.499 . S
C1266 H1246 0.950 . S
C1266 C1265 1.414 . S
C1266 C1267 1.374 . S
C1267 H1247 0.950 . S
C1267 C1263 1.385 . S
C1267 C1266 1.374 . S
C1268 C1265 1.499 . S
C1268 C1269 1.373 . S
C1268 C1270 1.389 . S
C1269 H1248 0.950 . S
C1269 C1268 1.373 . S
C1269 C1285 1.377 . S
C1270 C1268 1.389 . S
C1270 C1271 1.524 . S
C1270 C1284 1.377 . S
C1271 C1270 1.524 . S
C1271 C1272 1.397 . S
C1271 C1276 1.363 . S
C1272 H1249 0.950 . S
C1272 C1271 1.397 . S
C1272 C1273 1.334 . S
C1273 H1250 0.950 . S
C1273 C1272 1.334 . S
C1273 C1274 1.287 . S
C1274 C1273 1.287 . S
C1274 C1275 1.524 . S
C1274 H1293 0.913 . S
C1275 H1251 0.950 . S
C1275 C1274 1.524 . S
C1275 C1276 1.415 . S
C1276 H1252 0.950 . S
C1276 C1271 1.363 . S
C1276 C1275 1.415 . S
C1277 H1253 0.951 . S
C1277 C1278 1.366 . S
C1277 C1279 1.388 . S
C1278 C1277 1.366 . S
C1278 C1282 1.385 . S
C1279 H1254 0.951 . S
C1279 C1277 1.388 . S
C1279 C1280 1.366 . S
C1280 C1279 1.366 . S
C1280 C1281 1.414 . S
C1280 C1283 1.499 . S
C1281 H1255 0.950 . S
C1281 C1280 1.414 . S
C1281 C1282 1.374 . S
C1282 H1256 0.950 . S
C1282 C1278 1.385 . S
C1282 C1281 1.374 . S
C1283 C1280 1.499 . S
C1283 C1284 1.373 . S
C1283 C1285 1.389 . S
C1284 H1257 0.950 . S
C1284 C1270 1.377 . S
C1284 C1283 1.373 . S
C1285 C1269 1.377 . S
C1285 C1283 1.389 . S
C1285 C1286 1.524 . S
C1286 C1285 1.524 . S
C1286 C1287 1.397 . S
C1286 C1291 1.363 . S
C1287 H1258 0.950 . S
C1287 C1286 1.397 . S
C1287 C1288 1.334 . S
C1288 H1259 0.950 . S
C1288 C1287 1.334 . S
C1288 C1289 1.287 . S
C1289 C1288 1.287 . S
C1289 C1290 1.524 . S
C1289 H1292 0.999 . S
C1290 H1260 0.950 . S
C1290 C1289 1.524 . S
C1290 C1291 1.415 . S
C1291 H1261 0.950 . S
C1291 C1286 1.363 . S
C1291 C1290 1.415 . S
H1292 C1289 0.999 . S
H1293 C1274 0.913 . S
H1294 C1312 0.951 . S
H1295 C1314 0.951 . S
H1296 C1316 0.950 . S
H1297 C1317 0.950 . S
H1298 C1319 0.950 . S
H1299 C1322 0.950 . S
H1300 C1323 0.950 . S
H1301 C1325 0.950 . S
H1302 C1326 0.950 . S
H1303 C1327 0.951 . S
H1304 C1329 0.951 . S
H1305 C1331 0.950 . S
H1306 C1332 0.950 . S
H1307 C1334 0.950 . S
H1308 C1337 0.950 . S
H1309 C1338 0.950 . S
H1310 C1340 0.950 . S
H1311 C1341 0.950 . S
C1312 H1294 0.951 . S
C1312 C1313 1.366 . S
C1312 C1314 1.388 . S
C1313 C1312 1.366 . S
C1313 C1317 1.385 . S
C1314 H1295 0.951 . S
C1314 C1312 1.388 . S
C1314 C1315 1.366 . S
C1315 C1314 1.366 . S
C1315 C1316 1.414 . S
C1315 C1318 1.499 . S
C1316 H1296 0.950 . S
C1316 C1315 1.414 . S
C1316 C1317 1.374 . S
C1317 H1297 0.950 . S
C1317 C1313 1.385 . S
C1317 C1316 1.374 . S
C1318 C1315 1.499 . S
C1318 C1319 1.373 . S
C1318 C1320 1.389 . S
C1319 H1298 0.950 . S
C1319 C1318 1.373 . S
C1319 C1335 1.377 . S
C1320 C1318 1.389 . S
C1320 C1321 1.524 . S
C1320 C1334 1.377 . S
C1321 C1320 1.524 . S
C1321 C1322 1.397 . S
C1321 C1326 1.363 . S
C1322 H1299 0.950 . S
C1322 C1321 1.397 . S
C1322 C1323 1.334 . S
C1323 H1300 0.950 . S
C1323 C1322 1.334 . S
C1323 C1324 1.287 . S
C1324 C1323 1.287 . S
C1324 C1325 1.524 . S
C1324 H1343 0.913 . S
C1325 H1301 0.950 . S
C1325 C1324 1.524 . S
C1325 C1326 1.415 . S
C1326 H1302 0.950 . S
C1326 C1321 1.363 . S
C1326 C1325 1.415 . S
C1327 H1303 0.951 . S
C1327 C1328 1.366 . S
C1327 C1329 1.388 . S
C1328 C1327 1.366 . S
C1328 C1332 1.385 . S
C1329 H1304 0.951 . S
C1329 C1327 1.388 . S
C1329 C1330 1.366 . S
C1330 C1329 1.366 . S
C1330 C1331 1.414 . S
C1330 C1333 1.499 . S
C1331 H1305 0.950 . S
C1331 C1330 1.414 . S
C1331 C1332 1.374 . S
C1332 H1306 0.950 . S
C1332 C1328 1.385 . S
C1332 C1331 1.374 . S
C1333 C1330 1.499 . S
C1333 C1334 1.373 . S
C1333 C1335 1.389 . S
C1334 H1307 0.950 . S
C1334 C1320 1.377 . S
C1334 C1333 1.373 . S
C1335 C1319 1.377 . S
C1335 C1333 1.389 . S
C1335 C1336 1.524 . S
C1336 C1335 1.524 . S
C1336 C1337 1.397 . S
C1336 C1341 1.363 . S
C1337 H1308 0.950 . S
C1337 C1336 1.397 . S
C1337 C1338 1.334 . S
C1338 H1309 0.950 . S
C1338 C1337 1.334 . S
C1338 C1339 1.287 . S
C1339 C1338 1.287 . S
C1339 C1340 1.524 . S
C1339 H1342 0.999 . S
C1340 H1310 0.950 . S
C1340 C1339 1.524 . S
C1340 C1341 1.415 . S
C1341 H1311 0.950 . S
C1341 C1336 1.363 . S
C1341 C1340 1.415 . S
H1342 C1339 0.999 . S
H1343 C1324 0.913 . S
H1344 C1362 0.951 . S
H1345 C1364 0.951 . S
H1346 C1366 0.950 . S
H1347 C1367 0.950 . S
H1348 C1369 0.950 . S
H1349 C1372 0.950 . S
H1350 C1373 0.950 . S
H1351 C1375 0.950 . S
H1352 C1376 0.950 . S
H1353 C1377 0.951 . S
H1354 C1379 0.951 . S
H1355 C1381 0.950 . S
H1356 C1382 0.950 . S
H1357 C1384 0.950 . S
H1358 C1387 0.950 . S
H1359 C1388 0.950 . S
H1360 C1390 0.950 . S
H1361 C1391 0.950 . S
C1362 H1344 0.951 . S
C1362 C1363 1.366 . S
C1362 C1364 1.388 . S
C1363 C1362 1.366 . S
C1363 C1367 1.385 . S
C1364 H1345 0.951 . S
C1364 C1362 1.388 . S
C1364 C1365 1.366 . S
C1365 C1364 1.366 . S
C1365 C1366 1.414 . S
C1365 C1368 1.499 . S
C1366 H1346 0.950 . S
C1366 C1365 1.414 . S
C1366 C1367 1.374 . S
C1367 H1347 0.950 . S
C1367 C1363 1.385 . S
C1367 C1366 1.374 . S
C1368 C1365 1.499 . S
C1368 C1369 1.373 . S
C1368 C1370 1.389 1_455 S
C1369 H1348 0.950 . S
C1369 C1368 1.373 . S
C1369 C1385 1.377 1_545 S
C1370 C1368 1.389 1_655 S
C1370 C1371 1.524 . S
C1370 C1384 1.377 1_545 S
C1371 C1370 1.524 . S
C1371 C1372 1.397 . S
C1371 C1376 1.363 . S
C1372 H1349 0.950 . S
C1372 C1371 1.397 . S
C1372 C1373 1.334 . S
C1373 H1350 0.950 . S
C1373 C1372 1.334 . S
C1373 C1374 1.287 . S
C1374 C1373 1.287 . S
C1374 C1375 1.524 . S
C1374 H1393 0.913 . S
C1375 H1351 0.950 . S
C1375 C1374 1.524 . S
C1375 C1376 1.415 . S
C1376 H1352 0.950 . S
C1376 C1371 1.363 . S
C1376 C1375 1.415 . S
C1377 H1353 0.951 . S
C1377 C1378 1.366 . S
C1377 C1379 1.388 . S
C1378 C1377 1.366 . S
C1378 C1382 1.385 . S
C1379 H1354 0.951 . S
C1379 C1377 1.388 . S
C1379 C1380 1.366 . S
C1380 C1379 1.366 . S
C1380 C1381 1.414 . S
C1380 C1383 1.499 . S
C1381 H1355 0.950 . S
C1381 C1380 1.414 . S
C1381 C1382 1.374 . S
C1382 H1356 0.950 . S
C1382 C1378 1.385 . S
C1382 C1381 1.374 . S
C1383 C1380 1.499 . S
C1383 C1384 1.373 . S
C1383 C1385 1.389 1_655 S
C1384 H1357 0.950 . S
C1384 C1370 1.377 1_565 S
C1384 C1383 1.373 . S
C1385 C1369 1.377 1_565 S
C1385 C1383 1.389 1_455 S
C1385 C1386 1.524 . S
C1386 C1385 1.524 . S
C1386 C1387 1.397 . S
C1386 C1391 1.363 . S
C1387 H1358 0.950 . S
C1387 C1386 1.397 . S
C1387 C1388 1.334 . S
C1388 H1359 0.950 . S
C1388 C1387 1.334 . S
C1388 C1389 1.287 . S
C1389 C1388 1.287 . S
C1389 C1390 1.524 . S
C1389 H1392 0.999 . S
C1390 H1360 0.950 . S
C1390 C1389 1.524 . S
C1390 C1391 1.415 . S
C1391 H1361 0.950 . S
C1391 C1386 1.363 . S
C1391 C1390 1.415 . S
H1392 C1389 0.999 . S
H1393 C1374 0.913 . S
H1394 C1412 0.951 1_545 S
H1395 C1414 0.951 . S
H1396 C1416 0.950 . S
H1397 C1417 0.950 . S
H1398 C1419 0.950 . S
H1399 C1422 0.950 . S
H1400 C1423 0.950 . S
H1401 C1425 0.950 . S
H1402 C1426 0.950 . S
H1403 C1427 0.951 1_565 S
H1404 C1429 0.951 . S
H1405 C1431 0.950 . S
H1406 C1432 0.950 . S
H1407 C1434 0.950 . S
H1408 C1437 0.950 . S
H1409 C1438 0.950 . S
H1410 C1440 0.950 . S
H1411 C1441 0.950 . S
C1412 H1394 0.951 1_565 S
C1412 C1413 1.366 . S
C1412 C1414 1.388 1_565 S
C1413 C1412 1.366 . S
C1413 C1417 1.385 . S
C1414 H1395 0.951 . S
C1414 C1412 1.388 1_545 S
C1414 C1415 1.366 1_545 S
C1415 C1414 1.366 1_565 S
C1415 C1416 1.414 . S
C1415 C1418 1.499 . S
C1416 H1396 0.950 . S
C1416 C1415 1.414 . S
C1416 C1417 1.374 . S
C1417 H1397 0.950 . S
C1417 C1413 1.385 . S
C1417 C1416 1.374 . S
C1418 C1415 1.499 . S
C1418 C1419 1.373 . S
C1418 C1420 1.389 1_565 S
C1419 H1398 0.950 . S
C1419 C1418 1.373 . S
C1419 C1435 1.377 1_455 S
C1420 C1418 1.389 1_545 S
C1420 C1421 1.524 . S
C1420 C1434 1.377 1_455 S
C1421 C1420 1.524 . S
C1421 C1422 1.397 . S
C1421 C1426 1.363 . S
C1422 H1399 0.950 . S
C1422 C1421 1.397 . S
C1422 C1423 1.334 . S
C1423 H1400 0.950 . S
C1423 C1422 1.334 . S
C1423 C1424 1.287 . S
C1424 C1423 1.287 . S
C1424 C1425 1.524 . S
C1424 H1443 0.913 . S
C1425 H1401 0.950 . S
C1425 C1424 1.524 . S
C1425 C1426 1.415 . S
C1426 H1402 0.950 . S
C1426 C1421 1.363 . S
C1426 C1425 1.415 . S
C1427 H1403 0.951 1_545 S
C1427 C1428 1.366 . S
C1427 C1429 1.388 1_545 S
C1428 C1427 1.366 . S
C1428 C1432 1.385 . S
C1429 H1404 0.951 . S
C1429 C1427 1.388 1_565 S
C1429 C1430 1.366 1_565 S
C1430 C1429 1.366 1_545 S
C1430 C1431 1.414 . S
C1430 C1433 1.499 . S
C1431 H1405 0.950 . S
C1431 C1430 1.414 . S
C1431 C1432 1.374 . S
C1432 H1406 0.950 . S
C1432 C1428 1.385 . S
C1432 C1431 1.374 . S
C1433 C1430 1.499 . S
C1433 C1434 1.373 . S
C1433 C1435 1.389 1_545 S
C1434 H1407 0.950 . S
C1434 C1420 1.377 1_655 S
C1434 C1433 1.373 . S
C1435 C1419 1.377 1_655 S
C1435 C1433 1.389 1_565 S
C1435 C1436 1.524 . S
C1436 C1435 1.524 . S
C1436 C1437 1.397 . S
C1436 C1441 1.363 . S
C1437 H1408 0.950 . S
C1437 C1436 1.397 . S
C1437 C1438 1.334 . S
C1438 H1409 0.950 . S
C1438 C1437 1.334 . S
C1438 C1439 1.287 . S
C1439 C1438 1.287 . S
C1439 C1440 1.524 . S
C1439 H1442 0.999 . S
C1440 H1410 0.950 . S
C1440 C1439 1.524 . S
C1440 C1441 1.415 . S
C1441 H1411 0.950 . S
C1441 C1436 1.363 . S
C1441 C1440 1.415 . S
H1442 C1439 0.999 . S
H1443 C1424 0.913 . S
H1444 C1462 0.951 . S
H1445 C1464 0.951 . S
H1446 C1466 0.950 . S
H1447 C1467 0.950 . S
H1448 C1469 0.950 . S
H1449 C1472 0.950 . S
H1450 C1473 0.950 . S
H1451 C1475 0.950 . S
H1452 C1476 0.950 . S
H1453 C1477 0.951 . S
H1454 C1479 0.951 . S
H1455 C1481 0.950 . S
H1456 C1482 0.950 . S
H1457 C1484 0.950 . S
H1458 C1487 0.950 . S
H1459 C1488 0.950 . S
H1460 C1490 0.950 . S
H1461 C1491 0.950 . S
C1462 H1444 0.951 . S
C1462 C1463 1.366 . S
C1462 C1464 1.388 . S
C1463 C1462 1.366 . S
C1463 C1467 1.385 . S
C1464 H1445 0.951 . S
C1464 C1462 1.388 . S
C1464 C1465 1.366 . S
C1465 C1464 1.366 . S
C1465 C1466 1.414 . S
C1465 C1468 1.499 . S
C1466 H1446 0.950 . S
C1466 C1465 1.414 . S
C1466 C1467 1.374 . S
C1467 H1447 0.950 . S
C1467 C1463 1.385 . S
C1467 C1466 1.374 . S
C1468 C1465 1.499 . S
C1468 C1469 1.373 . S
C1468 C1470 1.389 1_655 S
C1469 H1448 0.950 . S
C1469 C1468 1.373 . S
C1469 C1485 1.377 . S
C1470 C1468 1.389 1_455 S
C1470 C1471 1.524 . S
C1470 C1484 1.377 . S
C1471 C1470 1.524 . S
C1471 C1472 1.397 . S
C1471 C1476 1.363 . S
C1472 H1449 0.950 . S
C1472 C1471 1.397 . S
C1472 C1473 1.334 . S
C1473 H1450 0.950 . S
C1473 C1472 1.334 . S
C1473 C1474 1.287 . S
C1474 C1473 1.287 . S
C1474 C1475 1.524 . S
C1474 H1493 0.913 . S
C1475 H1451 0.950 . S
C1475 C1474 1.524 . S
C1475 C1476 1.415 . S
C1476 H1452 0.950 . S
C1476 C1471 1.363 . S
C1476 C1475 1.415 . S
C1477 H1453 0.951 . S
C1477 C1478 1.366 . S
C1477 C1479 1.388 . S
C1478 C1477 1.366 . S
C1478 C1482 1.385 . S
C1479 H1454 0.951 . S
C1479 C1477 1.388 . S
C1479 C1480 1.366 . S
C1480 C1479 1.366 . S
C1480 C1481 1.414 . S
C1480 C1483 1.499 . S
C1481 H1455 0.950 . S
C1481 C1480 1.414 . S
C1481 C1482 1.374 . S
C1482 H1456 0.950 . S
C1482 C1478 1.385 . S
C1482 C1481 1.374 . S
C1483 C1480 1.499 . S
C1483 C1484 1.373 . S
C1483 C1485 1.389 1_455 S
C1484 H1457 0.950 . S
C1484 C1470 1.377 . S
C1484 C1483 1.373 . S
C1485 C1469 1.377 . S
C1485 C1483 1.389 1_655 S
C1485 C1486 1.524 . S
C1486 C1485 1.524 . S
C1486 C1487 1.397 . S
C1486 C1491 1.363 . S
C1487 H1458 0.950 . S
C1487 C1486 1.397 . S
C1487 C1488 1.334 . S
C1488 H1459 0.950 . S
C1488 C1487 1.334 . S
C1488 C1489 1.287 . S
C1489 C1488 1.287 . S
C1489 C1490 1.524 . S
C1489 H1492 0.999 . S
C1490 H1460 0.950 . S
C1490 C1489 1.524 . S
C1490 C1491 1.415 . S
C1491 H1461 0.950 . S
C1491 C1486 1.363 . S
C1491 C1490 1.415 . S
H1492 C1489 0.999 . S
H1493 C1474 0.913 . S
H1494 C1512 0.951 . S
H1495 C1514 0.951 . S
H1496 C1516 0.950 . S
H1497 C1517 0.967 . S
H1498 C1519 0.950 . S
H1499 C1522 0.950 . S
H1500 C1523 0.950 . S
H1501 C1525 0.950 . S
H1502 C1526 0.950 . S
H1503 C1527 0.951 . S
H1504 C1529 0.951 . S
H1505 C1531 0.950 . S
H1506 C1532 0.967 . S
H1507 C1534 0.950 . S
H1508 C1537 0.950 . S
H1509 C1538 0.950 . S
H1510 C1540 0.950 . S
H1511 C1541 0.950 . S
C1512 H1494 0.951 . S
C1512 C1513 1.366 . S
C1512 C1514 1.388 . S
C1513 C1512 1.366 . S
C1513 C1517 1.363 1_545 S
C1514 H1495 0.951 . S
C1514 C1512 1.388 . S
C1514 C1515 1.366 . S
C1515 C1514 1.366 . S
C1515 C1516 1.414 1_545 S
C1515 C1518 1.499 . S
C1516 H1496 0.950 . S
C1516 C1515 1.414 1_565 S
C1516 C1517 1.379 . S
C1517 H1497 0.967 . S
C1517 C1513 1.363 1_565 S
C1517 C1516 1.379 . S
C1518 C1515 1.499 . S
C1518 C1519 1.373 1_545 S
C1518 C1520 1.389 . S
C1519 H1498 0.950 . S
C1519 C1518 1.373 1_565 S
C1519 C1535 1.377 . S
C1520 C1518 1.389 . S
C1520 C1521 1.524 . S
C1520 C1534 1.377 . S
C1521 C1520 1.524 . S
C1521 C1522 1.397 . S
C1521 C1526 1.363 . S
C1522 H1499 0.950 . S
C1522 C1521 1.397 . S
C1522 C1523 1.334 . S
C1523 H1500 0.950 . S
C1523 C1522 1.334 . S
C1523 C1524 1.287 . S
C1524 C1523 1.287 . S
C1524 C1525 1.524 . S
C1524 H1543 0.913 . S
C1525 H1501 0.950 . S
C1525 C1524 1.524 . S
C1525 C1526 1.415 . S
C1526 H1502 0.950 . S
C1526 C1521 1.363 . S
C1526 C1525 1.415 . S
C1527 H1503 0.951 . S
C1527 C1528 1.366 . S
C1527 C1529 1.388 . S
C1528 C1527 1.366 . S
C1528 C1532 1.363 1_565 S
C1529 H1504 0.951 . S
C1529 C1527 1.388 . S
C1529 C1530 1.366 . S
C1530 C1529 1.366 . S
C1530 C1531 1.414 1_565 S
C1530 C1533 1.499 . S
C1531 H1505 0.950 . S
C1531 C1530 1.414 1_545 S
C1531 C1532 1.379 . S
C1532 H1506 0.967 . S
C1532 C1528 1.363 1_545 S
C1532 C1531 1.379 . S
C1533 C1530 1.499 . S
C1533 C1534 1.373 1_565 S
C1533 C1535 1.389 . S
C1534 H1507 0.950 . S
C1534 C1520 1.377 . S
C1534 C1533 1.373 1_545 S
C1535 C1519 1.377 . S
C1535 C1533 1.389 . S
C1535 C1536 1.524 . S
C1536 C1535 1.524 . S
C1536 C1537 1.397 . S
C1536 C1541 1.363 . S
C1537 H1508 0.950 . S
C1537 C1536 1.397 . S
C1537 C1538 1.334 . S
C1538 H1509 0.950 . S
C1538 C1537 1.334 . S
C1538 C1539 1.287 . S
C1539 C1538 1.287 . S
C1539 C1540 1.524 . S
C1539 H1542 0.999 . S
C1540 H1510 0.950 . S
C1540 C1539 1.524 . S
C1540 C1541 1.415 . S
C1541 H1511 0.950 . S
C1541 C1536 1.363 . S
C1541 C1540 1.415 . S
H1542 C1539 0.999 . S
H1543 C1524 0.913 . S
H1544 C1562 0.951 . S
H1545 C1564 0.951 . S
H1546 C1566 0.950 . S
H1547 C1567 0.950 . S
H1548 C1569 0.950 . S
H1549 C1572 0.950 . S
H1550 C1573 0.950 . S
H1551 C1575 0.950 . S
H1552 C1576 0.950 . S
H1553 C1577 0.951 . S
H1554 C1579 0.951 . S
H1555 C1581 0.950 . S
H1556 C1582 0.950 . S
H1557 C1584 0.950 . S
H1558 C1587 0.950 . S
H1559 C1588 0.950 . S
H1560 C1590 0.950 . S
H1561 C1591 0.950 . S
C1562 H1544 0.951 . S
C1562 C1563 1.366 . S
C1562 C1564 1.388 . S
C1563 C1562 1.366 . S
C1563 C1567 1.385 . S
C1564 H1545 0.951 . S
C1564 C1562 1.388 . S
C1564 C1565 1.366 . S
C1565 C1564 1.366 . S
C1565 C1566 1.414 . S
C1565 C1568 1.499 . S
C1566 H1546 0.950 . S
C1566 C1565 1.414 . S
C1566 C1567 1.374 . S
C1567 H1547 0.950 . S
C1567 C1563 1.385 . S
C1567 C1566 1.374 . S
C1568 C1565 1.499 . S
C1568 C1569 1.373 . S
C1568 C1570 1.389 . S
C1569 H1548 0.950 . S
C1569 C1568 1.373 . S
C1569 C1585 1.377 . S
C1570 C1568 1.389 . S
C1570 C1571 1.524 . S
C1570 C1584 1.377 . S
C1571 C1570 1.524 . S
C1571 C1572 1.397 . S
C1571 C1576 1.363 . S
C1572 H1549 0.950 . S
C1572 C1571 1.397 . S
C1572 C1573 1.334 . S
C1573 H1550 0.950 . S
C1573 C1572 1.334 . S
C1573 C1574 1.287 . S
C1574 C1573 1.287 . S
C1574 C1575 1.524 . S
C1574 H1593 0.913 . S
C1575 H1551 0.950 . S
C1575 C1574 1.524 . S
C1575 C1576 1.415 . S
C1576 H1552 0.950 . S
C1576 C1571 1.363 . S
C1576 C1575 1.415 . S
C1577 H1553 0.951 . S
C1577 C1578 1.366 . S
C1577 C1579 1.388 . S
C1578 C1577 1.366 . S
C1578 C1582 1.385 . S
C1579 H1554 0.951 . S
C1579 C1577 1.388 . S
C1579 C1580 1.366 . S
C1580 C1579 1.366 . S
C1580 C1581 1.414 . S
C1580 C1583 1.499 . S
C1581 H1555 0.950 . S
C1581 C1580 1.414 . S
C1581 C1582 1.374 . S
C1582 H1556 0.950 . S
C1582 C1578 1.385 . S
C1582 C1581 1.374 . S
C1583 C1580 1.499 . S
C1583 C1584 1.373 . S
C1583 C1585 1.389 . S
C1584 H1557 0.950 . S
C1584 C1570 1.377 . S
C1584 C1583 1.373 . S
C1585 C1569 1.377 . S
C1585 C1583 1.389 . S
C1585 C1586 1.524 . S
C1586 C1585 1.524 . S
C1586 C1587 1.397 . S
C1586 C1591 1.363 . S
C1587 H1558 0.950 . S
C1587 C1586 1.397 . S
C1587 C1588 1.334 . S
C1588 H1559 0.950 . S
C1588 C1587 1.334 . S
C1588 C1589 1.287 . S
C1589 C1588 1.287 . S
C1589 C1590 1.524 . S
C1589 H1592 0.999 . S
C1590 H1560 0.950 . S
C1590 C1589 1.524 . S
C1590 C1591 1.415 . S
C1591 H1561 0.950 . S
C1591 C1586 1.363 . S
C1591 C1590 1.415 . S
H1592 C1589 0.999 . S
H1593 C1574 0.913 . S
H1594 C1612 0.951 . S
H1595 C1614 0.951 . S
H1596 C1616 0.950 . S
H1597 C1617 0.950 . S
H1598 C1619 0.950 . S
H1599 C1622 0.950 . S
H1600 C1623 0.950 . S
H1601 C1625 0.950 . S
H1602 C1626 0.950 . S
H1603 C1627 0.951 . S
H1604 C1629 0.951 . S
H1605 C1631 0.950 . S
H1606 C1632 0.950 . S
H1607 C1634 0.950 . S
H1608 C1637 0.950 . S
H1609 C1638 0.950 . S
H1610 C1640 0.950 . S
H1611 C1641 0.950 . S
C1612 H1594 0.951 . S
C1612 C1613 1.366 . S
C1612 C1614 1.388 . S
C1613 C1612 1.366 . S
C1613 C1617 1.385 . S
C1614 H1595 0.951 . S
C1614 C1612 1.388 . S
C1614 C1615 1.366 . S
C1615 C1614 1.366 . S
C1615 C1616 1.414 . S
C1615 C1618 1.499 . S
C1616 H1596 0.950 . S
C1616 C1615 1.414 . S
C1616 C1617 1.374 . S
C1617 H1597 0.950 . S
C1617 C1613 1.385 . S
C1617 C1616 1.374 . S
C1618 C1615 1.499 . S
C1618 C1619 1.373 . S
C1618 C1620 1.389 . S
C1619 H1598 0.950 . S
C1619 C1618 1.373 . S
C1619 C1635 1.377 . S
C1620 C1618 1.389 . S
C1620 C1621 1.524 . S
C1620 C1634 1.377 . S
C1621 C1620 1.524 . S
C1621 C1622 1.397 . S
C1621 C1626 1.363 . S
C1622 H1599 0.950 . S
C1622 C1621 1.397 . S
C1622 C1623 1.334 . S
C1623 H1600 0.950 . S
C1623 C1622 1.334 . S
C1623 C1624 1.287 . S
C1624 C1623 1.287 . S
C1624 C1625 1.524 . S
C1624 H1643 0.913 . S
C1625 H1601 0.950 . S
C1625 C1624 1.524 . S
C1625 C1626 1.415 . S
C1626 H1602 0.950 . S
C1626 C1621 1.363 . S
C1626 C1625 1.415 . S
C1627 H1603 0.951 . S
C1627 C1628 1.366 . S
C1627 C1629 1.388 . S
C1628 C1627 1.366 . S
C1628 C1632 1.385 . S
C1629 H1604 0.951 . S
C1629 C1627 1.388 . S
C1629 C1630 1.366 . S
C1630 C1629 1.366 . S
C1630 C1631 1.414 . S
C1630 C1633 1.499 . S
C1631 H1605 0.950 . S
C1631 C1630 1.414 . S
C1631 C1632 1.374 . S
C1632 H1606 0.950 . S
C1632 C1628 1.385 . S
C1632 C1631 1.374 . S
C1633 C1630 1.499 . S
C1633 C1634 1.373 . S
C1633 C1635 1.389 . S
C1634 H1607 0.950 . S
C1634 C1620 1.377 . S
C1634 C1633 1.373 . S
C1635 C1619 1.377 . S
C1635 C1633 1.389 . S
C1635 C1636 1.524 . S
C1636 C1635 1.524 . S
C1636 C1637 1.397 . S
C1636 C1641 1.363 . S
C1637 H1608 0.950 . S
C1637 C1636 1.397 . S
C1637 C1638 1.334 . S
C1638 H1609 0.950 . S
C1638 C1637 1.334 . S
C1638 C1639 1.287 . S
C1639 C1638 1.287 . S
C1639 C1640 1.524 . S
C1639 H1642 0.999 . S
C1640 H1610 0.950 . S
C1640 C1639 1.524 . S
C1640 C1641 1.415 . S
C1641 H1611 0.950 . S
C1641 C1636 1.363 . S
C1641 C1640 1.415 . S
H1642 C1639 0.999 . S
H1643 C1624 0.913 . S
H1644 C1662 0.951 . S
H1645 C1664 0.951 . S
H1646 C1666 0.950 . S
H1647 C1667 0.950 . S
H1648 C1669 0.950 . S
H1649 C1672 0.950 . S
H1650 C1673 0.950 . S
H1651 C1675 0.950 . S
H1652 C1676 0.950 1_545 S
H1653 C1677 0.951 . S
H1654 C1679 0.951 . S
H1655 C1681 0.950 . S
H1656 C1682 0.950 . S
H1657 C1684 0.950 . S
H1658 C1687 0.950 . S
H1659 C1688 0.950 . S
H1660 C1690 0.950 . S
H1661 C1691 0.950 1_565 S
C1662 H1644 0.951 . S
C1662 C1663 1.366 . S
C1662 C1664 1.388 . S
C1663 C1662 1.366 . S
C1663 C1667 1.385 . S
C1664 H1645 0.951 . S
C1664 C1662 1.388 . S
C1664 C1665 1.366 . S
C1665 C1664 1.366 . S
C1665 C1666 1.414 . S
C1665 C1668 1.499 . S
C1666 H1646 0.950 . S
C1666 C1665 1.414 . S
C1666 C1667 1.374 . S
C1667 H1647 0.950 . S
C1667 C1663 1.385 . S
C1667 C1666 1.374 . S
C1668 C1665 1.499 . S
C1668 C1669 1.373 . S
C1668 C1670 1.389 . S
C1669 H1648 0.950 . S
C1669 C1668 1.373 . S
C1669 C1685 1.377 1_565 S
C1670 C1668 1.389 . S
C1670 C1671 1.524 . S
C1670 C1684 1.377 1_565 S
C1671 C1670 1.524 . S
C1671 C1672 1.397 . S
C1671 C1676 1.363 . S
C1672 H1649 0.950 . S
C1672 C1671 1.397 . S
C1672 C1673 1.334 . S
C1673 H1650 0.950 . S
C1673 C1672 1.334 . S
C1673 C1674 1.287 . S
C1674 C1673 1.287 . S
C1674 C1675 1.524 . S
C1674 H1693 0.913 . S
C1675 H1651 0.950 . S
C1675 C1674 1.524 . S
C1675 C1676 1.415 . S
C1676 H1652 0.950 1_565 S
C1676 C1671 1.363 . S
C1676 C1675 1.415 . S
C1677 H1653 0.951 . S
C1677 C1678 1.366 . S
C1677 C1679 1.388 . S
C1678 C1677 1.366 . S
C1678 C1682 1.385 . S
C1679 H1654 0.951 . S
C1679 C1677 1.388 . S
C1679 C1680 1.366 . S
C1680 C1679 1.366 . S
C1680 C1681 1.414 . S
C1680 C1683 1.499 . S
C1681 H1655 0.950 . S
C1681 C1680 1.414 . S
C1681 C1682 1.374 . S
C1682 H1656 0.950 . S
C1682 C1678 1.385 . S
C1682 C1681 1.374 . S
C1683 C1680 1.499 . S
C1683 C1684 1.373 . S
C1683 C1685 1.389 . S
C1684 H1657 0.950 . S
C1684 C1670 1.377 1_545 S
C1684 C1683 1.373 . S
C1685 C1669 1.377 1_545 S
C1685 C1683 1.389 . S
C1685 C1686 1.524 . S
C1686 C1685 1.524 . S
C1686 C1687 1.397 . S
C1686 C1691 1.363 . S
C1687 H1658 0.950 . S
C1687 C1686 1.397 . S
C1687 C1688 1.334 . S
C1688 H1659 0.950 . S
C1688 C1687 1.334 . S
C1688 C1689 1.287 . S
C1689 C1688 1.287 . S
C1689 C1690 1.524 . S
C1689 H1692 0.999 . S
C1690 H1660 0.950 . S
C1690 C1689 1.524 . S
C1690 C1691 1.415 . S
C1691 H1661 0.950 1_545 S
C1691 C1686 1.363 . S
C1691 C1690 1.415 . S
H1692 C1689 0.999 . S
H1693 C1674 0.913 . S
H1694 C1712 0.951 . S
H1695 C1714 0.951 . S
H1696 C1716 0.950 . S
H1697 C1717 0.950 . S
H1698 C1719 0.950 . S
H1699 C1722 0.950 . S
H1700 C1723 0.950 . S
H1701 C1725 0.950 . S
H1702 C1726 0.950 . S
H1703 C1727 0.951 . S
H1704 C1729 0.951 . S
H1705 C1731 0.950 . S
H1706 C1732 0.950 . S
H1707 C1734 0.950 . S
H1708 C1737 0.950 . S
H1709 C1738 0.950 . S
H1710 C1740 0.950 . S
H1711 C1741 0.950 . S
C1712 H1694 0.951 . S
C1712 C1713 1.366 . S
C1712 C1714 1.388 . S
C1713 C1712 1.366 . S
C1713 C1717 1.385 . S
C1714 H1695 0.951 . S
C1714 C1712 1.388 . S
C1714 C1715 1.366 . S
C1715 C1714 1.366 . S
C1715 C1716 1.414 . S
C1715 C1718 1.499 . S
C1716 H1696 0.950 . S
C1716 C1715 1.414 . S
C1716 C1717 1.374 . S
C1717 H1697 0.950 . S
C1717 C1713 1.385 . S
C1717 C1716 1.374 . S
C1718 C1715 1.499 . S
C1718 C1719 1.373 . S
C1718 C1720 1.389 . S
C1719 H1698 0.950 . S
C1719 C1718 1.373 . S
C1719 C1735 1.377 1_455 S
C1720 C1718 1.389 . S
C1720 C1721 1.524 . S
C1720 C1734 1.377 1_455 S
C1721 C1720 1.524 . S
C1721 C1722 1.397 . S
C1721 C1726 1.363 . S
C1722 H1699 0.950 . S
C1722 C1721 1.397 . S
C1722 C1723 1.334 . S
C1723 H1700 0.950 . S
C1723 C1722 1.334 . S
C1723 C1724 1.287 . S
C1724 C1723 1.287 . S
C1724 C1725 1.524 . S
C1724 H1743 0.913 . S
C1725 H1701 0.950 . S
C1725 C1724 1.524 . S
C1725 C1726 1.415 . S
C1726 H1702 0.950 . S
C1726 C1721 1.363 . S
C1726 C1725 1.415 . S
C1727 H1703 0.951 . S
C1727 C1728 1.366 . S
C1727 C1729 1.388 . S
C1728 C1727 1.366 . S
C1728 C1732 1.385 . S
C1729 H1704 0.951 . S
C1729 C1727 1.388 . S
C1729 C1730 1.366 . S
C1730 C1729 1.366 . S
C1730 C1731 1.414 . S
C1730 C1733 1.499 . S
C1731 H1705 0.950 . S
C1731 C1730 1.414 . S
C1731 C1732 1.374 . S
C1732 H1706 0.950 . S
C1732 C1728 1.385 . S
C1732 C1731 1.374 . S
C1733 C1730 1.499 . S
C1733 C1734 1.373 . S
C1733 C1735 1.389 . S
C1734 H1707 0.950 . S
C1734 C1720 1.377 1_655 S
C1734 C1733 1.373 . S
C1735 C1719 1.377 1_655 S
C1735 C1733 1.389 . S
C1735 C1736 1.524 . S
C1736 C1735 1.524 . S
C1736 C1737 1.397 . S
C1736 C1741 1.363 . S
C1737 H1708 0.950 . S
C1737 C1736 1.397 . S
C1737 C1738 1.334 . S
C1738 H1709 0.950 . S
C1738 C1737 1.334 . S
C1738 C1739 1.287 . S
C1739 C1738 1.287 . S
C1739 C1740 1.524 . S
C1739 H1742 0.999 . S
C1740 H1710 0.950 . S
C1740 C1739 1.524 . S
C1740 C1741 1.415 . S
C1741 H1711 0.950 . S
C1741 C1736 1.363 . S
C1741 C1740 1.415 . S
H1742 C1739 0.999 . S
H1743 C1724 0.913 . S
H1744 C1762 0.951 . S
H1745 C1764 0.951 . S
H1746 C1766 0.950 . S
H1747 C1767 0.937 1_455 S
H1748 C1769 0.950 . S
H1749 C1772 0.950 . S
H1750 C1773 0.950 . S
H1751 C1775 0.950 . S
H1752 C1776 0.950 . S
H1753 C1777 0.951 . S
H1754 C1779 0.951 . S
H1755 C1781 0.950 . S
H1756 C1782 0.937 1_655 S
H1757 C1784 0.950 . S
H1758 C1787 0.950 . S
H1759 C1788 0.950 . S
H1760 C1790 0.950 . S
H1761 C1791 0.950 . S
C1762 H1744 0.951 . S
C1762 C1763 1.366 . S
C1762 C1764 1.388 . S
C1763 C1762 1.366 . S
C1763 C1767 1.402 . S
C1764 H1745 0.951 . S
C1764 C1762 1.388 . S
C1764 C1765 1.366 . S
C1765 C1764 1.366 . S
C1765 C1766 1.414 1_655 S
C1765 C1768 1.499 . S
C1766 H1746 0.950 . S
C1766 C1765 1.414 1_455 S
C1766 C1767 1.370 1_455 S
C1767 H1747 0.937 1_655 S
C1767 C1763 1.402 . S
C1767 C1766 1.370 1_655 S
C1768 C1765 1.499 . S
C1768 C1769 1.373 1_655 S
C1768 C1770 1.389 . S
C1769 H1748 0.950 . S
C1769 C1768 1.373 1_455 S
C1769 C1785 1.377 . S
C1770 C1768 1.389 . S
C1770 C1771 1.524 . S
C1770 C1784 1.377 . S
C1771 C1770 1.524 . S
C1771 C1772 1.397 . S
C1771 C1776 1.363 . S
C1772 H1749 0.950 . S
C1772 C1771 1.397 . S
C1772 C1773 1.334 . S
C1773 H1750 0.950 . S
C1773 C1772 1.334 . S
C1773 C1774 1.287 . S
C1774 C1773 1.287 . S
C1774 C1775 1.524 . S
C1774 H1793 0.913 . S
C1775 H1751 0.950 . S
C1775 C1774 1.524 . S
C1775 C1776 1.415 . S
C1776 H1752 0.950 . S
C1776 C1771 1.363 . S
C1776 C1775 1.415 . S
C1777 H1753 0.951 . S
C1777 C1778 1.366 . S
C1777 C1779 1.388 . S
C1778 C1777 1.366 . S
C1778 C1782 1.402 . S
C1779 H1754 0.951 . S
C1779 C1777 1.388 . S
C1779 C1780 1.366 . S
C1780 C1779 1.366 . S
C1780 C1781 1.414 1_455 S
C1780 C1783 1.499 . S
C1781 H1755 0.950 . S
C1781 C1780 1.414 1_655 S
C1781 C1782 1.370 1_655 S
C1782 H1756 0.937 1_455 S
C1782 C1778 1.402 . S
C1782 C1781 1.370 1_455 S
C1783 C1780 1.499 . S
C1783 C1784 1.373 1_455 S
C1783 C1785 1.389 . S
C1784 H1757 0.950 . S
C1784 C1770 1.377 . S
C1784 C1783 1.373 1_655 S
C1785 C1769 1.377 . S
C1785 C1783 1.389 . S
C1785 C1786 1.524 . S
C1786 C1785 1.524 . S
C1786 C1787 1.397 . S
C1786 C1791 1.363 . S
C1787 H1758 0.950 . S
C1787 C1786 1.397 . S
C1787 C1788 1.334 . S
C1788 H1759 0.950 . S
C1788 C1787 1.334 . S
C1788 C1789 1.287 . S
C1789 C1788 1.287 . S
C1789 C1790 1.524 . S
C1789 H1792 0.999 . S
C1790 H1760 0.950 . S
C1790 C1789 1.524 . S
C1790 C1791 1.415 . S
C1791 H1761 0.950 . S
C1791 C1786 1.363 . S
C1791 C1790 1.415 . S
H1792 C1789 0.999 . S
H1793 C1774 0.913 . S
H1794 C1812 0.951 . S
H1795 C1814 0.951 . S
H1796 C1816 0.950 . S
H1797 C1817 0.950 . S
H1798 C1819 0.950 . S
H1799 C1822 0.950 . S
H1800 C1823 0.950 . S
H1801 C1825 0.950 . S
H1802 C1826 0.950 . S
H1803 C1827 0.951 . S
H1804 C1829 0.951 . S
H1805 C1831 0.950 . S
H1806 C1832 0.950 . S
H1807 C1834 0.950 . S
H1808 C1837 0.950 . S
H1809 C1838 0.950 . S
H1810 C1840 0.950 . S
H1811 C1841 0.950 . S
C1812 H1794 0.951 . S
C1812 C1813 1.366 . S
C1812 C1814 1.388 . S
C1813 C1812 1.366 . S
C1813 C1817 1.385 1_565 S
C1814 H1795 0.951 . S
C1814 C1812 1.388 . S
C1814 C1815 1.366 . S
C1815 C1814 1.366 . S
C1815 C1816 1.414 1_565 S
C1815 C1818 1.499 . S
C1816 H1796 0.950 . S
C1816 C1815 1.414 1_545 S
C1816 C1817 1.374 . S
C1817 H1797 0.950 . S
C1817 C1813 1.385 1_545 S
C1817 C1816 1.374 . S
C1818 C1815 1.499 . S
C1818 C1819 1.373 1_565 S
C1818 C1820 1.389 . S
C1819 H1798 0.950 . S
C1819 C1818 1.373 1_545 S
C1819 C1835 1.377 . S
C1820 C1818 1.389 . S
C1820 C1821 1.524 . S
C1820 C1834 1.377 . S
C1821 C1820 1.524 . S
C1821 C1822 1.397 . S
C1821 C1826 1.363 . S
C1822 H1799 0.950 . S
C1822 C1821 1.397 . S
C1822 C1823 1.334 . S
C1823 H1800 0.950 . S
C1823 C1822 1.334 . S
C1823 C1824 1.287 . S
C1824 C1823 1.287 . S
C1824 C1825 1.524 . S
C1824 H1843 0.913 . S
C1825 H1801 0.950 . S
C1825 C1824 1.524 . S
C1825 C1826 1.415 . S
C1826 H1802 0.950 . S
C1826 C1821 1.363 . S
C1826 C1825 1.415 . S
C1827 H1803 0.951 . S
C1827 C1828 1.366 . S
C1827 C1829 1.388 . S
C1828 C1827 1.366 . S
C1828 C1832 1.385 1_545 S
C1829 H1804 0.951 . S
C1829 C1827 1.388 . S
C1829 C1830 1.366 . S
C1830 C1829 1.366 . S
C1830 C1831 1.414 1_545 S
C1830 C1833 1.499 . S
C1831 H1805 0.950 . S
C1831 C1830 1.414 1_565 S
C1831 C1832 1.374 . S
C1832 H1806 0.950 . S
C1832 C1828 1.385 1_565 S
C1832 C1831 1.374 . S
C1833 C1830 1.499 . S
C1833 C1834 1.373 1_545 S
C1833 C1835 1.389 . S
C1834 H1807 0.950 . S
C1834 C1820 1.377 . S
C1834 C1833 1.373 1_565 S
C1835 C1819 1.377 . S
C1835 C1833 1.389 . S
C1835 C1836 1.524 . S
C1836 C1835 1.524 . S
C1836 C1837 1.397 . S
C1836 C1841 1.363 . S
C1837 H1808 0.950 . S
C1837 C1836 1.397 . S
C1837 C1838 1.334 . S
C1838 H1809 0.950 . S
C1838 C1837 1.334 . S
C1838 C1839 1.287 . S
C1839 C1838 1.287 . S
C1839 C1840 1.524 . S
C1839 H1842 0.999 . S
C1840 H1810 0.950 . S
C1840 C1839 1.524 . S
C1840 C1841 1.415 . S
C1841 H1811 0.950 . S
C1841 C1836 1.363 . S
C1841 C1840 1.415 . S
H1842 C1839 0.999 . S
H1843 C1824 0.913 . S
H1844 C1862 0.951 . S
H1845 C1864 0.951 . S
H1846 C1866 0.950 . S
H1847 C1867 0.950 . S
H1848 C1869 0.950 . S
H1849 C1872 0.950 . S
H1850 C1873 0.950 1_455 S
H1851 C1875 0.950 . S
H1852 C1876 0.950 . S
H1853 C1877 0.951 . S
H1854 C1879 0.951 . S
H1855 C1881 0.950 . S
H1856 C1882 0.950 . S
H1857 C1884 0.950 . S
H1858 C1887 0.950 . S
H1859 C1888 0.950 1_655 S
H1860 C1890 0.950 . S
H1861 C1891 0.950 . S
C1862 H1844 0.951 . S
C1862 C1863 1.366 1_655 S
C1862 C1864 1.388 . S
C1863 C1862 1.366 1_455 S
C1863 C1867 1.385 . S
C1864 H1845 0.951 . S
C1864 C1862 1.388 . S
C1864 C1865 1.366 1_655 S
C1865 C1864 1.366 1_455 S
C1865 C1866 1.414 . S
C1865 C1868 1.499 . S
C1866 H1846 0.950 . S
C1866 C1865 1.414 . S
C1866 C1867 1.374 . S
C1867 H1847 0.950 . S
C1867 C1863 1.385 . S
C1867 C1866 1.374 . S
C1868 C1865 1.499 . S
C1868 C1869 1.373 . S
C1868 C1870 1.389 1_455 S
C1869 H1848 0.950 . S
C1869 C1868 1.373 . S
C1869 C1885 1.377 1_545 S
C1870 C1868 1.389 1_655 S
C1870 C1871 1.524 . S
C1870 C1884 1.377 1_545 S
C1871 C1870 1.524 . S
C1871 C1872 1.397 1_655 S
C1871 C1876 1.363 . S
C1872 H1849 0.950 . S
C1872 C1871 1.397 1_455 S
C1872 C1873 1.334 1_455 S
C1873 H1850 0.950 1_655 S
C1873 C1872 1.334 1_655 S
C1873 C1874 1.287 . S
C1874 C1873 1.287 . S
C1874 C1875 1.524 . S
C1874 H1893 0.913 . S
C1875 H1851 0.950 . S
C1875 C1874 1.524 . S
C1875 C1876 1.415 . S
C1876 H1852 0.950 . S
C1876 C1871 1.363 . S
C1876 C1875 1.415 . S
C1877 H1853 0.951 . S
C1877 C1878 1.366 1_455 S
C1877 C1879 1.388 . S
C1878 C1877 1.366 1_655 S
C1878 C1882 1.385 . S
C1879 H1854 0.951 . S
C1879 C1877 1.388 . S
C1879 C1880 1.366 1_455 S
C1880 C1879 1.366 1_655 S
C1880 C1881 1.414 . S
C1880 C1883 1.499 . S
C1881 H1855 0.950 . S
C1881 C1880 1.414 . S
C1881 C1882 1.374 . S
C1882 H1856 0.950 . S
C1882 C1878 1.385 . S
C1882 C1881 1.374 . S
C1883 C1880 1.499 . S
C1883 C1884 1.373 . S
C1883 C1885 1.389 1_655 S
C1884 H1857 0.950 . S
C1884 C1870 1.377 1_565 S
C1884 C1883 1.373 . S
C1885 C1869 1.377 1_565 S
C1885 C1883 1.389 1_455 S
C1885 C1886 1.524 . S
C1886 C1885 1.524 . S
C1886 C1887 1.397 1_455 S
C1886 C1891 1.363 . S
C1887 H1858 0.950 . S
C1887 C1886 1.397 1_655 S
C1887 C1888 1.334 1_655 S
C1888 H1859 0.950 1_455 S
C1888 C1887 1.334 1_455 S
C1888 C1889 1.287 . S
C1889 C1888 1.287 . S
C1889 C1890 1.524 . S
C1889 H1892 0.999 . S
C1890 H1860 0.950 . S
C1890 C1889 1.524 . S
C1890 C1891 1.415 . S
C1891 H1861 0.950 . S
C1891 C1886 1.363 . S
C1891 C1890 1.415 . S
H1892 C1889 0.999 . S
H1893 C1874 0.913 . S
H1894 C1912 0.951 . S
H1895 C1914 0.951 . S
H1896 C1916 0.950 . S
H1897 C1917 0.969 . S
H1898 C1919 0.950 . S
H1899 C1922 0.950 . S
H1900 C1923 0.950 . S
H1901 C1925 0.950 . S
H1902 C1926 0.950 1_455 S
H1903 C1927 0.951 . S
H1904 C1929 0.951 . S
H1905 C1931 0.950 . S
H1906 C1932 0.969 . S
H1907 C1934 0.950 . S
H1908 C1937 0.950 . S
H1909 C1938 0.950 . S
H1910 C1940 0.950 . S
H1911 C1941 0.950 1_655 S
C1912 H1894 0.951 . S
C1912 C1913 1.366 . S
C1912 C1914 1.388 . S
C1913 C1912 1.366 . S
C1913 C1917 1.359 1_545 S
C1914 H1895 0.951 . S
C1914 C1912 1.388 . S
C1914 C1915 1.366 . S
C1915 C1914 1.366 . S
C1915 C1916 1.414 1_545 S
C1915 C1918 1.499 . S
C1916 H1896 0.950 . S
C1916 C1915 1.414 1_565 S
C1916 C1917 1.380 . S
C1917 H1897 0.969 . S
C1917 C1913 1.359 1_565 S
C1917 C1916 1.380 . S
C1918 C1915 1.499 . S
C1918 C1919 1.373 1_545 S
C1918 C1920 1.389 . S
C1919 H1898 0.950 . S
C1919 C1918 1.373 1_565 S
C1919 C1935 1.377 1_655 S
C1920 C1918 1.389 . S
C1920 C1921 1.524 . S
C1920 C1934 1.377 1_655 S
C1921 C1920 1.524 . S
C1921 C1922 1.397 1_545 S
C1921 C1926 1.363 . S
C1922 H1899 0.950 . S
C1922 C1921 1.397 1_565 S
C1922 C1923 1.334 . S
C1923 H1900 0.950 . S
C1923 C1922 1.334 . S
C1923 C1924 1.287 1_565 S
C1924 C1923 1.287 1_545 S
C1924 C1925 1.524 . S
C1924 H1943 0.913 . S
C1925 H1901 0.950 . S
C1925 C1924 1.524 . S
C1925 C1926 1.415 . S
C1926 H1902 0.950 1_655 S
C1926 C1921 1.363 . S
C1926 C1925 1.415 . S
C1927 H1903 0.951 . S
C1927 C1928 1.366 . S
C1927 C1929 1.388 . S
C1928 C1927 1.366 . S
C1928 C1932 1.359 1_565 S
C1929 H1904 0.951 . S
C1929 C1927 1.388 . S
C1929 C1930 1.366 . S
C1930 C1929 1.366 . S
C1930 C1931 1.414 1_565 S
C1930 C1933 1.499 . S
C1931 H1905 0.950 . S
C1931 C1930 1.414 1_545 S
C1931 C1932 1.380 . S
C1932 H1906 0.969 . S
C1932 C1928 1.359 1_545 S
C1932 C1931 1.380 . S
C1933 C1930 1.499 . S
C1933 C1934 1.373 1_565 S
C1933 C1935 1.389 . S
C1934 H1907 0.950 . S
C1934 C1920 1.377 1_455 S
C1934 C1933 1.373 1_545 S
C1935 C1919 1.377 1_455 S
C1935 C1933 1.389 . S
C1935 C1936 1.524 . S
C1936 C1935 1.524 . S
C1936 C1937 1.397 1_565 S
C1936 C1941 1.363 . S
C1937 H1908 0.950 . S
C1937 C1936 1.397 1_545 S
C1937 C1938 1.334 . S
C1938 H1909 0.950 . S
C1938 C1937 1.334 . S
C1938 C1939 1.287 1_545 S
C1939 C1938 1.287 1_565 S
C1939 C1940 1.524 . S
C1939 H1942 0.999 . S
C1940 H1910 0.950 . S
C1940 C1939 1.524 . S
C1940 C1941 1.415 . S
C1941 H1911 0.950 1_455 S
C1941 C1936 1.363 . S
C1941 C1940 1.415 . S
H1942 C1939 0.999 . S
H1943 C1924 0.913 . S
H1944 C1962 0.951 . S
H1945 C1964 0.951 . S
H1946 C1966 0.950 . S
H1947 C1967 0.950 . S
H1948 C1969 0.950 . S
H1949 C1972 0.950 . S
H1950 C1973 0.950 . S
H1951 C1975 0.950 . S
H1952 C1976 0.950 . S
H1953 C1977 0.951 . S
H1954 C1979 0.951 . S
H1955 C1981 0.950 . S
H1956 C1982 0.950 . S
H1957 C1984 0.950 . S
H1958 C1987 0.950 . S
H1959 C1988 0.950 . S
H1960 C1990 0.950 . S
H1961 C1991 0.950 . S
C1962 H1944 0.951 . S
C1962 C1963 1.366 . S
C1962 C1964 1.388 . S
C1963 C1962 1.366 . S
C1963 C1967 1.385 . S
C1964 H1945 0.951 . S
C1964 C1962 1.388 . S
C1964 C1965 1.366 . S
C1965 C1964 1.366 . S
C1965 C1966 1.414 . S
C1965 C1968 1.499 . S
C1966 H1946 0.950 . S
C1966 C1965 1.414 . S
C1966 C1967 1.374 . S
C1967 H1947 0.950 . S
C1967 C1963 1.385 . S
C1967 C1966 1.374 . S
C1968 C1965 1.499 . S
C1968 C1969 1.373 . S
C1968 C1970 1.389 . S
C1969 H1948 0.950 . S
C1969 C1968 1.373 . S
C1969 C1985 1.377 1_545 S
C1970 C1968 1.389 . S
C1970 C1971 1.524 . S
C1970 C1984 1.377 1_545 S
C1971 C1970 1.524 . S
C1971 C1972 1.397 . S
C1971 C1976 1.363 . S
C1972 H1949 0.950 . S
C1972 C1971 1.397 . S
C1972 C1973 1.334 . S
C1973 H1950 0.950 . S
C1973 C1972 1.334 . S
C1973 C1974 1.287 . S
C1974 C1973 1.287 . S
C1974 C1975 1.524 . S
C1974 H1993 0.913 . S
C1975 H1951 0.950 . S
C1975 C1974 1.524 . S
C1975 C1976 1.415 . S
C1976 H1952 0.950 . S
C1976 C1971 1.363 . S
C1976 C1975 1.415 . S
C1977 H1953 0.951 . S
C1977 C1978 1.366 . S
C1977 C1979 1.388 . S
C1978 C1977 1.366 . S
C1978 C1982 1.385 . S
C1979 H1954 0.951 . S
C1979 C1977 1.388 . S
C1979 C1980 1.366 . S
C1980 C1979 1.366 . S
C1980 C1981 1.414 . S
C1980 C1983 1.499 . S
C1981 H1955 0.950 . S
C1981 C1980 1.414 . S
C1981 C1982 1.374 . S
C1982 H1956 0.950 . S
C1982 C1978 1.385 . S
C1982 C1981 1.374 . S
C1983 C1980 1.499 . S
C1983 C1984 1.373 . S
C1983 C1985 1.389 . S
C1984 H1957 0.950 . S
C1984 C1970 1.377 1_565 S
C1984 C1983 1.373 . S
C1985 C1969 1.377 1_565 S
C1985 C1983 1.389 . S
C1985 C1986 1.524 . S
C1986 C1985 1.524 . S
C1986 C1987 1.397 . S
C1986 C1991 1.363 . S
C1987 H1958 0.950 . S
C1987 C1986 1.397 . S
C1987 C1988 1.334 . S
C1988 H1959 0.950 . S
C1988 C1987 1.334 . S
C1988 C1989 1.287 . S
C1989 C1988 1.287 . S
C1989 C1990 1.524 . S
C1989 H1992 0.999 . S
C1990 H1960 0.950 . S
C1990 C1989 1.524 . S
C1990 C1991 1.415 . S
C1991 H1961 0.950 . S
C1991 C1986 1.363 . S
C1991 C1990 1.415 . S
H1992 C1989 0.999 . S
H1993 C1974 0.913 . S
H1994 C2012 0.951 . S
H1995 C2014 0.951 . S
H1996 C2016 0.950 . S
H1997 C2017 0.950 . S
H1998 C2019 0.950 . S
H1999 C2022 0.950 . S
H2000 C2023 0.950 . S
H2001 C2025 0.950 . S
H2002 C2026 0.950 . S
H2003 C2027 0.951 . S
H2004 C2029 0.951 . S
H2005 C2031 0.950 . S
H2006 C2032 0.950 . S
H2007 C2034 0.950 . S
H2008 C2037 0.950 . S
H2009 C2038 0.950 . S
H2010 C2040 0.950 . S
H2011 C2041 0.950 . S
C2012 H1994 0.951 . S
C2012 C2013 1.366 . S
C2012 C2014 1.388 . S
C2013 C2012 1.366 . S
C2013 C2017 1.385 . S
C2014 H1995 0.951 . S
C2014 C2012 1.388 . S
C2014 C2015 1.366 . S
C2015 C2014 1.366 . S
C2015 C2016 1.414 . S
C2015 C2018 1.499 . S
C2016 H1996 0.950 . S
C2016 C2015 1.414 . S
C2016 C2017 1.374 . S
C2017 H1997 0.950 . S
C2017 C2013 1.385 . S
C2017 C2016 1.374 . S
C2018 C2015 1.499 . S
C2018 C2019 1.373 . S
C2018 C2020 1.389 . S
C2019 H1998 0.950 . S
C2019 C2018 1.373 . S
C2019 C2035 1.377 1_655 S
C2020 C2018 1.389 . S
C2020 C2021 1.524 . S
C2020 C2034 1.377 1_655 S
C2021 C2020 1.524 . S
C2021 C2022 1.397 . S
C2021 C2026 1.363 . S
C2022 H1999 0.950 . S
C2022 C2021 1.397 . S
C2022 C2023 1.334 . S
C2023 H2000 0.950 . S
C2023 C2022 1.334 . S
C2023 C2024 1.287 . S
C2024 C2023 1.287 . S
C2024 C2025 1.524 . S
C2024 H2043 0.913 . S
C2025 H2001 0.950 . S
C2025 C2024 1.524 . S
C2025 C2026 1.415 . S
C2026 H2002 0.950 . S
C2026 C2021 1.363 . S
C2026 C2025 1.415 . S
C2027 H2003 0.951 . S
C2027 C2028 1.366 . S
C2027 C2029 1.388 . S
C2028 C2027 1.366 . S
C2028 C2032 1.385 . S
C2029 H2004 0.951 . S
C2029 C2027 1.388 . S
C2029 C2030 1.366 . S
C2030 C2029 1.366 . S
C2030 C2031 1.414 . S
C2030 C2033 1.499 . S
C2031 H2005 0.950 . S
C2031 C2030 1.414 . S
C2031 C2032 1.374 . S
C2032 H2006 0.950 . S
C2032 C2028 1.385 . S
C2032 C2031 1.374 . S
C2033 C2030 1.499 . S
C2033 C2034 1.373 . S
C2033 C2035 1.389 . S
C2034 H2007 0.950 . S
C2034 C2020 1.377 1_455 S
C2034 C2033 1.373 . S
C2035 C2019 1.377 1_455 S
C2035 C2033 1.389 . S
C2035 C2036 1.524 . S
C2036 C2035 1.524 . S
C2036 C2037 1.397 . S
C2036 C2041 1.363 . S
C2037 H2008 0.950 . S
C2037 C2036 1.397 . S
C2037 C2038 1.334 . S
C2038 H2009 0.950 . S
C2038 C2037 1.334 . S
C2038 C2039 1.287 . S
C2039 C2038 1.287 . S
C2039 C2040 1.524 . S
C2039 H2042 0.999 . S
C2040 H2010 0.950 . S
C2040 C2039 1.524 . S
C2040 C2041 1.415 . S
C2041 H2011 0.950 . S
C2041 C2036 1.363 . S
C2041 C2040 1.415 . S
H2042 C2039 0.999 . S
H2043 C2024 0.913 . S
H2044 C2062 0.951 . S
H2045 C2064 0.951 . S
H2046 C2066 0.950 . S
H2047 C2067 0.950 . S
H2048 C2069 0.950 . S
H2049 C2072 0.950 . S
H2050 C2073 0.950 . S
H2051 C2075 0.950 . S
H2052 C2076 0.950 . S
H2053 C2077 0.951 . S
H2054 C2079 0.951 . S
H2055 C2081 0.950 . S
H2056 C2082 0.950 . S
H2057 C2084 0.950 . S
H2058 C2087 0.950 . S
H2059 C2088 0.950 . S
H2060 C2090 0.950 . S
H2061 C2091 0.950 . S
C2062 H2044 0.951 . S
C2062 C2063 1.366 . S
C2062 C2064 1.388 . S
C2063 C2062 1.366 . S
C2063 C2067 1.385 . S
C2064 H2045 0.951 . S
C2064 C2062 1.388 . S
C2064 C2065 1.366 . S
C2065 C2064 1.366 . S
C2065 C2066 1.414 . S
C2065 C2068 1.499 . S
C2066 H2046 0.950 . S
C2066 C2065 1.414 . S
C2066 C2067 1.374 . S
C2067 H2047 0.950 . S
C2067 C2063 1.385 . S
C2067 C2066 1.374 . S
C2068 C2065 1.499 . S
C2068 C2069 1.373 . S
C2068 C2070 1.389 . S
C2069 H2048 0.950 . S
C2069 C2068 1.373 . S
C2069 C2085 1.377 . S
C2070 C2068 1.389 . S
C2070 C2071 1.524 . S
C2070 C2084 1.377 . S
C2071 C2070 1.524 . S
C2071 C2072 1.397 . S
C2071 C2076 1.363 . S
C2072 H2049 0.950 . S
C2072 C2071 1.397 . S
C2072 C2073 1.334 . S
C2073 H2050 0.950 . S
C2073 C2072 1.334 . S
C2073 C2074 1.287 . S
C2074 C2073 1.287 . S
C2074 C2075 1.524 . S
C2074 H2093 0.913 . S
C2075 H2051 0.950 . S
C2075 C2074 1.524 . S
C2075 C2076 1.415 . S
C2076 H2052 0.950 . S
C2076 C2071 1.363 . S
C2076 C2075 1.415 . S
C2077 H2053 0.951 . S
C2077 C2078 1.366 . S
C2077 C2079 1.388 . S
C2078 C2077 1.366 . S
C2078 C2082 1.385 . S
C2079 H2054 0.951 . S
C2079 C2077 1.388 . S
C2079 C2080 1.366 . S
C2080 C2079 1.366 . S
C2080 C2081 1.414 . S
C2080 C2083 1.499 . S
C2081 H2055 0.950 . S
C2081 C2080 1.414 . S
C2081 C2082 1.374 . S
C2082 H2056 0.950 . S
C2082 C2078 1.385 . S
C2082 C2081 1.374 . S
C2083 C2080 1.499 . S
C2083 C2084 1.373 . S
C2083 C2085 1.389 . S
C2084 H2057 0.950 . S
C2084 C2070 1.377 . S
C2084 C2083 1.373 . S
C2085 C2069 1.377 . S
C2085 C2083 1.389 . S
C2085 C2086 1.524 . S
C2086 C2085 1.524 . S
C2086 C2087 1.397 . S
C2086 C2091 1.363 . S
C2087 H2058 0.950 . S
C2087 C2086 1.397 . S
C2087 C2088 1.334 . S
C2088 H2059 0.950 . S
C2088 C2087 1.334 . S
C2088 C2089 1.287 . S
C2089 C2088 1.287 . S
C2089 C2090 1.524 . S
C2089 H2092 0.999 . S
C2090 H2060 0.950 . S
C2090 C2089 1.524 . S
C2090 C2091 1.415 . S
C2091 H2061 0.950 . S
C2091 C2086 1.363 . S
C2091 C2090 1.415 . S
H2092 C2089 0.999 . S
H2093 C2074 0.913 . S
H2094 C2112 0.951 . S
H2095 C2114 0.951 . S
H2096 C2116 0.950 . S
H2097 C2117 0.950 . S
H2098 C2119 0.950 . S
H2099 C2122 0.950 . S
H2100 C2123 0.950 . S
H2101 C2125 0.950 . S
H2102 C2126 0.950 . S
H2103 C2127 0.951 . S
H2104 C2129 0.951 . S
H2105 C2131 0.950 . S
H2106 C2132 0.950 . S
H2107 C2134 0.950 . S
H2108 C2137 0.950 . S
H2109 C2138 0.950 . S
H2110 C2140 0.950 . S
H2111 C2141 0.950 . S
C2112 H2094 0.951 . S
C2112 C2113 1.366 . S
C2112 C2114 1.388 . S
C2113 C2112 1.366 . S
C2113 C2117 1.385 . S
C2114 H2095 0.951 . S
C2114 C2112 1.388 . S
C2114 C2115 1.366 . S
C2115 C2114 1.366 . S
C2115 C2116 1.414 . S
C2115 C2118 1.499 . S
C2116 H2096 0.950 . S
C2116 C2115 1.414 . S
C2116 C2117 1.374 . S
C2117 H2097 0.950 . S
C2117 C2113 1.385 . S
C2117 C2116 1.374 . S
C2118 C2115 1.499 . S
C2118 C2119 1.373 . S
C2118 C2120 1.389 . S
C2119 H2098 0.950 . S
C2119 C2118 1.373 . S
C2119 C2135 1.377 . S
C2120 C2118 1.389 . S
C2120 C2121 1.524 . S
C2120 C2134 1.377 . S
C2121 C2120 1.524 . S
C2121 C2122 1.397 . S
C2121 C2126 1.363 . S
C2122 H2099 0.950 . S
C2122 C2121 1.397 . S
C2122 C2123 1.334 . S
C2123 H2100 0.950 . S
C2123 C2122 1.334 . S
C2123 C2124 1.287 . S
C2124 C2123 1.287 . S
C2124 C2125 1.524 . S
C2124 H2143 0.913 . S
C2125 H2101 0.950 . S
C2125 C2124 1.524 . S
C2125 C2126 1.415 . S
C2126 H2102 0.950 . S
C2126 C2121 1.363 . S
C2126 C2125 1.415 . S
C2127 H2103 0.951 . S
C2127 C2128 1.366 . S
C2127 C2129 1.388 . S
C2128 C2127 1.366 . S
C2128 C2132 1.385 . S
C2129 H2104 0.951 . S
C2129 C2127 1.388 . S
C2129 C2130 1.366 . S
C2130 C2129 1.366 . S
C2130 C2131 1.414 . S
C2130 C2133 1.499 . S
C2131 H2105 0.950 . S
C2131 C2130 1.414 . S
C2131 C2132 1.374 . S
C2132 H2106 0.950 . S
C2132 C2128 1.385 . S
C2132 C2131 1.374 . S
C2133 C2130 1.499 . S
C2133 C2134 1.373 . S
C2133 C2135 1.389 . S
C2134 H2107 0.950 . S
C2134 C2120 1.377 . S
C2134 C2133 1.373 . S
C2135 C2119 1.377 . S
C2135 C2133 1.389 . S
C2135 C2136 1.524 . S
C2136 C2135 1.524 . S
C2136 C2137 1.397 . S
C2136 C2141 1.363 . S
C2137 H2108 0.950 . S
C2137 C2136 1.397 . S
C2137 C2138 1.334 . S
C2138 H2109 0.950 . S
C2138 C2137 1.334 . S
C2138 C2139 1.287 . S
C2139 C2138 1.287 . S
C2139 C2140 1.524 . S
C2139 H2142 0.999 . S
C2140 H2110 0.950 . S
C2140 C2139 1.524 . S
C2140 C2141 1.415 . S
C2141 H2111 0.950 . S
C2141 C2136 1.363 . S
C2141 C2140 1.415 . S
H2142 C2139 0.999 . S
H2143 C2124 0.913 . S
H2144 C2162 0.951 . S
H2145 C2164 0.951 . S
H2146 C2166 0.950 . S
H2147 C2167 0.950 . S
H2148 C2169 0.950 . S
H2149 C2172 0.950 . S
H2150 C2173 0.950 . S
H2151 C2175 0.950 . S
H2152 C2176 0.950 . S
H2153 C2177 0.951 . S
H2154 C2179 0.951 . S
H2155 C2181 0.950 . S
H2156 C2182 0.950 . S
H2157 C2184 0.950 . S
H2158 C2187 0.950 . S
H2159 C2188 0.950 . S
H2160 C2190 0.950 . S
H2161 C2191 0.950 . S
C2162 H2144 0.951 . S
C2162 C2163 1.366 . S
C2162 C2164 1.388 . S
C2163 C2162 1.366 . S
C2163 C2167 1.385 . S
C2164 H2145 0.951 . S
C2164 C2162 1.388 . S
C2164 C2165 1.366 . S
C2165 C2164 1.366 . S
C2165 C2166 1.414 . S
C2165 C2168 1.499 . S
C2166 H2146 0.950 . S
C2166 C2165 1.414 . S
C2166 C2167 1.374 . S
C2167 H2147 0.950 . S
C2167 C2163 1.385 . S
C2167 C2166 1.374 . S
C2168 C2165 1.499 . S
C2168 C2169 1.373 . S
C2168 C2170 1.389 . S
C2169 H2148 0.950 . S
C2169 C2168 1.373 . S
C2169 C2185 1.377 . S
C2170 C2168 1.389 . S
C2170 C2171 1.524 . S
C2170 C2184 1.377 . S
C2171 C2170 1.524 . S
C2171 C2172 1.397 . S
C2171 C2176 1.363 . S
C2172 H2149 0.950 . S
C2172 C2171 1.397 . S
C2172 C2173 1.334 . S
C2173 H2150 0.950 . S
C2173 C2172 1.334 . S
C2173 C2174 1.287 . S
C2174 C2173 1.287 . S
C2174 C2175 1.524 . S
C2174 H2193 0.913 . S
C2175 H2151 0.950 . S
C2175 C2174 1.524 . S
C2175 C2176 1.415 . S
C2176 H2152 0.950 . S
C2176 C2171 1.363 . S
C2176 C2175 1.415 . S
C2177 H2153 0.951 . S
C2177 C2178 1.366 . S
C2177 C2179 1.388 . S
C2178 C2177 1.366 . S
C2178 C2182 1.385 . S
C2179 H2154 0.951 . S
C2179 C2177 1.388 . S
C2179 C2180 1.366 . S
C2180 C2179 1.366 . S
C2180 C2181 1.414 . S
C2180 C2183 1.499 . S
C2181 H2155 0.950 . S
C2181 C2180 1.414 . S
C2181 C2182 1.374 . S
C2182 H2156 0.950 . S
C2182 C2178 1.385 . S
C2182 C2181 1.374 . S
C2183 C2180 1.499 . S
C2183 C2184 1.373 . S
C2183 C2185 1.389 . S
C2184 H2157 0.950 . S
C2184 C2170 1.377 . S
C2184 C2183 1.373 . S
C2185 C2169 1.377 . S
C2185 C2183 1.389 . S
C2185 C2186 1.524 . S
C2186 C2185 1.524 . S
C2186 C2187 1.397 . S
C2186 C2191 1.363 . S
C2187 H2158 0.950 . S
C2187 C2186 1.397 . S
C2187 C2188 1.334 . S
C2188 H2159 0.950 . S
C2188 C2187 1.334 . S
C2188 C2189 1.287 . S
C2189 C2188 1.287 . S
C2189 C2190 1.524 . S
C2189 H2192 0.999 . S
C2190 H2160 0.950 . S
C2190 C2189 1.524 . S
C2190 C2191 1.415 . S
C2191 H2161 0.950 . S
C2191 C2186 1.363 . S
C2191 C2190 1.415 . S
H2192 C2189 0.999 . S
H2193 C2174 0.913 . S
H2194 C2212 0.951 . S
H2195 C2214 0.951 . S
H2196 C2216 0.950 . S
H2197 C2217 0.950 . S
H2198 C2219 0.950 . S
H2199 C2222 0.950 . S
H2200 C2223 0.950 . S
H2201 C2225 0.950 . S
H2202 C2226 0.950 . S
H2203 C2227 0.951 . S
H2204 C2229 0.951 . S
H2205 C2231 0.950 . S
H2206 C2232 0.950 . S
H2207 C2234 0.950 . S
H2208 C2237 0.950 . S
H2209 C2238 0.950 . S
H2210 C2240 0.950 . S
H2211 C2241 0.950 . S
C2212 H2194 0.951 . S
C2212 C2213 1.366 . S
C2212 C2214 1.388 . S
C2213 C2212 1.366 . S
C2213 C2217 1.385 . S
C2214 H2195 0.951 . S
C2214 C2212 1.388 . S
C2214 C2215 1.366 . S
C2215 C2214 1.366 . S
C2215 C2216 1.414 . S
C2215 C2218 1.499 . S
C2216 H2196 0.950 . S
C2216 C2215 1.414 . S
C2216 C2217 1.374 . S
C2217 H2197 0.950 . S
C2217 C2213 1.385 . S
C2217 C2216 1.374 . S
C2218 C2215 1.499 . S
C2218 C2219 1.373 . S
C2218 C2220 1.389 . S
C2219 H2198 0.950 . S
C2219 C2218 1.373 . S
C2219 C2235 1.377 . S
C2220 C2218 1.389 . S
C2220 C2221 1.524 . S
C2220 C2234 1.377 . S
C2221 C2220 1.524 . S
C2221 C2222 1.397 . S
C2221 C2226 1.363 . S
C2222 H2199 0.950 . S
C2222 C2221 1.397 . S
C2222 C2223 1.334 . S
C2223 H2200 0.950 . S
C2223 C2222 1.334 . S
C2223 C2224 1.287 . S
C2224 C2223 1.287 . S
C2224 C2225 1.524 . S
C2224 H2243 0.913 . S
C2225 H2201 0.950 . S
C2225 C2224 1.524 . S
C2225 C2226 1.415 . S
C2226 H2202 0.950 . S
C2226 C2221 1.363 . S
C2226 C2225 1.415 . S
C2227 H2203 0.951 . S
C2227 C2228 1.366 . S
C2227 C2229 1.388 . S
C2228 C2227 1.366 . S
C2228 C2232 1.385 . S
C2229 H2204 0.951 . S
C2229 C2227 1.388 . S
C2229 C2230 1.366 . S
C2230 C2229 1.366 . S
C2230 C2231 1.414 . S
C2230 C2233 1.499 . S
C2231 H2205 0.950 . S
C2231 C2230 1.414 . S
C2231 C2232 1.374 . S
C2232 H2206 0.950 . S
C2232 C2228 1.385 . S
C2232 C2231 1.374 . S
C2233 C2230 1.499 . S
C2233 C2234 1.373 . S
C2233 C2235 1.389 . S
C2234 H2207 0.950 . S
C2234 C2220 1.377 . S
C2234 C2233 1.373 . S
C2235 C2219 1.377 . S
C2235 C2233 1.389 . S
C2235 C2236 1.524 . S
C2236 C2235 1.524 . S
C2236 C2237 1.397 . S
C2236 C2241 1.363 . S
C2237 H2208 0.950 . S
C2237 C2236 1.397 . S
C2237 C2238 1.334 . S
C2238 H2209 0.950 . S
C2238 C2237 1.334 . S
C2238 C2239 1.287 . S
C2239 C2238 1.287 . S
C2239 C2240 1.524 . S
C2239 H2242 0.999 . S
C2240 H2210 0.950 . S
C2240 C2239 1.524 . S
C2240 C2241 1.415 . S
C2241 H2211 0.950 . S
C2241 C2236 1.363 . S
C2241 C2240 1.415 . S
H2242 C2239 0.999 . S
H2243 C2224 0.913 . S
H2244 C2262 0.951 . S
H2245 C2264 0.951 . S
H2246 C2266 0.950 . S
H2247 C2267 0.950 . S
H2248 C2269 0.950 . S
H2249 C2272 0.950 . S
H2250 C2273 0.950 . S
H2251 C2275 0.950 . S
H2252 C2276 0.950 . S
H2253 C2277 0.951 . S
H2254 C2279 0.951 . S
H2255 C2281 0.950 . S
H2256 C2282 0.950 . S
H2257 C2284 0.950 . S
H2258 C2287 0.950 . S
H2259 C2288 0.950 . S
H2260 C2290 0.950 . S
H2261 C2291 0.950 . S
C2262 H2244 0.951 . S
C2262 C2263 1.366 . S
C2262 C2264 1.388 . S
C2263 C2262 1.366 . S
C2263 C2267 1.385 . S
C2264 H2245 0.951 . S
C2264 C2262 1.388 . S
C2264 C2265 1.366 . S
C2265 C2264 1.366 . S
C2265 C2266 1.414 . S
C2265 C2268 1.499 . S
C2266 H2246 0.950 . S
C2266 C2265 1.414 . S
C2266 C2267 1.374 . S
C2267 H2247 0.950 . S
C2267 C2263 1.385 . S
C2267 C2266 1.374 . S
C2268 C2265 1.499 . S
C2268 C2269 1.373 . S
C2268 C2270 1.389 . S
C2269 H2248 0.950 . S
C2269 C2268 1.373 . S
C2269 C2285 1.377 . S
C2270 C2268 1.389 . S
C2270 C2271 1.524 . S
C2270 C2284 1.377 . S
C2271 C2270 1.524 . S
C2271 C2272 1.397 . S
C2271 C2276 1.363 . S
C2272 H2249 0.950 . S
C2272 C2271 1.397 . S
C2272 C2273 1.334 . S
C2273 H2250 0.950 . S
C2273 C2272 1.334 . S
C2273 C2274 1.287 . S
C2274 C2273 1.287 . S
C2274 C2275 1.524 . S
C2274 H2293 0.913 . S
C2275 H2251 0.950 . S
C2275 C2274 1.524 . S
C2275 C2276 1.415 . S
C2276 H2252 0.950 . S
C2276 C2271 1.363 . S
C2276 C2275 1.415 . S
C2277 H2253 0.951 . S
C2277 C2278 1.366 . S
C2277 C2279 1.388 . S
C2278 C2277 1.366 . S
C2278 C2282 1.385 . S
C2279 H2254 0.951 . S
C2279 C2277 1.388 . S
C2279 C2280 1.366 . S
C2280 C2279 1.366 . S
C2280 C2281 1.414 . S
C2280 C2283 1.499 . S
C2281 H2255 0.950 . S
C2281 C2280 1.414 . S
C2281 C2282 1.374 . S
C2282 H2256 0.950 . S
C2282 C2278 1.385 . S
C2282 C2281 1.374 . S
C2283 C2280 1.499 . S
C2283 C2284 1.373 . S
C2283 C2285 1.389 . S
C2284 H2257 0.950 . S
C2284 C2270 1.377 . S
C2284 C2283 1.373 . S
C2285 C2269 1.377 . S
C2285 C2283 1.389 . S
C2285 C2286 1.524 . S
C2286 C2285 1.524 . S
C2286 C2287 1.397 . S
C2286 C2291 1.363 . S
C2287 H2258 0.950 . S
C2287 C2286 1.397 . S
C2287 C2288 1.334 . S
C2288 H2259 0.950 . S
C2288 C2287 1.334 . S
C2288 C2289 1.287 . S
C2289 C2288 1.287 . S
C2289 C2290 1.524 . S
C2289 H2292 0.999 . S
C2290 H2260 0.950 . S
C2290 C2289 1.524 . S
C2290 C2291 1.415 . S
C2291 H2261 0.950 . S
C2291 C2286 1.363 . S
C2291 C2290 1.415 . S
H2292 C2289 0.999 . S
H2293 C2274 0.913 . S
H2294 C2312 0.951 . S
H2295 C2314 0.951 . S
H2296 C2316 0.950 . S
H2297 C2317 0.950 . S
H2298 C2319 0.950 . S
H2299 C2322 0.950 . S
H2300 C2323 0.950 . S
H2301 C2325 0.950 . S
H2302 C2326 0.950 . S
H2303 C2327 0.951 . S
H2304 C2329 0.951 . S
H2305 C2331 0.950 . S
H2306 C2332 0.950 . S
H2307 C2334 0.950 . S
H2308 C2337 0.950 . S
H2309 C2338 0.950 . S
H2310 C2340 0.950 . S
H2311 C2341 0.950 . S
C2312 H2294 0.951 . S
C2312 C2313 1.366 . S
C2312 C2314 1.388 . S
C2313 C2312 1.366 . S
C2313 C2317 1.385 . S
C2314 H2295 0.951 . S
C2314 C2312 1.388 . S
C2314 C2315 1.366 . S
C2315 C2314 1.366 . S
C2315 C2316 1.414 . S
C2315 C2318 1.499 . S
C2316 H2296 0.950 . S
C2316 C2315 1.414 . S
C2316 C2317 1.374 . S
C2317 H2297 0.950 . S
C2317 C2313 1.385 . S
C2317 C2316 1.374 . S
C2318 C2315 1.499 . S
C2318 C2319 1.373 . S
C2318 C2320 1.389 . S
C2319 H2298 0.950 . S
C2319 C2318 1.373 . S
C2319 C2335 1.377 . S
C2320 C2318 1.389 . S
C2320 C2321 1.524 . S
C2320 C2334 1.377 . S
C2321 C2320 1.524 . S
C2321 C2322 1.397 . S
C2321 C2326 1.363 . S
C2322 H2299 0.950 . S
C2322 C2321 1.397 . S
C2322 C2323 1.334 . S
C2323 H2300 0.950 . S
C2323 C2322 1.334 . S
C2323 C2324 1.287 . S
C2324 C2323 1.287 . S
C2324 C2325 1.524 . S
C2324 H2343 0.913 . S
C2325 H2301 0.950 . S
C2325 C2324 1.524 . S
C2325 C2326 1.415 . S
C2326 H2302 0.950 . S
C2326 C2321 1.363 . S
C2326 C2325 1.415 . S
C2327 H2303 0.951 . S
C2327 C2328 1.366 . S
C2327 C2329 1.388 . S
C2328 C2327 1.366 . S
C2328 C2332 1.385 . S
C2329 H2304 0.951 . S
C2329 C2327 1.388 . S
C2329 C2330 1.366 . S
C2330 C2329 1.366 . S
C2330 C2331 1.414 . S
C2330 C2333 1.499 . S
C2331 H2305 0.950 . S
C2331 C2330 1.414 . S
C2331 C2332 1.374 . S
C2332 H2306 0.950 . S
C2332 C2328 1.385 . S
C2332 C2331 1.374 . S
C2333 C2330 1.499 . S
C2333 C2334 1.373 . S
C2333 C2335 1.389 . S
C2334 H2307 0.950 . S
C2334 C2320 1.377 . S
C2334 C2333 1.373 . S
C2335 C2319 1.377 . S
C2335 C2333 1.389 . S
C2335 C2336 1.524 . S
C2336 C2335 1.524 . S
C2336 C2337 1.397 . S
C2336 C2341 1.363 . S
C2337 H2308 0.950 . S
C2337 C2336 1.397 . S
C2337 C2338 1.334 . S
C2338 H2309 0.950 . S
C2338 C2337 1.334 . S
C2338 C2339 1.287 . S
C2339 C2338 1.287 . S
C2339 C2340 1.524 . S
C2339 H2342 0.999 . S
C2340 H2310 0.950 . S
C2340 C2339 1.524 . S
C2340 C2341 1.415 . S
C2341 H2311 0.950 . S
C2341 C2336 1.363 . S
C2341 C2340 1.415 . S
H2342 C2339 0.999 . S
H2343 C2324 0.913 . S
H2344 C2362 0.951 . S
H2345 C2364 0.951 . S
H2346 C2366 0.950 . S
H2347 C2367 0.950 . S
H2348 C2369 0.950 . S
H2349 C2372 0.950 . S
H2350 C2373 0.950 . S
H2351 C2375 0.950 . S
H2352 C2376 0.950 . S
H2353 C2377 0.951 . S
H2354 C2379 0.951 . S
H2355 C2381 0.950 . S
H2356 C2382 0.950 . S
H2357 C2384 0.950 . S
H2358 C2387 0.950 . S
H2359 C2388 0.950 . S
H2360 C2390 0.950 . S
H2361 C2391 0.950 . S
C2362 H2344 0.951 . S
C2362 C2363 1.366 . S
C2362 C2364 1.388 . S
C2363 C2362 1.366 . S
C2363 C2367 1.385 . S
C2364 H2345 0.951 . S
C2364 C2362 1.388 . S
C2364 C2365 1.366 . S
C2365 C2364 1.366 . S
C2365 C2366 1.414 . S
C2365 C2368 1.499 . S
C2366 H2346 0.950 . S
C2366 C2365 1.414 . S
C2366 C2367 1.374 . S
C2367 H2347 0.950 . S
C2367 C2363 1.385 . S
C2367 C2366 1.374 . S
C2368 C2365 1.499 . S
C2368 C2369 1.373 . S
C2368 C2370 1.389 . S
C2369 H2348 0.950 . S
C2369 C2368 1.373 . S
C2369 C2385 1.377 . S
C2370 C2368 1.389 . S
C2370 C2371 1.524 . S
C2370 C2384 1.377 . S
C2371 C2370 1.524 . S
C2371 C2372 1.397 . S
C2371 C2376 1.363 . S
C2372 H2349 0.950 . S
C2372 C2371 1.397 . S
C2372 C2373 1.334 . S
C2373 H2350 0.950 . S
C2373 C2372 1.334 . S
C2373 C2374 1.287 . S
C2374 C2373 1.287 . S
C2374 C2375 1.524 . S
C2374 H2393 0.913 . S
C2375 H2351 0.950 . S
C2375 C2374 1.524 . S
C2375 C2376 1.415 . S
C2376 H2352 0.950 . S
C2376 C2371 1.363 . S
C2376 C2375 1.415 . S
C2377 H2353 0.951 . S
C2377 C2378 1.366 . S
C2377 C2379 1.388 . S
C2378 C2377 1.366 . S
C2378 C2382 1.385 . S
C2379 H2354 0.951 . S
C2379 C2377 1.388 . S
C2379 C2380 1.366 . S
C2380 C2379 1.366 . S
C2380 C2381 1.414 . S
C2380 C2383 1.499 . S
C2381 H2355 0.950 . S
C2381 C2380 1.414 . S
C2381 C2382 1.374 . S
C2382 H2356 0.950 . S
C2382 C2378 1.385 . S
C2382 C2381 1.374 . S
C2383 C2380 1.499 . S
C2383 C2384 1.373 . S
C2383 C2385 1.389 . S
C2384 H2357 0.950 . S
C2384 C2370 1.377 . S
C2384 C2383 1.373 . S
C2385 C2369 1.377 . S
C2385 C2383 1.389 . S
C2385 C2386 1.524 . S
C2386 C2385 1.524 . S
C2386 C2387 1.397 . S
C2386 C2391 1.363 . S
C2387 H2358 0.950 . S
C2387 C2386 1.397 . S
C2387 C2388 1.334 . S
C2388 H2359 0.950 . S
C2388 C2387 1.334 . S
C2388 C2389 1.287 . S
C2389 C2388 1.287 . S
C2389 C2390 1.524 . S
C2389 H2392 0.999 . S
C2390 H2360 0.950 . S
C2390 C2389 1.524 . S
C2390 C2391 1.415 . S
C2391 H2361 0.950 . S
C2391 C2386 1.363 . S
C2391 C2390 1.415 . S
H2392 C2389 0.999 . S
H2393 C2374 0.913 . S
H2394 C2412 0.951 . S
H2395 C2414 0.951 . S
H2396 C2416 0.950 . S
H2397 C2417 0.950 . S
H2398 C2419 0.950 . S
H2399 C2422 0.950 . S
H2400 C2423 0.950 . S
H2401 C2425 0.950 . S
H2402 C2426 0.950 . S
H2403 C2427 0.951 . S
H2404 C2429 0.951 . S
H2405 C2431 0.950 . S
H2406 C2432 0.950 . S
H2407 C2434 0.950 . S
H2408 C2437 0.950 . S
H2409 C2438 0.950 . S
H2410 C2440 0.950 . S
H2411 C2441 0.950 . S
C2412 H2394 0.951 . S
C2412 C2413 1.366 . S
C2412 C2414 1.388 . S
C2413 C2412 1.366 . S
C2413 C2417 1.385 . S
C2414 H2395 0.951 . S
C2414 C2412 1.388 . S
C2414 C2415 1.366 . S
C2415 C2414 1.366 . S
C2415 C2416 1.414 . S
C2415 C2418 1.499 . S
C2416 H2396 0.950 . S
C2416 C2415 1.414 . S
C2416 C2417 1.374 . S
C2417 H2397 0.950 . S
C2417 C2413 1.385 . S
C2417 C2416 1.374 . S
C2418 C2415 1.499 . S
C2418 C2419 1.373 . S
C2418 C2420 1.389 . S
C2419 H2398 0.950 . S
C2419 C2418 1.373 . S
C2419 C2435 1.377 . S
C2420 C2418 1.389 . S
C2420 C2421 1.524 . S
C2420 C2434 1.377 . S
C2421 C2420 1.524 . S
C2421 C2422 1.397 . S
C2421 C2426 1.363 . S
C2422 H2399 0.950 . S
C2422 C2421 1.397 . S
C2422 C2423 1.334 . S
C2423 H2400 0.950 . S
C2423 C2422 1.334 . S
C2423 C2424 1.287 . S
C2424 C2423 1.287 . S
C2424 C2425 1.524 . S
C2424 H2443 0.913 . S
C2425 H2401 0.950 . S
C2425 C2424 1.524 . S
C2425 C2426 1.415 . S
C2426 H2402 0.950 . S
C2426 C2421 1.363 . S
C2426 C2425 1.415 . S
C2427 H2403 0.951 . S
C2427 C2428 1.366 . S
C2427 C2429 1.388 . S
C2428 C2427 1.366 . S
C2428 C2432 1.385 . S
C2429 H2404 0.951 . S
C2429 C2427 1.388 . S
C2429 C2430 1.366 . S
C2430 C2429 1.366 . S
C2430 C2431 1.414 . S
C2430 C2433 1.499 . S
C2431 H2405 0.950 . S
C2431 C2430 1.414 . S
C2431 C2432 1.374 . S
C2432 H2406 0.950 . S
C2432 C2428 1.385 . S
C2432 C2431 1.374 . S
C2433 C2430 1.499 . S
C2433 C2434 1.373 . S
C2433 C2435 1.389 . S
C2434 H2407 0.950 . S
C2434 C2420 1.377 . S
C2434 C2433 1.373 . S
C2435 C2419 1.377 . S
C2435 C2433 1.389 . S
C2435 C2436 1.524 . S
C2436 C2435 1.524 . S
C2436 C2437 1.397 . S
C2436 C2441 1.363 . S
C2437 H2408 0.950 . S
C2437 C2436 1.397 . S
C2437 C2438 1.334 . S
C2438 H2409 0.950 . S
C2438 C2437 1.334 . S
C2438 C2439 1.287 . S
C2439 C2438 1.287 . S
C2439 C2440 1.524 . S
C2439 H2442 0.999 . S
C2440 H2410 0.950 . S
C2440 C2439 1.524 . S
C2440 C2441 1.415 . S
C2441 H2411 0.950 . S
C2441 C2436 1.363 . S
C2441 C2440 1.415 . S
H2442 C2439 0.999 . S
H2443 C2424 0.913 . S
H2444 C2462 0.951 . S
H2445 C2464 0.951 . S
H2446 C2466 0.950 . S
H2447 C2467 0.950 . S
H2448 C2469 0.950 . S
H2449 C2472 0.950 . S
H2450 C2473 0.950 . S
H2451 C2475 0.950 . S
H2452 C2476 0.950 . S
H2453 C2477 0.951 . S
H2454 C2479 0.951 . S
H2455 C2481 0.950 . S
H2456 C2482 0.950 . S
H2457 C2484 0.950 . S
H2458 C2487 0.950 . S
H2459 C2488 0.950 . S
H2460 C2490 0.950 . S
H2461 C2491 0.950 . S
C2462 H2444 0.951 . S
C2462 C2463 1.366 . S
C2462 C2464 1.388 . S
C2463 C2462 1.366 . S
C2463 C2467 1.385 . S
C2464 H2445 0.951 . S
C2464 C2462 1.388 . S
C2464 C2465 1.366 . S
C2465 C2464 1.366 . S
C2465 C2466 1.414 . S
C2465 C2468 1.499 . S
C2466 H2446 0.950 . S
C2466 C2465 1.414 . S
C2466 C2467 1.374 . S
C2467 H2447 0.950 . S
C2467 C2463 1.385 . S
C2467 C2466 1.374 . S
C2468 C2465 1.499 . S
C2468 C2469 1.373 . S
C2468 C2470 1.389 . S
C2469 H2448 0.950 . S
C2469 C2468 1.373 . S
C2469 C2485 1.377 . S
C2470 C2468 1.389 . S
C2470 C2471 1.524 . S
C2470 C2484 1.377 . S
C2471 C2470 1.524 . S
C2471 C2472 1.397 . S
C2471 C2476 1.363 . S
C2472 H2449 0.950 . S
C2472 C2471 1.397 . S
C2472 C2473 1.334 . S
C2473 H2450 0.950 . S
C2473 C2472 1.334 . S
C2473 C2474 1.287 . S
C2474 C2473 1.287 . S
C2474 C2475 1.524 . S
C2474 H2493 0.913 . S
C2475 H2451 0.950 . S
C2475 C2474 1.524 . S
C2475 C2476 1.415 . S
C2476 H2452 0.950 . S
C2476 C2471 1.363 . S
C2476 C2475 1.415 . S
C2477 H2453 0.951 . S
C2477 C2478 1.366 . S
C2477 C2479 1.388 . S
C2478 C2477 1.366 . S
C2478 C2482 1.385 . S
C2479 H2454 0.951 . S
C2479 C2477 1.388 . S
C2479 C2480 1.366 . S
C2480 C2479 1.366 . S
C2480 C2481 1.414 . S
C2480 C2483 1.499 . S
C2481 H2455 0.950 . S
C2481 C2480 1.414 . S
C2481 C2482 1.374 . S
C2482 H2456 0.950 . S
C2482 C2478 1.385 . S
C2482 C2481 1.374 . S
C2483 C2480 1.499 . S
C2483 C2484 1.373 . S
C2483 C2485 1.389 . S
C2484 H2457 0.950 . S
C2484 C2470 1.377 . S
C2484 C2483 1.373 . S
C2485 C2469 1.377 . S
C2485 C2483 1.389 . S
C2485 C2486 1.524 . S
C2486 C2485 1.524 . S
C2486 C2487 1.397 . S
C2486 C2491 1.363 . S
C2487 H2458 0.950 . S
C2487 C2486 1.397 . S
C2487 C2488 1.334 . S
C2488 H2459 0.950 . S
C2488 C2487 1.334 . S
C2488 C2489 1.287 . S
C2489 C2488 1.287 . S
C2489 C2490 1.524 . S
C2489 H2492 0.999 . S
C2490 H2460 0.950 . S
C2490 C2489 1.524 . S
C2490 C2491 1.415 . S
C2491 H2461 0.950 . S
C2491 C2486 1.363 . S
C2491 C2490 1.415 . S
H2492 C2489 0.999 . S
H2493 C2474 0.913 . S
H2494 C2512 0.951 . S
H2495 C2514 0.951 . S
H2496 C2516 0.950 . S
H2497 C2517 0.950 . S
H2498 C2519 0.950 . S
H2499 C2522 0.950 . S
H2500 C2523 0.950 . S
H2501 C2525 0.950 . S
H2502 C2526 0.950 . S
H2503 C2527 0.951 . S
H2504 C2529 0.951 . S
H2505 C2531 0.950 . S
H2506 C2532 0.950 . S
H2507 C2534 0.950 . S
H2508 C2537 0.950 . S
H2509 C2538 0.950 . S
H2510 C2540 0.950 . S
H2511 C2541 0.950 . S
C2512 H2494 0.951 . S
C2512 C2513 1.366 . S
C2512 C2514 1.388 . S
C2513 C2512 1.366 . S
C2513 C2517 1.385 . S
C2514 H2495 0.951 . S
C2514 C2512 1.388 . S
C2514 C2515 1.366 . S
C2515 C2514 1.366 . S
C2515 C2516 1.414 . S
C2515 C2518 1.499 . S
C2516 H2496 0.950 . S
C2516 C2515 1.414 . S
C2516 C2517 1.374 . S
C2517 H2497 0.950 . S
C2517 C2513 1.385 . S
C2517 C2516 1.374 . S
C2518 C2515 1.499 . S
C2518 C2519 1.373 . S
C2518 C2520 1.389 . S
C2519 H2498 0.950 . S
C2519 C2518 1.373 . S
C2519 C2535 1.377 . S
C2520 C2518 1.389 . S
C2520 C2521 1.524 . S
C2520 C2534 1.377 . S
C2521 C2520 1.524 . S
C2521 C2522 1.397 . S
C2521 C2526 1.363 . S
C2522 H2499 0.950 . S
C2522 C2521 1.397 . S
C2522 C2523 1.334 . S
C2523 H2500 0.950 . S
C2523 C2522 1.334 . S
C2523 C2524 1.287 . S
C2524 C2523 1.287 . S
C2524 C2525 1.524 . S
C2524 H2543 0.913 . S
C2525 H2501 0.950 . S
C2525 C2524 1.524 . S
C2525 C2526 1.415 . S
C2526 H2502 0.950 . S
C2526 C2521 1.363 . S
C2526 C2525 1.415 . S
C2527 H2503 0.951 . S
C2527 C2528 1.366 . S
C2527 C2529 1.388 . S
C2528 C2527 1.366 . S
C2528 C2532 1.385 . S
C2529 H2504 0.951 . S
C2529 C2527 1.388 . S
C2529 C2530 1.366 . S
C2530 C2529 1.366 . S
C2530 C2531 1.414 . S
C2530 C2533 1.499 . S
C2531 H2505 0.950 . S
C2531 C2530 1.414 . S
C2531 C2532 1.374 . S
C2532 H2506 0.950 . S
C2532 C2528 1.385 . S
C2532 C2531 1.374 . S
C2533 C2530 1.499 . S
C2533 C2534 1.373 . S
C2533 C2535 1.389 . S
C2534 H2507 0.950 . S
C2534 C2520 1.377 . S
C2534 C2533 1.373 . S
C2535 C2519 1.377 . S
C2535 C2533 1.389 . S
C2535 C2536 1.524 . S
C2536 C2535 1.524 . S
C2536 C2537 1.397 . S
C2536 C2541 1.363 . S
C2537 H2508 0.950 . S
C2537 C2536 1.397 . S
C2537 C2538 1.334 . S
C2538 H2509 0.950 . S
C2538 C2537 1.334 . S
C2538 C2539 1.287 . S
C2539 C2538 1.287 . S
C2539 C2540 1.524 . S
C2539 H2542 0.999 . S
C2540 H2510 0.950 . S
C2540 C2539 1.524 . S
C2540 C2541 1.415 . S
C2541 H2511 0.950 . S
C2541 C2536 1.363 . S
C2541 C2540 1.415 . S
H2542 C2539 0.999 . S
H2543 C2524 0.913 . S
C563 C33 0.616 . S
C578 C379 0.618 . S
C613 C277 0.618 . S
C628 C67 0.615 . S
C663 C311 0.617 . S
C678 C101 0.616 . S
C713 C345 0.617 . S
C728 C135 0.617 . S
C763 C175 0.617 . S
C778 C169 0.617 . S
C813 C209 0.618 . S
C828 C203 0.616 . S
C863 C237 0.616 . S
C878 C243 0.617 . S
C913 C271 0.617 . S
C928 C141 0.617 . S
C963 C305 0.615 . S
C978 C107 0.618 . S
C1013 C339 0.616 . S
C1028 C5 0.618 . S
C1063 C39 0.617 . S
C1078 C373 0.616 . S
C1113 C407 0.617 . S
C1128 C73 0.617 . S
C1163 C447 0.618 . S
C1178 C441 0.616 . S
C1213 C481 0.617 . S
C1228 C475 0.617 . S
C1263 C515 0.618 . S
C1278 C509 0.615 . S
C1313 C543 0.617 . S
C1328 C413 0.617 . S
C1363 C20 1.310 . S
C1378 C88 1.310 . S
C1413 C54 1.310 . S
C1428 C122 1.310 . S
C1463 C224 1.310 . S
C1478 C156 1.310 . S
C1513 C258 1.310 . S
C1528 C190 1.310 . S
C1563 C360 1.309 . S
C1578 C292 1.310 . S
C1613 C326 1.310 . S
C1628 C394 1.310 . S
C1663 C428 1.310 . S
C1678 C496 1.309 . S
C1713 C530 1.310 . S
C1728 C462 1.310 . S
C1763 C70 0.916 . S
C1778 C2 0.917 . S
C1813 C36 0.917 . S
C1828 C104 0.916 . S
C1863 C138 0.917 . S
C1878 C206 0.915 . S
C1913 C240 0.917 . S
C1928 C172 0.915 . S
C1963 C342 0.917 . S
C1978 C274 0.916 . S
C2013 C308 0.916 . S
C2028 C376 0.917 . S
C2063 C410 0.917 . S
C2078 C478 0.916 . S
C2113 C512 0.916 . S
C2128 C444 0.917 . S
C2163 C485 1.512 . S
C2178 C9 1.512 . S
C2213 C43 1.512 . S
C2228 C519 1.512 . S
C2263 C77 1.512 . S
C2278 C417 1.512 . S
C2313 C111 1.512 . S
C2328 C451 1.512 . S
C2363 C145 1.512 . S
C2378 C349 1.512 . S
C2413 C383 1.512 . S
C2428 C179 1.512 . S
C2463 C213 1.511 . S
C2478 C281 1.511 . S
C2513 C247 1.512 . S
C2528 C315 1.512 . S
