# Generated by pormake.
# Topology unj, (4)-cn, num edge types: 1
# Building blocks:
#     Node 0, Type 0, BuildingBlock: UXUYUI_clean_sbu_0, # of connection points: 4
#     Node 1, Type 0, BuildingBlock: UXUYUI_clean_sbu_0, # of connection points: 4
#     Node 2, Type 0, BuildingBlock: UXUYUI_clean_sbu_0, # of connection points: 4
#     Node 3, Type 0, BuildingBlock: UXUYUI_clean_sbu_0, # of connection points: 4
#     Node 4, Type 0, BuildingBlock: UXUYUI_clean_sbu_0, # of connection points: 4
#     Node 5, Type 0, BuildingBlock: UXUYUI_clean_sbu_0, # of connection points: 4
#     Edge 6, Type (0, 0), BuildingBlock: XUDNAN_clean_linker_2, # of connection points: 2
#     Edge 7, Type (0, 0), BuildingBlock: XUDNAN_clean_linker_2, # of connection points: 2
#     Edge 8, Type (0, 0), BuildingBlock: XUDNAN_clean_linker_2, # of connection points: 2
#     Edge 9, Type (0, 0), BuildingBlock: XUDNAN_clean_linker_2, # of connection points: 2
#     Edge 10, Type (0, 0), BuildingBlock: XUDNAN_clean_linker_2, # of connection points: 2
#     Edge 11, Type (0, 0), BuildingBlock: XUDNAN_clean_linker_2, # of connection points: 2
#     Edge 12, Type (0, 0), BuildingBlock: XUDNAN_clean_linker_2, # of connection points: 2
#     Edge 13, Type (0, 0), BuildingBlock: XUDNAN_clean_linker_2, # of connection points: 2
#     Edge 14, Type (0, 0), BuildingBlock: XUDNAN_clean_linker_2, # of connection points: 2
#     Edge 15, Type (0, 0), BuildingBlock: XUDNAN_clean_linker_2, # of connection points: 2
#     Edge 16, Type (0, 0), BuildingBlock: XUDNAN_clean_linker_2, # of connection points: 2
#     Edge 17, Type (0, 0), BuildingBlock: XUDNAN_clean_linker_2, # of connection points: 2
# Relax obj value: 0.030
# Max RMSD: 0.052
# Mean RMSD: 0.052
data_MOF--net-unj--node1-UXUYUI_clean_sbu_0--edge1-XUDNAN_clean_linker_2
_symmetry_space_group_name_H-M    P1
_symmetry_Int_Tables_number       1
_symmetry_cell_setting            triclinic
loop_
_symmetry_equiv_pos_as_xyz
'x, y, z'
_cell_length_a     50.651364
_cell_length_b     50.653857
_cell_length_c     49.053039
_cell_angle_alpha  90.0457
_cell_angle_beta   90.042922
_cell_angle_gamma 119.98032
loop_
_atom_site_label
_atom_site_type_symbol
_atom_site_fract_x
_atom_site_fract_y
_atom_site_fract_z
_atom_type_partial_charge
Li0 Li 0.46404 0.21138 0.58054 0.0
Li1 Li 0.50433 0.2429 0.61303 0.0
Li2 Li 0.46333 0.25601 0.60021 0.0
Li3 Li 0.50441 0.26473 0.56789 0.0
C4 C 0.43601 0.19467 0.63157 0.0
N5 N 0.38863 0.14407 0.65606 0.0
C6 C 0.44167 0.17408 0.64575 0.0
C7 C 0.40638 0.18991 0.63039 0.0
C8 C 0.41738 0.14851 0.65782 0.0
C9 C 0.3827 0.16409 0.64275 0.0
C10 C 0.53491 0.22749 0.57343 0.0
C11 C 0.58976 0.25246 0.57152 0.0
N12 N 0.5879 0.22492 0.56822 0.0
C13 C 0.53353 0.19945 0.56972 0.0
C14 C 0.56322 0.25422 0.5741 0.0
C15 C 0.56058 0.19862 0.56725 0.0
C16 C 0.42385 0.16133 0.54544 0.0
N17 N 0.44175 0.17018 0.56812 0.0
C18 C 0.43535 0.12039 0.573 0.0
C19 C 0.4475 0.15037 0.58195 0.0
C20 C 0.41733 0.11068 0.54934 0.0
C21 C 0.4111 0.13139 0.53577 0.0
H22 H 0.42042 0.17769 0.5342 0.0
H23 H 0.46261 0.15823 0.59935 0.0
C24 C 0.53987 0.26097 0.66214 0.0
N25 N 0.52812 0.24008 0.64168 0.0
C26 C 0.55603 0.25718 0.6835 0.0
C27 C 0.54793 0.21075 0.66202 0.0
C28 C 0.53166 0.21523 0.6414 0.0
C29 C 0.56007 0.23162 0.68373 0.0
H30 H 0.53622 0.28027 0.66213 0.0
H31 H 0.52135 0.19851 0.62536 0.0
C32 C 0.43531 0.24069 0.54716 0.0
N33 N 0.3857 0.23569 0.5191 0.0
C34 C 0.43967 0.25903 0.52442 0.0
C35 C 0.40575 0.21971 0.55555 0.0
C36 C 0.41428 0.2562 0.51053 0.0
C37 C 0.38096 0.21753 0.54111 0.0
C38 C 0.53011 0.31293 0.60741 0.0
C39 C 0.5222 0.33568 0.60605 0.0
C40 C 0.56042 0.32097 0.61225 0.0
C41 C 0.54492 0.36619 0.60875 0.0
C42 C 0.58247 0.35173 0.61488 0.0
N43 N 0.57434 0.37352 0.61303 0.0
C44 C 0.43249 0.27375 0.6386 0.0
C45 C 0.43461 0.29054 0.59319 0.0
C46 C 0.41891 0.29057 0.64726 0.0
N47 N 0.44028 0.27432 0.61199 0.0
C48 C 0.42077 0.30722 0.60082 0.0
C49 C 0.41338 0.30809 0.62829 0.0
H50 H 0.43777 0.26109 0.65325 0.0
H51 H 0.44192 0.29156 0.57238 0.0
C52 C 0.54223 0.28343 0.52012 0.0
N53 N 0.52775 0.29131 0.53903 0.0
C54 C 0.55776 0.30309 0.49846 0.0
C55 C 0.54315 0.33844 0.51623 0.0
C56 C 0.52767 0.31801 0.53725 0.0
C57 C 0.55823 0.33102 0.49621 0.0
H58 H 0.5412 0.26164 0.5215 0.0
H59 H 0.51498 0.32318 0.55185 0.0
O60 O 0.45954 0.21993 0.61978 0.0
O61 O 0.50863 0.22865 0.57622 0.0
O62 O 0.45995 0.24353 0.56117 0.0
O63 O 0.5081 0.28293 0.60491 0.0
H64 H 0.46457 0.17774 0.64732 0.0
H65 H 0.40174 0.20612 0.62028 0.0
H66 H 0.42139 0.13225 0.66866 0.0
H67 H 0.35963 0.16005 0.64189 0.0
H68 H 0.61183 0.273 0.57204 0.0
H69 H 0.5118 0.17853 0.56892 0.0
H70 H 0.56467 0.27612 0.57626 0.0
H71 H 0.55984 0.17706 0.56455 0.0
H72 H 0.44061 0.10515 0.58417 0.0
H73 H 0.39772 0.12495 0.5172 0.0
H74 H 0.56453 0.27364 0.69995 0.0
H75 H 0.55078 0.19098 0.66093 0.0
H76 H 0.46243 0.27539 0.51766 0.0
H77 H 0.40202 0.20505 0.57282 0.0
H78 H 0.4173 0.27032 0.49296 0.0
H79 H 0.35795 0.20136 0.54736 0.0
H80 H 0.49881 0.32989 0.60269 0.0
H81 H 0.56685 0.30369 0.61428 0.0
H82 H 0.53915 0.38403 0.60748 0.0
H83 H 0.60603 0.35827 0.61851 0.0
H84 H 0.41395 0.29077 0.6687 0.0
H85 H 0.41651 0.31985 0.58532 0.0
H86 H 0.56851 0.29607 0.48327 0.0
H87 H 0.54308 0.35977 0.51567 0.0
Li88 Li 0.26855 0.49885 0.77954 0.0
Li89 Li 0.26367 0.46169 0.74694 0.0
Li90 Li 0.2498 0.50267 0.73592 0.0
Li91 Li 0.21864 0.45994 0.76933 0.0
C92 C 0.3199 0.52434 0.74969 0.0
N93 N 0.38091 0.5606 0.76217 0.0
C94 C 0.33499 0.51245 0.76475 0.0
C95 C 0.33582 0.55454 0.74076 0.0
C96 C 0.36584 0.53119 0.77092 0.0
C97 C 0.36667 0.57254 0.74733 0.0
C98 C 0.24111 0.42428 0.79128 0.0
C99 C 0.20944 0.37129 0.77917 0.0
N100 N 0.21967 0.36321 0.80152 0.0
C101 C 0.25135 0.41543 0.8141 0.0
C102 C 0.22004 0.40202 0.77364 0.0
C103 C 0.24023 0.38446 0.81893 0.0
C104 C 0.29067 0.50787 0.83298 0.0
N105 N 0.2933 0.52308 0.80944 0.0
C106 C 0.32697 0.57071 0.83099 0.0
C107 C 0.31123 0.55392 0.80796 0.0
C108 C 0.32417 0.5556 0.85576 0.0
C109 C 0.30606 0.52367 0.8564 0.0
H110 H 0.27604 0.48344 0.83372 0.0
H111 H 0.31255 0.5656 0.78915 0.0
C112 C 0.28134 0.43968 0.70266 0.0
N113 N 0.28074 0.43968 0.73034 0.0
C114 C 0.29604 0.42661 0.6888 0.0
C115 C 0.30856 0.41299 0.73218 0.0
C116 C 0.2938 0.42656 0.74524 0.0
C117 C 0.31028 0.41343 0.7036 0.0
H118 H 0.27102 0.45055 0.69137 0.0
H119 H 0.29362 0.42746 0.76724 0.0
C120 C 0.23456 0.52177 0.79356 0.0
N121 N 0.24041 0.55763 0.83821 0.0
C122 C 0.22272 0.50831 0.81882 0.0
C123 C 0.24926 0.55347 0.79098 0.0
C124 C 0.22596 0.52683 0.84116 0.0
C125 C 0.25199 0.5712 0.8138 0.0
C126 C 0.20366 0.44279 0.71107 0.0
C127 C 0.18632 0.45575 0.70256 0.0
C128 C 0.19817 0.41517 0.69973 0.0
C129 C 0.16344 0.44063 0.6831 0.0
C130 C 0.17506 0.40073 0.68033 0.0
N131 N 0.15832 0.41365 0.67249 0.0
C132 C 0.25388 0.51804 0.68107 0.0
C133 C 0.24072 0.54784 0.70915 0.0
C134 C 0.2514 0.53239 0.65773 0.0
N135 N 0.24829 0.52577 0.70607 0.0
C136 C 0.23853 0.56321 0.68635 0.0
C137 C 0.24355 0.55521 0.66024 0.0
H138 H 0.25966 0.50023 0.67929 0.0
H139 H 0.23575 0.55309 0.72916 0.0
C140 C 0.17511 0.42044 0.80789 0.0
N141 N 0.17814 0.43384 0.78318 0.0
C142 C 0.14628 0.40122 0.81877 0.0
C143 C 0.12393 0.41098 0.77931 0.0
C144 C 0.15327 0.42989 0.76909 0.0
C145 C 0.12018 0.39609 0.80435 0.0
H146 H 0.19511 0.42486 0.81938 0.0
H147 H 0.1561 0.44155 0.75002 0.0
O148 O 0.28966 0.50646 0.74368 0.0
O149 O 0.25213 0.45463 0.78627 0.0
O150 O 0.23223 0.50398 0.77165 0.0
O151 O 0.22664 0.45757 0.72966 0.0
H152 H 0.32289 0.48912 0.77187 0.0
H153 H 0.32438 0.56399 0.72904 0.0
H154 H 0.3778 0.52238 0.78272 0.0
H155 H 0.37929 0.59601 0.74067 0.0
H156 H 0.19306 0.35386 0.76571 0.0
H157 H 0.26784 0.43229 0.82789 0.0
H158 H 0.21171 0.40828 0.756 0.0
H159 H 0.24798 0.37732 0.83651 0.0
H160 H 0.34033 0.59531 0.82962 0.0
H161 H 0.30359 0.51096 0.87488 0.0
H162 H 0.29666 0.42721 0.66673 0.0
H163 H 0.31959 0.40342 0.74432 0.0
H164 H 0.21154 0.48387 0.82125 0.0
H165 H 0.25912 0.56436 0.77177 0.0
H166 H 0.21709 0.51672 0.86086 0.0
H167 H 0.26353 0.59577 0.81214 0.0
H168 H 0.19027 0.47713 0.7111 0.0
H169 H 0.21164 0.40499 0.70579 0.0
H170 H 0.14975 0.45034 0.67644 0.0
H171 H 0.1705 0.3793 0.67145 0.0
H172 H 0.25553 0.5257 0.63792 0.0
H173 H 0.23206 0.58045 0.68901 0.0
H174 H 0.14447 0.39082 0.83848 0.0
H175 H 0.10441 0.40775 0.76758 0.0
Li176 Li 0.81299 0.25541 0.91224 0.0
Li177 Li 0.78383 0.26669 0.9463 0.0
Li178 Li 0.77154 0.21384 0.93563 0.0
Li179 Li 0.76017 0.24348 0.90192 0.0
C180 C 0.81314 0.23257 0.97348 0.0
N181 N 0.81791 0.2002 0.01667 0.0
C182 C 0.80573 0.2371 0.99985 0.0
C183 C 0.8232 0.21175 0.96911 0.0
C184 C 0.80827 0.22049 0.02142 0.0
C185 C 0.82537 0.19554 0.99119 0.0
C186 C 0.80221 0.31229 0.90432 0.0
C187 C 0.78465 0.34829 0.89867 0.0
N188 N 0.81403 0.37116 0.89609 0.0
C189 C 0.83222 0.33609 0.90134 0.0
C190 C 0.77821 0.31836 0.90276 0.0
C191 C 0.83773 0.36572 0.89731 0.0
C192 C 0.86028 0.28381 0.87245 0.0
N193 N 0.85296 0.27085 0.89761 0.0
C194 C 0.90309 0.27841 0.90345 0.0
C195 C 0.87375 0.26835 0.91323 0.0
C196 C 0.91126 0.29135 0.87732 0.0
C197 C 0.88949 0.29427 0.86183 0.0
H198 H 0.84334 0.28574 0.86054 0.0
H199 H 0.86755 0.2585 0.93334 0.0
C200 C 0.76635 0.28637 0.99425 0.0
N201 N 0.78727 0.29475 0.97392 0.0
C202 C 0.77036 0.30688 0.01514 0.0
C203 C 0.81703 0.34428 0.99348 0.0
C204 C 0.81236 0.32296 0.97333 0.0
C205 C 0.79613 0.33631 0.01504 0.0
H206 H 0.74698 0.2635 0.99465 0.0
H207 H 0.8291 0.32878 0.95744 0.0
C208 C 0.79429 0.21394 0.87458 0.0
N209 N 0.82739 0.20929 0.83195 0.0
C210 C 0.79072 0.22207 0.84819 0.0
C211 C 0.81453 0.20321 0.87925 0.0
C212 C 0.80767 0.21958 0.82692 0.0
C213 C 0.83112 0.20112 0.85745 0.0
C214 C 0.71516 0.22534 0.94475 0.0
C215 C 0.69137 0.19565 0.94932 0.0
C216 C 0.70938 0.24956 0.94533 0.0
C217 C 0.66203 0.19066 0.95406 0.0
C218 C 0.67974 0.24364 0.95017 0.0
N219 N 0.65687 0.21456 0.95437 0.0
C220 C 0.74418 0.1664 0.9755 0.0
C221 C 0.75664 0.15254 0.93333 0.0
C222 C 0.73338 0.13695 0.98566 0.0
N223 N 0.75585 0.17365 0.94987 0.0
C224 C 0.74612 0.12292 0.9426 0.0
C225 C 0.73452 0.11481 0.96918 0.0
H226 H 0.74349 0.18357 0.98812 0.0
H227 H 0.7654 0.15866 0.91286 0.0
C228 C 0.74083 0.26049 0.85355 0.0
N229 N 0.73199 0.24038 0.87459 0.0
C230 C 0.72021 0.25663 0.83279 0.0
C231 C 0.6817 0.21202 0.85623 0.0
C232 C 0.70315 0.21638 0.87613 0.0
C233 C 0.69015 0.23194 0.83384 0.0
H234 H 0.76412 0.27905 0.85251 0.0
H235 H 0.69688 0.20024 0.8926 0.0
O236 O 0.8102 0.24816 0.95201 0.0
O237 O 0.79647 0.28317 0.90826 0.0
O238 O 0.77846 0.21695 0.8958 0.0
O239 O 0.74397 0.23054 0.93997 0.0
H240 H 0.79796 0.25312 1.00364 0.0
H241 H 0.82879 0.20776 0.94881 0.0
H242 H 0.80249 0.22368 0.04192 0.0
H243 H 0.83286 0.17916 0.98806 0.0
H244 H 0.76629 0.35332 0.89747 0.0
H245 H 0.85105 0.33173 0.90238 0.0
H246 H 0.75485 0.30014 0.90443 0.0
H247 H 0.86084 0.38439 0.89514 0.0
H248 H 0.91931 0.27629 0.91633 0.0
H249 H 0.89478 0.30398 0.84155 0.0
H250 H 0.7539 0.29943 0.03154 0.0
H251 H 0.83699 0.36675 0.99217 0.0
H252 H 0.77517 0.2304 0.8442 0.0
H253 H 0.81779 0.19705 0.89957 0.0
H254 H 0.80523 0.22592 0.80641 0.0
H255 H 0.84706 0.19312 0.86082 0.0
H256 H 0.6955 0.17665 0.94897 0.0
H257 H 0.72761 0.27271 0.94234 0.0
H258 H 0.64337 0.16779 0.95749 0.0
H259 H 0.67493 0.26218 0.95067 0.0
H260 H 0.72474 0.13174 1.0063 0.0
H261 H 0.7468 0.10646 0.92895 0.0
H262 H 0.72806 0.27233 0.81579 0.0
H263 H 0.65875 0.19299 0.85838 0.0
Li264 Li 0.56511 0.8092 0.08004 0.0
Li265 Li 0.52626 0.77776 0.11238 0.0
Li266 Li 0.56574 0.76571 0.10208 0.0
Li267 Li 0.52342 0.7548 0.06827 0.0
C268 C 0.59768 0.82568 0.12848 0.0
N269 N 0.65334 0.87195 0.14669 0.0
C270 C 0.59896 0.84681 0.14754 0.0
C271 C 0.62466 0.82798 0.11876 0.0
C272 C 0.62733 0.87008 0.15646 0.0
C273 C 0.65259 0.85155 0.12821 0.0
C274 C 0.50216 0.80415 0.07917 0.0
C275 C 0.45537 0.80413 0.07012 0.0
N276 N 0.46528 0.82939 0.08599 0.0
C277 C 0.51194 0.83014 0.09532 0.0
C278 C 0.47369 0.79102 0.0664 0.0
C279 C 0.49293 0.84253 0.09855 0.0
C280 C 0.6004 0.85077 0.03916 0.0
N281 N 0.58988 0.84886 0.06498 0.0
C282 C 0.61551 0.90323 0.06852 0.0
C283 C 0.5968 0.87433 0.07964 0.0
C284 C 0.62729 0.90588 0.04212 0.0
C285 C 0.61937 0.87916 0.02734 0.0
H286 H 0.5941 0.83018 0.02775 0.0
H287 H 0.58798 0.87228 0.10004 0.0
C288 C 0.5153 0.78296 0.16734 0.0
N289 N 0.50204 0.77799 0.14234 0.0
C290 C 0.49869 0.78071 0.19077 0.0
C291 C 0.45522 0.76912 0.16233 0.0
C292 C 0.47256 0.77116 0.13945 0.0
C293 C 0.46819 0.7735 0.18841 0.0
H294 H 0.53857 0.78777 0.16912 0.0
H295 H 0.46209 0.76622 0.11953 0.0
C296 C 0.58744 0.76963 0.04705 0.0
N297 N 0.62548 0.75694 0.01635 0.0
C298 C 0.57561 0.74206 0.03287 0.0
C299 C 0.61856 0.79088 0.04538 0.0
C300 C 0.59523 0.73604 0.01751 0.0
C301 C 0.63743 0.78399 0.02983 0.0
C302 C 0.49809 0.71925 0.12196 0.0
C303 C 0.50454 0.71289 0.14804 0.0
C304 C 0.46784 0.70865 0.11426 0.0
C305 C 0.48057 0.6962 0.16612 0.0
C306 C 0.44451 0.69196 0.13291 0.0
N307 N 0.45131 0.68618 0.15825 0.0
C308 C 0.59407 0.75369 0.14514 0.0
C309 C 0.60398 0.73807 0.10273 0.0
C310 C 0.61132 0.74326 0.15878 0.0
N311 N 0.59072 0.75097 0.11762 0.0
C312 C 0.62187 0.72779 0.11548 0.0
C313 C 0.62574 0.73022 0.14395 0.0
H314 H 0.58309 0.7638 0.15655 0.0
H315 H 0.60076 0.7356 0.08099 0.0
C316 C 0.49181 0.73881 0.01759 0.0
N317 N 0.49769 0.72794 0.04077 0.0
C318 C 0.47099 0.71863 0.99845 0.0
C319 C 0.46322 0.67665 0.02729 0.0
C320 C 0.48437 0.69754 0.04565 0.0
C321 C 0.456 0.68714 1.00352 0.0
H322 H 0.50278 0.76315 0.0143 0.0
H323 H 0.48973 0.68957 0.06414 0.0
O324 O 0.57006 0.80306 0.11931 0.0
O325 O 0.52028 0.79151 0.07588 0.0
O326 O 0.56853 0.77593 0.06208 0.0
O327 O 0.52128 0.73642 0.10428 0.0
H328 H 0.57823 0.84538 0.15517 0.0
H329 H 0.62406 0.81176 0.10412 0.0
H330 H 0.62868 0.88668 0.17111 0.0
H331 H 0.67367 0.85363 0.12084 0.0
H332 H 0.43324 0.7942 0.06042 0.0
H333 H 0.53374 0.84028 0.1056 0.0
H334 H 0.4658 0.77084 0.05389 0.0
H335 H 0.50011 0.86254 0.11113 0.0
H336 H 0.62118 0.92326 0.08064 0.0
H337 H 0.62758 0.8802 1.00676 0.0
H338 H 0.5095 0.7843 0.21054 0.0
H339 H 0.4316 0.76301 0.15973 0.0
H340 H 0.55158 0.72539 0.03388 0.0
H341 H 0.62806 0.81251 0.05589 0.0
H342 H 0.58642 0.71475 1.00654 0.0
H343 H 0.66157 0.80017 0.02844 0.0
H344 H 0.52781 0.72102 0.15435 0.0
H345 H 0.46247 0.71377 0.09429 0.0
H346 H 0.48524 0.69128 0.18644 0.0
H347 H 0.42102 0.68381 0.1273 0.0
H348 H 0.6129 0.74508 0.18077 0.0
H349 H 0.63274 0.71831 0.10302 0.0
H350 H 0.46589 0.72757 0.98039 0.0
H351 H 0.45243 0.65251 0.03173 0.0
Li352 Li 0.76733 0.56192 0.24573 0.0
Li353 Li 0.75537 0.51929 0.27727 0.0
Li354 Li 0.80977 0.56113 0.26882 0.0
Li355 Li 0.78204 0.52215 0.23397 0.0
C356 C 0.76945 0.58419 0.29776 0.0
N357 N 0.75692 0.62604 0.32183 0.0
C358 C 0.74424 0.57432 0.31492 0.0
C359 C 0.78848 0.61534 0.29309 0.0
C360 C 0.73825 0.59584 0.32684 0.0
C361 C 0.7817 0.63614 0.30536 0.0
C362 C 0.71302 0.49429 0.23153 0.0
C363 C 0.67929 0.44131 0.22069 0.0
N364 N 0.65632 0.44734 0.21619 0.0
C365 C 0.68917 0.50003 0.22651 0.0
C366 C 0.70814 0.46475 0.22836 0.0
C367 C 0.66064 0.47596 0.2189 0.0
C368 C 0.76307 0.60432 0.21013 0.0
N369 N 0.75125 0.58653 0.23262 0.0
C370 C 0.7161 0.60449 0.23901 0.0
C371 C 0.72772 0.58577 0.24665 0.0
C372 C 0.72819 0.62342 0.21622 0.0
C373 C 0.75161 0.62296 0.20137 0.0
H374 H 0.7815 0.6042 0.19913 0.0
H375 H 0.71807 0.5707 0.2639 0.0
C376 C 0.7371 0.48684 0.32723 0.0
N377 N 0.72691 0.49367 0.30412 0.0
C378 C 0.71666 0.46983 0.34795 0.0
C379 C 0.67566 0.46676 0.3204 0.0
C380 C 0.69687 0.4841 0.30047 0.0
C381 C 0.68542 0.45976 0.34479 0.0
H382 H 0.76122 0.49518 0.3298 0.0
H383 H 0.68935 0.49048 0.28237 0.0
C384 C 0.83367 0.58985 0.22097 0.0
N385 N 0.89067 0.63539 0.20488 0.0
C386 C 0.85334 0.58249 0.20731 0.0
C387 C 0.84279 0.62037 0.2261 0.0
C388 C 0.88213 0.60584 0.19944 0.0
C389 C 0.87176 0.64306 0.2179 0.0
C390 C 0.79515 0.49113 0.27642 0.0
C391 C 0.82365 0.49408 0.28158 0.0
C392 C 0.76912 0.46225 0.2766 0.0
C393 C 0.82569 0.46795 0.28624 0.0
C394 C 0.77208 0.43667 0.28139 0.0
N395 N 0.80008 0.44002 0.28602 0.0
C396 C 0.85105 0.60027 0.30881 0.0
C397 C 0.87319 0.58344 0.27548 0.0
C398 C 0.8787 0.6156 0.32285 0.0
N399 N 0.84877 0.58452 0.28565 0.0
C400 C 0.90138 0.59866 0.28875 0.0
C401 C 0.90425 0.61464 0.313 0.0
H402 H 0.83121 0.60029 0.31682 0.0
H403 H 0.87058 0.56999 0.25751 0.0
C404 C 0.7684 0.49029 0.18329 0.0
N405 N 0.78681 0.49913 0.20561 0.0
C406 C 0.77262 0.47405 0.1623 0.0
C407 C 0.81463 0.4764 0.18771 0.0
C408 C 0.80975 0.49275 0.20801 0.0
C409 C 0.79612 0.46699 0.16429 0.0
H410 H 0.75067 0.49618 0.18164 0.0
H411 H 0.82465 0.50079 0.22552 0.0
O412 O 0.77555 0.56341 0.28581 0.0
O413 O 0.74104 0.51762 0.23912 0.0
O414 O 0.80544 0.5673 0.22889 0.0
O415 O 0.79282 0.51652 0.2718 0.0
H416 H 0.72937 0.55029 0.31888 0.0
H417 H 0.80828 0.62336 0.28015 0.0
H418 H 0.71874 0.58852 0.34007 0.0
H419 H 0.79617 0.66031 0.30182 0.0
H420 H 0.67519 0.41834 0.21821 0.0
H421 H 0.69261 0.52278 0.22864 0.0
H422 H 0.72647 0.46001 0.23148 0.0
H423 H 0.64193 0.48004 0.21513 0.0
H424 H 0.69781 0.60416 0.25072 0.0
H425 H 0.76136 0.63735 0.18364 0.0
H426 H 0.72539 0.46542 0.3665 0.0
H427 H 0.65184 0.45916 0.31673 0.0
H428 H 0.84653 0.55899 0.20299 0.0
H429 H 0.82764 0.62648 0.2362 0.0
H430 H 0.89767 0.60047 0.18901 0.0
H431 H 0.87916 0.66678 0.22183 0.0
H432 H 0.84401 0.5163 0.28178 0.0
H433 H 0.74682 0.4596 0.2734 0.0
H434 H 0.84762 0.46988 0.29005 0.0
H435 H 0.75212 0.41417 0.28153 0.0
H436 H 0.87998 0.62779 0.34141 0.0
H437 H 0.92037 0.59693 0.28072 0.0
H438 H 0.7581 0.46773 0.14447 0.0
H439 H 0.83279 0.47124 0.1904 0.0
Li440 Li 0.21574 0.76359 0.41281 0.0
Li441 Li 0.24802 0.75401 0.44575 0.0
Li442 Li 0.26263 0.80549 0.43197 0.0
Li443 Li 0.26815 0.77235 0.40064 0.0
C444 C 0.22403 0.7934 0.47177 0.0
N445 N 0.22519 0.83202 0.51212 0.0
C446 C 0.2363 0.79366 0.49736 0.0
C447 C 0.21227 0.81269 0.46669 0.0
C448 C 0.23668 0.81337 0.51749 0.0
C449 C 0.21309 0.83207 0.48736 0.0
C450 C 0.21878 0.70356 0.4164 0.0
C451 C 0.22566 0.66155 0.42984 0.0
N452 N 0.19489 0.64321 0.4312 0.0
C453 C 0.18722 0.68426 0.4179 0.0
C454 C 0.23817 0.69209 0.42235 0.0
C455 C 0.1756 0.65382 0.42541 0.0
C456 C 0.16561 0.73365 0.37651 0.0
N457 N 0.17476 0.74785 0.40107 0.0
C458 C 0.12381 0.73513 0.41193 0.0
C459 C 0.15466 0.74904 0.41862 0.0
C460 C 0.11331 0.71924 0.38713 0.0
C461 C 0.13481 0.71904 0.36911 0.0
H462 H 0.18209 0.73273 0.36311 0.0
H463 H 0.16247 0.76016 0.43814 0.0
C464 C 0.27075 0.73048 0.48669 0.0
N465 N 0.24523 0.72817 0.4752 0.0
C466 C 0.26832 0.70952 0.50647 0.0
C467 C 0.21345 0.68486 0.50273 0.0
C468 C 0.21693 0.70657 0.48342 0.0
C469 C 0.23937 0.68594 0.51419 0.0
H470 H 0.29296 0.74819 0.48011 0.0
H471 H 0.19705 0.70565 0.47428 0.0
C472 C 0.25025 0.82417 0.38354 0.0
N473 N 0.25126 0.8758 0.36387 0.0
C474 C 0.27761 0.84902 0.3746 0.0
C475 C 0.2234 0.8256 0.38244 0.0
C476 C 0.27764 0.87491 0.36474 0.0
C477 C 0.22439 0.8519 0.37244 0.0
C478 C 0.31803 0.79584 0.42889 0.0
C479 C 0.33805 0.82593 0.42106 0.0
C480 C 0.32777 0.77444 0.4282 0.0
C481 C 0.36753 0.83411 0.41273 0.0
C482 C 0.3574 0.7835 0.41964 0.0
N483 N 0.37651 0.8129 0.41217 0.0
C484 C 0.30214 0.85025 0.46757 0.0
C485 C 0.27709 0.8691 0.43973 0.0
C486 C 0.31921 0.87859 0.48005 0.0
N487 N 0.28216 0.84614 0.44727 0.0
C488 C 0.29403 0.89808 0.45146 0.0
C489 C 0.31594 0.90329 0.47156 0.0
H490 H 0.30504 0.83143 0.47396 0.0
H491 H 0.26005 0.86518 0.42464 0.0
C492 C 0.28805 0.74141 0.36534 0.0
N493 N 0.29215 0.76932 0.37178 0.0
C494 C 0.30715 0.73859 0.34651 0.0
C495 C 0.33342 0.79315 0.34009 0.0
C496 C 0.31395 0.79492 0.35923 0.0
C497 C 0.33046 0.76474 0.33389 0.0
H498 H 0.27027 0.72133 0.37511 0.0
H499 H 0.3169 0.81686 0.3647 0.0
O500 O 0.22427 0.77491 0.45157 0.0
O501 O 0.23061 0.7336 0.40958 0.0
O502 O 0.24958 0.79833 0.39268 0.0
O503 O 0.28886 0.78722 0.4366 0.0
H504 H 0.24569 0.77902 0.50153 0.0
H505 H 0.20311 0.81308 0.44685 0.0
H506 H 0.24621 0.81392 0.53737 0.0
H507 H 0.20427 0.84729 0.48368 0.0
H508 H 0.24041 0.65248 0.43474 0.0
H509 H 0.17183 0.69269 0.41359 0.0
H510 H 0.26264 0.70677 0.42177 0.0
H511 H 0.15123 0.63868 0.42674 0.0
H512 H 0.1083 0.7365 0.42627 0.0
H513 H 0.12785 0.70681 0.34995 0.0
H514 H 0.28882 0.71106 0.5149 0.0
H515 H 0.19075 0.66723 0.50846 0.0
H516 H 0.29867 0.84857 0.37563 0.0
H517 H 0.20203 0.80671 0.38929 0.0
H518 H 0.29867 0.89435 0.35787 0.0
H519 H 0.20379 0.85332 0.37153 0.0
H520 H 0.33078 0.84269 0.42094 0.0
H521 H 0.31251 0.75098 0.43386 0.0
H522 H 0.38321 0.85728 0.40652 0.0
H523 H 0.36517 0.76713 0.41886 0.0
H524 H 0.33494 0.88108 0.49614 0.0
H525 H 0.29047 0.91629 0.44435 0.0
H526 H 0.3038 0.7162 0.34195 0.0
H527 H 0.35125 0.81389 0.33095 0.0
H528 H 0.36088 0.06945 0.52824 0.0
H529 H 0.45091 0.08244 0.54443 0.0
H530 H 0.43471 0.03133 0.52598 0.0
H531 H 0.31892 0.99012 0.5461 0.0
H532 H 0.29086 0.97993 0.51952 0.0
H533 H 0.30951 0.01787 0.53357 0.0
H534 H 0.32696 0.04039 0.4852 0.0
H535 H 0.30837 1.00249 0.471 0.0
H536 H 0.3483 0.02805 0.46466 0.0
H537 H 0.40953 0.97961 0.50549 0.0
H538 H 0.37623 0.92917 0.48532 0.0
H539 H 0.30146 0.94808 0.48355 0.0
C540 C 0.37719 0.06156 0.52774 0.0
C541 C 0.40711 0.07986 0.53796 0.0
C542 C 0.42774 0.06865 0.53714 0.0
C543 C 0.41883 0.03973 0.52651 0.0
C544 C 0.38919 0.02222 0.51677 0.0
C545 C 0.36861 0.03257 0.5173 0.0
C546 C 0.33797 1.00877 0.50588 0.0
C547 C 0.31283 0.99857 0.52757 0.0
C548 C 0.32993 0.02064 0.48016 0.0
C549 C 0.3446 0.98344 0.49902 0.0
C550 C 0.37436 0.99186 0.50532 0.0
C551 C 0.38608 0.97261 0.50067 0.0
C552 C 0.36683 0.94383 0.4894 0.0
C553 C 0.33599 0.93428 0.48312 0.0
C554 C 0.3249 0.9546 0.48792 0.0
H555 H 0.37035 0.29795 0.66798 0.0
H556 H 0.43017 0.36497 0.60876 0.0
H557 H 0.40979 0.39827 0.62132 0.0
H558 H 0.30632 0.30858 0.65894 0.0
H559 H 0.29653 0.30498 0.69459 0.0
H560 H 0.31554 0.28586 0.68099 0.0
H561 H 0.35856 0.31259 0.71681 0.0
H562 H 0.33961 0.33172 0.7306 0.0
H563 H 0.37862 0.35358 0.71939 0.0
H564 H 0.38244 0.42392 0.639 0.0
H565 H 0.35134 0.44173 0.6628 0.0
H566 H 0.31062 0.35979 0.71228 0.0
C567 C 0.37939 0.31973 0.65781 0.0
C568 C 0.40155 0.32846 0.63697 0.0
C569 C 0.41259 0.35721 0.62419 0.0
C570 C 0.40135 0.37649 0.63134 0.0
C571 C 0.37931 0.36702 0.65161 0.0
C572 C 0.36861 0.3395 0.6649 0.0
C573 C 0.34507 0.33514 0.68624 0.0
C574 C 0.31403 0.30697 0.67979 0.0
C575 C 0.35614 0.33315 0.71496 0.0
C576 C 0.34409 0.36438 0.6826 0.0
C577 C 0.36398 0.38233 0.66243 0.0
C578 C 0.36682 0.41013 0.65489 0.0
C579 C 0.34892 0.41995 0.66839 0.0
C580 C 0.3285 0.40211 0.68929 0.0
C581 C 0.32619 0.37399 0.69651 0.0
H582 H 0.94882 0.3437 0.84862 0.0
H583 H 0.94386 0.26181 0.88158 0.0
H584 H 0.99618 0.27927 0.86564 0.0
H585 H 0.99258 0.34851 0.78791 0.0
H586 H 1.01484 0.38952 0.78887 0.0
H587 H 0.9766 0.37025 0.80221 0.0
H588 H 0.9967 0.39763 0.84858 0.0
H589 H 0.03499 0.41693 0.83541 0.0
H590 H 0.02634 0.39449 0.86605 0.0
H591 H 0.04939 0.30609 0.84761 0.0
H592 H 0.10005 0.34039 0.82788 0.0
H593 H 0.07068 0.40477 0.80609 0.0
C594 C 0.95859 0.32924 0.85214 0.0
C595 C 0.94225 0.30142 0.86647 0.0
C596 C 0.95606 0.2834 0.87101 0.0
C597 C 0.9857 0.29303 0.86189 0.0
C598 C 1.00128 0.32069 0.84814 0.0
C599 C 0.98822 0.33852 0.84316 0.0
C600 C 1.01025 0.3676 0.82841 0.0
C601 C 0.99782 0.36904 0.80017 0.0
C602 C 0.01749 0.39583 0.84565 0.0
C603 C 0.03775 0.36338 0.82603 0.0
C604 C 0.03204 0.33614 0.83754 0.0
C605 C 0.05412 0.32745 0.83845 0.0
C606 C 0.08288 0.34715 0.82734 0.0
C607 C 0.08933 0.37524 0.81546 0.0
C608 C 0.06631 0.38328 0.81471 0.0
H609 H 0.62127 0.95693 0.04284 0.0
H610 H 0.6802 0.92337 0.01428 0.0
H611 H 0.71465 0.97355 0.99372 0.0
H612 H 0.6288 1.00172 0.98393 0.0
H613 H 0.62856 0.03214 1.00281 0.0
H614 H 0.609 0.99389 0.01604 0.0
H615 H 0.64011 0.01286 0.06084 0.0
H616 H 0.65981 0.05119 0.04772 0.0
H617 H 0.68117 0.03364 0.05937 0.0
H618 H 0.74242 0.02695 0.97603 0.0
H619 H 0.76113 0.07985 0.96115 0.0
H620 H 0.68372 0.07871 1.00034 0.0
C621 C 0.64159 0.96027 0.0325 0.0
C622 C 0.64808 0.93625 0.03015 0.0
C623 C 0.67464 0.94135 0.01608 0.0
C624 C 0.69443 0.96981 1.00449 0.0
C625 C 0.68731 0.99294 1.00707 0.0
C626 C 0.66152 0.98851 0.02065 0.0
C627 C 0.65875 0.01695 0.01978 0.0
C628 C 0.62954 0.0108 1.00474 0.0
C629 C 0.66004 0.02939 0.04865 0.0
C630 C 0.687 0.03803 1.00356 0.0
C631 C 0.70319 0.02373 0.99655 0.0
C632 C 0.72991 0.03838 0.98133 0.0
C633 C 0.74024 0.06838 0.97283 0.0
C634 C 0.72384 0.08344 0.97942 0.0
C635 C 0.69698 0.068 0.99521 0.0
H636 H 0.69464 0.62026 0.17134 0.0
H637 H 0.73569 0.67254 0.24472 0.0
H638 H 0.71553 0.70683 0.23339 0.0
H639 H 0.7058 0.6832 0.12788 0.0
H640 H 0.66937 0.66166 0.1112 0.0
H641 H 0.6886 0.64247 0.12419 0.0
H642 H 0.64099 0.60688 0.15292 0.0
H643 H 0.62163 0.62593 0.14 0.0
H644 H 0.62564 0.62328 0.17625 0.0
H645 H 0.69117 0.7353 0.21397 0.0
H646 H 0.66179 0.75452 0.1895 0.0
H647 H 0.63274 0.68095 0.13058 0.0
C648 C 0.69959 0.63919 0.18475 0.0
C649 C 0.71693 0.64422 0.20868 0.0
C650 C 0.72258 0.66867 0.2262 0.0
C651 C 0.71127 0.68819 0.21991 0.0
C652 C 0.69408 0.68262 0.1962 0.0
C653 C 0.68801 0.65859 0.17899 0.0
C654 C 0.66756 0.65671 0.15561 0.0
C655 C 0.68381 0.66129 0.12809 0.0
C656 C 0.63715 0.6264 0.15625 0.0
C657 C 0.66311 0.68344 0.16235 0.0
C658 C 0.67885 0.69823 0.18568 0.0
C659 C 0.67851 0.72374 0.19581 0.0
C660 C 0.66146 0.73432 0.18184 0.0
C661 C 0.64452 0.71919 0.15814 0.0
C662 C 0.64559 0.69341 0.14836 0.0
H663 H 0.08475 0.71119 0.33715 0.0
H664 H 0.06627 0.68723 0.42283 0.0
H665 H 1.0113 0.65904 0.41311 0.0
H666 H 0.02031 0.7205 0.3238 0.0
H667 H 1.01303 0.70339 0.2904 0.0
H668 H 0.05119 0.72245 0.30398 0.0
H669 H 0.05457 0.67355 0.29674 0.0
H670 H 0.01643 0.65436 0.28308 0.0
H671 H 0.02593 0.63814 0.31152 0.0
H672 H 0.95841 0.63375 0.39459 0.0
H673 H 0.91076 0.61122 0.36789 0.0
H674 H 0.96296 0.64949 0.29385 0.0
C675 C 0.06922 0.69986 0.35387 0.0
C676 C 0.08005 0.70192 0.38087 0.0
C677 C 0.05872 0.68681 0.4021 0.0
C678 C 0.02737 0.67046 0.39677 0.0
C679 C 0.01754 0.66908 0.37004 0.0
C680 C 0.03777 0.68316 0.34888 0.0
C681 C 0.02107 0.67762 0.32194 0.0
C682 C 0.02674 0.70779 0.30929 0.0
C683 C 0.03004 0.65986 0.30215 0.0
C684 C 0.98833 0.65835 0.33134 0.0
C685 C 0.98688 0.65384 0.3592 0.0
C686 C 0.95923 0.63712 0.37276 0.0
C687 C 0.93228 0.62458 0.35744 0.0
C688 C 0.93313 0.62871 0.32883 0.0
C689 C 0.96161 0.64579 0.31567 0.0
H690 H 0.61137 0.34329 0.46962 0.0
H691 H 0.53904 0.3658 0.46915 0.0
H692 H 0.5645 0.40177 0.43159 0.0
H693 H 0.6732 0.4177 0.45391 0.0
H694 H 0.69229 0.40424 0.43167 0.0
H695 H 0.66893 0.38053 0.45916 0.0
H696 H 0.63695 0.3371 0.42493 0.0
H697 H 0.66034 0.36059 0.39736 0.0
H698 H 0.61959 0.34464 0.39612 0.0
H699 H 0.598 0.43619 0.39513 0.0
H700 H 0.63595 0.46479 0.35973 0.0
H701 H 0.68468 0.41722 0.38072 0.0
C702 C 0.60069 0.35554 0.4615 0.0
C703 C 0.57335 0.35193 0.47279 0.0
C704 C 0.56036 0.36866 0.46152 0.0
C705 C 0.57453 0.38903 0.43998 0.0
C706 C 0.60153 0.39224 0.42961 0.0
C707 C 0.61436 0.37578 0.43973 0.0
C708 C 0.64321 0.38314 0.42434 0.0
C709 C 0.67105 0.39724 0.44341 0.0
C710 C 0.6398 0.35467 0.40982 0.0
C711 C 0.64454 0.40636 0.40406 0.0
C712 C 0.62035 0.41136 0.40765 0.0
C713 C 0.61684 0.43219 0.39185 0.0
C714 C 0.63846 0.44816 0.37159 0.0
C715 C 0.66318 0.44301 0.36697 0.0
C716 C 0.66622 0.42188 0.38368 0.0
H717 H 0.26666 0.69277 0.56413 0.0
H718 H 0.20485 0.62461 0.50675 0.0
H719 H 0.19959 0.58377 0.5377 0.0
H720 H 0.30485 0.65267 0.58649 0.0
H721 H 0.30762 0.66447 0.62155 0.0
H722 H 0.30694 0.68836 0.59469 0.0
H723 H 0.26064 0.6881 0.61743 0.0
H724 H 0.26118 0.66422 0.64435 0.0
H725 H 0.2269 0.65223 0.62476 0.0
H726 H 0.20212 0.55049 0.57414 0.0
H727 H 0.20975 0.52673 0.61517 0.0
H728 H 0.26815 0.61631 0.64992 0.0
C729 C 0.25213 0.66922 0.55812 0.0
C730 C 0.23614 0.66173 0.53311 0.0
C731 C 0.21707 0.63073 0.52596 0.0
C732 C 0.21407 0.60743 0.54332 0.0
C733 C 0.23009 0.61554 0.56786 0.0
C734 C 0.24854 0.64565 0.5754 0.0
C735 C 0.26261 0.6481 0.60323 0.0
C736 C 0.29758 0.66436 0.60136 0.0
C737 C 0.2522 0.6641 0.62364 0.0
C738 C 0.24925 0.61466 0.61011 0.0
C739 C 0.23078 0.59629 0.5893 0.0
C740 C 0.21643 0.56462 0.59062 0.0
C741 C 0.22098 0.55135 0.6139 0.0
C742 C 0.23945 0.56971 0.63563 0.0
C743 C 0.25369 0.60177 0.63368 0.0
H744 H 0.68445 0.27407 0.802 0.0
H745 H 0.64576 0.17659 0.81414 0.0
H746 H 0.60781 0.16654 0.77853 0.0
H747 H 0.61506 0.27374 0.78775 0.0
H748 H 0.63106 0.30206 0.76124 0.0
H749 H 0.65497 0.30213 0.78848 0.0
H750 H 0.69157 0.29923 0.75329 0.0
H751 H 0.66789 0.29939 0.72594 0.0
H752 H 0.67662 0.26905 0.72831 0.0
H753 H 0.57311 0.1666 0.74281 0.0
H754 H 0.546 0.17664 0.70637 0.0
H755 H 0.60976 0.27382 0.71372 0.0
C756 C 0.66823 0.25058 0.79707 0.0
C757 C 0.66793 0.22618 0.81145 0.0
C758 C 0.64605 0.19581 0.80423 0.0
C759 C 0.62447 0.18978 0.78379 0.0
C760 C 0.62523 0.2143 0.77034 0.0
C761 C 0.64672 0.24408 0.77637 0.0
C762 C 0.64297 0.26614 0.75808 0.0
C763 C 0.63557 0.28726 0.7749 0.0
C764 C 0.67145 0.28453 0.74035 0.0
C765 C 0.61586 0.24402 0.74102 0.0
C766 C 0.60593 0.21428 0.74862 0.0
C767 C 0.58092 0.18977 0.73636 0.0
C768 C 0.56581 0.19576 0.71548 0.0
C769 C 0.57594 0.22602 0.70668 0.0
C770 C 0.60126 0.25044 0.71991 0.0
H771 H 0.38139 0.60628 0.86145 0.0
H772 H 0.30059 0.54425 0.90739 0.0
H773 H 0.32548 0.57148 0.94974 0.0
H774 H 0.43619 0.61412 0.9112 0.0
H775 H 0.4616 0.65412 0.90502 0.0
H776 H 0.43745 0.63001 0.87803 0.0
H777 H 0.41493 0.66563 0.87161 0.0
H778 H 0.43908 0.68991 0.89855 0.0
H779 H 0.3984 0.67421 0.9004 0.0
H780 H 0.35927 0.60399 0.98722 0.0
H781 H 0.39961 0.64124 0.01758 0.0
H782 H 0.45802 0.68371 0.94761 0.0
C783 C 0.36879 0.59862 0.88036 0.0
C784 C 0.3391 0.57286 0.88106 0.0
C785 C 0.32357 0.56346 0.90634 0.0
C786 C 0.33742 0.57893 0.93051 0.0
C787 C 0.36674 0.60396 0.92912 0.0
C788 C 0.38222 0.61393 0.90473 0.0
C789 C 0.41362 0.64144 0.90904 0.0
C790 C 0.43869 0.63449 0.9003 0.0
C791 C 0.41667 0.66946 0.89401 0.0
C792 C 0.41339 0.64519 0.93968 0.0
C793 C 0.38612 0.62324 0.95082 0.0
C794 C 0.38068 0.62138 0.97876 0.0
C795 C 0.40376 0.64251 0.99583 0.0
C796 C 0.43188 0.66528 0.98492 0.0
C797 C 0.43662 0.66671 0.95644 0.0
H798 H 0.75419 0.34485 0.04421 0.0
H799 H 0.85124 0.37728 0.03765 0.0
H800 H 0.86143 0.41471 0.0739 0.0
H801 H 0.75953 0.4167 0.05812 0.0
H802 H 0.72912 0.40174 0.08279 0.0
H803 H 0.72909 0.37769 0.05571 0.0
H804 H 0.72589 0.33828 0.09113 0.0
H805 H 0.72571 0.36211 0.11832 0.0
H806 H 0.75397 0.35041 0.11792 0.0
H807 H 0.86159 0.4493 0.11 0.0
H808 H 0.85148 0.47717 0.14575 0.0
H809 H 0.75412 0.42006 0.13179 0.0
C810 C 0.77758 0.3596 0.05051 0.0
C811 C 0.80191 0.35828 0.03762 0.0
C812 C 0.83219 0.37827 0.04653 0.0
C813 C 0.83825 0.39951 0.06731 0.0
C814 C 0.81382 0.40036 0.07932 0.0
C815 C 0.78406 0.38078 0.0715 0.0
C816 C 0.762 0.38608 0.0883 0.0
C817 C 0.74387 0.39615 0.07014 0.0
C818 C 0.74063 0.35752 0.10491 0.0
C819 C 0.78409 0.41181 0.10664 0.0
C820 C 0.81385 0.41973 0.10098 0.0
C821 C 0.83836 0.4431 0.11486 0.0
C822 C 0.83233 0.45866 0.13531 0.0
C823 C 0.80197 0.45065 0.14195 0.0
C824 C 0.77759 0.42695 0.12719 0.0
H825 H 0.35058 0.79217 0.28397 0.0
H826 H 0.3595 0.73221 0.34169 0.0
H827 H 0.39606 0.72839 0.31094 0.0
H828 H 0.35355 0.75366 0.22347 0.0
H829 H 0.37514 0.78818 0.20409 0.0
H830 H 0.35008 0.78667 0.23084 0.0
H831 H 0.39503 0.83368 0.25398 0.0
H832 H 0.42023 0.83533 0.2273 0.0
H833 H 0.42924 0.83281 0.26241 0.0
H834 H 0.43216 0.73172 0.27446 0.0
H835 H 0.46373 0.74005 0.23348 0.0
H836 H 0.43061 0.7969 0.19887 0.0
C837 C 0.36037 0.77837 0.29016 0.0
C838 C 0.3522 0.76243 0.31517 0.0
C839 C 0.36521 0.74433 0.32247 0.0
C840 C 0.38611 0.74217 0.30523 0.0
C841 C 0.39364 0.75811 0.2807 0.0
C842 C 0.38107 0.77574 0.27307 0.0
C843 C 0.3926 0.79006 0.24533 0.0
C844 C 0.36627 0.77897 0.22472 0.0
C845 C 0.41033 0.82505 0.24739 0.0
C846 C 0.41359 0.77771 0.23858 0.0
C847 C 0.41402 0.75953 0.25937 0.0
C848 C 0.432 0.74589 0.25804 0.0
C849 C 0.44995 0.75087 0.23478 0.0
C850 C 0.4496 0.76913 0.21309 0.0
C851 C 0.43112 0.78265 0.21508 0.0
loop_
_geom_bond_atom_site_label_1
_geom_bond_atom_site_label_2
_geom_bond_distance
_geom_bond_site_symmetry_2
_ccdc_geom_bond_type
Li0 N17 1.990 . S
Li0 O60 1.956 . S
Li0 O61 1.970 . S
Li0 O62 1.961 . S
Li1 N25 1.990 . S
Li1 O60 1.970 . S
Li1 O61 1.956 . S
Li1 O63 1.961 . S
Li2 N47 1.990 . S
Li2 O60 1.961 . S
Li2 O62 1.956 . S
Li2 O63 1.970 . S
Li3 N53 1.990 . S
Li3 O61 1.961 . S
Li3 O62 1.970 . S
Li3 O63 1.956 . S
C4 C6 1.348 . S
C4 C7 1.356 . S
C4 O60 1.325 . S
N5 C8 1.314 . S
N5 C9 1.279 . S
C6 C4 1.348 . S
C6 C8 1.353 . S
C6 H64 0.929 . S
C7 C4 1.356 . S
C7 C9 1.358 . S
C7 H65 0.930 . S
C8 N5 1.314 . S
C8 C6 1.353 . S
C8 H66 0.930 . S
C9 N5 1.279 . S
C9 C7 1.358 . S
C9 H67 0.930 . S
C10 C13 1.348 . S
C10 C14 1.356 . S
C10 O61 1.325 . S
C11 N12 1.279 . S
C11 C14 1.358 . S
C11 H68 0.930 . S
N12 C11 1.279 . S
N12 C15 1.314 . S
C13 C10 1.348 . S
C13 C15 1.353 . S
C13 H69 0.929 . S
C14 C10 1.356 . S
C14 C11 1.358 . S
C14 H70 0.930 . S
C15 N12 1.314 . S
C15 C13 1.353 . S
C15 H71 0.930 . S
C16 N17 1.314 . S
C16 C21 1.353 . S
C16 H22 0.930 . S
N17 Li0 1.990 . S
N17 C16 1.314 . S
N17 C19 1.279 . S
C18 C19 1.358 . S
C18 C20 1.356 . S
C18 H72 0.930 . S
C19 N17 1.279 . S
C19 C18 1.358 . S
C19 H23 0.930 . S
C20 C18 1.356 . S
C20 C21 1.348 . S
C21 C16 1.353 . S
C21 C20 1.348 . S
C21 H73 0.929 . S
H22 C16 0.930 . S
H23 C19 0.930 . S
C24 N25 1.314 . S
C24 C26 1.353 . S
C24 H30 0.930 . S
N25 Li1 1.990 . S
N25 C24 1.314 . S
N25 C28 1.279 . S
C26 C24 1.353 . S
C26 C29 1.348 . S
C26 H74 0.929 . S
C27 C28 1.358 . S
C27 C29 1.356 . S
C27 H75 0.930 . S
C28 N25 1.279 . S
C28 C27 1.358 . S
C28 H31 0.930 . S
C29 C26 1.348 . S
C29 C27 1.356 . S
H30 C24 0.930 . S
H31 C28 0.930 . S
C32 C34 1.348 . S
C32 C35 1.356 . S
C32 O62 1.325 . S
N33 C36 1.314 . S
N33 C37 1.279 . S
C34 C32 1.348 . S
C34 C36 1.353 . S
C34 H76 0.929 . S
C35 C32 1.356 . S
C35 C37 1.358 . S
C35 H77 0.930 . S
C36 N33 1.314 . S
C36 C34 1.353 . S
C36 H78 0.930 . S
C37 N33 1.279 . S
C37 C35 1.358 . S
C37 H79 0.930 . S
C38 C39 1.348 . S
C38 C40 1.356 . S
C38 O63 1.325 . S
C39 C38 1.348 . S
C39 C41 1.353 . S
C39 H80 0.929 . S
C40 C38 1.356 . S
C40 C42 1.358 . S
C40 H81 0.930 . S
C41 C39 1.353 . S
C41 N43 1.314 . S
C41 H82 0.930 . S
C42 C40 1.358 . S
C42 N43 1.279 . S
C42 H83 0.930 . S
N43 C41 1.314 . S
N43 C42 1.279 . S
C44 C46 1.353 . S
C44 N47 1.314 . S
C44 H50 0.930 . S
C45 N47 1.279 . S
C45 C48 1.358 . S
C45 H51 0.930 . S
C46 C44 1.353 . S
C46 C49 1.348 . S
C46 H84 0.929 . S
N47 Li2 1.990 . S
N47 C44 1.314 . S
N47 C45 1.279 . S
C48 C45 1.358 . S
C48 C49 1.356 . S
C48 H85 0.930 . S
C49 C46 1.348 . S
C49 C48 1.356 . S
H50 C44 0.930 . S
H51 C45 0.930 . S
C52 N53 1.314 . S
C52 C54 1.353 . S
C52 H58 0.930 . S
N53 Li3 1.990 . S
N53 C52 1.314 . S
N53 C56 1.279 . S
C54 C52 1.353 . S
C54 C57 1.348 . S
C54 H86 0.929 . S
C55 C56 1.358 . S
C55 C57 1.356 . S
C55 H87 0.930 . S
C56 N53 1.279 . S
C56 C55 1.358 . S
C56 H59 0.930 . S
C57 C54 1.348 . S
C57 C55 1.356 . S
H58 C52 0.930 . S
H59 C56 0.930 . S
O60 Li0 1.956 . S
O60 Li1 1.970 . S
O60 Li2 1.961 . S
O60 C4 1.325 . S
O61 Li0 1.970 . S
O61 Li1 1.956 . S
O61 Li3 1.961 . S
O61 C10 1.325 . S
O62 Li0 1.961 . S
O62 Li2 1.956 . S
O62 Li3 1.970 . S
O62 C32 1.325 . S
O63 Li1 1.961 . S
O63 Li2 1.970 . S
O63 Li3 1.956 . S
O63 C38 1.325 . S
H64 C6 0.929 . S
H65 C7 0.930 . S
H66 C8 0.930 . S
H67 C9 0.930 . S
H68 C11 0.930 . S
H69 C13 0.929 . S
H70 C14 0.930 . S
H71 C15 0.930 . S
H72 C18 0.930 . S
H73 C21 0.929 . S
H74 C26 0.929 . S
H75 C27 0.930 . S
H76 C34 0.929 . S
H77 C35 0.930 . S
H78 C36 0.930 . S
H79 C37 0.930 . S
H80 C39 0.929 . S
H81 C40 0.930 . S
H82 C41 0.930 . S
H83 C42 0.930 . S
H84 C46 0.929 . S
H85 C48 0.930 . S
H86 C54 0.929 . S
H87 C55 0.930 . S
Li88 N105 1.990 . S
Li88 O148 1.956 . S
Li88 O149 1.970 . S
Li88 O150 1.961 . S
Li89 N113 1.990 . S
Li89 O148 1.970 . S
Li89 O149 1.956 . S
Li89 O151 1.961 . S
Li90 N135 1.990 . S
Li90 O148 1.961 . S
Li90 O150 1.956 . S
Li90 O151 1.970 . S
Li91 N141 1.990 . S
Li91 O149 1.961 . S
Li91 O150 1.970 . S
Li91 O151 1.956 . S
C92 C94 1.348 . S
C92 C95 1.356 . S
C92 O148 1.325 . S
N93 C96 1.314 . S
N93 C97 1.279 . S
C94 C92 1.348 . S
C94 C96 1.353 . S
C94 H152 0.929 . S
C95 C92 1.356 . S
C95 C97 1.358 . S
C95 H153 0.930 . S
C96 N93 1.314 . S
C96 C94 1.353 . S
C96 H154 0.930 . S
C97 N93 1.279 . S
C97 C95 1.358 . S
C97 H155 0.930 . S
C98 C101 1.348 . S
C98 C102 1.356 . S
C98 O149 1.325 . S
C99 N100 1.279 . S
C99 C102 1.358 . S
C99 H156 0.930 . S
N100 C99 1.279 . S
N100 C103 1.314 . S
C101 C98 1.348 . S
C101 C103 1.353 . S
C101 H157 0.929 . S
C102 C98 1.356 . S
C102 C99 1.358 . S
C102 H158 0.930 . S
C103 N100 1.314 . S
C103 C101 1.353 . S
C103 H159 0.930 . S
C104 N105 1.314 . S
C104 C109 1.353 . S
C104 H110 0.930 . S
N105 Li88 1.990 . S
N105 C104 1.314 . S
N105 C107 1.279 . S
C106 C107 1.358 . S
C106 C108 1.356 . S
C106 H160 0.930 . S
C107 N105 1.279 . S
C107 C106 1.358 . S
C107 H111 0.930 . S
C108 C106 1.356 . S
C108 C109 1.348 . S
C109 C104 1.353 . S
C109 C108 1.348 . S
C109 H161 0.929 . S
H110 C104 0.930 . S
H111 C107 0.930 . S
C112 N113 1.314 . S
C112 C114 1.353 . S
C112 H118 0.930 . S
N113 Li89 1.990 . S
N113 C112 1.314 . S
N113 C116 1.279 . S
C114 C112 1.353 . S
C114 C117 1.348 . S
C114 H162 0.929 . S
C115 C116 1.358 . S
C115 C117 1.356 . S
C115 H163 0.930 . S
C116 N113 1.279 . S
C116 C115 1.358 . S
C116 H119 0.930 . S
C117 C114 1.348 . S
C117 C115 1.356 . S
H118 C112 0.930 . S
H119 C116 0.930 . S
C120 C122 1.348 . S
C120 C123 1.356 . S
C120 O150 1.325 . S
N121 C124 1.314 . S
N121 C125 1.279 . S
C122 C120 1.348 . S
C122 C124 1.353 . S
C122 H164 0.929 . S
C123 C120 1.356 . S
C123 C125 1.358 . S
C123 H165 0.930 . S
C124 N121 1.314 . S
C124 C122 1.353 . S
C124 H166 0.930 . S
C125 N121 1.279 . S
C125 C123 1.358 . S
C125 H167 0.930 . S
C126 C127 1.348 . S
C126 C128 1.356 . S
C126 O151 1.325 . S
C127 C126 1.348 . S
C127 C129 1.353 . S
C127 H168 0.929 . S
C128 C126 1.356 . S
C128 C130 1.358 . S
C128 H169 0.930 . S
C129 C127 1.353 . S
C129 N131 1.314 . S
C129 H170 0.930 . S
C130 C128 1.358 . S
C130 N131 1.279 . S
C130 H171 0.930 . S
N131 C129 1.314 . S
N131 C130 1.279 . S
C132 C134 1.353 . S
C132 N135 1.314 . S
C132 H138 0.930 . S
C133 N135 1.279 . S
C133 C136 1.358 . S
C133 H139 0.930 . S
C134 C132 1.353 . S
C134 C137 1.348 . S
C134 H172 0.929 . S
N135 Li90 1.990 . S
N135 C132 1.314 . S
N135 C133 1.279 . S
C136 C133 1.358 . S
C136 C137 1.356 . S
C136 H173 0.930 . S
C137 C134 1.348 . S
C137 C136 1.356 . S
H138 C132 0.930 . S
H139 C133 0.930 . S
C140 N141 1.314 . S
C140 C142 1.353 . S
C140 H146 0.930 . S
N141 Li91 1.990 . S
N141 C140 1.314 . S
N141 C144 1.279 . S
C142 C140 1.353 . S
C142 C145 1.348 . S
C142 H174 0.929 . S
C143 C144 1.358 . S
C143 C145 1.356 . S
C143 H175 0.930 . S
C144 N141 1.279 . S
C144 C143 1.358 . S
C144 H147 0.930 . S
C145 C142 1.348 . S
C145 C143 1.356 . S
H146 C140 0.930 . S
H147 C144 0.930 . S
O148 Li88 1.956 . S
O148 Li89 1.970 . S
O148 Li90 1.961 . S
O148 C92 1.325 . S
O149 Li88 1.970 . S
O149 Li89 1.956 . S
O149 Li91 1.961 . S
O149 C98 1.325 . S
O150 Li88 1.961 . S
O150 Li90 1.956 . S
O150 Li91 1.970 . S
O150 C120 1.325 . S
O151 Li89 1.961 . S
O151 Li90 1.970 . S
O151 Li91 1.956 . S
O151 C126 1.325 . S
H152 C94 0.929 . S
H153 C95 0.930 . S
H154 C96 0.930 . S
H155 C97 0.930 . S
H156 C99 0.930 . S
H157 C101 0.929 . S
H158 C102 0.930 . S
H159 C103 0.930 . S
H160 C106 0.930 . S
H161 C109 0.929 . S
H162 C114 0.929 . S
H163 C115 0.930 . S
H164 C122 0.929 . S
H165 C123 0.930 . S
H166 C124 0.930 . S
H167 C125 0.930 . S
H168 C127 0.929 . S
H169 C128 0.930 . S
H170 C129 0.930 . S
H171 C130 0.930 . S
H172 C134 0.929 . S
H173 C136 0.930 . S
H174 C142 0.929 . S
H175 C143 0.930 . S
Li176 N193 1.990 . S
Li176 O236 1.956 . S
Li176 O237 1.970 . S
Li176 O238 1.961 . S
Li177 N201 1.990 . S
Li177 O236 1.970 . S
Li177 O237 1.956 . S
Li177 O239 1.961 . S
Li178 N223 1.990 . S
Li178 O236 1.961 . S
Li178 O238 1.956 . S
Li178 O239 1.970 . S
Li179 N229 1.990 . S
Li179 O237 1.961 . S
Li179 O238 1.970 . S
Li179 O239 1.956 . S
C180 C182 1.348 . S
C180 C183 1.356 . S
C180 O236 1.325 . S
N181 C184 1.314 . S
N181 C185 1.279 1_554 S
C182 C180 1.348 . S
C182 C184 1.356 1_556 S
C182 H240 0.929 . S
C183 C180 1.356 . S
C183 C185 1.358 . S
C183 H241 0.930 . S
C184 N181 1.314 . S
C184 C182 1.356 1_554 S
C184 H242 0.927 . S
C185 N181 1.279 1_556 S
C185 C183 1.358 . S
C185 H243 0.930 . S
C186 C189 1.348 . S
C186 C190 1.356 . S
C186 O237 1.325 . S
C187 N188 1.279 . S
C187 C190 1.358 . S
C187 H244 0.930 . S
N188 C187 1.279 . S
N188 C191 1.314 . S
C189 C186 1.348 . S
C189 C191 1.353 . S
C189 H245 0.929 . S
C190 C186 1.356 . S
C190 C187 1.358 . S
C190 H246 0.930 . S
C191 N188 1.314 . S
C191 C189 1.353 . S
C191 H247 0.930 . S
C192 N193 1.314 . S
C192 C197 1.353 . S
C192 H198 0.930 . S
N193 Li176 1.990 . S
N193 C192 1.314 . S
N193 C195 1.279 . S
C194 C195 1.358 . S
C194 C196 1.356 . S
C194 H248 0.930 . S
C195 N193 1.279 . S
C195 C194 1.358 . S
C195 H199 0.930 . S
C196 C194 1.356 . S
C196 C197 1.348 . S
C197 C192 1.353 . S
C197 C196 1.348 . S
C197 H249 0.929 . S
H198 C192 0.930 . S
H199 C195 0.930 . S
C200 N201 1.314 . S
C200 C202 1.353 1_556 S
C200 H206 0.930 . S
N201 Li177 1.990 . S
N201 C200 1.314 . S
N201 C204 1.279 . S
C202 C200 1.353 1_554 S
C202 C205 1.348 . S
C202 H250 0.929 . S
C203 C204 1.358 . S
C203 C205 1.356 1_556 S
C203 H251 0.930 . S
C204 N201 1.279 . S
C204 C203 1.358 . S
C204 H207 0.930 . S
C205 C202 1.348 . S
C205 C203 1.356 1_554 S
H206 C200 0.930 . S
H207 C204 0.930 . S
C208 C210 1.348 . S
C208 C211 1.356 . S
C208 O238 1.325 . S
N209 C212 1.314 . S
N209 C213 1.279 . S
C210 C208 1.348 . S
C210 C212 1.353 . S
C210 H252 0.929 . S
C211 C208 1.356 . S
C211 C213 1.358 . S
C211 H253 0.930 . S
C212 N209 1.314 . S
C212 C210 1.353 . S
C212 H254 0.930 . S
C213 N209 1.279 . S
C213 C211 1.358 . S
C213 H255 0.930 . S
C214 C215 1.348 . S
C214 C216 1.356 . S
C214 O239 1.325 . S
C215 C214 1.348 . S
C215 C217 1.353 . S
C215 H256 0.929 . S
C216 C214 1.356 . S
C216 C218 1.358 . S
C216 H257 0.930 . S
C217 C215 1.353 . S
C217 N219 1.314 . S
C217 H258 0.930 . S
C218 C216 1.358 . S
C218 N219 1.279 . S
C218 H259 0.930 . S
N219 C217 1.314 . S
N219 C218 1.279 . S
C220 C222 1.353 . S
C220 N223 1.314 . S
C220 H226 0.930 . S
C221 N223 1.279 . S
C221 C224 1.358 . S
C221 H227 0.930 . S
C222 C220 1.353 . S
C222 C225 1.348 . S
C222 H260 0.929 . S
N223 Li178 1.990 . S
N223 C220 1.314 . S
N223 C221 1.279 . S
C224 C221 1.358 . S
C224 C225 1.356 . S
C224 H261 0.930 . S
C225 C222 1.348 . S
C225 C224 1.356 . S
H226 C220 0.930 . S
H227 C221 0.930 . S
C228 N229 1.314 . S
C228 C230 1.353 . S
C228 H234 0.930 . S
N229 Li179 1.990 . S
N229 C228 1.314 . S
N229 C232 1.279 . S
C230 C228 1.353 . S
C230 C233 1.348 . S
C230 H262 0.929 . S
C231 C232 1.358 . S
C231 C233 1.356 . S
C231 H263 0.930 . S
C232 N229 1.279 . S
C232 C231 1.358 . S
C232 H235 0.930 . S
C233 C230 1.348 . S
C233 C231 1.356 . S
H234 C228 0.930 . S
H235 C232 0.930 . S
O236 Li176 1.956 . S
O236 Li177 1.970 . S
O236 Li178 1.961 . S
O236 C180 1.325 . S
O237 Li176 1.970 . S
O237 Li177 1.956 . S
O237 Li179 1.961 . S
O237 C186 1.325 . S
O238 Li176 1.961 . S
O238 Li178 1.956 . S
O238 Li179 1.970 . S
O238 C208 1.325 . S
O239 Li177 1.961 . S
O239 Li178 1.970 . S
O239 Li179 1.956 . S
O239 C214 1.325 . S
H240 C182 0.929 . S
H241 C183 0.930 . S
H242 C184 0.927 . S
H243 C185 0.930 . S
H244 C187 0.930 . S
H245 C189 0.929 . S
H246 C190 0.930 . S
H247 C191 0.930 . S
H248 C194 0.930 . S
H249 C197 0.929 . S
H250 C202 0.929 . S
H251 C203 0.930 . S
H252 C210 0.929 . S
H253 C211 0.930 . S
H254 C212 0.930 . S
H255 C213 0.930 . S
H256 C215 0.929 . S
H257 C216 0.930 . S
H258 C217 0.930 . S
H259 C218 0.930 . S
H260 C222 0.929 . S
H261 C224 0.930 . S
H262 C230 0.929 . S
H263 C231 0.930 . S
Li264 N281 1.990 . S
Li264 O324 1.956 . S
Li264 O325 1.970 . S
Li264 O326 1.961 . S
Li265 N289 1.990 . S
Li265 O324 1.970 . S
Li265 O325 1.956 . S
Li265 O327 1.961 . S
Li266 N311 1.990 . S
Li266 O324 1.961 . S
Li266 O326 1.956 . S
Li266 O327 1.970 . S
Li267 N317 1.990 . S
Li267 O325 1.961 . S
Li267 O326 1.970 . S
Li267 O327 1.956 . S
C268 C270 1.348 . S
C268 C271 1.356 . S
C268 O324 1.325 . S
N269 C272 1.314 . S
N269 C273 1.279 . S
C270 C268 1.348 . S
C270 C272 1.353 . S
C270 H328 0.929 . S
C271 C268 1.356 . S
C271 C273 1.358 . S
C271 H329 0.930 . S
C272 N269 1.314 . S
C272 C270 1.353 . S
C272 H330 0.930 . S
C273 N269 1.279 . S
C273 C271 1.358 . S
C273 H331 0.930 . S
C274 C277 1.348 . S
C274 C278 1.356 . S
C274 O325 1.325 . S
C275 N276 1.279 . S
C275 C278 1.358 . S
C275 H332 0.930 . S
N276 C275 1.279 . S
N276 C279 1.314 . S
C277 C274 1.348 . S
C277 C279 1.353 . S
C277 H333 0.929 . S
C278 C274 1.356 . S
C278 C275 1.358 . S
C278 H334 0.930 . S
C279 N276 1.314 . S
C279 C277 1.353 . S
C279 H335 0.930 . S
C280 N281 1.314 . S
C280 C285 1.353 . S
C280 H286 0.930 . S
N281 Li264 1.990 . S
N281 C280 1.314 . S
N281 C283 1.279 . S
C282 C283 1.358 . S
C282 C284 1.356 . S
C282 H336 0.930 . S
C283 N281 1.279 . S
C283 C282 1.358 . S
C283 H287 0.930 . S
C284 C282 1.356 . S
C284 C285 1.348 . S
C285 C280 1.353 . S
C285 C284 1.348 . S
C285 H337 0.929 . S
H286 C280 0.930 . S
H287 C283 0.930 . S
C288 N289 1.314 . S
C288 C290 1.353 . S
C288 H294 0.930 . S
N289 Li265 1.990 . S
N289 C288 1.314 . S
N289 C292 1.279 . S
C290 C288 1.353 . S
C290 C293 1.348 . S
C290 H338 0.929 . S
C291 C292 1.358 . S
C291 C293 1.356 . S
C291 H339 0.930 . S
C292 N289 1.279 . S
C292 C291 1.358 . S
C292 H295 0.930 . S
C293 C290 1.348 . S
C293 C291 1.356 . S
H294 C288 0.930 . S
H295 C292 0.930 . S
C296 C298 1.348 . S
C296 C299 1.356 . S
C296 O326 1.325 . S
N297 C300 1.314 . S
N297 C301 1.279 1_556 S
C298 C296 1.348 . S
C298 C300 1.356 1_554 S
C298 H340 0.929 . S
C299 C296 1.356 . S
C299 C301 1.358 . S
C299 H341 0.930 . S
C300 N297 1.314 . S
C300 C298 1.356 1_556 S
C300 H342 0.927 . S
C301 N297 1.279 1_554 S
C301 C299 1.358 . S
C301 H343 0.930 . S
C302 C303 1.348 . S
C302 C304 1.356 . S
C302 O327 1.325 . S
C303 C302 1.348 . S
C303 C305 1.353 . S
C303 H344 0.929 . S
C304 C302 1.356 . S
C304 C306 1.358 . S
C304 H345 0.930 . S
C305 C303 1.353 . S
C305 N307 1.314 . S
C305 H346 0.930 . S
C306 C304 1.358 . S
C306 N307 1.279 . S
C306 H347 0.930 . S
N307 C305 1.314 . S
N307 C306 1.279 . S
C308 C310 1.353 . S
C308 N311 1.314 . S
C308 H314 0.930 . S
C309 N311 1.279 . S
C309 C312 1.358 . S
C309 H315 0.930 . S
C310 C308 1.353 . S
C310 C313 1.348 . S
C310 H348 0.929 . S
N311 Li266 1.990 . S
N311 C308 1.314 . S
N311 C309 1.279 . S
C312 C309 1.358 . S
C312 C313 1.356 . S
C312 H349 0.930 . S
C313 C310 1.348 . S
C313 C312 1.356 . S
H314 C308 0.930 . S
H315 C309 0.930 . S
C316 N317 1.314 . S
C316 C318 1.353 1_554 S
C316 H322 0.930 . S
N317 Li267 1.990 . S
N317 C316 1.314 . S
N317 C320 1.279 . S
C318 C316 1.353 1_556 S
C318 C321 1.348 . S
C318 H350 0.929 . S
C319 C320 1.358 . S
C319 C321 1.356 1_554 S
C319 H351 0.930 . S
C320 N317 1.279 . S
C320 C319 1.358 . S
C320 H323 0.930 . S
C321 C318 1.348 . S
C321 C319 1.356 1_556 S
H322 C316 0.930 . S
H323 C320 0.930 . S
O324 Li264 1.956 . S
O324 Li265 1.970 . S
O324 Li266 1.961 . S
O324 C268 1.325 . S
O325 Li264 1.970 . S
O325 Li265 1.956 . S
O325 Li267 1.961 . S
O325 C274 1.325 . S
O326 Li264 1.961 . S
O326 Li266 1.956 . S
O326 Li267 1.970 . S
O326 C296 1.325 . S
O327 Li265 1.961 . S
O327 Li266 1.970 . S
O327 Li267 1.956 . S
O327 C302 1.325 . S
H328 C270 0.929 . S
H329 C271 0.930 . S
H330 C272 0.930 . S
H331 C273 0.930 . S
H332 C275 0.930 . S
H333 C277 0.929 . S
H334 C278 0.930 . S
H335 C279 0.930 . S
H336 C282 0.930 . S
H337 C285 0.929 . S
H338 C290 0.929 . S
H339 C291 0.930 . S
H340 C298 0.929 . S
H341 C299 0.930 . S
H342 C300 0.927 . S
H343 C301 0.930 . S
H344 C303 0.929 . S
H345 C304 0.930 . S
H346 C305 0.930 . S
H347 C306 0.930 . S
H348 C310 0.929 . S
H349 C312 0.930 . S
H350 C318 0.929 . S
H351 C319 0.930 . S
Li352 N369 1.990 . S
Li352 O412 1.956 . S
Li352 O413 1.970 . S
Li352 O414 1.961 . S
Li353 N377 1.990 . S
Li353 O412 1.970 . S
Li353 O413 1.956 . S
Li353 O415 1.961 . S
Li354 N399 1.990 . S
Li354 O412 1.961 . S
Li354 O414 1.956 . S
Li354 O415 1.970 . S
Li355 N405 1.990 . S
Li355 O413 1.961 . S
Li355 O414 1.970 . S
Li355 O415 1.956 . S
C356 C358 1.348 . S
C356 C359 1.356 . S
C356 O412 1.325 . S
N357 C360 1.314 . S
N357 C361 1.279 . S
C358 C356 1.348 . S
C358 C360 1.353 . S
C358 H416 0.929 . S
C359 C356 1.356 . S
C359 C361 1.358 . S
C359 H417 0.930 . S
C360 N357 1.314 . S
C360 C358 1.353 . S
C360 H418 0.930 . S
C361 N357 1.279 . S
C361 C359 1.358 . S
C361 H419 0.930 . S
C362 C365 1.348 . S
C362 C366 1.356 . S
C362 O413 1.325 . S
C363 N364 1.279 . S
C363 C366 1.358 . S
C363 H420 0.930 . S
N364 C363 1.279 . S
N364 C367 1.314 . S
C365 C362 1.348 . S
C365 C367 1.353 . S
C365 H421 0.929 . S
C366 C362 1.356 . S
C366 C363 1.358 . S
C366 H422 0.930 . S
C367 N364 1.314 . S
C367 C365 1.353 . S
C367 H423 0.930 . S
C368 N369 1.314 . S
C368 C373 1.353 . S
C368 H374 0.930 . S
N369 Li352 1.990 . S
N369 C368 1.314 . S
N369 C371 1.279 . S
C370 C371 1.358 . S
C370 C372 1.356 . S
C370 H424 0.930 . S
C371 N369 1.279 . S
C371 C370 1.358 . S
C371 H375 0.930 . S
C372 C370 1.356 . S
C372 C373 1.348 . S
C373 C368 1.353 . S
C373 C372 1.348 . S
C373 H425 0.929 . S
H374 C368 0.930 . S
H375 C371 0.930 . S
C376 N377 1.314 . S
C376 C378 1.353 . S
C376 H382 0.930 . S
N377 Li353 1.990 . S
N377 C376 1.314 . S
N377 C380 1.279 . S
C378 C376 1.353 . S
C378 C381 1.348 . S
C378 H426 0.929 . S
C379 C380 1.358 . S
C379 C381 1.356 . S
C379 H427 0.930 . S
C380 N377 1.279 . S
C380 C379 1.358 . S
C380 H383 0.930 . S
C381 C378 1.348 . S
C381 C379 1.356 . S
H382 C376 0.930 . S
H383 C380 0.930 . S
C384 C386 1.348 . S
C384 C387 1.356 . S
C384 O414 1.325 . S
N385 C388 1.314 . S
N385 C389 1.279 . S
C386 C384 1.348 . S
C386 C388 1.353 . S
C386 H428 0.929 . S
C387 C384 1.356 . S
C387 C389 1.358 . S
C387 H429 0.930 . S
C388 N385 1.314 . S
C388 C386 1.353 . S
C388 H430 0.930 . S
C389 N385 1.279 . S
C389 C387 1.358 . S
C389 H431 0.930 . S
C390 C391 1.348 . S
C390 C392 1.356 . S
C390 O415 1.325 . S
C391 C390 1.348 . S
C391 C393 1.353 . S
C391 H432 0.929 . S
C392 C390 1.356 . S
C392 C394 1.358 . S
C392 H433 0.930 . S
C393 C391 1.353 . S
C393 N395 1.314 . S
C393 H434 0.930 . S
C394 C392 1.358 . S
C394 N395 1.279 . S
C394 H435 0.930 . S
N395 C393 1.314 . S
N395 C394 1.279 . S
C396 C398 1.353 . S
C396 N399 1.314 . S
C396 H402 0.930 . S
C397 N399 1.279 . S
C397 C400 1.358 . S
C397 H403 0.930 . S
C398 C396 1.353 . S
C398 C401 1.348 . S
C398 H436 0.929 . S
N399 Li354 1.990 . S
N399 C396 1.314 . S
N399 C397 1.279 . S
C400 C397 1.358 . S
C400 C401 1.356 . S
C400 H437 0.930 . S
C401 C398 1.348 . S
C401 C400 1.356 . S
H402 C396 0.930 . S
H403 C397 0.930 . S
C404 N405 1.314 . S
C404 C406 1.353 . S
C404 H410 0.930 . S
N405 Li355 1.990 . S
N405 C404 1.314 . S
N405 C408 1.279 . S
C406 C404 1.353 . S
C406 C409 1.348 . S
C406 H438 0.929 . S
C407 C408 1.358 . S
C407 C409 1.356 . S
C407 H439 0.930 . S
C408 N405 1.279 . S
C408 C407 1.358 . S
C408 H411 0.930 . S
C409 C406 1.348 . S
C409 C407 1.356 . S
H410 C404 0.930 . S
H411 C408 0.930 . S
O412 Li352 1.956 . S
O412 Li353 1.970 . S
O412 Li354 1.961 . S
O412 C356 1.325 . S
O413 Li352 1.970 . S
O413 Li353 1.956 . S
O413 Li355 1.961 . S
O413 C362 1.325 . S
O414 Li352 1.961 . S
O414 Li354 1.956 . S
O414 Li355 1.970 . S
O414 C384 1.325 . S
O415 Li353 1.961 . S
O415 Li354 1.970 . S
O415 Li355 1.956 . S
O415 C390 1.325 . S
H416 C358 0.929 . S
H417 C359 0.930 . S
H418 C360 0.930 . S
H419 C361 0.930 . S
H420 C363 0.930 . S
H421 C365 0.929 . S
H422 C366 0.930 . S
H423 C367 0.930 . S
H424 C370 0.930 . S
H425 C373 0.929 . S
H426 C378 0.929 . S
H427 C379 0.930 . S
H428 C386 0.929 . S
H429 C387 0.930 . S
H430 C388 0.930 . S
H431 C389 0.930 . S
H432 C391 0.929 . S
H433 C392 0.930 . S
H434 C393 0.930 . S
H435 C394 0.930 . S
H436 C398 0.929 . S
H437 C400 0.930 . S
H438 C406 0.929 . S
H439 C407 0.930 . S
Li440 N457 1.990 . S
Li440 O500 1.956 . S
Li440 O501 1.970 . S
Li440 O502 1.961 . S
Li441 N465 1.990 . S
Li441 O500 1.970 . S
Li441 O501 1.956 . S
Li441 O503 1.961 . S
Li442 N487 1.990 . S
Li442 O500 1.961 . S
Li442 O502 1.956 . S
Li442 O503 1.970 . S
Li443 N493 1.990 . S
Li443 O501 1.961 . S
Li443 O502 1.970 . S
Li443 O503 1.956 . S
C444 C446 1.348 . S
C444 C447 1.356 . S
C444 O500 1.325 . S
N445 C448 1.314 . S
N445 C449 1.279 . S
C446 C444 1.348 . S
C446 C448 1.353 . S
C446 H504 0.929 . S
C447 C444 1.356 . S
C447 C449 1.358 . S
C447 H505 0.930 . S
C448 N445 1.314 . S
C448 C446 1.353 . S
C448 H506 0.930 . S
C449 N445 1.279 . S
C449 C447 1.358 . S
C449 H507 0.930 . S
C450 C453 1.348 . S
C450 C454 1.356 . S
C450 O501 1.325 . S
C451 N452 1.279 . S
C451 C454 1.358 . S
C451 H508 0.930 . S
N452 C451 1.279 . S
N452 C455 1.314 . S
C453 C450 1.348 . S
C453 C455 1.353 . S
C453 H509 0.929 . S
C454 C450 1.356 . S
C454 C451 1.358 . S
C454 H510 0.930 . S
C455 N452 1.314 . S
C455 C453 1.353 . S
C455 H511 0.930 . S
C456 N457 1.314 . S
C456 C461 1.353 . S
C456 H462 0.930 . S
N457 Li440 1.990 . S
N457 C456 1.314 . S
N457 C459 1.279 . S
C458 C459 1.358 . S
C458 C460 1.356 . S
C458 H512 0.930 . S
C459 N457 1.279 . S
C459 C458 1.358 . S
C459 H463 0.930 . S
C460 C458 1.356 . S
C460 C461 1.348 . S
C461 C456 1.353 . S
C461 C460 1.348 . S
C461 H513 0.929 . S
H462 C456 0.930 . S
H463 C459 0.930 . S
C464 N465 1.314 . S
C464 C466 1.353 . S
C464 H470 0.930 . S
N465 Li441 1.990 . S
N465 C464 1.314 . S
N465 C468 1.279 . S
C466 C464 1.353 . S
C466 C469 1.348 . S
C466 H514 0.929 . S
C467 C468 1.358 . S
C467 C469 1.356 . S
C467 H515 0.930 . S
C468 N465 1.279 . S
C468 C467 1.358 . S
C468 H471 0.930 . S
C469 C466 1.348 . S
C469 C467 1.356 . S
H470 C464 0.930 . S
H471 C468 0.930 . S
C472 C474 1.348 . S
C472 C475 1.356 . S
C472 O502 1.325 . S
N473 C476 1.314 . S
N473 C477 1.279 . S
C474 C472 1.348 . S
C474 C476 1.353 . S
C474 H516 0.929 . S
C475 C472 1.356 . S
C475 C477 1.358 . S
C475 H517 0.930 . S
C476 N473 1.314 . S
C476 C474 1.353 . S
C476 H518 0.930 . S
C477 N473 1.279 . S
C477 C475 1.358 . S
C477 H519 0.930 . S
C478 C479 1.348 . S
C478 C480 1.356 . S
C478 O503 1.325 . S
C479 C478 1.348 . S
C479 C481 1.353 . S
C479 H520 0.929 . S
C480 C478 1.356 . S
C480 C482 1.358 . S
C480 H521 0.930 . S
C481 C479 1.353 . S
C481 N483 1.314 . S
C481 H522 0.930 . S
C482 C480 1.358 . S
C482 N483 1.279 . S
C482 H523 0.930 . S
N483 C481 1.314 . S
N483 C482 1.279 . S
C484 C486 1.353 . S
C484 N487 1.314 . S
C484 H490 0.930 . S
C485 N487 1.279 . S
C485 C488 1.358 . S
C485 H491 0.930 . S
C486 C484 1.353 . S
C486 C489 1.348 . S
C486 H524 0.929 . S
N487 Li442 1.990 . S
N487 C484 1.314 . S
N487 C485 1.279 . S
C488 C485 1.358 . S
C488 C489 1.356 . S
C488 H525 0.930 . S
C489 C486 1.348 . S
C489 C488 1.356 . S
H490 C484 0.930 . S
H491 C485 0.930 . S
C492 N493 1.314 . S
C492 C494 1.353 . S
C492 H498 0.930 . S
N493 Li443 1.990 . S
N493 C492 1.314 . S
N493 C496 1.279 . S
C494 C492 1.353 . S
C494 C497 1.348 . S
C494 H526 0.929 . S
C495 C496 1.358 . S
C495 C497 1.356 . S
C495 H527 0.930 . S
C496 N493 1.279 . S
C496 C495 1.358 . S
C496 H499 0.930 . S
C497 C494 1.348 . S
C497 C495 1.356 . S
H498 C492 0.930 . S
H499 C496 0.930 . S
O500 Li440 1.956 . S
O500 Li441 1.970 . S
O500 Li442 1.961 . S
O500 C444 1.325 . S
O501 Li440 1.970 . S
O501 Li441 1.956 . S
O501 Li443 1.961 . S
O501 C450 1.325 . S
O502 Li440 1.961 . S
O502 Li442 1.956 . S
O502 Li443 1.970 . S
O502 C472 1.325 . S
O503 Li441 1.961 . S
O503 Li442 1.970 . S
O503 Li443 1.956 . S
O503 C478 1.325 . S
H504 C446 0.929 . S
H505 C447 0.930 . S
H506 C448 0.930 . S
H507 C449 0.930 . S
H508 C451 0.930 . S
H509 C453 0.929 . S
H510 C454 0.930 . S
H511 C455 0.930 . S
H512 C458 0.930 . S
H513 C461 0.929 . S
H514 C466 0.929 . S
H515 C467 0.930 . S
H516 C474 0.929 . S
H517 C475 0.930 . S
H518 C476 0.930 . S
H519 C477 0.930 . S
H520 C479 0.929 . S
H521 C480 0.930 . S
H522 C481 0.930 . S
H523 C482 0.930 . S
H524 C486 0.929 . S
H525 C488 0.930 . S
H526 C494 0.929 . S
H527 C495 0.930 . S
H528 C540 0.930 . S
H529 C542 0.930 . S
H530 C543 0.930 . S
H531 C547 0.959 . S
H532 C547 0.959 . S
H533 C547 0.961 . S
H534 C548 0.960 . S
H535 C548 0.961 . S
H536 C548 0.959 . S
H537 C551 0.929 . S
H538 C552 0.931 . S
H539 C554 0.930 . S
C540 H528 0.930 . S
C540 C541 1.399 . S
C540 C545 1.399 . S
C541 C540 1.399 . S
C541 C542 1.376 . S
C542 H529 0.930 . S
C542 C541 1.376 . S
C542 C543 1.388 . S
C543 H530 0.930 . S
C543 C542 1.388 . S
C543 C544 1.390 . S
C544 C543 1.390 . S
C544 C545 1.394 . S
C544 C550 1.465 1_545 S
C545 C540 1.399 . S
C545 C544 1.394 . S
C545 C546 1.516 . S
C546 C545 1.516 . S
C546 C547 1.502 . S
C546 C548 1.561 . S
C546 C549 1.526 1_545 S
C547 H531 0.959 . S
C547 H532 0.959 . S
C547 H533 0.961 . S
C547 C546 1.502 . S
C548 H534 0.960 . S
C548 H535 0.961 . S
C548 H536 0.959 . S
C548 C546 1.561 . S
C549 C546 1.526 1_565 S
C549 C550 1.396 . S
C549 C554 1.390 . S
C550 C544 1.465 1_565 S
C550 C549 1.396 . S
C550 C551 1.399 . S
C551 H537 0.929 . S
C551 C550 1.399 . S
C551 C552 1.385 . S
C552 H538 0.931 . S
C552 C551 1.385 . S
C552 C553 1.389 . S
C553 C552 1.389 . S
C553 C554 1.387 . S
C554 H539 0.930 . S
C554 C549 1.390 . S
C554 C553 1.387 . S
H555 C567 0.930 . S
H556 C569 0.930 . S
H557 C570 0.930 . S
H558 C574 0.959 . S
H559 C574 0.959 . S
H560 C574 0.961 . S
H561 C575 0.960 . S
H562 C575 0.961 . S
H563 C575 0.959 . S
H564 C578 0.929 . S
H565 C579 0.931 . S
H566 C581 0.930 . S
C567 H555 0.930 . S
C567 C568 1.399 . S
C567 C572 1.399 . S
C568 C567 1.399 . S
C568 C569 1.376 . S
C569 H556 0.930 . S
C569 C568 1.376 . S
C569 C570 1.388 . S
C570 H557 0.930 . S
C570 C569 1.388 . S
C570 C571 1.390 . S
C571 C570 1.390 . S
C571 C572 1.394 . S
C571 C577 1.465 . S
C572 C567 1.399 . S
C572 C571 1.394 . S
C572 C573 1.516 . S
C573 C572 1.516 . S
C573 C574 1.502 . S
C573 C575 1.561 . S
C573 C576 1.526 . S
C574 H558 0.959 . S
C574 H559 0.959 . S
C574 H560 0.961 . S
C574 C573 1.502 . S
C575 H561 0.960 . S
C575 H562 0.961 . S
C575 H563 0.959 . S
C575 C573 1.561 . S
C576 C573 1.526 . S
C576 C577 1.396 . S
C576 C581 1.390 . S
C577 C571 1.465 . S
C577 C576 1.396 . S
C577 C578 1.399 . S
C578 H564 0.929 . S
C578 C577 1.399 . S
C578 C579 1.385 . S
C579 H565 0.931 . S
C579 C578 1.385 . S
C579 C580 1.389 . S
C580 C579 1.389 . S
C580 C581 1.387 . S
C581 H566 0.930 . S
C581 C576 1.390 . S
C581 C580 1.387 . S
H582 C594 0.930 . S
H583 C596 0.930 . S
H584 C597 0.930 . S
H585 C601 0.959 . S
H586 C601 0.959 . S
H587 C601 0.961 . S
H588 C602 0.969 . S
H589 C602 0.959 1_455 S
H590 C602 0.955 1_455 S
H591 C605 0.929 . S
H592 C606 0.931 . S
H593 C608 0.930 . S
C594 H582 0.930 . S
C594 C595 1.399 . S
C594 C599 1.399 . S
C595 C594 1.399 . S
C595 C596 1.376 . S
C596 H583 0.930 . S
C596 C595 1.376 . S
C596 C597 1.388 . S
C597 H584 0.930 . S
C597 C596 1.388 . S
C597 C598 1.390 . S
C598 C597 1.390 . S
C598 C599 1.394 . S
C598 C604 1.465 1_655 S
C599 C594 1.399 . S
C599 C598 1.394 . S
C599 C600 1.516 . S
C600 C599 1.516 . S
C600 C601 1.502 . S
C600 C602 1.559 . S
C600 C603 1.526 1_655 S
C601 H585 0.959 . S
C601 H586 0.959 . S
C601 H587 0.961 . S
C601 C600 1.502 . S
C602 H588 0.969 . S
C602 H589 0.959 1_655 S
C602 H590 0.955 1_655 S
C602 C600 1.559 . S
C603 C600 1.526 1_455 S
C603 C604 1.396 . S
C603 C608 1.390 . S
C604 C598 1.465 1_455 S
C604 C603 1.396 . S
C604 C605 1.399 . S
C605 H591 0.929 . S
C605 C604 1.399 . S
C605 C606 1.385 . S
C606 H592 0.931 . S
C606 C605 1.385 . S
C606 C607 1.389 . S
C607 C606 1.389 . S
C607 C608 1.387 . S
C608 H593 0.930 . S
C608 C603 1.390 . S
C608 C607 1.387 . S
H609 C621 0.930 . S
H610 C623 0.930 . S
H611 C624 0.930 . S
H612 C628 0.959 1_556 S
H613 C628 0.959 . S
H614 C628 0.961 1_565 S
H615 C629 0.960 . S
H616 C629 0.961 . S
H617 C629 0.959 . S
H618 C632 0.929 . S
H619 C633 0.931 . S
H620 C635 0.930 . S
C621 H609 0.930 . S
C621 C622 1.399 . S
C621 C626 1.399 . S
C622 C621 1.399 . S
C622 C623 1.376 . S
C623 H610 0.930 . S
C623 C622 1.376 . S
C623 C624 1.388 1_554 S
C624 H611 0.930 . S
C624 C623 1.388 1_556 S
C624 C625 1.385 1_556 S
C625 C624 1.385 1_554 S
C625 C626 1.419 . S
C625 C631 1.448 1_564 S
C626 C621 1.399 . S
C626 C625 1.419 . S
C626 C627 1.516 1_565 S
C627 C626 1.516 1_545 S
C627 C628 1.502 . S
C627 C629 1.561 . S
C627 C630 1.526 1_554 S
C628 H612 0.959 1_554 S
C628 H613 0.959 . S
C628 H614 0.961 1_545 S
C628 C627 1.502 . S
C629 H615 0.960 . S
C629 H616 0.961 . S
C629 H617 0.959 . S
C629 C627 1.561 . S
C630 C627 1.526 1_556 S
C630 C631 1.396 . S
C630 C635 1.390 . S
C631 C625 1.448 1_546 S
C631 C630 1.396 . S
C631 C632 1.399 . S
C632 H618 0.929 . S
C632 C631 1.399 . S
C632 C633 1.385 . S
C633 H619 0.931 . S
C633 C632 1.385 . S
C633 C634 1.389 . S
C634 C633 1.389 . S
C634 C635 1.387 . S
C635 H620 0.930 . S
C635 C630 1.390 . S
C635 C634 1.387 . S
H636 C648 0.930 . S
H637 C650 0.930 . S
H638 C651 0.930 . S
H639 C655 0.959 . S
H640 C655 0.959 . S
H641 C655 0.961 . S
H642 C656 0.960 . S
H643 C656 0.961 . S
H644 C656 0.959 . S
H645 C659 0.929 . S
H646 C660 0.931 . S
H647 C662 0.930 . S
C648 H636 0.930 . S
C648 C649 1.399 . S
C648 C653 1.399 . S
C649 C648 1.399 . S
C649 C650 1.376 . S
C650 H637 0.930 . S
C650 C649 1.376 . S
C650 C651 1.388 . S
C651 H638 0.930 . S
C651 C650 1.388 . S
C651 C652 1.390 . S
C652 C651 1.390 . S
C652 C653 1.394 . S
C652 C658 1.465 . S
C653 C648 1.399 . S
C653 C652 1.394 . S
C653 C654 1.516 . S
C654 C653 1.516 . S
C654 C655 1.502 . S
C654 C656 1.561 . S
C654 C657 1.526 . S
C655 H639 0.959 . S
C655 H640 0.959 . S
C655 H641 0.961 . S
C655 C654 1.502 . S
C656 H642 0.960 . S
C656 H643 0.961 . S
C656 H644 0.959 . S
C656 C654 1.561 . S
C657 C654 1.526 . S
C657 C658 1.396 . S
C657 C662 1.390 . S
C658 C652 1.465 . S
C658 C657 1.396 . S
C658 C659 1.399 . S
C659 H645 0.929 . S
C659 C658 1.399 . S
C659 C660 1.385 . S
C660 H646 0.931 . S
C660 C659 1.385 . S
C660 C661 1.389 . S
C661 C660 1.389 . S
C661 C662 1.387 . S
C662 H647 0.930 . S
C662 C657 1.390 . S
C662 C661 1.387 . S
H663 C675 0.930 . S
H664 C677 0.930 . S
H665 C678 0.930 . S
H666 C682 0.959 . S
H667 C682 0.959 . S
H668 C682 0.961 . S
H669 C683 0.960 . S
H670 C683 0.961 . S
H671 C683 0.959 . S
H672 C686 0.929 . S
H673 C687 0.931 . S
H674 C689 0.930 . S
C675 H663 0.930 . S
C675 C676 1.399 . S
C675 C680 1.399 . S
C676 C675 1.399 . S
C676 C677 1.376 . S
C677 H664 0.930 . S
C677 C676 1.376 . S
C677 C678 1.388 . S
C678 H665 0.930 . S
C678 C677 1.388 . S
C678 C679 1.390 . S
C679 C678 1.390 . S
C679 C680 1.394 . S
C679 C685 1.465 1_455 S
C680 C675 1.399 . S
C680 C679 1.394 . S
C680 C681 1.516 . S
C681 C680 1.516 . S
C681 C682 1.502 . S
C681 C683 1.561 . S
C681 C684 1.526 1_455 S
C682 H666 0.959 . S
C682 H667 0.959 . S
C682 H668 0.961 . S
C682 C681 1.502 . S
C683 H669 0.960 . S
C683 H670 0.961 . S
C683 H671 0.959 . S
C683 C681 1.561 . S
C684 C681 1.526 1_655 S
C684 C685 1.396 . S
C684 C689 1.390 . S
C685 C679 1.465 1_655 S
C685 C684 1.396 . S
C685 C686 1.399 . S
C686 H672 0.929 . S
C686 C685 1.399 . S
C686 C687 1.385 . S
C687 H673 0.931 . S
C687 C686 1.385 . S
C687 C688 1.389 . S
C688 C687 1.389 . S
C688 C689 1.387 . S
C689 H674 0.930 . S
C689 C684 1.390 . S
C689 C688 1.387 . S
H690 C702 0.930 . S
H691 C704 0.930 . S
H692 C705 0.930 . S
H693 C709 0.959 . S
H694 C709 0.959 . S
H695 C709 0.961 . S
H696 C710 0.960 . S
H697 C710 0.961 . S
H698 C710 0.959 . S
H699 C713 0.929 . S
H700 C714 0.931 . S
H701 C716 0.930 . S
C702 H690 0.930 . S
C702 C703 1.399 . S
C702 C707 1.399 . S
C703 C702 1.399 . S
C703 C704 1.376 . S
C704 H691 0.930 . S
C704 C703 1.376 . S
C704 C705 1.388 . S
C705 H692 0.930 . S
C705 C704 1.388 . S
C705 C706 1.390 . S
C706 C705 1.390 . S
C706 C707 1.394 . S
C706 C712 1.465 . S
C707 C702 1.399 . S
C707 C706 1.394 . S
C707 C708 1.516 . S
C708 C707 1.516 . S
C708 C709 1.502 . S
C708 C710 1.561 . S
C708 C711 1.526 . S
C709 H693 0.959 . S
C709 H694 0.959 . S
C709 H695 0.961 . S
C709 C708 1.502 . S
C710 H696 0.960 . S
C710 H697 0.961 . S
C710 H698 0.959 . S
C710 C708 1.561 . S
C711 C708 1.526 . S
C711 C712 1.396 . S
C711 C716 1.390 . S
C712 C706 1.465 . S
C712 C711 1.396 . S
C712 C713 1.399 . S
C713 H699 0.929 . S
C713 C712 1.399 . S
C713 C714 1.385 . S
C714 H700 0.931 . S
C714 C713 1.385 . S
C714 C715 1.389 . S
C715 C714 1.389 . S
C715 C716 1.387 . S
C716 H701 0.930 . S
C716 C711 1.390 . S
C716 C715 1.387 . S
H717 C729 0.930 . S
H718 C731 0.930 . S
H719 C732 0.930 . S
H720 C736 0.959 . S
H721 C736 0.959 . S
H722 C736 0.961 . S
H723 C737 0.960 . S
H724 C737 0.961 . S
H725 C737 0.959 . S
H726 C740 0.929 . S
H727 C741 0.931 . S
H728 C743 0.930 . S
C729 H717 0.930 . S
C729 C730 1.399 . S
C729 C734 1.399 . S
C730 C729 1.399 . S
C730 C731 1.376 . S
C731 H718 0.930 . S
C731 C730 1.376 . S
C731 C732 1.388 . S
C732 H719 0.930 . S
C732 C731 1.388 . S
C732 C733 1.390 . S
C733 C732 1.390 . S
C733 C734 1.394 . S
C733 C739 1.465 . S
C734 C729 1.399 . S
C734 C733 1.394 . S
C734 C735 1.516 . S
C735 C734 1.516 . S
C735 C736 1.502 . S
C735 C737 1.561 . S
C735 C738 1.526 . S
C736 H720 0.959 . S
C736 H721 0.959 . S
C736 H722 0.961 . S
C736 C735 1.502 . S
C737 H723 0.960 . S
C737 H724 0.961 . S
C737 H725 0.959 . S
C737 C735 1.561 . S
C738 C735 1.526 . S
C738 C739 1.396 . S
C738 C743 1.390 . S
C739 C733 1.465 . S
C739 C738 1.396 . S
C739 C740 1.399 . S
C740 H726 0.929 . S
C740 C739 1.399 . S
C740 C741 1.385 . S
C741 H727 0.931 . S
C741 C740 1.385 . S
C741 C742 1.389 . S
C742 C741 1.389 . S
C742 C743 1.387 . S
C743 H728 0.930 . S
C743 C738 1.390 . S
C743 C742 1.387 . S
H744 C756 0.930 . S
H745 C758 0.930 . S
H746 C759 0.930 . S
H747 C763 0.959 . S
H748 C763 0.959 . S
H749 C763 0.961 . S
H750 C764 0.960 . S
H751 C764 0.961 . S
H752 C764 0.959 . S
H753 C767 0.929 . S
H754 C768 0.931 . S
H755 C770 0.930 . S
C756 H744 0.930 . S
C756 C757 1.399 . S
C756 C761 1.399 . S
C757 C756 1.399 . S
C757 C758 1.376 . S
C758 H745 0.930 . S
C758 C757 1.376 . S
C758 C759 1.388 . S
C759 H746 0.930 . S
C759 C758 1.388 . S
C759 C760 1.390 . S
C760 C759 1.390 . S
C760 C761 1.394 . S
C760 C766 1.465 . S
C761 C756 1.399 . S
C761 C760 1.394 . S
C761 C762 1.516 . S
C762 C761 1.516 . S
C762 C763 1.502 . S
C762 C764 1.561 . S
C762 C765 1.526 . S
C763 H747 0.959 . S
C763 H748 0.959 . S
C763 H749 0.961 . S
C763 C762 1.502 . S
C764 H750 0.960 . S
C764 H751 0.961 . S
C764 H752 0.959 . S
C764 C762 1.561 . S
C765 C762 1.526 . S
C765 C766 1.396 . S
C765 C770 1.390 . S
C766 C760 1.465 . S
C766 C765 1.396 . S
C766 C767 1.399 . S
C767 H753 0.929 . S
C767 C766 1.399 . S
C767 C768 1.385 . S
C768 H754 0.931 . S
C768 C767 1.385 . S
C768 C769 1.389 . S
C769 C768 1.389 . S
C769 C770 1.387 . S
C770 H755 0.930 . S
C770 C765 1.390 . S
C770 C769 1.387 . S
H771 C783 0.930 . S
H772 C785 0.930 . S
H773 C786 0.930 . S
H774 C790 0.959 . S
H775 C790 0.959 . S
H776 C790 0.961 . S
H777 C791 0.960 . S
H778 C791 0.961 . S
H779 C791 0.959 . S
H780 C794 0.929 . S
H781 C795 0.931 . S
H782 C797 0.930 . S
C783 H771 0.930 . S
C783 C784 1.399 . S
C783 C788 1.399 . S
C784 C783 1.399 . S
C784 C785 1.376 . S
C785 H772 0.930 . S
C785 C784 1.376 . S
C785 C786 1.388 . S
C786 H773 0.930 . S
C786 C785 1.388 . S
C786 C787 1.390 . S
C787 C786 1.390 . S
C787 C788 1.394 . S
C787 C793 1.465 . S
C788 C783 1.399 . S
C788 C787 1.394 . S
C788 C789 1.516 . S
C789 C788 1.516 . S
C789 C790 1.502 . S
C789 C791 1.561 . S
C789 C792 1.526 . S
C790 H774 0.959 . S
C790 H775 0.959 . S
C790 H776 0.961 . S
C790 C789 1.502 . S
C791 H777 0.960 . S
C791 H778 0.961 . S
C791 H779 0.959 . S
C791 C789 1.561 . S
C792 C789 1.526 . S
C792 C793 1.396 . S
C792 C797 1.390 . S
C793 C787 1.465 . S
C793 C792 1.396 . S
C793 C794 1.399 . S
C794 H780 0.929 . S
C794 C793 1.399 . S
C794 C795 1.385 . S
C795 H781 0.931 . S
C795 C794 1.385 . S
C795 C796 1.389 . S
C796 C795 1.389 . S
C796 C797 1.387 . S
C797 H782 0.930 . S
C797 C792 1.390 . S
C797 C796 1.387 . S
H798 C810 0.930 . S
H799 C812 0.930 . S
H800 C813 0.930 . S
H801 C817 0.959 . S
H802 C817 0.959 . S
H803 C817 0.961 . S
H804 C818 0.960 . S
H805 C818 0.961 . S
H806 C818 0.959 . S
H807 C821 0.929 . S
H808 C822 0.931 . S
H809 C824 0.930 . S
C810 H798 0.930 . S
C810 C811 1.399 . S
C810 C815 1.399 . S
C811 C810 1.399 . S
C811 C812 1.376 . S
C812 H799 0.930 . S
C812 C811 1.376 . S
C812 C813 1.388 . S
C813 H800 0.930 . S
C813 C812 1.388 . S
C813 C814 1.390 . S
C814 C813 1.390 . S
C814 C815 1.394 . S
C814 C820 1.465 . S
C815 C810 1.399 . S
C815 C814 1.394 . S
C815 C816 1.516 . S
C816 C815 1.516 . S
C816 C817 1.502 . S
C816 C818 1.561 . S
C816 C819 1.526 . S
C817 H801 0.959 . S
C817 H802 0.959 . S
C817 H803 0.961 . S
C817 C816 1.502 . S
C818 H804 0.960 . S
C818 H805 0.961 . S
C818 H806 0.959 . S
C818 C816 1.561 . S
C819 C816 1.526 . S
C819 C820 1.396 . S
C819 C824 1.390 . S
C820 C814 1.465 . S
C820 C819 1.396 . S
C820 C821 1.399 . S
C821 H807 0.929 . S
C821 C820 1.399 . S
C821 C822 1.385 . S
C822 H808 0.931 . S
C822 C821 1.385 . S
C822 C823 1.389 . S
C823 C822 1.389 . S
C823 C824 1.387 . S
C824 H809 0.930 . S
C824 C819 1.390 . S
C824 C823 1.387 . S
H825 C837 0.930 . S
H826 C839 0.930 . S
H827 C840 0.930 . S
H828 C844 0.959 . S
H829 C844 0.959 . S
H830 C844 0.961 . S
H831 C845 0.960 . S
H832 C845 0.961 . S
H833 C845 0.959 . S
H834 C848 0.929 . S
H835 C849 0.931 . S
H836 C851 0.930 . S
C837 H825 0.930 . S
C837 C838 1.399 . S
C837 C842 1.399 . S
C838 C837 1.399 . S
C838 C839 1.376 . S
C839 H826 0.930 . S
C839 C838 1.376 . S
C839 C840 1.388 . S
C840 H827 0.930 . S
C840 C839 1.388 . S
C840 C841 1.390 . S
C841 C840 1.390 . S
C841 C842 1.394 . S
C841 C847 1.465 . S
C842 C837 1.399 . S
C842 C841 1.394 . S
C842 C843 1.516 . S
C843 C842 1.516 . S
C843 C844 1.502 . S
C843 C845 1.561 . S
C843 C846 1.526 . S
C844 H828 0.959 . S
C844 H829 0.959 . S
C844 H830 0.961 . S
C844 C843 1.502 . S
C845 H831 0.960 . S
C845 H832 0.961 . S
C845 H833 0.959 . S
C845 C843 1.561 . S
C846 C843 1.526 . S
C846 C847 1.396 . S
C846 C851 1.390 . S
C847 C841 1.465 . S
C847 C846 1.396 . S
C847 C848 1.399 . S
C848 H834 0.929 . S
C848 C847 1.399 . S
C848 C849 1.385 . S
C849 H835 0.931 . S
C849 C848 1.385 . S
C849 C850 1.389 . S
C850 C849 1.389 . S
C850 C851 1.387 . S
C851 H836 0.930 . S
C851 C846 1.390 . S
C851 C850 1.387 . S
C541 C20 1.343 . S
C553 C489 1.340 . S
C568 C49 1.340 . S
C580 C117 1.339 . S
C595 C196 1.354 . S
C607 C145 1.351 . S
C622 C284 1.354 . S
C634 C225 1.355 . S
C649 C372 1.351 . S
C661 C313 1.347 . S
C676 C460 1.344 . S
C688 C401 1.341 . S
C703 C57 1.589 . S
C715 C381 1.579 . S
C730 C469 1.580 . S
C742 C137 1.589 . S
C757 C233 1.588 . S
C769 C29 1.581 . S
C784 C108 1.584 . S
C796 C321 1.577 . S
C811 C205 1.585 . S
C823 C409 1.585 . S
C838 C497 1.577 . S
C850 C293 1.582 . S
