# Generated by pormake.
# Topology fnu, (5)-cn, num edge types: 1
# Building blocks:
#     Node 0, Type 0, BuildingBlock: XOMCOT_clean_sbu_1, # of connection points: 5
#     Node 1, Type 0, BuildingBlock: XOMCOT_clean_sbu_1, # of connection points: 5
#     Node 2, Type 0, BuildingBlock: XOMCOT_clean_sbu_1, # of connection points: 5
#     Node 3, Type 0, BuildingBlock: XOMCOT_clean_sbu_1, # of connection points: 5
#     Node 4, Type 0, BuildingBlock: XOMCOT_clean_sbu_1, # of connection points: 5
#     Node 5, Type 0, BuildingBlock: XOMCOT_clean_sbu_1, # of connection points: 5
#     Edge 6, Type (0, 0), BuildingBlock: FUNLAD_clean_linker_0, # of connection points: 2
#     Edge 7, Type (0, 0), BuildingBlock: FUNLAD_clean_linker_0, # of connection points: 2
#     Edge 8, Type (0, 0), BuildingBlock: FUNLAD_clean_linker_0, # of connection points: 2
#     Edge 9, Type (0, 0), BuildingBlock: FUNLAD_clean_linker_0, # of connection points: 2
#     Edge 10, Type (0, 0), BuildingBlock: FUNLAD_clean_linker_0, # of connection points: 2
#     Edge 11, Type (0, 0), BuildingBlock: FUNLAD_clean_linker_0, # of connection points: 2
#     Edge 12, Type (0, 0), BuildingBlock: FUNLAD_clean_linker_0, # of connection points: 2
#     Edge 13, Type (0, 0), BuildingBlock: FUNLAD_clean_linker_0, # of connection points: 2
#     Edge 14, Type (0, 0), BuildingBlock: FUNLAD_clean_linker_0, # of connection points: 2
#     Edge 15, Type (0, 0), BuildingBlock: FUNLAD_clean_linker_0, # of connection points: 2
#     Edge 16, Type (0, 0), BuildingBlock: FUNLAD_clean_linker_0, # of connection points: 2
#     Edge 17, Type (0, 0), BuildingBlock: FUNLAD_clean_linker_0, # of connection points: 2
#     Edge 18, Type (0, 0), BuildingBlock: FUNLAD_clean_linker_0, # of connection points: 2
#     Edge 19, Type (0, 0), BuildingBlock: FUNLAD_clean_linker_0, # of connection points: 2
#     Edge 20, Type (0, 0), BuildingBlock: FUNLAD_clean_linker_0, # of connection points: 2
# Relax obj value: 0.190
# Max RMSD: 0.140
# Mean RMSD: 0.140
data_MOF--net-fnu--node1-XOMCOT_clean_sbu_1--edge1-FUNLAD_clean_linker_0
_symmetry_space_group_name_H-M    P1
_symmetry_Int_Tables_number       1
_symmetry_cell_setting            triclinic
loop_
_symmetry_equiv_pos_as_xyz
'x, y, z'
_cell_length_a     30.059676
_cell_length_b     32.32605
_cell_length_c     38.386409
_cell_angle_alpha  89.916905
_cell_angle_beta   96.881177
_cell_angle_gamma 122.71248
loop_
_atom_site_label
_atom_site_type_symbol
_atom_site_fract_x
_atom_site_fract_y
_atom_site_fract_z
_atom_type_partial_charge
C0 C 0.15327 0.1244 0.30439 0.0
C1 C 0.15897 0.1293 0.34054 0.0
N2 N 0.12219 0.08583 0.35176 0.0
N3 N 0.11364 0.0778 0.29275 0.0
C4 C 0.09548 0.05541 0.32228 0.0
H5 H 0.17494 0.15365 0.28754 0.0
Co6 Co 0.08207 0.05441 0.24597 0.0
C7 C 1.04148 0.11 0.24889 0.0
O8 O 1.01175 0.07317 0.26752 0.0
N9 N 1.04884 0.03117 0.20051 0.0
C10 C 0.98334 0.99051 0.15609 0.0
C11 C 0.99629 1.01087 0.19008 0.0
C12 C 0.06718 1.02305 0.1727 0.0
N13 N 1.028 0.99783 0.14542 0.0
O14 O 0.15352 0.08672 0.23029 0.0
H15 H 0.96875 1.009 0.20672 0.0
H16 H 0.10816 0.03408 0.17277 0.0
O17 O 0.08168 0.11271 0.2386 0.0
C18 C 0.19704 0.09161 0.24461 0.0
O19 O 0.19783 0.07169 0.27437 0.0
N20 N 0.07546 0.99351 0.25187 0.0
C21 C 1.02702 0.89182 0.23889 0.0
C22 C 1.00288 0.91042 0.25695 0.0
C23 C 1.02741 0.96124 0.26266 0.0
C24 C 0.10111 0.97603 0.23594 0.0
C25 C 0.0778 0.92529 0.22963 0.0
H26 H 1.00502 0.975 0.27225 0.0
H27 H 0.13649 1.00025 0.22431 0.0
H28 H 0.0619 1.01805 0.32227 0.0
H29 H 0.18596 0.16306 0.35701 0.0
H30 H 0.94381 0.97016 0.14101 0.0
H31 H 0.96305 0.88623 0.26367 0.0
H32 H 0.0977 0.91254 0.21537 0.0
C33 C 1.02358 0.05501 0.71206 0.0
C34 C 1.01683 0.05429 0.67593 0.0
N35 N 1.05027 0.04394 0.66377 0.0
N36 N 0.06047 0.04432 0.72278 0.0
C37 C 0.07597 0.03793 0.69272 0.0
H38 H 1.00496 0.06543 0.72951 0.0
Co39 Co 0.09411 0.05241 0.76889 0.0
C40 C 0.13899 0.14985 0.76516 0.0
O41 O 0.16691 0.14135 0.74585 0.0
N42 N 0.12955 0.06232 0.81368 0.0
C43 C 0.19647 0.08589 0.85684 0.0
C44 C 0.1827 0.09308 0.82294 0.0
C45 C 0.11171 0.03693 0.84208 0.0
N46 N 0.15168 0.05014 0.8686 0.0
O47 O 1.02453 1.01725 0.78682 0.0
H48 H 0.20992 0.11762 0.8056 0.0
H49 H 0.07039 1.00832 0.84301 0.0
O50 O 0.09892 0.11316 0.77636 0.0
C51 C 0.97763 0.98157 0.77388 0.0
O52 O 0.97018 0.95964 0.74297 0.0
N53 N 0.09576 0.99555 0.76282 0.0
C54 C 0.14211 0.94176 0.78041 0.0
C55 C 0.16664 0.98238 0.76012 0.0
C56 C 0.14313 1.00903 0.75205 0.0
C57 C 0.06856 0.95321 0.77962 0.0
C58 C 0.09104 0.92562 0.78849 0.0
H59 H 0.16624 0.04421 0.74105 0.0
H60 H 1.03296 0.94347 0.79039 0.0
H61 H 0.10735 0.0313 0.69203 0.0
H62 H 0.99189 0.06395 0.66014 0.0
H63 H 0.23645 0.1042 0.87118 0.0
H64 H 0.20585 0.99599 0.75302 0.0
H65 H 0.07095 0.8949 0.8046 0.0
C66 C 0.80218 0.43634 0.63344 0.0
C67 C 0.81008 0.44192 0.66964 0.0
N68 N 0.77328 0.39913 0.68163 0.0
N69 N 0.761 0.39002 0.62254 0.0
C70 C 0.7446 0.3684 0.65257 0.0
H71 H 0.82284 0.46525 0.61613 0.0
Co72 Co 0.72432 0.36712 0.57666 0.0
C73 C 0.69158 0.42904 0.58626 0.0
O74 O 0.66483 0.39541 0.60784 0.0
N75 N 0.68629 0.34455 0.53244 0.0
C76 C 0.61559 0.30098 0.49181 0.0
C77 C 0.63311 0.32349 0.52536 0.0
C78 C 0.70057 0.33527 0.503 0.0
N79 N 0.65815 0.30793 0.47806 0.0
O80 O 0.79312 0.39781 0.55761 0.0
H81 H 0.60834 0.32196 0.54421 0.0
H82 H 0.74094 0.34632 0.50051 0.0
O83 O 0.72589 0.42668 0.57137 0.0
C84 C 0.83687 0.40131 0.56935 0.0
O85 O 0.83916 0.37929 0.5977 0.0
N86 N 0.71563 0.30497 0.58059 0.0
C87 C 0.65802 0.20289 0.56354 0.0
C88 C 0.64088 0.22336 0.58661 0.0
C89 C 0.6693 0.27428 0.59385 0.0
C90 C 0.73587 0.28553 0.5607 0.0
C91 C 0.70762 0.23456 0.5519 0.0
H92 H 0.65055 0.28957 0.60657 0.0
H93 H 0.76998 0.30896 0.54763 0.0
H94 H 0.71046 0.33161 0.6533 0.0
H95 H 0.83813 0.4759 0.68563 0.0
H96 H 0.5745 0.27906 0.47931 0.0
H97 H 0.60345 0.20076 0.59687 0.0
H98 H 0.7223 0.22094 0.53351 0.0
C99 C 0.65321 0.3748 0.03646 0.0
C100 C 0.64953 0.37433 1.00038 0.0
N101 N 0.6876 0.36866 0.99058 0.0
N102 N 0.69287 0.36866 0.04945 0.0
C103 C 0.71299 0.36513 0.02079 0.0
H104 H 0.63042 0.38205 0.05236 0.0
Co105 Co 0.72267 0.37798 0.09672 0.0
C106 C 0.76221 0.47423 0.08978 0.0
O107 O 0.79108 0.46688 0.07061 0.0
N108 N 0.75356 0.38876 0.14278 0.0
C109 C 0.81475 0.41317 0.18994 0.0
C110 C 0.80571 0.42028 0.15506 0.0
C111 C 0.73161 0.36327 0.17029 0.0
N112 N 0.76788 0.37716 0.19927 0.0
O113 O 0.65048 0.3403 0.11102 0.0
H114 H 0.83542 0.44547 0.13928 0.0
H115 H 0.69037 0.33306 0.16868 0.0
O116 O 0.72381 0.43724 0.10209 0.0
C117 C 0.60626 0.30135 0.09783 0.0
O118 O 0.60434 0.27762 0.06934 0.0
N119 N 0.72855 0.32311 0.09291 0.0
C120 C 0.77638 0.27003 0.10893 0.0
C121 C 0.80098 0.31212 0.09003 0.0
C122 C 0.77693 0.33849 0.083 0.0
C123 C 0.70214 0.28037 0.1094 0.0
C124 C 0.72522 0.25303 0.11732 0.0
H125 H 0.79984 0.37436 0.07291 0.0
H126 H 0.66628 0.26969 0.12021 0.0
H127 H 0.74721 0.3623 0.02197 0.0
H128 H 0.62318 0.3809 0.98303 0.0
H129 H 0.85276 0.43247 0.20691 0.0
H130 H 0.84034 0.32667 0.08286 0.0
H131 H 0.70521 0.22141 0.13267 0.0
C132 C 0.52559 0.79683 0.98802 0.0
C133 C 0.53012 0.79473 0.02396 0.0
N134 N 0.48972 0.75039 0.0314 0.0
N135 N 0.48328 0.75355 0.97258 0.0
C136 C 0.462 0.72634 0.99985 0.0
H137 H 0.54972 0.8291 0.97418 0.0
Co138 Co 0.45228 0.74213 0.92524 0.0
C139 C 0.40934 0.7936 0.93607 0.0
O140 O 0.37599 0.75098 0.94799 0.0
N141 N 0.42015 0.73187 0.87947 0.0
C142 C 0.35799 0.70557 0.8328 0.0
C143 C 0.36954 0.69621 0.86649 0.0
C144 C 0.43841 0.7627 0.85366 0.0
N145 N 0.4014 0.74757 0.82492 0.0
O146 O 0.52366 0.7788 0.90949 0.0
H147 H 0.34218 0.66638 0.88102 0.0
H148 H 0.47707 0.79701 0.8566 0.0
O149 O 0.45334 0.80144 0.92869 0.0
C150 C 0.56729 0.78143 0.91997 0.0
O151 O 0.56893 0.75532 0.94579 0.0
N152 N 0.4452 0.68063 0.92015 0.0
C153 C 0.40117 0.58265 0.89555 0.0
C154 C 0.37799 0.59417 0.92025 0.0
C155 C 0.40019 0.64333 0.93175 0.0
C156 C 0.46942 0.66989 0.89697 0.0
C157 C 0.44869 0.62116 0.885 0.0
H158 H 0.37743 0.65189 0.94654 0.0
H159 H 0.50143 0.69848 0.8845 0.0
H160 H 0.42521 0.69065 0.99701 0.0
H161 H 0.5586 0.82483 0.04312 0.0
H162 H 0.32049 0.68336 0.81556 0.0
H163 H 0.34027 0.56604 0.9282 0.0
H164 H 0.46779 0.6141 0.86573 0.0
C165 C 0.28548 0.66377 0.36338 0.0
C166 C 0.27954 0.65957 0.32728 0.0
N167 N 0.32432 0.66596 0.3176 0.0
N168 N 0.33315 0.67126 0.37682 0.0
C169 C 0.3562 0.67345 0.34806 0.0
H170 H 0.25785 0.66433 0.37868 0.0
Co171 Co 0.36524 0.69049 0.42426 0.0
C172 C 0.40254 0.78301 0.41156 0.0
O173 O 0.43333 0.77303 0.39685 0.0
N174 N 0.3977 0.71188 0.46994 0.0
C175 C 0.45872 0.74578 0.5173 0.0
C176 C 0.44823 0.727 0.48304 0.0
C177 C 0.37843 0.7222 0.49616 0.0
N178 N 0.41469 0.74282 0.52538 0.0
O179 O 0.29372 0.65085 0.44057 0.0
H180 H 0.47595 0.72552 0.46838 0.0
H181 H 0.3393 0.7167 0.49327 0.0
O182 O 0.36089 0.74732 0.42221 0.0
C183 C 0.25514 0.60628 0.43114 0.0
O184 O 0.26046 0.58076 0.40723 0.0
N185 N 0.37665 0.63829 0.42779 0.0
C186 C 0.42619 0.58717 0.44691 0.0
C187 C 0.44314 0.62034 0.42054 0.0
C188 C 0.41857 0.64607 0.41196 0.0
C189 C 0.35912 0.60555 0.45331 0.0
C190 C 0.38254 0.57892 0.46265 0.0
H191 H 0.43761 0.67652 0.39577 0.0
H192 H 0.33057 0.60302 0.46915 0.0
H193 H 0.3973 0.68487 0.34908 0.0
H194 H 0.24568 0.65427 0.30965 0.0
H195 H 0.49585 0.76044 0.53479 0.0
H196 H 0.47818 0.62974 0.40879 0.0
H197 H 0.36853 0.55426 0.48355 0.0
C198 C 0.25479 0.15028 0.20199 0.0
C199 C 0.24498 0.1145 0.22619 0.0
C200 C 0.30085 0.17183 0.1853 0.0
C201 C 0.33728 0.15711 0.19193 0.0
C202 C 0.32677 0.12079 0.2156 0.0
C203 C 0.28173 0.1003 0.23289 0.0
C204 C 0.38501 0.17667 0.17339 0.0
C205 C 0.41518 0.22394 0.16527 0.0
C206 C 0.46424 0.24303 0.14812 0.0
C207 C 0.50773 0.29194 0.15639 0.0
C208 C 0.55417 0.31076 0.14057 0.0
C209 C 0.55766 0.28144 0.11537 0.0
H210 H 0.43473 0.17617 0.11536 0.0
C211 C 0.51379 0.23272 0.10672 0.0
C212 C 0.46782 0.21365 0.12301 0.0
H213 H 0.51497 0.20907 0.0874 0.0
H214 H 0.22716 0.16191 0.19622 0.0
H215 H 0.30724 0.19906 0.16666 0.0
H216 H 0.3538 0.1084 0.22098 0.0
H217 H 0.27524 0.07256 0.25111 0.0
H218 H 0.39784 0.15184 0.1685 0.0
H219 H 0.40564 0.25014 0.17337 0.0
H220 H 0.50601 0.31554 0.17547 0.0
H221 H 0.58705 0.34849 0.14774 0.0
C222 C 0.97448 0.13352 0.24442 0.0
C223 C 1.0215 0.14051 0.23447 0.0
C224 C 0.95026 0.15608 0.22736 0.0
C225 C 0.97245 0.18626 0.19984 0.0
C226 C 1.02111 0.19564 0.19124 0.0
C227 C 1.04527 0.17273 0.20821 0.0
C228 C 0.94591 0.20872 0.18009 0.0
C229 C 0.89231 0.18675 0.17477 0.0
C230 C 0.8644 0.20863 0.15594 0.0
C231 C 0.80996 0.17767 0.14235 0.0
C232 C 0.78151 0.19716 0.12631 0.0
C233 C 0.80683 0.24823 0.12366 0.0
H234 H 0.93108 0.28511 0.16429 0.0
C235 C 0.86138 0.27917 0.13724 0.0
C236 C 0.88979 0.25971 0.15316 0.0
H237 H 0.88193 0.31883 0.13673 0.0
H238 H 0.95535 0.10941 0.26483 0.0
H239 H 0.914 0.14958 0.23574 0.0
H240 H 1.03955 0.21944 0.17053 0.0
H241 H 0.08151 0.17898 0.19994 0.0
H242 H 0.97117 0.24289 0.16825 0.0
H243 H 0.86728 0.15024 0.18379 0.0
H244 H 0.78921 0.1382 0.14435 0.0
H245 H 0.73965 0.17224 0.11613 0.0
C246 C 0.77408 0.53555 0.13592 0.0
C247 C 0.78177 0.52521 0.10241 0.0
C248 C 0.80162 0.58431 0.15054 0.0
C249 C 0.83692 0.62353 0.13168 0.0
C250 C 0.84157 0.61318 0.0973 0.0
C251 C 0.81482 0.56456 0.08297 0.0
C252 C 0.87048 0.67549 0.14693 0.0
C253 C 0.88894 0.68835 0.18154 0.0
C254 C 0.9266 0.74043 0.1962 0.0
C255 C 0.92822 0.75286 0.23158 0.0
C256 C 0.96214 0.80165 0.24595 0.0
C257 C 0.99581 0.83905 0.22534 0.0
H258 H 0.96344 0.76938 0.14902 0.0
C259 C 0.99575 0.82621 0.19034 0.0
C260 C 0.96177 0.77755 0.17597 0.0
H261 H 1.02071 0.85409 0.17355 0.0
H262 H 0.74898 0.50591 0.15156 0.0
H263 H 0.79572 0.59102 0.17669 0.0
H264 H 0.8679 0.64268 0.08201 0.0
H265 H 0.82138 0.55768 0.05704 0.0
H266 H 0.88285 0.70393 0.12846 0.0
H267 H 0.87634 0.6599 0.20003 0.0
H268 H 0.9023 0.72493 0.24798 0.0
H269 H 0.96154 0.81023 0.27309 0.0
C270 C 0.20761 0.24019 0.76836 0.0
C271 C 0.16046 0.201 0.77894 0.0
C272 C 0.2331 0.2876 0.78472 0.0
C273 C 0.21167 0.29736 0.8119 0.0
C274 C 0.16349 0.25844 0.82166 0.0
C275 C 0.13807 0.21078 0.80534 0.0
C276 C 0.24003 0.34652 0.83208 0.0
C277 C 0.27959 0.38842 0.82066 0.0
C278 C 0.31036 0.43736 0.84111 0.0
C279 C 0.33925 0.47968 0.82295 0.0
C280 C 0.36945 0.52646 0.84074 0.0
C281 C 0.37204 0.53228 0.87737 0.0
H282 H 0.29329 0.41129 0.89315 0.0
C283 C 0.34382 0.48991 0.89577 0.0
C284 C 0.31348 0.44292 0.8779 0.0
H285 H 0.34536 0.49306 0.92404 0.0
H286 H 0.22622 0.23398 0.74827 0.0
H287 H 0.27068 0.31564 0.77675 0.0
H288 H 0.14604 0.26464 0.84256 0.0
H289 H 0.10195 0.18136 0.81428 0.0
H290 H 0.22713 0.34795 0.85702 0.0
H291 H 0.28934 0.38779 0.79446 0.0
H292 H 0.33796 0.47666 0.79468 0.0
H293 H 0.38964 0.5582 0.82551 0.0
C294 C 0.66348 0.8157 0.91437 0.0
C295 C 0.61451 0.80984 0.90108 0.0
C296 C 0.70742 0.84013 0.89593 0.0
C297 C 0.70359 0.85943 0.86361 0.0
C298 C 0.6547 0.85377 0.85044 0.0
C299 C 0.61083 0.82961 0.86902 0.0
C300 C 0.74835 0.88276 0.84194 0.0
C301 C 0.80037 0.90372 0.85526 0.0
C302 C 0.84479 0.92482 0.83333 0.0
C303 C 0.89714 0.96026 0.84906 0.0
C304 C 0.94018 0.97932 0.82977 0.0
C305 C 0.93204 0.9628 0.79432 0.0
H306 H 0.79734 0.88025 0.78485 0.0
C307 C 0.87969 0.92722 0.7786 0.0
C308 C 0.83664 0.90847 0.79779 0.0
H309 H 0.87186 0.91345 0.75139 0.0
H310 H 0.66779 0.80078 0.9389 0.0
H311 H 0.74367 0.84237 0.90665 0.0
H312 H 0.65026 0.8678 0.8255 0.0
H313 H 0.57376 0.82559 0.85784 0.0
H314 H 0.73779 0.88364 0.81402 0.0
H315 H 0.8115 0.90696 0.88356 0.0
H316 H 0.90485 0.97326 0.87645 0.0
H317 H 0.97992 1.0065 0.84281 0.0
C318 C 0.22678 0.95373 0.81197 0.0
C319 C 0.1729 0.92148 0.79739 0.0
C320 C 0.2553 0.93598 0.83047 0.0
C321 C 0.23073 0.88529 0.83479 0.0
C322 C 0.17696 0.853 0.8201 0.0
C323 C 0.14835 0.87082 0.8016 0.0
C324 C 0.25873 0.86505 0.85598 0.0
C325 C 0.31237 0.88889 0.86402 0.0
C326 C 0.3391 0.86774 0.88539 0.0
C327 C 0.39052 0.88105 0.87995 0.0
C328 C 0.41519 0.85929 0.898 0.0
C329 C 0.38904 0.82409 0.92216 0.0
H330 H 0.2758 0.82513 0.91713 0.0
C331 C 0.33907 0.81318 0.92919 0.0
C332 C 0.31441 0.83477 0.9111 0.0
H333 H 0.31801 0.78658 0.94788 0.0
H334 H 0.24659 0.99318 0.81026 0.0
H335 H 0.29593 0.96251 0.84225 0.0
H336 H 0.15679 0.8138 0.82318 0.0
H337 H 0.10693 0.84499 0.7908 0.0
H338 H 0.2338 0.82812 0.86436 0.0
H339 H 0.33798 0.92372 0.85307 0.0
H340 H 0.41085 0.90695 0.8607 0.0
H341 H 0.4536 0.86841 0.89183 0.0
C342 C 0.9303 0.42753 0.56166 0.0
C343 C 0.88528 0.43004 0.5515 0.0
C344 C 0.97669 0.45535 0.54593 0.0
C345 C 0.97954 0.48671 0.51957 0.0
C346 C 0.9348 0.48968 0.50966 0.0
C347 C 0.88803 0.46136 0.52516 0.0
C348 C 1.02903 0.51747 0.50279 0.0
C349 C 0.06262 0.50295 0.4982 0.0
C350 C 0.11125 0.5314 0.48041 0.0
C351 C 0.12757 0.50509 0.46252 0.0
C352 C 0.17375 0.52965 0.44641 0.0
C353 C 0.20592 0.58146 0.44838 0.0
H354 H 0.1323 0.60486 0.49656 0.0
C355 C 0.19025 0.60815 0.46673 0.0
C356 C 0.14307 0.58337 0.48234 0.0
H357 H 0.21422 0.64809 0.46883 0.0
H358 H 0.92992 0.40414 0.58201 0.0
H359 H 1.01064 0.45292 0.55506 0.0
H360 H 0.93586 0.51374 0.48964 0.0
H361 H 0.85434 0.46453 0.51685 0.0
H362 H 1.03622 0.55143 0.4922 0.0
H363 H 1.0523 0.46672 0.50576 0.0
H364 H 0.10428 0.46514 0.46083 0.0
H365 H 0.18465 0.50777 0.43279 0.0
C366 C 0.67637 0.47646 0.53981 0.0
C367 C 0.67346 0.46179 0.5744 0.0
C368 C 0.64988 0.4992 0.52663 0.0
C369 C 0.62053 0.50814 0.548 0.0
C370 C 0.62078 0.49642 0.58321 0.0
C371 C 0.64636 0.47295 0.59615 0.0
C372 C 0.58837 0.52867 0.53455 0.0
C373 C 0.56342 0.51932 0.50115 0.0
C374 C 0.52701 0.5358 0.48804 0.0
C375 C 0.51501 0.53629 0.45156 0.0
C376 C 0.48128 0.55167 0.4381 0.0
C377 C 0.45826 0.56658 0.46081 0.0
H378 H 0.50915 0.54815 0.53891 0.0
C379 C 0.46909 0.56483 0.49727 0.0
C380 C 0.50277 0.54945 0.51073 0.0
H381 H 0.45264 0.57655 0.51564 0.0
H382 H 0.69678 0.46814 0.52239 0.0
H383 H 0.6519 0.50914 0.49966 0.0
H384 H 0.5991 0.50347 0.60037 0.0
H385 H 0.64356 0.46216 0.62294 0.0
H386 H 0.58275 0.54956 0.55363 0.0
H387 H 0.56926 0.49809 0.48243 0.0
H388 H 0.53233 0.52528 0.43336 0.0
H389 H 0.47341 0.55207 0.40986 0.0
C390 C 0.41134 0.84645 0.45468 0.0
C391 C 0.42494 0.83489 0.42398 0.0
C392 C 0.44172 0.89464 0.47078 0.0
C393 C 0.48609 0.93227 0.45625 0.0
C394 C 0.49757 0.92097 0.42457 0.0
C395 C 0.4674 0.87303 0.40861 0.0
C396 C 0.5238 0.98255 0.47427 0.0
C397 C 0.51182 1.0029 0.49916 0.0
C398 C 0.55041 0.05357 0.51612 0.0
C399 C 0.53079 0.08155 0.52657 0.0
C400 C 0.5656 0.12952 0.54202 0.0
C401 C 0.62122 0.15062 0.54839 0.0
H402 H 0.62231 0.0531 0.51569 0.0
C403 C 0.64083 0.12206 0.53856 0.0
C404 C 0.60587 0.07414 0.52255 0.0
H405 H 0.68315 0.13656 0.54338 0.0
H406 H 0.37947 0.81773 0.46753 0.0
H407 H 0.43191 0.9014 0.49545 0.0
H408 H 0.53125 0.94904 0.41265 0.0
H409 H 0.479 0.86536 0.38501 0.0
H410 H 0.56286 1.00443 0.46569 0.0
H411 H 0.47152 0.98345 0.50579 0.0
H412 H 0.48833 0.06668 0.52197 0.0
H413 H 0.54863 0.15039 0.54811 0.0
C414 C 1.02384 0.03942 0.59953 0.0
C415 C 0.06166 0.04605 0.62805 0.0
C416 C 1.03598 0.0443 0.5651 0.0
C417 C 0.08626 0.05548 0.55831 0.0
C418 C 0.12378 0.06164 0.58679 0.0
C419 C 0.11172 0.05695 0.62117 0.0
C420 C 0.10238 0.06349 0.52242 0.0
C421 C 0.0677 0.04848 0.49239 0.0
C422 C 0.08403 0.05791 0.4566 0.0
C423 C 1.04547 0.02984 0.42751 0.0
C424 C 1.05809 0.03848 0.39331 0.0
C425 C 0.10975 0.07567 0.38721 0.0
H426 H 0.1665 0.11879 0.472 0.0
C427 C 0.14847 0.10379 0.4163 0.0
C428 C 0.1358 0.09523 0.45058 0.0
H429 H 0.18865 0.1326 0.41263 0.0
H430 H 0.98484 0.03079 0.60378 0.0
H431 H 1.00616 0.04044 0.54424 0.0
H432 H 0.16299 0.07072 0.58252 0.0
H433 H 0.1424 0.06331 0.64232 0.0
H434 H 0.14469 0.08141 0.52099 0.0
H435 H 1.02513 0.02695 0.49365 0.0
H436 H 1.00513 1.00125 0.43122 0.0
H437 H 1.02677 1.01668 0.37169 0.0
C438 C 0.66545 0.36154 0.92577 0.0
C439 C 0.7026 0.37219 0.95584 0.0
C440 C 0.68053 0.3668 0.89217 0.0
C441 C 0.73316 0.38236 0.88782 0.0
C442 C 0.77022 0.39307 0.91786 0.0
C443 C 0.75521 0.388 0.95142 0.0
C444 C 0.75166 0.38993 0.85273 0.0
C445 C 0.71838 0.36844 0.82234 0.0
C446 C 0.73539 0.37635 0.78672 0.0
C447 C 0.69681 0.34728 0.75793 0.0
C448 C 0.70937 0.35422 0.72373 0.0
C449 C 0.76118 0.39046 0.71724 0.0
H450 H 0.81859 0.43651 0.80143 0.0
C451 C 0.80014 0.41932 0.74603 0.0
C452 C 0.78747 0.41257 0.78037 0.0
H453 H 0.84047 0.44737 0.74207 0.0
H454 H 0.62465 0.34925 0.92817 0.0
H455 H 0.65096 0.35964 0.86994 0.0
H456 H 0.81116 0.40571 0.91541 0.0
H457 H 0.78539 0.39768 0.97385 0.0
H458 H 0.7944 0.41294 0.85249 0.0
H459 H 0.6761 0.34273 0.82331 0.0
H460 H 0.65629 0.31937 0.7618 0.0
H461 H 0.67774 0.33186 0.70242 0.0
C462 C 0.37802 0.66271 0.27471 0.0
C463 C 0.33817 0.67021 0.28241 0.0
C464 C 0.39267 0.66842 0.24091 0.0
C465 C 0.36782 0.68194 0.21402 0.0
C466 C 0.32725 0.68833 0.22152 0.0
C467 C 0.31276 0.6828 0.25527 0.0
C468 C 0.3821 0.68891 0.17772 0.0
C469 C 0.42993 0.70064 0.16978 0.0
C470 C 0.44456 0.71084 0.13362 0.0
C471 C 0.49851 0.74245 0.12942 0.0
C472 C 0.51343 0.75474 0.09591 0.0
C473 C 0.47473 0.73521 0.06577 0.0
H474 H 0.36418 0.66407 0.10537 0.0
C475 C 0.42089 0.70209 0.06992 0.0
C476 C 0.40598 0.6899 0.1034 0.0
H477 H 0.38986 0.68644 0.04744 0.0
H478 H 0.39763 0.65194 0.29472 0.0
H479 H 0.42287 0.66153 0.23595 0.0
H480 H 0.30718 0.69846 0.2013 0.0
H481 H 0.28234 0.68942 0.26012 0.0
H482 H 0.35308 0.68759 0.15719 0.0
H483 H 0.46096 0.70665 0.19071 0.0
H484 H 0.52917 0.75858 0.15219 0.0
H485 H 0.55529 0.7797 0.09361 0.0
C486 C 0.07374 0.97256 0.10989 0.0
C487 C 1.03299 0.98107 0.11234 0.0
C488 C 0.08234 0.96159 0.07722 0.0
C489 C 1.05028 0.95899 0.04644 0.0
C490 C 1.00701 0.96362 0.04914 0.0
C491 C 0.99856 0.97483 0.0818 0.0
C492 C 0.06387 0.95657 0.01109 0.0
C493 C 0.11492 0.98056 1.00491 0.0
C494 C 0.12898 0.99389 0.96922 0.0
C495 C 0.1739 0.04058 0.96538 0.0
C496 C 0.1827 0.05844 0.93214 0.0
C497 C 0.1469 0.02962 0.90219 0.0
H498 H 0.06177 0.92656 0.94115 0.0
C499 C 0.10455 0.98123 0.90583 0.0
C500 C 0.09565 0.96346 0.93906 0.0
H501 H 0.07751 0.95745 0.88308 0.0
H502 H 0.09963 0.97521 0.13314 0.0
H503 H 0.11486 0.95644 0.07605 0.0
H504 H 0.98154 0.96142 0.02574 0.0
H505 H 0.9667 0.98091 0.08288 0.0
H506 H 1.03181 0.94285 0.98912 0.0
H507 H 0.14717 0.99874 0.02679 0.0
H508 H 0.20038 0.06453 0.98829 0.0
H509 H 0.21582 0.09573 0.93013 0.0
C510 C 0.70679 0.33386 0.24242 0.0
C511 C 0.75772 0.35533 0.23233 0.0
C512 C 0.69583 0.31178 0.27401 0.0
C513 C 0.73563 0.31045 0.29635 0.0
C514 C 0.78671 0.33212 0.28642 0.0
C515 C 0.79767 0.35421 0.25456 0.0
C516 C 0.72682 0.29313 0.33205 0.0
C517 C 0.67778 0.26188 0.34072 0.0
C518 C 0.66737 0.26274 0.37715 0.0
C519 C 0.62327 0.26469 0.38271 0.0
C520 C 0.61897 0.27766 0.41619 0.0
C521 C 0.65843 0.28819 0.44465 0.0
H522 H 0.73781 0.26612 0.40254 0.0
C523 C 0.69971 0.28137 0.43956 0.0
C524 C 0.70428 0.26892 0.40605 0.0
H525 H 0.72944 0.28704 0.46125 0.0
H526 H 0.67558 0.33524 0.2263 0.0
H527 H 0.65676 0.29788 0.28135 0.0
H528 H 0.81832 0.33245 0.30354 0.0
H529 H 0.83717 0.37014 0.24729 0.0
H530 H 0.76121 0.31184 0.35249 0.0
H531 H 0.64337 0.24299 0.32035 0.0
H532 H 0.59422 0.25982 0.36072 0.0
H533 H 0.58649 0.28217 0.41931 0.0
C534 C 0.4514 0.79399 0.58172 0.0
C535 C 0.40734 0.75798 0.55826 0.0
C536 C 0.44461 0.80557 0.61487 0.0
C537 C 0.39333 0.78138 0.62519 0.0
C538 C 0.34914 0.74728 0.60096 0.0
C539 C 0.356 0.73565 0.56792 0.0
C540 C 0.38448 0.78492 0.662 0.0
C541 C 0.42256 0.81685 0.68782 0.0
C542 C 0.41737 0.80711 0.72526 0.0
C543 C 0.46275 0.81729 0.74806 0.0
C544 C 0.45782 0.79932 0.78137 0.0
C545 C 0.40737 0.77117 0.79252 0.0
H546 H 0.33208 0.77594 0.7211 0.0
C547 C 0.3626 0.7646 0.77084 0.0
C548 C 0.36755 0.78264 0.73755 0.0
H549 H 0.32356 0.74457 0.77929 0.0
H550 H 0.49135 0.81258 0.57477 0.0
H551 H 0.48009 0.8318 0.6325 0.0
H552 H 0.30923 0.72787 0.60815 0.0
H553 H 0.32116 0.70753 0.55061 0.0
H554 H 0.34622 0.75565 0.66877 0.0
H555 H 0.46136 0.84598 0.68192 0.0
H556 H 0.50163 0.83638 0.73928 0.0
H557 H 0.49311 0.80518 0.79752 0.0
loop_
_geom_bond_atom_site_label_1
_geom_bond_atom_site_label_2
_geom_bond_distance
_geom_bond_site_symmetry_2
_ccdc_geom_bond_type
C0 C1 1.351 . S
C0 N3 1.368 . S
C0 H5 0.931 . S
C1 C0 1.351 . S
C1 N2 1.373 . S
C1 H29 0.930 . S
N2 C1 1.373 . S
N2 C4 1.340 . S
N3 C0 1.368 . S
N3 C4 1.321 . S
N3 Co6 2.135 . S
C4 N2 1.340 . S
C4 N3 1.321 . S
C4 H28 0.930 . S
H5 C0 0.931 . S
Co6 N3 2.135 . S
Co6 N9 2.121 . S
Co6 O14 2.055 . S
Co6 O17 2.039 . S
Co6 N20 2.140 1_445 S
C7 O8 1.227 . S
C7 O17 1.265 1_655 S
O8 C7 1.227 . S
N9 Co6 2.121 . S
N9 C11 1.375 1_455 S
N9 C12 1.313 . S
C10 C11 1.338 . S
C10 N13 1.377 1_655 S
C10 H30 0.930 . S
C11 N9 1.375 1_655 S
C11 C10 1.338 . S
C11 H15 0.931 . S
C12 N9 1.313 . S
C12 N13 1.344 . S
C12 H16 0.930 . S
N13 C10 1.377 1_455 S
N13 C12 1.344 . S
O14 Co6 2.055 . S
O14 C18 1.253 . S
H15 C11 0.931 . S
H16 C12 0.930 . S
O17 Co6 2.039 . S
O17 C7 1.265 1_455 S
C18 O14 1.253 . S
C18 O19 1.227 . S
O19 C18 1.227 . S
N20 Co6 2.140 1_665 S
N20 C23 1.346 . S
N20 C24 1.345 . S
C21 C22 1.387 . S
C21 C25 1.391 . S
C22 C21 1.387 . S
C22 C23 1.369 . S
C22 H31 0.929 . S
C23 N20 1.346 . S
C23 C22 1.369 . S
C23 H26 0.928 . S
C24 N20 1.345 . S
C24 C25 1.371 . S
C24 H27 0.931 1_655 S
C25 C21 1.391 . S
C25 C24 1.371 . S
C25 H32 0.930 . S
H26 C23 0.928 . S
H27 C24 0.931 1_455 S
H28 C4 0.930 . S
H29 C1 0.930 . S
H30 C10 0.930 . S
H31 C22 0.929 . S
H32 C25 0.930 . S
C33 C34 1.351 . S
C33 N36 1.368 1_565 S
C33 H38 0.931 . S
C34 C33 1.351 . S
C34 N35 1.373 1_565 S
C34 H62 0.930 . S
N35 C34 1.373 1_545 S
N35 C37 1.340 1_655 S
N36 C33 1.368 1_545 S
N36 C37 1.321 1_655 S
N36 Co39 2.135 . S
C37 N35 1.340 1_455 S
C37 N36 1.321 1_455 S
C37 H61 0.930 . S
H38 C33 0.931 . S
Co39 N36 2.135 . S
Co39 N42 2.121 1_655 S
Co39 O47 2.055 1_545 S
Co39 O50 2.039 1_655 S
Co39 N53 2.140 1_645 S
C40 O41 1.227 . S
C40 O50 1.265 . S
O41 C40 1.227 . S
N42 Co39 2.121 1_455 S
N42 C44 1.375 . S
N42 C45 1.313 1_455 S
C43 C44 1.338 . S
C43 N46 1.377 . S
C43 H63 0.930 . S
C44 N42 1.375 . S
C44 C43 1.338 . S
C44 H48 0.931 . S
C45 N42 1.313 1_655 S
C45 N46 1.344 1_655 S
C45 H49 0.930 1_545 S
N46 C43 1.377 . S
N46 C45 1.344 1_455 S
O47 Co39 2.055 1_565 S
O47 C51 1.253 . S
H48 C44 0.931 . S
H49 C45 0.930 1_565 S
O50 Co39 2.039 1_455 S
O50 C40 1.265 . S
C51 O47 1.253 . S
C51 O52 1.227 . S
O52 C51 1.227 . S
N53 Co39 2.140 1_465 S
N53 C56 1.346 . S
N53 C57 1.345 . S
C54 C55 1.387 . S
C54 C58 1.391 . S
C55 C54 1.387 . S
C55 C56 1.369 . S
C55 H64 0.929 . S
C56 N53 1.346 . S
C56 C55 1.369 . S
C56 H59 0.928 1_565 S
C57 N53 1.345 . S
C57 C58 1.371 . S
C57 H60 0.931 . S
C58 C54 1.391 . S
C58 C57 1.371 . S
C58 H65 0.930 . S
H59 C56 0.928 1_545 S
H60 C57 0.931 . S
H61 C37 0.930 . S
H62 C34 0.930 . S
H63 C43 0.930 . S
H64 C55 0.929 . S
H65 C58 0.930 . S
C66 C67 1.351 . S
C66 N69 1.368 . S
C66 H71 0.931 . S
C67 C66 1.351 . S
C67 N68 1.373 . S
C67 H95 0.930 . S
N68 C67 1.373 . S
N68 C70 1.340 . S
N69 C66 1.368 . S
N69 C70 1.321 . S
N69 Co72 2.135 . S
C70 N68 1.340 . S
C70 N69 1.321 . S
C70 H94 0.930 . S
H71 C66 0.931 . S
Co72 N69 2.135 . S
Co72 N75 2.121 . S
Co72 O80 2.055 . S
Co72 O83 2.039 . S
Co72 N86 2.140 . S
C73 O74 1.227 . S
C73 O83 1.265 . S
O74 C73 1.227 . S
N75 Co72 2.121 . S
N75 C77 1.375 . S
N75 C78 1.313 . S
C76 C77 1.338 . S
C76 N79 1.377 . S
C76 H96 0.930 . S
C77 N75 1.375 . S
C77 C76 1.338 . S
C77 H81 0.931 . S
C78 N75 1.313 . S
C78 N79 1.344 . S
C78 H82 0.930 . S
N79 C76 1.377 . S
N79 C78 1.344 . S
O80 Co72 2.055 . S
O80 C84 1.253 . S
H81 C77 0.931 . S
H82 C78 0.930 . S
O83 Co72 2.039 . S
O83 C73 1.265 . S
C84 O80 1.253 . S
C84 O85 1.227 . S
O85 C84 1.227 . S
N86 Co72 2.140 . S
N86 C89 1.346 . S
N86 C90 1.345 . S
C87 C88 1.387 . S
C87 C91 1.391 . S
C88 C87 1.387 . S
C88 C89 1.369 . S
C88 H97 0.929 . S
C89 N86 1.346 . S
C89 C88 1.369 . S
C89 H92 0.928 . S
C90 N86 1.345 . S
C90 C91 1.371 . S
C90 H93 0.931 . S
C91 C87 1.391 . S
C91 C90 1.371 . S
C91 H98 0.930 . S
H92 C89 0.928 . S
H93 C90 0.931 . S
H94 C70 0.930 . S
H95 C67 0.930 . S
H96 C76 0.930 . S
H97 C88 0.929 . S
H98 C91 0.930 . S
C99 C100 1.351 . S
C99 N102 1.368 . S
C99 H104 0.931 . S
C100 C99 1.351 . S
C100 N101 1.373 . S
C100 H128 0.930 1_554 S
N101 C100 1.373 . S
N101 C103 1.340 . S
N102 C99 1.368 . S
N102 C103 1.321 . S
N102 Co105 2.135 . S
C103 N101 1.340 . S
C103 N102 1.321 . S
C103 H127 0.930 . S
H104 C99 0.931 . S
Co105 N102 2.135 . S
Co105 N108 2.121 . S
Co105 O113 2.055 . S
Co105 O116 2.039 . S
Co105 N119 2.140 . S
C106 O107 1.227 . S
C106 O116 1.265 . S
O107 C106 1.227 . S
N108 Co105 2.121 . S
N108 C110 1.375 . S
N108 C111 1.313 . S
C109 C110 1.338 . S
C109 N112 1.377 . S
C109 H129 0.930 . S
C110 N108 1.375 . S
C110 C109 1.338 . S
C110 H114 0.931 . S
C111 N108 1.313 . S
C111 N112 1.344 . S
C111 H115 0.930 . S
N112 C109 1.377 . S
N112 C111 1.344 . S
O113 Co105 2.055 . S
O113 C117 1.253 . S
H114 C110 0.931 . S
H115 C111 0.930 . S
O116 Co105 2.039 . S
O116 C106 1.265 . S
C117 O113 1.253 . S
C117 O118 1.227 . S
O118 C117 1.227 . S
N119 Co105 2.140 . S
N119 C122 1.346 . S
N119 C123 1.345 . S
C120 C121 1.387 . S
C120 C124 1.391 . S
C121 C120 1.387 . S
C121 C122 1.369 . S
C121 H130 0.929 . S
C122 N119 1.346 . S
C122 C121 1.369 . S
C122 H125 0.928 . S
C123 N119 1.345 . S
C123 C124 1.371 . S
C123 H126 0.931 . S
C124 C120 1.391 . S
C124 C123 1.371 . S
C124 H131 0.930 . S
H125 C122 0.928 . S
H126 C123 0.931 . S
H127 C103 0.930 . S
H128 C100 0.930 1_556 S
H129 C109 0.930 . S
H130 C121 0.929 . S
H131 C124 0.930 . S
C132 C133 1.351 . S
C132 N135 1.368 . S
C132 H137 0.931 . S
C133 C132 1.351 . S
C133 N134 1.373 . S
C133 H161 0.930 1_556 S
N134 C133 1.373 . S
N134 C136 1.340 . S
N135 C132 1.368 . S
N135 C136 1.321 . S
N135 Co138 2.135 . S
C136 N134 1.340 . S
C136 N135 1.321 . S
C136 H160 0.930 . S
H137 C132 0.931 . S
Co138 N135 2.135 . S
Co138 N141 2.121 . S
Co138 O146 2.055 . S
Co138 O149 2.039 . S
Co138 N152 2.140 . S
C139 O140 1.227 . S
C139 O149 1.265 . S
O140 C139 1.227 . S
N141 Co138 2.121 . S
N141 C143 1.375 . S
N141 C144 1.313 . S
C142 C143 1.338 . S
C142 N145 1.377 . S
C142 H162 0.930 . S
C143 N141 1.375 . S
C143 C142 1.338 . S
C143 H147 0.931 . S
C144 N141 1.313 . S
C144 N145 1.344 . S
C144 H148 0.930 . S
N145 C142 1.377 . S
N145 C144 1.344 . S
O146 Co138 2.055 . S
O146 C150 1.253 . S
H147 C143 0.931 . S
H148 C144 0.930 . S
O149 Co138 2.039 . S
O149 C139 1.265 . S
C150 O146 1.253 . S
C150 O151 1.227 . S
O151 C150 1.227 . S
N152 Co138 2.140 . S
N152 C155 1.346 . S
N152 C156 1.345 . S
C153 C154 1.387 . S
C153 C157 1.391 . S
C154 C153 1.387 . S
C154 C155 1.369 . S
C154 H163 0.929 . S
C155 N152 1.346 . S
C155 C154 1.369 . S
C155 H158 0.928 . S
C156 N152 1.345 . S
C156 C157 1.371 . S
C156 H159 0.931 . S
C157 C153 1.391 . S
C157 C156 1.371 . S
C157 H164 0.930 . S
H158 C155 0.928 . S
H159 C156 0.931 . S
H160 C136 0.930 . S
H161 C133 0.930 1_554 S
H162 C142 0.930 . S
H163 C154 0.929 . S
H164 C157 0.930 . S
C165 C166 1.351 . S
C165 N168 1.368 . S
C165 H170 0.931 . S
C166 C165 1.351 . S
C166 N167 1.373 . S
C166 H194 0.930 . S
N167 C166 1.373 . S
N167 C169 1.340 . S
N168 C165 1.368 . S
N168 C169 1.321 . S
N168 Co171 2.135 . S
C169 N167 1.340 . S
C169 N168 1.321 . S
C169 H193 0.930 . S
H170 C165 0.931 . S
Co171 N168 2.135 . S
Co171 N174 2.121 . S
Co171 O179 2.055 . S
Co171 O182 2.039 . S
Co171 N185 2.140 . S
C172 O173 1.227 . S
C172 O182 1.265 . S
O173 C172 1.227 . S
N174 Co171 2.121 . S
N174 C176 1.375 . S
N174 C177 1.313 . S
C175 C176 1.338 . S
C175 N178 1.377 . S
C175 H195 0.930 . S
C176 N174 1.375 . S
C176 C175 1.338 . S
C176 H180 0.931 . S
C177 N174 1.313 . S
C177 N178 1.344 . S
C177 H181 0.930 . S
N178 C175 1.377 . S
N178 C177 1.344 . S
O179 Co171 2.055 . S
O179 C183 1.253 . S
H180 C176 0.931 . S
H181 C177 0.930 . S
O182 Co171 2.039 . S
O182 C172 1.265 . S
C183 O179 1.253 . S
C183 O184 1.227 . S
O184 C183 1.227 . S
N185 Co171 2.140 . S
N185 C188 1.346 . S
N185 C189 1.345 . S
C186 C187 1.387 . S
C186 C190 1.391 . S
C187 C186 1.387 . S
C187 C188 1.369 . S
C187 H196 0.929 . S
C188 N185 1.346 . S
C188 C187 1.369 . S
C188 H191 0.928 . S
C189 N185 1.345 . S
C189 C190 1.371 . S
C189 H192 0.931 . S
C190 C186 1.391 . S
C190 C189 1.371 . S
C190 H197 0.930 . S
H191 C188 0.928 . S
H192 C189 0.931 . S
H193 C169 0.930 . S
H194 C166 0.930 . S
H195 C175 0.930 . S
H196 C187 0.929 . S
H197 C190 0.930 . S
C198 C199 1.386 . S
C198 C200 1.383 . S
C198 H214 0.951 . S
C199 C198 1.386 . S
C199 C203 1.383 . S
C200 C198 1.383 . S
C200 C201 1.402 . S
C200 H215 0.951 . S
C201 C200 1.402 . S
C201 C202 1.375 . S
C201 C204 1.481 . S
C202 C201 1.375 . S
C202 C203 1.367 . S
C202 H216 0.951 . S
C203 C199 1.383 . S
C203 C202 1.367 . S
C203 H217 0.950 . S
C204 C201 1.481 . S
C204 C205 1.297 . S
C204 H218 0.950 . S
C205 C204 1.297 . S
C205 C206 1.479 . S
C205 H219 0.950 . S
C206 C205 1.479 . S
C206 C207 1.375 . S
C206 C212 1.404 . S
C207 C206 1.375 . S
C207 C208 1.369 . S
C207 H220 0.950 . S
C208 C207 1.369 . S
C208 C209 1.392 . S
C208 H221 0.951 . S
C209 C208 1.392 . S
C209 C211 1.384 . S
H210 C212 0.949 . S
C211 C209 1.384 . S
C211 C212 1.385 . S
C211 H213 0.950 . S
C212 C206 1.404 . S
C212 H210 0.949 . S
C212 C211 1.385 . S
H213 C211 0.950 . S
H214 C198 0.951 . S
H215 C200 0.951 . S
H216 C202 0.951 . S
H217 C203 0.950 . S
H218 C204 0.950 . S
H219 C205 0.950 . S
H220 C207 0.950 . S
H221 C208 0.951 . S
C222 C223 1.386 . S
C222 C224 1.383 . S
C222 H238 0.951 . S
C223 C222 1.386 . S
C223 C227 1.383 . S
C224 C222 1.383 . S
C224 C225 1.402 . S
C224 H239 0.951 . S
C225 C224 1.402 . S
C225 C226 1.375 . S
C225 C228 1.481 . S
C226 C225 1.375 . S
C226 C227 1.367 . S
C226 H240 0.951 . S
C227 C223 1.383 . S
C227 C226 1.367 . S
C227 H241 0.950 . S
C228 C225 1.481 . S
C228 C229 1.297 . S
C228 H242 0.950 . S
C229 C228 1.297 . S
C229 C230 1.479 . S
C229 H243 0.950 . S
C230 C229 1.479 . S
C230 C231 1.375 . S
C230 C236 1.404 . S
C231 C230 1.375 . S
C231 C232 1.369 . S
C231 H244 0.950 . S
C232 C231 1.369 . S
C232 C233 1.392 . S
C232 H245 0.951 . S
C233 C232 1.392 . S
C233 C235 1.384 . S
H234 C236 0.949 . S
C235 C233 1.384 . S
C235 C236 1.385 . S
C235 H237 0.950 . S
C236 C230 1.404 . S
C236 H234 0.949 . S
C236 C235 1.385 . S
H237 C235 0.950 . S
H238 C222 0.951 . S
H239 C224 0.951 . S
H240 C226 0.951 . S
H241 C227 0.950 . S
H242 C228 0.950 . S
H243 C229 0.950 . S
H244 C231 0.950 . S
H245 C232 0.951 . S
C246 C247 1.386 . S
C246 C248 1.383 . S
C246 H262 0.951 . S
C247 C246 1.386 . S
C247 C251 1.383 . S
C248 C246 1.383 . S
C248 C249 1.402 . S
C248 H263 0.951 . S
C249 C248 1.402 . S
C249 C250 1.375 . S
C249 C252 1.481 . S
C250 C249 1.375 . S
C250 C251 1.367 . S
C250 H264 0.951 . S
C251 C247 1.383 . S
C251 C250 1.367 . S
C251 H265 0.950 . S
C252 C249 1.481 . S
C252 C253 1.297 . S
C252 H266 0.950 . S
C253 C252 1.297 . S
C253 C254 1.479 . S
C253 H267 0.950 . S
C254 C253 1.479 . S
C254 C255 1.375 . S
C254 C260 1.404 . S
C255 C254 1.375 . S
C255 C256 1.369 . S
C255 H268 0.950 . S
C256 C255 1.369 . S
C256 C257 1.392 . S
C256 H269 0.951 . S
C257 C256 1.392 . S
C257 C259 1.384 . S
H258 C260 0.949 . S
C259 C257 1.384 . S
C259 C260 1.385 . S
C259 H261 0.950 . S
C260 C254 1.404 . S
C260 H258 0.949 . S
C260 C259 1.385 . S
H261 C259 0.950 . S
H262 C246 0.951 . S
H263 C248 0.951 . S
H264 C250 0.951 . S
H265 C251 0.950 . S
H266 C252 0.950 . S
H267 C253 0.950 . S
H268 C255 0.950 . S
H269 C256 0.951 . S
C270 C271 1.386 . S
C270 C272 1.383 . S
C270 H286 0.951 . S
C271 C270 1.386 . S
C271 C275 1.383 . S
C272 C270 1.383 . S
C272 C273 1.402 . S
C272 H287 0.951 . S
C273 C272 1.402 . S
C273 C274 1.375 . S
C273 C276 1.481 . S
C274 C273 1.375 . S
C274 C275 1.367 . S
C274 H288 0.951 . S
C275 C271 1.383 . S
C275 C274 1.367 . S
C275 H289 0.950 . S
C276 C273 1.481 . S
C276 C277 1.297 . S
C276 H290 0.950 . S
C277 C276 1.297 . S
C277 C278 1.479 . S
C277 H291 0.950 . S
C278 C277 1.479 . S
C278 C279 1.375 . S
C278 C284 1.404 . S
C279 C278 1.375 . S
C279 C280 1.369 . S
C279 H292 0.950 . S
C280 C279 1.369 . S
C280 C281 1.392 . S
C280 H293 0.951 . S
C281 C280 1.392 . S
C281 C283 1.384 . S
H282 C284 0.949 . S
C283 C281 1.384 . S
C283 C284 1.385 . S
C283 H285 0.950 . S
C284 C278 1.404 . S
C284 H282 0.949 . S
C284 C283 1.385 . S
H285 C283 0.950 . S
H286 C270 0.951 . S
H287 C272 0.951 . S
H288 C274 0.951 . S
H289 C275 0.950 . S
H290 C276 0.950 . S
H291 C277 0.950 . S
H292 C279 0.950 . S
H293 C280 0.951 . S
C294 C295 1.386 . S
C294 C296 1.383 . S
C294 H310 0.951 . S
C295 C294 1.386 . S
C295 C299 1.383 . S
C296 C294 1.383 . S
C296 C297 1.402 . S
C296 H311 0.951 . S
C297 C296 1.402 . S
C297 C298 1.375 . S
C297 C300 1.481 . S
C298 C297 1.375 . S
C298 C299 1.367 . S
C298 H312 0.951 . S
C299 C295 1.383 . S
C299 C298 1.367 . S
C299 H313 0.950 . S
C300 C297 1.481 . S
C300 C301 1.297 . S
C300 H314 0.950 . S
C301 C300 1.297 . S
C301 C302 1.479 . S
C301 H315 0.950 . S
C302 C301 1.479 . S
C302 C303 1.375 . S
C302 C308 1.404 . S
C303 C302 1.375 . S
C303 C304 1.369 . S
C303 H316 0.950 . S
C304 C303 1.369 . S
C304 C305 1.392 . S
C304 H317 0.951 . S
C305 C304 1.392 . S
C305 C307 1.384 . S
H306 C308 0.949 . S
C307 C305 1.384 . S
C307 C308 1.385 . S
C307 H309 0.950 . S
C308 C302 1.404 . S
C308 H306 0.949 . S
C308 C307 1.385 . S
H309 C307 0.950 . S
H310 C294 0.951 . S
H311 C296 0.951 . S
H312 C298 0.951 . S
H313 C299 0.950 . S
H314 C300 0.950 . S
H315 C301 0.950 . S
H316 C303 0.950 . S
H317 C304 0.951 . S
C318 C319 1.386 . S
C318 C320 1.383 . S
C318 H334 0.951 . S
C319 C318 1.386 . S
C319 C323 1.383 . S
C320 C318 1.383 . S
C320 C321 1.402 . S
C320 H335 0.951 . S
C321 C320 1.402 . S
C321 C322 1.375 . S
C321 C324 1.481 . S
C322 C321 1.375 . S
C322 C323 1.367 . S
C322 H336 0.951 . S
C323 C319 1.383 . S
C323 C322 1.367 . S
C323 H337 0.950 . S
C324 C321 1.481 . S
C324 C325 1.297 . S
C324 H338 0.950 . S
C325 C324 1.297 . S
C325 C326 1.479 . S
C325 H339 0.950 . S
C326 C325 1.479 . S
C326 C327 1.375 . S
C326 C332 1.404 . S
C327 C326 1.375 . S
C327 C328 1.369 . S
C327 H340 0.950 . S
C328 C327 1.369 . S
C328 C329 1.392 . S
C328 H341 0.951 . S
C329 C328 1.392 . S
C329 C331 1.384 . S
H330 C332 0.949 . S
C331 C329 1.384 . S
C331 C332 1.385 . S
C331 H333 0.950 . S
C332 C326 1.404 . S
C332 H330 0.949 . S
C332 C331 1.385 . S
H333 C331 0.950 . S
H334 C318 0.951 . S
H335 C320 0.951 . S
H336 C322 0.951 . S
H337 C323 0.950 . S
H338 C324 0.950 . S
H339 C325 0.950 . S
H340 C327 0.950 . S
H341 C328 0.951 . S
C342 C343 1.386 . S
C342 C344 1.383 . S
C342 H358 0.951 . S
C343 C342 1.386 . S
C343 C347 1.383 . S
C344 C342 1.383 . S
C344 C345 1.402 . S
C344 H359 0.951 . S
C345 C344 1.402 . S
C345 C346 1.375 . S
C345 C348 1.481 1_655 S
C346 C345 1.375 . S
C346 C347 1.367 . S
C346 H360 0.951 . S
C347 C343 1.383 . S
C347 C346 1.367 . S
C347 H361 0.950 . S
C348 C345 1.481 1_455 S
C348 C349 1.297 . S
C348 H362 0.950 . S
C349 C348 1.297 . S
C349 C350 1.479 . S
C349 H363 0.950 1_455 S
C350 C349 1.479 . S
C350 C351 1.375 . S
C350 C356 1.404 . S
C351 C350 1.375 . S
C351 C352 1.369 . S
C351 H364 0.950 . S
C352 C351 1.369 . S
C352 C353 1.392 . S
C352 H365 0.951 . S
C353 C352 1.392 . S
C353 C355 1.384 . S
H354 C356 0.949 . S
C355 C353 1.384 . S
C355 C356 1.385 . S
C355 H357 0.950 . S
C356 C350 1.404 . S
C356 H354 0.949 . S
C356 C355 1.385 . S
H357 C355 0.950 . S
H358 C342 0.951 . S
H359 C344 0.951 . S
H360 C346 0.951 . S
H361 C347 0.950 . S
H362 C348 0.950 . S
H363 C349 0.950 1_655 S
H364 C351 0.950 . S
H365 C352 0.951 . S
C366 C367 1.386 . S
C366 C368 1.383 . S
C366 H382 0.951 . S
C367 C366 1.386 . S
C367 C371 1.383 . S
C368 C366 1.383 . S
C368 C369 1.402 . S
C368 H383 0.951 . S
C369 C368 1.402 . S
C369 C370 1.375 . S
C369 C372 1.481 . S
C370 C369 1.375 . S
C370 C371 1.367 . S
C370 H384 0.951 . S
C371 C367 1.383 . S
C371 C370 1.367 . S
C371 H385 0.950 . S
C372 C369 1.481 . S
C372 C373 1.297 . S
C372 H386 0.950 . S
C373 C372 1.297 . S
C373 C374 1.479 . S
C373 H387 0.950 . S
C374 C373 1.479 . S
C374 C375 1.375 . S
C374 C380 1.404 . S
C375 C374 1.375 . S
C375 C376 1.369 . S
C375 H388 0.950 . S
C376 C375 1.369 . S
C376 C377 1.392 . S
C376 H389 0.951 . S
C377 C376 1.392 . S
C377 C379 1.384 . S
H378 C380 0.949 . S
C379 C377 1.384 . S
C379 C380 1.385 . S
C379 H381 0.950 . S
C380 C374 1.404 . S
C380 H378 0.949 . S
C380 C379 1.385 . S
H381 C379 0.950 . S
H382 C366 0.951 . S
H383 C368 0.951 . S
H384 C370 0.951 . S
H385 C371 0.950 . S
H386 C372 0.950 . S
H387 C373 0.950 . S
H388 C375 0.950 . S
H389 C376 0.951 . S
C390 C391 1.386 . S
C390 C392 1.383 . S
C390 H406 0.951 . S
C391 C390 1.386 . S
C391 C395 1.383 . S
C392 C390 1.383 . S
C392 C393 1.402 . S
C392 H407 0.951 . S
C393 C392 1.402 . S
C393 C394 1.375 . S
C393 C396 1.481 . S
C394 C393 1.375 . S
C394 C395 1.367 . S
C394 H408 0.951 . S
C395 C391 1.383 . S
C395 C394 1.367 . S
C395 H409 0.950 . S
C396 C393 1.481 . S
C396 C397 1.297 . S
C396 H410 0.950 . S
C397 C396 1.297 . S
C397 C398 1.479 1_565 S
C397 H411 0.950 . S
C398 C397 1.479 1_545 S
C398 C399 1.375 . S
C398 C404 1.404 . S
C399 C398 1.375 . S
C399 C400 1.369 . S
C399 H412 0.950 . S
C400 C399 1.369 . S
C400 C401 1.392 . S
C400 H413 0.951 . S
C401 C400 1.392 . S
C401 C403 1.384 . S
H402 C404 0.949 . S
C403 C401 1.384 . S
C403 C404 1.385 . S
C403 H405 0.950 . S
C404 C398 1.404 . S
C404 H402 0.949 . S
C404 C403 1.385 . S
H405 C403 0.950 . S
H406 C390 0.951 . S
H407 C392 0.951 . S
H408 C394 0.951 . S
H409 C395 0.950 . S
H410 C396 0.950 . S
H411 C397 0.950 . S
H412 C399 0.950 . S
H413 C400 0.951 . S
C414 C415 1.386 1_665 S
C414 C416 1.383 1_565 S
C414 H430 0.951 . S
C415 C414 1.386 1_445 S
C415 C419 1.383 . S
C416 C414 1.383 1_545 S
C416 C417 1.402 1_655 S
C416 H431 0.951 1_545 S
C417 C416 1.402 1_455 S
C417 C418 1.375 . S
C417 C420 1.481 . S
C418 C417 1.375 . S
C418 C419 1.367 . S
C418 H432 0.951 . S
C419 C415 1.383 . S
C419 C418 1.367 . S
C419 H433 0.950 . S
C420 C417 1.481 . S
C420 C421 1.297 1_455 S
C420 H434 0.950 . S
C421 C420 1.297 1_655 S
C421 C422 1.479 1_655 S
C421 H435 0.950 . S
C422 C421 1.479 1_455 S
C422 C423 1.375 1_455 S
C422 C428 1.404 . S
C423 C422 1.375 1_655 S
C423 C424 1.369 . S
C423 H436 0.950 1_545 S
C424 C423 1.369 . S
C424 C425 1.392 1_655 S
C424 H437 0.951 1_545 S
C425 C424 1.392 1_455 S
C425 C427 1.384 . S
H426 C428 0.949 . S
C427 C425 1.384 . S
C427 C428 1.385 . S
C427 H429 0.950 . S
C428 C422 1.404 . S
C428 H426 0.949 . S
C428 C427 1.385 . S
H429 C427 0.950 . S
H430 C414 0.951 . S
H431 C416 0.951 1_565 S
H432 C418 0.951 . S
H433 C419 0.950 . S
H434 C420 0.950 . S
H435 C421 0.950 . S
H436 C423 0.950 1_565 S
H437 C424 0.951 1_565 S
C438 C439 1.386 . S
C438 C440 1.383 . S
C438 H454 0.951 . S
C439 C438 1.386 . S
C439 C443 1.383 . S
C440 C438 1.383 . S
C440 C441 1.402 . S
C440 H455 0.951 . S
C441 C440 1.402 . S
C441 C442 1.375 . S
C441 C444 1.481 . S
C442 C441 1.375 . S
C442 C443 1.367 . S
C442 H456 0.951 . S
C443 C439 1.383 . S
C443 C442 1.367 . S
C443 H457 0.950 . S
C444 C441 1.481 . S
C444 C445 1.297 . S
C444 H458 0.950 . S
C445 C444 1.297 . S
C445 C446 1.479 . S
C445 H459 0.950 . S
C446 C445 1.479 . S
C446 C447 1.375 . S
C446 C452 1.404 . S
C447 C446 1.375 . S
C447 C448 1.369 . S
C447 H460 0.950 . S
C448 C447 1.369 . S
C448 C449 1.392 . S
C448 H461 0.951 . S
C449 C448 1.392 . S
C449 C451 1.384 . S
H450 C452 0.949 . S
C451 C449 1.384 . S
C451 C452 1.385 . S
C451 H453 0.950 . S
C452 C446 1.404 . S
C452 H450 0.949 . S
C452 C451 1.385 . S
H453 C451 0.950 . S
H454 C438 0.951 . S
H455 C440 0.951 . S
H456 C442 0.951 . S
H457 C443 0.950 . S
H458 C444 0.950 . S
H459 C445 0.950 . S
H460 C447 0.950 . S
H461 C448 0.951 . S
C462 C463 1.386 . S
C462 C464 1.383 . S
C462 H478 0.951 . S
C463 C462 1.386 . S
C463 C467 1.383 . S
C464 C462 1.383 . S
C464 C465 1.402 . S
C464 H479 0.951 . S
C465 C464 1.402 . S
C465 C466 1.375 . S
C465 C468 1.481 . S
C466 C465 1.375 . S
C466 C467 1.367 . S
C466 H480 0.951 . S
C467 C463 1.383 . S
C467 C466 1.367 . S
C467 H481 0.950 . S
C468 C465 1.481 . S
C468 C469 1.297 . S
C468 H482 0.950 . S
C469 C468 1.297 . S
C469 C470 1.479 . S
C469 H483 0.950 . S
C470 C469 1.479 . S
C470 C471 1.375 . S
C470 C476 1.404 . S
C471 C470 1.375 . S
C471 C472 1.369 . S
C471 H484 0.950 . S
C472 C471 1.369 . S
C472 C473 1.392 . S
C472 H485 0.951 . S
C473 C472 1.392 . S
C473 C475 1.384 . S
H474 C476 0.949 . S
C475 C473 1.384 . S
C475 C476 1.385 . S
C475 H477 0.950 . S
C476 C470 1.404 . S
C476 H474 0.949 . S
C476 C475 1.385 . S
H477 C475 0.950 . S
H478 C462 0.951 . S
H479 C464 0.951 . S
H480 C466 0.951 . S
H481 C467 0.950 . S
H482 C468 0.950 . S
H483 C469 0.950 . S
H484 C471 0.950 . S
H485 C472 0.951 . S
C486 C487 1.386 . S
C486 C488 1.383 . S
C486 H502 0.951 . S
C487 C486 1.386 . S
C487 C491 1.383 1_455 S
C488 C486 1.383 . S
C488 C489 1.402 . S
C488 H503 0.951 . S
C489 C488 1.402 . S
C489 C490 1.375 1_455 S
C489 C492 1.481 1_455 S
C490 C489 1.375 1_655 S
C490 C491 1.367 . S
C490 H504 0.951 . S
C491 C487 1.383 1_655 S
C491 C490 1.367 . S
C491 H505 0.950 . S
C492 C489 1.481 1_655 S
C492 C493 1.297 1_644 S
C492 H506 0.950 . S
C493 C492 1.297 1_466 S
C493 C494 1.479 1_455 S
C493 H507 0.950 . S
C494 C493 1.479 1_655 S
C494 C495 1.375 1_655 S
C494 C500 1.404 . S
C495 C494 1.375 1_455 S
C495 C496 1.369 . S
C495 H508 0.950 . S
C496 C495 1.369 . S
C496 C497 1.392 1_455 S
C496 H509 0.951 . S
C497 C496 1.392 1_655 S
C497 C499 1.384 . S
H498 C500 0.949 . S
C499 C497 1.384 . S
C499 C500 1.385 . S
C499 H501 0.950 . S
C500 C494 1.404 . S
C500 H498 0.949 . S
C500 C499 1.385 . S
H501 C499 0.950 . S
H502 C486 0.951 . S
H503 C488 0.951 . S
H504 C490 0.951 . S
H505 C491 0.950 . S
H506 C492 0.950 . S
H507 C493 0.950 . S
H508 C495 0.950 . S
H509 C496 0.951 . S
C510 C511 1.386 . S
C510 C512 1.383 . S
C510 H526 0.951 . S
C511 C510 1.386 . S
C511 C515 1.383 . S
C512 C510 1.383 . S
C512 C513 1.402 . S
C512 H527 0.951 . S
C513 C512 1.402 . S
C513 C514 1.375 . S
C513 C516 1.481 . S
C514 C513 1.375 . S
C514 C515 1.367 . S
C514 H528 0.951 . S
C515 C511 1.383 . S
C515 C514 1.367 . S
C515 H529 0.950 . S
C516 C513 1.481 . S
C516 C517 1.297 . S
C516 H530 0.950 . S
C517 C516 1.297 . S
C517 C518 1.479 . S
C517 H531 0.950 . S
C518 C517 1.479 . S
C518 C519 1.375 . S
C518 C524 1.404 . S
C519 C518 1.375 . S
C519 C520 1.369 . S
C519 H532 0.950 . S
C520 C519 1.369 . S
C520 C521 1.392 . S
C520 H533 0.951 . S
C521 C520 1.392 . S
C521 C523 1.384 . S
H522 C524 0.949 . S
C523 C521 1.384 . S
C523 C524 1.385 . S
C523 H525 0.950 . S
C524 C518 1.404 . S
C524 H522 0.949 . S
C524 C523 1.385 . S
H525 C523 0.950 . S
H526 C510 0.951 . S
H527 C512 0.951 . S
H528 C514 0.951 . S
H529 C515 0.950 . S
H530 C516 0.950 . S
H531 C517 0.950 . S
H532 C519 0.950 . S
H533 C520 0.951 . S
C534 C535 1.386 . S
C534 C536 1.383 . S
C534 H550 0.951 . S
C535 C534 1.386 . S
C535 C539 1.383 . S
C536 C534 1.383 . S
C536 C537 1.402 . S
C536 H551 0.951 . S
C537 C536 1.402 . S
C537 C538 1.375 . S
C537 C540 1.481 . S
C538 C537 1.375 . S
C538 C539 1.367 . S
C538 H552 0.951 . S
C539 C535 1.383 . S
C539 C538 1.367 . S
C539 H553 0.950 . S
C540 C537 1.481 . S
C540 C541 1.297 . S
C540 H554 0.950 . S
C541 C540 1.297 . S
C541 C542 1.479 . S
C541 H555 0.950 . S
C542 C541 1.479 . S
C542 C543 1.375 . S
C542 C548 1.404 . S
C543 C542 1.375 . S
C543 C544 1.369 . S
C543 H556 0.950 . S
C544 C543 1.369 . S
C544 C545 1.392 . S
C544 H557 0.951 . S
C545 C544 1.392 . S
C545 C547 1.384 . S
H546 C548 0.949 . S
C547 C545 1.384 . S
C547 C548 1.385 . S
C547 H549 0.950 . S
C548 C542 1.404 . S
C548 H546 0.949 . S
C548 C547 1.385 . S
H549 C547 0.950 . S
H550 C534 0.951 . S
H551 C536 0.951 . S
H552 C538 0.951 . S
H553 C539 0.950 . S
H554 C540 0.950 . S
H555 C541 0.950 . S
H556 C543 0.950 . S
H557 C544 0.951 . S
C199 C18 2.053 . S
C209 C117 2.027 . S
C223 C7 1.547 . S
C233 C120 1.495 . S
C247 C106 1.546 . S
C257 C21 1.508 . S
C271 C40 1.526 . S
C281 C153 1.533 . S
C295 C150 2.037 . S
C305 C51 2.016 . S
C319 C54 1.521 . S
C329 C139 1.545 . S
C343 C84 2.041 . S
C353 C183 2.048 . S
C367 C73 1.545 . S
C377 C186 1.515 . S
C391 C172 1.526 . S
C401 C87 1.545 . S
C415 N35 2.294 1_455 S
C425 N2 2.291 . S
C439 N101 2.293 1_556 S
C449 N68 2.293 . S
C463 N167 2.269 . S
C473 N134 2.260 1_554 S
C487 N13 0.801 . S
C497 N46 0.945 1_665 S
C511 N112 0.893 . S
C521 N79 0.792 . S
C535 N178 0.814 . S
C545 N145 0.962 . S
