# Generated by pormake.
# Topology whw, (6)-cn, num edge types: 1
# Building blocks:
#     Node 0, Type 0, BuildingBlock: PAMTOO_clean_sbu_0, # of connection points: 6
#     Node 1, Type 0, BuildingBlock: PAMTOO_clean_sbu_0, # of connection points: 6
#     Node 2, Type 0, BuildingBlock: PAMTOO_clean_sbu_0, # of connection points: 6
#     Node 3, Type 0, BuildingBlock: PAMTOO_clean_sbu_0, # of connection points: 6
#     Node 4, Type 0, BuildingBlock: PAMTOO_clean_sbu_0, # of connection points: 6
#     Node 5, Type 0, BuildingBlock: PAMTOO_clean_sbu_0, # of connection points: 6
#     Node 6, Type 0, BuildingBlock: PAMTOO_clean_sbu_0, # of connection points: 6
#     Node 7, Type 0, BuildingBlock: PAMTOO_clean_sbu_0, # of connection points: 6
#     Node 8, Type 0, BuildingBlock: PAMTOO_clean_sbu_0, # of connection points: 6
#     Node 9, Type 0, BuildingBlock: PAMTOO_clean_sbu_0, # of connection points: 6
#     Node 10, Type 0, BuildingBlock: PAMTOO_clean_sbu_0, # of connection points: 6
#     Node 11, Type 0, BuildingBlock: PAMTOO_clean_sbu_0, # of connection points: 6
#     Node 12, Type 0, BuildingBlock: PAMTOO_clean_sbu_0, # of connection points: 6
#     Node 13, Type 0, BuildingBlock: PAMTOO_clean_sbu_0, # of connection points: 6
#     Node 14, Type 0, BuildingBlock: PAMTOO_clean_sbu_0, # of connection points: 6
#     Node 15, Type 0, BuildingBlock: PAMTOO_clean_sbu_0, # of connection points: 6
#     Edge 16, Type (0, 0), BuildingBlock: XUDNAN_clean_linker_2, # of connection points: 2
#     Edge 17, Type (0, 0), BuildingBlock: XUDNAN_clean_linker_2, # of connection points: 2
#     Edge 18, Type (0, 0), BuildingBlock: XUDNAN_clean_linker_2, # of connection points: 2
#     Edge 19, Type (0, 0), BuildingBlock: XUDNAN_clean_linker_2, # of connection points: 2
#     Edge 20, Type (0, 0), BuildingBlock: XUDNAN_clean_linker_2, # of connection points: 2
#     Edge 21, Type (0, 0), BuildingBlock: XUDNAN_clean_linker_2, # of connection points: 2
#     Edge 22, Type (0, 0), BuildingBlock: XUDNAN_clean_linker_2, # of connection points: 2
#     Edge 23, Type (0, 0), BuildingBlock: XUDNAN_clean_linker_2, # of connection points: 2
#     Edge 24, Type (0, 0), BuildingBlock: XUDNAN_clean_linker_2, # of connection points: 2
#     Edge 25, Type (0, 0), BuildingBlock: XUDNAN_clean_linker_2, # of connection points: 2
#     Edge 26, Type (0, 0), BuildingBlock: XUDNAN_clean_linker_2, # of connection points: 2
#     Edge 27, Type (0, 0), BuildingBlock: XUDNAN_clean_linker_2, # of connection points: 2
#     Edge 28, Type (0, 0), BuildingBlock: XUDNAN_clean_linker_2, # of connection points: 2
#     Edge 29, Type (0, 0), BuildingBlock: XUDNAN_clean_linker_2, # of connection points: 2
#     Edge 30, Type (0, 0), BuildingBlock: XUDNAN_clean_linker_2, # of connection points: 2
#     Edge 31, Type (0, 0), BuildingBlock: XUDNAN_clean_linker_2, # of connection points: 2
#     Edge 32, Type (0, 0), BuildingBlock: XUDNAN_clean_linker_2, # of connection points: 2
#     Edge 33, Type (0, 0), BuildingBlock: XUDNAN_clean_linker_2, # of connection points: 2
#     Edge 34, Type (0, 0), BuildingBlock: XUDNAN_clean_linker_2, # of connection points: 2
#     Edge 35, Type (0, 0), BuildingBlock: XUDNAN_clean_linker_2, # of connection points: 2
#     Edge 36, Type (0, 0), BuildingBlock: XUDNAN_clean_linker_2, # of connection points: 2
#     Edge 37, Type (0, 0), BuildingBlock: XUDNAN_clean_linker_2, # of connection points: 2
#     Edge 38, Type (0, 0), BuildingBlock: XUDNAN_clean_linker_2, # of connection points: 2
#     Edge 39, Type (0, 0), BuildingBlock: XUDNAN_clean_linker_2, # of connection points: 2
#     Edge 40, Type (0, 0), BuildingBlock: XUDNAN_clean_linker_2, # of connection points: 2
#     Edge 41, Type (0, 0), BuildingBlock: XUDNAN_clean_linker_2, # of connection points: 2
#     Edge 42, Type (0, 0), BuildingBlock: XUDNAN_clean_linker_2, # of connection points: 2
#     Edge 43, Type (0, 0), BuildingBlock: XUDNAN_clean_linker_2, # of connection points: 2
#     Edge 44, Type (0, 0), BuildingBlock: XUDNAN_clean_linker_2, # of connection points: 2
#     Edge 45, Type (0, 0), BuildingBlock: XUDNAN_clean_linker_2, # of connection points: 2
#     Edge 46, Type (0, 0), BuildingBlock: XUDNAN_clean_linker_2, # of connection points: 2
#     Edge 47, Type (0, 0), BuildingBlock: XUDNAN_clean_linker_2, # of connection points: 2
#     Edge 48, Type (0, 0), BuildingBlock: XUDNAN_clean_linker_2, # of connection points: 2
#     Edge 49, Type (0, 0), BuildingBlock: XUDNAN_clean_linker_2, # of connection points: 2
#     Edge 50, Type (0, 0), BuildingBlock: XUDNAN_clean_linker_2, # of connection points: 2
#     Edge 51, Type (0, 0), BuildingBlock: XUDNAN_clean_linker_2, # of connection points: 2
#     Edge 52, Type (0, 0), BuildingBlock: XUDNAN_clean_linker_2, # of connection points: 2
#     Edge 53, Type (0, 0), BuildingBlock: XUDNAN_clean_linker_2, # of connection points: 2
#     Edge 54, Type (0, 0), BuildingBlock: XUDNAN_clean_linker_2, # of connection points: 2
#     Edge 55, Type (0, 0), BuildingBlock: XUDNAN_clean_linker_2, # of connection points: 2
#     Edge 56, Type (0, 0), BuildingBlock: XUDNAN_clean_linker_2, # of connection points: 2
#     Edge 57, Type (0, 0), BuildingBlock: XUDNAN_clean_linker_2, # of connection points: 2
#     Edge 58, Type (0, 0), BuildingBlock: XUDNAN_clean_linker_2, # of connection points: 2
#     Edge 59, Type (0, 0), BuildingBlock: XUDNAN_clean_linker_2, # of connection points: 2
#     Edge 60, Type (0, 0), BuildingBlock: XUDNAN_clean_linker_2, # of connection points: 2
#     Edge 61, Type (0, 0), BuildingBlock: XUDNAN_clean_linker_2, # of connection points: 2
#     Edge 62, Type (0, 0), BuildingBlock: XUDNAN_clean_linker_2, # of connection points: 2
#     Edge 63, Type (0, 0), BuildingBlock: XUDNAN_clean_linker_2, # of connection points: 2
# Relax obj value: 0.869
# Max RMSD: 0.196
# Mean RMSD: 0.196
data_MOF--net-whw--node1-PAMTOO_clean_sbu_0--edge1-XUDNAN_clean_linker_2
_symmetry_space_group_name_H-M    P1
_symmetry_Int_Tables_number       1
_symmetry_cell_setting            triclinic
loop_
_symmetry_equiv_pos_as_xyz
'x, y, z'
_cell_length_a     47.601864
_cell_length_b     47.630634
_cell_length_c     29.754258
_cell_angle_alpha  90.333193
_cell_angle_beta   89.881334
_cell_angle_gamma 89.725035
loop_
_atom_site_label
_atom_site_type_symbol
_atom_site_fract_x
_atom_site_fract_y
_atom_site_fract_z
_atom_type_partial_charge
Dy0 Dy 0.99259 0.11576 0.23762 0.0
Dy1 Dy 0.04978 0.14471 0.20622 0.0
C2 C 0.00111 0.17542 0.25867 0.0
O3 O 0.98213 0.13264 0.16488 0.0
O4 O 0.02026 0.16022 0.14878 0.0
O5 O 0.95515 0.11829 0.2783 0.0
O6 O 0.96028 0.08436 0.23019 0.0
O7 O 0.05201 0.10016 0.17531 0.0
O8 O 0.01582 0.078 0.21112 0.0
O9 O 0.05774 0.13957 0.28276 0.0
O10 O 0.01668 0.12071 0.30818 0.0
O11 O 0.09452 0.14465 0.21273 0.0
O12 O 0.0742 0.17716 0.17329 0.0
C13 C 0.9947 0.15122 0.13747 0.0
O14 O 0.98672 0.16092 0.23022 0.0
O15 O 0.02835 0.17269 0.25667 0.0
C16 C 0.93453 0.07538 0.29673 0.0
C17 C 0.91783 0.04422 0.3723 0.0
C18 C 0.90211 0.06769 0.35798 0.0
C19 C 0.91031 0.08293 0.32051 0.0
C20 C 0.94944 0.05106 0.30882 0.0
C21 C 0.94098 0.03544 0.34614 0.0
C22 C 0.94504 0.09484 0.26269 0.0
C23 C 0.03708 0.07718 0.18302 0.0
C24 C 0.04223 0.13138 0.31766 0.0
C25 C 0.1219 0.16533 0.15723 0.0
C26 C 0.17247 0.15646 1.11019 0.0
C27 C 0.14881 0.13961 1.10144 0.0
C28 C 0.12375 0.14395 0.12491 0.0
C29 C 0.145 0.18286 0.16492 0.0
C30 C 0.17012 0.17855 0.14143 0.0
C31 C 0.09796 0.16687 0.18801 0.0
H32 H 0.88459 0.07579 0.37743 0.0
H33 H 0.89861 0.10169 0.31167 0.0
H34 H 0.96826 0.04484 0.29071 0.0
H35 H 0.95339 0.01734 0.35575 0.0
H36 H 0.14972 0.12292 1.07658 0.0
H37 H 0.10615 0.13008 0.11894 0.0
H38 H 0.14394 0.19923 0.19032 0.0
H39 H 0.18791 0.19192 0.14864 0.0
Dy40 Dy 0.12079 0.73412 0.48305 0.0
Dy41 Dy 0.10663 0.79513 0.45337 0.0
C42 C 0.05991 0.75223 0.4608 0.0
O43 O 0.10893 0.72756 0.40635 0.0
O44 O 0.10025 0.77284 0.38426 0.0
O45 O 0.11194 0.69865 0.52541 0.0
O46 O 0.14182 0.69439 0.47102 0.0
O47 O 0.15127 0.78634 0.42608 0.0
O48 O 0.16388 0.75198 0.47427 0.0
O49 O 0.0945 0.79419 0.53121 0.0
O50 O 0.12103 0.75698 0.55302 0.0
O51 O 0.11852 0.83638 0.47543 0.0
O52 O 0.08985 0.83177 0.41942 0.0
C53 C 0.10143 0.74546 0.37378 0.0
O54 O 0.0764 0.74713 0.49456 0.0
O55 O 0.065 0.7755 0.43962 0.0
C56 C 0.15119 0.66911 0.53697 0.0
C57 C 0.1866 0.64004 0.59683 0.0
C58 C 0.17254 0.6648 0.6104 0.0
C59 C 0.15527 0.67928 0.58073 0.0
C60 C 0.16604 0.64522 0.52242 0.0
C61 C 0.18375 0.63087 0.55201 0.0
C62 C 0.13115 0.6829 0.50667 0.0
C63 C 0.17073 0.76918 0.44186 0.0
C64 C 0.10495 0.77893 0.56508 0.0
C65 C 0.12163 0.87014 0.41784 0.0
C66 C 0.1531 0.90739 0.36446 0.0
C67 C 0.12388 0.90468 0.35837 0.0
C68 C 0.10833 0.88632 0.38491 0.0
C69 C 0.15048 0.8741 0.42593 0.0
C70 C 0.16601 0.89262 0.39961 0.0
C71 C 0.10535 0.84902 0.44284 0.0
H72 H 0.17345 0.67234 0.64475 0.0
H73 H 0.14435 0.6979 0.59266 0.0
H74 H 0.16341 0.63729 0.48849 0.0
H75 H 0.19445 0.61211 0.54022 0.0
H76 H 0.11324 0.9153 0.33115 0.0
H77 H 0.08607 0.88392 0.37846 0.0
H78 H 0.16136 0.86225 0.45158 0.0
H79 H 0.1884 0.89437 0.40538 0.0
Dy80 Dy 0.52196 0.88698 0.74207 0.0
Dy81 Dy 0.46392 0.85724 0.71552 0.0
C82 C 0.51896 0.82408 0.73839 0.0
O83 O 0.53126 0.87014 0.66851 0.0
O84 O 0.48922 0.84971 0.64998 0.0
O85 O 0.56667 0.88734 0.73311 0.0
O86 O 0.54707 0.91714 0.779 0.0
O87 O 0.4568 0.90355 0.69648 0.0
O88 O 0.50048 0.92235 0.70684 0.0
O89 O 0.46465 0.85085 0.79326 0.0
O90 O 0.49835 0.88273 0.81229 0.0
O91 O 0.42382 0.84285 0.74051 0.0
O92 O 0.43385 0.8385 0.67019 0.0
C93 C 0.51556 0.85616 0.63853 0.0
O94 O 0.52019 0.84401 0.76796 0.0
O95 O 0.4963 0.82304 0.71364 0.0
C96 C 0.59394 0.90263 0.79315 0.0
C97 C 0.64186 0.88834 0.84274 0.0
C98 C 0.64297 0.91026 0.81159 0.0
C99 C 0.61913 0.91723 0.78666 0.0
C100 C 0.59249 0.88149 0.82554 0.0
C101 C 0.61633 0.87444 0.8503 0.0
C102 C 0.57061 0.90742 0.76227 0.0
C103 C 0.47478 0.92453 0.69163 0.0
C104 C 0.47819 0.86469 0.82546 0.0
C105 C 0.38716 0.84932 0.68932 0.0
C106 C 0.33576 0.87232 0.66004 0.0
C107 C 0.36059 0.88832 0.65907 0.0
C108 C 0.38596 0.87695 0.67367 0.0
C109 C 0.36236 0.83378 0.69311 0.0
C110 C 0.33679 0.84522 0.67869 0.0
C111 C 0.41436 0.83669 0.70075 0.0
H112 H 0.66241 0.9214 0.80573 0.0
H113 H 0.62055 0.93347 0.76142 0.0
H114 H 0.5732 0.86996 0.83075 0.0
H115 H 0.61497 0.85785 0.87497 0.0
H116 H 0.36099 0.909 0.64417 0.0
H117 H 0.40487 0.88936 0.67088 0.0
H118 H 0.36292 0.81252 0.70583 0.0
H119 H 0.31808 0.83241 0.68028 0.0
Dy120 Dy 0.39009 0.27139 0.98913 0.0
Dy121 Dy 0.42296 0.216 0.95976 0.0
C122 C 0.45078 0.26676 1.00945 0.0
O123 O 0.40617 0.28216 0.91538 0.0
O124 O 0.43813 0.24651 0.90367 0.0
O125 O 0.38958 0.31059 1.0256 0.0
O126 O 0.35399 0.29908 0.98464 0.0
O127 O 0.3795 0.21198 0.92693 0.0
O128 O 0.35401 0.24543 0.96386 0.0
O129 O 0.41762 0.20839 1.03642 0.0
O130 O 0.39785 0.24941 1.06072 0.0
O131 O 0.43045 0.17314 0.97768 0.0
O132 O 0.44998 0.18965 0.91794 0.0
C133 C 0.42642 0.27045 0.88941 0.0
O134 O 0.43481 0.28005 0.98158 0.0
O135 O 0.45135 0.23946 1.00628 0.0
C136 C 0.34452 0.31953 1.05492 0.0
C137 C 0.30853 0.32596 0.12964 0.0
C138 C 0.33366 0.31038 0.13295 0.0
C139 C 0.35125 0.30702 1.09605 0.0
C140 C 0.31925 0.33457 1.05079 0.0
C141 C 0.30134 0.33779 1.08794 0.0
C142 C 0.36333 0.31562 1.01615 0.0
C143 C 0.35527 0.22496 0.93437 0.0
C144 C 0.4096 0.22444 1.07103 0.0
C145 C 0.43372 0.14265 0.91803 0.0
C146 C 0.40763 0.09419 0.88404 0.0
C147 C 0.39455 0.12062 0.88046 0.0
C148 C 0.40752 0.14456 0.89709 0.0
C149 C 0.4468 0.11637 0.92257 0.0
C150 C 0.43397 0.09225 0.90516 0.0
C151 C 0.44469 0.16725 0.9416 0.0
H152 H 0.34058 0.30168 0.16461 0.0
H153 H 0.37044 0.295 1.10011 0.0
H154 H 0.3135 0.34397 1.01902 0.0
H155 H 0.28218 0.3499 1.08425 0.0
H156 H 0.37478 0.12307 0.86288 0.0
H157 H 0.39697 0.1646 0.89389 0.0
H158 H 0.46677 0.11451 0.93972 0.0
H159 H 0.44477 0.07223 0.90731 0.0
Dy160 Dy -0.00076 0.84004 0.98345 0.0
Dy161 Dy 0.0613 0.82076 1.0131 0.0
C162 C 0.01939 0.78127 0.96241 0.0
O163 O 0.99029 0.81943 1.05383 0.0
O164 O 0.03367 0.80067 1.06985 0.0
O165 O 0.9615 0.83267 0.94538 0.0
O166 O 0.96402 0.8688 0.98925 0.0
O167 O 0.0609 0.86741 1.03128 0.0
O168 O 0.01557 0.87999 1.0159 0.0
O169 O 0.06701 0.82521 0.93565 0.0
O170 O 0.02295 0.8379 0.9124 0.0
O171 O 0.10478 0.81391 0.99592 0.0
O172 O 0.09082 0.80641 1.06367 0.0
C173 C 0.00665 0.80421 1.08131 0.0
O174 O 0.00123 0.79413 0.98789 0.0
O175 O 0.04597 0.78609 0.96944 0.0
C176 C 0.93886 0.87393 0.92201 0.0
C177 C 0.91589 0.90386 0.84931 0.0
C178 C 0.9427 0.89127 0.84599 0.0
C179 C 0.95412 0.87668 0.88203 0.0
C180 C 0.91284 0.88754 0.92662 0.0
C181 C 0.90144 0.90252 0.89058 0.0
C182 C 0.94965 0.85609 0.95813 0.0
C183 C 0.04042 0.88621 1.03231 0.0
C184 C 0.04949 0.83043 0.9016 0.0
C185 C 0.13468 0.82852 1.05416 0.0
C186 C 0.17103 0.86788 1.09445 0.0
C187 C 0.15878 0.8735 1.05255 0.0
C188 C 0.14064 0.85411 1.03272 0.0
C189 C 0.14836 0.82202 1.09434 0.0
C190 C 0.16626 0.8415 0.11441 0.0
C191 C 0.11238 0.80991 1.03726 0.0
H192 H 0.95434 0.89107 0.8147 0.0
H193 H 0.97439 0.86653 0.87796 0.0
H194 H 0.90097 0.88589 0.9576 0.0
H195 H 0.88093 0.91215 0.89451 0.0
H196 H 0.16211 0.89345 1.03613 0.0
H197 H 0.13036 0.85975 1.00158 0.0
H198 H 0.14401 0.8025 1.11147 0.0
H199 H 0.17472 0.83652 0.14717 0.0
Dy200 Dy 0.41934 0.75795 0.23289 0.0
Dy201 Dy 0.40159 0.81627 0.26559 0.0
C202 C 0.46107 0.81057 0.24048 0.0
O203 O 0.44194 0.75424 0.29916 0.0
O204 O 0.41907 0.79116 0.33175 0.0
O205 O 0.43575 0.72915 0.18252 0.0
O206 O 0.4203 0.71355 0.24594 0.0
O207 O 0.3589 0.79806 0.26063 0.0
O208 O 0.37504 0.75364 0.26527 0.0
O209 O 0.41083 0.82356 0.18772 0.0
O210 O 0.41808 0.77908 0.16197 0.0
O211 O 0.37757 0.85405 0.2582 0.0
O212 O 0.40657 0.85027 0.31404 0.0
C213 C 0.43574 0.768 0.33644 0.0
O214 O 0.45779 0.78404 0.25175 0.0
O215 O 0.43946 0.82427 0.22772 0.0
C216 C 0.41106 0.68643 0.18155 0.0
C217 C 0.37678 0.65225 0.12714 0.0
C218 C 0.40606 0.65344 0.11997 0.0
C219 C 0.423 0.67031 0.14701 0.0
C220 C 0.38215 0.6841 0.19063 0.0
C221 C 0.3652 0.667 0.16384 0.0
C222 C 0.42844 0.70709 0.20542 0.0
C223 C 0.35425 0.77203 0.27067 0.0
C224 C 0.41662 0.80633 0.15272 0.0
C225 C 0.3644 0.87654 0.32546 0.0
C226 C 0.32286 0.89715 0.38474 0.0
C227 C 0.31559 0.87896 0.34952 0.0
C228 C 0.33614 0.86854 0.32032 0.0
C229 C 0.37144 0.89601 0.35902 0.0
C230 C 0.35086 0.90619 0.38854 0.0
C231 C 0.38646 0.86509 0.29567 0.0
H232 H 0.41578 0.64295 1.0915 0.0
H233 H 0.44522 0.67187 0.13949 0.0
H234 H 0.37242 0.69636 0.21726 0.0
H235 H 0.34283 0.66644 0.17045 0.0
H236 H 0.29415 0.87199 0.34587 0.0
H237 H 0.32993 0.85376 0.29442 0.0
H238 H 0.39301 0.90268 0.36324 0.0
H239 H 0.35718 0.91985 0.41591 0.0
Dy240 Dy 0.51189 0.15265 0.48948 0.0
Dy241 Dy 0.45217 0.1786 0.51788 0.0
C242 C 0.49916 0.21325 0.47469 0.0
O243 O 0.51931 0.16646 0.56433 0.0
O244 O 0.4797 0.19249 0.58009 0.0
O245 O 0.5484 0.15598 0.44676 0.0
O246 O 0.54793 0.1261 0.50131 0.0
O247 O 0.45211 0.13277 0.54242 0.0
O248 O 0.49042 0.11292 0.50834 0.0
O249 O 0.4479 0.17973 0.43896 0.0
O250 O 0.48887 0.15748 0.41886 0.0
O251 O 0.40775 0.174 0.50811 0.0
O252 O 0.42322 0.20502 0.5556 0.0
C253 C 0.50525 0.18348 0.59274 0.0
O254 O 0.51246 0.19782 0.50327 0.0
O255 O 0.47191 0.21116 0.47478 0.0
C256 C 0.57265 0.11365 0.43536 0.0
C257 C 0.58989 0.07755 0.36522 0.0
C258 C 0.6048 0.10239 0.37487 0.0
C259 C 0.59629 0.12015 0.40966 0.0
C260 C 0.55879 0.08804 0.4282 0.0
C261 C 0.56751 0.06999 0.3936 0.0
C262 C 0.5613 0.13508 0.466 0.0
C263 C 0.46823 0.11061 0.534 0.0
C264 C 0.46481 0.17028 0.40615 0.0
C265 C 0.3856 0.17516 0.57757 0.0
C266 C 0.36927 0.1306 0.63301 0.0
C267 C 0.35542 0.13498 0.59218 0.0
C268 C 0.3635 0.15727 0.5646 0.0
C269 C 0.39695 0.17254 0.62086 0.0
C270 C 0.38884 0.15044 0.64827 0.0
C271 C 0.40166 0.18998 0.54257 0.0
H272 H 0.62173 0.10946 0.35345 0.0
H273 H 0.60717 0.13986 0.41472 0.0
H274 H 0.54044 0.08261 0.44787 0.0
H275 H 0.55575 0.05095 0.38748 0.0
H276 H 0.33999 0.12008 0.58019 0.0
H277 H 0.35444 0.15884 0.53132 0.0
H278 H 0.4139 0.18593 0.63211 0.0
H279 H 0.39926 0.14776 0.68034 0.0
Dy280 Dy 0.10849 0.22828 0.73777 0.0
Dy281 Dy 0.12219 0.16751 0.75648 0.0
C282 C 0.0618 0.17945 0.74825 0.0
O283 O 0.09051 0.23176 0.80768 0.0
O284 O 0.11012 0.18997 0.82801 0.0
O285 O 0.09185 0.25972 0.69238 0.0
O286 O 0.11236 0.2721 0.75407 0.0
O287 O 0.16461 0.18522 0.74356 0.0
O288 O 0.15327 0.228 0.76864 0.0
O289 O 0.10681 0.16295 0.6812 0.0
O290 O 0.10854 0.20926 0.66444 0.0
O291 O 0.14392 0.12926 0.73945 0.0
O292 O 0.12119 0.13232 0.80243 0.0
C293 C 0.09694 0.21439 0.8402 0.0
O294 O 0.06862 0.20542 0.7593 0.0
O295 O 0.08025 0.16331 0.73009 0.0
C296 C 0.12066 0.29984 0.69087 0.0
C297 C 0.15516 0.33456 0.63824 0.0
C298 C 0.12563 0.33669 0.63587 0.0
C299 C 0.10858 0.31954 0.66208 0.0
C300 C 0.15008 0.29822 0.69455 0.0
C301 C 0.16717 0.31556 0.66866 0.0
C302 C 0.1026 0.28035 0.71556 0.0
C303 C 0.17253 0.20831 0.76319 0.0
C304 C 0.10411 0.18297 0.65016 0.0
C305 C 0.16535 0.10918 0.80281 0.0
C306 C 0.21282 0.10267 0.8583 0.0
C307 C 0.21577 0.11348 0.81477 0.0
C308 C 0.19225 0.1168 0.78731 0.0
C309 C 0.16287 0.09564 0.84417 0.0
C310 C 0.18632 0.09243 0.8717 0.0
C311 C 0.13978 0.11823 0.77883 0.0
H312 H 0.11555 0.35053 0.612 0.0
H313 H 0.08595 0.32101 0.65873 0.0
H314 H 0.15991 0.28307 0.71661 0.0
H315 H 0.18977 0.31344 0.67138 0.0
H316 H 0.23586 0.12125 0.80321 0.0
H317 H 0.19499 0.12692 0.75513 0.0
H318 H 0.14245 0.08937 0.85664 0.0
H319 H 0.18294 0.08428 0.90516 0.0
Dy320 Dy 0.88979 0.23892 0.7364 0.0
Dy321 Dy 0.9217 0.29478 0.76652 0.0
C322 C 0.95313 0.23901 0.74668 0.0
O323 O 0.90231 0.23055 0.81172 0.0
O324 O 0.92602 0.27007 0.83403 0.0
O325 O 0.88736 0.19469 0.74868 0.0
O326 O 0.86109 0.21338 0.69722 0.0
O327 O 0.87622 0.30121 0.7918 0.0
O328 O 0.85306 0.26274 0.76443 0.0
O329 O 0.92997 0.29349 0.68791 0.0
O330 O 0.89747 0.26098 0.66633 0.0
O331 O 0.92483 0.33843 0.74867 0.0
O332 O 0.94952 0.32228 0.8036 0.0
C333 C 0.91672 0.24433 0.84362 0.0
O334 O 0.93413 0.23831 0.71558 0.0
O335 O 0.95538 0.26233 0.76958 0.0
C336 C 0.87314 0.16447 0.69029 0.0
C337 C 0.87966 0.11386 0.64209 0.0
C338 C 0.87175 0.13863 0.61983 0.0
C339 C 0.86852 0.16379 0.64374 0.0
C340 C 0.88053 0.13955 0.71253 0.0
C341 C 0.88392 0.1145 0.6886 0.0
C342 C 0.86897 0.19024 0.71713 0.0
C343 C 0.85297 0.2861 0.78789 0.0
C344 C 0.91661 0.28033 0.65435 0.0
C345 C 0.93084 0.36843 0.81145 0.0
C346 C 0.90635 0.4082 0.87052 0.0
C347 C 0.89754 0.4065 0.82558 0.0
C348 C 0.90972 0.38687 0.79628 0.0
C349 C 0.9412 0.37172 0.85525 0.0
C350 C 0.92902 0.39128 0.88452 0.0
C351 C 0.94062 0.34471 0.78299 0.0
H352 H 0.86866 0.13866 0.58376 0.0
H353 H 0.86253 0.1826 0.62579 0.0
H354 H 0.8837 0.13944 0.74858 0.0
H355 H 0.88981 0.09558 0.70636 0.0
H356 H 0.88037 0.41945 0.81365 0.0
H357 H 0.90166 0.38533 0.76234 0.0
H358 H 0.95775 0.35816 0.86772 0.0
H359 H 0.93618 0.39167 0.91904 0.0
Dy360 Dy 0.63331 0.77689 0.24195 0.0
Dy361 Dy 0.61102 0.7194 0.27542 0.0
C362 C 0.57142 0.77065 0.26351 0.0
O363 O 0.61965 0.78588 0.3186 0.0
O364 O 0.60616 0.74224 0.34258 0.0
O365 O 0.63056 0.81297 0.19862 0.0
O366 O 0.65986 0.81289 0.25382 0.0
O367 O 0.65656 0.7219 0.30136 0.0
O368 O 0.6733 0.75276 0.25062 0.0
O369 O 0.59865 0.72061 0.19915 0.0
O370 O 0.62847 0.75343 0.17182 0.0
O371 O 0.61358 0.67678 0.2521 0.0
O372 O 0.59078 0.68627 0.31341 0.0
C373 C 0.60967 0.76935 0.35174 0.0
O374 O 0.58805 0.77209 0.22923 0.0
O375 O 0.57343 0.74767 0.28716 0.0
C376 C 0.67303 0.83602 0.18721 0.0
C377 C 0.70728 0.84981 1.11346 0.0
C378 C 0.68469 0.86736 0.12643 0.0
C379 C 0.66781 0.86052 0.16301 0.0
C380 C 0.69687 0.81967 0.1771 0.0
C381 C 0.71406 0.8267 0.14075 0.0
C382 C 0.65132 0.82586 0.21795 0.0
C383 C 0.67795 0.73588 0.28441 0.0
C384 C 0.60995 0.73292 0.16321 0.0
C385 C 0.61484 0.64228 0.30872 0.0
C386 C 0.64136 0.59642 0.35131 0.0
C387 C 0.65379 0.60905 0.31372 0.0
C388 C 0.64072 0.63175 0.29266 0.0
C389 C 0.6019 0.62905 0.34516 0.0
C390 C 0.61505 0.60648 0.36638 0.0
C391 C 0.60098 0.66659 0.28729 0.0
H392 H 0.6783 0.88506 1.10614 0.0
H393 H 0.64944 0.87329 0.17033 0.0
H394 H 0.70124 0.80061 0.19555 0.0
H395 H 0.7315 0.81298 0.13221 0.0
H396 H 0.67395 0.60178 0.30116 0.0
H397 H 0.65116 0.64124 0.26422 0.0
H398 H 0.58187 0.63656 0.35789 0.0
H399 H 0.60509 0.59776 0.3959 0.0
Dy400 Dy 0.6188 0.26309 0.99604 0.0
Dy401 Dy 0.59907 0.32252 0.95907 0.0
C402 C 0.55837 0.28752 1.02096 0.0
O403 O 0.60004 0.25234 0.92526 0.0
O404 O 0.58251 0.29414 0.90036 0.0
O405 O 0.61406 0.21856 0.99064 0.0
O406 O 0.64711 0.23576 1.03301 0.0
O407 O 0.64566 0.3218 0.9406 0.0
O408 O 0.65894 0.27816 0.96364 0.0
O409 O 0.59947 0.33093 1.03675 0.0
O410 O 0.61385 0.28873 1.06532 0.0
O411 O 0.59094 0.36613 0.97431 0.0
O412 O 0.58642 0.35106 0.90625 0.0
C413 C 0.58635 0.26669 0.89356 0.0
O414 O 0.57783 0.26884 1.02931 0.0
O415 O 0.55975 0.30395 0.9858 0.0
C416 C 0.63095 0.18939 1.04789 0.0
C417 C 0.62133 0.13934 1.09498 0.0
C418 C 0.64703 0.14367 1.0729 0.0
C419 C 0.65174 0.16849 1.04943 0.0
C420 C 0.6055 0.18551 1.0707 0.0
C421 C 0.60073 0.16066 1.09411 0.0
C422 C 0.63494 0.21312 1.0176 0.0
C423 C 0.66477 0.30172 0.94311 0.0
C424 C 0.60456 0.31519 1.073 0.0
C425 C 0.60516 0.3963 0.9163 0.0
C426 C 0.6409 0.43655 0.87727 0.0
C427 C 0.64967 0.42121 0.91504 0.0
C428 C 0.63205 0.40112 0.93416 0.0
C429 C 0.59569 0.41268 0.8805 0.0
C430 C 0.61336 0.43253 0.86106 0.0
C431 C 0.5877 0.37301 0.93243 0.0
H432 H 0.66327 0.12766 1.07311 0.0
H433 H 0.67137 0.17107 1.03141 0.0
H434 H 0.58915 0.2014 1.06958 0.0
H435 H 0.58099 0.15821 1.11179 0.0
H436 H 0.67059 0.42383 0.92858 0.0
H437 H 0.63986 0.38866 0.96184 0.0
H438 H 0.57507 0.40921 0.86619 0.0
H439 H 0.60595 0.44334 0.83142 0.0
Dy440 Dy 0.92822 0.72448 0.48226 0.0
Dy441 Dy 0.90303 0.66643 0.45819 0.0
C442 C 0.9646 0.66892 0.45966 0.0
O443 O 0.94279 0.72685 0.41041 0.0
O444 O 0.91487 0.69039 0.38836 0.0
O445 O 0.95031 0.75163 0.52876 0.0
O446 O 0.93311 0.76845 0.46748 0.0
O447 O 0.86255 0.68919 0.46046 0.0
O448 O 0.88191 0.7327 0.46085 0.0
O449 O 0.9095 0.66253 0.537 0.0
O450 O 0.9341 0.7024 0.55163 0.0
O451 O 0.87585 0.63135 0.4699 0.0
O452 O 0.90489 0.63029 0.41358 0.0
C453 C 0.93165 0.71249 0.37719 0.0
O454 O 0.96184 0.69604 0.45223 0.0
O455 O 0.94508 0.65623 0.48107 0.0
C456 C 0.93199 0.79788 0.53019 0.0
C457 C 0.90631 0.84379 0.57437 0.0
C458 C 0.8985 0.81605 0.58461 0.0
C459 C 0.9111 0.79334 0.56253 0.0
C460 C 0.93949 0.82541 0.5191 0.0
C461 C 0.92676 0.84821 0.54098 0.0
C462 C 0.94477 0.77422 0.50579 0.0
C463 C 0.85995 0.71602 0.4541 0.0
C464 C 0.9246 0.67788 0.56625 0.0
C465 C 0.86145 0.60672 0.40497 0.0
C466 C 0.82018 0.58756 0.34457 0.0
C467 C 0.81329 0.6074 0.37793 0.0
C468 C 0.83377 0.61711 0.40768 0.0
C469 C 0.86786 0.5855 0.37378 0.0
C470 C 0.84746 0.57604 0.34375 0.0
C471 C 0.88392 0.61795 0.43376 0.0
H472 H 0.88332 0.81176 0.6108 0.0
H473 H 0.9047 0.77221 0.57101 0.0
H474 H 0.95524 0.82925 0.49354 0.0
H475 H 0.93313 0.86927 0.53212 0.0
H476 H 0.79238 0.61632 0.37944 0.0
H477 H 0.82812 0.63332 0.43177 0.0
H478 H 0.88899 0.57703 0.37146 0.0
H479 H 0.85364 0.56108 0.31798 0.0
Dy480 Dy 0.50623 0.68313 0.74285 0.0
Dy481 Dy 0.56565 0.66225 0.72265 0.0
C482 C 0.5608 0.72177 0.73745 0.0
O483 O 0.5045 0.70126 0.67323 0.0
O484 O 0.54422 0.67765 0.65173 0.0
O485 O 0.47684 0.70858 0.7812 0.0
O486 O 0.4619 0.67938 0.73064 0.0
O487 O 0.54508 0.6207 0.725 0.0
O488 O 0.50205 0.63858 0.71114 0.0
O489 O 0.56944 0.67238 0.80099 0.0
O490 O 0.52322 0.67954 0.8166 0.0
O491 O 0.60109 0.63555 0.73567 0.0
O492 O 0.60331 0.66646 0.68233 0.0
C493 C 0.52115 0.69339 0.64027 0.0
O494 O 0.53533 0.71877 0.72104 0.0
O495 O 0.57093 0.70114 0.75906 0.0
C496 C 0.43378 0.68506 0.79388 0.0
C497 C 0.3932 0.6586 0.84777 0.0
C498 C 0.42176 0.65842 0.86015 0.0
C499 C 0.44187 0.67134 0.8333 0.0
C500 C 0.40539 0.68546 0.78134 0.0
C501 C 0.3852 0.67237 0.80812 0.0
C502 C 0.455 0.69636 0.76326 0.0
C503 C 0.51988 0.61708 0.70951 0.0
C504 C 0.54957 0.67818 0.83185 0.0
C505 C 0.62818 0.62345 0.67358 0.0
C506 C 0.65197 0.58018 0.62081 0.0
C507 C 0.66658 0.59103 0.65801 0.0
C508 C 0.65474 0.61252 0.68418 0.0
C509 C 0.61297 0.61191 0.63787 0.0
C510 C 0.62481 0.59063 0.61153 0.0
C511 C 0.61569 0.64528 0.7022 0.0
H512 H 0.42862 0.64875 0.89112 0.0
H513 H 0.46374 0.67044 0.84322 0.0
H514 H 0.39891 0.69557 0.75049 0.0
H515 H 0.36341 0.67292 0.79775 0.0
H516 H 0.68738 0.58336 0.66625 0.0
H517 H 0.66641 0.62076 0.71253 0.0
H518 H 0.59213 0.61965 0.62993 0.0
H519 H 0.61306 0.58337 0.58264 0.0
Dy520 Dy 0.02764 0.33812 0.23832 0.0
Dy521 Dy 0.96675 0.32167 0.20786 0.0
C522 C 0.00122 0.28145 0.26956 0.0
O523 O 0.03737 0.31 0.17545 0.0
O524 O 0.99352 0.30767 0.14484 0.0
O525 O 0.07266 0.33217 0.24278 0.0
O526 O 0.05333 0.37227 0.26109 0.0
O527 O 0.96645 0.36896 0.20093 0.0
O528 O 0.01318 0.37345 0.19183 0.0
O529 O 0.95947 0.32545 0.2852 0.0
O530 O 0.00319 0.33818 0.30946 0.0
O531 O 0.92435 0.30864 0.22356 0.0
O532 O 0.93686 0.31454 0.15459 0.0
C533 C 0.02113 0.30285 0.14073 0.0
O534 O 0.01996 0.30047 0.2791 0.0
O535 O 0.98754 0.28253 0.23141 0.0
C536 C 0.09758 0.3619 0.29275 0.0
C537 C 0.13834 0.37365 0.35827 0.0
C538 C 0.14632 0.36951 0.3133 0.0
C539 C 0.12601 0.36381 0.28072 0.0
C540 C 0.08955 0.36565 0.33767 0.0
C541 C 0.10977 0.3715 0.37017 0.0
C542 C 0.07664 0.35777 0.25743 0.0
C543 C 0.98781 0.384 0.18738 0.0
C544 C 0.97646 0.33096 0.31982 0.0
C545 C 0.89276 0.33151 0.17507 0.0
C546 C 0.86066 0.37589 0.14007 0.0
C547 C 0.87768 0.38028 0.17797 0.0
C548 C 0.89372 0.35824 0.19524 0.0
C549 C 0.87325 0.32628 0.141 0.0
C550 C 0.85715 0.3483 0.12374 0.0
C551 C 0.91589 0.31158 0.1823 0.0
H552 H 0.16818 0.37083 0.30337 0.0
H553 H 0.13247 0.36111 0.24601 0.0
H554 H 0.06768 0.36418 0.34755 0.0
H555 H 0.10309 0.37379 0.40484 0.0
H556 H 0.88071 0.40125 0.19133 0.0
H557 H 0.90872 0.36272 0.22164 0.0
H558 H 0.87235 0.30584 0.12492 0.0
H559 H 0.84446 0.34419 1.09428 0.0
Dy560 Dy 0.48999 0.37913 0.48621 0.0
Dy561 Dy 0.5542 0.37638 0.51374 0.0
C562 C 0.52764 0.32584 0.45937 0.0
O563 O 0.48664 0.35872 0.55707 0.0
O564 O 0.5321 0.36247 0.58088 0.0
O565 O 0.44809 0.36303 0.49296 0.0
O566 O 0.45528 0.40185 0.45625 0.0
O567 O 0.54292 0.4205 0.53772 0.0
O568 O 0.49719 0.42235 0.51603 0.0
O569 O 0.55783 0.37374 0.43449 0.0
O570 O 0.51188 0.37979 0.41415 0.0
O571 O 0.59509 0.39225 0.49724 0.0
O572 O 0.59041 0.36265 0.55186 0.0
C573 C 0.50531 0.35572 0.58988 0.0
O574 O 0.50426 0.33992 0.45343 0.0
O575 O 0.54585 0.33279 0.49049 0.0
C576 C 0.41154 0.37865 0.44546 0.0
C577 C 0.36125 0.36804 0.39928 0.0
C578 C 0.38591 0.35283 0.38868 0.0
C579 C 0.41092 0.35807 0.41173 0.0
C580 C 0.38703 0.3936 0.45642 0.0
C581 C 0.36207 0.38837 0.43354 0.0
C582 C 0.4368 0.38416 0.47179 0.0
C583 C 0.51881 0.43398 0.53611 0.0
C584 C 0.53879 0.37515 0.40154 0.0
C585 C 0.62442 0.39857 0.55858 0.0
C586 C 0.65685 0.43683 0.60876 0.0
C587 C 0.62796 0.43341 0.61779 0.0
C588 C 0.61192 0.41459 0.59281 0.0
C589 C 0.6529 0.40238 0.54835 0.0
C590 C 0.66904 0.42135 0.57328 0.0
C591 C 0.60727 0.37981 0.53088 0.0
H592 H 0.38607 0.33741 0.36177 0.0
H593 H 0.4297 0.34625 0.40316 0.0
H594 H 0.3872 0.40934 0.48289 0.0
H595 H 0.34344 0.40031 0.44252 0.0
H596 H 0.61784 0.44435 0.64547 0.0
H597 H 0.58979 0.41233 0.60055 0.0
H598 H 0.66266 0.39062 0.52118 0.0
H599 H 0.69114 0.42354 0.56534 0.0
Dy600 Dy 0.03166 0.61518 0.98194 0.0
Dy601 Dy 0.97097 0.63837 1.00796 0.0
C602 C 0.01034 0.67298 0.9428 0.0
O603 O 0.03936 0.63768 1.05182 0.0
O604 O 0.99743 0.66011 1.06339 0.0
O605 O 0.07658 0.61978 0.98545 0.0
O606 O 0.05843 0.58151 0.95791 0.0
O607 O 0.97038 0.59404 1.03692 0.0
O608 O 0.01225 0.57638 1.01209 0.0
O609 O 0.96486 0.62927 0.93172 0.0
O610 O 0.00956 0.61801 0.90938 0.0
O611 O 0.92928 0.64981 0.9857 0.0
O612 O 0.94022 0.65386 1.05569 0.0
C613 C 0.02365 0.65519 1.07678 0.0
O614 O 0.02851 0.6525 0.93925 0.0
O615 O 0.9926 0.67464 0.97651 0.0
C616 C 0.10428 0.59327 0.93427 0.0
C617 C 0.14869 0.58819 0.87229 0.0
C618 C 0.13181 0.61257 0.8734 0.0
C619 C 0.10971 0.61507 0.90411 0.0
C620 C 0.12127 0.56914 0.93371 0.0
C621 C 0.14326 0.56654 0.90284 0.0
C622 C 0.08142 0.59521 0.96718 0.0
C623 C 0.98871 0.57318 1.03442 0.0
C624 C 0.98281 0.62451 0.89802 0.0
C625 C 0.8938 0.64108 1.03822 0.0
C626 C 0.84368 0.61618 1.06829 0.0
C627 C 0.86931 0.60129 1.06971 0.0
C628 C 0.8941 0.6136 1.05468 0.0
C629 C 0.8682 0.65544 1.03407 0.0
C630 C 0.84327 0.64306 1.04887 0.0
C631 C 0.92014 0.65496 1.02606 0.0
H632 H 0.1351 0.62933 0.84953 0.0
H633 H 0.09673 0.63382 0.90397 0.0
H634 H 0.11737 0.55218 0.95701 0.0
H635 H 0.15587 0.54755 0.90258 0.0
H636 H 0.8707 0.58079 1.08513 0.0
H637 H 0.91367 0.60209 1.05758 0.0
H638 H 0.8676 0.67655 1.0207 0.0
H639 H 0.82389 0.65499 1.04691 0.0
H640 H 0.19715 0.10616 1.09268 0.0
H641 H 0.20665 0.19519 1.07043 0.0
H642 H 0.24214 0.18553 1.01241 0.0
H643 H 0.27437 0.08455 1.04309 0.0
H644 H 0.25853 0.05356 1.01932 0.0
H645 H 0.24753 0.06624 1.07388 0.0
H646 H 0.19608 0.06754 1.04667 0.0
H647 H 0.20679 0.05495 0.99289 0.0
H648 H 0.18725 0.08745 0.99718 0.0
H649 H 0.2582 0.1687 0.94114 0.0
H650 H 0.24507 0.1497 0.86817 0.0
H651 H 0.2281 0.06916 0.92825 0.0
C652 C 0.20779 0.12348 1.07669 0.0
C653 C 0.19902 0.15128 1.08537 0.0
C654 C 0.21319 0.17368 1.06447 0.0
C655 C 0.23361 0.16829 1.03155 0.0
C656 C 0.23979 0.14042 1.02009 0.0
C657 C 0.22771 0.11822 1.043 0.0
C658 C 0.23157 0.09085 1.01747 0.0
C659 C 0.25437 0.07274 1.03976 0.0
C660 C 0.20376 0.07434 1.01323 0.0
C661 C 0.24196 0.10202 0.97286 0.0
C662 C 0.24911 0.13021 0.9764 0.0
C663 C 0.25321 0.14663 0.93826 0.0
C664 C 0.24584 0.13549 0.89638 0.0
C665 C 0.23449 0.10816 0.89313 0.0
C666 C 0.2362 0.0903 0.93062 0.0
H667 H 0.20148 0.8876 0.32835 0.0
H668 H 0.14217 0.95628 0.31858 0.0
H669 H 0.15878 0.96596 0.24212 0.0
H670 H 0.25596 0.91733 0.23483 0.0
H671 H 0.26152 0.88149 0.21701 0.0
H672 H 0.2571 0.88967 0.27588 0.0
H673 H 0.21643 0.85392 0.28025 0.0
H674 H 0.22105 0.84572 0.22233 0.0
H675 H 0.18708 0.85722 0.24249 0.0
H676 H 0.1629 0.95388 0.16425 0.0
H677 H 0.155 0.92318 1.0997 0.0
H678 H 0.21552 0.86368 0.1517 0.0
C679 C 0.19344 0.90588 0.31115 0.0
C680 C 0.17026 0.92084 0.3289 0.0
C681 C 0.15972 0.94427 0.3053 0.0
C682 C 0.16928 0.95005 0.26182 0.0
C683 C 0.18966 0.93246 0.24263 0.0
C684 C 0.20248 0.91137 0.26728 0.0
C685 C 0.21822 0.89105 0.23684 0.0
C686 C 0.25009 0.89516 0.2414 0.0
C687 C 0.21012 0.86022 0.24598 0.0
C688 C 0.208 0.90088 0.19139 0.0
C689 C 0.19291 0.9258 0.19518 0.0
C690 C 0.17556 0.93508 0.16046 0.0
C691 C 0.17119 0.91737 0.12347 0.0
C692 C 0.18431 0.89067 0.12127 0.0
C693 C 0.20506 0.88389 0.15317 0.0
H694 H 0.29353 0.85793 0.42838 0.0
H695 H 0.3103 0.94689 0.4276 0.0
H696 H 0.29197 0.95102 0.50472 0.0
H697 H 0.23414 0.8611 0.52747 0.0
H698 H 0.24832 0.82847 0.54802 0.0
H699 H 0.24586 0.83449 0.48833 0.0
H700 H 0.29867 0.82332 0.48001 0.0
H701 H 0.30132 0.81747 0.53879 0.0
H702 H 0.32381 0.84308 0.51261 0.0
H703 H 0.29129 0.94353 0.58455 0.0
H704 H 0.31439 0.92596 0.65243 0.0
H705 H 0.30256 0.84066 0.60586 0.0
C706 C 0.2914 0.87849 0.44363 0.0
C707 C 0.30308 0.90207 0.42238 0.0
C708 C 0.30123 0.92862 0.44343 0.0
C709 C 0.29059 0.9311 0.48721 0.0
C710 C 0.28212 0.90681 0.5096 0.0
C711 C 0.28189 0.88089 0.48799 0.0
C712 C 0.28 0.85713 0.52152 0.0
C713 C 0.25031 0.84457 0.52133 0.0
C714 C 0.30233 0.83401 0.51272 0.0
C715 C 0.28515 0.87326 0.56476 0.0
C716 C 0.28349 0.90199 0.55773 0.0
C717 C 0.2921 0.92116 0.59053 0.0
C718 C 0.3055 0.91097 0.62899 0.0
C719 C 0.31107 0.88193 0.63355 0.0
C720 C 0.29839 0.86291 0.6033 0.0
H721 H 0.43601 0.06483 0.82229 0.0
H722 H 0.35379 0.07365 0.88157 0.0
H723 H 0.33202 0.06178 0.80945 0.0
H724 H 0.4281 0.10558 0.75031 0.0
H725 H 0.44617 0.09041 0.70257 0.0
H726 H 0.45542 0.07952 0.75753 0.0
H727 H 0.44434 0.02718 0.73936 0.0
H728 H 0.43825 0.03927 0.6832 0.0
H729 H 0.41189 0.01859 0.71126 0.0
H730 H 0.32052 0.07681 0.73502 0.0
H731 H 0.32146 0.11021 0.67209 0.0
H732 H 0.40994 0.09399 0.65332 0.0
C733 C 0.41351 0.062 0.82043 0.0
C734 C 0.39651 0.07093 0.8564 0.0
C735 C 0.36715 0.06712 0.85386 0.0
C736 C 0.35463 0.06056 0.81263 0.0
C737 C 0.37185 0.05775 0.77475 0.0
C738 C 0.40097 0.05723 0.77866 0.0
C739 C 0.41498 0.06241 0.73382 0.0
C740 C 0.43735 0.0859 0.73632 0.0
C741 C 0.42806 0.03513 0.71586 0.0
C742 C 0.3897 0.07098 0.70621 0.0
C743 C 0.3648 0.06659 0.72943 0.0
C744 C 0.33961 0.0792 0.71566 0.0
C745 C 0.34023 0.09828 0.67994 0.0
C746 C 0.36586 0.10443 0.65858 0.0
C747 C 0.39018 0.08901 0.66941 0.0
H748 H 0.95916 0.76206 0.34535 0.0
H749 H 0.92421 0.68486 0.29285 0.0
H750 H 0.93878 0.69909 0.21596 0.0
H751 H 0.93858 0.80691 0.24748 0.0
H752 H 0.96984 0.82802 0.2512 0.0
H753 H 0.9556 0.81191 0.30094 0.0
H754 H 0.00337 0.79069 0.31494 0.0
H755 H 0.01888 0.80218 0.26283 0.0
H756 H 0.01756 0.76526 0.2765 0.0
H757 H 0.95819 0.72388 0.13918 0.0
H758 H 0.97899 0.75303 1.07907 0.0
H759 H 0.00305 0.81491 0.17861 0.0
C760 C 0.95422 0.74796 0.31787 0.0
C761 C 0.93989 0.72174 0.32746 0.0
C762 C 0.93463 0.70483 0.28866 0.0
C763 C 0.94307 0.71297 0.244 0.0
C764 C 0.95697 0.73873 0.23617 0.0
C765 C 0.9622 0.75609 0.27254 0.0
C766 C 0.97748 0.78276 0.25545 0.0
C767 C 0.9593 0.80896 0.26432 0.0
C768 C 0.00607 0.78549 0.27872 0.0
C769 C 0.9809 0.77772 0.20401 0.0
C770 C 0.9684 0.75228 0.19355 0.0
C771 C 0.96788 0.74365 0.14808 0.0
C772 C 0.97997 0.76069 1.11336 0.0
C773 C 0.99336 0.78694 0.12193 0.0
C774 C 0.99352 0.79519 0.16909 0.0
H775 H 0.9615 0.25186 0.91085 0.0
H776 H 0.88972 0.19901 0.88348 0.0
H777 H 0.90022 0.17155 0.95171 0.0
H778 H 0.00457 0.19234 0.94892 0.0
H779 H 0.02336 0.21038 0.99218 0.0
H780 H 0.01105 0.22924 0.94324 0.0
H781 H 0.98155 0.26473 0.99309 0.0
H782 H 0.99665 0.24782 1.04155 0.0
H783 H 0.95917 0.25073 1.03593 0.0
H784 H 0.91956 0.1481 1.02928 0.0
H785 H 0.94521 0.13219 1.09686 0.0
H786 H 0.00737 0.19674 1.07485 0.0
C787 C 0.94747 0.23487 0.91931 0.0
C788 C 0.92383 0.22883 0.88989 0.0
C789 C 0.90752 0.20525 0.90373 0.0
C790 C 0.9135 0.18913 0.9433 0.0
C791 C 0.9367 0.19552 0.97088 0.0
C792 C 0.95363 0.2178 0.95889 0.0
C793 C 0.97848 0.21883 0.99258 0.0
C794 C 0.00604 0.21253 0.96768 0.0
C795 C 0.9791 0.24724 1.01712 0.0
C796 C 0.97256 0.19493 1.02642 0.0
C797 C 0.94825 0.18156 1.01307 0.0
C798 C 0.93862 0.15881 1.039 0.0
C799 C 0.95366 0.14969 1.07825 0.0
C800 C 0.97911 0.16244 1.09348 0.0
C801 C 0.98834 0.18574 1.06585 0.0
H802 H 0.54004 0.27629 0.82955 0.0
H803 H 0.61002 0.21975 0.85204 0.0
H804 H 0.59791 0.19386 0.78253 0.0
H805 H 0.49278 0.22051 0.7862 0.0
H806 H 0.47555 0.24283 0.7464 0.0
H807 H 0.49048 0.25758 0.79683 0.0
H808 H 0.5231 0.29107 0.74977 0.0
H809 H 0.50557 0.2776 0.69994 0.0
H810 H 0.54325 0.27644 0.70431 0.0
H811 H 0.57806 0.17367 0.70319 0.0
H812 H 0.55287 0.16127 0.63351 0.0
H813 H 0.49231 0.22743 0.66055 0.0
C814 C 0.55307 0.25852 0.82012 0.0
C815 C 0.57678 0.25102 0.84845 0.0
C816 C 0.59206 0.22689 0.83291 0.0
C817 C 0.58519 0.21173 0.79251 0.0
C818 C 0.56204 0.21964 0.76586 0.0
C819 C 0.54597 0.24234 0.77971 0.0
C820 C 0.52148 0.2457 0.74574 0.0
C821 C 0.49337 0.24152 0.77014 0.0
C822 C 0.52331 0.27448 0.72355 0.0
C823 C 0.52624 0.2222 0.71012 0.0
C824 C 0.55007 0.20743 0.72248 0.0
C825 C 0.55936 0.18537 0.69432 0.0
C826 C 0.54457 0.17834 0.65378 0.0
C827 C 0.51972 0.19262 0.6391 0.0
C828 C 0.51072 0.2152 0.66909 0.0
H829 H 0.56519 0.86891 0.58065 0.0
H830 H 0.49581 0.81055 0.59213 0.0
H831 H 0.51548 0.78283 0.52959 0.0
H832 H 0.56821 0.8708 0.45781 0.0
H833 H 0.60569 0.86943 0.45079 0.0
H834 H 0.5905 0.8844 0.50113 0.0
H835 H 0.61858 0.85145 0.55076 0.0
H836 H 0.63514 0.83655 0.50143 0.0
H837 H 0.61749 0.81413 0.54095 0.0
H838 H 0.54314 0.758 0.4685 0.0
H839 H 0.56955 0.74369 0.40195 0.0
H840 H 0.61835 0.8204 0.41015 0.0
C841 C 0.55361 0.85065 0.56962 0.0
C842 C 0.52825 0.84253 0.59383 0.0
C843 C 0.51472 0.81817 0.57616 0.0
C844 C 0.52586 0.8019 0.53998 0.0
C845 C 0.55026 0.81024 0.51759 0.0
C846 C 0.56372 0.83457 0.5306 0.0
C847 C 0.58922 0.83851 0.49799 0.0
C848 C 0.58832 0.86745 0.47556 0.0
C849 C 0.61675 0.83497 0.52433 0.0
C850 C 0.58628 0.81407 0.46291 0.0
C851 C 0.56468 0.79719 0.47774 0.0
C852 C 0.55953 0.77157 0.45616 0.0
C853 C 0.57515 0.76347 0.41753 0.0
C854 C 0.59633 0.78056 0.39759 0.0
C855 C 0.60204 0.80656 0.42207 0.0
H856 H 0.62088 0.55021 0.39393 0.0
H857 H 0.69722 0.59713 0.37235 0.0
H858 H 0.71851 0.57487 0.43763 0.0
H859 H 0.6097 0.56403 0.48943 0.0
H860 H 0.59864 0.53142 0.5144 0.0
H861 H 0.59591 0.53584 0.45526 0.0
H862 H 0.62588 0.4911 0.44274 0.0
H863 H 0.62884 0.48681 0.50277 0.0
H864 H 0.66 0.48804 0.46839 0.0
H865 H 0.72201 0.56964 0.51653 0.0
H866 H 0.70643 0.58318 0.59163 0.0
H867 H 0.62942 0.53695 0.57264 0.0
C868 C 0.64258 0.55453 0.40204 0.0
C869 C 0.65714 0.5757 0.37873 0.0
C870 C 0.68556 0.58088 0.38942 0.0
C871 C 0.69793 0.56815 0.42673 0.0
C872 C 0.68173 0.55016 0.45302 0.0
C873 C 0.65484 0.54236 0.44011 0.0
C874 C 0.63924 0.52887 0.47887 0.0
C875 C 0.60918 0.54086 0.48484 0.0
C876 C 0.63847 0.49681 0.47282 0.0
C877 C 0.6586 0.53669 0.51731 0.0
C878 C 0.6841 0.54661 0.50135 0.0
C879 C 0.7026 0.5611 0.52943 0.0
C880 C 0.69354 0.56875 0.57254 0.0
C881 C 0.66622 0.56176 0.58724 0.0
C882 C 0.65016 0.54286 0.56139 0.0
H883 H 0.63198 0.48506 0.83041 0.0
H884 H 0.69584 0.42302 0.8601 0.0
H885 H 0.72202 0.43679 0.79356 0.0
H886 H 0.61842 0.46932 0.73725 0.0
H887 H 0.61526 0.50197 0.70711 0.0
H888 H 0.61119 0.50191 0.76658 0.0
H889 H 0.65043 0.53888 0.77401 0.0
H890 H 0.65415 0.53895 0.71367 0.0
H891 H 0.68431 0.53256 0.7487 0.0
H892 H 0.7267 0.43649 0.7144 0.0
H893 H 0.70884 0.42277 0.64085 0.0
H894 H 0.6439 0.48627 0.65088 0.0
C895 C 0.65224 0.47554 0.82374 0.0
C896 C 0.66144 0.4526 0.8498 0.0
C897 C 0.68818 0.44073 0.84098 0.0
C898 C 0.70336 0.44854 0.80282 0.0
C899 C 0.69167 0.46828 0.77372 0.0
C900 C 0.66713 0.48267 0.7847 0.0
C901 C 0.65504 0.49714 0.74367 0.0
C902 C 0.62314 0.49216 0.73841 0.0
C903 C 0.66139 0.52875 0.74512 0.0
C904 C 0.67221 0.48292 0.70702 0.0
C905 C 0.69483 0.46838 0.72511 0.0
C906 C 0.70972 0.44849 0.69974 0.0
C907 C 0.69938 0.44075 0.65752 0.0
C908 C 0.67441 0.45301 0.64092 0.0
C909 C 0.66274 0.47638 0.66367 0.0
H910 H 0.89498 0.41794 0.1159 0.0
H911 H 0.8115 0.38537 1.09396 0.0
H912 H 0.80894 0.41062 1.02227 0.0
H913 H 0.88601 0.48632 1.03516 0.0
H914 H 0.92241 0.48106 1.02027 0.0
H915 H 0.91063 0.47471 1.077 0.0
H916 H 0.93307 0.42496 1.07069 0.0
H917 H 0.94289 0.43111 1.0139 0.0
H918 H 0.92098 0.40145 1.02714 0.0
H919 H 0.82235 0.4194 0.94567 0.0
H920 H 0.84913 0.41049 0.87681 0.0
H921 H 0.92507 0.43842 0.9427 0.0
C922 C 0.87541 0.41787 1.09747 0.0
C923 C 0.8535 0.39969 1.11022 0.0
C924 C 0.8285 0.39926 1.08476 0.0
C925 C 0.8269 0.41368 1.04394 0.0
C926 C 0.85039 0.42859 1.02925 0.0
C927 C 0.87401 0.43152 1.05604 0.0
C928 C 0.89884 0.44212 1.02905 0.0
C929 C 0.90482 0.47291 1.041 0.0
C930 C 0.92541 0.42376 1.03555 0.0
C931 C 0.88703 0.43969 0.98199 0.0
C932 C 0.85853 0.43377 0.98296 0.0
C933 C 0.84432 0.42508 0.94437 0.0
C934 C 0.8598 0.42006 0.90507 0.0
C935 C 0.8893 0.42353 0.90468 0.0
C936 C 0.90252 0.43563 0.94243 0.0
H937 H 0.79288 0.62784 0.29887 0.0
H938 H 0.80782 0.53832 0.30021 0.0
H939 H 0.79406 0.53529 0.22078 0.0
H940 H 0.73866 0.62668 0.19313 0.0
H941 H 0.75416 0.65918 0.17508 0.0
H942 H 0.74876 0.6527 0.23416 0.0
H943 H 0.80117 0.66269 0.24872 0.0
H944 H 0.80679 0.66886 0.19052 0.0
H945 H 0.82756 0.64255 0.21881 0.0
H946 H 0.79927 0.54367 0.14141 0.0
H947 H 0.82461 0.56188 1.0759 0.0
H948 H 0.80914 0.6468 0.12231 0.0
C949 C 0.79127 0.6074 0.2831 0.0
C950 C 0.8015 0.5834 0.30532 0.0
C951 C 0.80008 0.557 0.28362 0.0
C952 C 0.79205 0.55512 0.23845 0.0
C953 C 0.78542 0.5798 0.21551 0.0
C954 C 0.78416 0.60553 0.2376 0.0
C955 C 0.78413 0.62961 0.2045 0.0
C956 C 0.75467 0.6428 0.20153 0.0
C957 C 0.80628 0.65213 0.21633 0.0
C958 C 0.79118 0.61376 0.16161 0.0
C959 C 0.7895 0.58499 0.16786 0.0
C960 C 0.79992 0.56608 0.13581 0.0
C961 C 0.81457 0.57662 1.09876 0.0
C962 C 0.8193 0.60578 1.09461 0.0
C963 C 0.80545 0.62447 0.12433 0.0
H964 H 0.45507 0.32639 0.62292 0.0
H965 H 0.53322 0.36125 0.67177 0.0
H966 H 0.5205 0.347 0.74882 0.0
H967 H 0.41254 0.34444 0.72798 0.0
H968 H 0.39202 0.31278 0.72501 0.0
H969 H 0.40572 0.32819 0.67429 0.0
H970 H 0.42747 0.28131 0.65499 0.0
H971 H 0.41775 0.26492 0.70719 0.0
H972 H 0.45408 0.26631 0.68996 0.0
H973 H 0.50025 0.32534 0.82496 0.0
H974 H 0.47573 0.30085 0.88666 0.0
H975 H 0.40961 0.27732 0.79433 0.0
C976 C 0.46967 0.3312 0.64966 0.0
C977 C 0.49584 0.34551 0.63875 0.0
C978 C 0.5134 0.35063 0.67673 0.0
C979 C 0.50605 0.34263 0.72167 0.0
C980 C 0.48074 0.3284 0.73088 0.0
C981 C 0.46272 0.3227 0.69561 0.0
C982 C 0.43715 0.30628 0.71498 0.0
C983 C 0.41025 0.32396 0.71026 0.0
C984 C 0.43391 0.27801 0.69046 0.0
C985 C 0.44425 0.30218 0.76579 0.0
C986 C 0.46939 0.31575 0.77411 0.0
C987 C 0.48043 0.31517 0.81808 0.0
C988 C 0.46608 0.3009 0.85373 0.0
C989 C 0.44 0.2867 0.84781 0.0
C990 C 0.42918 0.28775 0.80198 0.0
H991 H 0.47348 0.72565 0.60801 0.0
H992 H 0.5482 0.68439 0.55617 0.0
H993 H 0.53456 0.69884 0.47918 0.0
H994 H 0.4289 0.70569 0.51066 0.0
H995 H 0.40817 0.73742 0.51055 0.0
H996 H 0.42334 0.72494 0.56228 0.0
H997 H 0.45072 0.7725 0.57468 0.0
H998 H 0.43073 0.78384 0.52662 0.0
H999 H 0.46804 0.78738 0.5264 0.0
H1000 H 0.51079 0.71626 0.40324 0.0
H1001 H 0.48359 0.73603 0.3413 0.0
H1002 H 0.42351 0.77085 0.43647 0.0
C1003 C 0.48736 0.7197 0.5807 0.0
C1004 C 0.51268 0.70331 0.59066 0.0
C1005 C 0.52909 0.69648 0.55194 0.0
C1006 C 0.52125 0.70481 0.50719 0.0
C1007 C 0.49649 0.72059 0.49904 0.0
C1008 C 0.47976 0.72818 0.53508 0.0
C1009 C 0.45351 0.74428 0.51635 0.0
C1010 C 0.4269 0.72707 0.52553 0.0
C1011 C 0.45066 0.77369 0.5374 0.0
C1012 C 0.45883 0.74625 0.46468 0.0
C1013 C 0.48346 0.7315 0.4558 0.0
C1014 C 0.4919 0.72809 0.4109 0.0
C1015 C 0.47573 0.73972 0.37499 0.0
C1016 C 0.45095 0.75662 0.38117 0.0
C1017 C 0.44252 0.75939 0.42823 0.0
H1018 H 0.09897 0.6896 0.32922 0.0
H1019 H 0.07951 0.77711 0.30415 0.0
H1020 H 0.06031 0.76414 0.23015 0.0
H1021 H 0.11826 0.67348 0.20912 0.0
H1022 H 0.10392 0.63852 0.20926 0.0
H1023 H 0.11683 0.65389 0.26074 0.0
H1024 H 0.0688 0.6455 0.29873 0.0
H1025 H 0.05626 0.6297 0.24744 0.0
H1026 H 0.0374 0.65874 0.27226 0.0
H1027 H 0.03599 0.74087 0.15911 0.0
H1028 H 0.01897 0.71181 1.09573 0.0
H1029 H 0.05611 0.63823 0.15683 0.0
C1030 C 0.0907 0.70624 0.30841 0.0
C1031 C 0.09118 0.73507 0.32528 0.0
C1032 C 0.07993 0.75515 0.29461 0.0
C1033 C 0.06851 0.7478 0.25165 0.0
C1034 C 0.06738 0.71967 0.23721 0.0
C1035 C 0.07887 0.69912 0.26431 0.0
C1036 C 0.07625 0.67057 0.23865 0.0
C1037 C 0.10556 0.65837 0.22888 0.0
C1038 C 0.05865 0.64987 0.26597 0.0
C1039 C 0.06093 0.67808 0.19398 0.0
C1040 C 0.05576 0.70668 0.1945 0.0
C1041 C 0.04055 0.7186 0.15874 0.0
C1042 C 0.0307 0.70159 0.12218 0.0
C1043 C 0.03594 0.67213 0.11871 0.0
C1044 C 0.0517 0.66052 0.15625 0.0
H1045 H 0.07334 0.26597 0.87527 0.0
H1046 H 0.09949 0.18401 0.92199 0.0
H1047 H 0.08489 0.19759 0.99935 0.0
H1048 H 0.0966 0.30364 0.98238 0.0
H1049 H 0.06875 0.3293 0.97906 0.0
H1050 H 0.08292 0.31375 0.9284 0.0
H1051 H 0.03371 0.30031 0.90604 0.0
H1052 H 0.01821 0.31283 0.95776 0.0
H1053 H 0.01343 0.27702 0.93989 0.0
H1054 H 0.0656 0.22121 1.07672 0.0
H1055 H 0.04479 0.24951 0.13853 0.0
H1056 H 0.02854 0.31697 1.04515 0.0
C1057 C 0.0762 0.25064 0.90157 0.0
C1058 C 0.08808 0.22323 0.89014 0.0
C1059 C 0.09094 0.20484 0.92754 0.0
C1060 C 0.08259 0.21265 0.9725 0.0
C1061 C 0.07109 0.2395 0.98216 0.0
C1062 C 0.06801 0.25831 0.9473 0.0
C1063 C 0.05527 0.28604 0.96677 0.0
C1064 C 0.07717 0.30958 0.96397 0.0
C1065 C 0.02856 0.29453 0.94122 0.0
C1066 C 0.04908 0.2792 1.01697 0.0
C1067 C 0.05945 0.2525 1.02537 0.0
C1068 C 0.05763 0.24202 1.06955 0.0
C1069 C 0.04549 0.25855 1.10524 0.0
C1070 C 0.03403 0.28601 1.09885 0.0
C1071 C 0.03623 0.29615 1.05287 0.0
H1072 H 0.94729 0.26434 0.27665 0.0
H1073 H 0.02325 0.27409 0.35337 0.0
H1074 H 0.00187 0.24906 0.41582 0.0
H1075 H 0.88978 0.24205 0.36779 0.0
H1076 H 0.91166 0.22285 0.40594 0.0
H1077 H 0.88933 0.20418 0.36763 0.0
H1078 H 0.89876 0.24159 0.28411 0.0
H1079 H 0.89836 0.20379 0.2841 0.0
H1080 H 0.92747 0.22218 0.25987 0.0
H1081 H 0.00504 0.19872 0.40966 0.0
H1082 H 0.02686 0.18461 0.33974 0.0
H1083 H 0.9456 0.17902 0.2775 0.0
C1084 C 0.95915 0.26066 0.30701 0.0
C1085 C 0.98779 0.26795 0.30847 0.0
C1086 C 0.00206 0.26622 0.34972 0.0
C1087 C 0.98941 0.25303 0.38611 0.0
C1088 C 0.96458 0.23805 0.37833 0.0
C1089 C 0.94696 0.2458 0.34287 0.0
C1090 C 0.92631 0.22245 0.33483 0.0
C1091 C 0.90302 0.2229 0.37125 0.0
C1092 C 0.91204 0.22249 0.28791 0.0
C1093 C 0.94676 0.19868 0.34325 0.0
C1094 C 0.9652 0.20708 0.37791 0.0
C1095 C 0.99159 0.19416 0.38124 0.0
C1096 C 0.00427 0.18597 0.34108 0.0
C1097 C 0.98789 0.18199 0.30241 0.0
C1098 C 0.95847 0.18391 0.3064 0.0
H1099 H 0.00731 0.63363 0.47784 0.0
H1100 H 0.95674 0.66218 0.36875 0.0
H1101 H 0.99721 0.66298 0.31946 0.0
H1102 H 0.04496 0.65779 0.50484 0.0
H1103 H 0.0815 0.64961 0.4978 0.0
H1104 H 0.05617 0.62195 0.49541 0.0
H1105 H 0.08029 0.60881 0.4195 0.0
H1106 H 0.10236 0.63943 0.42303 0.0
H1107 H 0.0811 0.63358 0.37421 0.0
H1108 H 0.01851 0.70895 0.33647 0.0
H1109 H 0.02931 0.75095 0.38178 0.0
H1110 H 0.07056 0.69823 0.47897 0.0
C1111 C 0.0055 0.63847 0.4425 0.0
C1112 C 0.98102 0.65187 0.42801 0.0
C1113 C 0.97672 0.65545 0.38177 0.0
C1114 C -0.00024 0.65496 0.35317 0.0
C1115 C 0.02617 0.65411 0.3734 0.0
C1116 C 0.02952 0.63991 0.41461 0.0
C1117 C 0.05756 0.6479 0.43454 0.0
C1118 C 0.06006 0.64417 0.48619 0.0
C1119 C 0.08167 0.6315 0.41134 0.0
C1120 C 0.05732 0.67786 0.4189 0.0
C1121 C 0.04155 0.68043 0.37989 0.0
C1122 C 0.03167 0.7069 0.36592 0.0
C1123 C 0.0368 0.73061 0.39273 0.0
C1124 C 0.05113 0.72774 0.4338 0.0
C1125 C 0.06088 0.70108 0.44675 0.0
H1126 H 0.6027 0.7497 0.77647 0.0
H1127 H 0.57297 0.72322 0.64729 0.0
H1128 H 0.60591 0.75541 0.61139 0.0
H1129 H 0.596 0.79334 0.80456 0.0
H1130 H 0.61849 0.82319 0.80788 0.0
H1131 H 0.63342 0.78856 0.80999 0.0
H1132 H 0.66654 0.80508 0.74671 0.0
H1133 H 0.64853 0.83844 0.7447 0.0
H1134 H 0.65266 0.81779 0.69447 0.0
H1135 H 0.5699 0.7925 0.61641 0.0
H1136 H 0.52645 0.79807 0.65788 0.0
H1137 H 0.57173 0.83176 0.77079 0.0
C1138 C 0.603 0.752 0.74032 0.0
C1139 C 0.58234 0.73814 0.71478 0.0
C1140 C 0.58574 0.73678 0.66796 0.0
C1141 C 0.6053 0.7544 0.64773 0.0
C1142 C 0.61411 0.77742 0.67363 0.0
C1143 C 0.61905 0.77338 0.71978 0.0
C1144 C 0.62064 0.80187 0.74235 0.0
C1145 C 0.61679 0.80161 0.79418 0.0
C1146 C 0.64869 0.81661 0.73124 0.0
C1147 C 0.59692 0.81508 0.71638 0.0
C1148 C 0.59616 0.80277 0.67338 0.0
C1149 C 0.57077 0.8018 0.64967 0.0
C1150 C 0.54582 0.80453 0.6736 0.0
C1151 C 0.54576 0.81606 0.71694 0.0
C1152 C 0.57154 0.82314 0.73708 0.0
H1153 H 0.52888 0.33606 1.03048 0.0
H1154 H 0.55436 0.26202 1.10274 0.0
H1155 H 0.52441 0.27575 0.16538 0.0
H1156 H 0.48134 0.35956 0.16222 0.0
H1157 H 0.45822 0.37873 0.12587 0.0
H1158 H 0.49543 0.38567 0.12539 0.0
H1159 H 0.49656 0.3789 1.04146 0.0
H1160 H 0.45941 0.37201 1.04148 0.0
H1161 H 0.48333 0.34768 1.01517 0.0
H1162 H 0.47552 0.26341 0.15975 0.0
H1163 H 0.46415 0.24083 1.08898 0.0
H1164 H 0.44478 0.3214 1.03176 0.0
C1165 C 0.52765 0.32292 1.05991 0.0
C1166 C 0.54128 0.29661 1.05983 0.0
C1167 C 0.5421 0.28115 1.10006 0.0
C1168 C 0.526 0.28962 0.13679 0.0
C1169 C 0.50632 0.31118 0.13056 0.0
C1170 C 0.51039 0.33085 1.09644 0.0
C1171 C 0.48341 0.34692 1.09012 0.0
C1172 C 0.47938 0.36889 0.1282 0.0
C1173 C 0.48052 0.36211 1.04429 0.0
C1174 C 0.46416 0.32218 1.0973 0.0
C1175 C 0.47606 0.30479 0.13054 0.0
C1176 C 0.46847 0.27643 0.13222 0.0
C1177 C 0.46221 0.2634 1.09149 0.0
C1178 C 0.4553 0.27976 1.05394 0.0
C1179 C 0.45191 0.30892 1.05978 0.0
H1180 H 0.96661 0.77797 0.92864 0.0
H1181 H 0.05372 0.77057 0.89054 0.0
H1182 H 0.04004 0.75688 0.8154 0.0
H1183 H 0.94261 0.73643 0.93386 0.0
H1184 H 0.91601 0.72163 0.8983 0.0
H1185 H 0.91926 0.75914 0.90363 0.0
H1186 H 0.92172 0.76367 0.81943 0.0
H1187 H 0.91829 0.72612 0.81367 0.0
H1188 H 0.94663 0.74404 0.78641 0.0
H1189 H 0.03386 0.70786 0.80365 0.0
H1190 H 0.04398 0.67945 0.86932 0.0
H1191 H 0.95965 0.69278 0.91733 0.0
C1192 C 0.98249 0.77317 0.9037 0.0
C1193 C 0.011 0.77391 0.91613 0.0
C1194 C 0.03154 0.76917 0.88292 0.0
C1195 C 0.02365 0.76189 0.8395 0.0
C1196 C 0.99645 0.75157 0.83353 0.0
C1197 C 0.97479 0.76063 0.8625 0.0
C1198 C 0.95139 0.73941 0.8604 0.0
C1199 C 0.93127 0.73911 0.90158 0.0
C1200 C 0.93358 0.74354 0.81743 0.0
C1201 C 0.97014 0.71392 0.85536 0.0
C1202 C 0.993 0.72105 0.8279 0.0
C1203 C 0.01708 0.70396 0.82738 0.0
C1204 C 0.0233 0.68878 0.86589 0.0
C1205 C 0.00345 0.6874 0.90075 0.0
C1206 C 0.97578 0.69656 0.89247 0.0
H1207 H 0.54407 0.78001 0.34342 0.0
H1208 H 0.58612 0.82284 0.23572 0.0
H1209 H 0.57326 0.86752 0.26749 0.0
H1210 H 0.49961 0.78788 0.36368 0.0
H1211 H 0.48169 0.80862 0.40568 0.0
H1212 H 0.51558 0.79405 0.41721 0.0
H1213 H 0.53182 0.84165 0.43889 0.0
H1214 H 0.49893 0.85777 0.42478 0.0
H1215 H 0.53092 0.87088 0.40088 0.0
H1216 H 0.52647 0.88159 0.24575 0.0
H1217 H 0.4928 0.85219 0.20477 0.0
H1218 H 0.46639 0.81535 0.3284 0.0
C1219 C 0.55107 0.79927 0.32814 0.0
C1220 C 0.56488 0.79775 0.28629 0.0
C1221 C 0.57477 0.82285 0.26705 0.0
C1222 C 0.56819 0.8487 0.28603 0.0
C1223 C 0.54782 0.84942 0.31966 0.0
C1224 C 0.54346 0.82577 0.34663 0.0
C1225 C 0.51634 0.83036 0.37209 0.0
C1226 C 0.50253 0.80357 0.3907 0.0
C1227 C 0.51983 0.85148 0.41125 0.0
C1228 C 0.50079 0.84419 0.33419 0.0
C1229 C 0.51969 0.86045 0.3092 0.0
C1230 C 0.51324 0.86738 0.26447 0.0
C1231 C 0.49502 0.84986 0.2408 0.0
C1232 C 0.48081 0.82857 0.26375 0.0
C1233 C 0.48028 0.8292 0.31067 0.0
H1234 H 0.55465 0.21067 0.45887 0.0
H1235 H 0.4757 0.22776 0.39393 0.0
H1236 H 0.50035 0.24162 0.32633 0.0
H1237 H 0.58178 0.24975 0.47421 0.0
H1238 H 0.61477 0.25945 0.44942 0.0
H1239 H 0.60513 0.22305 0.45291 0.0
H1240 H 0.59727 0.23902 0.32918 0.0
H1241 H 0.6142 0.21724 0.37007 0.0
H1242 H 0.62349 0.25379 0.36553 0.0
H1243 H 0.51591 0.28857 0.31706 0.0
H1244 H 0.50305 0.32082 0.37691 0.0
H1245 H 0.57626 0.29587 0.45214 0.0
C1246 C 0.54299 0.2172 0.42954 0.0
C1247 C 0.51355 0.21933 0.43209 0.0
C1248 C 0.49838 0.22655 0.39344 0.0
C1249 C 0.51257 0.23402 0.35445 0.0
C1250 C 0.5412 0.24046 0.35807 0.0
C1251 C 0.5573 0.22877 0.39282 0.0
C1252 C 0.58328 0.24634 0.39961 0.0
C1253 C 0.59691 0.24458 0.44689 0.0
C1254 C 0.60579 0.23869 0.36394 0.0
C1255 C 0.56977 0.27419 0.38873 0.0
C1256 C 0.54992 0.26989 0.35458 0.0
C1257 C 0.52968 0.29047 0.34583 0.0
C1258 C 0.52177 0.30809 0.38099 0.0
C1259 C 0.53729 0.30832 0.4213 0.0
C1260 C 0.56322 0.29406 0.42255 0.0
H1261 H 0.02402 0.14429 0.71272 0.0
H1262 H 0.05562 0.17512 0.83854 0.0
H1263 H 0.01632 0.15369 0.87793 0.0
H1264 H 0.9806 0.15799 0.68541 0.0
H1265 H 0.94816 0.13893 0.68323 0.0
H1266 H 0.98104 0.12023 0.68165 0.0
H1267 H 0.96251 0.09063 0.74679 0.0
H1268 H 0.93078 0.11129 0.74944 0.0
H1269 H 0.95164 0.10672 0.79883 0.0
H1270 H 0.98134 0.18978 0.87208 0.0
H1271 H 0.97509 0.23283 0.83065 0.0
H1272 H 0.94317 0.18608 0.71728 0.0
C1273 C 0.02178 0.14634 0.7488 0.0
C1274 C 0.03996 0.16439 0.77218 0.0
C1275 C 0.03975 0.16432 0.81932 0.0
C1276 C 0.018 0.15101 0.84185 0.0
C1277 C 0.99443 0.14364 0.81641 0.0
C1278 C -0.00214 0.13583 0.7711 0.0
C1279 C 0.9694 0.13615 0.74872 0.0
C1280 C 0.96992 0.13857 0.69672 0.0
C1281 C 0.95265 0.1097 0.76183 0.0
C1282 C 0.95803 0.16158 0.77328 0.0
C1283 C 0.97026 0.16288 0.81608 0.0
C1284 C 0.97212 0.18859 0.83892 0.0
C1285 C 0.96926 0.21324 0.81466 0.0
C1286 C 0.95877 0.21262 0.77062 0.0
C1287 C 0.95125 0.1867 0.75125 0.0
H1288 H 0.00063 0.03349 0.16042 0.0
H1289 H 0.08805 0.05738 0.14934 0.0
H1290 H 0.09854 0.01197 1.11132 0.0
H1291 H 0.01077 0.95907 0.17874 0.0
H1292 H 0.98141 0.94857 0.14449 0.0
H1293 H 0.9811 0.98233 0.17213 0.0
H1294 H 0.97292 0.00664 1.09577 0.0
H1295 H 0.97319 0.97294 1.0679 0.0
H1296 H 0.99697 3e-05 1.05 0.0
H1297 H 0.09972 0.96106 1.07676 0.0
H1298 H 0.09079 0.9142 1.04336 0.0
H1299 H 0.00177 0.92471 1.06976 0.0
C1300 C 0.02207 0.02921 0.15022 0.0
C1301 C 0.04357 0.04942 0.15883 0.0
C1302 C 0.07113 0.04267 0.14373 0.0
C1303 C 0.07729 0.01669 0.12203 0.0
C1304 C 0.05566 0.99732 0.11426 0.0
C1305 C 0.02846 0.00357 0.12736 0.0
C1306 C 0.00872 0.97978 1.11323 0.0
C1307 C 0.99467 0.96667 0.15461 0.0
C1308 C 0.98664 0.99049 1.07974 0.0
C1309 C 0.02895 0.95895 1.0906 0.0
C1310 C 0.05604 0.9693 1.09207 0.0
C1311 C 0.07845 0.9532 1.07507 0.0
C1312 C 0.07315 0.92634 1.05603 0.0
C1313 C 0.0455 0.91533 1.05284 0.0
C1314 C 0.02317 0.93229 1.07061 0.0
H1315 H 0.19678 0.80091 0.37256 0.0
H1316 H 0.21194 0.7308 0.46192 0.0
H1317 H 0.25789 0.72259 0.4261 0.0
H1318 H 0.23129 0.76962 0.27387 0.0
H1319 H 0.24579 0.80241 0.25519 0.0
H1320 H 0.21361 0.80207 0.28741 0.0
H1321 H 0.2365 0.83585 0.34793 0.0
H1322 H 0.26705 0.83628 0.31202 0.0
H1323 H 0.2703 0.82634 0.37028 0.0
H1324 H 0.3028 0.72016 0.37745 0.0
H1325 H 0.3439 0.72782 0.32794 0.0
H1326 H 0.30275 0.80118 0.27232 0.0
C1327 C 0.20981 0.78396 0.38494 0.0
C1328 C 0.20004 0.76662 0.42075 0.0
C1329 C 0.21829 0.74466 0.43508 0.0
C1330 C 0.24469 0.73964 0.41459 0.0
C1331 C 0.25346 0.75675 0.37933 0.0
C1332 C 0.23672 0.77875 0.36499 0.0
C1333 C 0.25161 0.79428 0.32691 0.0
C1334 C 0.23456 0.792 0.28325 0.0
C1335 C 0.25666 0.82504 0.34007 0.0
C1336 C 0.27942 0.77805 0.32269 0.0
C1337 C 0.27973 0.75603 0.35265 0.0
C1338 C 0.30269 0.73752 0.35415 0.0
C1339 C 0.32605 0.7419 0.32541 0.0
C1340 C 0.32707 0.76499 0.29551 0.0
C1341 C 0.303 0.78316 0.29432 0.0
H1342 H 0.50658 0.07148 0.56524 0.0
H1343 H 0.41697 0.08578 0.5545 0.0
H1344 H 0.40829 0.03925 0.58927 0.0
H1345 H 0.50833 0.99605 0.54688 0.0
H1346 H 0.53469 0.98996 0.58918 0.0
H1347 H 0.53349 0.02302 0.56011 0.0
H1348 H 0.52995 0.04937 0.63629 0.0
H1349 H 0.53114 0.01641 0.66557 0.0
H1350 H 0.50233 0.04042 0.67516 0.0
H1351 H 0.41009 0.98853 0.62565 0.0
H1352 H 0.42181 0.94458 0.66632 0.0
H1353 H 0.51009 0.96607 0.65943 0.0
C1354 C 0.48507 0.06471 0.56955 0.0
C1355 C 0.46247 0.08238 0.55577 0.0
C1356 C 0.43472 0.07277 0.56383 0.0
C1357 C 0.42961 0.04613 0.58345 0.0
C1358 C 0.45241 0.02912 0.59609 0.0
C1359 C 0.47961 0.03855 0.59035 0.0
C1360 C 0.50049 0.01786 0.61079 0.0
C1361 C 0.52043 0.00602 0.57458 0.0
C1362 C 0.51695 0.03185 0.64923 0.0
C1363 C 0.48103 0.99513 0.62868 0.0
C1364 C 0.45335 0.00161 0.61931 0.0
C1365 C 0.4318 0.98345 0.63281 0.0
C1366 C 0.43865 0.9584 0.65625 0.0
C1367 C 0.4669 0.95145 0.66696 0.0
C1368 C 0.48819 0.97044 0.65258 0.0
H1369 H 0.30139 0.25023 0.93415 0.0
H1370 H 0.34937 0.18346 0.86993 0.0
H1371 H 0.3092 0.17344 0.8202 0.0
H1372 H 0.2324 0.21426 0.9285 0.0
H1373 H 0.2133 0.24625 0.91782 0.0
H1374 H 0.24545 0.24724 0.94968 0.0
H1375 H 0.2652 0.28372 0.89375 0.0
H1376 H 0.23328 0.28215 0.86138 0.0
H1377 H 0.26663 0.27518 0.83468 0.0
H1378 H 0.26402 0.17143 0.77444 0.0
H1379 H 0.21729 0.17531 0.73997 0.0
H1380 H 0.19593 0.24309 0.8321 0.0
C1381 C 0.30344 0.23324 0.90995 0.0
C1382 C 0.3292 0.21762 0.90666 0.0
C1383 C 0.33042 0.19581 0.87391 0.0
C1384 C 0.30749 0.19 0.84516 0.0
C1385 C 0.28284 0.20602 0.8488 0.0
C1386 C 0.28049 0.22705 0.88073 0.0
C1387 C 0.25142 0.24108 0.87725 0.0
C1388 C 0.23466 0.23696 0.92091 0.0
C1389 C 0.25431 0.2724 0.86611 0.0
C1390 C 0.23795 0.22495 0.83808 0.0
C1391 C 0.25664 0.20483 0.82236 0.0
C1392 C 0.24937 0.18716 0.78669 0.0
C1393 C 0.22249 0.18962 0.7671 0.0
C1394 C 0.20232 0.20965 0.78245 0.0
C1395 C 0.21059 0.22778 0.81859 0.0
H1396 H 0.7019 0.26081 0.90995 0.0
H1397 H 0.69341 0.35098 0.92512 0.0
H1398 H 0.74005 0.35717 0.88931 0.0
H1399 H 0.77717 0.25545 0.92818 0.0
H1400 H 0.78246 0.22883 0.88565 0.0
H1401 H 0.74919 0.23155 0.91438 0.0
H1402 H 0.72374 0.23619 0.83805 0.0
H1403 H 0.75693 0.23348 0.80911 0.0
H1404 H 0.73428 0.26328 0.79953 0.0
H1405 H 0.7905 0.35298 0.85312 0.0
H1406 H 0.83501 0.33933 0.81494 0.0
H1407 H 0.80886 0.25233 0.81659 0.0
C1408 C 0.70989 0.2819 0.90616 0.0
C1409 C 0.69364 0.3054 0.92142 0.0
C1410 C 0.70508 0.33254 0.9144 0.0
C1411 C 0.73179 0.33625 0.89398 0.0
C1412 C 0.74718 0.3127 0.87942 0.0
C1413 C 0.73632 0.28603 0.88473 0.0
C1414 C 0.75631 0.26422 0.86414 0.0
C1415 C 0.7669 0.2438 0.90024 0.0
C1416 C 0.74196 0.24835 0.82541 0.0
C1417 C 0.7802 0.28258 0.84669 0.0
C1418 C 0.7748 0.31051 0.85637 0.0
C1419 C 0.79452 0.33114 0.84506 0.0
C1420 C 0.81997 0.32317 0.82327 0.0
C1421 C 0.82577 0.29475 0.8117 0.0
C1422 C 0.80525 0.27435 0.82392 0.0
H1423 H 0.80741 0.68987 0.45001 0.0
H1424 H 0.85114 0.76415 0.40445 0.0
H1425 H 0.81037 0.77624 0.35666 0.0
H1426 H 0.77476 0.6715 0.34804 0.0
H1427 H 0.7414 0.66114 0.37133 0.0
H1428 H 0.77272 0.65881 0.40498 0.0
H1429 H 0.75091 0.68957 0.46685 0.0
H1430 H 0.71889 0.69161 0.43479 0.0
H1431 H 0.73622 0.72332 0.45267 0.0
H1432 H 0.76605 0.77795 0.30759 0.0
H1433 H 0.72037 0.7733 0.27001 0.0
H1434 H 0.70214 0.6996 0.34985 0.0
C1435 C 0.80825 0.70908 0.4308 0.0
C1436 C 0.83294 0.72617 0.43184 0.0
C1437 C 0.83277 0.75084 0.40536 0.0
C1438 C 0.80962 0.75775 0.37757 0.0
C1439 C 0.78609 0.74015 0.37663 0.0
C1440 C 0.78494 0.71664 0.40345 0.0
C1441 C 0.75687 0.7015 0.3965 0.0
C1442 C 0.76173 0.67144 0.3791 0.0
C1443 C 0.7397 0.7015 0.44031 0.0
C1444 C 0.74265 0.71968 0.3608 0.0
C1445 C 0.7601 0.74175 0.3497 0.0
C1446 C 0.75225 0.76089 0.31663 0.0
C1447 C 0.72603 0.75789 0.29506 0.0
C1448 C 0.70699 0.73605 0.30632 0.0
C1449 C 0.71578 0.71661 0.33998 0.0
H1450 H 0.55427 0.56978 0.6962 0.0
H1451 H 0.47153 0.60215 0.66338 0.0
H1452 H 0.46305 0.56009 0.61605 0.0
H1453 H 0.57112 0.54039 0.58916 0.0
H1454 H 0.58824 0.50923 0.61002 0.0
H1455 H 0.58786 0.54088 0.64345 0.0
H1456 H 0.56451 0.51497 0.71003 0.0
H1457 H 0.56646 0.48297 0.67735 0.0
H1458 H 0.53328 0.49468 0.70018 0.0
H1459 H 0.46397 0.51428 0.56952 0.0
H1460 H 0.47297 0.4691 0.53141 0.0
H1461 H 0.55538 0.46487 0.59319 0.0
C1462 C 0.53413 0.56796 0.67963 0.0
C1463 C 0.51344 0.58975 0.68443 0.0
C1464 C 0.48769 0.58611 0.66121 0.0
C1465 C 0.48274 0.56215 0.63385 0.0
C1466 C 0.50364 0.54145 0.6295 0.0
C1467 C 0.52878 0.54399 0.65217 0.0
C1468 C 0.54772 0.51857 0.64186 0.0
C1469 C 0.57537 0.52783 0.6198 0.0
C1470 C 0.55335 0.50179 0.6849 0.0
C1471 C 0.52966 0.5016 0.609 0.0
C1472 C 0.50422 0.5152 0.60268 0.0
C1473 C 0.48385 0.50362 0.57448 0.0
C1474 C 0.48925 0.47768 0.55269 0.0
C1475 C 0.51499 0.46282 0.55844 0.0
C1476 C 0.53551 0.47538 0.58722 0.0
H1477 H 0.02404 0.52603 1.04507 0.0
H1478 H 0.94095 0.55681 1.08037 0.0
H1479 H 0.93197 0.51305 0.12203 0.0
H1480 H 0.00491 0.45216 1.03053 0.0
H1481 H 0.03697 0.43895 1.05485 0.0
H1482 H 0.03673 0.47242 1.02691 0.0
H1483 H 0.05651 0.49607 1.09856 0.0
H1484 H 0.05674 0.46268 0.12673 0.0
H1485 H 0.03817 0.49211 0.15121 0.0
H1486 H 0.93111 0.46366 0.1585 0.0
H1487 H 0.93992 0.41673 0.19063 0.0
H1488 H 0.02441 0.41763 0.13594 0.0
C1489 C 0.00376 0.52354 1.06111 0.0
C1490 C 0.98311 0.54542 1.05852 0.0
C1491 C 0.95717 0.54084 1.08098 0.0
C1492 C 0.95183 0.51577 1.10489 0.0
C1493 C 0.97246 0.49472 1.10648 0.0
C1494 C -0.00195 0.49845 1.08536 0.0
C1495 C 0.017 0.47286 1.0935 0.0
C1496 C 0.02434 0.45823 1.04878 0.0
C1497 C 0.04369 0.48145 0.11901 0.0
C1498 C -0.00176 0.45419 0.12253 0.0
C1499 C 0.97248 0.46711 0.12914 0.0
C1500 C 0.95138 0.45369 0.15371 0.0
C1501 C 0.95662 0.42676 0.17196 0.0
C1502 C 0.98302 0.413 0.16675 0.0
C1503 C 0.00407 0.42729 0.14139 0.0
H1504 H 0.02571 0.11666 0.41351 0.0
H1505 H 0.08669 0.16552 0.33927 0.0
H1506 H 0.10642 0.18274 0.41002 0.0
H1507 H 0.01655 0.16679 0.50876 0.0
H1508 H 0.01518 0.14069 0.55235 0.0
H1509 H 0.00427 0.13191 0.49598 0.0
H1510 H 0.03948 0.09075 0.49412 0.0
H1511 H 0.05044 0.09932 0.55054 0.0
H1512 H 0.07603 0.09721 0.50588 0.0
H1513 H 0.11981 0.19877 0.4927 0.0
H1514 H 0.12781 0.20642 0.57385 0.0
H1515 H 0.06384 0.14489 0.60374 0.0
C1516 C 0.04337 0.13081 0.41165 0.0
C1517 C 0.05395 0.13907 0.36735 0.0
C1518 C 0.07734 0.15789 0.37001 0.0
C1519 C 0.08899 0.16826 0.41121 0.0
C1520 C 0.07831 0.15994 0.45311 0.0
C1521 C 0.05621 0.14113 0.45386 0.0
C1522 C 0.04983 0.13504 0.50461 0.0
C1523 C 0.01965 0.14413 0.51612 0.0
C1524 C 0.05418 0.1037 0.51437 0.0
C1525 C 0.07149 0.15318 0.53175 0.0
C1526 C 0.0873 0.16774 0.50071 0.0
C1527 C 0.10759 0.1869 0.51661 0.0
C1528 C 0.11212 0.19124 0.56388 0.0
C1529 C 0.09742 0.17634 0.59809 0.0
C1530 C 0.07649 0.15672 0.58035 0.0
H1531 H 0.05728 0.80562 0.6155 0.0
H1532 H 0.13952 0.76923 0.63859 0.0
H1533 H 0.13454 0.77948 0.71963 0.0
H1534 H 0.05928 0.86111 0.70341 0.0
H1535 H 0.02352 0.8569 0.72216 0.0
H1536 H 0.03309 0.84787 0.66517 0.0
H1537 H 0.01348 0.79806 0.67637 0.0
H1538 H 0.00383 0.80705 0.73335 0.0
H1539 H 0.02609 0.77708 0.72244 0.0
H1540 H 0.1216 0.79555 0.80299 0.0
H1541 H 0.10158 0.81039 0.87533 0.0
H1542 H 0.0243 0.83419 0.80837 0.0
C1543 C 0.0745 0.79985 0.63729 0.0
C1544 C 0.0995 0.78651 0.61743 0.0
C1545 C 0.12036 0.77936 0.64997 0.0
C1546 C 0.11763 0.78529 0.69724 0.0
C1547 C 0.09329 0.79826 0.71515 0.0
C1548 C 0.07171 0.80507 0.68608 0.0
C1549 C 0.04716 0.81757 0.7155 0.0
C1550 C 0.04034 0.84765 0.70066 0.0
C1551 C 0.02108 0.79884 0.71165 0.0
C1552 C 0.05843 0.81746 0.76499 0.0
C1553 C 0.0853 0.80622 0.76332 0.0
C1554 C 0.1005 0.80412 0.80369 0.0
C1555 C 0.08861 0.81301 0.84581 0.0
C1556 C 0.06078 0.82421 0.851 0.0
C1557 C 0.04564 0.82628 0.80822 0.0
H1558 H 0.42002 0.78229 1.06034 0.0
H1559 H 0.43552 0.85991 0.13249 0.0
H1560 H 0.45265 0.88138 1.06238 0.0
H1561 H 0.4798 0.7866 0.98122 0.0
H1562 H 0.46097 0.77347 0.93306 0.0
H1563 H 0.45044 0.76334 0.98889 0.0
H1564 H 0.40028 0.78136 0.97362 0.0
H1565 H 0.41066 0.79147 0.9177 0.0
H1566 H 0.39509 0.81701 0.95524 0.0
H1567 H 0.4719 0.89536 0.98001 0.0
H1568 H 0.48465 0.90063 0.89977 0.0
H1569 H 0.45353 0.8169 0.8733 0.0
C1570 C 0.42685 0.80391 1.06178 0.0
C1571 C 0.42581 0.81884 1.1048 0.0
C1572 C 0.43534 0.84722 1.10218 0.0
C1573 C 0.44549 0.85986 1.06154 0.0
C1574 C 0.44622 0.8448 1.02059 0.0
C1575 C 0.43663 0.81739 1.02028 0.0
C1576 C 0.43874 0.80634 0.97083 0.0
C1577 C 0.45866 0.78091 0.96836 0.0
C1578 C 0.40945 0.79856 0.95331 0.0
C1579 C 0.45102 0.83144 0.94361 0.0
C1580 C 0.45557 0.85329 0.97348 0.0
C1581 C 0.46786 0.87818 0.95702 0.0
C1582 C 0.47529 0.88107 0.91033 0.0
C1583 C 0.47037 0.85975 0.87736 0.0
C1584 C 0.45775 0.83435 0.8957 0.0
H1585 H 0.42946 0.21211 0.35773 0.0
H1586 H 0.48371 0.14081 0.3301 0.0
H1587 H 0.47466 0.14645 0.24888 0.0
H1588 H 0.37809 0.20176 0.26583 0.0
H1589 H 0.375 0.23828 0.25095 0.0
H1590 H 0.3844 0.22862 0.3075 0.0
H1591 H 0.42908 0.25868 0.30215 0.0
H1592 H 0.41971 0.2685 0.24562 0.0
H1593 H 0.45345 0.25269 0.25662 0.0
H1594 H 0.45804 0.15885 0.16542 0.0
H1595 H 0.44074 0.17773 1.09423 0.0
H1596 H 0.39908 0.24547 0.16652 0.0
C1597 C 0.43943 0.19736 0.33491 0.0
C1598 C 0.45746 0.17519 0.35358 0.0
C1599 C 0.46984 0.15763 0.31975 0.0
C1600 C 0.46467 0.16081 0.27234 0.0
C1601 C 0.44715 0.18242 0.25566 0.0
C1602 C 0.43502 0.20084 0.28615 0.0
C1603 C 0.41828 0.22328 0.25824 0.0
C1604 C 0.38708 0.22298 0.27144 0.0
C1605 C 0.43086 0.25254 0.26615 0.0
C1606 C 0.42207 0.21428 0.20776 0.0
C1607 C 0.43884 0.19042 0.20773 0.0
C1608 C 0.44511 0.1776 0.16614 0.0
C1609 C 0.43473 0.18881 0.12464 0.0
C1610 C 0.41772 0.21366 0.12118 0.0
C1611 C 0.4116 0.22646 0.16517 0.0
H1612 H 0.9359 0.88819 0.60677 0.0
H1613 H 0.85278 0.85174 0.607 0.0
H1614 H 0.83982 0.88125 0.67183 0.0
H1615 H 0.95024 0.88372 0.70658 0.0
H1616 H 0.96753 0.91662 0.71795 0.0
H1617 H 0.96631 0.90345 0.66181 0.0
H1618 H 0.94264 0.94939 0.63503 0.0
H1619 H 0.94401 0.96301 0.6917 0.0
H1620 H 0.91103 0.96189 0.66211 0.0
H1621 H 0.84262 0.89702 0.74887 0.0
H1622 H 0.86049 0.89791 0.82575 0.0
H1623 H 0.93967 0.93089 0.7779 0.0
C1624 C 0.91442 0.8878 0.61868 0.0
C1625 C 0.89552 0.86743 0.60234 0.0
C1626 C 0.8678 0.86689 0.6195 0.0
C1627 C 0.86013 0.88391 0.65605 0.0
C1628 C 0.88015 0.90192 0.67438 0.0
C1629 C 0.90654 0.90478 0.65519 0.0
C1630 C 0.92604 0.92096 0.68599 0.0
C1631 C 0.9541 0.9052 0.69354 0.0
C1632 C 0.93122 0.95057 0.66762 0.0
C1633 C 0.90818 0.92229 0.72816 0.0
C1634 C 0.88124 0.91259 0.72011 0.0
C1635 C 0.86317 0.90575 0.75536 0.0
C1636 C 0.87355 0.90641 0.79935 0.0
C1637 C 0.90179 0.91397 0.80778 0.0
C1638 C 0.91815 0.92462 0.77218 0.0
H1639 H 0.84545 0.08894 0.58094 0.0
H1640 H 0.92705 0.08182 0.64361 0.0
H1641 H 0.94085 0.04575 0.58804 0.0
H1642 H 0.84367 0.01021 0.53529 0.0
H1643 H 0.82602 0.02238 0.48548 0.0
H1644 H 0.81874 0.03873 0.53913 0.0
H1645 H 0.83112 0.08725 0.5058 0.0
H1646 H 0.8383 0.07119 0.45261 0.0
H1647 H 0.86497 0.09207 0.47961 0.0
H1648 H 0.95142 0.02632 0.51449 0.0
H1649 H 0.95728 0.02603 0.43297 0.0
H1650 H 0.86764 0.03855 0.41659 0.0
C1651 C 0.86569 0.07867 0.5839 0.0
C1652 C 0.88522 0.08794 0.61614 0.0
C1653 C 0.91172 0.07465 0.61929 0.0
C1654 C 0.91964 0.05402 0.58798 0.0
C1655 C 0.90056 0.04647 0.55451 0.0
C1656 C 0.87372 0.05784 0.55306 0.0
C1657 C 0.8591 0.05037 0.5095 0.0
C1658 C 0.83549 0.02915 0.51787 0.0
C1659 C 0.84779 0.07679 0.4855 0.0
C1660 C 0.88323 0.03675 0.48412 0.0
C1661 C 0.90661 0.03356 0.51132 0.0
C1662 C 0.93304 0.02758 0.49323 0.0
C1663 C 0.93618 0.02731 0.44644 0.0
C1664 C 0.91292 0.03286 0.41817 0.0
C1665 C 0.88584 0.03472 0.43744 0.0
H1666 H 0.65745 0.11402 0.15268 0.0
H1667 H 0.57368 0.10745 1.09757 0.0
H1668 H 0.56192 0.07192 0.15411 0.0
H1669 H 0.66016 0.03555 0.20046 0.0
H1670 H 0.67947 0.04848 0.24826 0.0
H1671 H 0.68533 0.06334 0.19341 0.0
H1672 H 0.67471 0.11291 0.22549 0.0
H1673 H 0.66896 0.09834 0.27979 0.0
H1674 H 0.64177 0.11924 0.25404 0.0
H1675 H 0.55381 0.05303 0.22768 0.0
H1676 H 0.54966 0.05594 0.30925 0.0
H1677 H 0.63937 0.06911 0.31995 0.0
C1678 C 0.63721 0.10383 0.15111 0.0
C1679 C 0.61645 0.11346 0.12112 0.0
C1680 C 0.58982 0.10048 0.12064 0.0
C1681 C 0.58312 0.07995 0.15226 0.0
C1682 C 0.60338 0.0723 0.1838 0.0
C1683 C 0.63023 0.08341 0.18283 0.0
C1684 C 0.64608 0.0767 0.22558 0.0
C1685 C 0.66911 0.0547 0.21636 0.0
C1686 C 0.65852 0.10338 0.24748 0.0
C1687 C 0.62258 0.06424 0.25339 0.0
C1688 C 0.5986 0.06031 0.2278 0.0
C1689 C 0.57264 0.055 0.24775 0.0
C1690 C 0.57048 0.05657 0.29459 0.0
C1691 C 0.59421 0.06342 0.321 0.0
C1692 C 0.62089 0.06426 0.30031 0.0
H1693 H 0.67221 0.9211 0.89894 0.0
H1694 H 0.66615 0.83667 0.84596 0.0
H1695 H 0.70068 0.82032 0.90165 0.0
H1696 H 0.75025 0.91377 0.94533 0.0
H1697 H 0.74037 0.93467 0.99358 0.0
H1698 H 0.72536 0.94213 0.93929 0.0
H1699 H 0.67541 0.93766 0.97309 0.0
H1700 H 0.69017 0.93036 1.02692 0.0
H1701 H 0.66594 0.90584 1.00192 0.0
H1702 H 0.72115 0.81039 0.97373 0.0
H1703 H 0.72137 0.80713 1.05545 0.0
H1704 H 0.71777 0.89789 1.06595 0.0
C1705 C 0.67952 0.89955 0.89783 0.0
C1706 C 0.66697 0.88011 0.86838 0.0
C1707 C 0.67583 0.8518 0.86835 0.0
C1708 C 0.69566 0.84245 0.89955 0.0
C1709 C 0.70647 0.86173 0.93045 0.0
C1710 C 0.69899 0.88989 0.92946 0.0
C1711 C 0.70821 0.90491 0.97194 0.0
C1712 C 0.7325 0.92505 0.96192 0.0
C1713 C 0.68345 0.92054 0.99478 0.0
C1714 C 0.71835 0.88015 0.99936 0.0
C1715 C 0.71871 0.85571 0.97389 0.0
C1716 C 0.72192 0.82944 0.99368 0.0
C1717 C 0.72218 0.8278 1.04058 0.0
C1718 C 0.71909 0.85233 1.06731 0.0
C1719 C 0.71985 0.87882 1.04626 0.0
H1720 H 0.59943 0.70081 0.8801 0.0
H1721 H 0.51486 0.67189 0.90624 0.0
H1722 H 0.52139 0.68195 0.987 0.0
H1723 H 0.63195 0.67581 0.98655 0.0
H1724 H 0.65376 0.70621 0.995 0.0
H1725 H 0.64352 0.69597 0.93893 0.0
H1726 H 0.62274 0.74525 0.92586 0.0
H1727 H 0.63292 0.75562 0.98189 0.0
H1728 H 0.59683 0.75905 0.96446 0.0
H1729 H 0.53751 0.69424 1.07041 0.0
H1730 H 0.55895 0.70946 0.14152 0.0
H1731 H 0.63345 0.73536 1.06906 0.0
C1732 C 0.58221 0.69623 0.90262 0.0
C1733 C 0.55628 0.68458 0.88395 0.0
C1734 C 0.53491 0.68019 0.91696 0.0
C1735 C 0.53853 0.68602 0.96403 0.0
C1736 C 0.56384 0.69723 0.98084 0.0
C1737 C 0.58535 0.70265 0.95085 0.0
C1738 C 0.61002 0.71592 0.97847 0.0
C1739 C 0.6364 0.69738 0.97448 0.0
C1740 C 0.616 0.74573 0.96165 0.0
C1741 C 0.59932 0.71683 1.0283 0.0
C1742 C 0.57255 0.70558 1.02836 0.0
C1743 C 0.55836 0.70317 1.06971 0.0
C1744 C 0.57109 0.71209 1.11104 0.0
C1745 C 0.59843 0.72436 0.11402 0.0
C1746 C 0.61252 0.72665 1.07039 0.0
H1747 H 0.58201 0.33909 0.35714 0.0
H1748 H 0.51482 0.39667 0.32294 0.0
H1749 H 0.5254 0.38915 0.2423 0.0
H1750 H 0.62981 0.35618 0.26113 0.0
H1751 H 0.64123 0.32055 0.25111 0.0
H1752 H 0.63021 0.33138 0.30665 0.0
H1753 H 0.59535 0.29139 0.30716 0.0
H1754 H 0.60446 0.28065 0.25099 0.0
H1755 H 0.56843 0.28896 0.26445 0.0
H1756 H 0.54704 0.3783 0.16001 0.0
H1757 H 0.56882 0.35981 1.09106 0.0
H1758 H 0.61714 0.30075 0.17001 0.0
C1759 C 0.56942 0.35041 0.33298 0.0
C1760 C 0.54727 0.36943 0.3495 0.0
C1761 C 0.53183 0.38251 0.31412 0.0
C1762 C 0.53788 0.37821 0.26708 0.0
C1763 C 0.55941 0.35971 0.25247 0.0
C1764 C 0.57461 0.34539 0.28466 0.0
C1765 C 0.59573 0.32553 0.25892 0.0
C1766 C 0.62605 0.33389 0.27014 0.0
C1767 C 0.59062 0.29478 0.27113 0.0
C1768 C 0.58976 0.33035 0.20782 0.0
C1769 C 0.56935 0.3511 0.2054 0.0
C1770 C 0.56224 0.36144 0.16265 0.0
C1771 C 0.57507 0.35038 0.1225 0.0
C1772 C 0.59455 0.32732 0.1216 0.0
C1773 C 0.60197 0.31758 0.16669 0.0
H1774 H 0.00074 0.3334 0.41403 0.0
H1775 H 0.92391 0.31175 0.34422 0.0
H1776 H 0.90297 0.29686 0.41544 0.0
H1777 H 0.99731 0.27617 0.49855 0.0
H1778 H 0.00974 0.29693 0.54521 0.0
H1779 H 0.01994 0.30573 0.4886 0.0
H1780 H 0.00068 0.35588 0.50015 0.0
H1781 H 0.99044 0.3472 0.55678 0.0
H1782 H 0.96478 0.36085 0.51805 0.0
H1783 H 0.88864 0.28119 0.49861 0.0
H1784 H 0.88254 0.27131 0.57942 0.0
H1785 H 0.96525 0.30526 0.60519 0.0
C1786 C 0.97934 0.32591 0.41329 0.0
C1787 C 0.96468 0.32444 0.36999 0.0
C1788 C 0.93663 0.31387 0.37414 0.0
C1789 C 0.92415 0.30499 0.41565 0.0
C1790 C 0.93888 0.30658 0.45657 0.0
C1791 C 0.96592 0.3172 0.45594 0.0
C1792 C 0.97656 0.31703 0.50582 0.0
C1793 C 0.00245 0.29784 0.50979 0.0
C1794 C 0.98355 0.34703 0.52111 0.0
C1795 C 0.95154 0.30504 0.53425 0.0
C1796 C 0.9302 0.29877 0.50442 0.0
C1797 C 0.90543 0.28652 0.52154 0.0
C1798 C 0.90205 0.28079 0.56872 0.0
C1799 C 0.92272 0.2873 0.60198 0.0
C1800 C 0.94816 0.29989 0.58288 0.0
H1801 H 0.01021 0.63828 0.80952 0.0
H1802 H 0.92801 0.62415 0.86777 0.0
H1803 H 0.90615 0.63472 0.79498 0.0
H1804 H 0.98944 0.69706 0.73699 0.0
H1805 H 0.00974 0.68743 0.68811 0.0
H1806 H 0.02153 0.67685 0.74282 0.0
H1807 H 0.02275 0.62529 0.72029 0.0
H1808 H 0.01248 0.63514 0.6642 0.0
H1809 H 0.99231 0.60958 0.69471 0.0
H1810 H 0.89101 0.64621 0.71013 0.0
H1811 H 0.88571 0.66014 0.6305 0.0
H1812 H 0.97561 0.67215 0.62166 0.0
C1813 C 0.98758 0.63703 0.8073 0.0
C1814 C 0.9715 0.62944 0.84745 0.0
C1815 C 0.94179 0.62918 0.84 0.0
C1816 C 0.9288 0.63541 0.79768 0.0
C1817 C 0.9449 0.64278 0.7598 0.0
C1818 C 0.97385 0.64386 0.76422 0.0
C1819 C 0.9859 0.65292 0.71746 0.0
C1820 C 0.00264 0.68023 0.7217 0.0
C1821 C 0.00448 0.62934 0.69801 0.0
C1822 C 0.95955 0.6575 0.687 0.0
C1823 C 0.93613 0.65076 0.71218 0.0
C1824 C 0.90954 0.65177 0.69111 0.0
C1825 C 0.90661 0.65984 0.64477 0.0
C1826 C 0.92971 0.66809 0.61722 0.0
C1827 C 0.95683 0.66668 0.64011 0.0
H1828 H 0.33833 0.319 0.36933 0.0
H1829 H 0.32743 0.40922 0.36565 0.0
H1830 H 0.29299 0.40419 0.30507 0.0
H1831 H 0.34664 0.30822 0.2668 0.0
H1832 H 0.32751 0.27599 0.25875 0.0
H1833 H 0.34027 0.28489 0.31326 0.0
H1834 H 0.28994 0.28101 0.34569 0.0
H1835 H 0.27689 0.27209 0.29056 0.0
H1836 H 0.26169 0.30112 0.32138 0.0
H1837 H 0.27769 0.39272 0.23048 0.0
H1838 H 0.28431 0.37629 0.1532 0.0
H1839 H 0.29878 0.29186 0.2013 0.0
C1840 C 0.32763 0.33748 0.35688 0.0
C1841 C 0.33558 0.36442 0.37184 0.0
C1842 C 0.32143 0.3883 0.35507 0.0
C1843 C 0.30166 0.3856 0.32064 0.0
C1844 C 0.29592 0.35886 0.30375 0.0
C1845 C 0.30793 0.33501 0.32224 0.0
C1846 C 0.30324 0.30956 0.29249 0.0
C1847 C 0.33106 0.29384 0.2822 0.0
C1848 C 0.28164 0.28979 0.3138 0.0
C1849 C 0.29109 0.32367 0.25128 0.0
C1850 C 0.28558 0.35186 0.25931 0.0
C1851 C 0.2808 0.37054 0.2241 0.0
C1852 C 0.28451 0.36095 0.17991 0.0
C1853 C 0.29274 0.33286 0.17141 0.0
C1854 C 0.29292 0.31355 0.20722 0.0
H1855 H 0.38559 0.6048 1.07705 0.0
H1856 H 0.32755 0.67411 1.09511 0.0
H1857 H 0.30998 0.66716 1.01904 0.0
H1858 H 0.41328 0.62435 0.99264 0.0
H1859 H 0.41783 0.59281 0.95948 0.0
H1860 H 0.41375 0.59023 1.0188 0.0
H1861 H 0.37127 0.55728 1.00849 0.0
H1862 H 0.37547 0.5595 0.94833 0.0
H1863 H 0.3421 0.56789 0.97392 0.0
H1864 H 0.31572 0.67033 0.93963 0.0
H1865 H 0.34221 0.68113 0.87135 0.0
H1866 H 0.39705 0.61015 0.89555 0.0
C1867 C 0.36814 0.61741 1.06538 0.0
C1868 C 0.35847 0.6403 1.0915 0.0
C1869 C 0.33539 0.65631 1.07599 0.0
C1870 C 0.32521 0.65248 1.03236 0.0
C1871 C 0.33822 0.63254 1.00466 0.0
C1872 C 0.35861 0.61438 1.02111 0.0
C1873 C 0.37446 0.60012 0.98298 0.0
C1874 C 0.40668 0.6021 0.98884 0.0
C1875 C 0.36526 0.56938 0.97814 0.0
C1876 C 0.36395 0.61729 0.9437 0.0
C1877 C 0.34161 0.6344 0.95627 0.0
C1878 C 0.3324 0.6563 0.92886 0.0
C1879 C 0.34767 0.66239 0.88989 0.0
C1880 C 0.37196 0.64666 0.87873 0.0
C1881 C 0.37863 0.62254 0.90388 0.0
H1882 H 0.21589 0.65682 0.6713 0.0
H1883 H 0.18638 0.58249 0.60172 0.0
H1884 H 0.19196 0.55525 0.67035 0.0
H1885 H 0.25685 0.6175 0.7699 0.0
H1886 H 0.24357 0.6436 0.80866 0.0
H1887 H 0.2531 0.65345 0.75221 0.0
H1888 H 0.20354 0.67486 0.7413 0.0
H1889 H 0.19378 0.66484 0.79685 0.0
H1890 H 0.17309 0.65307 0.74971 0.0
H1891 H 0.18151 0.54119 0.74617 0.0
H1892 H 0.15632 0.5424 0.81826 0.0
H1893 H 0.18731 0.62624 0.84384 0.0
C1894 C 0.21174 0.63452 0.67024 0.0
C1895 C 0.20018 0.62204 0.63135 0.0
C1896 C 0.19548 0.59272 0.63078 0.0
C1897 C 0.19857 0.57695 0.67 0.0
C1898 C 0.20627 0.59074 0.70958 0.0
C1899 C 0.21339 0.61893 0.70984 0.0
C1900 C 0.21337 0.63078 0.75726 0.0
C1901 C 0.24352 0.63667 0.77293 0.0
C1902 C 0.19481 0.65739 0.76146 0.0
C1903 C 0.20108 0.6062 0.78246 0.0
C1904 C 0.19892 0.58273 0.75502 0.0
C1905 C 0.184 0.55904 0.76843 0.0
C1906 C 0.16965 0.55991 0.80951 0.0
C1907 C 0.1699 0.5845 0.83632 0.0
C1908 C 0.18705 0.60721 0.82379 0.0
H1909 H 0.13636 0.41129 0.42689 0.0
H1910 H 0.18701 0.34419 0.37054 0.0
H1911 H 0.21286 0.34037 0.44154 0.0
H1912 H 0.19334 0.43518 0.5204 0.0
H1913 H 0.16457 0.44163 0.5586 0.0
H1914 H 0.16083 0.44964 0.49971 0.0
H1915 H 0.11631 0.41881 0.49645 0.0
H1916 H 0.11997 0.41063 0.5545 0.0
H1917 H 0.11851 0.38256 0.51359 0.0
H1918 H 0.21752 0.32944 0.51977 0.0
H1919 H 0.2005 0.31319 0.59261 0.0
H1920 H 0.14832 0.3875 0.60532 0.0
C1921 C 0.15394 0.39686 0.4292 0.0
C1922 C 0.15958 0.37787 0.39383 0.0
C1923 C 0.18251 0.35911 0.39724 0.0
C1924 C 0.19739 0.35689 0.4376 0.0
C1925 C 0.18927 0.3738 0.47394 0.0
C1926 C 0.16854 0.39418 0.46968 0.0
C1927 C 0.15889 0.40486 0.51525 0.0
C1928 C 0.17009 0.43459 0.52401 0.0
C1929 C 0.12655 0.40408 0.52018 0.0
C1930 C 0.17342 0.38382 0.54535 0.0
C1931 C 0.19231 0.36732 0.52125 0.0
C1932 C 0.2037 0.34284 0.53938 0.0
C1933 C 0.19386 0.3337 0.58112 0.0
C1934 C 0.17273 0.349 0.60428 0.0
C1935 C 0.16435 0.37545 0.58791 0.0
loop_
_geom_bond_atom_site_label_1
_geom_bond_atom_site_label_2
_geom_bond_distance
_geom_bond_site_symmetry_2
_ccdc_geom_bond_type
Dy0 O3 2.307 . S
Dy0 O5 2.395 . S
Dy0 O6 2.379 . S
Dy0 O8 2.339 . S
Dy0 O10 2.298 1_655 S
Dy0 O14 2.275 1_655 S
Dy0 C22 2.738 . S
Dy1 O4 2.298 . S
Dy1 O7 2.275 . S
Dy1 O9 2.307 . S
Dy1 O11 2.395 . S
Dy1 O12 2.379 . S
Dy1 O15 2.339 . S
Dy1 C31 2.738 . S
C2 O14 1.254 . S
C2 O15 1.257 . S
O3 Dy0 2.307 . S
O3 C13 1.266 . S
O4 Dy1 2.298 . S
O4 C13 1.236 1_455 S
O5 Dy0 2.395 . S
O5 C22 1.255 . S
O6 Dy0 2.379 . S
O6 C22 1.249 . S
O7 Dy1 2.275 . S
O7 C23 1.254 . S
O8 Dy0 2.339 . S
O8 C23 1.257 1_655 S
O9 Dy1 2.307 . S
O9 C24 1.266 . S
O10 Dy0 2.298 1_455 S
O10 C24 1.236 . S
O11 Dy1 2.395 . S
O11 C31 1.255 . S
O12 Dy1 2.379 . S
O12 C31 1.249 . S
C13 O3 1.266 . S
C13 O4 1.236 1_655 S
O14 Dy0 2.275 1_455 S
O14 C2 1.254 . S
O15 Dy1 2.339 . S
O15 C2 1.257 . S
C16 C19 1.344 . S
C16 C20 1.328 . S
C16 C22 1.516 . S
C17 C18 1.304 . S
C17 C21 1.323 . S
C18 C17 1.304 . S
C18 C19 1.371 . S
C18 H32 0.930 . S
C19 C16 1.344 . S
C19 C18 1.371 . S
C19 H33 0.931 . S
C20 C16 1.328 . S
C20 C21 1.433 . S
C20 H34 0.931 . S
C21 C17 1.323 . S
C21 C20 1.433 . S
C21 H35 0.933 . S
C22 Dy0 2.738 . S
C22 O5 1.255 . S
C22 O6 1.249 . S
C22 C16 1.516 . S
C23 O7 1.254 . S
C23 O8 1.257 1_455 S
C24 O9 1.266 . S
C24 O10 1.236 . S
C25 C28 1.344 . S
C25 C29 1.328 . S
C25 C31 1.516 1_556 S
C26 C27 1.304 . S
C26 C30 1.323 . S
C27 C26 1.304 . S
C27 C28 1.371 . S
C27 H36 0.930 . S
C28 C25 1.344 . S
C28 C27 1.371 . S
C28 H37 0.931 . S
C29 C25 1.328 . S
C29 C30 1.433 . S
C29 H38 0.931 . S
C30 C26 1.323 . S
C30 C29 1.433 . S
C30 H39 0.933 . S
C31 Dy1 2.738 . S
C31 O11 1.255 . S
C31 O12 1.249 . S
C31 C25 1.516 1_554 S
H32 C18 0.930 . S
H33 C19 0.931 . S
H34 C20 0.931 . S
H35 C21 0.933 . S
H36 C27 0.930 . S
H37 C28 0.931 . S
H38 C29 0.931 . S
H39 C30 0.933 . S
Dy40 O43 2.307 . S
Dy40 O45 2.395 . S
Dy40 O46 2.379 . S
Dy40 O48 2.339 . S
Dy40 O50 2.298 . S
Dy40 O54 2.275 . S
Dy40 C62 2.738 . S
Dy41 O44 2.298 . S
Dy41 O47 2.275 . S
Dy41 O49 2.307 . S
Dy41 O51 2.395 . S
Dy41 O52 2.379 . S
Dy41 O55 2.339 . S
Dy41 C71 2.738 . S
C42 O54 1.254 . S
C42 O55 1.257 . S
O43 Dy40 2.307 . S
O43 C53 1.266 . S
O44 Dy41 2.298 . S
O44 C53 1.236 . S
O45 Dy40 2.395 . S
O45 C62 1.255 . S
O46 Dy40 2.379 . S
O46 C62 1.249 . S
O47 Dy41 2.275 . S
O47 C63 1.254 . S
O48 Dy40 2.339 . S
O48 C63 1.257 . S
O49 Dy41 2.307 . S
O49 C64 1.266 . S
O50 Dy40 2.298 . S
O50 C64 1.236 . S
O51 Dy41 2.395 . S
O51 C71 1.255 . S
O52 Dy41 2.379 . S
O52 C71 1.249 . S
C53 O43 1.266 . S
C53 O44 1.236 . S
O54 Dy40 2.275 . S
O54 C42 1.254 . S
O55 Dy41 2.339 . S
O55 C42 1.257 . S
C56 C59 1.344 . S
C56 C60 1.328 . S
C56 C62 1.516 . S
C57 C58 1.304 . S
C57 C61 1.323 . S
C58 C57 1.304 . S
C58 C59 1.371 . S
C58 H72 0.930 . S
C59 C56 1.344 . S
C59 C58 1.371 . S
C59 H73 0.931 . S
C60 C56 1.328 . S
C60 C61 1.433 . S
C60 H74 0.931 . S
C61 C57 1.323 . S
C61 C60 1.433 . S
C61 H75 0.933 . S
C62 Dy40 2.738 . S
C62 O45 1.255 . S
C62 O46 1.249 . S
C62 C56 1.516 . S
C63 O47 1.254 . S
C63 O48 1.257 . S
C64 O49 1.266 . S
C64 O50 1.236 . S
C65 C68 1.344 . S
C65 C69 1.328 . S
C65 C71 1.516 . S
C66 C67 1.304 . S
C66 C70 1.323 . S
C67 C66 1.304 . S
C67 C68 1.371 . S
C67 H76 0.930 . S
C68 C65 1.344 . S
C68 C67 1.371 . S
C68 H77 0.931 . S
C69 C65 1.328 . S
C69 C70 1.433 . S
C69 H78 0.931 . S
C70 C66 1.323 . S
C70 C69 1.433 . S
C70 H79 0.933 . S
C71 Dy41 2.738 . S
C71 O51 1.255 . S
C71 O52 1.249 . S
C71 C65 1.516 . S
H72 C58 0.930 . S
H73 C59 0.931 . S
H74 C60 0.931 . S
H75 C61 0.933 . S
H76 C67 0.930 . S
H77 C68 0.931 . S
H78 C69 0.931 . S
H79 C70 0.933 . S
Dy80 O83 2.307 . S
Dy80 O85 2.395 . S
Dy80 O86 2.379 . S
Dy80 O88 2.339 . S
Dy80 O90 2.298 . S
Dy80 O94 2.275 . S
Dy80 C102 2.738 . S
Dy81 O84 2.298 . S
Dy81 O87 2.275 . S
Dy81 O89 2.307 . S
Dy81 O91 2.395 . S
Dy81 O92 2.379 . S
Dy81 O95 2.339 . S
Dy81 C111 2.738 . S
C82 O94 1.254 . S
C82 O95 1.257 . S
O83 Dy80 2.307 . S
O83 C93 1.266 . S
O84 Dy81 2.298 . S
O84 C93 1.236 . S
O85 Dy80 2.395 . S
O85 C102 1.255 . S
O86 Dy80 2.379 . S
O86 C102 1.249 . S
O87 Dy81 2.275 . S
O87 C103 1.254 . S
O88 Dy80 2.339 . S
O88 C103 1.257 . S
O89 Dy81 2.307 . S
O89 C104 1.266 . S
O90 Dy80 2.298 . S
O90 C104 1.236 . S
O91 Dy81 2.395 . S
O91 C111 1.255 . S
O92 Dy81 2.379 . S
O92 C111 1.249 . S
C93 O83 1.266 . S
C93 O84 1.236 . S
O94 Dy80 2.275 . S
O94 C82 1.254 . S
O95 Dy81 2.339 . S
O95 C82 1.257 . S
C96 C99 1.344 . S
C96 C100 1.328 . S
C96 C102 1.516 . S
C97 C98 1.304 . S
C97 C101 1.323 . S
C98 C97 1.304 . S
C98 C99 1.371 . S
C98 H112 0.930 . S
C99 C96 1.344 . S
C99 C98 1.371 . S
C99 H113 0.931 . S
C100 C96 1.328 . S
C100 C101 1.433 . S
C100 H114 0.931 . S
C101 C97 1.323 . S
C101 C100 1.433 . S
C101 H115 0.933 . S
C102 Dy80 2.738 . S
C102 O85 1.255 . S
C102 O86 1.249 . S
C102 C96 1.516 . S
C103 O87 1.254 . S
C103 O88 1.257 . S
C104 O89 1.266 . S
C104 O90 1.236 . S
C105 C108 1.344 . S
C105 C109 1.328 . S
C105 C111 1.516 . S
C106 C107 1.304 . S
C106 C110 1.323 . S
C107 C106 1.304 . S
C107 C108 1.371 . S
C107 H116 0.930 . S
C108 C105 1.344 . S
C108 C107 1.371 . S
C108 H117 0.931 . S
C109 C105 1.328 . S
C109 C110 1.433 . S
C109 H118 0.931 . S
C110 C106 1.323 . S
C110 C109 1.433 . S
C110 H119 0.933 . S
C111 Dy81 2.738 . S
C111 O91 1.255 . S
C111 O92 1.249 . S
C111 C105 1.516 . S
H112 C98 0.930 . S
H113 C99 0.931 . S
H114 C100 0.931 . S
H115 C101 0.933 . S
H116 C107 0.930 . S
H117 C108 0.931 . S
H118 C109 0.931 . S
H119 C110 0.933 . S
Dy120 O123 2.307 . S
Dy120 O125 2.395 . S
Dy120 O126 2.379 . S
Dy120 O128 2.339 . S
Dy120 O130 2.298 . S
Dy120 O134 2.275 . S
Dy120 C142 2.738 . S
Dy121 O124 2.298 . S
Dy121 O127 2.275 . S
Dy121 O129 2.307 . S
Dy121 O131 2.395 . S
Dy121 O132 2.379 . S
Dy121 O135 2.339 . S
Dy121 C151 2.738 . S
C122 O134 1.254 . S
C122 O135 1.257 . S
O123 Dy120 2.307 . S
O123 C133 1.266 . S
O124 Dy121 2.298 . S
O124 C133 1.236 . S
O125 Dy120 2.395 . S
O125 C142 1.255 . S
O126 Dy120 2.379 . S
O126 C142 1.249 . S
O127 Dy121 2.275 . S
O127 C143 1.254 . S
O128 Dy120 2.339 . S
O128 C143 1.257 . S
O129 Dy121 2.307 . S
O129 C144 1.266 . S
O130 Dy120 2.298 . S
O130 C144 1.236 . S
O131 Dy121 2.395 . S
O131 C151 1.255 . S
O132 Dy121 2.379 . S
O132 C151 1.249 . S
C133 O123 1.266 . S
C133 O124 1.236 . S
O134 Dy120 2.275 . S
O134 C122 1.254 . S
O135 Dy121 2.339 . S
O135 C122 1.257 . S
C136 C139 1.344 . S
C136 C140 1.328 . S
C136 C142 1.516 1_554 S
C137 C138 1.304 . S
C137 C141 1.323 . S
C138 C137 1.304 . S
C138 C139 1.371 . S
C138 H152 0.930 . S
C139 C136 1.344 . S
C139 C138 1.371 . S
C139 H153 0.931 . S
C140 C136 1.328 . S
C140 C141 1.433 . S
C140 H154 0.931 . S
C141 C137 1.323 . S
C141 C140 1.433 . S
C141 H155 0.933 . S
C142 Dy120 2.738 . S
C142 O125 1.255 . S
C142 O126 1.249 . S
C142 C136 1.516 1_556 S
C143 O127 1.254 . S
C143 O128 1.257 . S
C144 O129 1.266 . S
C144 O130 1.236 . S
C145 C148 1.344 . S
C145 C149 1.328 . S
C145 C151 1.516 . S
C146 C147 1.304 . S
C146 C150 1.323 . S
C147 C146 1.304 . S
C147 C148 1.371 . S
C147 H156 0.930 . S
C148 C145 1.344 . S
C148 C147 1.371 . S
C148 H157 0.931 . S
C149 C145 1.328 . S
C149 C150 1.433 . S
C149 H158 0.931 . S
C150 C146 1.323 . S
C150 C149 1.433 . S
C150 H159 0.933 . S
C151 Dy121 2.738 . S
C151 O131 1.255 . S
C151 O132 1.249 . S
C151 C145 1.516 . S
H152 C138 0.930 . S
H153 C139 0.931 . S
H154 C140 0.931 . S
H155 C141 0.933 . S
H156 C147 0.930 . S
H157 C148 0.931 . S
H158 C149 0.931 . S
H159 C150 0.933 . S
Dy160 O163 2.307 . S
Dy160 O165 2.395 . S
Dy160 O166 2.379 . S
Dy160 O168 2.339 . S
Dy160 O170 2.298 1_655 S
Dy160 O174 2.275 1_655 S
Dy160 C182 2.738 . S
Dy161 O164 2.298 . S
Dy161 O167 2.275 . S
Dy161 O169 2.307 . S
Dy161 O171 2.395 . S
Dy161 O172 2.379 . S
Dy161 O175 2.339 . S
Dy161 C191 2.738 . S
C162 O174 1.254 . S
C162 O175 1.257 . S
O163 Dy160 2.307 . S
O163 C173 1.266 . S
O164 Dy161 2.298 . S
O164 C173 1.236 1_455 S
O165 Dy160 2.395 . S
O165 C182 1.255 . S
O166 Dy160 2.379 . S
O166 C182 1.249 . S
O167 Dy161 2.275 . S
O167 C183 1.254 . S
O168 Dy160 2.339 . S
O168 C183 1.257 1_655 S
O169 Dy161 2.307 . S
O169 C184 1.266 . S
O170 Dy160 2.298 1_455 S
O170 C184 1.236 . S
O171 Dy161 2.395 . S
O171 C191 1.255 . S
O172 Dy161 2.379 . S
O172 C191 1.249 . S
C173 O163 1.266 . S
C173 O164 1.236 1_655 S
O174 Dy160 2.275 1_455 S
O174 C162 1.254 . S
O175 Dy161 2.339 . S
O175 C162 1.257 . S
C176 C179 1.344 . S
C176 C180 1.328 . S
C176 C182 1.516 . S
C177 C178 1.304 . S
C177 C181 1.323 . S
C178 C177 1.304 . S
C178 C179 1.371 . S
C178 H192 0.930 . S
C179 C176 1.344 . S
C179 C178 1.371 . S
C179 H193 0.931 . S
C180 C176 1.328 . S
C180 C181 1.433 . S
C180 H194 0.931 . S
C181 C177 1.323 . S
C181 C180 1.433 . S
C181 H195 0.933 . S
C182 Dy160 2.738 . S
C182 O165 1.255 . S
C182 O166 1.249 . S
C182 C176 1.516 . S
C183 O167 1.254 . S
C183 O168 1.257 1_455 S
C184 O169 1.266 . S
C184 O170 1.236 . S
C185 C188 1.344 . S
C185 C189 1.328 . S
C185 C191 1.516 1_554 S
C186 C187 1.304 . S
C186 C190 1.323 . S
C187 C186 1.304 . S
C187 C188 1.371 . S
C187 H196 0.930 . S
C188 C185 1.344 . S
C188 C187 1.371 . S
C188 H197 0.931 . S
C189 C185 1.328 . S
C189 C190 1.433 . S
C189 H198 0.931 . S
C190 C186 1.323 . S
C190 C189 1.433 . S
C190 H199 0.933 . S
C191 Dy161 2.738 . S
C191 O171 1.255 . S
C191 O172 1.249 . S
C191 C185 1.516 1_556 S
H192 C178 0.930 . S
H193 C179 0.931 . S
H194 C180 0.931 . S
H195 C181 0.933 . S
H196 C187 0.930 . S
H197 C188 0.931 . S
H198 C189 0.931 . S
H199 C190 0.933 . S
Dy200 O203 2.307 . S
Dy200 O205 2.395 . S
Dy200 O206 2.379 . S
Dy200 O208 2.339 . S
Dy200 O210 2.298 . S
Dy200 O214 2.275 . S
Dy200 C222 2.738 . S
Dy201 O204 2.298 . S
Dy201 O207 2.275 . S
Dy201 O209 2.307 . S
Dy201 O211 2.395 . S
Dy201 O212 2.379 . S
Dy201 O215 2.339 . S
Dy201 C231 2.738 . S
C202 O214 1.254 . S
C202 O215 1.257 . S
O203 Dy200 2.307 . S
O203 C213 1.266 . S
O204 Dy201 2.298 . S
O204 C213 1.236 . S
O205 Dy200 2.395 . S
O205 C222 1.255 . S
O206 Dy200 2.379 . S
O206 C222 1.249 . S
O207 Dy201 2.275 . S
O207 C223 1.254 . S
O208 Dy200 2.339 . S
O208 C223 1.257 . S
O209 Dy201 2.307 . S
O209 C224 1.266 . S
O210 Dy200 2.298 . S
O210 C224 1.236 . S
O211 Dy201 2.395 . S
O211 C231 1.255 . S
O212 Dy201 2.379 . S
O212 C231 1.249 . S
C213 O203 1.266 . S
C213 O204 1.236 . S
O214 Dy200 2.275 . S
O214 C202 1.254 . S
O215 Dy201 2.339 . S
O215 C202 1.257 . S
C216 C219 1.344 . S
C216 C220 1.328 . S
C216 C222 1.516 1_556 S
C217 C218 1.304 . S
C217 C221 1.323 . S
C218 C217 1.304 . S
C218 C219 1.371 . S
C218 H232 0.930 . S
C219 C216 1.344 . S
C219 C218 1.371 . S
C219 H233 0.931 . S
C220 C216 1.328 . S
C220 C221 1.433 . S
C220 H234 0.931 . S
C221 C217 1.323 . S
C221 C220 1.433 . S
C221 H235 0.933 . S
C222 Dy200 2.738 . S
C222 O205 1.255 . S
C222 O206 1.249 . S
C222 C216 1.516 1_554 S
C223 O207 1.254 . S
C223 O208 1.257 . S
C224 O209 1.266 . S
C224 O210 1.236 . S
C225 C228 1.344 . S
C225 C229 1.328 . S
C225 C231 1.516 . S
C226 C227 1.304 . S
C226 C230 1.323 . S
C227 C226 1.304 . S
C227 C228 1.371 . S
C227 H236 0.930 . S
C228 C225 1.344 . S
C228 C227 1.371 . S
C228 H237 0.931 . S
C229 C225 1.328 . S
C229 C230 1.433 . S
C229 H238 0.931 . S
C230 C226 1.323 . S
C230 C229 1.433 . S
C230 H239 0.933 . S
C231 Dy201 2.738 . S
C231 O211 1.255 . S
C231 O212 1.249 . S
C231 C225 1.516 . S
H232 C218 0.930 . S
H233 C219 0.931 . S
H234 C220 0.931 . S
H235 C221 0.933 . S
H236 C227 0.930 . S
H237 C228 0.931 . S
H238 C229 0.931 . S
H239 C230 0.933 . S
Dy240 O243 2.307 . S
Dy240 O245 2.395 . S
Dy240 O246 2.379 . S
Dy240 O248 2.339 . S
Dy240 O250 2.298 . S
Dy240 O254 2.275 . S
Dy240 C262 2.738 . S
Dy241 O244 2.298 . S
Dy241 O247 2.275 . S
Dy241 O249 2.307 . S
Dy241 O251 2.395 . S
Dy241 O252 2.379 . S
Dy241 O255 2.339 . S
Dy241 C271 2.738 . S
C242 O254 1.254 . S
C242 O255 1.257 . S
O243 Dy240 2.307 . S
O243 C253 1.266 . S
O244 Dy241 2.298 . S
O244 C253 1.236 . S
O245 Dy240 2.395 . S
O245 C262 1.255 . S
O246 Dy240 2.379 . S
O246 C262 1.249 . S
O247 Dy241 2.275 . S
O247 C263 1.254 . S
O248 Dy240 2.339 . S
O248 C263 1.257 . S
O249 Dy241 2.307 . S
O249 C264 1.266 . S
O250 Dy240 2.298 . S
O250 C264 1.236 . S
O251 Dy241 2.395 . S
O251 C271 1.255 . S
O252 Dy241 2.379 . S
O252 C271 1.249 . S
C253 O243 1.266 . S
C253 O244 1.236 . S
O254 Dy240 2.275 . S
O254 C242 1.254 . S
O255 Dy241 2.339 . S
O255 C242 1.257 . S
C256 C259 1.344 . S
C256 C260 1.328 . S
C256 C262 1.516 . S
C257 C258 1.304 . S
C257 C261 1.323 . S
C258 C257 1.304 . S
C258 C259 1.371 . S
C258 H272 0.930 . S
C259 C256 1.344 . S
C259 C258 1.371 . S
C259 H273 0.931 . S
C260 C256 1.328 . S
C260 C261 1.433 . S
C260 H274 0.931 . S
C261 C257 1.323 . S
C261 C260 1.433 . S
C261 H275 0.933 . S
C262 Dy240 2.738 . S
C262 O245 1.255 . S
C262 O246 1.249 . S
C262 C256 1.516 . S
C263 O247 1.254 . S
C263 O248 1.257 . S
C264 O249 1.266 . S
C264 O250 1.236 . S
C265 C268 1.344 . S
C265 C269 1.328 . S
C265 C271 1.516 . S
C266 C267 1.304 . S
C266 C270 1.323 . S
C267 C266 1.304 . S
C267 C268 1.371 . S
C267 H276 0.930 . S
C268 C265 1.344 . S
C268 C267 1.371 . S
C268 H277 0.931 . S
C269 C265 1.328 . S
C269 C270 1.433 . S
C269 H278 0.931 . S
C270 C266 1.323 . S
C270 C269 1.433 . S
C270 H279 0.933 . S
C271 Dy241 2.738 . S
C271 O251 1.255 . S
C271 O252 1.249 . S
C271 C265 1.516 . S
H272 C258 0.930 . S
H273 C259 0.931 . S
H274 C260 0.931 . S
H275 C261 0.933 . S
H276 C267 0.930 . S
H277 C268 0.931 . S
H278 C269 0.931 . S
H279 C270 0.933 . S
Dy280 O283 2.307 . S
Dy280 O285 2.395 . S
Dy280 O286 2.379 . S
Dy280 O288 2.339 . S
Dy280 O290 2.298 . S
Dy280 O294 2.275 . S
Dy280 C302 2.738 . S
Dy281 O284 2.298 . S
Dy281 O287 2.275 . S
Dy281 O289 2.307 . S
Dy281 O291 2.395 . S
Dy281 O292 2.379 . S
Dy281 O295 2.339 . S
Dy281 C311 2.738 . S
C282 O294 1.254 . S
C282 O295 1.257 . S
O283 Dy280 2.307 . S
O283 C293 1.266 . S
O284 Dy281 2.298 . S
O284 C293 1.236 . S
O285 Dy280 2.395 . S
O285 C302 1.255 . S
O286 Dy280 2.379 . S
O286 C302 1.249 . S
O287 Dy281 2.275 . S
O287 C303 1.254 . S
O288 Dy280 2.339 . S
O288 C303 1.257 . S
O289 Dy281 2.307 . S
O289 C304 1.266 . S
O290 Dy280 2.298 . S
O290 C304 1.236 . S
O291 Dy281 2.395 . S
O291 C311 1.255 . S
O292 Dy281 2.379 . S
O292 C311 1.249 . S
C293 O283 1.266 . S
C293 O284 1.236 . S
O294 Dy280 2.275 . S
O294 C282 1.254 . S
O295 Dy281 2.339 . S
O295 C282 1.257 . S
C296 C299 1.344 . S
C296 C300 1.328 . S
C296 C302 1.516 . S
C297 C298 1.304 . S
C297 C301 1.323 . S
C298 C297 1.304 . S
C298 C299 1.371 . S
C298 H312 0.930 . S
C299 C296 1.344 . S
C299 C298 1.371 . S
C299 H313 0.931 . S
C300 C296 1.328 . S
C300 C301 1.433 . S
C300 H314 0.931 . S
C301 C297 1.323 . S
C301 C300 1.433 . S
C301 H315 0.933 . S
C302 Dy280 2.738 . S
C302 O285 1.255 . S
C302 O286 1.249 . S
C302 C296 1.516 . S
C303 O287 1.254 . S
C303 O288 1.257 . S
C304 O289 1.266 . S
C304 O290 1.236 . S
C305 C308 1.344 . S
C305 C309 1.328 . S
C305 C311 1.516 . S
C306 C307 1.304 . S
C306 C310 1.323 . S
C307 C306 1.304 . S
C307 C308 1.371 . S
C307 H316 0.930 . S
C308 C305 1.344 . S
C308 C307 1.371 . S
C308 H317 0.931 . S
C309 C305 1.328 . S
C309 C310 1.433 . S
C309 H318 0.931 . S
C310 C306 1.323 . S
C310 C309 1.433 . S
C310 H319 0.933 . S
C311 Dy281 2.738 . S
C311 O291 1.255 . S
C311 O292 1.249 . S
C311 C305 1.516 . S
H312 C298 0.930 . S
H313 C299 0.931 . S
H314 C300 0.931 . S
H315 C301 0.933 . S
H316 C307 0.930 . S
H317 C308 0.931 . S
H318 C309 0.931 . S
H319 C310 0.933 . S
Dy320 O323 2.307 . S
Dy320 O325 2.395 . S
Dy320 O326 2.379 . S
Dy320 O328 2.339 . S
Dy320 O330 2.298 . S
Dy320 O334 2.275 . S
Dy320 C342 2.738 . S
Dy321 O324 2.298 . S
Dy321 O327 2.275 . S
Dy321 O329 2.307 . S
Dy321 O331 2.395 . S
Dy321 O332 2.379 . S
Dy321 O335 2.339 . S
Dy321 C351 2.738 . S
C322 O334 1.254 . S
C322 O335 1.257 . S
O323 Dy320 2.307 . S
O323 C333 1.266 . S
O324 Dy321 2.298 . S
O324 C333 1.236 . S
O325 Dy320 2.395 . S
O325 C342 1.255 . S
O326 Dy320 2.379 . S
O326 C342 1.249 . S
O327 Dy321 2.275 . S
O327 C343 1.254 . S
O328 Dy320 2.339 . S
O328 C343 1.257 . S
O329 Dy321 2.307 . S
O329 C344 1.266 . S
O330 Dy320 2.298 . S
O330 C344 1.236 . S
O331 Dy321 2.395 . S
O331 C351 1.255 . S
O332 Dy321 2.379 . S
O332 C351 1.249 . S
C333 O323 1.266 . S
C333 O324 1.236 . S
O334 Dy320 2.275 . S
O334 C322 1.254 . S
O335 Dy321 2.339 . S
O335 C322 1.257 . S
C336 C339 1.344 . S
C336 C340 1.328 . S
C336 C342 1.516 . S
C337 C338 1.304 . S
C337 C341 1.323 . S
C338 C337 1.304 . S
C338 C339 1.371 . S
C338 H352 0.930 . S
C339 C336 1.344 . S
C339 C338 1.371 . S
C339 H353 0.931 . S
C340 C336 1.328 . S
C340 C341 1.433 . S
C340 H354 0.931 . S
C341 C337 1.323 . S
C341 C340 1.433 . S
C341 H355 0.933 . S
C342 Dy320 2.738 . S
C342 O325 1.255 . S
C342 O326 1.249 . S
C342 C336 1.516 . S
C343 O327 1.254 . S
C343 O328 1.257 . S
C344 O329 1.266 . S
C344 O330 1.236 . S
C345 C348 1.344 . S
C345 C349 1.328 . S
C345 C351 1.516 . S
C346 C347 1.304 . S
C346 C350 1.323 . S
C347 C346 1.304 . S
C347 C348 1.371 . S
C347 H356 0.930 . S
C348 C345 1.344 . S
C348 C347 1.371 . S
C348 H357 0.931 . S
C349 C345 1.328 . S
C349 C350 1.433 . S
C349 H358 0.931 . S
C350 C346 1.323 . S
C350 C349 1.433 . S
C350 H359 0.933 . S
C351 Dy321 2.738 . S
C351 O331 1.255 . S
C351 O332 1.249 . S
C351 C345 1.516 . S
H352 C338 0.930 . S
H353 C339 0.931 . S
H354 C340 0.931 . S
H355 C341 0.933 . S
H356 C347 0.930 . S
H357 C348 0.931 . S
H358 C349 0.931 . S
H359 C350 0.933 . S
Dy360 O363 2.307 . S
Dy360 O365 2.395 . S
Dy360 O366 2.379 . S
Dy360 O368 2.339 . S
Dy360 O370 2.298 . S
Dy360 O374 2.275 . S
Dy360 C382 2.738 . S
Dy361 O364 2.298 . S
Dy361 O367 2.275 . S
Dy361 O369 2.307 . S
Dy361 O371 2.395 . S
Dy361 O372 2.379 . S
Dy361 O375 2.339 . S
Dy361 C391 2.738 . S
C362 O374 1.254 . S
C362 O375 1.257 . S
O363 Dy360 2.307 . S
O363 C373 1.266 . S
O364 Dy361 2.298 . S
O364 C373 1.236 . S
O365 Dy360 2.395 . S
O365 C382 1.255 . S
O366 Dy360 2.379 . S
O366 C382 1.249 . S
O367 Dy361 2.275 . S
O367 C383 1.254 . S
O368 Dy360 2.339 . S
O368 C383 1.257 . S
O369 Dy361 2.307 . S
O369 C384 1.266 . S
O370 Dy360 2.298 . S
O370 C384 1.236 . S
O371 Dy361 2.395 . S
O371 C391 1.255 . S
O372 Dy361 2.379 . S
O372 C391 1.249 . S
C373 O363 1.266 . S
C373 O364 1.236 . S
O374 Dy360 2.275 . S
O374 C362 1.254 . S
O375 Dy361 2.339 . S
O375 C362 1.257 . S
C376 C379 1.344 . S
C376 C380 1.328 . S
C376 C382 1.516 1_556 S
C377 C378 1.304 . S
C377 C381 1.323 . S
C378 C377 1.304 . S
C378 C379 1.371 . S
C378 H392 0.930 . S
C379 C376 1.344 . S
C379 C378 1.371 . S
C379 H393 0.931 . S
C380 C376 1.328 . S
C380 C381 1.433 . S
C380 H394 0.931 . S
C381 C377 1.323 . S
C381 C380 1.433 . S
C381 H395 0.933 . S
C382 Dy360 2.738 . S
C382 O365 1.255 . S
C382 O366 1.249 . S
C382 C376 1.516 1_554 S
C383 O367 1.254 . S
C383 O368 1.257 . S
C384 O369 1.266 . S
C384 O370 1.236 . S
C385 C388 1.344 . S
C385 C389 1.328 . S
C385 C391 1.516 . S
C386 C387 1.304 . S
C386 C390 1.323 . S
C387 C386 1.304 . S
C387 C388 1.371 . S
C387 H396 0.930 . S
C388 C385 1.344 . S
C388 C387 1.371 . S
C388 H397 0.931 . S
C389 C385 1.328 . S
C389 C390 1.433 . S
C389 H398 0.931 . S
C390 C386 1.323 . S
C390 C389 1.433 . S
C390 H399 0.933 . S
C391 Dy361 2.738 . S
C391 O371 1.255 . S
C391 O372 1.249 . S
C391 C385 1.516 . S
H392 C378 0.930 . S
H393 C379 0.931 . S
H394 C380 0.931 . S
H395 C381 0.933 . S
H396 C387 0.930 . S
H397 C388 0.931 . S
H398 C389 0.931 . S
H399 C390 0.933 . S
Dy400 O403 2.307 . S
Dy400 O405 2.395 . S
Dy400 O406 2.379 . S
Dy400 O408 2.339 . S
Dy400 O410 2.298 . S
Dy400 O414 2.275 . S
Dy400 C422 2.738 . S
Dy401 O404 2.298 . S
Dy401 O407 2.275 . S
Dy401 O409 2.307 . S
Dy401 O411 2.395 . S
Dy401 O412 2.379 . S
Dy401 O415 2.339 . S
Dy401 C431 2.738 . S
C402 O414 1.254 . S
C402 O415 1.257 . S
O403 Dy400 2.307 . S
O403 C413 1.266 . S
O404 Dy401 2.298 . S
O404 C413 1.236 . S
O405 Dy400 2.395 . S
O405 C422 1.255 . S
O406 Dy400 2.379 . S
O406 C422 1.249 . S
O407 Dy401 2.275 . S
O407 C423 1.254 . S
O408 Dy400 2.339 . S
O408 C423 1.257 . S
O409 Dy401 2.307 . S
O409 C424 1.266 . S
O410 Dy400 2.298 . S
O410 C424 1.236 . S
O411 Dy401 2.395 . S
O411 C431 1.255 . S
O412 Dy401 2.379 . S
O412 C431 1.249 . S
C413 O403 1.266 . S
C413 O404 1.236 . S
O414 Dy400 2.275 . S
O414 C402 1.254 . S
O415 Dy401 2.339 . S
O415 C402 1.257 . S
C416 C419 1.344 . S
C416 C420 1.328 . S
C416 C422 1.516 1_554 S
C417 C418 1.304 . S
C417 C421 1.323 . S
C418 C417 1.304 . S
C418 C419 1.371 . S
C418 H432 0.930 . S
C419 C416 1.344 . S
C419 C418 1.371 . S
C419 H433 0.931 . S
C420 C416 1.328 . S
C420 C421 1.433 . S
C420 H434 0.931 . S
C421 C417 1.323 . S
C421 C420 1.433 . S
C421 H435 0.933 . S
C422 Dy400 2.738 . S
C422 O405 1.255 . S
C422 O406 1.249 . S
C422 C416 1.516 1_556 S
C423 O407 1.254 . S
C423 O408 1.257 . S
C424 O409 1.266 . S
C424 O410 1.236 . S
C425 C428 1.344 . S
C425 C429 1.328 . S
C425 C431 1.516 . S
C426 C427 1.304 . S
C426 C430 1.323 . S
C427 C426 1.304 . S
C427 C428 1.371 . S
C427 H436 0.930 . S
C428 C425 1.344 . S
C428 C427 1.371 . S
C428 H437 0.931 . S
C429 C425 1.328 . S
C429 C430 1.433 . S
C429 H438 0.931 . S
C430 C426 1.323 . S
C430 C429 1.433 . S
C430 H439 0.933 . S
C431 Dy401 2.738 . S
C431 O411 1.255 . S
C431 O412 1.249 . S
C431 C425 1.516 . S
H432 C418 0.930 . S
H433 C419 0.931 . S
H434 C420 0.931 . S
H435 C421 0.933 . S
H436 C427 0.930 . S
H437 C428 0.931 . S
H438 C429 0.931 . S
H439 C430 0.933 . S
Dy440 O443 2.307 . S
Dy440 O445 2.395 . S
Dy440 O446 2.379 . S
Dy440 O448 2.339 . S
Dy440 O450 2.298 . S
Dy440 O454 2.275 . S
Dy440 C462 2.738 . S
Dy441 O444 2.298 . S
Dy441 O447 2.275 . S
Dy441 O449 2.307 . S
Dy441 O451 2.395 . S
Dy441 O452 2.379 . S
Dy441 O455 2.339 . S
Dy441 C471 2.738 . S
C442 O454 1.254 . S
C442 O455 1.257 . S
O443 Dy440 2.307 . S
O443 C453 1.266 . S
O444 Dy441 2.298 . S
O444 C453 1.236 . S
O445 Dy440 2.395 . S
O445 C462 1.255 . S
O446 Dy440 2.379 . S
O446 C462 1.249 . S
O447 Dy441 2.275 . S
O447 C463 1.254 . S
O448 Dy440 2.339 . S
O448 C463 1.257 . S
O449 Dy441 2.307 . S
O449 C464 1.266 . S
O450 Dy440 2.298 . S
O450 C464 1.236 . S
O451 Dy441 2.395 . S
O451 C471 1.255 . S
O452 Dy441 2.379 . S
O452 C471 1.249 . S
C453 O443 1.266 . S
C453 O444 1.236 . S
O454 Dy440 2.275 . S
O454 C442 1.254 . S
O455 Dy441 2.339 . S
O455 C442 1.257 . S
C456 C459 1.344 . S
C456 C460 1.328 . S
C456 C462 1.516 . S
C457 C458 1.304 . S
C457 C461 1.323 . S
C458 C457 1.304 . S
C458 C459 1.371 . S
C458 H472 0.930 . S
C459 C456 1.344 . S
C459 C458 1.371 . S
C459 H473 0.931 . S
C460 C456 1.328 . S
C460 C461 1.433 . S
C460 H474 0.931 . S
C461 C457 1.323 . S
C461 C460 1.433 . S
C461 H475 0.933 . S
C462 Dy440 2.738 . S
C462 O445 1.255 . S
C462 O446 1.249 . S
C462 C456 1.516 . S
C463 O447 1.254 . S
C463 O448 1.257 . S
C464 O449 1.266 . S
C464 O450 1.236 . S
C465 C468 1.344 . S
C465 C469 1.328 . S
C465 C471 1.516 . S
C466 C467 1.304 . S
C466 C470 1.323 . S
C467 C466 1.304 . S
C467 C468 1.371 . S
C467 H476 0.930 . S
C468 C465 1.344 . S
C468 C467 1.371 . S
C468 H477 0.931 . S
C469 C465 1.328 . S
C469 C470 1.433 . S
C469 H478 0.931 . S
C470 C466 1.323 . S
C470 C469 1.433 . S
C470 H479 0.933 . S
C471 Dy441 2.738 . S
C471 O451 1.255 . S
C471 O452 1.249 . S
C471 C465 1.516 . S
H472 C458 0.930 . S
H473 C459 0.931 . S
H474 C460 0.931 . S
H475 C461 0.933 . S
H476 C467 0.930 . S
H477 C468 0.931 . S
H478 C469 0.931 . S
H479 C470 0.933 . S
Dy480 O483 2.307 . S
Dy480 O485 2.395 . S
Dy480 O486 2.379 . S
Dy480 O488 2.339 . S
Dy480 O490 2.298 . S
Dy480 O494 2.275 . S
Dy480 C502 2.738 . S
Dy481 O484 2.298 . S
Dy481 O487 2.275 . S
Dy481 O489 2.307 . S
Dy481 O491 2.395 . S
Dy481 O492 2.379 . S
Dy481 O495 2.339 . S
Dy481 C511 2.738 . S
C482 O494 1.254 . S
C482 O495 1.257 . S
O483 Dy480 2.307 . S
O483 C493 1.266 . S
O484 Dy481 2.298 . S
O484 C493 1.236 . S
O485 Dy480 2.395 . S
O485 C502 1.255 . S
O486 Dy480 2.379 . S
O486 C502 1.249 . S
O487 Dy481 2.275 . S
O487 C503 1.254 . S
O488 Dy480 2.339 . S
O488 C503 1.257 . S
O489 Dy481 2.307 . S
O489 C504 1.266 . S
O490 Dy480 2.298 . S
O490 C504 1.236 . S
O491 Dy481 2.395 . S
O491 C511 1.255 . S
O492 Dy481 2.379 . S
O492 C511 1.249 . S
C493 O483 1.266 . S
C493 O484 1.236 . S
O494 Dy480 2.275 . S
O494 C482 1.254 . S
O495 Dy481 2.339 . S
O495 C482 1.257 . S
C496 C499 1.344 . S
C496 C500 1.328 . S
C496 C502 1.516 . S
C497 C498 1.304 . S
C497 C501 1.323 . S
C498 C497 1.304 . S
C498 C499 1.371 . S
C498 H512 0.930 . S
C499 C496 1.344 . S
C499 C498 1.371 . S
C499 H513 0.931 . S
C500 C496 1.328 . S
C500 C501 1.433 . S
C500 H514 0.931 . S
C501 C497 1.323 . S
C501 C500 1.433 . S
C501 H515 0.933 . S
C502 Dy480 2.738 . S
C502 O485 1.255 . S
C502 O486 1.249 . S
C502 C496 1.516 . S
C503 O487 1.254 . S
C503 O488 1.257 . S
C504 O489 1.266 . S
C504 O490 1.236 . S
C505 C508 1.344 . S
C505 C509 1.328 . S
C505 C511 1.516 . S
C506 C507 1.304 . S
C506 C510 1.323 . S
C507 C506 1.304 . S
C507 C508 1.371 . S
C507 H516 0.930 . S
C508 C505 1.344 . S
C508 C507 1.371 . S
C508 H517 0.931 . S
C509 C505 1.328 . S
C509 C510 1.433 . S
C509 H518 0.931 . S
C510 C506 1.323 . S
C510 C509 1.433 . S
C510 H519 0.933 . S
C511 Dy481 2.738 . S
C511 O491 1.255 . S
C511 O492 1.249 . S
C511 C505 1.516 . S
H512 C498 0.930 . S
H513 C499 0.931 . S
H514 C500 0.931 . S
H515 C501 0.933 . S
H516 C507 0.930 . S
H517 C508 0.931 . S
H518 C509 0.931 . S
H519 C510 0.933 . S
Dy520 O523 2.307 . S
Dy520 O525 2.395 . S
Dy520 O526 2.379 . S
Dy520 O528 2.339 . S
Dy520 O530 2.298 . S
Dy520 O534 2.275 . S
Dy520 C542 2.738 . S
Dy521 O524 2.298 1_655 S
Dy521 O527 2.275 . S
Dy521 O529 2.307 . S
Dy521 O531 2.395 . S
Dy521 O532 2.379 . S
Dy521 O535 2.339 . S
Dy521 C551 2.738 . S
C522 O534 1.254 . S
C522 O535 1.257 1_455 S
O523 Dy520 2.307 . S
O523 C533 1.266 . S
O524 Dy521 2.298 1_455 S
O524 C533 1.236 . S
O525 Dy520 2.395 . S
O525 C542 1.255 . S
O526 Dy520 2.379 . S
O526 C542 1.249 . S
O527 Dy521 2.275 . S
O527 C543 1.254 1_655 S
O528 Dy520 2.339 . S
O528 C543 1.257 . S
O529 Dy521 2.307 . S
O529 C544 1.266 . S
O530 Dy520 2.298 . S
O530 C544 1.236 1_455 S
O531 Dy521 2.395 . S
O531 C551 1.255 . S
O532 Dy521 2.379 . S
O532 C551 1.249 . S
C533 O523 1.266 . S
C533 O524 1.236 . S
O534 Dy520 2.275 . S
O534 C522 1.254 . S
O535 Dy521 2.339 . S
O535 C522 1.257 1_655 S
C536 C539 1.344 . S
C536 C540 1.328 . S
C536 C542 1.516 . S
C537 C538 1.304 . S
C537 C541 1.323 . S
C538 C537 1.304 . S
C538 C539 1.371 . S
C538 H552 0.930 . S
C539 C536 1.344 . S
C539 C538 1.371 . S
C539 H553 0.931 . S
C540 C536 1.328 . S
C540 C541 1.433 . S
C540 H554 0.931 . S
C541 C537 1.323 . S
C541 C540 1.433 . S
C541 H555 0.933 . S
C542 Dy520 2.738 . S
C542 O525 1.255 . S
C542 O526 1.249 . S
C542 C536 1.516 . S
C543 O527 1.254 1_455 S
C543 O528 1.257 . S
C544 O529 1.266 . S
C544 O530 1.236 1_655 S
C545 C548 1.344 . S
C545 C549 1.328 . S
C545 C551 1.516 1_556 S
C546 C547 1.304 . S
C546 C550 1.323 . S
C547 C546 1.304 . S
C547 C548 1.371 . S
C547 H556 0.930 . S
C548 C545 1.344 . S
C548 C547 1.371 . S
C548 H557 0.931 . S
C549 C545 1.328 . S
C549 C550 1.433 . S
C549 H558 0.931 . S
C550 C546 1.323 . S
C550 C549 1.433 . S
C550 H559 0.933 . S
C551 Dy521 2.738 . S
C551 O531 1.255 . S
C551 O532 1.249 . S
C551 C545 1.516 1_554 S
H552 C538 0.930 . S
H553 C539 0.931 . S
H554 C540 0.931 . S
H555 C541 0.933 . S
H556 C547 0.930 . S
H557 C548 0.931 . S
H558 C549 0.931 . S
H559 C550 0.933 . S
Dy560 O563 2.307 . S
Dy560 O565 2.395 . S
Dy560 O566 2.379 . S
Dy560 O568 2.339 . S
Dy560 O570 2.298 . S
Dy560 O574 2.275 . S
Dy560 C582 2.738 . S
Dy561 O564 2.298 . S
Dy561 O567 2.275 . S
Dy561 O569 2.307 . S
Dy561 O571 2.395 . S
Dy561 O572 2.379 . S
Dy561 O575 2.339 . S
Dy561 C591 2.738 . S
C562 O574 1.254 . S
C562 O575 1.257 . S
O563 Dy560 2.307 . S
O563 C573 1.266 . S
O564 Dy561 2.298 . S
O564 C573 1.236 . S
O565 Dy560 2.395 . S
O565 C582 1.255 . S
O566 Dy560 2.379 . S
O566 C582 1.249 . S
O567 Dy561 2.275 . S
O567 C583 1.254 . S
O568 Dy560 2.339 . S
O568 C583 1.257 . S
O569 Dy561 2.307 . S
O569 C584 1.266 . S
O570 Dy560 2.298 . S
O570 C584 1.236 . S
O571 Dy561 2.395 . S
O571 C591 1.255 . S
O572 Dy561 2.379 . S
O572 C591 1.249 . S
C573 O563 1.266 . S
C573 O564 1.236 . S
O574 Dy560 2.275 . S
O574 C562 1.254 . S
O575 Dy561 2.339 . S
O575 C562 1.257 . S
C576 C579 1.344 . S
C576 C580 1.328 . S
C576 C582 1.516 . S
C577 C578 1.304 . S
C577 C581 1.323 . S
C578 C577 1.304 . S
C578 C579 1.371 . S
C578 H592 0.930 . S
C579 C576 1.344 . S
C579 C578 1.371 . S
C579 H593 0.931 . S
C580 C576 1.328 . S
C580 C581 1.433 . S
C580 H594 0.931 . S
C581 C577 1.323 . S
C581 C580 1.433 . S
C581 H595 0.933 . S
C582 Dy560 2.738 . S
C582 O565 1.255 . S
C582 O566 1.249 . S
C582 C576 1.516 . S
C583 O567 1.254 . S
C583 O568 1.257 . S
C584 O569 1.266 . S
C584 O570 1.236 . S
C585 C588 1.344 . S
C585 C589 1.328 . S
C585 C591 1.516 . S
C586 C587 1.304 . S
C586 C590 1.323 . S
C587 C586 1.304 . S
C587 C588 1.371 . S
C587 H596 0.930 . S
C588 C585 1.344 . S
C588 C587 1.371 . S
C588 H597 0.931 . S
C589 C585 1.328 . S
C589 C590 1.433 . S
C589 H598 0.931 . S
C590 C586 1.323 . S
C590 C589 1.433 . S
C590 H599 0.933 . S
C591 Dy561 2.738 . S
C591 O571 1.255 . S
C591 O572 1.249 . S
C591 C585 1.516 . S
H592 C578 0.930 . S
H593 C579 0.931 . S
H594 C580 0.931 . S
H595 C581 0.933 . S
H596 C587 0.930 . S
H597 C588 0.931 . S
H598 C589 0.931 . S
H599 C590 0.933 . S
Dy600 O603 2.307 . S
Dy600 O605 2.395 . S
Dy600 O606 2.379 . S
Dy600 O608 2.339 . S
Dy600 O610 2.298 . S
Dy600 O614 2.275 . S
Dy600 C622 2.738 . S
Dy601 O604 2.298 1_655 S
Dy601 O607 2.275 . S
Dy601 O609 2.307 . S
Dy601 O611 2.395 . S
Dy601 O612 2.379 . S
Dy601 O615 2.339 . S
Dy601 C631 2.738 . S
C602 O614 1.254 . S
C602 O615 1.257 1_455 S
O603 Dy600 2.307 . S
O603 C613 1.266 . S
O604 Dy601 2.298 1_455 S
O604 C613 1.236 . S
O605 Dy600 2.395 . S
O605 C622 1.255 . S
O606 Dy600 2.379 . S
O606 C622 1.249 . S
O607 Dy601 2.275 . S
O607 C623 1.254 1_655 S
O608 Dy600 2.339 . S
O608 C623 1.257 . S
O609 Dy601 2.307 . S
O609 C624 1.266 . S
O610 Dy600 2.298 . S
O610 C624 1.236 1_455 S
O611 Dy601 2.395 . S
O611 C631 1.255 . S
O612 Dy601 2.379 . S
O612 C631 1.249 . S
C613 O603 1.266 . S
C613 O604 1.236 . S
O614 Dy600 2.275 . S
O614 C602 1.254 . S
O615 Dy601 2.339 . S
O615 C602 1.257 1_655 S
C616 C619 1.344 . S
C616 C620 1.328 . S
C616 C622 1.516 . S
C617 C618 1.304 . S
C617 C621 1.323 . S
C618 C617 1.304 . S
C618 C619 1.371 . S
C618 H632 0.930 . S
C619 C616 1.344 . S
C619 C618 1.371 . S
C619 H633 0.931 . S
C620 C616 1.328 . S
C620 C621 1.433 . S
C620 H634 0.931 . S
C621 C617 1.323 . S
C621 C620 1.433 . S
C621 H635 0.933 . S
C622 Dy600 2.738 . S
C622 O605 1.255 . S
C622 O606 1.249 . S
C622 C616 1.516 . S
C623 O607 1.254 1_455 S
C623 O608 1.257 . S
C624 O609 1.266 . S
C624 O610 1.236 1_655 S
C625 C628 1.344 . S
C625 C629 1.328 . S
C625 C631 1.516 1_554 S
C626 C627 1.304 . S
C626 C630 1.323 . S
C627 C626 1.304 . S
C627 C628 1.371 . S
C627 H636 0.930 . S
C628 C625 1.344 . S
C628 C627 1.371 . S
C628 H637 0.931 . S
C629 C625 1.328 . S
C629 C630 1.433 . S
C629 H638 0.931 . S
C630 C626 1.323 . S
C630 C629 1.433 . S
C630 H639 0.933 . S
C631 Dy601 2.738 . S
C631 O611 1.255 . S
C631 O612 1.249 . S
C631 C625 1.516 1_556 S
H632 C618 0.930 . S
H633 C619 0.931 . S
H634 C620 0.931 . S
H635 C621 0.933 . S
H636 C627 0.930 . S
H637 C628 0.931 . S
H638 C629 0.931 . S
H639 C630 0.933 . S
H640 C652 0.930 . S
H641 C654 0.930 . S
H642 C655 0.930 . S
H643 C659 0.959 . S
H644 C659 0.959 . S
H645 C659 0.961 . S
H646 C660 0.960 . S
H647 C660 0.961 . S
H648 C660 0.959 . S
H649 C663 0.929 . S
H650 C664 0.931 . S
H651 C666 0.930 . S
C652 H640 0.930 . S
C652 C653 1.399 . S
C652 C657 1.399 . S
C653 C652 1.399 . S
C653 C654 1.376 . S
C654 H641 0.930 . S
C654 C653 1.376 . S
C654 C655 1.388 . S
C655 H642 0.930 . S
C655 C654 1.388 . S
C655 C656 1.390 . S
C656 C655 1.390 . S
C656 C657 1.394 . S
C656 C662 1.465 . S
C657 C652 1.399 . S
C657 C656 1.394 . S
C657 C658 1.516 . S
C658 C657 1.516 . S
C658 C659 1.502 . S
C658 C660 1.561 . S
C658 C661 1.526 . S
C659 H643 0.959 . S
C659 H644 0.959 . S
C659 H645 0.961 . S
C659 C658 1.502 . S
C660 H646 0.960 . S
C660 H647 0.961 . S
C660 H648 0.959 . S
C660 C658 1.561 . S
C661 C658 1.526 . S
C661 C662 1.396 . S
C661 C666 1.390 . S
C662 C656 1.465 . S
C662 C661 1.396 . S
C662 C663 1.399 . S
C663 H649 0.929 . S
C663 C662 1.399 . S
C663 C664 1.385 . S
C664 H650 0.931 . S
C664 C663 1.385 . S
C664 C665 1.389 . S
C665 C664 1.389 . S
C665 C666 1.387 . S
C666 H651 0.930 . S
C666 C661 1.390 . S
C666 C665 1.387 . S
H667 C679 0.930 . S
H668 C681 0.930 . S
H669 C682 0.930 . S
H670 C686 0.959 . S
H671 C686 0.959 . S
H672 C686 0.961 . S
H673 C687 0.960 . S
H674 C687 0.961 . S
H675 C687 0.959 . S
H676 C690 0.929 . S
H677 C691 0.931 . S
H678 C693 0.930 . S
C679 H667 0.930 . S
C679 C680 1.399 . S
C679 C684 1.399 . S
C680 C679 1.399 . S
C680 C681 1.376 . S
C681 H668 0.930 . S
C681 C680 1.376 . S
C681 C682 1.388 . S
C682 H669 0.930 . S
C682 C681 1.388 . S
C682 C683 1.390 . S
C683 C682 1.390 . S
C683 C684 1.394 . S
C683 C689 1.465 . S
C684 C679 1.399 . S
C684 C683 1.394 . S
C684 C685 1.516 . S
C685 C684 1.516 . S
C685 C686 1.502 . S
C685 C687 1.561 . S
C685 C688 1.526 . S
C686 H670 0.959 . S
C686 H671 0.959 . S
C686 H672 0.961 . S
C686 C685 1.502 . S
C687 H673 0.960 . S
C687 H674 0.961 . S
C687 H675 0.959 . S
C687 C685 1.561 . S
C688 C685 1.526 . S
C688 C689 1.396 . S
C688 C693 1.390 . S
C689 C683 1.465 . S
C689 C688 1.396 . S
C689 C690 1.399 . S
C690 H676 0.929 . S
C690 C689 1.399 . S
C690 C691 1.385 . S
C691 H677 0.931 . S
C691 C690 1.385 . S
C691 C692 1.389 . S
C692 C691 1.389 . S
C692 C693 1.387 . S
C693 H678 0.930 . S
C693 C688 1.390 . S
C693 C692 1.387 . S
H694 C706 0.930 . S
H695 C708 0.930 . S
H696 C709 0.930 . S
H697 C713 0.959 . S
H698 C713 0.959 . S
H699 C713 0.961 . S
H700 C714 0.960 . S
H701 C714 0.961 . S
H702 C714 0.959 . S
H703 C717 0.929 . S
H704 C718 0.931 . S
H705 C720 0.930 . S
C706 H694 0.930 . S
C706 C707 1.399 . S
C706 C711 1.399 . S
C707 C706 1.399 . S
C707 C708 1.376 . S
C708 H695 0.930 . S
C708 C707 1.376 . S
C708 C709 1.388 . S
C709 H696 0.930 . S
C709 C708 1.388 . S
C709 C710 1.390 . S
C710 C709 1.390 . S
C710 C711 1.394 . S
C710 C716 1.465 . S
C711 C706 1.399 . S
C711 C710 1.394 . S
C711 C712 1.516 . S
C712 C711 1.516 . S
C712 C713 1.502 . S
C712 C714 1.561 . S
C712 C715 1.526 . S
C713 H697 0.959 . S
C713 H698 0.959 . S
C713 H699 0.961 . S
C713 C712 1.502 . S
C714 H700 0.960 . S
C714 H701 0.961 . S
C714 H702 0.959 . S
C714 C712 1.561 . S
C715 C712 1.526 . S
C715 C716 1.396 . S
C715 C720 1.390 . S
C716 C710 1.465 . S
C716 C715 1.396 . S
C716 C717 1.399 . S
C717 H703 0.929 . S
C717 C716 1.399 . S
C717 C718 1.385 . S
C718 H704 0.931 . S
C718 C717 1.385 . S
C718 C719 1.389 . S
C719 C718 1.389 . S
C719 C720 1.387 . S
C720 H705 0.930 . S
C720 C715 1.390 . S
C720 C719 1.387 . S
H721 C733 0.930 . S
H722 C735 0.930 . S
H723 C736 0.930 . S
H724 C740 0.959 . S
H725 C740 0.959 . S
H726 C740 0.961 . S
H727 C741 0.960 . S
H728 C741 0.961 . S
H729 C741 0.959 . S
H730 C744 0.929 . S
H731 C745 0.931 . S
H732 C747 0.930 . S
C733 H721 0.930 . S
C733 C734 1.399 . S
C733 C738 1.399 . S
C734 C733 1.399 . S
C734 C735 1.376 . S
C735 H722 0.930 . S
C735 C734 1.376 . S
C735 C736 1.388 . S
C736 H723 0.930 . S
C736 C735 1.388 . S
C736 C737 1.390 . S
C737 C736 1.390 . S
C737 C738 1.394 . S
C737 C743 1.465 . S
C738 C733 1.399 . S
C738 C737 1.394 . S
C738 C739 1.516 . S
C739 C738 1.516 . S
C739 C740 1.502 . S
C739 C741 1.561 . S
C739 C742 1.526 . S
C740 H724 0.959 . S
C740 H725 0.959 . S
C740 H726 0.961 . S
C740 C739 1.502 . S
C741 H727 0.960 . S
C741 H728 0.961 . S
C741 H729 0.959 . S
C741 C739 1.561 . S
C742 C739 1.526 . S
C742 C743 1.396 . S
C742 C747 1.390 . S
C743 C737 1.465 . S
C743 C742 1.396 . S
C743 C744 1.399 . S
C744 H730 0.929 . S
C744 C743 1.399 . S
C744 C745 1.385 . S
C745 H731 0.931 . S
C745 C744 1.385 . S
C745 C746 1.389 . S
C746 C745 1.389 . S
C746 C747 1.387 . S
C747 H732 0.930 . S
C747 C742 1.390 . S
C747 C746 1.387 . S
H748 C760 0.930 . S
H749 C762 0.930 . S
H750 C763 0.930 . S
H751 C767 0.959 . S
H752 C767 0.959 . S
H753 C767 0.961 . S
H754 C768 0.960 . S
H755 C768 0.961 . S
H756 C768 0.959 . S
H757 C771 0.929 . S
H758 C772 0.918 1_455 S
H759 C774 0.930 . S
C760 H748 0.930 . S
C760 C761 1.399 . S
C760 C765 1.399 . S
C761 C760 1.399 . S
C761 C762 1.376 . S
C762 H749 0.930 . S
C762 C761 1.376 . S
C762 C763 1.388 . S
C763 H750 0.930 . S
C763 C762 1.388 . S
C763 C764 1.390 . S
C764 C763 1.390 . S
C764 C765 1.394 . S
C764 C770 1.465 . S
C765 C760 1.399 . S
C765 C764 1.394 . S
C765 C766 1.516 . S
C766 C765 1.516 . S
C766 C767 1.502 . S
C766 C768 1.561 . S
C766 C769 1.526 . S
C767 H751 0.959 . S
C767 H752 0.959 . S
C767 H753 0.961 . S
C767 C766 1.502 . S
C768 H754 0.960 . S
C768 H755 0.961 . S
C768 H756 0.959 . S
C768 C766 1.561 . S
C769 C766 1.526 . S
C769 C770 1.396 . S
C769 C774 1.390 . S
C770 C764 1.465 . S
C770 C769 1.396 . S
C770 C771 1.399 . S
C771 H757 0.929 . S
C771 C770 1.399 . S
C771 C772 1.385 . S
C772 H758 0.918 1_655 S
C772 C771 1.385 . S
C772 C773 1.389 . S
C773 C772 1.389 . S
C773 C774 1.387 . S
C774 H759 0.930 . S
C774 C769 1.390 . S
C774 C773 1.387 . S
H775 C787 0.930 . S
H776 C789 0.930 . S
H777 C790 0.930 . S
H778 C794 0.959 . S
H779 C794 0.959 1_455 S
H780 C794 0.961 . S
H781 C795 0.960 . S
H782 C795 0.961 . S
H783 C795 0.959 . S
H784 C798 0.929 . S
H785 C799 0.931 . S
H786 C801 0.930 . S
C787 H775 0.930 . S
C787 C788 1.399 . S
C787 C792 1.399 . S
C788 C787 1.399 . S
C788 C789 1.376 . S
C789 H776 0.930 . S
C789 C788 1.376 . S
C789 C790 1.388 . S
C790 H777 0.930 . S
C790 C789 1.388 . S
C790 C791 1.390 . S
C791 C790 1.390 . S
C791 C792 1.394 . S
C791 C797 1.465 . S
C792 C787 1.399 . S
C792 C791 1.394 . S
C792 C793 1.516 . S
C793 C792 1.516 . S
C793 C794 1.502 . S
C793 C795 1.561 . S
C793 C796 1.526 . S
C794 H778 0.959 . S
C794 H779 0.959 1_655 S
C794 H780 0.961 . S
C794 C793 1.502 . S
C795 H781 0.960 . S
C795 H782 0.961 . S
C795 H783 0.959 . S
C795 C793 1.561 . S
C796 C793 1.526 . S
C796 C797 1.396 . S
C796 C801 1.390 . S
C797 C791 1.465 . S
C797 C796 1.396 . S
C797 C798 1.399 . S
C798 H784 0.929 . S
C798 C797 1.399 . S
C798 C799 1.385 . S
C799 H785 0.931 . S
C799 C798 1.385 . S
C799 C800 1.389 . S
C800 C799 1.389 . S
C800 C801 1.387 . S
C801 H786 0.930 . S
C801 C796 1.390 . S
C801 C800 1.387 . S
H802 C814 0.930 . S
H803 C816 0.930 . S
H804 C817 0.930 . S
H805 C821 0.959 . S
H806 C821 0.959 . S
H807 C821 0.961 . S
H808 C822 0.960 . S
H809 C822 0.961 . S
H810 C822 0.959 . S
H811 C825 0.929 . S
H812 C826 0.931 . S
H813 C828 0.930 . S
C814 H802 0.930 . S
C814 C815 1.399 . S
C814 C819 1.399 . S
C815 C814 1.399 . S
C815 C816 1.376 . S
C816 H803 0.930 . S
C816 C815 1.376 . S
C816 C817 1.388 . S
C817 H804 0.930 . S
C817 C816 1.388 . S
C817 C818 1.390 . S
C818 C817 1.390 . S
C818 C819 1.394 . S
C818 C824 1.465 . S
C819 C814 1.399 . S
C819 C818 1.394 . S
C819 C820 1.516 . S
C820 C819 1.516 . S
C820 C821 1.502 . S
C820 C822 1.561 . S
C820 C823 1.526 . S
C821 H805 0.959 . S
C821 H806 0.959 . S
C821 H807 0.961 . S
C821 C820 1.502 . S
C822 H808 0.960 . S
C822 H809 0.961 . S
C822 H810 0.959 . S
C822 C820 1.561 . S
C823 C820 1.526 . S
C823 C824 1.396 . S
C823 C828 1.390 . S
C824 C818 1.465 . S
C824 C823 1.396 . S
C824 C825 1.399 . S
C825 H811 0.929 . S
C825 C824 1.399 . S
C825 C826 1.385 . S
C826 H812 0.931 . S
C826 C825 1.385 . S
C826 C827 1.389 . S
C827 C826 1.389 . S
C827 C828 1.387 . S
C828 H813 0.930 . S
C828 C823 1.390 . S
C828 C827 1.387 . S
H829 C841 0.930 . S
H830 C843 0.930 . S
H831 C844 0.930 . S
H832 C848 0.959 . S
H833 C848 0.959 . S
H834 C848 0.961 . S
H835 C849 0.960 . S
H836 C849 0.961 . S
H837 C849 0.959 . S
H838 C852 0.929 . S
H839 C853 0.931 . S
H840 C855 0.930 . S
C841 H829 0.930 . S
C841 C842 1.399 . S
C841 C846 1.399 . S
C842 C841 1.399 . S
C842 C843 1.376 . S
C843 H830 0.930 . S
C843 C842 1.376 . S
C843 C844 1.388 . S
C844 H831 0.930 . S
C844 C843 1.388 . S
C844 C845 1.390 . S
C845 C844 1.390 . S
C845 C846 1.394 . S
C845 C851 1.465 . S
C846 C841 1.399 . S
C846 C845 1.394 . S
C846 C847 1.516 . S
C847 C846 1.516 . S
C847 C848 1.502 . S
C847 C849 1.561 . S
C847 C850 1.526 . S
C848 H832 0.959 . S
C848 H833 0.959 . S
C848 H834 0.961 . S
C848 C847 1.502 . S
C849 H835 0.960 . S
C849 H836 0.961 . S
C849 H837 0.959 . S
C849 C847 1.561 . S
C850 C847 1.526 . S
C850 C851 1.396 . S
C850 C855 1.390 . S
C851 C845 1.465 . S
C851 C850 1.396 . S
C851 C852 1.399 . S
C852 H838 0.929 . S
C852 C851 1.399 . S
C852 C853 1.385 . S
C853 H839 0.931 . S
C853 C852 1.385 . S
C853 C854 1.389 . S
C854 C853 1.389 . S
C854 C855 1.387 . S
C855 H840 0.930 . S
C855 C850 1.390 . S
C855 C854 1.387 . S
H856 C868 0.930 . S
H857 C870 0.930 . S
H858 C871 0.930 . S
H859 C875 0.959 . S
H860 C875 0.959 . S
H861 C875 0.961 . S
H862 C876 0.960 . S
H863 C876 0.961 . S
H864 C876 0.959 . S
H865 C879 0.929 . S
H866 C880 0.931 . S
H867 C882 0.930 . S
C868 H856 0.930 . S
C868 C869 1.399 . S
C868 C873 1.399 . S
C869 C868 1.399 . S
C869 C870 1.376 . S
C870 H857 0.930 . S
C870 C869 1.376 . S
C870 C871 1.388 . S
C871 H858 0.930 . S
C871 C870 1.388 . S
C871 C872 1.390 . S
C872 C871 1.390 . S
C872 C873 1.394 . S
C872 C878 1.465 . S
C873 C868 1.399 . S
C873 C872 1.394 . S
C873 C874 1.516 . S
C874 C873 1.516 . S
C874 C875 1.502 . S
C874 C876 1.561 . S
C874 C877 1.526 . S
C875 H859 0.959 . S
C875 H860 0.959 . S
C875 H861 0.961 . S
C875 C874 1.502 . S
C876 H862 0.960 . S
C876 H863 0.961 . S
C876 H864 0.959 . S
C876 C874 1.561 . S
C877 C874 1.526 . S
C877 C878 1.396 . S
C877 C882 1.390 . S
C878 C872 1.465 . S
C878 C877 1.396 . S
C878 C879 1.399 . S
C879 H865 0.929 . S
C879 C878 1.399 . S
C879 C880 1.385 . S
C880 H866 0.931 . S
C880 C879 1.385 . S
C880 C881 1.389 . S
C881 C880 1.389 . S
C881 C882 1.387 . S
C882 H867 0.930 . S
C882 C877 1.390 . S
C882 C881 1.387 . S
H883 C895 0.930 . S
H884 C897 0.930 . S
H885 C898 0.930 . S
H886 C902 0.959 . S
H887 C902 0.959 . S
H888 C902 0.961 . S
H889 C903 0.960 . S
H890 C903 0.961 . S
H891 C903 0.959 . S
H892 C906 0.929 . S
H893 C907 0.931 . S
H894 C909 0.930 . S
C895 H883 0.930 . S
C895 C896 1.399 . S
C895 C900 1.399 . S
C896 C895 1.399 . S
C896 C897 1.376 . S
C897 H884 0.930 . S
C897 C896 1.376 . S
C897 C898 1.388 . S
C898 H885 0.930 . S
C898 C897 1.388 . S
C898 C899 1.390 . S
C899 C898 1.390 . S
C899 C900 1.394 . S
C899 C905 1.465 . S
C900 C895 1.399 . S
C900 C899 1.394 . S
C900 C901 1.516 . S
C901 C900 1.516 . S
C901 C902 1.502 . S
C901 C903 1.561 . S
C901 C904 1.526 . S
C902 H886 0.959 . S
C902 H887 0.959 . S
C902 H888 0.961 . S
C902 C901 1.502 . S
C903 H889 0.960 . S
C903 H890 0.961 . S
C903 H891 0.959 . S
C903 C901 1.561 . S
C904 C901 1.526 . S
C904 C905 1.396 . S
C904 C909 1.390 . S
C905 C899 1.465 . S
C905 C904 1.396 . S
C905 C906 1.399 . S
C906 H892 0.929 . S
C906 C905 1.399 . S
C906 C907 1.385 . S
C907 H893 0.931 . S
C907 C906 1.385 . S
C907 C908 1.389 . S
C908 C907 1.389 . S
C908 C909 1.387 . S
C909 H894 0.930 . S
C909 C904 1.390 . S
C909 C908 1.387 . S
H910 C922 0.930 . S
H911 C924 0.930 . S
H912 C925 0.930 . S
H913 C929 0.959 . S
H914 C929 0.959 . S
H915 C929 0.961 . S
H916 C930 0.960 . S
H917 C930 0.961 . S
H918 C930 0.959 . S
H919 C933 0.929 . S
H920 C934 0.931 . S
H921 C936 0.930 . S
C922 H910 0.930 . S
C922 C923 1.399 . S
C922 C927 1.399 . S
C923 C922 1.399 . S
C923 C924 1.376 . S
C924 H911 0.930 . S
C924 C923 1.376 . S
C924 C925 1.388 . S
C925 H912 0.930 . S
C925 C924 1.388 . S
C925 C926 1.390 . S
C926 C925 1.390 . S
C926 C927 1.394 . S
C926 C932 1.465 . S
C927 C922 1.399 . S
C927 C926 1.394 . S
C927 C928 1.516 . S
C928 C927 1.516 . S
C928 C929 1.502 . S
C928 C930 1.561 . S
C928 C931 1.526 . S
C929 H913 0.959 . S
C929 H914 0.959 . S
C929 H915 0.961 . S
C929 C928 1.502 . S
C930 H916 0.960 . S
C930 H917 0.961 . S
C930 H918 0.959 . S
C930 C928 1.561 . S
C931 C928 1.526 . S
C931 C932 1.396 . S
C931 C936 1.390 . S
C932 C926 1.465 . S
C932 C931 1.396 . S
C932 C933 1.399 . S
C933 H919 0.929 . S
C933 C932 1.399 . S
C933 C934 1.385 . S
C934 H920 0.931 . S
C934 C933 1.385 . S
C934 C935 1.389 . S
C935 C934 1.389 . S
C935 C936 1.387 . S
C936 H921 0.930 . S
C936 C931 1.390 . S
C936 C935 1.387 . S
H937 C949 0.930 . S
H938 C951 0.930 . S
H939 C952 0.930 . S
H940 C956 0.959 . S
H941 C956 0.959 . S
H942 C956 0.961 . S
H943 C957 0.960 . S
H944 C957 0.961 . S
H945 C957 0.959 . S
H946 C960 0.929 . S
H947 C961 0.931 . S
H948 C963 0.930 . S
C949 H937 0.930 . S
C949 C950 1.399 . S
C949 C954 1.399 . S
C950 C949 1.399 . S
C950 C951 1.376 . S
C951 H938 0.930 . S
C951 C950 1.376 . S
C951 C952 1.388 . S
C952 H939 0.930 . S
C952 C951 1.388 . S
C952 C953 1.390 . S
C953 C952 1.390 . S
C953 C954 1.394 . S
C953 C959 1.465 . S
C954 C949 1.399 . S
C954 C953 1.394 . S
C954 C955 1.516 . S
C955 C954 1.516 . S
C955 C956 1.502 . S
C955 C957 1.561 . S
C955 C958 1.526 . S
C956 H940 0.959 . S
C956 H941 0.959 . S
C956 H942 0.961 . S
C956 C955 1.502 . S
C957 H943 0.960 . S
C957 H944 0.961 . S
C957 H945 0.959 . S
C957 C955 1.561 . S
C958 C955 1.526 . S
C958 C959 1.396 . S
C958 C963 1.390 . S
C959 C953 1.465 . S
C959 C958 1.396 . S
C959 C960 1.399 . S
C960 H946 0.929 . S
C960 C959 1.399 . S
C960 C961 1.385 . S
C961 H947 0.931 . S
C961 C960 1.385 . S
C961 C962 1.389 . S
C962 C961 1.389 . S
C962 C963 1.387 . S
C963 H948 0.930 . S
C963 C958 1.390 . S
C963 C962 1.387 . S
H964 C976 0.930 . S
H965 C978 0.930 . S
H966 C979 0.930 . S
H967 C983 0.959 . S
H968 C983 0.959 . S
H969 C983 0.961 . S
H970 C984 0.960 . S
H971 C984 0.961 . S
H972 C984 0.959 . S
H973 C987 0.929 . S
H974 C988 0.931 . S
H975 C990 0.930 . S
C976 H964 0.930 . S
C976 C977 1.399 . S
C976 C981 1.399 . S
C977 C976 1.399 . S
C977 C978 1.376 . S
C978 H965 0.930 . S
C978 C977 1.376 . S
C978 C979 1.388 . S
C979 H966 0.930 . S
C979 C978 1.388 . S
C979 C980 1.390 . S
C980 C979 1.390 . S
C980 C981 1.394 . S
C980 C986 1.465 . S
C981 C976 1.399 . S
C981 C980 1.394 . S
C981 C982 1.516 . S
C982 C981 1.516 . S
C982 C983 1.502 . S
C982 C984 1.561 . S
C982 C985 1.526 . S
C983 H967 0.959 . S
C983 H968 0.959 . S
C983 H969 0.961 . S
C983 C982 1.502 . S
C984 H970 0.960 . S
C984 H971 0.961 . S
C984 H972 0.959 . S
C984 C982 1.561 . S
C985 C982 1.526 . S
C985 C986 1.396 . S
C985 C990 1.390 . S
C986 C980 1.465 . S
C986 C985 1.396 . S
C986 C987 1.399 . S
C987 H973 0.929 . S
C987 C986 1.399 . S
C987 C988 1.385 . S
C988 H974 0.931 . S
C988 C987 1.385 . S
C988 C989 1.389 . S
C989 C988 1.389 . S
C989 C990 1.387 . S
C990 H975 0.930 . S
C990 C985 1.390 . S
C990 C989 1.387 . S
H991 C1003 0.930 . S
H992 C1005 0.930 . S
H993 C1006 0.930 . S
H994 C1010 0.959 . S
H995 C1010 0.959 . S
H996 C1010 0.961 . S
H997 C1011 0.960 . S
H998 C1011 0.961 . S
H999 C1011 0.959 . S
H1000 C1014 0.929 . S
H1001 C1015 0.931 . S
H1002 C1017 0.930 . S
C1003 H991 0.930 . S
C1003 C1004 1.399 . S
C1003 C1008 1.399 . S
C1004 C1003 1.399 . S
C1004 C1005 1.376 . S
C1005 H992 0.930 . S
C1005 C1004 1.376 . S
C1005 C1006 1.388 . S
C1006 H993 0.930 . S
C1006 C1005 1.388 . S
C1006 C1007 1.390 . S
C1007 C1006 1.390 . S
C1007 C1008 1.394 . S
C1007 C1013 1.465 . S
C1008 C1003 1.399 . S
C1008 C1007 1.394 . S
C1008 C1009 1.516 . S
C1009 C1008 1.516 . S
C1009 C1010 1.502 . S
C1009 C1011 1.561 . S
C1009 C1012 1.526 . S
C1010 H994 0.959 . S
C1010 H995 0.959 . S
C1010 H996 0.961 . S
C1010 C1009 1.502 . S
C1011 H997 0.960 . S
C1011 H998 0.961 . S
C1011 H999 0.959 . S
C1011 C1009 1.561 . S
C1012 C1009 1.526 . S
C1012 C1013 1.396 . S
C1012 C1017 1.390 . S
C1013 C1007 1.465 . S
C1013 C1012 1.396 . S
C1013 C1014 1.399 . S
C1014 H1000 0.929 . S
C1014 C1013 1.399 . S
C1014 C1015 1.385 . S
C1015 H1001 0.931 . S
C1015 C1014 1.385 . S
C1015 C1016 1.389 . S
C1016 C1015 1.389 . S
C1016 C1017 1.387 . S
C1017 H1002 0.930 . S
C1017 C1012 1.390 . S
C1017 C1016 1.387 . S
H1018 C1030 0.930 . S
H1019 C1032 0.930 . S
H1020 C1033 0.930 . S
H1021 C1037 0.959 . S
H1022 C1037 0.959 . S
H1023 C1037 0.961 . S
H1024 C1038 0.960 . S
H1025 C1038 0.961 . S
H1026 C1038 0.959 . S
H1027 C1041 0.929 . S
H1028 C1042 0.931 . S
H1029 C1044 0.930 . S
C1030 H1018 0.930 . S
C1030 C1031 1.399 . S
C1030 C1035 1.399 . S
C1031 C1030 1.399 . S
C1031 C1032 1.376 . S
C1032 H1019 0.930 . S
C1032 C1031 1.376 . S
C1032 C1033 1.388 . S
C1033 H1020 0.930 . S
C1033 C1032 1.388 . S
C1033 C1034 1.390 . S
C1034 C1033 1.390 . S
C1034 C1035 1.394 . S
C1034 C1040 1.465 . S
C1035 C1030 1.399 . S
C1035 C1034 1.394 . S
C1035 C1036 1.516 . S
C1036 C1035 1.516 . S
C1036 C1037 1.502 . S
C1036 C1038 1.561 . S
C1036 C1039 1.526 . S
C1037 H1021 0.959 . S
C1037 H1022 0.959 . S
C1037 H1023 0.961 . S
C1037 C1036 1.502 . S
C1038 H1024 0.960 . S
C1038 H1025 0.961 . S
C1038 H1026 0.959 . S
C1038 C1036 1.561 . S
C1039 C1036 1.526 . S
C1039 C1040 1.396 . S
C1039 C1044 1.390 . S
C1040 C1034 1.465 . S
C1040 C1039 1.396 . S
C1040 C1041 1.399 . S
C1041 H1027 0.929 . S
C1041 C1040 1.399 . S
C1041 C1042 1.385 . S
C1042 H1028 0.931 . S
C1042 C1041 1.385 . S
C1042 C1043 1.389 . S
C1043 C1042 1.389 . S
C1043 C1044 1.387 . S
C1044 H1029 0.930 . S
C1044 C1039 1.390 . S
C1044 C1043 1.387 . S
H1045 C1057 0.930 . S
H1046 C1059 0.930 . S
H1047 C1060 0.930 . S
H1048 C1064 0.959 . S
H1049 C1064 0.959 . S
H1050 C1064 0.961 . S
H1051 C1065 0.960 . S
H1052 C1065 0.961 . S
H1053 C1065 0.959 . S
H1054 C1068 0.929 . S
H1055 C1069 0.931 . S
H1056 C1071 0.930 . S
C1057 H1045 0.930 . S
C1057 C1058 1.399 . S
C1057 C1062 1.399 . S
C1058 C1057 1.399 . S
C1058 C1059 1.376 . S
C1059 H1046 0.930 . S
C1059 C1058 1.376 . S
C1059 C1060 1.388 . S
C1060 H1047 0.930 . S
C1060 C1059 1.388 . S
C1060 C1061 1.390 . S
C1061 C1060 1.390 . S
C1061 C1062 1.394 . S
C1061 C1067 1.465 . S
C1062 C1057 1.399 . S
C1062 C1061 1.394 . S
C1062 C1063 1.516 . S
C1063 C1062 1.516 . S
C1063 C1064 1.502 . S
C1063 C1065 1.561 . S
C1063 C1066 1.526 . S
C1064 H1048 0.959 . S
C1064 H1049 0.959 . S
C1064 H1050 0.961 . S
C1064 C1063 1.502 . S
C1065 H1051 0.960 . S
C1065 H1052 0.961 . S
C1065 H1053 0.959 . S
C1065 C1063 1.561 . S
C1066 C1063 1.526 . S
C1066 C1067 1.396 . S
C1066 C1071 1.390 . S
C1067 C1061 1.465 . S
C1067 C1066 1.396 . S
C1067 C1068 1.399 . S
C1068 H1054 0.929 . S
C1068 C1067 1.399 . S
C1068 C1069 1.385 . S
C1069 H1055 0.931 . S
C1069 C1068 1.385 . S
C1069 C1070 1.389 . S
C1070 C1069 1.389 . S
C1070 C1071 1.387 . S
C1071 H1056 0.930 . S
C1071 C1066 1.390 . S
C1071 C1070 1.387 . S
H1072 C1084 0.923 1_655 S
H1073 C1086 0.930 . S
H1074 C1087 0.930 . S
H1075 C1091 0.959 . S
H1076 C1091 0.959 . S
H1077 C1091 0.961 . S
H1078 C1092 0.960 . S
H1079 C1092 0.961 . S
H1080 C1092 0.959 . S
H1081 C1095 0.929 . S
H1082 C1096 0.931 . S
H1083 C1098 0.920 1_655 S
C1084 H1072 0.923 1_455 S
C1084 C1085 1.403 . S
C1084 C1089 1.402 . S
C1085 C1084 1.403 . S
C1085 C1086 1.376 . S
C1086 H1073 0.930 . S
C1086 C1085 1.376 . S
C1086 C1087 1.388 . S
C1087 H1074 0.930 . S
C1087 C1086 1.388 . S
C1087 C1088 1.390 . S
C1088 C1087 1.390 . S
C1088 C1089 1.394 . S
C1088 C1094 1.465 . S
C1089 C1084 1.402 . S
C1089 C1088 1.394 . S
C1089 C1090 1.516 1_455 S
C1090 C1089 1.516 1_655 S
C1090 C1091 1.502 . S
C1090 C1092 1.561 1_655 S
C1090 C1093 1.526 1_655 S
C1091 H1075 0.959 . S
C1091 H1076 0.959 . S
C1091 H1077 0.961 . S
C1091 C1090 1.502 . S
C1092 H1078 0.960 . S
C1092 H1079 0.961 . S
C1092 H1080 0.959 . S
C1092 C1090 1.561 1_455 S
C1093 C1090 1.526 1_455 S
C1093 C1094 1.396 . S
C1093 C1098 1.390 . S
C1094 C1088 1.465 . S
C1094 C1093 1.396 . S
C1094 C1095 1.399 . S
C1095 H1081 0.929 . S
C1095 C1094 1.399 . S
C1095 C1096 1.385 . S
C1096 H1082 0.931 . S
C1096 C1095 1.385 . S
C1096 C1097 1.389 . S
C1097 C1096 1.389 . S
C1097 C1098 1.387 . S
C1098 H1083 0.920 1_455 S
C1098 C1093 1.390 . S
C1098 C1097 1.387 . S
H1099 C1111 0.930 . S
H1100 C1113 0.930 . S
H1101 C1114 0.930 . S
H1102 C1118 0.959 . S
H1103 C1118 0.959 . S
H1104 C1118 0.961 1_655 S
H1105 C1119 0.960 . S
H1106 C1119 0.961 . S
H1107 C1119 0.959 . S
H1108 C1122 0.929 . S
H1109 C1123 0.931 . S
H1110 C1125 0.930 . S
C1111 H1099 0.930 . S
C1111 C1112 1.399 . S
C1111 C1116 1.399 . S
C1112 C1111 1.399 . S
C1112 C1113 1.376 . S
C1113 H1100 0.930 . S
C1113 C1112 1.376 . S
C1113 C1114 1.388 . S
C1114 H1101 0.930 . S
C1114 C1113 1.388 . S
C1114 C1115 1.392 . S
C1115 C1114 1.392 . S
C1115 C1116 1.395 . S
C1115 C1121 1.462 1_655 S
C1116 C1111 1.399 . S
C1116 C1115 1.395 . S
C1116 C1117 1.516 1_655 S
C1117 C1116 1.516 1_455 S
C1117 C1118 1.502 . S
C1117 C1119 1.561 . S
C1117 C1120 1.526 . S
C1118 H1102 0.959 . S
C1118 H1103 0.959 . S
C1118 H1104 0.961 1_455 S
C1118 C1117 1.502 . S
C1119 H1105 0.960 . S
C1119 H1106 0.961 . S
C1119 H1107 0.959 . S
C1119 C1117 1.561 . S
C1120 C1117 1.526 . S
C1120 C1121 1.396 . S
C1120 C1125 1.390 . S
C1121 C1115 1.462 1_455 S
C1121 C1120 1.396 . S
C1121 C1122 1.399 . S
C1122 H1108 0.929 . S
C1122 C1121 1.399 . S
C1122 C1123 1.385 . S
C1123 H1109 0.931 . S
C1123 C1122 1.385 . S
C1123 C1124 1.389 . S
C1124 C1123 1.389 . S
C1124 C1125 1.387 . S
C1125 H1110 0.930 . S
C1125 C1120 1.390 . S
C1125 C1124 1.387 . S
H1126 C1138 0.930 . S
H1127 C1140 0.930 . S
H1128 C1141 0.930 . S
H1129 C1145 0.959 . S
H1130 C1145 0.959 . S
H1131 C1145 0.961 . S
H1132 C1146 0.960 . S
H1133 C1146 0.961 . S
H1134 C1146 0.959 . S
H1135 C1149 0.929 . S
H1136 C1150 0.931 . S
H1137 C1152 0.930 . S
C1138 H1126 0.930 . S
C1138 C1139 1.399 . S
C1138 C1143 1.399 . S
C1139 C1138 1.399 . S
C1139 C1140 1.376 . S
C1140 H1127 0.930 . S
C1140 C1139 1.376 . S
C1140 C1141 1.388 . S
C1141 H1128 0.930 . S
C1141 C1140 1.388 . S
C1141 C1142 1.390 . S
C1142 C1141 1.390 . S
C1142 C1143 1.394 . S
C1142 C1148 1.465 . S
C1143 C1138 1.399 . S
C1143 C1142 1.394 . S
C1143 C1144 1.516 . S
C1144 C1143 1.516 . S
C1144 C1145 1.502 . S
C1144 C1146 1.561 . S
C1144 C1147 1.526 . S
C1145 H1129 0.959 . S
C1145 H1130 0.959 . S
C1145 H1131 0.961 . S
C1145 C1144 1.502 . S
C1146 H1132 0.960 . S
C1146 H1133 0.961 . S
C1146 H1134 0.959 . S
C1146 C1144 1.561 . S
C1147 C1144 1.526 . S
C1147 C1148 1.396 . S
C1147 C1152 1.390 . S
C1148 C1142 1.465 . S
C1148 C1147 1.396 . S
C1148 C1149 1.399 . S
C1149 H1135 0.929 . S
C1149 C1148 1.399 . S
C1149 C1150 1.385 . S
C1150 H1136 0.931 . S
C1150 C1149 1.385 . S
C1150 C1151 1.389 . S
C1151 C1150 1.389 . S
C1151 C1152 1.387 . S
C1152 H1137 0.930 . S
C1152 C1147 1.390 . S
C1152 C1151 1.387 . S
H1153 C1165 0.930 . S
H1154 C1167 0.930 . S
H1155 C1168 0.930 . S
H1156 C1172 0.959 . S
H1157 C1172 0.959 . S
H1158 C1172 0.961 . S
H1159 C1173 0.960 . S
H1160 C1173 0.961 . S
H1161 C1173 0.959 . S
H1162 C1176 0.929 . S
H1163 C1177 0.931 . S
H1164 C1179 0.930 . S
C1165 H1153 0.930 . S
C1165 C1166 1.399 . S
C1165 C1170 1.399 . S
C1166 C1165 1.399 . S
C1166 C1167 1.376 . S
C1167 H1154 0.930 . S
C1167 C1166 1.376 . S
C1167 C1168 1.388 . S
C1168 H1155 0.930 . S
C1168 C1167 1.388 . S
C1168 C1169 1.390 . S
C1169 C1168 1.390 . S
C1169 C1170 1.394 . S
C1169 C1175 1.465 . S
C1170 C1165 1.399 . S
C1170 C1169 1.394 . S
C1170 C1171 1.516 . S
C1171 C1170 1.516 . S
C1171 C1172 1.502 . S
C1171 C1173 1.561 . S
C1171 C1174 1.526 . S
C1172 H1156 0.959 . S
C1172 H1157 0.959 . S
C1172 H1158 0.961 . S
C1172 C1171 1.502 . S
C1173 H1159 0.960 . S
C1173 H1160 0.961 . S
C1173 H1161 0.959 . S
C1173 C1171 1.561 . S
C1174 C1171 1.526 . S
C1174 C1175 1.396 . S
C1174 C1179 1.390 . S
C1175 C1169 1.465 . S
C1175 C1174 1.396 . S
C1175 C1176 1.399 . S
C1176 H1162 0.929 . S
C1176 C1175 1.399 . S
C1176 C1177 1.385 . S
C1177 H1163 0.931 . S
C1177 C1176 1.385 . S
C1177 C1178 1.389 . S
C1178 C1177 1.389 . S
C1178 C1179 1.387 . S
C1179 H1164 0.930 . S
C1179 C1174 1.390 . S
C1179 C1178 1.387 . S
H1180 C1192 0.930 . S
H1181 C1194 0.939 . S
H1182 C1195 0.922 1_655 S
H1183 C1199 0.959 . S
H1184 C1199 0.959 . S
H1185 C1199 0.961 . S
H1186 C1200 0.960 . S
H1187 C1200 0.961 . S
H1188 C1200 0.959 1_655 S
H1189 C1203 0.929 . S
H1190 C1204 0.931 . S
H1191 C1206 0.930 . S
C1192 H1180 0.930 . S
C1192 C1193 1.399 . S
C1192 C1197 1.399 . S
C1193 C1192 1.399 . S
C1193 C1194 1.376 . S
C1194 H1181 0.939 . S
C1194 C1193 1.376 . S
C1194 C1195 1.392 . S
C1195 H1182 0.922 1_455 S
C1195 C1194 1.392 . S
C1195 C1196 1.395 . S
C1196 C1195 1.395 . S
C1196 C1197 1.394 . S
C1196 C1202 1.465 . S
C1197 C1192 1.399 . S
C1197 C1196 1.394 . S
C1197 C1198 1.516 . S
C1198 C1197 1.516 . S
C1198 C1199 1.502 . S
C1198 C1200 1.561 . S
C1198 C1201 1.526 . S
C1199 H1183 0.959 . S
C1199 H1184 0.959 . S
C1199 H1185 0.961 . S
C1199 C1198 1.502 . S
C1200 H1186 0.960 . S
C1200 H1187 0.961 . S
C1200 H1188 0.959 1_455 S
C1200 C1198 1.561 . S
C1201 C1198 1.526 . S
C1201 C1202 1.396 . S
C1201 C1206 1.390 . S
C1202 C1196 1.465 . S
C1202 C1201 1.396 . S
C1202 C1203 1.399 1_455 S
C1203 H1189 0.929 . S
C1203 C1202 1.399 1_655 S
C1203 C1204 1.385 . S
C1204 H1190 0.931 . S
C1204 C1203 1.385 . S
C1204 C1205 1.389 1_655 S
C1205 C1204 1.389 1_455 S
C1205 C1206 1.387 . S
C1206 H1191 0.930 . S
C1206 C1201 1.390 . S
C1206 C1205 1.387 . S
H1207 C1219 0.930 . S
H1208 C1221 0.930 . S
H1209 C1222 0.930 . S
H1210 C1226 0.959 . S
H1211 C1226 0.959 . S
H1212 C1226 0.961 . S
H1213 C1227 0.960 . S
H1214 C1227 0.961 . S
H1215 C1227 0.959 . S
H1216 C1230 0.929 . S
H1217 C1231 0.931 . S
H1218 C1233 0.930 . S
C1219 H1207 0.930 . S
C1219 C1220 1.399 . S
C1219 C1224 1.399 . S
C1220 C1219 1.399 . S
C1220 C1221 1.376 . S
C1221 H1208 0.930 . S
C1221 C1220 1.376 . S
C1221 C1222 1.388 . S
C1222 H1209 0.930 . S
C1222 C1221 1.388 . S
C1222 C1223 1.390 . S
C1223 C1222 1.390 . S
C1223 C1224 1.394 . S
C1223 C1229 1.465 . S
C1224 C1219 1.399 . S
C1224 C1223 1.394 . S
C1224 C1225 1.516 . S
C1225 C1224 1.516 . S
C1225 C1226 1.502 . S
C1225 C1227 1.561 . S
C1225 C1228 1.526 . S
C1226 H1210 0.959 . S
C1226 H1211 0.959 . S
C1226 H1212 0.961 . S
C1226 C1225 1.502 . S
C1227 H1213 0.960 . S
C1227 H1214 0.961 . S
C1227 H1215 0.959 . S
C1227 C1225 1.561 . S
C1228 C1225 1.526 . S
C1228 C1229 1.396 . S
C1228 C1233 1.390 . S
C1229 C1223 1.465 . S
C1229 C1228 1.396 . S
C1229 C1230 1.399 . S
C1230 H1216 0.929 . S
C1230 C1229 1.399 . S
C1230 C1231 1.385 . S
C1231 H1217 0.931 . S
C1231 C1230 1.385 . S
C1231 C1232 1.389 . S
C1232 C1231 1.389 . S
C1232 C1233 1.387 . S
C1233 H1218 0.930 . S
C1233 C1228 1.390 . S
C1233 C1232 1.387 . S
H1234 C1246 0.930 . S
H1235 C1248 0.930 . S
H1236 C1249 0.930 . S
H1237 C1253 0.959 . S
H1238 C1253 0.959 . S
H1239 C1253 0.961 . S
H1240 C1254 0.960 . S
H1241 C1254 0.961 . S
H1242 C1254 0.959 . S
H1243 C1257 0.929 . S
H1244 C1258 0.931 . S
H1245 C1260 0.930 . S
C1246 H1234 0.930 . S
C1246 C1247 1.399 . S
C1246 C1251 1.399 . S
C1247 C1246 1.399 . S
C1247 C1248 1.376 . S
C1248 H1235 0.930 . S
C1248 C1247 1.376 . S
C1248 C1249 1.388 . S
C1249 H1236 0.930 . S
C1249 C1248 1.388 . S
C1249 C1250 1.390 . S
C1250 C1249 1.390 . S
C1250 C1251 1.394 . S
C1250 C1256 1.465 . S
C1251 C1246 1.399 . S
C1251 C1250 1.394 . S
C1251 C1252 1.516 . S
C1252 C1251 1.516 . S
C1252 C1253 1.502 . S
C1252 C1254 1.561 . S
C1252 C1255 1.526 . S
C1253 H1237 0.959 . S
C1253 H1238 0.959 . S
C1253 H1239 0.961 . S
C1253 C1252 1.502 . S
C1254 H1240 0.960 . S
C1254 H1241 0.961 . S
C1254 H1242 0.959 . S
C1254 C1252 1.561 . S
C1255 C1252 1.526 . S
C1255 C1256 1.396 . S
C1255 C1260 1.390 . S
C1256 C1250 1.465 . S
C1256 C1255 1.396 . S
C1256 C1257 1.399 . S
C1257 H1243 0.929 . S
C1257 C1256 1.399 . S
C1257 C1258 1.385 . S
C1258 H1244 0.931 . S
C1258 C1257 1.385 . S
C1258 C1259 1.389 . S
C1259 C1258 1.389 . S
C1259 C1260 1.387 . S
C1260 H1245 0.930 . S
C1260 C1255 1.390 . S
C1260 C1259 1.387 . S
H1261 C1273 0.930 . S
H1262 C1275 0.930 . S
H1263 C1276 0.930 . S
H1264 C1280 0.959 . S
H1265 C1280 0.987 . S
H1266 C1280 0.961 . S
H1267 C1281 0.960 . S
H1268 C1281 0.961 1_655 S
H1269 C1281 0.959 . S
H1270 C1284 0.929 . S
H1271 C1285 0.931 . S
H1272 C1287 0.930 . S
C1273 H1261 0.930 . S
C1273 C1274 1.399 . S
C1273 C1278 1.399 . S
C1274 C1273 1.399 . S
C1274 C1275 1.376 . S
C1275 H1262 0.930 . S
C1275 C1274 1.376 . S
C1275 C1276 1.388 . S
C1276 H1263 0.930 . S
C1276 C1275 1.388 . S
C1276 C1277 1.390 . S
C1277 C1276 1.390 . S
C1277 C1278 1.394 . S
C1277 C1283 1.440 1_455 S
C1278 C1273 1.399 . S
C1278 C1277 1.394 . S
C1278 C1279 1.516 . S
C1279 C1278 1.516 . S
C1279 C1280 1.502 . S
C1279 C1281 1.561 . S
C1279 C1282 1.526 1_455 S
C1280 H1264 0.959 . S
C1280 H1265 0.987 . S
C1280 H1266 0.961 . S
C1280 C1279 1.502 . S
C1281 H1267 0.960 . S
C1281 H1268 0.961 1_455 S
C1281 H1269 0.959 . S
C1281 C1279 1.561 . S
C1282 C1279 1.526 1_655 S
C1282 C1283 1.404 . S
C1282 C1287 1.390 . S
C1283 C1277 1.440 1_655 S
C1283 C1282 1.404 . S
C1283 C1284 1.415 . S
C1284 H1270 0.929 . S
C1284 C1283 1.415 . S
C1284 C1285 1.385 . S
C1285 H1271 0.931 . S
C1285 C1284 1.385 . S
C1285 C1286 1.389 . S
C1286 C1285 1.389 . S
C1286 C1287 1.387 . S
C1287 H1272 0.930 . S
C1287 C1282 1.390 . S
C1287 C1286 1.387 . S
H1288 C1300 0.925 1_655 S
H1289 C1302 0.930 . S
H1290 C1303 0.930 . S
H1291 C1307 0.959 . S
H1292 C1307 0.959 . S
H1293 C1307 0.961 . S
H1294 C1308 0.960 . S
H1295 C1308 0.961 . S
H1296 C1308 0.959 . S
H1297 C1311 0.929 . S
H1298 C1312 0.931 . S
H1299 C1314 0.950 . S
C1300 H1288 0.925 1_455 S
C1300 C1301 1.399 . S
C1300 C1305 1.399 . S
C1301 C1300 1.399 . S
C1301 C1302 1.376 . S
C1302 H1289 0.930 . S
C1302 C1301 1.376 . S
C1302 C1303 1.388 1_545 S
C1303 H1290 0.930 . S
C1303 C1302 1.388 1_565 S
C1303 C1304 1.393 . S
C1304 C1303 1.393 . S
C1304 C1305 1.382 1_565 S
C1304 C1310 1.473 1_554 S
C1305 C1300 1.399 . S
C1305 C1304 1.382 1_545 S
C1305 C1306 1.516 1_554 S
C1306 C1305 1.516 1_556 S
C1306 C1307 1.502 1_455 S
C1306 C1308 1.561 . S
C1306 C1309 1.526 1_545 S
C1307 H1291 0.959 . S
C1307 H1292 0.959 . S
C1307 H1293 0.961 . S
C1307 C1306 1.502 1_655 S
C1308 H1294 0.960 . S
C1308 H1295 0.961 . S
C1308 H1296 0.959 . S
C1308 C1306 1.561 . S
C1309 C1306 1.526 1_565 S
C1309 C1310 1.396 . S
C1309 C1314 1.390 . S
C1310 C1304 1.473 1_556 S
C1310 C1309 1.396 . S
C1310 C1311 1.399 . S
C1311 H1297 0.929 . S
C1311 C1310 1.399 . S
C1311 C1312 1.385 . S
C1312 H1298 0.931 . S
C1312 C1311 1.385 . S
C1312 C1313 1.389 . S
C1313 C1312 1.389 . S
C1313 C1314 1.387 . S
C1314 H1299 0.950 . S
C1314 C1309 1.390 . S
C1314 C1313 1.387 . S
H1315 C1327 0.930 . S
H1316 C1329 0.930 . S
H1317 C1330 0.930 . S
H1318 C1334 0.959 . S
H1319 C1334 0.959 . S
H1320 C1334 0.961 . S
H1321 C1335 0.960 . S
H1322 C1335 0.961 . S
H1323 C1335 0.959 . S
H1324 C1338 0.929 . S
H1325 C1339 0.931 . S
H1326 C1341 0.930 . S
C1327 H1315 0.930 . S
C1327 C1328 1.399 . S
C1327 C1332 1.399 . S
C1328 C1327 1.399 . S
C1328 C1329 1.376 . S
C1329 H1316 0.930 . S
C1329 C1328 1.376 . S
C1329 C1330 1.388 . S
C1330 H1317 0.930 . S
C1330 C1329 1.388 . S
C1330 C1331 1.390 . S
C1331 C1330 1.390 . S
C1331 C1332 1.394 . S
C1331 C1337 1.465 . S
C1332 C1327 1.399 . S
C1332 C1331 1.394 . S
C1332 C1333 1.516 . S
C1333 C1332 1.516 . S
C1333 C1334 1.502 . S
C1333 C1335 1.561 . S
C1333 C1336 1.526 . S
C1334 H1318 0.959 . S
C1334 H1319 0.959 . S
C1334 H1320 0.961 . S
C1334 C1333 1.502 . S
C1335 H1321 0.960 . S
C1335 H1322 0.961 . S
C1335 H1323 0.959 . S
C1335 C1333 1.561 . S
C1336 C1333 1.526 . S
C1336 C1337 1.396 . S
C1336 C1341 1.390 . S
C1337 C1331 1.465 . S
C1337 C1336 1.396 . S
C1337 C1338 1.399 . S
C1338 H1324 0.929 . S
C1338 C1337 1.399 . S
C1338 C1339 1.385 . S
C1339 H1325 0.931 . S
C1339 C1338 1.385 . S
C1339 C1340 1.389 . S
C1340 C1339 1.389 . S
C1340 C1341 1.387 . S
C1341 H1326 0.930 . S
C1341 C1336 1.390 . S
C1341 C1340 1.387 . S
H1342 C1354 0.930 1_565 S
H1343 C1356 0.930 . S
H1344 C1357 0.930 . S
H1345 C1361 0.959 . S
H1346 C1361 0.959 . S
H1347 C1361 0.961 . S
H1348 C1362 0.960 . S
H1349 C1362 0.961 . S
H1350 C1362 0.959 . S
H1351 C1365 0.929 . S
H1352 C1366 0.930 . S
H1353 C1368 0.930 . S
C1354 H1342 0.930 1_545 S
C1354 C1355 1.399 . S
C1354 C1359 1.400 . S
C1355 C1354 1.399 . S
C1355 C1356 1.376 . S
C1356 H1343 0.930 . S
C1356 C1355 1.376 . S
C1356 C1357 1.388 . S
C1357 H1344 0.930 . S
C1357 C1356 1.388 . S
C1357 C1358 1.390 . S
C1358 C1357 1.390 . S
C1358 C1359 1.395 . S
C1358 C1364 1.465 . S
C1359 C1354 1.400 . S
C1359 C1358 1.395 . S
C1359 C1360 1.515 1_545 S
C1360 C1359 1.515 1_565 S
C1360 C1361 1.502 . S
C1360 C1362 1.561 . S
C1360 C1363 1.526 . S
C1361 H1345 0.959 . S
C1361 H1346 0.959 . S
C1361 H1347 0.961 . S
C1361 C1360 1.502 . S
C1362 H1348 0.960 . S
C1362 H1349 0.961 . S
C1362 H1350 0.959 . S
C1362 C1360 1.561 . S
C1363 C1360 1.526 . S
C1363 C1364 1.396 1_565 S
C1363 C1368 1.390 . S
C1364 C1358 1.465 . S
C1364 C1363 1.396 1_545 S
C1364 C1365 1.399 . S
C1365 H1351 0.929 . S
C1365 C1364 1.399 . S
C1365 C1366 1.385 1_545 S
C1366 H1352 0.930 . S
C1366 C1365 1.385 1_565 S
C1366 C1367 1.389 . S
C1367 C1366 1.389 . S
C1367 C1368 1.387 . S
C1368 H1353 0.930 . S
C1368 C1363 1.390 . S
C1368 C1367 1.387 . S
H1369 C1381 0.930 . S
H1370 C1383 0.930 . S
H1371 C1384 0.930 . S
H1372 C1388 0.959 . S
H1373 C1388 0.959 . S
H1374 C1388 0.961 . S
H1375 C1389 0.960 . S
H1376 C1389 0.961 . S
H1377 C1389 0.959 . S
H1378 C1392 0.929 . S
H1379 C1393 0.931 . S
H1380 C1395 0.930 . S
C1381 H1369 0.930 . S
C1381 C1382 1.399 . S
C1381 C1386 1.399 . S
C1382 C1381 1.399 . S
C1382 C1383 1.376 . S
C1383 H1370 0.930 . S
C1383 C1382 1.376 . S
C1383 C1384 1.388 . S
C1384 H1371 0.930 . S
C1384 C1383 1.388 . S
C1384 C1385 1.390 . S
C1385 C1384 1.390 . S
C1385 C1386 1.394 . S
C1385 C1391 1.465 . S
C1386 C1381 1.399 . S
C1386 C1385 1.394 . S
C1386 C1387 1.516 . S
C1387 C1386 1.516 . S
C1387 C1388 1.502 . S
C1387 C1389 1.561 . S
C1387 C1390 1.526 . S
C1388 H1372 0.959 . S
C1388 H1373 0.959 . S
C1388 H1374 0.961 . S
C1388 C1387 1.502 . S
C1389 H1375 0.960 . S
C1389 H1376 0.961 . S
C1389 H1377 0.959 . S
C1389 C1387 1.561 . S
C1390 C1387 1.526 . S
C1390 C1391 1.396 . S
C1390 C1395 1.390 . S
C1391 C1385 1.465 . S
C1391 C1390 1.396 . S
C1391 C1392 1.399 . S
C1392 H1378 0.929 . S
C1392 C1391 1.399 . S
C1392 C1393 1.385 . S
C1393 H1379 0.931 . S
C1393 C1392 1.385 . S
C1393 C1394 1.389 . S
C1394 C1393 1.389 . S
C1394 C1395 1.387 . S
C1395 H1380 0.930 . S
C1395 C1390 1.390 . S
C1395 C1394 1.387 . S
H1396 C1408 0.930 . S
H1397 C1410 0.930 . S
H1398 C1411 0.930 . S
H1399 C1415 0.959 . S
H1400 C1415 0.959 . S
H1401 C1415 0.961 . S
H1402 C1416 0.960 . S
H1403 C1416 0.961 . S
H1404 C1416 0.959 . S
H1405 C1419 0.929 . S
H1406 C1420 0.931 . S
H1407 C1422 0.930 . S
C1408 H1396 0.930 . S
C1408 C1409 1.399 . S
C1408 C1413 1.399 . S
C1409 C1408 1.399 . S
C1409 C1410 1.376 . S
C1410 H1397 0.930 . S
C1410 C1409 1.376 . S
C1410 C1411 1.388 . S
C1411 H1398 0.930 . S
C1411 C1410 1.388 . S
C1411 C1412 1.390 . S
C1412 C1411 1.390 . S
C1412 C1413 1.394 . S
C1412 C1418 1.465 . S
C1413 C1408 1.399 . S
C1413 C1412 1.394 . S
C1413 C1414 1.516 . S
C1414 C1413 1.516 . S
C1414 C1415 1.502 . S
C1414 C1416 1.561 . S
C1414 C1417 1.526 . S
C1415 H1399 0.959 . S
C1415 H1400 0.959 . S
C1415 H1401 0.961 . S
C1415 C1414 1.502 . S
C1416 H1402 0.960 . S
C1416 H1403 0.961 . S
C1416 H1404 0.959 . S
C1416 C1414 1.561 . S
C1417 C1414 1.526 . S
C1417 C1418 1.396 . S
C1417 C1422 1.390 . S
C1418 C1412 1.465 . S
C1418 C1417 1.396 . S
C1418 C1419 1.399 . S
C1419 H1405 0.929 . S
C1419 C1418 1.399 . S
C1419 C1420 1.385 . S
C1420 H1406 0.931 . S
C1420 C1419 1.385 . S
C1420 C1421 1.389 . S
C1421 C1420 1.389 . S
C1421 C1422 1.387 . S
C1422 H1407 0.930 . S
C1422 C1417 1.390 . S
C1422 C1421 1.387 . S
H1423 C1435 0.930 . S
H1424 C1437 0.930 . S
H1425 C1438 0.930 . S
H1426 C1442 0.959 . S
H1427 C1442 0.959 . S
H1428 C1442 0.961 . S
H1429 C1443 0.960 . S
H1430 C1443 0.961 . S
H1431 C1443 0.959 . S
H1432 C1446 0.929 . S
H1433 C1447 0.931 . S
H1434 C1449 0.930 . S
C1435 H1423 0.930 . S
C1435 C1436 1.399 . S
C1435 C1440 1.399 . S
C1436 C1435 1.399 . S
C1436 C1437 1.376 . S
C1437 H1424 0.930 . S
C1437 C1436 1.376 . S
C1437 C1438 1.388 . S
C1438 H1425 0.930 . S
C1438 C1437 1.388 . S
C1438 C1439 1.390 . S
C1439 C1438 1.390 . S
C1439 C1440 1.394 . S
C1439 C1445 1.465 . S
C1440 C1435 1.399 . S
C1440 C1439 1.394 . S
C1440 C1441 1.516 . S
C1441 C1440 1.516 . S
C1441 C1442 1.502 . S
C1441 C1443 1.561 . S
C1441 C1444 1.526 . S
C1442 H1426 0.959 . S
C1442 H1427 0.959 . S
C1442 H1428 0.961 . S
C1442 C1441 1.502 . S
C1443 H1429 0.960 . S
C1443 H1430 0.961 . S
C1443 H1431 0.959 . S
C1443 C1441 1.561 . S
C1444 C1441 1.526 . S
C1444 C1445 1.396 . S
C1444 C1449 1.390 . S
C1445 C1439 1.465 . S
C1445 C1444 1.396 . S
C1445 C1446 1.399 . S
C1446 H1432 0.929 . S
C1446 C1445 1.399 . S
C1446 C1447 1.385 . S
C1447 H1433 0.931 . S
C1447 C1446 1.385 . S
C1447 C1448 1.389 . S
C1448 C1447 1.389 . S
C1448 C1449 1.387 . S
C1449 H1434 0.930 . S
C1449 C1444 1.390 . S
C1449 C1448 1.387 . S
H1450 C1462 0.930 . S
H1451 C1464 0.930 . S
H1452 C1465 0.930 . S
H1453 C1469 0.959 . S
H1454 C1469 0.959 . S
H1455 C1469 0.961 . S
H1456 C1470 0.960 . S
H1457 C1470 0.961 . S
H1458 C1470 0.959 . S
H1459 C1473 0.929 . S
H1460 C1474 0.931 . S
H1461 C1476 0.930 . S
C1462 H1450 0.930 . S
C1462 C1463 1.399 . S
C1462 C1467 1.399 . S
C1463 C1462 1.399 . S
C1463 C1464 1.376 . S
C1464 H1451 0.930 . S
C1464 C1463 1.376 . S
C1464 C1465 1.388 . S
C1465 H1452 0.930 . S
C1465 C1464 1.388 . S
C1465 C1466 1.390 . S
C1466 C1465 1.390 . S
C1466 C1467 1.394 . S
C1466 C1472 1.465 . S
C1467 C1462 1.399 . S
C1467 C1466 1.394 . S
C1467 C1468 1.516 . S
C1468 C1467 1.516 . S
C1468 C1469 1.502 . S
C1468 C1470 1.561 . S
C1468 C1471 1.526 . S
C1469 H1453 0.959 . S
C1469 H1454 0.959 . S
C1469 H1455 0.961 . S
C1469 C1468 1.502 . S
C1470 H1456 0.960 . S
C1470 H1457 0.961 . S
C1470 H1458 0.959 . S
C1470 C1468 1.561 . S
C1471 C1468 1.526 . S
C1471 C1472 1.396 . S
C1471 C1476 1.390 . S
C1472 C1466 1.465 . S
C1472 C1471 1.396 . S
C1472 C1473 1.399 . S
C1473 H1459 0.929 . S
C1473 C1472 1.399 . S
C1473 C1474 1.385 . S
C1474 H1460 0.931 . S
C1474 C1473 1.385 . S
C1474 C1475 1.389 . S
C1475 C1474 1.389 . S
C1475 C1476 1.387 . S
C1476 H1461 0.930 . S
C1476 C1471 1.390 . S
C1476 C1475 1.387 . S
H1477 C1489 0.930 . S
H1478 C1491 0.930 . S
H1479 C1492 0.930 . S
H1480 C1496 0.959 . S
H1481 C1496 0.959 . S
H1482 C1496 0.961 . S
H1483 C1497 0.960 . S
H1484 C1497 0.961 . S
H1485 C1497 0.959 . S
H1486 C1500 0.916 1_556 S
H1487 C1501 0.931 . S
H1488 C1503 0.930 . S
C1489 H1477 0.930 . S
C1489 C1490 1.399 . S
C1489 C1494 1.399 . S
C1490 C1489 1.399 . S
C1490 C1491 1.376 1_455 S
C1491 H1478 0.930 . S
C1491 C1490 1.376 1_655 S
C1491 C1492 1.388 . S
C1492 H1479 0.930 . S
C1492 C1491 1.388 . S
C1492 C1493 1.399 . S
C1493 C1492 1.399 . S
C1493 C1494 1.383 1_655 S
C1493 C1499 1.465 1_556 S
C1494 C1489 1.399 . S
C1494 C1493 1.383 1_455 S
C1494 C1495 1.516 1_556 S
C1495 C1494 1.516 1_554 S
C1495 C1496 1.502 . S
C1495 C1497 1.561 1_455 S
C1495 C1498 1.526 . S
C1496 H1480 0.959 . S
C1496 H1481 0.959 . S
C1496 H1482 0.961 . S
C1496 C1495 1.502 . S
C1497 H1483 0.960 . S
C1497 H1484 0.961 . S
C1497 H1485 0.959 . S
C1497 C1495 1.561 1_655 S
C1498 C1495 1.526 . S
C1498 C1499 1.392 1_455 S
C1498 C1503 1.390 . S
C1499 C1493 1.465 1_554 S
C1499 C1498 1.392 1_655 S
C1499 C1500 1.402 . S
C1500 H1486 0.916 1_554 S
C1500 C1499 1.402 . S
C1500 C1501 1.385 . S
C1501 H1487 0.931 . S
C1501 C1500 1.385 . S
C1501 C1502 1.389 1_655 S
C1502 C1501 1.389 1_455 S
C1502 C1503 1.387 . S
C1503 H1488 0.930 . S
C1503 C1498 1.390 . S
C1503 C1502 1.387 . S
H1504 C1516 0.930 . S
H1505 C1518 0.930 . S
H1506 C1519 0.930 . S
H1507 C1523 0.959 . S
H1508 C1523 0.959 . S
H1509 C1523 0.961 . S
H1510 C1524 0.960 . S
H1511 C1524 0.961 . S
H1512 C1524 0.959 . S
H1513 C1527 0.929 . S
H1514 C1528 0.931 . S
H1515 C1530 0.930 . S
C1516 H1504 0.930 . S
C1516 C1517 1.399 . S
C1516 C1521 1.399 . S
C1517 C1516 1.399 . S
C1517 C1518 1.376 . S
C1518 H1505 0.930 . S
C1518 C1517 1.376 . S
C1518 C1519 1.388 . S
C1519 H1506 0.930 . S
C1519 C1518 1.388 . S
C1519 C1520 1.390 . S
C1520 C1519 1.390 . S
C1520 C1521 1.394 . S
C1520 C1526 1.465 . S
C1521 C1516 1.399 . S
C1521 C1520 1.394 . S
C1521 C1522 1.516 . S
C1522 C1521 1.516 . S
C1522 C1523 1.502 . S
C1522 C1524 1.561 . S
C1522 C1525 1.526 . S
C1523 H1507 0.959 . S
C1523 H1508 0.959 . S
C1523 H1509 0.961 . S
C1523 C1522 1.502 . S
C1524 H1510 0.960 . S
C1524 H1511 0.961 . S
C1524 H1512 0.959 . S
C1524 C1522 1.561 . S
C1525 C1522 1.526 . S
C1525 C1526 1.396 . S
C1525 C1530 1.390 . S
C1526 C1520 1.465 . S
C1526 C1525 1.396 . S
C1526 C1527 1.399 . S
C1527 H1513 0.929 . S
C1527 C1526 1.399 . S
C1527 C1528 1.385 . S
C1528 H1514 0.931 . S
C1528 C1527 1.385 . S
C1528 C1529 1.389 . S
C1529 C1528 1.389 . S
C1529 C1530 1.387 . S
C1530 H1515 0.930 . S
C1530 C1525 1.390 . S
C1530 C1529 1.387 . S
H1531 C1543 0.930 . S
H1532 C1545 0.930 . S
H1533 C1546 0.930 . S
H1534 C1550 0.959 . S
H1535 C1550 0.959 . S
H1536 C1550 0.961 . S
H1537 C1551 0.960 . S
H1538 C1551 0.961 . S
H1539 C1551 0.959 . S
H1540 C1554 0.929 . S
H1541 C1555 0.931 . S
H1542 C1557 0.930 . S
C1543 H1531 0.930 . S
C1543 C1544 1.399 . S
C1543 C1548 1.399 . S
C1544 C1543 1.399 . S
C1544 C1545 1.376 . S
C1545 H1532 0.930 . S
C1545 C1544 1.376 . S
C1545 C1546 1.388 . S
C1546 H1533 0.930 . S
C1546 C1545 1.388 . S
C1546 C1547 1.390 . S
C1547 C1546 1.390 . S
C1547 C1548 1.394 . S
C1547 C1553 1.465 . S
C1548 C1543 1.399 . S
C1548 C1547 1.394 . S
C1548 C1549 1.516 . S
C1549 C1548 1.516 . S
C1549 C1550 1.502 . S
C1549 C1551 1.561 . S
C1549 C1552 1.526 . S
C1550 H1534 0.959 . S
C1550 H1535 0.959 . S
C1550 H1536 0.961 . S
C1550 C1549 1.502 . S
C1551 H1537 0.960 . S
C1551 H1538 0.961 . S
C1551 H1539 0.959 . S
C1551 C1549 1.561 . S
C1552 C1549 1.526 . S
C1552 C1553 1.396 . S
C1552 C1557 1.390 . S
C1553 C1547 1.465 . S
C1553 C1552 1.396 . S
C1553 C1554 1.399 . S
C1554 H1540 0.929 . S
C1554 C1553 1.399 . S
C1554 C1555 1.385 . S
C1555 H1541 0.931 . S
C1555 C1554 1.385 . S
C1555 C1556 1.389 . S
C1556 C1555 1.389 . S
C1556 C1557 1.387 . S
C1557 H1542 0.930 . S
C1557 C1552 1.390 . S
C1557 C1556 1.387 . S
H1558 C1570 0.930 . S
H1559 C1572 0.930 . S
H1560 C1573 0.930 . S
H1561 C1577 0.959 . S
H1562 C1577 0.959 . S
H1563 C1577 0.961 . S
H1564 C1578 0.960 . S
H1565 C1578 0.961 . S
H1566 C1578 0.959 . S
H1567 C1581 0.929 . S
H1568 C1582 0.931 . S
H1569 C1584 0.930 . S
C1570 H1558 0.930 . S
C1570 C1571 1.399 . S
C1570 C1575 1.399 . S
C1571 C1570 1.399 . S
C1571 C1572 1.376 . S
C1572 H1559 0.930 . S
C1572 C1571 1.376 . S
C1572 C1573 1.388 . S
C1573 H1560 0.930 . S
C1573 C1572 1.388 . S
C1573 C1574 1.390 . S
C1574 C1573 1.390 . S
C1574 C1575 1.394 . S
C1574 C1580 1.465 . S
C1575 C1570 1.399 . S
C1575 C1574 1.394 . S
C1575 C1576 1.516 . S
C1576 C1575 1.516 . S
C1576 C1577 1.502 . S
C1576 C1578 1.561 . S
C1576 C1579 1.526 . S
C1577 H1561 0.959 . S
C1577 H1562 0.959 . S
C1577 H1563 0.961 . S
C1577 C1576 1.502 . S
C1578 H1564 0.960 . S
C1578 H1565 0.961 . S
C1578 H1566 0.959 . S
C1578 C1576 1.561 . S
C1579 C1576 1.526 . S
C1579 C1580 1.396 . S
C1579 C1584 1.390 . S
C1580 C1574 1.465 . S
C1580 C1579 1.396 . S
C1580 C1581 1.399 . S
C1581 H1567 0.929 . S
C1581 C1580 1.399 . S
C1581 C1582 1.385 . S
C1582 H1568 0.931 . S
C1582 C1581 1.385 . S
C1582 C1583 1.389 . S
C1583 C1582 1.389 . S
C1583 C1584 1.387 . S
C1584 H1569 0.930 . S
C1584 C1579 1.390 . S
C1584 C1583 1.387 . S
H1585 C1597 0.930 . S
H1586 C1599 0.930 . S
H1587 C1600 0.930 . S
H1588 C1604 0.959 . S
H1589 C1604 0.959 . S
H1590 C1604 0.961 . S
H1591 C1605 0.960 . S
H1592 C1605 0.961 . S
H1593 C1605 0.959 . S
H1594 C1608 0.929 . S
H1595 C1609 0.931 . S
H1596 C1611 0.930 . S
C1597 H1585 0.930 . S
C1597 C1598 1.399 . S
C1597 C1602 1.399 . S
C1598 C1597 1.399 . S
C1598 C1599 1.376 . S
C1599 H1586 0.930 . S
C1599 C1598 1.376 . S
C1599 C1600 1.388 . S
C1600 H1587 0.930 . S
C1600 C1599 1.388 . S
C1600 C1601 1.390 . S
C1601 C1600 1.390 . S
C1601 C1602 1.394 . S
C1601 C1607 1.465 . S
C1602 C1597 1.399 . S
C1602 C1601 1.394 . S
C1602 C1603 1.516 . S
C1603 C1602 1.516 . S
C1603 C1604 1.502 . S
C1603 C1605 1.561 . S
C1603 C1606 1.526 . S
C1604 H1588 0.959 . S
C1604 H1589 0.959 . S
C1604 H1590 0.961 . S
C1604 C1603 1.502 . S
C1605 H1591 0.960 . S
C1605 H1592 0.961 . S
C1605 H1593 0.959 . S
C1605 C1603 1.561 . S
C1606 C1603 1.526 . S
C1606 C1607 1.396 . S
C1606 C1611 1.390 . S
C1607 C1601 1.465 . S
C1607 C1606 1.396 . S
C1607 C1608 1.399 . S
C1608 H1594 0.929 . S
C1608 C1607 1.399 . S
C1608 C1609 1.385 . S
C1609 H1595 0.931 . S
C1609 C1608 1.385 . S
C1609 C1610 1.389 . S
C1610 C1609 1.389 . S
C1610 C1611 1.387 . S
C1611 H1596 0.930 . S
C1611 C1606 1.390 . S
C1611 C1610 1.387 . S
H1612 C1624 0.930 . S
H1613 C1626 0.930 . S
H1614 C1627 0.930 . S
H1615 C1631 0.959 . S
H1616 C1631 0.959 . S
H1617 C1631 0.961 . S
H1618 C1632 0.960 . S
H1619 C1632 0.961 . S
H1620 C1632 0.959 . S
H1621 C1635 0.929 . S
H1622 C1636 0.931 . S
H1623 C1638 0.930 . S
C1624 H1612 0.930 . S
C1624 C1625 1.399 . S
C1624 C1629 1.399 . S
C1625 C1624 1.399 . S
C1625 C1626 1.376 . S
C1626 H1613 0.930 . S
C1626 C1625 1.376 . S
C1626 C1627 1.388 . S
C1627 H1614 0.930 . S
C1627 C1626 1.388 . S
C1627 C1628 1.390 . S
C1628 C1627 1.390 . S
C1628 C1629 1.394 . S
C1628 C1634 1.465 . S
C1629 C1624 1.399 . S
C1629 C1628 1.394 . S
C1629 C1630 1.516 . S
C1630 C1629 1.516 . S
C1630 C1631 1.502 . S
C1630 C1632 1.561 . S
C1630 C1633 1.526 . S
C1631 H1615 0.959 . S
C1631 H1616 0.959 . S
C1631 H1617 0.961 . S
C1631 C1630 1.502 . S
C1632 H1618 0.960 . S
C1632 H1619 0.961 . S
C1632 H1620 0.959 . S
C1632 C1630 1.561 . S
C1633 C1630 1.526 . S
C1633 C1634 1.396 . S
C1633 C1638 1.390 . S
C1634 C1628 1.465 . S
C1634 C1633 1.396 . S
C1634 C1635 1.399 . S
C1635 H1621 0.929 . S
C1635 C1634 1.399 . S
C1635 C1636 1.385 . S
C1636 H1622 0.931 . S
C1636 C1635 1.385 . S
C1636 C1637 1.389 . S
C1637 C1636 1.389 . S
C1637 C1638 1.387 . S
C1638 H1623 0.930 . S
C1638 C1633 1.390 . S
C1638 C1637 1.387 . S
H1639 C1651 0.930 . S
H1640 C1653 0.930 . S
H1641 C1654 0.930 . S
H1642 C1658 0.959 . S
H1643 C1658 0.959 . S
H1644 C1658 0.961 . S
H1645 C1659 0.960 . S
H1646 C1659 0.961 . S
H1647 C1659 0.959 . S
H1648 C1662 0.929 . S
H1649 C1663 0.931 . S
H1650 C1665 0.930 . S
C1651 H1639 0.930 . S
C1651 C1652 1.399 . S
C1651 C1656 1.399 . S
C1652 C1651 1.399 . S
C1652 C1653 1.376 . S
C1653 H1640 0.930 . S
C1653 C1652 1.376 . S
C1653 C1654 1.388 . S
C1654 H1641 0.930 . S
C1654 C1653 1.388 . S
C1654 C1655 1.390 . S
C1655 C1654 1.390 . S
C1655 C1656 1.394 . S
C1655 C1661 1.465 . S
C1656 C1651 1.399 . S
C1656 C1655 1.394 . S
C1656 C1657 1.516 . S
C1657 C1656 1.516 . S
C1657 C1658 1.502 . S
C1657 C1659 1.561 . S
C1657 C1660 1.526 . S
C1658 H1642 0.959 . S
C1658 H1643 0.959 . S
C1658 H1644 0.961 . S
C1658 C1657 1.502 . S
C1659 H1645 0.960 . S
C1659 H1646 0.961 . S
C1659 H1647 0.959 . S
C1659 C1657 1.561 . S
C1660 C1657 1.526 . S
C1660 C1661 1.396 . S
C1660 C1665 1.390 . S
C1661 C1655 1.465 . S
C1661 C1660 1.396 . S
C1661 C1662 1.399 . S
C1662 H1648 0.929 . S
C1662 C1661 1.399 . S
C1662 C1663 1.385 . S
C1663 H1649 0.931 . S
C1663 C1662 1.385 . S
C1663 C1664 1.389 . S
C1664 C1663 1.389 . S
C1664 C1665 1.387 . S
C1665 H1650 0.930 . S
C1665 C1660 1.390 . S
C1665 C1664 1.387 . S
H1666 C1678 0.930 . S
H1667 C1680 0.930 . S
H1668 C1681 0.930 . S
H1669 C1685 0.959 . S
H1670 C1685 0.959 . S
H1671 C1685 0.961 . S
H1672 C1686 0.960 . S
H1673 C1686 0.961 . S
H1674 C1686 0.959 . S
H1675 C1689 0.929 . S
H1676 C1690 0.931 . S
H1677 C1692 0.930 . S
C1678 H1666 0.930 . S
C1678 C1679 1.399 . S
C1678 C1683 1.399 . S
C1679 C1678 1.399 . S
C1679 C1680 1.376 . S
C1680 H1667 0.930 . S
C1680 C1679 1.376 . S
C1680 C1681 1.388 . S
C1681 H1668 0.930 . S
C1681 C1680 1.388 . S
C1681 C1682 1.390 . S
C1682 C1681 1.390 . S
C1682 C1683 1.394 . S
C1682 C1688 1.465 . S
C1683 C1678 1.399 . S
C1683 C1682 1.394 . S
C1683 C1684 1.516 . S
C1684 C1683 1.516 . S
C1684 C1685 1.502 . S
C1684 C1686 1.561 . S
C1684 C1687 1.526 . S
C1685 H1669 0.959 . S
C1685 H1670 0.959 . S
C1685 H1671 0.961 . S
C1685 C1684 1.502 . S
C1686 H1672 0.960 . S
C1686 H1673 0.961 . S
C1686 H1674 0.959 . S
C1686 C1684 1.561 . S
C1687 C1684 1.526 . S
C1687 C1688 1.396 . S
C1687 C1692 1.390 . S
C1688 C1682 1.465 . S
C1688 C1687 1.396 . S
C1688 C1689 1.399 . S
C1689 H1675 0.929 . S
C1689 C1688 1.399 . S
C1689 C1690 1.385 . S
C1690 H1676 0.931 . S
C1690 C1689 1.385 . S
C1690 C1691 1.389 . S
C1691 C1690 1.389 . S
C1691 C1692 1.387 . S
C1692 H1677 0.930 . S
C1692 C1687 1.390 . S
C1692 C1691 1.387 . S
H1693 C1705 0.930 . S
H1694 C1707 0.930 . S
H1695 C1708 0.930 . S
H1696 C1712 0.959 . S
H1697 C1712 0.959 . S
H1698 C1712 0.961 . S
H1699 C1713 0.960 . S
H1700 C1713 0.961 . S
H1701 C1713 0.959 . S
H1702 C1716 0.929 . S
H1703 C1717 0.931 . S
H1704 C1719 0.930 . S
C1705 H1693 0.930 . S
C1705 C1706 1.399 . S
C1705 C1710 1.399 . S
C1706 C1705 1.399 . S
C1706 C1707 1.376 . S
C1707 H1694 0.930 . S
C1707 C1706 1.376 . S
C1707 C1708 1.388 . S
C1708 H1695 0.930 . S
C1708 C1707 1.388 . S
C1708 C1709 1.390 . S
C1709 C1708 1.390 . S
C1709 C1710 1.394 . S
C1709 C1715 1.465 . S
C1710 C1705 1.399 . S
C1710 C1709 1.394 . S
C1710 C1711 1.516 . S
C1711 C1710 1.516 . S
C1711 C1712 1.502 . S
C1711 C1713 1.561 . S
C1711 C1714 1.526 . S
C1712 H1696 0.959 . S
C1712 H1697 0.959 . S
C1712 H1698 0.961 . S
C1712 C1711 1.502 . S
C1713 H1699 0.960 . S
C1713 H1700 0.961 . S
C1713 H1701 0.959 . S
C1713 C1711 1.561 . S
C1714 C1711 1.526 . S
C1714 C1715 1.396 . S
C1714 C1719 1.390 . S
C1715 C1709 1.465 . S
C1715 C1714 1.396 . S
C1715 C1716 1.399 . S
C1716 H1702 0.929 . S
C1716 C1715 1.399 . S
C1716 C1717 1.385 . S
C1717 H1703 0.931 . S
C1717 C1716 1.385 . S
C1717 C1718 1.389 . S
C1718 C1717 1.389 . S
C1718 C1719 1.387 . S
C1719 H1704 0.930 . S
C1719 C1714 1.390 . S
C1719 C1718 1.387 . S
H1720 C1732 0.930 . S
H1721 C1734 0.930 . S
H1722 C1735 0.930 . S
H1723 C1739 0.959 . S
H1724 C1739 0.959 . S
H1725 C1739 0.961 . S
H1726 C1740 0.960 . S
H1727 C1740 0.961 . S
H1728 C1740 0.959 . S
H1729 C1743 0.929 . S
H1730 C1744 0.931 . S
H1731 C1746 0.930 . S
C1732 H1720 0.930 . S
C1732 C1733 1.399 . S
C1732 C1737 1.399 . S
C1733 C1732 1.399 . S
C1733 C1734 1.376 . S
C1734 H1721 0.930 . S
C1734 C1733 1.376 . S
C1734 C1735 1.388 . S
C1735 H1722 0.930 . S
C1735 C1734 1.388 . S
C1735 C1736 1.390 . S
C1736 C1735 1.390 . S
C1736 C1737 1.394 . S
C1736 C1742 1.465 . S
C1737 C1732 1.399 . S
C1737 C1736 1.394 . S
C1737 C1738 1.516 . S
C1738 C1737 1.516 . S
C1738 C1739 1.502 . S
C1738 C1740 1.561 . S
C1738 C1741 1.526 . S
C1739 H1723 0.959 . S
C1739 H1724 0.959 . S
C1739 H1725 0.961 . S
C1739 C1738 1.502 . S
C1740 H1726 0.960 . S
C1740 H1727 0.961 . S
C1740 H1728 0.959 . S
C1740 C1738 1.561 . S
C1741 C1738 1.526 . S
C1741 C1742 1.396 . S
C1741 C1746 1.390 . S
C1742 C1736 1.465 . S
C1742 C1741 1.396 . S
C1742 C1743 1.399 . S
C1743 H1729 0.929 . S
C1743 C1742 1.399 . S
C1743 C1744 1.385 . S
C1744 H1730 0.931 . S
C1744 C1743 1.385 . S
C1744 C1745 1.389 . S
C1745 C1744 1.389 . S
C1745 C1746 1.387 . S
C1746 H1731 0.930 . S
C1746 C1741 1.390 . S
C1746 C1745 1.387 . S
H1747 C1759 0.930 . S
H1748 C1761 0.930 . S
H1749 C1762 0.930 . S
H1750 C1766 0.959 . S
H1751 C1766 0.959 . S
H1752 C1766 0.961 . S
H1753 C1767 0.960 . S
H1754 C1767 0.961 . S
H1755 C1767 0.959 . S
H1756 C1770 0.929 . S
H1757 C1771 0.931 . S
H1758 C1773 0.930 . S
C1759 H1747 0.930 . S
C1759 C1760 1.399 . S
C1759 C1764 1.399 . S
C1760 C1759 1.399 . S
C1760 C1761 1.376 . S
C1761 H1748 0.930 . S
C1761 C1760 1.376 . S
C1761 C1762 1.388 . S
C1762 H1749 0.930 . S
C1762 C1761 1.388 . S
C1762 C1763 1.390 . S
C1763 C1762 1.390 . S
C1763 C1764 1.394 . S
C1763 C1769 1.465 . S
C1764 C1759 1.399 . S
C1764 C1763 1.394 . S
C1764 C1765 1.516 . S
C1765 C1764 1.516 . S
C1765 C1766 1.502 . S
C1765 C1767 1.561 . S
C1765 C1768 1.526 . S
C1766 H1750 0.959 . S
C1766 H1751 0.959 . S
C1766 H1752 0.961 . S
C1766 C1765 1.502 . S
C1767 H1753 0.960 . S
C1767 H1754 0.961 . S
C1767 H1755 0.959 . S
C1767 C1765 1.561 . S
C1768 C1765 1.526 . S
C1768 C1769 1.396 . S
C1768 C1773 1.390 . S
C1769 C1763 1.465 . S
C1769 C1768 1.396 . S
C1769 C1770 1.399 . S
C1770 H1756 0.929 . S
C1770 C1769 1.399 . S
C1770 C1771 1.385 . S
C1771 H1757 0.931 . S
C1771 C1770 1.385 . S
C1771 C1772 1.389 . S
C1772 C1771 1.389 . S
C1772 C1773 1.387 . S
C1773 H1758 0.930 . S
C1773 C1768 1.390 . S
C1773 C1772 1.387 . S
H1774 C1786 0.930 . S
H1775 C1788 0.930 . S
H1776 C1789 0.930 . S
H1777 C1793 0.959 . S
H1778 C1793 0.959 . S
H1779 C1793 0.961 . S
H1780 C1794 0.960 . S
H1781 C1794 0.961 . S
H1782 C1794 0.959 . S
H1783 C1797 0.929 . S
H1784 C1798 0.931 . S
H1785 C1800 0.930 . S
C1786 H1774 0.930 . S
C1786 C1787 1.399 . S
C1786 C1791 1.399 . S
C1787 C1786 1.399 . S
C1787 C1788 1.376 . S
C1788 H1775 0.930 . S
C1788 C1787 1.376 . S
C1788 C1789 1.388 . S
C1789 H1776 0.930 . S
C1789 C1788 1.388 . S
C1789 C1790 1.390 . S
C1790 C1789 1.390 . S
C1790 C1791 1.394 . S
C1790 C1796 1.465 . S
C1791 C1786 1.399 . S
C1791 C1790 1.394 . S
C1791 C1792 1.516 . S
C1792 C1791 1.516 . S
C1792 C1793 1.502 . S
C1792 C1794 1.561 . S
C1792 C1795 1.526 . S
C1793 H1777 0.959 . S
C1793 H1778 0.959 . S
C1793 H1779 0.961 . S
C1793 C1792 1.502 . S
C1794 H1780 0.960 . S
C1794 H1781 0.961 . S
C1794 H1782 0.959 . S
C1794 C1792 1.561 . S
C1795 C1792 1.526 . S
C1795 C1796 1.396 . S
C1795 C1800 1.390 . S
C1796 C1790 1.465 . S
C1796 C1795 1.396 . S
C1796 C1797 1.399 . S
C1797 H1783 0.929 . S
C1797 C1796 1.399 . S
C1797 C1798 1.385 . S
C1798 H1784 0.931 . S
C1798 C1797 1.385 . S
C1798 C1799 1.389 . S
C1799 C1798 1.389 . S
C1799 C1800 1.387 . S
C1800 H1785 0.930 . S
C1800 C1795 1.390 . S
C1800 C1799 1.387 . S
H1801 C1813 0.930 . S
H1802 C1815 0.930 . S
H1803 C1816 0.930 . S
H1804 C1820 0.959 . S
H1805 C1820 0.959 . S
H1806 C1820 0.961 . S
H1807 C1821 0.960 . S
H1808 C1821 0.961 . S
H1809 C1821 0.959 . S
H1810 C1824 0.929 . S
H1811 C1825 0.931 . S
H1812 C1827 0.930 . S
C1813 H1801 0.930 . S
C1813 C1814 1.399 . S
C1813 C1818 1.399 . S
C1814 C1813 1.399 . S
C1814 C1815 1.376 . S
C1815 H1802 0.930 . S
C1815 C1814 1.376 . S
C1815 C1816 1.388 . S
C1816 H1803 0.930 . S
C1816 C1815 1.388 . S
C1816 C1817 1.390 . S
C1817 C1816 1.390 . S
C1817 C1818 1.394 . S
C1817 C1823 1.465 . S
C1818 C1813 1.399 . S
C1818 C1817 1.394 . S
C1818 C1819 1.516 . S
C1819 C1818 1.516 . S
C1819 C1820 1.502 . S
C1819 C1821 1.561 . S
C1819 C1822 1.526 . S
C1820 H1804 0.959 . S
C1820 H1805 0.959 . S
C1820 H1806 0.961 . S
C1820 C1819 1.502 . S
C1821 H1807 0.960 . S
C1821 H1808 0.961 . S
C1821 H1809 0.959 . S
C1821 C1819 1.561 . S
C1822 C1819 1.526 . S
C1822 C1823 1.396 . S
C1822 C1827 1.390 . S
C1823 C1817 1.465 . S
C1823 C1822 1.396 . S
C1823 C1824 1.399 . S
C1824 H1810 0.929 . S
C1824 C1823 1.399 . S
C1824 C1825 1.385 . S
C1825 H1811 0.931 . S
C1825 C1824 1.385 . S
C1825 C1826 1.389 . S
C1826 C1825 1.389 . S
C1826 C1827 1.387 . S
C1827 H1812 0.930 . S
C1827 C1822 1.390 . S
C1827 C1826 1.387 . S
H1828 C1840 0.930 . S
H1829 C1842 0.930 . S
H1830 C1843 0.930 . S
H1831 C1847 0.959 . S
H1832 C1847 0.959 . S
H1833 C1847 0.961 . S
H1834 C1848 0.960 . S
H1835 C1848 0.961 . S
H1836 C1848 0.959 . S
H1837 C1851 0.929 . S
H1838 C1852 0.931 . S
H1839 C1854 0.930 . S
C1840 H1828 0.930 . S
C1840 C1841 1.399 . S
C1840 C1845 1.399 . S
C1841 C1840 1.399 . S
C1841 C1842 1.376 . S
C1842 H1829 0.930 . S
C1842 C1841 1.376 . S
C1842 C1843 1.388 . S
C1843 H1830 0.930 . S
C1843 C1842 1.388 . S
C1843 C1844 1.390 . S
C1844 C1843 1.390 . S
C1844 C1845 1.394 . S
C1844 C1850 1.465 . S
C1845 C1840 1.399 . S
C1845 C1844 1.394 . S
C1845 C1846 1.516 . S
C1846 C1845 1.516 . S
C1846 C1847 1.502 . S
C1846 C1848 1.561 . S
C1846 C1849 1.526 . S
C1847 H1831 0.959 . S
C1847 H1832 0.959 . S
C1847 H1833 0.961 . S
C1847 C1846 1.502 . S
C1848 H1834 0.960 . S
C1848 H1835 0.961 . S
C1848 H1836 0.959 . S
C1848 C1846 1.561 . S
C1849 C1846 1.526 . S
C1849 C1850 1.396 . S
C1849 C1854 1.390 . S
C1850 C1844 1.465 . S
C1850 C1849 1.396 . S
C1850 C1851 1.399 . S
C1851 H1837 0.929 . S
C1851 C1850 1.399 . S
C1851 C1852 1.385 . S
C1852 H1838 0.931 . S
C1852 C1851 1.385 . S
C1852 C1853 1.389 . S
C1853 C1852 1.389 . S
C1853 C1854 1.387 . S
C1854 H1839 0.930 . S
C1854 C1849 1.390 . S
C1854 C1853 1.387 . S
H1855 C1867 0.930 . S
H1856 C1869 0.930 . S
H1857 C1870 0.930 . S
H1858 C1874 0.959 . S
H1859 C1874 0.959 . S
H1860 C1874 0.961 . S
H1861 C1875 0.960 . S
H1862 C1875 0.961 . S
H1863 C1875 0.959 . S
H1864 C1878 0.929 . S
H1865 C1879 0.931 . S
H1866 C1881 0.930 . S
C1867 H1855 0.930 . S
C1867 C1868 1.399 . S
C1867 C1872 1.399 . S
C1868 C1867 1.399 . S
C1868 C1869 1.376 . S
C1869 H1856 0.930 . S
C1869 C1868 1.376 . S
C1869 C1870 1.388 . S
C1870 H1857 0.930 . S
C1870 C1869 1.388 . S
C1870 C1871 1.390 . S
C1871 C1870 1.390 . S
C1871 C1872 1.394 . S
C1871 C1877 1.465 . S
C1872 C1867 1.399 . S
C1872 C1871 1.394 . S
C1872 C1873 1.516 . S
C1873 C1872 1.516 . S
C1873 C1874 1.502 . S
C1873 C1875 1.561 . S
C1873 C1876 1.526 . S
C1874 H1858 0.959 . S
C1874 H1859 0.959 . S
C1874 H1860 0.961 . S
C1874 C1873 1.502 . S
C1875 H1861 0.960 . S
C1875 H1862 0.961 . S
C1875 H1863 0.959 . S
C1875 C1873 1.561 . S
C1876 C1873 1.526 . S
C1876 C1877 1.396 . S
C1876 C1881 1.390 . S
C1877 C1871 1.465 . S
C1877 C1876 1.396 . S
C1877 C1878 1.399 . S
C1878 H1864 0.929 . S
C1878 C1877 1.399 . S
C1878 C1879 1.385 . S
C1879 H1865 0.931 . S
C1879 C1878 1.385 . S
C1879 C1880 1.389 . S
C1880 C1879 1.389 . S
C1880 C1881 1.387 . S
C1881 H1866 0.930 . S
C1881 C1876 1.390 . S
C1881 C1880 1.387 . S
H1882 C1894 0.930 . S
H1883 C1896 0.930 . S
H1884 C1897 0.930 . S
H1885 C1901 0.959 . S
H1886 C1901 0.959 . S
H1887 C1901 0.961 . S
H1888 C1902 0.960 . S
H1889 C1902 0.961 . S
H1890 C1902 0.959 . S
H1891 C1905 0.929 . S
H1892 C1906 0.931 . S
H1893 C1908 0.930 . S
C1894 H1882 0.930 . S
C1894 C1895 1.399 . S
C1894 C1899 1.399 . S
C1895 C1894 1.399 . S
C1895 C1896 1.376 . S
C1896 H1883 0.930 . S
C1896 C1895 1.376 . S
C1896 C1897 1.388 . S
C1897 H1884 0.930 . S
C1897 C1896 1.388 . S
C1897 C1898 1.390 . S
C1898 C1897 1.390 . S
C1898 C1899 1.394 . S
C1898 C1904 1.465 . S
C1899 C1894 1.399 . S
C1899 C1898 1.394 . S
C1899 C1900 1.516 . S
C1900 C1899 1.516 . S
C1900 C1901 1.502 . S
C1900 C1902 1.561 . S
C1900 C1903 1.526 . S
C1901 H1885 0.959 . S
C1901 H1886 0.959 . S
C1901 H1887 0.961 . S
C1901 C1900 1.502 . S
C1902 H1888 0.960 . S
C1902 H1889 0.961 . S
C1902 H1890 0.959 . S
C1902 C1900 1.561 . S
C1903 C1900 1.526 . S
C1903 C1904 1.396 . S
C1903 C1908 1.390 . S
C1904 C1898 1.465 . S
C1904 C1903 1.396 . S
C1904 C1905 1.399 . S
C1905 H1891 0.929 . S
C1905 C1904 1.399 . S
C1905 C1906 1.385 . S
C1906 H1892 0.931 . S
C1906 C1905 1.385 . S
C1906 C1907 1.389 . S
C1907 C1906 1.389 . S
C1907 C1908 1.387 . S
C1908 H1893 0.930 . S
C1908 C1903 1.390 . S
C1908 C1907 1.387 . S
H1909 C1921 0.930 . S
H1910 C1923 0.930 . S
H1911 C1924 0.930 . S
H1912 C1928 0.959 . S
H1913 C1928 0.959 . S
H1914 C1928 0.961 . S
H1915 C1929 0.960 . S
H1916 C1929 0.961 . S
H1917 C1929 0.959 . S
H1918 C1932 0.929 . S
H1919 C1933 0.931 . S
H1920 C1935 0.930 . S
C1921 H1909 0.930 . S
C1921 C1922 1.399 . S
C1921 C1926 1.399 . S
C1922 C1921 1.399 . S
C1922 C1923 1.376 . S
C1923 H1910 0.930 . S
C1923 C1922 1.376 . S
C1923 C1924 1.388 . S
C1924 H1911 0.930 . S
C1924 C1923 1.388 . S
C1924 C1925 1.390 . S
C1925 C1924 1.390 . S
C1925 C1926 1.394 . S
C1925 C1931 1.465 . S
C1926 C1921 1.399 . S
C1926 C1925 1.394 . S
C1926 C1927 1.516 . S
C1927 C1926 1.516 . S
C1927 C1928 1.502 . S
C1927 C1929 1.561 . S
C1927 C1930 1.526 . S
C1928 H1912 0.959 . S
C1928 H1913 0.959 . S
C1928 H1914 0.961 . S
C1928 C1927 1.502 . S
C1929 H1915 0.960 . S
C1929 H1916 0.961 . S
C1929 H1917 0.959 . S
C1929 C1927 1.561 . S
C1930 C1927 1.526 . S
C1930 C1931 1.396 . S
C1930 C1935 1.390 . S
C1931 C1925 1.465 . S
C1931 C1930 1.396 . S
C1931 C1932 1.399 . S
C1932 H1918 0.929 . S
C1932 C1931 1.399 . S
C1932 C1933 1.385 . S
C1933 H1919 0.931 . S
C1933 C1932 1.385 . S
C1933 C1934 1.389 . S
C1934 C1933 1.389 . S
C1934 C1935 1.387 . S
C1935 H1920 0.930 . S
C1935 C1930 1.390 . S
C1935 C1934 1.387 . S
C653 C26 1.665 . S
C665 C306 1.684 . S
C680 C66 1.667 . S
C692 C186 1.714 . S
C707 C226 1.681 . S
C719 C106 1.717 . S
C734 C146 1.706 . S
C746 C266 1.705 . S
C761 C453 4.171 . S
C773 C173 4.177 1_554 S
C788 C333 4.193 . S
C800 C13 4.188 1_556 S
C815 C413 4.190 . S
C827 C253 4.194 . S
C842 C93 4.174 . S
C854 C373 4.182 . S
C869 C386 1.717 . S
C881 C506 1.671 . S
C896 C426 1.694 . S
C908 C586 1.661 . S
C923 C546 1.670 . S
C935 C346 1.715 . S
C950 C466 1.661 . S
C962 C626 1.704 . S
C977 C573 4.188 . S
C989 C133 4.181 . S
C1004 C493 4.187 . S
C1016 C213 4.180 . S
C1031 C53 4.180 . S
C1043 C613 4.174 1_554 S
C1058 C293 4.188 . S
C1070 C533 4.182 1_556 S
C1085 C522 0.905 . S
C1097 C2 0.876 . S
C1112 C442 0.778 . S
C1124 C42 0.790 . S
C1139 C482 0.797 . S
C1151 C82 0.832 . S
C1166 C402 0.917 . S
C1178 C122 0.905 . S
C1193 C162 0.912 . S
C1205 C602 0.888 . S
C1220 C362 0.916 . S
C1232 C202 0.900 . S
C1247 C242 0.914 . S
C1259 C562 0.894 . S
C1274 C282 0.779 . S
C1286 C322 0.796 . S
C1301 C23 1.369 . S
C1313 C183 1.320 . S
C1328 C63 1.346 . S
C1340 C223 1.287 . S
C1355 C263 1.283 . S
C1367 C103 1.353 . S
C1382 C143 1.314 . S
C1394 C303 1.370 . S
C1409 C423 1.308 . S
C1421 C343 1.373 . S
C1436 C463 1.336 . S
C1448 C383 1.292 . S
C1463 C503 1.289 . S
C1475 C583 1.342 . S
C1490 C623 1.375 . S
C1502 C543 1.304 . S
C1517 C24 4.587 . S
C1529 C304 4.588 . S
C1544 C64 4.575 . S
C1556 C184 4.576 . S
C1571 C224 4.590 1_556 S
C1583 C104 4.590 . S
C1598 C264 4.575 . S
C1610 C144 4.576 1_554 S
C1625 C457 0.881 . S
C1637 C177 0.742 . S
C1652 C337 0.771 . S
C1664 C17 0.914 . S
C1679 C417 0.802 . S
C1691 C257 0.767 . S
C1706 C97 0.771 . S
C1718 C377 0.797 . S
C1733 C504 4.586 . S
C1745 C384 4.586 1_556 S
C1760 C584 4.582 . S
C1772 C424 4.582 1_554 S
C1787 C544 4.589 . S
C1799 C344 4.590 . S
C1814 C624 4.578 . S
C1826 C464 4.578 . S
C1841 C577 0.907 . S
C1853 C137 0.857 . S
C1868 C217 0.921 . S
C1880 C497 0.790 . S
C1895 C57 0.749 . S
C1907 C617 0.896 . S
C1922 C537 0.761 . S
C1934 C297 0.810 . S
