# Generated by pormake.
# Topology wni, (7)-cn, num edge types: 1
# Building blocks:
#     Node 0, Type 0, BuildingBlock: HICVOG_clean_sbu_0, # of connection points: 7
#     Node 1, Type 0, BuildingBlock: HICVOG_clean_sbu_0, # of connection points: 7
#     Node 2, Type 0, BuildingBlock: HICVOG_clean_sbu_0, # of connection points: 7
#     Node 3, Type 0, BuildingBlock: HICVOG_clean_sbu_0, # of connection points: 7
#     Node 4, Type 0, BuildingBlock: HICVOG_clean_sbu_0, # of connection points: 7
#     Node 5, Type 0, BuildingBlock: HICVOG_clean_sbu_0, # of connection points: 7
#     Edge 6, Type (0, 0), BuildingBlock: XUDNAN_clean_linker_2, # of connection points: 2
#     Edge 7, Type (0, 0), BuildingBlock: XUDNAN_clean_linker_2, # of connection points: 2
#     Edge 8, Type (0, 0), BuildingBlock: XUDNAN_clean_linker_2, # of connection points: 2
#     Edge 9, Type (0, 0), BuildingBlock: XUDNAN_clean_linker_2, # of connection points: 2
#     Edge 10, Type (0, 0), BuildingBlock: XUDNAN_clean_linker_2, # of connection points: 2
#     Edge 11, Type (0, 0), BuildingBlock: XUDNAN_clean_linker_2, # of connection points: 2
#     Edge 12, Type (0, 0), BuildingBlock: XUDNAN_clean_linker_2, # of connection points: 2
#     Edge 13, Type (0, 0), BuildingBlock: XUDNAN_clean_linker_2, # of connection points: 2
#     Edge 14, Type (0, 0), BuildingBlock: XUDNAN_clean_linker_2, # of connection points: 2
#     Edge 15, Type (0, 0), BuildingBlock: XUDNAN_clean_linker_2, # of connection points: 2
#     Edge 16, Type (0, 0), BuildingBlock: XUDNAN_clean_linker_2, # of connection points: 2
#     Edge 17, Type (0, 0), BuildingBlock: XUDNAN_clean_linker_2, # of connection points: 2
#     Edge 18, Type (0, 0), BuildingBlock: XUDNAN_clean_linker_2, # of connection points: 2
#     Edge 19, Type (0, 0), BuildingBlock: XUDNAN_clean_linker_2, # of connection points: 2
#     Edge 20, Type (0, 0), BuildingBlock: XUDNAN_clean_linker_2, # of connection points: 2
#     Edge 21, Type (0, 0), BuildingBlock: XUDNAN_clean_linker_2, # of connection points: 2
#     Edge 22, Type (0, 0), BuildingBlock: XUDNAN_clean_linker_2, # of connection points: 2
#     Edge 23, Type (0, 0), BuildingBlock: XUDNAN_clean_linker_2, # of connection points: 2
#     Edge 24, Type (0, 0), BuildingBlock: XUDNAN_clean_linker_2, # of connection points: 2
#     Edge 25, Type (0, 0), BuildingBlock: XUDNAN_clean_linker_2, # of connection points: 2
#     Edge 26, Type (0, 0), BuildingBlock: XUDNAN_clean_linker_2, # of connection points: 2
# Relax obj value: 0.265
# Max RMSD: 0.178
# Mean RMSD: 0.178
data_MOF--net-wni--node1-HICVOG_clean_sbu_0--edge1-XUDNAN_clean_linker_2
_symmetry_space_group_name_H-M    P1
_symmetry_Int_Tables_number       1
_symmetry_cell_setting            triclinic
loop_
_symmetry_equiv_pos_as_xyz
'x, y, z'
_cell_length_a     26.785539
_cell_length_b     26.793537
_cell_length_c     31.747274
_cell_angle_alpha  89.616348
_cell_angle_beta   90.637679
_cell_angle_gamma 120.15982
loop_
_atom_site_label
_atom_site_type_symbol
_atom_site_fract_x
_atom_site_fract_y
_atom_site_fract_z
_atom_type_partial_charge
Zn0 Zn 0.09612 0.4827 0.16184 0.0
C1 C 1.05569 0.46367 1.03551 0.0
N2 N 1.01129 0.47047 0.04745 0.0
C3 C 1.01575 0.4754 0.09005 0.0
N4 N 1.06304 0.47214 0.10382 0.0
N5 N 0.08736 0.46436 0.06985 0.0
C6 C 0.22649 0.4167 0.04738 0.0
O7 O 0.26794 0.46994 0.05458 0.0
O8 O 0.08899 0.54699 0.18602 0.0
Zn9 Zn 0.16672 0.47666 0.06692 0.0
N10 N 1.0495 0.41199 0.19237 0.0
C11 C 0.96707 0.31848 0.19976 0.0
C12 C 0.99738 0.37016 0.17754 0.0
C13 C 1.07284 0.40412 0.22816 0.0
N14 N 0.99025 0.31074 0.23576 0.0
C15 C 1.04255 0.35228 0.25086 0.0
O16 O 0.22463 0.50919 0.11772 0.0
C17 C 0.22906 0.51774 0.15744 0.0
O18 O 0.18405 0.5081 0.17768 0.0
H19 H 0.97978 0.37658 0.14856 0.0
H20 H 0.11525 0.43776 0.23798 0.0
C21 C 0.21864 0.52318 0.98918 0.0
C22 C 0.24833 0.56686 0.95984 0.0
C23 C 0.22691 0.62878 0.99868 0.0
C24 C 0.2006 0.58605 1.02946 0.0
N25 N 0.19863 0.53474 1.0244 0.0
N26 N 0.25243 0.61913 0.9654 0.0
H27 H 0.21599 0.48183 0.98587 0.0
C28 C 0.0962 0.58911 0.16292 0.0
O29 O 0.10349 0.58711 0.12227 0.0
O30 O 0.17409 0.40558 0.04926 0.0
H31 H 0.18263 0.59381 0.05732 0.0
H32 H 0.92553 0.28468 0.18844 0.0
H33 H 0.22965 0.67019 1.00233 0.0
Zn34 Zn 0.67472 0.74381 0.73312 0.0
C35 C 0.65285 0.58194 0.75682 0.0
N36 N 0.65478 0.58012 0.71426 0.0
C37 C 0.66711 0.63305 0.70107 0.0
N38 N 0.67209 0.66727 0.73461 0.0
N39 N 0.66301 0.6355 0.76929 0.0
C40 C 0.57108 0.57108 0.84854 0.0
O41 O 0.56082 0.57814 0.80908 0.0
O42 O 0.75482 0.81896 0.72576 0.0
Zn43 Zn 0.6713 0.67005 0.82586 0.0
N44 N 0.63237 0.73566 0.6826 0.0
C45 C 0.54975 0.67849 0.63985 0.0
C46 C 0.5775 0.69063 0.67896 0.0
C47 C 0.66054 0.76951 0.64919 0.0
N48 N 0.57792 0.71238 0.60633 0.0
C49 C 0.63282 0.75778 0.60989 0.0
O50 O 0.64548 0.73202 0.84023 0.0
C51 C 0.62988 0.76344 0.81986 0.0
O52 O 0.63386 0.76591 0.77968 0.0
H53 H 0.55659 0.66316 0.70581 0.0
H54 H 0.70476 0.80389 0.65299 0.0
C55 C 0.76951 0.72294 0.87994 0.0
C56 C 0.82766 0.74529 0.89138 0.0
C57 C 0.84733 0.72582 0.82285 0.0
C58 C 0.78951 0.70375 0.81157 0.0
N59 N 0.75166 0.70222 0.84053 0.0
N60 N 0.86505 0.74556 0.86262 0.0
H61 H 0.73816 0.7204 0.90238 0.0
C62 C 0.78137 0.85364 0.75623 0.0
O63 O 0.7633 0.83651 0.79478 0.0
O64 O 0.6203 0.60556 0.86448 0.0
H65 H 0.77509 0.68765 0.78005 0.0
H66 H 0.5064 0.64232 0.63606 0.0
H67 H 0.87777 0.72678 0.80028 0.0
Zn68 Zn 0.48997 1.03331 0.49249 0.0
C69 C 0.51065 0.0691 0.36685 0.0
N70 N 0.56411 0.11029 0.37885 0.0
C71 C 0.56541 0.10606 0.42128 0.0
N72 N 0.51243 0.06295 0.43499 0.0
N73 N 0.47869 1.03905 0.4012 0.0
C74 C 0.29654 0.94815 0.4082 0.0
O75 O 0.31674 0.96732 0.44619 0.0
O76 O 0.55624 1.02209 0.50808 0.0
Zn77 Zn 0.41151 0.9576 0.39979 0.0
N78 N 0.48291 0.09215 0.52259 0.0
C79 C 0.49357 0.18583 0.52698 0.0
C80 C 0.50449 0.14641 0.50664 0.0
C81 C 0.4484 0.07505 0.55686 0.0
N82 N 0.45931 0.16875 0.56141 0.0
C83 C 0.43544 0.1139 0.57647 0.0
O84 O 0.38445 0.89861 0.45117 0.0
C85 C 0.38396 0.90315 0.49121 0.0
O86 O 0.41625 0.95244 0.50839 0.0
H87 H 0.52937 0.15907 0.4781 0.0
H88 H 0.43092 1.03135 0.56834 0.0
C89 C 0.40135 0.8998 0.32521 0.0
C90 C 0.41979 0.88323 0.28987 0.0
C91 C 0.51342 0.92382 0.31901 0.0
C92 C 0.49482 0.94038 0.35451 0.0
N93 N 0.43875 0.92737 0.35692 0.0
N94 N 0.47521 0.89492 0.28739 0.0
H95 H 0.35726 0.89069 0.32757 0.0
C96 C 0.55429 0.98666 0.4806 0.0
O97 O 0.5092 0.96165 0.45543 0.0
O98 O 0.33063 0.94621 0.38113 0.0
H99 H 0.5256 0.96579 0.37869 0.0
H100 H 0.51128 0.22935 0.51506 0.0
H101 H 0.55787 0.9342 0.31653 0.0
Zn102 Zn 0.51466 0.16243 1.01727 0.0
C103 C 0.52661 1.0165 0.99397 0.0
N104 N 0.52634 1.01147 1.03653 0.0
C105 C 0.51673 1.05388 0.05063 0.0
N106 N 0.51254 0.08515 1.01767 0.0
N107 N 0.51763 0.06097 0.98287 0.0
C108 C 0.61293 0.09471 0.91416 0.0
O109 O 0.61969 0.12909 0.94574 0.0
O110 O 0.43581 0.16172 1.01544 0.0
Zn111 Zn 0.51158 0.08737 0.92663 0.0
N112 N 0.54693 0.19164 0.07172 0.0
C113 C 0.61844 0.21696 0.12524 0.0
C114 C 0.60044 0.20249 0.08338 0.0
C115 C 0.51067 0.19375 0.10004 0.0
N116 N 0.58278 0.22158 0.15313 0.0
C117 C 0.52918 0.2106 0.14131 0.0
O118 O 0.53688 0.1736 0.91428 0.0
C119 C 0.55727 0.22363 0.93078 0.0
O120 O 0.56246 0.2282 0.97096 0.0
H121 H 0.62793 0.19822 0.06073 0.0
H122 H 0.46733 0.1821 0.0907 0.0
C123 C 0.41575 1.05373 0.87253 0.0
C124 C 0.35719 1.02544 0.86075 0.0
C125 C 0.333 0.97537 0.92588 0.0
C126 C 0.39117 1.00444 0.93771 0.0
N127 N 0.43138 1.0425 0.91049 0.0
N128 N 0.3173 0.98627 0.88762 0.0
H129 H 0.44912 0.08413 0.85176 0.0
C130 C 0.44447 0.21343 1.01542 0.0
O131 O 0.49809 0.25625 1.01704 0.0
O132 O 0.56592 0.07229 0.8931 0.0
H133 H 0.40402 0.99671 0.96833 0.0
H134 H 0.6606 0.22517 0.13534 0.0
H135 H 0.30056 0.94452 0.94696 0.0
Zn136 Zn 0.99041 0.37701 0.68364 0.0
C137 C 0.1211 0.54572 0.66274 0.0
N138 N 0.1244 0.54949 0.70543 0.0
C139 C 0.08693 0.49496 0.71896 0.0
N140 N 1.0596 0.45898 0.6854 0.0
N141 N 1.08159 0.49064 0.65078 0.0
C142 C 0.09737 0.5534 0.5318 0.0
O143 O 0.13707 0.59771 0.51081 0.0
O144 O 1.0089 0.30999 0.69101 0.0
Zn145 Zn 1.06493 0.4557 0.595 0.0
N146 N 0.9498 0.37064 0.73456 0.0
C147 C 0.92662 0.40954 0.79333 0.0
C148 C 0.94671 0.41513 0.75213 0.0
C149 C 0.93052 0.32003 0.75528 0.0
N150 N 0.90935 0.35932 0.81463 0.0
C151 C 0.91064 0.3142 0.79628 0.0
O152 O 0.97773 0.39798 0.57847 0.0
C153 C 0.92957 0.35998 0.59451 0.0
O154 O 0.92717 0.35042 0.63423 0.0
H155 H 0.96238 0.45537 0.73521 0.0
H156 H 0.93176 0.28466 0.74042 0.0
C157 C 0.10823 0.39858 0.55094 0.0
C158 C 0.131 0.36284 0.54242 0.0
C159 C 0.13689 0.34929 0.61576 0.0
C160 C 0.11476 0.38572 0.62402 0.0
N161 N 0.10043 0.40906 0.59121 0.0
N162 N 0.14408 0.33822 0.57515 0.0
H163 H 0.09491 0.41684 0.52569 0.0
C164 C 0.97907 0.26254 0.67088 0.0
O165 O 0.9483 0.26206 0.63826 0.0
O166 O 0.11135 0.52211 0.55343 0.0
H167 H 0.10842 0.3946 0.65606 0.0
H168 H 0.92534 0.44498 0.80837 0.0
H169 H 0.1478 0.32963 0.64142 0.0
Zn170 Zn 0.67106 0.61897 0.26113 0.0
C171 C 0.64411 0.63371 0.38477 0.0
N172 N 0.59198 0.62473 0.37048 0.0
C173 C 0.5944 0.62064 0.32807 0.0
N174 N 0.64685 0.62677 0.31733 0.0
N175 N 0.67778 0.63415 0.35229 0.0
C176 C 0.87369 0.69204 0.36987 0.0
O177 O 0.86732 0.64236 0.35786 0.0
O178 O 0.59929 0.54995 0.23744 0.0
Zn179 Zn 0.74813 0.62219 0.35726 0.0
N180 N 0.702 0.69342 0.23373 0.0
C181 C 0.72549 0.79178 0.2334 0.0
C182 C 0.6981 0.7372 0.25195 0.0
C183 C 0.73423 0.7027 0.19885 0.0
N184 N 0.75735 0.80093 0.19823 0.0
C185 C 0.76326 0.75792 0.18083 0.0
O186 O 0.77507 0.58638 0.30739 0.0
C187 C 0.76817 0.58293 0.26736 0.0
O188 O 0.73236 0.59566 0.25103 0.0
H189 H 0.67409 0.7299 0.28068 0.0
H190 H 0.73721 0.66724 0.1855 0.0
C191 C 0.75905 0.56948 0.43333 0.0
C192 C 0.73811 0.52875 0.4661 0.0
C193 C 0.64395 0.48672 0.43663 0.0
C194 C 0.66543 0.52556 0.40322 0.0
N195 N 0.72243 0.56654 0.40242 0.0
N196 N 0.6809 0.48845 0.46687 0.0
H197 H 0.80438 0.60139 0.43109 0.0
C198 C 0.58491 0.51007 0.26479 0.0
O199 O 0.62008 0.51917 0.29669 0.0
O200 O 0.82801 0.69588 0.37418 0.0
H201 H 0.63656 0.52361 0.37846 0.0
H202 H 0.72205 0.82677 0.2471 0.0
H203 H 0.5986 0.45447 0.43796 0.0
H204 H 0.47339 0.57426 0.34309 0.0
H205 H 0.59742 0.64225 0.24224 0.0
H206 H 0.52123 0.62468 0.19194 0.0
H207 H 0.3557 0.46142 0.2807 0.0
H208 H 0.29843 0.4691 0.3031 0.0
H209 H 0.36226 0.48717 0.33394 0.0
H210 H 0.37976 0.58935 0.34705 0.0
H211 H 0.31555 0.57219 0.31704 0.0
H212 H 0.38376 0.63392 0.30293 0.0
H213 H 0.43075 0.59732 0.14971 0.0
H214 H 0.33455 0.56609 0.11985 0.0
H215 H 0.26042 0.51642 0.24462 0.0
C216 C 0.48477 0.58563 0.31042 0.0
C217 C 0.54398 0.60951 0.29749 0.0
C218 C 0.55468 0.62372 0.25416 0.0
C219 C 0.51064 0.61366 0.22476 0.0
C220 C 0.45372 0.58958 0.2382 0.0
C221 C 0.44025 0.57597 0.28012 0.0
C222 C 0.37456 0.55076 0.2854 0.0
C223 C 0.34606 0.48841 0.30179 0.0
C224 C 0.36271 0.58881 0.31488 0.0
C225 C 0.35383 0.55243 0.24007 0.0
C226 C 0.40082 0.57491 0.21361 0.0
C227 C 0.39388 0.57998 0.17038 0.0
C228 C 0.33828 0.56183 0.15352 0.0
C229 C 0.28822 0.53859 0.17912 0.0
C230 C 0.29691 0.53432 0.22356 0.0
H231 H 0.65526 0.81595 0.90145 0.0
H232 H 0.55187 0.79265 0.78936 0.0
H233 H 0.51411 0.85051 0.82151 0.0
H234 H 0.55429 0.81398 0.97889 0.0
H235 H 0.60859 0.87104 1.01109 0.0
H236 H 0.62686 0.82609 0.98052 0.0
H237 H 0.70881 0.91649 0.94458 0.0
H238 H 0.69106 0.96202 0.97492 0.0
H239 H 0.69262 0.96663 0.91826 0.0
H240 H 0.48444 0.91054 0.86668 0.0
H241 H 0.47149 0.97172 0.91779 0.0
H242 H 0.59747 0.9657 1.00094 0.0
C243 C 0.6242 0.82247 0.88378 0.0
C244 C 0.60638 0.79813 0.84238 0.0
C245 C 0.56652 0.8097 0.82075 0.0
C246 C 0.54457 0.84286 0.83896 0.0
C247 C 0.56302 0.86625 0.87927 0.0
C248 C 0.60253 0.85713 0.90136 0.0
C249 C 0.61693 0.88992 0.94351 0.0
C250 C 0.60071 0.84774 0.98072 0.0
C251 C 0.68118 0.93651 0.94543 0.0
C252 C 0.57865 0.91772 0.94201 0.0
C253 C 0.54789 0.90315 0.90452 0.0
C254 C 0.50912 0.92257 0.89578 0.0
C255 C 0.50205 0.95798 0.92528 0.0
C256 C 0.5341 0.976 0.96356 0.0
C257 C 0.57238 0.95405 0.97202 0.0
H258 H 0.3742 0.79477 0.51169 0.0
H259 H 0.29101 0.89557 0.53159 0.0
H260 H 0.21488 0.8153 0.57299 0.0
H261 H 0.24836 0.65569 0.50315 0.0
H262 H 0.27223 0.615 0.5344 0.0
H263 H 0.32391 0.67902 0.50672 0.0
H264 H 0.38109 0.72772 0.57337 0.0
H265 H 0.33397 0.66313 0.60243 0.0
H266 H 0.34424 0.73184 0.61922 0.0
H267 H 0.14488 0.72198 0.61239 0.0
H268 H 0.09325 0.6294 0.65096 0.0
H269 H 0.22128 0.5864 0.61137 0.0
C270 C 0.33988 0.79991 0.5247 0.0
C271 C 0.33905 0.85244 0.51757 0.0
C272 C 0.29329 0.85663 0.53604 0.0
C273 C 0.24943 0.81077 0.55972 0.0
C274 C 0.25127 0.75988 0.56605 0.0
C275 C 0.29598 0.75448 0.5497 0.0
C276 C 0.28887 0.69597 0.56335 0.0
C277 C 0.28293 0.65917 0.52465 0.0
C278 C 0.34009 0.70522 0.59124 0.0
C279 C 0.23267 0.66882 0.58897 0.0
C280 C 0.21186 0.70675 0.58987 0.0
C281 C 0.16119 0.69234 0.61173 0.0
C282 C 0.1317 0.63908 0.63362 0.0
C283 C 0.15169 0.59906 0.63415 0.0
C284 C 0.20352 0.61484 0.61128 0.0
H285 H 0.68194 0.55852 0.84129 0.0
H286 H 0.5777 0.47471 0.73018 0.0
H287 H 0.54594 0.38027 0.7619 0.0
H288 H 0.72399 0.4526 0.86604 0.0
H289 H 0.71544 0.45238 0.92229 0.0
H290 H 0.73184 0.51587 0.89195 0.0
H291 H 0.6417 0.51448 0.92144 0.0
H292 H 0.62509 0.45114 0.95212 0.0
H293 H 0.57204 0.45012 0.91615 0.0
H294 H 0.52786 0.29279 0.80186 0.0
H295 H 0.51694 0.21714 0.85087 0.0
H296 H 0.62273 0.34769 0.94338 0.0
C297 C 0.65143 0.52042 0.82401 0.0
C298 C 0.63249 0.5259 0.78249 0.0
C299 C 0.59371 0.47355 0.76144 0.0
C300 C 0.57496 0.41884 0.77939 0.0
C301 C 0.59412 0.41484 0.81956 0.0
C302 C 0.63065 0.46393 0.84225 0.0
C303 C 0.64245 0.44524 0.88566 0.0
C304 C 0.70731 0.4679 0.89185 0.0
C305 C 0.61895 0.46652 0.92095 0.0
C306 C 0.60829 0.37855 0.88294 0.0
C307 C 0.5812 0.3628 0.84407 0.0
C308 C 0.5486 0.30481 0.83251 0.0
C309 C 0.54289 0.26162 0.86094 0.0
C310 C 0.56873 0.27473 0.90177 0.0
C311 C 0.60199 0.33499 0.91278 0.0
H312 H 0.59624 0.13151 0.51149 0.0
H313 H 0.67139 0.16484 0.38654 0.0
H314 H 0.76645 0.22785 0.41706 0.0
H315 H 0.68779 0.27848 0.55049 0.0
H316 H 0.69626 0.2575 0.60296 0.0
H317 H 0.63225 0.21139 0.57248 0.0
H318 H 0.65151 0.12668 0.58236 0.0
H319 H 0.71566 0.17257 0.6128 0.0
H320 H 0.7201 0.13557 0.56704 0.0
H321 H 0.85611 0.28851 0.45906 0.0
H322 H 0.93337 0.34552 0.50988 0.0
H323 H 0.80823 0.28417 0.61086 0.0
C324 C 0.63207 0.1519 0.49022 0.0
C325 C 0.62341 0.14202 0.44548 0.0
C326 C 0.67411 0.17048 0.42038 0.0
C327 C 0.72945 0.20698 0.43757 0.0
C328 C 0.73599 0.21654 0.48084 0.0
C329 C 0.68892 0.19007 0.50713 0.0
C330 C 0.70962 0.20995 0.55276 0.0
C331 C 0.67968 0.24117 0.57075 0.0
C332 C 0.69855 0.15811 0.5804 0.0
C333 C 0.77509 0.25196 0.54754 0.0
C334 C 0.78871 0.254 0.50552 0.0
C335 C 0.84559 0.28772 0.49196 0.0
C336 C 0.88968 0.32066 0.52146 0.0
C337 C 0.87829 0.32219 0.56492 0.0
C338 C 0.81939 0.28588 0.57803 0.0
H339 H 0.98531 0.46916 0.17944 0.0
H340 H 0.95346 0.51991 0.05625 0.0
H341 H 0.88958 0.54891 0.08797 0.0
H342 H 0.84283 0.41842 0.22334 0.0
H343 H 0.86771 0.44907 0.27498 0.0
H344 H 0.91083 0.42943 0.2435 0.0
H345 H 0.99746 0.53299 0.25028 0.0
H346 H 0.95475 0.55322 0.28171 0.0
H347 H 0.98919 0.59322 0.23463 0.0
H348 H 0.82727 0.57257 0.13051 0.0
H349 H 0.77313 0.59326 0.18204 0.0
H350 H 0.84495 0.53757 0.28307 0.0
C351 C 0.96595 0.48725 0.15906 0.0
C352 C 0.97667 0.49228 0.11444 0.0
C353 C 0.94755 0.51484 0.09 0.0
C354 C 0.91069 0.532 0.1079 0.0
C355 C 0.90215 0.52757 0.15126 0.0
C356 C 0.9292 0.50637 0.17692 0.0
C357 C 0.91268 0.50856 0.22307 0.0
C358 C 0.88167 0.44774 0.24238 0.0
C359 C 0.96672 0.54941 0.24897 0.0
C360 C 0.87143 0.53302 0.21883 0.0
C361 C 0.86646 0.54326 0.17673 0.0
C362 C 0.83108 0.56482 0.16358 0.0
C363 C 0.79996 0.57644 0.19361 0.0
C364 C 0.80342 0.56742 0.23753 0.0
C365 C 0.84049 0.5453 0.25011 0.0
H366 H 0.45571 0.3189 1.00178 0.0
H367 H 0.32724 0.1425 1.0325 0.0
H368 H 0.25383 0.17288 1.03966 0.0
H369 H 0.41206 0.38874 0.07376 0.0
H370 H 0.42811 0.44784 1.03868 0.0
H371 H 0.46697 0.40953 1.03435 0.0
H372 H 0.4362 0.39017 0.95538 0.0
H373 H 0.3962 0.42726 0.96092 0.0
H374 H 0.36053 0.35421 0.94155 0.0
H375 H 0.1954 0.22706 0.04708 0.0
H376 H 0.1611 0.29726 0.05512 0.0
H377 H 0.33043 0.436 1.01946 0.0
C378 C 0.41203 0.28617 1.00965 0.0
C379 C 0.39739 0.22804 1.01651 0.0
C380 C 0.33955 0.1871 1.02674 0.0
C381 C 0.29763 0.20414 1.03096 0.0
C382 C 0.31404 0.26219 1.02451 0.0
C383 C 0.37009 0.30234 1.0138 0.0
C384 C 0.37824 0.36237 1.00961 0.0
C385 C 0.42405 0.40455 1.04097 0.0
C386 C 0.39368 0.38475 0.96415 0.0
C387 C 0.31846 0.35048 1.02081 0.0
C388 C 0.28147 0.29252 1.02883 0.0
C389 C 0.2242 0.27239 1.04062 0.0
C390 C 0.2049 0.31252 0.04496 0.0
C391 C 0.24293 0.37225 1.03805 0.0
C392 C 0.30008 0.39075 1.02518 0.0
H393 H 0.91678 0.15553 0.63471 0.0
H394 H 1.01072 0.23988 0.74904 0.0
H395 H 0.97714 0.14399 0.78181 0.0
H396 H 0.79615 1.0489 0.68704 0.0
H397 H 0.77988 0.9917 0.65064 0.0
H398 H 0.8158 0.06572 0.63261 0.0
H399 H 0.90026 1.05663 0.60318 0.0
H400 H 0.86475 0.98187 0.61896 0.0
H401 H 0.93727 1.03098 0.63687 0.0
H402 H 0.92379 1.0364 0.8041 0.0
H403 H 0.85939 0.93115 0.81296 0.0
H404 H 0.80145 0.91815 0.68338 0.0
C405 C 0.93184 0.15419 0.66627 0.0
C406 C 0.96743 0.20582 0.68891 0.0
C407 C 0.98452 0.20135 0.73058 0.0
C408 C 0.96532 0.14686 0.74956 0.0
C409 C 0.92927 0.0969 0.72647 0.0
C410 C 0.91318 0.1004 0.68559 0.0
C411 C 0.87055 1.04106 0.66849 0.0
C412 C 0.81216 1.03672 0.65903 0.0
C413 C 0.89465 1.02681 0.62955 0.0
C414 C 0.86561 1.00294 0.70554 0.0
C415 C 0.89936 1.03591 0.73898 0.0
C416 C 0.8981 1.01044 0.77775 0.0
C417 C 0.86124 0.95037 0.78248 0.0
C418 C 0.82585 0.9157 0.74868 0.0
C419 C 0.82898 0.94275 0.70954 0.0
H420 H 0.97534 0.69893 0.34646 0.0
H421 H 0.90994 0.79719 0.40969 0.0
H422 H 1.01084 0.87577 0.42283 0.0
H423 H 0.09387 0.73636 0.41436 0.0
H424 H 0.14345 0.74187 0.37443 0.0
H425 H 1.06709 0.69392 0.36698 0.0
H426 H 1.06735 0.74224 0.29729 0.0
H427 H 0.14379 0.79218 0.30164 0.0
H428 H 0.0946 0.81892 0.29532 0.0
H429 H 0.12104 0.94119 0.433 0.0
H430 H 0.22749 0.98787 0.43727 0.0
H431 H 0.22093 0.84925 0.36348 0.0
C432 C 0.98188 0.73702 0.36297 0.0
C433 C 0.93404 0.7415 0.37709 0.0
C434 C 0.94535 0.79248 0.3984 0.0
C435 C 1.00272 0.83737 0.40602 0.0
C436 C 1.04869 0.83124 0.39172 0.0
C437 C 1.03864 0.78233 0.37034 0.0
C438 C 0.09515 0.78561 0.35849 0.0
C439 C 0.10017 0.73652 0.37978 0.0
C440 C 0.10052 0.78462 0.31036 0.0
C441 C 0.13911 0.84403 0.37663 0.0
C442 C 0.1114 0.86951 0.39596 0.0
C443 C 0.14284 0.92185 0.41733 0.0
C444 C 0.20352 0.94824 0.41949 0.0
C445 C 0.2331 0.92326 0.39985 0.0
C446 C 0.20007 0.87061 0.37766 0.0
H447 H 0.17745 0.43923 0.47825 0.0
H448 H 0.09278 0.25678 0.50738 0.0
H449 H 1.07602 0.23407 0.43126 0.0
H450 H 1.08044 0.43051 0.40965 0.0
H451 H 0.12843 0.48535 0.37336 0.0
H452 H 0.1497 0.48806 0.42742 0.0
H453 H 0.2426 0.48897 0.40467 0.0
H454 H 0.22205 0.48639 0.3501 0.0
H455 H 0.23746 0.43275 0.3709 0.0
H456 H 1.04819 0.23137 0.35527 0.0
H457 H 1.01757 0.24859 0.28565 0.0
H458 H 0.117 0.4333 0.30819 0.0
C459 C 0.15765 0.39461 0.46835 0.0
C460 C 0.13638 0.34963 0.4983 0.0
C461 C 0.11003 0.29172 0.48467 0.0
C462 C 0.10021 0.27854 0.44154 0.0
C463 C 0.11796 0.32394 0.4128 0.0
C464 C 0.14726 0.38098 0.42568 0.0
C465 C 0.15396 0.42153 0.39001 0.0
C466 C 0.12646 0.45844 0.40077 0.0
C467 C 0.21782 0.45966 0.37822 0.0
C468 C 0.12061 0.3783 0.35571 0.0
C469 C 0.10132 0.32234 0.36901 0.0
C470 C 1.06446 0.27506 0.34412 0.0
C471 C 1.04684 0.28529 0.30478 0.0
C472 C 1.06562 0.34233 0.29082 0.0
C473 C 0.10349 0.3892 0.31672 0.0
H474 H 0.80299 0.8132 0.93978 0.0
H475 H 0.89277 0.71649 0.94081 0.0
H476 H 0.9047 0.72783 1.01806 0.0
H477 H 0.88424 0.91044 1.03506 0.0
H478 H 0.81878 0.90745 0.052 0.0
H479 H 0.83229 0.90631 0.99658 0.0
H480 H 0.73416 0.81172 0.98844 0.0
H481 H 0.72058 0.8118 1.04357 0.0
H482 H 0.71962 0.75004 1.02044 0.0
H483 H 0.88349 0.72638 0.09375 0.0
H484 H 0.83787 0.71933 0.16232 0.0
H485 H 0.76395 0.81938 0.11277 0.0
C486 C 0.82711 0.79646 0.95627 0.0
C487 C 0.84681 0.76384 0.93488 0.0
C488 C 0.87792 0.74208 0.95693 0.0
C489 C 0.8849 0.74839 1.00072 0.0
C490 C 0.86177 0.77782 1.02144 0.0
C491 C 0.83471 0.80281 0.9998 0.0
C492 C 0.80653 0.825 1.02949 0.0
C493 C 0.83733 0.89124 1.02821 0.0
C494 C 0.74141 0.79797 1.01991 0.0
C495 C 0.81743 0.80397 0.07095 0.0
C496 C 0.85055 0.7781 0.06581 0.0
C497 C 0.85924 0.74821 0.09849 0.0
C498 C 0.83265 0.74384 0.13712 0.0
C499 C 0.79766 0.76903 0.14251 0.0
C500 C 0.79166 0.80101 0.10953 0.0
H501 H 0.40214 0.12682 0.81706 0.0
H502 H 0.27401 0.9449 0.80945 0.0
H503 H 0.26229 0.95545 0.73334 0.0
H504 H 0.3434 0.17854 0.72483 0.0
H505 H 0.41626 0.22903 0.70904 0.0
H506 H 0.39976 0.21256 0.76406 0.0
H507 H 0.47891 0.18441 0.77022 0.0
H508 H 0.49534 0.2002 0.71555 0.0
H509 H 0.47597 0.12975 0.73577 0.0
H510 H 0.28503 0.97755 0.65846 0.0
H511 H 0.33663 1.01061 0.59113 0.0
H512 H 0.452 0.17808 0.64617 0.0
C513 C 0.37024 0.08968 0.79954 0.0
C514 C 0.3396 1.03487 0.81869 0.0
C515 C 0.29774 0.98731 0.79521 0.0
C516 C 0.29075 0.993 0.75199 0.0
C517 C 0.32516 1.04674 0.7332 0.0
C518 C 0.36333 0.09469 0.75643 0.0
C519 C 0.40278 0.14462 0.72829 0.0
C520 C 0.38972 0.1941 0.73176 0.0
C521 C 0.46697 0.16588 0.73803 0.0
C522 C 0.38458 0.1156 0.68577 0.0
C523 C 0.33851 0.05977 0.68912 0.0
C524 C 0.31985 1.02168 0.65518 0.0
C525 C 0.3499 1.04054 0.61726 0.0
C526 C 0.39838 0.09677 0.61385 0.0
C527 C 0.41433 0.13531 0.64793 0.0
H528 H 0.36259 0.62898 0.96713 0.0
H529 H 0.2243 0.48692 0.8982 0.0
H530 H 0.29335 0.45761 0.87323 0.0
H531 H 0.47755 0.66629 0.89503 0.0
H532 H 0.52921 0.68163 0.93694 0.0
H533 H 0.46778 0.69003 0.94569 0.0
H534 H 0.44203 0.62089 1.01019 0.0
H535 H 0.50165 0.60971 0.99951 0.0
H536 H 0.42934 0.54879 1.00253 0.0
H537 H 0.37815 0.44721 0.85457 0.0
H538 H 0.47482 0.4683 0.83226 0.0
H539 H 0.55378 0.60877 0.92181 0.0
C540 C 0.34748 0.59312 0.94539 0.0
C541 C 0.28909 0.56107 0.93331 0.0
C542 C 0.26966 0.51275 0.90649 0.0
C543 C 0.30811 0.49514 0.89316 0.0
C544 C 0.36492 0.52563 0.90799 0.0
C545 C 0.38462 0.57403 0.93301 0.0
C546 C 0.44754 0.59977 0.94446 0.0
C547 C 0.48256 0.66309 0.9296 0.0
C548 C 0.45557 0.59445 0.992 0.0
C549 C 0.46139 0.56041 0.91972 0.0
C550 C 0.41283 0.51698 0.89971 0.0
C551 C 0.41629 0.48026 0.87056 0.0
C552 C 0.47121 0.49196 0.85849 0.0
C553 C 0.52103 0.53997 0.87556 0.0
C554 C 0.51611 0.57092 0.90924 0.0
H555 H 0.64693 1.019 0.53242 0.0
H556 H 0.55859 0.91313 0.42393 0.0
H557 H 0.61199 0.86207 0.43224 0.0
H558 H 0.78506 0.99834 0.52059 0.0
H559 H 0.79045 0.99166 0.57631 0.0
H560 H 0.77272 1.04385 0.55538 0.0
H561 H 0.68038 1.00492 0.59608 0.0
H562 H 0.69126 0.95221 0.62227 0.0
H563 H 0.62595 0.92944 0.59279 0.0
H564 H 0.63307 0.79664 0.46851 0.0
H565 H 0.62043 0.73022 0.52636 0.0
H566 H 0.7002 0.87413 0.6128 0.0
C567 C 0.64145 0.98704 0.50934 0.0
C568 C 0.59795 0.96894 0.47847 0.0
C569 C 0.59128 0.92721 0.44843 0.0
C570 C 0.62216 0.89827 0.45258 0.0
C571 C 0.65997 0.91188 0.48665 0.0
C572 C 0.67149 0.95703 0.51374 0.0
C573 C 0.70185 0.95412 0.55319 0.0
C574 C 0.76628 0.99981 0.55132 0.0
C575 C 0.67322 0.96047 0.59335 0.0
C576 C 0.69371 0.8943 0.54831 0.0
C577 C 0.67373 0.87248 0.50831 0.0
C578 C 0.65077 0.81391 0.49932 0.0
C579 C 0.6432 0.77618 0.53246 0.0
C580 C 0.65899 0.79729 0.57393 0.0
C581 C 0.68884 0.85728 0.58114 0.0
H582 H 0.12298 0.61456 0.24488 0.0
H583 H 0.12121 0.6911 0.12464 0.0
H584 H 0.20352 0.78378 0.14787 0.0
H585 H 0.20375 0.75266 0.31437 0.0
H586 H 0.24084 0.71896 0.33772 0.0
H587 H 0.16684 0.67524 0.32051 0.0
H588 H 0.20412 0.61714 0.27766 0.0
H589 H 0.27835 0.66688 0.29017 0.0
H590 H 0.25509 0.65324 0.2359 0.0
H591 H 0.30095 0.85884 0.17634 0.0
H592 H 0.39602 0.91344 0.21307 0.0
H593 H 0.34241 0.77405 0.30307 0.0
C594 C 0.13756 0.65174 0.2244 0.0
C595 C 0.11753 0.64561 0.18263 0.0
C596 C 0.13699 0.69502 0.15671 0.0
C597 C 0.18406 0.74775 0.16956 0.0
C598 C 0.21019 0.74939 0.2081 0.0
C599 C 0.18682 0.70277 0.2356 0.0
C600 C 0.22951 0.7085 0.2693 0.0
C601 C 0.20894 0.71414 0.31307 0.0
C602 C 0.24247 0.6585 0.26811 0.0
C603 C 0.28088 0.76416 0.25557 0.0
C604 C 0.26893 0.78829 0.22112 0.0
C605 C 0.31065 0.84051 0.20352 0.0
C606 C 0.36471 0.87044 0.22368 0.0
C607 C 0.37603 0.84642 0.2597 0.0
C608 C 0.3347 0.79189 0.27461 0.0
H609 H 0.4757 0.26892 0.11924 0.0
H610 H 0.51141 0.19036 0.22593 0.0
H611 H 0.48009 0.24102 0.27381 0.0
H612 H 0.54539 0.39085 0.14403 0.0
H613 H 0.50197 0.42256 0.12956 0.0
H614 H 0.48922 0.35801 0.10438 0.0
H615 H 0.38264 0.30639 0.12677 0.0
H616 H 0.39474 0.37167 0.15225 0.0
H617 H 0.36425 0.30497 0.18134 0.0
H618 H 0.48438 0.32173 0.30815 0.0
H619 H 0.54077 0.42481 0.32326 0.0
H620 H 0.51643 0.46419 0.1949 0.0
C621 C 0.47321 0.25975 0.15263 0.0
C622 C 0.49532 0.22571 0.16918 0.0
C623 C 0.49418 0.21615 0.21288 0.0
C624 C 0.47568 0.24432 0.24015 0.0
C625 C 0.45973 0.28278 0.22319 0.0
C626 C 0.45758 0.28994 0.18001 0.0
C627 C 0.45732 0.34512 0.16954 0.0
C628 C 0.50121 0.3812 0.13497 0.0
C629 C 0.39612 0.3312 0.15673 0.0
C630 C 0.47344 0.37392 0.21228 0.0
C631 C 0.46767 0.33464 0.2434 0.0
C632 C 0.4882 0.35237 0.28421 0.0
C633 C 0.52101 0.41134 0.29236 0.0
C634 C 0.53443 0.45191 0.2595 0.0
C635 C 0.50654 0.43341 0.22017 0.0
H636 H 0.83474 0.21065 0.76411 0.0
H637 H 0.93154 0.29378 0.87701 0.0
H638 H 0.87553 0.20319 0.91639 0.0
H639 H 0.71763 0.16519 0.79268 0.0
H640 H 0.67589 0.09297 0.77167 0.0
H641 H 0.74185 0.14329 0.74719 0.0
H642 H 0.78138 0.07383 0.75681 0.0
H643 H 0.71375 1.02204 0.78042 0.0
H644 H 0.7809 1.044 0.80781 0.0
H645 H 0.79227 0.1272 0.94792 0.0
H646 H 0.69441 0.10083 0.9681 0.0
H647 H 0.63868 0.06736 0.83812 0.0
C648 C 0.84584 0.20811 0.79662 0.0
C649 C 0.88696 0.25828 0.81782 0.0
C650 C 0.89988 0.25536 0.86048 0.0
C651 C 0.86884 0.20359 0.88275 0.0
C652 C 0.82411 0.15558 0.86212 0.0
C653 C 0.81315 0.15725 0.81943 0.0
C654 C 0.75339 0.10884 0.80745 0.0
C655 C 0.72032 0.12897 0.77818 0.0
C656 C 0.75757 0.05921 0.78696 0.0
C657 C 0.72751 0.09127 0.85095 0.0
C658 C 0.77095 0.11227 0.88159 0.0
C659 C 0.75839 0.11057 0.92423 0.0
C660 C 0.70266 0.09628 0.93541 0.0
C661 C 0.66061 0.08485 0.904 0.0
C662 C 0.67109 0.07641 0.86213 0.0
H663 H 1.05591 0.62792 0.53914 0.0
H664 H 1.0065 0.45138 0.51121 0.0
H665 H 0.90356 0.42478 0.51016 0.0
H666 H 0.92655 0.60563 0.59785 0.0
H667 H 0.92278 0.66248 0.56993 0.0
H668 H 0.99167 0.66715 0.5787 0.0
H669 H 1.01157 0.67903 0.49834 0.0
H670 H 0.94348 0.67558 0.48966 0.0
H671 H 0.95915 0.62615 0.46265 0.0
H672 H 0.80898 0.41442 0.51404 0.0
H673 H 0.72943 0.42787 0.48935 0.0
H674 H 0.83893 0.61349 0.5028 0.0
C675 C 1.0229 0.58322 0.53447 0.0
C676 C 1.03753 0.53986 0.52953 0.0
C677 C 0.99464 0.48318 0.51949 0.0
C678 C 0.93659 0.46775 0.51894 0.0
C679 C 0.92264 0.51003 0.5272 0.0
C680 C 0.96452 0.5673 0.53244 0.0
C681 C 0.93837 0.60594 0.52959 0.0
C682 C 0.94526 0.63714 0.57153 0.0
C683 C 0.96468 0.64918 0.49288 0.0
C684 C 0.87569 0.56115 0.52105 0.0
C685 C 0.8675 0.50599 0.52207 0.0
C686 C 0.81451 0.45731 0.51305 0.0
C687 C 0.76945 0.46537 0.49935 0.0
C688 C 0.77856 0.52169 0.49363 0.0
C689 C 0.83122 0.57001 0.50678 0.0
H690 H 0.0864 0.55788 0.78852 0.0
H691 H 1.0736 0.39506 0.7565 0.0
H692 H 1.07026 0.37155 0.83265 0.0
H693 H 0.17346 0.58845 0.88318 0.0
H694 H 0.13603 0.61737 0.91187 0.0
H695 H 0.13928 0.62225 0.85521 0.0
H696 H 1.02749 0.56963 0.85031 0.0
H697 H 1.02431 0.56609 0.90697 0.0
H698 H 0.98557 0.50099 0.87632 0.0
H699 H 1.07536 0.36967 0.91631 0.0
H700 H 1.06993 0.38121 0.99353 0.0
H701 H 1.06849 0.53991 0.97102 0.0
C702 C 1.08279 0.51714 0.79743 0.0
C703 C 1.08033 0.47842 0.76566 0.0
C704 C 1.07524 0.42553 0.77949 0.0
C705 C 1.07373 0.41199 0.82304 0.0
C706 C 1.07669 0.45128 0.85343 0.0
C707 C 1.07981 0.50233 0.84092 0.0
C708 C 1.0791 0.53591 0.87951 0.0
C709 C 0.1353 0.59448 0.8826 0.0
C710 C 1.02596 0.54361 0.87819 0.0
C711 C 1.0752 0.49627 0.91578 0.0
C712 C 1.07531 0.44822 0.90028 0.0
C713 C 1.07456 0.40699 0.92826 0.0
C714 C 1.07195 0.41408 0.97243 0.0
C715 C 1.06883 0.46146 0.9891 0.0
C716 C 1.07081 0.50306 0.9598 0.0
H717 H 0.59112 0.57182 0.63621 0.0
H718 H 0.75651 0.72521 0.65912 0.0
H719 H 0.77079 0.74064 0.5818 0.0
H720 H 0.63104 0.5231 0.54433 0.0
H721 H 0.56317 0.49776 0.51711 0.0
H722 H 0.56572 0.49903 0.57387 0.0
H723 H 0.51801 0.56289 0.57541 0.0
H724 H 0.5134 0.5589 0.51875 0.0
H725 H 0.54874 0.62808 0.54441 0.0
H726 H 0.76976 0.73315 0.49883 0.0
H727 H 0.74687 0.71373 0.42253 0.0
H728 H 0.57777 0.57128 0.45346 0.0
C729 C 0.63 0.6093 0.625 0.0
C730 C 0.67233 0.64787 0.65439 0.0
C731 C 0.7229 0.6956 0.63784 0.0
C732 C 0.73151 0.70435 0.59369 0.0
C733 C 0.68907 0.6653 0.56568 0.0
C734 C 0.63862 0.61935 0.58095 0.0
C735 C 0.59904 0.58405 0.54447 0.0
C736 C 0.58915 0.52233 0.545 0.0
C737 C 0.5414 0.58347 0.54587 0.0
C738 C 0.63443 0.61736 0.50618 0.0
C739 C 0.68701 0.66322 0.51895 0.0
C740 C 0.72823 0.69779 0.48894 0.0
C741 C 0.71503 0.68619 0.44538 0.0
C742 C 0.66037 0.64121 0.43135 0.0
C743 C 0.6198 0.60644 0.4627 0.0
H744 H 0.58516 0.06351 0.1204 0.0
H745 H 0.42348 1.05375 0.08701 0.0
H746 H 0.40031 1.05025 0.16297 0.0
H747 H 0.53643 0.97085 0.21106 0.0
H748 H 0.60103 1.01323 0.24194 0.0
H749 H 0.60469 1.01438 0.18526 0.0
H750 H 0.65098 0.12602 0.18462 0.0
H751 H 0.64942 0.12465 0.24135 0.0
H752 H 0.61587 0.15822 0.21241 0.0
H753 H 0.39244 1.04059 0.24653 0.0
H754 H 0.40879 1.04371 0.32412 0.0
H755 H 0.57943 0.0695 0.30261 0.0
C756 C 0.54512 0.06132 0.12903 0.0
C757 C 0.50646 0.05952 0.09705 0.0
C758 C 0.45437 1.05606 0.11035 0.0
C759 C 0.44063 1.05356 0.15373 0.0
C760 C 0.4795 1.05509 0.1844 0.0
C761 C 0.53143 0.06029 0.17236 0.0
C762 C 0.56713 0.06365 0.21123 0.0
C763 C 0.57797 1.01249 0.21242 0.0
C764 C 0.62424 0.12157 0.21245 0.0
C765 C 0.52757 0.05941 0.24706 0.0
C766 C 0.47651 1.05317 0.23119 0.0
C767 C 0.43277 1.04619 0.25883 0.0
C768 C 0.44213 1.04745 0.30318 0.0
C769 C 0.49533 1.05676 0.32021 0.0
C770 C 0.53813 0.06235 0.29114 0.0
loop_
_geom_bond_atom_site_label_1
_geom_bond_atom_site_label_2
_geom_bond_distance
_geom_bond_site_symmetry_2
_ccdc_geom_bond_type
Zn0 N4 2.020 . S
Zn0 O8 2.019 . S
Zn0 N10 2.119 . S
Zn0 O18 1.975 . S
C1 N2 1.334 . S
C1 N5 1.336 . S
N2 C1 1.334 . S
N2 C3 1.334 . S
C3 N2 1.334 . S
C3 N4 1.336 . S
N4 Zn0 2.020 . S
N4 C3 1.336 . S
N4 N5 1.354 . S
N5 C1 1.336 . S
N5 N4 1.354 . S
N5 Zn9 2.020 . S
C6 O7 1.244 . S
C6 O30 1.257 . S
O7 C6 1.244 . S
O8 Zn0 2.019 . S
O8 C28 1.257 . S
Zn9 N5 2.020 . S
Zn9 O16 1.975 . S
Zn9 N25 2.119 . S
Zn9 O30 2.019 . S
N10 Zn0 2.119 . S
N10 C12 1.334 . S
N10 C13 1.328 . S
C11 C12 1.391 . S
C11 N14 1.329 . S
C11 H32 0.930 . S
C12 N10 1.334 . S
C12 C11 1.391 . S
C12 H19 0.930 . S
C13 N10 1.328 . S
C13 C15 1.392 . S
C13 H20 0.930 . S
N14 C11 1.329 . S
N14 C15 1.331 . S
C15 C13 1.392 . S
C15 N14 1.331 . S
O16 Zn9 1.975 . S
O16 C17 1.252 . S
C17 O16 1.252 . S
C17 O18 1.252 . S
O18 Zn0 1.975 . S
O18 C17 1.252 . S
H19 C12 0.930 . S
H20 C13 0.930 . S
C21 C22 1.392 . S
C21 N25 1.328 1_556 S
C21 H27 0.930 . S
C22 C21 1.392 . S
C22 N26 1.331 . S
C23 C24 1.391 . S
C23 N26 1.329 1_554 S
C23 H33 0.930 . S
C24 C23 1.391 . S
C24 N25 1.334 . S
C24 H31 0.930 . S
N25 Zn9 2.119 . S
N25 C21 1.328 1_554 S
N25 C24 1.334 . S
N26 C22 1.331 . S
N26 C23 1.329 1_556 S
H27 C21 0.930 . S
C28 O8 1.257 . S
C28 O29 1.244 . S
O29 C28 1.244 . S
O30 C6 1.257 . S
O30 Zn9 2.019 . S
H31 C24 0.930 . S
H32 C11 0.930 . S
H33 C23 0.930 . S
Zn34 N38 2.020 . S
Zn34 O42 2.019 . S
Zn34 N44 2.119 . S
Zn34 O52 1.975 . S
C35 N36 1.334 . S
C35 N39 1.336 . S
N36 C35 1.334 . S
N36 C37 1.334 . S
C37 N36 1.334 . S
C37 N38 1.336 . S
N38 Zn34 2.020 . S
N38 C37 1.336 . S
N38 N39 1.354 . S
N39 C35 1.336 . S
N39 N38 1.354 . S
N39 Zn43 2.020 . S
C40 O41 1.244 . S
C40 O64 1.257 . S
O41 C40 1.244 . S
O42 Zn34 2.019 . S
O42 C62 1.257 . S
Zn43 N39 2.020 . S
Zn43 O50 1.975 . S
Zn43 N59 2.119 . S
Zn43 O64 2.019 . S
N44 Zn34 2.119 . S
N44 C46 1.334 . S
N44 C47 1.328 . S
C45 C46 1.391 . S
C45 N48 1.329 . S
C45 H66 0.930 . S
C46 N44 1.334 . S
C46 C45 1.391 . S
C46 H53 0.930 . S
C47 N44 1.328 . S
C47 C49 1.392 . S
C47 H54 0.930 . S
N48 C45 1.329 . S
N48 C49 1.331 . S
C49 C47 1.392 . S
C49 N48 1.331 . S
O50 Zn43 1.975 . S
O50 C51 1.252 . S
C51 O50 1.252 . S
C51 O52 1.252 . S
O52 Zn34 1.975 . S
O52 C51 1.252 . S
H53 C46 0.930 . S
H54 C47 0.930 . S
C55 C56 1.392 . S
C55 N59 1.328 . S
C55 H61 0.930 . S
C56 C55 1.392 . S
C56 N60 1.331 . S
C57 C58 1.391 . S
C57 N60 1.329 . S
C57 H67 0.930 . S
C58 C57 1.391 . S
C58 N59 1.334 . S
C58 H65 0.930 . S
N59 Zn43 2.119 . S
N59 C55 1.328 . S
N59 C58 1.334 . S
N60 C56 1.331 . S
N60 C57 1.329 . S
H61 C55 0.930 . S
C62 O42 1.257 . S
C62 O63 1.244 . S
O63 C62 1.244 . S
O64 C40 1.257 . S
O64 Zn43 2.019 . S
H65 C58 0.930 . S
H66 C45 0.930 . S
H67 C57 0.930 . S
Zn68 N72 2.020 . S
Zn68 O76 2.019 . S
Zn68 N78 2.119 . S
Zn68 O86 1.975 . S
C69 N70 1.334 . S
C69 N73 1.336 . S
N70 C69 1.334 . S
N70 C71 1.334 . S
C71 N70 1.334 . S
C71 N72 1.336 . S
N72 Zn68 2.020 . S
N72 C71 1.336 . S
N72 N73 1.354 . S
N73 C69 1.336 . S
N73 N72 1.354 . S
N73 Zn77 2.020 . S
C74 O75 1.244 . S
C74 O98 1.257 . S
O75 C74 1.244 . S
O76 Zn68 2.019 . S
O76 C96 1.257 . S
Zn77 N73 2.020 . S
Zn77 O84 1.975 . S
Zn77 N93 2.119 . S
Zn77 O98 2.019 . S
N78 Zn68 2.119 . S
N78 C80 1.334 . S
N78 C81 1.328 . S
C79 C80 1.391 . S
C79 N82 1.329 . S
C79 H100 0.930 . S
C80 N78 1.334 . S
C80 C79 1.391 . S
C80 H87 0.930 . S
C81 N78 1.328 . S
C81 C83 1.392 . S
C81 H88 0.930 . S
N82 C79 1.329 . S
N82 C83 1.331 . S
C83 C81 1.392 . S
C83 N82 1.331 . S
O84 Zn77 1.975 . S
O84 C85 1.252 . S
C85 O84 1.252 . S
C85 O86 1.252 . S
O86 Zn68 1.975 . S
O86 C85 1.252 . S
H87 C80 0.930 . S
H88 C81 0.930 . S
C89 C90 1.392 . S
C89 N93 1.328 . S
C89 H95 0.930 . S
C90 C89 1.392 . S
C90 N94 1.331 . S
C91 C92 1.391 . S
C91 N94 1.329 . S
C91 H101 0.930 . S
C92 C91 1.391 . S
C92 N93 1.334 . S
C92 H99 0.930 . S
N93 Zn77 2.119 . S
N93 C89 1.328 . S
N93 C92 1.334 . S
N94 C90 1.331 . S
N94 C91 1.329 . S
H95 C89 0.930 . S
C96 O76 1.257 . S
C96 O97 1.244 . S
O97 C96 1.244 . S
O98 C74 1.257 . S
O98 Zn77 2.019 . S
H99 C92 0.930 . S
H100 C79 0.930 . S
H101 C91 0.930 . S
Zn102 N106 2.020 . S
Zn102 O110 2.019 . S
Zn102 N112 2.119 . S
Zn102 O120 1.975 . S
C103 N104 1.334 . S
C103 N107 1.336 . S
N104 C103 1.334 . S
N104 C105 1.334 . S
C105 N104 1.334 . S
C105 N106 1.336 . S
N106 Zn102 2.020 . S
N106 C105 1.336 . S
N106 N107 1.354 . S
N107 C103 1.336 . S
N107 N106 1.354 . S
N107 Zn111 2.020 . S
C108 O109 1.244 . S
C108 O132 1.257 . S
O109 C108 1.244 . S
O110 Zn102 2.019 . S
O110 C130 1.257 . S
Zn111 N107 2.020 . S
Zn111 O118 1.975 . S
Zn111 N127 2.119 . S
Zn111 O132 2.019 . S
N112 Zn102 2.119 . S
N112 C114 1.334 . S
N112 C115 1.328 1_556 S
C113 C114 1.391 . S
C113 N116 1.329 1_556 S
C113 H134 0.930 . S
C114 N112 1.334 . S
C114 C113 1.391 . S
C114 H121 0.930 . S
C115 N112 1.328 1_554 S
C115 C117 1.392 . S
C115 H122 0.930 . S
N116 C113 1.329 1_554 S
N116 C117 1.331 . S
C117 C115 1.392 . S
C117 N116 1.331 . S
O118 Zn111 1.975 . S
O118 C119 1.252 . S
C119 O118 1.252 . S
C119 O120 1.252 . S
O120 Zn102 1.975 . S
O120 C119 1.252 . S
H121 C114 0.930 . S
H122 C115 0.930 . S
C123 C124 1.392 . S
C123 N127 1.328 . S
C123 H129 0.930 . S
C124 C123 1.392 . S
C124 N128 1.331 . S
C125 C126 1.391 . S
C125 N128 1.329 . S
C125 H135 0.930 . S
C126 C125 1.391 . S
C126 N127 1.334 . S
C126 H133 0.930 . S
N127 Zn111 2.119 . S
N127 C123 1.328 . S
N127 C126 1.334 . S
N128 C124 1.331 . S
N128 C125 1.329 . S
H129 C123 0.930 . S
C130 O110 1.257 . S
C130 O131 1.244 . S
O131 C130 1.244 . S
O132 C108 1.257 . S
O132 Zn111 2.019 . S
H133 C126 0.930 . S
H134 C113 0.930 . S
H135 C125 0.930 . S
Zn136 N140 2.020 . S
Zn136 O144 2.019 . S
Zn136 N146 2.119 . S
Zn136 O154 1.975 . S
C137 N138 1.334 . S
C137 N141 1.336 . S
N138 C137 1.334 . S
N138 C139 1.334 . S
C139 N138 1.334 . S
C139 N140 1.336 . S
N140 Zn136 2.020 . S
N140 C139 1.336 . S
N140 N141 1.354 . S
N141 C137 1.336 . S
N141 N140 1.354 . S
N141 Zn145 2.020 . S
C142 O143 1.244 . S
C142 O166 1.257 . S
O143 C142 1.244 . S
O144 Zn136 2.019 . S
O144 C164 1.257 . S
Zn145 N141 2.020 . S
Zn145 O152 1.975 . S
Zn145 N161 2.119 . S
Zn145 O166 2.019 . S
N146 Zn136 2.119 . S
N146 C148 1.334 . S
N146 C149 1.328 . S
C147 C148 1.391 . S
C147 N150 1.329 . S
C147 H168 0.930 . S
C148 N146 1.334 . S
C148 C147 1.391 . S
C148 H155 0.930 . S
C149 N146 1.328 . S
C149 C151 1.392 . S
C149 H156 0.930 . S
N150 C147 1.329 . S
N150 C151 1.331 . S
C151 C149 1.392 . S
C151 N150 1.331 . S
O152 Zn145 1.975 . S
O152 C153 1.252 . S
C153 O152 1.252 . S
C153 O154 1.252 . S
O154 Zn136 1.975 . S
O154 C153 1.252 . S
H155 C148 0.930 . S
H156 C149 0.930 . S
C157 C158 1.392 . S
C157 N161 1.328 . S
C157 H163 0.930 . S
C158 C157 1.392 . S
C158 N162 1.331 . S
C159 C160 1.391 . S
C159 N162 1.329 . S
C159 H169 0.930 . S
C160 C159 1.391 . S
C160 N161 1.334 . S
C160 H167 0.930 . S
N161 Zn145 2.119 . S
N161 C157 1.328 . S
N161 C160 1.334 . S
N162 C158 1.331 . S
N162 C159 1.329 . S
H163 C157 0.930 . S
C164 O144 1.257 . S
C164 O165 1.244 . S
O165 C164 1.244 . S
O166 C142 1.257 . S
O166 Zn145 2.019 . S
H167 C160 0.930 . S
H168 C147 0.930 . S
H169 C159 0.930 . S
Zn170 N174 2.020 . S
Zn170 O178 2.019 . S
Zn170 N180 2.119 . S
Zn170 O188 1.975 . S
C171 N172 1.334 . S
C171 N175 1.336 . S
N172 C171 1.334 . S
N172 C173 1.334 . S
C173 N172 1.334 . S
C173 N174 1.336 . S
N174 Zn170 2.020 . S
N174 C173 1.336 . S
N174 N175 1.354 . S
N175 C171 1.336 . S
N175 N174 1.354 . S
N175 Zn179 2.020 . S
C176 O177 1.244 . S
C176 O200 1.257 . S
O177 C176 1.244 . S
O178 Zn170 2.019 . S
O178 C198 1.257 . S
Zn179 N175 2.020 . S
Zn179 O186 1.975 . S
Zn179 N195 2.119 . S
Zn179 O200 2.019 . S
N180 Zn170 2.119 . S
N180 C182 1.334 . S
N180 C183 1.328 . S
C181 C182 1.391 . S
C181 N184 1.329 . S
C181 H202 0.930 . S
C182 N180 1.334 . S
C182 C181 1.391 . S
C182 H189 0.930 . S
C183 N180 1.328 . S
C183 C185 1.392 . S
C183 H190 0.930 . S
N184 C181 1.329 . S
N184 C185 1.331 . S
C185 C183 1.392 . S
C185 N184 1.331 . S
O186 Zn179 1.975 . S
O186 C187 1.252 . S
C187 O186 1.252 . S
C187 O188 1.252 . S
O188 Zn170 1.975 . S
O188 C187 1.252 . S
H189 C182 0.930 . S
H190 C183 0.930 . S
C191 C192 1.392 . S
C191 N195 1.328 . S
C191 H197 0.930 . S
C192 C191 1.392 . S
C192 N196 1.331 . S
C193 C194 1.391 . S
C193 N196 1.329 . S
C193 H203 0.930 . S
C194 C193 1.391 . S
C194 N195 1.334 . S
C194 H201 0.930 . S
N195 Zn179 2.119 . S
N195 C191 1.328 . S
N195 C194 1.334 . S
N196 C192 1.331 . S
N196 C193 1.329 . S
H197 C191 0.930 . S
C198 O178 1.257 . S
C198 O199 1.244 . S
O199 C198 1.244 . S
O200 C176 1.257 . S
O200 Zn179 2.019 . S
H201 C194 0.930 . S
H202 C181 0.930 . S
H203 C193 0.930 . S
H204 C216 0.930 . S
H205 C218 0.930 . S
H206 C219 0.930 . S
H207 C223 0.959 . S
H208 C223 0.959 . S
H209 C223 0.961 . S
H210 C224 0.960 . S
H211 C224 0.961 . S
H212 C224 0.959 . S
H213 C227 0.929 . S
H214 C228 0.931 . S
H215 C230 0.930 . S
C216 H204 0.930 . S
C216 C217 1.399 . S
C216 C221 1.399 . S
C217 C216 1.399 . S
C217 C218 1.376 . S
C218 H205 0.930 . S
C218 C217 1.376 . S
C218 C219 1.388 . S
C219 H206 0.930 . S
C219 C218 1.388 . S
C219 C220 1.390 . S
C220 C219 1.390 . S
C220 C221 1.394 . S
C220 C226 1.465 . S
C221 C216 1.399 . S
C221 C220 1.394 . S
C221 C222 1.516 . S
C222 C221 1.516 . S
C222 C223 1.502 . S
C222 C224 1.561 . S
C222 C225 1.526 . S
C223 H207 0.959 . S
C223 H208 0.959 . S
C223 H209 0.961 . S
C223 C222 1.502 . S
C224 H210 0.960 . S
C224 H211 0.961 . S
C224 H212 0.959 . S
C224 C222 1.561 . S
C225 C222 1.526 . S
C225 C226 1.396 . S
C225 C230 1.390 . S
C226 C220 1.465 . S
C226 C225 1.396 . S
C226 C227 1.399 . S
C227 H213 0.929 . S
C227 C226 1.399 . S
C227 C228 1.385 . S
C228 H214 0.931 . S
C228 C227 1.385 . S
C228 C229 1.389 . S
C229 C228 1.389 . S
C229 C230 1.387 . S
C230 H215 0.930 . S
C230 C225 1.390 . S
C230 C229 1.387 . S
H231 C243 0.930 . S
H232 C245 0.930 . S
H233 C246 0.930 . S
H234 C250 0.959 . S
H235 C250 0.959 . S
H236 C250 0.961 . S
H237 C251 0.960 . S
H238 C251 0.961 . S
H239 C251 0.959 . S
H240 C254 0.929 . S
H241 C255 0.931 . S
H242 C257 0.930 . S
C243 H231 0.930 . S
C243 C244 1.399 . S
C243 C248 1.399 . S
C244 C243 1.399 . S
C244 C245 1.376 . S
C245 H232 0.930 . S
C245 C244 1.376 . S
C245 C246 1.388 . S
C246 H233 0.930 . S
C246 C245 1.388 . S
C246 C247 1.390 . S
C247 C246 1.390 . S
C247 C248 1.394 . S
C247 C253 1.465 . S
C248 C243 1.399 . S
C248 C247 1.394 . S
C248 C249 1.516 . S
C249 C248 1.516 . S
C249 C250 1.502 . S
C249 C251 1.561 . S
C249 C252 1.526 . S
C250 H234 0.959 . S
C250 H235 0.959 . S
C250 H236 0.961 . S
C250 C249 1.502 . S
C251 H237 0.960 . S
C251 H238 0.961 . S
C251 H239 0.959 . S
C251 C249 1.561 . S
C252 C249 1.526 . S
C252 C253 1.396 . S
C252 C257 1.390 . S
C253 C247 1.465 . S
C253 C252 1.396 . S
C253 C254 1.399 1_565 S
C254 H240 0.929 . S
C254 C253 1.399 1_545 S
C254 C255 1.385 . S
C255 H241 0.931 . S
C255 C254 1.385 . S
C255 C256 1.389 1_545 S
C256 C255 1.389 1_565 S
C256 C257 1.387 . S
C257 H242 0.930 . S
C257 C252 1.390 . S
C257 C256 1.387 . S
H258 C270 0.930 . S
H259 C272 0.930 . S
H260 C273 0.930 . S
H261 C277 0.959 . S
H262 C277 0.959 . S
H263 C277 0.961 . S
H264 C278 0.960 . S
H265 C278 0.961 . S
H266 C278 0.959 . S
H267 C281 0.929 . S
H268 C282 0.931 . S
H269 C284 0.930 . S
C270 H258 0.930 . S
C270 C271 1.399 . S
C270 C275 1.399 . S
C271 C270 1.399 . S
C271 C272 1.376 . S
C272 H259 0.930 . S
C272 C271 1.376 . S
C272 C273 1.388 . S
C273 H260 0.930 . S
C273 C272 1.388 . S
C273 C274 1.390 . S
C274 C273 1.390 . S
C274 C275 1.394 . S
C274 C280 1.465 . S
C275 C270 1.399 . S
C275 C274 1.394 . S
C275 C276 1.516 . S
C276 C275 1.516 . S
C276 C277 1.502 . S
C276 C278 1.561 . S
C276 C279 1.526 . S
C277 H261 0.959 . S
C277 H262 0.959 . S
C277 H263 0.961 . S
C277 C276 1.502 . S
C278 H264 0.960 . S
C278 H265 0.961 . S
C278 H266 0.959 . S
C278 C276 1.561 . S
C279 C276 1.526 . S
C279 C280 1.396 . S
C279 C284 1.390 . S
C280 C274 1.465 . S
C280 C279 1.396 . S
C280 C281 1.399 . S
C281 H267 0.929 . S
C281 C280 1.399 . S
C281 C282 1.385 . S
C282 H268 0.931 . S
C282 C281 1.385 . S
C282 C283 1.389 . S
C283 C282 1.389 . S
C283 C284 1.387 . S
C284 H269 0.930 . S
C284 C279 1.390 . S
C284 C283 1.387 . S
H285 C297 0.930 . S
H286 C299 0.930 . S
H287 C300 0.930 . S
H288 C304 0.959 . S
H289 C304 0.959 . S
H290 C304 0.961 . S
H291 C305 0.960 . S
H292 C305 0.961 . S
H293 C305 0.959 . S
H294 C308 0.929 . S
H295 C309 0.931 . S
H296 C311 0.930 . S
C297 H285 0.930 . S
C297 C298 1.399 . S
C297 C302 1.399 . S
C298 C297 1.399 . S
C298 C299 1.376 . S
C299 H286 0.930 . S
C299 C298 1.376 . S
C299 C300 1.388 . S
C300 H287 0.930 . S
C300 C299 1.388 . S
C300 C301 1.390 . S
C301 C300 1.390 . S
C301 C302 1.394 . S
C301 C307 1.465 . S
C302 C297 1.399 . S
C302 C301 1.394 . S
C302 C303 1.516 . S
C303 C302 1.516 . S
C303 C304 1.502 . S
C303 C305 1.561 . S
C303 C306 1.526 . S
C304 H288 0.959 . S
C304 H289 0.959 . S
C304 H290 0.961 . S
C304 C303 1.502 . S
C305 H291 0.960 . S
C305 H292 0.961 . S
C305 H293 0.959 . S
C305 C303 1.561 . S
C306 C303 1.526 . S
C306 C307 1.396 . S
C306 C311 1.390 . S
C307 C301 1.465 . S
C307 C306 1.396 . S
C307 C308 1.399 . S
C308 H294 0.929 . S
C308 C307 1.399 . S
C308 C309 1.385 . S
C309 H295 0.931 . S
C309 C308 1.385 . S
C309 C310 1.389 . S
C310 C309 1.389 . S
C310 C311 1.387 . S
C311 H296 0.930 . S
C311 C306 1.390 . S
C311 C310 1.387 . S
H312 C324 0.930 1_565 S
H313 C326 0.930 . S
H314 C327 0.930 . S
H315 C331 0.959 . S
H316 C331 0.959 . S
H317 C331 0.961 . S
H318 C332 0.960 . S
H319 C332 0.964 1_545 S
H320 C332 0.959 . S
H321 C335 0.929 . S
H322 C336 0.931 . S
H323 C338 0.930 . S
C324 H312 0.930 1_545 S
C324 C325 1.399 . S
C324 C329 1.399 . S
C325 C324 1.399 . S
C325 C326 1.376 . S
C326 H313 0.930 . S
C326 C325 1.376 . S
C326 C327 1.388 . S
C327 H314 0.930 . S
C327 C326 1.388 . S
C327 C328 1.390 . S
C328 C327 1.390 . S
C328 C329 1.394 . S
C328 C334 1.465 . S
C329 C324 1.399 . S
C329 C328 1.394 . S
C329 C330 1.516 . S
C330 C329 1.516 . S
C330 C331 1.502 . S
C330 C332 1.561 1_545 S
C330 C333 1.526 . S
C331 H315 0.959 . S
C331 H316 0.959 . S
C331 H317 0.961 . S
C331 C330 1.502 . S
C332 H318 0.960 . S
C332 H319 0.964 1_565 S
C332 H320 0.959 . S
C332 C330 1.561 1_565 S
C333 C330 1.526 . S
C333 C334 1.396 . S
C333 C338 1.390 . S
C334 C328 1.465 . S
C334 C333 1.396 . S
C334 C335 1.399 . S
C335 H321 0.929 . S
C335 C334 1.399 . S
C335 C336 1.385 . S
C336 H322 0.931 . S
C336 C335 1.385 . S
C336 C337 1.389 . S
C337 C336 1.389 . S
C337 C338 1.387 . S
C338 H323 0.930 . S
C338 C333 1.390 . S
C338 C337 1.387 . S
H339 C351 0.930 . S
H340 C353 0.930 1_455 S
H341 C354 0.930 . S
H342 C358 0.959 . S
H343 C358 0.959 . S
H344 C358 0.961 . S
H345 C359 0.960 . S
H346 C359 0.961 . S
H347 C359 0.959 . S
H348 C362 0.929 . S
H349 C363 0.931 . S
H350 C365 0.930 . S
C351 H339 0.930 . S
C351 C352 1.399 . S
C351 C356 1.399 . S
C352 C351 1.399 . S
C352 C353 1.376 . S
C353 H340 0.930 1_655 S
C353 C352 1.376 . S
C353 C354 1.388 . S
C354 H341 0.930 . S
C354 C353 1.388 . S
C354 C355 1.390 . S
C355 C354 1.390 . S
C355 C356 1.394 . S
C355 C361 1.465 . S
C356 C351 1.399 . S
C356 C355 1.394 . S
C356 C357 1.516 . S
C357 C356 1.516 . S
C357 C358 1.502 . S
C357 C359 1.561 . S
C357 C360 1.526 . S
C358 H342 0.959 . S
C358 H343 0.959 . S
C358 H344 0.961 . S
C358 C357 1.502 . S
C359 H345 0.960 . S
C359 H346 0.961 . S
C359 H347 0.959 . S
C359 C357 1.561 . S
C360 C357 1.526 . S
C360 C361 1.396 . S
C360 C365 1.390 . S
C361 C355 1.465 . S
C361 C360 1.396 . S
C361 C362 1.399 . S
C362 H348 0.929 . S
C362 C361 1.399 . S
C362 C363 1.385 . S
C363 H349 0.931 . S
C363 C362 1.385 . S
C363 C364 1.389 . S
C364 C363 1.389 . S
C364 C365 1.387 . S
C365 H350 0.930 . S
C365 C360 1.390 . S
C365 C364 1.387 . S
H366 C378 0.930 . S
H367 C380 0.930 . S
H368 C381 0.930 . S
H369 C385 0.959 1_554 S
H370 C385 0.959 . S
H371 C385 0.961 . S
H372 C386 0.960 . S
H373 C386 0.961 . S
H374 C386 0.959 . S
H375 C389 0.929 . S
H376 C390 0.931 . S
H377 C392 0.930 . S
C378 H366 0.930 . S
C378 C379 1.399 . S
C378 C383 1.399 . S
C379 C378 1.399 . S
C379 C380 1.376 1_556 S
C380 H367 0.930 . S
C380 C379 1.376 1_554 S
C380 C381 1.388 . S
C381 H368 0.930 . S
C381 C380 1.388 . S
C381 C382 1.390 . S
C382 C381 1.390 . S
C382 C383 1.394 1_554 S
C382 C388 1.465 . S
C383 C378 1.399 . S
C383 C382 1.394 1_556 S
C383 C384 1.516 . S
C384 C383 1.516 . S
C384 C385 1.502 . S
C384 C386 1.561 . S
C384 C387 1.526 . S
C385 H369 0.959 1_556 S
C385 H370 0.959 . S
C385 H371 0.961 . S
C385 C384 1.502 . S
C386 H372 0.960 . S
C386 H373 0.961 . S
C386 H374 0.959 . S
C386 C384 1.561 . S
C387 C384 1.526 . S
C387 C388 1.396 1_556 S
C387 C392 1.390 . S
C388 C382 1.465 . S
C388 C387 1.396 1_554 S
C388 C389 1.399 . S
C389 H375 0.929 . S
C389 C388 1.399 . S
C389 C390 1.385 . S
C390 H376 0.931 . S
C390 C389 1.385 . S
C390 C391 1.389 . S
C391 C390 1.389 . S
C391 C392 1.387 1_554 S
C392 H377 0.930 . S
C392 C387 1.390 . S
C392 C391 1.387 1_556 S
H393 C405 0.930 . S
H394 C407 0.930 . S
H395 C408 0.930 . S
H396 C412 0.959 . S
H397 C412 0.959 . S
H398 C412 0.961 1_545 S
H399 C413 0.960 1_545 S
H400 C413 0.961 . S
H401 C413 0.959 . S
H402 C416 0.929 . S
H403 C417 0.931 . S
H404 C419 0.930 . S
C405 H393 0.930 . S
C405 C406 1.399 . S
C405 C410 1.399 . S
C406 C405 1.399 . S
C406 C407 1.376 . S
C407 H394 0.930 . S
C407 C406 1.376 . S
C407 C408 1.388 . S
C408 H395 0.930 . S
C408 C407 1.388 . S
C408 C409 1.390 . S
C409 C408 1.390 . S
C409 C410 1.394 . S
C409 C415 1.465 1_545 S
C410 C405 1.399 . S
C410 C409 1.394 . S
C410 C411 1.516 1_545 S
C411 C410 1.516 1_565 S
C411 C412 1.502 . S
C411 C413 1.561 . S
C411 C414 1.526 . S
C412 H396 0.959 . S
C412 H397 0.959 . S
C412 H398 0.961 1_565 S
C412 C411 1.502 . S
C413 H399 0.960 1_565 S
C413 H400 0.961 . S
C413 H401 0.959 . S
C413 C411 1.561 . S
C414 C411 1.526 . S
C414 C415 1.396 . S
C414 C419 1.390 . S
C415 C409 1.465 1_565 S
C415 C414 1.396 . S
C415 C416 1.399 . S
C416 H402 0.929 . S
C416 C415 1.399 . S
C416 C417 1.385 . S
C417 H403 0.931 . S
C417 C416 1.385 . S
C417 C418 1.389 . S
C418 C417 1.389 . S
C418 C419 1.387 . S
C419 H404 0.930 . S
C419 C414 1.390 . S
C419 C418 1.387 . S
H420 C432 0.930 . S
H421 C434 0.930 . S
H422 C435 0.930 . S
H423 C439 0.959 . S
H424 C439 0.959 . S
H425 C439 0.961 1_655 S
H426 C440 0.960 1_655 S
H427 C440 0.961 . S
H428 C440 0.959 . S
H429 C443 0.929 . S
H430 C444 0.931 . S
H431 C446 0.930 . S
C432 H420 0.930 . S
C432 C433 1.399 . S
C432 C437 1.399 . S
C433 C432 1.399 . S
C433 C434 1.376 . S
C434 H421 0.930 . S
C434 C433 1.376 . S
C434 C435 1.388 . S
C435 H422 0.930 . S
C435 C434 1.388 . S
C435 C436 1.390 . S
C436 C435 1.390 . S
C436 C437 1.394 . S
C436 C442 1.465 1_655 S
C437 C432 1.399 . S
C437 C436 1.394 . S
C437 C438 1.516 1_655 S
C438 C437 1.516 1_455 S
C438 C439 1.502 . S
C438 C440 1.561 . S
C438 C441 1.526 . S
C439 H423 0.959 . S
C439 H424 0.959 . S
C439 H425 0.961 1_455 S
C439 C438 1.502 . S
C440 H426 0.960 1_455 S
C440 H427 0.961 . S
C440 H428 0.959 . S
C440 C438 1.561 . S
C441 C438 1.526 . S
C441 C442 1.396 . S
C441 C446 1.390 . S
C442 C436 1.465 1_455 S
C442 C441 1.396 . S
C442 C443 1.399 . S
C443 H429 0.929 . S
C443 C442 1.399 . S
C443 C444 1.385 . S
C444 H430 0.931 . S
C444 C443 1.385 . S
C444 C445 1.389 . S
C445 C444 1.389 . S
C445 C446 1.387 . S
C446 H431 0.930 . S
C446 C441 1.390 . S
C446 C445 1.387 . S
H447 C459 0.930 . S
H448 C461 0.930 . S
H449 C462 0.930 . S
H450 C466 0.959 . S
H451 C466 0.959 . S
H452 C466 0.961 . S
H453 C467 0.960 . S
H454 C467 0.961 . S
H455 C467 0.959 1_455 S
H456 C470 0.929 . S
H457 C471 0.931 . S
H458 C473 0.930 1_655 S
C459 H447 0.930 . S
C459 C460 1.399 . S
C459 C464 1.399 . S
C460 C459 1.399 . S
C460 C461 1.376 1_655 S
C461 H448 0.930 . S
C461 C460 1.376 1_455 S
C461 C462 1.388 . S
C462 H449 0.930 . S
C462 C461 1.388 . S
C462 C463 1.390 . S
C463 C462 1.390 . S
C463 C464 1.394 1_455 S
C463 C469 1.465 . S
C464 C459 1.399 . S
C464 C463 1.394 1_655 S
C464 C465 1.516 . S
C465 C464 1.516 . S
C465 C466 1.502 . S
C465 C467 1.561 . S
C465 C468 1.517 1_655 S
C466 H450 0.959 . S
C466 H451 0.959 . S
C466 H452 0.961 . S
C466 C465 1.502 . S
C467 H453 0.960 . S
C467 H454 0.961 . S
C467 H455 0.959 1_655 S
C467 C465 1.561 . S
C468 C465 1.517 1_455 S
C468 C469 1.405 . S
C468 C473 1.390 . S
C469 C463 1.465 . S
C469 C468 1.405 . S
C469 C470 1.399 . S
C470 H456 0.929 . S
C470 C469 1.399 . S
C470 C471 1.385 . S
C471 H457 0.931 . S
C471 C470 1.385 . S
C471 C472 1.389 . S
C472 C471 1.389 . S
C472 C473 1.387 . S
C473 H458 0.930 1_455 S
C473 C468 1.390 . S
C473 C472 1.387 . S
H474 C486 0.930 . S
H475 C488 0.930 . S
H476 C489 0.930 . S
H477 C493 0.959 . S
H478 C493 0.962 1_554 S
H479 C493 0.958 . S
H480 C494 0.946 1_556 S
H481 C494 0.961 . S
H482 C494 0.959 . S
H483 C497 0.929 . S
H484 C498 0.931 . S
H485 C500 0.930 . S
C486 H474 0.930 . S
C486 C487 1.399 . S
C486 C491 1.399 . S
C487 C486 1.399 . S
C487 C488 1.376 . S
C488 H475 0.930 . S
C488 C487 1.376 . S
C488 C489 1.388 . S
C489 H476 0.930 . S
C489 C488 1.388 . S
C489 C490 1.390 . S
C490 C489 1.390 . S
C490 C491 1.394 . S
C490 C496 1.465 1_556 S
C491 C486 1.399 . S
C491 C490 1.394 . S
C491 C492 1.516 1_556 S
C492 C491 1.516 1_554 S
C492 C493 1.502 1_554 S
C492 C494 1.561 . S
C492 C495 1.526 . S
C493 H477 0.959 . S
C493 H478 0.962 1_556 S
C493 H479 0.958 . S
C493 C492 1.502 1_556 S
C494 H480 0.946 1_554 S
C494 H481 0.961 . S
C494 H482 0.959 . S
C494 C492 1.561 . S
C495 C492 1.526 . S
C495 C496 1.396 . S
C495 C500 1.390 . S
C496 C490 1.465 1_554 S
C496 C495 1.396 . S
C496 C497 1.399 . S
C497 H483 0.929 . S
C497 C496 1.399 . S
C497 C498 1.385 . S
C498 H484 0.931 . S
C498 C497 1.385 . S
C498 C499 1.389 . S
C499 C498 1.389 . S
C499 C500 1.387 . S
C500 H485 0.930 . S
C500 C495 1.390 . S
C500 C499 1.387 . S
H501 C513 0.930 . S
H502 C515 0.930 . S
H503 C516 0.930 . S
H504 C520 0.959 . S
H505 C520 0.959 . S
H506 C520 0.961 . S
H507 C521 0.960 . S
H508 C521 0.961 . S
H509 C521 0.959 . S
H510 C524 0.929 . S
H511 C525 0.931 . S
H512 C527 0.942 . S
C513 H501 0.930 . S
C513 C514 1.399 . S
C513 C518 1.399 . S
C514 C513 1.399 . S
C514 C515 1.376 1_545 S
C515 H502 0.930 . S
C515 C514 1.376 1_565 S
C515 C516 1.388 . S
C516 H503 0.930 . S
C516 C515 1.388 . S
C516 C517 1.390 . S
C517 C516 1.390 . S
C517 C518 1.394 1_565 S
C517 C523 1.465 . S
C518 C513 1.399 . S
C518 C517 1.394 1_545 S
C518 C519 1.516 . S
C519 C518 1.516 . S
C519 C520 1.502 . S
C519 C521 1.561 . S
C519 C522 1.526 . S
C520 H504 0.959 . S
C520 H505 0.959 . S
C520 H506 0.961 . S
C520 C519 1.502 . S
C521 H507 0.960 . S
C521 H508 0.961 . S
C521 H509 0.959 . S
C521 C519 1.561 . S
C522 C519 1.526 . S
C522 C523 1.396 1_545 S
C522 C527 1.391 . S
C523 C517 1.465 . S
C523 C522 1.396 1_565 S
C523 C524 1.399 . S
C524 H510 0.929 . S
C524 C523 1.399 . S
C524 C525 1.385 . S
C525 H511 0.931 . S
C525 C524 1.385 . S
C525 C526 1.389 . S
C526 C525 1.389 . S
C526 C527 1.374 1_565 S
C527 H512 0.942 . S
C527 C522 1.391 . S
C527 C526 1.374 1_545 S
H528 C540 0.930 . S
H529 C542 0.930 . S
H530 C543 0.930 . S
H531 C547 0.959 . S
H532 C547 0.959 . S
H533 C547 0.961 . S
H534 C548 0.960 . S
H535 C548 0.961 . S
H536 C548 0.959 . S
H537 C551 0.929 . S
H538 C552 0.931 . S
H539 C554 0.930 . S
C540 H528 0.930 . S
C540 C541 1.399 . S
C540 C545 1.399 . S
C541 C540 1.399 . S
C541 C542 1.376 . S
C542 H529 0.930 . S
C542 C541 1.376 . S
C542 C543 1.388 . S
C543 H530 0.930 . S
C543 C542 1.388 . S
C543 C544 1.390 . S
C544 C543 1.390 . S
C544 C545 1.394 . S
C544 C550 1.465 . S
C545 C540 1.399 . S
C545 C544 1.394 . S
C545 C546 1.516 . S
C546 C545 1.516 . S
C546 C547 1.502 . S
C546 C548 1.561 . S
C546 C549 1.526 . S
C547 H531 0.959 . S
C547 H532 0.959 . S
C547 H533 0.961 . S
C547 C546 1.502 . S
C548 H534 0.960 . S
C548 H535 0.961 . S
C548 H536 0.959 . S
C548 C546 1.561 . S
C549 C546 1.526 . S
C549 C550 1.396 . S
C549 C554 1.390 . S
C550 C544 1.465 . S
C550 C549 1.396 . S
C550 C551 1.399 . S
C551 H537 0.929 . S
C551 C550 1.399 . S
C551 C552 1.385 . S
C552 H538 0.931 . S
C552 C551 1.385 . S
C552 C553 1.389 . S
C553 C552 1.389 . S
C553 C554 1.387 . S
C554 H539 0.930 . S
C554 C549 1.390 . S
C554 C553 1.387 . S
H555 C567 0.930 . S
H556 C569 0.930 . S
H557 C570 0.930 . S
H558 C574 0.959 . S
H559 C574 0.959 . S
H560 C574 0.961 . S
H561 C575 0.960 . S
H562 C575 0.961 . S
H563 C575 0.959 . S
H564 C578 0.929 . S
H565 C579 0.931 . S
H566 C581 0.930 . S
C567 H555 0.930 . S
C567 C568 1.399 . S
C567 C572 1.399 . S
C568 C567 1.399 . S
C568 C569 1.376 . S
C569 H556 0.930 . S
C569 C568 1.376 . S
C569 C570 1.388 . S
C570 H557 0.930 . S
C570 C569 1.388 . S
C570 C571 1.390 . S
C571 C570 1.390 . S
C571 C572 1.394 . S
C571 C577 1.465 . S
C572 C567 1.399 . S
C572 C571 1.394 . S
C572 C573 1.516 . S
C573 C572 1.516 . S
C573 C574 1.502 . S
C573 C575 1.561 . S
C573 C576 1.526 . S
C574 H558 0.959 . S
C574 H559 0.959 . S
C574 H560 0.961 . S
C574 C573 1.502 . S
C575 H561 0.960 . S
C575 H562 0.961 . S
C575 H563 0.959 . S
C575 C573 1.561 . S
C576 C573 1.526 . S
C576 C577 1.396 . S
C576 C581 1.390 . S
C577 C571 1.465 . S
C577 C576 1.396 . S
C577 C578 1.399 . S
C578 H564 0.929 . S
C578 C577 1.399 . S
C578 C579 1.385 . S
C579 H565 0.931 . S
C579 C578 1.385 . S
C579 C580 1.389 . S
C580 C579 1.389 . S
C580 C581 1.387 . S
C581 H566 0.930 . S
C581 C576 1.390 . S
C581 C580 1.387 . S
H582 C594 0.930 . S
H583 C596 0.930 . S
H584 C597 0.930 . S
H585 C601 0.959 . S
H586 C601 0.959 . S
H587 C601 0.961 . S
H588 C602 0.960 . S
H589 C602 0.961 . S
H590 C602 0.959 . S
H591 C605 0.929 . S
H592 C606 0.931 . S
H593 C608 0.930 . S
C594 H582 0.930 . S
C594 C595 1.399 . S
C594 C599 1.399 . S
C595 C594 1.399 . S
C595 C596 1.376 . S
C596 H583 0.930 . S
C596 C595 1.376 . S
C596 C597 1.388 . S
C597 H584 0.930 . S
C597 C596 1.388 . S
C597 C598 1.390 . S
C598 C597 1.390 . S
C598 C599 1.394 . S
C598 C604 1.465 . S
C599 C594 1.399 . S
C599 C598 1.394 . S
C599 C600 1.516 . S
C600 C599 1.516 . S
C600 C601 1.502 . S
C600 C602 1.561 . S
C600 C603 1.526 . S
C601 H585 0.959 . S
C601 H586 0.959 . S
C601 H587 0.961 . S
C601 C600 1.502 . S
C602 H588 0.960 . S
C602 H589 0.961 . S
C602 H590 0.959 . S
C602 C600 1.561 . S
C603 C600 1.526 . S
C603 C604 1.396 . S
C603 C608 1.390 . S
C604 C598 1.465 . S
C604 C603 1.396 . S
C604 C605 1.399 . S
C605 H591 0.929 . S
C605 C604 1.399 . S
C605 C606 1.385 . S
C606 H592 0.931 . S
C606 C605 1.385 . S
C606 C607 1.389 . S
C607 C606 1.389 . S
C607 C608 1.387 . S
C608 H593 0.930 . S
C608 C603 1.390 . S
C608 C607 1.387 . S
H609 C621 0.930 . S
H610 C623 0.930 . S
H611 C624 0.930 . S
H612 C628 0.959 . S
H613 C628 0.959 . S
H614 C628 0.961 . S
H615 C629 0.960 . S
H616 C629 0.961 . S
H617 C629 0.959 . S
H618 C632 0.929 . S
H619 C633 0.931 . S
H620 C635 0.930 . S
C621 H609 0.930 . S
C621 C622 1.399 . S
C621 C626 1.399 . S
C622 C621 1.399 . S
C622 C623 1.376 . S
C623 H610 0.930 . S
C623 C622 1.376 . S
C623 C624 1.388 . S
C624 H611 0.930 . S
C624 C623 1.388 . S
C624 C625 1.390 . S
C625 C624 1.390 . S
C625 C626 1.394 . S
C625 C631 1.465 . S
C626 C621 1.399 . S
C626 C625 1.394 . S
C626 C627 1.516 . S
C627 C626 1.516 . S
C627 C628 1.502 . S
C627 C629 1.561 . S
C627 C630 1.526 . S
C628 H612 0.959 . S
C628 H613 0.959 . S
C628 H614 0.961 . S
C628 C627 1.502 . S
C629 H615 0.960 . S
C629 H616 0.961 . S
C629 H617 0.959 . S
C629 C627 1.561 . S
C630 C627 1.526 . S
C630 C631 1.396 . S
C630 C635 1.390 . S
C631 C625 1.465 . S
C631 C630 1.396 . S
C631 C632 1.399 . S
C632 H618 0.929 . S
C632 C631 1.399 . S
C632 C633 1.385 . S
C633 H619 0.931 . S
C633 C632 1.385 . S
C633 C634 1.389 . S
C634 C633 1.389 . S
C634 C635 1.387 . S
C635 H620 0.930 . S
C635 C630 1.390 . S
C635 C634 1.387 . S
H636 C648 0.930 . S
H637 C650 0.930 . S
H638 C651 0.930 . S
H639 C655 0.959 . S
H640 C655 0.959 . S
H641 C655 0.961 . S
H642 C656 0.960 . S
H643 C656 0.961 . S
H644 C656 0.959 . S
H645 C659 0.929 . S
H646 C660 0.931 . S
H647 C662 0.930 . S
C648 H636 0.930 . S
C648 C649 1.399 . S
C648 C653 1.399 . S
C649 C648 1.399 . S
C649 C650 1.376 . S
C650 H637 0.930 . S
C650 C649 1.376 . S
C650 C651 1.388 . S
C651 H638 0.930 . S
C651 C650 1.388 . S
C651 C652 1.390 . S
C652 C651 1.390 . S
C652 C653 1.394 . S
C652 C658 1.465 . S
C653 C648 1.399 . S
C653 C652 1.394 . S
C653 C654 1.516 . S
C654 C653 1.516 . S
C654 C655 1.502 . S
C654 C656 1.561 . S
C654 C657 1.526 . S
C655 H639 0.959 . S
C655 H640 0.959 . S
C655 H641 0.961 . S
C655 C654 1.502 . S
C656 H642 0.960 . S
C656 H643 0.961 . S
C656 H644 0.959 . S
C656 C654 1.561 . S
C657 C654 1.526 . S
C657 C658 1.396 . S
C657 C662 1.390 . S
C658 C652 1.465 . S
C658 C657 1.396 . S
C658 C659 1.399 . S
C659 H645 0.929 . S
C659 C658 1.399 . S
C659 C660 1.385 . S
C660 H646 0.931 . S
C660 C659 1.385 . S
C660 C661 1.389 . S
C661 C660 1.389 . S
C661 C662 1.387 . S
C662 H647 0.930 . S
C662 C657 1.390 . S
C662 C661 1.387 . S
H663 C675 0.930 . S
H664 C677 0.930 . S
H665 C678 0.930 . S
H666 C682 0.959 . S
H667 C682 0.959 . S
H668 C682 0.961 . S
H669 C683 0.960 . S
H670 C683 0.961 . S
H671 C683 0.959 . S
H672 C686 0.929 . S
H673 C687 0.931 . S
H674 C689 0.930 . S
C675 H663 0.930 . S
C675 C676 1.399 . S
C675 C680 1.399 . S
C676 C675 1.399 . S
C676 C677 1.376 . S
C677 H664 0.930 . S
C677 C676 1.376 . S
C677 C678 1.388 . S
C678 H665 0.930 . S
C678 C677 1.388 . S
C678 C679 1.390 . S
C679 C678 1.390 . S
C679 C680 1.394 . S
C679 C685 1.465 . S
C680 C675 1.399 . S
C680 C679 1.394 . S
C680 C681 1.516 . S
C681 C680 1.516 . S
C681 C682 1.502 . S
C681 C683 1.561 . S
C681 C684 1.526 . S
C682 H666 0.959 . S
C682 H667 0.959 . S
C682 H668 0.961 . S
C682 C681 1.502 . S
C683 H669 0.960 . S
C683 H670 0.961 . S
C683 H671 0.959 . S
C683 C681 1.561 . S
C684 C681 1.526 . S
C684 C685 1.396 . S
C684 C689 1.390 . S
C685 C679 1.465 . S
C685 C684 1.396 . S
C685 C686 1.399 . S
C686 H672 0.929 . S
C686 C685 1.399 . S
C686 C687 1.385 . S
C687 H673 0.931 . S
C687 C686 1.385 . S
C687 C688 1.389 . S
C688 C687 1.389 . S
C688 C689 1.387 . S
C689 H674 0.930 . S
C689 C684 1.390 . S
C689 C688 1.387 . S
H690 C702 0.930 . S
H691 C704 0.930 . S
H692 C705 0.930 . S
H693 C709 0.959 . S
H694 C709 0.959 . S
H695 C709 0.961 . S
H696 C710 0.960 . S
H697 C710 0.961 . S
H698 C710 0.959 1_455 S
H699 C713 0.929 . S
H700 C714 0.931 . S
H701 C716 0.930 1_655 S
C702 H690 0.930 . S
C702 C703 1.399 . S
C702 C707 1.399 . S
C703 C702 1.399 . S
C703 C704 1.376 1_655 S
C704 H691 0.930 . S
C704 C703 1.376 1_455 S
C704 C705 1.388 . S
C705 H692 0.930 . S
C705 C704 1.388 . S
C705 C706 1.390 . S
C706 C705 1.390 . S
C706 C707 1.394 1_455 S
C706 C712 1.465 . S
C707 C702 1.399 . S
C707 C706 1.394 1_655 S
C707 C708 1.516 . S
C708 C707 1.516 . S
C708 C709 1.502 . S
C708 C710 1.561 . S
C708 C711 1.526 . S
C709 H693 0.959 . S
C709 H694 0.959 . S
C709 H695 0.961 . S
C709 C708 1.502 . S
C710 H696 0.960 . S
C710 H697 0.961 . S
C710 H698 0.959 1_655 S
C710 C708 1.561 . S
C711 C708 1.526 . S
C711 C712 1.396 1_655 S
C711 C716 1.390 1_655 S
C712 C706 1.465 . S
C712 C711 1.396 1_455 S
C712 C713 1.399 . S
C713 H699 0.929 . S
C713 C712 1.399 . S
C713 C714 1.385 . S
C714 H700 0.931 . S
C714 C713 1.385 . S
C714 C715 1.389 . S
C715 C714 1.389 . S
C715 C716 1.387 . S
C716 H701 0.930 1_455 S
C716 C711 1.390 1_455 S
C716 C715 1.387 . S
H717 C729 0.930 . S
H718 C731 0.930 . S
H719 C732 0.930 . S
H720 C736 0.959 . S
H721 C736 0.959 . S
H722 C736 0.961 . S
H723 C737 0.960 . S
H724 C737 0.961 . S
H725 C737 0.959 . S
H726 C740 0.929 . S
H727 C741 0.931 . S
H728 C743 0.930 . S
C729 H717 0.930 . S
C729 C730 1.399 . S
C729 C734 1.399 . S
C730 C729 1.399 . S
C730 C731 1.376 . S
C731 H718 0.930 . S
C731 C730 1.376 . S
C731 C732 1.388 . S
C732 H719 0.930 . S
C732 C731 1.388 . S
C732 C733 1.390 . S
C733 C732 1.390 . S
C733 C734 1.394 . S
C733 C739 1.465 . S
C734 C729 1.399 . S
C734 C733 1.394 . S
C734 C735 1.516 . S
C735 C734 1.516 . S
C735 C736 1.502 . S
C735 C737 1.561 . S
C735 C738 1.526 . S
C736 H720 0.959 . S
C736 H721 0.959 . S
C736 H722 0.961 . S
C736 C735 1.502 . S
C737 H723 0.960 . S
C737 H724 0.961 . S
C737 H725 0.959 . S
C737 C735 1.561 . S
C738 C735 1.526 . S
C738 C739 1.396 . S
C738 C743 1.390 . S
C739 C733 1.465 . S
C739 C738 1.396 . S
C739 C740 1.399 . S
C740 H726 0.929 . S
C740 C739 1.399 . S
C740 C741 1.385 . S
C741 H727 0.931 . S
C741 C740 1.385 . S
C741 C742 1.389 . S
C742 C741 1.389 . S
C742 C743 1.387 . S
C743 H728 0.930 . S
C743 C738 1.390 . S
C743 C742 1.387 . S
H744 C756 0.930 . S
H745 C758 0.930 . S
H746 C759 0.930 . S
H747 C763 0.959 . S
H748 C763 0.959 . S
H749 C763 0.961 . S
H750 C764 0.960 . S
H751 C764 0.961 . S
H752 C764 0.959 . S
H753 C767 0.929 . S
H754 C768 0.931 . S
H755 C770 0.930 . S
C756 H744 0.930 . S
C756 C757 1.399 1_565 S
C756 C761 1.399 . S
C757 C756 1.399 1_545 S
C757 C758 1.376 . S
C758 H745 0.930 . S
C758 C757 1.376 . S
C758 C759 1.388 . S
C759 H746 0.930 . S
C759 C758 1.388 . S
C759 C760 1.390 . S
C760 C759 1.390 . S
C760 C761 1.394 1_545 S
C760 C766 1.465 . S
C761 C756 1.399 . S
C761 C760 1.394 1_565 S
C761 C762 1.516 . S
C762 C761 1.516 . S
C762 C763 1.502 . S
C762 C764 1.561 . S
C762 C765 1.526 . S
C763 H747 0.959 . S
C763 H748 0.959 . S
C763 H749 0.961 . S
C763 C762 1.502 . S
C764 H750 0.960 . S
C764 H751 0.961 . S
C764 H752 0.959 . S
C764 C762 1.561 . S
C765 C762 1.526 . S
C765 C766 1.396 1_565 S
C765 C770 1.390 . S
C766 C760 1.465 . S
C766 C765 1.396 1_545 S
C766 C767 1.399 . S
C767 H753 0.929 . S
C767 C766 1.399 . S
C767 C768 1.385 . S
C768 H754 0.931 . S
C768 C767 1.385 . S
C768 C769 1.389 1_545 S
C769 C768 1.389 1_565 S
C769 C770 1.387 . S
C770 H755 0.930 . S
C770 C765 1.390 . S
C770 C769 1.387 . S
C217 C173 2.540 . S
C229 C17 2.534 . S
C244 C51 2.552 . S
C256 C103 2.544 1_565 S
C271 C85 2.544 . S
C283 C137 2.524 1_455 S
C298 C35 2.527 . S
C310 C119 2.553 . S
C325 C71 2.523 1_545 S
C337 C153 2.547 . S
C352 C3 2.525 1_655 S
C364 C187 2.552 . S
C379 C130 0.630 . S
C391 C6 0.607 . S
C406 C164 0.661 . S
C418 C62 0.550 . S
C433 C176 0.626 . S
C445 C74 0.611 . S
C460 C158 0.569 . S
C472 C15 0.534 . S
C487 C56 0.614 . S
C499 C185 0.613 . S
C514 C124 0.614 . S
C526 C83 0.586 . S
C541 C22 0.545 . S
C553 C40 0.309 . S
C568 C96 0.100 . S
C580 C49 0.383 . S
C595 C28 0.215 . S
C607 C90 0.540 . S
C622 C117 0.506 . S
C634 C198 0.329 . S
C649 C151 0.383 . S
C661 C108 0.101 . S
C676 C142 0.183 . S
C688 C192 0.279 . S
C703 C139 3.374 . S
C715 C1 3.384 1_556 S
C730 C37 3.395 . S
C742 C171 3.385 . S
C757 C105 3.383 1_554 S
C769 C69 3.375 . S
